# Generated by pormake.
# Topology sod-h, (3)-cn, num edge types: 1
# Building blocks:
#     Node 0, Type 0, BuildingBlock: WUSLED_clean_sbu_0, # of connection points: 3
#     Node 1, Type 0, BuildingBlock: WUSLED_clean_sbu_0, # of connection points: 3
#     Node 2, Type 0, BuildingBlock: WUSLED_clean_sbu_0, # of connection points: 3
#     Node 3, Type 0, BuildingBlock: WUSLED_clean_sbu_0, # of connection points: 3
#     Node 4, Type 0, BuildingBlock: WUSLED_clean_sbu_0, # of connection points: 3
#     Node 5, Type 0, BuildingBlock: WUSLED_clean_sbu_0, # of connection points: 3
#     Node 6, Type 0, BuildingBlock: WUSLED_clean_sbu_0, # of connection points: 3
#     Node 7, Type 0, BuildingBlock: WUSLED_clean_sbu_0, # of connection points: 3
#     Node 8, Type 0, BuildingBlock: WUSLED_clean_sbu_0, # of connection points: 3
#     Node 9, Type 0, BuildingBlock: WUSLED_clean_sbu_0, # of connection points: 3
#     Node 10, Type 0, BuildingBlock: WUSLED_clean_sbu_0, # of connection points: 3
#     Node 11, Type 0, BuildingBlock: WUSLED_clean_sbu_0, # of connection points: 3
#     Node 12, Type 0, BuildingBlock: WUSLED_clean_sbu_0, # of connection points: 3
#     Node 13, Type 0, BuildingBlock: WUSLED_clean_sbu_0, # of connection points: 3
#     Node 14, Type 0, BuildingBlock: WUSLED_clean_sbu_0, # of connection points: 3
#     Node 15, Type 0, BuildingBlock: WUSLED_clean_sbu_0, # of connection points: 3
#     Node 16, Type 0, BuildingBlock: WUSLED_clean_sbu_0, # of connection points: 3
#     Node 17, Type 0, BuildingBlock: WUSLED_clean_sbu_0, # of connection points: 3
#     Node 18, Type 0, BuildingBlock: WUSLED_clean_sbu_0, # of connection points: 3
#     Node 19, Type 0, BuildingBlock: WUSLED_clean_sbu_0, # of connection points: 3
#     Node 20, Type 0, BuildingBlock: WUSLED_clean_sbu_0, # of connection points: 3
#     Node 21, Type 0, BuildingBlock: WUSLED_clean_sbu_0, # of connection points: 3
#     Node 22, Type 0, BuildingBlock: WUSLED_clean_sbu_0, # of connection points: 3
#     Node 23, Type 0, BuildingBlock: WUSLED_clean_sbu_0, # of connection points: 3
#     Node 24, Type 0, BuildingBlock: WUSLED_clean_sbu_0, # of connection points: 3
#     Node 25, Type 0, BuildingBlock: WUSLED_clean_sbu_0, # of connection points: 3
#     Node 26, Type 0, BuildingBlock: WUSLED_clean_sbu_0, # of connection points: 3
#     Node 27, Type 0, BuildingBlock: WUSLED_clean_sbu_0, # of connection points: 3
#     Node 28, Type 0, BuildingBlock: WUSLED_clean_sbu_0, # of connection points: 3
#     Node 29, Type 0, BuildingBlock: WUSLED_clean_sbu_0, # of connection points: 3
#     Node 30, Type 0, BuildingBlock: WUSLED_clean_sbu_0, # of connection points: 3
#     Node 31, Type 0, BuildingBlock: WUSLED_clean_sbu_0, # of connection points: 3
#     Node 32, Type 0, BuildingBlock: WUSLED_clean_sbu_0, # of connection points: 3
#     Node 33, Type 0, BuildingBlock: WUSLED_clean_sbu_0, # of connection points: 3
#     Node 34, Type 0, BuildingBlock: WUSLED_clean_sbu_0, # of connection points: 3
#     Node 35, Type 0, BuildingBlock: WUSLED_clean_sbu_0, # of connection points: 3
#     Node 36, Type 0, BuildingBlock: WUSLED_clean_sbu_0, # of connection points: 3
#     Node 37, Type 0, BuildingBlock: WUSLED_clean_sbu_0, # of connection points: 3
#     Node 38, Type 0, BuildingBlock: WUSLED_clean_sbu_0, # of connection points: 3
#     Node 39, Type 0, BuildingBlock: WUSLED_clean_sbu_0, # of connection points: 3
#     Node 40, Type 0, BuildingBlock: WUSLED_clean_sbu_0, # of connection points: 3
#     Node 41, Type 0, BuildingBlock: WUSLED_clean_sbu_0, # of connection points: 3
#     Node 42, Type 0, BuildingBlock: WUSLED_clean_sbu_0, # of connection points: 3
#     Node 43, Type 0, BuildingBlock: WUSLED_clean_sbu_0, # of connection points: 3
#     Node 44, Type 0, BuildingBlock: WUSLED_clean_sbu_0, # of connection points: 3
#     Node 45, Type 0, BuildingBlock: WUSLED_clean_sbu_0, # of connection points: 3
#     Node 46, Type 0, BuildingBlock: WUSLED_clean_sbu_0, # of connection points: 3
#     Node 47, Type 0, BuildingBlock: WUSLED_clean_sbu_0, # of connection points: 3
#     Edge 48, Type (0, 0), BuildingBlock: UVAHIK_clean_linker_0, # of connection points: 2
#     Edge 49, Type (0, 0), BuildingBlock: UVAHIK_clean_linker_0, # of connection points: 2
#     Edge 50, Type (0, 0), BuildingBlock: UVAHIK_clean_linker_0, # of connection points: 2
#     Edge 51, Type (0, 0), BuildingBlock: UVAHIK_clean_linker_0, # of connection points: 2
#     Edge 52, Type (0, 0), BuildingBlock: UVAHIK_clean_linker_0, # of connection points: 2
#     Edge 53, Type (0, 0), BuildingBlock: UVAHIK_clean_linker_0, # of connection points: 2
#     Edge 54, Type (0, 0), BuildingBlock: UVAHIK_clean_linker_0, # of connection points: 2
#     Edge 55, Type (0, 0), BuildingBlock: UVAHIK_clean_linker_0, # of connection points: 2
#     Edge 56, Type (0, 0), BuildingBlock: UVAHIK_clean_linker_0, # of connection points: 2
#     Edge 57, Type (0, 0), BuildingBlock: UVAHIK_clean_linker_0, # of connection points: 2
#     Edge 58, Type (0, 0), BuildingBlock: UVAHIK_clean_linker_0, # of connection points: 2
#     Edge 59, Type (0, 0), BuildingBlock: UVAHIK_clean_linker_0, # of connection points: 2
#     Edge 60, Type (0, 0), BuildingBlock: UVAHIK_clean_linker_0, # of connection points: 2
#     Edge 61, Type (0, 0), BuildingBlock: UVAHIK_clean_linker_0, # of connection points: 2
#     Edge 62, Type (0, 0), BuildingBlock: UVAHIK_clean_linker_0, # of connection points: 2
#     Edge 63, Type (0, 0), BuildingBlock: UVAHIK_clean_linker_0, # of connection points: 2
#     Edge 64, Type (0, 0), BuildingBlock: UVAHIK_clean_linker_0, # of connection points: 2
#     Edge 65, Type (0, 0), BuildingBlock: UVAHIK_clean_linker_0, # of connection points: 2
#     Edge 66, Type (0, 0), BuildingBlock: UVAHIK_clean_linker_0, # of connection points: 2
#     Edge 67, Type (0, 0), BuildingBlock: UVAHIK_clean_linker_0, # of connection points: 2
#     Edge 68, Type (0, 0), BuildingBlock: UVAHIK_clean_linker_0, # of connection points: 2
#     Edge 69, Type (0, 0), BuildingBlock: UVAHIK_clean_linker_0, # of connection points: 2
#     Edge 70, Type (0, 0), BuildingBlock: UVAHIK_clean_linker_0, # of connection points: 2
#     Edge 71, Type (0, 0), BuildingBlock: UVAHIK_clean_linker_0, # of connection points: 2
#     Edge 72, Type (0, 0), BuildingBlock: UVAHIK_clean_linker_0, # of connection points: 2
#     Edge 73, Type (0, 0), BuildingBlock: UVAHIK_clean_linker_0, # of connection points: 2
#     Edge 74, Type (0, 0), BuildingBlock: UVAHIK_clean_linker_0, # of connection points: 2
#     Edge 75, Type (0, 0), BuildingBlock: UVAHIK_clean_linker_0, # of connection points: 2
#     Edge 76, Type (0, 0), BuildingBlock: UVAHIK_clean_linker_0, # of connection points: 2
#     Edge 77, Type (0, 0), BuildingBlock: UVAHIK_clean_linker_0, # of connection points: 2
#     Edge 78, Type (0, 0), BuildingBlock: UVAHIK_clean_linker_0, # of connection points: 2
#     Edge 79, Type (0, 0), BuildingBlock: UVAHIK_clean_linker_0, # of connection points: 2
#     Edge 80, Type (0, 0), BuildingBlock: UVAHIK_clean_linker_0, # of connection points: 2
#     Edge 81, Type (0, 0), BuildingBlock: UVAHIK_clean_linker_0, # of connection points: 2
#     Edge 82, Type (0, 0), BuildingBlock: UVAHIK_clean_linker_0, # of connection points: 2
#     Edge 83, Type (0, 0), BuildingBlock: UVAHIK_clean_linker_0, # of connection points: 2
#     Edge 84, Type (0, 0), BuildingBlock: UVAHIK_clean_linker_0, # of connection points: 2
#     Edge 85, Type (0, 0), BuildingBlock: UVAHIK_clean_linker_0, # of connection points: 2
#     Edge 86, Type (0, 0), BuildingBlock: UVAHIK_clean_linker_0, # of connection points: 2
#     Edge 87, Type (0, 0), BuildingBlock: UVAHIK_clean_linker_0, # of connection points: 2
#     Edge 88, Type (0, 0), BuildingBlock: UVAHIK_clean_linker_0, # of connection points: 2
#     Edge 89, Type (0, 0), BuildingBlock: UVAHIK_clean_linker_0, # of connection points: 2
#     Edge 90, Type (0, 0), BuildingBlock: UVAHIK_clean_linker_0, # of connection points: 2
#     Edge 91, Type (0, 0), BuildingBlock: UVAHIK_clean_linker_0, # of connection points: 2
#     Edge 92, Type (0, 0), BuildingBlock: UVAHIK_clean_linker_0, # of connection points: 2
#     Edge 93, Type (0, 0), BuildingBlock: UVAHIK_clean_linker_0, # of connection points: 2
#     Edge 94, Type (0, 0), BuildingBlock: UVAHIK_clean_linker_0, # of connection points: 2
#     Edge 95, Type (0, 0), BuildingBlock: UVAHIK_clean_linker_0, # of connection points: 2
#     Edge 96, Type (0, 0), BuildingBlock: UVAHIK_clean_linker_0, # of connection points: 2
#     Edge 97, Type (0, 0), BuildingBlock: UVAHIK_clean_linker_0, # of connection points: 2
#     Edge 98, Type (0, 0), BuildingBlock: UVAHIK_clean_linker_0, # of connection points: 2
#     Edge 99, Type (0, 0), BuildingBlock: UVAHIK_clean_linker_0, # of connection points: 2
#     Edge 100, Type (0, 0), BuildingBlock: UVAHIK_clean_linker_0, # of connection points: 2
#     Edge 101, Type (0, 0), BuildingBlock: UVAHIK_clean_linker_0, # of connection points: 2
#     Edge 102, Type (0, 0), BuildingBlock: UVAHIK_clean_linker_0, # of connection points: 2
#     Edge 103, Type (0, 0), BuildingBlock: UVAHIK_clean_linker_0, # of connection points: 2
#     Edge 104, Type (0, 0), BuildingBlock: UVAHIK_clean_linker_0, # of connection points: 2
#     Edge 105, Type (0, 0), BuildingBlock: UVAHIK_clean_linker_0, # of connection points: 2
#     Edge 106, Type (0, 0), BuildingBlock: UVAHIK_clean_linker_0, # of connection points: 2
#     Edge 107, Type (0, 0), BuildingBlock: UVAHIK_clean_linker_0, # of connection points: 2
#     Edge 108, Type (0, 0), BuildingBlock: UVAHIK_clean_linker_0, # of connection points: 2
#     Edge 109, Type (0, 0), BuildingBlock: UVAHIK_clean_linker_0, # of connection points: 2
#     Edge 110, Type (0, 0), BuildingBlock: UVAHIK_clean_linker_0, # of connection points: 2
#     Edge 111, Type (0, 0), BuildingBlock: UVAHIK_clean_linker_0, # of connection points: 2
#     Edge 112, Type (0, 0), BuildingBlock: UVAHIK_clean_linker_0, # of connection points: 2
#     Edge 113, Type (0, 0), BuildingBlock: UVAHIK_clean_linker_0, # of connection points: 2
#     Edge 114, Type (0, 0), BuildingBlock: UVAHIK_clean_linker_0, # of connection points: 2
#     Edge 115, Type (0, 0), BuildingBlock: UVAHIK_clean_linker_0, # of connection points: 2
#     Edge 116, Type (0, 0), BuildingBlock: UVAHIK_clean_linker_0, # of connection points: 2
#     Edge 117, Type (0, 0), BuildingBlock: UVAHIK_clean_linker_0, # of connection points: 2
#     Edge 118, Type (0, 0), BuildingBlock: UVAHIK_clean_linker_0, # of connection points: 2
#     Edge 119, Type (0, 0), BuildingBlock: UVAHIK_clean_linker_0, # of connection points: 2
# Relax obj value: 0.120
# Max RMSD: 0.097
# Mean RMSD: 0.097
data_MOF--net-sod-h--node1-WUSLED_clean_sbu_0--edge1-UVAHIK_clean_linker_0
_symmetry_space_group_name_H-M    P1
_symmetry_Int_Tables_number       1
_symmetry_cell_setting            triclinic
loop_
_symmetry_equiv_pos_as_xyz
'x, y, z'
_cell_length_a     171.86899
_cell_length_b     171.87601
_cell_length_c     171.87967
_cell_angle_alpha  90.000504
_cell_angle_beta   90.002357
_cell_angle_gamma 89.99658
loop_
_atom_site_label
_atom_site_type_symbol
_atom_site_fract_x
_atom_site_fract_y
_atom_site_fract_z
_atom_type_partial_charge
C0 C 0.05812 0.17836 0.69282 0.0
C1 C 0.05347 0.18394 0.69653 0.0
C2 C 0.04207 0.17925 0.68957 0.0
C3 C 0.04551 0.18437 0.69494 0.0
C4 C 0.04679 0.17374 0.68576 0.0
C5 C 0.05476 0.17329 0.6874 0.0
U6 U 0.07546 0.18698 0.70294 0.0
O7 O 0.08453 0.18176 0.71027 0.0
O8 O 0.08779 0.18798 0.6996 0.0
C9 C 0.09015 0.18363 0.70543 0.0
C10 C 0.06645 0.17783 0.6947 0.0
C11 C 0.09551 0.17729 0.70341 0.0
C12 C 0.09795 0.16428 0.69844 0.0
C13 C 0.09279 0.17039 0.69998 0.0
C14 C 0.10858 0.17196 0.70361 0.0
C15 C 0.10591 0.16497 0.70028 0.0
C16 C 0.10343 0.17805 0.70516 0.0
C17 C 0.07157 0.20611 0.71393 0.0
C18 C 0.07996 0.21182 0.72378 0.0
C19 C 0.06845 0.21872 0.71943 0.0
C20 C 0.06676 0.21267 0.71429 0.0
C21 C 0.07499 0.21831 0.72434 0.0
C22 C 0.07825 0.20575 0.71861 0.0
C23 C 0.06925 0.19958 0.70893 0.0
O24 O 0.07083 0.18326 0.69158 0.0
O25 O 0.06798 0.17664 0.7021 0.0
O26 O 0.06899 0.19274 0.71232 0.0
O27 O 0.07239 0.19939 0.70196 0.0
H28 H 0.05599 0.18794 0.7007 0.0
H29 H 0.04207 0.18875 0.69788 0.0
H30 H 0.04429 0.16969 0.68163 0.0
H31 H 0.05828 0.16895 0.68448 0.0
H32 H 0.09572 0.15901 0.6958 0.0
H33 H 0.08669 0.16972 0.69858 0.0
H34 H 0.11464 0.17266 0.70521 0.0
H35 H 0.10561 0.18333 0.70783 0.0
H36 H 0.08501 0.21131 0.72751 0.0
H37 H 0.06459 0.2237 0.71962 0.0
H38 H 0.0616 0.21305 0.71069 0.0
H39 H 0.08204 0.20071 0.71839 0.0
C40 C 0.82265 0.55811 0.19368 0.0
C41 C 0.81686 0.55361 0.19726 0.0
C42 C 0.82135 0.54209 0.19033 0.0
C43 C 0.81622 0.54568 0.19562 0.0
C44 C 0.82717 0.54663 0.18678 0.0
C45 C 0.8278 0.55459 0.18844 0.0
U46 U 0.81376 0.57578 0.20294 0.0
O47 O 0.8187 0.58522 0.20998 0.0
O48 O 0.81274 0.58793 0.199 0.0
C49 C 0.81689 0.59059 0.20484 0.0
C50 C 0.82317 0.56647 0.19536 0.0
C51 C 0.82312 0.59611 0.20281 0.0
C52 C 0.83677 0.59927 0.20086 0.0
C53 C 0.83093 0.59377 0.20228 0.0
C54 C 0.82702 0.60944 0.20022 0.0
C55 C 0.83489 0.6072 0.19994 0.0
C56 C 0.8212 0.60395 0.20167 0.0
C57 C 0.79421 0.57268 0.21332 0.0
C58 C 0.78862 0.58072 0.22353 0.0
C59 C 0.7806 0.57127 0.2168 0.0
C60 C 0.78697 0.56912 0.21224 0.0
C61 C 0.78137 0.57703 0.22257 0.0
C62 C 0.79499 0.57858 0.21892 0.0
C63 C 0.80091 0.56993 0.20874 0.0
O64 O 0.81789 0.57078 0.1919 0.0
O65 O 0.82408 0.56822 0.20276 0.0
O66 O 0.80763 0.56976 0.21239 0.0
O67 O 0.8014 0.57262 0.2016 0.0
H68 H 0.81282 0.55624 0.20132 0.0
H69 H 0.81176 0.54234 0.19856 0.0
H70 H 0.83115 0.54408 0.18262 0.0
H71 H 0.83229 0.558 0.18561 0.0
H72 H 0.84277 0.59735 0.20073 0.0
H73 H 0.83252 0.58773 0.20311 0.0
H74 H 0.82534 0.61545 0.19938 0.0
H75 H 0.8152 0.60585 0.20201 0.0
H76 H 0.78937 0.58522 0.22787 0.0
H77 H 0.77513 0.56825 0.21598 0.0
H78 H 0.78627 0.56454 0.20795 0.0
H79 H 0.80053 0.58145 0.2198 0.0
C80 C 0.44349 0.32319 0.69446 0.0
C81 C 0.44805 0.31782 0.69859 0.0
C82 C 0.45962 0.32214 0.69167 0.0
C83 C 0.45604 0.31731 0.69722 0.0
C84 C 0.45501 0.32745 0.68747 0.0
C85 C 0.447 0.32798 0.68888 0.0
U86 U 0.42589 0.31499 0.70447 0.0
O87 O 0.41642 0.32046 0.71105 0.0
O88 O 0.41373 0.31351 0.70066 0.0
C89 C 0.41105 0.31816 0.70611 0.0
C90 C 0.4351 0.32372 0.69601 0.0
C91 C 0.40546 0.32415 0.70359 0.0
C92 C 0.40205 0.33766 0.70109 0.0
C93 C 0.40765 0.33198 0.70274 0.0
C94 C 0.39208 0.32769 0.70077 0.0
C95 C 0.39417 0.3356 0.70023 0.0
C96 C 0.39768 0.32204 0.70245 0.0
C97 C 0.4293 0.29678 0.71699 0.0
C98 C 0.41963 0.28746 0.72145 0.0
C99 C 0.43213 0.2883 0.72791 0.0
C100 C 0.43439 0.29419 0.7228 0.0
C101 C 0.42474 0.28484 0.72729 0.0
C102 C 0.42187 0.29342 0.71637 0.0
C103 C 0.43193 0.30295 0.71166 0.0
O104 O 0.43092 0.31802 0.69309 0.0
O105 O 0.43327 0.32536 0.70325 0.0
O106 O 0.43198 0.31001 0.71458 0.0
O107 O 0.42927 0.30265 0.70449 0.0
H108 H 0.44542 0.31403 0.70288 0.0
H109 H 0.4594 0.31307 0.70045 0.0
H110 H 0.45761 0.33128 0.6832 0.0
H111 H 0.44355 0.33215 0.68564 0.0
H112 H 0.40385 0.34368 0.70076 0.0
H113 H 0.41365 0.33373 0.70356 0.0
H114 H 0.3861 0.32588 0.69999 0.0
H115 H 0.39588 0.31603 0.70304 0.0
H116 H 0.41388 0.28495 0.72087 0.0
H117 H 0.43624 0.28634 0.73227 0.0
H118 H 0.44014 0.29671 0.72337 0.0
H119 H 0.41783 0.29538 0.71195 0.0
C120 C 0.67816 0.94362 0.19306 0.0
C121 C 0.68349 0.94823 0.19718 0.0
C122 C 0.67904 0.95977 0.19028 0.0
C123 C 0.68391 0.95623 0.19582 0.0
C124 C 0.67378 0.9551 0.18608 0.0
C125 C 0.67333 0.94708 0.18748 0.0
U126 U 0.68697 0.92616 0.20268 0.0
O127 O 0.68195 0.91672 0.20967 0.0
O128 O 0.68832 0.91396 0.19893 0.0
C129 C 0.68399 0.91132 0.20465 0.0
C130 C 0.67772 0.93523 0.19463 0.0
C131 C 0.67788 0.90572 0.20248 0.0
C132 C 0.66429 0.9024 0.20033 0.0
C133 C 0.67005 0.90797 0.20179 0.0
C134 C 0.67414 0.89233 0.19994 0.0
C135 C 0.66625 0.89449 0.19952 0.0
C136 C 0.67988 0.89789 0.20143 0.0
C137 C 0.70588 0.93016 0.21401 0.0
C138 C 0.71165 0.92169 0.22375 0.0
C139 C 0.7184 0.93337 0.21966 0.0
C140 C 0.71236 0.93506 0.2145 0.0
C141 C 0.71806 0.92674 0.22445 0.0
C142 C 0.70559 0.92339 0.21857 0.0
C143 C 0.69935 0.93248 0.20901 0.0
O144 O 0.68327 0.93105 0.19143 0.0
O145 O 0.67646 0.93341 0.20195 0.0
O146 O 0.69246 0.93246 0.21233 0.0
O147 O 0.69931 0.92955 0.20194 0.0
H148 H 0.68732 0.94564 0.20146 0.0
H149 H 0.68812 0.95963 0.19905 0.0
H150 H 0.66993 0.95767 0.1818 0.0
H151 H 0.6692 0.9436 0.18424 0.0
H152 H 0.65827 0.90427 0.2001 0.0
H153 H 0.66838 0.914 0.20255 0.0
H154 H 0.67589 0.88633 0.19918 0.0
H155 H 0.6859 0.89605 0.20189 0.0
H156 H 0.71119 0.91656 0.22739 0.0
H157 H 0.72332 0.9373 0.21994 0.0
H158 H 0.71269 0.94029 0.21099 0.0
H159 H 0.70061 0.91954 0.21825 0.0
C160 C 0.05806 0.32285 0.80714 0.0
C161 C 0.05345 0.31733 0.8033 0.0
C162 C 0.04195 0.32198 0.81015 0.0
C163 C 0.04546 0.31691 0.80476 0.0
C164 C 0.04663 0.32745 0.81406 0.0
C165 C 0.05463 0.32789 0.81255 0.0
U166 U 0.07586 0.31386 0.79811 0.0
O167 O 0.08533 0.31879 0.7911 0.0
O168 O 0.088 0.31298 0.80217 0.0
C169 C 0.09067 0.3171 0.79631 0.0
C170 C 0.06645 0.32329 0.80554 0.0
C171 C 0.09613 0.3234 0.79831 0.0
C172 C 0.09926 0.33712 0.79979 0.0
C173 C 0.09379 0.33123 0.79844 0.0
C174 C 0.10937 0.3274 0.80118 0.0
C175 C 0.10714 0.33527 0.80106 0.0
C176 C 0.10392 0.32153 0.7998 0.0
C177 C 0.07295 0.29423 0.7878 0.0
C178 C 0.081 0.28865 0.7776 0.0
C179 C 0.07165 0.28059 0.78441 0.0
C180 C 0.06946 0.28696 0.78894 0.0
C181 C 0.07738 0.28138 0.77862 0.0
C182 C 0.07883 0.29502 0.78218 0.0
C183 C 0.07014 0.30094 0.79233 0.0
O184 O 0.0707 0.318 0.80908 0.0
O185 O 0.06828 0.32415 0.79816 0.0
O186 O 0.06995 0.30764 0.78865 0.0
O187 O 0.07278 0.30149 0.79948 0.0
H188 H 0.05602 0.31334 0.79915 0.0
H189 H 0.04205 0.31256 0.80175 0.0
H190 H 0.04409 0.33147 0.8182 0.0
H191 H 0.05812 0.33217 0.81558 0.0
H192 H 0.09735 0.34312 0.79961 0.0
H193 H 0.08779 0.3328 0.79734 0.0
H194 H 0.11535 0.32575 0.80229 0.0
H195 H 0.10582 0.31552 0.79977 0.0
H196 H 0.08549 0.28941 0.77323 0.0
H197 H 0.06868 0.2751 0.78527 0.0
H198 H 0.0649 0.28625 0.79324 0.0
H199 H 0.08165 0.30058 0.78125 0.0
C200 C 0.67842 0.55784 0.30857 0.0
C201 C 0.68462 0.55337 0.30572 0.0
C202 C 0.67961 0.54191 0.31238 0.0
C203 C 0.68521 0.54549 0.30759 0.0
C204 C 0.67341 0.54645 0.31526 0.0
C205 C 0.67283 0.55435 0.31336 0.0
U206 U 0.68689 0.57498 0.29802 0.0
O207 O 0.68162 0.5838 0.29043 0.0
O208 O 0.68775 0.5874 0.30105 0.0
C209 C 0.6834 0.58956 0.29514 0.0
C210 C 0.67777 0.56608 0.30641 0.0
C211 C 0.67699 0.5949 0.297 0.0
C212 C 0.66389 0.59732 0.30174 0.0
C213 C 0.67003 0.59217 0.30028 0.0
C214 C 0.67167 0.60798 0.29676 0.0
C215 C 0.66463 0.60529 0.29995 0.0
C216 C 0.67779 0.60282 0.29529 0.0
C217 C 0.70618 0.5711 0.28735 0.0
C218 C 0.71189 0.57945 0.27747 0.0
C219 C 0.71884 0.56801 0.28193 0.0
C220 C 0.71277 0.56632 0.28706 0.0
C221 C 0.71841 0.57452 0.27697 0.0
C222 C 0.70581 0.57775 0.28262 0.0
C223 C 0.69965 0.56879 0.29234 0.0
O224 O 0.68309 0.57065 0.30946 0.0
O225 O 0.67667 0.56734 0.29895 0.0
O226 O 0.69285 0.56835 0.28888 0.0
O227 O 0.69933 0.5721 0.29923 0.0
H228 H 0.68898 0.55597 0.30198 0.0
H229 H 0.68998 0.54216 0.30517 0.0
H230 H 0.66905 0.5439 0.31903 0.0
H231 H 0.66801 0.55773 0.31562 0.0
H232 H 0.65858 0.59508 0.30428 0.0
H233 H 0.66934 0.58606 0.30166 0.0
H234 H 0.6724 0.61404 0.29522 0.0
H235 H 0.68312 0.60502 0.29274 0.0
H236 H 0.71137 0.58447 0.2737 0.0
H237 H 0.72384 0.56418 0.28179 0.0
H238 H 0.71316 0.56119 0.2907 0.0
H239 H 0.70075 0.58151 0.28279 0.0
C240 C 0.4435 0.17882 0.80741 0.0
C241 C 0.44717 0.18611 0.80717 0.0
C242 C 0.45959 0.18012 0.81044 0.0
C243 C 0.45512 0.18676 0.8087 0.0
C244 C 0.45585 0.17283 0.81077 0.0
C245 C 0.44787 0.17219 0.80926 0.0
U246 U 0.42591 0.18748 0.79771 0.0
O247 O 0.41698 0.18239 0.79011 0.0
O248 O 0.41358 0.18795 0.8011 0.0
C249 C 0.41132 0.18384 0.79505 0.0
C250 C 0.43523 0.17812 0.80534 0.0
C251 C 0.40614 0.17727 0.79676 0.0
C252 C 0.40402 0.16401 0.80119 0.0
C253 C 0.40905 0.17026 0.79977 0.0
C254 C 0.39314 0.17178 0.7967 0.0
C255 C 0.39601 0.16469 0.79965 0.0
C256 C 0.39817 0.178 0.79527 0.0
C257 C 0.42886 0.20738 0.78806 0.0
C258 C 0.41937 0.21359 0.77962 0.0
C259 C 0.43131 0.2203 0.78295 0.0
C260 C 0.43362 0.21396 0.78747 0.0
C261 C 0.42418 0.22018 0.77893 0.0
C262 C 0.42169 0.20724 0.78416 0.0
C263 C 0.43162 0.20067 0.79256 0.0
O264 O 0.43055 0.18309 0.8088 0.0
O265 O 0.43386 0.17743 0.79785 0.0
O266 O 0.4321 0.19409 0.7887 0.0
O267 O 0.4286 0.19987 0.79954 0.0
H268 H 0.44389 0.1913 0.80571 0.0
H269 H 0.45776 0.19247 0.80852 0.0
H270 H 0.45913 0.16759 0.81199 0.0
H271 H 0.44514 0.16652 0.8094 0.0
H272 H 0.4064 0.15867 0.80353 0.0
H273 H 0.41521 0.16962 0.80099 0.0
H274 H 0.38703 0.17246 0.79534 0.0
H275 H 0.39584 0.18337 0.79293 0.0
H276 H 0.41382 0.21335 0.77665 0.0
H277 H 0.43522 0.22522 0.78245 0.0
H278 H 0.43919 0.21415 0.79042 0.0
H279 H 0.41793 0.20219 0.78458 0.0
C280 C 0.82266 0.94363 0.3074 0.0
C281 C 0.81653 0.94815 0.30449 0.0
C282 C 0.82167 0.95959 0.31109 0.0
C283 C 0.81604 0.95606 0.3063 0.0
C284 C 0.8278 0.955 0.31402 0.0
C285 C 0.82828 0.94708 0.31219 0.0
U286 U 0.81381 0.92606 0.29773 0.0
O287 O 0.81889 0.91703 0.29024 0.0
O288 O 0.81327 0.91376 0.30124 0.0
C289 C 0.81739 0.91143 0.29522 0.0
C290 C 0.8232 0.93534 0.30539 0.0
C291 C 0.82393 0.90623 0.297 0.0
C292 C 0.83715 0.90409 0.30153 0.0
C293 C 0.83091 0.90912 0.3001 0.0
C294 C 0.82943 0.89323 0.2969 0.0
C295 C 0.83649 0.89608 0.29992 0.0
C296 C 0.82322 0.89827 0.29546 0.0
C297 C 0.79397 0.92889 0.28788 0.0
C298 C 0.78843 0.9209 0.27762 0.0
C299 C 0.7803 0.93008 0.28456 0.0
C300 C 0.78666 0.9323 0.28909 0.0
C301 C 0.78112 0.92443 0.2787 0.0
C302 C 0.7948 0.92308 0.2822 0.0
C303 C 0.80066 0.93171 0.29242 0.0
O304 O 0.81807 0.93083 0.30883 0.0
O305 O 0.82392 0.93389 0.29791 0.0
O306 O 0.80729 0.93222 0.28864 0.0
O307 O 0.8014 0.92879 0.29945 0.0
H308 H 0.81214 0.94557 0.30077 0.0
H309 H 0.81132 0.95943 0.30384 0.0
H310 H 0.83217 0.95751 0.3178 0.0
H311 H 0.83304 0.94365 0.3145 0.0
H312 H 0.84248 0.90645 0.30393 0.0
H313 H 0.83154 0.91527 0.30135 0.0
H314 H 0.82876 0.88713 0.29549 0.0
H315 H 0.81787 0.89595 0.29305 0.0
H316 H 0.78923 0.91647 0.2732 0.0
H317 H 0.77478 0.93299 0.28547 0.0
H318 H 0.78592 0.9368 0.29345 0.0
H319 H 0.80038 0.92033 0.28122 0.0
C320 C 0.69397 0.05821 0.1783 0.0
C321 C 0.69722 0.05379 0.18434 0.0
C322 C 0.69035 0.04227 0.17978 0.0
C323 C 0.69545 0.0459 0.18506 0.0
C324 C 0.6871 0.04674 0.17373 0.0
C325 C 0.6889 0.05465 0.173 0.0
U326 U 0.70354 0.07592 0.18685 0.0
O327 O 0.7109 0.085 0.18168 0.0
O328 O 0.69992 0.08819 0.18739 0.0
C329 C 0.70589 0.09057 0.18323 0.0
C330 C 0.69588 0.06652 0.1776 0.0
C331 C 0.70402 0.09576 0.17672 0.0
C332 C 0.69926 0.09794 0.16358 0.0
C333 C 0.70078 0.09289 0.1698 0.0
C334 C 0.70411 0.10876 0.17121 0.0
C335 C 0.70093 0.10593 0.16421 0.0
C336 C 0.70563 0.10372 0.1774 0.0
C337 C 0.71352 0.07317 0.20666 0.0
C338 C 0.72387 0.08108 0.21218 0.0
C339 C 0.71677 0.07204 0.22036 0.0
C340 C 0.71224 0.06984 0.21399 0.0
C341 C 0.72271 0.07762 0.21951 0.0
C342 C 0.71929 0.0789 0.20581 0.0
C343 C 0.70898 0.07034 0.19998 0.0
O344 O 0.69244 0.07105 0.1827 0.0
O345 O 0.70332 0.06804 0.17677 0.0
O346 O 0.71273 0.06986 0.19333 0.0
O347 O 0.70192 0.0732 0.19928 0.0
H348 H 0.70116 0.05645 0.18849 0.0
H349 H 0.69816 0.04262 0.18971 0.0
H350 H 0.68309 0.04415 0.16962 0.0
H351 H 0.68632 0.058 0.16832 0.0
H352 H 0.69675 0.09559 0.1583 0.0
H353 H 0.69948 0.08675 0.16919 0.0
H354 H 0.70558 0.11485 0.17186 0.0
H355 H 0.70815 0.10602 0.1827 0.0
H356 H 0.72835 0.08544 0.21137 0.0
H357 H 0.71579 0.0692 0.22589 0.0
H358 H 0.70782 0.0654 0.21475 0.0
H359 H 0.72033 0.08159 0.20021 0.0
C360 C 0.94379 0.19437 0.67748 0.0
C361 C 0.94844 0.1979 0.68318 0.0
C362 C 0.95975 0.19067 0.67864 0.0
C363 C 0.95634 0.19609 0.68375 0.0
C364 C 0.95506 0.18717 0.67291 0.0
C365 C 0.94714 0.189 0.67234 0.0
U366 U 0.9264 0.20405 0.68648 0.0
O367 O 0.91702 0.21121 0.68159 0.0
O368 O 0.91418 0.20033 0.68768 0.0
C369 C 0.91158 0.20618 0.68349 0.0
C370 C 0.93545 0.19621 0.67704 0.0
C371 C 0.90597 0.20419 0.67733 0.0
C372 C 0.9027 0.20209 0.66372 0.0
C373 C 0.90826 0.20343 0.66953 0.0
C374 C 0.89255 0.20197 0.67351 0.0
C375 C 0.89476 0.20146 0.66564 0.0
C376 C 0.8981 0.20334 0.67928 0.0
C377 C 0.93007 0.21459 0.70582 0.0
C378 C 0.92001 0.22119 0.71326 0.0
C379 C 0.93345 0.22176 0.71749 0.0
C380 C 0.93565 0.21719 0.71115 0.0
C381 C 0.92561 0.22382 0.71864 0.0
C382 C 0.92223 0.2166 0.70689 0.0
C383 C 0.9326 0.2099 0.69915 0.0
O384 O 0.93115 0.19288 0.68241 0.0
O385 O 0.93383 0.20362 0.67607 0.0
O386 O 0.93263 0.21351 0.69242 0.0
O387 O 0.92974 0.20282 0.69877 0.0
H388 H 0.94594 0.20206 0.68721 0.0
H389 H 0.95979 0.199 0.68815 0.0
H390 H 0.95747 0.18291 0.66895 0.0
H391 H 0.94361 0.1862 0.66793 0.0
H392 H 0.9046 0.20178 0.65772 0.0
H393 H 0.91432 0.20404 0.6679 0.0
H394 H 0.88652 0.20136 0.67521 0.0
H395 H 0.89623 0.20386 0.68528 0.0
H396 H 0.91392 0.22262 0.714 0.0
H397 H 0.93793 0.2238 0.72142 0.0
H398 H 0.94173 0.21572 0.71037 0.0
H399 H 0.91784 0.21464 0.70281 0.0
C400 C 0.80805 0.44341 0.17849 0.0
C401 C 0.80417 0.44798 0.18402 0.0
C402 C 0.81093 0.45953 0.17942 0.0
C403 C 0.80558 0.45596 0.18447 0.0
C404 C 0.81491 0.4549 0.17395 0.0
C405 C 0.81345 0.44689 0.17348 0.0
U406 U 0.79831 0.42599 0.18724 0.0
O407 O 0.79116 0.41668 0.18222 0.0
O408 O 0.80193 0.41374 0.18845 0.0
C409 C 0.79613 0.4112 0.18415 0.0
C410 C 0.80638 0.43503 0.17799 0.0
C411 C 0.79817 0.40563 0.17797 0.0
C412 C 0.8001 0.40239 0.16433 0.0
C413 C 0.79877 0.40793 0.17016 0.0
C414 C 0.80055 0.39225 0.17411 0.0
C415 C 0.80088 0.39446 0.16623 0.0
C416 C 0.79919 0.39778 0.17991 0.0
C417 C 0.78721 0.42996 0.20629 0.0
C418 C 0.77752 0.42146 0.2121 0.0
C419 C 0.7816 0.43316 0.21883 0.0
C420 C 0.78673 0.43486 0.21277 0.0
C421 C 0.77683 0.42652 0.21851 0.0
C422 C 0.78267 0.42317 0.20603 0.0
C423 C 0.79218 0.43227 0.19974 0.0
O424 O 0.80959 0.43078 0.18348 0.0
O425 O 0.79902 0.43332 0.17679 0.0
O426 O 0.7888 0.43236 0.19289 0.0
O427 O 0.79921 0.42926 0.19961 0.0
H428 H 0.80002 0.44537 0.18799 0.0
H429 H 0.80252 0.45934 0.18883 0.0
H430 H 0.81904 0.4575 0.16996 0.0
H431 H 0.81651 0.44344 0.16918 0.0
H432 H 0.80027 0.4043 0.15833 0.0
H433 H 0.79804 0.41398 0.16854 0.0
H434 H 0.80128 0.38622 0.1758 0.0
H435 H 0.79879 0.3959 0.18592 0.0
H436 H 0.77389 0.41633 0.21166 0.0
H437 H 0.78132 0.4371 0.22374 0.0
H438 H 0.79022 0.4401 0.21308 0.0
H439 H 0.78299 0.41931 0.20105 0.0
C440 C 0.55798 0.30726 0.67869 0.0
C441 C 0.55357 0.30372 0.68457 0.0
C442 C 0.54205 0.31084 0.68042 0.0
C443 C 0.54569 0.30548 0.68542 0.0
C444 C 0.5465 0.31438 0.67452 0.0
C445 C 0.55441 0.3126 0.67367 0.0
U446 U 0.57549 0.2966 0.68627 0.0
O447 O 0.58453 0.28975 0.68041 0.0
O448 O 0.5878 0.29999 0.68731 0.0
C449 C 0.59014 0.29449 0.68254 0.0
C450 C 0.56627 0.30537 0.67785 0.0
C451 C 0.59542 0.29695 0.67629 0.0
C452 C 0.59769 0.30236 0.66343 0.0
C453 C 0.59259 0.30047 0.66949 0.0
C454 C 0.6085 0.2974 0.671 0.0
C455 C 0.60571 0.30079 0.66409 0.0
C456 C 0.6034 0.2955 0.67704 0.0
C457 C 0.57235 0.28427 0.70466 0.0
C458 C 0.58208 0.27973 0.71389 0.0
C459 C 0.56954 0.27333 0.71314 0.0
C460 C 0.56726 0.27847 0.70727 0.0
C461 C 0.57696 0.27392 0.71654 0.0
C462 C 0.57981 0.28484 0.70796 0.0
C463 C 0.56968 0.28965 0.69856 0.0
O464 O 0.57078 0.30815 0.68336 0.0
O465 O 0.56773 0.29805 0.6762 0.0
O466 O 0.56928 0.28671 0.69151 0.0
O467 O 0.57256 0.29673 0.69872 0.0
H468 H 0.55624 0.29956 0.68849 0.0
H469 H 0.54242 0.30255 0.68994 0.0
H470 H 0.5439 0.31859 0.67062 0.0
H471 H 0.55774 0.31541 0.66911 0.0
H472 H 0.59537 0.30504 0.65822 0.0
H473 H 0.58643 0.30165 0.66884 0.0
H474 H 0.61461 0.29601 0.67167 0.0
H475 H 0.60568 0.29276 0.68224 0.0
H476 H 0.58785 0.28028 0.71636 0.0
H477 H 0.56542 0.26899 0.71513 0.0
H478 H 0.56148 0.27794 0.70481 0.0
H479 H 0.58386 0.28925 0.70599 0.0
C480 C 0.69374 0.44327 0.32301 0.0
C481 C 0.69675 0.44779 0.31693 0.0
C482 C 0.6901 0.45924 0.32199 0.0
C483 C 0.69496 0.4557 0.31643 0.0
C484 C 0.68707 0.45465 0.32806 0.0
C485 C 0.68888 0.44672 0.32857 0.0
U486 U 0.7034 0.42566 0.31423 0.0
O487 O 0.7108 0.41658 0.31936 0.0
O488 O 0.69983 0.41337 0.31366 0.0
C489 C 0.7058 0.41101 0.31782 0.0
C490 C 0.69572 0.43497 0.32356 0.0
C491 C 0.70393 0.40583 0.32435 0.0
C492 C 0.69934 0.40373 0.33756 0.0
C493 C 0.70085 0.40875 0.33132 0.0
C494 C 0.70388 0.39283 0.32985 0.0
C495 C 0.70087 0.39571 0.3369 0.0
C496 C 0.7054 0.39785 0.32364 0.0
C497 C 0.71339 0.42848 0.29444 0.0
C498 C 0.72373 0.42054 0.28894 0.0
C499 C 0.71672 0.42965 0.28077 0.0
C500 C 0.71216 0.43185 0.28713 0.0
C501 C 0.72262 0.42404 0.28162 0.0
C502 C 0.71912 0.42272 0.2953 0.0
C503 C 0.70883 0.43129 0.30112 0.0
O504 O 0.69229 0.43047 0.31841 0.0
O505 O 0.70318 0.43348 0.32434 0.0
O506 O 0.71257 0.43177 0.30777 0.0
O507 O 0.70178 0.4284 0.30181 0.0
H508 H 0.70052 0.44521 0.31259 0.0
H509 H 0.69749 0.45907 0.31174 0.0
H510 H 0.68324 0.45716 0.33239 0.0
H511 H 0.6865 0.44329 0.33329 0.0
H512 H 0.69695 0.40611 0.34288 0.0
H513 H 0.69966 0.41491 0.33195 0.0
H514 H 0.70523 0.38671 0.32918 0.0
H515 H 0.7078 0.39551 0.3183 0.0
H516 H 0.72818 0.41615 0.28976 0.0
H517 H 0.71579 0.43253 0.27524 0.0
H518 H 0.70777 0.43631 0.28636 0.0
H519 H 0.72012 0.41999 0.30089 0.0
C520 C 0.55827 0.19392 0.82257 0.0
C521 C 0.5547 0.19403 0.81523 0.0
C522 C 0.54222 0.19076 0.82108 0.0
C523 C 0.54677 0.19243 0.81449 0.0
C524 C 0.54584 0.19058 0.82843 0.0
C525 C 0.55381 0.19215 0.82916 0.0
U526 U 0.57584 0.20369 0.81404 0.0
O527 O 0.58475 0.2113 0.81915 0.0
O528 O 0.58819 0.20034 0.81356 0.0
C529 C 0.59042 0.20639 0.81767 0.0
C530 C 0.56652 0.19602 0.82336 0.0
C531 C 0.59563 0.20468 0.82422 0.0
C532 C 0.59786 0.20001 0.83738 0.0
C533 C 0.5928 0.20145 0.83116 0.0
C534 C 0.60863 0.20493 0.82972 0.0
C535 C 0.60584 0.20175 0.83673 0.0
C536 C 0.60357 0.20638 0.82353 0.0
C537 C 0.57289 0.21331 0.79411 0.0
C538 C 0.58239 0.22171 0.78787 0.0
C539 C 0.57041 0.21841 0.78119 0.0
C540 C 0.56811 0.2139 0.78754 0.0
C541 C 0.57756 0.2224 0.78128 0.0
C542 C 0.58007 0.21718 0.79423 0.0
C543 C 0.57014 0.20881 0.80082 0.0
O544 O 0.57125 0.19258 0.81842 0.0
O545 O 0.56785 0.20352 0.82405 0.0
O546 O 0.56964 0.21268 0.8074 0.0
O547 O 0.57318 0.20184 0.80164 0.0
H548 H 0.55804 0.19543 0.81007 0.0
H549 H 0.54422 0.19249 0.80873 0.0
H550 H 0.5425 0.1894 0.83364 0.0
H551 H 0.55646 0.19211 0.83488 0.0
H552 H 0.59555 0.19749 0.84267 0.0
H553 H 0.58667 0.20008 0.83177 0.0
H554 H 0.61471 0.20645 0.82906 0.0
H555 H 0.60584 0.20889 0.81822 0.0
H556 H 0.58795 0.22466 0.78809 0.0
H557 H 0.5665 0.21891 0.77628 0.0
H558 H 0.56253 0.21097 0.78738 0.0
H559 H 0.58384 0.21675 0.79927 0.0
C560 C 0.80839 0.05821 0.3227 0.0
C561 C 0.80545 0.05372 0.31656 0.0
C562 C 0.81218 0.04228 0.32153 0.0
C563 C 0.80732 0.04583 0.31598 0.0
C564 C 0.81514 0.04684 0.32767 0.0
C565 C 0.81326 0.05474 0.32824 0.0
U566 U 0.79783 0.07535 0.31424 0.0
O567 O 0.79029 0.08421 0.31954 0.0
O568 O 0.80087 0.08775 0.31331 0.0
C569 C 0.795 0.08995 0.3177 0.0
C570 C 0.80625 0.06646 0.32334 0.0
C571 C 0.79693 0.09531 0.32407 0.0
C572 C 0.802 0.09779 0.33704 0.0
C573 C 0.80048 0.09263 0.33092 0.0
C574 C 0.79654 0.10835 0.32945 0.0
C575 C 0.80001 0.10571 0.33639 0.0
C576 C 0.79502 0.10319 0.32336 0.0
C577 C 0.78701 0.07142 0.29504 0.0
C578 C 0.7773 0.07994 0.28927 0.0
C579 C 0.78135 0.06824 0.28252 0.0
C580 C 0.7865 0.06652 0.28856 0.0
C581 C 0.7766 0.07489 0.28286 0.0
C582 C 0.78247 0.07821 0.29534 0.0
C583 C 0.79203 0.06912 0.30156 0.0
O584 O 0.80928 0.07101 0.31798 0.0
O585 O 0.7988 0.06775 0.32448 0.0
O586 O 0.78861 0.06873 0.30838 0.0
O587 O 0.79893 0.07241 0.30181 0.0
H588 H 0.80166 0.05631 0.31224 0.0
H589 H 0.80483 0.04249 0.31125 0.0
H590 H 0.81897 0.04431 0.33199 0.0
H591 H 0.81558 0.05814 0.33302 0.0
H592 H 0.80474 0.09559 0.34226 0.0
H593 H 0.80201 0.08655 0.33154 0.0
H594 H 0.79484 0.11438 0.3288 0.0
H595 H 0.79225 0.10535 0.31812 0.0
H596 H 0.77369 0.08508 0.28973 0.0
H597 H 0.78105 0.06431 0.2776 0.0
H598 H 0.78999 0.06128 0.28824 0.0
H599 H 0.78281 0.08206 0.30031 0.0
C600 C 0.94369 0.30685 0.82266 0.0
C601 C 0.94827 0.30333 0.81689 0.0
C602 C 0.95963 0.31054 0.82132 0.0
C603 C 0.95616 0.30513 0.81624 0.0
C604 C 0.95501 0.31404 0.82711 0.0
C605 C 0.9471 0.31221 0.82776 0.0
U606 U 0.92621 0.29714 0.81386 0.0
O607 O 0.9169 0.28998 0.81886 0.0
O608 O 0.91398 0.30084 0.81278 0.0
C609 C 0.91143 0.29501 0.81702 0.0
C610 C 0.93536 0.30501 0.82319 0.0
C611 C 0.90589 0.29701 0.82324 0.0
C612 C 0.90268 0.29881 0.83691 0.0
C613 C 0.9082 0.29745 0.83107 0.0
C614 C 0.89256 0.29959 0.82714 0.0
C615 C 0.89477 0.29978 0.83502 0.0
C616 C 0.89806 0.2982 0.82132 0.0
C617 C 0.92975 0.28659 0.79449 0.0
C618 C 0.91974 0.27969 0.78728 0.0
C619 C 0.93306 0.27966 0.78266 0.0
C620 C 0.93527 0.28426 0.78898 0.0
C621 C 0.92527 0.27731 0.78172 0.0
C622 C 0.92196 0.2843 0.79362 0.0
C623 C 0.9323 0.29129 0.80114 0.0
O624 O 0.93099 0.30833 0.81787 0.0
O625 O 0.93375 0.2976 0.82419 0.0
O626 O 0.9324 0.28769 0.80787 0.0
O627 O 0.92942 0.29836 0.80153 0.0
H628 H 0.94572 0.29918 0.81289 0.0
H629 H 0.95956 0.30223 0.8118 0.0
H630 H 0.95748 0.31829 0.83106 0.0
H631 H 0.94363 0.31501 0.83222 0.0
H632 H 0.90459 0.29886 0.84292 0.0
H633 H 0.91423 0.29659 0.83268 0.0
H634 H 0.88655 0.30047 0.82545 0.0
H635 H 0.89618 0.29793 0.81531 0.0
H636 H 0.91369 0.27803 0.78669 0.0
H637 H 0.93751 0.27782 0.77859 0.0
H638 H 0.94131 0.28594 0.7896 0.0
H639 H 0.91763 0.28606 0.79784 0.0
C640 C 0.17823 0.69414 0.05798 0.0
C641 C 0.18356 0.69821 0.05334 0.0
C642 C 0.1789 0.69144 0.04181 0.0
C643 C 0.18388 0.6969 0.04533 0.0
C644 C 0.17362 0.68729 0.0465 0.0
C645 C 0.17328 0.68865 0.05453 0.0
U646 U 0.18749 0.7029 0.07574 0.0
O647 O 0.18273 0.7098 0.08537 0.0
O648 O 0.18858 0.69869 0.08781 0.0
C649 C 0.18452 0.70453 0.09062 0.0
C650 C 0.17791 0.69559 0.0664 0.0
C651 C 0.1783 0.70247 0.09615 0.0
C652 C 0.16464 0.70064 0.09934 0.0
C653 C 0.17048 0.70203 0.09383 0.0
C654 C 0.17442 0.69985 0.10947 0.0
C655 C 0.16654 0.69967 0.10725 0.0
C656 C 0.18023 0.70126 0.10397 0.0
C657 C 0.20702 0.7133 0.07264 0.0
C658 C 0.21269 0.72342 0.08073 0.0
C659 C 0.22064 0.71675 0.07119 0.0
C660 C 0.21425 0.71223 0.06903 0.0
C661 C 0.21991 0.72247 0.077 0.0
C662 C 0.2063 0.71885 0.07859 0.0
C663 C 0.20029 0.70879 0.06987 0.0
O664 O 0.18327 0.692 0.0705 0.0
O665 O 0.17705 0.70293 0.06837 0.0
O666 O 0.19358 0.71245 0.06983 0.0
O667 O 0.19981 0.7016 0.07242 0.0
H668 H 0.18749 0.70242 0.05592 0.0
H669 H 0.18809 0.70009 0.0419 0.0
H670 H 0.16968 0.68309 0.04394 0.0
H671 H 0.16914 0.68544 0.05804 0.0
H672 H 0.15864 0.70059 0.09744 0.0
H673 H 0.16887 0.70291 0.0878 0.0
H674 H 0.1761 0.69897 0.11547 0.0
H675 H 0.18624 0.70154 0.10585 0.0
H676 H 0.21197 0.72773 0.08528 0.0
H677 H 0.22609 0.71594 0.06814 0.0
H678 H 0.21491 0.70798 0.06441 0.0
H679 H 0.20077 0.71973 0.0815 0.0
C680 C 0.17854 0.80682 0.4435 0.0
C681 C 0.18408 0.80289 0.44802 0.0
C682 C 0.17957 0.80962 0.45964 0.0
C683 C 0.18457 0.80425 0.45601 0.0
C684 C 0.17409 0.81363 0.45506 0.0
C685 C 0.17357 0.81223 0.44705 0.0
U686 U 0.18745 0.79793 0.42563 0.0
O687 O 0.18252 0.79093 0.41616 0.0
O688 O 0.18829 0.80203 0.41351 0.0
C689 C 0.18419 0.79615 0.41082 0.0
C690 C 0.17803 0.80531 0.4351 0.0
C691 C 0.17789 0.79812 0.40537 0.0
C692 C 0.16417 0.79964 0.40227 0.0
C693 C 0.17007 0.79835 0.40774 0.0
C694 C 0.17386 0.80078 0.3921 0.0
C695 C 0.16599 0.80074 0.39436 0.0
C696 C 0.17974 0.79946 0.39755 0.0
C697 C 0.20708 0.78764 0.42849 0.0
C698 C 0.21264 0.77734 0.42054 0.0
C699 C 0.22076 0.78433 0.4297 0.0
C700 C 0.21439 0.78886 0.4319 0.0
C701 C 0.21994 0.77844 0.42408 0.0
C702 C 0.20627 0.78193 0.4227 0.0
C703 C 0.20038 0.79216 0.43132 0.0
O704 O 0.18329 0.80888 0.43085 0.0
O705 O 0.17715 0.79795 0.43321 0.0
O706 O 0.19368 0.78847 0.43152 0.0
O707 O 0.19982 0.79932 0.4287 0.0
H708 H 0.18802 0.79875 0.44536 0.0
H709 H 0.18894 0.80116 0.45935 0.0
H710 H 0.17013 0.81777 0.45769 0.0
H711 H 0.16927 0.81533 0.44363 0.0
H712 H 0.15817 0.79952 0.40421 0.0
H713 H 0.16852 0.79736 0.41376 0.0
H714 H 0.17548 0.80177 0.38609 0.0
H715 H 0.18574 0.79936 0.39562 0.0
H716 H 0.21185 0.77291 0.41613 0.0
H717 H 0.22627 0.78526 0.43261 0.0
H718 H 0.21512 0.79323 0.43638 0.0
H719 H 0.20069 0.78093 0.41995 0.0
C720 C 0.1928 0.67904 0.94331 0.0
C721 C 0.19607 0.68507 0.94773 0.0
C722 C 0.18905 0.68065 0.95921 0.0
C723 C 0.19423 0.68586 0.9556 0.0
C724 C 0.18578 0.67461 0.95474 0.0
C725 C 0.18764 0.67382 0.94685 0.0
U726 U 0.2033 0.68719 0.92603 0.0
O727 O 0.21073 0.68177 0.91715 0.0
O728 O 0.20017 0.68805 0.91363 0.0
C729 C 0.20599 0.6836 0.91143 0.0
C730 C 0.19485 0.67825 0.93505 0.0
C731 C 0.20397 0.6772 0.90614 0.0
C732 C 0.19903 0.66416 0.90382 0.0
C733 C 0.20062 0.6703 0.90893 0.0
C734 C 0.204 0.67183 0.89308 0.0
C735 C 0.20075 0.66484 0.89584 0.0
C736 C 0.2056 0.67795 0.89819 0.0
C737 C 0.21429 0.70634 0.92981 0.0
C738 C 0.22411 0.712 0.92135 0.0
C739 C 0.21993 0.71889 0.93292 0.0
C740 C 0.21475 0.71288 0.93464 0.0
C741 C 0.22477 0.71847 0.92633 0.0
C742 C 0.2189 0.70597 0.92308 0.0
C743 C 0.20923 0.69987 0.93213 0.0
O744 O 0.19184 0.68358 0.93046 0.0
O745 O 0.20228 0.67701 0.93371 0.0
O746 O 0.21261 0.69302 0.93254 0.0
O747 O 0.20231 0.69964 0.92888 0.0
H748 H 0.20009 0.68915 0.94509 0.0
H749 H 0.19697 0.69049 0.95888 0.0
H750 H 0.18171 0.67055 0.95733 0.0
H751 H 0.18505 0.66914 0.94351 0.0
H752 H 0.19645 0.65889 0.90611 0.0
H753 H 0.1993 0.66965 0.91506 0.0
H754 H 0.20549 0.67251 0.887 0.0
H755 H 0.20821 0.68323 0.89595 0.0
H756 H 0.22778 0.71148 0.91626 0.0
H757 H 0.22019 0.72386 0.93679 0.0
H758 H 0.21119 0.71328 0.93983 0.0
H759 H 0.2186 0.70095 0.91928 0.0
C760 C 0.32337 0.69316 0.44345 0.0
C761 C 0.31808 0.69723 0.44814 0.0
C762 C 0.32272 0.69032 0.45959 0.0
C763 C 0.31777 0.69584 0.45613 0.0
C764 C 0.32794 0.68615 0.45485 0.0
C765 C 0.32827 0.68759 0.44683 0.0
U766 U 0.31434 0.70278 0.42608 0.0
O767 O 0.31924 0.70985 0.41665 0.0
O768 O 0.31296 0.69906 0.41388 0.0
C769 C 0.31723 0.70483 0.41124 0.0
C770 C 0.32371 0.69477 0.43506 0.0
C771 C 0.32334 0.70273 0.40562 0.0
C772 C 0.33693 0.70058 0.40231 0.0
C773 C 0.33116 0.70197 0.40789 0.0
C774 C 0.32711 0.70039 0.39221 0.0
C775 C 0.33499 0.69989 0.39438 0.0
C776 C 0.32136 0.70181 0.39777 0.0
C777 C 0.29538 0.71395 0.43018 0.0
C778 C 0.28951 0.7236 0.42167 0.0
C779 C 0.28285 0.71957 0.43342 0.0
C780 C 0.28892 0.71446 0.43512 0.0
C781 C 0.28313 0.72431 0.42675 0.0
C782 C 0.2956 0.71846 0.42338 0.0
C783 C 0.30194 0.70899 0.43248 0.0
O784 O 0.31815 0.69154 0.43092 0.0
O785 O 0.32489 0.70211 0.43327 0.0
O786 O 0.3088 0.71236 0.43246 0.0
O787 O 0.30202 0.70193 0.42954 0.0
H788 H 0.31419 0.7015 0.44561 0.0
H789 H 0.31359 0.69904 0.4596 0.0
H790 H 0.33184 0.68189 0.45736 0.0
H791 H 0.33238 0.68438 0.44328 0.0
H792 H 0.34294 0.70029 0.40419 0.0
H793 H 0.33281 0.70263 0.41393 0.0
H794 H 0.32538 0.69974 0.38619 0.0
H795 H 0.31535 0.70233 0.39592 0.0
H796 H 0.28993 0.7272 0.41651 0.0
H797 H 0.27795 0.71987 0.43738 0.0
H798 H 0.28864 0.71099 0.44038 0.0
H799 H 0.30056 0.71813 0.41949 0.0
C800 C 0.30747 0.82316 0.94317 0.0
C801 C 0.3045 0.81703 0.94767 0.0
C802 C 0.31111 0.8221 0.95915 0.0
C803 C 0.30629 0.81651 0.95558 0.0
C804 C 0.3141 0.82821 0.95458 0.0
C805 C 0.31229 0.82873 0.94665 0.0
U806 U 0.29786 0.81437 0.92555 0.0
O807 O 0.29043 0.81947 0.91648 0.0
O808 O 0.30143 0.81382 0.91326 0.0
C809 C 0.29544 0.81795 0.9109 0.0
C810 C 0.3055 0.82372 0.93487 0.0
C811 C 0.29725 0.82448 0.9057 0.0
C812 C 0.30187 0.83766 0.90353 0.0
C813 C 0.3004 0.83144 0.90858 0.0
C814 C 0.29717 0.82996 0.89269 0.0
C815 C 0.30025 0.837 0.89552 0.0
C816 C 0.29568 0.82377 0.89774 0.0
C817 C 0.28798 0.79452 0.92834 0.0
C818 C 0.27772 0.78896 0.92035 0.0
C819 C 0.28469 0.78084 0.92952 0.0
C820 C 0.28921 0.78722 0.93174 0.0
C821 C 0.27883 0.78166 0.92387 0.0
C822 C 0.28229 0.79534 0.92254 0.0
C823 C 0.29251 0.80122 0.93116 0.0
O824 O 0.30895 0.8186 0.93037 0.0
O825 O 0.29803 0.82447 0.93339 0.0
O826 O 0.28873 0.80785 0.93165 0.0
O827 O 0.29955 0.80195 0.92828 0.0
H828 H 0.30076 0.81268 0.94507 0.0
H829 H 0.30378 0.8118 0.95893 0.0
H830 H 0.3179 0.83255 0.95711 0.0
H831 H 0.31465 0.83348 0.94325 0.0
H832 H 0.30432 0.84297 0.90588 0.0
H833 H 0.30167 0.83207 0.91472 0.0
H834 H 0.29574 0.82929 0.88659 0.0
H835 H 0.29323 0.81844 0.89543 0.0
H836 H 0.2733 0.78975 0.91593 0.0
H837 H 0.28563 0.77532 0.93242 0.0
H838 H 0.29358 0.78648 0.93623 0.0
H839 H 0.28129 0.80093 0.9198 0.0
C840 C 0.32276 0.80858 0.05775 0.0
C841 C 0.31658 0.80567 0.05328 0.0
C842 C 0.32156 0.81235 0.04182 0.0
C843 C 0.316 0.80752 0.04539 0.0
C844 C 0.32773 0.81528 0.04635 0.0
C845 C 0.32832 0.81341 0.05426 0.0
U846 U 0.31431 0.79807 0.07493 0.0
O847 O 0.31961 0.79055 0.0838 0.0
O848 O 0.31341 0.80115 0.08733 0.0
C849 C 0.31779 0.79527 0.08953 0.0
C850 C 0.3234 0.80646 0.06601 0.0
C851 C 0.32417 0.79719 0.09488 0.0
C852 C 0.33724 0.80201 0.09732 0.0
C853 C 0.33112 0.80051 0.09216 0.0
C854 C 0.32946 0.79704 0.10797 0.0
C855 C 0.33649 0.80026 0.10529 0.0
C856 C 0.32337 0.79552 0.10281 0.0
C857 C 0.29508 0.78727 0.07107 0.0
C858 C 0.28942 0.77736 0.07941 0.0
C859 C 0.28243 0.78183 0.06801 0.0
C860 C 0.28848 0.78698 0.06631 0.0
C861 C 0.28288 0.77686 0.07449 0.0
C862 C 0.29548 0.78253 0.0777 0.0
C863 C 0.3016 0.79228 0.06875 0.0
O864 O 0.31806 0.80951 0.07056 0.0
O865 O 0.32454 0.79901 0.0673 0.0
O866 O 0.30842 0.78885 0.06834 0.0
O867 O 0.30187 0.79919 0.07202 0.0
H868 H 0.31225 0.80191 0.05589 0.0
H869 H 0.31125 0.80506 0.04206 0.0
H870 H 0.33207 0.81908 0.04381 0.0
H871 H 0.33311 0.81571 0.05764 0.0
H872 H 0.34255 0.80457 0.09508 0.0
H873 H 0.33182 0.80186 0.08604 0.0
H874 H 0.32872 0.79551 0.11404 0.0
H875 H 0.31804 0.79294 0.105 0.0
H876 H 0.28996 0.77358 0.08442 0.0
H877 H 0.27742 0.7817 0.06419 0.0
H878 H 0.28806 0.79063 0.06119 0.0
H879 H 0.30055 0.7827 0.08144 0.0
C880 C 0.19417 0.82251 0.55805 0.0
C881 C 0.19768 0.81659 0.55367 0.0
C882 C 0.19074 0.82087 0.54208 0.0
C883 C 0.19601 0.81579 0.54576 0.0
C884 C 0.18724 0.82681 0.54651 0.0
C885 C 0.18895 0.82762 0.55444 0.0
U886 U 0.20354 0.81409 0.5759 0.0
O887 O 0.21066 0.81931 0.58514 0.0
O888 O 0.1997 0.81345 0.58811 0.0
C889 C 0.20556 0.81768 0.59061 0.0
C890 C 0.19593 0.82325 0.56638 0.0
C891 C 0.20353 0.82413 0.59584 0.0
C892 C 0.19985 0.8376 0.59807 0.0
C893 C 0.20148 0.83148 0.59294 0.0
C894 C 0.20214 0.82901 0.60901 0.0
C895 C 0.2002 0.83643 0.60617 0.0
C896 C 0.20379 0.82292 0.60389 0.0
C897 C 0.21378 0.79437 0.57325 0.0
C898 C 0.22419 0.7889 0.58111 0.0
C899 C 0.21699 0.78066 0.57222 0.0
C900 C 0.21245 0.78702 0.57 0.0
C901 C 0.22298 0.78154 0.57773 0.0
C902 C 0.2196 0.79526 0.57891 0.0
C903 C 0.20923 0.80104 0.57039 0.0
O904 O 0.19247 0.81811 0.57087 0.0
O905 O 0.20334 0.82417 0.56804 0.0
O906 O 0.21292 0.80773 0.57001 0.0
O907 O 0.20211 0.80165 0.57312 0.0
H908 H 0.20174 0.81259 0.55637 0.0
H909 H 0.19891 0.81123 0.54252 0.0
H910 H 0.1831 0.83076 0.54388 0.0
H911 H 0.18616 0.8322 0.55775 0.0
H912 H 0.1983 0.84323 0.5957 0.0
H913 H 0.2012 0.8325 0.58673 0.0
H914 H 0.20257 0.82794 0.61521 0.0
H915 H 0.20538 0.81728 0.60622 0.0
H916 H 0.22871 0.78974 0.58542 0.0
H917 H 0.21597 0.7751 0.56944 0.0
H918 H 0.20799 0.78622 0.56561 0.0
H919 H 0.22069 0.80088 0.58154 0.0
C920 C 0.30853 0.67839 0.55808 0.0
C921 C 0.30533 0.68442 0.5536 0.0
C922 C 0.31234 0.67984 0.54218 0.0
C923 C 0.3072 0.68513 0.54574 0.0
C924 C 0.31554 0.67379 0.5467 0.0
C925 C 0.31364 0.67308 0.5546 0.0
U926 U 0.29802 0.68675 0.57526 0.0
O927 O 0.29055 0.68145 0.58416 0.0
O928 O 0.30112 0.68771 0.58765 0.0
C929 C 0.29527 0.68331 0.58988 0.0
C930 C 0.30645 0.67769 0.56634 0.0
C931 C 0.29724 0.67696 0.59524 0.0
C932 C 0.30237 0.66401 0.59772 0.0
C933 C 0.3008 0.67012 0.59255 0.0
C934 C 0.29694 0.6716 0.60829 0.0
C935 C 0.30041 0.66467 0.60565 0.0
C936 C 0.29537 0.67768 0.60313 0.0
C937 C 0.28714 0.70592 0.57135 0.0
C938 C 0.27751 0.71172 0.57993 0.0
C939 C 0.28142 0.71841 0.56814 0.0
C940 C 0.28656 0.71237 0.56641 0.0
C941 C 0.27674 0.71811 0.57485 0.0
C942 C 0.28268 0.70566 0.57818 0.0
C943 C 0.29217 0.69941 0.56904 0.0
O944 O 0.30948 0.68305 0.57089 0.0
O945 O 0.29901 0.67651 0.56767 0.0
O946 O 0.28876 0.69258 0.56867 0.0
O947 O 0.29908 0.69918 0.5723 0.0
H948 H 0.30135 0.68856 0.5562 0.0
H949 H 0.30452 0.68976 0.54241 0.0
H950 H 0.31957 0.66967 0.54416 0.0
H951 H 0.31617 0.66841 0.55798 0.0
H952 H 0.30512 0.65879 0.59551 0.0
H953 H 0.30231 0.66948 0.58646 0.0
H954 H 0.29526 0.67226 0.61433 0.0
H955 H 0.2926 0.68291 0.60529 0.0
H956 H 0.27396 0.71129 0.58511 0.0
H957 H 0.28107 0.72331 0.56419 0.0
H958 H 0.29 0.71267 0.56113 0.0
H959 H 0.28307 0.70071 0.58206 0.0
C960 C 0.94305 0.82293 0.30783 0.0
C961 C 0.94655 0.81556 0.30799 0.0
C962 C 0.95908 0.82142 0.31108 0.0
C963 C 0.95447 0.81481 0.30963 0.0
C964 C 0.95551 0.8288 0.31099 0.0
C965 C 0.94756 0.82954 0.30938 0.0
U966 U 0.92551 0.81433 0.29804 0.0
O967 O 0.91315 0.81392 0.30131 0.0
O968 O 0.91667 0.81939 0.29031 0.0
C969 C 0.91096 0.81798 0.29521 0.0
C970 C 0.93481 0.82371 0.30566 0.0
C971 C 0.90577 0.82457 0.29683 0.0
C972 C 0.90359 0.83781 0.30131 0.0
C973 C 0.90864 0.83156 0.29992 0.0
C974 C 0.89277 0.83008 0.29661 0.0
C975 C 0.8956 0.83714 0.29965 0.0
C976 C 0.89782 0.82386 0.29522 0.0
C977 C 0.92853 0.79424 0.28868 0.0
C978 C 0.92013 0.78827 0.279 0.0
C979 C 0.93046 0.78076 0.28499 0.0
C980 C 0.93256 0.78721 0.28945 0.0
C981 C 0.92427 0.78123 0.27965 0.0
C982 C 0.92223 0.79472 0.2835 0.0
C983 C 0.9312 0.80104 0.29312 0.0
O984 O 0.93353 0.82432 0.29815 0.0
O985 O 0.93004 0.81883 0.30913 0.0
O986 O 0.92812 0.80194 0.30006 0.0
O987 O 0.93176 0.80757 0.28918 0.0
H988 H 0.94318 0.81038 0.30676 0.0
H989 H 0.95698 0.80903 0.30978 0.0
H990 H 0.9589 0.83402 0.31198 0.0
H991 H 0.94496 0.83528 0.30921 0.0
H992 H 0.90594 0.84313 0.30372 0.0
H993 H 0.91478 0.83219 0.30124 0.0
H994 H 0.88668 0.8294 0.29516 0.0
H995 H 0.89552 0.81851 0.29282 0.0
H996 H 0.9153 0.78879 0.27499 0.0
H997 H 0.93384 0.77547 0.28555 0.0
H998 H 0.93745 0.78675 0.29341 0.0
H999 H 0.91902 0.80011 0.28287 0.0
C1000 C 0.17861 0.44379 0.80707 0.0
C1001 C 0.18408 0.44842 0.80314 0.0
C1002 C 0.17945 0.45992 0.80999 0.0
C1003 C 0.18448 0.45641 0.80457 0.0
C1004 C 0.17404 0.45524 0.81398 0.0
C1005 C 0.17362 0.44724 0.81252 0.0
U1006 U 0.1876 0.42599 0.79805 0.0
O1007 O 0.18852 0.41386 0.80213 0.0
O1008 O 0.18265 0.41649 0.79108 0.0
C1009 C 0.18438 0.41117 0.7963 0.0
C1010 C 0.17819 0.4354 0.8055 0.0
C1011 C 0.17811 0.40569 0.79833 0.0
C1012 C 0.1644 0.40251 0.79983 0.0
C1013 C 0.17026 0.40799 0.79846 0.0
C1014 C 0.17417 0.39244 0.80124 0.0
C1015 C 0.16628 0.39464 0.80111 0.0
C1016 C 0.18001 0.39792 0.79984 0.0
C1017 C 0.20713 0.42891 0.78759 0.0
C1018 C 0.21264 0.42084 0.77736 0.0
C1019 C 0.22074 0.43025 0.78405 0.0
C1020 C 0.2144 0.43244 0.78865 0.0
C1021 C 0.21991 0.4245 0.77828 0.0
C1022 C 0.20631 0.423 0.78201 0.0
C1023 C 0.20047 0.43172 0.79217 0.0
O1024 O 0.17728 0.43354 0.79814 0.0
O1025 O 0.18351 0.43118 0.80903 0.0
O1026 O 0.19997 0.42909 0.79933 0.0
O1027 O 0.19374 0.4319 0.78854 0.0
H1028 H 0.18803 0.44583 0.79897 0.0
H1029 H 0.18878 0.45982 0.80149 0.0
H1030 H 0.17006 0.45779 0.81815 0.0
H1031 H 0.16938 0.44375 0.81561 0.0
H1032 H 0.15839 0.40439 0.79964 0.0
H1033 H 0.16867 0.41399 0.79734 0.0
H1034 H 0.17584 0.38647 0.80236 0.0
H1035 H 0.18603 0.39604 0.79982 0.0
H1036 H 0.21184 0.41634 0.77302 0.0
H1037 H 0.22623 0.43324 0.78484 0.0
H1038 H 0.21515 0.43701 0.79292 0.0
H1039 H 0.20075 0.42016 0.78114 0.0
C1040 C 0.55815 0.67845 0.30721 0.0
C1041 C 0.55449 0.68575 0.3073 0.0
C1042 C 0.54204 0.67962 0.31022 0.0
C1043 C 0.54653 0.68633 0.30883 0.0
C1044 C 0.54577 0.67232 0.3102 0.0
C1045 C 0.55376 0.67175 0.3087 0.0
U1046 U 0.57576 0.68725 0.29764 0.0
O1047 O 0.58808 0.68776 0.30111 0.0
O1048 O 0.58477 0.68223 0.29008 0.0
C1049 C 0.59039 0.6837 0.29505 0.0
C1050 C 0.56644 0.67781 0.30517 0.0
C1051 C 0.59561 0.67715 0.29676 0.0
C1052 C 0.59784 0.66397 0.30136 0.0
C1053 C 0.59277 0.67019 0.29994 0.0
C1054 C 0.60861 0.67166 0.29651 0.0
C1055 C 0.60582 0.66463 0.29964 0.0
C1056 C 0.60355 0.67786 0.29509 0.0
C1057 C 0.57275 0.7072 0.28807 0.0
C1058 C 0.58221 0.71352 0.27968 0.0
C1059 C 0.5702 0.72012 0.28301 0.0
C1060 C 0.56793 0.71374 0.28749 0.0
C1061 C 0.57734 0.72008 0.279 0.0
C1062 C 0.57993 0.70713 0.28419 0.0
C1063 C 0.57002 0.70045 0.29253 0.0
O1064 O 0.56784 0.67718 0.29768 0.0
O1065 O 0.57107 0.68279 0.30868 0.0
O1066 O 0.57301 0.69962 0.29951 0.0
O1067 O 0.5696 0.69389 0.28863 0.0
H1068 H 0.55777 0.69099 0.30611 0.0
H1069 H 0.54389 0.69205 0.30892 0.0
H1070 H 0.54249 0.66703 0.31114 0.0
H1071 H 0.55648 0.66606 0.30858 0.0
H1072 H 0.59552 0.65866 0.30384 0.0
H1073 H 0.58664 0.66956 0.30129 0.0
H1074 H 0.6147 0.67234 0.29501 0.0
H1075 H 0.60582 0.68319 0.29261 0.0
H1076 H 0.58777 0.71334 0.27672 0.0
H1077 H 0.56625 0.72501 0.28251 0.0
H1078 H 0.56235 0.71387 0.29042 0.0
H1079 H 0.58373 0.70212 0.2846 0.0
C1080 C 0.32255 0.05843 0.80771 0.0
C1081 C 0.31529 0.0547 0.80747 0.0
C1082 C 0.32139 0.04232 0.8107 0.0
C1083 C 0.31471 0.04674 0.80899 0.0
C1084 C 0.32865 0.04612 0.81103 0.0
C1085 C 0.32921 0.05411 0.80954 0.0
U1086 U 0.31384 0.07608 0.79811 0.0
O1087 O 0.31349 0.08841 0.80152 0.0
O1088 O 0.31893 0.08498 0.79048 0.0
C1089 C 0.31756 0.09064 0.79544 0.0
C1090 C 0.32321 0.0667 0.80565 0.0
C1091 C 0.32418 0.09578 0.7971 0.0
C1092 C 0.33748 0.09783 0.80145 0.0
C1093 C 0.33119 0.09283 0.80008 0.0
C1094 C 0.32975 0.10875 0.79697 0.0
C1095 C 0.33683 0.10585 0.79989 0.0
C1096 C 0.32349 0.10375 0.79559 0.0
C1097 C 0.29383 0.07337 0.78854 0.0
C1098 C 0.28826 0.08139 0.77831 0.0
C1099 C 0.28019 0.07208 0.78515 0.0
C1100 C 0.28656 0.06989 0.7897 0.0
C1101 C 0.28099 0.07777 0.77933 0.0
C1102 C 0.29463 0.07923 0.7829 0.0
C1103 C 0.30055 0.07054 0.79303 0.0
O1104 O 0.32384 0.06808 0.79816 0.0
O1105 O 0.31825 0.07136 0.80916 0.0
O1106 O 0.30141 0.07353 0.80001 0.0
O1107 O 0.30712 0.06992 0.78917 0.0
H1108 H 0.31008 0.05794 0.80602 0.0
H1109 H 0.30902 0.04405 0.8088 0.0
H1110 H 0.33392 0.04288 0.81224 0.0
H1111 H 0.33487 0.05688 0.80969 0.0
H1112 H 0.34282 0.09542 0.80377 0.0
H1113 H 0.33179 0.08668 0.8013 0.0
H1114 H 0.3291 0.11486 0.7956 0.0
H1115 H 0.31813 0.10611 0.79327 0.0
H1116 H 0.28904 0.08585 0.77392 0.0
H1117 H 0.2747 0.06911 0.78602 0.0
H1118 H 0.28584 0.06535 0.79402 0.0
H1119 H 0.3002 0.08203 0.78195 0.0
C1120 C 0.94311 0.67957 0.19213 0.0
C1121 C 0.94676 0.68687 0.19239 0.0
C1122 C 0.95919 0.68093 0.18906 0.0
C1123 C 0.9547 0.68755 0.19082 0.0
C1124 C 0.95548 0.67363 0.18874 0.0
C1125 C 0.9475 0.67297 0.19026 0.0
U1126 U 0.92589 0.6872 0.20328 0.0
O1127 O 0.9135 0.68846 0.20018 0.0
O1128 O 0.91693 0.68136 0.21026 0.0
C1129 C 0.91124 0.68361 0.20566 0.0
C1130 C 0.93484 0.67881 0.19424 0.0
C1131 C 0.90566 0.67756 0.20328 0.0
C1132 C 0.90227 0.66402 0.20095 0.0
C1133 C 0.90786 0.66972 0.20255 0.0
C1134 C 0.89229 0.67396 0.20047 0.0
C1135 C 0.89439 0.66606 0.20002 0.0
C1136 C 0.89787 0.67964 0.20211 0.0
C1137 C 0.92948 0.70532 0.21593 0.0
C1138 C 0.92091 0.71585 0.21999 0.0
C1139 C 0.93187 0.71217 0.22806 0.0
C1140 C 0.93391 0.70644 0.22269 0.0
C1141 C 0.92537 0.71697 0.22676 0.0
C1142 C 0.92292 0.71005 0.21464 0.0
C1143 C 0.93195 0.69931 0.21032 0.0
O1144 O 0.93356 0.67708 0.20158 0.0
O1145 O 0.93025 0.68433 0.1916 0.0
O1146 O 0.92894 0.69963 0.20329 0.0
O1147 O 0.9324 0.6922 0.21309 0.0
H1148 H 0.94349 0.69205 0.19389 0.0
H1149 H 0.95732 0.69328 0.191 0.0
H1150 H 0.95876 0.6684 0.18751 0.0
H1151 H 0.94479 0.66728 0.19012 0.0
H1152 H 0.90409 0.65799 0.20069 0.0
H1153 H 0.91386 0.66798 0.2034 0.0
H1154 H 0.88631 0.67576 0.19963 0.0
H1155 H 0.89606 0.68566 0.2026 0.0
H1156 H 0.91584 0.71942 0.21887 0.0
H1157 H 0.93548 0.71297 0.23316 0.0
H1158 H 0.93901 0.7029 0.22379 0.0
H1159 H 0.91937 0.7093 0.20948 0.0
C1160 C 0.3225 0.44325 0.69173 0.0
C1161 C 0.31534 0.44715 0.6922 0.0
C1162 C 0.32166 0.45941 0.68896 0.0
C1163 C 0.31492 0.45514 0.69079 0.0
C1164 C 0.32881 0.45545 0.68838 0.0
C1165 C 0.32922 0.44743 0.68977 0.0
U1166 U 0.31368 0.4261 0.70198 0.0
O1167 O 0.31251 0.41375 0.69874 0.0
O1168 O 0.31873 0.41703 0.70942 0.0
C1169 C 0.31681 0.41139 0.70461 0.0
C1170 C 0.32299 0.43495 0.69377 0.0
C1171 C 0.32299 0.40578 0.70271 0.0
C1172 C 0.33661 0.40252 0.70064 0.0
C1173 C 0.3308 0.40808 0.70196 0.0
C1174 C 0.32684 0.39236 0.70054 0.0
C1175 C 0.33471 0.39458 0.70002 0.0
C1176 C 0.32105 0.39791 0.70189 0.0
C1177 C 0.29453 0.43019 0.71279 0.0
C1178 C 0.2888 0.42182 0.72264 0.0
C1179 C 0.28197 0.43339 0.71836 0.0
C1180 C 0.28801 0.43505 0.71319 0.0
C1181 C 0.28235 0.42684 0.72325 0.0
C1182 C 0.29485 0.42349 0.71745 0.0
C1183 C 0.30108 0.43247 0.7078 0.0
O1184 O 0.32406 0.43357 0.70121 0.0
O1185 O 0.31764 0.43048 0.69063 0.0
O1186 O 0.30131 0.42928 0.70085 0.0
O1187 O 0.3079 0.43272 0.71124 0.0
H1188 H 0.31009 0.44403 0.69377 0.0
H1189 H 0.3093 0.45797 0.69116 0.0
H1190 H 0.33412 0.45857 0.68708 0.0
H1191 H 0.3348 0.44452 0.68946 0.0
H1192 H 0.3426 0.40443 0.70032 0.0
H1193 H 0.33242 0.41415 0.70253 0.0
H1194 H 0.32514 0.38632 0.69994 0.0
H1195 H 0.31506 0.39603 0.7024 0.0
H1196 H 0.28929 0.41675 0.72636 0.0
H1197 H 0.27702 0.43729 0.71857 0.0
H1198 H 0.28766 0.44022 0.70961 0.0
H1199 H 0.29986 0.41967 0.7172 0.0
C1200 C 0.5576 0.82258 0.19374 0.0
C1201 C 0.55301 0.81709 0.19765 0.0
C1202 C 0.54167 0.82101 0.1901 0.0
C1203 C 0.54512 0.81632 0.19586 0.0
C1204 C 0.54632 0.82652 0.18621 0.0
C1205 C 0.55423 0.82729 0.18801 0.0
U1206 U 0.57507 0.81478 0.20436 0.0
O1207 O 0.58733 0.81342 0.20083 0.0
O1208 O 0.58432 0.8205 0.21104 0.0
C1209 C 0.58982 0.81821 0.20625 0.0
C1210 C 0.56593 0.82327 0.19558 0.0
C1211 C 0.5954 0.82421 0.20374 0.0
C1212 C 0.59884 0.83772 0.20129 0.0
C1213 C 0.59323 0.83205 0.20299 0.0
C1214 C 0.60876 0.82773 0.20078 0.0
C1215 C 0.6067 0.83564 0.20031 0.0
C1216 C 0.60317 0.82209 0.2025 0.0
C1217 C 0.57175 0.79659 0.21692 0.0
C1218 C 0.58147 0.78739 0.22152 0.0
C1219 C 0.5689 0.78813 0.22786 0.0
C1220 C 0.56664 0.79398 0.2227 0.0
C1221 C 0.57633 0.78474 0.22731 0.0
C1222 C 0.57922 0.79331 0.21638 0.0
C1223 C 0.5691 0.80269 0.21151 0.0
O1224 O 0.56749 0.82498 0.20287 0.0
O1225 O 0.5703 0.81764 0.19282 0.0
O1226 O 0.57189 0.80239 0.20439 0.0
O1227 O 0.56887 0.80977 0.21439 0.0
H1228 H 0.55553 0.81339 0.20209 0.0
H1229 H 0.5417 0.8121 0.19906 0.0
H1230 H 0.54387 0.83016 0.18168 0.0
H1231 H 0.55771 0.83154 0.18491 0.0
H1232 H 0.59705 0.84376 0.20102 0.0
H1233 H 0.58725 0.83383 0.20389 0.0
H1234 H 0.61473 0.8259 0.1999 0.0
H1235 H 0.60495 0.81606 0.20302 0.0
H1236 H 0.58725 0.78494 0.221 0.0
H1237 H 0.56477 0.78614 0.23218 0.0
H1238 H 0.56085 0.79644 0.2232 0.0
H1239 H 0.58329 0.79528 0.21199 0.0
C1240 C 0.1787 0.0583 0.69252 0.0
C1241 C 0.18489 0.05384 0.69542 0.0
C1242 C 0.1799 0.04236 0.68878 0.0
C1243 C 0.18548 0.04595 0.69357 0.0
C1244 C 0.17372 0.04688 0.68585 0.0
C1245 C 0.17313 0.05479 0.68772 0.0
U1246 U 0.18706 0.07545 0.70315 0.0
O1247 O 0.18799 0.08786 0.70009 0.0
O1248 O 0.18168 0.08432 0.71062 0.0
C1249 C 0.18356 0.09006 0.70592 0.0
C1250 C 0.17805 0.06655 0.69465 0.0
C1251 C 0.17719 0.09541 0.70394 0.0
C1252 C 0.16422 0.09787 0.69889 0.0
C1253 C 0.17032 0.0927 0.70046 0.0
C1254 C 0.17187 0.10849 0.70412 0.0
C1255 C 0.16491 0.10582 0.70074 0.0
C1256 C 0.17795 0.10332 0.70571 0.0
C1257 C 0.20617 0.07157 0.71414 0.0
C1258 C 0.21177 0.07998 0.72403 0.0
C1259 C 0.21872 0.06847 0.71978 0.0
C1260 C 0.21273 0.06676 0.71458 0.0
C1261 C 0.21826 0.07502 0.72467 0.0
C1262 C 0.20576 0.07826 0.71881 0.0
C1263 C 0.1997 0.06926 0.70906 0.0
O1264 O 0.17684 0.06784 0.70209 0.0
O1265 O 0.18343 0.0711 0.69166 0.0
O1266 O 0.1995 0.07254 0.70216 0.0
O1267 O 0.19285 0.06885 0.71242 0.0
H1268 H 0.18923 0.05645 0.69917 0.0
H1269 H 0.19024 0.04263 0.69603 0.0
H1270 H 0.16938 0.04432 0.68208 0.0
H1271 H 0.16833 0.05817 0.68543 0.0
H1272 H 0.15897 0.09564 0.69621 0.0
H1273 H 0.16966 0.0866 0.69903 0.0
H1274 H 0.17256 0.11454 0.70573 0.0
H1275 H 0.18322 0.1055 0.70841 0.0
H1276 H 0.21122 0.08504 0.72775 0.0
H1277 H 0.2237 0.06461 0.72002 0.0
H1278 H 0.21315 0.06159 0.71099 0.0
H1279 H 0.20072 0.08204 0.71853 0.0
C1280 C 0.30907 0.94337 0.82218 0.0
C1281 C 0.30898 0.94694 0.81484 0.0
C1282 C 0.31218 0.95943 0.82071 0.0
C1283 C 0.31056 0.95487 0.81411 0.0
C1284 C 0.31237 0.95579 0.82806 0.0
C1285 C 0.31082 0.94783 0.82878 0.0
U1286 U 0.29858 0.92611 0.81389 0.0
O1287 O 0.30153 0.91366 0.81327 0.0
O1288 O 0.29086 0.91742 0.81921 0.0
C1289 C 0.29555 0.9116 0.81758 0.0
C1290 C 0.30684 0.93514 0.82298 0.0
C1291 C 0.29732 0.90635 0.82409 0.0
C1292 C 0.302 0.90409 0.83724 0.0
C1293 C 0.30055 0.90917 0.83104 0.0
C1294 C 0.29711 0.89333 0.82953 0.0
C1295 C 0.30026 0.89611 0.83656 0.0
C1296 C 0.29565 0.89842 0.82336 0.0
C1297 C 0.28821 0.92975 0.79438 0.0
C1298 C 0.2782 0.92151 0.78873 0.0
C1299 C 0.28294 0.93273 0.78164 0.0
C1300 C 0.28807 0.93441 0.78771 0.0
C1301 C 0.27784 0.92635 0.78214 0.0
C1302 C 0.28335 0.9232 0.79482 0.0
C1303 C 0.29314 0.93211 0.80094 0.0
O1304 O 0.29935 0.93397 0.82396 0.0
O1305 O 0.30997 0.93038 0.81787 0.0
O1306 O 0.29999 0.92875 0.80142 0.0
O1307 O 0.28958 0.9327 0.80768 0.0
H1308 H 0.30758 0.94361 0.80967 0.0
H1309 H 0.31049 0.95743 0.80835 0.0
H1310 H 0.31351 0.95914 0.83327 0.0
H1311 H 0.31083 0.94518 0.8345 0.0
H1312 H 0.3045 0.90639 0.84254 0.0
H1313 H 0.30191 0.91529 0.83167 0.0
H1314 H 0.2956 0.88725 0.82886 0.0
H1315 H 0.29315 0.89615 0.81804 0.0
H1316 H 0.27432 0.91658 0.78932 0.0
H1317 H 0.28291 0.93649 0.77658 0.0
H1318 H 0.29181 0.93947 0.78726 0.0
H1319 H 0.2834 0.91953 0.79995 0.0
C1320 C 0.05787 0.80793 0.32254 0.0
C1321 C 0.05405 0.80738 0.31534 0.0
C1322 C 0.04174 0.81082 0.32145 0.0
C1323 C 0.04608 0.80885 0.3148 0.0
C1324 C 0.04561 0.81144 0.32865 0.0
C1325 C 0.05362 0.81 0.32918 0.0
U1326 U 0.07537 0.79828 0.31372 0.0
O1327 O 0.08765 0.80186 0.31286 0.0
O1328 O 0.08455 0.79091 0.31869 0.0
C1329 C 0.09009 0.79591 0.317 0.0
C1330 C 0.06618 0.80599 0.32313 0.0
C1331 C 0.09559 0.79774 0.32331 0.0
C1332 C 0.09871 0.79929 0.33702 0.0
C1333 C 0.09323 0.79804 0.33113 0.0
C1334 C 0.1089 0.80024 0.32733 0.0
C1335 C 0.10664 0.8003 0.3352 0.0
C1336 C 0.10343 0.79895 0.32146 0.0
C1337 C 0.0721 0.78818 0.2941 0.0
C1338 C 0.08161 0.77977 0.28787 0.0
C1339 C 0.06946 0.78274 0.28135 0.0
C1340 C 0.06721 0.78736 0.28765 0.0
C1341 C 0.07666 0.77886 0.2814 0.0
C1342 C 0.07935 0.78442 0.29417 0.0
C1343 C 0.06942 0.79279 0.30077 0.0
O1344 O 0.06766 0.79853 0.32394 0.0
O1345 O 0.0707 0.8094 0.31799 0.0
O1346 O 0.07236 0.79982 0.30136 0.0
O1347 O 0.06915 0.78906 0.30744 0.0
H1348 H 0.05723 0.80575 0.31015 0.0
H1349 H 0.04332 0.80843 0.30915 0.0
H1350 H 0.04244 0.81285 0.3339 0.0
H1351 H 0.05647 0.81039 0.33479 0.0
H1352 H 0.09677 0.79925 0.34302 0.0
H1353 H 0.08719 0.79715 0.33268 0.0
H1354 H 0.11492 0.80115 0.3257 0.0
H1355 H 0.10535 0.79879 0.31545 0.0
H1356 H 0.08722 0.77692 0.28805 0.0
H1357 H 0.06546 0.78207 0.27653 0.0
H1358 H 0.06158 0.7902 0.28753 0.0
H1359 H 0.08321 0.78501 0.29912 0.0
C1360 C 0.19395 0.55833 0.82236 0.0
C1361 C 0.19737 0.55385 0.81645 0.0
C1362 C 0.19033 0.54238 0.8209 0.0
C1363 C 0.19559 0.54595 0.81574 0.0
C1364 C 0.18692 0.54691 0.82681 0.0
C1365 C 0.18872 0.55483 0.82753 0.0
U1366 U 0.20357 0.57608 0.8139 0.0
O1367 O 0.19993 0.58834 0.81336 0.0
O1368 O 0.21086 0.58516 0.81916 0.0
C1369 C 0.20585 0.59072 0.81758 0.0
C1370 C 0.19585 0.56664 0.82306 0.0
C1371 C 0.20392 0.5959 0.8241 0.0
C1372 C 0.19913 0.59804 0.83722 0.0
C1373 C 0.20069 0.59301 0.83101 0.0
C1374 C 0.20391 0.6089 0.82961 0.0
C1375 C 0.20075 0.60605 0.8366 0.0
C1376 C 0.20548 0.60387 0.82342 0.0
C1377 C 0.21375 0.57338 0.79418 0.0
C1378 C 0.22409 0.58137 0.78876 0.0
C1379 C 0.21721 0.57221 0.78054 0.0
C1380 C 0.21261 0.57 0.78686 0.0
C1381 C 0.22308 0.57785 0.78144 0.0
C1382 C 0.21944 0.57918 0.79508 0.0
C1383 C 0.20915 0.57054 0.80081 0.0
O1384 O 0.20328 0.56818 0.82396 0.0
O1385 O 0.19244 0.57117 0.81793 0.0
O1386 O 0.20208 0.57339 0.80145 0.0
O1387 O 0.21284 0.57006 0.8075 0.0
H1388 H 0.20143 0.55647 0.8124 0.0
H1389 H 0.19843 0.54263 0.8112 0.0
H1390 H 0.18277 0.54437 0.83082 0.0
H1391 H 0.18601 0.55822 0.8321 0.0
H1392 H 0.19663 0.59567 0.8425 0.0
H1393 H 0.19943 0.58686 0.83161 0.0
H1394 H 0.20535 0.615 0.82897 0.0
H1395 H 0.208 0.60619 0.81813 0.0
H1396 H 0.22851 0.58578 0.78961 0.0
H1397 H 0.21634 0.56932 0.77501 0.0
H1398 H 0.20825 0.56551 0.78606 0.0
H1399 H 0.22038 0.58191 0.80068 0.0
C1400 C 0.44331 0.69281 0.32222 0.0
C1401 C 0.4471 0.69338 0.31501 0.0
C1402 C 0.45927 0.68922 0.32094 0.0
C1403 C 0.455 0.69157 0.31437 0.0
C1404 C 0.45545 0.68867 0.32816 0.0
C1405 C 0.44752 0.69044 0.32879 0.0
U1406 U 0.42605 0.70374 0.31431 0.0
O1407 O 0.41368 0.70053 0.31314 0.0
O1408 O 0.41704 0.71079 0.31999 0.0
C1409 C 0.41138 0.70611 0.31783 0.0
C1410 C 0.43506 0.69496 0.32294 0.0
C1411 C 0.40579 0.70386 0.32392 0.0
C1412 C 0.40244 0.70156 0.33748 0.0
C1413 C 0.40802 0.70309 0.33175 0.0
C1414 C 0.3924 0.70124 0.32759 0.0
C1415 C 0.39453 0.70074 0.33548 0.0
C1416 C 0.39797 0.7028 0.32188 0.0
C1417 C 0.42947 0.71576 0.29579 0.0
C1418 C 0.41974 0.72045 0.28665 0.0
C1419 C 0.43244 0.72655 0.28718 0.0
C1420 C 0.43467 0.72141 0.29306 0.0
C1421 C 0.42496 0.72613 0.28389 0.0
C1422 C 0.42196 0.71534 0.29259 0.0
C1423 C 0.43206 0.71042 0.30197 0.0
O1424 O 0.43377 0.70235 0.32444 0.0
O1425 O 0.43046 0.69216 0.31749 0.0
O1426 O 0.42908 0.70337 0.30188 0.0
O1427 O 0.43245 0.71345 0.30897 0.0
H1428 H 0.44397 0.69531 0.30989 0.0
H1429 H 0.4578 0.69216 0.30875 0.0
H1430 H 0.45858 0.68683 0.33331 0.0
H1431 H 0.4447 0.69001 0.3344 0.0
H1432 H 0.40428 0.70126 0.3435 0.0
H1433 H 0.41404 0.70385 0.33346 0.0
H1434 H 0.3864 0.70048 0.32582 0.0
H1435 H 0.39615 0.70332 0.31587 0.0
H1436 H 0.41392 0.72003 0.28427 0.0
H1437 H 0.43663 0.73079 0.28512 0.0
H1438 H 0.44048 0.72182 0.29546 0.0
H1439 H 0.41782 0.71105 0.29466 0.0
C1440 C 0.30944 0.55849 0.67885 0.0
C1441 C 0.30952 0.55486 0.68616 0.0
C1442 C 0.31271 0.54244 0.68014 0.0
C1443 C 0.31119 0.54694 0.68681 0.0
C1444 C 0.31272 0.54613 0.67282 0.0
C1445 C 0.3111 0.55409 0.67219 0.0
U1446 U 0.29876 0.5756 0.68726 0.0
O1447 O 0.30162 0.58806 0.68801 0.0
O1448 O 0.29102 0.58428 0.68195 0.0
C1449 C 0.29566 0.59011 0.68367 0.0
C1450 C 0.30714 0.5667 0.67814 0.0
C1451 C 0.29745 0.59542 0.67722 0.0
C1452 C 0.30246 0.59785 0.66422 0.0
C1453 C 0.30099 0.59272 0.67038 0.0
C1454 C 0.29698 0.60843 0.67177 0.0
C1455 C 0.30044 0.60577 0.66484 0.0
C1456 C 0.2955 0.6033 0.67789 0.0
C1457 C 0.28826 0.57179 0.70664 0.0
C1458 C 0.27845 0.58023 0.71234 0.0
C1459 C 0.28269 0.56867 0.71922 0.0
C1460 C 0.28784 0.56696 0.71318 0.0
C1461 C 0.27783 0.57525 0.71881 0.0
C1462 C 0.28363 0.57851 0.70629 0.0
C1463 C 0.29325 0.56946 0.70011 0.0
O1464 O 0.29964 0.56782 0.67712 0.0
O1465 O 0.3102 0.57144 0.68332 0.0
O1466 O 0.30009 0.57285 0.69971 0.0
O1467 O 0.28975 0.56891 0.69334 0.0
H1468 H 0.3082 0.55815 0.69138 0.0
H1469 H 0.31125 0.54434 0.69255 0.0
H1470 H 0.31378 0.54283 0.66756 0.0
H1471 H 0.31098 0.55677 0.66649 0.0
H1472 H 0.3052 0.59564 0.65901 0.0
H1473 H 0.30256 0.58665 0.66978 0.0
H1474 H 0.29525 0.61446 0.6724 0.0
H1475 H 0.29275 0.60547 0.68314 0.0
H1476 H 0.27476 0.58531 0.71183 0.0
H1477 H 0.28245 0.56479 0.72418 0.0
H1478 H 0.29141 0.56177 0.71356 0.0
H1479 H 0.28389 0.5823 0.70126 0.0
C1480 C 0.44329 0.8063 0.17782 0.0
C1481 C 0.44785 0.80276 0.1836 0.0
C1482 C 0.45939 0.80937 0.17872 0.0
C1483 C 0.45582 0.80427 0.18403 0.0
C1484 C 0.45477 0.81298 0.17299 0.0
C1485 C 0.44678 0.81144 0.17254 0.0
U1486 U 0.42559 0.79711 0.1868 0.0
O1487 O 0.4134 0.80097 0.18761 0.0
O1488 O 0.41625 0.78993 0.18184 0.0
C1489 C 0.41082 0.79506 0.18349 0.0
C1490 C 0.43493 0.80461 0.17734 0.0
C1491 C 0.40555 0.79703 0.17706 0.0
C1492 C 0.40329 0.8018 0.16394 0.0
C1493 C 0.40838 0.80026 0.17011 0.0
C1494 C 0.39251 0.79702 0.17166 0.0
C1495 C 0.3953 0.80016 0.16463 0.0
C1496 C 0.3976 0.79548 0.17781 0.0
C1497 C 0.42875 0.78696 0.20645 0.0
C1498 C 0.41921 0.77868 0.21281 0.0
C1499 C 0.43136 0.78173 0.21929 0.0
C1500 C 0.43363 0.78623 0.21292 0.0
C1501 C 0.42414 0.77786 0.2193 0.0
C1502 C 0.42149 0.78321 0.20643 0.0
C1503 C 0.43145 0.79148 0.19973 0.0
O1504 O 0.43319 0.7972 0.17652 0.0
O1505 O 0.43061 0.80812 0.18259 0.0
O1506 O 0.42867 0.79858 0.19914 0.0
O1507 O 0.4316 0.78773 0.19306 0.0
H1508 H 0.44523 0.79882 0.18776 0.0
H1509 H 0.45918 0.80149 0.18858 0.0
H1510 H 0.45736 0.81689 0.16879 0.0
H1511 H 0.44334 0.81423 0.16806 0.0
H1512 H 0.40562 0.80429 0.15864 0.0
H1513 H 0.41453 0.80151 0.16945 0.0
H1514 H 0.38641 0.79558 0.17236 0.0
H1515 H 0.39532 0.79296 0.18313 0.0
H1516 H 0.41359 0.77583 0.21266 0.0
H1517 H 0.43535 0.78113 0.22413 0.0
H1518 H 0.43926 0.78906 0.21301 0.0
H1519 H 0.41764 0.78374 0.20147 0.0
C1520 C 0.19378 0.94363 0.67841 0.0
C1521 C 0.19685 0.94816 0.68446 0.0
C1522 C 0.19026 0.95964 0.67938 0.0
C1523 C 0.19513 0.95609 0.68493 0.0
C1524 C 0.18717 0.95504 0.67334 0.0
C1525 C 0.18892 0.9471 0.67286 0.0
U1526 U 0.20334 0.92601 0.68726 0.0
O1527 O 0.19961 0.91378 0.68803 0.0
O1528 O 0.21055 0.91677 0.68216 0.0
C1529 C 0.20549 0.91128 0.68383 0.0
C1530 C 0.19566 0.9353 0.67791 0.0
C1531 C 0.20349 0.906 0.67741 0.0
C1532 C 0.1998 0.90368 0.66396 0.0
C1533 C 0.2014 0.90885 0.67005 0.0
C1534 C 0.20218 0.89279 0.6726 0.0
C1535 C 0.20021 0.89559 0.66516 0.0
C1536 C 0.20381 0.89796 0.67866 0.0
C1537 C 0.21358 0.92892 0.70689 0.0
C1538 C 0.22372 0.92074 0.7124 0.0
C1539 C 0.2172 0.93028 0.72047 0.0
C1540 C 0.21262 0.9325 0.71414 0.0
C1541 C 0.22288 0.92444 0.71965 0.0
C1542 C 0.21909 0.92293 0.70607 0.0
C1543 C 0.20899 0.93172 0.70024 0.0
O1544 O 0.20309 0.93373 0.67706 0.0
O1545 O 0.19224 0.9309 0.68315 0.0
O1546 O 0.2019 0.92893 0.69966 0.0
O1547 O 0.21266 0.93207 0.69354 0.0
H1548 H 0.20063 0.94557 0.68879 0.0
H1549 H 0.1977 0.95946 0.68959 0.0
H1550 H 0.18334 0.95756 0.66902 0.0
H1551 H 0.18648 0.94367 0.66817 0.0
H1552 H 0.19822 0.90602 0.65832 0.0
H1553 H 0.20108 0.91506 0.669 0.0
H1554 H 0.20266 0.88661 0.67369 0.0
H1555 H 0.20542 0.89566 0.6843 0.0
H1556 H 0.22799 0.91617 0.71161 0.0
H1557 H 0.21647 0.93332 0.72594 0.0
H1558 H 0.2084 0.93714 0.71487 0.0
H1559 H 0.21988 0.92005 0.70052 0.0
C1560 C 0.05832 0.69299 0.17902 0.0
C1561 C 0.05446 0.69353 0.18619 0.0
C1562 C 0.04216 0.69021 0.17998 0.0
C1563 C 0.04648 0.69211 0.18668 0.0
C1564 C 0.04609 0.68959 0.17281 0.0
C1565 C 0.0541 0.69097 0.17234 0.0
U1566 U 0.07561 0.70359 0.18724 0.0
O1567 O 0.08793 0.70024 0.18855 0.0
O1568 O 0.08476 0.71059 0.18174 0.0
C1569 C 0.09034 0.70582 0.1839 0.0
C1570 C 0.06663 0.69496 0.17844 0.0
C1571 C 0.09592 0.70352 0.17782 0.0
C1572 C 0.09925 0.70126 0.16425 0.0
C1573 C 0.09368 0.70283 0.16999 0.0
C1574 C 0.10927 0.70073 0.17415 0.0
C1575 C 0.10714 0.70031 0.16625 0.0
C1576 C 0.10371 0.70234 0.17986 0.0
C1577 C 0.07195 0.71568 0.20567 0.0
C1578 C 0.08156 0.72046 0.21489 0.0
C1579 C 0.06885 0.72651 0.21419 0.0
C1580 C 0.0667 0.72132 0.20832 0.0
C1581 C 0.0763 0.72613 0.21755 0.0
C1582 C 0.07942 0.71529 0.20896 0.0
C1583 C 0.06945 0.71033 0.19947 0.0
O1584 O 0.06808 0.70232 0.17696 0.0
O1585 O 0.07108 0.69208 0.18397 0.0
O1586 O 0.0724 0.70327 0.19962 0.0
O1587 O 0.06919 0.71335 0.19246 0.0
H1588 H 0.05761 0.69513 0.19141 0.0
H1589 H 0.04369 0.69251 0.19231 0.0
H1590 H 0.04294 0.68824 0.16753 0.0
H1591 H 0.05698 0.6906 0.16675 0.0
H1592 H 0.09741 0.70103 0.15823 0.0
H1593 H 0.08767 0.70368 0.16828 0.0
H1594 H 0.11525 0.69988 0.17592 0.0
H1595 H 0.10554 0.7028 0.18588 0.0
H1596 H 0.08736 0.72008 0.21733 0.0
H1597 H 0.06462 0.73074 0.21618 0.0
H1598 H 0.06091 0.7217 0.20586 0.0
H1599 H 0.08359 0.71102 0.20696 0.0
C1600 C 0.82231 0.30809 0.94307 0.0
C1601 C 0.81506 0.30777 0.9468 0.0
C1602 C 0.82115 0.31096 0.9592 0.0
C1603 C 0.81448 0.30923 0.95478 0.0
C1604 C 0.8284 0.31133 0.95541 0.0
C1605 C 0.82897 0.30991 0.9474 0.0
U1606 U 0.81362 0.2986 0.92537 0.0
O1607 O 0.81299 0.30224 0.9131 0.0
O1608 O 0.81868 0.29123 0.91624 0.0
C1609 C 0.81709 0.29626 0.91069 0.0
C1610 C 0.82296 0.30618 0.93475 0.0
C1611 C 0.82345 0.29801 0.90522 0.0
C1612 C 0.83719 0.29939 0.90214 0.0
C1613 C 0.83126 0.29823 0.90761 0.0
C1614 C 0.82754 0.30039 0.89191 0.0
C1615 C 0.8354 0.30037 0.8942 0.0
C1616 C 0.82164 0.2992 0.89737 0.0
C1617 C 0.79384 0.28863 0.92822 0.0
C1618 C 0.78833 0.27845 0.92008 0.0
C1619 C 0.78028 0.28496 0.92967 0.0
C1620 C 0.7866 0.28958 0.93184 0.0
C1621 C 0.78109 0.27927 0.92384 0.0
C1622 C 0.79464 0.28312 0.92224 0.0
C1623 C 0.80051 0.29319 0.93103 0.0
O1624 O 0.82372 0.29872 0.93324 0.0
O1625 O 0.8179 0.30966 0.93019 0.0
O1626 O 0.8012 0.30024 0.92815 0.0
O1627 O 0.80716 0.28944 0.93148 0.0
H1628 H 0.80985 0.30633 0.94356 0.0
H1629 H 0.80879 0.309 0.95747 0.0
H1630 H 0.83367 0.31255 0.95864 0.0
H1631 H 0.83463 0.31011 0.94462 0.0
H1632 H 0.84318 0.29929 0.90409 0.0
H1633 H 0.83278 0.29735 0.91366 0.0
H1634 H 0.82594 0.30128 0.88588 0.0
H1635 H 0.81564 0.29911 0.89542 0.0
H1636 H 0.78911 0.27418 0.91552 0.0
H1637 H 0.77483 0.28566 0.93274 0.0
H1638 H 0.78588 0.29379 0.93648 0.0
H1639 H 0.80018 0.28234 0.91933 0.0
C1640 C 0.82297 0.1921 0.55782 0.0
C1641 C 0.81578 0.19239 0.55396 0.0
C1642 C 0.82207 0.18912 0.54169 0.0
C1643 C 0.81533 0.19088 0.54599 0.0
C1644 C 0.82926 0.18875 0.54561 0.0
C1645 C 0.8297 0.19023 0.55361 0.0
U1646 U 0.81417 0.20238 0.57498 0.0
O1647 O 0.81313 0.1992 0.58736 0.0
O1648 O 0.81922 0.20992 0.58396 0.0
C1649 C 0.81738 0.20514 0.58964 0.0
C1650 C 0.82349 0.19421 0.5661 0.0
C1651 C 0.8236 0.20336 0.59525 0.0
C1652 C 0.83725 0.20146 0.59848 0.0
C1653 C 0.83141 0.20264 0.59293 0.0
C1654 C 0.82753 0.20143 0.60868 0.0
C1655 C 0.83539 0.20095 0.60645 0.0
C1656 C 0.82171 0.20264 0.60314 0.0
C1657 C 0.79488 0.21297 0.57102 0.0
C1658 C 0.7891 0.22267 0.57953 0.0
C1659 C 0.78232 0.21855 0.56788 0.0
C1660 C 0.78838 0.21343 0.56615 0.0
C1661 C 0.78267 0.22334 0.57451 0.0
C1662 C 0.79518 0.21752 0.5778 0.0
C1663 C 0.80145 0.20803 0.56869 0.0
O1664 O 0.82449 0.20167 0.56742 0.0
O1665 O 0.8182 0.19104 0.57063 0.0
O1666 O 0.80178 0.2011 0.57192 0.0
O1667 O 0.80823 0.21153 0.56835 0.0
H1668 H 0.81052 0.19389 0.5571 0.0
H1669 H 0.80968 0.1911 0.5432 0.0
H1670 H 0.83457 0.18751 0.54247 0.0
H1671 H 0.8353 0.19006 0.55648 0.0
H1672 H 0.84324 0.20117 0.59656 0.0
H1673 H 0.83299 0.20315 0.58685 0.0
H1674 H 0.82586 0.2009 0.61474 0.0
H1675 H 0.81571 0.20313 0.60504 0.0
H1676 H 0.78957 0.22631 0.58466 0.0
H1677 H 0.77738 0.21882 0.56397 0.0
H1678 H 0.78805 0.20993 0.56092 0.0
H1679 H 0.80018 0.21722 0.58163 0.0
C1680 C 0.80842 0.32239 0.05808 0.0
C1681 C 0.80828 0.31513 0.05434 0.0
C1682 C 0.81185 0.32124 0.04207 0.0
C1683 C 0.81001 0.31456 0.04642 0.0
C1684 C 0.81196 0.32851 0.04584 0.0
C1685 C 0.81028 0.32907 0.0538 0.0
U1686 U 0.79861 0.31367 0.07561 0.0
O1687 O 0.8021 0.31295 0.08792 0.0
O1688 O 0.79117 0.31874 0.08468 0.0
C1689 C 0.79612 0.31709 0.09028 0.0
C1690 C 0.80634 0.32301 0.06636 0.0
C1691 C 0.79788 0.32341 0.09579 0.0
C1692 C 0.79951 0.33712 0.0989 0.0
C1693 C 0.7983 0.33122 0.09341 0.0
C1694 C 0.80015 0.32744 0.10913 0.0
C1695 C 0.80034 0.3353 0.10685 0.0
C1696 C 0.79891 0.32157 0.10366 0.0
C1697 C 0.78864 0.29392 0.07262 0.0
C1698 C 0.77846 0.28839 0.08075 0.0
C1699 C 0.78495 0.28037 0.07113 0.0
C1700 C 0.78957 0.28669 0.06898 0.0
C1701 C 0.77927 0.28117 0.07697 0.0
C1702 C 0.78314 0.29471 0.07861 0.0
C1703 C 0.79323 0.30059 0.06986 0.0
O1704 O 0.79886 0.32378 0.06774 0.0
O1705 O 0.80974 0.31794 0.07097 0.0
O1706 O 0.80026 0.30126 0.0728 0.0
O1707 O 0.78949 0.30724 0.06939 0.0
H1708 H 0.80675 0.30992 0.05754 0.0
H1709 H 0.80975 0.3089 0.04367 0.0
H1710 H 0.8134 0.33375 0.04266 0.0
H1711 H 0.81037 0.33473 0.05658 0.0
H1712 H 0.79958 0.34311 0.09695 0.0
H1713 H 0.79755 0.33276 0.08735 0.0
H1714 H 0.80092 0.32581 0.11517 0.0
H1715 H 0.79866 0.31557 0.10559 0.0
H1716 H 0.77419 0.28916 0.08532 0.0
H1717 H 0.78565 0.27492 0.06805 0.0
H1718 H 0.79378 0.28598 0.06434 0.0
H1719 H 0.78237 0.30024 0.08154 0.0
C1720 C 0.67902 0.30719 0.55799 0.0
C1721 C 0.68455 0.30334 0.55338 0.0
C1722 C 0.67991 0.31018 0.54188 0.0
C1723 C 0.68498 0.3048 0.5454 0.0
C1724 C 0.67445 0.31411 0.54655 0.0
C1725 C 0.674 0.31261 0.55454 0.0
U1726 U 0.68782 0.29799 0.57581 0.0
O1727 O 0.68851 0.30189 0.58799 0.0
O1728 O 0.68269 0.29089 0.58512 0.0
C1729 C 0.68432 0.29603 0.59055 0.0
C1730 C 0.67852 0.30553 0.56636 0.0
C1731 C 0.67783 0.29808 0.59571 0.0
C1732 C 0.66474 0.30302 0.59777 0.0
C1733 C 0.67097 0.30139 0.59278 0.0
C1734 C 0.67224 0.29813 0.60867 0.0
C1735 C 0.66529 0.30136 0.60578 0.0
C1736 C 0.67844 0.29651 0.60368 0.0
C1737 C 0.70742 0.2876 0.57304 0.0
C1738 C 0.71285 0.27724 0.581 0.0
C1739 C 0.72105 0.28411 0.57182 0.0
C1740 C 0.71474 0.28873 0.56963 0.0
C1741 C 0.72016 0.27824 0.57745 0.0
C1742 C 0.70653 0.28191 0.57883 0.0
C1743 C 0.70078 0.2922 0.5702 0.0
O1744 O 0.67761 0.29814 0.56812 0.0
O1745 O 0.68378 0.30901 0.57068 0.0
O1746 O 0.70024 0.29933 0.57292 0.0
O1747 O 0.69406 0.28856 0.56988 0.0
H1748 H 0.68853 0.29918 0.55596 0.0
H1749 H 0.68932 0.30177 0.54199 0.0
H1750 H 0.67044 0.31825 0.544 0.0
H1751 H 0.66971 0.31564 0.55802 0.0
H1752 H 0.65951 0.30558 0.59537 0.0
H1753 H 0.67042 0.30266 0.58663 0.0
H1754 H 0.67282 0.29668 0.61478 0.0
H1755 H 0.68369 0.29392 0.60603 0.0
H1756 H 0.712 0.27282 0.58541 0.0
H1757 H 0.72658 0.28497 0.56891 0.0
H1758 H 0.71553 0.29309 0.56514 0.0
H1759 H 0.70094 0.28098 0.58158 0.0
C1760 C 0.69227 0.17904 0.05803 0.0
C1761 C 0.69233 0.18634 0.05437 0.0
C1762 C 0.68906 0.1803 0.04197 0.0
C1763 C 0.6907 0.18697 0.04643 0.0
C1764 C 0.6889 0.173 0.0457 0.0
C1765 C 0.6905 0.17239 0.05367 0.0
U1766 U 0.70288 0.18747 0.07517 0.0
O1767 O 0.69998 0.18821 0.08762 0.0
O1768 O 0.7106 0.18217 0.08387 0.0
C1769 C 0.70593 0.18386 0.08969 0.0
C1770 C 0.69454 0.17835 0.06625 0.0
C1771 C 0.70411 0.17738 0.09495 0.0
C1772 C 0.69927 0.1643 0.09724 0.0
C1773 C 0.70076 0.17049 0.09215 0.0
C1774 C 0.70436 0.17191 0.10796 0.0
C1775 C 0.70108 0.16493 0.1052 0.0
C1776 C 0.70586 0.17807 0.10287 0.0
C1777 C 0.71338 0.20687 0.07138 0.0
C1778 C 0.72342 0.21247 0.07962 0.0
C1779 C 0.71875 0.21956 0.06836 0.0
C1780 C 0.71358 0.21352 0.06669 0.0
C1781 C 0.72384 0.21904 0.07475 0.0
C1782 C 0.71823 0.20642 0.07794 0.0
C1783 C 0.7084 0.20033 0.06905 0.0
O1784 O 0.70203 0.17733 0.0674 0.0
O1785 O 0.69146 0.18353 0.07096 0.0
O1786 O 0.70155 0.19993 0.07243 0.0
O1787 O 0.7119 0.19356 0.0685 0.0
H1788 H 0.69374 0.19155 0.05762 0.0
H1789 H 0.69075 0.19269 0.0438 0.0
H1790 H 0.68775 0.16774 0.04243 0.0
H1791 H 0.6905 0.1667 0.05639 0.0
H1792 H 0.69667 0.15904 0.09495 0.0
H1793 H 0.69934 0.16988 0.08604 0.0
H1794 H 0.70592 0.17256 0.11403 0.0
H1795 H 0.70846 0.18336 0.10512 0.0
H1796 H 0.7273 0.21187 0.08455 0.0
H1797 H 0.71883 0.2246 0.06458 0.0
H1798 H 0.70985 0.21398 0.06163 0.0
H1799 H 0.71814 0.20131 0.08163 0.0
C1800 C 0.67891 0.19228 0.94287 0.0
C1801 C 0.68615 0.19248 0.94663 0.0
C1802 C 0.67998 0.18922 0.95897 0.0
C1803 C 0.68669 0.19092 0.95459 0.0
C1804 C 0.67275 0.1889 0.95514 0.0
C1805 C 0.67222 0.19042 0.94715 0.0
U1806 U 0.68747 0.20285 0.92576 0.0
O1807 O 0.68821 0.19997 0.91331 0.0
O1808 O 0.68223 0.21061 0.91707 0.0
C1809 C 0.6839 0.20594 0.91124 0.0
C1810 C 0.67828 0.19454 0.93464 0.0
C1811 C 0.67742 0.20418 0.90597 0.0
C1812 C 0.6643 0.19946 0.90365 0.0
C1813 C 0.67049 0.20087 0.90874 0.0
C1814 C 0.67195 0.20455 0.89296 0.0
C1815 C 0.66495 0.20132 0.89569 0.0
C1816 C 0.67813 0.20597 0.89805 0.0
C1817 C 0.70687 0.21331 0.9296 0.0
C1818 C 0.71248 0.22332 0.92134 0.0
C1819 C 0.71954 0.21871 0.93264 0.0
C1820 C 0.7135 0.21354 0.93431 0.0
C1821 C 0.71904 0.22377 0.92622 0.0
C1822 C 0.70643 0.21813 0.92302 0.0
C1823 C 0.70033 0.20833 0.93192 0.0
O1824 O 0.67729 0.20203 0.93348 0.0
O1825 O 0.68349 0.19144 0.92997 0.0
O1826 O 0.69992 0.20149 0.92854 0.0
O1827 O 0.69356 0.21184 0.93247 0.0
H1828 H 0.69138 0.19396 0.94344 0.0
H1829 H 0.69237 0.1911 0.95731 0.0
H1830 H 0.66746 0.1877 0.95834 0.0
H1831 H 0.66657 0.19032 0.94435 0.0
H1832 H 0.65901 0.19689 0.90592 0.0
H1833 H 0.66987 0.19943 0.91485 0.0
H1834 H 0.67261 0.20615 0.8869 0.0
H1835 H 0.68343 0.20855 0.89582 0.0
H1836 H 0.7119 0.22717 0.91638 0.0
H1837 H 0.72457 0.2188 0.93643 0.0
H1838 H 0.71394 0.20984 0.93939 0.0
H1839 H 0.70133 0.21802 0.91931 0.0
C1840 C 0.80948 0.17826 0.44284 0.0
C1841 C 0.80951 0.18549 0.44663 0.0
C1842 C 0.8133 0.17925 0.45877 0.0
C1843 C 0.81144 0.18599 0.45451 0.0
C1844 C 0.81328 0.17202 0.45493 0.0
C1845 C 0.8114 0.17153 0.44702 0.0
U1846 U 0.79858 0.1869 0.42592 0.0
O1847 O 0.80133 0.18773 0.41344 0.0
O1848 O 0.79076 0.18166 0.41727 0.0
C1849 C 0.79535 0.18341 0.41141 0.0
C1850 C 0.80703 0.17769 0.43465 0.0
C1851 C 0.79709 0.17699 0.40604 0.0
C1852 C 0.80205 0.164 0.40349 0.0
C1853 C 0.80063 0.17012 0.40867 0.0
C1854 C 0.79653 0.17163 0.393 0.0
C1855 C 0.8 0.16467 0.39559 0.0
C1856 C 0.79509 0.17772 0.39818 0.0
C1857 C 0.78816 0.20628 0.42989 0.0
C1858 C 0.77838 0.21205 0.42148 0.0
C1859 C 0.78261 0.21885 0.43308 0.0
C1860 C 0.78775 0.2128 0.43476 0.0
C1861 C 0.77776 0.2185 0.4265 0.0
C1862 C 0.78354 0.20598 0.42317 0.0
C1863 C 0.79315 0.19973 0.43217 0.0
O1864 O 0.79952 0.17672 0.43363 0.0
O1865 O 0.81005 0.18291 0.42995 0.0
O1866 O 0.79997 0.19933 0.42874 0.0
O1867 O 0.78964 0.19297 0.43272 0.0
H1868 H 0.80792 0.19074 0.44352 0.0
H1869 H 0.81128 0.19163 0.45732 0.0
H1870 H 0.81474 0.16674 0.45805 0.0
H1871 H 0.81135 0.1659 0.4442 0.0
H1872 H 0.80481 0.15876 0.40565 0.0
H1873 H 0.80224 0.16948 0.41474 0.0
H1874 H 0.79477 0.1723 0.38698 0.0
H1875 H 0.79234 0.18298 0.39606 0.0
H1876 H 0.77469 0.21159 0.41639 0.0
H1877 H 0.78239 0.2238 0.43699 0.0
H1878 H 0.79131 0.21313 0.43996 0.0
H1879 H 0.78379 0.20098 0.41935 0.0
C1880 C 0.69426 0.32241 0.44346 0.0
C1881 C 0.69768 0.31652 0.44796 0.0
C1882 C 0.69063 0.32099 0.45941 0.0
C1883 C 0.6959 0.31583 0.45585 0.0
C1884 C 0.6872 0.32689 0.45486 0.0
C1885 C 0.68901 0.32759 0.44694 0.0
U1886 U 0.70384 0.3139 0.42572 0.0
O1887 O 0.70019 0.31337 0.41345 0.0
O1888 O 0.71115 0.31913 0.41663 0.0
C1889 C 0.70612 0.31758 0.41107 0.0
C1890 C 0.69615 0.3231 0.43515 0.0
C1891 C 0.70419 0.32411 0.40592 0.0
C1892 C 0.69954 0.33731 0.40388 0.0
C1893 C 0.7011 0.33107 0.40888 0.0
C1894 C 0.70404 0.32964 0.39293 0.0
C1895 C 0.70102 0.33667 0.39584 0.0
C1896 C 0.70561 0.32343 0.39793 0.0
C1897 C 0.71396 0.29414 0.42842 0.0
C1898 C 0.7243 0.28869 0.42045 0.0
C1899 C 0.71738 0.28049 0.42959 0.0
C1900 C 0.71279 0.28682 0.4318 0.0
C1901 C 0.72325 0.28137 0.42396 0.0
C1902 C 0.71967 0.29502 0.42263 0.0
C1903 C 0.70938 0.30079 0.43125 0.0
O1904 O 0.70359 0.32396 0.43361 0.0
O1905 O 0.69273 0.31796 0.43063 0.0
O1906 O 0.70232 0.30145 0.42841 0.0
O1907 O 0.71309 0.30747 0.43174 0.0
H1908 H 0.70175 0.31247 0.44535 0.0
H1909 H 0.69874 0.31131 0.45919 0.0
H1910 H 0.68305 0.3309 0.45738 0.0
H1911 H 0.68629 0.33214 0.44354 0.0
H1912 H 0.69714 0.34261 0.40629 0.0
H1913 H 0.69994 0.33168 0.41504 0.0
H1914 H 0.70536 0.32899 0.38681 0.0
H1915 H 0.70802 0.3181 0.39557 0.0
H1916 H 0.72873 0.28953 0.41604 0.0
H1917 H 0.71649 0.27496 0.43248 0.0
H1918 H 0.70843 0.28604 0.43628 0.0
H1919 H 0.72062 0.30062 0.4199 0.0
C1920 C 0.07989 0.26715 0.77644 0.0
C1921 C 0.07922 0.27472 0.77342 0.0
C1922 C 0.0808 0.26078 0.77146 0.0
C1923 C 0.08534 0.25508 0.75106 0.0
H1924 H 0.07212 0.23745 0.75586 0.0
C1925 C 0.08389 0.22737 0.73168 0.0
C1926 C 0.07637 0.22448 0.73024 0.0
C1927 C 0.08509 0.23322 0.73723 0.0
C1928 C 0.07584 0.24233 0.75442 0.0
H1929 H 0.07924 0.28156 0.76282 0.0
H1930 H 0.08076 0.27045 0.75414 0.0
H1931 H 0.07292 0.24825 0.76494 0.0
H1932 H 0.06425 0.22535 0.73363 0.0
H1933 H 0.06629 0.2356 0.74315 0.0
H1934 H 0.088 0.24924 0.74036 0.0
C1935 C 0.08069 0.26943 0.76036 0.0
C1936 C 0.07638 0.24849 0.75968 0.0
C1937 C 0.07981 0.27581 0.76534 0.0
C1938 C 0.0701 0.22752 0.73452 0.0
C1939 C 0.07129 0.23333 0.74005 0.0
C1940 C 0.0848 0.2489 0.74578 0.0
C1941 C 0.08103 0.26182 0.76335 0.0
C1942 C 0.08104 0.255 0.75802 0.0
C1943 C 0.07879 0.23625 0.74149 0.0
C1944 C 0.07993 0.24252 0.74735 0.0
H1945 H 0.07959 0.26613 0.78265 0.0
H1946 H 0.08119 0.25501 0.77398 0.0
H1947 H 0.08906 0.25997 0.74964 0.0
H1948 H 0.08884 0.22518 0.72845 0.0
H1949 H 0.09094 0.23532 0.73823 0.0
C1950 C 0.72745 0.58342 0.2696 0.0
C1951 C 0.7246 0.57589 0.27109 0.0
C1952 C 0.7333 0.58461 0.26405 0.0
C1953 C 0.74244 0.57531 0.24692 0.0
H1954 H 0.76 0.58868 0.25158 0.0
C1955 C 0.76714 0.57945 0.2248 0.0
C1956 C 0.77473 0.57885 0.22779 0.0
C1957 C 0.76079 0.58033 0.22979 0.0
C1958 C 0.75514 0.58492 0.2502 0.0
H1959 H 0.72556 0.56375 0.26779 0.0
H1960 H 0.73581 0.56579 0.25827 0.0
H1961 H 0.7493 0.5876 0.26089 0.0
H1962 H 0.78162 0.57895 0.23835 0.0
H1963 H 0.77053 0.58042 0.24708 0.0
H1964 H 0.74836 0.57238 0.23639 0.0
C1965 C 0.7335 0.57079 0.26133 0.0
C1966 C 0.74897 0.58437 0.25549 0.0
C1967 C 0.72769 0.56961 0.26687 0.0
C1968 C 0.77585 0.57947 0.23586 0.0
C1969 C 0.76949 0.58033 0.24086 0.0
C1970 C 0.74858 0.57587 0.24163 0.0
C1971 C 0.73637 0.5783 0.25984 0.0
C1972 C 0.74262 0.57944 0.25397 0.0
C1973 C 0.76187 0.5806 0.2379 0.0
C1974 C 0.75506 0.58059 0.24325 0.0
H1975 H 0.72522 0.58838 0.27279 0.0
H1976 H 0.73536 0.59047 0.26301 0.0
H1977 H 0.73758 0.57155 0.24551 0.0
H1978 H 0.7661 0.57912 0.21859 0.0
H1979 H 0.75501 0.58068 0.2273 0.0
C1980 C 0.41876 0.22552 0.76643 0.0
C1981 C 0.42197 0.22682 0.77384 0.0
C1982 C 0.41736 0.23175 0.76138 0.0
C1983 C 0.41582 0.25335 0.76054 0.0
H1984 H 0.42293 0.25059 0.73931 0.0
C1985 C 0.42428 0.27889 0.74059 0.0
C1986 C 0.42251 0.27843 0.73262 0.0
C1987 C 0.42275 0.27263 0.74554 0.0
C1988 C 0.42078 0.25143 0.74517 0.0
H1989 H 0.42583 0.23573 0.78191 0.0
H1990 H 0.42356 0.24655 0.77307 0.0
H1991 H 0.42282 0.23952 0.74815 0.0
H1992 H 0.41756 0.2711 0.72363 0.0
H1993 H 0.41485 0.26015 0.73229 0.0
H1994 H 0.41402 0.26533 0.75761 0.0
C1995 C 0.42206 0.24073 0.77115 0.0
C1996 C 0.42071 0.24507 0.75025 0.0
C1997 C 0.42346 0.23451 0.7762 0.0
C1998 C 0.41895 0.27165 0.72975 0.0
C1999 C 0.41746 0.26535 0.73469 0.0
C2000 C 0.41591 0.25971 0.75547 0.0
C2001 C 0.41912 0.23942 0.76363 0.0
C2002 C 0.41837 0.24599 0.75804 0.0
C2003 C 0.41944 0.26574 0.74262 0.0
C2004 C 0.41853 0.25885 0.74777 0.0
H2005 H 0.41759 0.21967 0.76442 0.0
H2006 H 0.415 0.23055 0.75566 0.0
H2007 H 0.41385 0.25422 0.76646 0.0
H2008 H 0.42694 0.28407 0.743 0.0
H2009 H 0.42441 0.27309 0.7516 0.0
C2010 C 0.72719 0.91784 0.2317 0.0
C2011 C 0.72421 0.92534 0.23037 0.0
C2012 C 0.73303 0.91664 0.23726 0.0
C2013 C 0.74199 0.92575 0.25461 0.0
H2014 H 0.7598 0.91283 0.24964 0.0
C2015 C 0.76692 0.92179 0.27653 0.0
C2016 C 0.77447 0.92257 0.2735 0.0
C2017 C 0.76055 0.92085 0.27157 0.0
C2018 C 0.75487 0.91646 0.25111 0.0
H2019 H 0.72489 0.93742 0.23396 0.0
H2020 H 0.73513 0.93536 0.24349 0.0
H2021 H 0.74906 0.91387 0.24039 0.0
H2022 H 0.78128 0.92276 0.26289 0.0
H2023 H 0.77017 0.9212 0.25422 0.0
H2024 H 0.74788 0.92861 0.26517 0.0
C2025 C 0.73294 0.93039 0.24031 0.0
C2026 C 0.74868 0.91699 0.24585 0.0
C2027 C 0.72714 0.93158 0.23476 0.0
C2028 C 0.77555 0.92209 0.26541 0.0
C2029 C 0.76917 0.92118 0.26044 0.0
C2030 C 0.74816 0.92522 0.25986 0.0
C2031 C 0.73596 0.9229 0.24163 0.0
C2032 C 0.74223 0.92175 0.24748 0.0
C2033 C 0.76157 0.92072 0.26345 0.0
C2034 C 0.75474 0.92067 0.25813 0.0
H2035 H 0.72509 0.91292 0.22838 0.0
H2036 H 0.73521 0.91079 0.23817 0.0
H2037 H 0.73706 0.92938 0.2561 0.0
H2038 H 0.76592 0.92201 0.28275 0.0
H2039 H 0.75479 0.92036 0.27409 0.0
C2040 C 0.76628 0.07013 0.27373 0.0
C2041 C 0.77072 0.07634 0.27668 0.0
C2042 C 0.76079 0.07137 0.2679 0.0
C2043 C 0.75548 0.08479 0.2521 0.0
H2044 H 0.73602 0.0734 0.25281 0.0
C2045 C 0.736 0.07983 0.22514 0.0
C2046 C 0.7279 0.07945 0.22618 0.0
C2047 C 0.74095 0.0807 0.23154 0.0
C2048 C 0.74137 0.07672 0.25255 0.0
H2049 H 0.77282 0.08874 0.2758 0.0
H2050 H 0.76311 0.09094 0.26561 0.0
H2051 H 0.74502 0.07255 0.26368 0.0
H2052 H 0.71861 0.08019 0.23468 0.0
H2053 H 0.72724 0.08178 0.24584 0.0
H2054 H 0.7518 0.08896 0.24094 0.0
C2055 C 0.76396 0.08509 0.2678 0.0
C2056 C 0.74658 0.07615 0.25875 0.0
C2057 C 0.76947 0.08385 0.27368 0.0
C2058 C 0.72484 0.08032 0.23371 0.0
C2059 C 0.72978 0.08122 0.2401 0.0
C2060 C 0.75026 0.08536 0.24587 0.0
C2061 C 0.75955 0.07886 0.26485 0.0
C2062 C 0.75376 0.08006 0.25854 0.0
C2063 C 0.73791 0.08124 0.23911 0.0
C2064 C 0.74319 0.08124 0.24598 0.0
H2065 H 0.76702 0.06429 0.27598 0.0
H2066 H 0.75757 0.06643 0.26569 0.0
H2067 H 0.76098 0.08785 0.25174 0.0
H2068 H 0.73854 0.07909 0.21942 0.0
H2069 H 0.74717 0.08059 0.23056 0.0
C2070 C 0.92637 0.27348 0.76767 0.0
C2071 C 0.92305 0.27226 0.77504 0.0
C2072 C 0.92488 0.26835 0.76155 0.0
C2073 C 0.91905 0.24804 0.758 0.0
H2074 H 0.91884 0.25491 0.73652 0.0
C2075 C 0.92695 0.22776 0.73263 0.0
C2076 C 0.92338 0.22881 0.72535 0.0
C2077 C 0.92539 0.23284 0.73878 0.0
C2078 C 0.91875 0.25288 0.74248 0.0
H2079 H 0.9153 0.26483 0.78167 0.0
H2080 H 0.91252 0.25598 0.77092 0.0
H2081 H 0.91853 0.2645 0.74693 0.0
H2082 H 0.91514 0.23588 0.71892 0.0
H2083 H 0.91227 0.24464 0.72972 0.0
H2084 H 0.91925 0.23642 0.75355 0.0
C2085 C 0.91641 0.26084 0.76992 0.0
C2086 C 0.91868 0.25839 0.74846 0.0
C2087 C 0.91793 0.26596 0.77606 0.0
C2088 C 0.91797 0.23488 0.72446 0.0
C2089 C 0.91639 0.23996 0.73063 0.0
C2090 C 0.91909 0.24253 0.75202 0.0
C2091 C 0.91997 0.26189 0.76262 0.0
C2092 C 0.91903 0.25605 0.75629 0.0
C2093 C 0.92019 0.23908 0.73783 0.0
C2094 C 0.91914 0.24488 0.74418 0.0
H2095 H 0.93025 0.27834 0.76665 0.0
H2096 H 0.9278 0.26932 0.75605 0.0
H2097 H 0.91938 0.24601 0.76396 0.0
H2098 H 0.93105 0.22307 0.73356 0.0
H2099 H 0.9285 0.23202 0.7442 0.0
C2100 C 0.76964 0.41761 0.22769 0.0
C2101 C 0.77094 0.42512 0.22468 0.0
C2102 C 0.76411 0.4164 0.23355 0.0
C2103 C 0.74672 0.42545 0.24251 0.0
H2104 H 0.75177 0.4126 0.26034 0.0
C2105 C 0.72482 0.42138 0.26743 0.0
C2106 C 0.72784 0.42221 0.27498 0.0
C2107 C 0.7298 0.42047 0.26106 0.0
C2108 C 0.75028 0.41621 0.2554 0.0
H2109 H 0.76729 0.43718 0.22536 0.0
H2110 H 0.7578 0.43511 0.23562 0.0
H2111 H 0.76102 0.41366 0.24959 0.0
H2112 H 0.73845 0.42248 0.2818 0.0
H2113 H 0.74714 0.42097 0.2707 0.0
H2114 H 0.73615 0.42826 0.2484 0.0
C2115 C 0.761 0.43014 0.23343 0.0
C2116 C 0.75554 0.41675 0.24921 0.0
C2117 C 0.76652 0.43135 0.22761 0.0
C2118 C 0.73594 0.42178 0.27606 0.0
C2119 C 0.74092 0.4209 0.26969 0.0
C2120 C 0.74148 0.42491 0.24868 0.0
C2121 C 0.75971 0.42266 0.23647 0.0
C2122 C 0.75388 0.4215 0.24275 0.0
C2123 C 0.73792 0.4204 0.26209 0.0
C2124 C 0.74323 0.42037 0.25526 0.0
H2125 H 0.77298 0.4127 0.22558 0.0
H2126 H 0.76322 0.41056 0.23574 0.0
H2127 H 0.74521 0.42906 0.23757 0.0
H2128 H 0.7186 0.42155 0.26642 0.0
H2129 H 0.72728 0.41994 0.25531 0.0
C2130 C 0.58301 0.23487 0.7759 0.0
C2131 C 0.57977 0.22747 0.77463 0.0
C2132 C 0.58442 0.2399 0.76966 0.0
C2133 C 0.58589 0.24068 0.74805 0.0
H2134 H 0.57888 0.26195 0.7508 0.0
C2135 C 0.5774 0.26062 0.72251 0.0
C2136 C 0.57921 0.26858 0.72295 0.0
C2137 C 0.57894 0.25568 0.72877 0.0
C2138 C 0.581 0.25608 0.74996 0.0
H2139 H 0.57585 0.2194 0.76575 0.0
H2140 H 0.57813 0.2282 0.75491 0.0
H2141 H 0.57899 0.25314 0.76188 0.0
H2142 H 0.58424 0.27757 0.73023 0.0
H2143 H 0.58696 0.26891 0.74119 0.0
H2144 H 0.58765 0.24358 0.73606 0.0
C2145 C 0.57965 0.23012 0.76071 0.0
C2146 C 0.58107 0.25101 0.75632 0.0
C2147 C 0.57825 0.2251 0.76695 0.0
C2148 C 0.58281 0.27145 0.72971 0.0
C2149 C 0.58431 0.26651 0.736 0.0
C2150 C 0.58579 0.24574 0.74168 0.0
C2151 C 0.58263 0.23764 0.762 0.0
C2152 C 0.58337 0.24321 0.75542 0.0
C2153 C 0.58229 0.25859 0.73564 0.0
C2154 C 0.58321 0.25345 0.74254 0.0
H2155 H 0.58421 0.23689 0.78175 0.0
H2156 H 0.5868 0.24561 0.77084 0.0
H2157 H 0.58783 0.23475 0.74718 0.0
H2158 H 0.5747 0.25822 0.71734 0.0
H2159 H 0.57724 0.24963 0.72833 0.0
C2160 C 0.27361 0.76675 0.06958 0.0
C2161 C 0.27671 0.77096 0.07587 0.0
C2162 C 0.26781 0.7612 0.07077 0.0
C2163 C 0.25239 0.75531 0.08439 0.0
H2164 H 0.25295 0.73627 0.0723 0.0
C2165 C 0.22547 0.73574 0.07951 0.0
C2166 C 0.22658 0.72767 0.07882 0.0
C2167 C 0.23184 0.74072 0.08036 0.0
C2168 C 0.25274 0.74149 0.07582 0.0
H2169 H 0.27614 0.77262 0.08836 0.0
H2170 H 0.26601 0.76281 0.09046 0.0
H2171 H 0.26372 0.74538 0.07148 0.0
H2172 H 0.23519 0.71845 0.07898 0.0
H2173 H 0.2463 0.72714 0.08055 0.0
H2174 H 0.24138 0.75138 0.08873 0.0
C2175 C 0.26805 0.76388 0.0846 0.0
C2176 C 0.25888 0.74677 0.07526 0.0
C2177 C 0.2739 0.76944 0.08341 0.0
C2178 C 0.23416 0.72466 0.07936 0.0
C2179 C 0.24053 0.72964 0.08025 0.0
C2180 C 0.24622 0.75001 0.08494 0.0
C2181 C 0.26496 0.75969 0.07828 0.0
C2182 C 0.25872 0.75381 0.07943 0.0
C2183 C 0.23946 0.73775 0.08058 0.0
C2184 C 0.24628 0.74309 0.08057 0.0
H2185 H 0.27572 0.76769 0.06372 0.0
H2186 H 0.26549 0.75815 0.06577 0.0
H2187 H 0.25207 0.76069 0.08765 0.0
H2188 H 0.21971 0.73824 0.07903 0.0
H2189 H 0.23081 0.74694 0.08051 0.0
C2190 C 0.27401 0.73461 0.43156 0.0
C2191 C 0.27694 0.73019 0.42534 0.0
C2192 C 0.26818 0.74013 0.43033 0.0
C2193 C 0.2524 0.74554 0.41692 0.0
H2194 H 0.25318 0.76495 0.4284 0.0
C2195 C 0.22552 0.76514 0.42183 0.0
C2196 C 0.2266 0.77323 0.42226 0.0
C2197 C 0.2319 0.76016 0.42098 0.0
C2198 C 0.2529 0.75962 0.42505 0.0
H2199 H 0.27603 0.72811 0.41293 0.0
H2200 H 0.26586 0.73785 0.41077 0.0
H2201 H 0.26401 0.75589 0.42924 0.0
H2202 H 0.23515 0.78248 0.42165 0.0
H2203 H 0.24628 0.7738 0.42008 0.0
H2204 H 0.24128 0.7493 0.41273 0.0
C2205 C 0.26806 0.73698 0.41661 0.0
C2206 C 0.25908 0.75437 0.42562 0.0
C2207 C 0.27393 0.73145 0.41783 0.0
C2208 C 0.23415 0.77626 0.42147 0.0
C2209 C 0.24052 0.77129 0.42058 0.0
C2210 C 0.24621 0.7508 0.41635 0.0
C2211 C 0.26513 0.74139 0.42285 0.0
C2212 C 0.25885 0.74721 0.42168 0.0
C2213 C 0.2395 0.76317 0.42051 0.0
C2214 C 0.24633 0.75785 0.42051 0.0
H2215 H 0.27627 0.73387 0.43739 0.0
H2216 H 0.26599 0.74334 0.43529 0.0
H2217 H 0.25203 0.74006 0.41384 0.0
H2218 H 0.21978 0.76262 0.42251 0.0
H2219 H 0.23089 0.75394 0.42104 0.0
C2220 C 0.23204 0.72754 0.91739 0.0
C2221 C 0.23069 0.72461 0.92491 0.0
C2222 C 0.23758 0.73339 0.91616 0.0
C2223 C 0.25488 0.74246 0.92526 0.0
H2224 H 0.24986 0.76021 0.91227 0.0
C2225 C 0.27671 0.76745 0.92123 0.0
C2226 C 0.27365 0.77499 0.92201 0.0
C2227 C 0.27177 0.76106 0.9203 0.0
C2228 C 0.25134 0.75529 0.91592 0.0
H2229 H 0.23424 0.72539 0.93699 0.0
H2230 H 0.24375 0.73564 0.93489 0.0
H2231 H 0.24064 0.74943 0.91333 0.0
H2232 H 0.26302 0.78176 0.92219 0.0
H2233 H 0.25439 0.77062 0.92064 0.0
H2234 H 0.26541 0.7484 0.92811 0.0
C2235 C 0.24059 0.7334 0.92992 0.0
C2236 C 0.2461 0.74908 0.91646 0.0
C2237 C 0.23506 0.72759 0.93114 0.0
C2238 C 0.26556 0.77604 0.92152 0.0
C2239 C 0.26061 0.76964 0.92063 0.0
C2240 C 0.26011 0.74865 0.92471 0.0
C2241 C 0.24192 0.73638 0.92243 0.0
C2242 C 0.24775 0.74266 0.92125 0.0
C2243 C 0.26365 0.76206 0.92017 0.0
C2244 C 0.25836 0.7552 0.92014 0.0
H2245 H 0.22874 0.72539 0.91247 0.0
H2246 H 0.23851 0.73553 0.91031 0.0
H2247 H 0.25638 0.73755 0.92891 0.0
H2248 H 0.28294 0.76647 0.92145 0.0
H2249 H 0.27431 0.75531 0.91981 0.0
C2250 C 0.26972 0.72734 0.58383 0.0
C2251 C 0.27088 0.72429 0.57633 0.0
C2252 C 0.26423 0.73323 0.5851 0.0
C2253 C 0.24675 0.74224 0.5763 0.0
H2254 H 0.25216 0.76014 0.58892 0.0
C2255 C 0.22511 0.76736 0.58054 0.0
C2256 C 0.22818 0.77488 0.57957 0.0
C2257 C 0.23006 0.76097 0.58143 0.0
C2258 C 0.25057 0.75518 0.58538 0.0
H2259 H 0.26704 0.72491 0.56432 0.0
H2260 H 0.25762 0.73522 0.5665 0.0
H2261 H 0.2613 0.74931 0.58778 0.0
H2262 H 0.23883 0.78161 0.57904 0.0
H2263 H 0.24746 0.77046 0.58053 0.0
H2264 H 0.23618 0.74819 0.57363 0.0
C2265 C 0.26089 0.73305 0.57142 0.0
C2266 C 0.25577 0.74895 0.58479 0.0
C2267 C 0.26637 0.7272 0.57015 0.0
C2268 C 0.23629 0.77591 0.57985 0.0
C2269 C 0.24123 0.76951 0.58071 0.0
C2270 C 0.24156 0.74846 0.57689 0.0
C2271 C 0.25975 0.73614 0.5789 0.0
C2272 C 0.25398 0.74247 0.58013 0.0
C2273 C 0.23818 0.76194 0.58135 0.0
C2274 C 0.24345 0.75506 0.58134 0.0
H2275 H 0.27313 0.72525 0.5887 0.0
H2276 H 0.26345 0.73546 0.59094 0.0
H2277 H 0.24514 0.73729 0.57275 0.0
H2278 H 0.21888 0.7664 0.58048 0.0
H2279 H 0.22751 0.75524 0.58206 0.0
C2280 C 0.92099 0.77555 0.26658 0.0
C2281 C 0.92243 0.77448 0.27456 0.0
C2282 C 0.92005 0.76914 0.26165 0.0
C2283 C 0.92566 0.74856 0.26034 0.0
H2284 H 0.91123 0.74802 0.243 0.0
C2285 C 0.92377 0.72181 0.24043 0.0
C2286 C 0.92344 0.72323 0.23239 0.0
C2287 C 0.92261 0.72784 0.24575 0.0
C2288 C 0.91532 0.74811 0.24779 0.0
H2289 H 0.92354 0.76586 0.28371 0.0
H2290 H 0.9219 0.75468 0.27512 0.0
H2291 H 0.91098 0.75901 0.25203 0.0
H2292 H 0.92142 0.73207 0.22362 0.0
H2293 H 0.91949 0.74264 0.2329 0.0
H2294 H 0.93013 0.73779 0.25605 0.0
C2295 C 0.92165 0.76047 0.27264 0.0
C2296 C 0.91518 0.7544 0.25296 0.0
C2297 C 0.92259 0.76687 0.27756 0.0
C2298 C 0.92165 0.73078 0.22978 0.0
C2299 C 0.92053 0.73683 0.23511 0.0
C2300 C 0.92581 0.7423 0.25517 0.0
C2301 C 0.92054 0.76152 0.26461 0.0
C2302 C 0.92037 0.75471 0.25928 0.0
C2303 C 0.92114 0.73546 0.24316 0.0
C2304 C 0.92068 0.742 0.24881 0.0
H2305 H 0.92091 0.78133 0.26408 0.0
H2306 H 0.91928 0.77015 0.25548 0.0
H2307 H 0.92984 0.74868 0.26505 0.0
H2308 H 0.925 0.71602 0.24262 0.0
H2309 H 0.92295 0.72654 0.25191 0.0
C2310 C 0.22531 0.42207 0.76494 0.0
C2311 C 0.22651 0.42268 0.773 0.0
C2312 C 0.23162 0.4212 0.75988 0.0
C2313 C 0.25255 0.42557 0.75892 0.0
H2314 H 0.25155 0.4139 0.73963 0.0
C2315 C 0.27323 0.43178 0.73349 0.0
C2316 C 0.27621 0.42549 0.72919 0.0
C2317 C 0.26748 0.43061 0.73909 0.0
C2318 C 0.25196 0.41712 0.74503 0.0
H2319 H 0.23521 0.42237 0.78212 0.0
H2320 H 0.24622 0.42079 0.77331 0.0
H2321 H 0.24096 0.41285 0.74905 0.0
H2322 H 0.27545 0.41302 0.72743 0.0
H2323 H 0.26541 0.41096 0.73732 0.0
H2324 H 0.26354 0.42983 0.75493 0.0
C2325 C 0.24042 0.42116 0.77087 0.0
C2326 C 0.24586 0.41658 0.7504 0.0
C2327 C 0.23412 0.42205 0.77592 0.0
C2328 C 0.27331 0.41798 0.73067 0.0
C2329 C 0.26752 0.41681 0.73628 0.0
C2330 C 0.25864 0.42611 0.75357 0.0
C2331 C 0.23927 0.4209 0.76277 0.0
C2332 C 0.24603 0.42089 0.75735 0.0
C2333 C 0.26455 0.42312 0.74057 0.0
C2334 C 0.25836 0.422 0.7465 0.0
H2335 H 0.21952 0.42261 0.7625 0.0
H2336 H 0.23052 0.42112 0.75367 0.0
H2337 H 0.25285 0.42904 0.76417 0.0
H2338 H 0.27541 0.43762 0.73258 0.0
H2339 H 0.26525 0.43562 0.7422 0.0
C2340 C 0.58223 0.77161 0.22984 0.0
C2341 C 0.57857 0.77835 0.23268 0.0
C2342 C 0.58374 0.76533 0.2348 0.0
C2343 C 0.5852 0.75973 0.2556 0.0
H2344 H 0.57859 0.73945 0.24824 0.0
C2345 C 0.57791 0.73442 0.27629 0.0
C2346 C 0.5795 0.72675 0.27393 0.0
C2347 C 0.57925 0.74066 0.27126 0.0
C2348 C 0.58062 0.74503 0.25035 0.0
H2349 H 0.57399 0.78396 0.243 0.0
H2350 H 0.57656 0.77301 0.25164 0.0
H2351 H 0.5784 0.75051 0.2394 0.0
H2352 H 0.58399 0.71966 0.26451 0.0
H2353 H 0.58648 0.73058 0.25578 0.0
H2354 H 0.58728 0.75427 0.2666 0.0
C2355 C 0.57828 0.77256 0.24559 0.0
C2356 C 0.5805 0.75138 0.24528 0.0
C2357 C 0.57673 0.7788 0.24063 0.0
C2358 C 0.58274 0.7255 0.26653 0.0
C2359 C 0.58409 0.73175 0.26149 0.0
C2360 C 0.58535 0.75337 0.26067 0.0
C2361 C 0.58169 0.7657 0.24272 0.0
C2362 C 0.58264 0.75883 0.24788 0.0
C2363 C 0.58223 0.73939 0.26374 0.0
C2364 C 0.5829 0.74597 0.25815 0.0
H2365 H 0.58368 0.77107 0.22373 0.0
H2366 H 0.58643 0.76015 0.23243 0.0
H2367 H 0.587 0.76537 0.25774 0.0
H2368 H 0.57551 0.7356 0.282 0.0
H2369 H 0.57768 0.74645 0.27317 0.0
C2370 C 0.27548 0.08013 0.76601 0.0
C2371 C 0.27435 0.07957 0.77409 0.0
C2372 C 0.26913 0.08096 0.761 0.0
C2373 C 0.2482 0.07659 0.76022 0.0
H2374 H 0.24903 0.08815 0.74087 0.0
C2375 C 0.2274 0.07018 0.73493 0.0
C2376 C 0.22439 0.07643 0.73061 0.0
C2377 C 0.23317 0.07139 0.74051 0.0
C2378 C 0.24867 0.08497 0.74629 0.0
H2379 H 0.26571 0.07995 0.78328 0.0
H2380 H 0.25463 0.08148 0.77454 0.0
H2381 H 0.2597 0.08927 0.7502 0.0
H2382 H 0.22507 0.08889 0.72879 0.0
H2383 H 0.23514 0.09105 0.73864 0.0
H2384 H 0.23719 0.07228 0.75634 0.0
C2385 C 0.26041 0.08109 0.77206 0.0
C2386 C 0.25482 0.08555 0.7516 0.0
C2387 C 0.26676 0.08022 0.77707 0.0
C2388 C 0.22725 0.08396 0.73205 0.0
C2389 C 0.23305 0.08518 0.73764 0.0
C2390 C 0.24207 0.07601 0.75492 0.0
C2391 C 0.2615 0.08129 0.76395 0.0
C2392 C 0.25471 0.08127 0.75858 0.0
C2393 C 0.23607 0.07891 0.74194 0.0
C2394 C 0.24229 0.08008 0.74783 0.0
H2395 H 0.28124 0.07956 0.76353 0.0
H2396 H 0.27018 0.08101 0.75478 0.0
H2397 H 0.24794 0.07314 0.76549 0.0
H2398 H 0.22526 0.06432 0.73405 0.0
H2399 H 0.23543 0.06641 0.74364 0.0
C2400 C 0.23618 0.92178 0.72506 0.0
C2401 C 0.22813 0.92255 0.72626 0.0
C2402 C 0.24123 0.92086 0.73138 0.0
C2403 C 0.24228 0.92543 0.75224 0.0
H2404 H 0.2613 0.91332 0.75143 0.0
C2405 C 0.26783 0.93138 0.77283 0.0
C2406 C 0.27192 0.92504 0.77597 0.0
C2407 C 0.26223 0.93025 0.76707 0.0
C2408 C 0.25597 0.91666 0.75179 0.0
H2409 H 0.21901 0.92247 0.73497 0.0
H2410 H 0.2278 0.9208 0.74598 0.0
H2411 H 0.25188 0.91234 0.74083 0.0
H2412 H 0.27333 0.91251 0.7755 0.0
H2413 H 0.26345 0.91052 0.76542 0.0
H2414 H 0.24635 0.92976 0.76317 0.0
C2415 C 0.23024 0.92108 0.74018 0.0
C2416 C 0.25061 0.91616 0.74568 0.0
C2417 C 0.2252 0.92203 0.73387 0.0
C2418 C 0.27025 0.91751 0.77322 0.0
C2419 C 0.26464 0.91638 0.76741 0.0
C2420 C 0.24763 0.92594 0.75832 0.0
C2421 C 0.23833 0.92067 0.73903 0.0
C2422 C 0.24375 0.92063 0.74578 0.0
C2423 C 0.26055 0.92275 0.76429 0.0
C2424 C 0.2546 0.92167 0.75811 0.0
H2425 H 0.23863 0.92224 0.71927 0.0
H2426 H 0.24743 0.92065 0.73028 0.0
H2427 H 0.23711 0.92902 0.75249 0.0
H2428 H 0.26889 0.93724 0.77489 0.0
H2429 H 0.25926 0.9353 0.76472 0.0
C2430 C 0.08218 0.72892 0.23064 0.0
C2431 C 0.07845 0.73161 0.22388 0.0
C2432 C 0.08363 0.73399 0.23685 0.0
C2433 C 0.08476 0.75488 0.24216 0.0
H2434 H 0.07834 0.74773 0.26256 0.0
C2435 C 0.07714 0.77586 0.26711 0.0
C2436 C 0.07883 0.77368 0.27481 0.0
C2437 C 0.07854 0.77073 0.26096 0.0
C2438 C 0.0803 0.74979 0.25694 0.0
H2439 H 0.07366 0.74178 0.21816 0.0
H2440 H 0.07612 0.75059 0.22899 0.0
H2441 H 0.07827 0.73871 0.25164 0.0
H2442 H 0.08355 0.76448 0.28205 0.0
H2443 H 0.08612 0.75558 0.27129 0.0
H2444 H 0.08664 0.766 0.24742 0.0
C2445 C 0.07795 0.74459 0.22951 0.0
C2446 C 0.08026 0.74461 0.25068 0.0
C2447 C 0.07646 0.73952 0.22334 0.0
C2448 C 0.08222 0.76636 0.27619 0.0
C2449 C 0.08362 0.76123 0.27003 0.0
C2450 C 0.08482 0.76005 0.24843 0.0
C2451 C 0.08143 0.74186 0.23639 0.0
C2452 C 0.08233 0.74713 0.24318 0.0
C2453 C 0.08167 0.7633 0.26235 0.0
C2454 C 0.08244 0.75762 0.25587 0.0
H2455 H 0.08375 0.72284 0.23124 0.0
H2456 H 0.08638 0.73173 0.24205 0.0
H2457 H 0.08651 0.75697 0.23647 0.0
H2458 H 0.07463 0.78149 0.26584 0.0
H2459 H 0.07689 0.7725 0.25514 0.0
C2460 C 0.23643 0.58017 0.776 0.0
C2461 C 0.22835 0.5797 0.77484 0.0
C2462 C 0.24147 0.58104 0.76968 0.0
C2463 C 0.24227 0.57685 0.74872 0.0
H2464 H 0.26172 0.58825 0.7497 0.0
C2465 C 0.26756 0.5704 0.72794 0.0
C2466 C 0.27191 0.57665 0.72496 0.0
C2467 C 0.26199 0.57162 0.73371 0.0
C2468 C 0.25627 0.58512 0.74929 0.0
H2469 H 0.21919 0.58026 0.76619 0.0
H2470 H 0.22798 0.58183 0.75515 0.0
H2471 H 0.25236 0.58936 0.76035 0.0
H2472 H 0.2738 0.5891 0.72571 0.0
H2473 H 0.26396 0.59125 0.7358 0.0
H2474 H 0.24615 0.5726 0.73769 0.0
C2475 C 0.23044 0.58136 0.76093 0.0
C2476 C 0.25094 0.58568 0.75543 0.0
C2477 C 0.2254 0.58046 0.76725 0.0
C2478 C 0.27051 0.58417 0.72787 0.0
C2479 C 0.26493 0.58539 0.73368 0.0
C2480 C 0.24758 0.57628 0.7426 0.0
C2481 C 0.23854 0.58147 0.76205 0.0
C2482 C 0.24393 0.58147 0.75527 0.0
C2483 C 0.2606 0.57912 0.73666 0.0
C2484 C 0.2547 0.58029 0.74287 0.0
H2485 H 0.23889 0.57951 0.78177 0.0
H2486 H 0.24768 0.58101 0.77075 0.0
H2487 H 0.23697 0.57345 0.74842 0.0
H2488 H 0.26841 0.56455 0.72576 0.0
H2489 H 0.25883 0.56664 0.73594 0.0
C2490 C 0.42471 0.73944 0.27793 0.0
C2491 C 0.42273 0.73151 0.27752 0.0
C2492 C 0.42316 0.74442 0.2717 0.0
C2493 C 0.42068 0.74413 0.25056 0.0
H2494 H 0.41427 0.76556 0.25354 0.0
C2495 C 0.41856 0.76547 0.22473 0.0
C2496 C 0.42195 0.77281 0.22598 0.0
C2497 C 0.41718 0.76044 0.23098 0.0
C2498 C 0.41609 0.7596 0.25261 0.0
H2499 H 0.41739 0.72264 0.27031 0.0
H2500 H 0.41465 0.73137 0.25942 0.0
H2501 H 0.41451 0.75669 0.26462 0.0
H2502 H 0.42616 0.78078 0.23481 0.0
H2503 H 0.42393 0.77197 0.24566 0.0
H2504 H 0.42251 0.74708 0.23861 0.0
C2505 C 0.41744 0.73371 0.26456 0.0
C2506 C 0.41622 0.75452 0.25896 0.0
C2507 C 0.41895 0.72873 0.27082 0.0
C2508 C 0.42364 0.77512 0.23364 0.0
C2509 C 0.42227 0.7701 0.23987 0.0
C2510 C 0.42057 0.74922 0.24422 0.0
C2511 C 0.41962 0.74159 0.2649 0.0
C2512 C 0.41866 0.74676 0.25803 0.0
C2513 C 0.41914 0.76264 0.23862 0.0
C2514 C 0.41842 0.75705 0.24519 0.0
H2515 H 0.42755 0.74177 0.28305 0.0
H2516 H 0.42498 0.75044 0.27213 0.0
H2517 H 0.42267 0.73822 0.24967 0.0
H2518 H 0.41722 0.7635 0.2189 0.0
H2519 H 0.41467 0.75478 0.22982 0.0
C2520 C 0.77579 0.2659 0.92129 0.0
C2521 C 0.77452 0.27395 0.92204 0.0
C2522 C 0.76951 0.26079 0.92044 0.0
C2523 C 0.74869 0.25954 0.92516 0.0
H2524 H 0.74961 0.2405 0.9131 0.0
C2525 C 0.72828 0.23386 0.93122 0.0
C2526 C 0.72518 0.22972 0.92489 0.0
C2527 C 0.73401 0.23949 0.93008 0.0
C2528 C 0.74923 0.24583 0.91643 0.0
H2529 H 0.76572 0.28298 0.922 0.0
H2530 H 0.75477 0.27407 0.92046 0.0
H2531 H 0.76012 0.25002 0.91204 0.0
H2532 H 0.72568 0.22826 0.91237 0.0
H2533 H 0.73567 0.2382 0.91035 0.0
H2534 H 0.73782 0.25539 0.92955 0.0
C2535 C 0.7606 0.27169 0.9207 0.0
C2536 C 0.75528 0.25125 0.91588 0.0
C2537 C 0.76687 0.2768 0.92157 0.0
C2538 C 0.72792 0.23138 0.91737 0.0
C2539 C 0.73369 0.23702 0.91622 0.0
C2540 C 0.74265 0.25414 0.92571 0.0
C2541 C 0.76183 0.26361 0.92031 0.0
C2542 C 0.75513 0.25813 0.92033 0.0
C2543 C 0.73678 0.24116 0.92257 0.0
C2544 C 0.74291 0.24716 0.92146 0.0
H2545 H 0.7816 0.26351 0.9217 0.0
H2546 H 0.77067 0.2546 0.92025 0.0
H2547 H 0.74841 0.26473 0.92874 0.0
H2548 H 0.72623 0.23281 0.93709 0.0
H2549 H 0.73633 0.24249 0.93511 0.0
C2550 C 0.73434 0.27585 0.58001 0.0
C2551 C 0.72674 0.27294 0.57926 0.0
C2552 C 0.74065 0.27079 0.58087 0.0
C2553 C 0.74608 0.25024 0.58508 0.0
H2554 H 0.76383 0.25505 0.57202 0.0
C2555 C 0.77358 0.23058 0.58346 0.0
C2556 C 0.77651 0.22924 0.57594 0.0
C2557 C 0.76777 0.23616 0.5847 0.0
C2558 C 0.75891 0.25361 0.57569 0.0
H2559 H 0.71978 0.26242 0.57905 0.0
H2560 H 0.73077 0.25358 0.58048 0.0
H2561 H 0.75313 0.26425 0.57293 0.0
H2562 H 0.77575 0.23284 0.56386 0.0
H2563 H 0.76557 0.24241 0.56599 0.0
H2564 H 0.75177 0.23943 0.58759 0.0
C2565 C 0.73186 0.25979 0.58053 0.0
C2566 C 0.75281 0.25894 0.5763 0.0
C2567 C 0.72555 0.26486 0.5797 0.0
C2568 C 0.77355 0.23364 0.56971 0.0
C2569 C 0.76778 0.23921 0.57095 0.0
C2570 C 0.75219 0.24489 0.58448 0.0
C2571 C 0.7395 0.26269 0.58096 0.0
C2572 C 0.74626 0.25728 0.58091 0.0
C2573 C 0.76482 0.24055 0.57846 0.0
C2574 C 0.75862 0.24646 0.57966 0.0
H2575 H 0.73543 0.28206 0.57982 0.0
H2576 H 0.74644 0.27322 0.58134 0.0
H2577 H 0.74116 0.24881 0.58876 0.0
H2578 H 0.77571 0.22726 0.58837 0.0
H2579 H 0.76564 0.23709 0.59056 0.0
C2580 C 0.77683 0.26694 0.07923 0.0
C2581 C 0.77396 0.27459 0.07878 0.0
C2582 C 0.77174 0.26066 0.08011 0.0
C2583 C 0.75132 0.25531 0.08501 0.0
H2584 H 0.75543 0.23786 0.07132 0.0
C2585 C 0.73148 0.22792 0.08359 0.0
C2586 C 0.7298 0.22518 0.07606 0.0
C2587 C 0.73713 0.23369 0.08472 0.0
C2588 C 0.75419 0.24269 0.07517 0.0
H2589 H 0.76352 0.28165 0.07916 0.0
H2590 H 0.75463 0.27071 0.08063 0.0
H2591 H 0.76476 0.24846 0.0721 0.0
H2592 H 0.73283 0.22625 0.06386 0.0
H2593 H 0.74252 0.23636 0.06581 0.0
H2594 H 0.74059 0.24962 0.08783 0.0
C2595 C 0.76082 0.26956 0.08042 0.0
C2596 C 0.75959 0.24873 0.0757 0.0
C2597 C 0.76592 0.27584 0.07956 0.0
C2598 C 0.73391 0.2283 0.06972 0.0
C2599 C 0.73954 0.23403 0.07085 0.0
C2600 C 0.74591 0.24924 0.08448 0.0
C2601 C 0.76365 0.26188 0.08054 0.0
C2602 C 0.75818 0.25517 0.08054 0.0
C2603 C 0.74123 0.23679 0.07836 0.0
C2604 C 0.74723 0.24293 0.07945 0.0
H2605 H 0.78301 0.2658 0.07878 0.0
H2606 H 0.77413 0.25484 0.08034 0.0
H2607 H 0.7501 0.26014 0.08886 0.0
H2608 H 0.72839 0.22566 0.08859 0.0
H2609 H 0.73833 0.23566 0.09058 0.0
C2610 C 0.72553 0.26718 0.42135 0.0
C2611 C 0.72851 0.27475 0.42212 0.0
C2612 C 0.73055 0.26084 0.42046 0.0
C2613 C 0.75104 0.25527 0.41614 0.0
H2614 H 0.74616 0.23752 0.42919 0.0
C2615 C 0.7705 0.22762 0.4176 0.0
C2616 C 0.77187 0.22468 0.42511 0.0
C2617 C 0.76494 0.23347 0.4164 0.0
C2618 C 0.74762 0.24244 0.42552 0.0
H2619 H 0.73907 0.28164 0.42232 0.0
H2620 H 0.74783 0.27059 0.42083 0.0
H2621 H 0.73703 0.24829 0.42835 0.0
H2622 H 0.76836 0.22545 0.43721 0.0
H2623 H 0.75883 0.23569 0.43514 0.0
H2624 H 0.76179 0.2495 0.41357 0.0
C2625 C 0.74161 0.26954 0.42079 0.0
C2626 C 0.74233 0.24858 0.42496 0.0
C2627 C 0.73659 0.27589 0.42166 0.0
C2628 C 0.76753 0.22766 0.43136 0.0
C2629 C 0.76198 0.23346 0.43016 0.0
C2630 C 0.75634 0.24911 0.4167 0.0
C2631 C 0.73866 0.26192 0.42035 0.0
C2632 C 0.74402 0.25513 0.42036 0.0
C2633 C 0.76061 0.23644 0.42267 0.0
C2634 C 0.75474 0.24269 0.42151 0.0
H2635 H 0.71932 0.26613 0.42155 0.0
H2636 H 0.72807 0.25506 0.41998 0.0
H2637 H 0.75248 0.26019 0.41248 0.0
H2638 H 0.77378 0.22547 0.41267 0.0
H2639 H 0.76399 0.23561 0.41055 0.0
C2640 C 0.02831 0.18054 0.69425 0.0
C2641 C 0.03356 0.17963 0.68805 0.0
C2642 C 0.02032 0.18109 0.69287 0.0
C2643 C 0.00612 0.18639 0.67779 0.0
H2644 H 0.99151 0.17583 0.69136 0.0
C2645 C 0.97282 0.18769 0.67272 0.0
C2646 C 0.96815 0.18869 0.67937 0.0
C2647 C 0.98077 0.18605 0.67345 0.0
C2648 C 0.9955 0.17888 0.68756 0.0
H2649 H 0.03454 0.17857 0.67552 0.0
H2650 H 0.02054 0.17949 0.67309 0.0
H2651 H 0.00544 0.17395 0.69323 0.0
H2652 H 0.96816 0.18851 0.69199 0.0
H2653 H 0.98199 0.18586 0.69325 0.0
H2654 H 0.9962 0.19144 0.67221 0.0
C2655 C 0.02263 0.17981 0.67903 0.0
C2656 C 0.00349 0.17779 0.68862 0.0
C2657 C 0.03063 0.17921 0.68042 0.0
C2658 C 0.9716 0.18789 0.68675 0.0
C2659 C 0.97952 0.18626 0.68747 0.0
C2660 C 0.99812 0.18751 0.67674 0.0
C2661 C 0.01738 0.18077 0.68524 0.0
C2662 C 0.00889 0.18159 0.68381 0.0
C2663 C 0.98422 0.18535 0.68084 0.0
C2664 C 0.99272 0.18383 0.68166 0.0
H2665 H 0.03037 0.1808 0.7002 0.0
H2666 H 0.01645 0.1819 0.69777 0.0
H2667 H 0.01014 0.18947 0.67404 0.0
H2668 H 0.97038 0.18832 0.66695 0.0
H2669 H 0.98419 0.1853 0.66822 0.0
C2670 C 0.82716 0.52887 0.18776 0.0
C2671 C 0.82056 0.53365 0.18856 0.0
C2672 C 0.82636 0.52088 0.18642 0.0
C2673 C 0.81241 0.50485 0.18913 0.0
H2674 H 0.82522 0.49386 0.17416 0.0
C2675 C 0.80594 0.47316 0.18075 0.0
C2676 C 0.81227 0.46806 0.17987 0.0
C2677 C 0.80715 0.48116 0.18153 0.0
C2678 C 0.82166 0.49683 0.17843 0.0
H2679 H 0.80794 0.53377 0.18823 0.0
H2680 H 0.80655 0.51986 0.18598 0.0
H2681 H 0.82701 0.50784 0.17604 0.0
H2682 H 0.82483 0.46736 0.17901 0.0
H2683 H 0.82697 0.48135 0.18045 0.0
H2684 H 0.8071 0.49389 0.19159 0.0
C2685 C 0.81235 0.52228 0.18652 0.0
C2686 C 0.82268 0.50484 0.1795 0.0
C2687 C 0.81315 0.53025 0.18783 0.0
C2688 C 0.81984 0.47115 0.17962 0.0
C2689 C 0.82105 0.47917 0.18044 0.0
C2690 C 0.81141 0.49686 0.18808 0.0
C2691 C 0.81894 0.51748 0.18588 0.0
C2692 C 0.81803 0.50895 0.18482 0.0
C2693 C 0.81472 0.48426 0.18148 0.0
C2694 C 0.81597 0.49275 0.18268 0.0
H2695 H 0.83296 0.53128 0.18838 0.0
H2696 H 0.83155 0.51732 0.18602 0.0
H2697 H 0.80884 0.50782 0.19339 0.0
H2698 H 0.80003 0.47098 0.18082 0.0
H2699 H 0.80213 0.48491 0.18215 0.0
C2700 C 0.53039 0.31343 0.68884 0.0
C2701 C 0.53364 0.31267 0.68137 0.0
C2702 C 0.52243 0.31479 0.68978 0.0
C2703 C 0.50484 0.32184 0.67965 0.0
H2704 H 0.49407 0.31 0.69555 0.0
C2705 C 0.47121 0.32166 0.68273 0.0
C2706 C 0.46815 0.3216 0.69031 0.0
C2707 C 0.47922 0.32082 0.68149 0.0
C2708 C 0.497 0.31343 0.69115 0.0
H2709 H 0.53104 0.31285 0.66902 0.0
H2710 H 0.51714 0.31527 0.67067 0.0
H2711 H 0.50798 0.30816 0.69367 0.0
H2712 H 0.47113 0.32094 0.70255 0.0
H2713 H 0.48506 0.31954 0.70041 0.0
H2714 H 0.49384 0.32714 0.67716 0.0
C2715 C 0.52078 0.31487 0.6758 0.0
C2716 C 0.50498 0.31237 0.69007 0.0
C2717 C 0.52875 0.31348 0.67485 0.0
C2718 C 0.47329 0.32085 0.69663 0.0
C2719 C 0.48128 0.32004 0.6954 0.0
C2720 C 0.49684 0.32293 0.68075 0.0
C2721 C 0.51752 0.31545 0.68328 0.0
C2722 C 0.509 0.31658 0.68433 0.0
C2723 C 0.48434 0.31993 0.68781 0.0
C2724 C 0.49283 0.31876 0.68654 0.0
H2725 H 0.534 0.31299 0.69398 0.0
H2726 H 0.52013 0.31536 0.69562 0.0
H2727 H 0.50779 0.32523 0.67523 0.0
H2728 H 0.4674 0.32215 0.67773 0.0
H2729 H 0.48137 0.32068 0.67557 0.0
C2730 C 0.68009 0.97341 0.19531 0.0
C2731 C 0.67948 0.9683 0.18896 0.0
C2732 C 0.68087 0.98141 0.19413 0.0
C2733 C 0.6783 0.99704 0.17947 0.0
H2734 H 0.69269 0.00814 0.19285 0.0
C2735 C 0.68795 0.02899 0.17404 0.0
C2736 C 0.68849 0.03384 0.18061 0.0
C2737 C 0.68653 0.02101 0.17488 0.0
C2738 C 0.68859 0.00514 0.18911 0.0
H2739 H 0.67914 0.96759 0.17638 0.0
H2740 H 0.68058 0.98158 0.17429 0.0
H2741 H 0.69083 0.99421 0.19459 0.0
H2742 H 0.68765 0.03413 0.1932 0.0
H2743 H 0.68526 0.02025 0.19467 0.0
H2744 H 0.67614 0.00802 0.17394 0.0
C2745 C 0.68034 0.97941 0.1802 0.0
C2746 C 0.68751 0.99715 0.19012 0.0
C2747 C 0.67952 0.97139 0.18139 0.0
C2748 C 0.68743 0.03055 0.18803 0.0
C2749 C 0.68605 0.02259 0.18887 0.0
C2750 C 0.67941 0.00505 0.17843 0.0
C2751 C 0.68111 0.98451 0.18656 0.0
C2752 C 0.68231 0.99301 0.18535 0.0
C2753 C 0.68566 0.01771 0.18232 0.0
C2754 C 0.68453 0.00919 0.18328 0.0
H2755 H 0.67993 0.97123 0.20122 0.0
H2756 H 0.68126 0.98517 0.19917 0.0
H2757 H 0.67419 0.99405 0.17574 0.0
H2758 H 0.68882 0.03131 0.16825 0.0
H2759 H 0.68634 0.0174 0.16973 0.0
C2760 C 0.97277 0.31347 0.82713 0.0
C2761 C 0.96804 0.3125 0.82052 0.0
C2762 C 0.98072 0.31507 0.82633 0.0
C2763 C 0.99537 0.32218 0.81212 0.0
H2764 H 0.01005 0.31155 0.82556 0.0
C2765 C 0.02821 0.32064 0.80541 0.0
C2766 C 0.03344 0.32155 0.81163 0.0
C2767 C 0.02022 0.32005 0.80677 0.0
C2768 C 0.00602 0.31464 0.82183 0.0
H2769 H 0.96793 0.31268 0.8079 0.0
H2770 H 0.98177 0.31527 0.80652 0.0
H2771 H 0.99612 0.3096 0.82744 0.0
H2772 H 0.03438 0.32254 0.82417 0.0
H2773 H 0.02039 0.32154 0.82655 0.0
H2774 H 0.00529 0.32711 0.80641 0.0
C2775 C 0.97935 0.31488 0.81232 0.0
C2776 C 0.99803 0.31354 0.82291 0.0
C2777 C 0.97142 0.31328 0.81311 0.0
C2778 C 0.03049 0.3219 0.81925 0.0
C2779 C 0.02249 0.32126 0.82062 0.0
C2780 C 0.00336 0.32326 0.81102 0.0
C2781 C 0.98411 0.31576 0.81892 0.0
C2782 C 0.9926 0.31724 0.81802 0.0
C2783 C 0.01727 0.32031 0.81439 0.0
C2784 C 0.00878 0.31945 0.81581 0.0
H2785 H 0.97038 0.31284 0.83292 0.0
H2786 H 0.98419 0.3158 0.83154 0.0
H2787 H 0.99137 0.32524 0.80834 0.0
H2788 H 0.03029 0.32043 0.79946 0.0
H2789 H 0.01636 0.31925 0.80185 0.0
C2790 C 0.68807 0.47235 0.3282 0.0
C2791 C 0.68829 0.4677 0.32147 0.0
C2792 C 0.68662 0.48034 0.32767 0.0
C2793 C 0.67872 0.49549 0.31444 0.0
H2794 H 0.69094 0.50949 0.32724 0.0
C2795 C 0.67354 0.52872 0.31429 0.0
C2796 C 0.6802 0.53347 0.31424 0.0
C2797 C 0.67417 0.52072 0.31567 0.0
C2798 C 0.6875 0.50566 0.32359 0.0
H2799 H 0.68695 0.46781 0.30892 0.0
H2800 H 0.68464 0.48174 0.30798 0.0
H2801 H 0.69271 0.49548 0.32851 0.0
H2802 H 0.69272 0.53355 0.31584 0.0
H2803 H 0.69384 0.51961 0.31804 0.0
H2804 H 0.67371 0.50567 0.30933 0.0
C2805 C 0.68549 0.47921 0.31369 0.0
C2806 C 0.68845 0.49762 0.32439 0.0
C2807 C 0.68692 0.47122 0.31422 0.0
C2808 C 0.68748 0.53005 0.31574 0.0
C2809 C 0.68811 0.52206 0.3171 0.0
C2810 C 0.67779 0.50353 0.31363 0.0
C2811 C 0.68537 0.48388 0.3204 0.0
C2812 C 0.68411 0.49243 0.31978 0.0
C2813 C 0.68147 0.51728 0.31703 0.0
C2814 C 0.68221 0.50872 0.31815 0.0
H2815 H 0.68916 0.46985 0.33388 0.0
H2816 H 0.68648 0.48375 0.33297 0.0
H2817 H 0.67522 0.49167 0.31086 0.0
H2818 H 0.66785 0.53115 0.31309 0.0
H2819 H 0.66892 0.51723 0.31566 0.0
C2820 C 0.47258 0.18589 0.80708 0.0
C2821 C 0.46813 0.1808 0.81169 0.0
C2822 C 0.48059 0.18659 0.80823 0.0
C2823 C 0.49617 0.18305 0.82268 0.0
H2824 H 0.5096 0.1856 0.80473 0.0
C2825 C 0.52991 0.18363 0.82472 0.0
C2826 C 0.5337 0.18937 0.82027 0.0
C2827 C 0.52193 0.18229 0.82382 0.0
C2828 C 0.50592 0.18495 0.80981 0.0
H2829 H 0.46867 0.17246 0.82115 0.0
H2830 H 0.4827 0.17355 0.82302 0.0
H2831 H 0.49569 0.18367 0.80285 0.0
H2832 H 0.53196 0.19836 0.81157 0.0
H2833 H 0.51811 0.19595 0.80995 0.0
H2834 H 0.50645 0.18431 0.82962 0.0
C2835 C 0.47996 0.17708 0.81858 0.0
C2836 C 0.49794 0.18386 0.80873 0.0
C2837 C 0.47192 0.17639 0.81745 0.0
C2838 C 0.52929 0.19377 0.81497 0.0
C2839 C 0.52134 0.19241 0.81404 0.0
C2840 C 0.50417 0.18411 0.82375 0.0
C2841 C 0.48439 0.18219 0.81398 0.0
C2842 C 0.49294 0.18298 0.81515 0.0
C2843 C 0.51757 0.18663 0.81843 0.0
C2844 C 0.50912 0.18516 0.81733 0.0
H2845 H 0.46989 0.1893 0.80252 0.0
H2846 H 0.4838 0.19067 0.80464 0.0
H2847 H 0.49248 0.18249 0.82776 0.0
H2848 H 0.53314 0.18007 0.82879 0.0
H2849 H 0.5192 0.17776 0.82724 0.0
C2850 C 0.81418 0.02911 0.32761 0.0
C2851 C 0.81403 0.03384 0.32094 0.0
C2852 C 0.81555 0.02111 0.32699 0.0
C2853 C 0.8233 0.00601 0.3136 0.0
H2854 H 0.81076 0.99204 0.3261 0.0
C2855 C 0.82792 0.9727 0.31304 0.0
C2856 C 0.82118 0.96805 0.31291 0.0
C2857 C 0.82741 0.98069 0.31448 0.0
C2858 C 0.81428 0.99586 0.32253 0.0
H2859 H 0.81546 0.03387 0.3084 0.0
H2860 H 0.81766 0.01993 0.3073 0.0
H2861 H 0.80923 0.00605 0.32759 0.0
H2862 H 0.80865 0.96816 0.31443 0.0
H2863 H 0.80774 0.9821 0.31674 0.0
H2864 H 0.82816 0.99582 0.30835 0.0
C2865 C 0.81679 0.0224 0.31303 0.0
C2866 C 0.81348 0.0039 0.32346 0.0
C2867 C 0.81543 0.03039 0.31365 0.0
C2868 C 0.81395 0.97157 0.31438 0.0
C2869 C 0.81344 0.97956 0.31581 0.0
C2870 C 0.8241 0.99797 0.31267 0.0
C2871 C 0.81681 0.01764 0.31969 0.0
C2872 C 0.81794 0.00908 0.31896 0.0
C2873 C 0.82015 0.98424 0.31583 0.0
C2874 C 0.81955 0.99279 0.31708 0.0
H2875 H 0.81305 0.03155 0.33331 0.0
H2876 H 0.81562 0.01764 0.33225 0.0
H2877 H 0.8269 0.00983 0.31011 0.0
H2878 H 0.83358 0.9702 0.31186 0.0
H2879 H 0.83271 0.9841 0.31454 0.0
C2880 C 0.17912 0.68257 0.03017 0.0
C2881 C 0.17924 0.69014 0.03327 0.0
C2882 C 0.1798 0.68137 0.02214 0.0
C2883 C 0.18677 0.69119 0.00426 0.0
H2884 H 0.17502 0.67513 0.99364 0.0
C2885 C 0.1862 0.68897 0.97089 0.0
C2886 C 0.18718 0.68153 0.96762 0.0
C2887 C 0.18489 0.68986 0.97886 0.0
C2888 C 0.17839 0.67959 0.99654 0.0
H2889 H 0.17984 0.70239 0.03035 0.0
H2890 H 0.18092 0.70033 0.01638 0.0
H2891 H 0.17333 0.677 0.00763 0.0
H2892 H 0.18741 0.66918 0.97021 0.0
H2893 H 0.18505 0.67074 0.98414 0.0
H2894 H 0.19179 0.69382 0.99318 0.0
C2895 C 0.18051 0.6953 0.02014 0.0
C2896 C 0.17743 0.68066 0.00456 0.0
C2897 C 0.17988 0.69648 0.02815 0.0
C2898 C 0.1866 0.67499 0.97251 0.0
C2899 C 0.18526 0.67588 0.98049 0.0
C2900 C 0.1877 0.69015 0.99626 0.0
C2901 C 0.18057 0.68773 0.01703 0.0
C2902 C 0.18159 0.6865 0.00851 0.0
C2903 C 0.1845 0.68334 0.98377 0.0
C2904 C 0.1835 0.68436 0.9923 0.0
H2905 H 0.17872 0.67756 0.03397 0.0
H2906 H 0.17991 0.67546 0.01996 0.0
H2907 H 0.1902 0.69563 0.00713 0.0
H2908 H 0.18644 0.69413 0.96728 0.0
H2909 H 0.18418 0.69568 0.98118 0.0
C2910 C 0.17988 0.81855 0.47123 0.0
C2911 C 0.1801 0.81097 0.46816 0.0
C2912 C 0.18073 0.8198 0.47923 0.0
C2913 C 0.18833 0.81022 0.49699 0.0
H2914 H 0.17638 0.826 0.50781 0.0
C2915 C 0.18819 0.81246 0.53039 0.0
C2916 C 0.18896 0.81993 0.53365 0.0
C2917 C 0.18687 0.81153 0.52243 0.0
C2918 C 0.17981 0.82162 0.50485 0.0
H2919 H 0.18106 0.79875 0.47111 0.0
H2920 H 0.18244 0.80089 0.48504 0.0
H2921 H 0.17446 0.82406 0.49386 0.0
H2922 H 0.18882 0.83228 0.53106 0.0
H2923 H 0.18642 0.83065 0.51715 0.0
H2924 H 0.19364 0.80775 0.50798 0.0
C2925 C 0.18182 0.8059 0.48127 0.0
C2926 C 0.17872 0.82051 0.49686 0.0
C2927 C 0.18101 0.80467 0.47328 0.0
C2928 C 0.18818 0.82645 0.52876 0.0
C2929 C 0.18682 0.82552 0.52079 0.0
C2930 C 0.18939 0.81131 0.50497 0.0
C2931 C 0.18177 0.81349 0.48435 0.0
C2932 C 0.18295 0.81477 0.49284 0.0
C2933 C 0.18623 0.81804 0.51752 0.0
C2934 C 0.18512 0.81699 0.50901 0.0
H2935 H 0.17926 0.82353 0.46742 0.0
H2936 H 0.18075 0.82572 0.48139 0.0
H2937 H 0.19182 0.80586 0.49406 0.0
H2938 H 0.18859 0.80731 0.534 0.0
H2939 H 0.1863 0.8057 0.52011 0.0
C2940 C 0.32244 0.68141 0.47121 0.0
C2941 C 0.32241 0.68899 0.46813 0.0
C2942 C 0.32175 0.68021 0.47924 0.0
C2943 C 0.31483 0.6901 0.49709 0.0
H2944 H 0.32638 0.67393 0.50779 0.0
C2945 C 0.31533 0.68804 0.53046 0.0
C2946 C 0.31425 0.68063 0.53377 0.0
C2947 C 0.31667 0.68887 0.52249 0.0
C2948 C 0.32307 0.67843 0.50486 0.0
H2949 H 0.32198 0.70124 0.47108 0.0
H2950 H 0.32087 0.69917 0.48504 0.0
H2951 H 0.32812 0.67574 0.49379 0.0
H2952 H 0.31389 0.66827 0.53126 0.0
H2953 H 0.31629 0.66972 0.51733 0.0
H2954 H 0.30981 0.69282 0.50815 0.0
C2955 C 0.32122 0.69413 0.48126 0.0
C2956 C 0.32405 0.67946 0.49684 0.0
C2957 C 0.32187 0.69533 0.47326 0.0
C2958 C 0.31477 0.67405 0.52893 0.0
C2959 C 0.31614 0.67488 0.52094 0.0
C2960 C 0.31387 0.68909 0.5051 0.0
C2961 C 0.32105 0.68656 0.48436 0.0
C2962 C 0.31997 0.68534 0.49287 0.0
C2963 C 0.31699 0.68231 0.51762 0.0
C2964 C 0.318 0.68327 0.50908 0.0
H2965 H 0.32278 0.6764 0.4674 0.0
H2966 H 0.32156 0.67429 0.48141 0.0
H2967 H 0.31146 0.69457 0.4942 0.0
H2968 H 0.31515 0.69322 0.53404 0.0
H2969 H 0.31745 0.69466 0.52014 0.0
C2970 C 0.31432 0.8143 0.9711 0.0
C2971 C 0.31292 0.82156 0.9676 0.0
C2972 C 0.31574 0.81375 0.97909 0.0
C2973 C 0.31268 0.82436 0.99754 0.0
H2974 H 0.32751 0.80937 0.00556 0.0
C2975 C 0.31367 0.81564 0.02995 0.0
C2976 C 0.32096 0.81419 0.03337 0.0
C2977 C 0.31304 0.817 0.02196 0.0
C2978 C 0.32341 0.81365 0.00343 0.0
H2979 H 0.31196 0.83395 0.9698 0.0
H2980 H 0.31462 0.83301 0.9837 0.0
H2981 H 0.32601 0.81094 0.99156 0.0
H2982 H 0.33332 0.81313 0.03106 0.0
H2983 H 0.33225 0.81571 0.01714 0.0
H2984 H 0.31016 0.82715 0.00941 0.0
C2985 C 0.31452 0.82772 0.98027 0.0
C2986 C 0.32248 0.81448 0.99539 0.0
C2987 C 0.31308 0.82827 0.97228 0.0
C2988 C 0.32763 0.81429 0.02863 0.0
C2989 C 0.327 0.81567 0.02063 0.0
C2990 C 0.31362 0.82354 0.00558 0.0
C2991 C 0.31581 0.82044 0.98379 0.0
C2992 C 0.31706 0.8198 0.99234 0.0
C2993 C 0.31969 0.81699 0.01718 0.0
C2994 C 0.31895 0.81813 0.00863 0.0
H2995 H 0.31434 0.80902 0.96766 0.0
H2996 H 0.31663 0.80804 0.9816 0.0
H2997 H 0.3084 0.82846 0.99541 0.0
H2998 H 0.30843 0.8157 0.03344 0.0
H2999 H 0.30731 0.81791 0.0195 0.0
C3000 C 0.97142 0.82523 0.31805 0.0
C3001 C 0.96759 0.82059 0.31249 0.0
C3002 C 0.9794 0.82433 0.3194 0.0
C3003 C 0.99533 0.81013 0.31723 0.0
H3004 H 0.00887 0.8281 0.31888 0.0
C3005 C 0.02864 0.80723 0.31605 0.0
C3006 C 0.03318 0.81203 0.32088 0.0
C3007 C 0.02063 0.80836 0.31542 0.0
C3008 C 0.00516 0.82302 0.31855 0.0
H3009 H 0.96925 0.81154 0.30383 0.0
H3010 H 0.9831 0.80992 0.30627 0.0
H3011 H 0.9949 0.82996 0.31708 0.0
H3012 H 0.03278 0.82181 0.32885 0.0
H3013 H 0.01873 0.82367 0.32789 0.0
H3014 H 0.00553 0.80318 0.31871 0.0
C3015 C 0.97991 0.81417 0.30967 0.0
C3016 C 0.99716 0.82409 0.31751 0.0
C3017 C 0.97196 0.81509 0.30828 0.0
C3018 C 0.02946 0.81796 0.32512 0.0
C3019 C 0.02142 0.81909 0.3245 0.0
C3020 C 0.00331 0.80906 0.31831 0.0
C3021 C 0.98372 0.81875 0.31526 0.0
C3022 C 0.99217 0.81766 0.31674 0.0
C3023 C 0.0169 0.8143 0.31963 0.0
C3024 C 0.00835 0.81548 0.31889 0.0
H3025 H 0.96823 0.82945 0.32146 0.0
H3026 H 0.98217 0.8279 0.3238 0.0
H3027 H 0.99162 0.80506 0.3168 0.0
H3028 H 0.03128 0.80253 0.31278 0.0
H3029 H 0.01736 0.80463 0.31153 0.0
C3030 C 0.1876 0.53058 0.81269 0.0
C3031 C 0.18846 0.53395 0.82009 0.0
C3032 C 0.18609 0.52263 0.8119 0.0
C3033 C 0.18782 0.50395 0.82244 0.0
H3034 H 0.17408 0.49654 0.80615 0.0
C3035 C 0.17959 0.47143 0.81903 0.0
C3036 C 0.17987 0.46844 0.81142 0.0
C3037 C 0.18021 0.47944 0.82035 0.0
C3038 C 0.17797 0.49851 0.8107 0.0
H3039 H 0.18837 0.53157 0.83249 0.0
H3040 H 0.18555 0.51773 0.83111 0.0
H3041 H 0.17585 0.51048 0.80803 0.0
H3042 H 0.18083 0.47153 0.79922 0.0
H3043 H 0.18196 0.48548 0.80153 0.0
H3044 H 0.18993 0.49195 0.8251 0.0
C3045 C 0.18615 0.52123 0.8259 0.0
C3046 C 0.179 0.50651 0.81177 0.0
C3047 C 0.18767 0.52918 0.8267 0.0
C3048 C 0.18067 0.47365 0.80516 0.0
C3049 C 0.18124 0.48165 0.80648 0.0
C3050 C 0.18676 0.49595 0.82139 0.0
C3051 C 0.18538 0.51784 0.81849 0.0
C3052 C 0.184 0.50933 0.8176 0.0
C3053 C 0.18106 0.48464 0.81409 0.0
C3054 C 0.18189 0.49314 0.81546 0.0
H3055 H 0.18806 0.53409 0.80748 0.0
H3056 H 0.18563 0.52022 0.80609 0.0
H3057 H 0.19179 0.5059 0.82692 0.0
H3058 H 0.17903 0.46756 0.82397 0.0
H3059 H 0.17999 0.48157 0.82627 0.0
C3060 C 0.5297 0.6755 0.31699 0.0
C3061 C 0.53349 0.68025 0.31151 0.0
C3062 C 0.52166 0.67611 0.31815 0.0
C3063 C 0.50367 0.68341 0.30868 0.0
H3064 H 0.49508 0.68201 0.32949 0.0
C3065 C 0.47055 0.68315 0.31392 0.0
C3066 C 0.46772 0.6875 0.32024 0.0
C3067 C 0.47853 0.68183 0.31305 0.0
C3068 C 0.49738 0.68247 0.32365 0.0
H3069 H 0.53174 0.68929 0.30287 0.0
H3070 H 0.51782 0.69052 0.30505 0.0
H3071 H 0.50908 0.68078 0.32759 0.0
H3072 H 0.47103 0.69383 0.33062 0.0
H3073 H 0.48497 0.69163 0.32906 0.0
H3074 H 0.49203 0.68536 0.30476 0.0
C3075 C 0.52103 0.68624 0.30839 0.0
C3076 C 0.50541 0.68166 0.32254 0.0
C3077 C 0.52904 0.68561 0.30722 0.0
C3078 C 0.47303 0.69039 0.32574 0.0
C3079 C 0.48102 0.68911 0.32484 0.0
C3080 C 0.49566 0.68424 0.30979 0.0
C3081 C 0.51722 0.68149 0.31386 0.0
C3082 C 0.50866 0.68216 0.31505 0.0
C3083 C 0.48388 0.68487 0.31845 0.0
C3084 C 0.49241 0.6838 0.31729 0.0
H3085 H 0.53295 0.67136 0.32046 0.0
H3086 H 0.51892 0.6723 0.32235 0.0
H3087 H 0.50594 0.68371 0.30282 0.0
H3088 H 0.46659 0.68075 0.30965 0.0
H3089 H 0.4805 0.67841 0.30814 0.0
C3090 C 0.31911 0.97183 0.82441 0.0
C3091 C 0.31345 0.96797 0.81992 0.0
C3092 C 0.3203 0.97984 0.82357 0.0
C3093 C 0.3173 0.99593 0.8097 0.0
H3094 H 0.31951 0.00923 0.82779 0.0
C3095 C 0.31575 0.02928 0.8073 0.0
C3096 C 0.32079 0.03376 0.81192 0.0
C3097 C 0.31516 0.02125 0.80838 0.0
C3098 C 0.31901 0.00559 0.82267 0.0
H3099 H 0.30445 0.9696 0.81122 0.0
H3100 H 0.30659 0.9835 0.8097 0.0
H3101 H 0.31798 0.99521 0.82951 0.0
H3102 H 0.32915 0.03328 0.82136 0.0
H3103 H 0.32827 0.01921 0.82313 0.0
H3104 H 0.31835 0.00626 0.80285 0.0
C3105 C 0.31019 0.98031 0.81378 0.0
C3106 C 0.31813 0.99756 0.82366 0.0
C3107 C 0.30898 0.97233 0.81464 0.0
C3108 C 0.32526 0.02999 0.81765 0.0
C3109 C 0.32469 0.02194 0.81872 0.0
C3110 C 0.31822 0.00395 0.80871 0.0
C3111 C 0.31589 0.98416 0.81821 0.0
C3112 C 0.31718 0.99265 0.81719 0.0
C3113 C 0.31964 0.01747 0.81409 0.0
C3114 C 0.319 0.00889 0.81518 0.0
H3115 H 0.32272 0.96864 0.82847 0.0
H3116 H 0.32478 0.98263 0.82701 0.0
H3117 H 0.31673 0.99229 0.80459 0.0
H3118 H 0.31229 0.03196 0.80276 0.0
H3119 H 0.31113 0.01801 0.80477 0.0
C3120 C 0.97217 0.68688 0.19224 0.0
C3121 C 0.96773 0.68165 0.18776 0.0
C3122 C 0.98015 0.68768 0.19098 0.0
C3123 C 0.99728 0.67767 0.18306 0.0
H3124 H 0.0061 0.69843 0.18254 0.0
C3125 C 0.02982 0.6833 0.1761 0.0
C3126 C 0.03358 0.6891 0.18048 0.0
C3127 C 0.02175 0.68231 0.1766 0.0
C3128 C 0.00375 0.69259 0.18276 0.0
H3129 H 0.96829 0.67316 0.17843 0.0
H3130 H 0.98229 0.67449 0.17633 0.0
H3131 H 0.99212 0.6968 0.18421 0.0
H3132 H 0.03175 0.6985 0.18871 0.0
H3133 H 0.01779 0.69662 0.18977 0.0
H3134 H 0.00893 0.67346 0.18177 0.0
C3135 C 0.97955 0.67794 0.18083 0.0
C3136 C 0.99574 0.69166 0.18369 0.0
C3137 C 0.97153 0.67717 0.18205 0.0
C3138 C 0.02907 0.6939 0.18534 0.0
C3139 C 0.02103 0.69289 0.18586 0.0
C3140 C 0.00532 0.6786 0.18217 0.0
C3141 C 0.98393 0.68325 0.18525 0.0
C3142 C 0.99241 0.68419 0.18392 0.0
C3143 C 0.01725 0.6871 0.18149 0.0
C3144 C 0.00867 0.68608 0.18209 0.0
H3145 H 0.96949 0.69029 0.1968 0.0
H3146 H 0.98339 0.69171 0.19457 0.0
H3147 H 0.99489 0.67185 0.18328 0.0
H3148 H 0.03311 0.67945 0.17235 0.0
H3149 H 0.01902 0.67784 0.1731 0.0
C3150 C 0.30974 0.52947 0.68619 0.0
C3151 C 0.31406 0.5339 0.68084 0.0
C3152 C 0.31102 0.52149 0.68695 0.0
C3153 C 0.3187 0.50437 0.67669 0.0
H3154 H 0.31948 0.49545 0.69739 0.0
C3155 C 0.32561 0.47177 0.68211 0.0
C3156 C 0.32123 0.468 0.68791 0.0
C3157 C 0.32516 0.47985 0.68117 0.0
C3158 C 0.3192 0.49782 0.69156 0.0
H3159 H 0.32312 0.53335 0.67206 0.0
H3160 H 0.32528 0.51935 0.67334 0.0
H3161 H 0.31786 0.50944 0.69585 0.0
H3162 H 0.31303 0.46984 0.69734 0.0
H3163 H 0.31207 0.48382 0.69555 0.0
H3164 H 0.3199 0.49273 0.6724 0.0
C3165 C 0.32088 0.52209 0.67692 0.0
C3166 C 0.31828 0.50585 0.69068 0.0
C3167 C 0.31963 0.53011 0.67619 0.0
C3168 C 0.31641 0.47252 0.69274 0.0
C3169 C 0.31594 0.48057 0.69179 0.0
C3170 C 0.31958 0.49632 0.67757 0.0
C3171 C 0.31661 0.51771 0.68235 0.0
C3172 C 0.31795 0.50921 0.68324 0.0
C3173 C 0.32032 0.48435 0.686 0.0
C3174 C 0.31976 0.49294 0.68502 0.0
H3175 H 0.30528 0.53215 0.68974 0.0
H3176 H 0.30753 0.51824 0.69108 0.0
H3177 H 0.31839 0.50678 0.67087 0.0
H3178 H 0.32933 0.46847 0.67825 0.0
H3179 H 0.32866 0.48258 0.6767 0.0
C3180 C 0.52987 0.81267 0.18788 0.0
C3181 C 0.53327 0.8201 0.18817 0.0
C3182 C 0.52194 0.81179 0.1863 0.0
C3183 C 0.50329 0.82249 0.18679 0.0
H3184 H 0.49608 0.8052 0.17422 0.0
C3185 C 0.47088 0.81843 0.17838 0.0
C3186 C 0.4679 0.81085 0.17915 0.0
C3187 C 0.47888 0.81981 0.17902 0.0
C3188 C 0.498 0.81003 0.17779 0.0
H3189 H 0.53098 0.83245 0.18698 0.0
H3190 H 0.51717 0.83091 0.18404 0.0
H3191 H 0.51 0.80718 0.1761 0.0
H3192 H 0.471 0.79876 0.18101 0.0
H3193 H 0.48492 0.80118 0.18219 0.0
H3194 H 0.49127 0.82531 0.18849 0.0
C3195 C 0.52063 0.82576 0.18514 0.0
C3196 C 0.50598 0.81116 0.17887 0.0
C3197 C 0.52856 0.82664 0.18674 0.0
C3198 C 0.4731 0.80468 0.18047 0.0
C3199 C 0.48109 0.80605 0.18106 0.0
C3200 C 0.4953 0.82137 0.18568 0.0
C3201 C 0.51721 0.81833 0.18494 0.0
C3202 C 0.50873 0.81736 0.18346 0.0
C3203 C 0.48408 0.81364 0.18038 0.0
C3204 C 0.49257 0.81508 0.18123 0.0
H3205 H 0.53333 0.8075 0.18886 0.0
H3206 H 0.5195 0.80598 0.18628 0.0
H3207 H 0.50519 0.82726 0.19044 0.0
H3208 H 0.46702 0.82331 0.17742 0.0
H3209 H 0.48101 0.82571 0.17841 0.0
C3210 C 0.18778 0.03048 0.68549 0.0
C3211 C 0.1805 0.03391 0.68696 0.0
C3212 C 0.18841 0.02249 0.68415 0.0
C3213 C 0.17808 0.00397 0.68766 0.0
H3214 H 0.19299 0.99587 0.67279 0.0
C3215 C 0.18716 0.97165 0.68713 0.0
C3216 C 0.18849 0.9681 0.67988 0.0
C3217 C 0.18576 0.97964 0.68765 0.0
C3218 C 0.18873 0.99803 0.67691 0.0
H3219 H 0.16815 0.03159 0.68808 0.0
H3220 H 0.16922 0.01767 0.68556 0.0
H3221 H 0.19123 0.00988 0.67404 0.0
H3222 H 0.18934 0.97022 0.66747 0.0
H3223 H 0.18671 0.98413 0.66835 0.0
H3224 H 0.1755 0.99211 0.69045 0.0
C3225 C 0.17446 0.02116 0.68555 0.0
C3226 C 0.1878 0.00607 0.67769 0.0
C3227 C 0.17384 0.02916 0.6869 0.0
C3228 C 0.18827 0.97274 0.67314 0.0
C3229 C 0.18686 0.98074 0.67366 0.0
C3230 C 0.17901 0.99593 0.68687 0.0
C3231 C 0.18177 0.01771 0.68422 0.0
C3232 C 0.1825 0.00915 0.68312 0.0
C3233 C 0.18563 0.9843 0.68093 0.0
C3234 C 0.18439 0.99285 0.68153 0.0
H3235 H 0.19302 0.03398 0.68539 0.0
H3236 H 0.19414 0.02003 0.68323 0.0
H3237 H 0.17401 0.00613 0.69195 0.0
H3238 H 0.18719 0.96824 0.69244 0.0
H3239 H 0.18493 0.98219 0.69335 0.0
C3240 C 0.81018 0.3259 0.02831 0.0
C3241 C 0.81348 0.3206 0.0336 0.0
C3242 C 0.8114 0.32505 0.02031 0.0
C3243 C 0.81699 0.31028 0.00564 0.0
H3244 H 0.81928 0.32823 0.99216 0.0
C3245 C 0.81546 0.30761 0.97226 0.0
C3246 C 0.82054 0.31219 0.96776 0.0
C3247 C 0.81484 0.30874 0.98028 0.0
C3248 C 0.81873 0.32315 0.99585 0.0
H3249 H 0.82088 0.31045 0.03466 0.0
H3250 H 0.8231 0.30902 0.02073 0.0
H3251 H 0.81807 0.33009 0.00617 0.0
H3252 H 0.82892 0.32162 0.96824 0.0
H3253 H 0.82799 0.32346 0.98228 0.0
H3254 H 0.81782 0.30334 0.99535 0.0
C3255 C 0.81941 0.31372 0.02273 0.0
C3256 C 0.81793 0.32422 0.00388 0.0
C3257 C 0.81816 0.31455 0.03072 0.0
C3258 C 0.825 0.31793 0.97152 0.0
C3259 C 0.8244 0.31905 0.97956 0.0
C3260 C 0.81781 0.30921 0.99762 0.0
C3261 C 0.81598 0.31891 0.01741 0.0
C3262 C 0.81702 0.3178 0.00887 0.0
C3263 C 0.81931 0.31447 0.98405 0.0
C3264 C 0.81864 0.31563 0.99261 0.0
H3265 H 0.80647 0.33057 0.03034 0.0
H3266 H 0.80858 0.32909 0.01638 0.0
H3267 H 0.8162 0.30521 0.00928 0.0
H3268 H 0.812 0.30306 0.96959 0.0
H3269 H 0.81079 0.30517 0.98352 0.0
C3270 C 0.81978 0.18579 0.47011 0.0
C3271 C 0.81503 0.1798 0.46722 0.0
C3272 C 0.82108 0.18656 0.47811 0.0
C3273 C 0.81948 0.17601 0.49694 0.0
H3274 H 0.81941 0.19687 0.50552 0.0
C3275 C 0.82611 0.18216 0.52942 0.0
C3276 C 0.8216 0.1879 0.53312 0.0
C3277 C 0.82565 0.18107 0.52137 0.0
C3278 C 0.81939 0.191 0.50324 0.0
H3279 H 0.80795 0.16987 0.47046 0.0
H3280 H 0.81013 0.17125 0.48441 0.0
H3281 H 0.81792 0.19505 0.49157 0.0
H3282 H 0.81314 0.19708 0.53117 0.0
H3283 H 0.81216 0.19502 0.51722 0.0
H3284 H 0.82068 0.17196 0.50865 0.0
C3285 C 0.81298 0.17528 0.4805 0.0
C3286 C 0.81864 0.18996 0.49521 0.0
C3287 C 0.81172 0.1745 0.4725 0.0
C3288 C 0.81662 0.19253 0.52855 0.0
C3289 C 0.81614 0.19142 0.52052 0.0
C3290 C 0.8202 0.17705 0.50498 0.0
C3291 C 0.81762 0.18137 0.48341 0.0
C3292 C 0.81865 0.18245 0.49195 0.0
C3293 C 0.82066 0.18569 0.51681 0.0
C3294 C 0.82012 0.18456 0.50823 0.0
H3295 H 0.82251 0.1899 0.46619 0.0
H3296 H 0.8248 0.19122 0.48012 0.0
H3297 H 0.81959 0.17015 0.49463 0.0
H3298 H 0.82996 0.17845 0.53277 0.0
H3299 H 0.82927 0.17666 0.5187 0.0
C3300 C 0.68116 0.30536 0.52816 0.0
C3301 C 0.68032 0.31162 0.53336 0.0
C3302 C 0.6817 0.30668 0.52016 0.0
C3303 C 0.68709 0.32161 0.50583 0.0
H3304 H 0.67619 0.30818 0.49135 0.0
C3305 C 0.68795 0.32683 0.47258 0.0
C3306 C 0.68875 0.32021 0.46783 0.0
C3307 C 0.68643 0.32606 0.48054 0.0
C3308 C 0.67933 0.31194 0.49531 0.0
H3309 H 0.6794 0.32417 0.53424 0.0
H3310 H 0.68031 0.32647 0.52023 0.0
H3311 H 0.67446 0.30632 0.5053 0.0
H3312 H 0.68838 0.3076 0.46773 0.0
H3313 H 0.68596 0.30625 0.4816 0.0
H3314 H 0.69208 0.32714 0.49586 0.0
C3315 C 0.68058 0.32055 0.52236 0.0
C3316 C 0.67833 0.31088 0.50331 0.0
C3317 C 0.67998 0.31923 0.53037 0.0
C3318 C 0.6879 0.31282 0.47123 0.0
C3319 C 0.6864 0.31205 0.47918 0.0
C3320 C 0.68812 0.32265 0.49783 0.0
C3321 C 0.68145 0.31429 0.51717 0.0
C3322 C 0.68224 0.31566 0.50866 0.0
C3323 C 0.68568 0.31865 0.48395 0.0
C3324 C 0.68431 0.31779 0.49246 0.0
H3325 H 0.68136 0.29943 0.53027 0.0
H3326 H 0.68245 0.30174 0.51632 0.0
H3327 H 0.69026 0.32533 0.50981 0.0
H3328 H 0.68863 0.33261 0.47018 0.0
H3329 H 0.68582 0.33127 0.48403 0.0
C3330 C 0.68208 0.17643 0.02965 0.0
C3331 C 0.68775 0.18097 0.03343 0.0
C3332 C 0.68086 0.17715 0.02163 0.0
C3333 C 0.68379 0.1908 0.00534 0.0
H3334 H 0.68168 0.17252 0.99228 0.0
C3335 C 0.68554 0.19276 0.97201 0.0
C3336 C 0.68053 0.18808 0.96754 0.0
C3337 C 0.68607 0.19177 0.98005 0.0
C3338 C 0.68214 0.17769 0.99586 0.0
H3339 H 0.69673 0.18967 0.03165 0.0
H3340 H 0.69453 0.19099 0.01773 0.0
H3341 H 0.68318 0.171 0.00633 0.0
H3342 H 0.67217 0.17864 0.96807 0.0
H3343 H 0.67295 0.17704 0.98217 0.0
H3344 H 0.68273 0.19751 0.99493 0.0
C3345 C 0.69095 0.18695 0.02099 0.0
C3346 C 0.68302 0.17681 0.00391 0.0
C3347 C 0.6922 0.1862 0.02898 0.0
C3348 C 0.67604 0.18239 0.97134 0.0
C3349 C 0.67655 0.18141 0.97941 0.0
C3350 C 0.68288 0.19168 0.99732 0.0
C3351 C 0.68526 0.18246 0.01722 0.0
C3352 C 0.68394 0.18336 0.00872 0.0
C3353 C 0.68156 0.18611 0.98387 0.0
C3354 C 0.68214 0.18514 0.99246 0.0
H3355 H 0.6785 0.1724 0.03291 0.0
H3356 H 0.67639 0.17366 0.0189 0.0
H3357 H 0.68434 0.19596 0.00892 0.0
H3358 H 0.68901 0.19727 0.9693 0.0
H3359 H 0.69007 0.19542 0.98327 0.0
C3360 C 0.11896 0.15973 0.69625 0.0
C3361 C 0.11137 0.15838 0.699 0.0
C3362 C 0.12427 0.15361 0.69555 0.0
C3363 C 0.12833 0.1341 0.70344 0.0
H3364 H 0.14324 0.13306 0.68654 0.0
C3365 C 0.15066 0.10912 0.70117 0.0
C3366 C 0.15834 0.1113 0.69939 0.0
C3367 C 0.14456 0.11445 0.70039 0.0
C3368 C 0.13914 0.1333 0.69132 0.0
H3369 H 0.10339 0.14948 0.70305 0.0
H3370 H 0.11262 0.13878 0.70169 0.0
H3371 H 0.1332 0.14311 0.68645 0.0
H3372 H 0.16558 0.1207 0.69509 0.0
H3373 H 0.15497 0.13003 0.69386 0.0
H3374 H 0.13432 0.12438 0.70837 0.0
C3375 C 0.11449 0.1446 0.70016 0.0
C3376 C 0.13339 0.13906 0.69127 0.0
C3377 C 0.10917 0.15072 0.70085 0.0
C3378 C 0.15974 0.11887 0.69661 0.0
C3379 C 0.15364 0.12419 0.69582 0.0
C3380 C 0.13407 0.12834 0.70348 0.0
C3381 C 0.12213 0.14599 0.69759 0.0
C3382 C 0.12796 0.13958 0.69737 0.0
C3383 C 0.14599 0.12208 0.6978 0.0
C3384 C 0.1396 0.12792 0.69747 0.0
H3385 H 0.12082 0.16555 0.69469 0.0
H3386 H 0.13013 0.15491 0.69362 0.0
H3387 H 0.12432 0.1344 0.70829 0.0
H3388 H 0.14938 0.10336 0.70338 0.0
H3389 H 0.13872 0.11261 0.70188 0.0
C3390 C 0.88113 0.66064 0.20282 0.0
C3391 C 0.88832 0.65997 0.19896 0.0
C3392 C 0.87545 0.6549 0.20201 0.0
C3393 C 0.87276 0.63424 0.19711 0.0
H3394 H 0.85106 0.64025 0.19554 0.0
C3395 C 0.84768 0.61173 0.19434 0.0
C3396 C 0.84109 0.61316 0.19898 0.0
C3397 C 0.85352 0.61736 0.19357 0.0
C3398 C 0.85709 0.63847 0.19603 0.0
H3399 H 0.89511 0.65274 0.19116 0.0
H3400 H 0.88516 0.64266 0.18979 0.0
H3401 H 0.86112 0.65023 0.19551 0.0
H3402 H 0.8356 0.6216 0.2066 0.0
H3403 H 0.8457 0.63139 0.20523 0.0
H3404 H 0.86869 0.62247 0.19775 0.0
C3405 C 0.88397 0.64762 0.19349 0.0
C3406 C 0.86285 0.6442 0.19601 0.0
C3407 C 0.88967 0.6534 0.19428 0.0
C3408 C 0.84049 0.62035 0.20284 0.0
C3409 C 0.8463 0.62598 0.20206 0.0
C3410 C 0.86698 0.6285 0.19713 0.0
C3411 C 0.87679 0.64832 0.19734 0.0
C3412 C 0.87074 0.64217 0.19669 0.0
C3413 C 0.85288 0.62456 0.19741 0.0
C3414 C 0.85907 0.63057 0.19673 0.0
H3415 H 0.87994 0.66552 0.20661 0.0
H3416 H 0.87004 0.65554 0.20519 0.0
H3417 H 0.87878 0.63249 0.19772 0.0
H3418 H 0.84829 0.60628 0.19123 0.0
H3419 H 0.85848 0.61612 0.1899 0.0
C3420 C 0.3474 0.38988 0.69433 0.0
C3421 C 0.34089 0.38857 0.69912 0.0
C3422 C 0.35322 0.38422 0.69361 0.0
C3423 C 0.35681 0.36317 0.69648 0.0
H3424 H 0.37853 0.36915 0.69767 0.0
C3425 C 0.38094 0.34104 0.70312 0.0
C3426 C 0.38808 0.34167 0.69917 0.0
C3427 C 0.37524 0.34678 0.70234 0.0
C3428 C 0.3725 0.36739 0.69721 0.0
H3429 H 0.33552 0.38034 0.70705 0.0
H3430 H 0.34559 0.3705 0.70574 0.0
H3431 H 0.36846 0.37918 0.69769 0.0
H3432 H 0.39477 0.34883 0.69123 0.0
H3433 H 0.3848 0.35889 0.68988 0.0
H3434 H 0.36081 0.3514 0.69609 0.0
C3435 C 0.34614 0.37583 0.70243 0.0
C3436 C 0.36673 0.37314 0.69722 0.0
C3437 C 0.34036 0.38148 0.70317 0.0
C3438 C 0.38937 0.3482 0.69441 0.0
C3439 C 0.38366 0.35396 0.69364 0.0
C3440 C 0.36256 0.35744 0.69646 0.0
C3441 C 0.35264 0.37712 0.69764 0.0
C3442 C 0.35881 0.37109 0.697 0.0
C3443 C 0.37653 0.35331 0.69759 0.0
C3444 C 0.37047 0.35947 0.69696 0.0
H3445 H 0.34796 0.39524 0.69107 0.0
H3446 H 0.35812 0.38535 0.68982 0.0
H3447 H 0.35077 0.3614 0.69613 0.0
H3448 H 0.3798 0.33619 0.70698 0.0
H3449 H 0.36988 0.34617 0.7056 0.0
C3450 C 0.61144 0.84825 0.19446 0.0
C3451 C 0.61279 0.84169 0.19917 0.0
C3452 C 0.61716 0.85399 0.1936 0.0
C3453 C 0.63832 0.85737 0.19602 0.0
H3454 H 0.63254 0.87912 0.1975 0.0
C3455 C 0.66073 0.88131 0.2025 0.0
C3456 C 0.6601 0.88846 0.19857 0.0
C3457 C 0.65494 0.87566 0.20177 0.0
C3458 C 0.63424 0.87308 0.19696 0.0
H3459 H 0.6212 0.83615 0.20679 0.0
H3460 H 0.63113 0.84608 0.20526 0.0
H3461 H 0.62243 0.86913 0.19762 0.0
H3462 H 0.65289 0.89522 0.19073 0.0
H3463 H 0.64272 0.88534 0.18951 0.0
H3464 H 0.65012 0.86129 0.19548 0.0
C3465 C 0.62571 0.84673 0.20211 0.0
C3466 C 0.62845 0.86735 0.19702 0.0
C3467 C 0.62001 0.84102 0.20298 0.0
C3468 C 0.65352 0.88981 0.1939 0.0
C3469 C 0.6477 0.88415 0.1932 0.0
C3470 C 0.6441 0.86308 0.19595 0.0
C3471 C 0.62436 0.85329 0.19742 0.0
C3472 C 0.63043 0.85942 0.19669 0.0
C3473 C 0.64835 0.877 0.19713 0.0
C3474 C 0.64214 0.871 0.19656 0.0
H3475 H 0.60598 0.84891 0.19138 0.0
H3476 H 0.61597 0.85894 0.18988 0.0
H3477 H 0.64004 0.85132 0.19559 0.0
H3478 H 0.66563 0.88012 0.20628 0.0
H3479 H 0.65555 0.87028 0.20501 0.0
C3480 C 0.15325 0.39021 0.80625 0.0
C3481 C 0.16006 0.38866 0.80199 0.0
C3482 C 0.14741 0.38457 0.80694 0.0
C3483 C 0.14405 0.36337 0.80507 0.0
H3484 H 0.12243 0.36915 0.80224 0.0
C3485 C 0.12041 0.34073 0.79836 0.0
C3486 C 0.11309 0.34151 0.80193 0.0
C3487 C 0.12601 0.34657 0.79907 0.0
C3488 C 0.12843 0.36746 0.80315 0.0
H3489 H 0.16596 0.37999 0.79494 0.0
H3490 H 0.15584 0.3702 0.79617 0.0
H3491 H 0.13246 0.37922 0.80225 0.0
H3492 H 0.10596 0.34907 0.8091 0.0
H3493 H 0.11577 0.35931 0.8103 0.0
H3494 H 0.14006 0.35161 0.80587 0.0
C3495 C 0.15507 0.37571 0.79912 0.0
C3496 C 0.13418 0.37323 0.80316 0.0
C3497 C 0.16088 0.38134 0.79842 0.0
C3498 C 0.11151 0.34831 0.80621 0.0
C3499 C 0.11713 0.35418 0.80691 0.0
C3500 C 0.13832 0.35761 0.80506 0.0
C3501 C 0.14826 0.37725 0.80339 0.0
C3502 C 0.14207 0.37123 0.80399 0.0
C3503 C 0.12445 0.35336 0.80336 0.0
C3504 C 0.13045 0.35957 0.80397 0.0
H3505 H 0.15247 0.39576 0.80914 0.0
H3506 H 0.14227 0.38591 0.81033 0.0
H3507 H 0.15006 0.36165 0.80588 0.0
H3508 H 0.12178 0.33567 0.79488 0.0
H3509 H 0.13153 0.34582 0.79613 0.0
C3510 C 0.65937 0.6183 0.30407 0.0
C3511 C 0.65803 0.61076 0.30119 0.0
C3512 C 0.65325 0.62361 0.30476 0.0
C3513 C 0.63388 0.62787 0.29666 0.0
H3514 H 0.63262 0.64245 0.31383 0.0
C3515 C 0.60902 0.65037 0.29891 0.0
C3516 C 0.61123 0.65798 0.30091 0.0
C3517 C 0.61428 0.6442 0.29965 0.0
C3518 C 0.63292 0.63845 0.30897 0.0
H3519 H 0.64918 0.60286 0.2969 0.0
H3520 H 0.63848 0.6121 0.29822 0.0
H3521 H 0.64262 0.63237 0.31389 0.0
H3522 H 0.62061 0.66503 0.30556 0.0
H3523 H 0.62982 0.65433 0.30671 0.0
H3524 H 0.62428 0.63402 0.29167 0.0
C3525 C 0.64428 0.61393 0.29987 0.0
C3526 C 0.63865 0.63267 0.30901 0.0
C3527 C 0.6504 0.6086 0.29919 0.0
C3528 C 0.61875 0.65925 0.30387 0.0
C3529 C 0.62401 0.65309 0.30461 0.0
C3530 C 0.62815 0.63365 0.29662 0.0
C3531 C 0.64565 0.62153 0.30257 0.0
C3532 C 0.63925 0.62736 0.30281 0.0
C3533 C 0.62187 0.6455 0.30242 0.0
C3534 C 0.62765 0.63906 0.30273 0.0
H3535 H 0.66516 0.62012 0.30575 0.0
H3536 H 0.65453 0.62944 0.30681 0.0
H3537 H 0.63425 0.62396 0.29173 0.0
H3538 H 0.60329 0.64919 0.29656 0.0
H3539 H 0.61242 0.63841 0.29799 0.0
C3540 C 0.38319 0.15923 0.80408 0.0
C3541 C 0.39064 0.15802 0.80092 0.0
C3542 C 0.37796 0.15305 0.80483 0.0
C3543 C 0.37357 0.13383 0.79649 0.0
H3544 H 0.35955 0.13217 0.81409 0.0
C3545 C 0.35109 0.10897 0.79887 0.0
C3546 C 0.34354 0.11117 0.80112 0.0
C3547 C 0.3573 0.11418 0.79956 0.0
C3548 C 0.3634 0.13258 0.80911 0.0
H3549 H 0.39847 0.14933 0.79619 0.0
H3550 H 0.38937 0.13852 0.7976 0.0
H3551 H 0.36962 0.14218 0.81404 0.0
H3552 H 0.33667 0.12048 0.80615 0.0
H3553 H 0.34746 0.12961 0.80722 0.0
H3554 H 0.36727 0.12433 0.79149 0.0
C3555 C 0.38755 0.14427 0.79943 0.0
C3556 C 0.36916 0.13832 0.80909 0.0
C3557 C 0.3928 0.15045 0.7987 0.0
C3558 C 0.34239 0.11864 0.80427 0.0
C3559 C 0.3486 0.12384 0.80497 0.0
C3560 C 0.3678 0.1281 0.79651 0.0
C3561 C 0.38004 0.14552 0.80243 0.0
C3562 C 0.37426 0.13908 0.80273 0.0
C3563 C 0.35611 0.12171 0.80253 0.0
C3564 C 0.36259 0.12746 0.80278 0.0
H3565 H 0.38138 0.16497 0.80594 0.0
H3566 H 0.3722 0.15424 0.8071 0.0
H3567 H 0.37732 0.13432 0.79145 0.0
H3568 H 0.35217 0.10329 0.79637 0.0
H3569 H 0.36304 0.11233 0.79771 0.0
C3570 C 0.84196 0.88323 0.30423 0.0
C3571 C 0.84317 0.89072 0.30117 0.0
C3572 C 0.84815 0.87799 0.30494 0.0
C3573 C 0.86742 0.87377 0.29661 0.0
H3574 H 0.86904 0.85948 0.31399 0.0
C3575 C 0.89239 0.85139 0.29881 0.0
C3576 C 0.89021 0.84379 0.30092 0.0
C3577 C 0.88713 0.85756 0.29955 0.0
C3578 C 0.86864 0.8634 0.30908 0.0
H3579 H 0.85187 0.89862 0.29659 0.0
H3580 H 0.86269 0.88953 0.29794 0.0
H3581 H 0.85899 0.86951 0.31405 0.0
H3582 H 0.8809 0.83678 0.30577 0.0
H3583 H 0.8717 0.8475 0.30694 0.0
H3584 H 0.87698 0.8676 0.29157 0.0
C3585 C 0.85694 0.88768 0.29972 0.0
C3586 C 0.86288 0.86915 0.30911 0.0
C3587 C 0.85075 0.89292 0.29902 0.0
C3588 C 0.88273 0.84255 0.30399 0.0
C3589 C 0.87748 0.84871 0.30475 0.0
C3590 C 0.87318 0.86803 0.29658 0.0
C3591 C 0.85569 0.88012 0.30259 0.0
C3592 C 0.86214 0.87435 0.30284 0.0
C3593 C 0.87958 0.85628 0.30245 0.0
C3594 C 0.8738 0.86271 0.30277 0.0
H3595 H 0.83622 0.88138 0.30604 0.0
H3596 H 0.84696 0.8722 0.30711 0.0
H3597 H 0.86695 0.8776 0.29163 0.0
H3598 H 0.89808 0.85254 0.29638 0.0
H3599 H 0.88896 0.86333 0.29781 0.0
C3600 C 0.69664 0.11883 0.15883 0.0
C3601 C 0.6996 0.11131 0.15756 0.0
C3602 C 0.69588 0.12408 0.15267 0.0
C3603 C 0.70395 0.12822 0.13326 0.0
H3604 H 0.68679 0.14282 0.132 0.0
C3605 C 0.70167 0.15067 0.10838 0.0
C3606 C 0.69976 0.15831 0.11061 0.0
C3607 C 0.70091 0.14451 0.11364 0.0
C3608 C 0.69164 0.13881 0.1323 0.0
H3609 H 0.70393 0.10337 0.14877 0.0
H3610 H 0.70249 0.11249 0.13799 0.0
H3611 H 0.68673 0.13276 0.14202 0.0
H3612 H 0.69526 0.1654 0.12002 0.0
H3613 H 0.69404 0.15469 0.12923 0.0
H3614 H 0.70892 0.13434 0.12363 0.0
C3615 C 0.70084 0.11435 0.14378 0.0
C3616 C 0.69161 0.13304 0.13804 0.0
C3617 C 0.70158 0.10909 0.14994 0.0
C3618 C 0.69687 0.1596 0.11815 0.0
C3619 C 0.69609 0.15344 0.1234 0.0
C3620 C 0.70398 0.13398 0.12752 0.0
C3621 C 0.69808 0.12194 0.14508 0.0
C3622 C 0.69781 0.12773 0.13865 0.0
C3623 C 0.69819 0.14584 0.12124 0.0
C3624 C 0.69787 0.1394 0.12702 0.0
H3625 H 0.69496 0.12069 0.16461 0.0
H3626 H 0.6938 0.1299 0.1539 0.0
H3627 H 0.70888 0.12431 0.13363 0.0
H3628 H 0.70397 0.14948 0.10263 0.0
H3629 H 0.7025 0.13871 0.11177 0.0
C3630 C 0.84106 0.20438 0.61946 0.0
C3631 C 0.8416 0.20021 0.61244 0.0
C3632 C 0.84686 0.20376 0.62511 0.0
C3633 C 0.86747 0.19861 0.6279 0.0
H3634 H 0.86153 0.19783 0.64965 0.0
C3635 C 0.89001 0.19579 0.65295 0.0
C3636 C 0.88874 0.20059 0.65946 0.0
C3637 C 0.88434 0.19509 0.64715 0.0
C3638 C 0.86329 0.1981 0.6436 0.0
H3639 H 0.84871 0.19208 0.6059 0.0
H3640 H 0.85889 0.19104 0.61578 0.0
H3641 H 0.8515 0.19775 0.63964 0.0
H3642 H 0.88056 0.20857 0.66484 0.0
H3643 H 0.8707 0.20731 0.65479 0.0
H3644 H 0.87927 0.19906 0.6319 0.0
C3645 C 0.85397 0.19483 0.61687 0.0
C3646 C 0.85754 0.19806 0.63787 0.0
C3647 C 0.84814 0.19543 0.6112 0.0
C3648 C 0.88168 0.20468 0.66 0.0
C3649 C 0.87601 0.20397 0.65423 0.0
C3650 C 0.87324 0.19866 0.63365 0.0
C3651 C 0.85338 0.19898 0.6239 0.0
C3652 C 0.85955 0.19844 0.62995 0.0
C3653 C 0.87726 0.19916 0.64773 0.0
C3654 C 0.8712 0.19853 0.64158 0.0
H3655 H 0.8362 0.20824 0.62055 0.0
H3656 H 0.8463 0.20716 0.63039 0.0
H3657 H 0.86921 0.19898 0.62185 0.0
H3658 H 0.89536 0.1925 0.65239 0.0
H3659 H 0.88545 0.19128 0.64225 0.0
C3660 C 0.8063 0.38981 0.1534 0.0
C3661 C 0.8017 0.38846 0.16003 0.0
C3662 C 0.8069 0.38417 0.14754 0.0
C3663 C 0.80404 0.36312 0.14396 0.0
H3664 H 0.80232 0.36916 0.12229 0.0
C3665 C 0.79722 0.34093 0.11996 0.0
C3666 C 0.80114 0.34155 0.1128 0.0
C3667 C 0.79794 0.34672 0.1256 0.0
C3668 C 0.80292 0.36739 0.12831 0.0
H3669 H 0.79398 0.38015 0.16559 0.0
H3670 H 0.79508 0.37035 0.15547 0.0
H3671 H 0.80248 0.37916 0.1324 0.0
H3672 H 0.80891 0.34879 0.10599 0.0
H3673 H 0.81013 0.35897 0.11586 0.0
H3674 H 0.8044 0.35136 0.13991 0.0
C3675 C 0.79834 0.37571 0.15484 0.0
C3676 C 0.80301 0.37312 0.1341 0.0
C3677 C 0.79772 0.38134 0.16066 0.0
C3678 C 0.80575 0.34817 0.11141 0.0
C3679 C 0.80646 0.35399 0.11706 0.0
C3680 C 0.80396 0.35741 0.13819 0.0
C3681 C 0.80294 0.37705 0.14821 0.0
C3682 C 0.80344 0.37104 0.142 0.0
C3683 C 0.80258 0.35331 0.12424 0.0
C3684 C 0.80326 0.35946 0.1303 0.0
H3685 H 0.80951 0.3952 0.15276 0.0
H3686 H 0.81055 0.38535 0.14254 0.0
H3687 H 0.80455 0.36133 0.14998 0.0
H3688 H 0.79348 0.336 0.12117 0.0
H3689 H 0.79474 0.34609 0.13099 0.0
C3690 C 0.61861 0.30533 0.65892 0.0
C3691 C 0.61112 0.30236 0.65752 0.0
C3692 C 0.62392 0.30622 0.65282 0.0
C3693 C 0.62827 0.29842 0.63337 0.0
H3694 H 0.64284 0.31562 0.63241 0.0
C3695 C 0.65098 0.30082 0.60877 0.0
C3696 C 0.65859 0.30275 0.61108 0.0
C3697 C 0.64476 0.30158 0.61396 0.0
C3698 C 0.63884 0.31075 0.63262 0.0
H3699 H 0.60327 0.29817 0.64857 0.0
H3700 H 0.61248 0.29985 0.63791 0.0
H3701 H 0.63268 0.31555 0.64234 0.0
H3702 H 0.66556 0.30732 0.62055 0.0
H3703 H 0.65475 0.30852 0.62964 0.0
H3704 H 0.6345 0.29354 0.62377 0.0
C3705 C 0.61429 0.30141 0.64374 0.0
C3706 C 0.63302 0.31072 0.63831 0.0
C3707 C 0.60897 0.30053 0.64984 0.0
C3708 C 0.65979 0.30568 0.61862 0.0
C3709 C 0.65357 0.30646 0.62381 0.0
C3710 C 0.63409 0.29845 0.62769 0.0
C3711 C 0.62186 0.30416 0.64517 0.0
C3712 C 0.62772 0.3045 0.63881 0.0
C3713 C 0.64599 0.30431 0.62158 0.0
C3714 C 0.6395 0.30458 0.6273 0.0
H3715 H 0.62041 0.30689 0.66475 0.0
H3716 H 0.62972 0.3083 0.65414 0.0
H3717 H 0.62437 0.29348 0.63366 0.0
H3718 H 0.64986 0.29848 0.60303 0.0
H3719 H 0.63898 0.29997 0.61203 0.0
C3720 C 0.70181 0.35094 0.3927 0.0
C3721 C 0.69966 0.34336 0.39052 0.0
C3722 C 0.70104 0.35713 0.38748 0.0
C3723 C 0.69146 0.36308 0.36904 0.0
H3724 H 0.70901 0.37716 0.36732 0.0
C3725 C 0.69643 0.38289 0.34237 0.0
C3726 C 0.69956 0.39036 0.34358 0.0
C3727 C 0.69567 0.37766 0.34855 0.0
C3728 C 0.704 0.37337 0.3678 0.0
H3729 H 0.69469 0.3364 0.38123 0.0
H3730 H 0.69348 0.34716 0.37208 0.0
H3731 H 0.70903 0.36714 0.37733 0.0
H3732 H 0.7042 0.39822 0.35228 0.0
H3733 H 0.70277 0.38913 0.3631 0.0
H3734 H 0.68651 0.36924 0.3594 0.0
C3735 C 0.69572 0.34834 0.37785 0.0
C3736 C 0.70401 0.36761 0.37355 0.0
C3737 C 0.6965 0.34215 0.38306 0.0
C3738 C 0.70172 0.39254 0.35116 0.0
C3739 C 0.70098 0.3873 0.35734 0.0
C3740 C 0.69145 0.36884 0.36329 0.0
C3741 C 0.69808 0.35589 0.37995 0.0
C3742 C 0.69779 0.36234 0.37418 0.0
C3743 C 0.69804 0.37977 0.3561 0.0
C3744 C 0.69777 0.37399 0.36254 0.0
H3745 H 0.70432 0.35206 0.39838 0.0
H3746 H 0.70283 0.36289 0.38931 0.0
H3747 H 0.68652 0.35919 0.36944 0.0
H3748 H 0.69461 0.38106 0.33662 0.0
H3749 H 0.69345 0.37189 0.34736 0.0
C3750 C 0.61877 0.19748 0.84207 0.0
C3751 C 0.61125 0.20043 0.84336 0.0
C3752 C 0.62403 0.1967 0.84822 0.0
C3753 C 0.62822 0.20462 0.86767 0.0
H3754 H 0.64273 0.18738 0.86882 0.0
C3755 C 0.65068 0.20205 0.89252 0.0
C3756 C 0.65831 0.20009 0.89028 0.0
C3757 C 0.64452 0.20137 0.88726 0.0
C3758 C 0.63875 0.19226 0.86855 0.0
H3759 H 0.60332 0.20473 0.85219 0.0
H3760 H 0.61247 0.20325 0.86295 0.0
H3761 H 0.63266 0.18744 0.8588 0.0
H3762 H 0.66536 0.19559 0.88084 0.0
H3763 H 0.65464 0.19452 0.87162 0.0
H3764 H 0.63438 0.2095 0.87733 0.0
C3765 C 0.61432 0.20162 0.85715 0.0
C3766 C 0.63298 0.19229 0.86281 0.0
C3767 C 0.60905 0.20239 0.851 0.0
C3768 C 0.65958 0.19724 0.88272 0.0
C3769 C 0.65341 0.19654 0.87746 0.0
C3770 C 0.63399 0.20459 0.87341 0.0
C3771 C 0.62191 0.19885 0.85582 0.0
C3772 C 0.6277 0.19852 0.86224 0.0
C3773 C 0.64582 0.19869 0.87964 0.0
C3774 C 0.63938 0.19845 0.87386 0.0
H3775 H 0.62062 0.19582 0.83628 0.0
H3776 H 0.62984 0.19462 0.84696 0.0
H3777 H 0.62434 0.20957 0.86733 0.0
H3778 H 0.64951 0.20432 0.89828 0.0
H3779 H 0.63873 0.20299 0.88914 0.0
C3780 C 0.80395 0.11881 0.34158 0.0
C3781 C 0.80131 0.11119 0.34297 0.0
C3782 C 0.80469 0.12411 0.3477 0.0
C3783 C 0.79711 0.12805 0.36735 0.0
H3784 H 0.81387 0.14314 0.36811 0.0
C3785 C 0.79959 0.15042 0.39229 0.0
C3786 C 0.80127 0.15812 0.39007 0.0
C3787 C 0.80032 0.14433 0.38695 0.0
C3788 C 0.80912 0.13899 0.36795 0.0
H3789 H 0.79752 0.10314 0.35192 0.0
H3790 H 0.79894 0.11237 0.36261 0.0
H3791 H 0.81389 0.13311 0.35805 0.0
H3792 H 0.80532 0.16539 0.38059 0.0
H3793 H 0.80646 0.15478 0.37125 0.0
H3794 H 0.79227 0.134 0.37716 0.0
C3795 C 0.80035 0.11426 0.35677 0.0
C3796 C 0.80913 0.13325 0.36219 0.0
C3797 C 0.79962 0.10895 0.35065 0.0
C3798 C 0.80389 0.15954 0.38246 0.0
C3799 C 0.80463 0.15345 0.37712 0.0
C3800 C 0.7971 0.13379 0.37311 0.0
C3801 C 0.80281 0.12194 0.35536 0.0
C3802 C 0.80308 0.12776 0.36177 0.0
C3803 C 0.80276 0.14578 0.37927 0.0
C3804 C 0.80306 0.13939 0.37343 0.0
H3805 H 0.8054 0.12069 0.33575 0.0
H3806 H 0.80654 0.12999 0.34638 0.0
H3807 H 0.79229 0.124 0.36712 0.0
H3808 H 0.7975 0.14913 0.39809 0.0
H3809 H 0.79892 0.13847 0.38882 0.0
C3810 C 0.84842 0.30549 0.88972 0.0
C3811 C 0.84168 0.30107 0.88827 0.0
C3812 C 0.85428 0.30608 0.88409 0.0
C3813 C 0.85772 0.30363 0.86295 0.0
H3814 H 0.87939 0.3015 0.86884 0.0
C3815 C 0.88157 0.29688 0.84055 0.0
C3816 C 0.88879 0.30067 0.84123 0.0
C3817 C 0.87594 0.2976 0.84635 0.0
C3818 C 0.87337 0.30222 0.86711 0.0
H3819 H 0.83594 0.29365 0.87981 0.0
H3820 H 0.8461 0.29471 0.87004 0.0
H3821 H 0.86934 0.30156 0.87889 0.0
H3822 H 0.8957 0.30825 0.84858 0.0
H3823 H 0.88585 0.30947 0.85877 0.0
H3824 H 0.86171 0.30417 0.85118 0.0
C3825 C 0.8468 0.29785 0.87546 0.0
C3826 C 0.86762 0.30225 0.87287 0.0
C3827 C 0.84097 0.29724 0.88107 0.0
C3828 C 0.89024 0.30519 0.8479 0.0
C3829 C 0.88459 0.30589 0.85374 0.0
C3830 C 0.86346 0.30359 0.85721 0.0
C3831 C 0.85352 0.30228 0.87688 0.0
C3832 C 0.85971 0.30283 0.87085 0.0
C3833 C 0.87737 0.30212 0.85302 0.0
C3834 C 0.87135 0.30275 0.8592 0.0
H3835 H 0.84912 0.30857 0.89517 0.0
H3836 H 0.85935 0.3096 0.88534 0.0
H3837 H 0.85169 0.30425 0.8612 0.0
H3838 H 0.8803 0.29321 0.83558 0.0
H3839 H 0.8705 0.29449 0.84568 0.0
C3840 C 0.12039 0.70306 0.16079 0.0
C3841 C 0.11318 0.69925 0.16014 0.0
C3842 C 0.12606 0.70223 0.15503 0.0
C3843 C 0.12868 0.69732 0.13437 0.0
H3844 H 0.15037 0.69551 0.14035 0.0
C3845 C 0.15368 0.69424 0.11181 0.0
C3846 C 0.16034 0.69878 0.11324 0.0
C3847 C 0.14785 0.69354 0.11746 0.0
C3848 C 0.14434 0.69606 0.13858 0.0
H3849 H 0.10632 0.6915 0.15291 0.0
H3850 H 0.11623 0.69009 0.1428 0.0
H3851 H 0.14032 0.6956 0.15035 0.0
H3852 H 0.16596 0.70632 0.12167 0.0
H3853 H 0.15586 0.70508 0.13148 0.0
H3854 H 0.13274 0.6979 0.12259 0.0
C3855 C 0.11746 0.69377 0.14777 0.0
C3856 C 0.13859 0.69611 0.14431 0.0
C3857 C 0.11178 0.69459 0.15356 0.0
C3858 C 0.16101 0.70262 0.12043 0.0
C3859 C 0.1552 0.70192 0.12606 0.0
C3860 C 0.13445 0.69727 0.12862 0.0
C3861 C 0.12466 0.69758 0.14845 0.0
C3862 C 0.1307 0.69688 0.14229 0.0
C3863 C 0.14855 0.69737 0.12466 0.0
C3864 C 0.14236 0.69678 0.13067 0.0
H3865 H 0.12162 0.70684 0.16568 0.0
H3866 H 0.13148 0.70537 0.15566 0.0
H3867 H 0.12266 0.69798 0.13262 0.0
H3868 H 0.15302 0.69114 0.10637 0.0
H3869 H 0.14283 0.68994 0.11623 0.0
C3870 C 0.11109 0.80558 0.34815 0.0
C3871 C 0.11258 0.80113 0.34145 0.0
C3872 C 0.11672 0.80628 0.354 0.0
C3873 C 0.13787 0.80415 0.35743 0.0
H3874 H 0.13206 0.80191 0.37911 0.0
C3875 C 0.16046 0.79778 0.38118 0.0
C3876 C 0.15973 0.80153 0.38842 0.0
C3877 C 0.15462 0.7984 0.37558 0.0
C3878 C 0.13377 0.80266 0.37309 0.0
H3879 H 0.12111 0.79375 0.33576 0.0
H3880 H 0.13089 0.79501 0.34589 0.0
H3881 H 0.12199 0.80182 0.36908 0.0
H3882 H 0.15226 0.80892 0.3954 0.0
H3883 H 0.14201 0.80999 0.38559 0.0
H3884 H 0.14964 0.8049 0.3614 0.0
C3885 C 0.12544 0.79809 0.34657 0.0
C3886 C 0.12799 0.80261 0.36734 0.0
C3887 C 0.11982 0.79737 0.34075 0.0
C3888 C 0.15297 0.80589 0.38992 0.0
C3889 C 0.1471 0.80651 0.3843 0.0
C3890 C 0.14363 0.80421 0.36316 0.0
C3891 C 0.12397 0.80256 0.35326 0.0
C3892 C 0.13 0.80322 0.35943 0.0
C3893 C 0.14787 0.80279 0.37705 0.0
C3894 C 0.14166 0.80333 0.37105 0.0
H3895 H 0.10561 0.80862 0.34884 0.0
H3896 H 0.11544 0.80982 0.35906 0.0
H3897 H 0.1396 0.80479 0.3514 0.0
H3898 H 0.1655 0.79422 0.37989 0.0
H3899 H 0.15533 0.79532 0.37013 0.0
C3900 C 0.1964 0.61892 0.84201 0.0
C3901 C 0.19939 0.6114 0.84327 0.0
C3902 C 0.19563 0.62415 0.84819 0.0
C3903 C 0.20368 0.62828 0.86761 0.0
H3904 H 0.18646 0.6428 0.86893 0.0
C3905 C 0.20134 0.65059 0.89259 0.0
C3906 C 0.19939 0.65823 0.89041 0.0
C3907 C 0.20058 0.64445 0.8873 0.0
C3908 C 0.19133 0.63881 0.86861 0.0
H3909 H 0.20376 0.60346 0.85204 0.0
H3910 H 0.20228 0.61256 0.86284 0.0
H3911 H 0.18645 0.63278 0.85886 0.0
H3912 H 0.19482 0.66536 0.88106 0.0
H3913 H 0.19362 0.65469 0.87179 0.0
H3914 H 0.20862 0.63437 0.87726 0.0
C3915 C 0.20062 0.61443 0.85706 0.0
C3916 C 0.19132 0.63307 0.86284 0.0
C3917 C 0.20138 0.60918 0.85088 0.0
C3918 C 0.19646 0.65955 0.88289 0.0
C3919 C 0.19569 0.65342 0.87761 0.0
C3920 C 0.20368 0.63401 0.87337 0.0
C3921 C 0.19783 0.62201 0.85577 0.0
C3922 C 0.19754 0.62779 0.86222 0.0
C3923 C 0.19784 0.64581 0.87971 0.0
C3924 C 0.19755 0.6394 0.87389 0.0
H3925 H 0.19471 0.62078 0.83624 0.0
H3926 H 0.19352 0.62996 0.84697 0.0
H3927 H 0.20862 0.62439 0.86722 0.0
H3928 H 0.20367 0.64937 0.89832 0.0
H3929 H 0.2022 0.63865 0.88914 0.0
C3930 C 0.38133 0.70364 0.34098 0.0
C3931 C 0.38847 0.69971 0.34159 0.0
C3932 C 0.37563 0.70281 0.34671 0.0
C3933 C 0.37284 0.69752 0.36727 0.0
H3934 H 0.35115 0.69624 0.36117 0.0
C3935 C 0.34771 0.69428 0.38966 0.0
C3936 C 0.34115 0.69901 0.38836 0.0
C3937 C 0.35354 0.69362 0.384 0.0
C3938 C 0.35717 0.69665 0.36298 0.0
H3939 H 0.3952 0.69176 0.34872 0.0
H3940 H 0.38523 0.69033 0.35877 0.0
H3941 H 0.36123 0.6964 0.35122 0.0
H3942 H 0.3357 0.70688 0.38012 0.0
H3943 H 0.34579 0.7057 0.37029 0.0
H3944 H 0.36874 0.69788 0.37905 0.0
C3945 C 0.38408 0.69411 0.35386 0.0
C3946 C 0.36296 0.69673 0.35727 0.0
C3947 C 0.38979 0.69493 0.34811 0.0
C3948 C 0.34057 0.70305 0.38127 0.0
C3949 C 0.34637 0.70238 0.37562 0.0
C3950 C 0.36704 0.69743 0.373 0.0
C3951 C 0.37693 0.69803 0.35322 0.0
C3952 C 0.37085 0.69731 0.35934 0.0
C3953 C 0.35293 0.69766 0.37691 0.0
C3954 C 0.35913 0.69713 0.3709 0.0
H3955 H 0.38017 0.7075 0.33614 0.0
H3956 H 0.37026 0.70604 0.3461 0.0
H3957 H 0.37886 0.69804 0.36906 0.0
H3958 H 0.3483 0.69102 0.39502 0.0
H3959 H 0.35848 0.68989 0.38514 0.0
C3960 C 0.30451 0.88318 0.84192 0.0
C3961 C 0.30154 0.8907 0.8432 0.0
C3962 C 0.30525 0.87792 0.84808 0.0
C3963 C 0.29714 0.87369 0.86744 0.0
H3964 H 0.31447 0.85931 0.86883 0.0
C3965 C 0.29947 0.85126 0.89234 0.0
C3966 C 0.30154 0.84366 0.89015 0.0
C3967 C 0.3002 0.85744 0.88709 0.0
C3968 C 0.30957 0.86325 0.8685 0.0
H3969 H 0.29715 0.89861 0.85199 0.0
H3970 H 0.29855 0.88946 0.86276 0.0
H3971 H 0.31446 0.86935 0.85879 0.0
H3972 H 0.30631 0.83665 0.8808 0.0
H3973 H 0.30745 0.84737 0.8716 0.0
H3974 H 0.29218 0.86753 0.87705 0.0
C3975 C 0.30023 0.88762 0.85697 0.0
C3976 C 0.30956 0.86901 0.86274 0.0
C3977 C 0.29951 0.89289 0.85081 0.0
C3978 C 0.30457 0.84242 0.88265 0.0
C3979 C 0.30531 0.84858 0.8774 0.0
C3980 C 0.29715 0.86794 0.87319 0.0
C3981 C 0.30302 0.88004 0.85566 0.0
C3982 C 0.30331 0.87424 0.86209 0.0
C3983 C 0.30304 0.85615 0.87952 0.0
C3984 C 0.30332 0.86259 0.87373 0.0
H3985 H 0.30621 0.88134 0.83614 0.0
H3986 H 0.30735 0.87211 0.84685 0.0
H3987 H 0.29218 0.87755 0.86704 0.0
H3988 H 0.29707 0.85242 0.89805 0.0
H3989 H 0.29849 0.86321 0.88894 0.0
C3990 C 0.35072 0.79957 0.10863 0.0
C3991 C 0.34307 0.80154 0.11077 0.0
C3992 C 0.35683 0.80028 0.11396 0.0
C3993 C 0.36239 0.80946 0.13271 0.0
H3994 H 0.37682 0.79217 0.13408 0.0
C3995 C 0.38237 0.80443 0.15928 0.0
C3996 C 0.38989 0.80147 0.15799 0.0
C3997 C 0.3771 0.80517 0.15312 0.0
C3998 C 0.37293 0.79711 0.1337 0.0
H3999 H 0.33591 0.80609 0.1201 0.0
H4000 H 0.34652 0.80721 0.12944 0.0
H4001 H 0.36685 0.79219 0.12403 0.0
H4002 H 0.3978 0.79711 0.14919 0.0
H4003 H 0.38865 0.79853 0.13843 0.0
H4004 H 0.36841 0.81432 0.14248 0.0
C4005 C 0.34782 0.80516 0.12362 0.0
C4006 C 0.3672 0.79712 0.12793 0.0
C4007 C 0.34171 0.80443 0.1183 0.0
C4008 C 0.39208 0.79946 0.15037 0.0
C4009 C 0.3868 0.80019 0.14422 0.0
C4010 C 0.36813 0.80945 0.13849 0.0
C4011 C 0.35543 0.80299 0.12156 0.0
C4012 C 0.36181 0.80325 0.12741 0.0
C4013 C 0.37921 0.80296 0.14554 0.0
C4014 C 0.37341 0.80324 0.13911 0.0
H4015 H 0.35196 0.79727 0.1029 0.0
H4016 H 0.36264 0.79865 0.11215 0.0
H4017 H 0.35841 0.81433 0.1324 0.0
H4018 H 0.38052 0.80612 0.16506 0.0
H4019 H 0.37128 0.80726 0.15437 0.0
C4020 C 0.20201 0.85036 0.61028 0.0
C4021 C 0.1988 0.84296 0.61168 0.0
C4022 C 0.2012 0.85632 0.61576 0.0
C4023 C 0.19784 0.85919 0.63674 0.0
H4024 H 0.19484 0.88079 0.63092 0.0
C4025 C 0.19461 0.88315 0.65991 0.0
C4026 C 0.19883 0.89005 0.65866 0.0
C4027 C 0.19379 0.87767 0.65396 0.0
C4028 C 0.19573 0.87479 0.63263 0.0
H4029 H 0.19189 0.83616 0.61975 0.0
H4030 H 0.19046 0.84656 0.62929 0.0
H4031 H 0.19483 0.87073 0.62088 0.0
H4032 H 0.20537 0.89665 0.65013 0.0
H4033 H 0.20397 0.88706 0.63976 0.0
H4034 H 0.19886 0.86323 0.64846 0.0
C4035 C 0.19374 0.8477 0.62403 0.0
C4036 C 0.19572 0.86903 0.62688 0.0
C4037 C 0.19456 0.84174 0.61856 0.0
C4038 C 0.20201 0.89143 0.65125 0.0
C4039 C 0.20121 0.88593 0.64531 0.0
C4040 C 0.19784 0.86494 0.64248 0.0
C4041 C 0.19716 0.85503 0.62276 0.0
C4042 C 0.19682 0.86116 0.62886 0.0
C4043 C 0.19719 0.87893 0.64663 0.0
C4044 C 0.19683 0.87282 0.6405 0.0
H4045 H 0.20538 0.85146 0.60508 0.0
H4046 H 0.20398 0.86186 0.61463 0.0
H4047 H 0.19884 0.85322 0.63846 0.0
H4048 H 0.19197 0.88197 0.6655 0.0
H4049 H 0.19053 0.8724 0.65513 0.0
C4050 C 0.3044 0.61884 0.65961 0.0
C4051 C 0.30175 0.61123 0.65825 0.0
C4052 C 0.30517 0.62413 0.65348 0.0
C4053 C 0.2976 0.62805 0.63383 0.0
H4054 H 0.31443 0.64306 0.63303 0.0
C4055 C 0.30006 0.65041 0.60891 0.0
C4056 C 0.30176 0.6581 0.61113 0.0
C4057 C 0.30082 0.64431 0.61423 0.0
C4058 C 0.30966 0.63894 0.6332 0.0
H4059 H 0.29794 0.60316 0.64932 0.0
H4060 H 0.29939 0.61236 0.6386 0.0
H4061 H 0.31442 0.63304 0.6431 0.0
H4062 H 0.30588 0.66535 0.6206 0.0
H4063 H 0.30707 0.65473 0.62992 0.0
H4064 H 0.29278 0.634 0.62403 0.0
C4065 C 0.30081 0.61426 0.64443 0.0
C4066 C 0.30966 0.6332 0.63897 0.0
C4067 C 0.30006 0.60897 0.65057 0.0
C4068 C 0.30443 0.65951 0.61873 0.0
C4069 C 0.3052 0.6534 0.62405 0.0
C4070 C 0.29761 0.63378 0.62807 0.0
C4071 C 0.30328 0.62194 0.64583 0.0
C4072 C 0.30358 0.62773 0.63941 0.0
C4073 C 0.3033 0.64574 0.6219 0.0
C4074 C 0.30359 0.63935 0.62773 0.0
H4075 H 0.30585 0.62074 0.66545 0.0
H4076 H 0.30702 0.63001 0.65478 0.0
H4077 H 0.29277 0.62401 0.63407 0.0
H4078 H 0.29793 0.64913 0.60312 0.0
H4079 H 0.2994 0.63846 0.61236 0.0
loop_
_geom_bond_atom_site_label_1
_geom_bond_atom_site_label_2
_geom_bond_distance
_geom_bond_site_symmetry_2
_ccdc_geom_bond_type
C0 C1 1.264 . S
C0 C5 1.479 . S
C0 C10 1.465 . S
C1 C0 1.264 . S
C1 C3 1.339 . S
C1 H28 0.931 . S
C2 C3 1.395 . S
C2 C4 1.320 . S
C3 C1 1.339 . S
C3 C2 1.395 . S
C3 H29 0.929 . S
C4 C2 1.320 . S
C4 C5 1.405 . S
C4 H30 0.930 . S
C5 C0 1.479 . S
C5 C4 1.405 . S
C5 H31 0.931 . S
U6 O7 2.454 . S
U6 O8 2.458 . S
U6 C9 2.984 . S
U6 C10 2.847 . S
U6 C23 2.882 . S
U6 O24 2.441 . S
U6 O25 2.420 . S
U6 O26 2.455 . S
U6 O27 2.449 . S
O7 U6 2.454 . S
O7 C9 1.353 . S
O8 U6 2.458 . S
O8 C9 1.286 . S
C9 U6 2.984 . S
C9 O7 1.353 . S
C9 O8 1.286 . S
C9 C11 1.363 . S
C10 C0 1.465 . S
C10 U6 2.847 . S
C10 O24 1.249 . S
C10 O25 1.202 . S
C11 C9 1.363 . S
C11 C13 1.408 . S
C11 C16 1.342 . S
C12 C13 1.310 . S
C12 C15 1.461 . S
C12 H32 0.932 . S
C13 C11 1.408 . S
C13 C12 1.310 . S
C13 H33 0.930 . S
C14 C15 1.474 . S
C14 C16 1.285 . S
C14 H34 0.929 . S
C15 C12 1.461 . S
C15 C14 1.474 . S
C16 C11 1.342 . S
C16 C14 1.285 . S
C16 H35 0.930 . S
C17 C20 1.424 . S
C17 C22 1.245 . S
C17 C23 1.428 . S
C18 C21 1.260 . S
C18 C22 1.477 . S
C18 H36 0.932 . S
C19 C20 1.384 . S
C19 C21 1.479 . S
C19 H37 0.929 . S
C20 C17 1.424 . S
C20 C19 1.384 . S
C20 H38 0.928 . S
C21 C18 1.260 . S
C21 C19 1.479 . S
C22 C17 1.245 . S
C22 C18 1.477 . S
C22 H39 0.932 . S
C23 U6 2.882 . S
C23 C17 1.428 . S
C23 O26 1.301 . S
C23 O27 1.282 . S
O24 U6 2.441 . S
O24 C10 1.249 . S
O25 U6 2.420 . S
O25 C10 1.202 . S
O26 U6 2.455 . S
O26 C23 1.301 . S
O27 U6 2.449 . S
O27 C23 1.282 . S
H28 C1 0.931 . S
H29 C3 0.929 . S
H30 C4 0.930 . S
H31 C5 0.931 . S
H32 C12 0.932 . S
H33 C13 0.930 . S
H34 C14 0.929 . S
H35 C16 0.930 . S
H36 C18 0.932 . S
H37 C19 0.929 . S
H38 C20 0.928 . S
H39 C22 0.932 . S
C40 C41 1.264 . S
C40 C45 1.479 . S
C40 C50 1.465 . S
C41 C40 1.264 . S
C41 C43 1.339 . S
C41 H68 0.931 . S
C42 C43 1.395 . S
C42 C44 1.320 . S
C43 C41 1.339 . S
C43 C42 1.395 . S
C43 H69 0.929 . S
C44 C42 1.320 . S
C44 C45 1.405 . S
C44 H70 0.930 . S
C45 C40 1.479 . S
C45 C44 1.405 . S
C45 H71 0.931 . S
U46 O47 2.454 . S
U46 O48 2.458 . S
U46 C49 2.984 . S
U46 C50 2.847 . S
U46 C63 2.882 . S
U46 O64 2.441 . S
U46 O65 2.420 . S
U46 O66 2.455 . S
U46 O67 2.449 . S
O47 U46 2.454 . S
O47 C49 1.353 . S
O48 U46 2.458 . S
O48 C49 1.286 . S
C49 U46 2.984 . S
C49 O47 1.353 . S
C49 O48 1.286 . S
C49 C51 1.363 . S
C50 C40 1.465 . S
C50 U46 2.847 . S
C50 O64 1.249 . S
C50 O65 1.202 . S
C51 C49 1.363 . S
C51 C53 1.408 . S
C51 C56 1.342 . S
C52 C53 1.310 . S
C52 C55 1.461 . S
C52 H72 0.932 . S
C53 C51 1.408 . S
C53 C52 1.310 . S
C53 H73 0.930 . S
C54 C55 1.474 . S
C54 C56 1.285 . S
C54 H74 0.929 . S
C55 C52 1.461 . S
C55 C54 1.474 . S
C56 C51 1.342 . S
C56 C54 1.285 . S
C56 H75 0.930 . S
C57 C60 1.424 . S
C57 C62 1.245 . S
C57 C63 1.428 . S
C58 C61 1.260 . S
C58 C62 1.477 . S
C58 H76 0.932 . S
C59 C60 1.384 . S
C59 C61 1.479 . S
C59 H77 0.929 . S
C60 C57 1.424 . S
C60 C59 1.384 . S
C60 H78 0.928 . S
C61 C58 1.260 . S
C61 C59 1.479 . S
C62 C57 1.245 . S
C62 C58 1.477 . S
C62 H79 0.932 . S
C63 U46 2.882 . S
C63 C57 1.428 . S
C63 O66 1.301 . S
C63 O67 1.282 . S
O64 U46 2.441 . S
O64 C50 1.249 . S
O65 U46 2.420 . S
O65 C50 1.202 . S
O66 U46 2.455 . S
O66 C63 1.301 . S
O67 U46 2.449 . S
O67 C63 1.282 . S
H68 C41 0.931 . S
H69 C43 0.929 . S
H70 C44 0.930 . S
H71 C45 0.931 . S
H72 C52 0.932 . S
H73 C53 0.930 . S
H74 C54 0.929 . S
H75 C56 0.930 . S
H76 C58 0.932 . S
H77 C59 0.929 . S
H78 C60 0.928 . S
H79 C62 0.932 . S
C80 C81 1.264 . S
C80 C85 1.479 . S
C80 C90 1.465 . S
C81 C80 1.264 . S
C81 C83 1.339 . S
C81 H108 0.931 . S
C82 C83 1.395 . S
C82 C84 1.320 . S
C83 C81 1.339 . S
C83 C82 1.395 . S
C83 H109 0.929 . S
C84 C82 1.320 . S
C84 C85 1.405 . S
C84 H110 0.930 . S
C85 C80 1.479 . S
C85 C84 1.405 . S
C85 H111 0.931 . S
U86 O87 2.454 . S
U86 O88 2.458 . S
U86 C89 2.984 . S
U86 C90 2.847 . S
U86 C103 2.882 . S
U86 O104 2.441 . S
U86 O105 2.420 . S
U86 O106 2.455 . S
U86 O107 2.449 . S
O87 U86 2.454 . S
O87 C89 1.353 . S
O88 U86 2.458 . S
O88 C89 1.286 . S
C89 U86 2.984 . S
C89 O87 1.353 . S
C89 O88 1.286 . S
C89 C91 1.363 . S
C90 C80 1.465 . S
C90 U86 2.847 . S
C90 O104 1.249 . S
C90 O105 1.202 . S
C91 C89 1.363 . S
C91 C93 1.408 . S
C91 C96 1.342 . S
C92 C93 1.310 . S
C92 C95 1.461 . S
C92 H112 0.932 . S
C93 C91 1.408 . S
C93 C92 1.310 . S
C93 H113 0.930 . S
C94 C95 1.474 . S
C94 C96 1.285 . S
C94 H114 0.929 . S
C95 C92 1.461 . S
C95 C94 1.474 . S
C96 C91 1.342 . S
C96 C94 1.285 . S
C96 H115 0.930 . S
C97 C100 1.424 . S
C97 C102 1.245 . S
C97 C103 1.428 . S
C98 C101 1.260 . S
C98 C102 1.477 . S
C98 H116 0.932 . S
C99 C100 1.384 . S
C99 C101 1.479 . S
C99 H117 0.929 . S
C100 C97 1.424 . S
C100 C99 1.384 . S
C100 H118 0.928 . S
C101 C98 1.260 . S
C101 C99 1.479 . S
C102 C97 1.245 . S
C102 C98 1.477 . S
C102 H119 0.932 . S
C103 U86 2.882 . S
C103 C97 1.428 . S
C103 O106 1.301 . S
C103 O107 1.282 . S
O104 U86 2.441 . S
O104 C90 1.249 . S
O105 U86 2.420 . S
O105 C90 1.202 . S
O106 U86 2.455 . S
O106 C103 1.301 . S
O107 U86 2.449 . S
O107 C103 1.282 . S
H108 C81 0.931 . S
H109 C83 0.929 . S
H110 C84 0.930 . S
H111 C85 0.931 . S
H112 C92 0.932 . S
H113 C93 0.930 . S
H114 C94 0.929 . S
H115 C96 0.930 . S
H116 C98 0.932 . S
H117 C99 0.929 . S
H118 C100 0.928 . S
H119 C102 0.932 . S
C120 C121 1.264 . S
C120 C125 1.479 . S
C120 C130 1.465 . S
C121 C120 1.264 . S
C121 C123 1.339 . S
C121 H148 0.931 . S
C122 C123 1.395 . S
C122 C124 1.320 . S
C123 C121 1.339 . S
C123 C122 1.395 . S
C123 H149 0.929 . S
C124 C122 1.320 . S
C124 C125 1.405 . S
C124 H150 0.930 . S
C125 C120 1.479 . S
C125 C124 1.405 . S
C125 H151 0.931 . S
U126 O127 2.454 . S
U126 O128 2.458 . S
U126 C129 2.984 . S
U126 C130 2.847 . S
U126 C143 2.882 . S
U126 O144 2.441 . S
U126 O145 2.420 . S
U126 O146 2.455 . S
U126 O147 2.449 . S
O127 U126 2.454 . S
O127 C129 1.353 . S
O128 U126 2.458 . S
O128 C129 1.286 . S
C129 U126 2.984 . S
C129 O127 1.353 . S
C129 O128 1.286 . S
C129 C131 1.363 . S
C130 C120 1.465 . S
C130 U126 2.847 . S
C130 O144 1.249 . S
C130 O145 1.202 . S
C131 C129 1.363 . S
C131 C133 1.408 . S
C131 C136 1.342 . S
C132 C133 1.310 . S
C132 C135 1.461 . S
C132 H152 0.932 . S
C133 C131 1.408 . S
C133 C132 1.310 . S
C133 H153 0.930 . S
C134 C135 1.474 . S
C134 C136 1.285 . S
C134 H154 0.929 . S
C135 C132 1.461 . S
C135 C134 1.474 . S
C136 C131 1.342 . S
C136 C134 1.285 . S
C136 H155 0.930 . S
C137 C140 1.424 . S
C137 C142 1.245 . S
C137 C143 1.428 . S
C138 C141 1.260 . S
C138 C142 1.477 . S
C138 H156 0.932 . S
C139 C140 1.384 . S
C139 C141 1.479 . S
C139 H157 0.929 . S
C140 C137 1.424 . S
C140 C139 1.384 . S
C140 H158 0.928 . S
C141 C138 1.260 . S
C141 C139 1.479 . S
C142 C137 1.245 . S
C142 C138 1.477 . S
C142 H159 0.932 . S
C143 U126 2.882 . S
C143 C137 1.428 . S
C143 O146 1.301 . S
C143 O147 1.282 . S
O144 U126 2.441 . S
O144 C130 1.249 . S
O145 U126 2.420 . S
O145 C130 1.202 . S
O146 U126 2.455 . S
O146 C143 1.301 . S
O147 U126 2.449 . S
O147 C143 1.282 . S
H148 C121 0.931 . S
H149 C123 0.929 . S
H150 C124 0.930 . S
H151 C125 0.931 . S
H152 C132 0.932 . S
H153 C133 0.930 . S
H154 C134 0.929 . S
H155 C136 0.930 . S
H156 C138 0.932 . S
H157 C139 0.929 . S
H158 C140 0.928 . S
H159 C142 0.932 . S
C160 C161 1.264 . S
C160 C165 1.479 . S
C160 C170 1.465 . S
C161 C160 1.264 . S
C161 C163 1.339 . S
C161 H188 0.931 . S
C162 C163 1.395 . S
C162 C164 1.320 . S
C163 C161 1.339 . S
C163 C162 1.395 . S
C163 H189 0.929 . S
C164 C162 1.320 . S
C164 C165 1.405 . S
C164 H190 0.930 . S
C165 C160 1.479 . S
C165 C164 1.405 . S
C165 H191 0.931 . S
U166 O167 2.454 . S
U166 O168 2.458 . S
U166 C169 2.984 . S
U166 C170 2.847 . S
U166 C183 2.882 . S
U166 O184 2.441 . S
U166 O185 2.420 . S
U166 O186 2.455 . S
U166 O187 2.449 . S
O167 U166 2.454 . S
O167 C169 1.353 . S
O168 U166 2.458 . S
O168 C169 1.286 . S
C169 U166 2.984 . S
C169 O167 1.353 . S
C169 O168 1.286 . S
C169 C171 1.363 . S
C170 C160 1.465 . S
C170 U166 2.847 . S
C170 O184 1.249 . S
C170 O185 1.202 . S
C171 C169 1.363 . S
C171 C173 1.408 . S
C171 C176 1.342 . S
C172 C173 1.310 . S
C172 C175 1.461 . S
C172 H192 0.932 . S
C173 C171 1.408 . S
C173 C172 1.310 . S
C173 H193 0.930 . S
C174 C175 1.474 . S
C174 C176 1.285 . S
C174 H194 0.929 . S
C175 C172 1.461 . S
C175 C174 1.474 . S
C176 C171 1.342 . S
C176 C174 1.285 . S
C176 H195 0.930 . S
C177 C180 1.424 . S
C177 C182 1.245 . S
C177 C183 1.428 . S
C178 C181 1.260 . S
C178 C182 1.477 . S
C178 H196 0.932 . S
C179 C180 1.384 . S
C179 C181 1.479 . S
C179 H197 0.929 . S
C180 C177 1.424 . S
C180 C179 1.384 . S
C180 H198 0.928 . S
C181 C178 1.260 . S
C181 C179 1.479 . S
C182 C177 1.245 . S
C182 C178 1.477 . S
C182 H199 0.932 . S
C183 U166 2.882 . S
C183 C177 1.428 . S
C183 O186 1.301 . S
C183 O187 1.282 . S
O184 U166 2.441 . S
O184 C170 1.249 . S
O185 U166 2.420 . S
O185 C170 1.202 . S
O186 U166 2.455 . S
O186 C183 1.301 . S
O187 U166 2.449 . S
O187 C183 1.282 . S
H188 C161 0.931 . S
H189 C163 0.929 . S
H190 C164 0.930 . S
H191 C165 0.931 . S
H192 C172 0.932 . S
H193 C173 0.930 . S
H194 C174 0.929 . S
H195 C176 0.930 . S
H196 C178 0.932 . S
H197 C179 0.929 . S
H198 C180 0.928 . S
H199 C182 0.932 . S
C200 C201 1.264 . S
C200 C205 1.479 . S
C200 C210 1.465 . S
C201 C200 1.264 . S
C201 C203 1.339 . S
C201 H228 0.931 . S
C202 C203 1.395 . S
C202 C204 1.320 . S
C203 C201 1.339 . S
C203 C202 1.395 . S
C203 H229 0.929 . S
C204 C202 1.320 . S
C204 C205 1.405 . S
C204 H230 0.930 . S
C205 C200 1.479 . S
C205 C204 1.405 . S
C205 H231 0.931 . S
U206 O207 2.454 . S
U206 O208 2.458 . S
U206 C209 2.984 . S
U206 C210 2.847 . S
U206 C223 2.882 . S
U206 O224 2.441 . S
U206 O225 2.420 . S
U206 O226 2.455 . S
U206 O227 2.449 . S
O207 U206 2.454 . S
O207 C209 1.353 . S
O208 U206 2.458 . S
O208 C209 1.286 . S
C209 U206 2.984 . S
C209 O207 1.353 . S
C209 O208 1.286 . S
C209 C211 1.363 . S
C210 C200 1.465 . S
C210 U206 2.847 . S
C210 O224 1.249 . S
C210 O225 1.202 . S
C211 C209 1.363 . S
C211 C213 1.408 . S
C211 C216 1.342 . S
C212 C213 1.310 . S
C212 C215 1.461 . S
C212 H232 0.932 . S
C213 C211 1.408 . S
C213 C212 1.310 . S
C213 H233 0.930 . S
C214 C215 1.474 . S
C214 C216 1.285 . S
C214 H234 0.929 . S
C215 C212 1.461 . S
C215 C214 1.474 . S
C216 C211 1.342 . S
C216 C214 1.285 . S
C216 H235 0.930 . S
C217 C220 1.424 . S
C217 C222 1.245 . S
C217 C223 1.428 . S
C218 C221 1.260 . S
C218 C222 1.477 . S
C218 H236 0.932 . S
C219 C220 1.384 . S
C219 C221 1.479 . S
C219 H237 0.929 . S
C220 C217 1.424 . S
C220 C219 1.384 . S
C220 H238 0.928 . S
C221 C218 1.260 . S
C221 C219 1.479 . S
C222 C217 1.245 . S
C222 C218 1.477 . S
C222 H239 0.932 . S
C223 U206 2.882 . S
C223 C217 1.428 . S
C223 O226 1.301 . S
C223 O227 1.282 . S
O224 U206 2.441 . S
O224 C210 1.249 . S
O225 U206 2.420 . S
O225 C210 1.202 . S
O226 U206 2.455 . S
O226 C223 1.301 . S
O227 U206 2.449 . S
O227 C223 1.282 . S
H228 C201 0.931 . S
H229 C203 0.929 . S
H230 C204 0.930 . S
H231 C205 0.931 . S
H232 C212 0.932 . S
H233 C213 0.930 . S
H234 C214 0.929 . S
H235 C216 0.930 . S
H236 C218 0.932 . S
H237 C219 0.929 . S
H238 C220 0.928 . S
H239 C222 0.932 . S
C240 C241 1.264 . S
C240 C245 1.479 . S
C240 C250 1.465 . S
C241 C240 1.264 . S
C241 C243 1.339 . S
C241 H268 0.931 . S
C242 C243 1.395 . S
C242 C244 1.320 . S
C243 C241 1.339 . S
C243 C242 1.395 . S
C243 H269 0.929 . S
C244 C242 1.320 . S
C244 C245 1.405 . S
C244 H270 0.930 . S
C245 C240 1.479 . S
C245 C244 1.405 . S
C245 H271 0.931 . S
U246 O247 2.454 . S
U246 O248 2.458 . S
U246 C249 2.984 . S
U246 C250 2.847 . S
U246 C263 2.882 . S
U246 O264 2.441 . S
U246 O265 2.420 . S
U246 O266 2.455 . S
U246 O267 2.449 . S
O247 U246 2.454 . S
O247 C249 1.353 . S
O248 U246 2.458 . S
O248 C249 1.286 . S
C249 U246 2.984 . S
C249 O247 1.353 . S
C249 O248 1.286 . S
C249 C251 1.363 . S
C250 C240 1.465 . S
C250 U246 2.847 . S
C250 O264 1.249 . S
C250 O265 1.202 . S
C251 C249 1.363 . S
C251 C253 1.408 . S
C251 C256 1.342 . S
C252 C253 1.310 . S
C252 C255 1.461 . S
C252 H272 0.932 . S
C253 C251 1.408 . S
C253 C252 1.310 . S
C253 H273 0.930 . S
C254 C255 1.474 . S
C254 C256 1.285 . S
C254 H274 0.929 . S
C255 C252 1.461 . S
C255 C254 1.474 . S
C256 C251 1.342 . S
C256 C254 1.285 . S
C256 H275 0.930 . S
C257 C260 1.424 . S
C257 C262 1.245 . S
C257 C263 1.428 . S
C258 C261 1.260 . S
C258 C262 1.477 . S
C258 H276 0.932 . S
C259 C260 1.384 . S
C259 C261 1.479 . S
C259 H277 0.929 . S
C260 C257 1.424 . S
C260 C259 1.384 . S
C260 H278 0.928 . S
C261 C258 1.260 . S
C261 C259 1.479 . S
C262 C257 1.245 . S
C262 C258 1.477 . S
C262 H279 0.932 . S
C263 U246 2.882 . S
C263 C257 1.428 . S
C263 O266 1.301 . S
C263 O267 1.282 . S
O264 U246 2.441 . S
O264 C250 1.249 . S
O265 U246 2.420 . S
O265 C250 1.202 . S
O266 U246 2.455 . S
O266 C263 1.301 . S
O267 U246 2.449 . S
O267 C263 1.282 . S
H268 C241 0.931 . S
H269 C243 0.929 . S
H270 C244 0.930 . S
H271 C245 0.931 . S
H272 C252 0.932 . S
H273 C253 0.930 . S
H274 C254 0.929 . S
H275 C256 0.930 . S
H276 C258 0.932 . S
H277 C259 0.929 . S
H278 C260 0.928 . S
H279 C262 0.932 . S
C280 C281 1.264 . S
C280 C285 1.479 . S
C280 C290 1.465 . S
C281 C280 1.264 . S
C281 C283 1.339 . S
C281 H308 0.931 . S
C282 C283 1.395 . S
C282 C284 1.320 . S
C283 C281 1.339 . S
C283 C282 1.395 . S
C283 H309 0.929 . S
C284 C282 1.320 . S
C284 C285 1.405 . S
C284 H310 0.930 . S
C285 C280 1.479 . S
C285 C284 1.405 . S
C285 H311 0.931 . S
U286 O287 2.454 . S
U286 O288 2.458 . S
U286 C289 2.984 . S
U286 C290 2.847 . S
U286 C303 2.882 . S
U286 O304 2.441 . S
U286 O305 2.420 . S
U286 O306 2.455 . S
U286 O307 2.449 . S
O287 U286 2.454 . S
O287 C289 1.353 . S
O288 U286 2.458 . S
O288 C289 1.286 . S
C289 U286 2.984 . S
C289 O287 1.353 . S
C289 O288 1.286 . S
C289 C291 1.363 . S
C290 C280 1.465 . S
C290 U286 2.847 . S
C290 O304 1.249 . S
C290 O305 1.202 . S
C291 C289 1.363 . S
C291 C293 1.408 . S
C291 C296 1.342 . S
C292 C293 1.310 . S
C292 C295 1.461 . S
C292 H312 0.932 . S
C293 C291 1.408 . S
C293 C292 1.310 . S
C293 H313 0.930 . S
C294 C295 1.474 . S
C294 C296 1.285 . S
C294 H314 0.929 . S
C295 C292 1.461 . S
C295 C294 1.474 . S
C296 C291 1.342 . S
C296 C294 1.285 . S
C296 H315 0.930 . S
C297 C300 1.424 . S
C297 C302 1.245 . S
C297 C303 1.428 . S
C298 C301 1.260 . S
C298 C302 1.477 . S
C298 H316 0.932 . S
C299 C300 1.384 . S
C299 C301 1.479 . S
C299 H317 0.929 . S
C300 C297 1.424 . S
C300 C299 1.384 . S
C300 H318 0.928 . S
C301 C298 1.260 . S
C301 C299 1.479 . S
C302 C297 1.245 . S
C302 C298 1.477 . S
C302 H319 0.932 . S
C303 U286 2.882 . S
C303 C297 1.428 . S
C303 O306 1.301 . S
C303 O307 1.282 . S
O304 U286 2.441 . S
O304 C290 1.249 . S
O305 U286 2.420 . S
O305 C290 1.202 . S
O306 U286 2.455 . S
O306 C303 1.301 . S
O307 U286 2.449 . S
O307 C303 1.282 . S
H308 C281 0.931 . S
H309 C283 0.929 . S
H310 C284 0.930 . S
H311 C285 0.931 . S
H312 C292 0.932 . S
H313 C293 0.930 . S
H314 C294 0.929 . S
H315 C296 0.930 . S
H316 C298 0.932 . S
H317 C299 0.929 . S
H318 C300 0.928 . S
H319 C302 0.932 . S
C320 C321 1.264 . S
C320 C325 1.479 . S
C320 C330 1.465 . S
C321 C320 1.264 . S
C321 C323 1.339 . S
C321 H348 0.931 . S
C322 C323 1.395 . S
C322 C324 1.320 . S
C323 C321 1.339 . S
C323 C322 1.395 . S
C323 H349 0.929 . S
C324 C322 1.320 . S
C324 C325 1.405 . S
C324 H350 0.930 . S
C325 C320 1.479 . S
C325 C324 1.405 . S
C325 H351 0.931 . S
U326 O327 2.454 . S
U326 O328 2.458 . S
U326 C329 2.984 . S
U326 C330 2.847 . S
U326 C343 2.882 . S
U326 O344 2.441 . S
U326 O345 2.420 . S
U326 O346 2.455 . S
U326 O347 2.449 . S
O327 U326 2.454 . S
O327 C329 1.353 . S
O328 U326 2.458 . S
O328 C329 1.286 . S
C329 U326 2.984 . S
C329 O327 1.353 . S
C329 O328 1.286 . S
C329 C331 1.363 . S
C330 C320 1.465 . S
C330 U326 2.847 . S
C330 O344 1.249 . S
C330 O345 1.202 . S
C331 C329 1.363 . S
C331 C333 1.408 . S
C331 C336 1.342 . S
C332 C333 1.310 . S
C332 C335 1.461 . S
C332 H352 0.932 . S
C333 C331 1.408 . S
C333 C332 1.310 . S
C333 H353 0.930 . S
C334 C335 1.474 . S
C334 C336 1.285 . S
C334 H354 0.929 . S
C335 C332 1.461 . S
C335 C334 1.474 . S
C336 C331 1.342 . S
C336 C334 1.285 . S
C336 H355 0.930 . S
C337 C340 1.424 . S
C337 C342 1.245 . S
C337 C343 1.428 . S
C338 C341 1.260 . S
C338 C342 1.477 . S
C338 H356 0.932 . S
C339 C340 1.384 . S
C339 C341 1.479 . S
C339 H357 0.929 . S
C340 C337 1.424 . S
C340 C339 1.384 . S
C340 H358 0.928 . S
C341 C338 1.260 . S
C341 C339 1.479 . S
C342 C337 1.245 . S
C342 C338 1.477 . S
C342 H359 0.932 . S
C343 U326 2.882 . S
C343 C337 1.428 . S
C343 O346 1.301 . S
C343 O347 1.282 . S
O344 U326 2.441 . S
O344 C330 1.249 . S
O345 U326 2.420 . S
O345 C330 1.202 . S
O346 U326 2.455 . S
O346 C343 1.301 . S
O347 U326 2.449 . S
O347 C343 1.282 . S
H348 C321 0.931 . S
H349 C323 0.929 . S
H350 C324 0.930 . S
H351 C325 0.931 . S
H352 C332 0.932 . S
H353 C333 0.930 . S
H354 C334 0.929 . S
H355 C336 0.930 . S
H356 C338 0.932 . S
H357 C339 0.929 . S
H358 C340 0.928 . S
H359 C342 0.932 . S
C360 C361 1.264 . S
C360 C365 1.479 . S
C360 C370 1.465 . S
C361 C360 1.264 . S
C361 C363 1.339 . S
C361 H388 0.931 . S
C362 C363 1.395 . S
C362 C364 1.320 . S
C363 C361 1.339 . S
C363 C362 1.395 . S
C363 H389 0.929 . S
C364 C362 1.320 . S
C364 C365 1.405 . S
C364 H390 0.930 . S
C365 C360 1.479 . S
C365 C364 1.405 . S
C365 H391 0.931 . S
U366 O367 2.454 . S
U366 O368 2.458 . S
U366 C369 2.984 . S
U366 C370 2.847 . S
U366 C383 2.882 . S
U366 O384 2.441 . S
U366 O385 2.420 . S
U366 O386 2.455 . S
U366 O387 2.449 . S
O367 U366 2.454 . S
O367 C369 1.353 . S
O368 U366 2.458 . S
O368 C369 1.286 . S
C369 U366 2.984 . S
C369 O367 1.353 . S
C369 O368 1.286 . S
C369 C371 1.363 . S
C370 C360 1.465 . S
C370 U366 2.847 . S
C370 O384 1.249 . S
C370 O385 1.202 . S
C371 C369 1.363 . S
C371 C373 1.408 . S
C371 C376 1.342 . S
C372 C373 1.310 . S
C372 C375 1.461 . S
C372 H392 0.932 . S
C373 C371 1.408 . S
C373 C372 1.310 . S
C373 H393 0.930 . S
C374 C375 1.474 . S
C374 C376 1.285 . S
C374 H394 0.929 . S
C375 C372 1.461 . S
C375 C374 1.474 . S
C376 C371 1.342 . S
C376 C374 1.285 . S
C376 H395 0.930 . S
C377 C380 1.424 . S
C377 C382 1.245 . S
C377 C383 1.428 . S
C378 C381 1.260 . S
C378 C382 1.477 . S
C378 H396 0.932 . S
C379 C380 1.384 . S
C379 C381 1.479 . S
C379 H397 0.929 . S
C380 C377 1.424 . S
C380 C379 1.384 . S
C380 H398 0.928 . S
C381 C378 1.260 . S
C381 C379 1.479 . S
C382 C377 1.245 . S
C382 C378 1.477 . S
C382 H399 0.932 . S
C383 U366 2.882 . S
C383 C377 1.428 . S
C383 O386 1.301 . S
C383 O387 1.282 . S
O384 U366 2.441 . S
O384 C370 1.249 . S
O385 U366 2.420 . S
O385 C370 1.202 . S
O386 U366 2.455 . S
O386 C383 1.301 . S
O387 U366 2.449 . S
O387 C383 1.282 . S
H388 C361 0.931 . S
H389 C363 0.929 . S
H390 C364 0.930 . S
H391 C365 0.931 . S
H392 C372 0.932 . S
H393 C373 0.930 . S
H394 C374 0.929 . S
H395 C376 0.930 . S
H396 C378 0.932 . S
H397 C379 0.929 . S
H398 C380 0.928 . S
H399 C382 0.932 . S
C400 C401 1.264 . S
C400 C405 1.479 . S
C400 C410 1.465 . S
C401 C400 1.264 . S
C401 C403 1.339 . S
C401 H428 0.931 . S
C402 C403 1.395 . S
C402 C404 1.320 . S
C403 C401 1.339 . S
C403 C402 1.395 . S
C403 H429 0.929 . S
C404 C402 1.320 . S
C404 C405 1.405 . S
C404 H430 0.930 . S
C405 C400 1.479 . S
C405 C404 1.405 . S
C405 H431 0.931 . S
U406 O407 2.454 . S
U406 O408 2.458 . S
U406 C409 2.984 . S
U406 C410 2.847 . S
U406 C423 2.882 . S
U406 O424 2.441 . S
U406 O425 2.420 . S
U406 O426 2.455 . S
U406 O427 2.449 . S
O407 U406 2.454 . S
O407 C409 1.353 . S
O408 U406 2.458 . S
O408 C409 1.286 . S
C409 U406 2.984 . S
C409 O407 1.353 . S
C409 O408 1.286 . S
C409 C411 1.363 . S
C410 C400 1.465 . S
C410 U406 2.847 . S
C410 O424 1.249 . S
C410 O425 1.202 . S
C411 C409 1.363 . S
C411 C413 1.408 . S
C411 C416 1.342 . S
C412 C413 1.310 . S
C412 C415 1.461 . S
C412 H432 0.932 . S
C413 C411 1.408 . S
C413 C412 1.310 . S
C413 H433 0.930 . S
C414 C415 1.474 . S
C414 C416 1.285 . S
C414 H434 0.929 . S
C415 C412 1.461 . S
C415 C414 1.474 . S
C416 C411 1.342 . S
C416 C414 1.285 . S
C416 H435 0.930 . S
C417 C420 1.424 . S
C417 C422 1.245 . S
C417 C423 1.428 . S
C418 C421 1.260 . S
C418 C422 1.477 . S
C418 H436 0.932 . S
C419 C420 1.384 . S
C419 C421 1.479 . S
C419 H437 0.929 . S
C420 C417 1.424 . S
C420 C419 1.384 . S
C420 H438 0.928 . S
C421 C418 1.260 . S
C421 C419 1.479 . S
C422 C417 1.245 . S
C422 C418 1.477 . S
C422 H439 0.932 . S
C423 U406 2.882 . S
C423 C417 1.428 . S
C423 O426 1.301 . S
C423 O427 1.282 . S
O424 U406 2.441 . S
O424 C410 1.249 . S
O425 U406 2.420 . S
O425 C410 1.202 . S
O426 U406 2.455 . S
O426 C423 1.301 . S
O427 U406 2.449 . S
O427 C423 1.282 . S
H428 C401 0.931 . S
H429 C403 0.929 . S
H430 C404 0.930 . S
H431 C405 0.931 . S
H432 C412 0.932 . S
H433 C413 0.930 . S
H434 C414 0.929 . S
H435 C416 0.930 . S
H436 C418 0.932 . S
H437 C419 0.929 . S
H438 C420 0.928 . S
H439 C422 0.932 . S
C440 C441 1.264 . S
C440 C445 1.479 . S
C440 C450 1.465 . S
C441 C440 1.264 . S
C441 C443 1.339 . S
C441 H468 0.931 . S
C442 C443 1.395 . S
C442 C444 1.320 . S
C443 C441 1.339 . S
C443 C442 1.395 . S
C443 H469 0.929 . S
C444 C442 1.320 . S
C444 C445 1.405 . S
C444 H470 0.930 . S
C445 C440 1.479 . S
C445 C444 1.405 . S
C445 H471 0.931 . S
U446 O447 2.454 . S
U446 O448 2.458 . S
U446 C449 2.984 . S
U446 C450 2.847 . S
U446 C463 2.882 . S
U446 O464 2.441 . S
U446 O465 2.420 . S
U446 O466 2.455 . S
U446 O467 2.449 . S
O447 U446 2.454 . S
O447 C449 1.353 . S
O448 U446 2.458 . S
O448 C449 1.286 . S
C449 U446 2.984 . S
C449 O447 1.353 . S
C449 O448 1.286 . S
C449 C451 1.363 . S
C450 C440 1.465 . S
C450 U446 2.847 . S
C450 O464 1.249 . S
C450 O465 1.202 . S
C451 C449 1.363 . S
C451 C453 1.408 . S
C451 C456 1.342 . S
C452 C453 1.310 . S
C452 C455 1.461 . S
C452 H472 0.932 . S
C453 C451 1.408 . S
C453 C452 1.310 . S
C453 H473 0.930 . S
C454 C455 1.474 . S
C454 C456 1.285 . S
C454 H474 0.929 . S
C455 C452 1.461 . S
C455 C454 1.474 . S
C456 C451 1.342 . S
C456 C454 1.285 . S
C456 H475 0.930 . S
C457 C460 1.424 . S
C457 C462 1.245 . S
C457 C463 1.428 . S
C458 C461 1.260 . S
C458 C462 1.477 . S
C458 H476 0.932 . S
C459 C460 1.384 . S
C459 C461 1.479 . S
C459 H477 0.929 . S
C460 C457 1.424 . S
C460 C459 1.384 . S
C460 H478 0.928 . S
C461 C458 1.260 . S
C461 C459 1.479 . S
C462 C457 1.245 . S
C462 C458 1.477 . S
C462 H479 0.932 . S
C463 U446 2.882 . S
C463 C457 1.428 . S
C463 O466 1.301 . S
C463 O467 1.282 . S
O464 U446 2.441 . S
O464 C450 1.249 . S
O465 U446 2.420 . S
O465 C450 1.202 . S
O466 U446 2.455 . S
O466 C463 1.301 . S
O467 U446 2.449 . S
O467 C463 1.282 . S
H468 C441 0.931 . S
H469 C443 0.929 . S
H470 C444 0.930 . S
H471 C445 0.931 . S
H472 C452 0.932 . S
H473 C453 0.930 . S
H474 C454 0.929 . S
H475 C456 0.930 . S
H476 C458 0.932 . S
H477 C459 0.929 . S
H478 C460 0.928 . S
H479 C462 0.932 . S
C480 C481 1.264 . S
C480 C485 1.479 . S
C480 C490 1.465 . S
C481 C480 1.264 . S
C481 C483 1.339 . S
C481 H508 0.931 . S
C482 C483 1.395 . S
C482 C484 1.320 . S
C483 C481 1.339 . S
C483 C482 1.395 . S
C483 H509 0.929 . S
C484 C482 1.320 . S
C484 C485 1.405 . S
C484 H510 0.930 . S
C485 C480 1.479 . S
C485 C484 1.405 . S
C485 H511 0.931 . S
U486 O487 2.454 . S
U486 O488 2.458 . S
U486 C489 2.984 . S
U486 C490 2.847 . S
U486 C503 2.882 . S
U486 O504 2.441 . S
U486 O505 2.420 . S
U486 O506 2.455 . S
U486 O507 2.449 . S
O487 U486 2.454 . S
O487 C489 1.353 . S
O488 U486 2.458 . S
O488 C489 1.286 . S
C489 U486 2.984 . S
C489 O487 1.353 . S
C489 O488 1.286 . S
C489 C491 1.363 . S
C490 C480 1.465 . S
C490 U486 2.847 . S
C490 O504 1.249 . S
C490 O505 1.202 . S
C491 C489 1.363 . S
C491 C493 1.408 . S
C491 C496 1.342 . S
C492 C493 1.310 . S
C492 C495 1.461 . S
C492 H512 0.932 . S
C493 C491 1.408 . S
C493 C492 1.310 . S
C493 H513 0.930 . S
C494 C495 1.474 . S
C494 C496 1.285 . S
C494 H514 0.929 . S
C495 C492 1.461 . S
C495 C494 1.474 . S
C496 C491 1.342 . S
C496 C494 1.285 . S
C496 H515 0.930 . S
C497 C500 1.424 . S
C497 C502 1.245 . S
C497 C503 1.428 . S
C498 C501 1.260 . S
C498 C502 1.477 . S
C498 H516 0.932 . S
C499 C500 1.384 . S
C499 C501 1.479 . S
C499 H517 0.929 . S
C500 C497 1.424 . S
C500 C499 1.384 . S
C500 H518 0.928 . S
C501 C498 1.260 . S
C501 C499 1.479 . S
C502 C497 1.245 . S
C502 C498 1.477 . S
C502 H519 0.932 . S
C503 U486 2.882 . S
C503 C497 1.428 . S
C503 O506 1.301 . S
C503 O507 1.282 . S
O504 U486 2.441 . S
O504 C490 1.249 . S
O505 U486 2.420 . S
O505 C490 1.202 . S
O506 U486 2.455 . S
O506 C503 1.301 . S
O507 U486 2.449 . S
O507 C503 1.282 . S
H508 C481 0.931 . S
H509 C483 0.929 . S
H510 C484 0.930 . S
H511 C485 0.931 . S
H512 C492 0.932 . S
H513 C493 0.930 . S
H514 C494 0.929 . S
H515 C496 0.930 . S
H516 C498 0.932 . S
H517 C499 0.929 . S
H518 C500 0.928 . S
H519 C502 0.932 . S
C520 C521 1.264 . S
C520 C525 1.479 . S
C520 C530 1.465 . S
C521 C520 1.264 . S
C521 C523 1.339 . S
C521 H548 0.931 . S
C522 C523 1.395 . S
C522 C524 1.320 . S
C523 C521 1.339 . S
C523 C522 1.395 . S
C523 H549 0.929 . S
C524 C522 1.320 . S
C524 C525 1.405 . S
C524 H550 0.930 . S
C525 C520 1.479 . S
C525 C524 1.405 . S
C525 H551 0.931 . S
U526 O527 2.454 . S
U526 O528 2.458 . S
U526 C529 2.984 . S
U526 C530 2.847 . S
U526 C543 2.882 . S
U526 O544 2.441 . S
U526 O545 2.420 . S
U526 O546 2.455 . S
U526 O547 2.449 . S
O527 U526 2.454 . S
O527 C529 1.353 . S
O528 U526 2.458 . S
O528 C529 1.286 . S
C529 U526 2.984 . S
C529 O527 1.353 . S
C529 O528 1.286 . S
C529 C531 1.363 . S
C530 C520 1.465 . S
C530 U526 2.847 . S
C530 O544 1.249 . S
C530 O545 1.202 . S
C531 C529 1.363 . S
C531 C533 1.408 . S
C531 C536 1.342 . S
C532 C533 1.310 . S
C532 C535 1.461 . S
C532 H552 0.932 . S
C533 C531 1.408 . S
C533 C532 1.310 . S
C533 H553 0.930 . S
C534 C535 1.474 . S
C534 C536 1.285 . S
C534 H554 0.929 . S
C535 C532 1.461 . S
C535 C534 1.474 . S
C536 C531 1.342 . S
C536 C534 1.285 . S
C536 H555 0.930 . S
C537 C540 1.424 . S
C537 C542 1.245 . S
C537 C543 1.428 . S
C538 C541 1.260 . S
C538 C542 1.477 . S
C538 H556 0.932 . S
C539 C540 1.384 . S
C539 C541 1.479 . S
C539 H557 0.929 . S
C540 C537 1.424 . S
C540 C539 1.384 . S
C540 H558 0.928 . S
C541 C538 1.260 . S
C541 C539 1.479 . S
C542 C537 1.245 . S
C542 C538 1.477 . S
C542 H559 0.932 . S
C543 U526 2.882 . S
C543 C537 1.428 . S
C543 O546 1.301 . S
C543 O547 1.282 . S
O544 U526 2.441 . S
O544 C530 1.249 . S
O545 U526 2.420 . S
O545 C530 1.202 . S
O546 U526 2.455 . S
O546 C543 1.301 . S
O547 U526 2.449 . S
O547 C543 1.282 . S
H548 C521 0.931 . S
H549 C523 0.929 . S
H550 C524 0.930 . S
H551 C525 0.931 . S
H552 C532 0.932 . S
H553 C533 0.930 . S
H554 C534 0.929 . S
H555 C536 0.930 . S
H556 C538 0.932 . S
H557 C539 0.929 . S
H558 C540 0.928 . S
H559 C542 0.932 . S
C560 C561 1.264 . S
C560 C565 1.479 . S
C560 C570 1.465 . S
C561 C560 1.264 . S
C561 C563 1.339 . S
C561 H588 0.931 . S
C562 C563 1.395 . S
C562 C564 1.320 . S
C563 C561 1.339 . S
C563 C562 1.395 . S
C563 H589 0.929 . S
C564 C562 1.320 . S
C564 C565 1.405 . S
C564 H590 0.930 . S
C565 C560 1.479 . S
C565 C564 1.405 . S
C565 H591 0.931 . S
U566 O567 2.454 . S
U566 O568 2.458 . S
U566 C569 2.984 . S
U566 C570 2.847 . S
U566 C583 2.882 . S
U566 O584 2.441 . S
U566 O585 2.420 . S
U566 O586 2.455 . S
U566 O587 2.449 . S
O567 U566 2.454 . S
O567 C569 1.353 . S
O568 U566 2.458 . S
O568 C569 1.286 . S
C569 U566 2.984 . S
C569 O567 1.353 . S
C569 O568 1.286 . S
C569 C571 1.363 . S
C570 C560 1.465 . S
C570 U566 2.847 . S
C570 O584 1.249 . S
C570 O585 1.202 . S
C571 C569 1.363 . S
C571 C573 1.408 . S
C571 C576 1.342 . S
C572 C573 1.310 . S
C572 C575 1.461 . S
C572 H592 0.932 . S
C573 C571 1.408 . S
C573 C572 1.310 . S
C573 H593 0.930 . S
C574 C575 1.474 . S
C574 C576 1.285 . S
C574 H594 0.929 . S
C575 C572 1.461 . S
C575 C574 1.474 . S
C576 C571 1.342 . S
C576 C574 1.285 . S
C576 H595 0.930 . S
C577 C580 1.424 . S
C577 C582 1.245 . S
C577 C583 1.428 . S
C578 C581 1.260 . S
C578 C582 1.477 . S
C578 H596 0.932 . S
C579 C580 1.384 . S
C579 C581 1.479 . S
C579 H597 0.929 . S
C580 C577 1.424 . S
C580 C579 1.384 . S
C580 H598 0.928 . S
C581 C578 1.260 . S
C581 C579 1.479 . S
C582 C577 1.245 . S
C582 C578 1.477 . S
C582 H599 0.932 . S
C583 U566 2.882 . S
C583 C577 1.428 . S
C583 O586 1.301 . S
C583 O587 1.282 . S
O584 U566 2.441 . S
O584 C570 1.249 . S
O585 U566 2.420 . S
O585 C570 1.202 . S
O586 U566 2.455 . S
O586 C583 1.301 . S
O587 U566 2.449 . S
O587 C583 1.282 . S
H588 C561 0.931 . S
H589 C563 0.929 . S
H590 C564 0.930 . S
H591 C565 0.931 . S
H592 C572 0.932 . S
H593 C573 0.930 . S
H594 C574 0.929 . S
H595 C576 0.930 . S
H596 C578 0.932 . S
H597 C579 0.929 . S
H598 C580 0.928 . S
H599 C582 0.932 . S
C600 C601 1.264 . S
C600 C605 1.479 . S
C600 C610 1.465 . S
C601 C600 1.264 . S
C601 C603 1.339 . S
C601 H628 0.931 . S
C602 C603 1.395 . S
C602 C604 1.320 . S
C603 C601 1.339 . S
C603 C602 1.395 . S
C603 H629 0.929 . S
C604 C602 1.320 . S
C604 C605 1.405 . S
C604 H630 0.930 . S
C605 C600 1.479 . S
C605 C604 1.405 . S
C605 H631 0.931 . S
U606 O607 2.454 . S
U606 O608 2.458 . S
U606 C609 2.984 . S
U606 C610 2.847 . S
U606 C623 2.882 . S
U606 O624 2.441 . S
U606 O625 2.420 . S
U606 O626 2.455 . S
U606 O627 2.449 . S
O607 U606 2.454 . S
O607 C609 1.353 . S
O608 U606 2.458 . S
O608 C609 1.286 . S
C609 U606 2.984 . S
C609 O607 1.353 . S
C609 O608 1.286 . S
C609 C611 1.363 . S
C610 C600 1.465 . S
C610 U606 2.847 . S
C610 O624 1.249 . S
C610 O625 1.202 . S
C611 C609 1.363 . S
C611 C613 1.408 . S
C611 C616 1.342 . S
C612 C613 1.310 . S
C612 C615 1.461 . S
C612 H632 0.932 . S
C613 C611 1.408 . S
C613 C612 1.310 . S
C613 H633 0.930 . S
C614 C615 1.474 . S
C614 C616 1.285 . S
C614 H634 0.929 . S
C615 C612 1.461 . S
C615 C614 1.474 . S
C616 C611 1.342 . S
C616 C614 1.285 . S
C616 H635 0.930 . S
C617 C620 1.424 . S
C617 C622 1.245 . S
C617 C623 1.428 . S
C618 C621 1.260 . S
C618 C622 1.477 . S
C618 H636 0.932 . S
C619 C620 1.384 . S
C619 C621 1.479 . S
C619 H637 0.929 . S
C620 C617 1.424 . S
C620 C619 1.384 . S
C620 H638 0.928 . S
C621 C618 1.260 . S
C621 C619 1.479 . S
C622 C617 1.245 . S
C622 C618 1.477 . S
C622 H639 0.932 . S
C623 U606 2.882 . S
C623 C617 1.428 . S
C623 O626 1.301 . S
C623 O627 1.282 . S
O624 U606 2.441 . S
O624 C610 1.249 . S
O625 U606 2.420 . S
O625 C610 1.202 . S
O626 U606 2.455 . S
O626 C623 1.301 . S
O627 U606 2.449 . S
O627 C623 1.282 . S
H628 C601 0.931 . S
H629 C603 0.929 . S
H630 C604 0.930 . S
H631 C605 0.931 . S
H632 C612 0.932 . S
H633 C613 0.930 . S
H634 C614 0.929 . S
H635 C616 0.930 . S
H636 C618 0.932 . S
H637 C619 0.929 . S
H638 C620 0.928 . S
H639 C622 0.932 . S
C640 C641 1.264 . S
C640 C645 1.479 . S
C640 C650 1.465 . S
C641 C640 1.264 . S
C641 C643 1.339 . S
C641 H668 0.931 . S
C642 C643 1.395 . S
C642 C644 1.320 . S
C643 C641 1.339 . S
C643 C642 1.395 . S
C643 H669 0.929 . S
C644 C642 1.320 . S
C644 C645 1.405 . S
C644 H670 0.930 . S
C645 C640 1.479 . S
C645 C644 1.405 . S
C645 H671 0.931 . S
U646 O647 2.454 . S
U646 O648 2.458 . S
U646 C649 2.984 . S
U646 C650 2.847 . S
U646 C663 2.882 . S
U646 O664 2.441 . S
U646 O665 2.420 . S
U646 O666 2.455 . S
U646 O667 2.449 . S
O647 U646 2.454 . S
O647 C649 1.353 . S
O648 U646 2.458 . S
O648 C649 1.286 . S
C649 U646 2.984 . S
C649 O647 1.353 . S
C649 O648 1.286 . S
C649 C651 1.363 . S
C650 C640 1.465 . S
C650 U646 2.847 . S
C650 O664 1.249 . S
C650 O665 1.202 . S
C651 C649 1.363 . S
C651 C653 1.408 . S
C651 C656 1.342 . S
C652 C653 1.310 . S
C652 C655 1.461 . S
C652 H672 0.932 . S
C653 C651 1.408 . S
C653 C652 1.310 . S
C653 H673 0.930 . S
C654 C655 1.474 . S
C654 C656 1.285 . S
C654 H674 0.929 . S
C655 C652 1.461 . S
C655 C654 1.474 . S
C656 C651 1.342 . S
C656 C654 1.285 . S
C656 H675 0.930 . S
C657 C660 1.424 . S
C657 C662 1.245 . S
C657 C663 1.428 . S
C658 C661 1.260 . S
C658 C662 1.477 . S
C658 H676 0.932 . S
C659 C660 1.384 . S
C659 C661 1.479 . S
C659 H677 0.929 . S
C660 C657 1.424 . S
C660 C659 1.384 . S
C660 H678 0.928 . S
C661 C658 1.260 . S
C661 C659 1.479 . S
C662 C657 1.245 . S
C662 C658 1.477 . S
C662 H679 0.932 . S
C663 U646 2.882 . S
C663 C657 1.428 . S
C663 O666 1.301 . S
C663 O667 1.282 . S
O664 U646 2.441 . S
O664 C650 1.249 . S
O665 U646 2.420 . S
O665 C650 1.202 . S
O666 U646 2.455 . S
O666 C663 1.301 . S
O667 U646 2.449 . S
O667 C663 1.282 . S
H668 C641 0.931 . S
H669 C643 0.929 . S
H670 C644 0.930 . S
H671 C645 0.931 . S
H672 C652 0.932 . S
H673 C653 0.930 . S
H674 C654 0.929 . S
H675 C656 0.930 . S
H676 C658 0.932 . S
H677 C659 0.929 . S
H678 C660 0.928 . S
H679 C662 0.932 . S
C680 C681 1.264 . S
C680 C685 1.479 . S
C680 C690 1.465 . S
C681 C680 1.264 . S
C681 C683 1.339 . S
C681 H708 0.931 . S
C682 C683 1.395 . S
C682 C684 1.320 . S
C683 C681 1.339 . S
C683 C682 1.395 . S
C683 H709 0.929 . S
C684 C682 1.320 . S
C684 C685 1.405 . S
C684 H710 0.930 . S
C685 C680 1.479 . S
C685 C684 1.405 . S
C685 H711 0.931 . S
U686 O687 2.454 . S
U686 O688 2.458 . S
U686 C689 2.984 . S
U686 C690 2.847 . S
U686 C703 2.882 . S
U686 O704 2.441 . S
U686 O705 2.420 . S
U686 O706 2.455 . S
U686 O707 2.449 . S
O687 U686 2.454 . S
O687 C689 1.353 . S
O688 U686 2.458 . S
O688 C689 1.286 . S
C689 U686 2.984 . S
C689 O687 1.353 . S
C689 O688 1.286 . S
C689 C691 1.363 . S
C690 C680 1.465 . S
C690 U686 2.847 . S
C690 O704 1.249 . S
C690 O705 1.202 . S
C691 C689 1.363 . S
C691 C693 1.408 . S
C691 C696 1.342 . S
C692 C693 1.310 . S
C692 C695 1.461 . S
C692 H712 0.932 . S
C693 C691 1.408 . S
C693 C692 1.310 . S
C693 H713 0.930 . S
C694 C695 1.474 . S
C694 C696 1.285 . S
C694 H714 0.929 . S
C695 C692 1.461 . S
C695 C694 1.474 . S
C696 C691 1.342 . S
C696 C694 1.285 . S
C696 H715 0.930 . S
C697 C700 1.424 . S
C697 C702 1.245 . S
C697 C703 1.428 . S
C698 C701 1.260 . S
C698 C702 1.477 . S
C698 H716 0.932 . S
C699 C700 1.384 . S
C699 C701 1.479 . S
C699 H717 0.929 . S
C700 C697 1.424 . S
C700 C699 1.384 . S
C700 H718 0.928 . S
C701 C698 1.260 . S
C701 C699 1.479 . S
C702 C697 1.245 . S
C702 C698 1.477 . S
C702 H719 0.932 . S
C703 U686 2.882 . S
C703 C697 1.428 . S
C703 O706 1.301 . S
C703 O707 1.282 . S
O704 U686 2.441 . S
O704 C690 1.249 . S
O705 U686 2.420 . S
O705 C690 1.202 . S
O706 U686 2.455 . S
O706 C703 1.301 . S
O707 U686 2.449 . S
O707 C703 1.282 . S
H708 C681 0.931 . S
H709 C683 0.929 . S
H710 C684 0.930 . S
H711 C685 0.931 . S
H712 C692 0.932 . S
H713 C693 0.930 . S
H714 C694 0.929 . S
H715 C696 0.930 . S
H716 C698 0.932 . S
H717 C699 0.929 . S
H718 C700 0.928 . S
H719 C702 0.932 . S
C720 C721 1.264 . S
C720 C725 1.479 . S
C720 C730 1.465 . S
C721 C720 1.264 . S
C721 C723 1.339 . S
C721 H748 0.931 . S
C722 C723 1.395 . S
C722 C724 1.320 . S
C723 C721 1.339 . S
C723 C722 1.395 . S
C723 H749 0.929 . S
C724 C722 1.320 . S
C724 C725 1.405 . S
C724 H750 0.930 . S
C725 C720 1.479 . S
C725 C724 1.405 . S
C725 H751 0.931 . S
U726 O727 2.454 . S
U726 O728 2.458 . S
U726 C729 2.984 . S
U726 C730 2.847 . S
U726 C743 2.882 . S
U726 O744 2.441 . S
U726 O745 2.420 . S
U726 O746 2.455 . S
U726 O747 2.449 . S
O727 U726 2.454 . S
O727 C729 1.353 . S
O728 U726 2.458 . S
O728 C729 1.286 . S
C729 U726 2.984 . S
C729 O727 1.353 . S
C729 O728 1.286 . S
C729 C731 1.363 . S
C730 C720 1.465 . S
C730 U726 2.847 . S
C730 O744 1.249 . S
C730 O745 1.202 . S
C731 C729 1.363 . S
C731 C733 1.408 . S
C731 C736 1.342 . S
C732 C733 1.310 . S
C732 C735 1.461 . S
C732 H752 0.932 . S
C733 C731 1.408 . S
C733 C732 1.310 . S
C733 H753 0.930 . S
C734 C735 1.474 . S
C734 C736 1.285 . S
C734 H754 0.929 . S
C735 C732 1.461 . S
C735 C734 1.474 . S
C736 C731 1.342 . S
C736 C734 1.285 . S
C736 H755 0.930 . S
C737 C740 1.424 . S
C737 C742 1.245 . S
C737 C743 1.428 . S
C738 C741 1.260 . S
C738 C742 1.477 . S
C738 H756 0.932 . S
C739 C740 1.384 . S
C739 C741 1.479 . S
C739 H757 0.929 . S
C740 C737 1.424 . S
C740 C739 1.384 . S
C740 H758 0.928 . S
C741 C738 1.260 . S
C741 C739 1.479 . S
C742 C737 1.245 . S
C742 C738 1.477 . S
C742 H759 0.932 . S
C743 U726 2.882 . S
C743 C737 1.428 . S
C743 O746 1.301 . S
C743 O747 1.282 . S
O744 U726 2.441 . S
O744 C730 1.249 . S
O745 U726 2.420 . S
O745 C730 1.202 . S
O746 U726 2.455 . S
O746 C743 1.301 . S
O747 U726 2.449 . S
O747 C743 1.282 . S
H748 C721 0.931 . S
H749 C723 0.929 . S
H750 C724 0.930 . S
H751 C725 0.931 . S
H752 C732 0.932 . S
H753 C733 0.930 . S
H754 C734 0.929 . S
H755 C736 0.930 . S
H756 C738 0.932 . S
H757 C739 0.929 . S
H758 C740 0.928 . S
H759 C742 0.932 . S
C760 C761 1.264 . S
C760 C765 1.479 . S
C760 C770 1.465 . S
C761 C760 1.264 . S
C761 C763 1.339 . S
C761 H788 0.931 . S
C762 C763 1.395 . S
C762 C764 1.320 . S
C763 C761 1.339 . S
C763 C762 1.395 . S
C763 H789 0.929 . S
C764 C762 1.320 . S
C764 C765 1.405 . S
C764 H790 0.930 . S
C765 C760 1.479 . S
C765 C764 1.405 . S
C765 H791 0.931 . S
U766 O767 2.454 . S
U766 O768 2.458 . S
U766 C769 2.984 . S
U766 C770 2.847 . S
U766 C783 2.882 . S
U766 O784 2.441 . S
U766 O785 2.420 . S
U766 O786 2.455 . S
U766 O787 2.449 . S
O767 U766 2.454 . S
O767 C769 1.353 . S
O768 U766 2.458 . S
O768 C769 1.286 . S
C769 U766 2.984 . S
C769 O767 1.353 . S
C769 O768 1.286 . S
C769 C771 1.363 . S
C770 C760 1.465 . S
C770 U766 2.847 . S
C770 O784 1.249 . S
C770 O785 1.202 . S
C771 C769 1.363 . S
C771 C773 1.408 . S
C771 C776 1.342 . S
C772 C773 1.310 . S
C772 C775 1.461 . S
C772 H792 0.932 . S
C773 C771 1.408 . S
C773 C772 1.310 . S
C773 H793 0.930 . S
C774 C775 1.474 . S
C774 C776 1.285 . S
C774 H794 0.929 . S
C775 C772 1.461 . S
C775 C774 1.474 . S
C776 C771 1.342 . S
C776 C774 1.285 . S
C776 H795 0.930 . S
C777 C780 1.424 . S
C777 C782 1.245 . S
C777 C783 1.428 . S
C778 C781 1.260 . S
C778 C782 1.477 . S
C778 H796 0.932 . S
C779 C780 1.384 . S
C779 C781 1.479 . S
C779 H797 0.929 . S
C780 C777 1.424 . S
C780 C779 1.384 . S
C780 H798 0.928 . S
C781 C778 1.260 . S
C781 C779 1.479 . S
C782 C777 1.245 . S
C782 C778 1.477 . S
C782 H799 0.932 . S
C783 U766 2.882 . S
C783 C777 1.428 . S
C783 O786 1.301 . S
C783 O787 1.282 . S
O784 U766 2.441 . S
O784 C770 1.249 . S
O785 U766 2.420 . S
O785 C770 1.202 . S
O786 U766 2.455 . S
O786 C783 1.301 . S
O787 U766 2.449 . S
O787 C783 1.282 . S
H788 C761 0.931 . S
H789 C763 0.929 . S
H790 C764 0.930 . S
H791 C765 0.931 . S
H792 C772 0.932 . S
H793 C773 0.930 . S
H794 C774 0.929 . S
H795 C776 0.930 . S
H796 C778 0.932 . S
H797 C779 0.929 . S
H798 C780 0.928 . S
H799 C782 0.932 . S
C800 C801 1.264 . S
C800 C805 1.479 . S
C800 C810 1.465 . S
C801 C800 1.264 . S
C801 C803 1.339 . S
C801 H828 0.931 . S
C802 C803 1.395 . S
C802 C804 1.320 . S
C803 C801 1.339 . S
C803 C802 1.395 . S
C803 H829 0.929 . S
C804 C802 1.320 . S
C804 C805 1.405 . S
C804 H830 0.930 . S
C805 C800 1.479 . S
C805 C804 1.405 . S
C805 H831 0.931 . S
U806 O807 2.454 . S
U806 O808 2.458 . S
U806 C809 2.984 . S
U806 C810 2.847 . S
U806 C823 2.882 . S
U806 O824 2.441 . S
U806 O825 2.420 . S
U806 O826 2.455 . S
U806 O827 2.449 . S
O807 U806 2.454 . S
O807 C809 1.353 . S
O808 U806 2.458 . S
O808 C809 1.286 . S
C809 U806 2.984 . S
C809 O807 1.353 . S
C809 O808 1.286 . S
C809 C811 1.363 . S
C810 C800 1.465 . S
C810 U806 2.847 . S
C810 O824 1.249 . S
C810 O825 1.202 . S
C811 C809 1.363 . S
C811 C813 1.408 . S
C811 C816 1.342 . S
C812 C813 1.310 . S
C812 C815 1.461 . S
C812 H832 0.932 . S
C813 C811 1.408 . S
C813 C812 1.310 . S
C813 H833 0.930 . S
C814 C815 1.474 . S
C814 C816 1.285 . S
C814 H834 0.929 . S
C815 C812 1.461 . S
C815 C814 1.474 . S
C816 C811 1.342 . S
C816 C814 1.285 . S
C816 H835 0.930 . S
C817 C820 1.424 . S
C817 C822 1.245 . S
C817 C823 1.428 . S
C818 C821 1.260 . S
C818 C822 1.477 . S
C818 H836 0.932 . S
C819 C820 1.384 . S
C819 C821 1.479 . S
C819 H837 0.929 . S
C820 C817 1.424 . S
C820 C819 1.384 . S
C820 H838 0.928 . S
C821 C818 1.260 . S
C821 C819 1.479 . S
C822 C817 1.245 . S
C822 C818 1.477 . S
C822 H839 0.932 . S
C823 U806 2.882 . S
C823 C817 1.428 . S
C823 O826 1.301 . S
C823 O827 1.282 . S
O824 U806 2.441 . S
O824 C810 1.249 . S
O825 U806 2.420 . S
O825 C810 1.202 . S
O826 U806 2.455 . S
O826 C823 1.301 . S
O827 U806 2.449 . S
O827 C823 1.282 . S
H828 C801 0.931 . S
H829 C803 0.929 . S
H830 C804 0.930 . S
H831 C805 0.931 . S
H832 C812 0.932 . S
H833 C813 0.930 . S
H834 C814 0.929 . S
H835 C816 0.930 . S
H836 C818 0.932 . S
H837 C819 0.929 . S
H838 C820 0.928 . S
H839 C822 0.932 . S
C840 C841 1.264 . S
C840 C845 1.479 . S
C840 C850 1.465 . S
C841 C840 1.264 . S
C841 C843 1.339 . S
C841 H868 0.931 . S
C842 C843 1.395 . S
C842 C844 1.320 . S
C843 C841 1.339 . S
C843 C842 1.395 . S
C843 H869 0.929 . S
C844 C842 1.320 . S
C844 C845 1.405 . S
C844 H870 0.930 . S
C845 C840 1.479 . S
C845 C844 1.405 . S
C845 H871 0.931 . S
U846 O847 2.454 . S
U846 O848 2.458 . S
U846 C849 2.984 . S
U846 C850 2.847 . S
U846 C863 2.882 . S
U846 O864 2.441 . S
U846 O865 2.420 . S
U846 O866 2.455 . S
U846 O867 2.449 . S
O847 U846 2.454 . S
O847 C849 1.353 . S
O848 U846 2.458 . S
O848 C849 1.286 . S
C849 U846 2.984 . S
C849 O847 1.353 . S
C849 O848 1.286 . S
C849 C851 1.363 . S
C850 C840 1.465 . S
C850 U846 2.847 . S
C850 O864 1.249 . S
C850 O865 1.202 . S
C851 C849 1.363 . S
C851 C853 1.408 . S
C851 C856 1.342 . S
C852 C853 1.310 . S
C852 C855 1.461 . S
C852 H872 0.932 . S
C853 C851 1.408 . S
C853 C852 1.310 . S
C853 H873 0.930 . S
C854 C855 1.474 . S
C854 C856 1.285 . S
C854 H874 0.929 . S
C855 C852 1.461 . S
C855 C854 1.474 . S
C856 C851 1.342 . S
C856 C854 1.285 . S
C856 H875 0.930 . S
C857 C860 1.424 . S
C857 C862 1.245 . S
C857 C863 1.428 . S
C858 C861 1.260 . S
C858 C862 1.477 . S
C858 H876 0.932 . S
C859 C860 1.384 . S
C859 C861 1.479 . S
C859 H877 0.929 . S
C860 C857 1.424 . S
C860 C859 1.384 . S
C860 H878 0.928 . S
C861 C858 1.260 . S
C861 C859 1.479 . S
C862 C857 1.245 . S
C862 C858 1.477 . S
C862 H879 0.932 . S
C863 U846 2.882 . S
C863 C857 1.428 . S
C863 O866 1.301 . S
C863 O867 1.282 . S
O864 U846 2.441 . S
O864 C850 1.249 . S
O865 U846 2.420 . S
O865 C850 1.202 . S
O866 U846 2.455 . S
O866 C863 1.301 . S
O867 U846 2.449 . S
O867 C863 1.282 . S
H868 C841 0.931 . S
H869 C843 0.929 . S
H870 C844 0.930 . S
H871 C845 0.931 . S
H872 C852 0.932 . S
H873 C853 0.930 . S
H874 C854 0.929 . S
H875 C856 0.930 . S
H876 C858 0.932 . S
H877 C859 0.929 . S
H878 C860 0.928 . S
H879 C862 0.932 . S
C880 C881 1.264 . S
C880 C885 1.479 . S
C880 C890 1.465 . S
C881 C880 1.264 . S
C881 C883 1.339 . S
C881 H908 0.931 . S
C882 C883 1.395 . S
C882 C884 1.320 . S
C883 C881 1.339 . S
C883 C882 1.395 . S
C883 H909 0.929 . S
C884 C882 1.320 . S
C884 C885 1.405 . S
C884 H910 0.930 . S
C885 C880 1.479 . S
C885 C884 1.405 . S
C885 H911 0.931 . S
U886 O887 2.454 . S
U886 O888 2.458 . S
U886 C889 2.984 . S
U886 C890 2.847 . S
U886 C903 2.882 . S
U886 O904 2.441 . S
U886 O905 2.420 . S
U886 O906 2.455 . S
U886 O907 2.449 . S
O887 U886 2.454 . S
O887 C889 1.353 . S
O888 U886 2.458 . S
O888 C889 1.286 . S
C889 U886 2.984 . S
C889 O887 1.353 . S
C889 O888 1.286 . S
C889 C891 1.363 . S
C890 C880 1.465 . S
C890 U886 2.847 . S
C890 O904 1.249 . S
C890 O905 1.202 . S
C891 C889 1.363 . S
C891 C893 1.408 . S
C891 C896 1.342 . S
C892 C893 1.310 . S
C892 C895 1.461 . S
C892 H912 0.932 . S
C893 C891 1.408 . S
C893 C892 1.310 . S
C893 H913 0.930 . S
C894 C895 1.474 . S
C894 C896 1.285 . S
C894 H914 0.929 . S
C895 C892 1.461 . S
C895 C894 1.474 . S
C896 C891 1.342 . S
C896 C894 1.285 . S
C896 H915 0.930 . S
C897 C900 1.424 . S
C897 C902 1.245 . S
C897 C903 1.428 . S
C898 C901 1.260 . S
C898 C902 1.477 . S
C898 H916 0.932 . S
C899 C900 1.384 . S
C899 C901 1.479 . S
C899 H917 0.929 . S
C900 C897 1.424 . S
C900 C899 1.384 . S
C900 H918 0.928 . S
C901 C898 1.260 . S
C901 C899 1.479 . S
C902 C897 1.245 . S
C902 C898 1.477 . S
C902 H919 0.932 . S
C903 U886 2.882 . S
C903 C897 1.428 . S
C903 O906 1.301 . S
C903 O907 1.282 . S
O904 U886 2.441 . S
O904 C890 1.249 . S
O905 U886 2.420 . S
O905 C890 1.202 . S
O906 U886 2.455 . S
O906 C903 1.301 . S
O907 U886 2.449 . S
O907 C903 1.282 . S
H908 C881 0.931 . S
H909 C883 0.929 . S
H910 C884 0.930 . S
H911 C885 0.931 . S
H912 C892 0.932 . S
H913 C893 0.930 . S
H914 C894 0.929 . S
H915 C896 0.930 . S
H916 C898 0.932 . S
H917 C899 0.929 . S
H918 C900 0.928 . S
H919 C902 0.932 . S
C920 C921 1.264 . S
C920 C925 1.479 . S
C920 C930 1.465 . S
C921 C920 1.264 . S
C921 C923 1.339 . S
C921 H948 0.931 . S
C922 C923 1.395 . S
C922 C924 1.320 . S
C923 C921 1.339 . S
C923 C922 1.395 . S
C923 H949 0.929 . S
C924 C922 1.320 . S
C924 C925 1.405 . S
C924 H950 0.930 . S
C925 C920 1.479 . S
C925 C924 1.405 . S
C925 H951 0.931 . S
U926 O927 2.454 . S
U926 O928 2.458 . S
U926 C929 2.984 . S
U926 C930 2.847 . S
U926 C943 2.882 . S
U926 O944 2.441 . S
U926 O945 2.420 . S
U926 O946 2.455 . S
U926 O947 2.449 . S
O927 U926 2.454 . S
O927 C929 1.353 . S
O928 U926 2.458 . S
O928 C929 1.286 . S
C929 U926 2.984 . S
C929 O927 1.353 . S
C929 O928 1.286 . S
C929 C931 1.363 . S
C930 C920 1.465 . S
C930 U926 2.847 . S
C930 O944 1.249 . S
C930 O945 1.202 . S
C931 C929 1.363 . S
C931 C933 1.408 . S
C931 C936 1.342 . S
C932 C933 1.310 . S
C932 C935 1.461 . S
C932 H952 0.932 . S
C933 C931 1.408 . S
C933 C932 1.310 . S
C933 H953 0.930 . S
C934 C935 1.474 . S
C934 C936 1.285 . S
C934 H954 0.929 . S
C935 C932 1.461 . S
C935 C934 1.474 . S
C936 C931 1.342 . S
C936 C934 1.285 . S
C936 H955 0.930 . S
C937 C940 1.424 . S
C937 C942 1.245 . S
C937 C943 1.428 . S
C938 C941 1.260 . S
C938 C942 1.477 . S
C938 H956 0.932 . S
C939 C940 1.384 . S
C939 C941 1.479 . S
C939 H957 0.929 . S
C940 C937 1.424 . S
C940 C939 1.384 . S
C940 H958 0.928 . S
C941 C938 1.260 . S
C941 C939 1.479 . S
C942 C937 1.245 . S
C942 C938 1.477 . S
C942 H959 0.932 . S
C943 U926 2.882 . S
C943 C937 1.428 . S
C943 O946 1.301 . S
C943 O947 1.282 . S
O944 U926 2.441 . S
O944 C930 1.249 . S
O945 U926 2.420 . S
O945 C930 1.202 . S
O946 U926 2.455 . S
O946 C943 1.301 . S
O947 U926 2.449 . S
O947 C943 1.282 . S
H948 C921 0.931 . S
H949 C923 0.929 . S
H950 C924 0.930 . S
H951 C925 0.931 . S
H952 C932 0.932 . S
H953 C933 0.930 . S
H954 C934 0.929 . S
H955 C936 0.930 . S
H956 C938 0.932 . S
H957 C939 0.929 . S
H958 C940 0.928 . S
H959 C942 0.932 . S
C960 C961 1.264 . S
C960 C965 1.479 . S
C960 C970 1.465 . S
C961 C960 1.264 . S
C961 C963 1.339 . S
C961 H988 0.931 . S
C962 C963 1.395 . S
C962 C964 1.320 . S
C963 C961 1.339 . S
C963 C962 1.395 . S
C963 H989 0.929 . S
C964 C962 1.320 . S
C964 C965 1.405 . S
C964 H990 0.930 . S
C965 C960 1.479 . S
C965 C964 1.405 . S
C965 H991 0.931 . S
U966 O967 2.454 . S
U966 O968 2.458 . S
U966 C969 2.984 . S
U966 C970 2.847 . S
U966 C983 2.882 . S
U966 O984 2.441 . S
U966 O985 2.420 . S
U966 O986 2.455 . S
U966 O987 2.449 . S
O967 U966 2.454 . S
O967 C969 1.353 . S
O968 U966 2.458 . S
O968 C969 1.286 . S
C969 U966 2.984 . S
C969 O967 1.353 . S
C969 O968 1.286 . S
C969 C971 1.363 . S
C970 C960 1.465 . S
C970 U966 2.847 . S
C970 O984 1.249 . S
C970 O985 1.202 . S
C971 C969 1.363 . S
C971 C973 1.408 . S
C971 C976 1.342 . S
C972 C973 1.310 . S
C972 C975 1.461 . S
C972 H992 0.932 . S
C973 C971 1.408 . S
C973 C972 1.310 . S
C973 H993 0.930 . S
C974 C975 1.474 . S
C974 C976 1.285 . S
C974 H994 0.929 . S
C975 C972 1.461 . S
C975 C974 1.474 . S
C976 C971 1.342 . S
C976 C974 1.285 . S
C976 H995 0.930 . S
C977 C980 1.424 . S
C977 C982 1.245 . S
C977 C983 1.428 . S
C978 C981 1.260 . S
C978 C982 1.477 . S
C978 H996 0.932 . S
C979 C980 1.384 . S
C979 C981 1.479 . S
C979 H997 0.929 . S
C980 C977 1.424 . S
C980 C979 1.384 . S
C980 H998 0.928 . S
C981 C978 1.260 . S
C981 C979 1.479 . S
C982 C977 1.245 . S
C982 C978 1.477 . S
C982 H999 0.932 . S
C983 U966 2.882 . S
C983 C977 1.428 . S
C983 O986 1.301 . S
C983 O987 1.282 . S
O984 U966 2.441 . S
O984 C970 1.249 . S
O985 U966 2.420 . S
O985 C970 1.202 . S
O986 U966 2.455 . S
O986 C983 1.301 . S
O987 U966 2.449 . S
O987 C983 1.282 . S
H988 C961 0.931 . S
H989 C963 0.929 . S
H990 C964 0.930 . S
H991 C965 0.931 . S
H992 C972 0.932 . S
H993 C973 0.930 . S
H994 C974 0.929 . S
H995 C976 0.930 . S
H996 C978 0.932 . S
H997 C979 0.929 . S
H998 C980 0.928 . S
H999 C982 0.932 . S
C1000 C1001 1.264 . S
C1000 C1005 1.479 . S
C1000 C1010 1.465 . S
C1001 C1000 1.264 . S
C1001 C1003 1.339 . S
C1001 H1028 0.931 . S
C1002 C1003 1.395 . S
C1002 C1004 1.320 . S
C1003 C1001 1.339 . S
C1003 C1002 1.395 . S
C1003 H1029 0.929 . S
C1004 C1002 1.320 . S
C1004 C1005 1.405 . S
C1004 H1030 0.930 . S
C1005 C1000 1.479 . S
C1005 C1004 1.405 . S
C1005 H1031 0.931 . S
U1006 O1007 2.454 . S
U1006 O1008 2.458 . S
U1006 C1009 2.984 . S
U1006 C1010 2.847 . S
U1006 C1023 2.882 . S
U1006 O1024 2.441 . S
U1006 O1025 2.420 . S
U1006 O1026 2.455 . S
U1006 O1027 2.449 . S
O1007 U1006 2.454 . S
O1007 C1009 1.353 . S
O1008 U1006 2.458 . S
O1008 C1009 1.286 . S
C1009 U1006 2.984 . S
C1009 O1007 1.353 . S
C1009 O1008 1.286 . S
C1009 C1011 1.363 . S
C1010 C1000 1.465 . S
C1010 U1006 2.847 . S
C1010 O1024 1.249 . S
C1010 O1025 1.202 . S
C1011 C1009 1.363 . S
C1011 C1013 1.408 . S
C1011 C1016 1.342 . S
C1012 C1013 1.310 . S
C1012 C1015 1.461 . S
C1012 H1032 0.932 . S
C1013 C1011 1.408 . S
C1013 C1012 1.310 . S
C1013 H1033 0.930 . S
C1014 C1015 1.474 . S
C1014 C1016 1.285 . S
C1014 H1034 0.929 . S
C1015 C1012 1.461 . S
C1015 C1014 1.474 . S
C1016 C1011 1.342 . S
C1016 C1014 1.285 . S
C1016 H1035 0.930 . S
C1017 C1020 1.424 . S
C1017 C1022 1.245 . S
C1017 C1023 1.428 . S
C1018 C1021 1.260 . S
C1018 C1022 1.477 . S
C1018 H1036 0.932 . S
C1019 C1020 1.384 . S
C1019 C1021 1.479 . S
C1019 H1037 0.929 . S
C1020 C1017 1.424 . S
C1020 C1019 1.384 . S
C1020 H1038 0.928 . S
C1021 C1018 1.260 . S
C1021 C1019 1.479 . S
C1022 C1017 1.245 . S
C1022 C1018 1.477 . S
C1022 H1039 0.932 . S
C1023 U1006 2.882 . S
C1023 C1017 1.428 . S
C1023 O1026 1.301 . S
C1023 O1027 1.282 . S
O1024 U1006 2.441 . S
O1024 C1010 1.249 . S
O1025 U1006 2.420 . S
O1025 C1010 1.202 . S
O1026 U1006 2.455 . S
O1026 C1023 1.301 . S
O1027 U1006 2.449 . S
O1027 C1023 1.282 . S
H1028 C1001 0.931 . S
H1029 C1003 0.929 . S
H1030 C1004 0.930 . S
H1031 C1005 0.931 . S
H1032 C1012 0.932 . S
H1033 C1013 0.930 . S
H1034 C1014 0.929 . S
H1035 C1016 0.930 . S
H1036 C1018 0.932 . S
H1037 C1019 0.929 . S
H1038 C1020 0.928 . S
H1039 C1022 0.932 . S
C1040 C1041 1.264 . S
C1040 C1045 1.479 . S
C1040 C1050 1.465 . S
C1041 C1040 1.264 . S
C1041 C1043 1.339 . S
C1041 H1068 0.931 . S
C1042 C1043 1.395 . S
C1042 C1044 1.320 . S
C1043 C1041 1.339 . S
C1043 C1042 1.395 . S
C1043 H1069 0.929 . S
C1044 C1042 1.320 . S
C1044 C1045 1.405 . S
C1044 H1070 0.930 . S
C1045 C1040 1.479 . S
C1045 C1044 1.405 . S
C1045 H1071 0.931 . S
U1046 O1047 2.454 . S
U1046 O1048 2.458 . S
U1046 C1049 2.984 . S
U1046 C1050 2.847 . S
U1046 C1063 2.882 . S
U1046 O1064 2.441 . S
U1046 O1065 2.420 . S
U1046 O1066 2.455 . S
U1046 O1067 2.449 . S
O1047 U1046 2.454 . S
O1047 C1049 1.353 . S
O1048 U1046 2.458 . S
O1048 C1049 1.286 . S
C1049 U1046 2.984 . S
C1049 O1047 1.353 . S
C1049 O1048 1.286 . S
C1049 C1051 1.363 . S
C1050 C1040 1.465 . S
C1050 U1046 2.847 . S
C1050 O1064 1.249 . S
C1050 O1065 1.202 . S
C1051 C1049 1.363 . S
C1051 C1053 1.408 . S
C1051 C1056 1.342 . S
C1052 C1053 1.310 . S
C1052 C1055 1.461 . S
C1052 H1072 0.932 . S
C1053 C1051 1.408 . S
C1053 C1052 1.310 . S
C1053 H1073 0.930 . S
C1054 C1055 1.474 . S
C1054 C1056 1.285 . S
C1054 H1074 0.929 . S
C1055 C1052 1.461 . S
C1055 C1054 1.474 . S
C1056 C1051 1.342 . S
C1056 C1054 1.285 . S
C1056 H1075 0.930 . S
C1057 C1060 1.424 . S
C1057 C1062 1.245 . S
C1057 C1063 1.428 . S
C1058 C1061 1.260 . S
C1058 C1062 1.477 . S
C1058 H1076 0.932 . S
C1059 C1060 1.384 . S
C1059 C1061 1.479 . S
C1059 H1077 0.929 . S
C1060 C1057 1.424 . S
C1060 C1059 1.384 . S
C1060 H1078 0.928 . S
C1061 C1058 1.260 . S
C1061 C1059 1.479 . S
C1062 C1057 1.245 . S
C1062 C1058 1.477 . S
C1062 H1079 0.932 . S
C1063 U1046 2.882 . S
C1063 C1057 1.428 . S
C1063 O1066 1.301 . S
C1063 O1067 1.282 . S
O1064 U1046 2.441 . S
O1064 C1050 1.249 . S
O1065 U1046 2.420 . S
O1065 C1050 1.202 . S
O1066 U1046 2.455 . S
O1066 C1063 1.301 . S
O1067 U1046 2.449 . S
O1067 C1063 1.282 . S
H1068 C1041 0.931 . S
H1069 C1043 0.929 . S
H1070 C1044 0.930 . S
H1071 C1045 0.931 . S
H1072 C1052 0.932 . S
H1073 C1053 0.930 . S
H1074 C1054 0.929 . S
H1075 C1056 0.930 . S
H1076 C1058 0.932 . S
H1077 C1059 0.929 . S
H1078 C1060 0.928 . S
H1079 C1062 0.932 . S
C1080 C1081 1.264 . S
C1080 C1085 1.479 . S
C1080 C1090 1.465 . S
C1081 C1080 1.264 . S
C1081 C1083 1.339 . S
C1081 H1108 0.931 . S
C1082 C1083 1.395 . S
C1082 C1084 1.320 . S
C1083 C1081 1.339 . S
C1083 C1082 1.395 . S
C1083 H1109 0.929 . S
C1084 C1082 1.320 . S
C1084 C1085 1.405 . S
C1084 H1110 0.930 . S
C1085 C1080 1.479 . S
C1085 C1084 1.405 . S
C1085 H1111 0.931 . S
U1086 O1087 2.454 . S
U1086 O1088 2.458 . S
U1086 C1089 2.984 . S
U1086 C1090 2.847 . S
U1086 C1103 2.882 . S
U1086 O1104 2.441 . S
U1086 O1105 2.420 . S
U1086 O1106 2.455 . S
U1086 O1107 2.449 . S
O1087 U1086 2.454 . S
O1087 C1089 1.353 . S
O1088 U1086 2.458 . S
O1088 C1089 1.286 . S
C1089 U1086 2.984 . S
C1089 O1087 1.353 . S
C1089 O1088 1.286 . S
C1089 C1091 1.363 . S
C1090 C1080 1.465 . S
C1090 U1086 2.847 . S
C1090 O1104 1.249 . S
C1090 O1105 1.202 . S
C1091 C1089 1.363 . S
C1091 C1093 1.408 . S
C1091 C1096 1.342 . S
C1092 C1093 1.310 . S
C1092 C1095 1.461 . S
C1092 H1112 0.932 . S
C1093 C1091 1.408 . S
C1093 C1092 1.310 . S
C1093 H1113 0.930 . S
C1094 C1095 1.474 . S
C1094 C1096 1.285 . S
C1094 H1114 0.929 . S
C1095 C1092 1.461 . S
C1095 C1094 1.474 . S
C1096 C1091 1.342 . S
C1096 C1094 1.285 . S
C1096 H1115 0.930 . S
C1097 C1100 1.424 . S
C1097 C1102 1.245 . S
C1097 C1103 1.428 . S
C1098 C1101 1.260 . S
C1098 C1102 1.477 . S
C1098 H1116 0.932 . S
C1099 C1100 1.384 . S
C1099 C1101 1.479 . S
C1099 H1117 0.929 . S
C1100 C1097 1.424 . S
C1100 C1099 1.384 . S
C1100 H1118 0.928 . S
C1101 C1098 1.260 . S
C1101 C1099 1.479 . S
C1102 C1097 1.245 . S
C1102 C1098 1.477 . S
C1102 H1119 0.932 . S
C1103 U1086 2.882 . S
C1103 C1097 1.428 . S
C1103 O1106 1.301 . S
C1103 O1107 1.282 . S
O1104 U1086 2.441 . S
O1104 C1090 1.249 . S
O1105 U1086 2.420 . S
O1105 C1090 1.202 . S
O1106 U1086 2.455 . S
O1106 C1103 1.301 . S
O1107 U1086 2.449 . S
O1107 C1103 1.282 . S
H1108 C1081 0.931 . S
H1109 C1083 0.929 . S
H1110 C1084 0.930 . S
H1111 C1085 0.931 . S
H1112 C1092 0.932 . S
H1113 C1093 0.930 . S
H1114 C1094 0.929 . S
H1115 C1096 0.930 . S
H1116 C1098 0.932 . S
H1117 C1099 0.929 . S
H1118 C1100 0.928 . S
H1119 C1102 0.932 . S
C1120 C1121 1.264 . S
C1120 C1125 1.479 . S
C1120 C1130 1.465 . S
C1121 C1120 1.264 . S
C1121 C1123 1.339 . S
C1121 H1148 0.931 . S
C1122 C1123 1.395 . S
C1122 C1124 1.320 . S
C1123 C1121 1.339 . S
C1123 C1122 1.395 . S
C1123 H1149 0.929 . S
C1124 C1122 1.320 . S
C1124 C1125 1.405 . S
C1124 H1150 0.930 . S
C1125 C1120 1.479 . S
C1125 C1124 1.405 . S
C1125 H1151 0.931 . S
U1126 O1127 2.454 . S
U1126 O1128 2.458 . S
U1126 C1129 2.984 . S
U1126 C1130 2.847 . S
U1126 C1143 2.882 . S
U1126 O1144 2.441 . S
U1126 O1145 2.420 . S
U1126 O1146 2.455 . S
U1126 O1147 2.449 . S
O1127 U1126 2.454 . S
O1127 C1129 1.353 . S
O1128 U1126 2.458 . S
O1128 C1129 1.286 . S
C1129 U1126 2.984 . S
C1129 O1127 1.353 . S
C1129 O1128 1.286 . S
C1129 C1131 1.363 . S
C1130 C1120 1.465 . S
C1130 U1126 2.847 . S
C1130 O1144 1.249 . S
C1130 O1145 1.202 . S
C1131 C1129 1.363 . S
C1131 C1133 1.408 . S
C1131 C1136 1.342 . S
C1132 C1133 1.310 . S
C1132 C1135 1.461 . S
C1132 H1152 0.932 . S
C1133 C1131 1.408 . S
C1133 C1132 1.310 . S
C1133 H1153 0.930 . S
C1134 C1135 1.474 . S
C1134 C1136 1.285 . S
C1134 H1154 0.929 . S
C1135 C1132 1.461 . S
C1135 C1134 1.474 . S
C1136 C1131 1.342 . S
C1136 C1134 1.285 . S
C1136 H1155 0.930 . S
C1137 C1140 1.424 . S
C1137 C1142 1.245 . S
C1137 C1143 1.428 . S
C1138 C1141 1.260 . S
C1138 C1142 1.477 . S
C1138 H1156 0.932 . S
C1139 C1140 1.384 . S
C1139 C1141 1.479 . S
C1139 H1157 0.929 . S
C1140 C1137 1.424 . S
C1140 C1139 1.384 . S
C1140 H1158 0.928 . S
C1141 C1138 1.260 . S
C1141 C1139 1.479 . S
C1142 C1137 1.245 . S
C1142 C1138 1.477 . S
C1142 H1159 0.932 . S
C1143 U1126 2.882 . S
C1143 C1137 1.428 . S
C1143 O1146 1.301 . S
C1143 O1147 1.282 . S
O1144 U1126 2.441 . S
O1144 C1130 1.249 . S
O1145 U1126 2.420 . S
O1145 C1130 1.202 . S
O1146 U1126 2.455 . S
O1146 C1143 1.301 . S
O1147 U1126 2.449 . S
O1147 C1143 1.282 . S
H1148 C1121 0.931 . S
H1149 C1123 0.929 . S
H1150 C1124 0.930 . S
H1151 C1125 0.931 . S
H1152 C1132 0.932 . S
H1153 C1133 0.930 . S
H1154 C1134 0.929 . S
H1155 C1136 0.930 . S
H1156 C1138 0.932 . S
H1157 C1139 0.929 . S
H1158 C1140 0.928 . S
H1159 C1142 0.932 . S
C1160 C1161 1.264 . S
C1160 C1165 1.479 . S
C1160 C1170 1.465 . S
C1161 C1160 1.264 . S
C1161 C1163 1.339 . S
C1161 H1188 0.931 . S
C1162 C1163 1.395 . S
C1162 C1164 1.320 . S
C1163 C1161 1.339 . S
C1163 C1162 1.395 . S
C1163 H1189 0.929 . S
C1164 C1162 1.320 . S
C1164 C1165 1.405 . S
C1164 H1190 0.930 . S
C1165 C1160 1.479 . S
C1165 C1164 1.405 . S
C1165 H1191 0.931 . S
U1166 O1167 2.454 . S
U1166 O1168 2.458 . S
U1166 C1169 2.984 . S
U1166 C1170 2.847 . S
U1166 C1183 2.882 . S
U1166 O1184 2.441 . S
U1166 O1185 2.420 . S
U1166 O1186 2.455 . S
U1166 O1187 2.449 . S
O1167 U1166 2.454 . S
O1167 C1169 1.353 . S
O1168 U1166 2.458 . S
O1168 C1169 1.286 . S
C1169 U1166 2.984 . S
C1169 O1167 1.353 . S
C1169 O1168 1.286 . S
C1169 C1171 1.363 . S
C1170 C1160 1.465 . S
C1170 U1166 2.847 . S
C1170 O1184 1.249 . S
C1170 O1185 1.202 . S
C1171 C1169 1.363 . S
C1171 C1173 1.408 . S
C1171 C1176 1.342 . S
C1172 C1173 1.310 . S
C1172 C1175 1.461 . S
C1172 H1192 0.932 . S
C1173 C1171 1.408 . S
C1173 C1172 1.310 . S
C1173 H1193 0.930 . S
C1174 C1175 1.474 . S
C1174 C1176 1.285 . S
C1174 H1194 0.929 . S
C1175 C1172 1.461 . S
C1175 C1174 1.474 . S
C1176 C1171 1.342 . S
C1176 C1174 1.285 . S
C1176 H1195 0.930 . S
C1177 C1180 1.424 . S
C1177 C1182 1.245 . S
C1177 C1183 1.428 . S
C1178 C1181 1.260 . S
C1178 C1182 1.477 . S
C1178 H1196 0.932 . S
C1179 C1180 1.384 . S
C1179 C1181 1.479 . S
C1179 H1197 0.929 . S
C1180 C1177 1.424 . S
C1180 C1179 1.384 . S
C1180 H1198 0.928 . S
C1181 C1178 1.260 . S
C1181 C1179 1.479 . S
C1182 C1177 1.245 . S
C1182 C1178 1.477 . S
C1182 H1199 0.932 . S
C1183 U1166 2.882 . S
C1183 C1177 1.428 . S
C1183 O1186 1.301 . S
C1183 O1187 1.282 . S
O1184 U1166 2.441 . S
O1184 C1170 1.249 . S
O1185 U1166 2.420 . S
O1185 C1170 1.202 . S
O1186 U1166 2.455 . S
O1186 C1183 1.301 . S
O1187 U1166 2.449 . S
O1187 C1183 1.282 . S
H1188 C1161 0.931 . S
H1189 C1163 0.929 . S
H1190 C1164 0.930 . S
H1191 C1165 0.931 . S
H1192 C1172 0.932 . S
H1193 C1173 0.930 . S
H1194 C1174 0.929 . S
H1195 C1176 0.930 . S
H1196 C1178 0.932 . S
H1197 C1179 0.929 . S
H1198 C1180 0.928 . S
H1199 C1182 0.932 . S
C1200 C1201 1.264 . S
C1200 C1205 1.479 . S
C1200 C1210 1.465 . S
C1201 C1200 1.264 . S
C1201 C1203 1.339 . S
C1201 H1228 0.931 . S
C1202 C1203 1.395 . S
C1202 C1204 1.320 . S
C1203 C1201 1.339 . S
C1203 C1202 1.395 . S
C1203 H1229 0.929 . S
C1204 C1202 1.320 . S
C1204 C1205 1.405 . S
C1204 H1230 0.930 . S
C1205 C1200 1.479 . S
C1205 C1204 1.405 . S
C1205 H1231 0.931 . S
U1206 O1207 2.454 . S
U1206 O1208 2.458 . S
U1206 C1209 2.984 . S
U1206 C1210 2.847 . S
U1206 C1223 2.882 . S
U1206 O1224 2.441 . S
U1206 O1225 2.420 . S
U1206 O1226 2.455 . S
U1206 O1227 2.449 . S
O1207 U1206 2.454 . S
O1207 C1209 1.353 . S
O1208 U1206 2.458 . S
O1208 C1209 1.286 . S
C1209 U1206 2.984 . S
C1209 O1207 1.353 . S
C1209 O1208 1.286 . S
C1209 C1211 1.363 . S
C1210 C1200 1.465 . S
C1210 U1206 2.847 . S
C1210 O1224 1.249 . S
C1210 O1225 1.202 . S
C1211 C1209 1.363 . S
C1211 C1213 1.408 . S
C1211 C1216 1.342 . S
C1212 C1213 1.310 . S
C1212 C1215 1.461 . S
C1212 H1232 0.932 . S
C1213 C1211 1.408 . S
C1213 C1212 1.310 . S
C1213 H1233 0.930 . S
C1214 C1215 1.474 . S
C1214 C1216 1.285 . S
C1214 H1234 0.929 . S
C1215 C1212 1.461 . S
C1215 C1214 1.474 . S
C1216 C1211 1.342 . S
C1216 C1214 1.285 . S
C1216 H1235 0.930 . S
C1217 C1220 1.424 . S
C1217 C1222 1.245 . S
C1217 C1223 1.428 . S
C1218 C1221 1.260 . S
C1218 C1222 1.477 . S
C1218 H1236 0.932 . S
C1219 C1220 1.384 . S
C1219 C1221 1.479 . S
C1219 H1237 0.929 . S
C1220 C1217 1.424 . S
C1220 C1219 1.384 . S
C1220 H1238 0.928 . S
C1221 C1218 1.260 . S
C1221 C1219 1.479 . S
C1222 C1217 1.245 . S
C1222 C1218 1.477 . S
C1222 H1239 0.932 . S
C1223 U1206 2.882 . S
C1223 C1217 1.428 . S
C1223 O1226 1.301 . S
C1223 O1227 1.282 . S
O1224 U1206 2.441 . S
O1224 C1210 1.249 . S
O1225 U1206 2.420 . S
O1225 C1210 1.202 . S
O1226 U1206 2.455 . S
O1226 C1223 1.301 . S
O1227 U1206 2.449 . S
O1227 C1223 1.282 . S
H1228 C1201 0.931 . S
H1229 C1203 0.929 . S
H1230 C1204 0.930 . S
H1231 C1205 0.931 . S
H1232 C1212 0.932 . S
H1233 C1213 0.930 . S
H1234 C1214 0.929 . S
H1235 C1216 0.930 . S
H1236 C1218 0.932 . S
H1237 C1219 0.929 . S
H1238 C1220 0.928 . S
H1239 C1222 0.932 . S
C1240 C1241 1.264 . S
C1240 C1245 1.479 . S
C1240 C1250 1.465 . S
C1241 C1240 1.264 . S
C1241 C1243 1.339 . S
C1241 H1268 0.931 . S
C1242 C1243 1.395 . S
C1242 C1244 1.320 . S
C1243 C1241 1.339 . S
C1243 C1242 1.395 . S
C1243 H1269 0.929 . S
C1244 C1242 1.320 . S
C1244 C1245 1.405 . S
C1244 H1270 0.930 . S
C1245 C1240 1.479 . S
C1245 C1244 1.405 . S
C1245 H1271 0.931 . S
U1246 O1247 2.454 . S
U1246 O1248 2.458 . S
U1246 C1249 2.984 . S
U1246 C1250 2.847 . S
U1246 C1263 2.882 . S
U1246 O1264 2.441 . S
U1246 O1265 2.420 . S
U1246 O1266 2.455 . S
U1246 O1267 2.449 . S
O1247 U1246 2.454 . S
O1247 C1249 1.353 . S
O1248 U1246 2.458 . S
O1248 C1249 1.286 . S
C1249 U1246 2.984 . S
C1249 O1247 1.353 . S
C1249 O1248 1.286 . S
C1249 C1251 1.363 . S
C1250 C1240 1.465 . S
C1250 U1246 2.847 . S
C1250 O1264 1.249 . S
C1250 O1265 1.202 . S
C1251 C1249 1.363 . S
C1251 C1253 1.408 . S
C1251 C1256 1.342 . S
C1252 C1253 1.310 . S
C1252 C1255 1.461 . S
C1252 H1272 0.932 . S
C1253 C1251 1.408 . S
C1253 C1252 1.310 . S
C1253 H1273 0.930 . S
C1254 C1255 1.474 . S
C1254 C1256 1.285 . S
C1254 H1274 0.929 . S
C1255 C1252 1.461 . S
C1255 C1254 1.474 . S
C1256 C1251 1.342 . S
C1256 C1254 1.285 . S
C1256 H1275 0.930 . S
C1257 C1260 1.424 . S
C1257 C1262 1.245 . S
C1257 C1263 1.428 . S
C1258 C1261 1.260 . S
C1258 C1262 1.477 . S
C1258 H1276 0.932 . S
C1259 C1260 1.384 . S
C1259 C1261 1.479 . S
C1259 H1277 0.929 . S
C1260 C1257 1.424 . S
C1260 C1259 1.384 . S
C1260 H1278 0.928 . S
C1261 C1258 1.260 . S
C1261 C1259 1.479 . S
C1262 C1257 1.245 . S
C1262 C1258 1.477 . S
C1262 H1279 0.932 . S
C1263 U1246 2.882 . S
C1263 C1257 1.428 . S
C1263 O1266 1.301 . S
C1263 O1267 1.282 . S
O1264 U1246 2.441 . S
O1264 C1250 1.249 . S
O1265 U1246 2.420 . S
O1265 C1250 1.202 . S
O1266 U1246 2.455 . S
O1266 C1263 1.301 . S
O1267 U1246 2.449 . S
O1267 C1263 1.282 . S
H1268 C1241 0.931 . S
H1269 C1243 0.929 . S
H1270 C1244 0.930 . S
H1271 C1245 0.931 . S
H1272 C1252 0.932 . S
H1273 C1253 0.930 . S
H1274 C1254 0.929 . S
H1275 C1256 0.930 . S
H1276 C1258 0.932 . S
H1277 C1259 0.929 . S
H1278 C1260 0.928 . S
H1279 C1262 0.932 . S
C1280 C1281 1.264 . S
C1280 C1285 1.479 . S
C1280 C1290 1.465 . S
C1281 C1280 1.264 . S
C1281 C1283 1.339 . S
C1281 H1308 0.931 . S
C1282 C1283 1.395 . S
C1282 C1284 1.320 . S
C1283 C1281 1.339 . S
C1283 C1282 1.395 . S
C1283 H1309 0.929 . S
C1284 C1282 1.320 . S
C1284 C1285 1.405 . S
C1284 H1310 0.930 . S
C1285 C1280 1.479 . S
C1285 C1284 1.405 . S
C1285 H1311 0.931 . S
U1286 O1287 2.454 . S
U1286 O1288 2.458 . S
U1286 C1289 2.984 . S
U1286 C1290 2.847 . S
U1286 C1303 2.882 . S
U1286 O1304 2.441 . S
U1286 O1305 2.420 . S
U1286 O1306 2.455 . S
U1286 O1307 2.449 . S
O1287 U1286 2.454 . S
O1287 C1289 1.353 . S
O1288 U1286 2.458 . S
O1288 C1289 1.286 . S
C1289 U1286 2.984 . S
C1289 O1287 1.353 . S
C1289 O1288 1.286 . S
C1289 C1291 1.363 . S
C1290 C1280 1.465 . S
C1290 U1286 2.847 . S
C1290 O1304 1.249 . S
C1290 O1305 1.202 . S
C1291 C1289 1.363 . S
C1291 C1293 1.408 . S
C1291 C1296 1.342 . S
C1292 C1293 1.310 . S
C1292 C1295 1.461 . S
C1292 H1312 0.932 . S
C1293 C1291 1.408 . S
C1293 C1292 1.310 . S
C1293 H1313 0.930 . S
C1294 C1295 1.474 . S
C1294 C1296 1.285 . S
C1294 H1314 0.929 . S
C1295 C1292 1.461 . S
C1295 C1294 1.474 . S
C1296 C1291 1.342 . S
C1296 C1294 1.285 . S
C1296 H1315 0.930 . S
C1297 C1300 1.424 . S
C1297 C1302 1.245 . S
C1297 C1303 1.428 . S
C1298 C1301 1.260 . S
C1298 C1302 1.477 . S
C1298 H1316 0.932 . S
C1299 C1300 1.384 . S
C1299 C1301 1.479 . S
C1299 H1317 0.929 . S
C1300 C1297 1.424 . S
C1300 C1299 1.384 . S
C1300 H1318 0.928 . S
C1301 C1298 1.260 . S
C1301 C1299 1.479 . S
C1302 C1297 1.245 . S
C1302 C1298 1.477 . S
C1302 H1319 0.932 . S
C1303 U1286 2.882 . S
C1303 C1297 1.428 . S
C1303 O1306 1.301 . S
C1303 O1307 1.282 . S
O1304 U1286 2.441 . S
O1304 C1290 1.249 . S
O1305 U1286 2.420 . S
O1305 C1290 1.202 . S
O1306 U1286 2.455 . S
O1306 C1303 1.301 . S
O1307 U1286 2.449 . S
O1307 C1303 1.282 . S
H1308 C1281 0.931 . S
H1309 C1283 0.929 . S
H1310 C1284 0.930 . S
H1311 C1285 0.931 . S
H1312 C1292 0.932 . S
H1313 C1293 0.930 . S
H1314 C1294 0.929 . S
H1315 C1296 0.930 . S
H1316 C1298 0.932 . S
H1317 C1299 0.929 . S
H1318 C1300 0.928 . S
H1319 C1302 0.932 . S
C1320 C1321 1.264 . S
C1320 C1325 1.479 . S
C1320 C1330 1.465 . S
C1321 C1320 1.264 . S
C1321 C1323 1.339 . S
C1321 H1348 0.931 . S
C1322 C1323 1.395 . S
C1322 C1324 1.320 . S
C1323 C1321 1.339 . S
C1323 C1322 1.395 . S
C1323 H1349 0.929 . S
C1324 C1322 1.320 . S
C1324 C1325 1.405 . S
C1324 H1350 0.930 . S
C1325 C1320 1.479 . S
C1325 C1324 1.405 . S
C1325 H1351 0.931 . S
U1326 O1327 2.454 . S
U1326 O1328 2.458 . S
U1326 C1329 2.984 . S
U1326 C1330 2.847 . S
U1326 C1343 2.882 . S
U1326 O1344 2.441 . S
U1326 O1345 2.420 . S
U1326 O1346 2.455 . S
U1326 O1347 2.449 . S
O1327 U1326 2.454 . S
O1327 C1329 1.353 . S
O1328 U1326 2.458 . S
O1328 C1329 1.286 . S
C1329 U1326 2.984 . S
C1329 O1327 1.353 . S
C1329 O1328 1.286 . S
C1329 C1331 1.363 . S
C1330 C1320 1.465 . S
C1330 U1326 2.847 . S
C1330 O1344 1.249 . S
C1330 O1345 1.202 . S
C1331 C1329 1.363 . S
C1331 C1333 1.408 . S
C1331 C1336 1.342 . S
C1332 C1333 1.310 . S
C1332 C1335 1.461 . S
C1332 H1352 0.932 . S
C1333 C1331 1.408 . S
C1333 C1332 1.310 . S
C1333 H1353 0.930 . S
C1334 C1335 1.474 . S
C1334 C1336 1.285 . S
C1334 H1354 0.929 . S
C1335 C1332 1.461 . S
C1335 C1334 1.474 . S
C1336 C1331 1.342 . S
C1336 C1334 1.285 . S
C1336 H1355 0.930 . S
C1337 C1340 1.424 . S
C1337 C1342 1.245 . S
C1337 C1343 1.428 . S
C1338 C1341 1.260 . S
C1338 C1342 1.477 . S
C1338 H1356 0.932 . S
C1339 C1340 1.384 . S
C1339 C1341 1.479 . S
C1339 H1357 0.929 . S
C1340 C1337 1.424 . S
C1340 C1339 1.384 . S
C1340 H1358 0.928 . S
C1341 C1338 1.260 . S
C1341 C1339 1.479 . S
C1342 C1337 1.245 . S
C1342 C1338 1.477 . S
C1342 H1359 0.932 . S
C1343 U1326 2.882 . S
C1343 C1337 1.428 . S
C1343 O1346 1.301 . S
C1343 O1347 1.282 . S
O1344 U1326 2.441 . S
O1344 C1330 1.249 . S
O1345 U1326 2.420 . S
O1345 C1330 1.202 . S
O1346 U1326 2.455 . S
O1346 C1343 1.301 . S
O1347 U1326 2.449 . S
O1347 C1343 1.282 . S
H1348 C1321 0.931 . S
H1349 C1323 0.929 . S
H1350 C1324 0.930 . S
H1351 C1325 0.931 . S
H1352 C1332 0.932 . S
H1353 C1333 0.930 . S
H1354 C1334 0.929 . S
H1355 C1336 0.930 . S
H1356 C1338 0.932 . S
H1357 C1339 0.929 . S
H1358 C1340 0.928 . S
H1359 C1342 0.932 . S
C1360 C1361 1.264 . S
C1360 C1365 1.479 . S
C1360 C1370 1.465 . S
C1361 C1360 1.264 . S
C1361 C1363 1.339 . S
C1361 H1388 0.931 . S
C1362 C1363 1.395 . S
C1362 C1364 1.320 . S
C1363 C1361 1.339 . S
C1363 C1362 1.395 . S
C1363 H1389 0.929 . S
C1364 C1362 1.320 . S
C1364 C1365 1.405 . S
C1364 H1390 0.930 . S
C1365 C1360 1.479 . S
C1365 C1364 1.405 . S
C1365 H1391 0.931 . S
U1366 O1367 2.454 . S
U1366 O1368 2.458 . S
U1366 C1369 2.984 . S
U1366 C1370 2.847 . S
U1366 C1383 2.882 . S
U1366 O1384 2.441 . S
U1366 O1385 2.420 . S
U1366 O1386 2.455 . S
U1366 O1387 2.449 . S
O1367 U1366 2.454 . S
O1367 C1369 1.353 . S
O1368 U1366 2.458 . S
O1368 C1369 1.286 . S
C1369 U1366 2.984 . S
C1369 O1367 1.353 . S
C1369 O1368 1.286 . S
C1369 C1371 1.363 . S
C1370 C1360 1.465 . S
C1370 U1366 2.847 . S
C1370 O1384 1.249 . S
C1370 O1385 1.202 . S
C1371 C1369 1.363 . S
C1371 C1373 1.408 . S
C1371 C1376 1.342 . S
C1372 C1373 1.310 . S
C1372 C1375 1.461 . S
C1372 H1392 0.932 . S
C1373 C1371 1.408 . S
C1373 C1372 1.310 . S
C1373 H1393 0.930 . S
C1374 C1375 1.474 . S
C1374 C1376 1.285 . S
C1374 H1394 0.929 . S
C1375 C1372 1.461 . S
C1375 C1374 1.474 . S
C1376 C1371 1.342 . S
C1376 C1374 1.285 . S
C1376 H1395 0.930 . S
C1377 C1380 1.424 . S
C1377 C1382 1.245 . S
C1377 C1383 1.428 . S
C1378 C1381 1.260 . S
C1378 C1382 1.477 . S
C1378 H1396 0.932 . S
C1379 C1380 1.384 . S
C1379 C1381 1.479 . S
C1379 H1397 0.929 . S
C1380 C1377 1.424 . S
C1380 C1379 1.384 . S
C1380 H1398 0.928 . S
C1381 C1378 1.260 . S
C1381 C1379 1.479 . S
C1382 C1377 1.245 . S
C1382 C1378 1.477 . S
C1382 H1399 0.932 . S
C1383 U1366 2.882 . S
C1383 C1377 1.428 . S
C1383 O1386 1.301 . S
C1383 O1387 1.282 . S
O1384 U1366 2.441 . S
O1384 C1370 1.249 . S
O1385 U1366 2.420 . S
O1385 C1370 1.202 . S
O1386 U1366 2.455 . S
O1386 C1383 1.301 . S
O1387 U1366 2.449 . S
O1387 C1383 1.282 . S
H1388 C1361 0.931 . S
H1389 C1363 0.929 . S
H1390 C1364 0.930 . S
H1391 C1365 0.931 . S
H1392 C1372 0.932 . S
H1393 C1373 0.930 . S
H1394 C1374 0.929 . S
H1395 C1376 0.930 . S
H1396 C1378 0.932 . S
H1397 C1379 0.929 . S
H1398 C1380 0.928 . S
H1399 C1382 0.932 . S
C1400 C1401 1.264 . S
C1400 C1405 1.479 . S
C1400 C1410 1.465 . S
C1401 C1400 1.264 . S
C1401 C1403 1.339 . S
C1401 H1428 0.931 . S
C1402 C1403 1.395 . S
C1402 C1404 1.320 . S
C1403 C1401 1.339 . S
C1403 C1402 1.395 . S
C1403 H1429 0.929 . S
C1404 C1402 1.320 . S
C1404 C1405 1.405 . S
C1404 H1430 0.930 . S
C1405 C1400 1.479 . S
C1405 C1404 1.405 . S
C1405 H1431 0.931 . S
U1406 O1407 2.454 . S
U1406 O1408 2.458 . S
U1406 C1409 2.984 . S
U1406 C1410 2.847 . S
U1406 C1423 2.882 . S
U1406 O1424 2.441 . S
U1406 O1425 2.420 . S
U1406 O1426 2.455 . S
U1406 O1427 2.449 . S
O1407 U1406 2.454 . S
O1407 C1409 1.353 . S
O1408 U1406 2.458 . S
O1408 C1409 1.286 . S
C1409 U1406 2.984 . S
C1409 O1407 1.353 . S
C1409 O1408 1.286 . S
C1409 C1411 1.363 . S
C1410 C1400 1.465 . S
C1410 U1406 2.847 . S
C1410 O1424 1.249 . S
C1410 O1425 1.202 . S
C1411 C1409 1.363 . S
C1411 C1413 1.408 . S
C1411 C1416 1.342 . S
C1412 C1413 1.310 . S
C1412 C1415 1.461 . S
C1412 H1432 0.932 . S
C1413 C1411 1.408 . S
C1413 C1412 1.310 . S
C1413 H1433 0.930 . S
C1414 C1415 1.474 . S
C1414 C1416 1.285 . S
C1414 H1434 0.929 . S
C1415 C1412 1.461 . S
C1415 C1414 1.474 . S
C1416 C1411 1.342 . S
C1416 C1414 1.285 . S
C1416 H1435 0.930 . S
C1417 C1420 1.424 . S
C1417 C1422 1.245 . S
C1417 C1423 1.428 . S
C1418 C1421 1.260 . S
C1418 C1422 1.477 . S
C1418 H1436 0.932 . S
C1419 C1420 1.384 . S
C1419 C1421 1.479 . S
C1419 H1437 0.929 . S
C1420 C1417 1.424 . S
C1420 C1419 1.384 . S
C1420 H1438 0.928 . S
C1421 C1418 1.260 . S
C1421 C1419 1.479 . S
C1422 C1417 1.245 . S
C1422 C1418 1.477 . S
C1422 H1439 0.932 . S
C1423 U1406 2.882 . S
C1423 C1417 1.428 . S
C1423 O1426 1.301 . S
C1423 O1427 1.282 . S
O1424 U1406 2.441 . S
O1424 C1410 1.249 . S
O1425 U1406 2.420 . S
O1425 C1410 1.202 . S
O1426 U1406 2.455 . S
O1426 C1423 1.301 . S
O1427 U1406 2.449 . S
O1427 C1423 1.282 . S
H1428 C1401 0.931 . S
H1429 C1403 0.929 . S
H1430 C1404 0.930 . S
H1431 C1405 0.931 . S
H1432 C1412 0.932 . S
H1433 C1413 0.930 . S
H1434 C1414 0.929 . S
H1435 C1416 0.930 . S
H1436 C1418 0.932 . S
H1437 C1419 0.929 . S
H1438 C1420 0.928 . S
H1439 C1422 0.932 . S
C1440 C1441 1.264 . S
C1440 C1445 1.479 . S
C1440 C1450 1.465 . S
C1441 C1440 1.264 . S
C1441 C1443 1.339 . S
C1441 H1468 0.931 . S
C1442 C1443 1.395 . S
C1442 C1444 1.320 . S
C1443 C1441 1.339 . S
C1443 C1442 1.395 . S
C1443 H1469 0.929 . S
C1444 C1442 1.320 . S
C1444 C1445 1.405 . S
C1444 H1470 0.930 . S
C1445 C1440 1.479 . S
C1445 C1444 1.405 . S
C1445 H1471 0.931 . S
U1446 O1447 2.454 . S
U1446 O1448 2.458 . S
U1446 C1449 2.984 . S
U1446 C1450 2.847 . S
U1446 C1463 2.882 . S
U1446 O1464 2.441 . S
U1446 O1465 2.420 . S
U1446 O1466 2.455 . S
U1446 O1467 2.449 . S
O1447 U1446 2.454 . S
O1447 C1449 1.353 . S
O1448 U1446 2.458 . S
O1448 C1449 1.286 . S
C1449 U1446 2.984 . S
C1449 O1447 1.353 . S
C1449 O1448 1.286 . S
C1449 C1451 1.363 . S
C1450 C1440 1.465 . S
C1450 U1446 2.847 . S
C1450 O1464 1.249 . S
C1450 O1465 1.202 . S
C1451 C1449 1.363 . S
C1451 C1453 1.408 . S
C1451 C1456 1.342 . S
C1452 C1453 1.310 . S
C1452 C1455 1.461 . S
C1452 H1472 0.932 . S
C1453 C1451 1.408 . S
C1453 C1452 1.310 . S
C1453 H1473 0.930 . S
C1454 C1455 1.474 . S
C1454 C1456 1.285 . S
C1454 H1474 0.929 . S
C1455 C1452 1.461 . S
C1455 C1454 1.474 . S
C1456 C1451 1.342 . S
C1456 C1454 1.285 . S
C1456 H1475 0.930 . S
C1457 C1460 1.424 . S
C1457 C1462 1.245 . S
C1457 C1463 1.428 . S
C1458 C1461 1.260 . S
C1458 C1462 1.477 . S
C1458 H1476 0.932 . S
C1459 C1460 1.384 . S
C1459 C1461 1.479 . S
C1459 H1477 0.929 . S
C1460 C1457 1.424 . S
C1460 C1459 1.384 . S
C1460 H1478 0.928 . S
C1461 C1458 1.260 . S
C1461 C1459 1.479 . S
C1462 C1457 1.245 . S
C1462 C1458 1.477 . S
C1462 H1479 0.932 . S
C1463 U1446 2.882 . S
C1463 C1457 1.428 . S
C1463 O1466 1.301 . S
C1463 O1467 1.282 . S
O1464 U1446 2.441 . S
O1464 C1450 1.249 . S
O1465 U1446 2.420 . S
O1465 C1450 1.202 . S
O1466 U1446 2.455 . S
O1466 C1463 1.301 . S
O1467 U1446 2.449 . S
O1467 C1463 1.282 . S
H1468 C1441 0.931 . S
H1469 C1443 0.929 . S
H1470 C1444 0.930 . S
H1471 C1445 0.931 . S
H1472 C1452 0.932 . S
H1473 C1453 0.930 . S
H1474 C1454 0.929 . S
H1475 C1456 0.930 . S
H1476 C1458 0.932 . S
H1477 C1459 0.929 . S
H1478 C1460 0.928 . S
H1479 C1462 0.932 . S
C1480 C1481 1.264 . S
C1480 C1485 1.479 . S
C1480 C1490 1.465 . S
C1481 C1480 1.264 . S
C1481 C1483 1.339 . S
C1481 H1508 0.931 . S
C1482 C1483 1.395 . S
C1482 C1484 1.320 . S
C1483 C1481 1.339 . S
C1483 C1482 1.395 . S
C1483 H1509 0.929 . S
C1484 C1482 1.320 . S
C1484 C1485 1.405 . S
C1484 H1510 0.930 . S
C1485 C1480 1.479 . S
C1485 C1484 1.405 . S
C1485 H1511 0.931 . S
U1486 O1487 2.454 . S
U1486 O1488 2.458 . S
U1486 C1489 2.984 . S
U1486 C1490 2.847 . S
U1486 C1503 2.882 . S
U1486 O1504 2.441 . S
U1486 O1505 2.420 . S
U1486 O1506 2.455 . S
U1486 O1507 2.449 . S
O1487 U1486 2.454 . S
O1487 C1489 1.353 . S
O1488 U1486 2.458 . S
O1488 C1489 1.286 . S
C1489 U1486 2.984 . S
C1489 O1487 1.353 . S
C1489 O1488 1.286 . S
C1489 C1491 1.363 . S
C1490 C1480 1.465 . S
C1490 U1486 2.847 . S
C1490 O1504 1.249 . S
C1490 O1505 1.202 . S
C1491 C1489 1.363 . S
C1491 C1493 1.408 . S
C1491 C1496 1.342 . S
C1492 C1493 1.310 . S
C1492 C1495 1.461 . S
C1492 H1512 0.932 . S
C1493 C1491 1.408 . S
C1493 C1492 1.310 . S
C1493 H1513 0.930 . S
C1494 C1495 1.474 . S
C1494 C1496 1.285 . S
C1494 H1514 0.929 . S
C1495 C1492 1.461 . S
C1495 C1494 1.474 . S
C1496 C1491 1.342 . S
C1496 C1494 1.285 . S
C1496 H1515 0.930 . S
C1497 C1500 1.424 . S
C1497 C1502 1.245 . S
C1497 C1503 1.428 . S
C1498 C1501 1.260 . S
C1498 C1502 1.477 . S
C1498 H1516 0.932 . S
C1499 C1500 1.384 . S
C1499 C1501 1.479 . S
C1499 H1517 0.929 . S
C1500 C1497 1.424 . S
C1500 C1499 1.384 . S
C1500 H1518 0.928 . S
C1501 C1498 1.260 . S
C1501 C1499 1.479 . S
C1502 C1497 1.245 . S
C1502 C1498 1.477 . S
C1502 H1519 0.932 . S
C1503 U1486 2.882 . S
C1503 C1497 1.428 . S
C1503 O1506 1.301 . S
C1503 O1507 1.282 . S
O1504 U1486 2.441 . S
O1504 C1490 1.249 . S
O1505 U1486 2.420 . S
O1505 C1490 1.202 . S
O1506 U1486 2.455 . S
O1506 C1503 1.301 . S
O1507 U1486 2.449 . S
O1507 C1503 1.282 . S
H1508 C1481 0.931 . S
H1509 C1483 0.929 . S
H1510 C1484 0.930 . S
H1511 C1485 0.931 . S
H1512 C1492 0.932 . S
H1513 C1493 0.930 . S
H1514 C1494 0.929 . S
H1515 C1496 0.930 . S
H1516 C1498 0.932 . S
H1517 C1499 0.929 . S
H1518 C1500 0.928 . S
H1519 C1502 0.932 . S
C1520 C1521 1.264 . S
C1520 C1525 1.479 . S
C1520 C1530 1.465 . S
C1521 C1520 1.264 . S
C1521 C1523 1.339 . S
C1521 H1548 0.931 . S
C1522 C1523 1.395 . S
C1522 C1524 1.320 . S
C1523 C1521 1.339 . S
C1523 C1522 1.395 . S
C1523 H1549 0.929 . S
C1524 C1522 1.320 . S
C1524 C1525 1.405 . S
C1524 H1550 0.930 . S
C1525 C1520 1.479 . S
C1525 C1524 1.405 . S
C1525 H1551 0.931 . S
U1526 O1527 2.454 . S
U1526 O1528 2.458 . S
U1526 C1529 2.984 . S
U1526 C1530 2.847 . S
U1526 C1543 2.882 . S
U1526 O1544 2.441 . S
U1526 O1545 2.420 . S
U1526 O1546 2.455 . S
U1526 O1547 2.449 . S
O1527 U1526 2.454 . S
O1527 C1529 1.353 . S
O1528 U1526 2.458 . S
O1528 C1529 1.286 . S
C1529 U1526 2.984 . S
C1529 O1527 1.353 . S
C1529 O1528 1.286 . S
C1529 C1531 1.363 . S
C1530 C1520 1.465 . S
C1530 U1526 2.847 . S
C1530 O1544 1.249 . S
C1530 O1545 1.202 . S
C1531 C1529 1.363 . S
C1531 C1533 1.408 . S
C1531 C1536 1.342 . S
C1532 C1533 1.310 . S
C1532 C1535 1.461 . S
C1532 H1552 0.932 . S
C1533 C1531 1.408 . S
C1533 C1532 1.310 . S
C1533 H1553 0.930 . S
C1534 C1535 1.474 . S
C1534 C1536 1.285 . S
C1534 H1554 0.929 . S
C1535 C1532 1.461 . S
C1535 C1534 1.474 . S
C1536 C1531 1.342 . S
C1536 C1534 1.285 . S
C1536 H1555 0.930 . S
C1537 C1540 1.424 . S
C1537 C1542 1.245 . S
C1537 C1543 1.428 . S
C1538 C1541 1.260 . S
C1538 C1542 1.477 . S
C1538 H1556 0.932 . S
C1539 C1540 1.384 . S
C1539 C1541 1.479 . S
C1539 H1557 0.929 . S
C1540 C1537 1.424 . S
C1540 C1539 1.384 . S
C1540 H1558 0.928 . S
C1541 C1538 1.260 . S
C1541 C1539 1.479 . S
C1542 C1537 1.245 . S
C1542 C1538 1.477 . S
C1542 H1559 0.932 . S
C1543 U1526 2.882 . S
C1543 C1537 1.428 . S
C1543 O1546 1.301 . S
C1543 O1547 1.282 . S
O1544 U1526 2.441 . S
O1544 C1530 1.249 . S
O1545 U1526 2.420 . S
O1545 C1530 1.202 . S
O1546 U1526 2.455 . S
O1546 C1543 1.301 . S
O1547 U1526 2.449 . S
O1547 C1543 1.282 . S
H1548 C1521 0.931 . S
H1549 C1523 0.929 . S
H1550 C1524 0.930 . S
H1551 C1525 0.931 . S
H1552 C1532 0.932 . S
H1553 C1533 0.930 . S
H1554 C1534 0.929 . S
H1555 C1536 0.930 . S
H1556 C1538 0.932 . S
H1557 C1539 0.929 . S
H1558 C1540 0.928 . S
H1559 C1542 0.932 . S
C1560 C1561 1.264 . S
C1560 C1565 1.479 . S
C1560 C1570 1.465 . S
C1561 C1560 1.264 . S
C1561 C1563 1.339 . S
C1561 H1588 0.931 . S
C1562 C1563 1.395 . S
C1562 C1564 1.320 . S
C1563 C1561 1.339 . S
C1563 C1562 1.395 . S
C1563 H1589 0.929 . S
C1564 C1562 1.320 . S
C1564 C1565 1.405 . S
C1564 H1590 0.930 . S
C1565 C1560 1.479 . S
C1565 C1564 1.405 . S
C1565 H1591 0.931 . S
U1566 O1567 2.454 . S
U1566 O1568 2.458 . S
U1566 C1569 2.984 . S
U1566 C1570 2.847 . S
U1566 C1583 2.882 . S
U1566 O1584 2.441 . S
U1566 O1585 2.420 . S
U1566 O1586 2.455 . S
U1566 O1587 2.449 . S
O1567 U1566 2.454 . S
O1567 C1569 1.353 . S
O1568 U1566 2.458 . S
O1568 C1569 1.286 . S
C1569 U1566 2.984 . S
C1569 O1567 1.353 . S
C1569 O1568 1.286 . S
C1569 C1571 1.363 . S
C1570 C1560 1.465 . S
C1570 U1566 2.847 . S
C1570 O1584 1.249 . S
C1570 O1585 1.202 . S
C1571 C1569 1.363 . S
C1571 C1573 1.408 . S
C1571 C1576 1.342 . S
C1572 C1573 1.310 . S
C1572 C1575 1.461 . S
C1572 H1592 0.932 . S
C1573 C1571 1.408 . S
C1573 C1572 1.310 . S
C1573 H1593 0.930 . S
C1574 C1575 1.474 . S
C1574 C1576 1.285 . S
C1574 H1594 0.929 . S
C1575 C1572 1.461 . S
C1575 C1574 1.474 . S
C1576 C1571 1.342 . S
C1576 C1574 1.285 . S
C1576 H1595 0.930 . S
C1577 C1580 1.424 . S
C1577 C1582 1.245 . S
C1577 C1583 1.428 . S
C1578 C1581 1.260 . S
C1578 C1582 1.477 . S
C1578 H1596 0.932 . S
C1579 C1580 1.384 . S
C1579 C1581 1.479 . S
C1579 H1597 0.929 . S
C1580 C1577 1.424 . S
C1580 C1579 1.384 . S
C1580 H1598 0.928 . S
C1581 C1578 1.260 . S
C1581 C1579 1.479 . S
C1582 C1577 1.245 . S
C1582 C1578 1.477 . S
C1582 H1599 0.932 . S
C1583 U1566 2.882 . S
C1583 C1577 1.428 . S
C1583 O1586 1.301 . S
C1583 O1587 1.282 . S
O1584 U1566 2.441 . S
O1584 C1570 1.249 . S
O1585 U1566 2.420 . S
O1585 C1570 1.202 . S
O1586 U1566 2.455 . S
O1586 C1583 1.301 . S
O1587 U1566 2.449 . S
O1587 C1583 1.282 . S
H1588 C1561 0.931 . S
H1589 C1563 0.929 . S
H1590 C1564 0.930 . S
H1591 C1565 0.931 . S
H1592 C1572 0.932 . S
H1593 C1573 0.930 . S
H1594 C1574 0.929 . S
H1595 C1576 0.930 . S
H1596 C1578 0.932 . S
H1597 C1579 0.929 . S
H1598 C1580 0.928 . S
H1599 C1582 0.932 . S
C1600 C1601 1.264 . S
C1600 C1605 1.479 . S
C1600 C1610 1.465 . S
C1601 C1600 1.264 . S
C1601 C1603 1.339 . S
C1601 H1628 0.931 . S
C1602 C1603 1.395 . S
C1602 C1604 1.320 . S
C1603 C1601 1.339 . S
C1603 C1602 1.395 . S
C1603 H1629 0.929 . S
C1604 C1602 1.320 . S
C1604 C1605 1.405 . S
C1604 H1630 0.930 . S
C1605 C1600 1.479 . S
C1605 C1604 1.405 . S
C1605 H1631 0.931 . S
U1606 O1607 2.454 . S
U1606 O1608 2.458 . S
U1606 C1609 2.984 . S
U1606 C1610 2.847 . S
U1606 C1623 2.882 . S
U1606 O1624 2.441 . S
U1606 O1625 2.420 . S
U1606 O1626 2.455 . S
U1606 O1627 2.449 . S
O1607 U1606 2.454 . S
O1607 C1609 1.353 . S
O1608 U1606 2.458 . S
O1608 C1609 1.286 . S
C1609 U1606 2.984 . S
C1609 O1607 1.353 . S
C1609 O1608 1.286 . S
C1609 C1611 1.363 . S
C1610 C1600 1.465 . S
C1610 U1606 2.847 . S
C1610 O1624 1.249 . S
C1610 O1625 1.202 . S
C1611 C1609 1.363 . S
C1611 C1613 1.408 . S
C1611 C1616 1.342 . S
C1612 C1613 1.310 . S
C1612 C1615 1.461 . S
C1612 H1632 0.932 . S
C1613 C1611 1.408 . S
C1613 C1612 1.310 . S
C1613 H1633 0.930 . S
C1614 C1615 1.474 . S
C1614 C1616 1.285 . S
C1614 H1634 0.929 . S
C1615 C1612 1.461 . S
C1615 C1614 1.474 . S
C1616 C1611 1.342 . S
C1616 C1614 1.285 . S
C1616 H1635 0.930 . S
C1617 C1620 1.424 . S
C1617 C1622 1.245 . S
C1617 C1623 1.428 . S
C1618 C1621 1.260 . S
C1618 C1622 1.477 . S
C1618 H1636 0.932 . S
C1619 C1620 1.384 . S
C1619 C1621 1.479 . S
C1619 H1637 0.929 . S
C1620 C1617 1.424 . S
C1620 C1619 1.384 . S
C1620 H1638 0.928 . S
C1621 C1618 1.260 . S
C1621 C1619 1.479 . S
C1622 C1617 1.245 . S
C1622 C1618 1.477 . S
C1622 H1639 0.932 . S
C1623 U1606 2.882 . S
C1623 C1617 1.428 . S
C1623 O1626 1.301 . S
C1623 O1627 1.282 . S
O1624 U1606 2.441 . S
O1624 C1610 1.249 . S
O1625 U1606 2.420 . S
O1625 C1610 1.202 . S
O1626 U1606 2.455 . S
O1626 C1623 1.301 . S
O1627 U1606 2.449 . S
O1627 C1623 1.282 . S
H1628 C1601 0.931 . S
H1629 C1603 0.929 . S
H1630 C1604 0.930 . S
H1631 C1605 0.931 . S
H1632 C1612 0.932 . S
H1633 C1613 0.930 . S
H1634 C1614 0.929 . S
H1635 C1616 0.930 . S
H1636 C1618 0.932 . S
H1637 C1619 0.929 . S
H1638 C1620 0.928 . S
H1639 C1622 0.932 . S
C1640 C1641 1.264 . S
C1640 C1645 1.479 . S
C1640 C1650 1.465 . S
C1641 C1640 1.264 . S
C1641 C1643 1.339 . S
C1641 H1668 0.931 . S
C1642 C1643 1.395 . S
C1642 C1644 1.320 . S
C1643 C1641 1.339 . S
C1643 C1642 1.395 . S
C1643 H1669 0.929 . S
C1644 C1642 1.320 . S
C1644 C1645 1.405 . S
C1644 H1670 0.930 . S
C1645 C1640 1.479 . S
C1645 C1644 1.405 . S
C1645 H1671 0.931 . S
U1646 O1647 2.454 . S
U1646 O1648 2.458 . S
U1646 C1649 2.984 . S
U1646 C1650 2.847 . S
U1646 C1663 2.882 . S
U1646 O1664 2.441 . S
U1646 O1665 2.420 . S
U1646 O1666 2.455 . S
U1646 O1667 2.449 . S
O1647 U1646 2.454 . S
O1647 C1649 1.353 . S
O1648 U1646 2.458 . S
O1648 C1649 1.286 . S
C1649 U1646 2.984 . S
C1649 O1647 1.353 . S
C1649 O1648 1.286 . S
C1649 C1651 1.363 . S
C1650 C1640 1.465 . S
C1650 U1646 2.847 . S
C1650 O1664 1.249 . S
C1650 O1665 1.202 . S
C1651 C1649 1.363 . S
C1651 C1653 1.408 . S
C1651 C1656 1.342 . S
C1652 C1653 1.310 . S
C1652 C1655 1.461 . S
C1652 H1672 0.932 . S
C1653 C1651 1.408 . S
C1653 C1652 1.310 . S
C1653 H1673 0.930 . S
C1654 C1655 1.474 . S
C1654 C1656 1.285 . S
C1654 H1674 0.929 . S
C1655 C1652 1.461 . S
C1655 C1654 1.474 . S
C1656 C1651 1.342 . S
C1656 C1654 1.285 . S
C1656 H1675 0.930 . S
C1657 C1660 1.424 . S
C1657 C1662 1.245 . S
C1657 C1663 1.428 . S
C1658 C1661 1.260 . S
C1658 C1662 1.477 . S
C1658 H1676 0.932 . S
C1659 C1660 1.384 . S
C1659 C1661 1.479 . S
C1659 H1677 0.929 . S
C1660 C1657 1.424 . S
C1660 C1659 1.384 . S
C1660 H1678 0.928 . S
C1661 C1658 1.260 . S
C1661 C1659 1.479 . S
C1662 C1657 1.245 . S
C1662 C1658 1.477 . S
C1662 H1679 0.932 . S
C1663 U1646 2.882 . S
C1663 C1657 1.428 . S
C1663 O1666 1.301 . S
C1663 O1667 1.282 . S
O1664 U1646 2.441 . S
O1664 C1650 1.249 . S
O1665 U1646 2.420 . S
O1665 C1650 1.202 . S
O1666 U1646 2.455 . S
O1666 C1663 1.301 . S
O1667 U1646 2.449 . S
O1667 C1663 1.282 . S
H1668 C1641 0.931 . S
H1669 C1643 0.929 . S
H1670 C1644 0.930 . S
H1671 C1645 0.931 . S
H1672 C1652 0.932 . S
H1673 C1653 0.930 . S
H1674 C1654 0.929 . S
H1675 C1656 0.930 . S
H1676 C1658 0.932 . S
H1677 C1659 0.929 . S
H1678 C1660 0.928 . S
H1679 C1662 0.932 . S
C1680 C1681 1.264 . S
C1680 C1685 1.479 . S
C1680 C1690 1.465 . S
C1681 C1680 1.264 . S
C1681 C1683 1.339 . S
C1681 H1708 0.931 . S
C1682 C1683 1.395 . S
C1682 C1684 1.320 . S
C1683 C1681 1.339 . S
C1683 C1682 1.395 . S
C1683 H1709 0.929 . S
C1684 C1682 1.320 . S
C1684 C1685 1.405 . S
C1684 H1710 0.930 . S
C1685 C1680 1.479 . S
C1685 C1684 1.405 . S
C1685 H1711 0.931 . S
U1686 O1687 2.454 . S
U1686 O1688 2.458 . S
U1686 C1689 2.984 . S
U1686 C1690 2.847 . S
U1686 C1703 2.882 . S
U1686 O1704 2.441 . S
U1686 O1705 2.420 . S
U1686 O1706 2.455 . S
U1686 O1707 2.449 . S
O1687 U1686 2.454 . S
O1687 C1689 1.353 . S
O1688 U1686 2.458 . S
O1688 C1689 1.286 . S
C1689 U1686 2.984 . S
C1689 O1687 1.353 . S
C1689 O1688 1.286 . S
C1689 C1691 1.363 . S
C1690 C1680 1.465 . S
C1690 U1686 2.847 . S
C1690 O1704 1.249 . S
C1690 O1705 1.202 . S
C1691 C1689 1.363 . S
C1691 C1693 1.408 . S
C1691 C1696 1.342 . S
C1692 C1693 1.310 . S
C1692 C1695 1.461 . S
C1692 H1712 0.932 . S
C1693 C1691 1.408 . S
C1693 C1692 1.310 . S
C1693 H1713 0.930 . S
C1694 C1695 1.474 . S
C1694 C1696 1.285 . S
C1694 H1714 0.929 . S
C1695 C1692 1.461 . S
C1695 C1694 1.474 . S
C1696 C1691 1.342 . S
C1696 C1694 1.285 . S
C1696 H1715 0.930 . S
C1697 C1700 1.424 . S
C1697 C1702 1.245 . S
C1697 C1703 1.428 . S
C1698 C1701 1.260 . S
C1698 C1702 1.477 . S
C1698 H1716 0.932 . S
C1699 C1700 1.384 . S
C1699 C1701 1.479 . S
C1699 H1717 0.929 . S
C1700 C1697 1.424 . S
C1700 C1699 1.384 . S
C1700 H1718 0.928 . S
C1701 C1698 1.260 . S
C1701 C1699 1.479 . S
C1702 C1697 1.245 . S
C1702 C1698 1.477 . S
C1702 H1719 0.932 . S
C1703 U1686 2.882 . S
C1703 C1697 1.428 . S
C1703 O1706 1.301 . S
C1703 O1707 1.282 . S
O1704 U1686 2.441 . S
O1704 C1690 1.249 . S
O1705 U1686 2.420 . S
O1705 C1690 1.202 . S
O1706 U1686 2.455 . S
O1706 C1703 1.301 . S
O1707 U1686 2.449 . S
O1707 C1703 1.282 . S
H1708 C1681 0.931 . S
H1709 C1683 0.929 . S
H1710 C1684 0.930 . S
H1711 C1685 0.931 . S
H1712 C1692 0.932 . S
H1713 C1693 0.930 . S
H1714 C1694 0.929 . S
H1715 C1696 0.930 . S
H1716 C1698 0.932 . S
H1717 C1699 0.929 . S
H1718 C1700 0.928 . S
H1719 C1702 0.932 . S
C1720 C1721 1.264 . S
C1720 C1725 1.479 . S
C1720 C1730 1.465 . S
C1721 C1720 1.264 . S
C1721 C1723 1.339 . S
C1721 H1748 0.931 . S
C1722 C1723 1.395 . S
C1722 C1724 1.320 . S
C1723 C1721 1.339 . S
C1723 C1722 1.395 . S
C1723 H1749 0.929 . S
C1724 C1722 1.320 . S
C1724 C1725 1.405 . S
C1724 H1750 0.930 . S
C1725 C1720 1.479 . S
C1725 C1724 1.405 . S
C1725 H1751 0.931 . S
U1726 O1727 2.454 . S
U1726 O1728 2.458 . S
U1726 C1729 2.984 . S
U1726 C1730 2.847 . S
U1726 C1743 2.882 . S
U1726 O1744 2.441 . S
U1726 O1745 2.420 . S
U1726 O1746 2.455 . S
U1726 O1747 2.449 . S
O1727 U1726 2.454 . S
O1727 C1729 1.353 . S
O1728 U1726 2.458 . S
O1728 C1729 1.286 . S
C1729 U1726 2.984 . S
C1729 O1727 1.353 . S
C1729 O1728 1.286 . S
C1729 C1731 1.363 . S
C1730 C1720 1.465 . S
C1730 U1726 2.847 . S
C1730 O1744 1.249 . S
C1730 O1745 1.202 . S
C1731 C1729 1.363 . S
C1731 C1733 1.408 . S
C1731 C1736 1.342 . S
C1732 C1733 1.310 . S
C1732 C1735 1.461 . S
C1732 H1752 0.932 . S
C1733 C1731 1.408 . S
C1733 C1732 1.310 . S
C1733 H1753 0.930 . S
C1734 C1735 1.474 . S
C1734 C1736 1.285 . S
C1734 H1754 0.929 . S
C1735 C1732 1.461 . S
C1735 C1734 1.474 . S
C1736 C1731 1.342 . S
C1736 C1734 1.285 . S
C1736 H1755 0.930 . S
C1737 C1740 1.424 . S
C1737 C1742 1.245 . S
C1737 C1743 1.428 . S
C1738 C1741 1.260 . S
C1738 C1742 1.477 . S
C1738 H1756 0.932 . S
C1739 C1740 1.384 . S
C1739 C1741 1.479 . S
C1739 H1757 0.929 . S
C1740 C1737 1.424 . S
C1740 C1739 1.384 . S
C1740 H1758 0.928 . S
C1741 C1738 1.260 . S
C1741 C1739 1.479 . S
C1742 C1737 1.245 . S
C1742 C1738 1.477 . S
C1742 H1759 0.932 . S
C1743 U1726 2.882 . S
C1743 C1737 1.428 . S
C1743 O1746 1.301 . S
C1743 O1747 1.282 . S
O1744 U1726 2.441 . S
O1744 C1730 1.249 . S
O1745 U1726 2.420 . S
O1745 C1730 1.202 . S
O1746 U1726 2.455 . S
O1746 C1743 1.301 . S
O1747 U1726 2.449 . S
O1747 C1743 1.282 . S
H1748 C1721 0.931 . S
H1749 C1723 0.929 . S
H1750 C1724 0.930 . S
H1751 C1725 0.931 . S
H1752 C1732 0.932 . S
H1753 C1733 0.930 . S
H1754 C1734 0.929 . S
H1755 C1736 0.930 . S
H1756 C1738 0.932 . S
H1757 C1739 0.929 . S
H1758 C1740 0.928 . S
H1759 C1742 0.932 . S
C1760 C1761 1.264 . S
C1760 C1765 1.479 . S
C1760 C1770 1.465 . S
C1761 C1760 1.264 . S
C1761 C1763 1.339 . S
C1761 H1788 0.931 . S
C1762 C1763 1.395 . S
C1762 C1764 1.320 . S
C1763 C1761 1.339 . S
C1763 C1762 1.395 . S
C1763 H1789 0.929 . S
C1764 C1762 1.320 . S
C1764 C1765 1.405 . S
C1764 H1790 0.930 . S
C1765 C1760 1.479 . S
C1765 C1764 1.405 . S
C1765 H1791 0.931 . S
U1766 O1767 2.454 . S
U1766 O1768 2.458 . S
U1766 C1769 2.984 . S
U1766 C1770 2.847 . S
U1766 C1783 2.882 . S
U1766 O1784 2.441 . S
U1766 O1785 2.420 . S
U1766 O1786 2.455 . S
U1766 O1787 2.449 . S
O1767 U1766 2.454 . S
O1767 C1769 1.353 . S
O1768 U1766 2.458 . S
O1768 C1769 1.286 . S
C1769 U1766 2.984 . S
C1769 O1767 1.353 . S
C1769 O1768 1.286 . S
C1769 C1771 1.363 . S
C1770 C1760 1.465 . S
C1770 U1766 2.847 . S
C1770 O1784 1.249 . S
C1770 O1785 1.202 . S
C1771 C1769 1.363 . S
C1771 C1773 1.408 . S
C1771 C1776 1.342 . S
C1772 C1773 1.310 . S
C1772 C1775 1.461 . S
C1772 H1792 0.932 . S
C1773 C1771 1.408 . S
C1773 C1772 1.310 . S
C1773 H1793 0.930 . S
C1774 C1775 1.474 . S
C1774 C1776 1.285 . S
C1774 H1794 0.929 . S
C1775 C1772 1.461 . S
C1775 C1774 1.474 . S
C1776 C1771 1.342 . S
C1776 C1774 1.285 . S
C1776 H1795 0.930 . S
C1777 C1780 1.424 . S
C1777 C1782 1.245 . S
C1777 C1783 1.428 . S
C1778 C1781 1.260 . S
C1778 C1782 1.477 . S
C1778 H1796 0.932 . S
C1779 C1780 1.384 . S
C1779 C1781 1.479 . S
C1779 H1797 0.929 . S
C1780 C1777 1.424 . S
C1780 C1779 1.384 . S
C1780 H1798 0.928 . S
C1781 C1778 1.260 . S
C1781 C1779 1.479 . S
C1782 C1777 1.245 . S
C1782 C1778 1.477 . S
C1782 H1799 0.932 . S
C1783 U1766 2.882 . S
C1783 C1777 1.428 . S
C1783 O1786 1.301 . S
C1783 O1787 1.282 . S
O1784 U1766 2.441 . S
O1784 C1770 1.249 . S
O1785 U1766 2.420 . S
O1785 C1770 1.202 . S
O1786 U1766 2.455 . S
O1786 C1783 1.301 . S
O1787 U1766 2.449 . S
O1787 C1783 1.282 . S
H1788 C1761 0.931 . S
H1789 C1763 0.929 . S
H1790 C1764 0.930 . S
H1791 C1765 0.931 . S
H1792 C1772 0.932 . S
H1793 C1773 0.930 . S
H1794 C1774 0.929 . S
H1795 C1776 0.930 . S
H1796 C1778 0.932 . S
H1797 C1779 0.929 . S
H1798 C1780 0.928 . S
H1799 C1782 0.932 . S
C1800 C1801 1.264 . S
C1800 C1805 1.479 . S
C1800 C1810 1.465 . S
C1801 C1800 1.264 . S
C1801 C1803 1.339 . S
C1801 H1828 0.931 . S
C1802 C1803 1.395 . S
C1802 C1804 1.320 . S
C1803 C1801 1.339 . S
C1803 C1802 1.395 . S
C1803 H1829 0.929 . S
C1804 C1802 1.320 . S
C1804 C1805 1.405 . S
C1804 H1830 0.930 . S
C1805 C1800 1.479 . S
C1805 C1804 1.405 . S
C1805 H1831 0.931 . S
U1806 O1807 2.454 . S
U1806 O1808 2.458 . S
U1806 C1809 2.984 . S
U1806 C1810 2.847 . S
U1806 C1823 2.882 . S
U1806 O1824 2.441 . S
U1806 O1825 2.420 . S
U1806 O1826 2.455 . S
U1806 O1827 2.449 . S
O1807 U1806 2.454 . S
O1807 C1809 1.353 . S
O1808 U1806 2.458 . S
O1808 C1809 1.286 . S
C1809 U1806 2.984 . S
C1809 O1807 1.353 . S
C1809 O1808 1.286 . S
C1809 C1811 1.363 . S
C1810 C1800 1.465 . S
C1810 U1806 2.847 . S
C1810 O1824 1.249 . S
C1810 O1825 1.202 . S
C1811 C1809 1.363 . S
C1811 C1813 1.408 . S
C1811 C1816 1.342 . S
C1812 C1813 1.310 . S
C1812 C1815 1.461 . S
C1812 H1832 0.932 . S
C1813 C1811 1.408 . S
C1813 C1812 1.310 . S
C1813 H1833 0.930 . S
C1814 C1815 1.474 . S
C1814 C1816 1.285 . S
C1814 H1834 0.929 . S
C1815 C1812 1.461 . S
C1815 C1814 1.474 . S
C1816 C1811 1.342 . S
C1816 C1814 1.285 . S
C1816 H1835 0.930 . S
C1817 C1820 1.424 . S
C1817 C1822 1.245 . S
C1817 C1823 1.428 . S
C1818 C1821 1.260 . S
C1818 C1822 1.477 . S
C1818 H1836 0.932 . S
C1819 C1820 1.384 . S
C1819 C1821 1.479 . S
C1819 H1837 0.929 . S
C1820 C1817 1.424 . S
C1820 C1819 1.384 . S
C1820 H1838 0.928 . S
C1821 C1818 1.260 . S
C1821 C1819 1.479 . S
C1822 C1817 1.245 . S
C1822 C1818 1.477 . S
C1822 H1839 0.932 . S
C1823 U1806 2.882 . S
C1823 C1817 1.428 . S
C1823 O1826 1.301 . S
C1823 O1827 1.282 . S
O1824 U1806 2.441 . S
O1824 C1810 1.249 . S
O1825 U1806 2.420 . S
O1825 C1810 1.202 . S
O1826 U1806 2.455 . S
O1826 C1823 1.301 . S
O1827 U1806 2.449 . S
O1827 C1823 1.282 . S
H1828 C1801 0.931 . S
H1829 C1803 0.929 . S
H1830 C1804 0.930 . S
H1831 C1805 0.931 . S
H1832 C1812 0.932 . S
H1833 C1813 0.930 . S
H1834 C1814 0.929 . S
H1835 C1816 0.930 . S
H1836 C1818 0.932 . S
H1837 C1819 0.929 . S
H1838 C1820 0.928 . S
H1839 C1822 0.932 . S
C1840 C1841 1.264 . S
C1840 C1845 1.479 . S
C1840 C1850 1.465 . S
C1841 C1840 1.264 . S
C1841 C1843 1.339 . S
C1841 H1868 0.931 . S
C1842 C1843 1.395 . S
C1842 C1844 1.320 . S
C1843 C1841 1.339 . S
C1843 C1842 1.395 . S
C1843 H1869 0.929 . S
C1844 C1842 1.320 . S
C1844 C1845 1.405 . S
C1844 H1870 0.930 . S
C1845 C1840 1.479 . S
C1845 C1844 1.405 . S
C1845 H1871 0.931 . S
U1846 O1847 2.454 . S
U1846 O1848 2.458 . S
U1846 C1849 2.984 . S
U1846 C1850 2.847 . S
U1846 C1863 2.882 . S
U1846 O1864 2.441 . S
U1846 O1865 2.420 . S
U1846 O1866 2.455 . S
U1846 O1867 2.449 . S
O1847 U1846 2.454 . S
O1847 C1849 1.353 . S
O1848 U1846 2.458 . S
O1848 C1849 1.286 . S
C1849 U1846 2.984 . S
C1849 O1847 1.353 . S
C1849 O1848 1.286 . S
C1849 C1851 1.363 . S
C1850 C1840 1.465 . S
C1850 U1846 2.847 . S
C1850 O1864 1.249 . S
C1850 O1865 1.202 . S
C1851 C1849 1.363 . S
C1851 C1853 1.408 . S
C1851 C1856 1.342 . S
C1852 C1853 1.310 . S
C1852 C1855 1.461 . S
C1852 H1872 0.932 . S
C1853 C1851 1.408 . S
C1853 C1852 1.310 . S
C1853 H1873 0.930 . S
C1854 C1855 1.474 . S
C1854 C1856 1.285 . S
C1854 H1874 0.929 . S
C1855 C1852 1.461 . S
C1855 C1854 1.474 . S
C1856 C1851 1.342 . S
C1856 C1854 1.285 . S
C1856 H1875 0.930 . S
C1857 C1860 1.424 . S
C1857 C1862 1.245 . S
C1857 C1863 1.428 . S
C1858 C1861 1.260 . S
C1858 C1862 1.477 . S
C1858 H1876 0.932 . S
C1859 C1860 1.384 . S
C1859 C1861 1.479 . S
C1859 H1877 0.929 . S
C1860 C1857 1.424 . S
C1860 C1859 1.384 . S
C1860 H1878 0.928 . S
C1861 C1858 1.260 . S
C1861 C1859 1.479 . S
C1862 C1857 1.245 . S
C1862 C1858 1.477 . S
C1862 H1879 0.932 . S
C1863 U1846 2.882 . S
C1863 C1857 1.428 . S
C1863 O1866 1.301 . S
C1863 O1867 1.282 . S
O1864 U1846 2.441 . S
O1864 C1850 1.249 . S
O1865 U1846 2.420 . S
O1865 C1850 1.202 . S
O1866 U1846 2.455 . S
O1866 C1863 1.301 . S
O1867 U1846 2.449 . S
O1867 C1863 1.282 . S
H1868 C1841 0.931 . S
H1869 C1843 0.929 . S
H1870 C1844 0.930 . S
H1871 C1845 0.931 . S
H1872 C1852 0.932 . S
H1873 C1853 0.930 . S
H1874 C1854 0.929 . S
H1875 C1856 0.930 . S
H1876 C1858 0.932 . S
H1877 C1859 0.929 . S
H1878 C1860 0.928 . S
H1879 C1862 0.932 . S
C1880 C1881 1.264 . S
C1880 C1885 1.479 . S
C1880 C1890 1.465 . S
C1881 C1880 1.264 . S
C1881 C1883 1.339 . S
C1881 H1908 0.931 . S
C1882 C1883 1.395 . S
C1882 C1884 1.320 . S
C1883 C1881 1.339 . S
C1883 C1882 1.395 . S
C1883 H1909 0.929 . S
C1884 C1882 1.320 . S
C1884 C1885 1.405 . S
C1884 H1910 0.930 . S
C1885 C1880 1.479 . S
C1885 C1884 1.405 . S
C1885 H1911 0.931 . S
U1886 O1887 2.454 . S
U1886 O1888 2.458 . S
U1886 C1889 2.984 . S
U1886 C1890 2.847 . S
U1886 C1903 2.882 . S
U1886 O1904 2.441 . S
U1886 O1905 2.420 . S
U1886 O1906 2.455 . S
U1886 O1907 2.449 . S
O1887 U1886 2.454 . S
O1887 C1889 1.353 . S
O1888 U1886 2.458 . S
O1888 C1889 1.286 . S
C1889 U1886 2.984 . S
C1889 O1887 1.353 . S
C1889 O1888 1.286 . S
C1889 C1891 1.363 . S
C1890 C1880 1.465 . S
C1890 U1886 2.847 . S
C1890 O1904 1.249 . S
C1890 O1905 1.202 . S
C1891 C1889 1.363 . S
C1891 C1893 1.408 . S
C1891 C1896 1.342 . S
C1892 C1893 1.310 . S
C1892 C1895 1.461 . S
C1892 H1912 0.932 . S
C1893 C1891 1.408 . S
C1893 C1892 1.310 . S
C1893 H1913 0.930 . S
C1894 C1895 1.474 . S
C1894 C1896 1.285 . S
C1894 H1914 0.929 . S
C1895 C1892 1.461 . S
C1895 C1894 1.474 . S
C1896 C1891 1.342 . S
C1896 C1894 1.285 . S
C1896 H1915 0.930 . S
C1897 C1900 1.424 . S
C1897 C1902 1.245 . S
C1897 C1903 1.428 . S
C1898 C1901 1.260 . S
C1898 C1902 1.477 . S
C1898 H1916 0.932 . S
C1899 C1900 1.384 . S
C1899 C1901 1.479 . S
C1899 H1917 0.929 . S
C1900 C1897 1.424 . S
C1900 C1899 1.384 . S
C1900 H1918 0.928 . S
C1901 C1898 1.260 . S
C1901 C1899 1.479 . S
C1902 C1897 1.245 . S
C1902 C1898 1.477 . S
C1902 H1919 0.932 . S
C1903 U1886 2.882 . S
C1903 C1897 1.428 . S
C1903 O1906 1.301 . S
C1903 O1907 1.282 . S
O1904 U1886 2.441 . S
O1904 C1890 1.249 . S
O1905 U1886 2.420 . S
O1905 C1890 1.202 . S
O1906 U1886 2.455 . S
O1906 C1903 1.301 . S
O1907 U1886 2.449 . S
O1907 C1903 1.282 . S
H1908 C1881 0.931 . S
H1909 C1883 0.929 . S
H1910 C1884 0.930 . S
H1911 C1885 0.931 . S
H1912 C1892 0.932 . S
H1913 C1893 0.930 . S
H1914 C1894 0.929 . S
H1915 C1896 0.930 . S
H1916 C1898 0.932 . S
H1917 C1899 0.929 . S
H1918 C1900 0.928 . S
H1919 C1902 0.932 . S
C1920 C1921 1.349 . S
C1920 C1922 1.327 . S
C1920 H1945 0.950 . S
C1921 C1920 1.349 . S
C1921 C1937 1.349 . S
C1922 C1920 1.327 . S
C1922 C1941 1.429 . S
C1922 H1946 0.950 . S
C1923 C1940 1.574 . S
C1923 C1942 1.368 . S
C1923 H1947 0.949 . S
H1924 C1928 0.949 . S
C1925 C1926 1.349 . S
C1925 C1927 1.327 . S
C1925 H1948 0.950 . S
C1926 C1925 1.349 . S
C1926 C1938 1.349 . S
C1927 C1925 1.327 . S
C1927 C1943 1.429 . S
C1927 H1949 0.950 . S
C1928 H1924 0.949 . S
C1928 C1936 1.574 . S
C1928 C1944 1.368 . S
H1929 C1937 0.950 . S
H1930 C1935 0.950 . S
H1931 C1936 0.949 . S
H1932 C1938 0.950 . S
H1933 C1939 0.950 . S
H1934 C1940 0.949 . S
C1935 H1930 0.950 . S
C1935 C1937 1.327 . S
C1935 C1941 1.429 . S
C1936 C1928 1.574 . S
C1936 H1931 0.949 . S
C1936 C1942 1.368 . S
C1937 C1921 1.349 . S
C1937 H1929 0.950 . S
C1937 C1935 1.327 . S
C1938 C1926 1.349 . S
C1938 H1932 0.950 . S
C1938 C1939 1.327 . S
C1939 H1933 0.950 . S
C1939 C1938 1.327 . S
C1939 C1943 1.429 . S
C1940 C1923 1.574 . S
C1940 H1934 0.949 . S
C1940 C1944 1.368 . S
C1941 C1922 1.429 . S
C1941 C1935 1.429 . S
C1941 C1942 1.523 . S
C1942 C1923 1.368 . S
C1942 C1936 1.368 . S
C1942 C1941 1.523 . S
C1943 C1927 1.429 . S
C1943 C1939 1.429 . S
C1943 C1944 1.523 . S
C1944 C1928 1.368 . S
C1944 C1940 1.368 . S
C1944 C1943 1.523 . S
H1945 C1920 0.950 . S
H1946 C1922 0.950 . S
H1947 C1923 0.949 . S
H1948 C1925 0.950 . S
H1949 C1927 0.950 . S
C1950 C1951 1.349 . S
C1950 C1952 1.327 . S
C1950 H1975 0.950 . S
C1951 C1950 1.349 . S
C1951 C1967 1.349 . S
C1952 C1950 1.327 . S
C1952 C1971 1.429 . S
C1952 H1976 0.950 . S
C1953 C1970 1.574 . S
C1953 C1972 1.368 . S
C1953 H1977 0.949 . S
H1954 C1958 0.949 . S
C1955 C1956 1.349 . S
C1955 C1957 1.327 . S
C1955 H1978 0.950 . S
C1956 C1955 1.349 . S
C1956 C1968 1.349 . S
C1957 C1955 1.327 . S
C1957 C1973 1.429 . S
C1957 H1979 0.950 . S
C1958 H1954 0.949 . S
C1958 C1966 1.574 . S
C1958 C1974 1.368 . S
H1959 C1967 0.950 . S
H1960 C1965 0.950 . S
H1961 C1966 0.949 . S
H1962 C1968 0.950 . S
H1963 C1969 0.950 . S
H1964 C1970 0.949 . S
C1965 H1960 0.950 . S
C1965 C1967 1.327 . S
C1965 C1971 1.429 . S
C1966 C1958 1.574 . S
C1966 H1961 0.949 . S
C1966 C1972 1.368 . S
C1967 C1951 1.349 . S
C1967 H1959 0.950 . S
C1967 C1965 1.327 . S
C1968 C1956 1.349 . S
C1968 H1962 0.950 . S
C1968 C1969 1.327 . S
C1969 H1963 0.950 . S
C1969 C1968 1.327 . S
C1969 C1973 1.429 . S
C1970 C1953 1.574 . S
C1970 H1964 0.949 . S
C1970 C1974 1.368 . S
C1971 C1952 1.429 . S
C1971 C1965 1.429 . S
C1971 C1972 1.523 . S
C1972 C1953 1.368 . S
C1972 C1966 1.368 . S
C1972 C1971 1.523 . S
C1973 C1957 1.429 . S
C1973 C1969 1.429 . S
C1973 C1974 1.523 . S
C1974 C1958 1.368 . S
C1974 C1970 1.368 . S
C1974 C1973 1.523 . S
H1975 C1950 0.950 . S
H1976 C1952 0.950 . S
H1977 C1953 0.949 . S
H1978 C1955 0.950 . S
H1979 C1957 0.950 . S
C1980 C1981 1.349 . S
C1980 C1982 1.327 . S
C1980 H2005 0.950 . S
C1981 C1980 1.349 . S
C1981 C1997 1.349 . S
C1982 C1980 1.327 . S
C1982 C2001 1.429 . S
C1982 H2006 0.950 . S
C1983 C2000 1.574 . S
C1983 C2002 1.368 . S
C1983 H2007 0.949 . S
H1984 C1988 0.949 . S
C1985 C1986 1.349 . S
C1985 C1987 1.327 . S
C1985 H2008 0.950 . S
C1986 C1985 1.349 . S
C1986 C1998 1.349 . S
C1987 C1985 1.327 . S
C1987 C2003 1.429 . S
C1987 H2009 0.950 . S
C1988 H1984 0.949 . S
C1988 C1996 1.574 . S
C1988 C2004 1.368 . S
H1989 C1997 0.950 . S
H1990 C1995 0.950 . S
H1991 C1996 0.949 . S
H1992 C1998 0.950 . S
H1993 C1999 0.950 . S
H1994 C2000 0.949 . S
C1995 H1990 0.950 . S
C1995 C1997 1.327 . S
C1995 C2001 1.429 . S
C1996 C1988 1.574 . S
C1996 H1991 0.949 . S
C1996 C2002 1.368 . S
C1997 C1981 1.349 . S
C1997 H1989 0.950 . S
C1997 C1995 1.327 . S
C1998 C1986 1.349 . S
C1998 H1992 0.950 . S
C1998 C1999 1.327 . S
C1999 H1993 0.950 . S
C1999 C1998 1.327 . S
C1999 C2003 1.429 . S
C2000 C1983 1.574 . S
C2000 H1994 0.949 . S
C2000 C2004 1.368 . S
C2001 C1982 1.429 . S
C2001 C1995 1.429 . S
C2001 C2002 1.523 . S
C2002 C1983 1.368 . S
C2002 C1996 1.368 . S
C2002 C2001 1.523 . S
C2003 C1987 1.429 . S
C2003 C1999 1.429 . S
C2003 C2004 1.523 . S
C2004 C1988 1.368 . S
C2004 C2000 1.368 . S
C2004 C2003 1.523 . S
H2005 C1980 0.950 . S
H2006 C1982 0.950 . S
H2007 C1983 0.949 . S
H2008 C1985 0.950 . S
H2009 C1987 0.950 . S
C2010 C2011 1.349 . S
C2010 C2012 1.327 . S
C2010 H2035 0.950 . S
C2011 C2010 1.349 . S
C2011 C2027 1.349 . S
C2012 C2010 1.327 . S
C2012 C2031 1.429 . S
C2012 H2036 0.950 . S
C2013 C2030 1.574 . S
C2013 C2032 1.368 . S
C2013 H2037 0.949 . S
H2014 C2018 0.949 . S
C2015 C2016 1.349 . S
C2015 C2017 1.327 . S
C2015 H2038 0.950 . S
C2016 C2015 1.349 . S
C2016 C2028 1.349 . S
C2017 C2015 1.327 . S
C2017 C2033 1.429 . S
C2017 H2039 0.950 . S
C2018 H2014 0.949 . S
C2018 C2026 1.574 . S
C2018 C2034 1.368 . S
H2019 C2027 0.950 . S
H2020 C2025 0.950 . S
H2021 C2026 0.949 . S
H2022 C2028 0.950 . S
H2023 C2029 0.950 . S
H2024 C2030 0.949 . S
C2025 H2020 0.950 . S
C2025 C2027 1.327 . S
C2025 C2031 1.429 . S
C2026 C2018 1.574 . S
C2026 H2021 0.949 . S
C2026 C2032 1.368 . S
C2027 C2011 1.349 . S
C2027 H2019 0.950 . S
C2027 C2025 1.327 . S
C2028 C2016 1.349 . S
C2028 H2022 0.950 . S
C2028 C2029 1.327 . S
C2029 H2023 0.950 . S
C2029 C2028 1.327 . S
C2029 C2033 1.429 . S
C2030 C2013 1.574 . S
C2030 H2024 0.949 . S
C2030 C2034 1.368 . S
C2031 C2012 1.429 . S
C2031 C2025 1.429 . S
C2031 C2032 1.523 . S
C2032 C2013 1.368 . S
C2032 C2026 1.368 . S
C2032 C2031 1.523 . S
C2033 C2017 1.429 . S
C2033 C2029 1.429 . S
C2033 C2034 1.523 . S
C2034 C2018 1.368 . S
C2034 C2030 1.368 . S
C2034 C2033 1.523 . S
H2035 C2010 0.950 . S
H2036 C2012 0.950 . S
H2037 C2013 0.949 . S
H2038 C2015 0.950 . S
H2039 C2017 0.950 . S
C2040 C2041 1.349 . S
C2040 C2042 1.327 . S
C2040 H2065 0.950 . S
C2041 C2040 1.349 . S
C2041 C2057 1.349 . S
C2042 C2040 1.327 . S
C2042 C2061 1.429 . S
C2042 H2066 0.950 . S
C2043 C2060 1.574 . S
C2043 C2062 1.368 . S
C2043 H2067 0.949 . S
H2044 C2048 0.949 . S
C2045 C2046 1.349 . S
C2045 C2047 1.327 . S
C2045 H2068 0.950 . S
C2046 C2045 1.349 . S
C2046 C2058 1.349 . S
C2047 C2045 1.327 . S
C2047 C2063 1.429 . S
C2047 H2069 0.950 . S
C2048 H2044 0.949 . S
C2048 C2056 1.574 . S
C2048 C2064 1.368 . S
H2049 C2057 0.950 . S
H2050 C2055 0.950 . S
H2051 C2056 0.949 . S
H2052 C2058 0.950 . S
H2053 C2059 0.950 . S
H2054 C2060 0.949 . S
C2055 H2050 0.950 . S
C2055 C2057 1.327 . S
C2055 C2061 1.429 . S
C2056 C2048 1.574 . S
C2056 H2051 0.949 . S
C2056 C2062 1.368 . S
C2057 C2041 1.349 . S
C2057 H2049 0.950 . S
C2057 C2055 1.327 . S
C2058 C2046 1.349 . S
C2058 H2052 0.950 . S
C2058 C2059 1.327 . S
C2059 H2053 0.950 . S
C2059 C2058 1.327 . S
C2059 C2063 1.429 . S
C2060 C2043 1.574 . S
C2060 H2054 0.949 . S
C2060 C2064 1.368 . S
C2061 C2042 1.429 . S
C2061 C2055 1.429 . S
C2061 C2062 1.523 . S
C2062 C2043 1.368 . S
C2062 C2056 1.368 . S
C2062 C2061 1.523 . S
C2063 C2047 1.429 . S
C2063 C2059 1.429 . S
C2063 C2064 1.523 . S
C2064 C2048 1.368 . S
C2064 C2060 1.368 . S
C2064 C2063 1.523 . S
H2065 C2040 0.950 . S
H2066 C2042 0.950 . S
H2067 C2043 0.949 . S
H2068 C2045 0.950 . S
H2069 C2047 0.950 . S
C2070 C2071 1.349 . S
C2070 C2072 1.327 . S
C2070 H2095 0.950 . S
C2071 C2070 1.349 . S
C2071 C2087 1.349 . S
C2072 C2070 1.327 . S
C2072 C2091 1.429 . S
C2072 H2096 0.950 . S
C2073 C2090 1.574 . S
C2073 C2092 1.368 . S
C2073 H2097 0.949 . S
H2074 C2078 0.949 . S
C2075 C2076 1.349 . S
C2075 C2077 1.327 . S
C2075 H2098 0.950 . S
C2076 C2075 1.349 . S
C2076 C2088 1.349 . S
C2077 C2075 1.327 . S
C2077 C2093 1.429 . S
C2077 H2099 0.950 . S
C2078 H2074 0.949 . S
C2078 C2086 1.574 . S
C2078 C2094 1.368 . S
H2079 C2087 0.950 . S
H2080 C2085 0.950 . S
H2081 C2086 0.949 . S
H2082 C2088 0.950 . S
H2083 C2089 0.950 . S
H2084 C2090 0.949 . S
C2085 H2080 0.950 . S
C2085 C2087 1.327 . S
C2085 C2091 1.429 . S
C2086 C2078 1.574 . S
C2086 H2081 0.949 . S
C2086 C2092 1.368 . S
C2087 C2071 1.349 . S
C2087 H2079 0.950 . S
C2087 C2085 1.327 . S
C2088 C2076 1.349 . S
C2088 H2082 0.950 . S
C2088 C2089 1.327 . S
C2089 H2083 0.950 . S
C2089 C2088 1.327 . S
C2089 C2093 1.429 . S
C2090 C2073 1.574 . S
C2090 H2084 0.949 . S
C2090 C2094 1.368 . S
C2091 C2072 1.429 . S
C2091 C2085 1.429 . S
C2091 C2092 1.523 . S
C2092 C2073 1.368 . S
C2092 C2086 1.368 . S
C2092 C2091 1.523 . S
C2093 C2077 1.429 . S
C2093 C2089 1.429 . S
C2093 C2094 1.523 . S
C2094 C2078 1.368 . S
C2094 C2090 1.368 . S
C2094 C2093 1.523 . S
H2095 C2070 0.950 . S
H2096 C2072 0.950 . S
H2097 C2073 0.949 . S
H2098 C2075 0.950 . S
H2099 C2077 0.950 . S
C2100 C2101 1.349 . S
C2100 C2102 1.327 . S
C2100 H2125 0.950 . S
C2101 C2100 1.349 . S
C2101 C2117 1.349 . S
C2102 C2100 1.327 . S
C2102 C2121 1.429 . S
C2102 H2126 0.950 . S
C2103 C2120 1.574 . S
C2103 C2122 1.368 . S
C2103 H2127 0.949 . S
H2104 C2108 0.949 . S
C2105 C2106 1.349 . S
C2105 C2107 1.327 . S
C2105 H2128 0.950 . S
C2106 C2105 1.349 . S
C2106 C2118 1.349 . S
C2107 C2105 1.327 . S
C2107 C2123 1.429 . S
C2107 H2129 0.950 . S
C2108 H2104 0.949 . S
C2108 C2116 1.574 . S
C2108 C2124 1.368 . S
H2109 C2117 0.950 . S
H2110 C2115 0.950 . S
H2111 C2116 0.949 . S
H2112 C2118 0.950 . S
H2113 C2119 0.950 . S
H2114 C2120 0.949 . S
C2115 H2110 0.950 . S
C2115 C2117 1.327 . S
C2115 C2121 1.429 . S
C2116 C2108 1.574 . S
C2116 H2111 0.949 . S
C2116 C2122 1.368 . S
C2117 C2101 1.349 . S
C2117 H2109 0.950 . S
C2117 C2115 1.327 . S
C2118 C2106 1.349 . S
C2118 H2112 0.950 . S
C2118 C2119 1.327 . S
C2119 H2113 0.950 . S
C2119 C2118 1.327 . S
C2119 C2123 1.429 . S
C2120 C2103 1.574 . S
C2120 H2114 0.949 . S
C2120 C2124 1.368 . S
C2121 C2102 1.429 . S
C2121 C2115 1.429 . S
C2121 C2122 1.523 . S
C2122 C2103 1.368 . S
C2122 C2116 1.368 . S
C2122 C2121 1.523 . S
C2123 C2107 1.429 . S
C2123 C2119 1.429 . S
C2123 C2124 1.523 . S
C2124 C2108 1.368 . S
C2124 C2120 1.368 . S
C2124 C2123 1.523 . S
H2125 C2100 0.950 . S
H2126 C2102 0.950 . S
H2127 C2103 0.949 . S
H2128 C2105 0.950 . S
H2129 C2107 0.950 . S
C2130 C2131 1.349 . S
C2130 C2132 1.327 . S
C2130 H2155 0.950 . S
C2131 C2130 1.349 . S
C2131 C2147 1.349 . S
C2132 C2130 1.327 . S
C2132 C2151 1.429 . S
C2132 H2156 0.950 . S
C2133 C2150 1.574 . S
C2133 C2152 1.368 . S
C2133 H2157 0.949 . S
H2134 C2138 0.949 . S
C2135 C2136 1.349 . S
C2135 C2137 1.327 . S
C2135 H2158 0.950 . S
C2136 C2135 1.349 . S
C2136 C2148 1.349 . S
C2137 C2135 1.327 . S
C2137 C2153 1.429 . S
C2137 H2159 0.950 . S
C2138 H2134 0.949 . S
C2138 C2146 1.574 . S
C2138 C2154 1.368 . S
H2139 C2147 0.950 . S
H2140 C2145 0.950 . S
H2141 C2146 0.949 . S
H2142 C2148 0.950 . S
H2143 C2149 0.950 . S
H2144 C2150 0.949 . S
C2145 H2140 0.950 . S
C2145 C2147 1.327 . S
C2145 C2151 1.429 . S
C2146 C2138 1.574 . S
C2146 H2141 0.949 . S
C2146 C2152 1.368 . S
C2147 C2131 1.349 . S
C2147 H2139 0.950 . S
C2147 C2145 1.327 . S
C2148 C2136 1.349 . S
C2148 H2142 0.950 . S
C2148 C2149 1.327 . S
C2149 H2143 0.950 . S
C2149 C2148 1.327 . S
C2149 C2153 1.429 . S
C2150 C2133 1.574 . S
C2150 H2144 0.949 . S
C2150 C2154 1.368 . S
C2151 C2132 1.429 . S
C2151 C2145 1.429 . S
C2151 C2152 1.523 . S
C2152 C2133 1.368 . S
C2152 C2146 1.368 . S
C2152 C2151 1.523 . S
C2153 C2137 1.429 . S
C2153 C2149 1.429 . S
C2153 C2154 1.523 . S
C2154 C2138 1.368 . S
C2154 C2150 1.368 . S
C2154 C2153 1.523 . S
H2155 C2130 0.950 . S
H2156 C2132 0.950 . S
H2157 C2133 0.949 . S
H2158 C2135 0.950 . S
H2159 C2137 0.950 . S
C2160 C2161 1.349 . S
C2160 C2162 1.327 . S
C2160 H2185 0.950 . S
C2161 C2160 1.349 . S
C2161 C2177 1.349 . S
C2162 C2160 1.327 . S
C2162 C2181 1.429 . S
C2162 H2186 0.950 . S
C2163 C2180 1.574 . S
C2163 C2182 1.368 . S
C2163 H2187 0.949 . S
H2164 C2168 0.949 . S
C2165 C2166 1.349 . S
C2165 C2167 1.327 . S
C2165 H2188 0.950 . S
C2166 C2165 1.349 . S
C2166 C2178 1.349 . S
C2167 C2165 1.327 . S
C2167 C2183 1.429 . S
C2167 H2189 0.950 . S
C2168 H2164 0.949 . S
C2168 C2176 1.574 . S
C2168 C2184 1.368 . S
H2169 C2177 0.950 . S
H2170 C2175 0.950 . S
H2171 C2176 0.949 . S
H2172 C2178 0.950 . S
H2173 C2179 0.950 . S
H2174 C2180 0.949 . S
C2175 H2170 0.950 . S
C2175 C2177 1.327 . S
C2175 C2181 1.429 . S
C2176 C2168 1.574 . S
C2176 H2171 0.949 . S
C2176 C2182 1.368 . S
C2177 C2161 1.349 . S
C2177 H2169 0.950 . S
C2177 C2175 1.327 . S
C2178 C2166 1.349 . S
C2178 H2172 0.950 . S
C2178 C2179 1.327 . S
C2179 H2173 0.950 . S
C2179 C2178 1.327 . S
C2179 C2183 1.429 . S
C2180 C2163 1.574 . S
C2180 H2174 0.949 . S
C2180 C2184 1.368 . S
C2181 C2162 1.429 . S
C2181 C2175 1.429 . S
C2181 C2182 1.523 . S
C2182 C2163 1.368 . S
C2182 C2176 1.368 . S
C2182 C2181 1.523 . S
C2183 C2167 1.429 . S
C2183 C2179 1.429 . S
C2183 C2184 1.523 . S
C2184 C2168 1.368 . S
C2184 C2180 1.368 . S
C2184 C2183 1.523 . S
H2185 C2160 0.950 . S
H2186 C2162 0.950 . S
H2187 C2163 0.949 . S
H2188 C2165 0.950 . S
H2189 C2167 0.950 . S
C2190 C2191 1.349 . S
C2190 C2192 1.327 . S
C2190 H2215 0.950 . S
C2191 C2190 1.349 . S
C2191 C2207 1.349 . S
C2192 C2190 1.327 . S
C2192 C2211 1.429 . S
C2192 H2216 0.950 . S
C2193 C2210 1.574 . S
C2193 C2212 1.368 . S
C2193 H2217 0.949 . S
H2194 C2198 0.949 . S
C2195 C2196 1.349 . S
C2195 C2197 1.327 . S
C2195 H2218 0.950 . S
C2196 C2195 1.349 . S
C2196 C2208 1.349 . S
C2197 C2195 1.327 . S
C2197 C2213 1.429 . S
C2197 H2219 0.950 . S
C2198 H2194 0.949 . S
C2198 C2206 1.574 . S
C2198 C2214 1.368 . S
H2199 C2207 0.950 . S
H2200 C2205 0.950 . S
H2201 C2206 0.949 . S
H2202 C2208 0.950 . S
H2203 C2209 0.950 . S
H2204 C2210 0.949 . S
C2205 H2200 0.950 . S
C2205 C2207 1.327 . S
C2205 C2211 1.429 . S
C2206 C2198 1.574 . S
C2206 H2201 0.949 . S
C2206 C2212 1.368 . S
C2207 C2191 1.349 . S
C2207 H2199 0.950 . S
C2207 C2205 1.327 . S
C2208 C2196 1.349 . S
C2208 H2202 0.950 . S
C2208 C2209 1.327 . S
C2209 H2203 0.950 . S
C2209 C2208 1.327 . S
C2209 C2213 1.429 . S
C2210 C2193 1.574 . S
C2210 H2204 0.949 . S
C2210 C2214 1.368 . S
C2211 C2192 1.429 . S
C2211 C2205 1.429 . S
C2211 C2212 1.523 . S
C2212 C2193 1.368 . S
C2212 C2206 1.368 . S
C2212 C2211 1.523 . S
C2213 C2197 1.429 . S
C2213 C2209 1.429 . S
C2213 C2214 1.523 . S
C2214 C2198 1.368 . S
C2214 C2210 1.368 . S
C2214 C2213 1.523 . S
H2215 C2190 0.950 . S
H2216 C2192 0.950 . S
H2217 C2193 0.949 . S
H2218 C2195 0.950 . S
H2219 C2197 0.950 . S
C2220 C2221 1.349 . S
C2220 C2222 1.327 . S
C2220 H2245 0.950 . S
C2221 C2220 1.349 . S
C2221 C2237 1.349 . S
C2222 C2220 1.327 . S
C2222 C2241 1.429 . S
C2222 H2246 0.950 . S
C2223 C2240 1.574 . S
C2223 C2242 1.368 . S
C2223 H2247 0.949 . S
H2224 C2228 0.949 . S
C2225 C2226 1.349 . S
C2225 C2227 1.327 . S
C2225 H2248 0.950 . S
C2226 C2225 1.349 . S
C2226 C2238 1.349 . S
C2227 C2225 1.327 . S
C2227 C2243 1.429 . S
C2227 H2249 0.950 . S
C2228 H2224 0.949 . S
C2228 C2236 1.574 . S
C2228 C2244 1.368 . S
H2229 C2237 0.950 . S
H2230 C2235 0.950 . S
H2231 C2236 0.949 . S
H2232 C2238 0.950 . S
H2233 C2239 0.950 . S
H2234 C2240 0.949 . S
C2235 H2230 0.950 . S
C2235 C2237 1.327 . S
C2235 C2241 1.429 . S
C2236 C2228 1.574 . S
C2236 H2231 0.949 . S
C2236 C2242 1.368 . S
C2237 C2221 1.349 . S
C2237 H2229 0.950 . S
C2237 C2235 1.327 . S
C2238 C2226 1.349 . S
C2238 H2232 0.950 . S
C2238 C2239 1.327 . S
C2239 H2233 0.950 . S
C2239 C2238 1.327 . S
C2239 C2243 1.429 . S
C2240 C2223 1.574 . S
C2240 H2234 0.949 . S
C2240 C2244 1.368 . S
C2241 C2222 1.429 . S
C2241 C2235 1.429 . S
C2241 C2242 1.523 . S
C2242 C2223 1.368 . S
C2242 C2236 1.368 . S
C2242 C2241 1.523 . S
C2243 C2227 1.429 . S
C2243 C2239 1.429 . S
C2243 C2244 1.523 . S
C2244 C2228 1.368 . S
C2244 C2240 1.368 . S
C2244 C2243 1.523 . S
H2245 C2220 0.950 . S
H2246 C2222 0.950 . S
H2247 C2223 0.949 . S
H2248 C2225 0.950 . S
H2249 C2227 0.950 . S
C2250 C2251 1.349 . S
C2250 C2252 1.327 . S
C2250 H2275 0.950 . S
C2251 C2250 1.349 . S
C2251 C2267 1.349 . S
C2252 C2250 1.327 . S
C2252 C2271 1.429 . S
C2252 H2276 0.950 . S
C2253 C2270 1.574 . S
C2253 C2272 1.368 . S
C2253 H2277 0.949 . S
H2254 C2258 0.949 . S
C2255 C2256 1.349 . S
C2255 C2257 1.327 . S
C2255 H2278 0.950 . S
C2256 C2255 1.349 . S
C2256 C2268 1.349 . S
C2257 C2255 1.327 . S
C2257 C2273 1.429 . S
C2257 H2279 0.950 . S
C2258 H2254 0.949 . S
C2258 C2266 1.574 . S
C2258 C2274 1.368 . S
H2259 C2267 0.950 . S
H2260 C2265 0.950 . S
H2261 C2266 0.949 . S
H2262 C2268 0.950 . S
H2263 C2269 0.950 . S
H2264 C2270 0.949 . S
C2265 H2260 0.950 . S
C2265 C2267 1.327 . S
C2265 C2271 1.429 . S
C2266 C2258 1.574 . S
C2266 H2261 0.949 . S
C2266 C2272 1.368 . S
C2267 C2251 1.349 . S
C2267 H2259 0.950 . S
C2267 C2265 1.327 . S
C2268 C2256 1.349 . S
C2268 H2262 0.950 . S
C2268 C2269 1.327 . S
C2269 H2263 0.950 . S
C2269 C2268 1.327 . S
C2269 C2273 1.429 . S
C2270 C2253 1.574 . S
C2270 H2264 0.949 . S
C2270 C2274 1.368 . S
C2271 C2252 1.429 . S
C2271 C2265 1.429 . S
C2271 C2272 1.523 . S
C2272 C2253 1.368 . S
C2272 C2266 1.368 . S
C2272 C2271 1.523 . S
C2273 C2257 1.429 . S
C2273 C2269 1.429 . S
C2273 C2274 1.523 . S
C2274 C2258 1.368 . S
C2274 C2270 1.368 . S
C2274 C2273 1.523 . S
H2275 C2250 0.950 . S
H2276 C2252 0.950 . S
H2277 C2253 0.949 . S
H2278 C2255 0.950 . S
H2279 C2257 0.950 . S
C2280 C2281 1.349 . S
C2280 C2282 1.327 . S
C2280 H2305 0.950 . S
C2281 C2280 1.349 . S
C2281 C2297 1.349 . S
C2282 C2280 1.327 . S
C2282 C2301 1.429 . S
C2282 H2306 0.950 . S
C2283 C2300 1.574 . S
C2283 C2302 1.368 . S
C2283 H2307 0.949 . S
H2284 C2288 0.949 . S
C2285 C2286 1.349 . S
C2285 C2287 1.327 . S
C2285 H2308 0.950 . S
C2286 C2285 1.349 . S
C2286 C2298 1.349 . S
C2287 C2285 1.327 . S
C2287 C2303 1.429 . S
C2287 H2309 0.950 . S
C2288 H2284 0.949 . S
C2288 C2296 1.574 . S
C2288 C2304 1.368 . S
H2289 C2297 0.950 . S
H2290 C2295 0.950 . S
H2291 C2296 0.949 . S
H2292 C2298 0.950 . S
H2293 C2299 0.950 . S
H2294 C2300 0.949 . S
C2295 H2290 0.950 . S
C2295 C2297 1.327 . S
C2295 C2301 1.429 . S
C2296 C2288 1.574 . S
C2296 H2291 0.949 . S
C2296 C2302 1.368 . S
C2297 C2281 1.349 . S
C2297 H2289 0.950 . S
C2297 C2295 1.327 . S
C2298 C2286 1.349 . S
C2298 H2292 0.950 . S
C2298 C2299 1.327 . S
C2299 H2293 0.950 . S
C2299 C2298 1.327 . S
C2299 C2303 1.429 . S
C2300 C2283 1.574 . S
C2300 H2294 0.949 . S
C2300 C2304 1.368 . S
C2301 C2282 1.429 . S
C2301 C2295 1.429 . S
C2301 C2302 1.523 . S
C2302 C2283 1.368 . S
C2302 C2296 1.368 . S
C2302 C2301 1.523 . S
C2303 C2287 1.429 . S
C2303 C2299 1.429 . S
C2303 C2304 1.523 . S
C2304 C2288 1.368 . S
C2304 C2300 1.368 . S
C2304 C2303 1.523 . S
H2305 C2280 0.950 . S
H2306 C2282 0.950 . S
H2307 C2283 0.949 . S
H2308 C2285 0.950 . S
H2309 C2287 0.950 . S
C2310 C2311 1.349 . S
C2310 C2312 1.327 . S
C2310 H2335 0.950 . S
C2311 C2310 1.349 . S
C2311 C2327 1.349 . S
C2312 C2310 1.327 . S
C2312 C2331 1.429 . S
C2312 H2336 0.950 . S
C2313 C2330 1.574 . S
C2313 C2332 1.368 . S
C2313 H2337 0.949 . S
H2314 C2318 0.949 . S
C2315 C2316 1.349 . S
C2315 C2317 1.327 . S
C2315 H2338 0.950 . S
C2316 C2315 1.349 . S
C2316 C2328 1.349 . S
C2317 C2315 1.327 . S
C2317 C2333 1.429 . S
C2317 H2339 0.950 . S
C2318 H2314 0.949 . S
C2318 C2326 1.574 . S
C2318 C2334 1.368 . S
H2319 C2327 0.950 . S
H2320 C2325 0.950 . S
H2321 C2326 0.949 . S
H2322 C2328 0.950 . S
H2323 C2329 0.950 . S
H2324 C2330 0.949 . S
C2325 H2320 0.950 . S
C2325 C2327 1.327 . S
C2325 C2331 1.429 . S
C2326 C2318 1.574 . S
C2326 H2321 0.949 . S
C2326 C2332 1.368 . S
C2327 C2311 1.349 . S
C2327 H2319 0.950 . S
C2327 C2325 1.327 . S
C2328 C2316 1.349 . S
C2328 H2322 0.950 . S
C2328 C2329 1.327 . S
C2329 H2323 0.950 . S
C2329 C2328 1.327 . S
C2329 C2333 1.429 . S
C2330 C2313 1.574 . S
C2330 H2324 0.949 . S
C2330 C2334 1.368 . S
C2331 C2312 1.429 . S
C2331 C2325 1.429 . S
C2331 C2332 1.523 . S
C2332 C2313 1.368 . S
C2332 C2326 1.368 . S
C2332 C2331 1.523 . S
C2333 C2317 1.429 . S
C2333 C2329 1.429 . S
C2333 C2334 1.523 . S
C2334 C2318 1.368 . S
C2334 C2330 1.368 . S
C2334 C2333 1.523 . S
H2335 C2310 0.950 . S
H2336 C2312 0.950 . S
H2337 C2313 0.949 . S
H2338 C2315 0.950 . S
H2339 C2317 0.950 . S
C2340 C2341 1.349 . S
C2340 C2342 1.327 . S
C2340 H2365 0.950 . S
C2341 C2340 1.349 . S
C2341 C2357 1.349 . S
C2342 C2340 1.327 . S
C2342 C2361 1.429 . S
C2342 H2366 0.950 . S
C2343 C2360 1.574 . S
C2343 C2362 1.368 . S
C2343 H2367 0.949 . S
H2344 C2348 0.949 . S
C2345 C2346 1.349 . S
C2345 C2347 1.327 . S
C2345 H2368 0.950 . S
C2346 C2345 1.349 . S
C2346 C2358 1.349 . S
C2347 C2345 1.327 . S
C2347 C2363 1.429 . S
C2347 H2369 0.950 . S
C2348 H2344 0.949 . S
C2348 C2356 1.574 . S
C2348 C2364 1.368 . S
H2349 C2357 0.950 . S
H2350 C2355 0.950 . S
H2351 C2356 0.949 . S
H2352 C2358 0.950 . S
H2353 C2359 0.950 . S
H2354 C2360 0.949 . S
C2355 H2350 0.950 . S
C2355 C2357 1.327 . S
C2355 C2361 1.429 . S
C2356 C2348 1.574 . S
C2356 H2351 0.949 . S
C2356 C2362 1.368 . S
C2357 C2341 1.349 . S
C2357 H2349 0.950 . S
C2357 C2355 1.327 . S
C2358 C2346 1.349 . S
C2358 H2352 0.950 . S
C2358 C2359 1.327 . S
C2359 H2353 0.950 . S
C2359 C2358 1.327 . S
C2359 C2363 1.429 . S
C2360 C2343 1.574 . S
C2360 H2354 0.949 . S
C2360 C2364 1.368 . S
C2361 C2342 1.429 . S
C2361 C2355 1.429 . S
C2361 C2362 1.523 . S
C2362 C2343 1.368 . S
C2362 C2356 1.368 . S
C2362 C2361 1.523 . S
C2363 C2347 1.429 . S
C2363 C2359 1.429 . S
C2363 C2364 1.523 . S
C2364 C2348 1.368 . S
C2364 C2360 1.368 . S
C2364 C2363 1.523 . S
H2365 C2340 0.950 . S
H2366 C2342 0.950 . S
H2367 C2343 0.949 . S
H2368 C2345 0.950 . S
H2369 C2347 0.950 . S
C2370 C2371 1.349 . S
C2370 C2372 1.327 . S
C2370 H2395 0.950 . S
C2371 C2370 1.349 . S
C2371 C2387 1.349 . S
C2372 C2370 1.327 . S
C2372 C2391 1.429 . S
C2372 H2396 0.950 . S
C2373 C2390 1.574 . S
C2373 C2392 1.368 . S
C2373 H2397 0.949 . S
H2374 C2378 0.949 . S
C2375 C2376 1.349 . S
C2375 C2377 1.327 . S
C2375 H2398 0.950 . S
C2376 C2375 1.349 . S
C2376 C2388 1.349 . S
C2377 C2375 1.327 . S
C2377 C2393 1.429 . S
C2377 H2399 0.950 . S
C2378 H2374 0.949 . S
C2378 C2386 1.574 . S
C2378 C2394 1.368 . S
H2379 C2387 0.950 . S
H2380 C2385 0.950 . S
H2381 C2386 0.949 . S
H2382 C2388 0.950 . S
H2383 C2389 0.950 . S
H2384 C2390 0.949 . S
C2385 H2380 0.950 . S
C2385 C2387 1.327 . S
C2385 C2391 1.429 . S
C2386 C2378 1.574 . S
C2386 H2381 0.949 . S
C2386 C2392 1.368 . S
C2387 C2371 1.349 . S
C2387 H2379 0.950 . S
C2387 C2385 1.327 . S
C2388 C2376 1.349 . S
C2388 H2382 0.950 . S
C2388 C2389 1.327 . S
C2389 H2383 0.950 . S
C2389 C2388 1.327 . S
C2389 C2393 1.429 . S
C2390 C2373 1.574 . S
C2390 H2384 0.949 . S
C2390 C2394 1.368 . S
C2391 C2372 1.429 . S
C2391 C2385 1.429 . S
C2391 C2392 1.523 . S
C2392 C2373 1.368 . S
C2392 C2386 1.368 . S
C2392 C2391 1.523 . S
C2393 C2377 1.429 . S
C2393 C2389 1.429 . S
C2393 C2394 1.523 . S
C2394 C2378 1.368 . S
C2394 C2390 1.368 . S
C2394 C2393 1.523 . S
H2395 C2370 0.950 . S
H2396 C2372 0.950 . S
H2397 C2373 0.949 . S
H2398 C2375 0.950 . S
H2399 C2377 0.950 . S
C2400 C2401 1.349 . S
C2400 C2402 1.327 . S
C2400 H2425 0.950 . S
C2401 C2400 1.349 . S
C2401 C2417 1.349 . S
C2402 C2400 1.327 . S
C2402 C2421 1.429 . S
C2402 H2426 0.950 . S
C2403 C2420 1.574 . S
C2403 C2422 1.368 . S
C2403 H2427 0.949 . S
H2404 C2408 0.949 . S
C2405 C2406 1.349 . S
C2405 C2407 1.327 . S
C2405 H2428 0.950 . S
C2406 C2405 1.349 . S
C2406 C2418 1.349 . S
C2407 C2405 1.327 . S
C2407 C2423 1.429 . S
C2407 H2429 0.950 . S
C2408 H2404 0.949 . S
C2408 C2416 1.574 . S
C2408 C2424 1.368 . S
H2409 C2417 0.950 . S
H2410 C2415 0.950 . S
H2411 C2416 0.949 . S
H2412 C2418 0.950 . S
H2413 C2419 0.950 . S
H2414 C2420 0.949 . S
C2415 H2410 0.950 . S
C2415 C2417 1.327 . S
C2415 C2421 1.429 . S
C2416 C2408 1.574 . S
C2416 H2411 0.949 . S
C2416 C2422 1.368 . S
C2417 C2401 1.349 . S
C2417 H2409 0.950 . S
C2417 C2415 1.327 . S
C2418 C2406 1.349 . S
C2418 H2412 0.950 . S
C2418 C2419 1.327 . S
C2419 H2413 0.950 . S
C2419 C2418 1.327 . S
C2419 C2423 1.429 . S
C2420 C2403 1.574 . S
C2420 H2414 0.949 . S
C2420 C2424 1.368 . S
C2421 C2402 1.429 . S
C2421 C2415 1.429 . S
C2421 C2422 1.523 . S
C2422 C2403 1.368 . S
C2422 C2416 1.368 . S
C2422 C2421 1.523 . S
C2423 C2407 1.429 . S
C2423 C2419 1.429 . S
C2423 C2424 1.523 . S
C2424 C2408 1.368 . S
C2424 C2420 1.368 . S
C2424 C2423 1.523 . S
H2425 C2400 0.950 . S
H2426 C2402 0.950 . S
H2427 C2403 0.949 . S
H2428 C2405 0.950 . S
H2429 C2407 0.950 . S
C2430 C2431 1.349 . S
C2430 C2432 1.327 . S
C2430 H2455 0.950 . S
C2431 C2430 1.349 . S
C2431 C2447 1.349 . S
C2432 C2430 1.327 . S
C2432 C2451 1.429 . S
C2432 H2456 0.950 . S
C2433 C2450 1.574 . S
C2433 C2452 1.368 . S
C2433 H2457 0.949 . S
H2434 C2438 0.949 . S
C2435 C2436 1.349 . S
C2435 C2437 1.327 . S
C2435 H2458 0.950 . S
C2436 C2435 1.349 . S
C2436 C2448 1.349 . S
C2437 C2435 1.327 . S
C2437 C2453 1.429 . S
C2437 H2459 0.950 . S
C2438 H2434 0.949 . S
C2438 C2446 1.574 . S
C2438 C2454 1.368 . S
H2439 C2447 0.950 . S
H2440 C2445 0.950 . S
H2441 C2446 0.949 . S
H2442 C2448 0.950 . S
H2443 C2449 0.950 . S
H2444 C2450 0.949 . S
C2445 H2440 0.950 . S
C2445 C2447 1.327 . S
C2445 C2451 1.429 . S
C2446 C2438 1.574 . S
C2446 H2441 0.949 . S
C2446 C2452 1.368 . S
C2447 C2431 1.349 . S
C2447 H2439 0.950 . S
C2447 C2445 1.327 . S
C2448 C2436 1.349 . S
C2448 H2442 0.950 . S
C2448 C2449 1.327 . S
C2449 H2443 0.950 . S
C2449 C2448 1.327 . S
C2449 C2453 1.429 . S
C2450 C2433 1.574 . S
C2450 H2444 0.949 . S
C2450 C2454 1.368 . S
C2451 C2432 1.429 . S
C2451 C2445 1.429 . S
C2451 C2452 1.523 . S
C2452 C2433 1.368 . S
C2452 C2446 1.368 . S
C2452 C2451 1.523 . S
C2453 C2437 1.429 . S
C2453 C2449 1.429 . S
C2453 C2454 1.523 . S
C2454 C2438 1.368 . S
C2454 C2450 1.368 . S
C2454 C2453 1.523 . S
H2455 C2430 0.950 . S
H2456 C2432 0.950 . S
H2457 C2433 0.949 . S
H2458 C2435 0.950 . S
H2459 C2437 0.950 . S
C2460 C2461 1.349 . S
C2460 C2462 1.327 . S
C2460 H2485 0.950 . S
C2461 C2460 1.349 . S
C2461 C2477 1.349 . S
C2462 C2460 1.327 . S
C2462 C2481 1.429 . S
C2462 H2486 0.950 . S
C2463 C2480 1.574 . S
C2463 C2482 1.368 . S
C2463 H2487 0.949 . S
H2464 C2468 0.949 . S
C2465 C2466 1.349 . S
C2465 C2467 1.327 . S
C2465 H2488 0.950 . S
C2466 C2465 1.349 . S
C2466 C2478 1.349 . S
C2467 C2465 1.327 . S
C2467 C2483 1.429 . S
C2467 H2489 0.950 . S
C2468 H2464 0.949 . S
C2468 C2476 1.574 . S
C2468 C2484 1.368 . S
H2469 C2477 0.950 . S
H2470 C2475 0.950 . S
H2471 C2476 0.949 . S
H2472 C2478 0.950 . S
H2473 C2479 0.950 . S
H2474 C2480 0.949 . S
C2475 H2470 0.950 . S
C2475 C2477 1.327 . S
C2475 C2481 1.429 . S
C2476 C2468 1.574 . S
C2476 H2471 0.949 . S
C2476 C2482 1.368 . S
C2477 C2461 1.349 . S
C2477 H2469 0.950 . S
C2477 C2475 1.327 . S
C2478 C2466 1.349 . S
C2478 H2472 0.950 . S
C2478 C2479 1.327 . S
C2479 H2473 0.950 . S
C2479 C2478 1.327 . S
C2479 C2483 1.429 . S
C2480 C2463 1.574 . S
C2480 H2474 0.949 . S
C2480 C2484 1.368 . S
C2481 C2462 1.429 . S
C2481 C2475 1.429 . S
C2481 C2482 1.523 . S
C2482 C2463 1.368 . S
C2482 C2476 1.368 . S
C2482 C2481 1.523 . S
C2483 C2467 1.429 . S
C2483 C2479 1.429 . S
C2483 C2484 1.523 . S
C2484 C2468 1.368 . S
C2484 C2480 1.368 . S
C2484 C2483 1.523 . S
H2485 C2460 0.950 . S
H2486 C2462 0.950 . S
H2487 C2463 0.949 . S
H2488 C2465 0.950 . S
H2489 C2467 0.950 . S
C2490 C2491 1.349 . S
C2490 C2492 1.327 . S
C2490 H2515 0.950 . S
C2491 C2490 1.349 . S
C2491 C2507 1.349 . S
C2492 C2490 1.327 . S
C2492 C2511 1.429 . S
C2492 H2516 0.950 . S
C2493 C2510 1.574 . S
C2493 C2512 1.368 . S
C2493 H2517 0.949 . S
H2494 C2498 0.949 . S
C2495 C2496 1.349 . S
C2495 C2497 1.327 . S
C2495 H2518 0.950 . S
C2496 C2495 1.349 . S
C2496 C2508 1.349 . S
C2497 C2495 1.327 . S
C2497 C2513 1.429 . S
C2497 H2519 0.950 . S
C2498 H2494 0.949 . S
C2498 C2506 1.574 . S
C2498 C2514 1.368 . S
H2499 C2507 0.950 . S
H2500 C2505 0.950 . S
H2501 C2506 0.949 . S
H2502 C2508 0.950 . S
H2503 C2509 0.950 . S
H2504 C2510 0.949 . S
C2505 H2500 0.950 . S
C2505 C2507 1.327 . S
C2505 C2511 1.429 . S
C2506 C2498 1.574 . S
C2506 H2501 0.949 . S
C2506 C2512 1.368 . S
C2507 C2491 1.349 . S
C2507 H2499 0.950 . S
C2507 C2505 1.327 . S
C2508 C2496 1.349 . S
C2508 H2502 0.950 . S
C2508 C2509 1.327 . S
C2509 H2503 0.950 . S
C2509 C2508 1.327 . S
C2509 C2513 1.429 . S
C2510 C2493 1.574 . S
C2510 H2504 0.949 . S
C2510 C2514 1.368 . S
C2511 C2492 1.429 . S
C2511 C2505 1.429 . S
C2511 C2512 1.523 . S
C2512 C2493 1.368 . S
C2512 C2506 1.368 . S
C2512 C2511 1.523 . S
C2513 C2497 1.429 . S
C2513 C2509 1.429 . S
C2513 C2514 1.523 . S
C2514 C2498 1.368 . S
C2514 C2510 1.368 . S
C2514 C2513 1.523 . S
H2515 C2490 0.950 . S
H2516 C2492 0.950 . S
H2517 C2493 0.949 . S
H2518 C2495 0.950 . S
H2519 C2497 0.950 . S
C2520 C2521 1.349 . S
C2520 C2522 1.327 . S
C2520 H2545 0.950 . S
C2521 C2520 1.349 . S
C2521 C2537 1.349 . S
C2522 C2520 1.327 . S
C2522 C2541 1.429 . S
C2522 H2546 0.950 . S
C2523 C2540 1.574 . S
C2523 C2542 1.368 . S
C2523 H2547 0.949 . S
H2524 C2528 0.949 . S
C2525 C2526 1.349 . S
C2525 C2527 1.327 . S
C2525 H2548 0.950 . S
C2526 C2525 1.349 . S
C2526 C2538 1.349 . S
C2527 C2525 1.327 . S
C2527 C2543 1.429 . S
C2527 H2549 0.950 . S
C2528 H2524 0.949 . S
C2528 C2536 1.574 . S
C2528 C2544 1.368 . S
H2529 C2537 0.950 . S
H2530 C2535 0.950 . S
H2531 C2536 0.949 . S
H2532 C2538 0.950 . S
H2533 C2539 0.950 . S
H2534 C2540 0.949 . S
C2535 H2530 0.950 . S
C2535 C2537 1.327 . S
C2535 C2541 1.429 . S
C2536 C2528 1.574 . S
C2536 H2531 0.949 . S
C2536 C2542 1.368 . S
C2537 C2521 1.349 . S
C2537 H2529 0.950 . S
C2537 C2535 1.327 . S
C2538 C2526 1.349 . S
C2538 H2532 0.950 . S
C2538 C2539 1.327 . S
C2539 H2533 0.950 . S
C2539 C2538 1.327 . S
C2539 C2543 1.429 . S
C2540 C2523 1.574 . S
C2540 H2534 0.949 . S
C2540 C2544 1.368 . S
C2541 C2522 1.429 . S
C2541 C2535 1.429 . S
C2541 C2542 1.523 . S
C2542 C2523 1.368 . S
C2542 C2536 1.368 . S
C2542 C2541 1.523 . S
C2543 C2527 1.429 . S
C2543 C2539 1.429 . S
C2543 C2544 1.523 . S
C2544 C2528 1.368 . S
C2544 C2540 1.368 . S
C2544 C2543 1.523 . S
H2545 C2520 0.950 . S
H2546 C2522 0.950 . S
H2547 C2523 0.949 . S
H2548 C2525 0.950 . S
H2549 C2527 0.950 . S
C2550 C2551 1.349 . S
C2550 C2552 1.327 . S
C2550 H2575 0.950 . S
C2551 C2550 1.349 . S
C2551 C2567 1.349 . S
C2552 C2550 1.327 . S
C2552 C2571 1.429 . S
C2552 H2576 0.950 . S
C2553 C2570 1.574 . S
C2553 C2572 1.368 . S
C2553 H2577 0.949 . S
H2554 C2558 0.949 . S
C2555 C2556 1.349 . S
C2555 C2557 1.327 . S
C2555 H2578 0.950 . S
C2556 C2555 1.349 . S
C2556 C2568 1.349 . S
C2557 C2555 1.327 . S
C2557 C2573 1.429 . S
C2557 H2579 0.950 . S
C2558 H2554 0.949 . S
C2558 C2566 1.574 . S
C2558 C2574 1.368 . S
H2559 C2567 0.950 . S
H2560 C2565 0.950 . S
H2561 C2566 0.949 . S
H2562 C2568 0.950 . S
H2563 C2569 0.950 . S
H2564 C2570 0.949 . S
C2565 H2560 0.950 . S
C2565 C2567 1.327 . S
C2565 C2571 1.429 . S
C2566 C2558 1.574 . S
C2566 H2561 0.949 . S
C2566 C2572 1.368 . S
C2567 C2551 1.349 . S
C2567 H2559 0.950 . S
C2567 C2565 1.327 . S
C2568 C2556 1.349 . S
C2568 H2562 0.950 . S
C2568 C2569 1.327 . S
C2569 H2563 0.950 . S
C2569 C2568 1.327 . S
C2569 C2573 1.429 . S
C2570 C2553 1.574 . S
C2570 H2564 0.949 . S
C2570 C2574 1.368 . S
C2571 C2552 1.429 . S
C2571 C2565 1.429 . S
C2571 C2572 1.523 . S
C2572 C2553 1.368 . S
C2572 C2566 1.368 . S
C2572 C2571 1.523 . S
C2573 C2557 1.429 . S
C2573 C2569 1.429 . S
C2573 C2574 1.523 . S
C2574 C2558 1.368 . S
C2574 C2570 1.368 . S
C2574 C2573 1.523 . S
H2575 C2550 0.950 . S
H2576 C2552 0.950 . S
H2577 C2553 0.949 . S
H2578 C2555 0.950 . S
H2579 C2557 0.950 . S
C2580 C2581 1.349 . S
C2580 C2582 1.327 . S
C2580 H2605 0.950 . S
C2581 C2580 1.349 . S
C2581 C2597 1.349 . S
C2582 C2580 1.327 . S
C2582 C2601 1.429 . S
C2582 H2606 0.950 . S
C2583 C2600 1.574 . S
C2583 C2602 1.368 . S
C2583 H2607 0.949 . S
H2584 C2588 0.949 . S
C2585 C2586 1.349 . S
C2585 C2587 1.327 . S
C2585 H2608 0.950 . S
C2586 C2585 1.349 . S
C2586 C2598 1.349 . S
C2587 C2585 1.327 . S
C2587 C2603 1.429 . S
C2587 H2609 0.950 . S
C2588 H2584 0.949 . S
C2588 C2596 1.574 . S
C2588 C2604 1.368 . S
H2589 C2597 0.950 . S
H2590 C2595 0.950 . S
H2591 C2596 0.949 . S
H2592 C2598 0.950 . S
H2593 C2599 0.950 . S
H2594 C2600 0.949 . S
C2595 H2590 0.950 . S
C2595 C2597 1.327 . S
C2595 C2601 1.429 . S
C2596 C2588 1.574 . S
C2596 H2591 0.949 . S
C2596 C2602 1.368 . S
C2597 C2581 1.349 . S
C2597 H2589 0.950 . S
C2597 C2595 1.327 . S
C2598 C2586 1.349 . S
C2598 H2592 0.950 . S
C2598 C2599 1.327 . S
C2599 H2593 0.950 . S
C2599 C2598 1.327 . S
C2599 C2603 1.429 . S
C2600 C2583 1.574 . S
C2600 H2594 0.949 . S
C2600 C2604 1.368 . S
C2601 C2582 1.429 . S
C2601 C2595 1.429 . S
C2601 C2602 1.523 . S
C2602 C2583 1.368 . S
C2602 C2596 1.368 . S
C2602 C2601 1.523 . S
C2603 C2587 1.429 . S
C2603 C2599 1.429 . S
C2603 C2604 1.523 . S
C2604 C2588 1.368 . S
C2604 C2600 1.368 . S
C2604 C2603 1.523 . S
H2605 C2580 0.950 . S
H2606 C2582 0.950 . S
H2607 C2583 0.949 . S
H2608 C2585 0.950 . S
H2609 C2587 0.950 . S
C2610 C2611 1.349 . S
C2610 C2612 1.327 . S
C2610 H2635 0.950 . S
C2611 C2610 1.349 . S
C2611 C2627 1.349 . S
C2612 C2610 1.327 . S
C2612 C2631 1.429 . S
C2612 H2636 0.950 . S
C2613 C2630 1.574 . S
C2613 C2632 1.368 . S
C2613 H2637 0.949 . S
H2614 C2618 0.949 . S
C2615 C2616 1.349 . S
C2615 C2617 1.327 . S
C2615 H2638 0.950 . S
C2616 C2615 1.349 . S
C2616 C2628 1.349 . S
C2617 C2615 1.327 . S
C2617 C2633 1.429 . S
C2617 H2639 0.950 . S
C2618 H2614 0.949 . S
C2618 C2626 1.574 . S
C2618 C2634 1.368 . S
H2619 C2627 0.950 . S
H2620 C2625 0.950 . S
H2621 C2626 0.949 . S
H2622 C2628 0.950 . S
H2623 C2629 0.950 . S
H2624 C2630 0.949 . S
C2625 H2620 0.950 . S
C2625 C2627 1.327 . S
C2625 C2631 1.429 . S
C2626 C2618 1.574 . S
C2626 H2621 0.949 . S
C2626 C2632 1.368 . S
C2627 C2611 1.349 . S
C2627 H2619 0.950 . S
C2627 C2625 1.327 . S
C2628 C2616 1.349 . S
C2628 H2622 0.950 . S
C2628 C2629 1.327 . S
C2629 H2623 0.950 . S
C2629 C2628 1.327 . S
C2629 C2633 1.429 . S
C2630 C2613 1.574 . S
C2630 H2624 0.949 . S
C2630 C2634 1.368 . S
C2631 C2612 1.429 . S
C2631 C2625 1.429 . S
C2631 C2632 1.523 . S
C2632 C2613 1.368 . S
C2632 C2626 1.368 . S
C2632 C2631 1.523 . S
C2633 C2617 1.429 . S
C2633 C2629 1.429 . S
C2633 C2634 1.523 . S
C2634 C2618 1.368 . S
C2634 C2630 1.368 . S
C2634 C2633 1.523 . S
H2635 C2610 0.950 . S
H2636 C2612 0.950 . S
H2637 C2613 0.949 . S
H2638 C2615 0.950 . S
H2639 C2617 0.950 . S
C2640 C2641 1.349 . S
C2640 C2642 1.327 . S
C2640 H2665 0.950 . S
C2641 C2640 1.349 . S
C2641 C2657 1.349 . S
C2642 C2640 1.327 . S
C2642 C2661 1.429 . S
C2642 H2666 0.950 . S
C2643 C2660 1.574 1_455 S
C2643 C2662 1.368 . S
C2643 H2667 0.949 . S
H2644 C2648 0.949 . S
C2645 C2646 1.349 . S
C2645 C2647 1.327 . S
C2645 H2668 0.950 . S
C2646 C2645 1.349 . S
C2646 C2658 1.349 . S
C2647 C2645 1.327 . S
C2647 C2663 1.429 . S
C2647 H2669 0.950 . S
C2648 H2644 0.949 . S
C2648 C2656 1.574 1_655 S
C2648 C2664 1.368 . S
H2649 C2657 0.950 . S
H2650 C2655 0.950 . S
H2651 C2656 0.949 . S
H2652 C2658 0.950 . S
H2653 C2659 0.950 . S
H2654 C2660 0.949 . S
C2655 H2650 0.950 . S
C2655 C2657 1.327 . S
C2655 C2661 1.429 . S
C2656 C2648 1.574 1_455 S
C2656 H2651 0.949 . S
C2656 C2662 1.368 . S
C2657 C2641 1.349 . S
C2657 H2649 0.950 . S
C2657 C2655 1.327 . S
C2658 C2646 1.349 . S
C2658 H2652 0.950 . S
C2658 C2659 1.327 . S
C2659 H2653 0.950 . S
C2659 C2658 1.327 . S
C2659 C2663 1.429 . S
C2660 C2643 1.574 1_655 S
C2660 H2654 0.949 . S
C2660 C2664 1.368 . S
C2661 C2642 1.429 . S
C2661 C2655 1.429 . S
C2661 C2662 1.523 . S
C2662 C2643 1.368 . S
C2662 C2656 1.368 . S
C2662 C2661 1.523 . S
C2663 C2647 1.429 . S
C2663 C2659 1.429 . S
C2663 C2664 1.523 . S
C2664 C2648 1.368 . S
C2664 C2660 1.368 . S
C2664 C2663 1.523 . S
H2665 C2640 0.950 . S
H2666 C2642 0.950 . S
H2667 C2643 0.949 . S
H2668 C2645 0.950 . S
H2669 C2647 0.950 . S
C2670 C2671 1.349 . S
C2670 C2672 1.327 . S
C2670 H2695 0.950 . S
C2671 C2670 1.349 . S
C2671 C2687 1.349 . S
C2672 C2670 1.327 . S
C2672 C2691 1.429 . S
C2672 H2696 0.950 . S
C2673 C2690 1.574 . S
C2673 C2692 1.368 . S
C2673 H2697 0.949 . S
H2674 C2678 0.949 . S
C2675 C2676 1.349 . S
C2675 C2677 1.327 . S
C2675 H2698 0.950 . S
C2676 C2675 1.349 . S
C2676 C2688 1.349 . S
C2677 C2675 1.327 . S
C2677 C2693 1.429 . S
C2677 H2699 0.950 . S
C2678 H2674 0.949 . S
C2678 C2686 1.574 . S
C2678 C2694 1.368 . S
H2679 C2687 0.950 . S
H2680 C2685 0.950 . S
H2681 C2686 0.949 . S
H2682 C2688 0.950 . S
H2683 C2689 0.950 . S
H2684 C2690 0.949 . S
C2685 H2680 0.950 . S
C2685 C2687 1.327 . S
C2685 C2691 1.429 . S
C2686 C2678 1.574 . S
C2686 H2681 0.949 . S
C2686 C2692 1.368 . S
C2687 C2671 1.349 . S
C2687 H2679 0.950 . S
C2687 C2685 1.327 . S
C2688 C2676 1.349 . S
C2688 H2682 0.950 . S
C2688 C2689 1.327 . S
C2689 H2683 0.950 . S
C2689 C2688 1.327 . S
C2689 C2693 1.429 . S
C2690 C2673 1.574 . S
C2690 H2684 0.949 . S
C2690 C2694 1.368 . S
C2691 C2672 1.429 . S
C2691 C2685 1.429 . S
C2691 C2692 1.523 . S
C2692 C2673 1.368 . S
C2692 C2686 1.368 . S
C2692 C2691 1.523 . S
C2693 C2677 1.429 . S
C2693 C2689 1.429 . S
C2693 C2694 1.523 . S
C2694 C2678 1.368 . S
C2694 C2690 1.368 . S
C2694 C2693 1.523 . S
H2695 C2670 0.950 . S
H2696 C2672 0.950 . S
H2697 C2673 0.949 . S
H2698 C2675 0.950 . S
H2699 C2677 0.950 . S
C2700 C2701 1.349 . S
C2700 C2702 1.327 . S
C2700 H2725 0.950 . S
C2701 C2700 1.349 . S
C2701 C2717 1.349 . S
C2702 C2700 1.327 . S
C2702 C2721 1.429 . S
C2702 H2726 0.950 . S
C2703 C2720 1.574 . S
C2703 C2722 1.368 . S
C2703 H2727 0.949 . S
H2704 C2708 0.949 . S
C2705 C2706 1.349 . S
C2705 C2707 1.327 . S
C2705 H2728 0.950 . S
C2706 C2705 1.349 . S
C2706 C2718 1.349 . S
C2707 C2705 1.327 . S
C2707 C2723 1.429 . S
C2707 H2729 0.950 . S
C2708 H2704 0.949 . S
C2708 C2716 1.574 . S
C2708 C2724 1.368 . S
H2709 C2717 0.950 . S
H2710 C2715 0.950 . S
H2711 C2716 0.949 . S
H2712 C2718 0.950 . S
H2713 C2719 0.950 . S
H2714 C2720 0.949 . S
C2715 H2710 0.950 . S
C2715 C2717 1.327 . S
C2715 C2721 1.429 . S
C2716 C2708 1.574 . S
C2716 H2711 0.949 . S
C2716 C2722 1.368 . S
C2717 C2701 1.349 . S
C2717 H2709 0.950 . S
C2717 C2715 1.327 . S
C2718 C2706 1.349 . S
C2718 H2712 0.950 . S
C2718 C2719 1.327 . S
C2719 H2713 0.950 . S
C2719 C2718 1.327 . S
C2719 C2723 1.429 . S
C2720 C2703 1.574 . S
C2720 H2714 0.949 . S
C2720 C2724 1.368 . S
C2721 C2702 1.429 . S
C2721 C2715 1.429 . S
C2721 C2722 1.523 . S
C2722 C2703 1.368 . S
C2722 C2716 1.368 . S
C2722 C2721 1.523 . S
C2723 C2707 1.429 . S
C2723 C2719 1.429 . S
C2723 C2724 1.523 . S
C2724 C2708 1.368 . S
C2724 C2720 1.368 . S
C2724 C2723 1.523 . S
H2725 C2700 0.950 . S
H2726 C2702 0.950 . S
H2727 C2703 0.949 . S
H2728 C2705 0.950 . S
H2729 C2707 0.950 . S
C2730 C2731 1.349 . S
C2730 C2732 1.327 . S
C2730 H2755 0.950 . S
C2731 C2730 1.349 . S
C2731 C2747 1.349 . S
C2732 C2730 1.327 . S
C2732 C2751 1.429 . S
C2732 H2756 0.950 . S
C2733 C2750 1.574 1_565 S
C2733 C2752 1.368 . S
C2733 H2757 0.949 . S
H2734 C2738 0.949 . S
C2735 C2736 1.349 . S
C2735 C2737 1.327 . S
C2735 H2758 0.950 . S
C2736 C2735 1.349 . S
C2736 C2748 1.349 . S
C2737 C2735 1.327 . S
C2737 C2753 1.429 . S
C2737 H2759 0.950 . S
C2738 H2734 0.949 . S
C2738 C2746 1.574 1_545 S
C2738 C2754 1.368 . S
H2739 C2747 0.950 . S
H2740 C2745 0.950 . S
H2741 C2746 0.949 . S
H2742 C2748 0.950 . S
H2743 C2749 0.950 . S
H2744 C2750 0.949 . S
C2745 H2740 0.950 . S
C2745 C2747 1.327 . S
C2745 C2751 1.429 . S
C2746 C2738 1.574 1_565 S
C2746 H2741 0.949 . S
C2746 C2752 1.368 . S
C2747 C2731 1.349 . S
C2747 H2739 0.950 . S
C2747 C2745 1.327 . S
C2748 C2736 1.349 . S
C2748 H2742 0.950 . S
C2748 C2749 1.327 . S
C2749 H2743 0.950 . S
C2749 C2748 1.327 . S
C2749 C2753 1.429 . S
C2750 C2733 1.574 1_545 S
C2750 H2744 0.949 . S
C2750 C2754 1.368 . S
C2751 C2732 1.429 . S
C2751 C2745 1.429 . S
C2751 C2752 1.523 . S
C2752 C2733 1.368 . S
C2752 C2746 1.368 . S
C2752 C2751 1.523 . S
C2753 C2737 1.429 . S
C2753 C2749 1.429 . S
C2753 C2754 1.523 . S
C2754 C2738 1.368 . S
C2754 C2750 1.368 . S
C2754 C2753 1.523 . S
H2755 C2730 0.950 . S
H2756 C2732 0.950 . S
H2757 C2733 0.949 . S
H2758 C2735 0.950 . S
H2759 C2737 0.950 . S
C2760 C2761 1.349 . S
C2760 C2762 1.327 . S
C2760 H2785 0.950 . S
C2761 C2760 1.349 . S
C2761 C2777 1.349 . S
C2762 C2760 1.327 . S
C2762 C2781 1.429 . S
C2762 H2786 0.950 . S
C2763 C2780 1.574 1_655 S
C2763 C2782 1.368 . S
C2763 H2787 0.949 . S
H2764 C2768 0.949 . S
C2765 C2766 1.349 . S
C2765 C2767 1.327 . S
C2765 H2788 0.950 . S
C2766 C2765 1.349 . S
C2766 C2778 1.349 . S
C2767 C2765 1.327 . S
C2767 C2783 1.429 . S
C2767 H2789 0.950 . S
C2768 H2764 0.949 . S
C2768 C2776 1.574 1_455 S
C2768 C2784 1.368 . S
H2769 C2777 0.950 . S
H2770 C2775 0.950 . S
H2771 C2776 0.949 . S
H2772 C2778 0.950 . S
H2773 C2779 0.950 . S
H2774 C2780 0.949 . S
C2775 H2770 0.950 . S
C2775 C2777 1.327 . S
C2775 C2781 1.429 . S
C2776 C2768 1.574 1_655 S
C2776 H2771 0.949 . S
C2776 C2782 1.368 . S
C2777 C2761 1.349 . S
C2777 H2769 0.950 . S
C2777 C2775 1.327 . S
C2778 C2766 1.349 . S
C2778 H2772 0.950 . S
C2778 C2779 1.327 . S
C2779 H2773 0.950 . S
C2779 C2778 1.327 . S
C2779 C2783 1.429 . S
C2780 C2763 1.574 1_455 S
C2780 H2774 0.949 . S
C2780 C2784 1.368 . S
C2781 C2762 1.429 . S
C2781 C2775 1.429 . S
C2781 C2782 1.523 . S
C2782 C2763 1.368 . S
C2782 C2776 1.368 . S
C2782 C2781 1.523 . S
C2783 C2767 1.429 . S
C2783 C2779 1.429 . S
C2783 C2784 1.523 . S
C2784 C2768 1.368 . S
C2784 C2780 1.368 . S
C2784 C2783 1.523 . S
H2785 C2760 0.950 . S
H2786 C2762 0.950 . S
H2787 C2763 0.949 . S
H2788 C2765 0.950 . S
H2789 C2767 0.950 . S
C2790 C2791 1.349 . S
C2790 C2792 1.327 . S
C2790 H2815 0.950 . S
C2791 C2790 1.349 . S
C2791 C2807 1.349 . S
C2792 C2790 1.327 . S
C2792 C2811 1.429 . S
C2792 H2816 0.950 . S
C2793 C2810 1.574 . S
C2793 C2812 1.368 . S
C2793 H2817 0.949 . S
H2794 C2798 0.949 . S
C2795 C2796 1.349 . S
C2795 C2797 1.327 . S
C2795 H2818 0.950 . S
C2796 C2795 1.349 . S
C2796 C2808 1.349 . S
C2797 C2795 1.327 . S
C2797 C2813 1.429 . S
C2797 H2819 0.950 . S
C2798 H2794 0.949 . S
C2798 C2806 1.574 . S
C2798 C2814 1.368 . S
H2799 C2807 0.950 . S
H2800 C2805 0.950 . S
H2801 C2806 0.949 . S
H2802 C2808 0.950 . S
H2803 C2809 0.950 . S
H2804 C2810 0.949 . S
C2805 H2800 0.950 . S
C2805 C2807 1.327 . S
C2805 C2811 1.429 . S
C2806 C2798 1.574 . S
C2806 H2801 0.949 . S
C2806 C2812 1.368 . S
C2807 C2791 1.349 . S
C2807 H2799 0.950 . S
C2807 C2805 1.327 . S
C2808 C2796 1.349 . S
C2808 H2802 0.950 . S
C2808 C2809 1.327 . S
C2809 H2803 0.950 . S
C2809 C2808 1.327 . S
C2809 C2813 1.429 . S
C2810 C2793 1.574 . S
C2810 H2804 0.949 . S
C2810 C2814 1.368 . S
C2811 C2792 1.429 . S
C2811 C2805 1.429 . S
C2811 C2812 1.523 . S
C2812 C2793 1.368 . S
C2812 C2806 1.368 . S
C2812 C2811 1.523 . S
C2813 C2797 1.429 . S
C2813 C2809 1.429 . S
C2813 C2814 1.523 . S
C2814 C2798 1.368 . S
C2814 C2810 1.368 . S
C2814 C2813 1.523 . S
H2815 C2790 0.950 . S
H2816 C2792 0.950 . S
H2817 C2793 0.949 . S
H2818 C2795 0.950 . S
H2819 C2797 0.950 . S
C2820 C2821 1.349 . S
C2820 C2822 1.327 . S
C2820 H2845 0.950 . S
C2821 C2820 1.349 . S
C2821 C2837 1.349 . S
C2822 C2820 1.327 . S
C2822 C2841 1.429 . S
C2822 H2846 0.950 . S
C2823 C2840 1.574 . S
C2823 C2842 1.368 . S
C2823 H2847 0.949 . S
H2824 C2828 0.949 . S
C2825 C2826 1.349 . S
C2825 C2827 1.327 . S
C2825 H2848 0.950 . S
C2826 C2825 1.349 . S
C2826 C2838 1.349 . S
C2827 C2825 1.327 . S
C2827 C2843 1.429 . S
C2827 H2849 0.950 . S
C2828 H2824 0.949 . S
C2828 C2836 1.574 . S
C2828 C2844 1.368 . S
H2829 C2837 0.950 . S
H2830 C2835 0.950 . S
H2831 C2836 0.949 . S
H2832 C2838 0.950 . S
H2833 C2839 0.950 . S
H2834 C2840 0.949 . S
C2835 H2830 0.950 . S
C2835 C2837 1.327 . S
C2835 C2841 1.429 . S
C2836 C2828 1.574 . S
C2836 H2831 0.949 . S
C2836 C2842 1.368 . S
C2837 C2821 1.349 . S
C2837 H2829 0.950 . S
C2837 C2835 1.327 . S
C2838 C2826 1.349 . S
C2838 H2832 0.950 . S
C2838 C2839 1.327 . S
C2839 H2833 0.950 . S
C2839 C2838 1.327 . S
C2839 C2843 1.429 . S
C2840 C2823 1.574 . S
C2840 H2834 0.949 . S
C2840 C2844 1.368 . S
C2841 C2822 1.429 . S
C2841 C2835 1.429 . S
C2841 C2842 1.523 . S
C2842 C2823 1.368 . S
C2842 C2836 1.368 . S
C2842 C2841 1.523 . S
C2843 C2827 1.429 . S
C2843 C2839 1.429 . S
C2843 C2844 1.523 . S
C2844 C2828 1.368 . S
C2844 C2840 1.368 . S
C2844 C2843 1.523 . S
H2845 C2820 0.950 . S
H2846 C2822 0.950 . S
H2847 C2823 0.949 . S
H2848 C2825 0.950 . S
H2849 C2827 0.950 . S
C2850 C2851 1.349 . S
C2850 C2852 1.327 . S
C2850 H2875 0.950 . S
C2851 C2850 1.349 . S
C2851 C2867 1.349 . S
C2852 C2850 1.327 . S
C2852 C2871 1.429 . S
C2852 H2876 0.950 . S
C2853 C2870 1.574 1_545 S
C2853 C2872 1.368 . S
C2853 H2877 0.949 . S
H2854 C2858 0.949 . S
C2855 C2856 1.349 . S
C2855 C2857 1.327 . S
C2855 H2878 0.950 . S
C2856 C2855 1.349 . S
C2856 C2868 1.349 . S
C2857 C2855 1.327 . S
C2857 C2873 1.429 . S
C2857 H2879 0.950 . S
C2858 H2854 0.949 . S
C2858 C2866 1.574 1_565 S
C2858 C2874 1.368 . S
H2859 C2867 0.950 . S
H2860 C2865 0.950 . S
H2861 C2866 0.949 . S
H2862 C2868 0.950 . S
H2863 C2869 0.950 . S
H2864 C2870 0.949 . S
C2865 H2860 0.950 . S
C2865 C2867 1.327 . S
C2865 C2871 1.429 . S
C2866 C2858 1.574 1_545 S
C2866 H2861 0.949 . S
C2866 C2872 1.368 . S
C2867 C2851 1.349 . S
C2867 H2859 0.950 . S
C2867 C2865 1.327 . S
C2868 C2856 1.349 . S
C2868 H2862 0.950 . S
C2868 C2869 1.327 . S
C2869 H2863 0.950 . S
C2869 C2868 1.327 . S
C2869 C2873 1.429 . S
C2870 C2853 1.574 1_565 S
C2870 H2864 0.949 . S
C2870 C2874 1.368 . S
C2871 C2852 1.429 . S
C2871 C2865 1.429 . S
C2871 C2872 1.523 . S
C2872 C2853 1.368 . S
C2872 C2866 1.368 . S
C2872 C2871 1.523 . S
C2873 C2857 1.429 . S
C2873 C2869 1.429 . S
C2873 C2874 1.523 . S
C2874 C2858 1.368 . S
C2874 C2870 1.368 . S
C2874 C2873 1.523 . S
H2875 C2850 0.950 . S
H2876 C2852 0.950 . S
H2877 C2853 0.949 . S
H2878 C2855 0.950 . S
H2879 C2857 0.950 . S
C2880 C2881 1.349 . S
C2880 C2882 1.327 . S
C2880 H2905 0.950 . S
C2881 C2880 1.349 . S
C2881 C2897 1.349 . S
C2882 C2880 1.327 . S
C2882 C2901 1.429 . S
C2882 H2906 0.950 . S
C2883 C2900 1.574 1_554 S
C2883 C2902 1.368 . S
C2883 H2907 0.949 . S
H2884 C2888 0.949 . S
C2885 C2886 1.349 . S
C2885 C2887 1.327 . S
C2885 H2908 0.950 . S
C2886 C2885 1.349 . S
C2886 C2898 1.349 . S
C2887 C2885 1.327 . S
C2887 C2903 1.429 . S
C2887 H2909 0.950 . S
C2888 H2884 0.949 . S
C2888 C2896 1.574 1_556 S
C2888 C2904 1.368 . S
H2889 C2897 0.950 . S
H2890 C2895 0.950 . S
H2891 C2896 0.949 . S
H2892 C2898 0.950 . S
H2893 C2899 0.950 . S
H2894 C2900 0.949 . S
C2895 H2890 0.950 . S
C2895 C2897 1.327 . S
C2895 C2901 1.429 . S
C2896 C2888 1.574 1_554 S
C2896 H2891 0.949 . S
C2896 C2902 1.368 . S
C2897 C2881 1.349 . S
C2897 H2889 0.950 . S
C2897 C2895 1.327 . S
C2898 C2886 1.349 . S
C2898 H2892 0.950 . S
C2898 C2899 1.327 . S
C2899 H2893 0.950 . S
C2899 C2898 1.327 . S
C2899 C2903 1.429 . S
C2900 C2883 1.574 1_556 S
C2900 H2894 0.949 . S
C2900 C2904 1.368 . S
C2901 C2882 1.429 . S
C2901 C2895 1.429 . S
C2901 C2902 1.523 . S
C2902 C2883 1.368 . S
C2902 C2896 1.368 . S
C2902 C2901 1.523 . S
C2903 C2887 1.429 . S
C2903 C2899 1.429 . S
C2903 C2904 1.523 . S
C2904 C2888 1.368 . S
C2904 C2900 1.368 . S
C2904 C2903 1.523 . S
H2905 C2880 0.950 . S
H2906 C2882 0.950 . S
H2907 C2883 0.949 . S
H2908 C2885 0.950 . S
H2909 C2887 0.950 . S
C2910 C2911 1.349 . S
C2910 C2912 1.327 . S
C2910 H2935 0.950 . S
C2911 C2910 1.349 . S
C2911 C2927 1.349 . S
C2912 C2910 1.327 . S
C2912 C2931 1.429 . S
C2912 H2936 0.950 . S
C2913 C2930 1.574 . S
C2913 C2932 1.368 . S
C2913 H2937 0.949 . S
H2914 C2918 0.949 . S
C2915 C2916 1.349 . S
C2915 C2917 1.327 . S
C2915 H2938 0.950 . S
C2916 C2915 1.349 . S
C2916 C2928 1.349 . S
C2917 C2915 1.327 . S
C2917 C2933 1.429 . S
C2917 H2939 0.950 . S
C2918 H2914 0.949 . S
C2918 C2926 1.574 . S
C2918 C2934 1.368 . S
H2919 C2927 0.950 . S
H2920 C2925 0.950 . S
H2921 C2926 0.949 . S
H2922 C2928 0.950 . S
H2923 C2929 0.950 . S
H2924 C2930 0.949 . S
C2925 H2920 0.950 . S
C2925 C2927 1.327 . S
C2925 C2931 1.429 . S
C2926 C2918 1.574 . S
C2926 H2921 0.949 . S
C2926 C2932 1.368 . S
C2927 C2911 1.349 . S
C2927 H2919 0.950 . S
C2927 C2925 1.327 . S
C2928 C2916 1.349 . S
C2928 H2922 0.950 . S
C2928 C2929 1.327 . S
C2929 H2923 0.950 . S
C2929 C2928 1.327 . S
C2929 C2933 1.429 . S
C2930 C2913 1.574 . S
C2930 H2924 0.949 . S
C2930 C2934 1.368 . S
C2931 C2912 1.429 . S
C2931 C2925 1.429 . S
C2931 C2932 1.523 . S
C2932 C2913 1.368 . S
C2932 C2926 1.368 . S
C2932 C2931 1.523 . S
C2933 C2917 1.429 . S
C2933 C2929 1.429 . S
C2933 C2934 1.523 . S
C2934 C2918 1.368 . S
C2934 C2930 1.368 . S
C2934 C2933 1.523 . S
H2935 C2910 0.950 . S
H2936 C2912 0.950 . S
H2937 C2913 0.949 . S
H2938 C2915 0.950 . S
H2939 C2917 0.950 . S
C2940 C2941 1.349 . S
C2940 C2942 1.327 . S
C2940 H2965 0.950 . S
C2941 C2940 1.349 . S
C2941 C2957 1.349 . S
C2942 C2940 1.327 . S
C2942 C2961 1.429 . S
C2942 H2966 0.950 . S
C2943 C2960 1.574 . S
C2943 C2962 1.368 . S
C2943 H2967 0.949 . S
H2944 C2948 0.949 . S
C2945 C2946 1.349 . S
C2945 C2947 1.327 . S
C2945 H2968 0.950 . S
C2946 C2945 1.349 . S
C2946 C2958 1.349 . S
C2947 C2945 1.327 . S
C2947 C2963 1.429 . S
C2947 H2969 0.950 . S
C2948 H2944 0.949 . S
C2948 C2956 1.574 . S
C2948 C2964 1.368 . S
H2949 C2957 0.950 . S
H2950 C2955 0.950 . S
H2951 C2956 0.949 . S
H2952 C2958 0.950 . S
H2953 C2959 0.950 . S
H2954 C2960 0.949 . S
C2955 H2950 0.950 . S
C2955 C2957 1.327 . S
C2955 C2961 1.429 . S
C2956 C2948 1.574 . S
C2956 H2951 0.949 . S
C2956 C2962 1.368 . S
C2957 C2941 1.349 . S
C2957 H2949 0.950 . S
C2957 C2955 1.327 . S
C2958 C2946 1.349 . S
C2958 H2952 0.950 . S
C2958 C2959 1.327 . S
C2959 H2953 0.950 . S
C2959 C2958 1.327 . S
C2959 C2963 1.429 . S
C2960 C2943 1.574 . S
C2960 H2954 0.949 . S
C2960 C2964 1.368 . S
C2961 C2942 1.429 . S
C2961 C2955 1.429 . S
C2961 C2962 1.523 . S
C2962 C2943 1.368 . S
C2962 C2956 1.368 . S
C2962 C2961 1.523 . S
C2963 C2947 1.429 . S
C2963 C2959 1.429 . S
C2963 C2964 1.523 . S
C2964 C2948 1.368 . S
C2964 C2960 1.368 . S
C2964 C2963 1.523 . S
H2965 C2940 0.950 . S
H2966 C2942 0.950 . S
H2967 C2943 0.949 . S
H2968 C2945 0.950 . S
H2969 C2947 0.950 . S
C2970 C2971 1.349 . S
C2970 C2972 1.327 . S
C2970 H2995 0.950 . S
C2971 C2970 1.349 . S
C2971 C2987 1.349 . S
C2972 C2970 1.327 . S
C2972 C2991 1.429 . S
C2972 H2996 0.950 . S
C2973 C2990 1.574 1_556 S
C2973 C2992 1.368 . S
C2973 H2997 0.949 . S
H2974 C2978 0.949 . S
C2975 C2976 1.349 . S
C2975 C2977 1.327 . S
C2975 H2998 0.950 . S
C2976 C2975 1.349 . S
C2976 C2988 1.349 . S
C2977 C2975 1.327 . S
C2977 C2993 1.429 . S
C2977 H2999 0.950 . S
C2978 H2974 0.949 . S
C2978 C2986 1.574 1_554 S
C2978 C2994 1.368 . S
H2979 C2987 0.950 . S
H2980 C2985 0.950 . S
H2981 C2986 0.949 . S
H2982 C2988 0.950 . S
H2983 C2989 0.950 . S
H2984 C2990 0.949 . S
C2985 H2980 0.950 . S
C2985 C2987 1.327 . S
C2985 C2991 1.429 . S
C2986 C2978 1.574 1_556 S
C2986 H2981 0.949 . S
C2986 C2992 1.368 . S
C2987 C2971 1.349 . S
C2987 H2979 0.950 . S
C2987 C2985 1.327 . S
C2988 C2976 1.349 . S
C2988 H2982 0.950 . S
C2988 C2989 1.327 . S
C2989 H2983 0.950 . S
C2989 C2988 1.327 . S
C2989 C2993 1.429 . S
C2990 C2973 1.574 1_554 S
C2990 H2984 0.949 . S
C2990 C2994 1.368 . S
C2991 C2972 1.429 . S
C2991 C2985 1.429 . S
C2991 C2992 1.523 . S
C2992 C2973 1.368 . S
C2992 C2986 1.368 . S
C2992 C2991 1.523 . S
C2993 C2977 1.429 . S
C2993 C2989 1.429 . S
C2993 C2994 1.523 . S
C2994 C2978 1.368 . S
C2994 C2990 1.368 . S
C2994 C2993 1.523 . S
H2995 C2970 0.950 . S
H2996 C2972 0.950 . S
H2997 C2973 0.949 . S
H2998 C2975 0.950 . S
H2999 C2977 0.950 . S
C3000 C3001 1.349 . S
C3000 C3002 1.327 . S
C3000 H3025 0.950 . S
C3001 C3000 1.349 . S
C3001 C3017 1.349 . S
C3002 C3000 1.327 . S
C3002 C3021 1.429 . S
C3002 H3026 0.950 . S
C3003 C3020 1.574 1_655 S
C3003 C3022 1.368 . S
C3003 H3027 0.949 . S
H3004 C3008 0.949 . S
C3005 C3006 1.349 . S
C3005 C3007 1.327 . S
C3005 H3028 0.950 . S
C3006 C3005 1.349 . S
C3006 C3018 1.349 . S
C3007 C3005 1.327 . S
C3007 C3023 1.429 . S
C3007 H3029 0.950 . S
C3008 H3004 0.949 . S
C3008 C3016 1.574 1_455 S
C3008 C3024 1.368 . S
H3009 C3017 0.950 . S
H3010 C3015 0.950 . S
H3011 C3016 0.949 . S
H3012 C3018 0.950 . S
H3013 C3019 0.950 . S
H3014 C3020 0.949 . S
C3015 H3010 0.950 . S
C3015 C3017 1.327 . S
C3015 C3021 1.429 . S
C3016 C3008 1.574 1_655 S
C3016 H3011 0.949 . S
C3016 C3022 1.368 . S
C3017 C3001 1.349 . S
C3017 H3009 0.950 . S
C3017 C3015 1.327 . S
C3018 C3006 1.349 . S
C3018 H3012 0.950 . S
C3018 C3019 1.327 . S
C3019 H3013 0.950 . S
C3019 C3018 1.327 . S
C3019 C3023 1.429 . S
C3020 C3003 1.574 1_455 S
C3020 H3014 0.949 . S
C3020 C3024 1.368 . S
C3021 C3002 1.429 . S
C3021 C3015 1.429 . S
C3021 C3022 1.523 . S
C3022 C3003 1.368 . S
C3022 C3016 1.368 . S
C3022 C3021 1.523 . S
C3023 C3007 1.429 . S
C3023 C3019 1.429 . S
C3023 C3024 1.523 . S
C3024 C3008 1.368 . S
C3024 C3020 1.368 . S
C3024 C3023 1.523 . S
H3025 C3000 0.950 . S
H3026 C3002 0.950 . S
H3027 C3003 0.949 . S
H3028 C3005 0.950 . S
H3029 C3007 0.950 . S
C3030 C3031 1.349 . S
C3030 C3032 1.327 . S
C3030 H3055 0.950 . S
C3031 C3030 1.349 . S
C3031 C3047 1.349 . S
C3032 C3030 1.327 . S
C3032 C3051 1.429 . S
C3032 H3056 0.950 . S
C3033 C3050 1.574 . S
C3033 C3052 1.368 . S
C3033 H3057 0.949 . S
H3034 C3038 0.949 . S
C3035 C3036 1.349 . S
C3035 C3037 1.327 . S
C3035 H3058 0.950 . S
C3036 C3035 1.349 . S
C3036 C3048 1.349 . S
C3037 C3035 1.327 . S
C3037 C3053 1.429 . S
C3037 H3059 0.950 . S
C3038 H3034 0.949 . S
C3038 C3046 1.574 . S
C3038 C3054 1.368 . S
H3039 C3047 0.950 . S
H3040 C3045 0.950 . S
H3041 C3046 0.949 . S
H3042 C3048 0.950 . S
H3043 C3049 0.950 . S
H3044 C3050 0.949 . S
C3045 H3040 0.950 . S
C3045 C3047 1.327 . S
C3045 C3051 1.429 . S
C3046 C3038 1.574 . S
C3046 H3041 0.949 . S
C3046 C3052 1.368 . S
C3047 C3031 1.349 . S
C3047 H3039 0.950 . S
C3047 C3045 1.327 . S
C3048 C3036 1.349 . S
C3048 H3042 0.950 . S
C3048 C3049 1.327 . S
C3049 H3043 0.950 . S
C3049 C3048 1.327 . S
C3049 C3053 1.429 . S
C3050 C3033 1.574 . S
C3050 H3044 0.949 . S
C3050 C3054 1.368 . S
C3051 C3032 1.429 . S
C3051 C3045 1.429 . S
C3051 C3052 1.523 . S
C3052 C3033 1.368 . S
C3052 C3046 1.368 . S
C3052 C3051 1.523 . S
C3053 C3037 1.429 . S
C3053 C3049 1.429 . S
C3053 C3054 1.523 . S
C3054 C3038 1.368 . S
C3054 C3050 1.368 . S
C3054 C3053 1.523 . S
H3055 C3030 0.950 . S
H3056 C3032 0.950 . S
H3057 C3033 0.949 . S
H3058 C3035 0.950 . S
H3059 C3037 0.950 . S
C3060 C3061 1.349 . S
C3060 C3062 1.327 . S
C3060 H3085 0.950 . S
C3061 C3060 1.349 . S
C3061 C3077 1.349 . S
C3062 C3060 1.327 . S
C3062 C3081 1.429 . S
C3062 H3086 0.950 . S
C3063 C3080 1.574 . S
C3063 C3082 1.368 . S
C3063 H3087 0.949 . S
H3064 C3068 0.949 . S
C3065 C3066 1.349 . S
C3065 C3067 1.327 . S
C3065 H3088 0.950 . S
C3066 C3065 1.349 . S
C3066 C3078 1.349 . S
C3067 C3065 1.327 . S
C3067 C3083 1.429 . S
C3067 H3089 0.950 . S
C3068 H3064 0.949 . S
C3068 C3076 1.574 . S
C3068 C3084 1.368 . S
H3069 C3077 0.950 . S
H3070 C3075 0.950 . S
H3071 C3076 0.949 . S
H3072 C3078 0.950 . S
H3073 C3079 0.950 . S
H3074 C3080 0.949 . S
C3075 H3070 0.950 . S
C3075 C3077 1.327 . S
C3075 C3081 1.429 . S
C3076 C3068 1.574 . S
C3076 H3071 0.949 . S
C3076 C3082 1.368 . S
C3077 C3061 1.349 . S
C3077 H3069 0.950 . S
C3077 C3075 1.327 . S
C3078 C3066 1.349 . S
C3078 H3072 0.950 . S
C3078 C3079 1.327 . S
C3079 H3073 0.950 . S
C3079 C3078 1.327 . S
C3079 C3083 1.429 . S
C3080 C3063 1.574 . S
C3080 H3074 0.949 . S
C3080 C3084 1.368 . S
C3081 C3062 1.429 . S
C3081 C3075 1.429 . S
C3081 C3082 1.523 . S
C3082 C3063 1.368 . S
C3082 C3076 1.368 . S
C3082 C3081 1.523 . S
C3083 C3067 1.429 . S
C3083 C3079 1.429 . S
C3083 C3084 1.523 . S
C3084 C3068 1.368 . S
C3084 C3080 1.368 . S
C3084 C3083 1.523 . S
H3085 C3060 0.950 . S
H3086 C3062 0.950 . S
H3087 C3063 0.949 . S
H3088 C3065 0.950 . S
H3089 C3067 0.950 . S
C3090 C3091 1.349 . S
C3090 C3092 1.327 . S
C3090 H3115 0.950 . S
C3091 C3090 1.349 . S
C3091 C3107 1.349 . S
C3092 C3090 1.327 . S
C3092 C3111 1.429 . S
C3092 H3116 0.950 . S
C3093 C3110 1.574 1_565 S
C3093 C3112 1.368 . S
C3093 H3117 0.949 . S
H3094 C3098 0.949 . S
C3095 C3096 1.349 . S
C3095 C3097 1.327 . S
C3095 H3118 0.950 . S
C3096 C3095 1.349 . S
C3096 C3108 1.349 . S
C3097 C3095 1.327 . S
C3097 C3113 1.429 . S
C3097 H3119 0.950 . S
C3098 H3094 0.949 . S
C3098 C3106 1.574 1_545 S
C3098 C3114 1.368 . S
H3099 C3107 0.950 . S
H3100 C3105 0.950 . S
H3101 C3106 0.949 . S
H3102 C3108 0.950 . S
H3103 C3109 0.950 . S
H3104 C3110 0.949 . S
C3105 H3100 0.950 . S
C3105 C3107 1.327 . S
C3105 C3111 1.429 . S
C3106 C3098 1.574 1_565 S
C3106 H3101 0.949 . S
C3106 C3112 1.368 . S
C3107 C3091 1.349 . S
C3107 H3099 0.950 . S
C3107 C3105 1.327 . S
C3108 C3096 1.349 . S
C3108 H3102 0.950 . S
C3108 C3109 1.327 . S
C3109 H3103 0.950 . S
C3109 C3108 1.327 . S
C3109 C3113 1.429 . S
C3110 C3093 1.574 1_545 S
C3110 H3104 0.949 . S
C3110 C3114 1.368 . S
C3111 C3092 1.429 . S
C3111 C3105 1.429 . S
C3111 C3112 1.523 . S
C3112 C3093 1.368 . S
C3112 C3106 1.368 . S
C3112 C3111 1.523 . S
C3113 C3097 1.429 . S
C3113 C3109 1.429 . S
C3113 C3114 1.523 . S
C3114 C3098 1.368 . S
C3114 C3110 1.368 . S
C3114 C3113 1.523 . S
H3115 C3090 0.950 . S
H3116 C3092 0.950 . S
H3117 C3093 0.949 . S
H3118 C3095 0.950 . S
H3119 C3097 0.950 . S
C3120 C3121 1.349 . S
C3120 C3122 1.327 . S
C3120 H3145 0.950 . S
C3121 C3120 1.349 . S
C3121 C3137 1.349 . S
C3122 C3120 1.327 . S
C3122 C3141 1.429 . S
C3122 H3146 0.950 . S
C3123 C3140 1.574 1_655 S
C3123 C3142 1.368 . S
C3123 H3147 0.949 . S
H3124 C3128 0.949 . S
C3125 C3126 1.349 . S
C3125 C3127 1.327 . S
C3125 H3148 0.950 . S
C3126 C3125 1.349 . S
C3126 C3138 1.349 . S
C3127 C3125 1.327 . S
C3127 C3143 1.429 . S
C3127 H3149 0.950 . S
C3128 H3124 0.949 . S
C3128 C3136 1.574 1_455 S
C3128 C3144 1.368 . S
H3129 C3137 0.950 . S
H3130 C3135 0.950 . S
H3131 C3136 0.949 . S
H3132 C3138 0.950 . S
H3133 C3139 0.950 . S
H3134 C3140 0.949 . S
C3135 H3130 0.950 . S
C3135 C3137 1.327 . S
C3135 C3141 1.429 . S
C3136 C3128 1.574 1_655 S
C3136 H3131 0.949 . S
C3136 C3142 1.368 . S
C3137 C3121 1.349 . S
C3137 H3129 0.950 . S
C3137 C3135 1.327 . S
C3138 C3126 1.349 . S
C3138 H3132 0.950 . S
C3138 C3139 1.327 . S
C3139 H3133 0.950 . S
C3139 C3138 1.327 . S
C3139 C3143 1.429 . S
C3140 C3123 1.574 1_455 S
C3140 H3134 0.949 . S
C3140 C3144 1.368 . S
C3141 C3122 1.429 . S
C3141 C3135 1.429 . S
C3141 C3142 1.523 . S
C3142 C3123 1.368 . S
C3142 C3136 1.368 . S
C3142 C3141 1.523 . S
C3143 C3127 1.429 . S
C3143 C3139 1.429 . S
C3143 C3144 1.523 . S
C3144 C3128 1.368 . S
C3144 C3140 1.368 . S
C3144 C3143 1.523 . S
H3145 C3120 0.950 . S
H3146 C3122 0.950 . S
H3147 C3123 0.949 . S
H3148 C3125 0.950 . S
H3149 C3127 0.950 . S
C3150 C3151 1.349 . S
C3150 C3152 1.327 . S
C3150 H3175 0.950 . S
C3151 C3150 1.349 . S
C3151 C3167 1.349 . S
C3152 C3150 1.327 . S
C3152 C3171 1.429 . S
C3152 H3176 0.950 . S
C3153 C3170 1.574 . S
C3153 C3172 1.368 . S
C3153 H3177 0.949 . S
H3154 C3158 0.949 . S
C3155 C3156 1.349 . S
C3155 C3157 1.327 . S
C3155 H3178 0.950 . S
C3156 C3155 1.349 . S
C3156 C3168 1.349 . S
C3157 C3155 1.327 . S
C3157 C3173 1.429 . S
C3157 H3179 0.950 . S
C3158 H3154 0.949 . S
C3158 C3166 1.574 . S
C3158 C3174 1.368 . S
H3159 C3167 0.950 . S
H3160 C3165 0.950 . S
H3161 C3166 0.949 . S
H3162 C3168 0.950 . S
H3163 C3169 0.950 . S
H3164 C3170 0.949 . S
C3165 H3160 0.950 . S
C3165 C3167 1.327 . S
C3165 C3171 1.429 . S
C3166 C3158 1.574 . S
C3166 H3161 0.949 . S
C3166 C3172 1.368 . S
C3167 C3151 1.349 . S
C3167 H3159 0.950 . S
C3167 C3165 1.327 . S
C3168 C3156 1.349 . S
C3168 H3162 0.950 . S
C3168 C3169 1.327 . S
C3169 H3163 0.950 . S
C3169 C3168 1.327 . S
C3169 C3173 1.429 . S
C3170 C3153 1.574 . S
C3170 H3164 0.949 . S
C3170 C3174 1.368 . S
C3171 C3152 1.429 . S
C3171 C3165 1.429 . S
C3171 C3172 1.523 . S
C3172 C3153 1.368 . S
C3172 C3166 1.368 . S
C3172 C3171 1.523 . S
C3173 C3157 1.429 . S
C3173 C3169 1.429 . S
C3173 C3174 1.523 . S
C3174 C3158 1.368 . S
C3174 C3170 1.368 . S
C3174 C3173 1.523 . S
H3175 C3150 0.950 . S
H3176 C3152 0.950 . S
H3177 C3153 0.949 . S
H3178 C3155 0.950 . S
H3179 C3157 0.950 . S
C3180 C3181 1.349 . S
C3180 C3182 1.327 . S
C3180 H3205 0.950 . S
C3181 C3180 1.349 . S
C3181 C3197 1.349 . S
C3182 C3180 1.327 . S
C3182 C3201 1.429 . S
C3182 H3206 0.950 . S
C3183 C3200 1.574 . S
C3183 C3202 1.368 . S
C3183 H3207 0.949 . S
H3184 C3188 0.949 . S
C3185 C3186 1.349 . S
C3185 C3187 1.327 . S
C3185 H3208 0.950 . S
C3186 C3185 1.349 . S
C3186 C3198 1.349 . S
C3187 C3185 1.327 . S
C3187 C3203 1.429 . S
C3187 H3209 0.950 . S
C3188 H3184 0.949 . S
C3188 C3196 1.574 . S
C3188 C3204 1.368 . S
H3189 C3197 0.950 . S
H3190 C3195 0.950 . S
H3191 C3196 0.949 . S
H3192 C3198 0.950 . S
H3193 C3199 0.950 . S
H3194 C3200 0.949 . S
C3195 H3190 0.950 . S
C3195 C3197 1.327 . S
C3195 C3201 1.429 . S
C3196 C3188 1.574 . S
C3196 H3191 0.949 . S
C3196 C3202 1.368 . S
C3197 C3181 1.349 . S
C3197 H3189 0.950 . S
C3197 C3195 1.327 . S
C3198 C3186 1.349 . S
C3198 H3192 0.950 . S
C3198 C3199 1.327 . S
C3199 H3193 0.950 . S
C3199 C3198 1.327 . S
C3199 C3203 1.429 . S
C3200 C3183 1.574 . S
C3200 H3194 0.949 . S
C3200 C3204 1.368 . S
C3201 C3182 1.429 . S
C3201 C3195 1.429 . S
C3201 C3202 1.523 . S
C3202 C3183 1.368 . S
C3202 C3196 1.368 . S
C3202 C3201 1.523 . S
C3203 C3187 1.429 . S
C3203 C3199 1.429 . S
C3203 C3204 1.523 . S
C3204 C3188 1.368 . S
C3204 C3200 1.368 . S
C3204 C3203 1.523 . S
H3205 C3180 0.950 . S
H3206 C3182 0.950 . S
H3207 C3183 0.949 . S
H3208 C3185 0.950 . S
H3209 C3187 0.950 . S
C3210 C3211 1.349 . S
C3210 C3212 1.327 . S
C3210 H3235 0.950 . S
C3211 C3210 1.349 . S
C3211 C3227 1.349 . S
C3212 C3210 1.327 . S
C3212 C3231 1.429 . S
C3212 H3236 0.950 . S
C3213 C3230 1.574 1_545 S
C3213 C3232 1.368 . S
C3213 H3237 0.949 . S
H3214 C3218 0.949 . S
C3215 C3216 1.349 . S
C3215 C3217 1.327 . S
C3215 H3238 0.950 . S
C3216 C3215 1.349 . S
C3216 C3228 1.349 . S
C3217 C3215 1.327 . S
C3217 C3233 1.429 . S
C3217 H3239 0.950 . S
C3218 H3214 0.949 . S
C3218 C3226 1.574 1_565 S
C3218 C3234 1.368 . S
H3219 C3227 0.950 . S
H3220 C3225 0.950 . S
H3221 C3226 0.949 . S
H3222 C3228 0.950 . S
H3223 C3229 0.950 . S
H3224 C3230 0.949 . S
C3225 H3220 0.950 . S
C3225 C3227 1.327 . S
C3225 C3231 1.429 . S
C3226 C3218 1.574 1_545 S
C3226 H3221 0.949 . S
C3226 C3232 1.368 . S
C3227 C3211 1.349 . S
C3227 H3219 0.950 . S
C3227 C3225 1.327 . S
C3228 C3216 1.349 . S
C3228 H3222 0.950 . S
C3228 C3229 1.327 . S
C3229 H3223 0.950 . S
C3229 C3228 1.327 . S
C3229 C3233 1.429 . S
C3230 C3213 1.574 1_565 S
C3230 H3224 0.949 . S
C3230 C3234 1.368 . S
C3231 C3212 1.429 . S
C3231 C3225 1.429 . S
C3231 C3232 1.523 . S
C3232 C3213 1.368 . S
C3232 C3226 1.368 . S
C3232 C3231 1.523 . S
C3233 C3217 1.429 . S
C3233 C3229 1.429 . S
C3233 C3234 1.523 . S
C3234 C3218 1.368 . S
C3234 C3230 1.368 . S
C3234 C3233 1.523 . S
H3235 C3210 0.950 . S
H3236 C3212 0.950 . S
H3237 C3213 0.949 . S
H3238 C3215 0.950 . S
H3239 C3217 0.950 . S
C3240 C3241 1.349 . S
C3240 C3242 1.327 . S
C3240 H3265 0.950 . S
C3241 C3240 1.349 . S
C3241 C3257 1.349 . S
C3242 C3240 1.327 . S
C3242 C3261 1.429 . S
C3242 H3266 0.950 . S
C3243 C3260 1.574 1_554 S
C3243 C3262 1.368 . S
C3243 H3267 0.949 . S
H3244 C3248 0.949 . S
C3245 C3246 1.349 . S
C3245 C3247 1.327 . S
C3245 H3268 0.950 . S
C3246 C3245 1.349 . S
C3246 C3258 1.349 . S
C3247 C3245 1.327 . S
C3247 C3263 1.429 . S
C3247 H3269 0.950 . S
C3248 H3244 0.949 . S
C3248 C3256 1.574 1_556 S
C3248 C3264 1.368 . S
H3249 C3257 0.950 . S
H3250 C3255 0.950 . S
H3251 C3256 0.949 . S
H3252 C3258 0.950 . S
H3253 C3259 0.950 . S
H3254 C3260 0.949 . S
C3255 H3250 0.950 . S
C3255 C3257 1.327 . S
C3255 C3261 1.429 . S
C3256 C3248 1.574 1_554 S
C3256 H3251 0.949 . S
C3256 C3262 1.368 . S
C3257 C3241 1.349 . S
C3257 H3249 0.950 . S
C3257 C3255 1.327 . S
C3258 C3246 1.349 . S
C3258 H3252 0.950 . S
C3258 C3259 1.327 . S
C3259 H3253 0.950 . S
C3259 C3258 1.327 . S
C3259 C3263 1.429 . S
C3260 C3243 1.574 1_556 S
C3260 H3254 0.949 . S
C3260 C3264 1.368 . S
C3261 C3242 1.429 . S
C3261 C3255 1.429 . S
C3261 C3262 1.523 . S
C3262 C3243 1.368 . S
C3262 C3256 1.368 . S
C3262 C3261 1.523 . S
C3263 C3247 1.429 . S
C3263 C3259 1.429 . S
C3263 C3264 1.523 . S
C3264 C3248 1.368 . S
C3264 C3260 1.368 . S
C3264 C3263 1.523 . S
H3265 C3240 0.950 . S
H3266 C3242 0.950 . S
H3267 C3243 0.949 . S
H3268 C3245 0.950 . S
H3269 C3247 0.950 . S
C3270 C3271 1.349 . S
C3270 C3272 1.327 . S
C3270 H3295 0.950 . S
C3271 C3270 1.349 . S
C3271 C3287 1.349 . S
C3272 C3270 1.327 . S
C3272 C3291 1.429 . S
C3272 H3296 0.950 . S
C3273 C3290 1.574 . S
C3273 C3292 1.368 . S
C3273 H3297 0.949 . S
H3274 C3278 0.949 . S
C3275 C3276 1.349 . S
C3275 C3277 1.327 . S
C3275 H3298 0.950 . S
C3276 C3275 1.349 . S
C3276 C3288 1.349 . S
C3277 C3275 1.327 . S
C3277 C3293 1.429 . S
C3277 H3299 0.950 . S
C3278 H3274 0.949 . S
C3278 C3286 1.574 . S
C3278 C3294 1.368 . S
H3279 C3287 0.950 . S
H3280 C3285 0.950 . S
H3281 C3286 0.949 . S
H3282 C3288 0.950 . S
H3283 C3289 0.950 . S
H3284 C3290 0.949 . S
C3285 H3280 0.950 . S
C3285 C3287 1.327 . S
C3285 C3291 1.429 . S
C3286 C3278 1.574 . S
C3286 H3281 0.949 . S
C3286 C3292 1.368 . S
C3287 C3271 1.349 . S
C3287 H3279 0.950 . S
C3287 C3285 1.327 . S
C3288 C3276 1.349 . S
C3288 H3282 0.950 . S
C3288 C3289 1.327 . S
C3289 H3283 0.950 . S
C3289 C3288 1.327 . S
C3289 C3293 1.429 . S
C3290 C3273 1.574 . S
C3290 H3284 0.949 . S
C3290 C3294 1.368 . S
C3291 C3272 1.429 . S
C3291 C3285 1.429 . S
C3291 C3292 1.523 . S
C3292 C3273 1.368 . S
C3292 C3286 1.368 . S
C3292 C3291 1.523 . S
C3293 C3277 1.429 . S
C3293 C3289 1.429 . S
C3293 C3294 1.523 . S
C3294 C3278 1.368 . S
C3294 C3290 1.368 . S
C3294 C3293 1.523 . S
H3295 C3270 0.950 . S
H3296 C3272 0.950 . S
H3297 C3273 0.949 . S
H3298 C3275 0.950 . S
H3299 C3277 0.950 . S
C3300 C3301 1.349 . S
C3300 C3302 1.327 . S
C3300 H3325 0.950 . S
C3301 C3300 1.349 . S
C3301 C3317 1.349 . S
C3302 C3300 1.327 . S
C3302 C3321 1.429 . S
C3302 H3326 0.950 . S
C3303 C3320 1.574 . S
C3303 C3322 1.368 . S
C3303 H3327 0.949 . S
H3304 C3308 0.949 . S
C3305 C3306 1.349 . S
C3305 C3307 1.327 . S
C3305 H3328 0.950 . S
C3306 C3305 1.349 . S
C3306 C3318 1.349 . S
C3307 C3305 1.327 . S
C3307 C3323 1.429 . S
C3307 H3329 0.950 . S
C3308 H3304 0.949 . S
C3308 C3316 1.574 . S
C3308 C3324 1.368 . S
H3309 C3317 0.950 . S
H3310 C3315 0.950 . S
H3311 C3316 0.949 . S
H3312 C3318 0.950 . S
H3313 C3319 0.950 . S
H3314 C3320 0.949 . S
C3315 H3310 0.950 . S
C3315 C3317 1.327 . S
C3315 C3321 1.429 . S
C3316 C3308 1.574 . S
C3316 H3311 0.949 . S
C3316 C3322 1.368 . S
C3317 C3301 1.349 . S
C3317 H3309 0.950 . S
C3317 C3315 1.327 . S
C3318 C3306 1.349 . S
C3318 H3312 0.950 . S
C3318 C3319 1.327 . S
C3319 H3313 0.950 . S
C3319 C3318 1.327 . S
C3319 C3323 1.429 . S
C3320 C3303 1.574 . S
C3320 H3314 0.949 . S
C3320 C3324 1.368 . S
C3321 C3302 1.429 . S
C3321 C3315 1.429 . S
C3321 C3322 1.523 . S
C3322 C3303 1.368 . S
C3322 C3316 1.368 . S
C3322 C3321 1.523 . S
C3323 C3307 1.429 . S
C3323 C3319 1.429 . S
C3323 C3324 1.523 . S
C3324 C3308 1.368 . S
C3324 C3320 1.368 . S
C3324 C3323 1.523 . S
H3325 C3300 0.950 . S
H3326 C3302 0.950 . S
H3327 C3303 0.949 . S
H3328 C3305 0.950 . S
H3329 C3307 0.950 . S
C3330 C3331 1.349 . S
C3330 C3332 1.327 . S
C3330 H3355 0.950 . S
C3331 C3330 1.349 . S
C3331 C3347 1.349 . S
C3332 C3330 1.327 . S
C3332 C3351 1.429 . S
C3332 H3356 0.950 . S
C3333 C3350 1.574 1_554 S
C3333 C3352 1.368 . S
C3333 H3357 0.949 . S
H3334 C3338 0.949 . S
C3335 C3336 1.349 . S
C3335 C3337 1.327 . S
C3335 H3358 0.950 . S
C3336 C3335 1.349 . S
C3336 C3348 1.349 . S
C3337 C3335 1.327 . S
C3337 C3353 1.429 . S
C3337 H3359 0.950 . S
C3338 H3334 0.949 . S
C3338 C3346 1.574 1_556 S
C3338 C3354 1.368 . S
H3339 C3347 0.950 . S
H3340 C3345 0.950 . S
H3341 C3346 0.949 . S
H3342 C3348 0.950 . S
H3343 C3349 0.950 . S
H3344 C3350 0.949 . S
C3345 H3340 0.950 . S
C3345 C3347 1.327 . S
C3345 C3351 1.429 . S
C3346 C3338 1.574 1_554 S
C3346 H3341 0.949 . S
C3346 C3352 1.368 . S
C3347 C3331 1.349 . S
C3347 H3339 0.950 . S
C3347 C3345 1.327 . S
C3348 C3336 1.349 . S
C3348 H3342 0.950 . S
C3348 C3349 1.327 . S
C3349 H3343 0.950 . S
C3349 C3348 1.327 . S
C3349 C3353 1.429 . S
C3350 C3333 1.574 1_556 S
C3350 H3344 0.949 . S
C3350 C3354 1.368 . S
C3351 C3332 1.429 . S
C3351 C3345 1.429 . S
C3351 C3352 1.523 . S
C3352 C3333 1.368 . S
C3352 C3346 1.368 . S
C3352 C3351 1.523 . S
C3353 C3337 1.429 . S
C3353 C3349 1.429 . S
C3353 C3354 1.523 . S
C3354 C3338 1.368 . S
C3354 C3350 1.368 . S
C3354 C3353 1.523 . S
H3355 C3330 0.950 . S
H3356 C3332 0.950 . S
H3357 C3333 0.949 . S
H3358 C3335 0.950 . S
H3359 C3337 0.950 . S
C3360 C3361 1.349 . S
C3360 C3362 1.327 . S
C3360 H3385 0.950 . S
C3361 C3360 1.349 . S
C3361 C3377 1.349 . S
C3362 C3360 1.327 . S
C3362 C3381 1.429 . S
C3362 H3386 0.950 . S
C3363 C3380 1.574 . S
C3363 C3382 1.368 . S
C3363 H3387 0.949 . S
H3364 C3368 0.949 . S
C3365 C3366 1.349 . S
C3365 C3367 1.327 . S
C3365 H3388 0.950 . S
C3366 C3365 1.349 . S
C3366 C3378 1.349 . S
C3367 C3365 1.327 . S
C3367 C3383 1.429 . S
C3367 H3389 0.950 . S
C3368 H3364 0.949 . S
C3368 C3376 1.574 . S
C3368 C3384 1.368 . S
H3369 C3377 0.950 . S
H3370 C3375 0.950 . S
H3371 C3376 0.949 . S
H3372 C3378 0.950 . S
H3373 C3379 0.950 . S
H3374 C3380 0.949 . S
C3375 H3370 0.950 . S
C3375 C3377 1.327 . S
C3375 C3381 1.429 . S
C3376 C3368 1.574 . S
C3376 H3371 0.949 . S
C3376 C3382 1.368 . S
C3377 C3361 1.349 . S
C3377 H3369 0.950 . S
C3377 C3375 1.327 . S
C3378 C3366 1.349 . S
C3378 H3372 0.950 . S
C3378 C3379 1.327 . S
C3379 H3373 0.950 . S
C3379 C3378 1.327 . S
C3379 C3383 1.429 . S
C3380 C3363 1.574 . S
C3380 H3374 0.949 . S
C3380 C3384 1.368 . S
C3381 C3362 1.429 . S
C3381 C3375 1.429 . S
C3381 C3382 1.523 . S
C3382 C3363 1.368 . S
C3382 C3376 1.368 . S
C3382 C3381 1.523 . S
C3383 C3367 1.429 . S
C3383 C3379 1.429 . S
C3383 C3384 1.523 . S
C3384 C3368 1.368 . S
C3384 C3380 1.368 . S
C3384 C3383 1.523 . S
H3385 C3360 0.950 . S
H3386 C3362 0.950 . S
H3387 C3363 0.949 . S
H3388 C3365 0.950 . S
H3389 C3367 0.950 . S
C3390 C3391 1.349 . S
C3390 C3392 1.327 . S
C3390 H3415 0.950 . S
C3391 C3390 1.349 . S
C3391 C3407 1.349 . S
C3392 C3390 1.327 . S
C3392 C3411 1.429 . S
C3392 H3416 0.950 . S
C3393 C3410 1.574 . S
C3393 C3412 1.368 . S
C3393 H3417 0.949 . S
H3394 C3398 0.949 . S
C3395 C3396 1.349 . S
C3395 C3397 1.327 . S
C3395 H3418 0.950 . S
C3396 C3395 1.349 . S
C3396 C3408 1.349 . S
C3397 C3395 1.327 . S
C3397 C3413 1.429 . S
C3397 H3419 0.950 . S
C3398 H3394 0.949 . S
C3398 C3406 1.574 . S
C3398 C3414 1.368 . S
H3399 C3407 0.950 . S
H3400 C3405 0.950 . S
H3401 C3406 0.949 . S
H3402 C3408 0.950 . S
H3403 C3409 0.950 . S
H3404 C3410 0.949 . S
C3405 H3400 0.950 . S
C3405 C3407 1.327 . S
C3405 C3411 1.429 . S
C3406 C3398 1.574 . S
C3406 H3401 0.949 . S
C3406 C3412 1.368 . S
C3407 C3391 1.349 . S
C3407 H3399 0.950 . S
C3407 C3405 1.327 . S
C3408 C3396 1.349 . S
C3408 H3402 0.950 . S
C3408 C3409 1.327 . S
C3409 H3403 0.950 . S
C3409 C3408 1.327 . S
C3409 C3413 1.429 . S
C3410 C3393 1.574 . S
C3410 H3404 0.949 . S
C3410 C3414 1.368 . S
C3411 C3392 1.429 . S
C3411 C3405 1.429 . S
C3411 C3412 1.523 . S
C3412 C3393 1.368 . S
C3412 C3406 1.368 . S
C3412 C3411 1.523 . S
C3413 C3397 1.429 . S
C3413 C3409 1.429 . S
C3413 C3414 1.523 . S
C3414 C3398 1.368 . S
C3414 C3410 1.368 . S
C3414 C3413 1.523 . S
H3415 C3390 0.950 . S
H3416 C3392 0.950 . S
H3417 C3393 0.949 . S
H3418 C3395 0.950 . S
H3419 C3397 0.950 . S
C3420 C3421 1.349 . S
C3420 C3422 1.327 . S
C3420 H3445 0.950 . S
C3421 C3420 1.349 . S
C3421 C3437 1.349 . S
C3422 C3420 1.327 . S
C3422 C3441 1.429 . S
C3422 H3446 0.950 . S
C3423 C3440 1.574 . S
C3423 C3442 1.368 . S
C3423 H3447 0.949 . S
H3424 C3428 0.949 . S
C3425 C3426 1.349 . S
C3425 C3427 1.327 . S
C3425 H3448 0.950 . S
C3426 C3425 1.349 . S
C3426 C3438 1.349 . S
C3427 C3425 1.327 . S
C3427 C3443 1.429 . S
C3427 H3449 0.950 . S
C3428 H3424 0.949 . S
C3428 C3436 1.574 . S
C3428 C3444 1.368 . S
H3429 C3437 0.950 . S
H3430 C3435 0.950 . S
H3431 C3436 0.949 . S
H3432 C3438 0.950 . S
H3433 C3439 0.950 . S
H3434 C3440 0.949 . S
C3435 H3430 0.950 . S
C3435 C3437 1.327 . S
C3435 C3441 1.429 . S
C3436 C3428 1.574 . S
C3436 H3431 0.949 . S
C3436 C3442 1.368 . S
C3437 C3421 1.349 . S
C3437 H3429 0.950 . S
C3437 C3435 1.327 . S
C3438 C3426 1.349 . S
C3438 H3432 0.950 . S
C3438 C3439 1.327 . S
C3439 H3433 0.950 . S
C3439 C3438 1.327 . S
C3439 C3443 1.429 . S
C3440 C3423 1.574 . S
C3440 H3434 0.949 . S
C3440 C3444 1.368 . S
C3441 C3422 1.429 . S
C3441 C3435 1.429 . S
C3441 C3442 1.523 . S
C3442 C3423 1.368 . S
C3442 C3436 1.368 . S
C3442 C3441 1.523 . S
C3443 C3427 1.429 . S
C3443 C3439 1.429 . S
C3443 C3444 1.523 . S
C3444 C3428 1.368 . S
C3444 C3440 1.368 . S
C3444 C3443 1.523 . S
H3445 C3420 0.950 . S
H3446 C3422 0.950 . S
H3447 C3423 0.949 . S
H3448 C3425 0.950 . S
H3449 C3427 0.950 . S
C3450 C3451 1.349 . S
C3450 C3452 1.327 . S
C3450 H3475 0.950 . S
C3451 C3450 1.349 . S
C3451 C3467 1.349 . S
C3452 C3450 1.327 . S
C3452 C3471 1.429 . S
C3452 H3476 0.950 . S
C3453 C3470 1.574 . S
C3453 C3472 1.368 . S
C3453 H3477 0.949 . S
H3454 C3458 0.949 . S
C3455 C3456 1.349 . S
C3455 C3457 1.327 . S
C3455 H3478 0.950 . S
C3456 C3455 1.349 . S
C3456 C3468 1.349 . S
C3457 C3455 1.327 . S
C3457 C3473 1.429 . S
C3457 H3479 0.950 . S
C3458 H3454 0.949 . S
C3458 C3466 1.574 . S
C3458 C3474 1.368 . S
H3459 C3467 0.950 . S
H3460 C3465 0.950 . S
H3461 C3466 0.949 . S
H3462 C3468 0.950 . S
H3463 C3469 0.950 . S
H3464 C3470 0.949 . S
C3465 H3460 0.950 . S
C3465 C3467 1.327 . S
C3465 C3471 1.429 . S
C3466 C3458 1.574 . S
C3466 H3461 0.949 . S
C3466 C3472 1.368 . S
C3467 C3451 1.349 . S
C3467 H3459 0.950 . S
C3467 C3465 1.327 . S
C3468 C3456 1.349 . S
C3468 H3462 0.950 . S
C3468 C3469 1.327 . S
C3469 H3463 0.950 . S
C3469 C3468 1.327 . S
C3469 C3473 1.429 . S
C3470 C3453 1.574 . S
C3470 H3464 0.949 . S
C3470 C3474 1.368 . S
C3471 C3452 1.429 . S
C3471 C3465 1.429 . S
C3471 C3472 1.523 . S
C3472 C3453 1.368 . S
C3472 C3466 1.368 . S
C3472 C3471 1.523 . S
C3473 C3457 1.429 . S
C3473 C3469 1.429 . S
C3473 C3474 1.523 . S
C3474 C3458 1.368 . S
C3474 C3470 1.368 . S
C3474 C3473 1.523 . S
H3475 C3450 0.950 . S
H3476 C3452 0.950 . S
H3477 C3453 0.949 . S
H3478 C3455 0.950 . S
H3479 C3457 0.950 . S
C3480 C3481 1.349 . S
C3480 C3482 1.327 . S
C3480 H3505 0.950 . S
C3481 C3480 1.349 . S
C3481 C3497 1.349 . S
C3482 C3480 1.327 . S
C3482 C3501 1.429 . S
C3482 H3506 0.950 . S
C3483 C3500 1.574 . S
C3483 C3502 1.368 . S
C3483 H3507 0.949 . S
H3484 C3488 0.949 . S
C3485 C3486 1.349 . S
C3485 C3487 1.327 . S
C3485 H3508 0.950 . S
C3486 C3485 1.349 . S
C3486 C3498 1.349 . S
C3487 C3485 1.327 . S
C3487 C3503 1.429 . S
C3487 H3509 0.950 . S
C3488 H3484 0.949 . S
C3488 C3496 1.574 . S
C3488 C3504 1.368 . S
H3489 C3497 0.950 . S
H3490 C3495 0.950 . S
H3491 C3496 0.949 . S
H3492 C3498 0.950 . S
H3493 C3499 0.950 . S
H3494 C3500 0.949 . S
C3495 H3490 0.950 . S
C3495 C3497 1.327 . S
C3495 C3501 1.429 . S
C3496 C3488 1.574 . S
C3496 H3491 0.949 . S
C3496 C3502 1.368 . S
C3497 C3481 1.349 . S
C3497 H3489 0.950 . S
C3497 C3495 1.327 . S
C3498 C3486 1.349 . S
C3498 H3492 0.950 . S
C3498 C3499 1.327 . S
C3499 H3493 0.950 . S
C3499 C3498 1.327 . S
C3499 C3503 1.429 . S
C3500 C3483 1.574 . S
C3500 H3494 0.949 . S
C3500 C3504 1.368 . S
C3501 C3482 1.429 . S
C3501 C3495 1.429 . S
C3501 C3502 1.523 . S
C3502 C3483 1.368 . S
C3502 C3496 1.368 . S
C3502 C3501 1.523 . S
C3503 C3487 1.429 . S
C3503 C3499 1.429 . S
C3503 C3504 1.523 . S
C3504 C3488 1.368 . S
C3504 C3500 1.368 . S
C3504 C3503 1.523 . S
H3505 C3480 0.950 . S
H3506 C3482 0.950 . S
H3507 C3483 0.949 . S
H3508 C3485 0.950 . S
H3509 C3487 0.950 . S
C3510 C3511 1.349 . S
C3510 C3512 1.327 . S
C3510 H3535 0.950 . S
C3511 C3510 1.349 . S
C3511 C3527 1.349 . S
C3512 C3510 1.327 . S
C3512 C3531 1.429 . S
C3512 H3536 0.950 . S
C3513 C3530 1.574 . S
C3513 C3532 1.368 . S
C3513 H3537 0.949 . S
H3514 C3518 0.949 . S
C3515 C3516 1.349 . S
C3515 C3517 1.327 . S
C3515 H3538 0.950 . S
C3516 C3515 1.349 . S
C3516 C3528 1.349 . S
C3517 C3515 1.327 . S
C3517 C3533 1.429 . S
C3517 H3539 0.950 . S
C3518 H3514 0.949 . S
C3518 C3526 1.574 . S
C3518 C3534 1.368 . S
H3519 C3527 0.950 . S
H3520 C3525 0.950 . S
H3521 C3526 0.949 . S
H3522 C3528 0.950 . S
H3523 C3529 0.950 . S
H3524 C3530 0.949 . S
C3525 H3520 0.950 . S
C3525 C3527 1.327 . S
C3525 C3531 1.429 . S
C3526 C3518 1.574 . S
C3526 H3521 0.949 . S
C3526 C3532 1.368 . S
C3527 C3511 1.349 . S
C3527 H3519 0.950 . S
C3527 C3525 1.327 . S
C3528 C3516 1.349 . S
C3528 H3522 0.950 . S
C3528 C3529 1.327 . S
C3529 H3523 0.950 . S
C3529 C3528 1.327 . S
C3529 C3533 1.429 . S
C3530 C3513 1.574 . S
C3530 H3524 0.949 . S
C3530 C3534 1.368 . S
C3531 C3512 1.429 . S
C3531 C3525 1.429 . S
C3531 C3532 1.523 . S
C3532 C3513 1.368 . S
C3532 C3526 1.368 . S
C3532 C3531 1.523 . S
C3533 C3517 1.429 . S
C3533 C3529 1.429 . S
C3533 C3534 1.523 . S
C3534 C3518 1.368 . S
C3534 C3530 1.368 . S
C3534 C3533 1.523 . S
H3535 C3510 0.950 . S
H3536 C3512 0.950 . S
H3537 C3513 0.949 . S
H3538 C3515 0.950 . S
H3539 C3517 0.950 . S
C3540 C3541 1.349 . S
C3540 C3542 1.327 . S
C3540 H3565 0.950 . S
C3541 C3540 1.349 . S
C3541 C3557 1.349 . S
C3542 C3540 1.327 . S
C3542 C3561 1.429 . S
C3542 H3566 0.950 . S
C3543 C3560 1.574 . S
C3543 C3562 1.368 . S
C3543 H3567 0.949 . S
H3544 C3548 0.949 . S
C3545 C3546 1.349 . S
C3545 C3547 1.327 . S
C3545 H3568 0.950 . S
C3546 C3545 1.349 . S
C3546 C3558 1.349 . S
C3547 C3545 1.327 . S
C3547 C3563 1.429 . S
C3547 H3569 0.950 . S
C3548 H3544 0.949 . S
C3548 C3556 1.574 . S
C3548 C3564 1.368 . S
H3549 C3557 0.950 . S
H3550 C3555 0.950 . S
H3551 C3556 0.949 . S
H3552 C3558 0.950 . S
H3553 C3559 0.950 . S
H3554 C3560 0.949 . S
C3555 H3550 0.950 . S
C3555 C3557 1.327 . S
C3555 C3561 1.429 . S
C3556 C3548 1.574 . S
C3556 H3551 0.949 . S
C3556 C3562 1.368 . S
C3557 C3541 1.349 . S
C3557 H3549 0.950 . S
C3557 C3555 1.327 . S
C3558 C3546 1.349 . S
C3558 H3552 0.950 . S
C3558 C3559 1.327 . S
C3559 H3553 0.950 . S
C3559 C3558 1.327 . S
C3559 C3563 1.429 . S
C3560 C3543 1.574 . S
C3560 H3554 0.949 . S
C3560 C3564 1.368 . S
C3561 C3542 1.429 . S
C3561 C3555 1.429 . S
C3561 C3562 1.523 . S
C3562 C3543 1.368 . S
C3562 C3556 1.368 . S
C3562 C3561 1.523 . S
C3563 C3547 1.429 . S
C3563 C3559 1.429 . S
C3563 C3564 1.523 . S
C3564 C3548 1.368 . S
C3564 C3560 1.368 . S
C3564 C3563 1.523 . S
H3565 C3540 0.950 . S
H3566 C3542 0.950 . S
H3567 C3543 0.949 . S
H3568 C3545 0.950 . S
H3569 C3547 0.950 . S
C3570 C3571 1.349 . S
C3570 C3572 1.327 . S
C3570 H3595 0.950 . S
C3571 C3570 1.349 . S
C3571 C3587 1.349 . S
C3572 C3570 1.327 . S
C3572 C3591 1.429 . S
C3572 H3596 0.950 . S
C3573 C3590 1.574 . S
C3573 C3592 1.368 . S
C3573 H3597 0.949 . S
H3574 C3578 0.949 . S
C3575 C3576 1.349 . S
C3575 C3577 1.327 . S
C3575 H3598 0.950 . S
C3576 C3575 1.349 . S
C3576 C3588 1.349 . S
C3577 C3575 1.327 . S
C3577 C3593 1.429 . S
C3577 H3599 0.950 . S
C3578 H3574 0.949 . S
C3578 C3586 1.574 . S
C3578 C3594 1.368 . S
H3579 C3587 0.950 . S
H3580 C3585 0.950 . S
H3581 C3586 0.949 . S
H3582 C3588 0.950 . S
H3583 C3589 0.950 . S
H3584 C3590 0.949 . S
C3585 H3580 0.950 . S
C3585 C3587 1.327 . S
C3585 C3591 1.429 . S
C3586 C3578 1.574 . S
C3586 H3581 0.949 . S
C3586 C3592 1.368 . S
C3587 C3571 1.349 . S
C3587 H3579 0.950 . S
C3587 C3585 1.327 . S
C3588 C3576 1.349 . S
C3588 H3582 0.950 . S
C3588 C3589 1.327 . S
C3589 H3583 0.950 . S
C3589 C3588 1.327 . S
C3589 C3593 1.429 . S
C3590 C3573 1.574 . S
C3590 H3584 0.949 . S
C3590 C3594 1.368 . S
C3591 C3572 1.429 . S
C3591 C3585 1.429 . S
C3591 C3592 1.523 . S
C3592 C3573 1.368 . S
C3592 C3586 1.368 . S
C3592 C3591 1.523 . S
C3593 C3577 1.429 . S
C3593 C3589 1.429 . S
C3593 C3594 1.523 . S
C3594 C3578 1.368 . S
C3594 C3590 1.368 . S
C3594 C3593 1.523 . S
H3595 C3570 0.950 . S
H3596 C3572 0.950 . S
H3597 C3573 0.949 . S
H3598 C3575 0.950 . S
H3599 C3577 0.950 . S
C3600 C3601 1.349 . S
C3600 C3602 1.327 . S
C3600 H3625 0.950 . S
C3601 C3600 1.349 . S
C3601 C3617 1.349 . S
C3602 C3600 1.327 . S
C3602 C3621 1.429 . S
C3602 H3626 0.950 . S
C3603 C3620 1.574 . S
C3603 C3622 1.368 . S
C3603 H3627 0.949 . S
H3604 C3608 0.949 . S
C3605 C3606 1.349 . S
C3605 C3607 1.327 . S
C3605 H3628 0.950 . S
C3606 C3605 1.349 . S
C3606 C3618 1.349 . S
C3607 C3605 1.327 . S
C3607 C3623 1.429 . S
C3607 H3629 0.950 . S
C3608 H3604 0.949 . S
C3608 C3616 1.574 . S
C3608 C3624 1.368 . S
H3609 C3617 0.950 . S
H3610 C3615 0.950 . S
H3611 C3616 0.949 . S
H3612 C3618 0.950 . S
H3613 C3619 0.950 . S
H3614 C3620 0.949 . S
C3615 H3610 0.950 . S
C3615 C3617 1.327 . S
C3615 C3621 1.429 . S
C3616 C3608 1.574 . S
C3616 H3611 0.949 . S
C3616 C3622 1.368 . S
C3617 C3601 1.349 . S
C3617 H3609 0.950 . S
C3617 C3615 1.327 . S
C3618 C3606 1.349 . S
C3618 H3612 0.950 . S
C3618 C3619 1.327 . S
C3619 H3613 0.950 . S
C3619 C3618 1.327 . S
C3619 C3623 1.429 . S
C3620 C3603 1.574 . S
C3620 H3614 0.949 . S
C3620 C3624 1.368 . S
C3621 C3602 1.429 . S
C3621 C3615 1.429 . S
C3621 C3622 1.523 . S
C3622 C3603 1.368 . S
C3622 C3616 1.368 . S
C3622 C3621 1.523 . S
C3623 C3607 1.429 . S
C3623 C3619 1.429 . S
C3623 C3624 1.523 . S
C3624 C3608 1.368 . S
C3624 C3620 1.368 . S
C3624 C3623 1.523 . S
H3625 C3600 0.950 . S
H3626 C3602 0.950 . S
H3627 C3603 0.949 . S
H3628 C3605 0.950 . S
H3629 C3607 0.950 . S
C3630 C3631 1.349 . S
C3630 C3632 1.327 . S
C3630 H3655 0.950 . S
C3631 C3630 1.349 . S
C3631 C3647 1.349 . S
C3632 C3630 1.327 . S
C3632 C3651 1.429 . S
C3632 H3656 0.950 . S
C3633 C3650 1.574 . S
C3633 C3652 1.368 . S
C3633 H3657 0.949 . S
H3634 C3638 0.949 . S
C3635 C3636 1.349 . S
C3635 C3637 1.327 . S
C3635 H3658 0.950 . S
C3636 C3635 1.349 . S
C3636 C3648 1.349 . S
C3637 C3635 1.327 . S
C3637 C3653 1.429 . S
C3637 H3659 0.950 . S
C3638 H3634 0.949 . S
C3638 C3646 1.574 . S
C3638 C3654 1.368 . S
H3639 C3647 0.950 . S
H3640 C3645 0.950 . S
H3641 C3646 0.949 . S
H3642 C3648 0.950 . S
H3643 C3649 0.950 . S
H3644 C3650 0.949 . S
C3645 H3640 0.950 . S
C3645 C3647 1.327 . S
C3645 C3651 1.429 . S
C3646 C3638 1.574 . S
C3646 H3641 0.949 . S
C3646 C3652 1.368 . S
C3647 C3631 1.349 . S
C3647 H3639 0.950 . S
C3647 C3645 1.327 . S
C3648 C3636 1.349 . S
C3648 H3642 0.950 . S
C3648 C3649 1.327 . S
C3649 H3643 0.950 . S
C3649 C3648 1.327 . S
C3649 C3653 1.429 . S
C3650 C3633 1.574 . S
C3650 H3644 0.949 . S
C3650 C3654 1.368 . S
C3651 C3632 1.429 . S
C3651 C3645 1.429 . S
C3651 C3652 1.523 . S
C3652 C3633 1.368 . S
C3652 C3646 1.368 . S
C3652 C3651 1.523 . S
C3653 C3637 1.429 . S
C3653 C3649 1.429 . S
C3653 C3654 1.523 . S
C3654 C3638 1.368 . S
C3654 C3650 1.368 . S
C3654 C3653 1.523 . S
H3655 C3630 0.950 . S
H3656 C3632 0.950 . S
H3657 C3633 0.949 . S
H3658 C3635 0.950 . S
H3659 C3637 0.950 . S
C3660 C3661 1.349 . S
C3660 C3662 1.327 . S
C3660 H3685 0.950 . S
C3661 C3660 1.349 . S
C3661 C3677 1.349 . S
C3662 C3660 1.327 . S
C3662 C3681 1.429 . S
C3662 H3686 0.950 . S
C3663 C3680 1.574 . S
C3663 C3682 1.368 . S
C3663 H3687 0.949 . S
H3664 C3668 0.949 . S
C3665 C3666 1.349 . S
C3665 C3667 1.327 . S
C3665 H3688 0.950 . S
C3666 C3665 1.349 . S
C3666 C3678 1.349 . S
C3667 C3665 1.327 . S
C3667 C3683 1.429 . S
C3667 H3689 0.950 . S
C3668 H3664 0.949 . S
C3668 C3676 1.574 . S
C3668 C3684 1.368 . S
H3669 C3677 0.950 . S
H3670 C3675 0.950 . S
H3671 C3676 0.949 . S
H3672 C3678 0.950 . S
H3673 C3679 0.950 . S
H3674 C3680 0.949 . S
C3675 H3670 0.950 . S
C3675 C3677 1.327 . S
C3675 C3681 1.429 . S
C3676 C3668 1.574 . S
C3676 H3671 0.949 . S
C3676 C3682 1.368 . S
C3677 C3661 1.349 . S
C3677 H3669 0.950 . S
C3677 C3675 1.327 . S
C3678 C3666 1.349 . S
C3678 H3672 0.950 . S
C3678 C3679 1.327 . S
C3679 H3673 0.950 . S
C3679 C3678 1.327 . S
C3679 C3683 1.429 . S
C3680 C3663 1.574 . S
C3680 H3674 0.949 . S
C3680 C3684 1.368 . S
C3681 C3662 1.429 . S
C3681 C3675 1.429 . S
C3681 C3682 1.523 . S
C3682 C3663 1.368 . S
C3682 C3676 1.368 . S
C3682 C3681 1.523 . S
C3683 C3667 1.429 . S
C3683 C3679 1.429 . S
C3683 C3684 1.523 . S
C3684 C3668 1.368 . S
C3684 C3680 1.368 . S
C3684 C3683 1.523 . S
H3685 C3660 0.950 . S
H3686 C3662 0.950 . S
H3687 C3663 0.949 . S
H3688 C3665 0.950 . S
H3689 C3667 0.950 . S
C3690 C3691 1.349 . S
C3690 C3692 1.327 . S
C3690 H3715 0.950 . S
C3691 C3690 1.349 . S
C3691 C3707 1.349 . S
C3692 C3690 1.327 . S
C3692 C3711 1.429 . S
C3692 H3716 0.950 . S
C3693 C3710 1.574 . S
C3693 C3712 1.368 . S
C3693 H3717 0.949 . S
H3694 C3698 0.949 . S
C3695 C3696 1.349 . S
C3695 C3697 1.327 . S
C3695 H3718 0.950 . S
C3696 C3695 1.349 . S
C3696 C3708 1.349 . S
C3697 C3695 1.327 . S
C3697 C3713 1.429 . S
C3697 H3719 0.950 . S
C3698 H3694 0.949 . S
C3698 C3706 1.574 . S
C3698 C3714 1.368 . S
H3699 C3707 0.950 . S
H3700 C3705 0.950 . S
H3701 C3706 0.949 . S
H3702 C3708 0.950 . S
H3703 C3709 0.950 . S
H3704 C3710 0.949 . S
C3705 H3700 0.950 . S
C3705 C3707 1.327 . S
C3705 C3711 1.429 . S
C3706 C3698 1.574 . S
C3706 H3701 0.949 . S
C3706 C3712 1.368 . S
C3707 C3691 1.349 . S
C3707 H3699 0.950 . S
C3707 C3705 1.327 . S
C3708 C3696 1.349 . S
C3708 H3702 0.950 . S
C3708 C3709 1.327 . S
C3709 H3703 0.950 . S
C3709 C3708 1.327 . S
C3709 C3713 1.429 . S
C3710 C3693 1.574 . S
C3710 H3704 0.949 . S
C3710 C3714 1.368 . S
C3711 C3692 1.429 . S
C3711 C3705 1.429 . S
C3711 C3712 1.523 . S
C3712 C3693 1.368 . S
C3712 C3706 1.368 . S
C3712 C3711 1.523 . S
C3713 C3697 1.429 . S
C3713 C3709 1.429 . S
C3713 C3714 1.523 . S
C3714 C3698 1.368 . S
C3714 C3710 1.368 . S
C3714 C3713 1.523 . S
H3715 C3690 0.950 . S
H3716 C3692 0.950 . S
H3717 C3693 0.949 . S
H3718 C3695 0.950 . S
H3719 C3697 0.950 . S
C3720 C3721 1.349 . S
C3720 C3722 1.327 . S
C3720 H3745 0.950 . S
C3721 C3720 1.349 . S
C3721 C3737 1.349 . S
C3722 C3720 1.327 . S
C3722 C3741 1.429 . S
C3722 H3746 0.950 . S
C3723 C3740 1.574 . S
C3723 C3742 1.368 . S
C3723 H3747 0.949 . S
H3724 C3728 0.949 . S
C3725 C3726 1.349 . S
C3725 C3727 1.327 . S
C3725 H3748 0.950 . S
C3726 C3725 1.349 . S
C3726 C3738 1.349 . S
C3727 C3725 1.327 . S
C3727 C3743 1.429 . S
C3727 H3749 0.950 . S
C3728 H3724 0.949 . S
C3728 C3736 1.574 . S
C3728 C3744 1.368 . S
H3729 C3737 0.950 . S
H3730 C3735 0.950 . S
H3731 C3736 0.949 . S
H3732 C3738 0.950 . S
H3733 C3739 0.950 . S
H3734 C3740 0.949 . S
C3735 H3730 0.950 . S
C3735 C3737 1.327 . S
C3735 C3741 1.429 . S
C3736 C3728 1.574 . S
C3736 H3731 0.949 . S
C3736 C3742 1.368 . S
C3737 C3721 1.349 . S
C3737 H3729 0.950 . S
C3737 C3735 1.327 . S
C3738 C3726 1.349 . S
C3738 H3732 0.950 . S
C3738 C3739 1.327 . S
C3739 H3733 0.950 . S
C3739 C3738 1.327 . S
C3739 C3743 1.429 . S
C3740 C3723 1.574 . S
C3740 H3734 0.949 . S
C3740 C3744 1.368 . S
C3741 C3722 1.429 . S
C3741 C3735 1.429 . S
C3741 C3742 1.523 . S
C3742 C3723 1.368 . S
C3742 C3736 1.368 . S
C3742 C3741 1.523 . S
C3743 C3727 1.429 . S
C3743 C3739 1.429 . S
C3743 C3744 1.523 . S
C3744 C3728 1.368 . S
C3744 C3740 1.368 . S
C3744 C3743 1.523 . S
H3745 C3720 0.950 . S
H3746 C3722 0.950 . S
H3747 C3723 0.949 . S
H3748 C3725 0.950 . S
H3749 C3727 0.950 . S
C3750 C3751 1.349 . S
C3750 C3752 1.327 . S
C3750 H3775 0.950 . S
C3751 C3750 1.349 . S
C3751 C3767 1.349 . S
C3752 C3750 1.327 . S
C3752 C3771 1.429 . S
C3752 H3776 0.950 . S
C3753 C3770 1.574 . S
C3753 C3772 1.368 . S
C3753 H3777 0.949 . S
H3754 C3758 0.949 . S
C3755 C3756 1.349 . S
C3755 C3757 1.327 . S
C3755 H3778 0.950 . S
C3756 C3755 1.349 . S
C3756 C3768 1.349 . S
C3757 C3755 1.327 . S
C3757 C3773 1.429 . S
C3757 H3779 0.950 . S
C3758 H3754 0.949 . S
C3758 C3766 1.574 . S
C3758 C3774 1.368 . S
H3759 C3767 0.950 . S
H3760 C3765 0.950 . S
H3761 C3766 0.949 . S
H3762 C3768 0.950 . S
H3763 C3769 0.950 . S
H3764 C3770 0.949 . S
C3765 H3760 0.950 . S
C3765 C3767 1.327 . S
C3765 C3771 1.429 . S
C3766 C3758 1.574 . S
C3766 H3761 0.949 . S
C3766 C3772 1.368 . S
C3767 C3751 1.349 . S
C3767 H3759 0.950 . S
C3767 C3765 1.327 . S
C3768 C3756 1.349 . S
C3768 H3762 0.950 . S
C3768 C3769 1.327 . S
C3769 H3763 0.950 . S
C3769 C3768 1.327 . S
C3769 C3773 1.429 . S
C3770 C3753 1.574 . S
C3770 H3764 0.949 . S
C3770 C3774 1.368 . S
C3771 C3752 1.429 . S
C3771 C3765 1.429 . S
C3771 C3772 1.523 . S
C3772 C3753 1.368 . S
C3772 C3766 1.368 . S
C3772 C3771 1.523 . S
C3773 C3757 1.429 . S
C3773 C3769 1.429 . S
C3773 C3774 1.523 . S
C3774 C3758 1.368 . S
C3774 C3770 1.368 . S
C3774 C3773 1.523 . S
H3775 C3750 0.950 . S
H3776 C3752 0.950 . S
H3777 C3753 0.949 . S
H3778 C3755 0.950 . S
H3779 C3757 0.950 . S
C3780 C3781 1.349 . S
C3780 C3782 1.327 . S
C3780 H3805 0.950 . S
C3781 C3780 1.349 . S
C3781 C3797 1.349 . S
C3782 C3780 1.327 . S
C3782 C3801 1.429 . S
C3782 H3806 0.950 . S
C3783 C3800 1.574 . S
C3783 C3802 1.368 . S
C3783 H3807 0.949 . S
H3784 C3788 0.949 . S
C3785 C3786 1.349 . S
C3785 C3787 1.327 . S
C3785 H3808 0.950 . S
C3786 C3785 1.349 . S
C3786 C3798 1.349 . S
C3787 C3785 1.327 . S
C3787 C3803 1.429 . S
C3787 H3809 0.950 . S
C3788 H3784 0.949 . S
C3788 C3796 1.574 . S
C3788 C3804 1.368 . S
H3789 C3797 0.950 . S
H3790 C3795 0.950 . S
H3791 C3796 0.949 . S
H3792 C3798 0.950 . S
H3793 C3799 0.950 . S
H3794 C3800 0.949 . S
C3795 H3790 0.950 . S
C3795 C3797 1.327 . S
C3795 C3801 1.429 . S
C3796 C3788 1.574 . S
C3796 H3791 0.949 . S
C3796 C3802 1.368 . S
C3797 C3781 1.349 . S
C3797 H3789 0.950 . S
C3797 C3795 1.327 . S
C3798 C3786 1.349 . S
C3798 H3792 0.950 . S
C3798 C3799 1.327 . S
C3799 H3793 0.950 . S
C3799 C3798 1.327 . S
C3799 C3803 1.429 . S
C3800 C3783 1.574 . S
C3800 H3794 0.949 . S
C3800 C3804 1.368 . S
C3801 C3782 1.429 . S
C3801 C3795 1.429 . S
C3801 C3802 1.523 . S
C3802 C3783 1.368 . S
C3802 C3796 1.368 . S
C3802 C3801 1.523 . S
C3803 C3787 1.429 . S
C3803 C3799 1.429 . S
C3803 C3804 1.523 . S
C3804 C3788 1.368 . S
C3804 C3800 1.368 . S
C3804 C3803 1.523 . S
H3805 C3780 0.950 . S
H3806 C3782 0.950 . S
H3807 C3783 0.949 . S
H3808 C3785 0.950 . S
H3809 C3787 0.950 . S
C3810 C3811 1.349 . S
C3810 C3812 1.327 . S
C3810 H3835 0.950 . S
C3811 C3810 1.349 . S
C3811 C3827 1.349 . S
C3812 C3810 1.327 . S
C3812 C3831 1.429 . S
C3812 H3836 0.950 . S
C3813 C3830 1.574 . S
C3813 C3832 1.368 . S
C3813 H3837 0.949 . S
H3814 C3818 0.949 . S
C3815 C3816 1.349 . S
C3815 C3817 1.327 . S
C3815 H3838 0.950 . S
C3816 C3815 1.349 . S
C3816 C3828 1.349 . S
C3817 C3815 1.327 . S
C3817 C3833 1.429 . S
C3817 H3839 0.950 . S
C3818 H3814 0.949 . S
C3818 C3826 1.574 . S
C3818 C3834 1.368 . S
H3819 C3827 0.950 . S
H3820 C3825 0.950 . S
H3821 C3826 0.949 . S
H3822 C3828 0.950 . S
H3823 C3829 0.950 . S
H3824 C3830 0.949 . S
C3825 H3820 0.950 . S
C3825 C3827 1.327 . S
C3825 C3831 1.429 . S
C3826 C3818 1.574 . S
C3826 H3821 0.949 . S
C3826 C3832 1.368 . S
C3827 C3811 1.349 . S
C3827 H3819 0.950 . S
C3827 C3825 1.327 . S
C3828 C3816 1.349 . S
C3828 H3822 0.950 . S
C3828 C3829 1.327 . S
C3829 H3823 0.950 . S
C3829 C3828 1.327 . S
C3829 C3833 1.429 . S
C3830 C3813 1.574 . S
C3830 H3824 0.949 . S
C3830 C3834 1.368 . S
C3831 C3812 1.429 . S
C3831 C3825 1.429 . S
C3831 C3832 1.523 . S
C3832 C3813 1.368 . S
C3832 C3826 1.368 . S
C3832 C3831 1.523 . S
C3833 C3817 1.429 . S
C3833 C3829 1.429 . S
C3833 C3834 1.523 . S
C3834 C3818 1.368 . S
C3834 C3830 1.368 . S
C3834 C3833 1.523 . S
H3835 C3810 0.950 . S
H3836 C3812 0.950 . S
H3837 C3813 0.949 . S
H3838 C3815 0.950 . S
H3839 C3817 0.950 . S
C3840 C3841 1.349 . S
C3840 C3842 1.327 . S
C3840 H3865 0.950 . S
C3841 C3840 1.349 . S
C3841 C3857 1.349 . S
C3842 C3840 1.327 . S
C3842 C3861 1.429 . S
C3842 H3866 0.950 . S
C3843 C3860 1.574 . S
C3843 C3862 1.368 . S
C3843 H3867 0.949 . S
H3844 C3848 0.949 . S
C3845 C3846 1.349 . S
C3845 C3847 1.327 . S
C3845 H3868 0.950 . S
C3846 C3845 1.349 . S
C3846 C3858 1.349 . S
C3847 C3845 1.327 . S
C3847 C3863 1.429 . S
C3847 H3869 0.950 . S
C3848 H3844 0.949 . S
C3848 C3856 1.574 . S
C3848 C3864 1.368 . S
H3849 C3857 0.950 . S
H3850 C3855 0.950 . S
H3851 C3856 0.949 . S
H3852 C3858 0.950 . S
H3853 C3859 0.950 . S
H3854 C3860 0.949 . S
C3855 H3850 0.950 . S
C3855 C3857 1.327 . S
C3855 C3861 1.429 . S
C3856 C3848 1.574 . S
C3856 H3851 0.949 . S
C3856 C3862 1.368 . S
C3857 C3841 1.349 . S
C3857 H3849 0.950 . S
C3857 C3855 1.327 . S
C3858 C3846 1.349 . S
C3858 H3852 0.950 . S
C3858 C3859 1.327 . S
C3859 H3853 0.950 . S
C3859 C3858 1.327 . S
C3859 C3863 1.429 . S
C3860 C3843 1.574 . S
C3860 H3854 0.949 . S
C3860 C3864 1.368 . S
C3861 C3842 1.429 . S
C3861 C3855 1.429 . S
C3861 C3862 1.523 . S
C3862 C3843 1.368 . S
C3862 C3856 1.368 . S
C3862 C3861 1.523 . S
C3863 C3847 1.429 . S
C3863 C3859 1.429 . S
C3863 C3864 1.523 . S
C3864 C3848 1.368 . S
C3864 C3860 1.368 . S
C3864 C3863 1.523 . S
H3865 C3840 0.950 . S
H3866 C3842 0.950 . S
H3867 C3843 0.949 . S
H3868 C3845 0.950 . S
H3869 C3847 0.950 . S
C3870 C3871 1.349 . S
C3870 C3872 1.327 . S
C3870 H3895 0.950 . S
C3871 C3870 1.349 . S
C3871 C3887 1.349 . S
C3872 C3870 1.327 . S
C3872 C3891 1.429 . S
C3872 H3896 0.950 . S
C3873 C3890 1.574 . S
C3873 C3892 1.368 . S
C3873 H3897 0.949 . S
H3874 C3878 0.949 . S
C3875 C3876 1.349 . S
C3875 C3877 1.327 . S
C3875 H3898 0.950 . S
C3876 C3875 1.349 . S
C3876 C3888 1.349 . S
C3877 C3875 1.327 . S
C3877 C3893 1.429 . S
C3877 H3899 0.950 . S
C3878 H3874 0.949 . S
C3878 C3886 1.574 . S
C3878 C3894 1.368 . S
H3879 C3887 0.950 . S
H3880 C3885 0.950 . S
H3881 C3886 0.949 . S
H3882 C3888 0.950 . S
H3883 C3889 0.950 . S
H3884 C3890 0.949 . S
C3885 H3880 0.950 . S
C3885 C3887 1.327 . S
C3885 C3891 1.429 . S
C3886 C3878 1.574 . S
C3886 H3881 0.949 . S
C3886 C3892 1.368 . S
C3887 C3871 1.349 . S
C3887 H3879 0.950 . S
C3887 C3885 1.327 . S
C3888 C3876 1.349 . S
C3888 H3882 0.950 . S
C3888 C3889 1.327 . S
C3889 H3883 0.950 . S
C3889 C3888 1.327 . S
C3889 C3893 1.429 . S
C3890 C3873 1.574 . S
C3890 H3884 0.949 . S
C3890 C3894 1.368 . S
C3891 C3872 1.429 . S
C3891 C3885 1.429 . S
C3891 C3892 1.523 . S
C3892 C3873 1.368 . S
C3892 C3886 1.368 . S
C3892 C3891 1.523 . S
C3893 C3877 1.429 . S
C3893 C3889 1.429 . S
C3893 C3894 1.523 . S
C3894 C3878 1.368 . S
C3894 C3890 1.368 . S
C3894 C3893 1.523 . S
H3895 C3870 0.950 . S
H3896 C3872 0.950 . S
H3897 C3873 0.949 . S
H3898 C3875 0.950 . S
H3899 C3877 0.950 . S
C3900 C3901 1.349 . S
C3900 C3902 1.327 . S
C3900 H3925 0.950 . S
C3901 C3900 1.349 . S
C3901 C3917 1.349 . S
C3902 C3900 1.327 . S
C3902 C3921 1.429 . S
C3902 H3926 0.950 . S
C3903 C3920 1.574 . S
C3903 C3922 1.368 . S
C3903 H3927 0.949 . S
H3904 C3908 0.949 . S
C3905 C3906 1.349 . S
C3905 C3907 1.327 . S
C3905 H3928 0.950 . S
C3906 C3905 1.349 . S
C3906 C3918 1.349 . S
C3907 C3905 1.327 . S
C3907 C3923 1.429 . S
C3907 H3929 0.950 . S
C3908 H3904 0.949 . S
C3908 C3916 1.574 . S
C3908 C3924 1.368 . S
H3909 C3917 0.950 . S
H3910 C3915 0.950 . S
H3911 C3916 0.949 . S
H3912 C3918 0.950 . S
H3913 C3919 0.950 . S
H3914 C3920 0.949 . S
C3915 H3910 0.950 . S
C3915 C3917 1.327 . S
C3915 C3921 1.429 . S
C3916 C3908 1.574 . S
C3916 H3911 0.949 . S
C3916 C3922 1.368 . S
C3917 C3901 1.349 . S
C3917 H3909 0.950 . S
C3917 C3915 1.327 . S
C3918 C3906 1.349 . S
C3918 H3912 0.950 . S
C3918 C3919 1.327 . S
C3919 H3913 0.950 . S
C3919 C3918 1.327 . S
C3919 C3923 1.429 . S
C3920 C3903 1.574 . S
C3920 H3914 0.949 . S
C3920 C3924 1.368 . S
C3921 C3902 1.429 . S
C3921 C3915 1.429 . S
C3921 C3922 1.523 . S
C3922 C3903 1.368 . S
C3922 C3916 1.368 . S
C3922 C3921 1.523 . S
C3923 C3907 1.429 . S
C3923 C3919 1.429 . S
C3923 C3924 1.523 . S
C3924 C3908 1.368 . S
C3924 C3920 1.368 . S
C3924 C3923 1.523 . S
H3925 C3900 0.950 . S
H3926 C3902 0.950 . S
H3927 C3903 0.949 . S
H3928 C3905 0.950 . S
H3929 C3907 0.950 . S
C3930 C3931 1.349 . S
C3930 C3932 1.327 . S
C3930 H3955 0.950 . S
C3931 C3930 1.349 . S
C3931 C3947 1.349 . S
C3932 C3930 1.327 . S
C3932 C3951 1.429 . S
C3932 H3956 0.950 . S
C3933 C3950 1.574 . S
C3933 C3952 1.368 . S
C3933 H3957 0.949 . S
H3934 C3938 0.949 . S
C3935 C3936 1.349 . S
C3935 C3937 1.327 . S
C3935 H3958 0.950 . S
C3936 C3935 1.349 . S
C3936 C3948 1.349 . S
C3937 C3935 1.327 . S
C3937 C3953 1.429 . S
C3937 H3959 0.950 . S
C3938 H3934 0.949 . S
C3938 C3946 1.574 . S
C3938 C3954 1.368 . S
H3939 C3947 0.950 . S
H3940 C3945 0.950 . S
H3941 C3946 0.949 . S
H3942 C3948 0.950 . S
H3943 C3949 0.950 . S
H3944 C3950 0.949 . S
C3945 H3940 0.950 . S
C3945 C3947 1.327 . S
C3945 C3951 1.429 . S
C3946 C3938 1.574 . S
C3946 H3941 0.949 . S
C3946 C3952 1.368 . S
C3947 C3931 1.349 . S
C3947 H3939 0.950 . S
C3947 C3945 1.327 . S
C3948 C3936 1.349 . S
C3948 H3942 0.950 . S
C3948 C3949 1.327 . S
C3949 H3943 0.950 . S
C3949 C3948 1.327 . S
C3949 C3953 1.429 . S
C3950 C3933 1.574 . S
C3950 H3944 0.949 . S
C3950 C3954 1.368 . S
C3951 C3932 1.429 . S
C3951 C3945 1.429 . S
C3951 C3952 1.523 . S
C3952 C3933 1.368 . S
C3952 C3946 1.368 . S
C3952 C3951 1.523 . S
C3953 C3937 1.429 . S
C3953 C3949 1.429 . S
C3953 C3954 1.523 . S
C3954 C3938 1.368 . S
C3954 C3950 1.368 . S
C3954 C3953 1.523 . S
H3955 C3930 0.950 . S
H3956 C3932 0.950 . S
H3957 C3933 0.949 . S
H3958 C3935 0.950 . S
H3959 C3937 0.950 . S
C3960 C3961 1.349 . S
C3960 C3962 1.327 . S
C3960 H3985 0.950 . S
C3961 C3960 1.349 . S
C3961 C3977 1.349 . S
C3962 C3960 1.327 . S
C3962 C3981 1.429 . S
C3962 H3986 0.950 . S
C3963 C3980 1.574 . S
C3963 C3982 1.368 . S
C3963 H3987 0.949 . S
H3964 C3968 0.949 . S
C3965 C3966 1.349 . S
C3965 C3967 1.327 . S
C3965 H3988 0.950 . S
C3966 C3965 1.349 . S
C3966 C3978 1.349 . S
C3967 C3965 1.327 . S
C3967 C3983 1.429 . S
C3967 H3989 0.950 . S
C3968 H3964 0.949 . S
C3968 C3976 1.574 . S
C3968 C3984 1.368 . S
H3969 C3977 0.950 . S
H3970 C3975 0.950 . S
H3971 C3976 0.949 . S
H3972 C3978 0.950 . S
H3973 C3979 0.950 . S
H3974 C3980 0.949 . S
C3975 H3970 0.950 . S
C3975 C3977 1.327 . S
C3975 C3981 1.429 . S
C3976 C3968 1.574 . S
C3976 H3971 0.949 . S
C3976 C3982 1.368 . S
C3977 C3961 1.349 . S
C3977 H3969 0.950 . S
C3977 C3975 1.327 . S
C3978 C3966 1.349 . S
C3978 H3972 0.950 . S
C3978 C3979 1.327 . S
C3979 H3973 0.950 . S
C3979 C3978 1.327 . S
C3979 C3983 1.429 . S
C3980 C3963 1.574 . S
C3980 H3974 0.949 . S
C3980 C3984 1.368 . S
C3981 C3962 1.429 . S
C3981 C3975 1.429 . S
C3981 C3982 1.523 . S
C3982 C3963 1.368 . S
C3982 C3976 1.368 . S
C3982 C3981 1.523 . S
C3983 C3967 1.429 . S
C3983 C3979 1.429 . S
C3983 C3984 1.523 . S
C3984 C3968 1.368 . S
C3984 C3980 1.368 . S
C3984 C3983 1.523 . S
H3985 C3960 0.950 . S
H3986 C3962 0.950 . S
H3987 C3963 0.949 . S
H3988 C3965 0.950 . S
H3989 C3967 0.950 . S
C3990 C3991 1.349 . S
C3990 C3992 1.327 . S
C3990 H4015 0.950 . S
C3991 C3990 1.349 . S
C3991 C4007 1.349 . S
C3992 C3990 1.327 . S
C3992 C4011 1.429 . S
C3992 H4016 0.950 . S
C3993 C4010 1.574 . S
C3993 C4012 1.368 . S
C3993 H4017 0.949 . S
H3994 C3998 0.949 . S
C3995 C3996 1.349 . S
C3995 C3997 1.327 . S
C3995 H4018 0.950 . S
C3996 C3995 1.349 . S
C3996 C4008 1.349 . S
C3997 C3995 1.327 . S
C3997 C4013 1.429 . S
C3997 H4019 0.950 . S
C3998 H3994 0.949 . S
C3998 C4006 1.574 . S
C3998 C4014 1.368 . S
H3999 C4007 0.950 . S
H4000 C4005 0.950 . S
H4001 C4006 0.949 . S
H4002 C4008 0.950 . S
H4003 C4009 0.950 . S
H4004 C4010 0.949 . S
C4005 H4000 0.950 . S
C4005 C4007 1.327 . S
C4005 C4011 1.429 . S
C4006 C3998 1.574 . S
C4006 H4001 0.949 . S
C4006 C4012 1.368 . S
C4007 C3991 1.349 . S
C4007 H3999 0.950 . S
C4007 C4005 1.327 . S
C4008 C3996 1.349 . S
C4008 H4002 0.950 . S
C4008 C4009 1.327 . S
C4009 H4003 0.950 . S
C4009 C4008 1.327 . S
C4009 C4013 1.429 . S
C4010 C3993 1.574 . S
C4010 H4004 0.949 . S
C4010 C4014 1.368 . S
C4011 C3992 1.429 . S
C4011 C4005 1.429 . S
C4011 C4012 1.523 . S
C4012 C3993 1.368 . S
C4012 C4006 1.368 . S
C4012 C4011 1.523 . S
C4013 C3997 1.429 . S
C4013 C4009 1.429 . S
C4013 C4014 1.523 . S
C4014 C3998 1.368 . S
C4014 C4010 1.368 . S
C4014 C4013 1.523 . S
H4015 C3990 0.950 . S
H4016 C3992 0.950 . S
H4017 C3993 0.949 . S
H4018 C3995 0.950 . S
H4019 C3997 0.950 . S
C4020 C4021 1.349 . S
C4020 C4022 1.327 . S
C4020 H4045 0.950 . S
C4021 C4020 1.349 . S
C4021 C4037 1.349 . S
C4022 C4020 1.327 . S
C4022 C4041 1.429 . S
C4022 H4046 0.950 . S
C4023 C4040 1.574 . S
C4023 C4042 1.368 . S
C4023 H4047 0.949 . S
H4024 C4028 0.949 . S
C4025 C4026 1.349 . S
C4025 C4027 1.327 . S
C4025 H4048 0.950 . S
C4026 C4025 1.349 . S
C4026 C4038 1.349 . S
C4027 C4025 1.327 . S
C4027 C4043 1.429 . S
C4027 H4049 0.950 . S
C4028 H4024 0.949 . S
C4028 C4036 1.574 . S
C4028 C4044 1.368 . S
H4029 C4037 0.950 . S
H4030 C4035 0.950 . S
H4031 C4036 0.949 . S
H4032 C4038 0.950 . S
H4033 C4039 0.950 . S
H4034 C4040 0.949 . S
C4035 H4030 0.950 . S
C4035 C4037 1.327 . S
C4035 C4041 1.429 . S
C4036 C4028 1.574 . S
C4036 H4031 0.949 . S
C4036 C4042 1.368 . S
C4037 C4021 1.349 . S
C4037 H4029 0.950 . S
C4037 C4035 1.327 . S
C4038 C4026 1.349 . S
C4038 H4032 0.950 . S
C4038 C4039 1.327 . S
C4039 H4033 0.950 . S
C4039 C4038 1.327 . S
C4039 C4043 1.429 . S
C4040 C4023 1.574 . S
C4040 H4034 0.949 . S
C4040 C4044 1.368 . S
C4041 C4022 1.429 . S
C4041 C4035 1.429 . S
C4041 C4042 1.523 . S
C4042 C4023 1.368 . S
C4042 C4036 1.368 . S
C4042 C4041 1.523 . S
C4043 C4027 1.429 . S
C4043 C4039 1.429 . S
C4043 C4044 1.523 . S
C4044 C4028 1.368 . S
C4044 C4040 1.368 . S
C4044 C4043 1.523 . S
H4045 C4020 0.950 . S
H4046 C4022 0.950 . S
H4047 C4023 0.949 . S
H4048 C4025 0.950 . S
H4049 C4027 0.950 . S
C4050 C4051 1.349 . S
C4050 C4052 1.327 . S
C4050 H4075 0.950 . S
C4051 C4050 1.349 . S
C4051 C4067 1.349 . S
C4052 C4050 1.327 . S
C4052 C4071 1.429 . S
C4052 H4076 0.950 . S
C4053 C4070 1.574 . S
C4053 C4072 1.368 . S
C4053 H4077 0.949 . S
H4054 C4058 0.949 . S
C4055 C4056 1.349 . S
C4055 C4057 1.327 . S
C4055 H4078 0.950 . S
C4056 C4055 1.349 . S
C4056 C4068 1.349 . S
C4057 C4055 1.327 . S
C4057 C4073 1.429 . S
C4057 H4079 0.950 . S
C4058 H4054 0.949 . S
C4058 C4066 1.574 . S
C4058 C4074 1.368 . S
H4059 C4067 0.950 . S
H4060 C4065 0.950 . S
H4061 C4066 0.949 . S
H4062 C4068 0.950 . S
H4063 C4069 0.950 . S
H4064 C4070 0.949 . S
C4065 H4060 0.950 . S
C4065 C4067 1.327 . S
C4065 C4071 1.429 . S
C4066 C4058 1.574 . S
C4066 H4061 0.949 . S
C4066 C4072 1.368 . S
C4067 C4051 1.349 . S
C4067 H4059 0.950 . S
C4067 C4065 1.327 . S
C4068 C4056 1.349 . S
C4068 H4062 0.950 . S
C4068 C4069 1.327 . S
C4069 H4063 0.950 . S
C4069 C4068 1.327 . S
C4069 C4073 1.429 . S
C4070 C4053 1.574 . S
C4070 H4064 0.949 . S
C4070 C4074 1.368 . S
C4071 C4052 1.429 . S
C4071 C4065 1.429 . S
C4071 C4072 1.523 . S
C4072 C4053 1.368 . S
C4072 C4066 1.368 . S
C4072 C4071 1.523 . S
C4073 C4057 1.429 . S
C4073 C4069 1.429 . S
C4073 C4074 1.523 . S
C4074 C4058 1.368 . S
C4074 C4070 1.368 . S
C4074 C4073 1.523 . S
H4075 C4050 0.950 . S
H4076 C4052 0.950 . S
H4077 C4053 0.949 . S
H4078 C4055 0.950 . S
H4079 C4057 0.950 . S
C1921 C181 1.940 . S
C1926 C21 1.940 . S
C1951 C221 1.940 . S
C1956 C61 1.940 . S
C1981 C261 1.940 . S
C1986 C101 1.940 . S
C2011 C141 1.940 . S
C2016 C301 1.940 . S
C2041 C581 1.940 . S
C2046 C341 1.940 . S
C2071 C621 1.940 . S
C2076 C381 1.940 . S
C2101 C421 1.940 . S
C2106 C501 1.940 . S
C2131 C541 1.940 . S
C2136 C461 1.940 . S
C2161 C861 1.940 . S
C2166 C661 1.940 . S
C2191 C781 1.940 . S
C2196 C701 1.940 . S
C2221 C741 1.940 . S
C2226 C821 1.940 . S
C2251 C941 1.940 . S
C2256 C901 1.940 . S
C2281 C981 2.048 . S
C2286 C1141 2.048 . S
C2311 C1021 2.048 . S
C2316 C1181 2.048 . S
C2341 C1221 2.048 . S
C2346 C1061 2.048 . S
C2371 C1101 2.048 . S
C2376 C1261 2.048 . S
C2401 C1541 2.048 . S
C2406 C1301 2.048 . S
C2431 C1581 2.048 . S
C2436 C1341 2.048 . S
C2461 C1381 2.048 . S
C2466 C1461 2.048 . S
C2491 C1421 2.048 . S
C2496 C1501 2.048 . S
C2521 C1621 2.048 . S
C2526 C1821 2.048 . S
C2551 C1741 2.048 . S
C2556 C1661 2.048 . S
C2581 C1701 2.048 . S
C2586 C1781 2.048 . S
C2611 C1901 2.048 . S
C2616 C1861 2.048 . S
C2641 C2 1.732 . S
C2646 C362 1.732 . S
C2671 C42 1.732 . S
C2676 C402 1.732 . S
C2701 C442 1.732 . S
C2706 C82 1.732 . S
C2731 C122 1.732 . S
C2736 C322 1.732 . S
C2761 C602 1.732 . S
C2766 C162 1.732 . S
C2791 C482 1.732 . S
C2796 C202 1.732 . S
C2821 C242 1.732 . S
C2826 C522 1.732 . S
C2851 C562 1.732 . S
C2856 C282 1.732 . S
C2881 C642 1.732 . S
C2886 C722 1.732 . S
C2911 C682 1.732 . S
C2916 C882 1.732 . S
C2941 C762 1.732 . S
C2946 C922 1.732 . S
C2971 C802 1.732 . S
C2976 C842 1.732 . S
C3001 C962 1.824 . S
C3006 C1322 1.824 . S
C3031 C1362 1.824 . S
C3036 C1002 1.824 . S
C3061 C1042 1.824 . S
C3066 C1402 1.824 . S
C3091 C1282 1.824 . S
C3096 C1082 1.824 . S
C3121 C1122 1.824 . S
C3126 C1562 1.824 . S
C3151 C1442 1.824 . S
C3156 C1162 1.824 . S
C3181 C1202 1.824 . S
C3186 C1482 1.824 . S
C3211 C1242 1.824 . S
C3216 C1522 1.824 . S
C3241 C1682 1.824 . S
C3246 C1602 1.824 . S
C3271 C1842 1.824 . S
C3276 C1642 1.824 . S
C3301 C1722 1.824 . S
C3306 C1882 1.824 . S
C3331 C1762 1.824 . S
C3336 C1802 1.824 . S
C3361 C15 1.513 . S
C3366 C1255 1.517 . S
C3391 C1135 1.517 . S
C3396 C55 1.513 . S
C3421 C1175 1.517 . S
C3426 C95 1.513 . S
C3451 C1215 1.517 . S
C3456 C135 1.513 . S
C3481 C1015 1.517 . S
C3486 C175 1.513 . S
C3511 C215 1.513 . S
C3516 C1055 1.517 . S
C3541 C255 1.513 . S
C3546 C1095 1.517 . S
C3571 C295 1.513 . S
C3576 C975 1.517 . S
C3601 C335 1.513 . S
C3606 C1775 1.517 . S
C3631 C1655 1.517 . S
C3636 C375 1.513 . S
C3661 C415 1.513 . S
C3666 C1695 1.517 . S
C3691 C455 1.513 . S
C3696 C1735 1.517 . S
C3721 C1895 1.517 . S
C3726 C495 1.513 . S
C3751 C535 1.513 . S
C3756 C1815 1.517 . S
C3781 C575 1.513 . S
C3786 C1855 1.517 . S
C3811 C1615 1.517 . S
C3816 C615 1.513 . S
C3841 C1575 1.517 . S
C3846 C655 1.513 . S
C3871 C1335 1.517 . S
C3876 C695 1.513 . S
C3901 C1375 1.517 . S
C3906 C735 1.513 . S
C3931 C1415 1.517 . S
C3936 C775 1.513 . S
C3961 C1295 1.517 . S
C3966 C815 1.513 . S
C3991 C855 1.513 . S
C3996 C1495 1.517 . S
C4021 C895 1.513 . S
C4026 C1535 1.517 . S
C4051 C1455 1.517 . S
C4056 C935 1.513 . S
