# Generated by pormake.
# Topology bcs, (6)-cn, num edge types: 1
# Building blocks:
#     Node 0, Type 0, BuildingBlock: CUWYAW_clean_sbu_0, # of connection points: 6
#     Node 1, Type 0, BuildingBlock: CUWYAW_clean_sbu_0, # of connection points: 6
#     Node 2, Type 0, BuildingBlock: CUWYAW_clean_sbu_0, # of connection points: 6
#     Node 3, Type 0, BuildingBlock: CUWYAW_clean_sbu_0, # of connection points: 6
#     Node 4, Type 0, BuildingBlock: CUWYAW_clean_sbu_0, # of connection points: 6
#     Node 5, Type 0, BuildingBlock: CUWYAW_clean_sbu_0, # of connection points: 6
#     Node 6, Type 0, BuildingBlock: CUWYAW_clean_sbu_0, # of connection points: 6
#     Node 7, Type 0, BuildingBlock: CUWYAW_clean_sbu_0, # of connection points: 6
#     Node 8, Type 0, BuildingBlock: CUWYAW_clean_sbu_0, # of connection points: 6
#     Node 9, Type 0, BuildingBlock: CUWYAW_clean_sbu_0, # of connection points: 6
#     Node 10, Type 0, BuildingBlock: CUWYAW_clean_sbu_0, # of connection points: 6
#     Node 11, Type 0, BuildingBlock: CUWYAW_clean_sbu_0, # of connection points: 6
#     Node 12, Type 0, BuildingBlock: CUWYAW_clean_sbu_0, # of connection points: 6
#     Node 13, Type 0, BuildingBlock: CUWYAW_clean_sbu_0, # of connection points: 6
#     Node 14, Type 0, BuildingBlock: CUWYAW_clean_sbu_0, # of connection points: 6
#     Node 15, Type 0, BuildingBlock: CUWYAW_clean_sbu_0, # of connection points: 6
#     Edge 16, Type (0, 0), BuildingBlock: EZIPEK_clean_linker_0, # of connection points: 2
#     Edge 17, Type (0, 0), BuildingBlock: EZIPEK_clean_linker_0, # of connection points: 2
#     Edge 18, Type (0, 0), BuildingBlock: EZIPEK_clean_linker_0, # of connection points: 2
#     Edge 19, Type (0, 0), BuildingBlock: EZIPEK_clean_linker_0, # of connection points: 2
#     Edge 20, Type (0, 0), BuildingBlock: EZIPEK_clean_linker_0, # of connection points: 2
#     Edge 21, Type (0, 0), BuildingBlock: EZIPEK_clean_linker_0, # of connection points: 2
#     Edge 22, Type (0, 0), BuildingBlock: EZIPEK_clean_linker_0, # of connection points: 2
#     Edge 23, Type (0, 0), BuildingBlock: EZIPEK_clean_linker_0, # of connection points: 2
#     Edge 24, Type (0, 0), BuildingBlock: EZIPEK_clean_linker_0, # of connection points: 2
#     Edge 25, Type (0, 0), BuildingBlock: EZIPEK_clean_linker_0, # of connection points: 2
#     Edge 26, Type (0, 0), BuildingBlock: EZIPEK_clean_linker_0, # of connection points: 2
#     Edge 27, Type (0, 0), BuildingBlock: EZIPEK_clean_linker_0, # of connection points: 2
#     Edge 28, Type (0, 0), BuildingBlock: EZIPEK_clean_linker_0, # of connection points: 2
#     Edge 29, Type (0, 0), BuildingBlock: EZIPEK_clean_linker_0, # of connection points: 2
#     Edge 30, Type (0, 0), BuildingBlock: EZIPEK_clean_linker_0, # of connection points: 2
#     Edge 31, Type (0, 0), BuildingBlock: EZIPEK_clean_linker_0, # of connection points: 2
#     Edge 32, Type (0, 0), BuildingBlock: EZIPEK_clean_linker_0, # of connection points: 2
#     Edge 33, Type (0, 0), BuildingBlock: EZIPEK_clean_linker_0, # of connection points: 2
#     Edge 34, Type (0, 0), BuildingBlock: EZIPEK_clean_linker_0, # of connection points: 2
#     Edge 35, Type (0, 0), BuildingBlock: EZIPEK_clean_linker_0, # of connection points: 2
#     Edge 36, Type (0, 0), BuildingBlock: EZIPEK_clean_linker_0, # of connection points: 2
#     Edge 37, Type (0, 0), BuildingBlock: EZIPEK_clean_linker_0, # of connection points: 2
#     Edge 38, Type (0, 0), BuildingBlock: EZIPEK_clean_linker_0, # of connection points: 2
#     Edge 39, Type (0, 0), BuildingBlock: EZIPEK_clean_linker_0, # of connection points: 2
#     Edge 40, Type (0, 0), BuildingBlock: EZIPEK_clean_linker_0, # of connection points: 2
#     Edge 41, Type (0, 0), BuildingBlock: EZIPEK_clean_linker_0, # of connection points: 2
#     Edge 42, Type (0, 0), BuildingBlock: EZIPEK_clean_linker_0, # of connection points: 2
#     Edge 43, Type (0, 0), BuildingBlock: EZIPEK_clean_linker_0, # of connection points: 2
#     Edge 44, Type (0, 0), BuildingBlock: EZIPEK_clean_linker_0, # of connection points: 2
#     Edge 45, Type (0, 0), BuildingBlock: EZIPEK_clean_linker_0, # of connection points: 2
#     Edge 46, Type (0, 0), BuildingBlock: EZIPEK_clean_linker_0, # of connection points: 2
#     Edge 47, Type (0, 0), BuildingBlock: EZIPEK_clean_linker_0, # of connection points: 2
#     Edge 48, Type (0, 0), BuildingBlock: EZIPEK_clean_linker_0, # of connection points: 2
#     Edge 49, Type (0, 0), BuildingBlock: EZIPEK_clean_linker_0, # of connection points: 2
#     Edge 50, Type (0, 0), BuildingBlock: EZIPEK_clean_linker_0, # of connection points: 2
#     Edge 51, Type (0, 0), BuildingBlock: EZIPEK_clean_linker_0, # of connection points: 2
#     Edge 52, Type (0, 0), BuildingBlock: EZIPEK_clean_linker_0, # of connection points: 2
#     Edge 53, Type (0, 0), BuildingBlock: EZIPEK_clean_linker_0, # of connection points: 2
#     Edge 54, Type (0, 0), BuildingBlock: EZIPEK_clean_linker_0, # of connection points: 2
#     Edge 55, Type (0, 0), BuildingBlock: EZIPEK_clean_linker_0, # of connection points: 2
#     Edge 56, Type (0, 0), BuildingBlock: EZIPEK_clean_linker_0, # of connection points: 2
#     Edge 57, Type (0, 0), BuildingBlock: EZIPEK_clean_linker_0, # of connection points: 2
#     Edge 58, Type (0, 0), BuildingBlock: EZIPEK_clean_linker_0, # of connection points: 2
#     Edge 59, Type (0, 0), BuildingBlock: EZIPEK_clean_linker_0, # of connection points: 2
#     Edge 60, Type (0, 0), BuildingBlock: EZIPEK_clean_linker_0, # of connection points: 2
#     Edge 61, Type (0, 0), BuildingBlock: EZIPEK_clean_linker_0, # of connection points: 2
#     Edge 62, Type (0, 0), BuildingBlock: EZIPEK_clean_linker_0, # of connection points: 2
#     Edge 63, Type (0, 0), BuildingBlock: EZIPEK_clean_linker_0, # of connection points: 2
# Relax obj value: 0.371
# Max RMSD: 0.243
# Mean RMSD: 0.175
data_MOF--net-bcs--node1-CUWYAW_clean_sbu_0--edge1-EZIPEK_clean_linker_0
_symmetry_space_group_name_H-M    P1
_symmetry_Int_Tables_number       1
_symmetry_cell_setting            triclinic
loop_
_symmetry_equiv_pos_as_xyz
'x, y, z'
_cell_length_a     33.505251
_cell_length_b     32.91727
_cell_length_c     31.666394
_cell_angle_alpha  78.807917
_cell_angle_beta   118.22571
_cell_angle_gamma 110.43137
loop_
_atom_site_label
_atom_site_type_symbol
_atom_site_fract_x
_atom_site_fract_y
_atom_site_fract_z
_atom_type_partial_charge
C0 C 1.04963 0.09178 0.08816 0.0
Eu1 Eu 0.07666 0.04762 0.04292 0.0
C2 C 1.02533 0.11351 0.11067 0.0
C3 C 1.04923 0.14767 0.1449 0.0
C4 C 1.02573 0.16642 0.16284 0.0
C5 C 0.97514 0.15351 0.14939 0.0
C6 C 0.95162 0.11922 0.11543 0.0
C7 C 0.97492 0.1008 0.09724 0.0
C8 C 0.12252 0.10425 0.95944 0.0
C9 C 1.00058 0.07507 0.93844 0.0
C10 C 0.08816 0.95554 0.94135 0.0
Eu11 Eu 1.06435 1.0008 0.98886 0.0
C12 C 0.11035 0.93373 0.91662 0.0
C13 C 0.08625 0.89599 0.88716 0.0
C14 C 0.10823 0.87697 0.86768 0.0
C15 C 0.15711 0.89329 0.87444 0.0
C16 C 0.1808 0.93114 0.90356 0.0
C17 C 0.15912 0.94977 0.92347 0.0
C18 C 0.98888 0.9565 0.04904 0.0
C19 C 0.14301 0.97588 0.09293 0.0
O20 O 1.02258 0.06526 0.05255 0.0
O21 O 0.0947 0.09495 0.10044 0.0
O22 O 0.12295 0.07336 0.99543 0.0
O23 O 0.12132 0.07322 0.99572 0.0
O24 O 1.02343 0.08225 0.98437 0.0
O25 O 1.00989 0.04188 0.9281 0.0
O26 O 0.11632 0.9842 0.97451 0.0
O27 O 1.04375 0.9509 0.9327 0.0
O28 O 1.03289 0.97058 0.04956 0.0
O29 O 1.03214 0.9715 0.04719 0.0
O30 O 0.12284 0.97047 0.04646 0.0
O31 O 0.13059 1.00651 0.10403 0.0
H32 H 0.08735 0.1608 0.15837 0.0
H33 H 1.04844 0.19182 0.18845 0.0
H34 H 0.91355 0.10598 0.10188 0.0
H35 H 0.95209 0.07545 0.07157 0.0
H36 H 1.0493 0.88009 0.87902 0.0
H37 H 0.08574 0.84854 0.84637 0.0
H38 H 0.21769 0.94713 0.91172 0.0
H39 H 0.18185 0.97801 0.94506 0.0
C40 C 0.36367 0.80908 0.1592 0.0
Eu41 Eu 0.34211 0.78407 0.23035 0.0
C42 C 0.36009 0.84909 0.13052 0.0
C43 C 0.34794 0.85046 0.08182 0.0
C44 C 0.34609 0.88944 0.05543 0.0
C45 C 0.35683 0.92791 0.07771 0.0
C46 C 0.36276 0.9242 0.12516 0.0
C47 C 0.36557 0.88557 0.15152 0.0
C48 C 0.26784 0.71191 0.21991 0.0
C49 C 0.27044 0.8476 0.21258 0.0
C50 C 0.30406 0.75864 0.37274 0.0
Eu51 Eu 0.32202 0.78207 0.29917 0.0
C52 C 0.29189 0.71407 0.39021 0.0
C53 C 0.28414 0.70405 0.43111 0.0
C54 C 0.25931 0.66174 0.43871 0.0
C55 C 0.24256 0.63016 0.40524 0.0
C56 C 0.25758 0.63857 0.3694 0.0
C57 C 0.28083 0.68087 0.36095 0.0
C58 C 0.3977 0.85339 0.30755 0.0
C59 C 0.38735 0.71398 0.31497 0.0
O60 O 0.3954 0.81411 0.2039 0.0
O61 O 0.32308 0.78175 0.15469 0.0
O62 O 0.30635 0.71272 0.21924 0.0
O63 O 0.27168 0.74862 0.23073 0.0
O64 O 0.29919 0.83874 0.199 0.0
O65 O 0.27059 0.82575 0.25292 0.0
O66 O 0.27251 0.76624 0.33018 0.0
O67 O 0.34702 0.77401 0.37667 0.0
O68 O 0.35931 0.85405 0.30736 0.0
O69 O 0.39277 0.81553 0.29959 0.0
O70 O 0.35784 0.72327 0.32668 0.0
O71 O 0.39082 0.7379 0.27684 0.0
H72 H 0.34164 0.8219 0.06466 0.0
H73 H 0.33983 0.88951 0.01864 0.0
H74 H 0.36911 0.95177 0.14358 0.0
H75 H 0.37371 0.88463 0.18898 0.0
H76 H 0.29269 0.72938 0.45398 0.0
H77 H 0.24759 0.65518 0.46659 0.0
H78 H 0.24395 0.61461 0.34296 0.0
H79 H 0.28392 0.68828 0.32777 0.0
C80 C 0.67392 0.09184 0.4664 0.0
Eu81 Eu 0.61064 0.05637 0.49897 0.0
C82 C 0.70804 0.07853 0.46041 0.0
C83 C 0.72739 0.0462 0.4908 0.0
C84 C 0.74839 1.0249 0.47681 0.0
C85 C 0.74944 0.0357 0.43223 0.0
C86 C 0.73512 0.07127 0.4047 0.0
C87 C 0.71441 0.09266 0.41879 0.0
C88 C 0.61984 0.09363 0.57389 0.0
C89 C 0.63865 0.9687 0.5747 0.0
C90 C 0.48543 0.97914 0.5675 0.0
Eu91 Eu 0.54535 1.00677 0.53047 0.0
C92 C 0.4668 1.00329 0.58444 0.0
C93 C 0.46836 0.99289 0.63013 0.0
C94 C 0.46478 1.02254 0.65317 0.0
C95 C 0.46011 0.06291 0.63081 0.0
C96 C 0.45527 0.07212 0.5839 0.0
C97 C 0.45788 0.04213 0.56054 0.0
C98 C 0.53358 0.96863 0.45514 0.0
C99 C 0.51683 0.09337 0.45258 0.0
O100 O 0.62957 0.0717 0.43967 0.0
O101 O 0.68218 0.09564 0.51022 0.0
O102 O 0.61746 0.11361 0.53381 0.0
O103 O 0.61394 0.05408 0.57141 0.0
O104 O 0.64796 0.99975 0.54282 0.0
O105 O 0.59935 0.96599 0.57798 0.0
O106 O 0.53094 0.98524 0.59251 0.0
O107 O 0.47229 0.98083 0.52142 0.0
O108 O 0.53278 0.94827 0.4941 0.0
O109 O 0.54186 1.0087 0.458 0.0
O110 O 0.50905 0.06399 0.48633 0.0
O111 O 0.55513 0.09482 0.4482 0.0
H112 H 0.72294 0.03508 0.52323 0.0
H113 H 0.75936 0.99737 0.49822 0.0
H114 H 0.73586 0.07978 0.37019 0.0
H115 H 0.69968 0.11762 0.39512 0.0
H116 H 0.47565 0.96327 0.64925 0.0
H117 H 0.46833 1.01508 0.68943 0.0
H118 H 0.45126 0.10309 0.56622 0.0
H119 H 0.45575 0.05056 0.525 0.0
C120 C 0.24362 0.34746 0.70106 0.0
Eu121 Eu 0.29086 0.29134 0.74515 0.0
C122 C 0.21997 0.37193 0.71091 0.0
C123 C 0.17599 0.35184 0.71223 0.0
C124 C 0.15685 0.375 0.72651 0.0
C125 C 0.18146 0.4183 0.73926 0.0
C126 C 0.22372 0.43911 0.73511 0.0
C127 C 0.24289 0.41606 0.72103 0.0
C128 C 0.25953 0.21351 0.70681 0.0
C129 C 0.26058 0.21912 0.83328 0.0
C130 C 0.40596 0.20471 0.83082 0.0
Eu131 Eu 0.35278 0.2561 0.78994 0.0
C132 C 0.43203 0.19024 0.81329 0.0
C133 C 0.46409 0.22035 0.79699 0.0
C134 C 0.47911 0.20667 0.76938 0.0
C135 C 0.4625 0.16288 0.75845 0.0
C136 C 0.43364 0.13247 0.77778 0.0
C137 C 0.41802 0.14613 0.8045 0.0
C138 C 0.38152 0.33204 0.83104 0.0
C139 C 0.38237 0.32842 0.70083 0.0
O140 O 0.28957 0.35792 0.72609 0.0
O141 O 0.22425 0.30566 0.6967 0.0
O142 O 0.23557 0.22806 0.719 0.0
O143 O 0.29993 0.24042 0.71526 0.0
O144 O 0.25097 0.25273 0.79997 0.0
O145 O 0.30067 0.21429 0.8342 0.0
O146 O 0.36009 0.19111 0.80633 0.0
O147 O 0.42089 0.24547 0.84065 0.0
O148 O 0.40529 0.32082 0.81551 0.0
O149 O 0.34135 0.30449 0.82092 0.0
O150 O 0.3927 0.29557 0.73502 0.0
O151 O 0.34184 0.33229 0.69958 0.0
H152 H 0.15731 0.31798 0.70407 0.0
H153 H 0.12423 0.35869 0.72992 0.0
H154 H 0.24299 0.47257 0.74503 0.0
H155 H 0.27637 0.43245 0.71936 0.0
H156 H 0.4749 0.25471 0.80259 0.0
H157 H 0.50103 0.23042 0.75408 0.0
H158 H 0.42032 0.09857 0.7691 0.0
H159 H 0.39234 0.12257 0.81547 0.0
C160 C 0.15261 0.98498 0.49407 0.0
Eu161 Eu 0.09809 1.00766 0.51563 0.0
C162 C 0.18481 1.01385 0.47409 0.0
C163 C 0.17767 1.00474 0.42912 0.0
C164 C 0.19378 0.03772 0.40077 0.0
C165 C 0.21792 0.08008 0.41736 0.0
C166 C 0.22923 0.08833 0.46416 0.0
C167 C 0.21243 0.0555 0.49225 0.0
C168 C 0.99817 0.976 0.43493 0.0
C169 C 0.07324 0.08592 0.44913 0.0
C170 C 0.96436 0.04392 0.52775 0.0
Eu171 Eu 1.03479 0.03029 0.52482 0.0
C172 C 0.93629 1.01179 0.55094 0.0
C173 C 0.95543 1.00919 0.60116 0.0
C174 C 0.94668 0.96909 0.62484 0.0
C175 C 0.91987 0.9306 0.59893 0.0
C176 C 0.89126 0.93563 0.54934 0.0
C177 C 0.89974 0.97593 0.52553 0.0
C178 C 0.12495 0.07089 0.58899 0.0
C179 C 1.06527 0.95111 0.58963 0.0
O180 O 0.16319 0.99073 0.53845 0.0
O181 O 0.10809 0.98104 0.46508 0.0
O182 O 1.02045 0.97465 0.48106 0.0
O183 O 1.02104 0.97508 0.481 0.0
O184 O 0.1079 0.06873 0.4717 0.0
O185 O 1.0378 0.07397 0.46085 0.0
O186 O 0.96091 0.03159 0.48912 0.0
O187 O 1.00851 0.06212 0.5566 0.0
O188 O 0.0909 0.0489 0.60041 0.0
O189 O 0.11143 0.06841 0.54509 0.0
O190 O 1.02827 0.96539 0.56482 0.0
O191 O 0.10469 0.97163 0.58523 0.0
H192 H 0.15593 0.97313 0.41413 0.0
H193 H 0.18516 0.03076 0.36485 0.0
H194 H 0.24829 0.12077 0.47764 0.0
H195 H 0.21788 0.06371 0.52648 0.0
H196 H 0.98144 0.03698 0.6223 0.0
H197 H 0.96429 0.9681 0.66365 0.0
H198 H 0.86385 0.90916 0.52761 0.0
H199 H 0.88123 0.97781 0.48677 0.0
C200 C 0.33164 0.69148 0.86003 0.0
Eu201 Eu 0.31792 0.74715 0.78842 0.0
C202 C 0.34633 0.65387 0.86163 0.0
C203 C 0.33091 0.63561 0.81779 0.0
C204 C 0.36154 0.62146 0.8102 0.0
C205 C 0.40589 0.62149 0.84785 0.0
C206 C 0.41696 0.63143 0.89417 0.0
C207 C 0.3876 0.64823 0.90093 0.0
C208 C 0.24598 0.7107 0.70394 0.0
C209 C 0.37258 0.74033 0.72464 0.0
C210 C 0.27256 0.84061 0.6351 0.0
Eu211 Eu 0.30559 0.80419 0.71987 0.0
C212 C 0.22206 0.83812 0.60762 0.0
C213 C 0.20953 0.87662 0.59209 0.0
C214 C 0.16541 0.8772 0.58512 0.0
C215 C 0.13363 0.83942 0.5938 0.0
C216 C 0.14343 0.79985 0.60301 0.0
C217 C 0.18744 0.79917 0.60965 0.0
C218 C 0.37915 0.84659 0.79919 0.0
C219 C 0.25637 0.81162 0.78966 0.0
O220 O 0.3635 0.72858 0.86075 0.0
O221 O 0.28929 0.69151 0.82707 0.0
O222 O 0.28348 0.69875 0.72982 0.0
O223 O 0.24951 0.74413 0.72117 0.0
O224 O 0.36652 0.72595 0.76458 0.0
O225 O 0.35193 0.77218 0.70103 0.0
O226 O 0.28215 0.80414 0.6427 0.0
O227 O 0.29468 0.86227 0.67419 0.0
O228 O 0.34615 0.86181 0.76617 0.0
O229 O 0.3741 0.80916 0.78847 0.0
O230 O 0.25598 0.82158 0.74608 0.0
O231 O 0.2819 0.7838 0.81498 0.0
H232 H 0.29805 0.63761 0.78744 0.0
H233 H 0.35217 0.61402 0.7742 0.0
H234 H 0.45093 0.631 0.92389 0.0
H235 H 0.40011 0.66181 0.9351 0.0
H236 H 0.23557 0.90698 0.59058 0.0
H237 H 0.15808 0.90803 0.57795 0.0
H238 H 0.11925 0.77047 0.60978 0.0
H239 H 0.19603 0.76891 0.62145 0.0
C240 C 0.53078 0.12142 0.95212 0.0
Eu241 Eu 0.56011 0.0535 0.98289 0.0
C242 C 0.50185 0.13458 0.9676 0.0
C243 C 0.45547 0.1347 0.93487 0.0
C244 C 0.42471 0.13949 0.95042 0.0
C245 C 0.43958 0.14288 0.99943 0.0
C246 C 0.48633 0.14422 0.0322 0.0
C247 C 0.51733 0.14043 0.01642 0.0
C248 C 0.52704 0.97878 0.93577 0.0
C249 C 0.49985 0.9962 0.04266 0.0
C250 C 0.62383 0.91616 0.08366 0.0
Eu251 Eu 0.58875 0.98081 0.04926 0.0
C252 C 0.64954 0.90101 0.06526 0.0
C253 C 0.69892 0.90854 0.09095 0.0
C254 C 0.7248 0.90284 0.06955 0.0
C255 C 0.70197 0.89052 0.02163 0.0
C256 C 0.6525 0.88113 0.99668 0.0
C257 C 0.62648 0.88543 0.01858 0.0
C258 C 0.62262 0.058 0.09306 0.0
C259 C 0.64645 0.0338 0.98809 0.0
O260 O 0.57412 0.12321 0.98425 0.0
O261 O 0.50931 0.0857 0.92827 0.0
O262 O 0.54133 1.01754 0.9189 0.0
O263 O 0.5287 0.98166 0.97613 0.0
O264 O 0.51351 0.03336 0.02151 0.0
O265 O 0.52068 0.96578 0.05405 0.0
O266 O 0.57857 0.911 0.05599 0.0
O267 O 0.6457 0.95444 0.10235 0.0
O268 O 0.60777 1.02045 0.11179 0.0
O269 O 0.62031 0.05245 0.05356 0.0
O270 O 0.62982 0.99591 1.00581 0.0
O271 O 0.62841 0.06583 0.97957 0.0
H272 H 0.4424 0.12887 0.89769 0.0
H273 H 0.38871 0.13852 0.92465 0.0
H274 H 0.49843 0.1471 0.07015 0.0
H275 H 0.55273 0.14023 0.04279 0.0
H276 H 0.71795 0.92102 0.12667 0.0
H277 H 0.76299 0.91056 0.08944 0.0
H278 H 0.63423 0.87132 0.95985 0.0
H279 H 0.58846 0.87855 0.99801 0.0
C280 C 0.36277 0.33566 0.38536 0.0
Eu281 Eu 0.34427 0.30173 0.30798 0.0
C282 C 0.35044 0.36326 0.40554 0.0
C283 C 0.30909 0.37593 0.37838 0.0
C284 C 0.28967 0.3899 0.40144 0.0
C285 C 0.31126 0.39082 0.45172 0.0
C286 C 0.35456 0.38155 0.47834 0.0
C287 C 0.37422 0.3681 0.45531 0.0
C288 C 0.38381 0.33336 0.24659 0.0
C289 C 0.25648 0.33574 0.20638 0.0
C290 C 0.28522 0.21401 0.15137 0.0
Eu291 Eu 0.29866 0.25057 0.22459 0.0
C292 C 0.28659 0.17909 0.13008 0.0
C293 C 0.32128 0.15763 0.15663 0.0
C294 C 0.33796 0.14081 0.13297 0.0
C295 C 0.32 0.14549 0.08287 0.0
C296 C 0.28073 0.16117 0.05633 0.0
C297 C 0.26387 0.1777 0.07993 0.0
C298 C 0.25931 0.21658 0.2859 0.0
C299 C 0.38858 0.21868 0.32591 0.0
O300 O 0.3294 0.29961 0.36772 0.0
O301 O 0.38666 0.35345 0.36018 0.0
O302 O 0.40852 0.32853 0.29263 0.0
O303 O 0.34036 0.31944 0.23606 0.0
O304 O 0.28525 0.33888 0.25438 0.0
O305 O 0.2565 0.30336 0.18609 0.0
O306 O 0.32637 0.23801 0.18109 0.0
O307 O 0.25064 0.20884 0.16241 0.0
O308 O 0.23476 0.21701 0.23958 0.0
O309 O 0.30267 0.23308 0.2964 0.0
O310 O 0.35794 0.21406 0.27862 0.0
O311 O 0.38951 0.25171 0.34589 0.0
H312 H 0.28998 0.3718 0.33998 0.0
H313 H 0.25598 0.39667 0.3805 0.0
H314 H 0.37111 0.38144 0.5171 0.0
H315 H 0.40581 0.35789 0.47684 0.0
H316 H 0.3393 0.1585 0.19543 0.0
H317 H 0.36832 0.12875 0.15388 0.0
H318 H 0.26684 0.16528 0.01772 0.0
H319 H 0.23726 0.19431 0.0589 0.0
C320 C 0.68846 0.54601 0.01786 0.0
Eu321 Eu 0.60219 0.52585 1.00307 0.0
C322 C 0.7118 0.58763 1.00004 0.0
C323 C 0.70911 0.58965 0.95418 0.0
C324 C 0.71949 0.62937 0.93108 0.0
C325 C 0.73467 0.66818 0.95386 0.0
C326 C 0.73928 0.66683 1.00037 0.0
C327 C 0.72749 0.62668 0.02326 0.0
C328 C 0.52084 0.46173 0.95889 0.0
C329 C 0.54128 0.57973 0.91449 0.0
C330 C 0.43782 0.54346 1.00071 0.0
Eu331 Eu 0.51614 0.54337 1.00554 0.0
C332 C 0.42482 0.52208 0.03967 0.0
C333 C 0.45888 0.53063 0.0874 0.0
C334 C 0.46026 0.49824 0.12331 0.0
C335 C 0.42849 0.45605 0.11207 0.0
C336 C 0.3889 0.45116 0.06624 0.0
C337 C 0.38744 0.48352 0.03033 0.0
C338 C 0.60466 0.59283 0.06107 0.0
C339 C 0.56591 0.47757 0.08459 0.0
O340 O 0.67742 0.54866 0.05164 0.0
O341 O 0.65402 0.51933 0.98425 0.0
O342 O 0.56185 0.46238 0.96351 0.0
O343 O 0.52703 0.49365 0.97986 0.0
O344 O 0.5799 0.56718 0.93508 0.0
O345 O 0.51224 0.57348 0.93412 0.0
O346 O 0.43952 0.51619 0.9768 0.0
O347 O 0.47466 0.57844 0.0118 0.0
O348 O 0.57037 0.57946 0.07359 0.0
O349 O 0.58983 0.5816 0.01902 0.0
O350 O 0.52806 0.49118 0.06353 0.0
O351 O 0.59899 0.48803 0.06928 0.0
H352 H 0.69704 0.56043 0.93516 0.0
H353 H 0.71691 0.62991 0.89553 0.0
H354 H 0.75224 0.69654 0.01887 0.0
H355 H 0.72956 0.62629 0.05851 0.0
H356 H 0.48733 0.56091 0.09646 0.0
H357 H 0.48748 0.50679 0.15901 0.0
H358 H 0.35951 0.42169 0.05676 0.0
H359 H 0.3598 0.47651 0.99412 0.0
C360 C 0.857 0.19588 0.37351 0.0
Eu361 Eu 0.81552 0.23953 0.29733 0.0
C362 C 0.90584 0.19664 0.38891 0.0
C363 C 0.92074 0.16016 0.41135 0.0
C364 C 0.96258 0.15727 0.41442 0.0
C365 C 0.98927 0.19055 0.39441 0.0
C366 C 0.97607 0.22821 0.37483 0.0
C367 C 0.93475 0.23139 0.3725 0.0
C368 C 0.73549 0.20634 0.21645 0.0
C369 C 0.86813 0.23488 0.22506 0.0
C370 C 0.7754 0.3508 0.15329 0.0
Eu371 Eu 0.80778 0.2984 0.22467 0.0
C372 C 0.75642 0.38417 0.1545 0.0
C373 C 0.76504 0.39497 0.19943 0.0
C374 C 0.73142 0.40715 0.2039 0.0
C375 C 0.69234 0.41472 0.16278 0.0
C376 C 0.6887 0.41142 0.11726 0.0
C377 C 0.71963 0.3947 0.11312 0.0
C378 C 0.88573 0.33458 0.30462 0.0
C379 C 0.75533 0.30244 0.29783 0.0
O380 O 0.85222 0.23288 0.37523 0.0
O381 O 0.8265 0.17755 0.33278 0.0
O382 O 0.73722 0.20238 0.25901 0.0
O383 O 0.77616 0.22762 0.21959 0.0
O384 O 0.86457 0.2237 0.26718 0.0
O385 O 0.84587 0.26467 0.19908 0.0
O386 O 0.74992 0.31141 0.15823 0.0
O387 O 0.8206 0.35676 0.18063 0.0
O388 O 0.88658 0.33221 0.26471 0.0
O389 O 0.84555 0.31182 0.30204 0.0
O390 O 0.76148 0.31578 0.25727 0.0
O391 O 0.77393 0.26991 0.32152 0.0
H392 H 0.89872 0.13303 0.42369 0.0
H393 H 0.97253 0.12782 0.42955 0.0
H394 H 0.99598 0.25379 0.3588 0.0
H395 H 0.92351 0.25966 0.35432 0.0
H396 H 0.7948 0.38896 0.23166 0.0
H397 H 0.73473 0.40821 0.23941 0.0
H398 H 0.65902 0.41755 0.08492 0.0
H399 H 0.71247 0.38671 0.0781 0.0
C400 C 0.99384 0.63715 0.43341 0.0
Eu401 Eu 1.02291 0.5692 0.4623 0.0
C402 C 0.979 0.65682 0.4593 0.0
C403 C 0.9348 0.66456 0.43559 0.0
C404 C 0.91408 0.67119 0.46184 0.0
C405 C 0.93645 0.66829 0.51204 0.0
C406 C 0.98205 0.66359 0.53593 0.0
C407 C 1.00348 0.65839 0.50965 0.0
C408 C 0.98393 0.49176 0.41836 0.0
C409 C 0.98151 0.5168 0.53607 0.0
C410 C 0.10087 0.43742 0.56654 0.0
Eu411 Eu 1.06287 0.50019 0.52623 0.0
C412 C 0.13113 0.42005 0.55749 0.0
C413 C 0.17809 0.42442 0.59226 0.0
C414 C 0.21012 0.41561 0.58148 0.0
C415 C 0.19586 0.40368 0.5351 0.0
C416 C 0.14802 0.39589 0.50159 0.0
C417 C 0.11584 0.40398 0.51264 0.0
C418 C 0.10098 0.57879 0.5681 0.0
C419 C 0.0945 0.54699 0.44176 0.0
O420 O 1.03886 0.63955 0.45362 0.0
O421 O 0.96603 0.59838 0.41827 0.0
O422 O 0.98946 0.52957 0.39655 0.0
O423 O 0.99487 0.49665 0.46164 0.0
O424 O 0.99345 0.5548 0.51589 0.0
O425 O 0.99947 0.48577 0.53988 0.0
O426 O 1.0567 0.43109 0.5343 0.0
O427 O 0.12066 0.47689 0.58191 0.0
O428 O 0.08929 0.54175 0.58902 0.0
O429 O 0.09196 0.57259 0.52584 0.0
O430 O 0.08962 0.51222 0.46978 0.0
O431 O 0.07916 0.57901 0.44062 0.0
H432 H 0.91462 0.66189 0.39719 0.0
H433 H 0.87918 0.67542 0.44319 0.0
H434 H 0.99976 0.66145 0.57475 0.0
H435 H 1.03752 0.65216 0.52889 0.0
H436 H 0.19054 0.43693 0.62688 0.0
H437 H 0.24663 0.42066 0.60822 0.0
H438 H 0.13612 0.38562 0.46597 0.0
H439 H 0.0798 0.39998 0.4851 0.0
C440 C 0.74084 0.85279 0.21151 0.0
Eu441 Eu 0.78464 0.79398 0.23898 0.0
C442 C 0.7463 0.88176 0.24454 0.0
C443 C 0.72185 0.91268 0.2291 0.0
C444 C 0.72668 0.93813 0.26276 0.0
C445 C 0.75581 0.93246 0.31173 0.0
C446 C 0.78031 0.90173 0.32694 0.0
C447 C 0.77552 0.87653 0.29351 0.0
C448 C 0.74869 0.71906 0.19284 0.0
C449 C 0.75755 0.71549 0.32862 0.0
C450 C 0.90726 0.70998 0.31724 0.0
Eu451 Eu 0.84565 0.75269 0.28379 0.0
C452 C 0.93856 0.70442 0.30054 0.0
C453 C 0.9627 0.73983 0.28008 0.0
C454 C 0.98134 0.7327 0.2522 0.0
C455 C 0.97632 0.6902 0.24553 0.0
C456 C 0.95726 0.65532 0.27052 0.0
C457 C 0.93824 0.66243 0.29796 0.0
C458 C 0.8671 0.81896 0.33765 0.0
C459 C 0.87434 0.83093 0.1946 0.0
O460 O 0.77903 0.85814 0.20714 0.0
O461 O 0.72113 0.81224 0.21897 0.0
O462 O 0.72449 0.73674 0.20085 0.0
O463 O 0.79128 0.74231 0.20765 0.0
O464 O 0.75341 0.75414 0.30202 0.0
O465 O 0.79111 0.70593 0.3219 0.0
O466 O 0.86194 0.69243 0.29103 0.0
O467 O 0.91696 0.74882 0.33001 0.0
O468 O 0.86259 0.7793 0.35361 0.0
O469 O 0.85601 0.82051 0.29403 0.0
O470 O 0.88743 0.80052 0.23188 0.0
O471 O 0.83108 0.83195 0.18932 0.0
H472 H 0.69848 0.91645 0.19161 0.0
H473 H 0.70697 0.96145 0.2509 0.0
H474 H 0.80206 0.89662 0.36472 0.0
H475 H 0.7936 0.852 0.30595 0.0
H476 H 0.96425 0.77259 0.2829 0.0
H477 H 0.99644 0.75971 0.23322 0.0
H478 H 0.95376 0.62233 0.26566 0.0
H479 H 0.92012 0.63494 0.31401 0.0
C480 C 0.8774 0.31125 0.67718 0.0
Eu481 Eu 0.83661 0.28497 0.73289 0.0
C482 C 0.87783 0.35322 0.65167 0.0
C483 C 0.87305 0.35872 0.60492 0.0
C484 C 0.86734 0.39742 0.57919 0.0
C485 C 0.86489 0.43083 0.59944 0.0
C486 C 0.86677 0.42354 0.64534 0.0
C487 C 0.87464 0.38584 0.67161 0.0
C488 C 0.75368 0.21993 0.70986 0.0
C489 C 0.76524 0.3449 0.71347 0.0
C490 C 0.76796 0.24547 0.85638 0.0
Eu491 Eu 0.81022 0.27102 0.80168 0.0
C492 C 0.76488 0.20329 0.88148 0.0
C493 C 0.76146 0.19645 0.92463 0.0
C494 C 0.76285 0.15674 0.94967 0.0
C495 C 0.76963 0.124 0.93279 0.0
C496 C 0.77576 0.13249 0.89084 0.0
C497 C 0.77157 0.17098 0.8646 0.0
C498 C 0.89325 0.33606 0.82479 0.0
C499 C 0.88095 0.21039 0.82004 0.0
O500 O 0.90155 0.31304 0.72389 0.0
O501 O 0.83502 0.28363 0.66362 0.0
O502 O 0.76082 0.2529 0.68185 0.0
O503 O 0.79003 0.22341 0.74951 0.0
O504 O 0.79653 0.33959 0.7016 0.0
O505 O 0.76228 0.31877 0.75114 0.0
O506 O 0.74472 0.24397 0.80963 0.0
O507 O 0.81118 0.27155 0.87081 0.0
O508 O 0.88587 0.3033 0.85298 0.0
O509 O 0.85681 0.33255 0.78519 0.0
O510 O 0.85017 0.21614 0.83241 0.0
O511 O 0.88402 0.23662 0.78247 0.0
H512 H 0.87403 0.33332 0.5885 0.0
H513 H 0.86684 0.40154 0.54421 0.0
H514 H 0.864 0.44746 0.66198 0.0
H515 H 0.87776 0.38203 0.70766 0.0
H516 H 0.75704 0.22138 0.93848 0.0
H517 H 0.75687 0.15129 0.98133 0.0
H518 H 0.78239 0.10923 0.87716 0.0
H519 H 0.77347 0.17541 0.83081 0.0
C520 C 0.8968 0.87177 0.86708 0.0
Eu521 Eu 0.86352 0.81785 0.79965 0.0
C522 C 0.87226 0.88507 0.88787 0.0
C523 C 0.82644 0.88921 0.85911 0.0
C524 C 0.79957 0.89321 0.88016 0.0
C525 C 0.81796 0.89282 0.93021 0.0
C526 C 0.86419 0.89005 0.9589 0.0
C527 C 0.89123 0.88639 0.93789 0.0
C528 C 0.89205 0.81384 0.73404 0.0
C529 C 0.76514 0.84263 0.7035 0.0
C530 C 0.75122 0.68801 0.67064 0.0
Eu531 Eu 0.79434 0.74944 0.73201 0.0
C532 C 0.77002 0.66947 0.64778 0.0
C533 C 0.81019 0.65495 0.67573 0.0
C534 C 0.83541 0.64838 0.65437 0.0
C535 C 0.82084 0.65645 0.605 0.0
C536 C 0.77867 0.66735 0.57645 0.0
C537 C 0.75324 0.67368 0.59775 0.0
C538 C 0.77335 0.75357 0.80389 0.0
C539 C 0.8944 0.72486 0.82461 0.0
O540 O 0.89522 0.831 0.87533 0.0
O541 O 0.88898 0.88446 0.82277 0.0
O542 O 0.9205 0.82621 0.77779 0.0
O543 O 0.8497 0.80851 0.7258 0.0
O544 O 0.80359 0.85352 0.74631 0.0
O545 O 0.75487 0.80287 0.68913 0.0
O546 O 0.75222 0.7284 0.65821 0.0
O547 O 0.76526 0.68056 0.71674 0.0
O548 O 0.7411 0.74347 0.76068 0.0
O549 O 0.81267 0.7582 0.80586 0.0
O550 O 0.85643 0.71493 0.78116 0.0
O551 O 0.90376 0.76404 0.84022 0.0
H552 H 0.81055 0.88749 0.82051 0.0
H553 H 0.76381 0.89501 0.85752 0.0
H554 H 0.87845 0.88869 0.99752 0.0
H555 H 0.92603 0.88232 0.96078 0.0
H556 H 0.82399 0.65134 0.71437 0.0
H557 H 0.86789 0.63977 0.67668 0.0
H558 H 0.76701 0.67339 0.53817 0.0
H559 H 0.72242 0.68488 0.57559 0.0
C560 C 0.54922 0.59385 0.58546 0.0
Eu561 Eu 0.575 0.5479 0.54069 0.0
C562 C 0.52668 0.61583 0.60963 0.0
C563 C 0.54661 0.65839 0.62959 0.0
C564 C 0.52372 0.67792 0.64744 0.0
C565 C 0.47808 0.65741 0.64867 0.0
C566 C 0.45881 0.6146 0.62926 0.0
C567 C 0.4811 0.59554 0.61048 0.0
C568 C 0.64912 0.59221 0.47923 0.0
C569 C 0.49944 0.57461 0.43612 0.0
C570 C 0.58584 0.45359 0.44073 0.0
Eu571 Eu 0.56257 0.50022 0.48714 0.0
C572 C 0.60811 0.43081 0.41711 0.0
C573 C 0.58277 0.39593 0.38369 0.0
C574 C 0.60471 0.37606 0.365 0.0
C575 C 0.65488 0.38851 0.37679 0.0
C576 C 0.67969 0.42375 0.40964 0.0
C577 C 0.65802 0.4432 0.4287 0.0
C578 C 0.51826 0.4445 0.5721 0.0
C579 C 0.64194 0.47685 0.59226 0.0
O580 O 0.52185 0.56305 0.5546 0.0
O581 O 0.59385 0.59966 0.5939 0.0
O582 O 0.60539 0.57696 0.47918 0.0
O583 O 0.60598 0.57625 0.48128 0.0
O584 O 0.51849 0.5793 0.48258 0.0
O585 O 0.51137 0.54338 0.42547 0.0
O586 O 0.61426 0.4797 0.47649 0.0
O587 O 0.54144 0.45197 0.42917 0.0
O588 O 0.51689 0.47473 0.53531 0.0
O589 O 0.51865 0.4749 0.53501 0.0
O590 O 0.62008 0.46997 0.54622 0.0
O591 O 0.63073 0.50876 0.60235 0.0
H592 H 0.58057 0.67799 0.63069 0.0
H593 H 0.54259 0.7106 0.6601 0.0
H594 H 0.42504 0.59459 0.62835 0.0
H595 H 0.46157 0.56341 0.59629 0.0
H596 H 0.5448 0.383 0.37168 0.0
H597 H 0.5812 0.34975 0.34073 0.0
H598 H 0.71742 0.43728 0.42109 0.0
H599 H 0.68169 0.46918 0.45342 0.0
C600 C 0.16694 0.57764 0.95881 0.0
Eu601 Eu 0.10801 0.5527 0.99723 0.0
C602 C 0.16201 0.56553 0.91444 0.0
C603 C 0.20239 0.57386 0.90744 0.0
C604 C 0.19957 0.55328 0.87118 0.0
C605 C 0.15641 0.52427 0.84212 0.0
C606 C 0.11525 0.51859 0.84674 0.0
C607 C 0.11805 0.53919 0.88292 0.0
C608 C 0.12502 0.5967 0.07208 0.0
C609 C 0.13545 0.46645 0.07701 0.0
C610 C 0.98842 0.48984 0.06848 0.0
Eu611 Eu 1.04643 0.50933 0.03043 0.0
C612 C 0.98209 0.52343 0.08625 0.0
C613 C 0.95012 0.51458 0.10576 0.0
C614 C 0.94897 0.54822 0.12574 0.0
C615 C 0.97944 0.59032 0.12549 0.0
C616 C 1.00955 0.59924 0.10394 0.0
C617 C 1.01158 0.56577 0.08549 0.0
C618 C 1.02842 0.46634 0.95526 0.0
C619 C 1.01665 0.59305 0.94951 0.0
O620 O 0.13947 0.59964 0.95414 0.0
O621 O 0.16696 0.54586 0.99046 0.0
O622 O 0.12596 0.61405 0.03238 0.0
O623 O 0.11659 0.55637 0.07131 0.0
O624 O 0.14583 0.49706 0.04535 0.0
O625 O 0.09628 0.4654 0.07925 0.0
O626 O 1.0312 0.48631 0.09203 0.0
O627 O 0.97408 0.4921 0.02222 0.0
O628 O 1.02984 0.44827 0.99572 0.0
O629 O 1.03797 0.50682 0.95619 0.0
O630 O 1.0116 0.56742 0.98652 0.0
O631 O 1.05111 0.58895 0.94186 0.0
H632 H 0.23652 0.59381 0.9319 0.0
H633 H 0.23163 0.55745 0.86805 0.0
H634 H 0.08195 0.49578 0.82487 0.0
H635 H 0.08673 0.53212 0.88848 0.0
H636 H 0.92745 0.48192 0.10679 0.0
H637 H 0.92556 0.54133 0.14255 0.0
H638 H 1.03335 0.63156 0.10393 0.0
H639 H 1.03764 0.57275 0.0722 0.0
C640 C 0.23296 0.14869 0.90155 0.0
C641 C 0.22686 0.18786 0.86768 0.0
C642 C 0.15615 0.16945 0.8964 0.0
C643 C 0.16244 0.1312 0.93095 0.0
N644 N 0.21113 0.08478 0.95417 0.0
N645 N 0.17982 0.23543 0.84895 0.0
C646 C 0.2026 0.12202 0.92959 0.0
C647 C 0.18728 0.19689 0.87027 0.0
N648 N 0.27096 0.13671 0.90928 0.0
N649 N 0.11625 0.17988 0.88545 0.0
H650 H 0.19832 0.25544 0.8302 0.0
H651 H 0.15948 0.24989 0.85421 0.0
H652 H 0.0945 0.16489 0.90258 0.0
H653 H 0.10203 0.20004 0.85637 0.0
H654 H 0.28414 0.11417 0.93552 0.0
H655 H 0.29164 0.15205 0.89112 0.0
H656 H 0.23256 0.06974 0.9518 0.0
H657 H 0.19298 0.06698 0.97427 0.0
C658 C 0.22776 0.95819 0.14994 0.0
C659 C 0.17639 0.9445 0.1288 0.0
C660 C 0.18669 0.86857 0.16442 0.0
C661 C 0.23792 0.8815 0.1829 0.0
N662 N 0.30411 0.94205 0.18424 0.0
N663 N 0.10928 0.8804 0.10955 0.0
C664 C 0.25701 0.92738 0.17282 0.0
C665 C 0.15711 0.89791 0.13469 0.0
N666 N 0.24947 1.00168 0.14834 0.0
N667 N 0.16507 0.82708 0.17488 0.0
H668 H 0.08693 0.89931 0.08838 0.0
H669 H 0.09232 0.84719 0.10621 0.0
H670 H 0.18343 0.8043 0.19249 0.0
H671 H 0.12979 0.81615 0.1691 0.0
H672 H 0.28588 1.01608 0.16647 0.0
H673 H 0.23018 1.02391 0.13162 0.0
H674 H 0.32108 0.9727 0.17447 0.0
H675 H 0.3254 0.92164 0.20028 0.0
C676 C 0.5174 0.90665 0.40878 0.0
C677 C 0.50741 0.94506 0.40947 0.0
C678 C 0.44256 0.92981 0.32886 0.0
C679 C 0.44375 0.88665 0.33448 0.0
N680 N 0.48819 0.83533 0.37676 0.0
N681 N 0.45528 0.99107 0.3691 0.0
C682 C 0.48341 0.87554 0.37309 0.0
C683 C 0.46929 0.95682 0.36883 0.0
N684 N 0.55972 0.90033 0.44195 0.0
N685 N 0.41521 0.94466 0.28498 0.0
H686 H 0.47058 1.01082 0.39795 0.0
H687 H 0.42457 0.9973 0.34173 0.0
H688 H 0.39799 0.92543 0.25522 0.0
H689 H 0.41521 0.97693 0.27735 0.0
H690 H 0.57116 0.87504 0.44102 0.0
H691 H 0.58556 0.92296 0.46779 0.0
H692 H 0.51161 0.82307 0.40788 0.0
H693 H 0.46907 0.81416 0.34859 0.0
C694 C 0.42758 0.13947 0.67569 0.0
C695 C 0.46787 0.14885 0.72061 0.0
C696 C 0.50789 0.11409 0.69795 0.0
C697 C 0.46399 0.09662 0.65821 0.0
N698 N 0.38097 0.09098 0.60952 0.0
N699 N 0.54705 0.14647 0.77546 0.0
C700 C 0.42365 0.10946 0.64647 0.0
C701 C 0.50868 0.13725 0.73178 0.0
N702 N 0.39294 0.15882 0.66163 0.0
N703 N 0.54859 0.10872 0.70293 0.0
H704 H 0.5491 0.16471 0.80033 0.0
H705 H 0.57566 0.13428 0.78794 0.0
H706 H 0.54911 0.09217 0.67831 0.0
H707 H 0.58224 0.12405 0.72873 0.0
H708 H 0.36467 0.15621 0.62747 0.0
H709 H 0.39511 0.18105 0.68265 0.0
H710 H 0.34927 0.09562 0.60287 0.0
H711 H 0.37634 0.06827 0.58753 0.0
C712 C 0.09574 0.89588 0.64852 0.0
C713 C 1.05848 0.90536 0.60627 0.0
C714 C 1.05327 0.84726 0.56534 0.0
C715 C 0.0969 0.8446 0.6037 0.0
N716 N 0.14554 0.84847 0.68878 0.0
N717 N 0.98579 0.87423 0.5383 0.0
C718 C 0.11262 0.86215 0.6482 0.0
C719 C 1.03111 0.8748 0.56969 0.0
N720 N 0.11815 0.92251 0.68621 0.0
N721 N 1.03532 0.82614 0.52426 0.0
H722 H 0.96946 0.8938 0.5428 0.0
H723 H 0.96348 0.85141 0.51182 0.0
H724 H 1.05118 0.80507 0.52165 0.0
H725 H 1.00596 0.83047 0.49312 0.0
H726 H 0.14939 0.9206 0.71612 0.0
H727 H 0.10568 0.94763 0.68585 0.0
H728 H 0.1551 0.85766 0.72269 0.0
H729 H 0.15883 0.82429 0.68836 0.0
C730 C 0.46844 0.88055 0.85418 0.0
C731 C 0.41958 0.87469 0.83979 0.0
C732 C 0.44256 0.94061 0.88148 0.0
C733 C 0.49098 0.94315 0.90205 0.0
N734 N 0.55081 0.91426 0.90929 0.0
N735 N 0.36364 0.89188 0.85552 0.0
C736 C 0.50419 0.9125 0.88899 0.0
C737 C 0.40786 0.90259 0.85826 0.0
N738 N 0.48085 0.85753 0.83324 0.0
N739 N 0.42918 0.97521 0.88177 0.0
H740 H 0.33902 0.86189 0.84378 0.0
H741 H 0.35416 0.91002 0.87089 0.0
H742 H 0.45335 1.00419 0.89797 0.0
H743 H 0.39412 0.97596 0.86254 0.0
H744 H 0.51541 0.86372 0.83816 0.0
H745 H 0.45615 0.83411 0.80811 0.0
H746 H 0.56261 0.89099 0.90442 0.0
H747 H 0.57742 0.93759 0.93382 0.0
C748 C 0.37181 0.10517 0.02113 0.0
C749 C 0.40615 0.14398 0.01714 0.0
C750 C 0.38345 0.18367 0.05601 0.0
C751 C 0.34906 0.14465 0.05971 0.0
N752 N 0.3098 0.06829 0.04565 0.0
N753 N 0.43871 0.22164 0.02199 0.0
C754 C 0.34292 0.1056 0.04201 0.0
C755 C 0.41033 0.18371 0.03218 0.0
N756 N 0.36563 0.06691 1.00519 0.0
N757 N 0.39158 0.22033 0.07685 0.0
H758 H 0.45876 0.22278 1.00445 0.0
H759 H 0.43959 0.25228 0.02713 0.0
H760 H 0.3719 0.22225 0.09349 0.0
H761 H 0.41989 0.24819 0.0807 0.0
H762 H 0.38517 0.06305 0.98938 0.0
H763 H 0.38517 0.06305 0.98938 0.0
H764 H 0.30447 0.03881 0.03318 0.0
H765 H 0.2877 0.06698 0.06087 0.0
C766 C 0.26 0.11591 0.36629 0.0
C767 C 0.22858 0.116 0.38426 0.0
C768 C 0.21659 0.18313 0.33729 0.0
C769 C 0.24446 0.18037 0.31616 0.0
N770 N 0.28064 0.13701 0.30016 0.0
N771 N 0.1691 0.14467 0.3795 0.0
C772 C 0.26264 0.14462 0.32759 0.0
C773 C 0.20461 0.14827 0.36779 0.0
N774 N 0.28826 0.08923 0.38696 0.0
N775 N 0.20232 0.21924 0.32892 0.0
H776 H 0.15833 0.11905 0.40064 0.0
H777 H 0.14744 0.16491 0.36473 0.0
H778 H 0.20928 0.24463 0.30551 0.0
H779 H 0.18648 0.22524 0.34759 0.0
H780 H 0.31526 0.09122 0.37824 0.0
H781 H 0.28801 0.06826 0.41619 0.0
H782 H 0.29099 0.10944 0.30476 0.0
H783 H 0.27974 0.15547 0.26916 0.0
C784 C 0.93242 0.23949 0.19043 0.0
C785 C 0.89634 0.21385 0.20638 0.0
C786 C 0.91436 0.14906 0.18887 0.0
C787 C 0.94788 0.17461 0.1695 0.0
N788 N 0.97956 0.24812 0.14642 0.0
N789 N 0.84966 0.14031 0.21048 0.0
C790 C 0.95415 0.22084 0.1694 0.0
C791 C 0.88694 0.16767 0.20253 0.0
N792 N 0.94813 0.28301 0.19702 0.0
N793 N 0.91 0.10587 0.19714 0.0
H794 H 0.82989 0.15145 0.22052 0.0
H795 H 0.83567 0.10752 0.20285 0.0
H796 H 0.92888 0.09138 0.1895 0.0
H797 H 0.89186 0.08547 0.21609 0.0
H798 H 0.9777 0.3039 0.19289 0.0
H799 H 0.9341 0.29755 0.21113 0.0
H800 H 0.98165 0.28081 0.13889 0.0
H801 H 0.99463 0.23699 0.13048 0.0
C802 C 0.11466 0.58604 0.37631 0.0
C803 C 0.11843 0.55185 0.41118 0.0
C804 C 0.19462 0.55553 0.41689 0.0
C805 C 0.19694 0.59775 0.39626 0.0
N806 N 0.15375 0.6482 0.3433 0.0
N807 N 0.14777 0.49006 0.44238 0.0
C808 C 0.15525 0.61094 0.37084 0.0
C809 C 0.15375 0.53151 0.42405 0.0
N810 N 0.07314 0.5963 0.35045 0.0
N811 N 0.23096 0.53914 0.42881 0.0
H812 H 0.11495 0.47052 0.44052 0.0
H813 H 0.1734 0.47415 0.45529 0.0
H814 H 0.26096 0.55719 0.42367 0.0
H815 H 0.22998 0.50718 0.44002 0.0
H816 H 0.06981 0.62223 0.32543 0.0
H817 H 1.04175 0.57731 0.35235 0.0
H818 H 0.18196 0.66919 0.3368 0.0
H819 H 0.18196 0.66919 0.3368 0.0
C820 C 0.72337 0.95039 0.63107 0.0
C821 C 0.67181 0.93626 0.607 0.0
C822 C 0.68149 0.8622 0.64955 0.0
C823 C 0.73288 0.87548 0.67063 0.0
N824 N 0.80005 0.93444 0.671 0.0
N825 N 0.60483 0.87193 0.58885 0.0
C826 C 0.75257 0.92032 0.6584 0.0
C827 C 0.65224 0.8903 0.61557 0.0
N828 N 0.74557 0.99376 0.62981 0.0
N829 N 0.65959 0.82246 0.66364 0.0
H830 H 0.5829 0.88959 0.56331 0.0
H831 H 0.58831 0.83861 0.588 0.0
H832 H 0.67835 0.80174 0.68779 0.0
H833 H 0.62366 0.81193 0.65541 0.0
H834 H 0.78157 1.00793 0.65084 0.0
H835 H 0.72714 1.01616 0.61085 0.0
H836 H 0.81678 0.96394 0.65888 0.0
H837 H 0.82202 0.91472 0.68988 0.0
C838 C 0.441 0.40525 0.93657 0.0
C839 C 0.47502 0.43596 0.92266 0.0
C840 C 0.42844 0.40862 0.84161 0.0
C841 C 0.40228 0.37167 0.85875 0.0
N842 N 0.38133 0.33483 0.92248 0.0
N843 N 0.50122 0.46691 0.86104 0.0
C844 C 0.40687 0.37036 0.90589 0.0
C845 C 0.46834 0.43811 0.8747 0.0
N846 N 0.44189 0.40897 0.97916 0.0
N847 N 0.41509 0.41521 0.79345 0.0
H848 H 0.52879 0.49201 0.88235 0.0
H849 H 0.50203 0.46464 0.82909 0.0
H850 H 0.38517 0.39418 0.76844 0.0
H851 H 0.43044 0.44352 0.77837 0.0
H852 H 0.41565 0.38977 0.98953 0.0
H853 H 0.46654 0.43419 1.00195 0.0
H854 H 0.38777 0.32959 0.95835 0.0
H855 H 0.35485 0.30954 0.90073 0.0
C856 C 0.94142 0.88056 0.35654 0.0
C857 C 0.90271 0.85632 0.36722 0.0
C858 C 0.92462 0.91156 0.42226 0.0
C859 C 0.96164 0.93682 0.40926 0.0
N860 N 0.99903 0.94979 0.35692 0.0
N861 N 0.86177 0.84388 0.41577 0.0
C862 C 0.96788 0.92272 0.37402 0.0
C863 C 0.89557 0.87037 0.40184 0.0
N864 N 0.95521 0.86194 0.33264 0.0
N865 N 0.91507 0.92851 0.45119 0.0
H866 H 0.83921 0.81414 0.40037 0.0
H867 H 0.85775 0.84964 0.44448 0.0
H868 H 0.93482 0.95895 0.46527 0.0
H869 H 0.88565 0.91436 0.45808 0.0
H870 H 0.98604 0.87627 0.32809 0.0
H871 H 0.93923 0.82982 0.32255 0.0
H872 H 1.00101 0.94312 0.32724 0.0
H873 H 1.01996 0.98085 0.36946 0.0
C874 C 0.40057 0.67397 0.64639 0.0
C875 C 0.45143 0.67933 0.66874 0.0
C876 C 0.45163 0.72799 0.72575 0.0
C877 C 0.40045 0.71927 0.70563 0.0
N878 N 0.32933 0.66801 0.65477 0.0
N879 N 0.52124 0.70648 0.74139 0.0
C880 C 0.37637 0.68787 0.66818 0.0
C881 C 0.47538 0.70535 0.71142 0.0
N882 N 0.374 0.65704 0.60196 0.0
N883 N 0.4789 0.7589 0.75937 0.0
H884 H 0.53866 0.68942 0.73492 0.0
H885 H 0.53986 0.71975 0.77518 0.0
H886 H 0.46399 0.77437 0.77147 0.0
H887 H 0.5156 0.77138 0.77224 0.0
H888 H 0.33843 0.65577 0.58148 0.0
H889 H 0.38896 0.64951 0.58331 0.0
H890 H 0.30971 0.64216 0.63171 0.0
H891 H 0.31222 0.67344 0.67241 0.0
C892 C 0.67926 0.03528 0.93157 0.0
C893 C 0.68669 0.04032 0.97829 0.0
C894 C 0.77107 0.07484 1.00239 0.0
C895 C 0.76016 0.07905 0.95328 0.0
N896 N 0.71887 0.03377 0.88515 0.0
N897 N 0.74192 0.04435 0.06235 0.0
C898 C 0.71913 0.04913 0.92221 0.0
C899 C 0.73359 0.05332 0.01555 0.0
N900 N 0.63489 1.01846 0.89638 0.0
N901 N 0.81538 0.09622 0.0345 0.0
H902 H 0.71484 1.02618 0.07205 0.0
H903 H 0.77577 0.05118 0.09086 0.0
H904 H 0.84201 0.11238 0.02347 0.0
H905 H 0.82482 0.09904 0.07045 0.0
H906 H 0.62804 1.01798 0.86072 0.0
H907 H 0.60497 1.0071 0.90268 0.0
H908 H 0.68993 1.01004 0.86283 0.0
H909 H 0.74994 0.0405 0.88156 0.0
C910 C 0.14644 0.38616 0.11317 0.0
C911 C 0.16707 0.43284 0.10997 0.0
C912 C 0.24554 0.41653 0.17243 0.0
C913 C 0.22522 0.3697 0.17394 0.0
N914 N 0.15313 0.31198 0.13881 0.0
N915 N 0.24101 0.48977 0.13729 0.0
C916 C 0.17481 0.35566 0.14213 0.0
C917 C 0.21797 0.44672 0.13994 0.0
N918 N 0.09836 0.3701 0.08816 0.0
N919 N 0.29234 0.43299 0.20291 0.0
H920 H 0.22311 0.51255 0.11797 0.0
H921 H 0.2777 0.50283 0.15174 0.0
H922 H 0.31392 0.41332 0.22366 0.0
H923 H 0.30943 0.46574 0.20989 0.0
H924 H 0.07876 0.33874 0.09303 0.0
H925 H 0.07738 0.38901 0.06373 0.0
H926 H 0.1193 0.29776 0.11266 0.0
H927 H 0.17016 0.28942 0.16107 0.0
C928 C 0.72209 0.72984 0.89415 0.0
C929 C 0.75366 0.70836 0.9307 0.0
C930 C 0.79445 0.71508 0.88376 0.0
C931 C 0.76511 0.73857 0.84698 0.0
N932 N 0.70736 0.77689 0.82229 0.0
N933 N 0.83111 0.69915 0.96874 0.0
C934 C 0.73094 0.7491 0.8538 0.0
C935 C 0.79504 0.70979 0.92894 0.0
N936 N 0.68327 0.73033 0.89762 0.0
N937 N 0.81581 0.692 0.87406 0.0
H938 H 0.83049 0.69334 1.00208 0.0
H939 H 0.86263 0.70035 0.96875 0.0
H940 H 0.80925 0.68789 0.83931 0.0
H941 H 0.83327 0.67105 0.89956 0.0
H942 H 0.65604 0.74144 0.87 0.0
H943 H 0.67871 0.71857 0.92863 0.0
H944 H 0.6847 0.78806 0.82774 0.0
H945 H 0.71339 0.79123 0.79259 0.0
C946 C 0.60556 0.39127 0.13934 0.0
C947 C 0.65143 0.42012 0.16552 0.0
C948 C 0.61408 0.4703 0.16876 0.0
C949 C 0.57393 0.45009 0.12839 0.0
N950 N 0.52065 0.38292 0.09367 0.0
N951 N 0.6985 0.48153 0.21767 0.0
C952 C 0.56572 0.40672 0.12142 0.0
C953 C 0.65554 0.45727 0.18585 0.0
N954 N 0.60116 0.35082 0.12975 0.0
N955 N 0.61355 0.50538 0.1851 0.0
H956 H 0.73028 0.47551 0.22765 0.0
H957 H 0.70312 0.50834 0.23409 0.0
H958 H 0.58325 0.51578 0.16888 0.0
H959 H 0.64121 0.52247 0.21493 0.0
H960 H 0.56909 0.32867 0.10945 0.0
H961 H 0.63032 0.33904 0.14374 0.0
H962 H 0.51089 0.35079 0.08525 0.0
H963 H 0.49264 0.39615 0.08077 0.0
C964 C 0.9371 0.41021 0.40844 0.0
C965 C 0.96267 0.44955 0.39289 0.0
C966 C 0.93446 0.4151 0.31757 0.0
C967 C 0.91481 0.37392 0.33565 0.0
N968 N 0.91248 0.3321 0.40642 0.0
N969 N 0.99974 0.48033 0.33945 0.0
C970 C 0.92073 0.37142 0.38362 0.0
C971 C 0.96585 0.44914 0.34972 0.0
N972 N 0.92609 0.40937 0.44502 0.0
N973 N 0.92149 0.42378 0.26971 0.0
H974 H 1.02669 0.50305 0.36406 0.0
H975 H 1.005 0.47926 0.30978 0.0
H976 H 0.89401 0.40305 0.24316 0.0
H977 H 0.93325 0.45472 0.25607 0.0
H978 H 0.9043 0.38175 0.45447 0.0
H979 H 0.93348 0.43685 0.46205 0.0
H980 H 0.91954 0.3285 0.44252 0.0
H981 H 0.90527 0.30382 0.39091 0.0
C982 C 0.71225 0.61917 0.43183 0.0
C983 C 0.67038 0.62297 0.43497 0.0
C984 C 0.68273 0.68592 0.36634 0.0
C985 C 0.72656 0.68362 0.36539 0.0
N986 N 0.78093 0.64221 0.41146 0.0
N987 N 0.62424 0.67258 0.40047 0.0
C988 C 0.73931 0.64819 0.4022 0.0
C989 C 0.65874 0.65994 0.40026 0.0
N990 N 0.72665 0.58429 0.45737 0.0
N991 N 0.66118 0.71338 0.33197 0.0
H992 H 0.6064 0.65566 0.42114 0.0
H993 H 0.61604 0.70102 0.38374 0.0
H994 H 0.67564 0.73218 0.30915 0.0
H995 H 0.62759 0.71475 0.32325 0.0
H996 H 0.74975 0.57249 0.45353 0.0
H997 H 0.71151 0.56418 0.47912 0.0
H998 H 0.79909 0.6246 0.44104 0.0
H999 H 0.79951 0.6583 0.39149 0.0
C1000 C 0.97906 0.37247 0.87551 0.0
C1001 C 0.93324 0.37641 0.84366 0.0
C1002 C 0.9543 0.44621 0.8767 0.0
C1003 C 0.99914 0.44098 0.91097 0.0
N1004 N 1.05961 0.40692 0.93336 0.0
N1005 N 0.88687 0.42583 0.79977 0.0
C1006 C 1.01335 0.40664 0.90697 0.0
C1007 C 0.92409 0.41631 0.83927 0.0
N1008 N 0.98916 0.33544 0.87637 0.0
N1009 N 0.9385 0.47731 0.8816 0.0
H1010 H 0.86581 0.40612 0.77034 0.0
H1011 H 0.8811 0.45604 0.79331 0.0
H1012 H 0.95816 0.49966 0.90861 0.0
H1013 H 0.90381 0.47862 0.86096 0.0
H1014 H 1.01948 0.32782 0.90257 0.0
H1015 H 0.96612 0.31163 0.85101 0.0
H1016 H 0.07342 0.38478 0.92951 0.0
H1017 H 0.08533 0.43193 0.95622 0.0
C1018 C 0.89 0.89165 0.11547 0.0
C1019 C 0.90683 0.86322 0.15923 0.0
C1020 C 0.98169 0.89401 0.13348 0.0
C1021 C 0.96549 0.9247 0.09167 0.0
N1022 N 0.89915 0.95312 0.05702 0.0
N1023 N 0.98224 0.84978 0.20815 0.0
C1024 C 0.91835 0.92252 0.0879 0.0
C1025 C 0.95637 0.86851 0.16645 0.0
N1026 N 0.84321 0.88834 0.0968 0.0
N1027 N 1.02301 0.8877 0.14236 0.0
H1028 H 0.96785 0.83286 0.23158 0.0
H1029 H 1.01846 0.85458 0.22167 0.0
H1030 H 1.04223 0.9056 0.12336 0.0
H1031 H 1.03597 0.86321 0.1652 0.0
H1032 H 0.82495 0.90127 0.06326 0.0
H1033 H 0.82156 0.86852 0.11249 0.0
H1034 H 0.87111 0.96081 0.05609 0.0
H1035 H 0.91469 0.97411 0.03601 0.0
C1036 C 0.92029 0.15802 0.89737 0.0
C1037 C 0.91119 0.17437 0.84858 0.0
C1038 C 0.96157 0.1253 0.85683 0.0
C1039 C 0.96594 0.1059 0.90346 0.0
N1040 N 0.9325 0.09886 0.95808 0.0
N1041 N 0.91895 0.16136 0.78067 0.0
C1042 C 0.94035 0.12119 0.92031 0.0
C1043 C 0.93097 0.15444 0.82845 0.0
N1044 N 0.91247 0.17917 0.92445 0.0
N1045 N 0.98807 0.11719 0.83932 0.0
H1046 H 0.89632 0.17967 0.75853 0.0
H1047 H 0.92707 0.14503 0.7621 0.0
H1048 H 1.00915 0.09659 0.85746 0.0
H1049 H 0.99217 0.13359 0.80933 0.0
H1050 H 0.9224 0.17224 0.96097 0.0
H1051 H 0.90237 0.20737 0.91256 0.0
H1052 H 0.91047 0.10451 0.96955 0.0
H1053 H 0.94245 0.07082 0.97344 0.0
C1054 C 0.72836 0.14304 0.68726 0.0
C1055 C 0.71583 0.1789 0.6901 0.0
C1056 C 0.63446 0.14646 0.63036 0.0
C1057 C 0.65064 0.1175 0.61906 0.0
N1058 N 0.71605 0.09177 0.63428 0.0
N1059 N 0.6557 0.21327 0.66823 0.0
C1060 C 0.69815 0.11602 0.64738 0.0
C1061 C 0.66817 0.17981 0.6632 0.0
N1062 N 0.76913 0.13497 0.72193 0.0
N1063 N 0.58701 0.14189 0.60966 0.0
H1064 H 0.67903 0.23645 0.69425 0.0
H1065 H 0.6231 0.21878 0.64588 0.0
H1066 H 0.56191 0.11679 0.58667 0.0
H1067 H 0.57232 0.15993 0.61879 0.0
H1068 H 0.77785 0.10721 0.72298 0.0
H1069 H 0.79078 0.1525 0.75302 0.0
H1070 H 0.75194 0.09381 0.65072 0.0
H1071 H 0.69652 0.0729 0.60418 0.0
C1072 C 0.7972 1.01438 0.40423 0.0
C1073 C 0.75493 1.0048 0.40902 0.0
C1074 C 0.7183 0.94201 0.35892 0.0
C1075 C 0.75736 0.95585 0.3478 0.0
N1076 N 0.8343 1.00454 0.3587 0.0
N1077 N 0.67326 0.96195 0.38819 0.0
C1078 C 0.7973 0.99158 0.37059 0.0
C1079 C 0.71508 0.96891 0.38617 0.0
N1080 N 0.83694 0.04512 0.43199 0.0
N1081 N 0.68471 0.90284 0.34399 0.0
H1082 H 0.66898 0.9805 0.40808 0.0
H1083 H 0.64154 0.93967 0.36725 0.0
H1084 H 0.68577 0.88222 0.32359 0.0
H1085 H 0.65829 0.88893 0.35553 0.0
H1086 H 0.87017 0.05111 0.43344 0.0
H1087 H 0.83748 0.0622 0.45689 0.0
H1088 H 0.8623 0.03291 0.37037 0.0
H1089 H 0.83572 0.98813 0.33461 0.0
C1090 C 1.01131 0.14904 0.35646 0.0
C1091 C 1.02638 0.18194 0.38824 0.0
C1092 C 0.09998 0.16384 0.43693 0.0
C1093 C 0.07624 0.12311 0.41577 0.0
N1094 N 1.02074 0.08349 0.34465 0.0
N1095 N 0.09037 0.22963 0.45001 0.0
C1096 C 1.03677 0.11894 0.37076 0.0
C1097 C 0.07341 0.19328 0.42486 0.0
N1098 N 0.9702 0.14321 0.31537 0.0
N1099 N 0.14605 0.17214 0.4705 0.0
H1100 H 0.07074 0.2513 0.44063 0.0
H1101 H 0.12327 0.23815 0.47957 0.0
H1102 H 0.16423 0.14927 0.47943 0.0
H1103 H 0.16655 0.20198 0.48639 0.0
H1104 H 0.94938 0.16414 0.30366 0.0
H1105 H 0.94938 0.16414 0.30366 0.0
H1106 H 0.99027 0.07817 0.31194 0.0
H1107 H 1.03936 0.06068 0.35607 0.0
C1108 C 0.65574 0.14788 0.17586 0.0
C1109 C 0.69978 0.17499 0.17677 0.0
C1110 C 0.69147 0.12802 0.11982 0.0
C1111 C 0.64792 0.10003 0.11928 0.0
N1112 N 0.58083 0.09466 0.13173 0.0
N1113 N 0.74169 0.20203 0.12753 0.0
C1114 C 0.62784 0.11304 0.14329 0.0
C1115 C 0.71222 0.16867 0.1419 0.0
N1116 N 0.63938 0.15625 0.20436 0.0
N1117 N 0.71462 0.11564 0.10126 0.0
H1118 H 0.75168 0.23388 0.13709 0.0
H1119 H 0.74945 0.19936 0.10012 0.0
H1120 H 0.70229 0.08558 0.08669 0.0
H1121 H 0.74869 0.13351 0.10527 0.0
H1122 H 0.61133 0.13423 0.21041 0.0
H1123 H 0.65386 0.18533 0.22186 0.0
H1124 H 0.5627 0.10477 0.14482 0.0
H1125 H 0.55876 0.07355 0.10359 0.0
C1126 C 0.76142 0.85201 0.9658 0.0
C1127 C 0.7875 0.89224 0.95258 0.0
C1128 C 0.75726 0.93107 0.98382 0.0
C1129 C 0.73022 0.89091 0.9964 0.0
N1130 N 0.69885 0.81323 0.9898 0.0
N1131 N 0.81025 0.97051 0.94853 0.0
C1132 C 0.73007 0.85137 0.98459 0.0
C1133 C 0.78508 0.93173 0.96113 0.0
N1134 N 0.76809 0.81437 0.96227 0.0
N1135 N 0.75686 0.9697 0.99257 0.0
H1136 H 0.83174 0.97285 0.93221 0.0
H1137 H 0.80967 1.00029 0.95468 0.0
H1138 H 0.7368 0.97267 1.00819 0.0
H1139 H 0.7368 0.97267 1.00819 0.0
H1140 H 0.75578 0.78492 0.97795 0.0
H1141 H 0.78915 0.8131 0.94694 0.0
H1142 H 0.69247 0.78426 0.97577 0.0
H1143 H 0.67661 0.81098 1.00511 0.0
C1144 C 0.96215 0.88463 0.66977 0.0
C1145 C 0.92236 0.88718 0.62528 0.0
C1146 C 0.87409 0.82045 0.64668 0.0
C1147 C 0.90775 0.82728 0.69521 0.0
N1148 N 0.99143 0.84734 0.74791 0.0
N1149 N 0.86366 0.83538 0.56499 0.0
C1150 C 0.95479 0.85332 0.70535 0.0
C1151 C 0.884 0.8487 0.61067 0.0
N1152 N 1.00621 0.9112 0.67664 0.0
N1153 N 0.83408 0.78613 0.63531 0.0
H1154 H 0.87956 0.84991 0.54213 0.0
H1155 H 0.83728 0.80603 0.55321 0.0
H1156 H 0.83098 0.76155 0.66083 0.0
H1157 H 0.80571 0.782 0.60113 0.0
H1158 H 1.03684 0.91297 0.70862 0.0
H1159 H 1.01181 0.93097 0.64871 0.0
H1160 H 1.02666 0.86592 0.75865 0.0
H1161 H 0.98655 0.82092 0.77112 0.0
C1162 C 0.23353 0.87865 0.80742 0.0
C1163 C 0.23037 0.83277 0.81108 0.0
C1164 C 0.1824 0.82699 0.85895 0.0
C1165 C 0.18252 0.87215 0.85226 0.0
N1166 N 0.20669 0.93851 0.81144 0.0
N1167 N 0.19169 0.76369 0.83711 0.0
C1168 C 0.20818 0.89684 0.82437 0.0
C1169 C 0.20215 0.80767 0.83632 0.0
N1170 N 0.26228 0.90628 0.78809 0.0
N1171 N 0.16516 0.8018 0.88978 0.0
H1172 H 0.20422 0.74858 0.82188 0.0
H1173 H 0.16709 0.74218 0.84846 0.0
H1174 H 0.15158 0.81358 0.90685 0.0
H1175 H 0.16861 0.77094 0.90216 0.0
H1176 H 0.2728 0.93987 0.78959 0.0
H1177 H 0.27911 0.89543 0.77402 0.0
H1178 H 0.21917 0.95812 0.78761 0.0
H1179 H 0.18857 0.9523 0.82099 0.0
C1180 C 0.95296 0.51436 0.59641 0.0
C1181 C 0.94292 0.50796 0.54908 0.0
C1182 C 0.85843 0.47884 0.5283 0.0
C1183 C 0.8717 0.47567 0.57784 0.0
N1184 N 0.91771 0.52337 0.64397 0.0
N1185 N 0.88508 0.49888 0.46569 0.0
C1186 C 0.91429 0.50537 0.60677 0.0
C1187 C 0.89502 0.49574 0.51309 0.0
N1188 N 0.99833 0.52647 0.63154 0.0
N1189 N 0.81245 0.45958 0.49801 0.0
H1190 H 0.91147 0.51024 0.45391 0.0
H1191 H 0.85084 0.49249 0.43795 0.0
H1192 H 0.78685 0.44631 0.5109 0.0
H1193 H 0.80043 0.45586 0.46171 0.0
H1194 H 1.00609 0.52873 0.66719 0.0
H1195 H 1.02751 0.53005 0.62572 0.0
H1196 H 0.94837 0.54664 0.66506 0.0
H1197 H 0.88784 0.51839 0.64925 0.0
C1198 C 0.47058 0.13576 0.36902 0.0
C1199 C 0.48297 0.12506 0.41958 0.0
C1200 C 0.42856 0.17065 0.40659 0.0
C1201 C 0.42086 0.18558 0.35784 0.0
N1202 N 0.44474 0.18386 0.29773 0.0
N1203 N 0.47711 0.14343 0.48592 0.0
C1204 C 0.44472 0.16815 0.34087 0.0
C1205 C 0.46248 0.14564 0.43764 0.0
N1206 N 0.48139 0.11314 0.34608 0.0
N1207 N 0.40116 0.17813 0.42346 0.0
H1208 H 0.50175 0.12746 0.50948 0.0
H1209 H 0.46893 0.16135 0.50286 0.0
H1210 H 0.37523 0.19362 0.40273 0.0
H1211 H 0.40012 0.16441 0.4556 0.0
H1212 H 0.46908 0.11453 0.30901 0.0
H1213 H 0.49824 0.08931 0.36343 0.0
H1214 H 0.46537 0.17741 0.285 0.0
H1215 H 0.42787 0.20694 0.27685 0.0
C1216 C 0.66032 0.66926 0.07423 0.0
C1217 C 0.65101 0.62473 0.08889 0.0
C1218 C 0.71777 0.64273 0.16845 0.0
C1219 C 0.72466 0.68708 0.15506 0.0
N1220 N 0.71375 0.74261 0.09288 0.0
N1221 N 0.68135 0.56902 0.14324 0.0
C1222 C 0.69973 0.70029 0.10691 0.0
C1223 C 0.68313 0.61149 0.13387 0.0
N1224 N 0.63006 0.68212 0.0305 0.0
N1225 N 0.74218 0.63041 0.21504 0.0
H1226 H 0.65549 0.54527 0.11943 0.0
H1227 H 0.70864 0.55863 0.17158 0.0
H1228 H 0.76909 0.65257 0.24084 0.0
H1229 H 0.73413 0.59866 0.22853 0.0
H1230 H 0.63166 0.71441 0.0199 0.0
H1231 H 0.60162 0.66032 1.00528 0.0
H1232 H 0.70019 0.75355 0.05737 0.0
H1233 H 0.74241 0.7658 0.11633 0.0
C1234 C 0.23027 0.13366 0.69451 0.0
C1235 C 0.23544 0.17672 0.67481 0.0
C1236 C 0.16687 0.15041 0.59968 0.0
C1237 C 0.16437 0.10704 0.61761 0.0
N1238 N 0.19939 0.0569 0.67878 0.0
N1239 N 0.21604 0.22493 0.60545 0.0
C1240 C 0.19817 0.09847 0.66393 0.0
C1241 C 0.20657 0.18453 0.62609 0.0
N1242 N 0.25346 0.12643 0.7428 0.0
N1243 N 0.12945 0.15966 0.56008 0.0
H1244 H 0.24472 0.25093 0.62409 0.0
H1245 H 0.19824 0.23099 0.56878 0.0
H1246 H 0.09793 0.13618 0.54102 0.0
H1247 H 0.12753 0.1912 0.54962 0.0
H1248 H 0.2472 0.09599 0.7597 0.0
H1249 H 0.27587 0.15155 0.76639 0.0
H1250 H 0.2262 0.04929 0.71055 0.0
H1251 H 0.1759 0.03034 0.65735 0.0
C1252 C 0.74898 0.33749 0.36703 0.0
C1253 C 0.72918 0.32478 0.31778 0.0
C1254 C 0.66305 0.35705 0.30601 0.0
C1255 C 0.68058 0.36612 0.35614 0.0
N1256 N 0.7402 0.35405 0.4345 0.0
N1257 N 0.65855 0.31825 0.24362 0.0
C1258 C 0.72369 0.35338 0.38608 0.0
C1259 C 0.68392 0.33382 0.28868 0.0
N1260 N 0.79422 0.33635 0.39659 0.0
N1261 N 0.62688 0.3728 0.27309 0.0
H1262 H 0.67161 0.30257 0.22953 0.0
H1263 H 0.62309 0.31686 0.22249 0.0
H1264 H 0.61234 0.39069 0.28269 0.0
H1265 H 0.61461 0.37205 0.23624 0.0
H1266 H 0.8141 0.34977 0.43032 0.0
H1267 H 0.81361 0.32599 0.38532 0.0
H1268 H 0.76723 0.34111 0.45925 0.0
H1269 H 0.72331 0.36318 0.44991 0.0
C1270 C 0.4115 0.97482 1.0071 0.0
C1271 C 0.45628 0.98785 0.04775 0.0
C1272 C 0.4162 0.99899 0.08927 0.0
C1273 C 0.37369 0.97162 0.05678 0.0
N1274 N 0.32622 0.96388 0.97279 0.0
N1275 N 0.50049 1.01018 0.13002 0.0
C1276 C 0.36993 0.97159 1.01082 0.0
C1277 C 0.4588 1.00036 0.0895 0.0
N1278 N 0.40847 0.96163 0.96729 0.0
N1279 N 0.41537 1.02298 0.11912 0.0
H1280 H 0.53138 1.00666 0.13274 0.0
H1281 H 0.5026 1.01706 0.16195 0.0
H1282 H 0.38319 1.02274 0.11697 0.0
H1283 H 0.44578 0.04541 0.14184 0.0
H1284 H 0.37638 0.94903 0.93803 0.0
H1285 H 0.43812 0.95926 0.96615 0.0
H1286 H 0.32057 0.96513 0.93732 0.0
H1287 H 0.29632 0.9594 0.9779 0.0
C1288 C 0.9732 0.65455 0.93772 0.0
C1289 C 0.98444 0.62658 0.91727 0.0
C1290 C 0.94013 0.66511 0.83688 0.0
C1291 C 0.9264 0.69118 0.85692 0.0
N1292 N 0.92972 0.70414 0.93098 0.0
N1293 N 0.96736 0.60293 0.84176 0.0
C1294 C 0.94349 0.68397 0.90861 0.0
C1295 C 0.96482 0.63183 0.86533 0.0
N1296 N 0.99245 0.65444 0.9865 0.0
N1297 N 0.93191 0.67364 0.79003 0.0
H1298 H 0.98342 0.57864 0.85968 0.0
H1299 H 0.94944 0.60003 0.80471 0.0
H1300 H 0.91598 0.69723 0.76886 0.0
H1301 H 0.9452 0.66084 0.77357 0.0
H1302 H 0.99392 0.67781 1.00551 0.0
H1303 H 1.01016 0.6324 1.00845 0.0
H1304 H 0.9337 0.69655 0.96593 0.0
H1305 H 0.91055 0.72619 0.91353 0.0
C1306 C 0.46257 0.42301 0.19749 0.0
C1307 C 0.43333 0.41809 0.1479 0.0
C1308 C 0.38054 0.352 0.16324 0.0
C1309 C 0.40276 0.36178 0.21303 0.0
N1310 N 0.46459 0.41257 0.27547 0.0
N1311 N 0.39393 0.36041 0.09307 0.0
C1312 C 0.44449 0.39832 0.23007 0.0
C1313 C 0.40191 0.37667 0.13375 0.0
N1314 N 0.50939 0.44571 0.2134 0.0
N1315 N 0.337 0.32265 0.14196 0.0
H1316 H 0.41165 0.37799 0.0725 0.0
H1317 H 0.37423 0.32839 0.08337 0.0
H1318 H 0.31528 0.30757 0.15858 0.0
H1319 H 0.31943 0.31789 0.10512 0.0
H1320 H 0.53362 0.44681 0.24955 0.0
H1321 H 0.52458 0.45731 0.18957 0.0
H1322 H 0.49276 0.44096 0.28698 0.0
H1323 H 0.44994 0.40022 0.29949 0.0
C1324 C 0.5304 0.64486 0.86864 0.0
C1325 C 0.52814 0.60183 0.86689 0.0
C1326 C 0.44303 0.58046 0.82372 0.0
C1327 C 0.44434 0.61907 0.83865 0.0
N1328 N 0.4859 0.69523 0.85308 0.0
N1329 N 0.48945 0.54832 0.80773 0.0
C1330 C 0.4871 0.65429 0.85282 0.0
C1331 C 0.48666 0.57655 0.8315 0.0
N1332 N 0.57361 0.67379 0.8921 0.0
N1333 N 0.40238 0.54686 0.80638 0.0
H1334 H 0.52249 0.5466 0.81431 0.0
H1335 H 0.45981 0.53018 0.7797 0.0
H1336 H 0.36989 0.5479 0.80188 0.0
H1337 H 0.40212 0.51709 0.79929 0.0
H1338 H 0.57867 0.70526 0.89917 0.0
H1339 H 0.60438 0.66453 0.90537 0.0
H1340 H 0.51569 0.72236 0.86179 0.0
H1341 H 0.4539 0.70207 0.84075 0.0
C1342 C 0.12423 0.63216 0.62945 0.0
C1343 C 0.13435 0.61886 0.59625 0.0
C1344 C 0.20989 0.67742 0.6237 0.0
C1345 C 0.20398 0.68463 0.66295 0.0
N1346 N 0.15551 0.66601 0.70489 0.0
N1347 N 0.19201 0.62637 0.56733 0.0
C1348 C 0.16088 0.66154 0.66605 0.0
C1349 C 0.1782 0.64126 0.5942 0.0
N1350 N 0.07907 0.61774 0.62505 0.0
N1351 N 0.2459 0.70535 0.61419 0.0
H1352 H 0.17219 0.59867 0.54724 0.0
H1353 H 0.2258 0.6391 0.56883 0.0
H1354 H 0.27182 0.73003 0.6369 0.0
H1355 H 0.24827 0.70539 0.58252 0.0
H1356 H 1.0684 0.62878 0.6456 0.0
H1357 H 1.05112 0.59877 0.59678 0.0
H1358 H 0.12736 0.646 0.71206 0.0
H1359 H 0.18091 0.68777 0.73176 0.0
C1360 C 0.40807 0.39817 0.63079 0.0
C1361 C 0.41557 0.35988 0.66584 0.0
C1362 C 0.48654 0.37971 0.637 0.0
C1363 C 0.47884 0.41707 0.60126 0.0
N1364 N 0.42781 0.46146 0.57645 0.0
N1365 N 0.46529 0.31445 0.68673 0.0
C1366 C 0.43785 0.42509 0.60219 0.0
C1367 C 0.45609 0.35204 0.66386 0.0
N1368 N 0.3692 0.40898 0.62246 0.0
N1369 N 0.52724 0.3705 0.64844 0.0
H1370 H 0.44744 0.29457 0.70614 0.0
H1371 H 0.48654 0.30054 0.68229 0.0
H1372 H 0.54863 0.38567 0.63095 0.0
H1373 H 0.54237 0.35128 0.67814 0.0
H1374 H 0.35515 0.43074 0.59563 0.0
H1375 H 0.34877 0.39342 0.64083 0.0
H1376 H 0.40548 0.47581 0.57812 0.0
H1377 H 0.44553 0.47934 0.55597 0.0
C1378 C 0.19194 0.69793 0.14261 0.0
C1379 C 0.22204 0.68202 0.18749 0.0
C1380 C 0.17369 0.60697 0.16258 0.0
C1381 C 0.14903 0.62332 0.11579 0.0
N1382 N 0.11824 0.68183 0.07008 0.0
N1383 N 0.24139 0.62149 0.24101 0.0
C1384 C 0.15286 0.66804 0.10885 0.0
C1385 C 0.21227 0.63648 0.198 0.0
N1386 N 0.20293 0.74107 0.12957 0.0
N1387 N 0.15862 0.56393 0.17382 0.0
H1388 H 0.26876 0.64205 0.26822 0.0
H1389 H 0.2402 0.58902 0.24902 0.0
H1390 H 0.12733 0.54294 0.15039 0.0
H1391 H 0.17304 0.55012 0.20806 0.0
H1392 H 0.18577 0.75302 0.09488 0.0
H1393 H 0.23165 0.76504 0.15128 0.0
H1394 H 0.11578 0.71322 0.06561 0.0
H1395 H 0.08882 0.66035 0.04539 0.0
C1396 C 0.713 0.39924 0.70344 0.0
C1397 C 0.73416 0.38016 0.68414 0.0
C1398 C 0.70434 0.43266 0.6118 0.0
C1399 C 0.67745 0.44695 0.62783 0.0
N1400 N 0.65391 0.43459 0.69109 0.0
N1401 N 0.73478 0.3761 0.609 0.0
C1402 C 0.68153 0.42747 0.67436 0.0
C1403 C 0.72548 0.39656 0.63541 0.0
N1404 N 0.72448 0.3924 0.75111 0.0
N1405 N 0.71227 0.45523 0.57414 0.0
H1406 H 0.74565 0.34832 0.62126 0.0
H1407 H 0.72536 0.38305 0.57257 0.0
H1408 H 0.70127 0.48266 0.55811 0.0
H1409 H 0.73521 0.45043 0.56334 0.0
H1410 H 0.71534 0.40827 0.76913 0.0
H1411 H 0.74766 0.37475 0.77377 0.0
H1412 H 0.64959 0.41792 0.72089 0.0
H1413 H 0.63214 0.45453 0.6725 0.0
C1414 C 0.9439 0.66877 0.16232 0.0
C1415 C 0.98367 0.6803 0.20726 0.0
C1416 C 1.02383 0.63862 0.19492 0.0
C1417 C 0.98292 0.62471 0.15119 0.0
N1418 N 0.91114 0.63607 0.08603 0.0
N1419 N 1.0666 0.69093 0.25755 0.0
C1420 C 0.94525 0.64316 0.13229 0.0
C1421 C 1.02564 0.67045 0.22031 0.0
N1422 N 0.90412 0.68017 0.14995 0.0
N1423 N 1.05914 0.61927 0.21392 0.0
H1424 H 1.06788 0.71402 0.27696 0.0
H1425 H 0.0996 0.68852 0.2654 0.0
H1426 H 1.05865 0.59449 0.19743 0.0
H1427 H 0.08722 0.62538 0.24805 0.0
H1428 H 0.87189 0.66818 0.1205 0.0
H1429 H 0.90296 0.7006 0.17048 0.0
H1430 H 0.88493 0.65163 0.06902 0.0
H1431 H 0.91152 0.61732 0.06323 0.0
C1432 C 0.87575 0.62422 0.54069 0.0
C1433 C 0.90955 0.66457 0.53919 0.0
C1434 C 0.88802 0.69821 0.58468 0.0
C1435 C 0.85254 0.65851 0.58395 0.0
N1436 N 0.81639 0.58229 0.56862 0.0
N1437 N 0.94679 0.74047 0.5562 0.0
C1438 C 0.84735 0.62106 0.56388 0.0
C1439 C 0.91577 0.70165 0.56067 0.0
N1440 N 0.86988 0.58944 0.5184 0.0
N1441 N 0.89578 0.73216 0.60942 0.0
H1442 H 0.96844 0.7438 0.53976 0.0
H1443 H 0.94968 0.76999 0.56629 0.0
H1444 H 0.87559 0.7311 0.62671 0.0
H1445 H 0.92393 0.76054 0.61569 0.0
H1446 H 0.84166 0.56114 0.51188 0.0
H1447 H 0.8922 0.58946 0.50403 0.0
H1448 H 0.81387 0.55259 0.55928 0.0
H1449 H 0.79443 0.57921 0.58461 0.0
C1450 C 0.46482 0.6262 0.35475 0.0
C1451 C 0.46683 0.60661 0.40055 0.0
C1452 C 0.42247 0.66036 0.39262 0.0
C1453 C 0.41529 0.67667 0.34429 0.0
N1454 N 0.42444 0.66214 0.2778 0.0
N1455 N 0.43032 0.60025 0.45233 0.0
C1456 C 0.43527 0.6558 0.32535 0.0
C1457 C 0.44061 0.6226 0.41588 0.0
N1458 N 0.4926 0.61793 0.33903 0.0
N1459 N 0.41457 0.68225 0.41897 0.0
H1460 H 0.43855 0.57147 0.46762 0.0
H1461 H 0.40788 0.60681 0.46253 0.0
H1462 H 0.40588 0.71111 0.40699 0.0
H1463 H 0.42322 0.67508 0.45525 0.0
H1464 H 0.49816 0.63452 0.3098 0.0
H1465 H 0.51339 0.59723 0.35798 0.0
H1466 H 0.43304 0.64517 0.2603 0.0
H1467 H 0.40202 0.68027 0.2546 0.0
C1468 C 0.14337 0.47173 0.73799 0.0
C1469 C 0.16738 0.44045 0.7637 0.0
C1470 C 0.17364 0.45807 0.83831 0.0
C1471 C 0.15651 0.49382 0.81387 0.0
N1472 N 0.1267 0.53672 0.74145 0.0
N1473 N 0.20918 0.40545 0.83867 0.0
C1474 C 0.14132 0.50106 0.7638 0.0
C1475 C 0.18315 0.43367 0.81393 0.0
N1476 N 0.12213 0.47281 0.68903 0.0
N1477 N 0.18022 0.44717 0.88462 0.0
H1478 H 0.21611 0.38599 0.82214 0.0
H1479 H 0.22678 0.40343 0.87596 0.0
H1480 H 0.17396 0.46451 0.90401 0.0
H1481 H 0.18773 0.41871 0.90244 0.0
H1482 H 0.09989 0.49181 0.66817 0.0
H1483 H 0.12315 0.45141 0.66945 0.0
H1484 H 0.12012 0.54636 0.70603 0.0
H1485 H 0.12399 0.55837 0.75936 0.0
C1486 C 0.29202 0.43464 0.49225 0.0
C1487 C 0.28479 0.39405 0.47681 0.0
C1488 C 0.22649 0.35887 0.50888 0.0
C1489 C 0.2305 0.4001 0.52032 0.0
N1490 N 0.27108 0.47784 0.52601 0.0
N1491 N 0.24384 0.31738 0.46747 0.0
C1492 C 0.26446 0.43785 0.51346 0.0
C1493 C 0.25184 0.35601 0.48459 0.0
N1494 N 0.32452 0.47089 0.48555 0.0
N1495 N 0.19973 0.32235 0.52299 0.0
H1496 H 0.2633 0.31339 0.45165 0.0
H1497 H 0.21611 0.2897 0.46615 0.0
H1498 H 0.1818 0.3232 0.54207 0.0
H1499 H 0.19857 0.29118 0.5196 0.0
H1500 H 0.33057 0.50147 0.49613 0.0
H1501 H 0.34554 0.47028 0.46984 0.0
H1502 H 0.25181 0.48437 0.54046 0.0
H1503 H 0.25181 0.48437 0.54046 0.0
loop_
_geom_bond_atom_site_label_1
_geom_bond_atom_site_label_2
_geom_bond_distance
_geom_bond_site_symmetry_2
_ccdc_geom_bond_type
C0 Eu1 2.835 . S
C0 C2 1.500 1_455 S
C0 O20 1.257 1_455 S
C0 O21 1.260 . S
Eu1 C0 2.835 . S
Eu1 O20 2.473 1_455 S
Eu1 O21 2.480 . S
Eu1 O22 2.430 . S
Eu1 O23 2.670 1_554 S
Eu1 O24 2.394 1_454 S
Eu1 O29 2.355 1_445 S
Eu1 O31 2.374 1_545 S
C2 C0 1.500 1_655 S
C2 C3 1.377 1_655 S
C2 C7 1.377 . S
C3 C2 1.377 1_455 S
C3 C4 1.395 . S
C3 H32 0.931 . S
C4 C3 1.395 . S
C4 C5 1.383 1_455 S
C4 H33 0.931 . S
C5 C4 1.383 1_655 S
C5 C6 1.394 . S
C6 C5 1.394 . S
C6 C7 1.378 . S
C6 H34 0.931 . S
C7 C2 1.377 . S
C7 C6 1.378 . S
C7 H35 0.931 . S
C8 O22 1.259 1_556 S
C8 O23 1.270 . S
C9 O24 1.251 . S
C9 O25 1.251 . S
C10 Eu11 2.847 . S
C10 C12 1.488 1_655 S
C10 O26 1.256 1_655 S
C10 O27 1.274 . S
Eu11 C10 2.847 . S
Eu11 O23 2.355 1_665 S
Eu11 O25 2.374 1_565 S
Eu11 O26 2.473 1_655 S
Eu11 O27 2.480 . S
Eu11 O28 2.430 . S
Eu11 O29 2.670 1_556 S
Eu11 O30 2.394 1_656 S
C12 C10 1.488 1_455 S
C12 C13 1.377 1_455 S
C12 C17 1.377 . S
C13 C12 1.377 1_655 S
C13 C14 1.395 . S
C13 H36 0.931 . S
C14 C13 1.395 . S
C14 C15 1.383 1_655 S
C14 H37 0.931 . S
C15 C14 1.383 1_455 S
C15 C16 1.394 . S
C16 C15 1.394 . S
C16 C17 1.378 . S
C16 H38 0.931 . S
C17 C12 1.377 . S
C17 C16 1.378 . S
C17 H39 0.931 . S
C18 O28 1.259 1_554 S
C18 O29 1.270 . S
C19 O30 1.251 . S
C19 O31 1.251 . S
O20 C0 1.257 1_655 S
O20 Eu1 2.473 1_655 S
O21 C0 1.260 . S
O21 Eu1 2.480 . S
O22 Eu1 2.430 . S
O22 C8 1.259 1_554 S
O23 Eu1 2.670 1_556 S
O23 C8 1.270 . S
O23 Eu11 2.355 1_445 S
O24 Eu1 2.394 1_656 S
O24 C9 1.251 . S
O25 C9 1.251 . S
O25 Eu11 2.374 1_545 S
O26 C10 1.256 1_455 S
O26 Eu11 2.473 1_455 S
O27 C10 1.274 . S
O27 Eu11 2.480 . S
O28 Eu11 2.430 . S
O28 C18 1.259 1_556 S
O29 Eu1 2.355 1_665 S
O29 Eu11 2.670 1_554 S
O29 C18 1.270 . S
O30 Eu11 2.394 1_454 S
O30 C19 1.251 . S
O31 Eu1 2.374 1_565 S
O31 C19 1.251 . S
H32 C3 0.931 . S
H33 C4 0.931 . S
H34 C6 0.931 . S
H35 C7 0.931 . S
H36 C13 0.931 . S
H37 C14 0.931 . S
H38 C16 0.931 . S
H39 C17 0.931 . S
C40 Eu41 2.835 . S
C40 C42 1.500 . S
C40 O60 1.257 . S
C40 O61 1.260 . S
Eu41 C40 2.835 . S
Eu41 O60 2.473 . S
Eu41 O61 2.480 . S
Eu41 O62 2.430 . S
Eu41 O63 2.670 . S
Eu41 O64 2.394 . S
Eu41 O69 2.355 . S
Eu41 O71 2.374 . S
C42 C40 1.500 . S
C42 C43 1.377 . S
C42 C47 1.377 . S
C43 C42 1.377 . S
C43 C44 1.395 . S
C43 H72 0.931 . S
C44 C43 1.395 . S
C44 C45 1.383 . S
C44 H73 0.931 . S
C45 C44 1.383 . S
C45 C46 1.394 . S
C46 C45 1.394 . S
C46 C47 1.378 . S
C46 H74 0.931 . S
C47 C42 1.377 . S
C47 C46 1.378 . S
C47 H75 0.931 . S
C48 O62 1.259 . S
C48 O63 1.270 . S
C49 O64 1.251 . S
C49 O65 1.251 . S
C50 Eu51 2.835 . S
C50 C52 1.500 . S
C50 O66 1.257 . S
C50 O67 1.260 . S
Eu51 C50 2.835 . S
Eu51 O63 2.355 . S
Eu51 O65 2.374 . S
Eu51 O66 2.473 . S
Eu51 O67 2.480 . S
Eu51 O68 2.430 . S
Eu51 O69 2.670 . S
Eu51 O70 2.394 . S
C52 C50 1.500 . S
C52 C53 1.377 . S
C52 C57 1.377 . S
C53 C52 1.377 . S
C53 C54 1.395 . S
C53 H76 0.931 . S
C54 C53 1.395 . S
C54 C55 1.383 . S
C54 H77 0.931 . S
C55 C54 1.383 . S
C55 C56 1.394 . S
C56 C55 1.394 . S
C56 C57 1.378 . S
C56 H78 0.931 . S
C57 C52 1.377 . S
C57 C56 1.378 . S
C57 H79 0.931 . S
C58 O68 1.259 . S
C58 O69 1.270 . S
C59 O70 1.251 . S
C59 O71 1.251 . S
O60 C40 1.257 . S
O60 Eu41 2.473 . S
O61 C40 1.260 . S
O61 Eu41 2.480 . S
O62 Eu41 2.430 . S
O62 C48 1.259 . S
O63 Eu41 2.670 . S
O63 C48 1.270 . S
O63 Eu51 2.355 . S
O64 Eu41 2.394 . S
O64 C49 1.251 . S
O65 C49 1.251 . S
O65 Eu51 2.374 . S
O66 C50 1.257 . S
O66 Eu51 2.473 . S
O67 C50 1.260 . S
O67 Eu51 2.480 . S
O68 Eu51 2.430 . S
O68 C58 1.259 . S
O69 Eu41 2.355 . S
O69 Eu51 2.670 . S
O69 C58 1.270 . S
O70 Eu51 2.394 . S
O70 C59 1.251 . S
O71 Eu41 2.374 . S
O71 C59 1.251 . S
H72 C43 0.931 . S
H73 C44 0.931 . S
H74 C46 0.931 . S
H75 C47 0.931 . S
H76 C53 0.931 . S
H77 C54 0.931 . S
H78 C56 0.931 . S
H79 C57 0.931 . S
C80 Eu81 2.835 1_565 S
C80 C82 1.500 . S
C80 O100 1.257 . S
C80 O101 1.260 1_565 S
Eu81 C80 2.835 1_545 S
Eu81 O100 2.473 1_545 S
Eu81 O101 2.480 . S
Eu81 O102 2.430 . S
Eu81 O103 2.670 . S
Eu81 O104 2.394 1_545 S
Eu81 O109 2.355 1_545 S
Eu81 O111 2.374 . S
C82 C80 1.500 . S
C82 C83 1.377 . S
C82 C87 1.377 . S
C83 C82 1.377 . S
C83 C84 1.395 . S
C83 H112 0.931 1_565 S
C84 C83 1.395 . S
C84 C85 1.383 . S
C84 H113 0.931 . S
C85 C84 1.383 . S
C85 C86 1.394 . S
C86 C85 1.394 . S
C86 C87 1.378 . S
C86 H114 0.931 . S
C87 C82 1.377 . S
C87 C86 1.378 . S
C87 H115 0.931 . S
C88 O102 1.259 . S
C88 O103 1.270 . S
C89 O104 1.251 . S
C89 O105 1.251 . S
C90 Eu91 2.835 1_545 S
C90 C92 1.500 . S
C90 O106 1.257 . S
C90 O107 1.260 1_545 S
Eu91 C90 2.835 1_565 S
Eu91 O103 2.355 1_565 S
Eu91 O105 2.374 . S
Eu91 O106 2.473 1_565 S
Eu91 O107 2.480 . S
Eu91 O108 2.430 . S
Eu91 O109 2.670 . S
Eu91 O110 2.394 1_565 S
C92 C90 1.500 . S
C92 C93 1.377 . S
C92 C97 1.377 . S
C93 C92 1.377 . S
C93 C94 1.395 . S
C93 H116 0.931 1_545 S
C94 C93 1.395 . S
C94 C95 1.383 . S
C94 H117 0.931 . S
C95 C94 1.383 . S
C95 C96 1.394 . S
C96 C95 1.394 . S
C96 C97 1.378 . S
C96 H118 0.931 . S
C97 C92 1.377 . S
C97 C96 1.378 . S
C97 H119 0.931 . S
C98 O108 1.259 . S
C98 O109 1.270 . S
C99 O110 1.251 . S
C99 O111 1.251 . S
O100 C80 1.257 . S
O100 Eu81 2.473 1_565 S
O101 C80 1.260 1_545 S
O101 Eu81 2.480 . S
O102 Eu81 2.430 . S
O102 C88 1.259 . S
O103 Eu81 2.670 . S
O103 C88 1.270 . S
O103 Eu91 2.355 1_545 S
O104 Eu81 2.394 1_565 S
O104 C89 1.251 . S
O105 C89 1.251 . S
O105 Eu91 2.374 . S
O106 C90 1.257 . S
O106 Eu91 2.473 1_545 S
O107 C90 1.260 1_565 S
O107 Eu91 2.480 . S
O108 Eu91 2.430 . S
O108 C98 1.259 . S
O109 Eu81 2.355 1_565 S
O109 Eu91 2.670 . S
O109 C98 1.270 . S
O110 Eu91 2.394 1_545 S
O110 C99 1.251 . S
O111 Eu81 2.374 . S
O111 C99 1.251 . S
H112 C83 0.931 1_545 S
H113 C84 0.931 . S
H114 C86 0.931 . S
H115 C87 0.931 . S
H116 C93 0.931 1_565 S
H117 C94 0.931 . S
H118 C96 0.931 . S
H119 C97 0.931 . S
C120 Eu121 2.835 . S
C120 C122 1.500 . S
C120 O140 1.257 . S
C120 O141 1.260 . S
Eu121 C120 2.835 . S
Eu121 O140 2.473 . S
Eu121 O141 2.480 . S
Eu121 O142 2.430 . S
Eu121 O143 2.670 . S
Eu121 O144 2.394 . S
Eu121 O149 2.355 . S
Eu121 O151 2.374 . S
C122 C120 1.500 . S
C122 C123 1.377 . S
C122 C127 1.377 . S
C123 C122 1.377 . S
C123 C124 1.395 . S
C123 H152 0.931 . S
C124 C123 1.395 . S
C124 C125 1.383 . S
C124 H153 0.931 . S
C125 C124 1.383 . S
C125 C126 1.394 . S
C126 C125 1.394 . S
C126 C127 1.378 . S
C126 H154 0.931 . S
C127 C122 1.377 . S
C127 C126 1.378 . S
C127 H155 0.931 . S
C128 O142 1.259 . S
C128 O143 1.270 . S
C129 O144 1.251 . S
C129 O145 1.251 . S
C130 Eu131 2.835 . S
C130 C132 1.500 . S
C130 O146 1.257 . S
C130 O147 1.260 . S
Eu131 C130 2.835 . S
Eu131 O143 2.355 . S
Eu131 O145 2.374 . S
Eu131 O146 2.473 . S
Eu131 O147 2.480 . S
Eu131 O148 2.430 . S
Eu131 O149 2.670 . S
Eu131 O150 2.394 . S
C132 C130 1.500 . S
C132 C133 1.377 . S
C132 C137 1.377 . S
C133 C132 1.377 . S
C133 C134 1.395 . S
C133 H156 0.931 . S
C134 C133 1.395 . S
C134 C135 1.383 . S
C134 H157 0.931 . S
C135 C134 1.383 . S
C135 C136 1.394 . S
C136 C135 1.394 . S
C136 C137 1.378 . S
C136 H158 0.931 . S
C137 C132 1.377 . S
C137 C136 1.378 . S
C137 H159 0.931 . S
C138 O148 1.259 . S
C138 O149 1.270 . S
C139 O150 1.251 . S
C139 O151 1.251 . S
O140 C120 1.257 . S
O140 Eu121 2.473 . S
O141 C120 1.260 . S
O141 Eu121 2.480 . S
O142 Eu121 2.430 . S
O142 C128 1.259 . S
O143 Eu121 2.670 . S
O143 C128 1.270 . S
O143 Eu131 2.355 . S
O144 Eu121 2.394 . S
O144 C129 1.251 . S
O145 C129 1.251 . S
O145 Eu131 2.374 . S
O146 C130 1.257 . S
O146 Eu131 2.473 . S
O147 C130 1.260 . S
O147 Eu131 2.480 . S
O148 Eu131 2.430 . S
O148 C138 1.259 . S
O149 Eu121 2.355 . S
O149 Eu131 2.670 . S
O149 C138 1.270 . S
O150 Eu131 2.394 . S
O150 C139 1.251 . S
O151 Eu121 2.374 . S
O151 C139 1.251 . S
H152 C123 0.931 . S
H153 C124 0.931 . S
H154 C126 0.931 . S
H155 C127 0.931 . S
H156 C133 0.931 . S
H157 C134 0.931 . S
H158 C136 0.931 . S
H159 C137 0.931 . S
C160 Eu161 2.835 . S
C160 C162 1.500 . S
C160 O180 1.257 . S
C160 O181 1.260 . S
Eu161 C160 2.835 . S
Eu161 O180 2.473 . S
Eu161 O181 2.480 . S
Eu161 O182 2.430 1_445 S
Eu161 O183 2.670 1_445 S
Eu161 O184 2.394 1_455 S
Eu161 O189 2.355 . S
Eu161 O191 2.374 1_545 S
C162 C160 1.500 . S
C162 C163 1.377 . S
C162 C167 1.377 . S
C163 C162 1.377 . S
C163 C164 1.395 . S
C163 H192 0.931 . S
C164 C163 1.395 . S
C164 C165 1.383 . S
C164 H193 0.931 . S
C165 C164 1.383 . S
C165 C166 1.394 . S
C166 C165 1.394 . S
C166 C167 1.378 . S
C166 H194 0.931 . S
C167 C162 1.377 . S
C167 C166 1.378 . S
C167 H195 0.931 . S
C168 O182 1.259 . S
C168 O183 1.270 . S
C169 O184 1.251 . S
C169 O185 1.251 . S
C170 Eu171 2.835 . S
C170 C172 1.500 . S
C170 O186 1.257 . S
C170 O187 1.260 . S
Eu171 C170 2.835 . S
Eu171 O183 2.355 . S
Eu171 O185 2.374 1_565 S
Eu171 O186 2.473 . S
Eu171 O187 2.480 . S
Eu171 O188 2.430 1_665 S
Eu171 O189 2.670 1_665 S
Eu171 O190 2.394 1_655 S
C172 C170 1.500 . S
C172 C173 1.377 . S
C172 C177 1.377 . S
C173 C172 1.377 . S
C173 C174 1.395 . S
C173 H196 0.931 . S
C174 C173 1.395 . S
C174 C175 1.383 . S
C174 H197 0.931 . S
C175 C174 1.383 . S
C175 C176 1.394 . S
C176 C175 1.394 . S
C176 C177 1.378 . S
C176 H198 0.931 . S
C177 C172 1.377 . S
C177 C176 1.378 . S
C177 H199 0.931 . S
C178 O188 1.259 . S
C178 O189 1.270 . S
C179 O190 1.251 . S
C179 O191 1.251 . S
O180 C160 1.257 . S
O180 Eu161 2.473 . S
O181 C160 1.260 . S
O181 Eu161 2.480 . S
O182 Eu161 2.430 1_665 S
O182 C168 1.259 . S
O183 Eu161 2.670 1_665 S
O183 C168 1.270 . S
O183 Eu171 2.355 . S
O184 Eu161 2.394 1_655 S
O184 C169 1.251 . S
O185 C169 1.251 . S
O185 Eu171 2.374 1_545 S
O186 C170 1.257 . S
O186 Eu171 2.473 . S
O187 C170 1.260 . S
O187 Eu171 2.480 . S
O188 Eu171 2.430 1_445 S
O188 C178 1.259 . S
O189 Eu161 2.355 . S
O189 Eu171 2.670 1_445 S
O189 C178 1.270 . S
O190 Eu171 2.394 1_455 S
O190 C179 1.251 . S
O191 Eu161 2.374 1_565 S
O191 C179 1.251 . S
H192 C163 0.931 . S
H193 C164 0.931 . S
H194 C166 0.931 . S
H195 C167 0.931 . S
H196 C173 0.931 . S
H197 C174 0.931 . S
H198 C176 0.931 . S
H199 C177 0.931 . S
C200 Eu201 2.835 . S
C200 C202 1.500 . S
C200 O220 1.257 . S
C200 O221 1.260 . S
Eu201 C200 2.835 . S
Eu201 O220 2.473 . S
Eu201 O221 2.480 . S
Eu201 O222 2.430 . S
Eu201 O223 2.670 . S
Eu201 O224 2.394 . S
Eu201 O229 2.355 . S
Eu201 O231 2.374 . S
C202 C200 1.500 . S
C202 C203 1.377 . S
C202 C207 1.377 . S
C203 C202 1.377 . S
C203 C204 1.395 . S
C203 H232 0.931 . S
C204 C203 1.395 . S
C204 C205 1.383 . S
C204 H233 0.931 . S
C205 C204 1.383 . S
C205 C206 1.394 . S
C206 C205 1.394 . S
C206 C207 1.378 . S
C206 H234 0.931 . S
C207 C202 1.377 . S
C207 C206 1.378 . S
C207 H235 0.931 . S
C208 O222 1.259 . S
C208 O223 1.270 . S
C209 O224 1.251 . S
C209 O225 1.251 . S
C210 Eu211 2.835 . S
C210 C212 1.500 . S
C210 O226 1.257 . S
C210 O227 1.260 . S
Eu211 C210 2.835 . S
Eu211 O223 2.355 . S
Eu211 O225 2.374 . S
Eu211 O226 2.473 . S
Eu211 O227 2.480 . S
Eu211 O228 2.430 . S
Eu211 O229 2.670 . S
Eu211 O230 2.394 . S
C212 C210 1.500 . S
C212 C213 1.377 . S
C212 C217 1.377 . S
C213 C212 1.377 . S
C213 C214 1.395 . S
C213 H236 0.931 . S
C214 C213 1.395 . S
C214 C215 1.383 . S
C214 H237 0.931 . S
C215 C214 1.383 . S
C215 C216 1.394 . S
C216 C215 1.394 . S
C216 C217 1.378 . S
C216 H238 0.931 . S
C217 C212 1.377 . S
C217 C216 1.378 . S
C217 H239 0.931 . S
C218 O228 1.259 . S
C218 O229 1.270 . S
C219 O230 1.251 . S
C219 O231 1.251 . S
O220 C200 1.257 . S
O220 Eu201 2.473 . S
O221 C200 1.260 . S
O221 Eu201 2.480 . S
O222 Eu201 2.430 . S
O222 C208 1.259 . S
O223 Eu201 2.670 . S
O223 C208 1.270 . S
O223 Eu211 2.355 . S
O224 Eu201 2.394 . S
O224 C209 1.251 . S
O225 C209 1.251 . S
O225 Eu211 2.374 . S
O226 C210 1.257 . S
O226 Eu211 2.473 . S
O227 C210 1.260 . S
O227 Eu211 2.480 . S
O228 Eu211 2.430 . S
O228 C218 1.259 . S
O229 Eu201 2.355 . S
O229 Eu211 2.670 . S
O229 C218 1.270 . S
O230 Eu211 2.394 . S
O230 C219 1.251 . S
O231 Eu201 2.374 . S
O231 C219 1.251 . S
H232 C203 0.931 . S
H233 C204 0.931 . S
H234 C206 0.931 . S
H235 C207 0.931 . S
H236 C213 0.931 . S
H237 C214 0.931 . S
H238 C216 0.931 . S
H239 C217 0.931 . S
C240 Eu241 2.835 1_554 S
C240 C242 1.500 . S
C240 O260 1.257 . S
C240 O261 1.260 1_554 S
Eu241 C240 2.835 1_556 S
Eu241 O260 2.473 1_556 S
Eu241 O261 2.480 . S
Eu241 O262 2.430 1_545 S
Eu241 O263 2.670 1_545 S
Eu241 O264 2.394 1_546 S
Eu241 O269 2.355 1_556 S
Eu241 O271 2.374 . S
C242 C240 1.500 . S
C242 C243 1.377 . S
C242 C247 1.377 . S
C243 C242 1.377 . S
C243 C244 1.395 . S
C243 H272 0.931 1_554 S
C244 C243 1.395 . S
C244 C245 1.383 . S
C244 H273 0.931 1_554 S
C245 C244 1.383 . S
C245 C246 1.394 . S
C246 C245 1.394 . S
C246 C247 1.378 . S
C246 H274 0.931 . S
C247 C242 1.377 . S
C247 C246 1.378 . S
C247 H275 0.931 . S
C248 O262 1.259 . S
C248 O263 1.270 . S
C249 O264 1.251 . S
C249 O265 1.251 . S
C250 Eu251 2.835 1_556 S
C250 C252 1.500 . S
C250 O266 1.257 . S
C250 O267 1.260 1_556 S
Eu251 C250 2.835 1_554 S
Eu251 O263 2.355 1_554 S
Eu251 O265 2.374 . S
Eu251 O266 2.473 1_554 S
Eu251 O267 2.480 . S
Eu251 O268 2.430 1_565 S
Eu251 O269 2.670 1_565 S
Eu251 O270 2.394 1_564 S
C252 C250 1.500 . S
C252 C253 1.377 . S
C252 C257 1.377 . S
C253 C252 1.377 . S
C253 C254 1.395 . S
C253 H276 0.931 1_556 S
C254 C253 1.395 . S
C254 C255 1.383 . S
C254 H277 0.931 1_556 S
C255 C254 1.383 . S
C255 C256 1.394 . S
C256 C255 1.394 . S
C256 C257 1.378 . S
C256 H278 0.931 . S
C257 C252 1.377 . S
C257 C256 1.378 . S
C257 H279 0.931 . S
C258 O268 1.259 . S
C258 O269 1.270 . S
C259 O270 1.251 . S
C259 O271 1.251 . S
O260 C240 1.257 . S
O260 Eu241 2.473 1_554 S
O261 C240 1.260 1_556 S
O261 Eu241 2.480 . S
O262 Eu241 2.430 1_565 S
O262 C248 1.259 . S
O263 Eu241 2.670 1_565 S
O263 C248 1.270 . S
O263 Eu251 2.355 1_556 S
O264 Eu241 2.394 1_564 S
O264 C249 1.251 . S
O265 C249 1.251 . S
O265 Eu251 2.374 . S
O266 C250 1.257 . S
O266 Eu251 2.473 1_556 S
O267 C250 1.260 1_554 S
O267 Eu251 2.480 . S
O268 Eu251 2.430 1_545 S
O268 C258 1.259 . S
O269 Eu241 2.355 1_554 S
O269 Eu251 2.670 1_545 S
O269 C258 1.270 . S
O270 Eu251 2.394 1_546 S
O270 C259 1.251 . S
O271 Eu241 2.374 . S
O271 C259 1.251 . S
H272 C243 0.931 1_556 S
H273 C244 0.931 1_556 S
H274 C246 0.931 . S
H275 C247 0.931 . S
H276 C253 0.931 1_554 S
H277 C254 0.931 1_554 S
H278 C256 0.931 . S
H279 C257 0.931 . S
C280 Eu281 2.835 . S
C280 C282 1.500 . S
C280 O300 1.257 . S
C280 O301 1.260 . S
Eu281 C280 2.835 . S
Eu281 O300 2.473 . S
Eu281 O301 2.480 . S
Eu281 O302 2.430 . S
Eu281 O303 2.670 . S
Eu281 O304 2.394 . S
Eu281 O309 2.355 . S
Eu281 O311 2.374 . S
C282 C280 1.500 . S
C282 C283 1.377 . S
C282 C287 1.377 . S
C283 C282 1.377 . S
C283 C284 1.395 . S
C283 H312 0.931 . S
C284 C283 1.395 . S
C284 C285 1.383 . S
C284 H313 0.931 . S
C285 C284 1.383 . S
C285 C286 1.394 . S
C286 C285 1.394 . S
C286 C287 1.378 . S
C286 H314 0.931 . S
C287 C282 1.377 . S
C287 C286 1.378 . S
C287 H315 0.931 . S
C288 O302 1.259 . S
C288 O303 1.270 . S
C289 O304 1.251 . S
C289 O305 1.251 . S
C290 Eu291 2.835 . S
C290 C292 1.500 . S
C290 O306 1.257 . S
C290 O307 1.260 . S
Eu291 C290 2.835 . S
Eu291 O303 2.355 . S
Eu291 O305 2.374 . S
Eu291 O306 2.473 . S
Eu291 O307 2.480 . S
Eu291 O308 2.430 . S
Eu291 O309 2.670 . S
Eu291 O310 2.394 . S
C292 C290 1.500 . S
C292 C293 1.377 . S
C292 C297 1.377 . S
C293 C292 1.377 . S
C293 C294 1.395 . S
C293 H316 0.931 . S
C294 C293 1.395 . S
C294 C295 1.383 . S
C294 H317 0.931 . S
C295 C294 1.383 . S
C295 C296 1.394 . S
C296 C295 1.394 . S
C296 C297 1.378 . S
C296 H318 0.931 . S
C297 C292 1.377 . S
C297 C296 1.378 . S
C297 H319 0.931 . S
C298 O308 1.259 . S
C298 O309 1.270 . S
C299 O310 1.251 . S
C299 O311 1.251 . S
O300 C280 1.257 . S
O300 Eu281 2.473 . S
O301 C280 1.260 . S
O301 Eu281 2.480 . S
O302 Eu281 2.430 . S
O302 C288 1.259 . S
O303 Eu281 2.670 . S
O303 C288 1.270 . S
O303 Eu291 2.355 . S
O304 Eu281 2.394 . S
O304 C289 1.251 . S
O305 C289 1.251 . S
O305 Eu291 2.374 . S
O306 C290 1.257 . S
O306 Eu291 2.473 . S
O307 C290 1.260 . S
O307 Eu291 2.480 . S
O308 Eu291 2.430 . S
O308 C298 1.259 . S
O309 Eu281 2.355 . S
O309 Eu291 2.670 . S
O309 C298 1.270 . S
O310 Eu291 2.394 . S
O310 C299 1.251 . S
O311 Eu281 2.374 . S
O311 C299 1.251 . S
H312 C283 0.931 . S
H313 C284 0.931 . S
H314 C286 0.931 . S
H315 C287 0.931 . S
H316 C293 0.931 . S
H317 C294 0.931 . S
H318 C296 0.931 . S
H319 C297 0.931 . S
C320 Eu321 2.835 . S
C320 C322 1.500 . S
C320 O340 1.257 . S
C320 O341 1.260 . S
Eu321 C320 2.835 . S
Eu321 O340 2.473 . S
Eu321 O341 2.480 . S
Eu321 O342 2.430 . S
Eu321 O343 2.670 . S
Eu321 O344 2.394 . S
Eu321 O349 2.355 1_556 S
Eu321 O351 2.374 1_556 S
C322 C320 1.500 . S
C322 C323 1.377 . S
C322 C327 1.377 . S
C323 C322 1.377 . S
C323 C324 1.395 . S
C323 H352 0.931 . S
C324 C323 1.395 . S
C324 C325 1.383 . S
C324 H353 0.931 . S
C325 C324 1.383 . S
C325 C326 1.394 . S
C326 C325 1.394 . S
C326 C327 1.378 . S
C326 H354 0.931 . S
C327 C322 1.377 . S
C327 C326 1.378 . S
C327 H355 0.931 . S
C328 O342 1.259 . S
C328 O343 1.270 . S
C329 O344 1.251 . S
C329 O345 1.251 . S
C330 Eu331 2.835 . S
C330 C332 1.500 . S
C330 O346 1.257 . S
C330 O347 1.260 . S
Eu331 C330 2.835 . S
Eu331 O343 2.355 1_554 S
Eu331 O345 2.374 1_554 S
Eu331 O346 2.473 . S
Eu331 O347 2.480 . S
Eu331 O348 2.430 . S
Eu331 O349 2.670 . S
Eu331 O350 2.394 . S
C332 C330 1.500 . S
C332 C333 1.377 . S
C332 C337 1.377 . S
C333 C332 1.377 . S
C333 C334 1.395 . S
C333 H356 0.931 . S
C334 C333 1.395 . S
C334 C335 1.383 . S
C334 H357 0.931 . S
C335 C334 1.383 . S
C335 C336 1.394 . S
C336 C335 1.394 . S
C336 C337 1.378 . S
C336 H358 0.931 . S
C337 C332 1.377 . S
C337 C336 1.378 . S
C337 H359 0.931 . S
C338 O348 1.259 . S
C338 O349 1.270 . S
C339 O350 1.251 . S
C339 O351 1.251 . S
O340 C320 1.257 . S
O340 Eu321 2.473 . S
O341 C320 1.260 . S
O341 Eu321 2.480 . S
O342 Eu321 2.430 . S
O342 C328 1.259 . S
O343 Eu321 2.670 . S
O343 C328 1.270 . S
O343 Eu331 2.355 1_556 S
O344 Eu321 2.394 . S
O344 C329 1.251 . S
O345 C329 1.251 . S
O345 Eu331 2.374 1_556 S
O346 C330 1.257 . S
O346 Eu331 2.473 . S
O347 C330 1.260 . S
O347 Eu331 2.480 . S
O348 Eu331 2.430 . S
O348 C338 1.259 . S
O349 Eu321 2.355 1_554 S
O349 Eu331 2.670 . S
O349 C338 1.270 . S
O350 Eu331 2.394 . S
O350 C339 1.251 . S
O351 Eu321 2.374 1_554 S
O351 C339 1.251 . S
H352 C323 0.931 . S
H353 C324 0.931 . S
H354 C326 0.931 . S
H355 C327 0.931 . S
H356 C333 0.931 . S
H357 C334 0.931 . S
H358 C336 0.931 . S
H359 C337 0.931 . S
C360 Eu361 2.835 . S
C360 C362 1.500 . S
C360 O380 1.257 . S
C360 O381 1.260 . S
Eu361 C360 2.835 . S
Eu361 O380 2.473 . S
Eu361 O381 2.480 . S
Eu361 O382 2.430 . S
Eu361 O383 2.670 . S
Eu361 O384 2.394 . S
Eu361 O389 2.355 . S
Eu361 O391 2.374 . S
C362 C360 1.500 . S
C362 C363 1.377 . S
C362 C367 1.377 . S
C363 C362 1.377 . S
C363 C364 1.395 . S
C363 H392 0.931 . S
C364 C363 1.395 . S
C364 C365 1.383 . S
C364 H393 0.931 . S
C365 C364 1.383 . S
C365 C366 1.394 . S
C366 C365 1.394 . S
C366 C367 1.378 . S
C366 H394 0.931 . S
C367 C362 1.377 . S
C367 C366 1.378 . S
C367 H395 0.931 . S
C368 O382 1.259 . S
C368 O383 1.270 . S
C369 O384 1.251 . S
C369 O385 1.251 . S
C370 Eu371 2.835 . S
C370 C372 1.500 . S
C370 O386 1.257 . S
C370 O387 1.260 . S
Eu371 C370 2.835 . S
Eu371 O383 2.355 . S
Eu371 O385 2.374 . S
Eu371 O386 2.473 . S
Eu371 O387 2.480 . S
Eu371 O388 2.430 . S
Eu371 O389 2.670 . S
Eu371 O390 2.394 . S
C372 C370 1.500 . S
C372 C373 1.377 . S
C372 C377 1.377 . S
C373 C372 1.377 . S
C373 C374 1.395 . S
C373 H396 0.931 . S
C374 C373 1.395 . S
C374 C375 1.383 . S
C374 H397 0.931 . S
C375 C374 1.383 . S
C375 C376 1.394 . S
C376 C375 1.394 . S
C376 C377 1.378 . S
C376 H398 0.931 . S
C377 C372 1.377 . S
C377 C376 1.378 . S
C377 H399 0.931 . S
C378 O388 1.259 . S
C378 O389 1.270 . S
C379 O390 1.251 . S
C379 O391 1.251 . S
O380 C360 1.257 . S
O380 Eu361 2.473 . S
O381 C360 1.260 . S
O381 Eu361 2.480 . S
O382 Eu361 2.430 . S
O382 C368 1.259 . S
O383 Eu361 2.670 . S
O383 C368 1.270 . S
O383 Eu371 2.355 . S
O384 Eu361 2.394 . S
O384 C369 1.251 . S
O385 C369 1.251 . S
O385 Eu371 2.374 . S
O386 C370 1.257 . S
O386 Eu371 2.473 . S
O387 C370 1.260 . S
O387 Eu371 2.480 . S
O388 Eu371 2.430 . S
O388 C378 1.259 . S
O389 Eu361 2.355 . S
O389 Eu371 2.670 . S
O389 C378 1.270 . S
O390 Eu371 2.394 . S
O390 C379 1.251 . S
O391 Eu361 2.374 . S
O391 C379 1.251 . S
H392 C363 0.931 . S
H393 C364 0.931 . S
H394 C366 0.931 . S
H395 C367 0.931 . S
H396 C373 0.931 . S
H397 C374 0.931 . S
H398 C376 0.931 . S
H399 C377 0.931 . S
C400 Eu401 2.835 . S
C400 C402 1.500 . S
C400 O420 1.257 . S
C400 O421 1.260 . S
Eu401 C400 2.835 . S
Eu401 O420 2.473 . S
Eu401 O421 2.480 . S
Eu401 O422 2.430 . S
Eu401 O423 2.670 . S
Eu401 O424 2.394 . S
Eu401 O429 2.355 1_655 S
Eu401 O431 2.374 1_655 S
C402 C400 1.500 . S
C402 C403 1.377 . S
C402 C407 1.377 . S
C403 C402 1.377 . S
C403 C404 1.395 . S
C403 H432 0.931 . S
C404 C403 1.395 . S
C404 C405 1.383 . S
C404 H433 0.931 . S
C405 C404 1.383 . S
C405 C406 1.394 . S
C406 C405 1.394 . S
C406 C407 1.378 . S
C406 H434 0.931 . S
C407 C402 1.377 . S
C407 C406 1.378 . S
C407 H435 0.931 . S
C408 O422 1.259 . S
C408 O423 1.270 . S
C409 O424 1.251 . S
C409 O425 1.251 . S
C410 Eu411 2.835 . S
C410 C412 1.500 . S
C410 O426 1.257 . S
C410 O427 1.260 . S
Eu411 C410 2.835 . S
Eu411 O423 2.355 1_455 S
Eu411 O425 2.374 1_455 S
Eu411 O426 2.473 . S
Eu411 O427 2.480 . S
Eu411 O428 2.430 . S
Eu411 O429 2.670 . S
Eu411 O430 2.394 . S
C412 C410 1.500 . S
C412 C413 1.377 . S
C412 C417 1.377 . S
C413 C412 1.377 . S
C413 C414 1.395 . S
C413 H436 0.931 . S
C414 C413 1.395 . S
C414 C415 1.383 . S
C414 H437 0.931 . S
C415 C414 1.383 . S
C415 C416 1.394 . S
C416 C415 1.394 . S
C416 C417 1.378 . S
C416 H438 0.931 . S
C417 C412 1.377 . S
C417 C416 1.378 . S
C417 H439 0.931 . S
C418 O428 1.259 . S
C418 O429 1.270 . S
C419 O430 1.251 . S
C419 O431 1.251 . S
O420 C400 1.257 . S
O420 Eu401 2.473 . S
O421 C400 1.260 . S
O421 Eu401 2.480 . S
O422 Eu401 2.430 . S
O422 C408 1.259 . S
O423 Eu401 2.670 . S
O423 C408 1.270 . S
O423 Eu411 2.355 1_655 S
O424 Eu401 2.394 . S
O424 C409 1.251 . S
O425 C409 1.251 . S
O425 Eu411 2.374 1_655 S
O426 C410 1.257 . S
O426 Eu411 2.473 . S
O427 C410 1.260 . S
O427 Eu411 2.480 . S
O428 Eu411 2.430 . S
O428 C418 1.259 . S
O429 Eu401 2.355 1_455 S
O429 Eu411 2.670 . S
O429 C418 1.270 . S
O430 Eu411 2.394 . S
O430 C419 1.251 . S
O431 Eu401 2.374 1_455 S
O431 C419 1.251 . S
H432 C403 0.931 . S
H433 C404 0.931 . S
H434 C406 0.931 . S
H435 C407 0.931 . S
H436 C413 0.931 . S
H437 C414 0.931 . S
H438 C416 0.931 . S
H439 C417 0.931 . S
C440 Eu441 2.835 . S
C440 C442 1.500 . S
C440 O460 1.257 . S
C440 O461 1.260 . S
Eu441 C440 2.835 . S
Eu441 O460 2.473 . S
Eu441 O461 2.480 . S
Eu441 O462 2.430 . S
Eu441 O463 2.670 . S
Eu441 O464 2.394 . S
Eu441 O469 2.355 . S
Eu441 O471 2.374 . S
C442 C440 1.500 . S
C442 C443 1.377 . S
C442 C447 1.377 . S
C443 C442 1.377 . S
C443 C444 1.395 . S
C443 H472 0.931 . S
C444 C443 1.395 . S
C444 C445 1.383 . S
C444 H473 0.931 . S
C445 C444 1.383 . S
C445 C446 1.394 . S
C446 C445 1.394 . S
C446 C447 1.378 . S
C446 H474 0.931 . S
C447 C442 1.377 . S
C447 C446 1.378 . S
C447 H475 0.931 . S
C448 O462 1.259 . S
C448 O463 1.270 . S
C449 O464 1.251 . S
C449 O465 1.251 . S
C450 Eu451 2.835 . S
C450 C452 1.500 . S
C450 O466 1.257 . S
C450 O467 1.260 . S
Eu451 C450 2.835 . S
Eu451 O463 2.355 . S
Eu451 O465 2.374 . S
Eu451 O466 2.473 . S
Eu451 O467 2.480 . S
Eu451 O468 2.430 . S
Eu451 O469 2.670 . S
Eu451 O470 2.394 . S
C452 C450 1.500 . S
C452 C453 1.377 . S
C452 C457 1.377 . S
C453 C452 1.377 . S
C453 C454 1.395 . S
C453 H476 0.931 . S
C454 C453 1.395 . S
C454 C455 1.383 . S
C454 H477 0.931 . S
C455 C454 1.383 . S
C455 C456 1.394 . S
C456 C455 1.394 . S
C456 C457 1.378 . S
C456 H478 0.931 . S
C457 C452 1.377 . S
C457 C456 1.378 . S
C457 H479 0.931 . S
C458 O468 1.259 . S
C458 O469 1.270 . S
C459 O470 1.251 . S
C459 O471 1.251 . S
O460 C440 1.257 . S
O460 Eu441 2.473 . S
O461 C440 1.260 . S
O461 Eu441 2.480 . S
O462 Eu441 2.430 . S
O462 C448 1.259 . S
O463 Eu441 2.670 . S
O463 C448 1.270 . S
O463 Eu451 2.355 . S
O464 Eu441 2.394 . S
O464 C449 1.251 . S
O465 C449 1.251 . S
O465 Eu451 2.374 . S
O466 C450 1.257 . S
O466 Eu451 2.473 . S
O467 C450 1.260 . S
O467 Eu451 2.480 . S
O468 Eu451 2.430 . S
O468 C458 1.259 . S
O469 Eu441 2.355 . S
O469 Eu451 2.670 . S
O469 C458 1.270 . S
O470 Eu451 2.394 . S
O470 C459 1.251 . S
O471 Eu441 2.374 . S
O471 C459 1.251 . S
H472 C443 0.931 . S
H473 C444 0.931 . S
H474 C446 0.931 . S
H475 C447 0.931 . S
H476 C453 0.931 . S
H477 C454 0.931 . S
H478 C456 0.931 . S
H479 C457 0.931 . S
C480 Eu481 2.835 . S
C480 C482 1.500 . S
C480 O500 1.257 . S
C480 O501 1.260 . S
Eu481 C480 2.835 . S
Eu481 O500 2.473 . S
Eu481 O501 2.480 . S
Eu481 O502 2.430 . S
Eu481 O503 2.670 . S
Eu481 O504 2.394 . S
Eu481 O509 2.355 . S
Eu481 O511 2.374 . S
C482 C480 1.500 . S
C482 C483 1.377 . S
C482 C487 1.377 . S
C483 C482 1.377 . S
C483 C484 1.395 . S
C483 H512 0.931 . S
C484 C483 1.395 . S
C484 C485 1.383 . S
C484 H513 0.931 . S
C485 C484 1.383 . S
C485 C486 1.394 . S
C486 C485 1.394 . S
C486 C487 1.378 . S
C486 H514 0.931 . S
C487 C482 1.377 . S
C487 C486 1.378 . S
C487 H515 0.931 . S
C488 O502 1.259 . S
C488 O503 1.270 . S
C489 O504 1.251 . S
C489 O505 1.251 . S
C490 Eu491 2.835 . S
C490 C492 1.500 . S
C490 O506 1.257 . S
C490 O507 1.260 . S
Eu491 C490 2.835 . S
Eu491 O503 2.355 . S
Eu491 O505 2.374 . S
Eu491 O506 2.473 . S
Eu491 O507 2.480 . S
Eu491 O508 2.430 . S
Eu491 O509 2.670 . S
Eu491 O510 2.394 . S
C492 C490 1.500 . S
C492 C493 1.377 . S
C492 C497 1.377 . S
C493 C492 1.377 . S
C493 C494 1.395 . S
C493 H516 0.931 . S
C494 C493 1.395 . S
C494 C495 1.383 . S
C494 H517 0.931 . S
C495 C494 1.383 . S
C495 C496 1.394 . S
C496 C495 1.394 . S
C496 C497 1.378 . S
C496 H518 0.931 . S
C497 C492 1.377 . S
C497 C496 1.378 . S
C497 H519 0.931 . S
C498 O508 1.259 . S
C498 O509 1.270 . S
C499 O510 1.251 . S
C499 O511 1.251 . S
O500 C480 1.257 . S
O500 Eu481 2.473 . S
O501 C480 1.260 . S
O501 Eu481 2.480 . S
O502 Eu481 2.430 . S
O502 C488 1.259 . S
O503 Eu481 2.670 . S
O503 C488 1.270 . S
O503 Eu491 2.355 . S
O504 Eu481 2.394 . S
O504 C489 1.251 . S
O505 C489 1.251 . S
O505 Eu491 2.374 . S
O506 C490 1.257 . S
O506 Eu491 2.473 . S
O507 C490 1.260 . S
O507 Eu491 2.480 . S
O508 Eu491 2.430 . S
O508 C498 1.259 . S
O509 Eu481 2.355 . S
O509 Eu491 2.670 . S
O509 C498 1.270 . S
O510 Eu491 2.394 . S
O510 C499 1.251 . S
O511 Eu481 2.374 . S
O511 C499 1.251 . S
H512 C483 0.931 . S
H513 C484 0.931 . S
H514 C486 0.931 . S
H515 C487 0.931 . S
H516 C493 0.931 . S
H517 C494 0.931 . S
H518 C496 0.931 . S
H519 C497 0.931 . S
C520 Eu521 2.835 . S
C520 C522 1.500 . S
C520 O540 1.257 . S
C520 O541 1.260 . S
Eu521 C520 2.835 . S
Eu521 O540 2.473 . S
Eu521 O541 2.480 . S
Eu521 O542 2.430 . S
Eu521 O543 2.670 . S
Eu521 O544 2.394 . S
Eu521 O549 2.355 . S
Eu521 O551 2.374 . S
C522 C520 1.500 . S
C522 C523 1.377 . S
C522 C527 1.377 . S
C523 C522 1.377 . S
C523 C524 1.395 . S
C523 H552 0.931 . S
C524 C523 1.395 . S
C524 C525 1.383 . S
C524 H553 0.931 . S
C525 C524 1.383 . S
C525 C526 1.394 . S
C526 C525 1.394 . S
C526 C527 1.378 . S
C526 H554 0.931 . S
C527 C522 1.377 . S
C527 C526 1.378 . S
C527 H555 0.931 . S
C528 O542 1.259 . S
C528 O543 1.270 . S
C529 O544 1.251 . S
C529 O545 1.251 . S
C530 Eu531 2.835 . S
C530 C532 1.500 . S
C530 O546 1.257 . S
C530 O547 1.260 . S
Eu531 C530 2.835 . S
Eu531 O543 2.355 . S
Eu531 O545 2.374 . S
Eu531 O546 2.473 . S
Eu531 O547 2.480 . S
Eu531 O548 2.430 . S
Eu531 O549 2.670 . S
Eu531 O550 2.394 . S
C532 C530 1.500 . S
C532 C533 1.377 . S
C532 C537 1.377 . S
C533 C532 1.377 . S
C533 C534 1.395 . S
C533 H556 0.931 . S
C534 C533 1.395 . S
C534 C535 1.383 . S
C534 H557 0.931 . S
C535 C534 1.383 . S
C535 C536 1.394 . S
C536 C535 1.394 . S
C536 C537 1.378 . S
C536 H558 0.931 . S
C537 C532 1.377 . S
C537 C536 1.378 . S
C537 H559 0.931 . S
C538 O548 1.259 . S
C538 O549 1.270 . S
C539 O550 1.251 . S
C539 O551 1.251 . S
O540 C520 1.257 . S
O540 Eu521 2.473 . S
O541 C520 1.260 . S
O541 Eu521 2.480 . S
O542 Eu521 2.430 . S
O542 C528 1.259 . S
O543 Eu521 2.670 . S
O543 C528 1.270 . S
O543 Eu531 2.355 . S
O544 Eu521 2.394 . S
O544 C529 1.251 . S
O545 C529 1.251 . S
O545 Eu531 2.374 . S
O546 C530 1.257 . S
O546 Eu531 2.473 . S
O547 C530 1.260 . S
O547 Eu531 2.480 . S
O548 Eu531 2.430 . S
O548 C538 1.259 . S
O549 Eu521 2.355 . S
O549 Eu531 2.670 . S
O549 C538 1.270 . S
O550 Eu531 2.394 . S
O550 C539 1.251 . S
O551 Eu521 2.374 . S
O551 C539 1.251 . S
H552 C523 0.931 . S
H553 C524 0.931 . S
H554 C526 0.931 . S
H555 C527 0.931 . S
H556 C533 0.931 . S
H557 C534 0.931 . S
H558 C536 0.931 . S
H559 C537 0.931 . S
C560 Eu561 2.835 . S
C560 C562 1.500 . S
C560 O580 1.257 . S
C560 O581 1.260 . S
Eu561 C560 2.835 . S
Eu561 O580 2.473 . S
Eu561 O581 2.480 . S
Eu561 O582 2.430 . S
Eu561 O583 2.670 . S
Eu561 O584 2.394 . S
Eu561 O589 2.355 . S
Eu561 O591 2.374 . S
C562 C560 1.500 . S
C562 C563 1.377 . S
C562 C567 1.377 . S
C563 C562 1.377 . S
C563 C564 1.395 . S
C563 H592 0.931 . S
C564 C563 1.395 . S
C564 C565 1.383 . S
C564 H593 0.931 . S
C565 C564 1.383 . S
C565 C566 1.394 . S
C566 C565 1.394 . S
C566 C567 1.378 . S
C566 H594 0.931 . S
C567 C562 1.377 . S
C567 C566 1.378 . S
C567 H595 0.931 . S
C568 O582 1.259 . S
C568 O583 1.270 . S
C569 O584 1.251 . S
C569 O585 1.251 . S
C570 Eu571 2.835 . S
C570 C572 1.500 . S
C570 O586 1.257 . S
C570 O587 1.260 . S
Eu571 C570 2.835 . S
Eu571 O583 2.355 . S
Eu571 O585 2.374 . S
Eu571 O586 2.473 . S
Eu571 O587 2.480 . S
Eu571 O588 2.430 . S
Eu571 O589 2.670 . S
Eu571 O590 2.394 . S
C572 C570 1.500 . S
C572 C573 1.377 . S
C572 C577 1.377 . S
C573 C572 1.377 . S
C573 C574 1.395 . S
C573 H596 0.931 . S
C574 C573 1.395 . S
C574 C575 1.383 . S
C574 H597 0.931 . S
C575 C574 1.383 . S
C575 C576 1.394 . S
C576 C575 1.394 . S
C576 C577 1.378 . S
C576 H598 0.931 . S
C577 C572 1.377 . S
C577 C576 1.378 . S
C577 H599 0.931 . S
C578 O588 1.259 . S
C578 O589 1.270 . S
C579 O590 1.251 . S
C579 O591 1.251 . S
O580 C560 1.257 . S
O580 Eu561 2.473 . S
O581 C560 1.260 . S
O581 Eu561 2.480 . S
O582 Eu561 2.430 . S
O582 C568 1.259 . S
O583 Eu561 2.670 . S
O583 C568 1.270 . S
O583 Eu571 2.355 . S
O584 Eu561 2.394 . S
O584 C569 1.251 . S
O585 C569 1.251 . S
O585 Eu571 2.374 . S
O586 C570 1.257 . S
O586 Eu571 2.473 . S
O587 C570 1.260 . S
O587 Eu571 2.480 . S
O588 Eu571 2.430 . S
O588 C578 1.259 . S
O589 Eu561 2.355 . S
O589 Eu571 2.670 . S
O589 C578 1.270 . S
O590 Eu571 2.394 . S
O590 C579 1.251 . S
O591 Eu561 2.374 . S
O591 C579 1.251 . S
H592 C563 0.931 . S
H593 C564 0.931 . S
H594 C566 0.931 . S
H595 C567 0.931 . S
H596 C573 0.931 . S
H597 C574 0.931 . S
H598 C576 0.931 . S
H599 C577 0.931 . S
C600 Eu601 2.835 . S
C600 C602 1.500 . S
C600 O620 1.257 . S
C600 O621 1.260 . S
Eu601 C600 2.835 . S
Eu601 O620 2.473 . S
Eu601 O621 2.480 . S
Eu601 O622 2.430 1_556 S
Eu601 O623 2.670 1_556 S
Eu601 O624 2.394 1_556 S
Eu601 O629 2.355 1_455 S
Eu601 O631 2.374 1_455 S
C602 C600 1.500 . S
C602 C603 1.377 . S
C602 C607 1.377 . S
C603 C602 1.377 . S
C603 C604 1.395 . S
C603 H632 0.931 . S
C604 C603 1.395 . S
C604 C605 1.383 . S
C604 H633 0.931 . S
C605 C604 1.383 . S
C605 C606 1.394 . S
C606 C605 1.394 . S
C606 C607 1.378 . S
C606 H634 0.931 . S
C607 C602 1.377 . S
C607 C606 1.378 . S
C607 H635 0.931 . S
C608 O622 1.259 . S
C608 O623 1.270 . S
C609 O624 1.251 . S
C609 O625 1.251 . S
C610 Eu611 2.835 . S
C610 C612 1.500 . S
C610 O626 1.257 . S
C610 O627 1.260 . S
Eu611 C610 2.835 . S
Eu611 O623 2.355 1_655 S
Eu611 O625 2.374 1_655 S
Eu611 O626 2.473 . S
Eu611 O627 2.480 . S
Eu611 O628 2.430 1_554 S
Eu611 O629 2.670 1_554 S
Eu611 O630 2.394 1_554 S
C612 C610 1.500 . S
C612 C613 1.377 . S
C612 C617 1.377 . S
C613 C612 1.377 . S
C613 C614 1.395 . S
C613 H636 0.931 . S
C614 C613 1.395 . S
C614 C615 1.383 . S
C614 H637 0.931 . S
C615 C614 1.383 . S
C615 C616 1.394 . S
C616 C615 1.394 . S
C616 C617 1.378 . S
C616 H638 0.931 . S
C617 C612 1.377 . S
C617 C616 1.378 . S
C617 H639 0.931 . S
C618 O628 1.259 . S
C618 O629 1.270 . S
C619 O630 1.251 . S
C619 O631 1.251 . S
O620 C600 1.257 . S
O620 Eu601 2.473 . S
O621 C600 1.260 . S
O621 Eu601 2.480 . S
O622 Eu601 2.430 1_554 S
O622 C608 1.259 . S
O623 Eu601 2.670 1_554 S
O623 C608 1.270 . S
O623 Eu611 2.355 1_455 S
O624 Eu601 2.394 1_554 S
O624 C609 1.251 . S
O625 C609 1.251 . S
O625 Eu611 2.374 1_455 S
O626 C610 1.257 . S
O626 Eu611 2.473 . S
O627 C610 1.260 . S
O627 Eu611 2.480 . S
O628 Eu611 2.430 1_556 S
O628 C618 1.259 . S
O629 Eu601 2.355 1_655 S
O629 Eu611 2.670 1_556 S
O629 C618 1.270 . S
O630 Eu611 2.394 1_556 S
O630 C619 1.251 . S
O631 Eu601 2.374 1_655 S
O631 C619 1.251 . S
H632 C603 0.931 . S
H633 C604 0.931 . S
H634 C606 0.931 . S
H635 C607 0.931 . S
H636 C613 0.931 . S
H637 C614 0.931 . S
H638 C616 0.931 . S
H639 C617 0.931 . S
C640 C641 1.363 . S
C640 C646 1.379 . S
C640 N648 1.356 . S
C641 C640 1.363 . S
C641 C647 1.363 . S
C642 C643 1.363 . S
C642 C647 1.379 . S
C642 N649 1.356 . S
C643 C642 1.363 . S
C643 C646 1.363 . S
N644 C646 1.356 . S
N644 H656 0.984 . S
N644 H657 0.985 . S
N645 C647 1.356 . S
N645 H650 0.984 . S
N645 H651 0.985 . S
C646 C640 1.379 . S
C646 C643 1.363 . S
C646 N644 1.356 . S
C647 C641 1.363 . S
C647 C642 1.379 . S
C647 N645 1.356 . S
N648 C640 1.356 . S
N648 H654 0.984 . S
N648 H655 0.984 . S
N649 C642 1.356 . S
N649 H652 0.984 . S
N649 H653 0.985 . S
H650 N645 0.984 . S
H651 N645 0.985 . S
H652 N649 0.984 . S
H653 N649 0.985 . S
H654 N648 0.984 . S
H655 N648 0.984 . S
H656 N644 0.984 . S
H657 N644 0.985 . S
C658 C659 1.363 . S
C658 C664 1.379 . S
C658 N666 1.356 . S
C659 C658 1.363 . S
C659 C665 1.363 . S
C660 C661 1.363 . S
C660 C665 1.379 . S
C660 N667 1.356 . S
C661 C660 1.363 . S
C661 C664 1.363 . S
N662 C664 1.356 . S
N662 H674 0.984 . S
N662 H675 0.985 . S
N663 C665 1.356 . S
N663 H668 0.984 . S
N663 H669 0.985 . S
C664 C658 1.379 . S
C664 C661 1.363 . S
C664 N662 1.356 . S
C665 C659 1.363 . S
C665 C660 1.379 . S
C665 N663 1.356 . S
N666 C658 1.356 . S
N666 H672 0.984 . S
N666 H673 0.984 . S
N667 C660 1.356 . S
N667 H670 0.984 . S
N667 H671 0.985 . S
H668 N663 0.984 . S
H669 N663 0.985 . S
H670 N667 0.984 . S
H671 N667 0.985 . S
H672 N666 0.984 . S
H673 N666 0.984 . S
H674 N662 0.984 . S
H675 N662 0.985 . S
C676 C677 1.363 . S
C676 C682 1.379 . S
C676 N684 1.356 . S
C677 C676 1.363 . S
C677 C683 1.363 . S
C678 C679 1.363 . S
C678 C683 1.379 . S
C678 N685 1.356 . S
C679 C678 1.363 . S
C679 C682 1.363 . S
N680 C682 1.356 . S
N680 H692 0.984 . S
N680 H693 0.985 . S
N681 C683 1.356 . S
N681 H686 0.984 . S
N681 H687 0.985 . S
C682 C676 1.379 . S
C682 C679 1.363 . S
C682 N680 1.356 . S
C683 C677 1.363 . S
C683 C678 1.379 . S
C683 N681 1.356 . S
N684 C676 1.356 . S
N684 H690 0.984 . S
N684 H691 0.984 . S
N685 C678 1.356 . S
N685 H688 0.984 . S
N685 H689 0.985 . S
H686 N681 0.984 . S
H687 N681 0.985 . S
H688 N685 0.984 . S
H689 N685 0.985 . S
H690 N684 0.984 . S
H691 N684 0.984 . S
H692 N680 0.984 . S
H693 N680 0.985 . S
C694 C695 1.363 . S
C694 C700 1.379 . S
C694 N702 1.356 . S
C695 C694 1.363 . S
C695 C701 1.363 . S
C696 C697 1.363 . S
C696 C701 1.379 . S
C696 N703 1.356 . S
C697 C696 1.363 . S
C697 C700 1.363 . S
N698 C700 1.356 . S
N698 H710 0.984 . S
N698 H711 0.985 . S
N699 C701 1.356 . S
N699 H704 0.984 . S
N699 H705 0.985 . S
C700 C694 1.379 . S
C700 C697 1.363 . S
C700 N698 1.356 . S
C701 C695 1.363 . S
C701 C696 1.379 . S
C701 N699 1.356 . S
N702 C694 1.356 . S
N702 H708 0.984 . S
N702 H709 0.984 . S
N703 C696 1.356 . S
N703 H706 0.984 . S
N703 H707 0.985 . S
H704 N699 0.984 . S
H705 N699 0.985 . S
H706 N703 0.984 . S
H707 N703 0.985 . S
H708 N702 0.984 . S
H709 N702 0.984 . S
H710 N698 0.984 . S
H711 N698 0.985 . S
C712 C713 1.363 . S
C712 C718 1.379 . S
C712 N720 1.356 . S
C713 C712 1.363 . S
C713 C719 1.363 . S
C714 C715 1.363 . S
C714 C719 1.379 . S
C714 N721 1.356 . S
C715 C714 1.363 . S
C715 C718 1.363 . S
N716 C718 1.356 . S
N716 H728 0.984 . S
N716 H729 0.985 . S
N717 C719 1.356 1_655 S
N717 H722 0.984 . S
N717 H723 0.985 . S
C718 C712 1.379 . S
C718 C715 1.363 . S
C718 N716 1.356 . S
C719 C713 1.363 . S
C719 C714 1.379 . S
C719 N717 1.356 1_455 S
N720 C712 1.356 . S
N720 H726 0.984 . S
N720 H727 0.984 . S
N721 C714 1.356 . S
N721 H724 0.984 . S
N721 H725 0.985 . S
H722 N717 0.984 . S
H723 N717 0.985 . S
H724 N721 0.984 . S
H725 N721 0.985 . S
H726 N720 0.984 . S
H727 N720 0.984 . S
H728 N716 0.984 . S
H729 N716 0.985 . S
C730 C731 1.363 . S
C730 C736 1.379 . S
C730 N738 1.356 . S
C731 C730 1.363 . S
C731 C737 1.363 . S
C732 C733 1.363 . S
C732 C737 1.379 . S
C732 N739 1.356 . S
C733 C732 1.363 . S
C733 C736 1.363 . S
N734 C736 1.356 . S
N734 H746 0.984 . S
N734 H747 0.985 . S
N735 C737 1.356 . S
N735 H740 0.984 . S
N735 H741 0.985 . S
C736 C730 1.379 . S
C736 C733 1.363 . S
C736 N734 1.356 . S
C737 C731 1.363 . S
C737 C732 1.379 . S
C737 N735 1.356 . S
N738 C730 1.356 . S
N738 H744 0.984 . S
N738 H745 0.984 . S
N739 C732 1.356 . S
N739 H742 0.984 . S
N739 H743 0.985 . S
H740 N735 0.984 . S
H741 N735 0.985 . S
H742 N739 0.984 . S
H743 N739 0.985 . S
H744 N738 0.984 . S
H745 N738 0.984 . S
H746 N734 0.984 . S
H747 N734 0.985 . S
C748 C749 1.363 . S
C748 C754 1.379 . S
C748 N756 1.356 . S
C749 C748 1.363 . S
C749 C755 1.363 . S
C750 C751 1.363 . S
C750 C755 1.379 . S
C750 N757 1.356 . S
C751 C750 1.363 . S
C751 C754 1.363 . S
N752 C754 1.356 . S
N752 H764 0.984 1_545 S
N752 H765 0.985 . S
N753 C755 1.356 . S
N753 H758 0.984 . S
N753 H759 0.985 . S
C754 C748 1.379 . S
C754 C751 1.363 . S
C754 N752 1.356 . S
C755 C749 1.363 . S
C755 C750 1.379 . S
C755 N753 1.356 . S
N756 C748 1.356 . S
N756 H762 0.984 . S
N756 H763 0.984 . S
N757 C750 1.356 . S
N757 H760 0.984 . S
N757 H761 0.985 . S
H758 N753 0.984 . S
H759 N753 0.985 . S
H760 N757 0.984 . S
H761 N757 0.985 . S
H762 N756 0.984 . S
H763 N756 0.984 . S
H764 N752 0.984 1_565 S
H765 N752 0.985 . S
C766 C767 1.363 . S
C766 C772 1.379 . S
C766 N774 1.356 . S
C767 C766 1.363 . S
C767 C773 1.363 . S
C768 C769 1.363 . S
C768 C773 1.379 . S
C768 N775 1.356 . S
C769 C768 1.363 . S
C769 C772 1.363 . S
N770 C772 1.356 . S
N770 H782 0.984 . S
N770 H783 0.985 . S
N771 C773 1.356 . S
N771 H776 0.984 . S
N771 H777 0.985 . S
C772 C766 1.379 . S
C772 C769 1.363 . S
C772 N770 1.356 . S
C773 C767 1.363 . S
C773 C768 1.379 . S
C773 N771 1.356 . S
N774 C766 1.356 . S
N774 H780 0.984 . S
N774 H781 0.984 . S
N775 C768 1.356 . S
N775 H778 0.984 . S
N775 H779 0.985 . S
H776 N771 0.984 . S
H777 N771 0.985 . S
H778 N775 0.984 . S
H779 N775 0.985 . S
H780 N774 0.984 . S
H781 N774 0.984 . S
H782 N770 0.984 . S
H783 N770 0.985 . S
C784 C785 1.363 . S
C784 C790 1.379 . S
C784 N792 1.356 . S
C785 C784 1.363 . S
C785 C791 1.363 . S
C786 C787 1.363 . S
C786 C791 1.379 . S
C786 N793 1.356 . S
C787 C786 1.363 . S
C787 C790 1.363 . S
N788 C790 1.356 . S
N788 H800 0.984 . S
N788 H801 0.985 . S
N789 C791 1.356 . S
N789 H794 0.984 . S
N789 H795 0.985 . S
C790 C784 1.379 . S
C790 C787 1.363 . S
C790 N788 1.356 . S
C791 C785 1.363 . S
C791 C786 1.379 . S
C791 N789 1.356 . S
N792 C784 1.356 . S
N792 H798 0.984 . S
N792 H799 0.984 . S
N793 C786 1.356 . S
N793 H796 0.984 . S
N793 H797 0.985 . S
H794 N789 0.984 . S
H795 N789 0.985 . S
H796 N793 0.984 . S
H797 N793 0.985 . S
H798 N792 0.984 . S
H799 N792 0.984 . S
H800 N788 0.984 . S
H801 N788 0.985 . S
C802 C803 1.363 . S
C802 C808 1.379 . S
C802 N810 1.356 . S
C803 C802 1.363 . S
C803 C809 1.363 . S
C804 C805 1.363 . S
C804 C809 1.379 . S
C804 N811 1.356 . S
C805 C804 1.363 . S
C805 C808 1.363 . S
N806 C808 1.356 . S
N806 H818 0.984 . S
N806 H819 0.985 . S
N807 C809 1.356 . S
N807 H812 0.984 . S
N807 H813 0.985 . S
C808 C802 1.379 . S
C808 C805 1.363 . S
C808 N806 1.356 . S
C809 C803 1.363 . S
C809 C804 1.379 . S
C809 N807 1.356 . S
N810 C802 1.356 . S
N810 H816 0.984 . S
N810 H817 0.984 . S
N811 C804 1.356 . S
N811 H814 0.984 . S
N811 H815 0.985 . S
H812 N807 0.984 . S
H813 N807 0.985 . S
H814 N811 0.984 . S
H815 N811 0.985 . S
H816 N810 0.984 . S
H817 N810 0.984 . S
H818 N806 0.984 . S
H819 N806 0.985 . S
C820 C821 1.363 . S
C820 C826 1.379 . S
C820 N828 1.356 . S
C821 C820 1.363 . S
C821 C827 1.363 . S
C822 C823 1.363 . S
C822 C827 1.379 . S
C822 N829 1.356 . S
C823 C822 1.363 . S
C823 C826 1.363 . S
N824 C826 1.356 . S
N824 H836 0.984 . S
N824 H837 0.985 . S
N825 C827 1.356 . S
N825 H830 0.984 . S
N825 H831 0.985 . S
C826 C820 1.379 . S
C826 C823 1.363 . S
C826 N824 1.356 . S
C827 C821 1.363 . S
C827 C822 1.379 . S
C827 N825 1.356 . S
N828 C820 1.356 . S
N828 H834 0.984 . S
N828 H835 0.984 . S
N829 C822 1.356 . S
N829 H832 0.984 . S
N829 H833 0.985 . S
H830 N825 0.984 . S
H831 N825 0.985 . S
H832 N829 0.984 . S
H833 N829 0.985 . S
H834 N828 0.984 . S
H835 N828 0.984 . S
H836 N824 0.984 . S
H837 N824 0.985 . S
C838 C839 1.363 . S
C838 C844 1.379 . S
C838 N846 1.356 . S
C839 C838 1.363 . S
C839 C845 1.363 . S
C840 C841 1.363 . S
C840 C845 1.379 . S
C840 N847 1.356 . S
C841 C840 1.363 . S
C841 C844 1.363 . S
N842 C844 1.356 . S
N842 H854 0.984 . S
N842 H855 0.985 . S
N843 C845 1.356 . S
N843 H848 0.984 . S
N843 H849 0.985 . S
C844 C838 1.379 . S
C844 C841 1.363 . S
C844 N842 1.356 . S
C845 C839 1.363 . S
C845 C840 1.379 . S
C845 N843 1.356 . S
N846 C838 1.356 . S
N846 H852 0.984 . S
N846 H853 0.984 . S
N847 C840 1.356 . S
N847 H850 0.984 . S
N847 H851 0.985 . S
H848 N843 0.984 . S
H849 N843 0.985 . S
H850 N847 0.984 . S
H851 N847 0.985 . S
H852 N846 0.984 . S
H853 N846 0.984 . S
H854 N842 0.984 . S
H855 N842 0.985 . S
C856 C857 1.363 . S
C856 C862 1.379 . S
C856 N864 1.356 . S
C857 C856 1.363 . S
C857 C863 1.363 . S
C858 C859 1.363 . S
C858 C863 1.379 . S
C858 N865 1.356 . S
C859 C858 1.363 . S
C859 C862 1.363 . S
N860 C862 1.356 . S
N860 H872 0.984 . S
N860 H873 0.985 . S
N861 C863 1.356 . S
N861 H866 0.984 . S
N861 H867 0.985 . S
C862 C856 1.379 . S
C862 C859 1.363 . S
C862 N860 1.356 . S
C863 C857 1.363 . S
C863 C858 1.379 . S
C863 N861 1.356 . S
N864 C856 1.356 . S
N864 H870 0.984 . S
N864 H871 0.984 . S
N865 C858 1.356 . S
N865 H868 0.984 . S
N865 H869 0.985 . S
H866 N861 0.984 . S
H867 N861 0.985 . S
H868 N865 0.984 . S
H869 N865 0.985 . S
H870 N864 0.984 . S
H871 N864 0.984 . S
H872 N860 0.984 . S
H873 N860 0.985 . S
C874 C875 1.363 . S
C874 C880 1.379 . S
C874 N882 1.356 . S
C875 C874 1.363 . S
C875 C881 1.363 . S
C876 C877 1.363 . S
C876 C881 1.379 . S
C876 N883 1.356 . S
C877 C876 1.363 . S
C877 C880 1.363 . S
N878 C880 1.356 . S
N878 H890 0.984 . S
N878 H891 0.985 . S
N879 C881 1.356 . S
N879 H884 0.984 . S
N879 H885 0.985 . S
C880 C874 1.379 . S
C880 C877 1.363 . S
C880 N878 1.356 . S
C881 C875 1.363 . S
C881 C876 1.379 . S
C881 N879 1.356 . S
N882 C874 1.356 . S
N882 H888 0.984 . S
N882 H889 0.984 . S
N883 C876 1.356 . S
N883 H886 0.984 . S
N883 H887 0.985 . S
H884 N879 0.984 . S
H885 N879 0.985 . S
H886 N883 0.984 . S
H887 N883 0.985 . S
H888 N882 0.984 . S
H889 N882 0.984 . S
H890 N878 0.984 . S
H891 N878 0.985 . S
C892 C893 1.363 . S
C892 C898 1.379 . S
C892 N900 1.356 . S
C893 C892 1.363 . S
C893 C899 1.363 . S
C894 C895 1.363 . S
C894 C899 1.379 . S
C894 N901 1.356 . S
C895 C894 1.363 . S
C895 C898 1.363 . S
N896 C898 1.356 . S
N896 H908 0.984 . S
N896 H909 0.985 . S
N897 C899 1.356 . S
N897 H902 0.984 . S
N897 H903 0.985 1_556 S
C898 C892 1.379 . S
C898 C895 1.363 . S
C898 N896 1.356 . S
C899 C893 1.363 . S
C899 C894 1.379 . S
C899 N897 1.356 . S
N900 C892 1.356 . S
N900 H906 0.984 1_545 S
N900 H907 0.984 . S
N901 C894 1.356 . S
N901 H904 0.984 . S
N901 H905 0.985 1_556 S
H902 N897 0.984 . S
H903 N897 0.985 1_554 S
H904 N901 0.984 . S
H905 N901 0.985 1_554 S
H906 N900 0.984 1_565 S
H907 N900 0.984 . S
H908 N896 0.984 . S
H909 N896 0.985 . S
C910 C911 1.363 . S
C910 C916 1.379 . S
C910 N918 1.356 . S
C911 C910 1.363 . S
C911 C917 1.363 . S
C912 C913 1.363 . S
C912 C917 1.379 . S
C912 N919 1.356 . S
C913 C912 1.363 . S
C913 C916 1.363 . S
N914 C916 1.356 . S
N914 H926 0.984 . S
N914 H927 0.985 . S
N915 C917 1.356 . S
N915 H920 0.984 . S
N915 H921 0.985 . S
C916 C910 1.379 . S
C916 C913 1.363 . S
C916 N914 1.356 . S
C917 C911 1.363 . S
C917 C912 1.379 . S
C917 N915 1.356 . S
N918 C910 1.356 . S
N918 H924 0.984 1_455 S
N918 H925 0.984 . S
N919 C912 1.356 . S
N919 H922 0.984 . S
N919 H923 0.985 . S
H920 N915 0.984 . S
H921 N915 0.985 . S
H922 N919 0.984 . S
H923 N919 0.985 . S
H924 N918 0.984 1_655 S
H925 N918 0.984 . S
H926 N914 0.984 . S
H927 N914 0.985 . S
C928 C929 1.363 . S
C928 C934 1.379 . S
C928 N936 1.356 . S
C929 C928 1.363 . S
C929 C935 1.363 . S
C930 C931 1.363 . S
C930 C935 1.379 . S
C930 N937 1.356 . S
C931 C930 1.363 . S
C931 C934 1.363 . S
N932 C934 1.356 . S
N932 H944 0.984 . S
N932 H945 0.985 . S
N933 C935 1.356 . S
N933 H938 0.984 . S
N933 H939 0.985 . S
C934 C928 1.379 . S
C934 C931 1.363 . S
C934 N932 1.356 . S
C935 C929 1.363 . S
C935 C930 1.379 . S
C935 N933 1.356 . S
N936 C928 1.356 . S
N936 H942 0.984 . S
N936 H943 0.984 . S
N937 C930 1.356 . S
N937 H940 0.984 . S
N937 H941 0.985 . S
H938 N933 0.984 . S
H939 N933 0.985 . S
H940 N937 0.984 . S
H941 N937 0.985 . S
H942 N936 0.984 . S
H943 N936 0.984 . S
H944 N932 0.984 . S
H945 N932 0.985 . S
C946 C947 1.363 . S
C946 C952 1.379 . S
C946 N954 1.356 . S
C947 C946 1.363 . S
C947 C953 1.363 . S
C948 C949 1.363 . S
C948 C953 1.379 . S
C948 N955 1.356 . S
C949 C948 1.363 . S
C949 C952 1.363 . S
N950 C952 1.356 . S
N950 H962 0.984 . S
N950 H963 0.985 . S
N951 C953 1.356 . S
N951 H956 0.984 . S
N951 H957 0.985 . S
C952 C946 1.379 . S
C952 C949 1.363 . S
C952 N950 1.356 . S
C953 C947 1.363 . S
C953 C948 1.379 . S
C953 N951 1.356 . S
N954 C946 1.356 . S
N954 H960 0.984 . S
N954 H961 0.984 . S
N955 C948 1.356 . S
N955 H958 0.984 . S
N955 H959 0.985 . S
H956 N951 0.984 . S
H957 N951 0.985 . S
H958 N955 0.984 . S
H959 N955 0.985 . S
H960 N954 0.984 . S
H961 N954 0.984 . S
H962 N950 0.984 . S
H963 N950 0.985 . S
C964 C965 1.363 . S
C964 C970 1.379 . S
C964 N972 1.356 . S
C965 C964 1.363 . S
C965 C971 1.363 . S
C966 C967 1.363 . S
C966 C971 1.379 . S
C966 N973 1.356 . S
C967 C966 1.363 . S
C967 C970 1.363 . S
N968 C970 1.356 . S
N968 H980 0.984 . S
N968 H981 0.985 . S
N969 C971 1.356 . S
N969 H974 0.984 . S
N969 H975 0.985 . S
C970 C964 1.379 . S
C970 C967 1.363 . S
C970 N968 1.356 . S
C971 C965 1.363 . S
C971 C966 1.379 . S
C971 N969 1.356 . S
N972 C964 1.356 . S
N972 H978 0.984 . S
N972 H979 0.984 . S
N973 C966 1.356 . S
N973 H976 0.984 . S
N973 H977 0.985 . S
H974 N969 0.984 . S
H975 N969 0.985 . S
H976 N973 0.984 . S
H977 N973 0.985 . S
H978 N972 0.984 . S
H979 N972 0.984 . S
H980 N968 0.984 . S
H981 N968 0.985 . S
C982 C983 1.363 . S
C982 C988 1.379 . S
C982 N990 1.356 . S
C983 C982 1.363 . S
C983 C989 1.363 . S
C984 C985 1.363 . S
C984 C989 1.379 . S
C984 N991 1.356 . S
C985 C984 1.363 . S
C985 C988 1.363 . S
N986 C988 1.356 . S
N986 H998 0.984 . S
N986 H999 0.985 . S
N987 C989 1.356 . S
N987 H992 0.984 . S
N987 H993 0.985 . S
C988 C982 1.379 . S
C988 C985 1.363 . S
C988 N986 1.356 . S
C989 C983 1.363 . S
C989 C984 1.379 . S
C989 N987 1.356 . S
N990 C982 1.356 . S
N990 H996 0.984 . S
N990 H997 0.984 . S
N991 C984 1.356 . S
N991 H994 0.984 . S
N991 H995 0.985 . S
H992 N987 0.984 . S
H993 N987 0.985 . S
H994 N991 0.984 . S
H995 N991 0.985 . S
H996 N990 0.984 . S
H997 N990 0.984 . S
H998 N986 0.984 . S
H999 N986 0.985 . S
C1000 C1001 1.363 . S
C1000 C1006 1.379 . S
C1000 N1008 1.356 . S
C1001 C1000 1.363 . S
C1001 C1007 1.363 . S
C1002 C1003 1.363 . S
C1002 C1007 1.379 . S
C1002 N1009 1.356 . S
C1003 C1002 1.363 . S
C1003 C1006 1.363 . S
N1004 C1006 1.356 . S
N1004 H1016 0.984 . S
N1004 H1017 0.985 . S
N1005 C1007 1.356 . S
N1005 H1010 0.984 . S
N1005 H1011 0.985 . S
C1006 C1000 1.379 . S
C1006 C1003 1.363 . S
C1006 N1004 1.356 . S
C1007 C1001 1.363 . S
C1007 C1002 1.379 . S
C1007 N1005 1.356 . S
N1008 C1000 1.356 . S
N1008 H1014 0.984 . S
N1008 H1015 0.984 . S
N1009 C1002 1.356 . S
N1009 H1012 0.984 . S
N1009 H1013 0.985 . S
H1010 N1005 0.984 . S
H1011 N1005 0.985 . S
H1012 N1009 0.984 . S
H1013 N1009 0.985 . S
H1014 N1008 0.984 . S
H1015 N1008 0.984 . S
H1016 N1004 0.984 . S
H1017 N1004 0.985 . S
C1018 C1019 1.363 . S
C1018 C1024 1.379 . S
C1018 N1026 1.356 . S
C1019 C1018 1.363 . S
C1019 C1025 1.363 . S
C1020 C1021 1.363 . S
C1020 C1025 1.379 . S
C1020 N1027 1.356 . S
C1021 C1020 1.363 . S
C1021 C1024 1.363 . S
N1022 C1024 1.356 . S
N1022 H1034 0.984 . S
N1022 H1035 0.985 . S
N1023 C1025 1.356 . S
N1023 H1028 0.984 . S
N1023 H1029 0.985 . S
C1024 C1018 1.379 . S
C1024 C1021 1.363 . S
C1024 N1022 1.356 . S
C1025 C1019 1.363 . S
C1025 C1020 1.379 . S
C1025 N1023 1.356 . S
N1026 C1018 1.356 . S
N1026 H1032 0.984 . S
N1026 H1033 0.984 . S
N1027 C1020 1.356 . S
N1027 H1030 0.984 . S
N1027 H1031 0.985 . S
H1028 N1023 0.984 . S
H1029 N1023 0.985 . S
H1030 N1027 0.984 . S
H1031 N1027 0.985 . S
H1032 N1026 0.984 . S
H1033 N1026 0.984 . S
H1034 N1022 0.984 . S
H1035 N1022 0.985 . S
C1036 C1037 1.363 . S
C1036 C1042 1.379 . S
C1036 N1044 1.356 . S
C1037 C1036 1.363 . S
C1037 C1043 1.363 . S
C1038 C1039 1.363 . S
C1038 C1043 1.379 . S
C1038 N1045 1.356 . S
C1039 C1038 1.363 . S
C1039 C1042 1.363 . S
N1040 C1042 1.356 . S
N1040 H1052 0.984 . S
N1040 H1053 0.985 . S
N1041 C1043 1.356 . S
N1041 H1046 0.984 . S
N1041 H1047 0.985 . S
C1042 C1036 1.379 . S
C1042 C1039 1.363 . S
C1042 N1040 1.356 . S
C1043 C1037 1.363 . S
C1043 C1038 1.379 . S
C1043 N1041 1.356 . S
N1044 C1036 1.356 . S
N1044 H1050 0.984 . S
N1044 H1051 0.984 . S
N1045 C1038 1.356 . S
N1045 H1048 0.984 . S
N1045 H1049 0.985 . S
H1046 N1041 0.984 . S
H1047 N1041 0.985 . S
H1048 N1045 0.984 . S
H1049 N1045 0.985 . S
H1050 N1044 0.984 . S
H1051 N1044 0.984 . S
H1052 N1040 0.984 . S
H1053 N1040 0.985 . S
C1054 C1055 1.363 . S
C1054 C1060 1.379 . S
C1054 N1062 1.356 . S
C1055 C1054 1.363 . S
C1055 C1061 1.363 . S
C1056 C1057 1.363 . S
C1056 C1061 1.379 . S
C1056 N1063 1.356 . S
C1057 C1056 1.363 . S
C1057 C1060 1.363 . S
N1058 C1060 1.356 . S
N1058 H1070 0.984 . S
N1058 H1071 0.985 . S
N1059 C1061 1.356 . S
N1059 H1064 0.984 . S
N1059 H1065 0.985 . S
C1060 C1054 1.379 . S
C1060 C1057 1.363 . S
C1060 N1058 1.356 . S
C1061 C1055 1.363 . S
C1061 C1056 1.379 . S
C1061 N1059 1.356 . S
N1062 C1054 1.356 . S
N1062 H1068 0.984 . S
N1062 H1069 0.984 . S
N1063 C1056 1.356 . S
N1063 H1066 0.984 . S
N1063 H1067 0.985 . S
H1064 N1059 0.984 . S
H1065 N1059 0.985 . S
H1066 N1063 0.984 . S
H1067 N1063 0.985 . S
H1068 N1062 0.984 . S
H1069 N1062 0.984 . S
H1070 N1058 0.984 . S
H1071 N1058 0.985 . S
C1072 C1073 1.363 . S
C1072 C1078 1.379 . S
C1072 N1080 1.356 . S
C1073 C1072 1.363 . S
C1073 C1079 1.363 . S
C1074 C1075 1.363 . S
C1074 C1079 1.379 . S
C1074 N1081 1.356 . S
C1075 C1074 1.363 . S
C1075 C1078 1.363 . S
N1076 C1078 1.356 . S
N1076 H1088 0.984 . S
N1076 H1089 0.985 . S
N1077 C1079 1.356 . S
N1077 H1082 0.984 . S
N1077 H1083 0.985 . S
C1078 C1072 1.379 . S
C1078 C1075 1.363 . S
C1078 N1076 1.356 . S
C1079 C1073 1.363 . S
C1079 C1074 1.379 . S
C1079 N1077 1.356 . S
N1080 C1072 1.356 . S
N1080 H1086 0.984 . S
N1080 H1087 0.984 . S
N1081 C1074 1.356 . S
N1081 H1084 0.984 . S
N1081 H1085 0.985 . S
H1082 N1077 0.984 . S
H1083 N1077 0.985 . S
H1084 N1081 0.984 . S
H1085 N1081 0.985 . S
H1086 N1080 0.984 . S
H1087 N1080 0.984 . S
H1088 N1076 0.984 . S
H1089 N1076 0.985 . S
C1090 C1091 1.363 . S
C1090 C1096 1.379 . S
C1090 N1098 1.356 . S
C1091 C1090 1.363 . S
C1091 C1097 1.363 . S
C1092 C1093 1.363 . S
C1092 C1097 1.379 . S
C1092 N1099 1.356 1_655 S
C1093 C1092 1.363 . S
C1093 C1096 1.363 . S
N1094 C1096 1.356 . S
N1094 H1106 0.984 . S
N1094 H1107 0.985 . S
N1095 C1097 1.356 . S
N1095 H1100 0.984 . S
N1095 H1101 0.985 . S
C1096 C1090 1.379 . S
C1096 C1093 1.363 . S
C1096 N1094 1.356 . S
C1097 C1091 1.363 . S
C1097 C1092 1.379 . S
C1097 N1095 1.356 . S
N1098 C1090 1.356 . S
N1098 H1104 0.984 . S
N1098 H1105 0.984 . S
N1099 C1092 1.356 1_455 S
N1099 H1102 0.984 . S
N1099 H1103 0.985 . S
H1100 N1095 0.984 . S
H1101 N1095 0.985 . S
H1102 N1099 0.984 . S
H1103 N1099 0.985 . S
H1104 N1098 0.984 . S
H1105 N1098 0.984 . S
H1106 N1094 0.984 . S
H1107 N1094 0.985 . S
C1108 C1109 1.363 . S
C1108 C1114 1.379 . S
C1108 N1116 1.356 . S
C1109 C1108 1.363 . S
C1109 C1115 1.363 . S
C1110 C1111 1.363 . S
C1110 C1115 1.379 . S
C1110 N1117 1.356 . S
C1111 C1110 1.363 . S
C1111 C1114 1.363 . S
N1112 C1114 1.356 . S
N1112 H1124 0.984 . S
N1112 H1125 0.985 . S
N1113 C1115 1.356 . S
N1113 H1118 0.984 . S
N1113 H1119 0.985 . S
C1114 C1108 1.379 . S
C1114 C1111 1.363 . S
C1114 N1112 1.356 . S
C1115 C1109 1.363 . S
C1115 C1110 1.379 . S
C1115 N1113 1.356 . S
N1116 C1108 1.356 . S
N1116 H1122 0.984 . S
N1116 H1123 0.984 . S
N1117 C1110 1.356 . S
N1117 H1120 0.984 . S
N1117 H1121 0.985 . S
H1118 N1113 0.984 . S
H1119 N1113 0.985 . S
H1120 N1117 0.984 . S
H1121 N1117 0.985 . S
H1122 N1116 0.984 . S
H1123 N1116 0.984 . S
H1124 N1112 0.984 . S
H1125 N1112 0.985 . S
C1126 C1127 1.363 . S
C1126 C1132 1.379 . S
C1126 N1134 1.356 . S
C1127 C1126 1.363 . S
C1127 C1133 1.363 . S
C1128 C1129 1.363 . S
C1128 C1133 1.379 . S
C1128 N1135 1.356 . S
C1129 C1128 1.363 . S
C1129 C1132 1.363 . S
N1130 C1132 1.356 . S
N1130 H1142 0.984 . S
N1130 H1143 0.985 . S
N1131 C1133 1.356 . S
N1131 H1136 0.984 . S
N1131 H1137 0.985 1_565 S
C1132 C1126 1.379 . S
C1132 C1129 1.363 . S
C1132 N1130 1.356 . S
C1133 C1127 1.363 . S
C1133 C1128 1.379 . S
C1133 N1131 1.356 . S
N1134 C1126 1.356 . S
N1134 H1140 0.984 . S
N1134 H1141 0.984 . S
N1135 C1128 1.356 . S
N1135 H1138 0.984 . S
N1135 H1139 0.985 1_556 S
H1136 N1131 0.984 . S
H1137 N1131 0.985 1_545 S
H1138 N1135 0.984 . S
H1139 N1135 0.985 1_554 S
H1140 N1134 0.984 . S
H1141 N1134 0.984 . S
H1142 N1130 0.984 . S
H1143 N1130 0.985 . S
C1144 C1145 1.363 . S
C1144 C1150 1.379 . S
C1144 N1152 1.356 . S
C1145 C1144 1.363 . S
C1145 C1151 1.363 . S
C1146 C1147 1.363 . S
C1146 C1151 1.379 . S
C1146 N1153 1.356 . S
C1147 C1146 1.363 . S
C1147 C1150 1.363 . S
N1148 C1150 1.356 . S
N1148 H1160 0.984 . S
N1148 H1161 0.985 . S
N1149 C1151 1.356 . S
N1149 H1154 0.984 . S
N1149 H1155 0.985 . S
C1150 C1144 1.379 . S
C1150 C1147 1.363 . S
C1150 N1148 1.356 . S
C1151 C1145 1.363 . S
C1151 C1146 1.379 . S
C1151 N1149 1.356 . S
N1152 C1144 1.356 . S
N1152 H1158 0.984 . S
N1152 H1159 0.984 . S
N1153 C1146 1.356 . S
N1153 H1156 0.984 . S
N1153 H1157 0.985 . S
H1154 N1149 0.984 . S
H1155 N1149 0.985 . S
H1156 N1153 0.984 . S
H1157 N1153 0.985 . S
H1158 N1152 0.984 . S
H1159 N1152 0.984 . S
H1160 N1148 0.984 . S
H1161 N1148 0.985 . S
C1162 C1163 1.363 . S
C1162 C1168 1.379 . S
C1162 N1170 1.356 . S
C1163 C1162 1.363 . S
C1163 C1169 1.363 . S
C1164 C1165 1.363 . S
C1164 C1169 1.379 . S
C1164 N1171 1.356 . S
C1165 C1164 1.363 . S
C1165 C1168 1.363 . S
N1166 C1168 1.356 . S
N1166 H1178 0.984 . S
N1166 H1179 0.985 . S
N1167 C1169 1.356 . S
N1167 H1172 0.984 . S
N1167 H1173 0.985 . S
C1168 C1162 1.379 . S
C1168 C1165 1.363 . S
C1168 N1166 1.356 . S
C1169 C1163 1.363 . S
C1169 C1164 1.379 . S
C1169 N1167 1.356 . S
N1170 C1162 1.356 . S
N1170 H1176 0.984 . S
N1170 H1177 0.984 . S
N1171 C1164 1.356 . S
N1171 H1174 0.984 . S
N1171 H1175 0.985 . S
H1172 N1167 0.984 . S
H1173 N1167 0.985 . S
H1174 N1171 0.984 . S
H1175 N1171 0.985 . S
H1176 N1170 0.984 . S
H1177 N1170 0.984 . S
H1178 N1166 0.984 . S
H1179 N1166 0.985 . S
C1180 C1181 1.363 . S
C1180 C1186 1.379 . S
C1180 N1188 1.356 . S
C1181 C1180 1.363 . S
C1181 C1187 1.363 . S
C1182 C1183 1.363 . S
C1182 C1187 1.379 . S
C1182 N1189 1.356 . S
C1183 C1182 1.363 . S
C1183 C1186 1.363 . S
N1184 C1186 1.356 . S
N1184 H1196 0.984 . S
N1184 H1197 0.985 . S
N1185 C1187 1.356 . S
N1185 H1190 0.984 . S
N1185 H1191 0.985 . S
C1186 C1180 1.379 . S
C1186 C1183 1.363 . S
C1186 N1184 1.356 . S
C1187 C1181 1.363 . S
C1187 C1182 1.379 . S
C1187 N1185 1.356 . S
N1188 C1180 1.356 . S
N1188 H1194 0.984 1_655 S
N1188 H1195 0.984 1_655 S
N1189 C1182 1.356 . S
N1189 H1192 0.984 . S
N1189 H1193 0.985 . S
H1190 N1185 0.984 . S
H1191 N1185 0.985 . S
H1192 N1189 0.984 . S
H1193 N1189 0.985 . S
H1194 N1188 0.984 1_455 S
H1195 N1188 0.984 1_455 S
H1196 N1184 0.984 . S
H1197 N1184 0.985 . S
C1198 C1199 1.363 . S
C1198 C1204 1.379 . S
C1198 N1206 1.356 . S
C1199 C1198 1.363 . S
C1199 C1205 1.363 . S
C1200 C1201 1.363 . S
C1200 C1205 1.379 . S
C1200 N1207 1.356 . S
C1201 C1200 1.363 . S
C1201 C1204 1.363 . S
N1202 C1204 1.356 . S
N1202 H1214 0.984 . S
N1202 H1215 0.985 . S
N1203 C1205 1.356 . S
N1203 H1208 0.984 . S
N1203 H1209 0.985 . S
C1204 C1198 1.379 . S
C1204 C1201 1.363 . S
C1204 N1202 1.356 . S
C1205 C1199 1.363 . S
C1205 C1200 1.379 . S
C1205 N1203 1.356 . S
N1206 C1198 1.356 . S
N1206 H1212 0.984 . S
N1206 H1213 0.984 . S
N1207 C1200 1.356 . S
N1207 H1210 0.984 . S
N1207 H1211 0.985 . S
H1208 N1203 0.984 . S
H1209 N1203 0.985 . S
H1210 N1207 0.984 . S
H1211 N1207 0.985 . S
H1212 N1206 0.984 . S
H1213 N1206 0.984 . S
H1214 N1202 0.984 . S
H1215 N1202 0.985 . S
C1216 C1217 1.363 . S
C1216 C1222 1.379 . S
C1216 N1224 1.356 . S
C1217 C1216 1.363 . S
C1217 C1223 1.363 . S
C1218 C1219 1.363 . S
C1218 C1223 1.379 . S
C1218 N1225 1.356 . S
C1219 C1218 1.363 . S
C1219 C1222 1.363 . S
N1220 C1222 1.356 . S
N1220 H1232 0.984 . S
N1220 H1233 0.985 . S
N1221 C1223 1.356 . S
N1221 H1226 0.984 . S
N1221 H1227 0.985 . S
C1222 C1216 1.379 . S
C1222 C1219 1.363 . S
C1222 N1220 1.356 . S
C1223 C1217 1.363 . S
C1223 C1218 1.379 . S
C1223 N1221 1.356 . S
N1224 C1216 1.356 . S
N1224 H1230 0.984 . S
N1224 H1231 0.984 . S
N1225 C1218 1.356 . S
N1225 H1228 0.984 . S
N1225 H1229 0.985 . S
H1226 N1221 0.984 . S
H1227 N1221 0.985 . S
H1228 N1225 0.984 . S
H1229 N1225 0.985 . S
H1230 N1224 0.984 . S
H1231 N1224 0.984 . S
H1232 N1220 0.984 . S
H1233 N1220 0.985 . S
C1234 C1235 1.363 . S
C1234 C1240 1.379 . S
C1234 N1242 1.356 . S
C1235 C1234 1.363 . S
C1235 C1241 1.363 . S
C1236 C1237 1.363 . S
C1236 C1241 1.379 . S
C1236 N1243 1.356 . S
C1237 C1236 1.363 . S
C1237 C1240 1.363 . S
N1238 C1240 1.356 . S
N1238 H1250 0.984 . S
N1238 H1251 0.985 . S
N1239 C1241 1.356 . S
N1239 H1244 0.984 . S
N1239 H1245 0.985 . S
C1240 C1234 1.379 . S
C1240 C1237 1.363 . S
C1240 N1238 1.356 . S
C1241 C1235 1.363 . S
C1241 C1236 1.379 . S
C1241 N1239 1.356 . S
N1242 C1234 1.356 . S
N1242 H1248 0.984 . S
N1242 H1249 0.984 . S
N1243 C1236 1.356 . S
N1243 H1246 0.984 . S
N1243 H1247 0.985 . S
H1244 N1239 0.984 . S
H1245 N1239 0.985 . S
H1246 N1243 0.984 . S
H1247 N1243 0.985 . S
H1248 N1242 0.984 . S
H1249 N1242 0.984 . S
H1250 N1238 0.984 . S
H1251 N1238 0.985 . S
C1252 C1253 1.363 . S
C1252 C1258 1.379 . S
C1252 N1260 1.356 . S
C1253 C1252 1.363 . S
C1253 C1259 1.363 . S
C1254 C1255 1.363 . S
C1254 C1259 1.379 . S
C1254 N1261 1.356 . S
C1255 C1254 1.363 . S
C1255 C1258 1.363 . S
N1256 C1258 1.356 . S
N1256 H1268 0.984 . S
N1256 H1269 0.985 . S
N1257 C1259 1.356 . S
N1257 H1262 0.984 . S
N1257 H1263 0.985 . S
C1258 C1252 1.379 . S
C1258 C1255 1.363 . S
C1258 N1256 1.356 . S
C1259 C1253 1.363 . S
C1259 C1254 1.379 . S
C1259 N1257 1.356 . S
N1260 C1252 1.356 . S
N1260 H1266 0.984 . S
N1260 H1267 0.984 . S
N1261 C1254 1.356 . S
N1261 H1264 0.984 . S
N1261 H1265 0.985 . S
H1262 N1257 0.984 . S
H1263 N1257 0.985 . S
H1264 N1261 0.984 . S
H1265 N1261 0.985 . S
H1266 N1260 0.984 . S
H1267 N1260 0.984 . S
H1268 N1256 0.984 . S
H1269 N1256 0.985 . S
C1270 C1271 1.363 . S
C1270 C1276 1.379 . S
C1270 N1278 1.356 . S
C1271 C1270 1.363 . S
C1271 C1277 1.363 . S
C1272 C1273 1.363 . S
C1272 C1277 1.379 . S
C1272 N1279 1.356 . S
C1273 C1272 1.363 . S
C1273 C1276 1.363 . S
N1274 C1276 1.356 . S
N1274 H1286 0.984 1_554 S
N1274 H1287 0.985 . S
N1275 C1277 1.356 . S
N1275 H1280 0.984 . S
N1275 H1281 0.985 1_565 S
C1276 C1270 1.379 . S
C1276 C1273 1.363 . S
C1276 N1274 1.356 . S
C1277 C1271 1.363 . S
C1277 C1272 1.379 . S
C1277 N1275 1.356 . S
N1278 C1270 1.356 . S
N1278 H1284 0.984 1_554 S
N1278 H1285 0.984 . S
N1279 C1272 1.356 . S
N1279 H1282 0.984 . S
N1279 H1283 0.985 . S
H1280 N1275 0.984 . S
H1281 N1275 0.985 1_545 S
H1282 N1279 0.984 . S
H1283 N1279 0.985 . S
H1284 N1278 0.984 1_556 S
H1285 N1278 0.984 . S
H1286 N1274 0.984 1_556 S
H1287 N1274 0.985 . S
C1288 C1289 1.363 . S
C1288 C1294 1.379 . S
C1288 N1296 1.356 . S
C1289 C1288 1.363 . S
C1289 C1295 1.363 . S
C1290 C1291 1.363 . S
C1290 C1295 1.379 . S
C1290 N1297 1.356 . S
C1291 C1290 1.363 . S
C1291 C1294 1.363 . S
N1292 C1294 1.356 . S
N1292 H1304 0.984 . S
N1292 H1305 0.985 . S
N1293 C1295 1.356 . S
N1293 H1298 0.984 . S
N1293 H1299 0.985 . S
C1294 C1288 1.379 . S
C1294 C1291 1.363 . S
C1294 N1292 1.356 . S
C1295 C1289 1.363 . S
C1295 C1290 1.379 . S
C1295 N1293 1.356 . S
N1296 C1288 1.356 . S
N1296 H1302 0.984 . S
N1296 H1303 0.984 . S
N1297 C1290 1.356 . S
N1297 H1300 0.984 . S
N1297 H1301 0.985 . S
H1298 N1293 0.984 . S
H1299 N1293 0.985 . S
H1300 N1297 0.984 . S
H1301 N1297 0.985 . S
H1302 N1296 0.984 . S
H1303 N1296 0.984 . S
H1304 N1292 0.984 . S
H1305 N1292 0.985 . S
C1306 C1307 1.363 . S
C1306 C1312 1.379 . S
C1306 N1314 1.356 . S
C1307 C1306 1.363 . S
C1307 C1313 1.363 . S
C1308 C1309 1.363 . S
C1308 C1313 1.379 . S
C1308 N1315 1.356 . S
C1309 C1308 1.363 . S
C1309 C1312 1.363 . S
N1310 C1312 1.356 . S
N1310 H1322 0.984 . S
N1310 H1323 0.985 . S
N1311 C1313 1.356 . S
N1311 H1316 0.984 . S
N1311 H1317 0.985 . S
C1312 C1306 1.379 . S
C1312 C1309 1.363 . S
C1312 N1310 1.356 . S
C1313 C1307 1.363 . S
C1313 C1308 1.379 . S
C1313 N1311 1.356 . S
N1314 C1306 1.356 . S
N1314 H1320 0.984 . S
N1314 H1321 0.984 . S
N1315 C1308 1.356 . S
N1315 H1318 0.984 . S
N1315 H1319 0.985 . S
H1316 N1311 0.984 . S
H1317 N1311 0.985 . S
H1318 N1315 0.984 . S
H1319 N1315 0.985 . S
H1320 N1314 0.984 . S
H1321 N1314 0.984 . S
H1322 N1310 0.984 . S
H1323 N1310 0.985 . S
C1324 C1325 1.363 . S
C1324 C1330 1.379 . S
C1324 N1332 1.356 . S
C1325 C1324 1.363 . S
C1325 C1331 1.363 . S
C1326 C1327 1.363 . S
C1326 C1331 1.379 . S
C1326 N1333 1.356 . S
C1327 C1326 1.363 . S
C1327 C1330 1.363 . S
N1328 C1330 1.356 . S
N1328 H1340 0.984 . S
N1328 H1341 0.985 . S
N1329 C1331 1.356 . S
N1329 H1334 0.984 . S
N1329 H1335 0.985 . S
C1330 C1324 1.379 . S
C1330 C1327 1.363 . S
C1330 N1328 1.356 . S
C1331 C1325 1.363 . S
C1331 C1326 1.379 . S
C1331 N1329 1.356 . S
N1332 C1324 1.356 . S
N1332 H1338 0.984 . S
N1332 H1339 0.984 . S
N1333 C1326 1.356 . S
N1333 H1336 0.984 . S
N1333 H1337 0.985 . S
H1334 N1329 0.984 . S
H1335 N1329 0.985 . S
H1336 N1333 0.984 . S
H1337 N1333 0.985 . S
H1338 N1332 0.984 . S
H1339 N1332 0.984 . S
H1340 N1328 0.984 . S
H1341 N1328 0.985 . S
C1342 C1343 1.363 . S
C1342 C1348 1.379 . S
C1342 N1350 1.356 . S
C1343 C1342 1.363 . S
C1343 C1349 1.363 . S
C1344 C1345 1.363 . S
C1344 C1349 1.379 . S
C1344 N1351 1.356 . S
C1345 C1344 1.363 . S
C1345 C1348 1.363 . S
N1346 C1348 1.356 . S
N1346 H1358 0.984 . S
N1346 H1359 0.985 . S
N1347 C1349 1.356 . S
N1347 H1352 0.984 . S
N1347 H1353 0.985 . S
C1348 C1342 1.379 . S
C1348 C1345 1.363 . S
C1348 N1346 1.356 . S
C1349 C1343 1.363 . S
C1349 C1344 1.379 . S
C1349 N1347 1.356 . S
N1350 C1342 1.356 . S
N1350 H1356 0.984 . S
N1350 H1357 0.984 . S
N1351 C1344 1.356 . S
N1351 H1354 0.984 . S
N1351 H1355 0.985 . S
H1352 N1347 0.984 . S
H1353 N1347 0.985 . S
H1354 N1351 0.984 . S
H1355 N1351 0.985 . S
H1356 N1350 0.984 . S
H1357 N1350 0.984 . S
H1358 N1346 0.984 . S
H1359 N1346 0.985 . S
C1360 C1361 1.363 . S
C1360 C1366 1.379 . S
C1360 N1368 1.356 . S
C1361 C1360 1.363 . S
C1361 C1367 1.363 . S
C1362 C1363 1.363 . S
C1362 C1367 1.379 . S
C1362 N1369 1.356 . S
C1363 C1362 1.363 . S
C1363 C1366 1.363 . S
N1364 C1366 1.356 . S
N1364 H1376 0.984 . S
N1364 H1377 0.985 . S
N1365 C1367 1.356 . S
N1365 H1370 0.984 . S
N1365 H1371 0.985 . S
C1366 C1360 1.379 . S
C1366 C1363 1.363 . S
C1366 N1364 1.356 . S
C1367 C1361 1.363 . S
C1367 C1362 1.379 . S
C1367 N1365 1.356 . S
N1368 C1360 1.356 . S
N1368 H1374 0.984 . S
N1368 H1375 0.984 . S
N1369 C1362 1.356 . S
N1369 H1372 0.984 . S
N1369 H1373 0.985 . S
H1370 N1365 0.984 . S
H1371 N1365 0.985 . S
H1372 N1369 0.984 . S
H1373 N1369 0.985 . S
H1374 N1368 0.984 . S
H1375 N1368 0.984 . S
H1376 N1364 0.984 . S
H1377 N1364 0.985 . S
C1378 C1379 1.363 . S
C1378 C1384 1.379 . S
C1378 N1386 1.356 . S
C1379 C1378 1.363 . S
C1379 C1385 1.363 . S
C1380 C1381 1.363 . S
C1380 C1385 1.379 . S
C1380 N1387 1.356 . S
C1381 C1380 1.363 . S
C1381 C1384 1.363 . S
N1382 C1384 1.356 . S
N1382 H1394 0.984 . S
N1382 H1395 0.985 . S
N1383 C1385 1.356 . S
N1383 H1388 0.984 . S
N1383 H1389 0.985 . S
C1384 C1378 1.379 . S
C1384 C1381 1.363 . S
C1384 N1382 1.356 . S
C1385 C1379 1.363 . S
C1385 C1380 1.379 . S
C1385 N1383 1.356 . S
N1386 C1378 1.356 . S
N1386 H1392 0.984 . S
N1386 H1393 0.984 . S
N1387 C1380 1.356 . S
N1387 H1390 0.984 . S
N1387 H1391 0.985 . S
H1388 N1383 0.984 . S
H1389 N1383 0.985 . S
H1390 N1387 0.984 . S
H1391 N1387 0.985 . S
H1392 N1386 0.984 . S
H1393 N1386 0.984 . S
H1394 N1382 0.984 . S
H1395 N1382 0.985 . S
C1396 C1397 1.363 . S
C1396 C1402 1.379 . S
C1396 N1404 1.356 . S
C1397 C1396 1.363 . S
C1397 C1403 1.363 . S
C1398 C1399 1.363 . S
C1398 C1403 1.379 . S
C1398 N1405 1.356 . S
C1399 C1398 1.363 . S
C1399 C1402 1.363 . S
N1400 C1402 1.356 . S
N1400 H1412 0.984 . S
N1400 H1413 0.985 . S
N1401 C1403 1.356 . S
N1401 H1406 0.984 . S
N1401 H1407 0.985 . S
C1402 C1396 1.379 . S
C1402 C1399 1.363 . S
C1402 N1400 1.356 . S
C1403 C1397 1.363 . S
C1403 C1398 1.379 . S
C1403 N1401 1.356 . S
N1404 C1396 1.356 . S
N1404 H1410 0.984 . S
N1404 H1411 0.984 . S
N1405 C1398 1.356 . S
N1405 H1408 0.984 . S
N1405 H1409 0.985 . S
H1406 N1401 0.984 . S
H1407 N1401 0.985 . S
H1408 N1405 0.984 . S
H1409 N1405 0.985 . S
H1410 N1404 0.984 . S
H1411 N1404 0.984 . S
H1412 N1400 0.984 . S
H1413 N1400 0.985 . S
C1414 C1415 1.363 . S
C1414 C1420 1.379 . S
C1414 N1422 1.356 . S
C1415 C1414 1.363 . S
C1415 C1421 1.363 . S
C1416 C1417 1.363 . S
C1416 C1421 1.379 . S
C1416 N1423 1.356 . S
C1417 C1416 1.363 . S
C1417 C1420 1.363 . S
N1418 C1420 1.356 . S
N1418 H1430 0.984 . S
N1418 H1431 0.985 . S
N1419 C1421 1.356 . S
N1419 H1424 0.984 . S
N1419 H1425 0.985 . S
C1420 C1414 1.379 . S
C1420 C1417 1.363 . S
C1420 N1418 1.356 . S
C1421 C1415 1.363 . S
C1421 C1416 1.379 . S
C1421 N1419 1.356 . S
N1422 C1414 1.356 . S
N1422 H1428 0.984 . S
N1422 H1429 0.984 . S
N1423 C1416 1.356 . S
N1423 H1426 0.984 . S
N1423 H1427 0.985 . S
H1424 N1419 0.984 . S
H1425 N1419 0.985 . S
H1426 N1423 0.984 . S
H1427 N1423 0.985 . S
H1428 N1422 0.984 . S
H1429 N1422 0.984 . S
H1430 N1418 0.984 . S
H1431 N1418 0.985 . S
C1432 C1433 1.363 . S
C1432 C1438 1.379 . S
C1432 N1440 1.356 . S
C1433 C1432 1.363 . S
C1433 C1439 1.363 . S
C1434 C1435 1.363 . S
C1434 C1439 1.379 . S
C1434 N1441 1.356 . S
C1435 C1434 1.363 . S
C1435 C1438 1.363 . S
N1436 C1438 1.356 . S
N1436 H1448 0.984 . S
N1436 H1449 0.985 . S
N1437 C1439 1.356 . S
N1437 H1442 0.984 . S
N1437 H1443 0.985 . S
C1438 C1432 1.379 . S
C1438 C1435 1.363 . S
C1438 N1436 1.356 . S
C1439 C1433 1.363 . S
C1439 C1434 1.379 . S
C1439 N1437 1.356 . S
N1440 C1432 1.356 . S
N1440 H1446 0.984 . S
N1440 H1447 0.984 . S
N1441 C1434 1.356 . S
N1441 H1444 0.984 . S
N1441 H1445 0.985 . S
H1442 N1437 0.984 . S
H1443 N1437 0.985 . S
H1444 N1441 0.984 . S
H1445 N1441 0.985 . S
H1446 N1440 0.984 . S
H1447 N1440 0.984 . S
H1448 N1436 0.984 . S
H1449 N1436 0.985 . S
C1450 C1451 1.363 . S
C1450 C1456 1.379 . S
C1450 N1458 1.356 . S
C1451 C1450 1.363 . S
C1451 C1457 1.363 . S
C1452 C1453 1.363 . S
C1452 C1457 1.379 . S
C1452 N1459 1.356 . S
C1453 C1452 1.363 . S
C1453 C1456 1.363 . S
N1454 C1456 1.356 . S
N1454 H1466 0.984 . S
N1454 H1467 0.985 . S
N1455 C1457 1.356 . S
N1455 H1460 0.984 . S
N1455 H1461 0.985 . S
C1456 C1450 1.379 . S
C1456 C1453 1.363 . S
C1456 N1454 1.356 . S
C1457 C1451 1.363 . S
C1457 C1452 1.379 . S
C1457 N1455 1.356 . S
N1458 C1450 1.356 . S
N1458 H1464 0.984 . S
N1458 H1465 0.984 . S
N1459 C1452 1.356 . S
N1459 H1462 0.984 . S
N1459 H1463 0.985 . S
H1460 N1455 0.984 . S
H1461 N1455 0.985 . S
H1462 N1459 0.984 . S
H1463 N1459 0.985 . S
H1464 N1458 0.984 . S
H1465 N1458 0.984 . S
H1466 N1454 0.984 . S
H1467 N1454 0.985 . S
C1468 C1469 1.363 . S
C1468 C1474 1.379 . S
C1468 N1476 1.356 . S
C1469 C1468 1.363 . S
C1469 C1475 1.363 . S
C1470 C1471 1.363 . S
C1470 C1475 1.379 . S
C1470 N1477 1.356 . S
C1471 C1470 1.363 . S
C1471 C1474 1.363 . S
N1472 C1474 1.356 . S
N1472 H1484 0.984 . S
N1472 H1485 0.985 . S
N1473 C1475 1.356 . S
N1473 H1478 0.984 . S
N1473 H1479 0.985 . S
C1474 C1468 1.379 . S
C1474 C1471 1.363 . S
C1474 N1472 1.356 . S
C1475 C1469 1.363 . S
C1475 C1470 1.379 . S
C1475 N1473 1.356 . S
N1476 C1468 1.356 . S
N1476 H1482 0.984 . S
N1476 H1483 0.984 . S
N1477 C1470 1.356 . S
N1477 H1480 0.984 . S
N1477 H1481 0.985 . S
H1478 N1473 0.984 . S
H1479 N1473 0.985 . S
H1480 N1477 0.984 . S
H1481 N1477 0.985 . S
H1482 N1476 0.984 . S
H1483 N1476 0.984 . S
H1484 N1472 0.984 . S
H1485 N1472 0.985 . S
C1486 C1487 1.363 . S
C1486 C1492 1.379 . S
C1486 N1494 1.356 . S
C1487 C1486 1.363 . S
C1487 C1493 1.363 . S
C1488 C1489 1.363 . S
C1488 C1493 1.379 . S
C1488 N1495 1.356 . S
C1489 C1488 1.363 . S
C1489 C1492 1.363 . S
N1490 C1492 1.356 . S
N1490 H1502 0.984 . S
N1490 H1503 0.985 . S
N1491 C1493 1.356 . S
N1491 H1496 0.984 . S
N1491 H1497 0.985 . S
C1492 C1486 1.379 . S
C1492 C1489 1.363 . S
C1492 N1490 1.356 . S
C1493 C1487 1.363 . S
C1493 C1488 1.379 . S
C1493 N1491 1.356 . S
N1494 C1486 1.356 . S
N1494 H1500 0.984 . S
N1494 H1501 0.984 . S
N1495 C1488 1.356 . S
N1495 H1498 0.984 . S
N1495 H1499 0.985 . S
H1496 N1491 0.984 . S
H1497 N1491 0.985 . S
H1498 N1495 0.984 . S
H1499 N1495 0.985 . S
H1500 N1494 0.984 . S
H1501 N1494 0.984 . S
H1502 N1490 0.984 . S
H1503 N1490 0.985 . S
C641 C129 3.664 . S
C643 C8 3.680 . S
C659 C19 3.057 . S
C661 C49 3.079 . S
C677 C98 1.296 . S
C679 C58 1.251 . S
C695 C135 0.933 . S
C697 C95 0.942 . S
C713 C179 0.518 . S
C715 C215 0.431 . S
C731 C218 1.321 . S
C733 C248 1.406 . S
C749 C245 0.706 . S
C751 C295 0.715 . S
C767 C165 1.012 . S
C769 C298 1.048 . S
C785 C369 3.376 . S
C787 C5 3.333 . S
C803 C419 0.919 . S
C805 C55 0.914 . S
C821 C89 3.068 . S
C823 C529 3.011 . S
C839 C328 1.269 . S
C841 C138 1.323 . S
C857 C458 1.323 . S
C859 C168 1.269 . S
C875 C565 3.333 . S
C877 C209 3.376 . S
C893 C259 0.919 . S
C895 C495 0.914 . S
C911 C609 3.068 . S
C913 C289 3.011 . S
C929 C325 1.012 . S
C931 C538 1.048 . S
C947 C375 0.431 . S
C949 C339 0.518 . S
C965 C408 1.406 . S
C967 C378 1.321 . S
C983 C568 3.680 . S
C985 C449 3.664 . S
C1001 C498 1.251 . S
C1003 C618 1.296 . S
C1019 C459 3.664 . S
C1021 C18 3.680 . S
C1037 C499 3.079 . S
C1039 C9 3.057 . S
C1055 C488 1.252 . S
C1057 C88 1.297 . S
C1073 C85 0.941 . S
C1075 C445 0.933 . S
C1091 C365 0.431 . S
C1093 C169 0.518 . S
C1109 C368 1.321 . S
C1111 C258 1.406 . S
C1127 C525 0.715 . S
C1129 C255 0.706 . S
C1145 C175 1.012 . S
C1147 C528 1.048 . S
C1163 C219 3.377 . S
C1165 C15 3.333 . S
C1181 C409 0.919 . S
C1183 C485 0.914 . S
C1199 C99 3.068 . S
C1201 C299 3.011 . S
C1217 C338 1.269 . S
C1219 C448 1.323 . S
C1235 C128 1.323 . S
C1237 C178 1.269 . S
C1253 C379 3.377 . S
C1255 C575 3.333 . S
C1271 C249 0.919 . S
C1273 C45 0.914 . S
C1289 C619 3.068 . S
C1291 C539 3.011 . S
C1307 C335 1.012 . S
C1309 C288 1.048 . S
C1325 C329 0.518 . S
C1327 C205 0.431 . S
C1343 C418 1.406 . S
C1345 C208 1.321 . S
C1361 C139 3.664 . S
C1363 C578 3.680 . S
C1379 C48 1.251 . S
C1381 C608 1.296 . S
C1397 C489 3.080 . S
C1399 C579 3.057 . S
C1415 C455 0.933 . S
C1417 C615 0.942 . S
C1433 C405 0.706 . S
C1435 C535 0.715 . S
C1451 C569 3.057 . S
C1453 C59 3.079 . S
C1469 C125 0.933 . S
C1471 C605 0.942 . S
C1487 C285 0.715 . S
C1489 C415 0.706 . S
