# Generated by pormake.
# Topology xfy, (5)-cn, num edge types: 1
# Building blocks:
#     Node 0, Type 0, BuildingBlock: BEQFEK_clean_sbu_0, # of connection points: 5
#     Node 1, Type 0, BuildingBlock: BEQFEK_clean_sbu_0, # of connection points: 5
#     Node 2, Type 0, BuildingBlock: BEQFEK_clean_sbu_0, # of connection points: 5
#     Node 3, Type 0, BuildingBlock: BEQFEK_clean_sbu_0, # of connection points: 5
#     Node 4, Type 0, BuildingBlock: BEQFEK_clean_sbu_0, # of connection points: 5
#     Node 5, Type 0, BuildingBlock: BEQFEK_clean_sbu_0, # of connection points: 5
#     Node 6, Type 0, BuildingBlock: BEQFEK_clean_sbu_0, # of connection points: 5
#     Node 7, Type 0, BuildingBlock: BEQFEK_clean_sbu_0, # of connection points: 5
#     Edge 8, Type (0, 0), BuildingBlock: UVAHIK_clean_linker_0, # of connection points: 2
#     Edge 9, Type (0, 0), BuildingBlock: UVAHIK_clean_linker_0, # of connection points: 2
#     Edge 10, Type (0, 0), BuildingBlock: UVAHIK_clean_linker_0, # of connection points: 2
#     Edge 11, Type (0, 0), BuildingBlock: UVAHIK_clean_linker_0, # of connection points: 2
#     Edge 12, Type (0, 0), BuildingBlock: UVAHIK_clean_linker_0, # of connection points: 2
#     Edge 13, Type (0, 0), BuildingBlock: UVAHIK_clean_linker_0, # of connection points: 2
#     Edge 14, Type (0, 0), BuildingBlock: UVAHIK_clean_linker_0, # of connection points: 2
#     Edge 15, Type (0, 0), BuildingBlock: UVAHIK_clean_linker_0, # of connection points: 2
#     Edge 16, Type (0, 0), BuildingBlock: UVAHIK_clean_linker_0, # of connection points: 2
#     Edge 17, Type (0, 0), BuildingBlock: UVAHIK_clean_linker_0, # of connection points: 2
#     Edge 18, Type (0, 0), BuildingBlock: UVAHIK_clean_linker_0, # of connection points: 2
#     Edge 19, Type (0, 0), BuildingBlock: UVAHIK_clean_linker_0, # of connection points: 2
#     Edge 20, Type (0, 0), BuildingBlock: UVAHIK_clean_linker_0, # of connection points: 2
#     Edge 21, Type (0, 0), BuildingBlock: UVAHIK_clean_linker_0, # of connection points: 2
#     Edge 22, Type (0, 0), BuildingBlock: UVAHIK_clean_linker_0, # of connection points: 2
#     Edge 23, Type (0, 0), BuildingBlock: UVAHIK_clean_linker_0, # of connection points: 2
#     Edge 24, Type (0, 0), BuildingBlock: UVAHIK_clean_linker_0, # of connection points: 2
#     Edge 25, Type (0, 0), BuildingBlock: UVAHIK_clean_linker_0, # of connection points: 2
#     Edge 26, Type (0, 0), BuildingBlock: UVAHIK_clean_linker_0, # of connection points: 2
#     Edge 27, Type (0, 0), BuildingBlock: UVAHIK_clean_linker_0, # of connection points: 2
# Relax obj value: 0.384
# Max RMSD: 0.217
# Mean RMSD: 0.217
data_MOF--net-xfy--node1-BEQFEK_clean_sbu_0--edge1-UVAHIK_clean_linker_0
_symmetry_space_group_name_H-M    P1
_symmetry_Int_Tables_number       1
_symmetry_cell_setting            triclinic
loop_
_symmetry_equiv_pos_as_xyz
'x, y, z'
_cell_length_a     36.468295
_cell_length_b     36.486827
_cell_length_c     72.143388
_cell_angle_alpha  90.075549
_cell_angle_beta   90.023588
_cell_angle_gamma 90.015642
loop_
_atom_site_label
_atom_site_type_symbol
_atom_site_fract_x
_atom_site_fract_y
_atom_site_fract_z
_atom_type_partial_charge
Co0 Co 0.24165 0.07024 0.41649 0.0
Co1 Co 0.22894 0.136 0.38925 0.0
C2 C 0.17326 0.07724 0.39295 0.0
O3 O 0.19304 0.06154 0.40511 0.0
O4 O 0.18366 0.10679 0.38518 0.0
C5 C 0.24685 0.99424 0.42313 0.0
O6 O 0.23462 0.99308 0.40601 0.0
C7 C 0.21713 0.17733 0.35493 0.0
C8 C 0.25445 0.22438 0.35887 0.0
C9 C 0.232 0.20752 0.34591 0.0
N10 N 0.23128 0.17572 0.3721 0.0
N11 N 0.2528 0.20447 0.37455 0.0
C12 C 0.18971 0.15044 0.34759 0.0
H13 H 0.20303 0.12335 0.34568 0.0
H14 H 0.1774 0.15975 0.33435 0.0
H15 H 0.16734 0.14717 0.35782 0.0
C16 C 0.3082 0.06153 0.39382 0.0
N17 N 0.2769 0.0791 0.39805 0.0
N18 N 0.27133 0.10566 0.38605 0.0
C19 C 0.29872 0.10513 0.37344 0.0
C20 C 0.32284 0.07705 0.37795 0.0
C21 C 0.32502 0.03209 0.4055 0.0
H22 H 0.31882 0.03695 0.42034 0.0
H23 H 0.31348 0.00517 0.40135 0.0
H24 H 0.35522 0.03116 0.40365 0.0
O25 O 0.23874 0.11179 0.43376 0.0
O26 O 0.22699 0.15796 0.4146 0.0
H27 H 0.30659 0.15785 0.36123 0.0
H28 H 0.32211 0.12032 0.34692 0.0
C29 C 0.3006 0.12939 0.35677 0.0
H30 H 0.27384 0.1291 0.34952 0.0
H31 H 0.26797 0.20935 0.38657 0.0
O32 O 0.25307 0.02522 0.43059 0.0
C33 C 0.23186 0.14551 0.43092 0.0
Co34 Co 0.06864 0.75252 0.57811 0.0
Co35 Co 0.13579 0.76314 0.60468 0.0
C36 C 0.07628 0.81867 0.60297 0.0
O37 O 0.05993 0.80003 0.59054 0.0
O38 O 0.10631 0.8077 0.61007 0.0
C39 C 0.9923 0.74889 0.57006 0.0
O40 O 0.98963 0.76237 0.5869 0.0
C41 C 0.17732 0.77056 0.63925 0.0
C42 C 0.23085 0.74678 0.6314 0.0
C43 C 0.21165 0.76151 0.64621 0.0
N44 N 0.17637 0.76147 0.62121 0.0
N45 N 0.20863 0.74786 0.61652 0.0
C46 C 0.14467 0.78398 0.64985 0.0
H47 H 0.11895 0.77729 0.64236 0.0
H48 H 0.14389 0.77161 0.66389 0.0
H49 H 0.14653 0.81418 0.65138 0.0
C50 C 0.05979 0.68545 0.60038 0.0
N51 N 0.07833 0.716 0.59588 0.0
N52 N 0.10642 0.71994 0.6072 0.0
C53 C 0.10654 0.69165 0.6193 0.0
C54 C 0.07667 0.66931 0.61548 0.0
C55 C 0.02675 0.67157 0.59025 0.0
H56 H 0.03022 0.67569 0.57513 0.0
H57 H 0.00226 0.68705 0.59492 0.0
H58 H 0.02214 0.642 0.59299 0.0
O59 O 0.10965 0.75716 0.56053 0.0
O60 O 0.15672 0.76746 0.57933 0.0
H61 H 0.16162 0.69074 0.6296 0.0
H62 H 0.13081 0.65993 0.64151 0.0
C63 C 0.1333 0.68719 0.63485 0.0
H64 H 0.12799 0.70844 0.64548 0.0
H65 H 0.21502 0.73805 0.60331 0.0
O66 O 0.02386 0.74153 0.56358 0.0
C67 C 0.14349 0.76393 0.56309 0.0
Co68 Co 0.74867 0.92845 0.41789 0.0
Co69 Co 0.75911 0.86625 0.3882 0.0
C70 C 0.81462 0.92512 0.39247 0.0
O71 O 0.79591 0.93908 0.4056 0.0
O72 O 0.80376 0.89645 0.38396 0.0
C73 C 0.74244 0.00341 0.42901 0.0
O74 O 0.75145 0.00979 0.41168 0.0
C75 C 0.77045 0.82504 0.35331 0.0
C76 C 0.7307 0.77986 0.35681 0.0
C77 C 0.75533 0.79484 0.34432 0.0
N78 N 0.75467 0.8282 0.37008 0.0
N79 N 0.73141 0.80075 0.37219 0.0
C80 C 0.80062 0.84952 0.34665 0.0
H81 H 0.82078 0.85358 0.35794 0.0
H82 H 0.78907 0.87667 0.34293 0.0
H83 H 0.81521 0.83763 0.33458 0.0
C84 C 0.68127 0.94116 0.39625 0.0
N85 N 0.71181 0.92188 0.39997 0.0
N86 N 0.71651 0.8968 0.38703 0.0
C87 C 0.68932 0.90005 0.37441 0.0
C88 C 0.66634 0.92837 0.37984 0.0
C89 C 0.6662 0.97102 0.40828 0.0
H90 H 0.67213 0.96525 0.42305 0.0
H91 H 0.67907 0.99744 0.40438 0.0
H92 H 0.6361 0.97368 0.40638 0.0
O93 O 0.75358 0.88476 0.43347 0.0
O94 O 0.76413 0.84113 0.41268 0.0
H95 H 0.67974 0.85009 0.35976 0.0
H96 H 0.66655 0.89057 0.34709 0.0
C97 C 0.68727 0.87888 0.35667 0.0
H98 H 0.71445 0.87899 0.3498 0.0
H99 H 0.71516 0.79694 0.38393 0.0
O100 O 0.73866 0.97051 0.43446 0.0
C101 C 0.76065 0.85158 0.42945 0.0
Co102 Co 0.9361 0.24285 0.58316 0.0
Co103 Co 0.87007 0.23232 0.61058 0.0
C104 C 0.92964 0.17697 0.60834 0.0
O105 O 0.94546 0.19591 0.59587 0.0
O106 O 0.89964 0.18753 0.61567 0.0
C107 C 0.0122 0.24807 0.57534 0.0
O108 O 0.01488 0.23621 0.59248 0.0
C109 C 0.82399 0.21939 0.6436 0.0
C110 C 0.7807 0.261 0.6396 0.0
C111 C 0.79328 0.23483 0.65197 0.0
N112 N 0.82975 0.23645 0.62735 0.0
N113 N 0.80337 0.26079 0.6249 0.0
C114 C 0.8466 0.18788 0.65033 0.0
H115 H 0.85117 0.16845 0.63875 0.0
H116 H 0.8737 0.19811 0.65505 0.0
H117 H 0.83286 0.17286 0.66173 0.0
C118 C 0.94442 0.31113 0.6045 0.0
N119 N 0.92656 0.2798 0.60067 0.0
N120 N 0.90034 0.27481 0.61293 0.0
C121 C 0.90149 0.30247 0.62538 0.0
C122 C 0.92954 0.32633 0.62044 0.0
C123 C 0.97394 0.32707 0.59255 0.0
H124 H 0.96881 0.32025 0.5778 0.0
H125 H 0.00078 0.31539 0.59671 0.0
H126 H 0.97523 0.35731 0.59407 0.0
O127 O 0.89486 0.23661 0.56601 0.0
O128 O 0.84818 0.22827 0.58525 0.0
H129 H 0.85058 0.31432 0.63869 0.0
H130 H 0.89028 0.32335 0.65289 0.0
C131 C 0.87833 0.30442 0.64247 0.0
H132 H 0.87575 0.27679 0.64869 0.0
H133 H 0.8016 0.27816 0.61346 0.0
O134 O 0.9806 0.25382 0.56851 0.0
C135 C 0.861 0.23047 0.56885 0.0
Co136 Co 0.2535 0.5768 0.91605 0.0
Co137 Co 0.26166 0.63832 0.88593 0.0
C138 C 0.31766 0.57956 0.88953 0.0
O139 O 0.30006 0.56582 0.90309 0.0
O140 O 0.30601 0.60798 0.88114 0.0
C141 C 0.25188 0.50254 0.92772 0.0
O142 O 0.26746 0.4973 0.91152 0.0
C143 C 0.2726 0.67788 0.85084 0.0
C144 C 0.22972 0.72047 0.85266 0.0
C145 C 0.25587 0.70583 0.84085 0.0
N146 N 0.25624 0.67543 0.86748 0.0
N147 N 0.23121 0.7015 0.86863 0.0
C148 C 0.30465 0.65485 0.84517 0.0
H149 H 0.29527 0.62642 0.84242 0.0
H150 H 0.3186 0.66603 0.83275 0.0
H151 H 0.32478 0.65409 0.85667 0.0
C152 C 0.18549 0.56263 0.89539 0.0
N153 N 0.2156 0.58289 0.89867 0.0
N154 N 0.21928 0.60749 0.88548 0.0
C155 C 0.19185 0.60293 0.87307 0.0
C156 C 0.16972 0.57426 0.87897 0.0
C157 C 0.17212 0.53248 0.90771 0.0
H158 H 0.17647 0.53994 0.92245 0.0
H159 H 0.18768 0.50708 0.90464 0.0
H160 H 0.14252 0.52701 0.90543 0.0
O161 O 0.25987 0.62078 0.93138 0.0
O162 O 0.26794 0.66409 0.9102 0.0
H163 H 0.17973 0.65113 0.85751 0.0
H164 H 0.16961 0.60908 0.84541 0.0
C165 C 0.1892 0.6227 0.85497 0.0
H166 H 0.21657 0.62383 0.84832 0.0
H167 H 0.21402 0.7053 0.88003 0.0
O168 O 0.24306 0.53485 0.93258 0.0
C169 C 0.26628 0.65397 0.92709 0.0
Co170 Co 0.57286 0.738 0.08079 0.0
Co171 Co 0.63772 0.72779 0.1089 0.0
C172 C 0.57717 0.67319 0.10663 0.0
O173 O 0.5619 0.69161 0.09378 0.0
O174 O 0.60706 0.68381 0.11405 0.0
C175 C 0.4975 0.74177 0.06966 0.0
O176 O 0.49179 0.72507 0.08552 0.0
C177 C 0.67746 0.72066 0.14421 0.0
C178 C 0.7305 0.74652 0.13725 0.0
C179 C 0.71112 0.73067 0.15168 0.0
N180 N 0.67705 0.7303 0.12623 0.0
N181 N 0.70903 0.74522 0.1221 0.0
C182 C 0.64484 0.70576 0.15429 0.0
H183 H 0.61918 0.71264 0.1468 0.0
H184 H 0.64353 0.71687 0.16861 0.0
H185 H 0.64718 0.67549 0.15511 0.0
C186 C 0.56475 0.80726 0.10128 0.0
N187 N 0.5822 0.77544 0.0981 0.0
N188 N 0.60883 0.77142 0.11025 0.0
C189 C 0.6089 0.80072 0.12173 0.0
C190 C 0.58071 0.82416 0.11649 0.0
C191 C 0.53447 0.82189 0.08938 0.0
H192 H 0.54061 0.81648 0.07458 0.0
H193 H 0.50851 0.80774 0.09299 0.0
H194 H 0.53078 0.85182 0.09133 0.0
O195 O 0.6151 0.73095 0.06424 0.0
O196 O 0.66081 0.72212 0.08402 0.0
H197 H 0.66289 0.80475 0.13314 0.0
H198 H 0.62876 0.83082 0.1457 0.0
C199 C 0.63404 0.80508 0.13798 0.0
H200 H 0.63008 0.78178 0.14757 0.0
H201 H 0.71572 0.75565 0.10907 0.0
O202 O 0.53005 0.75023 0.06505 0.0
C203 C 0.64873 0.72433 0.06749 0.0
Co204 Co 0.74047 0.43615 0.90847 0.0
Co205 Co 0.7288 0.36807 0.88259 0.0
C206 C 0.67456 0.42937 0.88364 0.0
O207 O 0.69387 0.44628 0.89562 0.0
O208 O 0.68453 0.39839 0.87718 0.0
C209 C 0.7442 0.51228 0.91855 0.0
O210 O 0.72564 0.51721 0.90314 0.0
C211 C 0.71943 0.32477 0.84856 0.0
C212 C 0.74375 0.27175 0.85682 0.0
C213 C 0.72785 0.28995 0.84201 0.0
N214 N 0.72994 0.32691 0.86638 0.0
N215 N 0.74398 0.295 0.8713 0.0
C216 C 0.70512 0.35667 0.83772 0.0
H217 H 0.71311 0.38285 0.84443 0.0
H218 H 0.71568 0.35606 0.8233 0.0
H219 H 0.67474 0.35521 0.83725 0.0
C220 C 0.80921 0.44097 0.88736 0.0
N221 N 0.77722 0.42439 0.8912 0.0
N222 N 0.77263 0.39631 0.87997 0.0
C223 C 0.80179 0.3943 0.86846 0.0
C224 C 0.82571 0.4228 0.87268 0.0
C225 C 0.8244 0.47246 0.89826 0.0
H226 H 0.80991 0.49795 0.8942 0.0
H227 H 0.85423 0.47605 0.89587 0.0
H228 H 0.81975 0.46782 0.91326 0.0
O229 O 0.73286 0.39603 0.92623 0.0
O230 O 0.72436 0.34771 0.90807 0.0
H231 H 0.80508 0.33871 0.85916 0.0
H232 H 0.83154 0.37053 0.84532 0.0
C233 C 0.80576 0.36672 0.85322 0.0
H234 H 0.7824 0.36945 0.84351 0.0
H235 H 0.75471 0.28945 0.88442 0.0
O236 O 0.75381 0.48007 0.92314 0.0
C237 C 0.72645 0.36201 0.92414 0.0
Co238 Co 0.42632 0.25605 0.07822 0.0
Co239 Co 0.36445 0.26322 0.10804 0.0
C240 C 0.42381 0.31867 0.10564 0.0
O241 O 0.43784 0.30139 0.09204 0.0
O242 O 0.39481 0.3072 0.11359 0.0
C243 C 0.5011 0.25055 0.06672 0.0
O244 O 0.50782 0.25842 0.08418 0.0
C245 C 0.32654 0.26786 0.14393 0.0
C246 C 0.27397 0.24059 0.13734 0.0
C247 C 0.29352 0.25674 0.15165 0.0
N248 N 0.32642 0.25866 0.12589 0.0
N249 N 0.29473 0.24286 0.12198 0.0
C250 C 0.35906 0.28363 0.15378 0.0
H251 H 0.38464 0.27759 0.14606 0.0
H252 H 0.36119 0.27247 0.16805 0.0
H253 H 0.35583 0.31382 0.15473 0.0
C254 C 0.43816 0.18573 0.0975 0.0
N255 N 0.41928 0.21693 0.09488 0.0
N256 N 0.39401 0.21996 0.10783 0.0
C257 C 0.39641 0.19073 0.11925 0.0
C258 C 0.42476 0.16841 0.11315 0.0
C259 C 0.46834 0.17234 0.08518 0.0
H260 H 0.46255 0.17971 0.07057 0.0
H261 H 0.49454 0.18524 0.08948 0.0
H262 H 0.47146 0.14215 0.08624 0.0
O263 O 0.38261 0.26383 0.06276 0.0
O264 O 0.33915 0.27076 0.08394 0.0
H265 H 0.34447 0.18646 0.13284 0.0
H266 H 0.38031 0.15947 0.14347 0.0
C267 C 0.37401 0.18573 0.13643 0.0
H268 H 0.37973 0.20854 0.14615 0.0
H269 H 0.28775 0.2326 0.10894 0.0
O270 O 0.46808 0.24728 0.06133 0.0
C271 C 0.34937 0.26996 0.06708 0.0
C272 C 0.60347 0.92362 0.36641 0.0
C273 C 0.63504 0.94441 0.36986 0.0
C274 C 0.57151 0.94076 0.36011 0.0
C275 C 0.52821 0.0305 0.3643 0.0
H276 H 0.45149 0.98612 0.3346 0.0
C277 C 0.38452 0.09196 0.36489 0.0
C278 C 0.35703 0.06608 0.36853 0.0
C279 C 0.41904 0.08053 0.35878 0.0
C280 C 0.47271 -0.00108 0.34288 0.0
H281 H 0.65959 0.99826 0.368 0.0
H282 H 0.60412 0.0282 0.35664 0.0
H283 H 0.51263 0.95858 0.33511 0.0
H284 H 0.34268 0.00858 0.36734 0.0
H285 H 0.4031 0.98836 0.35727 0.0
H286 H 0.48829 0.06964 0.37287 0.0
C287 C 0.60352 -0.00105 0.35919 0.0
C288 C 0.50767 0.98315 0.34317 0.0
C289 C 0.63525 0.98189 0.36562 0.0
C290 C 0.36371 0.02895 0.36481 0.0
C291 C 0.3982 0.01747 0.35882 0.0
C292 C 0.49338 0.04615 0.36404 0.0
C293 C 0.57087 0.97889 0.3571 0.0
C294 C 0.53552 0.99826 0.35428 0.0
C295 C 0.42666 0.043 0.35635 0.0
C296 C 0.46492 0.03 0.35376 0.0
H297 H 0.60288 0.89464 0.36966 0.0
H298 H 0.54676 0.92455 0.35878 0.0
H299 H 0.54878 0.04253 0.37327 0.0
H300 H 0.37995 0.12077 0.36769 0.0
H301 H 0.44022 0.10093 0.35672 0.0
C302 C 0.97913 0.36667 0.63263 0.0
C303 C 0.94162 0.36022 0.62984 0.0
C304 C 0.99138 0.40092 0.63856 0.0
C305 C 0.96186 0.49654 0.6355 0.0
H306 H 0.05484 0.51408 0.6601 0.0
C307 C 0.02709 0.63807 0.63292 0.0
C308 C 0.06295 0.63751 0.62593 0.0
C309 C 0.0112 0.60615 0.63985 0.0
C310 C 0.02872 0.50959 0.65331 0.0
H311 H 0.88716 0.38316 0.63252 0.0
H312 H 0.90836 0.4429 0.64356 0.0
H313 H 0.02691 0.4532 0.66143 0.0
H314 H 0.11128 0.60429 0.62158 0.0
H315 H 0.08348 0.54804 0.63363 0.0
H316 H 0.96411 0.5524 0.62689 0.0
C317 C 0.92848 0.42184 0.64065 0.0
C318 C 0.01274 0.47476 0.65402 0.0
C319 C 0.91627 0.38758 0.63452 0.0
C320 C 0.08365 0.60525 0.62706 0.0
C321 C 0.06774 0.5732 0.634 0.0
C322 C 0.97763 0.53131 0.63494 0.0
C323 C 0.96627 0.42937 0.64203 0.0
C324 C 0.97973 0.46752 0.64458 0.0
C325 C 0.0309 0.57307 0.63982 0.0
C326 C 0.01176 0.53793 0.64333 0.0
H327 H -0.00085 0.34567 0.62944 0.0
H328 H 0.02065 0.40563 0.6393 0.0
H329 H 0.9368 0.492 0.62778 0.0
H330 H 0.0108 0.66287 0.63224 0.0
H331 H 0.98296 0.60698 0.64447 0.0
C332 C 0.86773 0.46853 0.85847 0.0
C333 C 0.86103 0.43229 0.86394 0.0
C334 C 0.90295 0.47953 0.85339 0.0
C335 C 0.99771 0.45371 0.86374 0.0
H336 H 0.02008 0.53659 0.83208 0.0
C337 C 0.13949 0.5188 0.86601 0.0
C338 C 0.13882 0.55671 0.86923 0.0
C339 C 0.10822 0.50076 0.85965 0.0
C340 C 0.01424 0.51333 0.84091 0.0
H341 H 0.88483 0.37837 0.86715 0.0
H342 H 0.94635 0.39711 0.85758 0.0
H343 H 0.95945 0.50806 0.83053 0.0
H344 H 0.10632 0.60609 0.86718 0.0
H345 H 0.05108 0.57449 0.85623 0.0
H346 H 0.05186 0.45952 0.87453 0.0
C347 C 0.92465 0.41736 0.85765 0.0
C348 C 0.97955 0.497 0.84005 0.0
C349 C 0.88941 0.40648 0.86292 0.0
C350 C 0.10729 0.57679 0.86477 0.0
C351 C 0.07583 0.5587 0.85845 0.0
C352 C 0.03233 0.4698 0.86449 0.0
C353 C 0.93214 0.45435 0.85354 0.0
C354 C 0.97055 0.46765 0.85186 0.0
C355 C 0.07564 0.52031 0.85647 0.0
C356 C 0.04069 0.50037 0.85345 0.0
H357 H 0.84606 0.48882 0.85904 0.0
H358 H 0.90761 0.50826 0.8505 0.0
H359 H 0.99169 0.43169 0.87331 0.0
H360 H 0.16384 0.50292 0.86909 0.0
H361 H 0.10909 0.47127 0.85794 0.0
C362 C 0.47851 0.13668 0.12679 0.0
C363 C 0.44111 0.13626 0.12229 0.0
C364 C 0.49597 0.10474 0.13261 0.0
C365 C 0.48193 0.00893 0.14802 0.0
H366 H 0.568 0.99049 0.11787 0.0
C367 C 0.53201 0.86466 0.12926 0.0
C368 C 0.56911 0.85902 0.12505 0.0
C369 C 0.51952 0.89933 0.13441 0.0
C370 C 0.54466 0.99533 0.12682 0.0
H371 H 0.39193 0.10322 0.12126 0.0
H372 H 0.42251 0.04683 0.13137 0.0
H373 H 0.53944 0.05035 0.11721 0.0
H374 H 0.62281 0.88413 0.12406 0.0
H375 H 0.60137 0.94467 0.13378 0.0
H376 H 0.48674 0.95339 0.15726 0.0
C377 C 0.43829 0.07193 0.1306 0.0
C378 C 0.52816 0.02975 0.12638 0.0
C379 C 0.4208 0.10404 0.12478 0.0
C380 C 0.59406 0.88789 0.12731 0.0
C381 C 0.58166 0.92258 0.13266 0.0
C382 C 0.49867 0.97445 0.14858 0.0
C383 C 0.47632 0.07174 0.13397 0.0
C384 C 0.49613 0.03667 0.13661 0.0
C385 C 0.54402 0.92902 0.1356 0.0
C386 C 0.52968 0.96696 0.13759 0.0
H387 H 0.49455 0.16146 0.12512 0.0
H388 H 0.52515 0.10553 0.13538 0.0
H389 H 0.45749 0.01367 0.1562 0.0
H390 H 0.51235 0.84259 0.12774 0.0
H391 H 0.49034 0.9032 0.13636 0.0
C392 C 0.12621 0.02787 0.39652 0.0
C393 C 0.13726 0.06089 0.38819 0.0
C394 C 0.0917 0.01304 0.39287 0.0
C395 C -0.00065 0.04002 0.378 0.0
H396 H 0.98382 0.93487 0.3771 0.0
C397 C 0.87367 0.92628 0.37441 0.0
C398 C 0.85016 0.94228 0.38757 0.0
C399 C 0.90813 0.94162 0.37082 0.0
C400 C 0.98764 0.9643 0.37701 0.0
H401 H 0.12087 0.10364 0.36903 0.0
H402 H 0.06062 0.07748 0.3625 0.0
H403 H 0.04607 0.95909 0.37689 0.0
H404 H 0.84409 0.98766 0.40685 0.0
H405 H 0.90399 0.01383 0.40084 0.0
H406 H 0.94093 0.04523 0.37819 0.0
C407 C 0.07862 0.06335 0.37206 0.0
C408 C 0.02334 0.97819 0.37712 0.0
C409 C 0.11324 0.07826 0.37574 0.0
C410 C 0.86145 0.97449 0.39665 0.0
C411 C 0.89577 0.98976 0.39307 0.0
C412 C 0.96365 0.02613 0.37784 0.0
C413 C 0.06733 0.03075 0.38074 0.0
C414 C 0.02962 0.01617 0.37812 0.0
C415 C 0.91972 0.97331 0.38029 0.0
C416 C 0.95738 0.9881 0.37784 0.0
H417 H 0.14396 0.01365 0.40617 0.0
H418 H 0.08372 0.98823 0.40004 0.0
H419 H 0.00316 0.06941 0.37887 0.0
H420 H 0.8658 0.90157 0.36711 0.0
H421 H 0.92582 0.92849 0.36075 0.0
C422 C 0.97952 0.13032 0.60569 0.0
C423 C 0.94615 0.14141 0.61368 0.0
C424 C 0.99409 0.0958 0.60942 0.0
C425 C 0.02758 0.02639 0.62436 0.0
H426 H 0.95908 0.94532 0.62163 0.0
C427 C 0.07724 0.87601 0.62238 0.0
C428 C 0.06018 0.85411 0.60883 0.0
C429 C 0.06261 0.91024 0.6271 0.0
C430 C 0.97859 0.96766 0.62245 0.0
H431 H 0.90273 0.12527 0.63253 0.0
H432 H 0.92844 0.06488 0.63918 0.0
H433 H 0.93597 0.00788 0.62241 0.0
H434 H 0.01382 0.8507 0.58999 0.0
H435 H 0.98896 0.91025 0.59793 0.0
H436 H 0.07024 0.98626 0.62324 0.0
C437 C 0.94301 0.08288 0.6298 0.0
C438 C 0.96531 0.00354 0.62314 0.0
C439 C 0.92835 0.11755 0.62605 0.0
C440 C 0.02775 0.86679 0.60048 0.0
C441 C 0.01323 0.9009 0.60517 0.0
C442 C 0.04086 0.99051 0.62358 0.0
C443 C 0.97579 0.07142 0.6213 0.0
C444 C 0.98968 0.03338 0.62355 0.0
C445 C 0.03063 0.92323 0.6184 0.0
C446 C 0.01653 0.96077 0.62206 0.0
H447 H 0.99411 0.14796 0.59613 0.0
H448 H 0.01905 0.08774 0.60238 0.0
H449 H 0.04709 0.04874 0.62501 0.0
H450 H 0.10212 0.86695 0.62917 0.0
H451 H 0.07648 0.92662 0.63749 0.0
C452 C 0.61414 0.42601 0.86684 0.0
C453 C 0.639 0.44555 0.87802 0.0
C454 C 0.57924 0.44028 0.86315 0.0
C455 C 0.5006 0.46413 0.87082 0.0
H456 H 0.48357 0.56865 0.86622 0.0
C457 C 0.36611 0.53168 0.89353 0.0
C458 C 0.35267 0.56226 0.88382 0.0
C459 C 0.39979 0.51611 0.88887 0.0
C460 C 0.48772 0.53932 0.86717 0.0
H461 H 0.6472 0.49618 0.89335 0.0
H462 H 0.58669 0.52057 0.88716 0.0
H463 H 0.5458 0.54483 0.86405 0.0
H464 H 0.36378 0.59964 0.86114 0.0
H465 H 0.42263 0.57224 0.85293 0.0
H466 H 0.44254 0.45865 0.87408 0.0
C467 C 0.59406 0.49446 0.88105 0.0
C468 C 0.52346 0.52571 0.86613 0.0
C469 C 0.62876 0.48025 0.88475 0.0
C470 C 0.37339 0.57631 0.86901 0.0
C471 C 0.40719 0.56066 0.86433 0.0
C472 C 0.46484 0.47773 0.87179 0.0
C473 C 0.56862 0.47442 0.87049 0.0
C474 C 0.53043 0.48809 0.86852 0.0
C475 C 0.42094 0.53059 0.87434 0.0
C476 C 0.45809 0.5156 0.87055 0.0
H477 H 0.62122 0.39928 0.86136 0.0
H478 H 0.56039 0.42434 0.8548 0.0
H479 H 0.50495 0.43504 0.87281 0.0
H480 H 0.35095 0.52005 0.90501 0.0
H481 H 0.40978 0.4934 0.8971 0.0
C482 C 0.42482 0.37573 0.12528 0.0
C483 C 0.44119 0.35337 0.11171 0.0
C484 C 0.44023 0.40972 0.12985 0.0
C485 C 0.52505 0.46575 0.12462 0.0
H486 H 0.45778 0.54797 0.12534 0.0
C487 C 0.52694 0.62674 0.10439 0.0
C488 C 0.56014 0.63817 0.11245 0.0
C489 C 0.51183 0.59275 0.10877 0.0
C490 C 0.47694 0.52529 0.12523 0.0
H491 H 0.4874 0.34864 0.09287 0.0
H492 H 0.5137 0.40768 0.1006 0.0
H493 H 0.43368 0.48571 0.12477 0.0
H494 H 0.60276 0.62328 0.13205 0.0
H495 H 0.57613 0.56373 0.13977 0.0
H496 H 0.56827 0.50534 0.12394 0.0
C497 C 0.48927 0.39896 0.1079 0.0
C498 C 0.46312 0.48957 0.12513 0.0
C499 C 0.47392 0.36515 0.10333 0.0
C500 C 0.57727 0.61522 0.12549 0.0
C501 C 0.56209 0.58106 0.12988 0.0
C502 C 0.53887 0.50147 0.12467 0.0
C503 C 0.47238 0.42192 0.12101 0.0
C504 C 0.48702 0.45941 0.12424 0.0
C505 C 0.52943 0.56925 0.12136 0.0
C506 C 0.51494 0.53165 0.12439 0.0
H507 H 0.39971 0.36737 0.13208 0.0
H508 H 0.42675 0.42665 0.14013 0.0
H509 H 0.5442 0.44308 0.12425 0.0
H510 H 0.5129 0.64369 0.09432 0.0
H511 H 0.48698 0.58434 0.10171 0.0
C512 C 0.28958 0.28633 0.183 0.0
C513 C 0.28306 0.2561 0.17137 0.0
C514 C 0.28139 0.2843 0.20192 0.0
C515 C 0.27733 0.218 0.23882 0.0
H516 H 0.21671 0.28704 0.2659 0.0
C517 C 0.23345 0.1869 0.31289 0.0
C518 C 0.23231 0.21561 0.32584 0.0
C519 C 0.23744 0.1942 0.29407 0.0
C520 C 0.23412 0.26783 0.25859 0.0
H521 H 0.26178 0.2007 0.1701 0.0
H522 H 0.24814 0.19692 0.20317 0.0
H523 H 0.22811 0.29647 0.23275 0.0
H524 H 0.23558 0.27449 0.32929 0.0
H525 H 0.24393 0.28735 0.29628 0.0
H526 H 0.28452 0.18981 0.26439 0.0
C527 C 0.25953 0.2221 0.19768 0.0
C528 C 0.24049 0.2732 0.23965 0.0
C529 C 0.26717 0.22433 0.17879 0.0
C530 C 0.23569 0.25187 0.31955 0.0
C531 C 0.24027 0.25921 0.30065 0.0
C532 C 0.27147 0.21294 0.2577 0.0
C533 C 0.26703 0.25186 0.20943 0.0
C534 C 0.26164 0.24792 0.2296 0.0
C535 C 0.2417 0.23035 0.28771 0.0
C536 C 0.24921 0.23733 0.26778 0.0
H537 H 0.30116 0.31138 0.1775 0.0
H538 H 0.28734 0.30757 0.21076 0.0
H539 H 0.2943 0.19853 0.23139 0.0
H540 H 0.23283 0.15856 0.31725 0.0
H541 H 0.23788 0.17127 0.28452 0.0
C542 C 0.26515 0.68646 0.80789 0.0
C543 C 0.25911 0.71448 0.82089 0.0
C544 C 0.26475 0.69399 0.78897 0.0
C545 C 0.265 0.76936 0.75421 0.0
H546 H 0.21966 0.69459 0.72356 0.0
C547 C 0.21471 0.78903 0.67809 0.0
C548 C 0.22345 0.7605 0.66577 0.0
C549 C 0.22307 0.78589 0.69695 0.0
C550 C 0.23271 0.71556 0.73192 0.0
H551 H 0.24703 0.77223 0.82424 0.0
H552 H 0.24487 0.78524 0.79104 0.0
H553 H 0.22597 0.68443 0.75664 0.0
H554 H 0.2495 0.70735 0.6632 0.0
H555 H 0.26379 0.70174 0.69612 0.0
H556 H 0.27029 0.80092 0.72923 0.0
C557 C 0.25138 0.75768 0.7955 0.0
C558 C 0.23653 0.70972 0.75089 0.0
C559 C 0.25236 0.75021 0.81452 0.0
C560 C 0.24228 0.72966 0.67242 0.0
C561 C 0.25027 0.72636 0.69124 0.0
C562 C 0.2607 0.77541 0.73517 0.0
C563 C 0.25708 0.7295 0.78249 0.0
C564 C 0.25303 0.73635 0.76228 0.0
C565 C 0.24006 0.75407 0.70373 0.0
C566 C 0.2448 0.74837 0.72387 0.0
H567 H 0.26869 0.65831 0.8122 0.0
H568 H 0.26973 0.67165 0.77939 0.0
H569 H 0.27807 0.79034 0.76253 0.0
H570 H 0.20095 0.81347 0.67322 0.0
H571 H 0.21497 0.80765 0.70632 0.0
C572 C 0.76445 0.80848 0.31056 0.0
C573 C 0.75966 0.78278 0.32484 0.0
C574 C 0.76551 0.79719 0.29208 0.0
C575 C 0.72845 0.72854 0.26138 0.0
H576 H 0.80067 0.76491 0.22652 0.0
C577 C 0.7149 0.70058 0.1829 0.0
C578 C 0.72262 0.73045 0.17131 0.0
C579 C 0.7244 0.70175 0.20168 0.0
C580 C 0.7801 0.75472 0.23603 0.0
H581 H 0.75119 0.72522 0.33091 0.0
H582 H 0.75206 0.7056 0.29842 0.0
H583 H 0.80823 0.77708 0.25956 0.0
H584 H 0.74718 0.78444 0.17 0.0
H585 H 0.76273 0.78709 0.20271 0.0
H586 H 0.69913 0.70794 0.23793 0.0
C587 C 0.75588 0.73434 0.30167 0.0
C588 C 0.78461 0.76153 0.25495 0.0
C589 C 0.75542 0.74558 0.32021 0.0
C590 C 0.74098 0.76098 0.17864 0.0
C591 C 0.75012 0.76235 0.1974 0.0
C592 C 0.72364 0.72215 0.24243 0.0
C593 C 0.76081 0.76011 0.28745 0.0
C594 C 0.75847 0.74909 0.26774 0.0
C595 C 0.74164 0.73292 0.20923 0.0
C596 C 0.749 0.73586 0.22948 0.0
H597 H 0.76577 0.83752 0.3135 0.0
H598 H 0.7684 0.81772 0.28134 0.0
H599 H 0.70771 0.71896 0.27097 0.0
H600 H 0.7016 0.67631 0.17747 0.0
H601 H 0.71811 0.67828 0.21029 0.0
C602 C 0.69589 0.28393 0.81132 0.0
C603 C 0.72596 0.27609 0.8228 0.0
C604 C 0.69571 0.2724 0.79282 0.0
C605 C 0.74477 0.21146 0.75931 0.0
H606 H 0.71365 0.28392 0.72331 0.0
C607 C 0.80342 0.22345 0.68584 0.0
C608 C 0.77922 0.22985 0.67104 0.0
C609 C 0.79052 0.22237 0.70402 0.0
C610 C 0.72181 0.26312 0.73319 0.0
H611 H 0.77869 0.24894 0.82427 0.0
H612 H 0.779 0.22976 0.79202 0.0
H613 H 0.70246 0.29465 0.75615 0.0
H614 H 0.72264 0.24092 0.66374 0.0
H615 H 0.7002 0.24005 0.69575 0.0
H616 H 0.76616 0.18112 0.73626 0.0
C617 C 0.75515 0.24413 0.79722 0.0
C618 C 0.71534 0.26918 0.75203 0.0
C619 C 0.75514 0.25535 0.8157 0.0
C620 C 0.74183 0.23543 0.67485 0.0
C621 C 0.729 0.23495 0.69312 0.0
C622 C 0.75165 0.20566 0.74049 0.0
C623 C 0.72567 0.25291 0.78546 0.0
C624 C 0.72765 0.2439 0.76537 0.0
C625 C 0.75332 0.22866 0.70786 0.0
C626 C 0.74103 0.23187 0.72733 0.0
H627 H 0.67256 0.29899 0.81661 0.0
H628 H 0.67223 0.27901 0.78426 0.0
H629 H 0.75382 0.19098 0.76914 0.0
H630 H 0.83263 0.22105 0.68357 0.0
H631 H 0.81001 0.21844 0.71519 0.0
C632 C 0.19725 0.79515 0.54858 0.0
C633 C 0.16676 0.77188 0.54683 0.0
C634 C 0.21492 0.80862 0.53283 0.0
C635 C 0.19161 0.82856 0.48426 0.0
H636 H 0.2907 0.86708 0.48342 0.0
C637 C 0.23646 0.92695 0.42709 0.0
C638 C 0.24988 0.96026 0.43416 0.0
C639 C 0.23447 0.89598 0.4384 0.0
C640 C 0.26305 0.85621 0.48341 0.0
H641 H 0.13331 0.7413 0.52738 0.0
H642 H 0.16512 0.76345 0.4999 0.0
H643 H 0.2726 0.82437 0.50785 0.0
H644 H 0.27441 0.9865 0.45815 0.0
H645 H 0.27078 0.93247 0.4779 0.0
H646 H 0.18179 0.86097 0.46015 0.0
C647 C 0.17447 0.77263 0.51338 0.0
C648 C 0.2526 0.83189 0.49743 0.0
C649 C 0.15635 0.75974 0.52912 0.0
C650 C 0.26362 0.96131 0.45235 0.0
C651 C 0.26184 0.93027 0.46362 0.0
C652 C 0.20218 0.85243 0.47018 0.0
C653 C 0.20284 0.79861 0.51498 0.0
C654 C 0.21634 0.81873 0.49839 0.0
C655 C 0.24614 0.89765 0.45694 0.0
C656 C 0.23762 0.86742 0.46994 0.0
H657 H 0.20592 0.80498 0.56207 0.0
H658 H 0.23641 0.82875 0.5347 0.0
H659 H 0.16329 0.8197 0.48463 0.0
H660 H 0.22595 0.92514 0.41307 0.0
H661 H 0.22258 0.87106 0.43285 0.0
C662 C 0.75577 0.83287 0.4626 0.0
C663 C 0.76944 0.82618 0.44472 0.0
C664 C 0.7699 0.81403 0.47783 0.0
C665 C 0.83596 0.74046 0.49214 0.0
H666 H 0.8574 0.80974 0.53147 0.0
C667 C 0.96244 0.73272 0.53986 0.0
C668 C 0.95939 0.74543 0.5582 0.0
C669 C 0.9323 0.73394 0.52791 0.0
C670 C 0.85106 0.78968 0.52086 0.0
H671 H 0.80654 0.79257 0.42855 0.0
H672 H 0.83232 0.76071 0.45514 0.0
H673 H 0.81578 0.82703 0.50692 0.0
H674 H 0.92163 0.76686 0.57877 0.0
H675 H 0.86907 0.76897 0.55789 0.0
H676 H 0.87333 0.70397 0.50579 0.0
C677 C 0.81014 0.77988 0.45747 0.0
C678 C 0.82699 0.79957 0.50672 0.0
C679 C 0.79546 0.79827 0.44218 0.0
C680 C 0.92502 0.75725 0.56466 0.0
C681 C 0.89491 0.75853 0.5527 0.0
C682 C 0.86037 0.73066 0.50627 0.0
C683 C 0.79863 0.78868 0.47557 0.0
C684 C 0.81972 0.77546 0.49193 0.0
C685 C 0.89852 0.74793 0.53405 0.0
C686 C 0.86877 0.75553 0.52055 0.0
H687 H 0.73527 0.85387 0.46492 0.0
H688 H 0.75956 0.82071 0.49149 0.0
H689 H 0.83057 0.72098 0.48113 0.0
H690 H 0.98848 0.7232 0.53448 0.0
H691 H 0.93606 0.72585 0.51358 0.0
C692 C 0.74142 0.02688 0.46151 0.0
C693 C 0.73956 0.03392 0.44241 0.0
C694 C 0.74296 0.05572 0.4742 0.0
C695 C 0.77053 0.15304 0.47641 0.0
H696 H 0.74353 0.13929 0.52787 0.0
C697 C 0.85279 0.21648 0.53522 0.0
C698 C 0.83715 0.22179 0.55281 0.0
C699 C 0.83193 0.20243 0.52066 0.0
C700 C 0.7506 0.14429 0.51352 0.0
H701 H 0.7352 0.0766 0.42167 0.0
H702 H 0.7365 0.12708 0.44387 0.0
H703 H 0.72013 0.0975 0.50457 0.0
H704 H 0.78643 0.21946 0.56846 0.0
H705 H 0.74959 0.19598 0.54281 0.0
H706 H 0.80041 0.20025 0.48531 0.0
C707 C 0.73807 0.0993 0.44905 0.0
C708 C 0.73765 0.11979 0.50014 0.0
C709 C 0.73714 0.07037 0.43631 0.0
C710 C 0.79944 0.21524 0.55513 0.0
C711 C 0.77837 0.20156 0.54045 0.0
C712 C 0.78286 0.17797 0.48973 0.0
C713 C 0.74205 0.09238 0.46815 0.0
C714 C 0.74896 0.12274 0.48156 0.0
C715 C 0.79467 0.19376 0.52319 0.0
C716 C 0.77463 0.17284 0.5086 0.0
H717 H 0.7434 -0.00092 0.46666 0.0
H718 H 0.74671 0.04906 0.48869 0.0
H719 H 0.7799 0.15644 0.46228 0.0
H720 H 0.88173 0.22127 0.53288 0.0
H721 H 0.84579 0.19638 0.50775 0.0
C722 C 0.23942 0.16009 0.46454 0.0
C723 C 0.22525 0.16948 0.44708 0.0
C724 C 0.2276 0.17844 0.48045 0.0
C725 C 0.16783 0.25535 0.49737 0.0
H726 H 0.14383 0.18475 0.53561 0.0
C727 C 0.04246 0.26491 0.54541 0.0
C728 C 0.04522 0.25135 0.56358 0.0
C729 C 0.07254 0.26346 0.53346 0.0
C730 C 0.15097 0.20511 0.52531 0.0
H731 H 0.18971 0.20716 0.43239 0.0
H732 H 0.16787 0.23811 0.46011 0.0
H733 H 0.18331 0.16671 0.51027 0.0
H734 H 0.08241 0.22807 0.58389 0.0
H735 H 0.13485 0.22531 0.56293 0.0
H736 H 0.1331 0.29292 0.51205 0.0
C737 C 0.18873 0.21722 0.46162 0.0
C738 C 0.17381 0.19481 0.51072 0.0
C739 C 0.20111 0.19932 0.44568 0.0
C740 C 0.07929 0.23842 0.56991 0.0
C741 C 0.10932 0.23679 0.55792 0.0
C742 C 0.14459 0.26555 0.51191 0.0
C743 C 0.20073 0.20602 0.47928 0.0
C744 C 0.18177 0.21943 0.49627 0.0
C745 C 0.10593 0.24828 0.53942 0.0
C746 C 0.13519 0.24018 0.52576 0.0
H747 H 0.25855 0.13757 0.466 0.0
H748 H 0.23829 0.16981 0.49375 0.0
H749 H 0.17391 0.27525 0.48668 0.0
H750 H 0.01666 0.27533 0.54016 0.0
H751 H 0.06899 0.27226 0.51923 0.0
C752 C 0.33321 0.27702 0.03358 0.0
C753 C 0.32322 0.28042 0.05232 0.0
C754 C 0.31184 0.29305 0.01974 0.0
C755 C 0.25635 0.37395 0.01453 0.0
H756 H 0.24525 0.33938 0.964 0.0
C757 C 0.22427 0.47547 0.95636 0.0
C758 C 0.24634 0.47151 0.94053 0.0
C759 C 0.22184 0.4472 0.96934 0.0
C760 C 0.24815 0.34947 0.97805 0.0
H761 H 0.28126 0.30053 0.07109 0.0
H762 H 0.24415 0.32885 0.04685 0.0
H763 H 0.26191 0.29618 0.98845 0.0
H764 H 0.28175 0.43427 0.92542 0.0
H765 H 0.27868 0.38561 0.9483 0.0
H766 H 0.24523 0.42748 0.00417 0.0
C767 C 0.26866 0.31397 0.04294 0.0
C768 C 0.25748 0.32468 0.99204 0.0
C769 C 0.28989 0.29767 0.05679 0.0
C770 C 0.26456 0.43816 0.9375 0.0
C771 C 0.26249 0.41008 0.95058 0.0
C772 C 0.24739 0.39875 0.00055 0.0
C773 C 0.28018 0.31297 0.02436 0.0
C774 C 0.26284 0.33694 0.01031 0.0
C775 C 0.24179 0.41456 0.96688 0.0
C776 C 0.24443 0.38706 0.98203 0.0
H777 H 0.35852 0.26358 0.02964 0.0
H778 H 0.32157 0.292 0.00556 0.0
H779 H 0.26075 0.38434 0.02843 0.0
H780 H 0.20943 0.50069 0.95891 0.0
H781 H 0.20505 0.45132 0.98154 0.0
C782 C 0.29615 0.71209 0.93793 0.0
C783 C 0.27665 0.67985 0.94202 0.0
C784 C 0.3129 0.73221 0.95212 0.0
C785 C 0.32159 0.74165 0.00336 0.0
H786 H 0.42531 0.75038 0.9925 0.0
C787 C 0.43303 0.73057 0.05924 0.0
C788 C 0.46685 0.74823 0.05665 0.0
C789 C 0.40549 0.73326 0.04584 0.0
C790 C 0.39636 0.74914 0.99577 0.0
H791 H 0.25627 0.6456 0.96432 0.0
H792 H 0.28542 0.68053 0.98895 0.0
H793 H 0.38263 0.73703 0.96764 0.0
H794 H 0.49738 0.78481 0.0387 0.0
H795 H 0.44903 0.79022 0.01552 0.0
H796 H 0.33562 0.75254 0.03166 0.0
C797 C 0.28794 0.69031 0.97484 0.0
C798 C 0.37181 0.74145 0.98145 0.0
C799 C 0.27144 0.67008 0.96068 0.0
C800 C 0.47179 0.7704 0.04094 0.0
C801 C 0.44411 0.77341 0.02763 0.0
C802 C 0.34616 0.74961 0.01771 0.0
C803 C 0.31015 0.72065 0.97065 0.0
C804 C 0.33435 0.73637 0.98518 0.0
C805 C 0.41101 0.754 0.02964 0.0
C806 C 0.38403 0.75216 0.01418 0.0
H807 H 0.30051 0.72051 0.92371 0.0
H808 H 0.32948 0.75578 0.94851 0.0
H809 H 0.29279 0.73833 0.00661 0.0
H810 H 0.42836 0.71331 0.07121 0.0
H811 H 0.38061 0.71754 0.04779 0.0
C812 C 0.6611 0.72087 0.03343 0.0
C813 C 0.67323 0.7156 0.05174 0.0
C814 C 0.68132 0.70721 0.01853 0.0
C815 C 0.74034 0.62994 0.0088 0.0
H816 H 0.74418 0.67217 0.95955 0.0
C817 C 0.77435 0.53914 0.94659 0.0
C818 C 0.7502 0.54302 0.93154 0.0
C819 C 0.7762 0.56608 0.96033 0.0
C820 C 0.74333 0.65998 0.97322 0.0
H821 H 0.71761 0.69436 0.06865 0.0
H822 H 0.75283 0.67027 0.04255 0.0
H823 H 0.72713 0.71057 0.98595 0.0
H824 H 0.71076 0.57917 0.91848 0.0
H825 H 0.71301 0.62551 0.94268 0.0
H826 H 0.75417 0.57897 0.99616 0.0
C827 C 0.72747 0.68473 0.0398 0.0
C828 C 0.73372 0.68202 0.98833 0.0
C829 C 0.70734 0.69863 0.05473 0.0
C830 C 0.72959 0.57536 0.92993 0.0
C831 C 0.73111 0.6021 0.94378 0.0
C832 C 0.74966 0.60789 0.99372 0.0
C833 C 0.71404 0.68783 0.0216 0.0
C834 C 0.73103 0.66692 0.00619 0.0
C835 C 0.7536 0.59727 0.95945 0.0
C836 C 0.75015 0.62233 0.97565 0.0
H837 H 0.63511 0.73412 0.03062 0.0
H838 H 0.67006 0.70981 0.0047 0.0
H839 H 0.73803 0.61733 0.02234 0.0
H840 H 0.79103 0.51475 0.94805 0.0
H841 H 0.79446 0.56185 0.97198 0.0
C842 C 0.71186 0.35684 0.95786 0.0
C843 C 0.71756 0.33967 0.94066 0.0
C844 C 0.69787 0.33717 0.97282 0.0
C845 C 0.64049 0.2561 0.98158 0.0
H846 H 0.65294 0.28898 0.03229 0.0
C847 C 0.56802 0.24589 0.05916 0.0
C848 C 0.5314 0.24786 0.0532 0.0
C849 C 0.59668 0.2467 0.04629 0.0
C850 C 0.64949 0.27866 0.01833 0.0
H851 H 0.71592 0.28758 0.92615 0.0
H852 H 0.69247 0.25289 0.9525 0.0
H853 H 0.69628 0.30841 0.0088 0.0
H854 H 0.49602 0.25083 0.02908 0.0
H855 H 0.54557 0.25378 0.00681 0.0
H856 H 0.59401 0.22591 0.99115 0.0
C857 C 0.69774 0.2819 0.95424 0.0
C858 C 0.67413 0.29033 0.00475 0.0
C859 C 0.71138 0.30174 0.93915 0.0
C860 C 0.52395 0.24923 0.03413 0.0
C861 C 0.55252 0.25056 0.0213 0.0
C862 C 0.61624 0.24389 0.99522 0.0
C863 C 0.68963 0.29965 0.97108 0.0
C864 C 0.6689 0.28067 0.98605 0.0
C865 C 0.58932 0.25 0.0272 0.0
C866 C 0.61936 0.25644 0.0136 0.0
H867 H 0.71635 0.386 0.95956 0.0
H868 H 0.69156 0.35208 0.9854 0.0
H869 H 0.63542 0.24798 0.96738 0.0
H870 H 0.57458 0.24436 0.07378 0.0
H871 H 0.62462 0.2455 0.05134 0.0
loop_
_geom_bond_atom_site_label_1
_geom_bond_atom_site_label_2
_geom_bond_distance
_geom_bond_site_symmetry_2
_ccdc_geom_bond_type
Co0 O3 1.970 . S
Co0 N17 1.989 . S
Co0 O25 1.967 . S
Co0 O32 1.920 . S
Co1 O4 1.966 . S
Co1 N10 2.022 . S
Co1 N18 1.993 . S
Co1 O26 1.941 . S
C2 O3 1.258 . S
C2 O4 1.263 . S
O3 Co0 1.970 . S
O3 C2 1.258 . S
O4 Co1 1.966 . S
O4 C2 1.263 . S
C5 O6 1.235 1_545 S
C5 O32 1.289 . S
O6 C5 1.235 1_565 S
C7 C9 1.400 . S
C7 N10 1.351 . S
C7 C12 1.501 . S
C8 C9 1.387 . S
C8 N11 1.341 . S
C9 C7 1.400 . S
C9 C8 1.387 . S
N10 Co1 2.022 . S
N10 C7 1.351 . S
N10 N11 1.365 . S
N11 C8 1.341 . S
N11 N10 1.365 . S
N11 H31 0.862 . S
C12 C7 1.501 . S
C12 H13 0.961 . S
C12 H14 0.961 . S
C12 H15 0.960 . S
H13 C12 0.961 . S
H14 C12 0.961 . S
H15 C12 0.960 . S
C16 N17 1.342 . S
C16 C20 1.401 . S
C16 C21 1.499 . S
N17 Co0 1.989 . S
N17 C16 1.342 . S
N17 N18 1.388 . S
N18 Co1 1.993 . S
N18 N17 1.388 . S
N18 C19 1.346 . S
C19 N18 1.346 . S
C19 C20 1.396 . S
C19 C29 1.510 . S
C20 C16 1.401 . S
C20 C19 1.396 . S
C21 C16 1.499 . S
C21 H22 0.959 . S
C21 H23 0.960 . S
C21 H24 0.961 . S
H22 C21 0.959 . S
H23 C21 0.960 . S
H24 C21 0.961 . S
O25 Co0 1.967 . S
O25 C33 1.258 . S
O26 Co1 1.941 . S
O26 C33 1.266 . S
H27 C29 0.959 . S
H28 C29 0.961 . S
C29 C19 1.510 . S
C29 H27 0.959 . S
C29 H28 0.961 . S
C29 H30 0.960 . S
H30 C29 0.960 . S
H31 N11 0.862 . S
O32 Co0 1.920 . S
O32 C5 1.289 . S
C33 O25 1.258 . S
C33 O26 1.266 . S
Co34 O37 1.970 . S
Co34 N51 1.989 . S
Co34 O59 1.967 . S
Co34 O66 1.920 . S
Co35 O38 1.966 . S
Co35 N44 2.022 . S
Co35 N52 1.993 . S
Co35 O60 1.941 . S
C36 O37 1.258 . S
C36 O38 1.263 . S
O37 Co34 1.970 . S
O37 C36 1.258 . S
O38 Co35 1.966 . S
O38 C36 1.263 . S
C39 O40 1.235 1_455 S
C39 O66 1.289 . S
O40 C39 1.235 1_655 S
C41 C43 1.400 . S
C41 N44 1.351 . S
C41 C46 1.501 . S
C42 C43 1.387 . S
C42 N45 1.341 . S
C43 C41 1.400 . S
C43 C42 1.387 . S
N44 Co35 2.022 . S
N44 C41 1.351 . S
N44 N45 1.365 . S
N45 C42 1.341 . S
N45 N44 1.365 . S
N45 H65 0.862 . S
C46 C41 1.501 . S
C46 H47 0.961 . S
C46 H48 0.961 . S
C46 H49 0.960 . S
H47 C46 0.961 . S
H48 C46 0.961 . S
H49 C46 0.960 . S
C50 N51 1.342 . S
C50 C54 1.401 . S
C50 C55 1.499 . S
N51 Co34 1.989 . S
N51 C50 1.342 . S
N51 N52 1.388 . S
N52 Co35 1.993 . S
N52 N51 1.388 . S
N52 C53 1.346 . S
C53 N52 1.346 . S
C53 C54 1.396 . S
C53 C63 1.510 . S
C54 C50 1.401 . S
C54 C53 1.396 . S
C55 C50 1.499 . S
C55 H56 0.959 . S
C55 H57 0.960 . S
C55 H58 0.961 . S
H56 C55 0.959 . S
H57 C55 0.960 . S
H58 C55 0.961 . S
O59 Co34 1.967 . S
O59 C67 1.258 . S
O60 Co35 1.941 . S
O60 C67 1.266 . S
H61 C63 0.959 . S
H62 C63 0.961 . S
C63 C53 1.510 . S
C63 H61 0.959 . S
C63 H62 0.961 . S
C63 H64 0.960 . S
H64 C63 0.960 . S
H65 N45 0.862 . S
O66 Co34 1.920 . S
O66 C39 1.289 . S
C67 O59 1.258 . S
C67 O60 1.266 . S
Co68 O71 1.970 . S
Co68 N85 1.989 . S
Co68 O93 1.967 . S
Co68 O100 1.920 . S
Co69 O72 1.966 . S
Co69 N78 2.022 . S
Co69 N86 1.993 . S
Co69 O94 1.941 . S
C70 O71 1.258 . S
C70 O72 1.263 . S
O71 Co68 1.970 . S
O71 C70 1.258 . S
O72 Co69 1.966 . S
O72 C70 1.263 . S
C73 O74 1.235 1_565 S
C73 O100 1.289 . S
O74 C73 1.235 1_545 S
C75 C77 1.400 . S
C75 N78 1.351 . S
C75 C80 1.501 . S
C76 C77 1.387 . S
C76 N79 1.341 . S
C77 C75 1.400 . S
C77 C76 1.387 . S
N78 Co69 2.022 . S
N78 C75 1.351 . S
N78 N79 1.365 . S
N79 C76 1.341 . S
N79 N78 1.365 . S
N79 H99 0.862 . S
C80 C75 1.501 . S
C80 H81 0.961 . S
C80 H82 0.961 . S
C80 H83 0.960 . S
H81 C80 0.961 . S
H82 C80 0.961 . S
H83 C80 0.960 . S
C84 N85 1.342 . S
C84 C88 1.401 . S
C84 C89 1.499 . S
N85 Co68 1.989 . S
N85 C84 1.342 . S
N85 N86 1.388 . S
N86 Co69 1.993 . S
N86 N85 1.388 . S
N86 C87 1.346 . S
C87 N86 1.346 . S
C87 C88 1.396 . S
C87 C97 1.510 . S
C88 C84 1.401 . S
C88 C87 1.396 . S
C89 C84 1.499 . S
C89 H90 0.959 . S
C89 H91 0.960 . S
C89 H92 0.961 . S
H90 C89 0.959 . S
H91 C89 0.960 . S
H92 C89 0.961 . S
O93 Co68 1.967 . S
O93 C101 1.258 . S
O94 Co69 1.941 . S
O94 C101 1.266 . S
H95 C97 0.959 . S
H96 C97 0.961 . S
C97 C87 1.510 . S
C97 H95 0.959 . S
C97 H96 0.961 . S
C97 H98 0.960 . S
H98 C97 0.960 . S
H99 N79 0.862 . S
O100 Co68 1.920 . S
O100 C73 1.289 . S
C101 O93 1.258 . S
C101 O94 1.266 . S
Co102 O105 1.970 . S
Co102 N119 1.989 . S
Co102 O127 1.967 . S
Co102 O134 1.920 . S
Co103 O106 1.966 . S
Co103 N112 2.022 . S
Co103 N120 1.993 . S
Co103 O128 1.941 . S
C104 O105 1.258 . S
C104 O106 1.263 . S
O105 Co102 1.970 . S
O105 C104 1.258 . S
O106 Co103 1.966 . S
O106 C104 1.263 . S
C107 O108 1.235 1_655 S
C107 O134 1.289 . S
O108 C107 1.235 1_455 S
C109 C111 1.400 . S
C109 N112 1.351 . S
C109 C114 1.501 . S
C110 C111 1.387 . S
C110 N113 1.341 . S
C111 C109 1.400 . S
C111 C110 1.387 . S
N112 Co103 2.022 . S
N112 C109 1.351 . S
N112 N113 1.365 . S
N113 C110 1.341 . S
N113 N112 1.365 . S
N113 H133 0.862 . S
C114 C109 1.501 . S
C114 H115 0.961 . S
C114 H116 0.961 . S
C114 H117 0.960 . S
H115 C114 0.961 . S
H116 C114 0.961 . S
H117 C114 0.960 . S
C118 N119 1.342 . S
C118 C122 1.401 . S
C118 C123 1.499 . S
N119 Co102 1.989 . S
N119 C118 1.342 . S
N119 N120 1.388 . S
N120 Co103 1.993 . S
N120 N119 1.388 . S
N120 C121 1.346 . S
C121 N120 1.346 . S
C121 C122 1.396 . S
C121 C131 1.510 . S
C122 C118 1.401 . S
C122 C121 1.396 . S
C123 C118 1.499 . S
C123 H124 0.959 . S
C123 H125 0.960 . S
C123 H126 0.961 . S
H124 C123 0.959 . S
H125 C123 0.960 . S
H126 C123 0.961 . S
O127 Co102 1.967 . S
O127 C135 1.258 . S
O128 Co103 1.941 . S
O128 C135 1.266 . S
H129 C131 0.959 . S
H130 C131 0.961 . S
C131 C121 1.510 . S
C131 H129 0.959 . S
C131 H130 0.961 . S
C131 H132 0.960 . S
H132 C131 0.960 . S
H133 N113 0.862 . S
O134 Co102 1.920 . S
O134 C107 1.289 . S
C135 O127 1.258 . S
C135 O128 1.266 . S
Co136 O139 1.970 . S
Co136 N153 1.989 . S
Co136 O161 1.967 . S
Co136 O168 1.920 . S
Co137 O140 1.966 . S
Co137 N146 2.022 . S
Co137 N154 1.993 . S
Co137 O162 1.941 . S
C138 O139 1.258 . S
C138 O140 1.263 . S
O139 Co136 1.970 . S
O139 C138 1.258 . S
O140 Co137 1.966 . S
O140 C138 1.263 . S
C141 O142 1.235 . S
C141 O168 1.289 . S
O142 C141 1.235 . S
C143 C145 1.400 . S
C143 N146 1.351 . S
C143 C148 1.501 . S
C144 C145 1.387 . S
C144 N147 1.341 . S
C145 C143 1.400 . S
C145 C144 1.387 . S
N146 Co137 2.022 . S
N146 C143 1.351 . S
N146 N147 1.365 . S
N147 C144 1.341 . S
N147 N146 1.365 . S
N147 H167 0.862 . S
C148 C143 1.501 . S
C148 H149 0.961 . S
C148 H150 0.961 . S
C148 H151 0.960 . S
H149 C148 0.961 . S
H150 C148 0.961 . S
H151 C148 0.960 . S
C152 N153 1.342 . S
C152 C156 1.401 . S
C152 C157 1.499 . S
N153 Co136 1.989 . S
N153 C152 1.342 . S
N153 N154 1.388 . S
N154 Co137 1.993 . S
N154 N153 1.388 . S
N154 C155 1.346 . S
C155 N154 1.346 . S
C155 C156 1.396 . S
C155 C165 1.510 . S
C156 C152 1.401 . S
C156 C155 1.396 . S
C157 C152 1.499 . S
C157 H158 0.959 . S
C157 H159 0.960 . S
C157 H160 0.961 . S
H158 C157 0.959 . S
H159 C157 0.960 . S
H160 C157 0.961 . S
O161 Co136 1.967 . S
O161 C169 1.258 . S
O162 Co137 1.941 . S
O162 C169 1.266 . S
H163 C165 0.959 . S
H164 C165 0.961 . S
C165 C155 1.510 . S
C165 H163 0.959 . S
C165 H164 0.961 . S
C165 H166 0.960 . S
H166 C165 0.960 . S
H167 N147 0.862 . S
O168 Co136 1.920 . S
O168 C141 1.289 . S
C169 O161 1.258 . S
C169 O162 1.266 . S
Co170 O173 1.970 . S
Co170 N187 1.989 . S
Co170 O195 1.967 . S
Co170 O202 1.920 . S
Co171 O174 1.966 . S
Co171 N180 2.022 . S
Co171 N188 1.993 . S
Co171 O196 1.941 . S
C172 O173 1.258 . S
C172 O174 1.263 . S
O173 Co170 1.970 . S
O173 C172 1.258 . S
O174 Co171 1.966 . S
O174 C172 1.263 . S
C175 O176 1.235 . S
C175 O202 1.289 . S
O176 C175 1.235 . S
C177 C179 1.400 . S
C177 N180 1.351 . S
C177 C182 1.501 . S
C178 C179 1.387 . S
C178 N181 1.341 . S
C179 C177 1.400 . S
C179 C178 1.387 . S
N180 Co171 2.022 . S
N180 C177 1.351 . S
N180 N181 1.365 . S
N181 C178 1.341 . S
N181 N180 1.365 . S
N181 H201 0.862 . S
C182 C177 1.501 . S
C182 H183 0.961 . S
C182 H184 0.961 . S
C182 H185 0.960 . S
H183 C182 0.961 . S
H184 C182 0.961 . S
H185 C182 0.960 . S
C186 N187 1.342 . S
C186 C190 1.401 . S
C186 C191 1.499 . S
N187 Co170 1.989 . S
N187 C186 1.342 . S
N187 N188 1.388 . S
N188 Co171 1.993 . S
N188 N187 1.388 . S
N188 C189 1.346 . S
C189 N188 1.346 . S
C189 C190 1.396 . S
C189 C199 1.510 . S
C190 C186 1.401 . S
C190 C189 1.396 . S
C191 C186 1.499 . S
C191 H192 0.959 . S
C191 H193 0.960 . S
C191 H194 0.961 . S
H192 C191 0.959 . S
H193 C191 0.960 . S
H194 C191 0.961 . S
O195 Co170 1.967 . S
O195 C203 1.258 . S
O196 Co171 1.941 . S
O196 C203 1.266 . S
H197 C199 0.959 . S
H198 C199 0.961 . S
C199 C189 1.510 . S
C199 H197 0.959 . S
C199 H198 0.961 . S
C199 H200 0.960 . S
H200 C199 0.960 . S
H201 N181 0.862 . S
O202 Co170 1.920 . S
O202 C175 1.289 . S
C203 O195 1.258 . S
C203 O196 1.266 . S
Co204 O207 1.970 . S
Co204 N221 1.989 . S
Co204 O229 1.967 . S
Co204 O236 1.920 . S
Co205 O208 1.966 . S
Co205 N214 2.022 . S
Co205 N222 1.993 . S
Co205 O230 1.941 . S
C206 O207 1.258 . S
C206 O208 1.263 . S
O207 Co204 1.970 . S
O207 C206 1.258 . S
O208 Co205 1.966 . S
O208 C206 1.263 . S
C209 O210 1.235 . S
C209 O236 1.289 . S
O210 C209 1.235 . S
C211 C213 1.400 . S
C211 N214 1.351 . S
C211 C216 1.501 . S
C212 C213 1.387 . S
C212 N215 1.341 . S
C213 C211 1.400 . S
C213 C212 1.387 . S
N214 Co205 2.022 . S
N214 C211 1.351 . S
N214 N215 1.365 . S
N215 C212 1.341 . S
N215 N214 1.365 . S
N215 H235 0.862 . S
C216 C211 1.501 . S
C216 H217 0.961 . S
C216 H218 0.961 . S
C216 H219 0.960 . S
H217 C216 0.961 . S
H218 C216 0.961 . S
H219 C216 0.960 . S
C220 N221 1.342 . S
C220 C224 1.401 . S
C220 C225 1.499 . S
N221 Co204 1.989 . S
N221 C220 1.342 . S
N221 N222 1.388 . S
N222 Co205 1.993 . S
N222 N221 1.388 . S
N222 C223 1.346 . S
C223 N222 1.346 . S
C223 C224 1.396 . S
C223 C233 1.510 . S
C224 C220 1.401 . S
C224 C223 1.396 . S
C225 C220 1.499 . S
C225 H226 0.959 . S
C225 H227 0.960 . S
C225 H228 0.961 . S
H226 C225 0.959 . S
H227 C225 0.960 . S
H228 C225 0.961 . S
O229 Co204 1.967 . S
O229 C237 1.258 . S
O230 Co205 1.941 . S
O230 C237 1.266 . S
H231 C233 0.959 . S
H232 C233 0.961 . S
C233 C223 1.510 . S
C233 H231 0.959 . S
C233 H232 0.961 . S
C233 H234 0.960 . S
H234 C233 0.960 . S
H235 N215 0.862 . S
O236 Co204 1.920 . S
O236 C209 1.289 . S
C237 O229 1.258 . S
C237 O230 1.266 . S
Co238 O241 1.970 . S
Co238 N255 1.989 . S
Co238 O263 1.967 . S
Co238 O270 1.920 . S
Co239 O242 1.966 . S
Co239 N248 2.022 . S
Co239 N256 1.993 . S
Co239 O264 1.941 . S
C240 O241 1.258 . S
C240 O242 1.263 . S
O241 Co238 1.970 . S
O241 C240 1.258 . S
O242 Co239 1.966 . S
O242 C240 1.263 . S
C243 O244 1.235 . S
C243 O270 1.289 . S
O244 C243 1.235 . S
C245 C247 1.400 . S
C245 N248 1.351 . S
C245 C250 1.501 . S
C246 C247 1.387 . S
C246 N249 1.341 . S
C247 C245 1.400 . S
C247 C246 1.387 . S
N248 Co239 2.022 . S
N248 C245 1.351 . S
N248 N249 1.365 . S
N249 C246 1.341 . S
N249 N248 1.365 . S
N249 H269 0.862 . S
C250 C245 1.501 . S
C250 H251 0.961 . S
C250 H252 0.961 . S
C250 H253 0.960 . S
H251 C250 0.961 . S
H252 C250 0.961 . S
H253 C250 0.960 . S
C254 N255 1.342 . S
C254 C258 1.401 . S
C254 C259 1.499 . S
N255 Co238 1.989 . S
N255 C254 1.342 . S
N255 N256 1.388 . S
N256 Co239 1.993 . S
N256 N255 1.388 . S
N256 C257 1.346 . S
C257 N256 1.346 . S
C257 C258 1.396 . S
C257 C267 1.510 . S
C258 C254 1.401 . S
C258 C257 1.396 . S
C259 C254 1.499 . S
C259 H260 0.959 . S
C259 H261 0.960 . S
C259 H262 0.961 . S
H260 C259 0.959 . S
H261 C259 0.960 . S
H262 C259 0.961 . S
O263 Co238 1.967 . S
O263 C271 1.258 . S
O264 Co239 1.941 . S
O264 C271 1.266 . S
H265 C267 0.959 . S
H266 C267 0.961 . S
C267 C257 1.510 . S
C267 H265 0.959 . S
C267 H266 0.961 . S
C267 H268 0.960 . S
H268 C267 0.960 . S
H269 N249 0.862 . S
O270 Co238 1.920 . S
O270 C243 1.289 . S
C271 O263 1.258 . S
C271 O264 1.266 . S
C272 C273 1.349 . S
C272 C274 1.327 . S
C272 H297 0.950 . S
C273 C272 1.349 . S
C273 C289 1.349 . S
C274 C272 1.327 . S
C274 C293 1.429 . S
C274 H298 0.950 . S
C275 C292 1.574 . S
C275 C294 1.368 1_545 S
C275 H299 0.949 . S
H276 C280 0.949 . S
C277 C278 1.349 . S
C277 C279 1.327 . S
C277 H300 0.950 . S
C278 C277 1.349 . S
C278 C290 1.349 . S
C279 C277 1.327 . S
C279 C295 1.429 . S
C279 H301 0.950 . S
C280 H276 0.949 . S
C280 C288 1.574 . S
C280 C296 1.368 1_565 S
H281 C289 0.950 . S
H282 C287 0.950 . S
H283 C288 0.949 . S
H284 C290 0.950 . S
H285 C291 0.950 . S
H286 C292 0.949 . S
C287 H282 0.950 . S
C287 C289 1.327 . S
C287 C293 1.429 . S
C288 C280 1.574 . S
C288 H283 0.949 . S
C288 C294 1.368 . S
C289 C273 1.349 . S
C289 H281 0.950 . S
C289 C287 1.327 . S
C290 C278 1.349 . S
C290 H284 0.950 . S
C290 C291 1.327 . S
C291 H285 0.950 . S
C291 C290 1.327 . S
C291 C295 1.429 . S
C292 C275 1.574 . S
C292 H286 0.949 . S
C292 C296 1.368 . S
C293 C274 1.429 . S
C293 C287 1.429 . S
C293 C294 1.523 . S
C294 C275 1.368 1_565 S
C294 C288 1.368 . S
C294 C293 1.523 . S
C295 C279 1.429 . S
C295 C291 1.429 . S
C295 C296 1.523 . S
C296 C280 1.368 1_545 S
C296 C292 1.368 . S
C296 C295 1.523 . S
H297 C272 0.950 . S
H298 C274 0.950 . S
H299 C275 0.949 . S
H300 C277 0.950 . S
H301 C279 0.950 . S
C302 C303 1.349 . S
C302 C304 1.327 . S
C302 H327 0.950 . S
C303 C302 1.349 . S
C303 C319 1.349 . S
C304 C302 1.327 . S
C304 C323 1.429 . S
C304 H328 0.950 . S
C305 C322 1.574 . S
C305 C324 1.368 . S
C305 H329 0.949 . S
H306 C310 0.949 . S
C307 C308 1.349 . S
C307 C309 1.327 . S
C307 H330 0.950 . S
C308 C307 1.349 . S
C308 C320 1.349 . S
C309 C307 1.327 . S
C309 C325 1.429 . S
C309 H331 0.950 . S
C310 H306 0.949 . S
C310 C318 1.574 . S
C310 C326 1.368 . S
H311 C319 0.950 . S
H312 C317 0.950 . S
H313 C318 0.949 . S
H314 C320 0.950 . S
H315 C321 0.950 . S
H316 C322 0.949 . S
C317 H312 0.950 . S
C317 C319 1.327 . S
C317 C323 1.429 . S
C318 C310 1.574 . S
C318 H313 0.949 . S
C318 C324 1.368 1_455 S
C319 C303 1.349 . S
C319 H311 0.950 . S
C319 C317 1.327 . S
C320 C308 1.349 . S
C320 H314 0.950 . S
C320 C321 1.327 . S
C321 H315 0.950 . S
C321 C320 1.327 . S
C321 C325 1.429 . S
C322 C305 1.574 . S
C322 H316 0.949 . S
C322 C326 1.368 1_655 S
C323 C304 1.429 . S
C323 C317 1.429 . S
C323 C324 1.523 . S
C324 C305 1.368 . S
C324 C318 1.368 1_655 S
C324 C323 1.523 . S
C325 C309 1.429 . S
C325 C321 1.429 . S
C325 C326 1.523 . S
C326 C310 1.368 . S
C326 C322 1.368 1_455 S
C326 C325 1.523 . S
H327 C302 0.950 . S
H328 C304 0.950 . S
H329 C305 0.949 . S
H330 C307 0.950 . S
H331 C309 0.950 . S
C332 C333 1.349 . S
C332 C334 1.327 . S
C332 H357 0.950 . S
C333 C332 1.349 . S
C333 C349 1.349 . S
C334 C332 1.327 . S
C334 C353 1.429 . S
C334 H358 0.950 . S
C335 C352 1.574 1_655 S
C335 C354 1.368 . S
C335 H359 0.949 . S
H336 C340 0.949 . S
C337 C338 1.349 . S
C337 C339 1.327 . S
C337 H360 0.950 . S
C338 C337 1.349 . S
C338 C350 1.349 . S
C339 C337 1.327 . S
C339 C355 1.429 . S
C339 H361 0.950 . S
C340 H336 0.949 . S
C340 C348 1.574 1_455 S
C340 C356 1.368 . S
H341 C349 0.950 . S
H342 C347 0.950 . S
H343 C348 0.949 . S
H344 C350 0.950 . S
H345 C351 0.950 . S
H346 C352 0.949 . S
C347 H342 0.950 . S
C347 C349 1.327 . S
C347 C353 1.429 . S
C348 C340 1.574 1_655 S
C348 H343 0.949 . S
C348 C354 1.368 . S
C349 C333 1.349 . S
C349 H341 0.950 . S
C349 C347 1.327 . S
C350 C338 1.349 . S
C350 H344 0.950 . S
C350 C351 1.327 . S
C351 H345 0.950 . S
C351 C350 1.327 . S
C351 C355 1.429 . S
C352 C335 1.574 1_455 S
C352 H346 0.949 . S
C352 C356 1.368 . S
C353 C334 1.429 . S
C353 C347 1.429 . S
C353 C354 1.523 . S
C354 C335 1.368 . S
C354 C348 1.368 . S
C354 C353 1.523 . S
C355 C339 1.429 . S
C355 C351 1.429 . S
C355 C356 1.523 . S
C356 C340 1.368 . S
C356 C352 1.368 . S
C356 C355 1.523 . S
H357 C332 0.950 . S
H358 C334 0.950 . S
H359 C335 0.949 . S
H360 C337 0.950 . S
H361 C339 0.950 . S
C362 C363 1.349 . S
C362 C364 1.327 . S
C362 H387 0.950 . S
C363 C362 1.349 . S
C363 C379 1.349 . S
C364 C362 1.327 . S
C364 C383 1.429 . S
C364 H388 0.950 . S
C365 C382 1.574 1_545 S
C365 C384 1.368 . S
C365 H389 0.949 . S
H366 C370 0.949 . S
C367 C368 1.349 . S
C367 C369 1.327 . S
C367 H390 0.950 . S
C368 C367 1.349 . S
C368 C380 1.349 . S
C369 C367 1.327 . S
C369 C385 1.429 . S
C369 H391 0.950 . S
C370 H366 0.949 . S
C370 C378 1.574 1_565 S
C370 C386 1.368 . S
H371 C379 0.950 . S
H372 C377 0.950 . S
H373 C378 0.949 . S
H374 C380 0.950 . S
H375 C381 0.950 . S
H376 C382 0.949 . S
C377 H372 0.950 . S
C377 C379 1.327 . S
C377 C383 1.429 . S
C378 C370 1.574 1_545 S
C378 H373 0.949 . S
C378 C384 1.368 . S
C379 C363 1.349 . S
C379 H371 0.950 . S
C379 C377 1.327 . S
C380 C368 1.349 . S
C380 H374 0.950 . S
C380 C381 1.327 . S
C381 H375 0.950 . S
C381 C380 1.327 . S
C381 C385 1.429 . S
C382 C365 1.574 1_565 S
C382 H376 0.949 . S
C382 C386 1.368 . S
C383 C364 1.429 . S
C383 C377 1.429 . S
C383 C384 1.523 . S
C384 C365 1.368 . S
C384 C378 1.368 . S
C384 C383 1.523 . S
C385 C369 1.429 . S
C385 C381 1.429 . S
C385 C386 1.523 . S
C386 C370 1.368 . S
C386 C382 1.368 . S
C386 C385 1.523 . S
H387 C362 0.950 . S
H388 C364 0.950 . S
H389 C365 0.949 . S
H390 C367 0.950 . S
H391 C369 0.950 . S
C392 C393 1.349 . S
C392 C394 1.327 . S
C392 H417 0.950 . S
C393 C392 1.349 . S
C393 C409 1.349 . S
C394 C392 1.327 . S
C394 C413 1.429 . S
C394 H418 0.950 . S
C395 C412 1.574 1_455 S
C395 C414 1.368 1_565 S
C395 H419 0.949 . S
H396 C400 0.949 . S
C397 C398 1.349 . S
C397 C399 1.327 . S
C397 H420 0.950 . S
C398 C397 1.349 . S
C398 C410 1.349 . S
C399 C397 1.327 . S
C399 C415 1.429 . S
C399 H421 0.950 . S
C400 H396 0.949 . S
C400 C408 1.574 1_655 S
C400 C416 1.368 1_545 S
H401 C409 0.950 . S
H402 C407 0.950 . S
H403 C408 0.949 . S
H404 C410 0.950 . S
H405 C411 0.950 . S
H406 C412 0.949 . S
C407 H402 0.950 . S
C407 C409 1.327 . S
C407 C413 1.429 . S
C408 C400 1.574 1_455 S
C408 H403 0.949 . S
C408 C414 1.368 . S
C409 C393 1.349 . S
C409 H401 0.950 . S
C409 C407 1.327 . S
C410 C398 1.349 . S
C410 H404 0.950 . S
C410 C411 1.327 . S
C411 H405 0.950 . S
C411 C410 1.327 . S
C411 C415 1.429 . S
C412 C395 1.574 1_655 S
C412 H406 0.949 . S
C412 C416 1.368 . S
C413 C394 1.429 . S
C413 C407 1.429 . S
C413 C414 1.523 . S
C414 C395 1.368 1_545 S
C414 C408 1.368 . S
C414 C413 1.523 . S
C415 C399 1.429 . S
C415 C411 1.429 . S
C415 C416 1.523 . S
C416 C400 1.368 1_565 S
C416 C412 1.368 . S
C416 C415 1.523 . S
H417 C392 0.950 . S
H418 C394 0.950 . S
H419 C395 0.949 . S
H420 C397 0.950 . S
H421 C399 0.950 . S
C422 C423 1.349 . S
C422 C424 1.327 . S
C422 H447 0.950 . S
C423 C422 1.349 . S
C423 C439 1.349 . S
C424 C422 1.327 . S
C424 C443 1.429 . S
C424 H448 0.950 . S
C425 C442 1.574 1_545 S
C425 C444 1.368 . S
C425 H449 0.949 . S
H426 C430 0.949 . S
C427 C428 1.349 . S
C427 C429 1.327 . S
C427 H450 0.950 . S
C428 C427 1.349 . S
C428 C440 1.349 . S
C429 C427 1.327 . S
C429 C445 1.429 . S
C429 H451 0.950 . S
C430 H426 0.949 . S
C430 C438 1.574 1_565 S
C430 C446 1.368 . S
H431 C439 0.950 . S
H432 C437 0.950 . S
H433 C438 0.949 . S
H434 C440 0.950 . S
H435 C441 0.950 . S
H436 C442 0.949 . S
C437 H432 0.950 . S
C437 C439 1.327 . S
C437 C443 1.429 . S
C438 C430 1.574 1_545 S
C438 H433 0.949 . S
C438 C444 1.368 1_455 S
C439 C423 1.349 . S
C439 H431 0.950 . S
C439 C437 1.327 . S
C440 C428 1.349 . S
C440 H434 0.950 . S
C440 C441 1.327 . S
C441 H435 0.950 . S
C441 C440 1.327 . S
C441 C445 1.429 . S
C442 C425 1.574 1_565 S
C442 H436 0.949 . S
C442 C446 1.368 1_655 S
C443 C424 1.429 . S
C443 C437 1.429 . S
C443 C444 1.523 . S
C444 C425 1.368 . S
C444 C438 1.368 1_655 S
C444 C443 1.523 . S
C445 C429 1.429 . S
C445 C441 1.429 . S
C445 C446 1.523 . S
C446 C430 1.368 . S
C446 C442 1.368 1_455 S
C446 C445 1.523 . S
H447 C422 0.950 . S
H448 C424 0.950 . S
H449 C425 0.949 . S
H450 C427 0.950 . S
H451 C429 0.950 . S
C452 C453 1.349 . S
C452 C454 1.327 . S
C452 H477 0.950 . S
C453 C452 1.349 . S
C453 C469 1.349 . S
C454 C452 1.327 . S
C454 C473 1.429 . S
C454 H478 0.950 . S
C455 C472 1.574 . S
C455 C474 1.368 . S
C455 H479 0.949 . S
H456 C460 0.949 . S
C457 C458 1.349 . S
C457 C459 1.327 . S
C457 H480 0.950 . S
C458 C457 1.349 . S
C458 C470 1.349 . S
C459 C457 1.327 . S
C459 C475 1.429 . S
C459 H481 0.950 . S
C460 H456 0.949 . S
C460 C468 1.574 . S
C460 C476 1.368 . S
H461 C469 0.950 . S
H462 C467 0.950 . S
H463 C468 0.949 . S
H464 C470 0.950 . S
H465 C471 0.950 . S
H466 C472 0.949 . S
C467 H462 0.950 . S
C467 C469 1.327 . S
C467 C473 1.429 . S
C468 C460 1.574 . S
C468 H463 0.949 . S
C468 C474 1.368 . S
C469 C453 1.349 . S
C469 H461 0.950 . S
C469 C467 1.327 . S
C470 C458 1.349 . S
C470 H464 0.950 . S
C470 C471 1.327 . S
C471 H465 0.950 . S
C471 C470 1.327 . S
C471 C475 1.429 . S
C472 C455 1.574 . S
C472 H466 0.949 . S
C472 C476 1.368 . S
C473 C454 1.429 . S
C473 C467 1.429 . S
C473 C474 1.523 . S
C474 C455 1.368 . S
C474 C468 1.368 . S
C474 C473 1.523 . S
C475 C459 1.429 . S
C475 C471 1.429 . S
C475 C476 1.523 . S
C476 C460 1.368 . S
C476 C472 1.368 . S
C476 C475 1.523 . S
H477 C452 0.950 . S
H478 C454 0.950 . S
H479 C455 0.949 . S
H480 C457 0.950 . S
H481 C459 0.950 . S
C482 C483 1.349 . S
C482 C484 1.327 . S
C482 H507 0.950 . S
C483 C482 1.349 . S
C483 C499 1.349 . S
C484 C482 1.327 . S
C484 C503 1.429 . S
C484 H508 0.950 . S
C485 C502 1.574 . S
C485 C504 1.368 . S
C485 H509 0.949 . S
H486 C490 0.949 . S
C487 C488 1.349 . S
C487 C489 1.327 . S
C487 H510 0.950 . S
C488 C487 1.349 . S
C488 C500 1.349 . S
C489 C487 1.327 . S
C489 C505 1.429 . S
C489 H511 0.950 . S
C490 H486 0.949 . S
C490 C498 1.574 . S
C490 C506 1.368 . S
H491 C499 0.950 . S
H492 C497 0.950 . S
H493 C498 0.949 . S
H494 C500 0.950 . S
H495 C501 0.950 . S
H496 C502 0.949 . S
C497 H492 0.950 . S
C497 C499 1.327 . S
C497 C503 1.429 . S
C498 C490 1.574 . S
C498 H493 0.949 . S
C498 C504 1.368 . S
C499 C483 1.349 . S
C499 H491 0.950 . S
C499 C497 1.327 . S
C500 C488 1.349 . S
C500 H494 0.950 . S
C500 C501 1.327 . S
C501 H495 0.950 . S
C501 C500 1.327 . S
C501 C505 1.429 . S
C502 C485 1.574 . S
C502 H496 0.949 . S
C502 C506 1.368 . S
C503 C484 1.429 . S
C503 C497 1.429 . S
C503 C504 1.523 . S
C504 C485 1.368 . S
C504 C498 1.368 . S
C504 C503 1.523 . S
C505 C489 1.429 . S
C505 C501 1.429 . S
C505 C506 1.523 . S
C506 C490 1.368 . S
C506 C502 1.368 . S
C506 C505 1.523 . S
H507 C482 0.950 . S
H508 C484 0.950 . S
H509 C485 0.949 . S
H510 C487 0.950 . S
H511 C489 0.950 . S
C512 C513 1.349 . S
C512 C514 1.327 . S
C512 H537 0.950 . S
C513 C512 1.349 . S
C513 C529 1.349 . S
C514 C512 1.327 . S
C514 C533 1.429 . S
C514 H538 0.950 . S
C515 C532 1.574 . S
C515 C534 1.368 . S
C515 H539 0.949 . S
H516 C520 0.949 . S
C517 C518 1.349 . S
C517 C519 1.327 . S
C517 H540 0.950 . S
C518 C517 1.349 . S
C518 C530 1.349 . S
C519 C517 1.327 . S
C519 C535 1.429 . S
C519 H541 0.950 . S
C520 H516 0.949 . S
C520 C528 1.574 . S
C520 C536 1.368 . S
H521 C529 0.950 . S
H522 C527 0.950 . S
H523 C528 0.949 . S
H524 C530 0.950 . S
H525 C531 0.950 . S
H526 C532 0.949 . S
C527 H522 0.950 . S
C527 C529 1.327 . S
C527 C533 1.429 . S
C528 C520 1.574 . S
C528 H523 0.949 . S
C528 C534 1.368 . S
C529 C513 1.349 . S
C529 H521 0.950 . S
C529 C527 1.327 . S
C530 C518 1.349 . S
C530 H524 0.950 . S
C530 C531 1.327 . S
C531 H525 0.950 . S
C531 C530 1.327 . S
C531 C535 1.429 . S
C532 C515 1.574 . S
C532 H526 0.949 . S
C532 C536 1.368 . S
C533 C514 1.429 . S
C533 C527 1.429 . S
C533 C534 1.523 . S
C534 C515 1.368 . S
C534 C528 1.368 . S
C534 C533 1.523 . S
C535 C519 1.429 . S
C535 C531 1.429 . S
C535 C536 1.523 . S
C536 C520 1.368 . S
C536 C532 1.368 . S
C536 C535 1.523 . S
H537 C512 0.950 . S
H538 C514 0.950 . S
H539 C515 0.949 . S
H540 C517 0.950 . S
H541 C519 0.950 . S
C542 C543 1.349 . S
C542 C544 1.327 . S
C542 H567 0.950 . S
C543 C542 1.349 . S
C543 C559 1.349 . S
C544 C542 1.327 . S
C544 C563 1.429 . S
C544 H568 0.950 . S
C545 C562 1.574 . S
C545 C564 1.368 . S
C545 H569 0.949 . S
H546 C550 0.949 . S
C547 C548 1.349 . S
C547 C549 1.327 . S
C547 H570 0.950 . S
C548 C547 1.349 . S
C548 C560 1.349 . S
C549 C547 1.327 . S
C549 C565 1.429 . S
C549 H571 0.950 . S
C550 H546 0.949 . S
C550 C558 1.574 . S
C550 C566 1.368 . S
H551 C559 0.950 . S
H552 C557 0.950 . S
H553 C558 0.949 . S
H554 C560 0.950 . S
H555 C561 0.950 . S
H556 C562 0.949 . S
C557 H552 0.950 . S
C557 C559 1.327 . S
C557 C563 1.429 . S
C558 C550 1.574 . S
C558 H553 0.949 . S
C558 C564 1.368 . S
C559 C543 1.349 . S
C559 H551 0.950 . S
C559 C557 1.327 . S
C560 C548 1.349 . S
C560 H554 0.950 . S
C560 C561 1.327 . S
C561 H555 0.950 . S
C561 C560 1.327 . S
C561 C565 1.429 . S
C562 C545 1.574 . S
C562 H556 0.949 . S
C562 C566 1.368 . S
C563 C544 1.429 . S
C563 C557 1.429 . S
C563 C564 1.523 . S
C564 C545 1.368 . S
C564 C558 1.368 . S
C564 C563 1.523 . S
C565 C549 1.429 . S
C565 C561 1.429 . S
C565 C566 1.523 . S
C566 C550 1.368 . S
C566 C562 1.368 . S
C566 C565 1.523 . S
H567 C542 0.950 . S
H568 C544 0.950 . S
H569 C545 0.949 . S
H570 C547 0.950 . S
H571 C549 0.950 . S
C572 C573 1.349 . S
C572 C574 1.327 . S
C572 H597 0.950 . S
C573 C572 1.349 . S
C573 C589 1.349 . S
C574 C572 1.327 . S
C574 C593 1.429 . S
C574 H598 0.950 . S
C575 C592 1.574 . S
C575 C594 1.368 . S
C575 H599 0.949 . S
H576 C580 0.949 . S
C577 C578 1.349 . S
C577 C579 1.327 . S
C577 H600 0.950 . S
C578 C577 1.349 . S
C578 C590 1.349 . S
C579 C577 1.327 . S
C579 C595 1.429 . S
C579 H601 0.950 . S
C580 H576 0.949 . S
C580 C588 1.574 . S
C580 C596 1.368 . S
H581 C589 0.950 . S
H582 C587 0.950 . S
H583 C588 0.949 . S
H584 C590 0.950 . S
H585 C591 0.950 . S
H586 C592 0.949 . S
C587 H582 0.950 . S
C587 C589 1.327 . S
C587 C593 1.429 . S
C588 C580 1.574 . S
C588 H583 0.949 . S
C588 C594 1.368 . S
C589 C573 1.349 . S
C589 H581 0.950 . S
C589 C587 1.327 . S
C590 C578 1.349 . S
C590 H584 0.950 . S
C590 C591 1.327 . S
C591 H585 0.950 . S
C591 C590 1.327 . S
C591 C595 1.429 . S
C592 C575 1.574 . S
C592 H586 0.949 . S
C592 C596 1.368 . S
C593 C574 1.429 . S
C593 C587 1.429 . S
C593 C594 1.523 . S
C594 C575 1.368 . S
C594 C588 1.368 . S
C594 C593 1.523 . S
C595 C579 1.429 . S
C595 C591 1.429 . S
C595 C596 1.523 . S
C596 C580 1.368 . S
C596 C592 1.368 . S
C596 C595 1.523 . S
H597 C572 0.950 . S
H598 C574 0.950 . S
H599 C575 0.949 . S
H600 C577 0.950 . S
H601 C579 0.950 . S
C602 C603 1.349 . S
C602 C604 1.327 . S
C602 H627 0.950 . S
C603 C602 1.349 . S
C603 C619 1.349 . S
C604 C602 1.327 . S
C604 C623 1.429 . S
C604 H628 0.950 . S
C605 C622 1.574 . S
C605 C624 1.368 . S
C605 H629 0.949 . S
H606 C610 0.949 . S
C607 C608 1.349 . S
C607 C609 1.327 . S
C607 H630 0.950 . S
C608 C607 1.349 . S
C608 C620 1.349 . S
C609 C607 1.327 . S
C609 C625 1.429 . S
C609 H631 0.950 . S
C610 H606 0.949 . S
C610 C618 1.574 . S
C610 C626 1.368 . S
H611 C619 0.950 . S
H612 C617 0.950 . S
H613 C618 0.949 . S
H614 C620 0.950 . S
H615 C621 0.950 . S
H616 C622 0.949 . S
C617 H612 0.950 . S
C617 C619 1.327 . S
C617 C623 1.429 . S
C618 C610 1.574 . S
C618 H613 0.949 . S
C618 C624 1.368 . S
C619 C603 1.349 . S
C619 H611 0.950 . S
C619 C617 1.327 . S
C620 C608 1.349 . S
C620 H614 0.950 . S
C620 C621 1.327 . S
C621 H615 0.950 . S
C621 C620 1.327 . S
C621 C625 1.429 . S
C622 C605 1.574 . S
C622 H616 0.949 . S
C622 C626 1.368 . S
C623 C604 1.429 . S
C623 C617 1.429 . S
C623 C624 1.523 . S
C624 C605 1.368 . S
C624 C618 1.368 . S
C624 C623 1.523 . S
C625 C609 1.429 . S
C625 C621 1.429 . S
C625 C626 1.523 . S
C626 C610 1.368 . S
C626 C622 1.368 . S
C626 C625 1.523 . S
H627 C602 0.950 . S
H628 C604 0.950 . S
H629 C605 0.949 . S
H630 C607 0.950 . S
H631 C609 0.950 . S
C632 C633 1.349 . S
C632 C634 1.327 . S
C632 H657 0.950 . S
C633 C632 1.349 . S
C633 C649 1.349 . S
C634 C632 1.327 . S
C634 C653 1.429 . S
C634 H658 0.950 . S
C635 C652 1.574 . S
C635 C654 1.368 . S
C635 H659 0.949 . S
H636 C640 0.949 . S
C637 C638 1.349 1_565 S
C637 C639 1.327 . S
C637 H660 0.950 . S
C638 C637 1.349 1_545 S
C638 C650 1.349 . S
C639 C637 1.327 . S
C639 C655 1.429 . S
C639 H661 0.950 . S
C640 H636 0.949 . S
C640 C648 1.574 . S
C640 C656 1.368 . S
H641 C649 0.950 . S
H642 C647 0.950 . S
H643 C648 0.949 . S
H644 C650 0.950 . S
H645 C651 0.950 . S
H646 C652 0.949 . S
C647 H642 0.950 . S
C647 C649 1.327 . S
C647 C653 1.429 . S
C648 C640 1.574 . S
C648 H643 0.949 . S
C648 C654 1.368 . S
C649 C633 1.349 . S
C649 H641 0.950 . S
C649 C647 1.327 . S
C650 C638 1.349 . S
C650 H644 0.950 . S
C650 C651 1.327 1_545 S
C651 H645 0.950 . S
C651 C650 1.327 1_565 S
C651 C655 1.429 . S
C652 C635 1.574 . S
C652 H646 0.949 . S
C652 C656 1.368 . S
C653 C634 1.429 . S
C653 C647 1.429 . S
C653 C654 1.523 . S
C654 C635 1.368 . S
C654 C648 1.368 . S
C654 C653 1.523 . S
C655 C639 1.429 . S
C655 C651 1.429 . S
C655 C656 1.523 . S
C656 C640 1.368 . S
C656 C652 1.368 . S
C656 C655 1.523 . S
H657 C632 0.950 . S
H658 C634 0.950 . S
H659 C635 0.949 . S
H660 C637 0.950 . S
H661 C639 0.950 . S
C662 C663 1.349 . S
C662 C664 1.327 . S
C662 H687 0.950 . S
C663 C662 1.349 . S
C663 C679 1.349 . S
C664 C662 1.327 . S
C664 C683 1.429 . S
C664 H688 0.950 . S
C665 C682 1.574 . S
C665 C684 1.368 . S
C665 H689 0.949 . S
H666 C670 0.949 . S
C667 C668 1.348 1_655 S
C667 C669 1.335 . S
C667 H690 0.944 1_655 S
C668 C667 1.348 1_455 S
C668 C680 1.349 1_455 S
C669 C667 1.335 . S
C669 C685 1.429 . S
C669 H691 0.950 . S
C670 H666 0.949 . S
C670 C678 1.574 . S
C670 C686 1.368 . S
H671 C679 0.950 . S
H672 C677 0.950 . S
H673 C678 0.949 . S
H674 C680 0.950 . S
H675 C681 0.950 . S
H676 C682 0.949 . S
C677 H672 0.950 . S
C677 C679 1.327 . S
C677 C683 1.429 . S
C678 C670 1.574 . S
C678 H673 0.949 . S
C678 C684 1.368 . S
C679 C663 1.349 . S
C679 H671 0.950 . S
C679 C677 1.327 . S
C680 C668 1.349 1_655 S
C680 H674 0.950 . S
C680 C681 1.327 . S
C681 H675 0.950 . S
C681 C680 1.327 . S
C681 C685 1.429 . S
C682 C665 1.574 . S
C682 H676 0.949 . S
C682 C686 1.368 . S
C683 C664 1.429 . S
C683 C677 1.429 . S
C683 C684 1.523 . S
C684 C665 1.368 . S
C684 C678 1.368 . S
C684 C683 1.523 . S
C685 C669 1.429 . S
C685 C681 1.429 . S
C685 C686 1.523 . S
C686 C670 1.368 . S
C686 C682 1.368 . S
C686 C685 1.523 . S
H687 C662 0.950 . S
H688 C664 0.950 . S
H689 C665 0.949 . S
H690 C667 0.944 1_455 S
H691 C669 0.950 . S
C692 C693 1.349 . S
C692 C694 1.327 1_565 S
C692 H717 0.950 . S
C693 C692 1.349 . S
C693 C709 1.349 1_565 S
C694 C692 1.327 1_545 S
C694 C713 1.429 . S
C694 H718 0.950 . S
C695 C712 1.574 . S
C695 C714 1.368 . S
C695 H719 0.949 . S
H696 C700 0.949 . S
C697 C698 1.349 . S
C697 C699 1.327 . S
C697 H720 0.950 . S
C698 C697 1.349 . S
C698 C710 1.349 . S
C699 C697 1.327 . S
C699 C715 1.429 . S
C699 H721 0.950 . S
C700 H696 0.949 . S
C700 C708 1.574 . S
C700 C716 1.368 . S
H701 C709 0.950 . S
H702 C707 0.950 . S
H703 C708 0.949 . S
H704 C710 0.950 . S
H705 C711 0.950 . S
H706 C712 0.949 . S
C707 H702 0.950 . S
C707 C709 1.327 . S
C707 C713 1.429 . S
C708 C700 1.574 . S
C708 H703 0.949 . S
C708 C714 1.368 . S
C709 C693 1.349 1_545 S
C709 H701 0.950 . S
C709 C707 1.327 . S
C710 C698 1.349 . S
C710 H704 0.950 . S
C710 C711 1.327 . S
C711 H705 0.950 . S
C711 C710 1.327 . S
C711 C715 1.429 . S
C712 C695 1.574 . S
C712 H706 0.949 . S
C712 C716 1.368 . S
C713 C694 1.429 . S
C713 C707 1.429 . S
C713 C714 1.523 . S
C714 C695 1.368 . S
C714 C708 1.368 . S
C714 C713 1.523 . S
C715 C699 1.429 . S
C715 C711 1.429 . S
C715 C716 1.523 . S
C716 C700 1.368 . S
C716 C712 1.368 . S
C716 C715 1.523 . S
H717 C692 0.950 . S
H718 C694 0.950 . S
H719 C695 0.949 . S
H720 C697 0.950 . S
H721 C699 0.950 . S
C722 C723 1.349 . S
C722 C724 1.327 . S
C722 H747 0.950 . S
C723 C722 1.349 . S
C723 C739 1.349 . S
C724 C722 1.327 . S
C724 C743 1.429 . S
C724 H748 0.950 . S
C725 C742 1.574 . S
C725 C744 1.368 . S
C725 H749 0.949 . S
H726 C730 0.949 . S
C727 C728 1.349 . S
C727 C729 1.327 1_655 S
C727 H750 0.950 . S
C728 C727 1.349 . S
C728 C740 1.349 1_655 S
C729 C727 1.327 1_455 S
C729 C745 1.429 . S
C729 H751 0.950 . S
C730 H726 0.949 . S
C730 C738 1.574 . S
C730 C746 1.368 . S
H731 C739 0.950 . S
H732 C737 0.950 . S
H733 C738 0.949 . S
H734 C740 0.950 . S
H735 C741 0.950 . S
H736 C742 0.949 . S
C737 H732 0.950 . S
C737 C739 1.327 . S
C737 C743 1.429 . S
C738 C730 1.574 . S
C738 H733 0.949 . S
C738 C744 1.368 . S
C739 C723 1.349 . S
C739 H731 0.950 . S
C739 C737 1.327 . S
C740 C728 1.349 1_455 S
C740 H734 0.950 . S
C740 C741 1.327 . S
C741 H735 0.950 . S
C741 C740 1.327 . S
C741 C745 1.429 . S
C742 C725 1.574 . S
C742 H736 0.949 . S
C742 C746 1.368 . S
C743 C724 1.429 . S
C743 C737 1.429 . S
C743 C744 1.523 . S
C744 C725 1.368 . S
C744 C738 1.368 . S
C744 C743 1.523 . S
C745 C729 1.429 . S
C745 C741 1.429 . S
C745 C746 1.523 . S
C746 C730 1.368 . S
C746 C742 1.368 . S
C746 C745 1.523 . S
H747 C722 0.950 . S
H748 C724 0.950 . S
H749 C725 0.949 . S
H750 C727 0.950 . S
H751 C729 0.950 . S
C752 C753 1.349 . S
C752 C754 1.327 . S
C752 H777 0.950 . S
C753 C752 1.349 . S
C753 C769 1.349 . S
C754 C752 1.327 . S
C754 C773 1.429 . S
C754 H778 0.950 . S
C755 C772 1.574 . S
C755 C774 1.368 . S
C755 H779 0.949 . S
H756 C760 0.949 . S
C757 C758 1.349 . S
C757 C759 1.327 . S
C757 H780 0.950 . S
C758 C757 1.349 . S
C758 C770 1.349 . S
C759 C757 1.327 . S
C759 C775 1.429 . S
C759 H781 0.950 . S
C760 H756 0.949 . S
C760 C768 1.574 1_556 S
C760 C776 1.375 . S
H761 C769 0.950 . S
H762 C767 0.950 . S
H763 C768 0.949 . S
H764 C770 0.950 . S
H765 C771 0.950 . S
H766 C772 0.949 . S
C767 H762 0.950 . S
C767 C769 1.327 . S
C767 C773 1.429 . S
C768 C760 1.574 1_554 S
C768 H763 0.949 . S
C768 C774 1.368 . S
C769 C753 1.349 . S
C769 H761 0.950 . S
C769 C767 1.327 . S
C770 C758 1.349 . S
C770 H764 0.950 . S
C770 C771 1.327 . S
C771 H765 0.950 . S
C771 C770 1.327 . S
C771 C775 1.429 . S
C772 C755 1.574 . S
C772 H766 0.949 . S
C772 C776 1.332 1_554 S
C773 C754 1.429 . S
C773 C767 1.429 . S
C773 C774 1.523 . S
C774 C755 1.368 . S
C774 C768 1.368 . S
C774 C773 1.523 . S
C775 C759 1.429 . S
C775 C771 1.429 . S
C775 C776 1.566 . S
C776 C760 1.375 . S
C776 C772 1.332 1_556 S
C776 C775 1.566 . S
H777 C752 0.950 . S
H778 C754 0.950 . S
H779 C755 0.949 . S
H780 C757 0.950 . S
H781 C759 0.950 . S
C782 C783 1.349 . S
C782 C784 1.327 . S
C782 H807 0.950 . S
C783 C782 1.349 . S
C783 C799 1.349 . S
C784 C782 1.327 . S
C784 C803 1.429 . S
C784 H808 0.950 . S
C785 C802 1.582 . S
C785 C804 1.368 . S
C785 H809 0.949 . S
H786 C790 0.949 . S
C787 C788 1.349 . S
C787 C789 1.327 . S
C787 H810 0.950 . S
C788 C787 1.349 . S
C788 C800 1.349 . S
C789 C787 1.327 . S
C789 C805 1.429 . S
C789 H811 0.950 . S
C790 H786 0.949 . S
C790 C798 1.574 . S
C790 C806 1.341 1_556 S
H791 C799 0.950 . S
H792 C797 0.950 . S
H793 C798 0.949 . S
H794 C800 0.950 . S
H795 C801 0.950 . S
H796 C802 0.942 1_554 S
C797 H792 0.950 . S
C797 C799 1.327 . S
C797 C803 1.429 . S
C798 C790 1.574 . S
C798 H793 0.949 . S
C798 C804 1.368 . S
C799 C783 1.349 . S
C799 H791 0.950 . S
C799 C797 1.327 . S
C800 C788 1.349 . S
C800 H794 0.950 . S
C800 C801 1.327 . S
C801 H795 0.950 . S
C801 C800 1.327 . S
C801 C805 1.429 . S
C802 C785 1.582 . S
C802 H796 0.942 1_556 S
C802 C806 1.366 1_556 S
C803 C784 1.429 . S
C803 C797 1.429 . S
C803 C804 1.523 . S
C804 C785 1.368 . S
C804 C798 1.368 . S
C804 C803 1.523 . S
C805 C789 1.429 . S
C805 C801 1.429 . S
C805 C806 1.566 . S
C806 C790 1.341 1_554 S
C806 C802 1.366 1_554 S
C806 C805 1.566 . S
H807 C782 0.950 . S
H808 C784 0.950 . S
H809 C785 0.949 . S
H810 C787 0.950 . S
H811 C789 0.950 . S
C812 C813 1.349 . S
C812 C814 1.327 . S
C812 H837 0.950 . S
C813 C812 1.349 . S
C813 C829 1.349 . S
C814 C812 1.327 . S
C814 C833 1.429 . S
C814 H838 0.950 . S
C815 C832 1.574 . S
C815 C834 1.368 . S
C815 H839 0.949 . S
H816 C820 0.949 . S
C817 C818 1.349 . S
C817 C819 1.327 . S
C817 H840 0.950 . S
C818 C817 1.349 . S
C818 C830 1.349 . S
C819 C817 1.327 . S
C819 C835 1.429 . S
C819 H841 0.950 . S
C820 H816 0.949 . S
C820 C828 1.574 1_556 S
C820 C836 1.374 . S
H821 C829 0.950 . S
H822 C827 0.950 . S
H823 C828 0.949 . S
H824 C830 0.950 . S
H825 C831 0.950 . S
H826 C832 0.949 . S
C827 H822 0.950 . S
C827 C829 1.327 . S
C827 C833 1.429 . S
C828 C820 1.574 1_554 S
C828 H823 0.949 . S
C828 C834 1.368 . S
C829 C813 1.349 . S
C829 H821 0.950 . S
C829 C827 1.327 . S
C830 C818 1.349 . S
C830 H824 0.950 . S
C830 C831 1.327 . S
C831 H825 0.950 . S
C831 C830 1.327 . S
C831 C835 1.429 . S
C832 C815 1.574 . S
C832 H826 0.949 . S
C832 C836 1.332 1_554 S
C833 C814 1.429 . S
C833 C827 1.429 . S
C833 C834 1.523 . S
C834 C815 1.368 . S
C834 C828 1.368 . S
C834 C833 1.523 . S
C835 C819 1.429 . S
C835 C831 1.429 . S
C835 C836 1.566 . S
C836 C820 1.374 . S
C836 C832 1.332 1_556 S
C836 C835 1.566 . S
H837 C812 0.950 . S
H838 C814 0.950 . S
H839 C815 0.949 . S
H840 C817 0.950 . S
H841 C819 0.950 . S
C842 C843 1.349 . S
C842 C844 1.327 . S
C842 H867 0.950 . S
C843 C842 1.349 . S
C843 C859 1.349 . S
C844 C842 1.327 . S
C844 C863 1.429 . S
C844 H868 0.950 . S
C845 C862 1.574 . S
C845 C864 1.368 . S
C845 H869 0.949 . S
H846 C850 0.931 1_554 S
C847 C848 1.349 . S
C847 C849 1.327 . S
C847 H870 0.950 . S
C848 C847 1.349 . S
C848 C860 1.349 . S
C849 C847 1.327 . S
C849 C865 1.429 . S
C849 H871 0.950 . S
C850 H846 0.931 1_556 S
C850 C858 1.597 . S
C850 C866 1.364 1_556 S
H851 C859 0.950 . S
H852 C857 0.950 . S
H853 C858 0.949 . S
H854 C860 0.950 . S
H855 C861 0.950 . S
H856 C862 0.949 . S
C857 H852 0.950 . S
C857 C859 1.327 . S
C857 C863 1.429 . S
C858 C850 1.597 . S
C858 H853 0.949 . S
C858 C864 1.368 . S
C859 C843 1.349 . S
C859 H851 0.950 . S
C859 C857 1.327 . S
C860 C848 1.349 . S
C860 H854 0.950 . S
C860 C861 1.327 . S
C861 H855 0.950 . S
C861 C860 1.327 . S
C861 C865 1.429 . S
C862 C845 1.574 . S
C862 H856 0.949 . S
C862 C866 1.342 1_556 S
C863 C844 1.429 . S
C863 C857 1.429 . S
C863 C864 1.523 . S
C864 C845 1.368 . S
C864 C858 1.368 . S
C864 C863 1.523 . S
C865 C849 1.429 . S
C865 C861 1.429 . S
C865 C866 1.566 . S
C866 C850 1.364 1_554 S
C866 C862 1.342 1_554 S
C866 C865 1.566 . S
H867 C842 0.950 . S
H868 C844 0.950 . S
H869 C845 0.949 . S
H870 C847 0.950 . S
H871 C849 0.950 . S
C273 C88 1.070 . S
C278 C20 1.070 . S
C303 C122 1.070 . S
C308 C54 1.070 . S
C333 C224 1.070 . S
C338 C156 1.070 . S
C363 C258 1.070 . S
C368 C190 1.070 . S
C393 C2 1.173 . S
C398 C70 1.173 . S
C423 C104 1.173 . S
C428 C36 1.173 . S
C453 C206 1.173 . S
C458 C138 1.173 . S
C483 C240 1.173 . S
C488 C172 1.173 . S
C513 C247 1.383 . S
C518 C9 1.383 . S
C543 C145 1.383 . S
C548 C43 1.383 . S
C573 C77 1.383 . S
C578 C179 1.383 . S
C603 C213 1.383 . S
C608 C111 1.383 . S
C633 C67 0.471 . S
C638 C5 0.358 . S
C663 C101 0.471 . S
C668 C39 0.358 . S
C693 C73 0.358 . S
C698 C135 0.471 . S
C723 C33 0.471 . S
C728 C107 0.358 . S
C753 C271 0.471 . S
C758 C141 0.358 . S
C783 C169 0.471 . S
C788 C175 0.358 . S
C813 C203 0.471 . S
C818 C209 0.358 . S
C843 C237 0.471 . S
C848 C243 0.358 . S
