# Generated by pormake.
# Topology smc, (6)-cn, num edge types: 1
# Building blocks:
#     Node 0, Type 0, BuildingBlock: MIFKUJ_clean_sbu_0, # of connection points: 6
#     Node 1, Type 0, BuildingBlock: MIFKUJ_clean_sbu_0, # of connection points: 6
#     Node 2, Type 0, BuildingBlock: MIFKUJ_clean_sbu_0, # of connection points: 6
#     Node 3, Type 0, BuildingBlock: MIFKUJ_clean_sbu_0, # of connection points: 6
#     Node 4, Type 0, BuildingBlock: MIFKUJ_clean_sbu_0, # of connection points: 6
#     Node 5, Type 0, BuildingBlock: MIFKUJ_clean_sbu_0, # of connection points: 6
#     Node 6, Type 0, BuildingBlock: MIFKUJ_clean_sbu_0, # of connection points: 6
#     Node 7, Type 0, BuildingBlock: MIFKUJ_clean_sbu_0, # of connection points: 6
#     Node 8, Type 0, BuildingBlock: MIFKUJ_clean_sbu_0, # of connection points: 6
#     Edge 9, Type (0, 0), BuildingBlock: TEMPAE_clean_linker_10, # of connection points: 2
#     Edge 10, Type (0, 0), BuildingBlock: TEMPAE_clean_linker_10, # of connection points: 2
#     Edge 11, Type (0, 0), BuildingBlock: TEMPAE_clean_linker_10, # of connection points: 2
#     Edge 12, Type (0, 0), BuildingBlock: TEMPAE_clean_linker_10, # of connection points: 2
#     Edge 13, Type (0, 0), BuildingBlock: TEMPAE_clean_linker_10, # of connection points: 2
#     Edge 14, Type (0, 0), BuildingBlock: TEMPAE_clean_linker_10, # of connection points: 2
#     Edge 15, Type (0, 0), BuildingBlock: TEMPAE_clean_linker_10, # of connection points: 2
#     Edge 16, Type (0, 0), BuildingBlock: TEMPAE_clean_linker_10, # of connection points: 2
#     Edge 17, Type (0, 0), BuildingBlock: TEMPAE_clean_linker_10, # of connection points: 2
#     Edge 18, Type (0, 0), BuildingBlock: TEMPAE_clean_linker_10, # of connection points: 2
#     Edge 19, Type (0, 0), BuildingBlock: TEMPAE_clean_linker_10, # of connection points: 2
#     Edge 20, Type (0, 0), BuildingBlock: TEMPAE_clean_linker_10, # of connection points: 2
#     Edge 21, Type (0, 0), BuildingBlock: TEMPAE_clean_linker_10, # of connection points: 2
#     Edge 22, Type (0, 0), BuildingBlock: TEMPAE_clean_linker_10, # of connection points: 2
#     Edge 23, Type (0, 0), BuildingBlock: TEMPAE_clean_linker_10, # of connection points: 2
#     Edge 24, Type (0, 0), BuildingBlock: TEMPAE_clean_linker_10, # of connection points: 2
#     Edge 25, Type (0, 0), BuildingBlock: TEMPAE_clean_linker_10, # of connection points: 2
#     Edge 26, Type (0, 0), BuildingBlock: TEMPAE_clean_linker_10, # of connection points: 2
#     Edge 27, Type (0, 0), BuildingBlock: TEMPAE_clean_linker_10, # of connection points: 2
#     Edge 28, Type (0, 0), BuildingBlock: TEMPAE_clean_linker_10, # of connection points: 2
#     Edge 29, Type (0, 0), BuildingBlock: TEMPAE_clean_linker_10, # of connection points: 2
#     Edge 30, Type (0, 0), BuildingBlock: TEMPAE_clean_linker_10, # of connection points: 2
#     Edge 31, Type (0, 0), BuildingBlock: TEMPAE_clean_linker_10, # of connection points: 2
#     Edge 32, Type (0, 0), BuildingBlock: TEMPAE_clean_linker_10, # of connection points: 2
#     Edge 33, Type (0, 0), BuildingBlock: TEMPAE_clean_linker_10, # of connection points: 2
#     Edge 34, Type (0, 0), BuildingBlock: TEMPAE_clean_linker_10, # of connection points: 2
#     Edge 35, Type (0, 0), BuildingBlock: TEMPAE_clean_linker_10, # of connection points: 2
# Relax obj value: 0.181
# Max RMSD: 0.296
# Mean RMSD: 0.289
data_MOF--net-smc--node1-MIFKUJ_clean_sbu_0--edge1-TEMPAE_clean_linker_10
_symmetry_space_group_name_H-M    P1
_symmetry_Int_Tables_number       1
_symmetry_cell_setting            triclinic
loop_
_symmetry_equiv_pos_as_xyz
'x, y, z'
_cell_length_a     35.340763
_cell_length_b     33.989385
_cell_length_c     39.652697
_cell_angle_alpha  91.271035
_cell_angle_beta   91.123873
_cell_angle_gamma 120.62668
loop_
_atom_site_label
_atom_site_type_symbol
_atom_site_fract_x
_atom_site_fract_y
_atom_site_fract_z
_atom_type_partial_charge
Zn0 Zn 0.04399 0.43284 -0.00037 0.0
Zn1 Zn 0.96371 0.436 0.01127 0.0
C2 C 0.08332 0.52511 0.97859 0.0
O3 O 0.08992 0.50564 0.95216 0.0
C4 C 0.8897 0.34688 0.03151 0.0
O5 O 0.90248 0.36054 0.06307 0.0
O6 O 0.10027 0.43605 0.99129 0.0
O7 O 0.02732 0.40462 0.04351 0.0
O8 O 0.0003 0.44856 0.05534 0.0
C9 C 0.1294 0.46297 0.01297 0.0
O10 O 0.11889 0.48371 0.03599 0.0
O11 O 0.05992 0.4998 0.00192 0.0
C12 C 0.9092 0.46772 0.99344 0.0
O13 O 0.9062 0.44415 0.96581 0.0
O14 O 0.93412 0.47075 0.01794 0.0
O15 O 0.9836 0.44676 0.96248 0.0
O16 O 0.00141 0.3943 0.9641 0.0
O17 O 0.91248 0.3717 0.00792 0.0
C18 C 0.01695 0.42511 0.06493 0.0
C19 C 0.98254 0.41209 0.94884 0.0
Zn20 Zn 0.60974 0.56058 0.0072 0.0
Zn21 Zn 0.52835 0.58584 0.98996 0.0
C22 C 0.5724 0.47188 0.0325 0.0
O23 O 0.60649 0.49489 0.05347 0.0
C24 C 0.55188 0.68075 0.98116 0.0
O25 O 0.57044 0.67906 0.95323 0.0
O26 O 0.66597 0.56348 0.01423 0.0
O27 O 0.6128 0.57637 0.96007 0.0
O28 O 0.55938 0.58913 0.94584 0.0
C29 C 0.66943 0.53663 0.9936 0.0
O30 O 0.63728 0.512 0.97138 0.0
O31 O 0.56273 0.49385 0.01191 0.0
C32 C 0.44407 0.5509 0.00708 0.0
O33 O 0.46631 0.57344 0.03473 0.0
O34 O 0.46416 0.54923 0.98142 0.0
O35 O 0.53913 0.56482 0.03493 0.0
O36 O 0.61038 0.60538 0.0399 0.0
O37 O 0.53596 0.64704 0.0003 0.0
C38 C 0.59231 0.58553 0.93826 0.0
C39 C 0.5734 0.59507 0.05095 0.0
Zn40 Zn 0.38849 0.93689 0.99068 0.0
Zn41 Zn 0.48071 0.0632 0.01265 0.0
C42 C 0.42899 0.88823 0.97638 0.0
O43 O 0.40117 0.87874 0.95074 0.0
C44 C 0.46578 0.13814 0.03514 0.0
O45 O 0.45435 0.11897 0.0645 0.0
O46 O 0.32805 0.88086 0.9925 0.0
O47 O 0.39357 0.98469 0.02411 0.0
O48 O 0.45363 0.02671 0.05466 0.0
C49 C 0.32267 0.85201 0.01454 0.0
O50 O 0.35537 0.86121 0.0358 0.0
O51 O 0.43222 0.91665 -0.00073 0.0
C52 C 0.56828 0.11827 0.99148 0.0
O53 O 0.54778 0.13177 0.97107 0.0
O54 O 0.54605 0.08651 0.01161 0.0
O55 O 0.44716 0.02789 0.97022 0.0
O56 O 0.39819 0.96336 0.94477 0.0
O57 O 0.47647 0.11959 0.01209 0.0
C58 C 0.41443 0.99284 0.05218 0.0
C59 C 0.42607 0.00577 0.94343 0.0
Zn60 Zn 0.72381 0.77729 0.32808 0.0
Zn61 Zn 0.62494 0.77606 0.3444 0.0
C62 C 0.75895 0.87107 0.31401 0.0
O63 O 0.75576 0.8554 0.2829 0.0
C64 C 0.55644 0.67939 0.3597 0.0
O65 O 0.58674 0.66797 0.36154 0.0
O66 O 0.78031 0.77546 0.32694 0.0
O67 O 0.6881 0.73816 0.3646 0.0
O68 O 0.66831 0.78615 0.38387 0.0
C69 C 0.81014 0.79967 0.34932 0.0
O70 O 0.80189 0.82174 0.37291 0.0
O71 O 0.74422 0.84332 0.33779 0.0
C72 C 0.56914 0.80828 0.3268 0.0
O73 O 0.55494 0.77136 0.30727 0.0
O74 O 0.60473 0.82272 0.34433 0.0
O75 O 0.63168 0.7578 0.29639 0.0
O76 O 0.69108 0.75442 0.28459 0.0
O77 O 0.56748 0.7207 0.35523 0.0
C78 C 0.68289 0.75929 0.38901 0.0
C79 C 0.654 0.74917 0.27586 0.0
Zn80 Zn 0.21372 0.94681 0.31799 0.0
Zn81 Zn 0.24283 0.86286 0.33537 0.0
C82 C 0.12348 0.89433 0.30475 0.0
O83 O 0.13807 0.91918 0.27793 0.0
C84 C 0.32521 0.87201 0.36899 0.0
O85 O 0.31067 0.87115 0.39937 0.0
O86 O 0.21118 0.00411 0.31775 0.0
O87 O 0.25714 0.95937 0.35523 0.0
O88 O 0.23059 0.89174 0.37642 0.0
C89 C 0.19147 0.01106 0.34155 0.0
O90 O 0.17266 0.97997 0.36436 0.0
O91 O 0.15148 0.89658 0.32654 0.0
C92 C 0.21711 0.77297 0.31765 0.0
O93 O 0.25404 0.79593 0.30178 0.0
O94 O 0.20192 0.79468 0.33332 0.0
O95 O 0.25125 0.8875 0.28804 0.0
O96 O 0.23517 0.93991 0.27384 0.0
O97 O 0.30243 0.87031 0.34327 0.0
C98 C 0.24413 0.9341 0.38035 0.0
C99 C 0.24951 0.91353 0.2663 0.0
Zn100 Zn 0.05773 0.28708 0.32723 0.0
Zn101 Zn 0.14624 0.37746 0.34221 0.0
C102 C 0.10224 0.24288 0.31231 0.0
O103 O 0.07498 0.23304 0.28622 0.0
C104 C 0.13264 0.45118 0.3622 0.0
O105 O 0.14348 0.44479 0.39261 0.0
O106 O 0.00241 0.2266 0.32161 0.0
O107 O 0.05107 0.32038 0.36503 0.0
O108 O 0.11699 0.34075 0.38465 0.0
C109 C 0.98538 0.20352 0.34751 0.0
O110 O 0.00248 0.22125 0.37763 0.0
O111 O 0.10469 0.2712 0.33494 0.0
C112 C 0.23481 0.44094 0.32786 0.0
O113 O 0.21585 0.43749 0.29824 0.0
O114 O 0.21165 0.41665 0.35167 0.0
O115 O 0.13763 0.35195 0.2933 0.0
O116 O 0.06598 0.32066 0.28697 0.0
O117 O 0.12879 0.42425 0.33799 0.0
C118 C 0.07703 0.32826 0.3899 0.0
C119 C 0.1038 0.34281 0.27515 0.0
Zn120 Zn 0.37801 0.09743 0.66247 0.0
Zn121 Zn 0.30405 0.10863 0.6738 0.0
C122 C 0.42684 0.1899 0.64201 0.0
O123 O 0.43305 0.16788 0.6171 0.0
C124 C 0.23009 0.02228 0.69799 0.0
O125 O 0.24086 0.04219 0.72825 0.0
O126 O 0.43271 0.09543 0.65921 0.0
O127 O 0.35043 0.06407 0.7038 0.0
O128 O 0.34471 0.12346 0.71613 0.0
C129 C 0.46197 0.12241 0.68078 0.0
O130 O 0.45223 0.14441 0.70336 0.0
O131 O 0.40059 0.16658 0.66486 0.0
C132 C 0.23857 0.12905 0.66464 0.0
O133 O 0.22425 0.09299 0.64424 0.0
O134 O 0.27485 0.14469 0.68098 0.0
O135 O 0.31928 0.11667 0.62384 0.0
O136 O 0.34277 0.06803 0.62141 0.0
O137 O 0.25427 0.04265 0.6735 0.0
C138 C 0.34999 0.09119 0.72574 0.0
C139 C 0.32523 0.08796 0.6072 0.0
Zn140 Zn 0.94429 0.23042 0.67669 0.0
Zn141 Zn 0.86465 0.25219 0.65682 0.0
C142 C 0.88395 0.13707 0.69293 0.0
O143 O 0.8959 0.15531 0.72364 0.0
C144 C 0.86341 0.32918 0.63189 0.0
O145 O 0.84049 0.29832 0.60782 0.0
O146 O -0.00195 0.22819 0.68478 0.0
O147 O 0.95923 0.2693 0.63749 0.0
O148 O 0.89126 0.23651 0.61697 0.0
C149 C 0.00771 0.21145 0.65983 0.0
O150 O 0.9816 0.19696 0.63268 0.0
O151 O 0.89731 0.1632 0.66798 0.0
C152 C 0.78032 0.22828 0.67001 0.0
O153 O 0.80289 0.25689 0.69533 0.0
O154 O 0.80013 0.21911 0.64765 0.0
O155 O 0.86951 0.24107 0.70679 0.0
O156 O 0.93873 0.2617 0.71618 0.0
O157 O 0.88169 0.31893 0.65525 0.0
C158 C 0.93238 0.25709 0.6127 0.0
C159 C 0.90392 0.25951 0.7258 0.0
Zn160 Zn 0.7329 0.60855 0.65471 0.0
Zn161 Zn 0.81673 0.73409 0.67919 0.0
C162 C 0.79526 0.58065 0.64128 0.0
O163 O 0.78807 0.58928 0.61044 0.0
C164 C 0.82512 0.81811 0.7081 0.0
O165 O 0.85066 0.81449 0.73082 0.0
O166 O 0.67444 0.5488 0.65036 0.0
O167 O 0.72504 0.64512 0.6913 0.0
O168 O 0.78809 0.69152 0.71828 0.0
C169 C 0.66666 0.51979 0.67291 0.0
O170 O 0.69596 0.53035 0.69761 0.0
O171 O 0.77778 0.58984 0.66563 0.0
C172 C 0.9057 0.80181 0.66632 0.0
O173 O 0.88463 0.82012 0.65226 0.0
O174 O 0.88371 0.76274 0.67928 0.0
O175 O 0.78995 0.71 0.63265 0.0
O176 O 0.74342 0.64055 0.61134 0.0
O177 O 0.80572 0.78669 0.68534 0.0
C178 C 0.74801 0.6594 0.71859 0.0
C179 C 0.76818 0.68322 0.60778 0.0
C180 C 0.3685 0.49475 0.02172 0.0
C181 C 0.39727 0.53387 0.00476 0.0
C182 C 0.32384 0.48054 0.02262 0.0
C183 C 0.30853 0.50696 0.00674 0.0
C184 C 0.3378 0.54668 0.98956 0.0
C185 C 0.38214 0.55959 0.9886 0.0
C186 C 0.29327 0.43787 0.04095 0.0
C187 C 0.32257 0.57622 0.9732 0.0
C188 C 0.18756 0.45467 0.98529 0.0
C189 C 0.17464 0.47242 0.01193 0.0
C190 C 0.23116 0.46513 0.98354 0.0
C191 C 0.26213 0.49393 0.00901 0.0
C192 C 0.24911 0.51133 0.03626 0.0
C193 C 0.20534 0.50025 0.03741 0.0
C194 C 0.2443 0.44621 0.95414 0.0
C195 C 0.28145 0.54206 0.06393 0.0
H196 H 0.38109 0.47568 0.03454 0.0
H197 H 0.40527 0.59055 0.97625 0.0
H198 H 0.27744 0.44627 0.06153 0.0
H199 H 0.26662 0.41286 0.0233 0.0
H200 H 0.31064 0.42137 0.05198 0.0
H201 H 0.34937 0.60521 0.95998 0.0
H202 H 0.29498 0.55539 0.95478 0.0
H203 H 0.31006 0.59029 0.99266 0.0
H204 H 0.16379 0.43314 0.96557 0.0
H205 H 0.19532 0.51376 0.0582 0.0
H206 H 0.26104 0.42819 0.9634 0.0
H207 H 0.26804 0.47471 0.93878 0.0
H208 H 0.21562 0.42209 0.93757 0.0
H209 H 0.29594 0.52393 0.07686 0.0
H210 H 0.2659 0.55315 0.08307 0.0
H211 H 0.30889 0.57295 0.05297 0.0
C212 C 0.47788 0.86748 0.00868 0.0
C213 C 0.45267 0.86294 0.97948 0.0
C214 C 0.49777 0.84092 0.01227 0.0
C215 C 0.49227 0.80932 0.98602 0.0
C216 C 0.46733 0.80508 0.95638 0.0
C217 C 0.44803 0.83203 0.95345 0.0
C218 C 0.52425 0.84628 0.04416 0.0
C219 C 0.4599 0.77105 0.92811 0.0
C220 C 0.56603 0.7598 0.97377 0.0
C221 C 0.54033 0.71627 0.9866 0.0
C222 C 0.55222 0.79185 0.97564 0.0
C223 C 0.5111 0.77926 0.98956 0.0
C224 C 0.48563 0.73566 0.00338 0.0
C225 C 0.50096 0.70498 0.00225 0.0
C226 C 0.58062 0.83837 0.9613 0.0
C227 C 0.44112 0.72044 0.01774 0.0
H228 H 0.48147 0.8912 0.02895 0.0
H229 H 0.42858 0.82822 0.93081 0.0
H230 H 0.51048 0.813 0.05654 0.0
H231 H 0.55859 0.85709 0.03789 0.0
H232 H 0.5248 0.87182 0.06245 0.0
H233 H 0.4404 0.7727 0.90644 0.0
H234 H 0.49189 0.77736 0.91889 0.0
H235 H 0.44222 0.73583 0.93759 0.0
H236 H 0.59653 0.76849 0.96182 0.0
H237 H 0.48078 0.6711 0.01194 0.0
H238 H 0.5849 0.86557 0.97967 0.0
H239 H 0.56427 0.8414 0.93816 0.0
H240 H 0.6136 0.84453 0.95479 0.0
H241 H 0.44473 0.7433 0.03949 0.0
H242 H 0.42477 0.68468 0.02625 0.0
H243 H 0.41923 0.72283 -0.00152 0.0
C244 C 0.28639 0.76812 0.02127 0.0
C245 C 0.28291 0.80604 0.01304 0.0
C246 C 0.25029 0.72354 0.0168 0.0
C247 C 0.20932 0.71678 0.00469 0.0
C248 C 0.20513 0.75516 0.99784 0.0
C249 C 0.24223 0.79943 0.00164 0.0
C250 C 0.25668 0.68367 0.02346 0.0
C251 C 0.16168 0.74941 0.98605 0.0
C252 C 0.13686 0.60262 0.95828 0.0
C253 C 0.10998 0.57562 0.98392 0.0
C254 C 0.16796 0.64915 0.96435 0.0
C255 C 0.17216 0.66943 0.99682 0.0
C256 C 0.14342 0.64314 0.02229 0.0
C257 C 0.11266 0.59648 0.01557 0.0
C258 C 0.19796 0.67599 0.93647 0.0
C259 C 0.14669 0.6637 0.05712 0.0
H260 H 0.31797 0.77319 0.02976 0.0
H261 H 0.23951 0.82886 0.99561 0.0
H262 H 0.23137 0.65966 0.04054 0.0
H263 H 0.25275 0.66448 -0.00062 0.0
H264 H 0.28973 0.69479 0.0349 0.0
H265 H 0.16408 0.78268 0.98129 0.0
H266 H 0.14946 0.72767 0.96253 0.0
H267 H 0.13682 0.73169 0.0054 0.0
H268 H 0.13488 0.58698 0.93369 0.0
H269 H 0.09208 0.57596 0.03557 0.0
H270 H 0.23245 0.68671 0.9438 0.0
H271 H 0.19677 0.70754 0.93248 0.0
H272 H 0.18907 0.65584 0.91219 0.0
H273 H 0.17802 0.67147 0.07001 0.0
H274 H 0.11904 0.64033 0.07293 0.0
H275 H 0.14709 0.69645 0.05543 0.0
C276 C 0.46271 0.20684 0.05522 0.0
C277 C 0.47139 0.18374 0.02966 0.0
C278 C 0.47351 0.25238 0.05169 0.0
C279 C 0.49379 0.27538 0.02206 0.0
C280 C 0.49984 0.25121 0.99523 0.0
C281 C 0.48849 0.20567 -0.00066 0.0
C282 C 0.46579 0.27683 0.08059 0.0
C283 C 0.52139 0.27409 0.96317 0.0
C284 C 0.50998 0.3943 0.01299 0.0
C285 C 0.55177 0.42161 0.02861 0.0
C286 C 0.49089 0.34649 0.0096 0.0
C287 C 0.51454 0.32596 0.02165 0.0
C288 C 0.55767 0.35376 0.03566 0.0
C289 C 0.57551 0.40108 0.0393 0.0
C290 C 0.44523 0.3179 0.99378 0.0
C291 C 0.58478 0.33344 0.04749 0.0
H292 H 0.449 0.18999 0.07852 0.0
H293 H 0.49492 0.18797 0.97922 0.0
H294 H 0.49787 0.30305 0.09244 0.0
H295 H 0.44908 0.29483 0.0712 0.0
H296 H 0.44556 0.25304 0.10025 0.0
H297 H 0.51278 0.24865 0.94199 0.0
H298 H 0.5119 0.29919 0.95561 0.0
H299 H 0.55765 0.29281 0.96739 0.0
H300 H 0.49192 0.41017 0.00404 0.0
H301 H 0.60844 0.42211 0.05033 0.0
H302 H 0.42234 0.29569 0.01298 0.0
H303 H 0.44502 0.29507 0.97325 0.0
H304 H 0.43261 0.33925 0.9833 0.0
H305 H 0.56919 0.31173 0.06934 0.0
H306 H 0.61902 0.36009 0.05518 0.0
H307 H 0.58606 0.31122 0.02717 0.0
C308 C 0.64536 0.13848 0.98043 0.0
C309 C 0.61607 0.14767 0.99714 0.0
C310 C 0.6911 0.16846 0.98451 0.0
C311 C 0.70749 0.20823 0.00585 0.0
C312 C 0.67767 0.21743 0.02269 0.0
C313 C 0.63228 0.187 0.01806 0.0
C314 C 0.72186 0.15773 0.96597 0.0
C315 C 0.69367 0.25991 0.04505 0.0
C316 C 0.82383 0.27153 0.04438 0.0
C317 C 0.8448 0.30849 0.02316 0.0
C318 C 0.7797 0.23717 0.03792 0.0
C319 C 0.7557 0.24089 0.01034 0.0
C320 C 0.77707 0.27786 0.98853 0.0
C321 C 0.82155 0.31074 0.99488 0.0
C322 C 0.75833 0.1977 0.06125 0.0
C323 C 0.7526 0.28374 0.95926 0.0
H324 H 0.63247 0.10821 0.96392 0.0
H325 H 0.60928 0.19414 0.03056 0.0
H326 H 0.74402 0.18683 0.95038 0.0
H327 H 0.74295 0.1528 0.98443 0.0
H328 H 0.70387 0.12647 0.94931 0.0
H329 H 0.6662 0.26156 0.05678 0.0
H330 H 0.71623 0.26106 0.06542 0.0
H331 H 0.71256 0.29083 0.03007 0.0
H332 H 0.84184 0.26968 0.06614 0.0
H333 H 0.83757 0.33954 0.97854 0.0
H334 H 0.7414 0.16476 0.04644 0.0
H335 H 0.73302 0.20008 0.07581 0.0
H336 H 0.78252 0.19727 0.07932 0.0
H337 H 0.74005 0.25405 0.94116 0.0
H338 H 0.77365 0.31547 0.94558 0.0
H339 H 0.7237 0.28493 0.96838 0.0
C340 C 0.85664 0.47799 0.02683 0.0
C341 C 0.8801 0.48575 0.99731 0.0
C342 C 0.82439 0.48997 0.02918 0.0
C343 C 0.8169 0.5112 0.00169 0.0
C344 C 0.8426 0.52164 0.97273 0.0
C345 C 0.87349 0.50784 0.97061 0.0
C346 C 0.79658 0.47735 0.05998 0.0
C347 C 0.83609 0.54557 0.94348 0.0
C348 C 0.70323 0.48975 0.98359 0.0
C349 C 0.70716 0.5304 0.99622 0.0
C350 C 0.73859 0.48259 0.98625 0.0
C351 C 0.77884 0.51748 0.00123 0.0
C352 C 0.78302 0.55863 0.01415 0.0
C353 C 0.74668 0.56443 0.01182 0.0
C354 C 0.73295 0.43789 0.97275 0.0
C355 C 0.82568 0.59642 0.03021 0.0
H356 H 0.86183 0.46031 0.04722 0.0
H357 H 0.89217 0.51383 0.94798 0.0
H358 H 0.79629 0.50762 0.07065 0.0
H359 H 0.76204 0.45119 0.05273 0.0
H360 H 0.80852 0.46346 0.07995 0.0
H361 H 0.8613 0.55446 0.92416 0.0
H362 H 0.8031 0.5232 0.93124 0.0
H363 H 0.8375 0.57738 0.95267 0.0
H364 H 0.67231 0.46323 0.972 0.0
H365 H 0.7494 0.59583 0.02166 0.0
H366 H 0.74191 0.42145 0.99274 0.0
H367 H 0.7553 0.44437 0.95164 0.0
H368 H 0.69868 0.41351 0.96348 0.0
H369 H 0.83206 0.58525 0.05466 0.0
H370 H 0.82496 0.62837 0.03495 0.0
H371 H 0.85366 0.60412 0.01394 0.0
C372 C 0.89137 0.8508 0.35624 0.0
C373 C 0.85525 0.80787 0.34649 0.0
C374 C 0.93461 0.86108 0.35106 0.0
C375 C 0.94199 0.8271 0.33675 0.0
C376 C 0.90564 0.78292 0.32844 0.0
C377 C 0.8626 0.77405 0.33288 0.0
C378 C 0.97218 0.90906 0.35931 0.0
C379 C 0.91224 0.74536 0.31427 0.0
C380 C 0.0464 0.87146 0.28778 0.0
C381 C 0.07591 0.87121 0.31184 0.0
C382 C 0.0025 0.85597 0.29533 0.0
C383 C 0.98736 0.83924 0.32767 0.0
C384 C 0.01636 0.83682 0.35161 0.0
C385 C 0.06038 0.85297 0.34345 0.0
C386 C 0.97283 0.85939 0.26908 0.0
C387 C 0.00139 0.81884 0.38625 0.0
H388 H 0.88579 0.87715 0.36656 0.0
H389 H 0.83469 0.74069 0.3257 0.0
H390 H -0.00208 0.90826 0.37522 0.0
H391 H 0.98762 0.9258 0.33561 0.0
H392 H 0.9612 0.93041 0.37265 0.0
H393 H 0.88067 0.71254 0.31002 0.0
H394 H 0.92908 0.75553 0.28996 0.0
H395 H 0.93377 0.73981 0.33184 0.0
H396 H 0.05795 0.88528 0.26324 0.0
H397 H 0.08294 0.8527 0.36223 0.0
H398 H 0.96208 0.88296 0.27863 0.0
H399 H 0.94281 0.82544 0.26411 0.0
H400 H 0.98933 0.87209 0.24485 0.0
H401 H 0.99485 0.84285 0.40084 0.0
H402 H 0.02636 0.81467 0.40061 0.0
H403 H 0.97017 0.78538 0.38424 0.0
C404 C 0.15816 0.22939 0.34135 0.0
C405 C 0.12301 0.21525 0.31787 0.0
C406 C 0.17543 0.20104 0.34816 0.0
C407 C 0.15642 0.15747 0.33153 0.0
C408 C 0.12107 0.14328 0.30775 0.0
C409 C 0.10519 0.17255 0.30095 0.0
C410 C 0.21384 0.21757 0.37305 0.0
C411 C 0.0991 0.09657 0.2901 0.0
C412 C 0.21004 0.08676 0.31943 0.0
C413 C 0.18766 0.05232 0.34249 0.0
C414 C 0.20294 0.12361 0.31749 0.0
C415 C 0.17239 0.1257 0.33888 0.0
C416 C 0.15194 0.09268 0.36375 0.0
C417 C 0.16006 0.05646 0.36539 0.0
C418 C 0.22588 0.15856 0.291 0.0
C419 C 0.11942 0.09402 0.3872 0.0
H420 H 0.17202 0.26247 0.35441 0.0
H421 H 0.07763 0.16116 0.28311 0.0
H422 H 0.20559 0.1927 0.39326 0.0
H423 H 0.24247 0.22009 0.36006 0.0
H424 H 0.22369 0.25155 0.38486 0.0
H425 H 0.07194 0.09088 0.27231 0.0
H426 H 0.12355 0.09234 0.27582 0.0
H427 H 0.08547 0.06959 0.30904 0.0
H428 H 0.23209 0.0842 0.30207 0.0
H429 H 0.14322 0.03032 0.38367 0.0
H430 H 0.23917 0.19369 0.30187 0.0
H431 H 0.20187 0.15322 0.27037 0.0
H432 H 0.25323 0.15602 0.27993 0.0
H433 H 0.13505 0.12731 0.40151 0.0
H434 H 0.10688 0.06613 0.40546 0.0
H435 H 0.09102 0.09092 0.37234 0.0
C436 C 0.94897 0.12913 0.31544 0.0
C437 C 0.95013 0.15546 0.34352 0.0
C438 C 0.91725 0.08254 0.31206 0.0
C439 C 0.88508 0.06237 0.3368 0.0
C440 C 0.88576 0.08907 0.36499 0.0
C441 C 0.91889 0.13528 0.36833 0.0
C442 C 0.91857 0.05483 0.28226 0.0
C443 C 0.8517 0.06882 0.39167 0.0
C444 C 0.78186 0.95267 0.30723 0.0
C445 C 0.78874 0.91986 0.32209 0.0
C446 C 0.81213 0.99946 0.3131 0.0
C447 C 0.85088 0.01326 0.33306 0.0
C448 C 0.8579 0.98 0.34806 0.0
C449 C 0.82626 0.93358 0.34279 0.0
C450 C 0.80306 0.0341 0.29755 0.0
C451 C 0.89967 0.99323 0.36826 0.0
H452 H 0.97374 0.14468 0.29658 0.0
H453 H 0.92007 0.15579 0.39012 0.0
H454 H 0.91919 0.0244 0.29108 0.0
H455 H 0.88847 0.04225 0.26596 0.0
H456 H 0.94772 0.075 0.26674 0.0
H457 H 0.85394 0.09533 0.40985 0.0
H458 H 0.81812 0.05021 0.37976 0.0
H459 H 0.85624 0.04371 0.4059 0.0
H460 H 0.7528 0.94168 0.2911 0.0
H461 H 0.83181 0.9079 0.35364 0.0
H462 H 0.82777 0.05316 0.2784 0.0
H463 H 0.80605 0.05944 0.31717 0.0
H464 H 0.76974 0.01786 0.2852 0.0
H465 H 0.92813 0.00921 0.35154 0.0
H466 H 0.89876 0.96334 0.37989 0.0
H467 H 0.90553 0.01894 0.38851 0.0
C468 C 0.15398 0.69291 0.32078 0.0
C469 C 0.19928 0.72416 0.32304 0.0
C470 C 0.13751 0.64625 0.32599 0.0
C471 C 0.16706 0.63139 0.33506 0.0
C472 C 0.21283 0.66324 0.33798 0.0
C473 C 0.22841 0.70914 0.33136 0.0
C474 C 0.08869 0.61294 0.3217 0.0
C475 C 0.2454 0.6489 0.34811 0.0
C476 C 0.13268 0.52201 0.38055 0.0
C477 C 0.13415 0.49425 0.35461 0.0
C478 C 0.14068 0.566 0.37413 0.0
C479 C 0.15078 0.58251 0.34108 0.0
C480 C 0.15025 0.55378 0.31451 0.0
C481 C 0.14176 0.50993 0.32159 0.0
C482 C 0.14101 0.59578 0.40307 0.0
C483 C 0.16103 0.57022 0.27896 0.0
H484 H 0.13165 0.70483 0.31428 0.0
H485 H 0.26346 0.73365 0.3335 0.0
H486 H 0.08233 0.5841 0.30421 0.0
H487 H 0.07515 0.59824 0.34635 0.0
H488 H 0.07068 0.62936 0.31175 0.0
H489 H 0.27959 0.67844 0.35103 0.0
H490 H 0.23622 0.63111 0.37233 0.0
H491 H 0.24475 0.62443 0.32879 0.0
H492 H 0.12669 0.50994 0.40607 0.0
H493 H 0.14363 0.48899 0.30147 0.0
H494 H 0.121 0.61129 0.39623 0.0
H495 H 0.17519 0.62422 0.40858 0.0
H496 H 0.12812 0.57638 0.42638 0.0
H497 H 0.13872 0.58208 0.26995 0.0
H498 H 0.15813 0.54317 0.26102 0.0
H499 H 0.19514 0.59981 0.27854 0.0
C500 C 0.31102 0.48467 0.30719 0.0
C501 C 0.28203 0.47455 0.33357 0.0
C502 C 0.35588 0.51745 0.31181 0.0
C503 C 0.3718 0.5414 0.34337 0.0
C504 C 0.34238 0.53204 0.36986 0.0
C505 C 0.29789 0.49813 0.36481 0.0
C506 C 0.38624 0.52602 0.28304 0.0
C507 C 0.35776 0.55847 0.40328 0.0
C508 C 0.49419 0.59879 0.3659 0.0
C509 C 0.50907 0.64404 0.35737 0.0
C510 C 0.44946 0.56498 0.3616 0.0
C511 C 0.4191 0.57681 0.34852 0.0
C512 C 0.43398 0.62247 0.34 0.0
C513 C 0.47868 0.65537 0.34449 0.0
C514 C 0.43471 0.51647 0.37065 0.0
C515 C 0.40286 0.63654 0.32565 0.0
H516 H 0.29866 0.46645 0.283 0.0
H517 H 0.27522 0.49097 0.38498 0.0
H518 H 0.40647 0.56314 0.27857 0.0
H519 H 0.4092 0.51396 0.28968 0.0
H520 H 0.36796 0.50803 0.25917 0.0
H521 H 0.33067 0.54728 0.4212 0.0
H522 H 0.38419 0.55427 0.415 0.0
H523 H 0.37192 0.59552 0.39922 0.0
H524 H 0.5175 0.58974 0.37568 0.0
H525 H 0.49001 0.6899 0.33698 0.0
H526 H 0.41887 0.49313 0.3482 0.0
H527 H 0.40976 0.50533 0.39034 0.0
H528 H 0.46245 0.51269 0.38011 0.0
H529 H 0.38662 0.61653 0.30191 0.0
H530 H 0.41987 0.67351 0.3202 0.0
H531 H 0.37657 0.62905 0.34365 0.0
C532 C 0.39469 0.87627 0.39057 0.0
C533 C 0.3655 0.86977 0.36369 0.0
C534 C 0.43132 0.8712 0.3855 0.0
C535 C 0.43851 0.85876 0.35291 0.0
C536 C 0.40966 0.85325 0.32558 0.0
C537 C 0.37376 0.85902 0.33127 0.0
C538 C 0.46152 0.87765 0.41521 0.0
C539 C 0.41515 0.83891 0.29054 0.0
C540 C 0.54821 0.86865 0.3325 0.0
C541 C 0.53772 0.82322 0.33518 0.0
C542 C 0.51629 0.881 0.33835 0.0
C543 C 0.47355 0.84729 0.3479 0.0
C544 C 0.46342 0.80163 0.35135 0.0
C545 C 0.49549 0.79021 0.34468 0.0
C546 C 0.5277 0.92965 0.33331 0.0
C547 C 0.41843 0.76455 0.36154 0.0
H548 H 0.38864 0.88476 0.41563 0.0
H549 H 0.35131 0.85361 0.31028 0.0
H550 H 0.45901 0.84455 0.42068 0.0
H551 H 0.49619 0.90198 0.40915 0.0
H552 H 0.45346 0.89066 0.43829 0.0
H553 H 0.39547 0.84461 0.27115 0.0
H554 H 0.45016 0.85775 0.28364 0.0
H555 H 0.404 0.8019 0.28986 0.0
H556 H 0.58075 0.89405 0.3248 0.0
H557 H 0.48749 0.75518 0.34704 0.0
H558 H 0.52119 0.9438 0.35649 0.0
H559 H 0.50646 0.93037 0.31263 0.0
H560 H 0.56266 0.95213 0.32691 0.0
H561 H 0.40995 0.77453 0.3858 0.0
H562 H 0.41649 0.73113 0.36442 0.0
H563 H 0.39318 0.76003 0.3423 0.0
C564 C 0.71082 0.20643 0.63841 0.0
C565 C 0.73265 0.20688 0.66833 0.0
C566 C 0.66555 0.19014 0.63786 0.0
C567 C 0.64211 0.1729 0.6677 0.0
C568 C 0.66394 0.17125 0.69744 0.0
C569 C 0.7093 0.18915 0.69754 0.0
C570 C 0.64337 0.19357 0.60605 0.0
C571 C 0.63961 0.15178 0.72939 0.0
C572 C 0.54123 0.17957 0.68519 0.0
C573 C 0.50769 0.13469 0.67715 0.0
C574 C 0.58519 0.19291 0.68078 0.0
C575 C 0.5956 0.16008 0.66899 0.0
C576 C 0.56178 0.11464 0.66076 0.0
C577 C 0.51789 0.10261 0.66443 0.0
C578 C 0.62045 0.24199 0.68904 0.0
C579 C 0.57195 0.07875 0.64854 0.0
H580 H 0.72949 0.22077 0.61601 0.0
H581 H 0.72665 0.18947 0.72052 0.0
H582 H 0.61349 0.16021 0.59922 0.0
H583 H 0.63265 0.21873 0.61044 0.0
H584 H 0.66554 0.20451 0.58438 0.0
H585 H 0.66098 0.14999 0.74948 0.0
H586 H 0.62661 0.17328 0.73913 0.0
H587 H 0.61105 0.11687 0.72403 0.0
H588 H 0.53304 0.20454 0.69434 0.0
H589 H 0.49161 0.06798 0.65804 0.0
H590 H 0.64156 0.2568 0.66707 0.0
H591 H 0.64193 0.24339 0.71038 0.0
H592 H 0.60646 0.2637 0.69603 0.0
H593 H 0.58692 0.08767 0.62348 0.0
H594 H 0.54206 0.04412 0.64626 0.0
H595 H 0.59621 0.07758 0.66606 0.0
C596 C 0.88978 0.40836 0.65644 0.0
C597 C 0.86063 0.3712 0.63501 0.0
C598 C 0.88506 0.44691 0.66072 0.0
C599 C 0.84958 0.44758 0.64397 0.0
C600 C 0.81997 0.40992 0.62256 0.0
C601 C 0.82623 0.37265 0.618 0.0
C602 C 0.91766 0.48649 0.68346 0.0
C603 C 0.78118 0.40865 0.60468 0.0
C604 C 0.80285 0.52143 0.67221 0.0
C605 C 0.81613 0.5528 0.64632 0.0
C606 C 0.81566 0.48845 0.67307 0.0
C607 C 0.84315 0.48756 0.64787 0.0
C608 C 0.85943 0.52156 0.62336 0.0
C609 C 0.84526 0.55335 0.62261 0.0
C610 C 0.79719 0.45257 0.69944 0.0
C611 C 0.88987 0.52271 0.59672 0.0
H612 H 0.9163 0.40734 0.66982 0.0
H613 H 0.80316 0.34385 0.60178 0.0
H614 H 0.92819 0.51956 0.6715 0.0
H615 H 0.90188 0.48658 0.70734 0.0
H616 H 0.94729 0.48429 0.68975 0.0
H617 H 0.75992 0.37579 0.59037 0.0
H618 H 0.76083 0.41377 0.62325 0.0
H619 H 0.79299 0.43689 0.58683 0.0
H620 H 0.78009 0.52065 0.6905 0.0
H621 H 0.85588 0.57779 0.60272 0.0
H622 H 0.8241 0.45065 0.71267 0.0
H623 H 0.7749 0.41852 0.68705 0.0
H624 H 0.77847 0.45958 0.71844 0.0
H625 H 0.91798 0.52164 0.60868 0.0
H626 H 0.90287 0.55376 0.5815 0.0
H627 H 0.87205 0.49212 0.57945 0.0
C628 C 0.58845 0.46517 0.65334 0.0
C629 C 0.62722 0.47332 0.67011 0.0
C630 C 0.5516 0.4206 0.64975 0.0
C631 C 0.55408 0.3833 0.66251 0.0
C632 C 0.59309 0.39162 0.67981 0.0
C633 C 0.62888 0.43653 0.68377 0.0
C634 C 0.51019 0.41337 0.63211 0.0
C635 C 0.59782 0.35287 0.69287 0.0
C636 C 0.45431 0.2648 0.6745 0.0
C637 C 0.45525 0.24058 0.64568 0.0
C638 C 0.48501 0.31188 0.67966 0.0
C639 C 0.51756 0.33517 0.6556 0.0
C640 C 0.51752 0.31127 0.6259 0.0
C641 C 0.48632 0.2645 0.62124 0.0
C642 C 0.48364 0.33635 0.71143 0.0
C643 C 0.55163 0.33469 0.59959 0.0
H644 H 0.58689 0.49366 0.64314 0.0
H645 H 0.6589 0.44262 0.69656 0.0
H646 H 0.50086 0.38874 0.61034 0.0
H647 H 0.48266 0.39835 0.64971 0.0
H648 H 0.51391 0.44576 0.62292 0.0
H649 H 0.6292 0.3653 0.70757 0.0
H650 H 0.5701 0.33109 0.70911 0.0
H651 H 0.59674 0.33091 0.67129 0.0
H652 H 0.43045 0.24673 0.69351 0.0
H653 H 0.4873 0.24632 0.59878 0.0
H654 H 0.48293 0.36758 0.705 0.0
H655 H 0.51385 0.3475 0.72731 0.0
H656 H 0.45457 0.31435 0.72653 0.0
H657 H 0.55028 0.36443 0.59014 0.0
H658 H 0.54695 0.31138 0.57777 0.0
H659 H 0.58506 0.34794 0.61102 0.0
C660 C 0.79756 0.86562 0.68133 0.0
C661 C 0.82519 0.86162 0.70524 0.0
C662 C 0.80061 0.90797 0.67614 0.0
C663 C 0.83262 0.94745 0.69486 0.0
C664 C 0.85996 0.94331 0.71944 0.0
C665 C 0.85562 0.90049 0.72452 0.0
C666 C 0.77047 0.91042 0.64986 0.0
C667 C 0.89476 0.98445 0.73985 0.0
C668 C 0.88094 0.06883 0.66489 0.0
C669 C 0.86367 0.0869 0.688 0.0
C670 C 0.86914 0.02253 0.6654 0.0
C671 C 0.83854 0.99352 0.68898 0.0
C672 C 0.81808 0.01078 0.71014 0.0
C673 C 0.83158 0.05748 0.70991 0.0
C674 C 0.89173 0.0055 0.64241 0.0
C675 C 0.78356 0.98037 0.73427 0.0
H676 H 0.77394 0.83577 0.66623 0.0
H677 H 0.87724 0.89786 0.74293 0.0
H678 H 0.75944 0.93422 0.65824 0.0
H679 H 0.78846 0.92335 0.62626 0.0
H680 H 0.74102 0.87624 0.64391 0.0
H681 H 0.91392 0.97562 0.75746 0.0
H682 H 0.91788 0.01069 0.7227 0.0
H683 H 0.8792 1.00009 0.75476 0.0
H684 H 0.90606 0.09159 0.6481 0.0
H685 H 0.81799 0.07136 0.72762 0.0
H686 H 0.86695 0.97433 0.62786 0.0
H687 H 0.91223 0.99592 0.65775 0.0
H688 H 0.91312 0.03161 0.62441 0.0
H689 H 0.75754 0.949 0.7206 0.0
H690 H 0.76803 0.9979 0.74682 0.0
H691 H 0.79862 0.96942 0.75398 0.0
C692 C 0.98076 0.81143 0.66216 0.0
C693 C 0.95411 0.82945 0.67047 0.0
C694 C 0.027 0.83915 0.66436 0.0
C695 C 0.04673 0.88529 0.67638 0.0
C696 C 0.01967 0.90323 0.68525 0.0
C697 C 0.97378 0.87529 0.6817 0.0
C698 C 0.05472 0.81925 0.65362 0.0
C699 C 0.03918 0.9521 0.69834 0.0
C700 C 0.16197 0.95274 0.71656 0.0
C701 C 0.1855 0.98221 0.69089 0.0
C702 C 0.11744 0.91879 0.71134 0.0
C703 C 0.09557 0.9152 0.68007 0.0
C704 C 0.11971 0.94373 0.6536 0.0
C705 C 0.16455 0.97627 0.65914 0.0
C706 C 0.0932 0.88833 0.73992 0.0
C707 C 0.0978 0.94137 0.61991 0.0
H708 H 0.96545 0.77612 0.65305 0.0
H709 H 0.95307 0.88916 0.68814 0.0
H710 H 0.07848 0.84105 0.63473 0.0
H711 H 0.07415 0.81861 0.67569 0.0
H712 H 0.03446 0.78394 0.64257 0.0
H713 H 0.01354 0.9603 0.70513 0.0
H714 H 0.06075 0.95847 0.72099 0.0
H715 H 0.05991 0.97596 0.67893 0.0
H716 H 0.17813 0.95693 0.74101 0.0
H717 H 0.18254 0.99881 0.63908 0.0
H718 H 0.07473 0.85197 0.73091 0.0
H719 H 0.06887 0.89698 0.74938 0.0
H720 H 0.11579 0.89209 0.76126 0.0
H721 H 0.08465 0.90698 0.60768 0.0
H722 H 0.12078 0.96745 0.60255 0.0
H723 H 0.06955 0.94654 0.6235 0.0
C724 C 0.1699 0.12223 0.68372 0.0
C725 C 0.21108 0.14884 0.66991 0.0
C726 C 0.14054 0.13819 0.68532 0.0
C727 C 0.15246 0.18091 0.6716 0.0
C728 C 0.19489 0.2087 0.65887 0.0
C729 C 0.22416 0.19241 0.65858 0.0
C730 C 0.09598 0.1083 0.69999 0.0
C731 C 0.20832 0.25426 0.64389 0.0
C732 C 0.05465 0.18388 0.63562 0.0
C733 C 0.04693 0.20713 0.66164 0.0
C734 C 0.09024 0.17687 0.638 0.0
C735 C 0.11862 0.19361 0.66708 0.0
C736 C 0.11218 0.21892 0.69273 0.0
C737 C 0.07614 0.22523 0.68976 0.0
C738 C 0.09641 0.14994 0.61002 0.0
C739 C 0.14176 0.2373 0.7241 0.0
H740 H 0.16039 0.08854 0.69258 0.0
H741 H 0.25625 0.21254 0.64786 0.0
H742 H 0.08866 0.12849 0.7183 0.0
H743 H 0.07012 0.09517 0.67954 0.0
H744 H 0.09387 0.07861 0.71293 0.0
H745 H 0.24318 0.2725 0.63642 0.0
H746 H 0.18705 0.24898 0.62125 0.0
H747 H 0.20362 0.27636 0.66226 0.0
H748 H 0.03226 0.17009 0.61375 0.0
H749 H 0.07045 0.2436 0.70981 0.0
H750 H 0.09017 0.11675 0.61952 0.0
H751 H 0.13081 0.16875 0.60161 0.0
H752 H 0.07386 0.14292 0.58786 0.0
H753 H 0.13227 0.2091 0.74172 0.0
H754 H 0.13884 0.26478 0.73728 0.0
H755 H 0.1767 0.25095 0.7181 0.0
C756 C 0.10832 0.3518 0.21333 0.0
C757 C 0.10767 0.36901 0.24546 0.0
C758 C 0.09734 0.36798 0.18469 0.0
C759 C 0.08493 0.40143 0.18875 0.0
C760 C 0.08702 0.42082 0.22111 0.0
C761 C 0.0984 0.40426 0.24911 0.0
C762 C 0.09591 0.34696 0.1504 0.0
C763 C 0.0732 0.45578 0.22659 0.0
C764 C 0.0747 0.45665 0.11007 0.0
C765 C 0.03076 0.42648 0.10008 0.0
C766 C 0.09283 0.44963 0.1394 0.0
C767 C 0.06561 0.41265 0.15971 0.0
C768 C 0.02007 0.3847 0.15125 0.0
C769 C 0.00332 0.39143 0.121 0.0
C770 C 0.14157 0.47969 0.14732 0.0
C771 C 0.98958 0.34585 0.17291 0.0
H772 H 0.11439 0.32367 0.21083 0.0
H773 H 0.09636 0.41611 0.27421 0.0
H774 H 0.06124 0.32569 0.14098 0.0
H775 H 0.11351 0.37411 0.13204 0.0
H776 H 0.11081 0.32502 0.15113 0.0
H777 H 0.08026 0.47013 0.25292 0.0
H778 H 0.09016 0.48427 0.20916 0.0
H779 H 0.03732 0.43953 0.22103 0.0
H780 H 0.09554 0.48419 0.09398 0.0
H781 H 0.96939 0.36796 0.11289 0.0
H782 H 0.15754 0.45886 0.14542 0.0
H783 H 0.14749 0.49405 0.17356 0.0
H784 H 0.15769 0.50833 0.12981 0.0
H785 H -0.00408 0.31723 0.16962 0.0
H786 H 0.95443 0.33285 0.16603 0.0
H787 H -0.0045 0.35678 0.20001 0.0
C788 C 0.64609 0.69721 0.22781 0.0
C789 C 0.63388 0.72665 0.24273 0.0
C790 C 0.62678 0.67387 0.19707 0.0
C791 C 0.59522 0.68103 0.18021 0.0
C792 C 0.582 0.71005 0.19537 0.0
C793 C 0.60112 0.73212 0.2268 0.0
C794 C 0.64126 0.64253 0.18218 0.0
C795 C 0.54826 0.71826 0.17823 0.0
C796 C 0.60357 0.66518 0.08727 0.0
C797 C 0.57132 0.61916 0.08153 0.0
C798 C 0.60854 0.68728 0.11858 0.0
C799 C 0.58102 0.66243 0.14502 0.0
C800 C 0.54566 0.6171 0.13845 0.0
C801 C 0.54102 0.59589 0.10649 0.0
C802 C 0.646 0.73597 0.1242 0.0
C803 C 0.51526 0.58974 0.16589 0.0
H804 H 0.67056 0.69192 0.24041 0.0
H805 H 0.59114 0.75436 0.23856 0.0
H806 H 0.61222 0.60844 0.17546 0.0
H807 H 0.65897 0.65687 0.15866 0.0
H808 H 0.66336 0.63783 0.1998 0.0
H809 H 0.54438 0.74478 0.19195 0.0
H810 H 0.55756 0.72903 0.152 0.0
H811 H 0.51595 0.68596 0.1767 0.0
H812 H 0.62637 0.6834 0.06764 0.0
H813 H 0.5158 0.56031 0.10189 0.0
H814 H 0.67242 0.7363 0.14004 0.0
H815 H 0.63477 0.75683 0.13783 0.0
H816 H 0.66025 0.75236 0.10009 0.0
H817 H 0.53247 0.57817 0.18313 0.0
H818 H 0.48489 0.55908 0.15541 0.0
H819 H 0.50592 0.61101 0.18116 0.0
C820 C 0.34375 0.94567 0.08126 0.0
C821 C 0.38996 0.97092 0.08282 0.0
C822 C 0.31962 0.92981 0.11057 0.0
C823 C 0.34215 0.93879 0.14225 0.0
C824 C 0.38871 0.961 0.14371 0.0
C825 C 0.41212 0.97715 0.11398 0.0
C826 C 0.27006 0.90622 0.1078 0.0
C827 C 0.41385 0.96967 0.1769 0.0
C828 C 0.28701 0.95886 0.21635 0.0
C829 C 0.27037 0.91792 0.23344 0.0
C830 C 0.31086 0.96603 0.18703 0.0
C831 C 0.31751 0.93103 0.17386 0.0
C832 C 0.30012 0.88918 0.19058 0.0
C833 C 0.27704 0.88326 0.22038 0.0
C834 C 0.32961 0.01155 0.17043 0.0
C835 C 0.30566 0.85066 0.17696 0.0
H836 H 0.32622 0.94012 0.05725 0.0
H837 H 0.44778 0.99574 0.11529 0.0
H838 H 0.25482 0.87499 0.12282 0.0
H839 H 0.25938 0.92946 0.11821 0.0
H840 H 0.25735 0.89656 0.08124 0.0
H841 H 0.44969 0.98463 0.17353 0.0
H842 H 0.40894 0.99348 0.19329 0.0
H843 H 0.40118 0.93727 0.19035 0.0
H844 H 0.28264 0.9861 0.22653 0.0
H845 H 0.26424 0.85152 0.23349 0.0
H846 H 0.31639 0.00633 0.14407 0.0
H847 H 0.3659 0.02803 0.16941 0.0
H848 H 0.32186 0.03537 0.18406 0.0
H849 H 0.28625 0.83665 0.15287 0.0
H850 H 0.29449 0.82239 0.19481 0.0
H851 H 0.34058 0.86335 0.1714 0.0
C852 C 0.43632 0.01913 0.88192 0.0
C853 C 0.42618 0.03018 0.91332 0.0
C854 C 0.42917 0.03673 0.8523 0.0
C855 C 0.40932 0.06393 0.85423 0.0
C856 C 0.40078 0.0766 0.88618 0.0
C857 C 0.41014 0.06021 0.91545 0.0
C858 C 0.44085 0.02441 0.81885 0.0
C859 C 0.37818 0.10401 0.88939 0.0
C860 C 0.40151 0.12267 0.7759 0.0
C861 C 0.36181 0.08815 0.76086 0.0
C862 C 0.41757 0.1156 0.80651 0.0
C863 C 0.39228 0.07379 0.82287 0.0
C864 C 0.35078 0.04011 0.8086 0.0
C865 C 0.33658 0.04731 0.77734 0.0
C866 C 0.4626 0.15161 0.82022 0.0
C867 C 0.32203 0.99561 0.82562 0.0
H868 H 0.44885 0.99593 0.88049 0.0
H869 H 0.4019 0.06819 0.93988 0.0
H870 H 0.41036 1.00018 0.80411 0.0
H871 H 0.45913 0.0554 0.80381 0.0
H872 H 0.46117 0.00825 0.82204 0.0
H873 H 0.37903 0.1159 0.91588 0.0
H874 H 0.39355 0.13418 0.87331 0.0
H875 H 0.34328 0.08238 0.88057 0.0
H876 H 0.42118 0.15403 0.76275 0.0
H877 H 0.30604 0.02058 0.76538 0.0
H878 H 0.48526 0.13808 0.81874 0.0
H879 H 0.46135 0.16006 0.84719 0.0
H880 H 0.47658 0.18353 0.80593 0.0
H881 H 0.33679 0.97366 0.82362 0.0
H882 H 0.28827 0.97645 0.81396 0.0
H883 H 0.31967 0.00198 0.85285 0.0
C884 C 0.94272 0.34293 0.91151 0.0
C885 C 0.95602 0.389 0.91781 0.0
C886 C 0.92303 0.32088 0.88061 0.0
C887 C 0.91649 0.34558 0.85522 0.0
C888 C 0.9254 0.39058 0.86262 0.0
C889 C 0.94524 0.41199 0.89407 0.0
C890 C 0.91408 0.27286 0.87399 0.0
C891 C 0.91722 0.41715 0.8364 0.0
C892 C 0.94644 0.31547 0.77233 0.0
C893 C 0.90534 0.28266 0.75811 0.0
C894 C 0.95001 0.33861 0.80275 0.0
C895 C 0.91143 0.32841 0.8198 0.0
C896 C 0.86955 0.2968 0.80499 0.0
C897 C 0.86695 0.27424 0.77407 0.0
C898 C -0.00456 0.37236 0.81742 0.0
C899 C 0.82778 0.28545 0.8224 0.0
H900 H 0.94955 0.32444 0.93029 0.0
H901 H 0.95446 0.44728 0.89928 0.0
H902 H 0.88204 0.25138 0.86024 0.0
H903 H 0.94009 0.27418 0.85798 0.0
H904 H 0.91393 0.25601 0.89772 0.0
H905 H 0.92096 0.44942 0.84723 0.0
H906 H 0.94082 0.42574 0.81589 0.0
H907 H 0.88364 0.39604 0.82482 0.0
H908 H 0.97624 0.32309 0.7597 0.0
H909 H 0.83506 0.24936 0.76288 0.0
H910 H 0.00152 0.35917 0.84102 0.0
H911 H -0.002 0.40556 0.82389 0.0
H912 H 0.02181 0.37862 0.79976 0.0
H913 H 0.82374 0.26402 0.84427 0.0
H914 H 0.79828 0.26644 0.80523 0.0
H915 H 0.82939 0.31707 0.83229 0.0
C916 C 0.6791 0.61593 0.75031 0.0
C917 C 0.72497 0.64547 0.75089 0.0
C918 C 0.65575 0.60424 0.78011 0.0
C919 C 0.67874 0.62213 0.81143 0.0
C920 C 0.72521 0.65051 0.81244 0.0
C921 C 0.74782 0.66201 0.7821 0.0
C922 C 0.60631 0.57345 0.77798 0.0
C923 C 0.75097 0.66887 0.84554 0.0
C924 C 0.61506 0.62931 0.88531 0.0
C925 C 0.60848 0.59184 0.90371 0.0
C926 C 0.63807 0.63967 0.85517 0.0
C927 C 0.65395 0.61133 0.84307 0.0
C928 C 0.64579 0.57244 0.86102 0.0
C929 C 0.62335 0.56334 0.89119 0.0
C930 C 0.64677 0.68179 0.83687 0.0
C931 C 0.66116 0.5407 0.84865 0.0
H932 H 0.66105 0.60241 0.72641 0.0
H933 H 0.78327 0.68422 0.78283 0.0
H934 H 0.59596 0.54383 0.79432 0.0
H935 H 0.59059 0.59254 0.78733 0.0
H936 H 0.59366 0.56039 0.75179 0.0
H937 H 0.78681 0.69138 0.84198 0.0
H938 H 0.73892 0.6885 0.85986 0.0
H939 H 0.74589 0.64005 0.86123 0.0
H940 H 0.60422 0.65173 0.89533 0.0
H941 H 0.6181 0.53423 0.90548 0.0
H942 H 0.63362 0.67233 0.81045 0.0
H943 H 0.68278 0.70576 0.83587 0.0
H944 H 0.63172 0.69991 0.84927 0.0
H945 H 0.6437 0.52354 0.8244 0.0
H946 H 0.65508 0.51398 0.86696 0.0
H947 H 0.69684 0.56032 0.8438 0.0
C948 C 0.68577 0.71056 0.43284 0.0
C949 C 0.69721 0.75432 0.4228 0.0
C950 C 0.70195 0.7043 0.46344 0.0
C951 C 0.73128 0.74295 0.48412 0.0
C952 C 0.7435 0.78747 0.47387 0.0
C953 C 0.72581 0.79263 0.44333 0.0
C954 C 0.68726 0.65619 0.47375 0.0
C955 C 0.77599 0.8295 0.49465 0.0
C956 C 0.72881 0.7128 0.57524 0.0
C957 C 0.76279 0.70319 0.57708 0.0
C958 C 0.72017 0.72897 0.54567 0.0
C959 C 0.7463 0.73567 0.51737 0.0
C960 C 0.78255 0.72868 0.5199 0.0
C961 C 0.79026 0.71213 0.54989 0.0
C962 C 0.68142 0.73622 0.54411 0.0
C963 C 0.81176 0.7365 0.4905 0.0
H964 H 0.66391 0.68108 0.41663 0.0
H965 H 0.73555 0.82655 0.43492 0.0
H966 H 0.7162 0.65203 0.47746 0.0
H967 H 0.67059 0.64962 0.49817 0.0
H968 H 0.66428 0.62992 0.45471 0.0
H969 H 0.77908 0.86129 0.48472 0.0
H970 H 0.76621 0.82656 0.5213 0.0
H971 H 0.80881 0.83262 0.49456 0.0
H972 H 0.70813 0.70632 0.59672 0.0
H973 H 0.81694 0.70516 0.5518 0.0
H974 H 0.65566 0.71042 0.52627 0.0
H975 H 0.69151 0.77049 0.53452 0.0
H976 H 0.66678 0.7332 0.56914 0.0
H977 H 0.79412 0.70811 0.47138 0.0
H978 H 0.84282 0.738 0.49841 0.0
H979 H 0.81993 0.76876 0.47817 0.0
C980 C 0.25183 0.99902 0.4163 0.0
C981 C 0.24617 0.95504 0.41399 0.0
C982 C 0.25693 0.02134 0.44759 0.0
C983 C 0.25833 1.00001 0.47737 0.0
C984 C 0.25049 0.95471 0.47544 0.0
C985 C 0.24402 0.9325 0.44369 0.0
C986 C 0.26384 0.069 0.4485 0.0
C987 C 0.25156 0.93081 0.50677 0.0
C988 C 0.33745 0.07414 0.54832 0.0
C989 C 0.30898 0.07428 0.57219 0.0
C990 C 0.32129 0.05159 0.51684 0.0
C991 C 0.27535 0.02761 0.50949 0.0
C992 C 0.2465 0.02904 0.53316 0.0
C993 C 0.26386 0.053 0.56427 0.0
C994 C 0.35326 0.05152 0.49212 0.0
C995 C 0.19739 0.00397 0.52623 0.0
H996 H 0.25342 0.01674 0.39354 0.0
H997 H 0.23935 0.89841 0.44211 0.0
H998 H 0.24557 0.07345 0.46923 0.0
H999 H 0.2993 0.09428 0.45327 0.0
H1000 H 0.25313 0.07686 0.4243 0.0
H1001 H 0.24123 0.89443 0.50132 0.0
H1002 H 0.28544 0.94858 0.51815 0.0
H1003 H 0.22972 0.93228 0.52585 0.0
H1004 H 0.37229 0.09033 0.55486 0.0
H1005 H 0.24192 0.05252 0.58321 0.0
H1006 H 0.349 0.06374 0.46742 0.0
H1007 H 0.34653 0.01611 0.48785 0.0
H1008 H 0.38805 0.07355 0.50118 0.0
H1009 H 0.18967 0.01954 0.50487 0.0
H1010 H 0.1793 0.00503 0.54851 0.0
H1011 H 0.18508 0.96768 0.51872 0.0
C1012 C 0.97393 0.30943 0.56807 0.0
C1013 C 0.95021 0.26472 0.57908 0.0
C1014 C -0.0028 0.31906 0.53832 0.0
C1015 C -0.00272 0.28309 0.51968 0.0
C1016 C 0.97364 0.23777 0.53105 0.0
C1017 C 0.95012 0.22907 0.56074 0.0
C1018 C 0.02128 0.36762 0.52664 0.0
C1019 C 0.97372 0.19875 0.51216 0.0
C1020 C 0.01338 0.30268 0.42674 0.0
C1021 C 0.05814 0.31725 0.4237 0.0
C1022 C 0.9931 0.28996 0.45761 0.0
C1023 C 0.01822 0.29249 0.48655 0.0
C1024 C 0.06333 0.3067 0.4839 0.0
C1025 C 0.08291 0.31902 0.45234 0.0
C1026 C 0.94473 0.27426 0.45928 0.0
C1027 C 0.0909 0.30942 0.5144 0.0
H1028 H 0.97457 0.33691 0.58301 0.0
H1029 H 0.93279 0.19477 0.5702 0.0
H1030 H 0.0564 0.37907 0.52299 0.0
H1031 H 0.007 0.36925 0.5019 0.0
H1032 H 0.01941 0.39187 0.54482 0.0
H1033 H 0.95114 0.16514 0.52305 0.0
H1034 H 0.96398 0.19747 0.48521 0.0
H1035 H 0.00749 0.20426 0.51301 0.0
H1036 H 0.99373 0.30091 0.40479 0.0
H1037 H 0.11737 0.32989 0.45011 0.0
H1038 H 0.94028 0.29781 0.47634 0.0
H1039 H 0.92658 0.23971 0.46984 0.0
H1040 H 0.92961 0.2729 0.43413 0.0
H1041 H 0.09482 0.337 0.5322 0.0
H1042 H 0.1241 0.31656 0.50755 0.0
H1043 H 0.07423 0.27693 0.52795 0.0
loop_
_geom_bond_atom_site_label_1
_geom_bond_atom_site_label_2
_geom_bond_distance
_geom_bond_site_symmetry_2
_ccdc_geom_bond_type
Zn0 O6 1.969 . S
Zn0 O7 1.965 1_556 S
Zn0 O11 2.024 1_556 S
Zn0 O16 1.969 . S
Zn1 O8 1.969 . S
Zn1 O14 1.969 . S
Zn1 O15 1.965 1_554 S
Zn1 O17 2.024 1_554 S
C2 O3 1.229 . S
C2 O11 1.058 1_556 S
O3 C2 1.229 . S
C4 O5 1.229 . S
C4 O17 1.058 1_554 S
O5 C4 1.229 . S
O6 Zn0 1.969 . S
O6 C9 1.267 1_556 S
O7 Zn0 1.965 1_554 S
O7 C18 1.260 . S
O8 Zn1 1.969 . S
O8 C18 1.258 1_655 S
C9 O6 1.267 1_554 S
C9 O10 1.228 . S
O10 C9 1.228 . S
O11 Zn0 2.024 1_554 S
O11 C2 1.058 1_554 S
C12 O13 1.228 1_554 S
C12 O14 1.267 . S
O13 C12 1.228 1_556 S
O14 Zn1 1.969 . S
O14 C12 1.267 . S
O15 Zn1 1.965 1_556 S
O15 C19 1.260 . S
O16 Zn0 1.969 . S
O16 C19 1.258 1_455 S
O17 Zn1 2.024 1_556 S
O17 C4 1.058 1_556 S
C18 O7 1.260 . S
C18 O8 1.258 1_455 S
C19 O15 1.260 . S
C19 O16 1.258 1_655 S
Zn20 O26 1.969 . S
Zn20 O27 1.965 1_554 S
Zn20 O31 2.024 1_554 S
Zn20 O36 1.969 . S
Zn21 O28 1.969 . S
Zn21 O34 1.969 . S
Zn21 O35 1.965 1_556 S
Zn21 O37 2.024 1_556 S
C22 O23 1.229 . S
C22 O31 1.058 1_554 S
O23 C22 1.229 . S
C24 O25 1.229 . S
C24 O37 1.058 1_556 S
O25 C24 1.229 . S
O26 Zn20 1.969 . S
O26 C29 1.264 1_554 S
O27 Zn20 1.965 1_556 S
O27 C38 1.260 . S
O28 Zn21 1.969 . S
O28 C38 1.258 . S
C29 O26 1.264 1_556 S
C29 O30 1.233 . S
O30 C29 1.233 . S
O31 Zn20 2.024 1_556 S
O31 C22 1.058 1_556 S
C32 O33 1.228 . S
C32 O34 1.267 1_554 S
O33 C32 1.228 . S
O34 Zn21 1.969 . S
O34 C32 1.267 1_556 S
O35 Zn21 1.965 1_554 S
O35 C39 1.260 . S
O36 Zn20 1.969 . S
O36 C39 1.258 . S
O37 Zn21 2.024 1_554 S
O37 C24 1.058 1_554 S
C38 O27 1.260 . S
C38 O28 1.258 . S
C39 O35 1.260 . S
C39 O36 1.258 . S
Zn40 O46 1.969 . S
Zn40 O47 1.965 1_556 S
Zn40 O51 2.024 1_556 S
Zn40 O56 1.969 . S
Zn41 O48 1.969 . S
Zn41 O54 1.969 . S
Zn41 O55 1.965 1_554 S
Zn41 O57 2.022 1_554 S
C42 O43 1.229 . S
C42 O51 1.058 1_556 S
O43 C42 1.229 . S
C44 O45 1.229 . S
C44 O57 1.054 1_554 S
O45 C44 1.229 . S
O46 Zn40 1.969 . S
O46 C49 1.267 1_556 S
O47 Zn40 1.965 1_554 S
O47 C58 1.260 . S
O48 Zn41 1.969 . S
O48 C58 1.258 1_545 S
C49 O46 1.267 1_554 S
C49 O50 1.228 . S
O50 C49 1.228 . S
O51 Zn40 2.024 1_554 S
O51 C42 1.058 1_554 S
C52 O53 1.228 1_554 S
C52 O54 1.267 . S
O53 C52 1.228 1_556 S
O54 Zn41 1.969 . S
O54 C52 1.267 . S
O55 Zn41 1.965 1_556 S
O55 C59 1.260 . S
O56 Zn40 1.969 . S
O56 C59 1.258 1_565 S
O57 Zn41 2.022 1_556 S
O57 C44 1.054 1_556 S
C58 O47 1.260 . S
C58 O48 1.258 1_565 S
C59 O55 1.260 . S
C59 O56 1.258 1_545 S
Zn60 O66 1.969 . S
Zn60 O67 1.965 . S
Zn60 O71 2.024 . S
Zn60 O76 1.969 . S
Zn61 O68 1.969 . S
Zn61 O74 1.969 . S
Zn61 O75 1.965 . S
Zn61 O77 2.024 . S
C62 O63 1.229 . S
C62 O71 1.058 . S
O63 C62 1.229 . S
C64 O65 1.229 . S
C64 O77 1.058 . S
O65 C64 1.229 . S
O66 Zn60 1.969 . S
O66 C69 1.267 . S
O67 Zn60 1.965 . S
O67 C78 1.260 . S
O68 Zn61 1.969 . S
O68 C78 1.258 . S
C69 O66 1.267 . S
C69 O70 1.228 . S
O70 C69 1.228 . S
O71 Zn60 2.024 . S
O71 C62 1.058 . S
C72 O73 1.228 . S
C72 O74 1.267 . S
O73 C72 1.228 . S
O74 Zn61 1.969 . S
O74 C72 1.267 . S
O75 Zn61 1.965 . S
O75 C79 1.260 . S
O76 Zn60 1.969 . S
O76 C79 1.258 . S
O77 Zn61 2.024 . S
O77 C64 1.058 . S
C78 O67 1.260 . S
C78 O68 1.258 . S
C79 O75 1.260 . S
C79 O76 1.258 . S
Zn80 O86 1.969 . S
Zn80 O87 1.965 . S
Zn80 O91 2.024 . S
Zn80 O96 1.969 . S
Zn81 O88 1.969 . S
Zn81 O94 1.969 . S
Zn81 O95 1.965 . S
Zn81 O97 2.024 . S
C82 O83 1.229 . S
C82 O91 1.058 . S
O83 C82 1.229 . S
C84 O85 1.229 . S
C84 O97 1.058 . S
O85 C84 1.229 . S
O86 Zn80 1.969 . S
O86 C89 1.267 1_565 S
O87 Zn80 1.965 . S
O87 C98 1.260 . S
O88 Zn81 1.969 . S
O88 C98 1.258 . S
C89 O86 1.267 1_545 S
C89 O90 1.228 . S
O90 C89 1.228 . S
O91 Zn80 2.024 . S
O91 C82 1.058 . S
C92 O93 1.228 . S
C92 O94 1.267 . S
O93 C92 1.228 . S
O94 Zn81 1.969 . S
O94 C92 1.267 . S
O95 Zn81 1.965 . S
O95 C99 1.260 . S
O96 Zn80 1.969 . S
O96 C99 1.258 . S
O97 Zn81 2.024 . S
O97 C84 1.058 . S
C98 O87 1.260 . S
C98 O88 1.258 . S
C99 O95 1.260 . S
C99 O96 1.258 . S
Zn100 O106 1.969 . S
Zn100 O107 1.965 . S
Zn100 O111 2.024 . S
Zn100 O116 1.969 . S
Zn101 O108 1.969 . S
Zn101 O114 1.969 . S
Zn101 O115 1.965 . S
Zn101 O117 2.024 . S
C102 O103 1.229 . S
C102 O111 1.058 . S
O103 C102 1.229 . S
C104 O105 1.229 . S
C104 O117 1.058 . S
O105 C104 1.229 . S
O106 Zn100 1.969 . S
O106 C109 1.264 1_455 S
O107 Zn100 1.965 . S
O107 C118 1.260 . S
O108 Zn101 1.969 . S
O108 C118 1.258 . S
C109 O106 1.264 1_655 S
C109 O110 1.218 1_655 S
O110 C109 1.218 1_455 S
O111 Zn100 2.024 . S
O111 C102 1.058 . S
C112 O113 1.228 . S
C112 O114 1.267 . S
O113 C112 1.228 . S
O114 Zn101 1.969 . S
O114 C112 1.267 . S
O115 Zn101 1.965 . S
O115 C119 1.260 . S
O116 Zn100 1.969 . S
O116 C119 1.258 . S
O117 Zn101 2.024 . S
O117 C104 1.058 . S
C118 O107 1.260 . S
C118 O108 1.258 . S
C119 O115 1.260 . S
C119 O116 1.258 . S
Zn120 O126 1.969 . S
Zn120 O127 1.965 . S
Zn120 O131 2.024 . S
Zn120 O136 1.969 . S
Zn121 O128 1.969 . S
Zn121 O134 1.969 . S
Zn121 O135 1.965 . S
Zn121 O137 2.024 . S
C122 O123 1.229 . S
C122 O131 1.058 . S
O123 C122 1.229 . S
C124 O125 1.229 . S
C124 O137 1.058 . S
O125 C124 1.229 . S
O126 Zn120 1.969 . S
O126 C129 1.267 . S
O127 Zn120 1.965 . S
O127 C138 1.260 . S
O128 Zn121 1.969 . S
O128 C138 1.258 . S
C129 O126 1.267 . S
C129 O130 1.228 . S
O130 C129 1.228 . S
O131 Zn120 2.024 . S
O131 C122 1.058 . S
C132 O133 1.228 . S
C132 O134 1.267 . S
O133 C132 1.228 . S
O134 Zn121 1.969 . S
O134 C132 1.267 . S
O135 Zn121 1.965 . S
O135 C139 1.260 . S
O136 Zn120 1.969 . S
O136 C139 1.258 . S
O137 Zn121 2.024 . S
O137 C124 1.058 . S
C138 O127 1.260 . S
C138 O128 1.258 . S
C139 O135 1.260 . S
C139 O136 1.258 . S
Zn140 O146 1.969 . S
Zn140 O147 1.965 . S
Zn140 O151 2.024 . S
Zn140 O156 1.969 . S
Zn141 O148 1.969 . S
Zn141 O154 1.969 . S
Zn141 O155 1.965 . S
Zn141 O157 2.024 . S
C142 O143 1.229 . S
C142 O151 1.058 . S
O143 C142 1.229 . S
C144 O145 1.229 . S
C144 O157 1.058 . S
O145 C144 1.229 . S
O146 Zn140 1.969 . S
O146 C149 1.267 1_655 S
O147 Zn140 1.965 . S
O147 C158 1.260 . S
O148 Zn141 1.969 . S
O148 C158 1.258 . S
C149 O146 1.267 1_455 S
C149 O150 1.225 1_455 S
O150 C149 1.225 1_655 S
O151 Zn140 2.024 . S
O151 C142 1.058 . S
C152 O153 1.228 . S
C152 O154 1.267 . S
O153 C152 1.228 . S
O154 Zn141 1.969 . S
O154 C152 1.267 . S
O155 Zn141 1.965 . S
O155 C159 1.260 . S
O156 Zn140 1.969 . S
O156 C159 1.258 . S
O157 Zn141 2.024 . S
O157 C144 1.058 . S
C158 O147 1.260 . S
C158 O148 1.258 . S
C159 O155 1.260 . S
C159 O156 1.258 . S
Zn160 O166 1.969 . S
Zn160 O167 1.965 . S
Zn160 O171 2.024 . S
Zn160 O176 1.969 . S
Zn161 O168 1.969 . S
Zn161 O174 1.969 . S
Zn161 O175 1.965 . S
Zn161 O177 2.024 . S
C162 O163 1.229 . S
C162 O171 1.058 . S
O163 C162 1.229 . S
C164 O165 1.229 . S
C164 O177 1.058 . S
O165 C164 1.229 . S
O166 Zn160 1.969 . S
O166 C169 1.267 . S
O167 Zn160 1.965 . S
O167 C178 1.260 . S
O168 Zn161 1.969 . S
O168 C178 1.258 . S
C169 O166 1.267 . S
C169 O170 1.228 . S
O170 C169 1.228 . S
O171 Zn160 2.024 . S
O171 C162 1.058 . S
C172 O173 1.228 . S
C172 O174 1.267 . S
O173 C172 1.228 . S
O174 Zn161 1.969 . S
O174 C172 1.267 . S
O175 Zn161 1.965 . S
O175 C179 1.260 . S
O176 Zn160 1.969 . S
O176 C179 1.258 . S
O177 Zn161 2.024 . S
O177 C164 1.058 . S
C178 O167 1.260 . S
C178 O168 1.258 . S
C179 O175 1.260 . S
C179 O176 1.258 . S
C180 C181 1.391 . S
C180 C182 1.394 . S
C180 H196 0.931 . S
C181 C180 1.391 . S
C181 C185 1.376 1_554 S
C182 C180 1.394 . S
C182 C183 1.369 . S
C182 C186 1.531 . S
C183 C182 1.369 . S
C183 C184 1.410 1_554 S
C183 C191 1.503 . S
C184 C183 1.410 1_556 S
C184 C185 1.392 . S
C184 C187 1.511 . S
C185 C181 1.376 1_556 S
C185 C184 1.392 . S
C185 H197 0.929 . S
C186 C182 1.531 . S
C186 H198 0.960 . S
C186 H199 0.962 . S
C186 H200 0.960 . S
C187 C184 1.511 . S
C187 H201 0.961 . S
C187 H202 0.961 . S
C187 H203 0.961 . S
C188 C189 1.370 1_556 S
C188 C190 1.363 . S
C188 H204 0.931 . S
C189 C188 1.370 1_554 S
C189 C193 1.408 . S
C190 C188 1.363 . S
C190 C191 1.370 1_556 S
C190 C194 1.524 . S
C191 C183 1.503 . S
C191 C190 1.370 1_554 S
C191 C192 1.403 . S
C192 C191 1.403 . S
C192 C193 1.404 . S
C192 C195 1.539 . S
C193 C189 1.408 . S
C193 C192 1.404 . S
C193 H205 0.930 . S
C194 C190 1.524 . S
C194 H206 0.956 . S
C194 H207 0.961 . S
C194 H208 0.961 . S
C195 C192 1.539 . S
C195 H209 0.958 . S
C195 H210 0.961 . S
C195 H211 0.960 . S
H196 C180 0.931 . S
H197 C185 0.929 . S
H198 C186 0.960 . S
H199 C186 0.962 . S
H200 C186 0.960 . S
H201 C187 0.961 . S
H202 C187 0.961 . S
H203 C187 0.961 . S
H204 C188 0.931 . S
H205 C193 0.930 . S
H206 C194 0.956 . S
H207 C194 0.961 . S
H208 C194 0.961 . S
H209 C195 0.958 . S
H210 C195 0.961 . S
H211 C195 0.960 . S
C212 C213 1.391 1_554 S
C212 C214 1.394 . S
C212 H228 0.931 . S
C213 C212 1.391 1_556 S
C213 C217 1.376 . S
C214 C212 1.394 . S
C214 C215 1.369 1_554 S
C214 C218 1.531 . S
C215 C214 1.369 1_556 S
C215 C216 1.410 . S
C215 C223 1.503 . S
C216 C215 1.410 . S
C216 C217 1.392 . S
C216 C219 1.511 . S
C217 C213 1.376 . S
C217 C216 1.392 . S
C217 H229 0.929 . S
C218 C214 1.531 . S
C218 H230 0.960 . S
C218 H231 0.962 . S
C218 H232 0.960 . S
C219 C216 1.511 . S
C219 H233 0.961 . S
C219 H234 0.961 . S
C219 H235 0.961 . S
C220 C221 1.370 . S
C220 C222 1.363 . S
C220 H236 0.931 . S
C221 C220 1.370 . S
C221 C225 1.408 1_556 S
C222 C220 1.363 . S
C222 C223 1.370 . S
C222 C226 1.524 . S
C223 C215 1.503 . S
C223 C222 1.370 . S
C223 C224 1.403 1_556 S
C224 C223 1.403 1_554 S
C224 C225 1.404 . S
C224 C227 1.539 . S
C225 C221 1.408 1_554 S
C225 C224 1.404 . S
C225 H237 0.930 . S
C226 C222 1.524 . S
C226 H238 0.956 . S
C226 H239 0.961 . S
C226 H240 0.961 . S
C227 C224 1.539 . S
C227 H241 0.958 . S
C227 H242 0.961 . S
C227 H243 0.960 . S
H228 C212 0.931 . S
H229 C217 0.929 . S
H230 C218 0.960 . S
H231 C218 0.962 . S
H232 C218 0.960 . S
H233 C219 0.961 . S
H234 C219 0.961 . S
H235 C219 0.961 . S
H236 C220 0.931 . S
H237 C225 0.930 . S
H238 C226 0.956 . S
H239 C226 0.961 . S
H240 C226 0.961 . S
H241 C227 0.958 . S
H242 C227 0.961 . S
H243 C227 0.960 . S
C244 C245 1.391 . S
C244 C246 1.394 . S
C244 H260 0.931 . S
C245 C244 1.391 . S
C245 C249 1.376 1_554 S
C246 C244 1.394 . S
C246 C247 1.369 . S
C246 C250 1.531 . S
C247 C246 1.369 . S
C247 C248 1.410 1_554 S
C247 C255 1.503 . S
C248 C247 1.410 1_556 S
C248 C249 1.392 . S
C248 C251 1.511 . S
C249 C245 1.376 1_556 S
C249 C248 1.392 . S
C249 H261 0.929 . S
C250 C246 1.531 . S
C250 H262 0.960 . S
C250 H263 0.962 . S
C250 H264 0.960 . S
C251 C248 1.511 . S
C251 H265 0.961 . S
C251 H266 0.961 . S
C251 H267 0.961 1_556 S
C252 C253 1.370 . S
C252 C254 1.363 . S
C252 H268 0.931 . S
C253 C252 1.370 . S
C253 C257 1.408 1_556 S
C254 C252 1.363 . S
C254 C255 1.370 1_556 S
C254 C258 1.524 . S
C255 C247 1.503 . S
C255 C254 1.370 1_554 S
C255 C256 1.403 . S
C256 C255 1.403 . S
C256 C257 1.404 . S
C256 C259 1.539 . S
C257 C253 1.408 1_554 S
C257 C256 1.404 . S
C257 H269 0.930 . S
C258 C254 1.524 . S
C258 H270 0.956 . S
C258 H271 0.961 . S
C258 H272 0.961 . S
C259 C256 1.539 . S
C259 H273 0.958 . S
C259 H274 0.961 . S
C259 H275 0.960 . S
H260 C244 0.931 . S
H261 C249 0.929 . S
H262 C250 0.960 . S
H263 C250 0.962 . S
H264 C250 0.960 . S
H265 C251 0.961 . S
H266 C251 0.961 . S
H267 C251 0.961 1_554 S
H268 C252 0.931 . S
H269 C257 0.930 . S
H270 C258 0.956 . S
H271 C258 0.961 . S
H272 C258 0.961 . S
H273 C259 0.958 . S
H274 C259 0.961 . S
H275 C259 0.960 . S
C276 C277 1.391 . S
C276 C278 1.394 . S
C276 H292 0.931 . S
C277 C276 1.391 . S
C277 C281 1.376 1_554 S
C278 C276 1.394 . S
C278 C279 1.369 . S
C278 C282 1.531 . S
C279 C278 1.369 . S
C279 C280 1.410 1_554 S
C279 C287 1.503 . S
C280 C279 1.410 1_556 S
C280 C281 1.392 . S
C280 C283 1.511 . S
C281 C277 1.376 1_556 S
C281 C280 1.392 . S
C281 H293 0.929 . S
C282 C278 1.531 . S
C282 H294 0.960 . S
C282 H295 0.962 . S
C282 H296 0.960 . S
C283 C280 1.511 . S
C283 H297 0.961 . S
C283 H298 0.961 . S
C283 H299 0.961 . S
C284 C285 1.380 . S
C284 C286 1.366 . S
C284 H300 0.920 1_554 S
C285 C284 1.380 . S
C285 C289 1.408 . S
C286 C284 1.366 . S
C286 C287 1.370 . S
C286 C290 1.524 1_554 S
C287 C279 1.503 . S
C287 C286 1.370 . S
C287 C288 1.403 . S
C288 C287 1.403 . S
C288 C289 1.404 . S
C288 C291 1.539 . S
C289 C285 1.408 . S
C289 C288 1.404 . S
C289 H301 0.930 . S
C290 C286 1.524 1_556 S
C290 H302 0.956 1_556 S
C290 H303 0.961 . S
C290 H304 0.961 . S
C291 C288 1.539 . S
C291 H305 0.958 . S
C291 H306 0.961 . S
C291 H307 0.960 . S
H292 C276 0.931 . S
H293 C281 0.929 . S
H294 C282 0.960 . S
H295 C282 0.962 . S
H296 C282 0.960 . S
H297 C283 0.961 . S
H298 C283 0.961 . S
H299 C283 0.961 . S
H300 C284 0.920 1_556 S
H301 C289 0.930 . S
H302 C290 0.956 1_554 S
H303 C290 0.961 . S
H304 C290 0.961 . S
H305 C291 0.958 . S
H306 C291 0.961 . S
H307 C291 0.960 . S
C308 C309 1.391 1_556 S
C308 C310 1.394 . S
C308 H324 0.931 . S
C309 C308 1.391 1_554 S
C309 C313 1.376 . S
C310 C308 1.394 . S
C310 C311 1.369 1_556 S
C310 C314 1.531 . S
C311 C310 1.369 1_554 S
C311 C312 1.410 . S
C311 C319 1.503 . S
C312 C311 1.410 . S
C312 C313 1.392 . S
C312 C315 1.511 . S
C313 C309 1.376 . S
C313 C312 1.392 . S
C313 H325 0.929 . S
C314 C310 1.531 . S
C314 H326 0.960 . S
C314 H327 0.962 . S
C314 H328 0.960 . S
C315 C312 1.511 . S
C315 H329 0.961 . S
C315 H330 0.961 . S
C315 H331 0.961 . S
C316 C317 1.370 . S
C316 C318 1.363 . S
C316 H332 0.931 . S
C317 C316 1.370 . S
C317 C321 1.408 1_554 S
C318 C316 1.363 . S
C318 C319 1.370 . S
C318 C322 1.524 . S
C319 C311 1.503 . S
C319 C318 1.370 . S
C319 C320 1.403 1_554 S
C320 C319 1.403 1_556 S
C320 C321 1.404 . S
C320 C323 1.539 . S
C321 C317 1.408 1_556 S
C321 C320 1.404 . S
C321 H333 0.930 . S
C322 C318 1.524 . S
C322 H334 0.956 . S
C322 H335 0.961 . S
C322 H336 0.961 . S
C323 C320 1.539 . S
C323 H337 0.958 . S
C323 H338 0.961 . S
C323 H339 0.960 . S
H324 C308 0.931 . S
H325 C313 0.929 . S
H326 C314 0.960 . S
H327 C314 0.962 . S
H328 C314 0.960 . S
H329 C315 0.961 . S
H330 C315 0.961 . S
H331 C315 0.961 . S
H332 C316 0.931 . S
H333 C321 0.930 . S
H334 C322 0.956 . S
H335 C322 0.961 . S
H336 C322 0.961 . S
H337 C323 0.958 . S
H338 C323 0.961 . S
H339 C323 0.960 . S
C340 C341 1.391 . S
C340 C342 1.394 . S
C340 H356 0.931 . S
C341 C340 1.391 . S
C341 C345 1.376 1_554 S
C342 C340 1.394 . S
C342 C343 1.369 . S
C342 C346 1.531 . S
C343 C342 1.369 . S
C343 C344 1.410 1_554 S
C343 C351 1.503 . S
C344 C343 1.410 1_556 S
C344 C345 1.392 . S
C344 C347 1.511 . S
C345 C341 1.376 1_556 S
C345 C344 1.392 . S
C345 H357 0.929 . S
C346 C342 1.531 . S
C346 H358 0.960 . S
C346 H359 0.962 . S
C346 H360 0.960 . S
C347 C344 1.511 . S
C347 H361 0.961 . S
C347 H362 0.961 . S
C347 H363 0.961 . S
C348 C349 1.370 1_556 S
C348 C350 1.363 . S
C348 H364 0.931 . S
C349 C348 1.370 1_554 S
C349 C353 1.408 . S
C350 C348 1.363 . S
C350 C351 1.370 1_556 S
C350 C354 1.524 . S
C351 C343 1.503 . S
C351 C350 1.370 1_554 S
C351 C352 1.403 . S
C352 C351 1.403 . S
C352 C353 1.404 . S
C352 C355 1.539 . S
C353 C349 1.408 . S
C353 C352 1.404 . S
C353 H365 0.930 . S
C354 C350 1.524 . S
C354 H366 0.956 . S
C354 H367 0.961 . S
C354 H368 0.961 . S
C355 C352 1.539 . S
C355 H369 0.958 . S
C355 H370 0.961 . S
C355 H371 0.960 . S
H356 C340 0.931 . S
H357 C345 0.929 . S
H358 C346 0.960 . S
H359 C346 0.962 . S
H360 C346 0.960 . S
H361 C347 0.961 . S
H362 C347 0.961 . S
H363 C347 0.961 . S
H364 C348 0.931 . S
H365 C353 0.930 . S
H366 C354 0.956 . S
H367 C354 0.961 . S
H368 C354 0.961 . S
H369 C355 0.958 . S
H370 C355 0.961 . S
H371 C355 0.960 . S
C372 C373 1.391 . S
C372 C374 1.394 . S
C372 H388 0.931 . S
C373 C372 1.391 . S
C373 C377 1.376 . S
C374 C372 1.394 . S
C374 C375 1.369 . S
C374 C378 1.531 . S
C375 C374 1.369 . S
C375 C376 1.410 . S
C375 C383 1.503 . S
C376 C375 1.410 . S
C376 C377 1.392 . S
C376 C379 1.511 . S
C377 C373 1.376 . S
C377 C376 1.392 . S
C377 H389 0.929 . S
C378 C374 1.531 . S
C378 H390 0.960 . S
C378 H391 0.962 . S
C378 H392 0.960 . S
C379 C376 1.511 . S
C379 H393 0.961 . S
C379 H394 0.961 . S
C379 H395 0.961 . S
C380 C381 1.370 . S
C380 C382 1.363 1_455 S
C380 H396 0.931 . S
C381 C380 1.370 . S
C381 C385 1.408 . S
C382 C380 1.363 1_655 S
C382 C383 1.370 . S
C382 C386 1.524 . S
C383 C375 1.503 . S
C383 C382 1.370 . S
C383 C384 1.403 1_655 S
C384 C383 1.403 1_455 S
C384 C385 1.404 . S
C384 C387 1.539 1_455 S
C385 C381 1.408 . S
C385 C384 1.404 . S
C385 H397 0.930 . S
C386 C382 1.524 . S
C386 H398 0.956 . S
C386 H399 0.961 . S
C386 H400 0.961 . S
C387 C384 1.539 1_655 S
C387 H401 0.958 . S
C387 H402 0.961 1_655 S
C387 H403 0.960 . S
H388 C372 0.931 . S
H389 C377 0.929 . S
H390 C378 0.960 . S
H391 C378 0.962 . S
H392 C378 0.960 . S
H393 C379 0.961 . S
H394 C379 0.961 . S
H395 C379 0.961 . S
H396 C380 0.931 . S
H397 C385 0.930 . S
H398 C386 0.956 . S
H399 C386 0.961 . S
H400 C386 0.961 . S
H401 C387 0.958 . S
H402 C387 0.961 1_455 S
H403 C387 0.960 . S
C404 C405 1.391 . S
C404 C406 1.394 . S
C404 H420 0.931 . S
C405 C404 1.391 . S
C405 C409 1.376 . S
C406 C404 1.394 . S
C406 C407 1.369 . S
C406 C410 1.531 . S
C407 C406 1.369 . S
C407 C408 1.410 . S
C407 C415 1.503 . S
C408 C407 1.410 . S
C408 C409 1.392 . S
C408 C411 1.511 . S
C409 C405 1.376 . S
C409 C408 1.392 . S
C409 H421 0.929 . S
C410 C406 1.531 . S
C410 H422 0.960 . S
C410 H423 0.962 . S
C410 H424 0.960 . S
C411 C408 1.511 . S
C411 H425 0.961 . S
C411 H426 0.961 . S
C411 H427 0.961 . S
C412 C413 1.370 . S
C412 C414 1.363 . S
C412 H428 0.931 . S
C413 C412 1.370 . S
C413 C417 1.408 . S
C414 C412 1.363 . S
C414 C415 1.370 . S
C414 C418 1.524 . S
C415 C407 1.503 . S
C415 C414 1.370 . S
C415 C416 1.403 . S
C416 C415 1.403 . S
C416 C417 1.404 . S
C416 C419 1.539 . S
C417 C413 1.408 . S
C417 C416 1.404 . S
C417 H429 0.930 . S
C418 C414 1.524 . S
C418 H430 0.956 . S
C418 H431 0.961 . S
C418 H432 0.961 . S
C419 C416 1.539 . S
C419 H433 0.958 . S
C419 H434 0.961 . S
C419 H435 0.960 . S
H420 C404 0.931 . S
H421 C409 0.929 . S
H422 C410 0.960 . S
H423 C410 0.962 . S
H424 C410 0.960 . S
H425 C411 0.961 . S
H426 C411 0.961 . S
H427 C411 0.961 . S
H428 C412 0.931 . S
H429 C417 0.930 . S
H430 C418 0.956 . S
H431 C418 0.961 . S
H432 C418 0.961 . S
H433 C419 0.958 . S
H434 C419 0.961 . S
H435 C419 0.960 . S
C436 C437 1.391 . S
C436 C438 1.394 . S
C436 H452 0.931 . S
C437 C436 1.391 . S
C437 C441 1.376 . S
C438 C436 1.394 . S
C438 C439 1.369 . S
C438 C442 1.531 . S
C439 C438 1.369 . S
C439 C440 1.410 . S
C439 C447 1.503 . S
C440 C439 1.410 . S
C440 C441 1.392 . S
C440 C443 1.511 . S
C441 C437 1.376 . S
C441 C440 1.392 . S
C441 H453 0.929 . S
C442 C438 1.531 . S
C442 H454 0.960 . S
C442 H455 0.962 . S
C442 H456 0.960 . S
C443 C440 1.511 . S
C443 H457 0.961 . S
C443 H458 0.961 . S
C443 H459 0.961 . S
C444 C445 1.370 . S
C444 C446 1.363 1_565 S
C444 H460 0.931 . S
C445 C444 1.370 . S
C445 C449 1.408 . S
C446 C444 1.363 1_545 S
C446 C447 1.370 . S
C446 C450 1.524 . S
C447 C439 1.503 . S
C447 C446 1.370 . S
C447 C448 1.381 1_545 S
C448 C447 1.381 1_565 S
C448 C449 1.421 . S
C448 C451 1.544 1_565 S
C449 C445 1.408 . S
C449 C448 1.421 . S
C449 H461 0.930 . S
C450 C446 1.524 . S
C450 H462 0.956 . S
C450 H463 0.961 . S
C450 H464 0.961 . S
C451 C448 1.544 1_545 S
C451 H465 0.958 . S
C451 H466 0.961 1_545 S
C451 H467 0.960 . S
H452 C436 0.931 . S
H453 C441 0.929 . S
H454 C442 0.960 . S
H455 C442 0.962 . S
H456 C442 0.960 . S
H457 C443 0.961 . S
H458 C443 0.961 . S
H459 C443 0.961 . S
H460 C444 0.931 . S
H461 C449 0.930 . S
H462 C450 0.956 . S
H463 C450 0.961 . S
H464 C450 0.961 . S
H465 C451 0.958 . S
H466 C451 0.961 1_565 S
H467 C451 0.960 . S
C468 C469 1.391 . S
C468 C470 1.394 . S
C468 H484 0.931 . S
C469 C468 1.391 . S
C469 C473 1.376 . S
C470 C468 1.394 . S
C470 C471 1.369 . S
C470 C474 1.531 . S
C471 C470 1.369 . S
C471 C472 1.410 . S
C471 C479 1.503 . S
C472 C471 1.410 . S
C472 C473 1.392 . S
C472 C475 1.511 . S
C473 C469 1.376 . S
C473 C472 1.392 . S
C473 H485 0.929 . S
C474 C470 1.531 . S
C474 H486 0.960 . S
C474 H487 0.962 . S
C474 H488 0.960 . S
C475 C472 1.511 . S
C475 H489 0.961 . S
C475 H490 0.961 . S
C475 H491 0.961 . S
C476 C477 1.370 . S
C476 C478 1.363 . S
C476 H492 0.931 . S
C477 C476 1.370 . S
C477 C481 1.408 . S
C478 C476 1.363 . S
C478 C479 1.370 . S
C478 C482 1.524 . S
C479 C471 1.503 . S
C479 C478 1.370 . S
C479 C480 1.403 . S
C480 C479 1.403 . S
C480 C481 1.404 . S
C480 C483 1.539 . S
C481 C477 1.408 . S
C481 C480 1.404 . S
C481 H493 0.930 . S
C482 C478 1.524 . S
C482 H494 0.956 . S
C482 H495 0.961 . S
C482 H496 0.961 . S
C483 C480 1.539 . S
C483 H497 0.958 . S
C483 H498 0.961 . S
C483 H499 0.960 . S
H484 C468 0.931 . S
H485 C473 0.929 . S
H486 C474 0.960 . S
H487 C474 0.962 . S
H488 C474 0.960 . S
H489 C475 0.961 . S
H490 C475 0.961 . S
H491 C475 0.961 . S
H492 C476 0.931 . S
H493 C481 0.930 . S
H494 C482 0.956 . S
H495 C482 0.961 . S
H496 C482 0.961 . S
H497 C483 0.958 . S
H498 C483 0.961 . S
H499 C483 0.960 . S
C500 C501 1.391 . S
C500 C502 1.394 . S
C500 H516 0.931 . S
C501 C500 1.391 . S
C501 C505 1.376 . S
C502 C500 1.394 . S
C502 C503 1.369 . S
C502 C506 1.531 . S
C503 C502 1.369 . S
C503 C504 1.410 . S
C503 C511 1.503 . S
C504 C503 1.410 . S
C504 C505 1.392 . S
C504 C507 1.511 . S
C505 C501 1.376 . S
C505 C504 1.392 . S
C505 H517 0.929 . S
C506 C502 1.531 . S
C506 H518 0.960 . S
C506 H519 0.962 . S
C506 H520 0.960 . S
C507 C504 1.511 . S
C507 H521 0.961 . S
C507 H522 0.961 . S
C507 H523 0.961 . S
C508 C509 1.370 . S
C508 C510 1.363 . S
C508 H524 0.931 . S
C509 C508 1.370 . S
C509 C513 1.408 . S
C510 C508 1.363 . S
C510 C511 1.370 . S
C510 C514 1.524 . S
C511 C503 1.503 . S
C511 C510 1.370 . S
C511 C512 1.403 . S
C512 C511 1.403 . S
C512 C513 1.404 . S
C512 C515 1.539 . S
C513 C509 1.408 . S
C513 C512 1.404 . S
C513 H525 0.930 . S
C514 C510 1.524 . S
C514 H526 0.956 . S
C514 H527 0.961 . S
C514 H528 0.961 . S
C515 C512 1.539 . S
C515 H529 0.958 . S
C515 H530 0.961 . S
C515 H531 0.960 . S
H516 C500 0.931 . S
H517 C505 0.929 . S
H518 C506 0.960 . S
H519 C506 0.962 . S
H520 C506 0.960 . S
H521 C507 0.961 . S
H522 C507 0.961 . S
H523 C507 0.961 . S
H524 C508 0.931 . S
H525 C513 0.930 . S
H526 C514 0.956 . S
H527 C514 0.961 . S
H528 C514 0.961 . S
H529 C515 0.958 . S
H530 C515 0.961 . S
H531 C515 0.960 . S
C532 C533 1.391 . S
C532 C534 1.394 . S
C532 H548 0.931 . S
C533 C532 1.391 . S
C533 C537 1.376 . S
C534 C532 1.394 . S
C534 C535 1.369 . S
C534 C538 1.531 . S
C535 C534 1.369 . S
C535 C536 1.410 . S
C535 C543 1.503 . S
C536 C535 1.410 . S
C536 C537 1.392 . S
C536 C539 1.511 . S
C537 C533 1.376 . S
C537 C536 1.392 . S
C537 H549 0.929 . S
C538 C534 1.531 . S
C538 H550 0.960 . S
C538 H551 0.962 . S
C538 H552 0.960 . S
C539 C536 1.511 . S
C539 H553 0.961 . S
C539 H554 0.961 . S
C539 H555 0.961 . S
C540 C541 1.370 . S
C540 C542 1.363 . S
C540 H556 0.931 . S
C541 C540 1.370 . S
C541 C545 1.408 . S
C542 C540 1.363 . S
C542 C543 1.370 . S
C542 C546 1.524 . S
C543 C535 1.503 . S
C543 C542 1.370 . S
C543 C544 1.403 . S
C544 C543 1.403 . S
C544 C545 1.404 . S
C544 C547 1.539 . S
C545 C541 1.408 . S
C545 C544 1.404 . S
C545 H557 0.930 . S
C546 C542 1.524 . S
C546 H558 0.956 . S
C546 H559 0.961 . S
C546 H560 0.961 . S
C547 C544 1.539 . S
C547 H561 0.958 . S
C547 H562 0.961 . S
C547 H563 0.960 . S
H548 C532 0.931 . S
H549 C537 0.929 . S
H550 C538 0.960 . S
H551 C538 0.962 . S
H552 C538 0.960 . S
H553 C539 0.961 . S
H554 C539 0.961 . S
H555 C539 0.961 . S
H556 C540 0.931 . S
H557 C545 0.930 . S
H558 C546 0.956 . S
H559 C546 0.961 . S
H560 C546 0.961 . S
H561 C547 0.958 . S
H562 C547 0.961 . S
H563 C547 0.960 . S
C564 C565 1.391 . S
C564 C566 1.394 . S
C564 H580 0.931 . S
C565 C564 1.391 . S
C565 C569 1.376 . S
C566 C564 1.394 . S
C566 C567 1.369 . S
C566 C570 1.531 . S
C567 C566 1.369 . S
C567 C568 1.410 . S
C567 C575 1.503 . S
C568 C567 1.410 . S
C568 C569 1.392 . S
C568 C571 1.511 . S
C569 C565 1.376 . S
C569 C568 1.392 . S
C569 H581 0.929 . S
C570 C566 1.531 . S
C570 H582 0.960 . S
C570 H583 0.962 . S
C570 H584 0.960 . S
C571 C568 1.511 . S
C571 H585 0.961 . S
C571 H586 0.961 . S
C571 H587 0.961 . S
C572 C573 1.370 . S
C572 C574 1.363 . S
C572 H588 0.931 . S
C573 C572 1.370 . S
C573 C577 1.408 . S
C574 C572 1.363 . S
C574 C575 1.370 . S
C574 C578 1.524 . S
C575 C567 1.503 . S
C575 C574 1.370 . S
C575 C576 1.403 . S
C576 C575 1.403 . S
C576 C577 1.404 . S
C576 C579 1.539 . S
C577 C573 1.408 . S
C577 C576 1.404 . S
C577 H589 0.930 . S
C578 C574 1.524 . S
C578 H590 0.956 . S
C578 H591 0.961 . S
C578 H592 0.961 . S
C579 C576 1.539 . S
C579 H593 0.958 . S
C579 H594 0.961 . S
C579 H595 0.960 . S
H580 C564 0.931 . S
H581 C569 0.929 . S
H582 C570 0.960 . S
H583 C570 0.962 . S
H584 C570 0.960 . S
H585 C571 0.961 . S
H586 C571 0.961 . S
H587 C571 0.961 . S
H588 C572 0.931 . S
H589 C577 0.930 . S
H590 C578 0.956 . S
H591 C578 0.961 . S
H592 C578 0.961 . S
H593 C579 0.958 . S
H594 C579 0.961 . S
H595 C579 0.960 . S
C596 C597 1.391 . S
C596 C598 1.394 . S
C596 H612 0.931 . S
C597 C596 1.391 . S
C597 C601 1.376 . S
C598 C596 1.394 . S
C598 C599 1.369 . S
C598 C602 1.531 . S
C599 C598 1.369 . S
C599 C600 1.410 . S
C599 C607 1.503 . S
C600 C599 1.410 . S
C600 C601 1.392 . S
C600 C603 1.511 . S
C601 C597 1.376 . S
C601 C600 1.392 . S
C601 H613 0.929 . S
C602 C598 1.531 . S
C602 H614 0.960 . S
C602 H615 0.962 . S
C602 H616 0.960 . S
C603 C600 1.511 . S
C603 H617 0.961 . S
C603 H618 0.961 . S
C603 H619 0.961 . S
C604 C605 1.370 . S
C604 C606 1.363 . S
C604 H620 0.931 . S
C605 C604 1.370 . S
C605 C609 1.408 . S
C606 C604 1.363 . S
C606 C607 1.370 . S
C606 C610 1.524 . S
C607 C599 1.503 . S
C607 C606 1.370 . S
C607 C608 1.403 . S
C608 C607 1.403 . S
C608 C609 1.404 . S
C608 C611 1.539 . S
C609 C605 1.408 . S
C609 C608 1.404 . S
C609 H621 0.930 . S
C610 C606 1.524 . S
C610 H622 0.956 . S
C610 H623 0.961 . S
C610 H624 0.961 . S
C611 C608 1.539 . S
C611 H625 0.958 . S
C611 H626 0.961 . S
C611 H627 0.960 . S
H612 C596 0.931 . S
H613 C601 0.929 . S
H614 C602 0.960 . S
H615 C602 0.962 . S
H616 C602 0.960 . S
H617 C603 0.961 . S
H618 C603 0.961 . S
H619 C603 0.961 . S
H620 C604 0.931 . S
H621 C609 0.930 . S
H622 C610 0.956 . S
H623 C610 0.961 . S
H624 C610 0.961 . S
H625 C611 0.958 . S
H626 C611 0.961 . S
H627 C611 0.960 . S
C628 C629 1.391 . S
C628 C630 1.394 . S
C628 H644 0.931 . S
C629 C628 1.391 . S
C629 C633 1.376 . S
C630 C628 1.394 . S
C630 C631 1.369 . S
C630 C634 1.531 . S
C631 C630 1.369 . S
C631 C632 1.410 . S
C631 C639 1.503 . S
C632 C631 1.410 . S
C632 C633 1.392 . S
C632 C635 1.511 . S
C633 C629 1.376 . S
C633 C632 1.392 . S
C633 H645 0.929 . S
C634 C630 1.531 . S
C634 H646 0.960 . S
C634 H647 0.962 . S
C634 H648 0.960 . S
C635 C632 1.511 . S
C635 H649 0.961 . S
C635 H650 0.961 . S
C635 H651 0.961 . S
C636 C637 1.370 . S
C636 C638 1.363 . S
C636 H652 0.931 . S
C637 C636 1.370 . S
C637 C641 1.408 . S
C638 C636 1.363 . S
C638 C639 1.370 . S
C638 C642 1.524 . S
C639 C631 1.503 . S
C639 C638 1.370 . S
C639 C640 1.403 . S
C640 C639 1.403 . S
C640 C641 1.404 . S
C640 C643 1.539 . S
C641 C637 1.408 . S
C641 C640 1.404 . S
C641 H653 0.930 . S
C642 C638 1.524 . S
C642 H654 0.956 . S
C642 H655 0.961 . S
C642 H656 0.961 . S
C643 C640 1.539 . S
C643 H657 0.958 . S
C643 H658 0.961 . S
C643 H659 0.960 . S
H644 C628 0.931 . S
H645 C633 0.929 . S
H646 C634 0.960 . S
H647 C634 0.962 . S
H648 C634 0.960 . S
H649 C635 0.961 . S
H650 C635 0.961 . S
H651 C635 0.961 . S
H652 C636 0.931 . S
H653 C641 0.930 . S
H654 C642 0.956 . S
H655 C642 0.961 . S
H656 C642 0.961 . S
H657 C643 0.958 . S
H658 C643 0.961 . S
H659 C643 0.960 . S
C660 C661 1.391 . S
C660 C662 1.394 . S
C660 H676 0.931 . S
C661 C660 1.391 . S
C661 C665 1.376 . S
C662 C660 1.394 . S
C662 C663 1.369 . S
C662 C666 1.531 . S
C663 C662 1.369 . S
C663 C664 1.410 . S
C663 C671 1.503 . S
C664 C663 1.410 . S
C664 C665 1.392 . S
C664 C667 1.511 . S
C665 C661 1.376 . S
C665 C664 1.392 . S
C665 H677 0.929 . S
C666 C662 1.531 . S
C666 H678 0.960 . S
C666 H679 0.962 . S
C666 H680 0.960 . S
C667 C664 1.511 . S
C667 H681 0.961 . S
C667 H682 0.961 . S
C667 H683 0.961 . S
C668 C669 1.370 . S
C668 C670 1.363 1_545 S
C668 H684 0.931 . S
C669 C668 1.370 . S
C669 C673 1.408 . S
C670 C668 1.363 1_565 S
C670 C671 1.370 . S
C670 C674 1.524 . S
C671 C663 1.503 . S
C671 C670 1.370 . S
C671 C672 1.403 . S
C672 C671 1.403 . S
C672 C673 1.404 1_565 S
C672 C675 1.539 . S
C673 C669 1.408 . S
C673 C672 1.404 1_545 S
C673 H685 0.930 . S
C674 C670 1.524 . S
C674 H686 0.956 . S
C674 H687 0.961 . S
C674 H688 0.961 . S
C675 C672 1.539 . S
C675 H689 0.958 . S
C675 H690 0.961 . S
C675 H691 0.960 . S
H676 C660 0.931 . S
H677 C665 0.929 . S
H678 C666 0.960 . S
H679 C666 0.962 . S
H680 C666 0.960 . S
H681 C667 0.961 . S
H682 C667 0.961 . S
H683 C667 0.961 . S
H684 C668 0.931 . S
H685 C673 0.930 . S
H686 C674 0.956 . S
H687 C674 0.961 . S
H688 C674 0.961 . S
H689 C675 0.958 . S
H690 C675 0.961 . S
H691 C675 0.960 . S
C692 C693 1.391 . S
C692 C694 1.394 1_655 S
C692 H708 0.931 . S
C693 C692 1.391 . S
C693 C697 1.376 . S
C694 C692 1.394 1_455 S
C694 C695 1.369 . S
C694 C698 1.531 . S
C695 C694 1.369 . S
C695 C696 1.410 . S
C695 C703 1.503 . S
C696 C695 1.410 . S
C696 C697 1.392 1_455 S
C696 C699 1.511 . S
C697 C693 1.376 . S
C697 C696 1.392 1_655 S
C697 H709 0.929 . S
C698 C694 1.531 . S
C698 H710 0.960 . S
C698 H711 0.962 . S
C698 H712 0.960 . S
C699 C696 1.511 . S
C699 H713 0.961 . S
C699 H714 0.961 . S
C699 H715 0.961 . S
C700 C701 1.370 . S
C700 C702 1.363 . S
C700 H716 0.931 . S
C701 C700 1.370 . S
C701 C705 1.408 . S
C702 C700 1.363 . S
C702 C703 1.370 . S
C702 C706 1.524 . S
C703 C695 1.503 . S
C703 C702 1.370 . S
C703 C704 1.403 . S
C704 C703 1.403 . S
C704 C705 1.404 . S
C704 C707 1.539 . S
C705 C701 1.408 . S
C705 C704 1.404 . S
C705 H717 0.918 1_565 S
C706 C702 1.524 . S
C706 H718 0.956 . S
C706 H719 0.961 . S
C706 H720 0.961 . S
C707 C704 1.539 . S
C707 H721 0.958 . S
C707 H722 0.961 . S
C707 H723 0.960 . S
H708 C692 0.931 . S
H709 C697 0.929 . S
H710 C698 0.960 . S
H711 C698 0.962 . S
H712 C698 0.960 . S
H713 C699 0.961 . S
H714 C699 0.961 . S
H715 C699 0.961 . S
H716 C700 0.931 . S
H717 C705 0.918 1_545 S
H718 C706 0.956 . S
H719 C706 0.961 . S
H720 C706 0.961 . S
H721 C707 0.958 . S
H722 C707 0.961 . S
H723 C707 0.960 . S
C724 C725 1.391 . S
C724 C726 1.394 . S
C724 H740 0.931 . S
C725 C724 1.391 . S
C725 C729 1.376 . S
C726 C724 1.394 . S
C726 C727 1.369 . S
C726 C730 1.531 . S
C727 C726 1.369 . S
C727 C728 1.410 . S
C727 C735 1.503 . S
C728 C727 1.410 . S
C728 C729 1.392 . S
C728 C731 1.511 . S
C729 C725 1.376 . S
C729 C728 1.392 . S
C729 H741 0.929 . S
C730 C726 1.531 . S
C730 H742 0.960 . S
C730 H743 0.962 . S
C730 H744 0.960 . S
C731 C728 1.511 . S
C731 H745 0.961 . S
C731 H746 0.961 . S
C731 H747 0.961 . S
C732 C733 1.370 . S
C732 C734 1.363 . S
C732 H748 0.931 . S
C733 C732 1.370 . S
C733 C737 1.408 . S
C734 C732 1.363 . S
C734 C735 1.370 . S
C734 C738 1.524 . S
C735 C727 1.503 . S
C735 C734 1.370 . S
C735 C736 1.403 . S
C736 C735 1.403 . S
C736 C737 1.404 . S
C736 C739 1.539 . S
C737 C733 1.408 . S
C737 C736 1.404 . S
C737 H749 0.930 . S
C738 C734 1.524 . S
C738 H750 0.956 . S
C738 H751 0.961 . S
C738 H752 0.961 . S
C739 C736 1.539 . S
C739 H753 0.958 . S
C739 H754 0.961 . S
C739 H755 0.960 . S
H740 C724 0.931 . S
H741 C729 0.929 . S
H742 C730 0.960 . S
H743 C730 0.962 . S
H744 C730 0.960 . S
H745 C731 0.961 . S
H746 C731 0.961 . S
H747 C731 0.961 . S
H748 C732 0.931 . S
H749 C737 0.930 . S
H750 C738 0.956 . S
H751 C738 0.961 . S
H752 C738 0.961 . S
H753 C739 0.958 . S
H754 C739 0.961 . S
H755 C739 0.960 . S
C756 C757 1.391 . S
C756 C758 1.394 . S
C756 H772 0.931 . S
C757 C756 1.391 . S
C757 C761 1.376 . S
C758 C756 1.394 . S
C758 C759 1.369 . S
C758 C762 1.531 . S
C759 C758 1.369 . S
C759 C760 1.410 . S
C759 C767 1.503 . S
C760 C759 1.410 . S
C760 C761 1.392 . S
C760 C763 1.511 . S
C761 C757 1.376 . S
C761 C760 1.392 . S
C761 H773 0.929 . S
C762 C758 1.531 . S
C762 H774 0.960 . S
C762 H775 0.962 . S
C762 H776 0.960 . S
C763 C760 1.511 . S
C763 H777 0.961 . S
C763 H778 0.961 . S
C763 H779 0.961 . S
C764 C765 1.370 . S
C764 C766 1.363 . S
C764 H780 0.931 . S
C765 C764 1.370 . S
C765 C769 1.408 . S
C766 C764 1.363 . S
C766 C767 1.370 . S
C766 C770 1.524 . S
C767 C759 1.503 . S
C767 C766 1.370 . S
C767 C768 1.403 . S
C768 C767 1.403 . S
C768 C769 1.404 . S
C768 C771 1.539 1_455 S
C769 C765 1.408 . S
C769 C768 1.404 . S
C769 H781 0.930 1_455 S
C770 C766 1.524 . S
C770 H782 0.956 . S
C770 H783 0.961 . S
C770 H784 0.961 . S
C771 C768 1.539 1_655 S
C771 H785 0.958 . S
C771 H786 0.961 . S
C771 H787 0.960 . S
H772 C756 0.931 . S
H773 C761 0.929 . S
H774 C762 0.960 . S
H775 C762 0.962 . S
H776 C762 0.960 . S
H777 C763 0.961 . S
H778 C763 0.961 . S
H779 C763 0.961 . S
H780 C764 0.931 . S
H781 C769 0.930 1_655 S
H782 C770 0.956 . S
H783 C770 0.961 . S
H784 C770 0.961 . S
H785 C771 0.958 . S
H786 C771 0.961 . S
H787 C771 0.960 . S
C788 C789 1.391 . S
C788 C790 1.394 . S
C788 H804 0.931 . S
C789 C788 1.391 . S
C789 C793 1.376 . S
C790 C788 1.394 . S
C790 C791 1.369 . S
C790 C794 1.531 . S
C791 C790 1.369 . S
C791 C792 1.410 . S
C791 C799 1.503 . S
C792 C791 1.410 . S
C792 C793 1.392 . S
C792 C795 1.511 . S
C793 C789 1.376 . S
C793 C792 1.392 . S
C793 H805 0.929 . S
C794 C790 1.531 . S
C794 H806 0.960 . S
C794 H807 0.962 . S
C794 H808 0.960 . S
C795 C792 1.511 . S
C795 H809 0.961 . S
C795 H810 0.961 . S
C795 H811 0.961 . S
C796 C797 1.370 . S
C796 C798 1.363 . S
C796 H812 0.931 . S
C797 C796 1.370 . S
C797 C801 1.408 . S
C798 C796 1.363 . S
C798 C799 1.370 . S
C798 C802 1.524 . S
C799 C791 1.503 . S
C799 C798 1.370 . S
C799 C800 1.403 . S
C800 C799 1.403 . S
C800 C801 1.404 . S
C800 C803 1.539 . S
C801 C797 1.408 . S
C801 C800 1.404 . S
C801 H813 0.930 . S
C802 C798 1.524 . S
C802 H814 0.956 . S
C802 H815 0.961 . S
C802 H816 0.961 . S
C803 C800 1.539 . S
C803 H817 0.958 . S
C803 H818 0.961 . S
C803 H819 0.960 . S
H804 C788 0.931 . S
H805 C793 0.929 . S
H806 C794 0.960 . S
H807 C794 0.962 . S
H808 C794 0.960 . S
H809 C795 0.961 . S
H810 C795 0.961 . S
H811 C795 0.961 . S
H812 C796 0.931 . S
H813 C801 0.930 . S
H814 C802 0.956 . S
H815 C802 0.961 . S
H816 C802 0.961 . S
H817 C803 0.958 . S
H818 C803 0.961 . S
H819 C803 0.960 . S
C820 C821 1.391 . S
C820 C822 1.394 . S
C820 H836 0.931 . S
C821 C820 1.391 . S
C821 C825 1.376 . S
C822 C820 1.394 . S
C822 C823 1.369 . S
C822 C826 1.531 . S
C823 C822 1.369 . S
C823 C824 1.410 . S
C823 C831 1.503 . S
C824 C823 1.410 . S
C824 C825 1.392 . S
C824 C827 1.511 . S
C825 C821 1.376 . S
C825 C824 1.392 . S
C825 H837 0.929 . S
C826 C822 1.531 . S
C826 H838 0.960 . S
C826 H839 0.962 . S
C826 H840 0.960 . S
C827 C824 1.511 . S
C827 H841 0.961 . S
C827 H842 0.961 . S
C827 H843 0.961 . S
C828 C829 1.370 . S
C828 C830 1.363 . S
C828 H844 0.931 . S
C829 C828 1.370 . S
C829 C833 1.408 . S
C830 C828 1.363 . S
C830 C831 1.370 . S
C830 C834 1.524 . S
C831 C823 1.503 . S
C831 C830 1.370 . S
C831 C832 1.403 . S
C832 C831 1.403 . S
C832 C833 1.404 . S
C832 C835 1.539 . S
C833 C829 1.408 . S
C833 C832 1.404 . S
C833 H845 0.930 . S
C834 C830 1.524 . S
C834 H846 0.952 1_565 S
C834 H847 0.961 1_565 S
C834 H848 0.961 1_565 S
C835 C832 1.539 . S
C835 H849 0.958 . S
C835 H850 0.961 . S
C835 H851 0.960 . S
H836 C820 0.931 . S
H837 C825 0.929 . S
H838 C826 0.960 . S
H839 C826 0.962 . S
H840 C826 0.960 . S
H841 C827 0.961 . S
H842 C827 0.961 . S
H843 C827 0.961 . S
H844 C828 0.931 . S
H845 C833 0.930 . S
H846 C834 0.952 1_545 S
H847 C834 0.961 1_545 S
H848 C834 0.961 1_545 S
H849 C835 0.958 . S
H850 C835 0.961 . S
H851 C835 0.960 . S
C852 C853 1.391 . S
C852 C854 1.394 . S
C852 H868 0.931 . S
C853 C852 1.391 . S
C853 C857 1.376 . S
C854 C852 1.394 . S
C854 C855 1.369 . S
C854 C858 1.531 . S
C855 C854 1.369 . S
C855 C856 1.410 . S
C855 C863 1.503 . S
C856 C855 1.410 . S
C856 C857 1.392 . S
C856 C859 1.511 . S
C857 C853 1.376 . S
C857 C856 1.392 . S
C857 H869 0.929 . S
C858 C854 1.531 . S
C858 H870 0.960 . S
C858 H871 0.962 . S
C858 H872 0.960 1_545 S
C859 C856 1.511 . S
C859 H873 0.961 . S
C859 H874 0.961 . S
C859 H875 0.961 . S
C860 C861 1.370 . S
C860 C862 1.363 . S
C860 H876 0.931 . S
C861 C860 1.370 . S
C861 C865 1.408 . S
C862 C860 1.363 . S
C862 C863 1.370 . S
C862 C866 1.524 . S
C863 C855 1.503 . S
C863 C862 1.370 . S
C863 C864 1.403 . S
C864 C863 1.403 . S
C864 C865 1.404 . S
C864 C867 1.539 1_545 S
C865 C861 1.408 . S
C865 C864 1.404 . S
C865 H877 0.930 . S
C866 C862 1.524 . S
C866 H878 0.956 . S
C866 H879 0.961 . S
C866 H880 0.961 . S
C867 C864 1.539 1_565 S
C867 H881 0.958 . S
C867 H882 0.961 . S
C867 H883 0.960 . S
H868 C852 0.931 . S
H869 C857 0.929 . S
H870 C858 0.960 . S
H871 C858 0.962 . S
H872 C858 0.960 1_565 S
H873 C859 0.961 . S
H874 C859 0.961 . S
H875 C859 0.961 . S
H876 C860 0.931 . S
H877 C865 0.930 . S
H878 C866 0.956 . S
H879 C866 0.961 . S
H880 C866 0.961 . S
H881 C867 0.958 . S
H882 C867 0.961 . S
H883 C867 0.960 . S
C884 C885 1.391 . S
C884 C886 1.394 . S
C884 H900 0.931 . S
C885 C884 1.391 . S
C885 C889 1.376 . S
C886 C884 1.394 . S
C886 C887 1.369 . S
C886 C890 1.531 . S
C887 C886 1.369 . S
C887 C888 1.410 . S
C887 C895 1.503 . S
C888 C887 1.410 . S
C888 C889 1.392 . S
C888 C891 1.511 . S
C889 C885 1.376 . S
C889 C888 1.392 . S
C889 H901 0.929 . S
C890 C886 1.531 . S
C890 H902 0.960 . S
C890 H903 0.962 . S
C890 H904 0.960 . S
C891 C888 1.511 . S
C891 H905 0.961 . S
C891 H906 0.961 . S
C891 H907 0.961 . S
C892 C893 1.370 . S
C892 C894 1.363 . S
C892 H908 0.931 . S
C893 C892 1.370 . S
C893 C897 1.408 . S
C894 C892 1.363 . S
C894 C895 1.370 . S
C894 C898 1.524 . S
C895 C887 1.503 . S
C895 C894 1.370 . S
C895 C896 1.403 . S
C896 C895 1.403 . S
C896 C897 1.404 . S
C896 C899 1.539 . S
C897 C893 1.408 . S
C897 C896 1.404 . S
C897 H909 0.930 . S
C898 C894 1.524 . S
C898 H910 0.956 1_655 S
C898 H911 0.964 1_655 S
C898 H912 0.961 1_655 S
C899 C896 1.539 . S
C899 H913 0.958 . S
C899 H914 0.961 . S
C899 H915 0.960 . S
H900 C884 0.931 . S
H901 C889 0.929 . S
H902 C890 0.960 . S
H903 C890 0.962 . S
H904 C890 0.960 . S
H905 C891 0.961 . S
H906 C891 0.961 . S
H907 C891 0.961 . S
H908 C892 0.931 . S
H909 C897 0.930 . S
H910 C898 0.956 1_455 S
H911 C898 0.964 1_455 S
H912 C898 0.961 1_455 S
H913 C899 0.958 . S
H914 C899 0.961 . S
H915 C899 0.960 . S
C916 C917 1.391 . S
C916 C918 1.394 . S
C916 H932 0.931 . S
C917 C916 1.391 . S
C917 C921 1.376 . S
C918 C916 1.394 . S
C918 C919 1.369 . S
C918 C922 1.531 . S
C919 C918 1.369 . S
C919 C920 1.410 . S
C919 C927 1.503 . S
C920 C919 1.410 . S
C920 C921 1.392 . S
C920 C923 1.511 . S
C921 C917 1.376 . S
C921 C920 1.392 . S
C921 H933 0.929 . S
C922 C918 1.531 . S
C922 H934 0.960 . S
C922 H935 0.962 . S
C922 H936 0.960 . S
C923 C920 1.511 . S
C923 H937 0.961 . S
C923 H938 0.961 . S
C923 H939 0.961 . S
C924 C925 1.370 . S
C924 C926 1.363 . S
C924 H940 0.931 . S
C925 C924 1.370 . S
C925 C929 1.408 . S
C926 C924 1.363 . S
C926 C927 1.370 . S
C926 C930 1.524 . S
C927 C919 1.503 . S
C927 C926 1.370 . S
C927 C928 1.403 . S
C928 C927 1.403 . S
C928 C929 1.404 . S
C928 C931 1.539 . S
C929 C925 1.408 . S
C929 C928 1.404 . S
C929 H941 0.930 . S
C930 C926 1.524 . S
C930 H942 0.956 . S
C930 H943 0.961 . S
C930 H944 0.961 . S
C931 C928 1.539 . S
C931 H945 0.958 . S
C931 H946 0.961 . S
C931 H947 0.960 . S
H932 C916 0.931 . S
H933 C921 0.929 . S
H934 C922 0.960 . S
H935 C922 0.962 . S
H936 C922 0.960 . S
H937 C923 0.961 . S
H938 C923 0.961 . S
H939 C923 0.961 . S
H940 C924 0.931 . S
H941 C929 0.930 . S
H942 C930 0.956 . S
H943 C930 0.961 . S
H944 C930 0.961 . S
H945 C931 0.958 . S
H946 C931 0.961 . S
H947 C931 0.960 . S
C948 C949 1.391 . S
C948 C950 1.394 . S
C948 H964 0.931 . S
C949 C948 1.391 . S
C949 C953 1.376 . S
C950 C948 1.394 . S
C950 C951 1.369 . S
C950 C954 1.531 . S
C951 C950 1.369 . S
C951 C952 1.410 . S
C951 C959 1.503 . S
C952 C951 1.410 . S
C952 C953 1.392 . S
C952 C955 1.511 . S
C953 C949 1.376 . S
C953 C952 1.392 . S
C953 H965 0.929 . S
C954 C950 1.531 . S
C954 H966 0.960 . S
C954 H967 0.962 . S
C954 H968 0.960 . S
C955 C952 1.511 . S
C955 H969 0.961 . S
C955 H970 0.961 . S
C955 H971 0.961 . S
C956 C957 1.370 . S
C956 C958 1.363 . S
C956 H972 0.931 . S
C957 C956 1.370 . S
C957 C961 1.408 . S
C958 C956 1.363 . S
C958 C959 1.370 . S
C958 C962 1.524 . S
C959 C951 1.503 . S
C959 C958 1.370 . S
C959 C960 1.403 . S
C960 C959 1.403 . S
C960 C961 1.404 . S
C960 C963 1.539 . S
C961 C957 1.408 . S
C961 C960 1.404 . S
C961 H973 0.930 . S
C962 C958 1.524 . S
C962 H974 0.956 . S
C962 H975 0.961 . S
C962 H976 0.961 . S
C963 C960 1.539 . S
C963 H977 0.958 . S
C963 H978 0.961 . S
C963 H979 0.960 . S
H964 C948 0.931 . S
H965 C953 0.929 . S
H966 C954 0.960 . S
H967 C954 0.962 . S
H968 C954 0.960 . S
H969 C955 0.961 . S
H970 C955 0.961 . S
H971 C955 0.961 . S
H972 C956 0.931 . S
H973 C961 0.930 . S
H974 C962 0.956 . S
H975 C962 0.961 . S
H976 C962 0.961 . S
H977 C963 0.958 . S
H978 C963 0.961 . S
H979 C963 0.960 . S
C980 C981 1.391 . S
C980 C982 1.394 1_565 S
C980 H996 0.931 . S
C981 C980 1.391 . S
C981 C985 1.376 . S
C982 C980 1.394 1_545 S
C982 C983 1.369 1_545 S
C982 C986 1.531 . S
C983 C982 1.369 1_565 S
C983 C984 1.410 . S
C983 C991 1.503 1_565 S
C984 C983 1.410 . S
C984 C985 1.392 . S
C984 C987 1.511 . S
C985 C981 1.376 . S
C985 C984 1.392 . S
C985 H997 0.929 . S
C986 C982 1.531 . S
C986 H998 0.960 . S
C986 H999 0.962 . S
C986 H1000 0.960 . S
C987 C984 1.511 . S
C987 H1001 0.961 . S
C987 H1002 0.961 . S
C987 H1003 0.961 . S
C988 C989 1.370 . S
C988 C990 1.363 . S
C988 H1004 0.931 . S
C989 C988 1.370 . S
C989 C993 1.408 . S
C990 C988 1.363 . S
C990 C991 1.370 . S
C990 C994 1.524 . S
C991 C983 1.503 1_545 S
C991 C990 1.370 . S
C991 C992 1.403 . S
C992 C991 1.403 . S
C992 C993 1.404 . S
C992 C995 1.539 1_545 S
C993 C989 1.408 . S
C993 C992 1.404 . S
C993 H1005 0.930 . S
C994 C990 1.524 . S
C994 H1006 0.956 . S
C994 H1007 0.961 . S
C994 H1008 0.961 . S
C995 C992 1.539 1_565 S
C995 H1009 0.958 1_565 S
C995 H1010 0.961 . S
C995 H1011 0.960 . S
H996 C980 0.931 . S
H997 C985 0.929 . S
H998 C986 0.960 . S
H999 C986 0.962 . S
H1000 C986 0.960 . S
H1001 C987 0.961 . S
H1002 C987 0.961 . S
H1003 C987 0.961 . S
H1004 C988 0.931 . S
H1005 C993 0.930 . S
H1006 C994 0.956 . S
H1007 C994 0.961 . S
H1008 C994 0.961 . S
H1009 C995 0.958 1_545 S
H1010 C995 0.961 . S
H1011 C995 0.960 . S
C1012 C1013 1.391 . S
C1012 C1014 1.394 . S
C1012 H1028 0.931 . S
C1013 C1012 1.391 . S
C1013 C1017 1.376 . S
C1014 C1012 1.394 . S
C1014 C1015 1.369 1_655 S
C1014 C1018 1.531 1_655 S
C1015 C1014 1.369 1_455 S
C1015 C1016 1.410 1_455 S
C1015 C1023 1.503 . S
C1016 C1015 1.410 1_655 S
C1016 C1017 1.392 . S
C1016 C1019 1.511 . S
C1017 C1013 1.376 . S
C1017 C1016 1.392 . S
C1017 H1029 0.929 . S
C1018 C1014 1.531 1_455 S
C1018 H1030 0.960 . S
C1018 H1031 0.962 . S
C1018 H1032 0.960 . S
C1019 C1016 1.511 . S
C1019 H1033 0.961 . S
C1019 H1034 0.961 . S
C1019 H1035 0.961 1_655 S
C1020 C1021 1.370 . S
C1020 C1022 1.363 . S
C1020 H1036 0.931 . S
C1021 C1020 1.370 . S
C1021 C1025 1.408 . S
C1022 C1020 1.363 . S
C1022 C1023 1.370 . S
C1022 C1026 1.524 1_455 S
C1023 C1015 1.503 . S
C1023 C1022 1.370 . S
C1023 C1024 1.403 . S
C1024 C1023 1.403 . S
C1024 C1025 1.404 . S
C1024 C1027 1.539 . S
C1025 C1021 1.408 . S
C1025 C1024 1.404 . S
C1025 H1037 0.930 . S
C1026 C1022 1.524 1_655 S
C1026 H1038 0.956 . S
C1026 H1039 0.961 . S
C1026 H1040 0.961 . S
C1027 C1024 1.539 . S
C1027 H1041 0.958 . S
C1027 H1042 0.961 . S
C1027 H1043 0.960 . S
H1028 C1012 0.931 . S
H1029 C1017 0.929 . S
H1030 C1018 0.960 . S
H1031 C1018 0.962 . S
H1032 C1018 0.960 . S
H1033 C1019 0.961 . S
H1034 C1019 0.961 . S
H1035 C1019 0.961 1_455 S
H1036 C1020 0.931 . S
H1037 C1025 0.930 . S
H1038 C1026 0.956 . S
H1039 C1026 0.961 . S
H1040 C1026 0.961 . S
H1041 C1027 0.958 . S
H1042 C1027 0.961 . S
H1043 C1027 0.960 . S
C181 C32 1.157 . S
C189 C9 1.043 . S
C213 C42 1.364 . S
C221 C24 1.172 . S
C245 C49 1.136 . S
C253 C2 1.225 . S
C277 C44 1.216 . S
C285 C22 1.443 . S
C309 C52 1.354 . S
C317 C4 1.139 . S
C341 C12 1.198 . S
C349 C29 1.109 1_554 S
C373 C69 1.303 . S
C381 C82 1.416 . S
C405 C102 1.118 . S
C413 C89 1.025 . S
C437 C109 1.108 . S
C445 C62 1.233 . S
C469 C92 1.195 . S
C477 C104 1.031 . S
C501 C112 1.329 . S
C509 C64 1.110 . S
C533 C84 1.188 . S
C541 C72 1.452 . S
C565 C152 1.132 . S
C573 C129 1.054 . S
C597 C144 1.236 . S
C605 C162 1.384 . S
C629 C169 1.109 . S
C637 C122 1.205 . S
C661 C164 1.278 . S
C669 C142 1.409 . S
C693 C172 1.346 . S
C701 C124 1.140 1_565 S
C725 C132 1.200 . S
C733 C149 1.109 . S
C757 C119 2.193 . S
C765 C18 2.145 . S
C789 C79 2.178 . S
C797 C39 2.194 . S
C821 C58 2.259 . S
C829 C99 2.330 . S
C853 C59 2.208 . S
C861 C138 2.137 . S
C885 C19 2.124 . S
C893 C159 2.133 . S
C917 C178 2.241 . S
C925 C38 2.232 . S
C949 C78 2.142 . S
C957 C179 2.233 . S
C981 C98 2.063 . S
C989 C139 2.110 . S
C1013 C158 2.152 . S
C1021 C118 2.180 . S
