# Generated by pormake.
# Topology usf, (4)-cn, num edge types: 1
# Building blocks:
#     Node 0, Type 0, BuildingBlock: NAWXER_clean_sbu_0, # of connection points: 4
#     Node 1, Type 0, BuildingBlock: NAWXER_clean_sbu_0, # of connection points: 4
#     Node 2, Type 0, BuildingBlock: NAWXER_clean_sbu_0, # of connection points: 4
#     Node 3, Type 0, BuildingBlock: NAWXER_clean_sbu_0, # of connection points: 4
#     Node 4, Type 0, BuildingBlock: NAWXER_clean_sbu_0, # of connection points: 4
#     Node 5, Type 0, BuildingBlock: NAWXER_clean_sbu_0, # of connection points: 4
#     Node 6, Type 0, BuildingBlock: NAWXER_clean_sbu_0, # of connection points: 4
#     Node 7, Type 0, BuildingBlock: NAWXER_clean_sbu_0, # of connection points: 4
#     Node 8, Type 0, BuildingBlock: NAWXER_clean_sbu_0, # of connection points: 4
#     Node 9, Type 0, BuildingBlock: NAWXER_clean_sbu_0, # of connection points: 4
#     Node 10, Type 0, BuildingBlock: NAWXER_clean_sbu_0, # of connection points: 4
#     Node 11, Type 0, BuildingBlock: NAWXER_clean_sbu_0, # of connection points: 4
#     Node 12, Type 0, BuildingBlock: NAWXER_clean_sbu_0, # of connection points: 4
#     Node 13, Type 0, BuildingBlock: NAWXER_clean_sbu_0, # of connection points: 4
#     Node 14, Type 0, BuildingBlock: NAWXER_clean_sbu_0, # of connection points: 4
#     Node 15, Type 0, BuildingBlock: NAWXER_clean_sbu_0, # of connection points: 4
#     Node 16, Type 0, BuildingBlock: NAWXER_clean_sbu_0, # of connection points: 4
#     Node 17, Type 0, BuildingBlock: NAWXER_clean_sbu_0, # of connection points: 4
#     Edge 18, Type (0, 0), None
#     Edge 19, Type (0, 0), None
#     Edge 20, Type (0, 0), None
#     Edge 21, Type (0, 0), None
#     Edge 22, Type (0, 0), None
#     Edge 23, Type (0, 0), None
#     Edge 24, Type (0, 0), None
#     Edge 25, Type (0, 0), None
#     Edge 26, Type (0, 0), None
#     Edge 27, Type (0, 0), None
#     Edge 28, Type (0, 0), None
#     Edge 29, Type (0, 0), None
#     Edge 30, Type (0, 0), None
#     Edge 31, Type (0, 0), None
#     Edge 32, Type (0, 0), None
#     Edge 33, Type (0, 0), None
#     Edge 34, Type (0, 0), None
#     Edge 35, Type (0, 0), None
#     Edge 36, Type (0, 0), None
#     Edge 37, Type (0, 0), None
#     Edge 38, Type (0, 0), None
#     Edge 39, Type (0, 0), None
#     Edge 40, Type (0, 0), None
#     Edge 41, Type (0, 0), None
#     Edge 42, Type (0, 0), None
#     Edge 43, Type (0, 0), None
#     Edge 44, Type (0, 0), None
#     Edge 45, Type (0, 0), None
#     Edge 46, Type (0, 0), None
#     Edge 47, Type (0, 0), None
#     Edge 48, Type (0, 0), None
#     Edge 49, Type (0, 0), None
#     Edge 50, Type (0, 0), None
#     Edge 51, Type (0, 0), None
#     Edge 52, Type (0, 0), None
#     Edge 53, Type (0, 0), None
# Relax obj value: 0.054
# Max RMSD: 0.096
# Mean RMSD: 0.096
data_MOF--net-usf--node1-NAWXER_clean_sbu_0--edge1-none
_symmetry_space_group_name_H-M    P1
_symmetry_Int_Tables_number       1
_symmetry_cell_setting            triclinic
loop_
_symmetry_equiv_pos_as_xyz
'x, y, z'
_cell_length_a     20.794234
_cell_length_b     20.746362
_cell_length_c     12.392697
_cell_angle_alpha  89.798898
_cell_angle_beta   90.187698
_cell_angle_gamma 119.70142
loop_
_atom_site_label
_atom_site_type_symbol
_atom_site_fract_x
_atom_site_fract_y
_atom_site_fract_z
_atom_type_partial_charge
C0 C 0.09923 0.5908 0.85024 0.0
C1 C 0.1022 0.53529 0.23311 0.0
O2 O 0.15503 0.61927 0.91216 0.0
Zn3 Zn 0.10231 0.58328 0.04952 0.0
O4 O 0.03441 0.5523 0.89025 0.0
Zn5 Zn 0.98577 0.4975 0.03681 0.0
O6 O 0.9153 0.53286 0.06943 0.0
O7 O 1.02783 0.62952 0.07536 0.0
O8 O 0.03856 0.50145 0.18694 0.0
O9 O 0.15564 0.58974 0.1853 0.0
O10 O 0.07875 0.47748 1.00259 0.0
O11 O 0.96088 0.39543 0.98124 0.0
C12 C 0.95715 0.60252 0.08244 0.0
C13 C 1.02891 0.413 0.97415 0.0
C14 C 0.60834 0.47418 0.17177 0.0
C15 C 0.54942 0.41381 0.79316 0.0
O16 O 0.56004 0.4902 0.13557 0.0
Zn17 Zn 0.49789 0.47825 0.99108 0.0
O18 O 0.63829 0.44855 0.10877 0.0
Zn19 Zn 0.58105 0.44643 0.98165 0.0
O20 O 0.62137 0.56284 0.93581 0.0
O21 O 0.52307 0.57617 0.95652 0.0
O22 O 0.59343 0.40229 0.85038 0.0
O23 O 0.51129 0.43996 0.837 0.0
O24 O 0.39503 0.41055 0.04275 0.0
O25 O 0.473 0.36712 0.04162 0.0
C26 C 0.5903 0.60307 0.9288 0.0
C27 C 0.4095 0.35953 0.0662 0.0
C28 C 0.5539 0.12361 0.18078 0.0
C29 C 0.61603 0.12482 0.79743 0.0
O30 O 0.54152 0.06127 0.14258 0.0
Zn31 Zn 0.55945 1.01488 1.00106 0.0
O32 O 0.58457 0.18157 0.12169 0.0
Zn33 Zn 0.59151 0.13117 0.99068 0.0
O34 O 0.47824 0.05822 0.94678 0.0
O35 O 0.46271 0.94501 0.96584 0.0
O36 O 0.62987 0.18224 0.85189 0.0
O37 O 0.59329 0.06265 0.84572 0.0
O38 O 0.62897 0.98182 0.05357 0.0
O39 O 0.66993 0.10248 0.04959 0.0
C40 C 0.43783 0.98781 0.93851 0.0
C41 C 0.67907 0.04746 0.07507 0.0
C42 C 0.60219 0.12122 0.68043 0.0
C43 C 0.54285 0.12563 0.29769 0.0
O44 O 0.62837 0.17861 0.62051 0.0
Zn45 Zn 0.5726 0.12755 0.48971 0.0
O46 O 0.5532 0.05838 0.64263 0.0
Zn47 Zn 0.48888 1.01287 0.49957 0.0
O48 O 0.51172 0.93972 0.46388 0.0
O49 O 0.61066 0.05092 0.44363 0.0
O50 O 0.50339 0.06277 0.34414 0.0
O51 O 0.5863 0.18187 0.35378 0.0
O52 O 0.46646 0.10125 0.54788 0.0
O53 O 0.38733 0.98083 0.55079 0.0
C54 C 0.57875 0.98006 0.43505 0.0
C55 C 0.40278 0.04648 0.57287 0.0
C56 C 0.10523 0.58246 0.73398 0.0
C57 C 0.10443 0.52049 0.34898 0.0
O58 O 0.04386 0.5499 0.6832 0.0
Zn59 Zn 0.99615 0.50155 0.53652 0.0
O60 O 0.164 0.59041 0.68935 0.0
Zn61 Zn 0.11759 0.53934 0.55169 0.0
O62 O 0.08646 0.61352 0.49902 0.0
O63 O 0.96778 0.57539 0.47489 0.0
O64 O 0.16332 0.55137 0.40603 0.0
O65 O 0.04144 0.49072 0.39463 0.0
O66 O 0.93821 0.39984 0.58177 0.0
O67 O 0.05394 0.42388 0.59647 0.0
C68 C 0.03569 0.62592 0.46652 0.0
C69 C 0.98454 0.37874 0.60743 0.0
C70 C 0.61664 0.47529 0.28926 0.0
C71 C 0.55899 0.42219 0.67601 0.0
O72 O 0.6227 0.42495 0.34008 0.0
Zn73 Zn 0.59022 0.44115 0.48266 0.0
O74 O 0.59746 0.51641 0.33983 0.0
Zn75 Zn 0.56879 0.53423 0.49238 0.0
O76 O 0.65363 0.63238 0.53398 0.0
O77 O 0.68256 0.54359 0.52894 0.0
O78 O 0.55157 0.47449 0.63477 0.0
O79 O 0.58304 0.38766 0.6186 0.0
O80 O 0.47574 0.40906 0.44807 0.0
O81 O 0.46775 0.51101 0.46073 0.0
C82 C 0.70111 0.61112 0.54763 0.0
C83 C 0.43708 0.44154 0.44111 0.0
C84 C 0.5904 0.76652 0.50332 0.0
C85 C 0.57482 0.81941 0.11828 0.0
O86 O 0.64689 0.82157 0.46193 0.0
Zn87 Zn 0.68221 0.88226 0.32024 0.0
O88 O 0.53403 0.7253 0.445 0.0
Zn89 Zn 0.57301 0.78021 0.3083 0.0
O90 O 0.66245 0.76286 0.26566 0.0
O91 O 0.76535 0.87134 0.28152 0.0
O92 O 0.52238 0.76408 0.167 0.0
O93 O 0.63327 0.86339 0.1698 0.0
O94 O 0.68461 0.97374 0.36919 0.0
O95 O 0.57275 0.87499 0.36115 0.0
C96 C 0.73267 0.8028 0.25572 0.0
C97 C 0.61498 0.94293 0.38504 0.0
C98 C 0.21196 0.95686 0.30127 0.0
C99 C 0.06603 0.69353 0.40017 0.0
O100 O 0.25015 0.92336 0.29932 0.0
Zn101 Zn 0.2313 0.81091 0.32229 0.0
O102 O 0.14352 0.92037 0.32421 0.0
Zn103 Zn 0.13447 0.82271 0.34241 0.0
O104 O 0.20106 0.83494 0.48431 0.0
O105 O 0.2928 0.81379 0.44343 0.0
O106 O 0.03821 0.73563 0.39111 0.0
O107 O 0.13304 0.71711 0.37136 0.0
O108 O 0.25087 0.77954 0.18782 0.0
O109 O 0.15472 0.79761 0.18098 0.0
C110 C 0.25581 0.82629 0.51322 0.0
C111 C 0.19962 0.78087 0.13424 0.0
C112 C 0.19589 0.40838 0.54019 0.0
C113 C 0.25043 0.41912 0.15421 0.0
O114 O 0.19767 0.35245 0.50162 0.0
Zn115 Zn 0.22096 0.31575 0.35881 0.0
O116 O 0.20795 0.46294 0.47996 0.0
Zn117 Zn 0.22207 0.42242 0.34615 0.0
O118 O 0.11475 0.32635 0.31731 0.0
O119 O 0.12248 0.22433 0.32959 0.0
O120 O 0.24564 0.47037 0.20374 0.0
O121 O 0.24078 0.36167 0.20529 0.0
O122 O 0.32087 0.32953 0.39856 0.0
O123 O 0.32595 0.43751 0.38814 0.0
C124 C 0.08348 0.25538 0.3113 0.0
C125 C 0.35797 0.40008 0.40765 0.0
C126 C 0.20128 0.24596 0.81678 0.0
C127 C 0.05942 0.37122 0.91857 0.0
O128 O 0.13235 0.21347 0.83861 0.0
Zn129 Zn 0.12252 0.30243 0.86255 0.0
O130 O 0.23914 0.31723 0.81879 0.0
Zn131 Zn 0.22281 0.41098 0.84537 0.0
O132 O 0.28097 0.46252 0.97202 0.0
O133 O 0.1864 0.34993 1.00446 0.0
O134 O 0.12708 0.41131 0.89164 0.0
O135 O 1.02908 0.30095 0.91151 0.0
O136 O 0.14538 0.35006 0.70466 0.0
O137 O 0.24381 0.46232 0.70915 0.0
C138 C 0.24126 0.41084 0.03782 0.0
C139 C 0.19106 0.41048 0.65684 0.0
C140 C 0.75718 0.94888 0.78997 0.0
C141 C 0.62778 0.67882 0.88382 0.0
O142 O 0.78668 0.909 0.8094 0.0
Zn143 Zn 0.69586 0.81049 0.82854 0.0
O144 O 0.68582 0.91724 0.78815 0.0
Zn145 Zn 0.58962 0.80486 0.80907 0.0
O146 O 0.53475 0.81059 0.93367 0.0
O147 O 0.64557 0.82465 0.97015 0.0
O148 O 0.58611 0.70555 0.85898 0.0
O149 O 0.69784 0.71906 0.87449 0.0
O150 O 0.64976 0.78186 0.67019 0.0
O151 O 0.53964 0.77279 0.67034 0.0
C152 C 0.58452 0.81958 1.00162 0.0
C153 C 0.5893 0.76585 0.6211 0.0
C154 C 0.20596 0.78612 0.01728 0.0
C155 C 0.27046 0.82866 0.62897 0.0
O156 O 0.22871 0.74953 0.96317 0.0
Zn157 Zn 0.24127 0.79581 0.82159 0.0
O158 O 0.20336 0.84033 0.97389 0.0
Zn159 Zn 0.23545 0.89956 0.83099 0.0
O160 O 0.14348 0.89177 0.78713 0.0
O161 O 0.13721 0.78176 0.7797 0.0
O162 O 0.26021 0.87568 0.68031 0.0
O163 O 0.26919 0.77408 0.67913 0.0
O164 O 0.33635 0.88623 0.86729 0.0
O165 O 0.32746 0.98762 0.87817 0.0
C166 C 0.10803 0.82255 0.76438 0.0
C167 C 0.36439 0.95418 0.89109 0.0
C168 C 0.40097 0.16798 0.92758 0.0
C169 C 0.39047 0.23544 0.54631 0.0
O170 O 0.4518 0.22691 0.88384 0.0
Zn171 Zn 0.39996 0.22054 0.74625 0.0
O172 O 0.34028 0.12888 0.87601 0.0
Zn173 Zn 0.28844 0.12001 0.72448 0.0
O174 O 0.2883 0.03219 0.6525 0.0
O175 O 0.39775 0.12943 0.68519 0.0
O176 O 0.32889 0.18571 0.58503 0.0
O177 O 0.44523 0.27208 0.60918 0.0
O178 O 0.31055 0.23979 0.78162 0.0
O179 O 0.2043 0.1353 0.76295 0.0
C180 C 0.35891 0.06557 0.64485 0.0
C181 C 0.23959 0.20416 0.78696 0.0
C182 C 0.8509 0.22778 0.9285 0.0
C183 C 0.79245 0.16248 0.54059 0.0
O184 O 0.79281 0.22404 0.88711 0.0
Zn185 Zn 0.79726 0.18287 0.74175 0.0
O186 O 0.88756 0.20529 0.87366 0.0
Zn187 Zn 0.89969 0.16996 0.7239 0.0
O188 O 0.98799 0.26617 0.66567 0.0
O189 O 0.88864 0.27593 0.68912 0.0
O190 O 0.84154 0.15172 0.58424 0.0
O191 O 0.75385 0.18138 0.59819 0.0
O192 O 0.77113 0.07017 0.76668 0.0
O193 O 0.87349 0.06356 0.75402 0.0
C194 C 0.95502 0.30444 0.65823 0.0
C195 C 0.80342 0.03115 0.7699 0.0
C196 C 0.03518 0.78954 0.71436 0.0
C197 C 0.77749 0.66091 0.58642 0.0
O198 O 1.01059 0.83254 0.68739 0.0
Zn199 Zn 0.91275 0.82685 0.6308 0.0
O200 O 0.99645 0.71978 0.69834 0.0
Zn201 Zn 0.9088 0.72003 0.64611 0.0
O202 O 0.94131 0.76838 0.49616 0.0
O203 O 0.94932 0.87795 0.489 0.0
O204 O 0.81762 0.63264 0.61187 0.0
O205 O 0.80467 0.73162 0.59198 0.0
O206 O 0.90057 0.86911 0.76755 0.0
O207 O 0.88444 0.75606 0.7865 0.0
C208 C 0.95703 0.82709 0.44357 0.0
C209 C 0.88787 0.81376 0.82734 0.0
C210 C 0.95482 0.81867 0.32625 0.0
C211 C 0.89355 0.81643 0.945 0.0
O212 O 0.99456 0.87068 0.26062 0.0
Zn213 Zn 0.9395 0.81607 0.13088 0.0
O214 O 0.90324 0.75642 0.29132 0.0
Zn215 Zn 0.84253 0.70813 0.14919 0.0
O216 O 0.85445 0.62088 0.12517 0.0
O217 O 0.96228 0.72257 0.10619 0.0
O218 O 0.85287 0.75547 0.9949 0.0
O219 O 0.95147 0.86652 0.99122 0.0
O220 O 0.84236 0.81608 0.18305 0.0
O221 O 0.74959 0.70125 0.19883 0.0
C222 C 0.92345 0.65092 0.10585 0.0
C223 C 0.7757 0.77103 0.2098 0.0
C224 C 0.3649 0.29732 0.13994 0.0
C225 C 0.24844 0.03721 0.27583 0.0
O226 O 0.40356 0.27274 0.18347 0.0
Zn227 Zn 0.40614 0.18414 0.24513 0.0
O228 O 0.29421 0.25915 0.14421 0.0
Zn229 Zn 0.29278 0.17081 0.21951 0.0
O230 O 0.33855 0.20944 0.37331 0.0
O231 O 0.45167 0.22693 0.38753 0.0
O232 O 0.21139 0.06954 0.25254 0.0
O233 O 0.31932 0.07426 0.27429 0.0
O234 O 0.453 0.17974 0.10724 0.0
O235 O 0.33542 0.14658 0.08469 0.0
C236 C 0.39772 0.23117 0.42866 0.0
C237 C 0.39686 0.15873 0.04552 0.0
C238 C 0.86657 0.23547 0.04529 0.0
C239 C 0.80075 0.17233 0.42377 0.0
O240 O 0.88538 0.1899 0.08344 0.0
Zn241 Zn 0.86801 0.12589 0.22334 0.0
O242 O 0.85027 0.27347 0.10888 0.0
Zn243 Zn 0.85379 0.22441 0.24461 0.0
O244 O 0.96579 0.2475 0.27711 0.0
O245 O 0.96981 0.14382 0.2589 0.0
O246 O 0.8093 0.23166 0.37998 0.0
O247 O 0.82353 0.1331 0.37453 0.0
O248 O 0.78214 0.03602 0.15223 0.0
O249 O 0.7645 0.12998 0.18954 0.0
C250 C 1.00275 0.2128 0.28186 0.0
C251 C 0.74176 0.06663 0.14818 0.0
loop_
_geom_bond_atom_site_label_1
_geom_bond_atom_site_label_2
_geom_bond_distance
_geom_bond_site_symmetry_2
_ccdc_geom_bond_type
C0 O2 1.247 1_655 S
C0 O4 1.258 . S
C1 O8 1.247 1_455 S
C1 O9 1.258 . S
O2 C0 1.247 1_455 S
O2 Zn3 2.028 1_556 S
Zn3 O2 2.028 1_554 S
Zn3 O7 2.021 1_455 S
Zn3 O9 2.035 . S
Zn3 O10 2.028 1_554 S
O4 C0 1.258 . S
O4 Zn5 2.035 1_556 S
Zn5 O4 2.035 1_554 S
Zn5 O6 2.028 . S
Zn5 O8 2.028 . S
Zn5 O11 2.017 1_654 S
O6 Zn5 2.028 . S
O6 C12 1.247 . S
O7 Zn3 2.021 1_655 S
O7 C12 1.270 . S
O8 C1 1.247 1_655 S
O8 Zn5 2.028 . S
O9 C1 1.258 . S
O9 Zn3 2.035 . S
O10 Zn3 2.028 1_556 S
O10 C13 1.247 . S
O11 Zn5 2.017 1_456 S
O11 C13 1.274 . S
C12 O6 1.247 . S
C12 O7 1.270 . S
C13 O10 1.247 . S
C13 O11 1.274 . S
C14 O16 1.247 . S
C14 O18 1.258 . S
C15 O22 1.247 . S
C15 O23 1.258 . S
O16 C14 1.247 . S
O16 Zn17 2.028 . S
Zn17 O16 2.028 . S
Zn17 O21 2.035 1_554 S
Zn17 O23 2.035 1_554 S
Zn17 O24 2.028 . S
O18 C14 1.258 . S
O18 Zn19 2.034 . S
Zn19 O18 2.034 . S
Zn19 O20 2.028 1_554 S
Zn19 O22 2.029 1_554 S
Zn19 O25 2.035 . S
O20 Zn19 2.028 1_556 S
O20 C26 1.247 . S
O21 Zn17 2.035 1_556 S
O21 C26 1.258 . S
O22 C15 1.247 . S
O22 Zn19 2.029 1_556 S
O23 C15 1.258 . S
O23 Zn17 2.035 1_556 S
O24 Zn17 2.028 . S
O24 C27 1.247 . S
O25 Zn19 2.035 . S
O25 C27 1.258 . S
C26 O20 1.247 . S
C26 O21 1.258 . S
C27 O24 1.247 . S
C27 O25 1.258 . S
C28 O30 1.247 . S
C28 O32 1.258 1_565 S
C29 O36 1.247 . S
C29 O37 1.258 1_545 S
O30 C28 1.247 . S
O30 Zn31 2.028 . S
Zn31 O30 2.028 . S
Zn31 O35 2.035 1_554 S
Zn31 O37 2.035 1_554 S
Zn31 O38 2.028 1_565 S
O32 C28 1.258 1_545 S
O32 Zn33 2.034 . S
Zn33 O32 2.034 . S
Zn33 O34 2.030 1_554 S
Zn33 O36 2.029 1_554 S
Zn33 O39 2.035 . S
O34 Zn33 2.030 1_556 S
O34 C40 1.238 1_545 S
O35 Zn31 2.035 1_556 S
O35 C40 1.258 . S
O36 C29 1.247 . S
O36 Zn33 2.029 1_556 S
O37 C29 1.258 1_565 S
O37 Zn31 2.035 1_556 S
O38 Zn31 2.028 1_545 S
O38 C41 1.247 . S
O39 Zn33 2.035 . S
O39 C41 1.258 . S
C40 O34 1.238 1_565 S
C40 O35 1.258 . S
C41 O38 1.247 . S
C41 O39 1.258 . S
C42 O44 1.247 1_565 S
C42 O46 1.258 . S
C43 O50 1.247 1_545 S
C43 O51 1.258 . S
O44 C42 1.247 1_545 S
O44 Zn45 2.028 . S
Zn45 O44 2.028 . S
Zn45 O49 2.050 . S
Zn45 O51 2.035 . S
Zn45 O52 2.028 . S
O46 C42 1.258 . S
O46 Zn47 2.035 . S
Zn47 O46 2.035 . S
Zn47 O48 2.028 . S
Zn47 O50 2.028 . S
Zn47 O53 2.035 1_565 S
O48 Zn47 2.028 . S
O48 C54 1.247 . S
O49 Zn45 2.050 . S
O49 C54 1.245 1_545 S
O50 C43 1.247 1_565 S
O50 Zn47 2.028 . S
O51 C43 1.258 . S
O51 Zn45 2.035 . S
O52 Zn45 2.028 . S
O52 C55 1.247 . S
O53 Zn47 2.035 1_545 S
O53 C55 1.258 . S
C54 O48 1.247 . S
C54 O49 1.245 1_565 S
C55 O52 1.247 . S
C55 O53 1.258 . S
C56 O58 1.247 1_455 S
C56 O60 1.258 . S
C57 O64 1.247 1_655 S
C57 O65 1.258 . S
O58 C56 1.247 1_655 S
O58 Zn59 2.028 . S
Zn59 O58 2.028 . S
Zn59 O63 2.032 1_655 S
Zn59 O65 2.035 . S
Zn59 O66 2.028 . S
O60 C56 1.258 . S
O60 Zn61 2.035 . S
Zn61 O60 2.035 . S
Zn61 O62 2.028 . S
Zn61 O64 2.028 . S
Zn61 O67 2.033 1_455 S
O62 Zn61 2.028 . S
O62 C68 1.247 . S
O63 Zn59 2.032 1_455 S
O63 C68 1.275 . S
O64 C57 1.247 1_455 S
O64 Zn61 2.028 . S
O65 C57 1.258 . S
O65 Zn59 2.035 . S
O66 Zn59 2.028 . S
O66 C69 1.247 . S
O67 Zn61 2.033 1_655 S
O67 C69 1.271 . S
C68 O62 1.247 . S
C68 O63 1.275 . S
C69 O66 1.247 . S
C69 O67 1.271 . S
C70 O72 1.247 . S
C70 O74 1.258 . S
C71 O78 1.247 . S
C71 O79 1.258 . S
O72 C70 1.247 . S
O72 Zn73 2.028 . S
Zn73 O72 2.028 . S
Zn73 O77 2.035 . S
Zn73 O79 2.035 . S
Zn73 O80 2.028 . S
O74 C70 1.258 . S
O74 Zn75 2.035 . S
Zn75 O74 2.035 . S
Zn75 O76 2.028 . S
Zn75 O78 2.028 . S
Zn75 O81 2.035 . S
O76 Zn75 2.028 . S
O76 C82 1.247 . S
O77 Zn73 2.035 . S
O77 C82 1.258 . S
O78 C71 1.247 . S
O78 Zn75 2.028 . S
O79 C71 1.258 . S
O79 Zn73 2.035 . S
O80 Zn73 2.028 . S
O80 C83 1.247 . S
O81 Zn75 2.035 . S
O81 C83 1.258 . S
C82 O76 1.247 . S
C82 O77 1.258 . S
C83 O80 1.247 . S
C83 O81 1.258 . S
C84 O86 1.247 . S
C84 O88 1.258 . S
C85 O92 1.247 . S
C85 O93 1.258 . S
O86 C84 1.247 . S
O86 Zn87 2.028 . S
Zn87 O86 2.028 . S
Zn87 O91 2.035 . S
Zn87 O93 2.035 . S
Zn87 O94 2.028 . S
O88 C84 1.258 . S
O88 Zn89 2.035 . S
Zn89 O88 2.035 . S
Zn89 O90 2.028 . S
Zn89 O92 2.028 . S
Zn89 O95 2.035 . S
O90 Zn89 2.028 . S
O90 C96 1.247 . S
O91 Zn87 2.035 . S
O91 C96 1.258 . S
O92 C85 1.247 . S
O92 Zn89 2.028 . S
O93 C85 1.258 . S
O93 Zn87 2.035 . S
O94 Zn87 2.028 . S
O94 C97 1.247 . S
O95 Zn89 2.035 . S
O95 C97 1.258 . S
C96 O90 1.247 . S
C96 O91 1.258 . S
C97 O94 1.247 . S
C97 O95 1.258 . S
C98 O100 1.247 . S
C98 O102 1.258 . S
C99 O106 1.247 . S
C99 O107 1.258 . S
O100 C98 1.247 . S
O100 Zn101 2.028 . S
Zn101 O100 2.028 . S
Zn101 O105 2.035 . S
Zn101 O107 2.035 . S
Zn101 O108 2.028 . S
O102 C98 1.258 . S
O102 Zn103 2.035 . S
Zn103 O102 2.035 . S
Zn103 O104 2.028 . S
Zn103 O106 2.028 . S
Zn103 O109 2.035 . S
O104 Zn103 2.028 . S
O104 C110 1.247 . S
O105 Zn101 2.035 . S
O105 C110 1.258 . S
O106 C99 1.247 . S
O106 Zn103 2.028 . S
O107 C99 1.258 . S
O107 Zn101 2.035 . S
O108 Zn101 2.028 . S
O108 C111 1.247 . S
O109 Zn103 2.035 . S
O109 C111 1.258 . S
C110 O104 1.247 . S
C110 O105 1.258 . S
C111 O108 1.247 . S
C111 O109 1.258 . S
C112 O114 1.247 . S
C112 O116 1.258 . S
C113 O120 1.247 . S
C113 O121 1.258 . S
O114 C112 1.247 . S
O114 Zn115 2.028 . S
Zn115 O114 2.028 . S
Zn115 O119 2.035 . S
Zn115 O121 2.035 . S
Zn115 O122 2.028 . S
O116 C112 1.258 . S
O116 Zn117 2.035 . S
Zn117 O116 2.035 . S
Zn117 O118 2.028 . S
Zn117 O120 2.028 . S
Zn117 O123 2.035 . S
O118 Zn117 2.028 . S
O118 C124 1.247 . S
O119 Zn115 2.035 . S
O119 C124 1.258 . S
O120 C113 1.247 . S
O120 Zn117 2.028 . S
O121 C113 1.258 . S
O121 Zn115 2.035 . S
O122 Zn115 2.028 . S
O122 C125 1.247 . S
O123 Zn117 2.035 . S
O123 C125 1.258 . S
C124 O118 1.247 . S
C124 O119 1.258 . S
C125 O122 1.247 . S
C125 O123 1.258 . S
C126 O128 1.247 . S
C126 O130 1.258 . S
C127 O134 1.247 . S
C127 O135 1.258 . S
O128 C126 1.247 . S
O128 Zn129 2.028 . S
Zn129 O128 2.028 . S
Zn129 O133 2.035 . S
Zn129 O135 2.035 . S
Zn129 O136 2.028 . S
O130 C126 1.258 . S
O130 Zn131 2.035 . S
Zn131 O130 2.035 . S
Zn131 O132 2.028 . S
Zn131 O134 2.028 . S
Zn131 O137 2.035 . S
O132 Zn131 2.028 . S
O132 C138 1.247 1_556 S
O133 Zn129 2.035 . S
O133 C138 1.258 1_556 S
O134 C127 1.247 . S
O134 Zn131 2.028 . S
O135 C127 1.258 . S
O135 Zn129 2.035 . S
O136 Zn129 2.028 . S
O136 C139 1.247 . S
O137 Zn131 2.035 . S
O137 C139 1.258 . S
C138 O132 1.247 1_554 S
C138 O133 1.258 1_554 S
C139 O136 1.247 . S
C139 O137 1.258 . S
C140 O142 1.247 . S
C140 O144 1.258 . S
C141 O148 1.247 . S
C141 O149 1.258 . S
O142 C140 1.247 . S
O142 Zn143 2.028 . S
Zn143 O142 2.028 . S
Zn143 O147 2.035 . S
Zn143 O149 2.035 . S
Zn143 O150 2.028 . S
O144 C140 1.258 . S
O144 Zn145 2.035 . S
Zn145 O144 2.035 . S
Zn145 O146 2.028 . S
Zn145 O148 2.028 . S
Zn145 O151 2.035 . S
O146 Zn145 2.028 . S
O146 C152 1.247 1_556 S
O147 Zn143 2.035 . S
O147 C152 1.258 1_556 S
O148 C141 1.247 . S
O148 Zn145 2.028 . S
O149 C141 1.258 . S
O149 Zn143 2.035 . S
O150 Zn143 2.028 . S
O150 C153 1.247 . S
O151 Zn145 2.035 . S
O151 C153 1.258 . S
C152 O146 1.247 1_554 S
C152 O147 1.258 1_554 S
C153 O150 1.247 . S
C153 O151 1.258 . S
C154 O156 1.247 1_554 S
C154 O158 1.258 1_554 S
C155 O162 1.247 . S
C155 O163 1.258 . S
O156 C154 1.247 1_556 S
O156 Zn157 2.028 . S
Zn157 O156 2.028 . S
Zn157 O161 2.035 . S
Zn157 O163 2.035 . S
Zn157 O164 2.028 . S
O158 C154 1.258 1_556 S
O158 Zn159 2.035 . S
Zn159 O158 2.035 . S
Zn159 O160 2.028 . S
Zn159 O162 2.028 . S
Zn159 O165 2.035 . S
O160 Zn159 2.028 . S
O160 C166 1.247 . S
O161 Zn157 2.035 . S
O161 C166 1.258 . S
O162 C155 1.247 . S
O162 Zn159 2.028 . S
O163 C155 1.258 . S
O163 Zn157 2.035 . S
O164 Zn157 2.028 . S
O164 C167 1.247 . S
O165 Zn159 2.035 . S
O165 C167 1.258 . S
C166 O160 1.247 . S
C166 O161 1.258 . S
C167 O164 1.247 . S
C167 O165 1.258 . S
C168 O170 1.247 . S
C168 O172 1.258 . S
C169 O176 1.247 . S
C169 O177 1.258 . S
O170 C168 1.247 . S
O170 Zn171 2.028 . S
Zn171 O170 2.028 . S
Zn171 O175 2.035 . S
Zn171 O177 2.035 . S
Zn171 O178 2.028 . S
O172 C168 1.258 . S
O172 Zn173 2.035 . S
Zn173 O172 2.035 . S
Zn173 O174 2.028 . S
Zn173 O176 2.028 . S
Zn173 O179 2.035 . S
O174 Zn173 2.028 . S
O174 C180 1.247 . S
O175 Zn171 2.035 . S
O175 C180 1.258 . S
O176 C169 1.247 . S
O176 Zn173 2.028 . S
O177 C169 1.258 . S
O177 Zn171 2.035 . S
O178 Zn171 2.028 . S
O178 C181 1.247 . S
O179 Zn173 2.035 . S
O179 C181 1.258 . S
C180 O174 1.247 . S
C180 O175 1.258 . S
C181 O178 1.247 . S
C181 O179 1.258 . S
C182 O184 1.247 . S
C182 O186 1.258 . S
C183 O190 1.247 . S
C183 O191 1.258 . S
O184 C182 1.247 . S
O184 Zn185 2.028 . S
Zn185 O184 2.028 . S
Zn185 O189 2.035 . S
Zn185 O191 2.035 . S
Zn185 O192 2.028 . S
O186 C182 1.258 . S
O186 Zn187 2.035 . S
Zn187 O186 2.035 . S
Zn187 O188 2.028 . S
Zn187 O190 2.028 . S
Zn187 O193 2.035 . S
O188 Zn187 2.028 . S
O188 C194 1.247 . S
O189 Zn185 2.035 . S
O189 C194 1.258 . S
O190 C183 1.247 . S
O190 Zn187 2.028 . S
O191 C183 1.258 . S
O191 Zn185 2.035 . S
O192 Zn185 2.028 . S
O192 C195 1.247 . S
O193 Zn187 2.035 . S
O193 C195 1.258 . S
C194 O188 1.247 . S
C194 O189 1.258 . S
C195 O192 1.247 . S
C195 O193 1.258 . S
C196 O198 1.247 . S
C196 O200 1.258 . S
C197 O204 1.247 . S
C197 O205 1.258 . S
O198 C196 1.247 . S
O198 Zn199 2.028 . S
Zn199 O198 2.028 . S
Zn199 O203 2.035 . S
Zn199 O205 2.035 . S
Zn199 O206 2.028 . S
O200 C196 1.258 . S
O200 Zn201 2.035 . S
Zn201 O200 2.035 . S
Zn201 O202 2.028 . S
Zn201 O204 2.028 . S
Zn201 O207 2.035 . S
O202 Zn201 2.028 . S
O202 C208 1.247 . S
O203 Zn199 2.035 . S
O203 C208 1.258 . S
O204 C197 1.247 . S
O204 Zn201 2.028 . S
O205 C197 1.258 . S
O205 Zn199 2.035 . S
O206 Zn199 2.028 . S
O206 C209 1.247 . S
O207 Zn201 2.035 . S
O207 C209 1.258 . S
C208 O202 1.247 . S
C208 O203 1.258 . S
C209 O206 1.247 . S
C209 O207 1.258 . S
C210 O212 1.247 . S
C210 O214 1.258 . S
C211 O218 1.247 1_556 S
C211 O219 1.258 1_556 S
O212 C210 1.247 . S
O212 Zn213 2.028 . S
Zn213 O212 2.028 . S
Zn213 O217 2.035 . S
Zn213 O219 2.035 . S
Zn213 O220 2.028 . S
O214 C210 1.258 . S
O214 Zn215 2.035 . S
Zn215 O214 2.035 . S
Zn215 O216 2.028 . S
Zn215 O218 2.028 . S
Zn215 O221 2.035 . S
O216 Zn215 2.028 . S
O216 C222 1.247 . S
O217 Zn213 2.035 . S
O217 C222 1.258 . S
O218 C211 1.247 1_554 S
O218 Zn215 2.028 . S
O219 C211 1.258 1_554 S
O219 Zn213 2.035 . S
O220 Zn213 2.028 . S
O220 C223 1.247 . S
O221 Zn215 2.035 . S
O221 C223 1.258 . S
C222 O216 1.247 . S
C222 O217 1.258 . S
C223 O220 1.247 . S
C223 O221 1.258 . S
C224 O226 1.247 . S
C224 O228 1.258 . S
C225 O232 1.247 . S
C225 O233 1.258 . S
O226 C224 1.247 . S
O226 Zn227 2.028 . S
Zn227 O226 2.028 . S
Zn227 O231 2.035 . S
Zn227 O233 2.035 . S
Zn227 O234 2.028 . S
O228 C224 1.258 . S
O228 Zn229 2.035 . S
Zn229 O228 2.035 . S
Zn229 O230 2.028 . S
Zn229 O232 2.028 . S
Zn229 O235 2.035 . S
O230 Zn229 2.028 . S
O230 C236 1.247 . S
O231 Zn227 2.035 . S
O231 C236 1.258 . S
O232 C225 1.247 . S
O232 Zn229 2.028 . S
O233 C225 1.258 . S
O233 Zn227 2.035 . S
O234 Zn227 2.028 . S
O234 C237 1.247 1_554 S
O235 Zn229 2.035 . S
O235 C237 1.258 1_554 S
C236 O230 1.247 . S
C236 O231 1.258 . S
C237 O234 1.247 1_556 S
C237 O235 1.258 1_556 S
C238 O240 1.247 1_556 S
C238 O242 1.258 1_556 S
C239 O246 1.247 . S
C239 O247 1.258 . S
O240 C238 1.247 1_554 S
O240 Zn241 2.028 . S
Zn241 O240 2.028 . S
Zn241 O245 2.035 . S
Zn241 O247 2.035 . S
Zn241 O248 2.028 . S
O242 C238 1.258 1_554 S
O242 Zn243 2.035 . S
Zn243 O242 2.035 . S
Zn243 O244 2.028 . S
Zn243 O246 2.028 . S
Zn243 O249 2.035 . S
O244 Zn243 2.028 . S
O244 C250 1.247 . S
O245 Zn241 2.035 . S
O245 C250 1.258 . S
O246 C239 1.247 . S
O246 Zn243 2.028 . S
O247 C239 1.258 . S
O247 Zn241 2.035 . S
O248 Zn241 2.028 . S
O248 C251 1.247 . S
O249 Zn243 2.035 . S
O249 C251 1.258 . S
C250 O244 1.247 . S
C250 O245 1.258 . S
C251 O248 1.247 . S
C251 O249 1.258 . S
C57 C1 1.305 1_655 S
C70 C14 1.309 . S
C28 C43 1.307 1_565 S
C56 C0 1.305 1_455 S
C71 C15 1.309 . S
C29 C42 1.307 1_545 S
C153 C84 1.307 . S
C155 C110 1.307 . S
C112 C139 1.307 . S
C85 C152 1.307 . S
C154 C111 1.307 . S
C138 C113 1.307 . S
C237 C168 1.307 . S
C182 C238 1.309 . S
C211 C209 1.305 . S
C236 C169 1.307 . S
C239 C183 1.309 . S
C208 C210 1.305 . S
C13 C127 1.653 . S
C141 C26 1.655 . S
C167 C40 1.655 . S
C55 C180 1.654 . S
C194 C69 1.655 . S
C197 C82 1.654 . S
C222 C12 1.656 . S
C224 C27 1.654 . S
C251 C41 1.654 . S
C54 C97 1.654 . S
C68 C99 1.654 . S
C125 C83 1.654 . S
C223 C96 1.654 . S
C225 C98 1.654 1_545 S
C124 C250 1.654 1_455 S
C181 C126 1.654 . S
C195 C140 1.654 1_545 S
C166 C196 1.654 1_455 S
