# Generated by pormake.
# Topology uno, (4)-cn, num edge types: 1
# Building blocks:
#     Node 0, Type 0, BuildingBlock: ESEHIV_clean_sbu_0, # of connection points: 4
#     Node 1, Type 0, BuildingBlock: ESEHIV_clean_sbu_0, # of connection points: 4
#     Node 2, Type 0, BuildingBlock: ESEHIV_clean_sbu_0, # of connection points: 4
#     Node 3, Type 0, BuildingBlock: ESEHIV_clean_sbu_0, # of connection points: 4
#     Node 4, Type 0, BuildingBlock: ESEHIV_clean_sbu_0, # of connection points: 4
#     Node 5, Type 0, BuildingBlock: ESEHIV_clean_sbu_0, # of connection points: 4
#     Node 6, Type 0, BuildingBlock: ESEHIV_clean_sbu_0, # of connection points: 4
#     Node 7, Type 0, BuildingBlock: ESEHIV_clean_sbu_0, # of connection points: 4
#     Node 8, Type 0, BuildingBlock: ESEHIV_clean_sbu_0, # of connection points: 4
#     Node 9, Type 0, BuildingBlock: ESEHIV_clean_sbu_0, # of connection points: 4
#     Node 10, Type 0, BuildingBlock: ESEHIV_clean_sbu_0, # of connection points: 4
#     Node 11, Type 0, BuildingBlock: ESEHIV_clean_sbu_0, # of connection points: 4
#     Node 12, Type 0, BuildingBlock: ESEHIV_clean_sbu_0, # of connection points: 4
#     Node 13, Type 0, BuildingBlock: ESEHIV_clean_sbu_0, # of connection points: 4
#     Node 14, Type 0, BuildingBlock: ESEHIV_clean_sbu_0, # of connection points: 4
#     Node 15, Type 0, BuildingBlock: ESEHIV_clean_sbu_0, # of connection points: 4
#     Node 16, Type 0, BuildingBlock: ESEHIV_clean_sbu_0, # of connection points: 4
#     Node 17, Type 0, BuildingBlock: ESEHIV_clean_sbu_0, # of connection points: 4
#     Node 18, Type 0, BuildingBlock: ESEHIV_clean_sbu_0, # of connection points: 4
#     Node 19, Type 0, BuildingBlock: ESEHIV_clean_sbu_0, # of connection points: 4
#     Node 20, Type 0, BuildingBlock: ESEHIV_clean_sbu_0, # of connection points: 4
#     Node 21, Type 0, BuildingBlock: ESEHIV_clean_sbu_0, # of connection points: 4
#     Node 22, Type 0, BuildingBlock: ESEHIV_clean_sbu_0, # of connection points: 4
#     Node 23, Type 0, BuildingBlock: ESEHIV_clean_sbu_0, # of connection points: 4
#     Edge 24, Type (0, 0), BuildingBlock: UVAHIK_clean_linker_0, # of connection points: 2
#     Edge 25, Type (0, 0), BuildingBlock: UVAHIK_clean_linker_0, # of connection points: 2
#     Edge 26, Type (0, 0), BuildingBlock: UVAHIK_clean_linker_0, # of connection points: 2
#     Edge 27, Type (0, 0), BuildingBlock: UVAHIK_clean_linker_0, # of connection points: 2
#     Edge 28, Type (0, 0), BuildingBlock: UVAHIK_clean_linker_0, # of connection points: 2
#     Edge 29, Type (0, 0), BuildingBlock: UVAHIK_clean_linker_0, # of connection points: 2
#     Edge 30, Type (0, 0), BuildingBlock: UVAHIK_clean_linker_0, # of connection points: 2
#     Edge 31, Type (0, 0), BuildingBlock: UVAHIK_clean_linker_0, # of connection points: 2
#     Edge 32, Type (0, 0), BuildingBlock: UVAHIK_clean_linker_0, # of connection points: 2
#     Edge 33, Type (0, 0), BuildingBlock: UVAHIK_clean_linker_0, # of connection points: 2
#     Edge 34, Type (0, 0), BuildingBlock: UVAHIK_clean_linker_0, # of connection points: 2
#     Edge 35, Type (0, 0), BuildingBlock: UVAHIK_clean_linker_0, # of connection points: 2
#     Edge 36, Type (0, 0), BuildingBlock: UVAHIK_clean_linker_0, # of connection points: 2
#     Edge 37, Type (0, 0), BuildingBlock: UVAHIK_clean_linker_0, # of connection points: 2
#     Edge 38, Type (0, 0), BuildingBlock: UVAHIK_clean_linker_0, # of connection points: 2
#     Edge 39, Type (0, 0), BuildingBlock: UVAHIK_clean_linker_0, # of connection points: 2
#     Edge 40, Type (0, 0), BuildingBlock: UVAHIK_clean_linker_0, # of connection points: 2
#     Edge 41, Type (0, 0), BuildingBlock: UVAHIK_clean_linker_0, # of connection points: 2
#     Edge 42, Type (0, 0), BuildingBlock: UVAHIK_clean_linker_0, # of connection points: 2
#     Edge 43, Type (0, 0), BuildingBlock: UVAHIK_clean_linker_0, # of connection points: 2
#     Edge 44, Type (0, 0), BuildingBlock: UVAHIK_clean_linker_0, # of connection points: 2
#     Edge 45, Type (0, 0), BuildingBlock: UVAHIK_clean_linker_0, # of connection points: 2
#     Edge 46, Type (0, 0), BuildingBlock: UVAHIK_clean_linker_0, # of connection points: 2
#     Edge 47, Type (0, 0), BuildingBlock: UVAHIK_clean_linker_0, # of connection points: 2
#     Edge 48, Type (0, 0), BuildingBlock: UVAHIK_clean_linker_0, # of connection points: 2
#     Edge 49, Type (0, 0), BuildingBlock: UVAHIK_clean_linker_0, # of connection points: 2
#     Edge 50, Type (0, 0), BuildingBlock: UVAHIK_clean_linker_0, # of connection points: 2
#     Edge 51, Type (0, 0), BuildingBlock: UVAHIK_clean_linker_0, # of connection points: 2
#     Edge 52, Type (0, 0), BuildingBlock: UVAHIK_clean_linker_0, # of connection points: 2
#     Edge 53, Type (0, 0), BuildingBlock: UVAHIK_clean_linker_0, # of connection points: 2
#     Edge 54, Type (0, 0), BuildingBlock: UVAHIK_clean_linker_0, # of connection points: 2
#     Edge 55, Type (0, 0), BuildingBlock: UVAHIK_clean_linker_0, # of connection points: 2
#     Edge 56, Type (0, 0), BuildingBlock: UVAHIK_clean_linker_0, # of connection points: 2
#     Edge 57, Type (0, 0), BuildingBlock: UVAHIK_clean_linker_0, # of connection points: 2
#     Edge 58, Type (0, 0), BuildingBlock: UVAHIK_clean_linker_0, # of connection points: 2
#     Edge 59, Type (0, 0), BuildingBlock: UVAHIK_clean_linker_0, # of connection points: 2
#     Edge 60, Type (0, 0), BuildingBlock: UVAHIK_clean_linker_0, # of connection points: 2
#     Edge 61, Type (0, 0), BuildingBlock: UVAHIK_clean_linker_0, # of connection points: 2
#     Edge 62, Type (0, 0), BuildingBlock: UVAHIK_clean_linker_0, # of connection points: 2
#     Edge 63, Type (0, 0), BuildingBlock: UVAHIK_clean_linker_0, # of connection points: 2
#     Edge 64, Type (0, 0), BuildingBlock: UVAHIK_clean_linker_0, # of connection points: 2
#     Edge 65, Type (0, 0), BuildingBlock: UVAHIK_clean_linker_0, # of connection points: 2
#     Edge 66, Type (0, 0), BuildingBlock: UVAHIK_clean_linker_0, # of connection points: 2
#     Edge 67, Type (0, 0), BuildingBlock: UVAHIK_clean_linker_0, # of connection points: 2
#     Edge 68, Type (0, 0), BuildingBlock: UVAHIK_clean_linker_0, # of connection points: 2
#     Edge 69, Type (0, 0), BuildingBlock: UVAHIK_clean_linker_0, # of connection points: 2
#     Edge 70, Type (0, 0), BuildingBlock: UVAHIK_clean_linker_0, # of connection points: 2
#     Edge 71, Type (0, 0), BuildingBlock: UVAHIK_clean_linker_0, # of connection points: 2
# Relax obj value: 0.376
# Max RMSD: 0.207
# Mean RMSD: 0.189
data_MOF--net-uno--node1-ESEHIV_clean_sbu_0--edge1-UVAHIK_clean_linker_0
_symmetry_space_group_name_H-M    P1
_symmetry_Int_Tables_number       1
_symmetry_cell_setting            triclinic
loop_
_symmetry_equiv_pos_as_xyz
'x, y, z'
_cell_length_a     71.442447
_cell_length_b     73.489958
_cell_length_c     73.010163
_cell_angle_alpha  90.493625
_cell_angle_beta   89.907071
_cell_angle_gamma 92.075818
loop_
_atom_site_label
_atom_site_type_symbol
_atom_site_fract_x
_atom_site_fract_y
_atom_site_fract_z
_atom_type_partial_charge
Cu0 Cu 0.08166 0.25996 0.27672 0.0
N1 N 0.09123 0.25751 0.30022 0.0
N2 N 0.10654 0.24337 0.32231 0.0
C3 C 0.09489 0.24145 0.30786 0.0
C4 C 0.11005 0.26149 0.32408 0.0
C5 C 0.10051 0.27019 0.31044 0.0
O6 O 0.0725 0.236 0.26868 0.0
C7 C 0.10009 0.27553 0.2455 0.0
O8 O 0.08317 0.27733 0.2389 0.0
H9 H 0.09088 0.22848 0.30167 0.0
H10 H 0.1017 0.28451 0.30716 0.0
N11 N 0.06213 0.27607 0.27674 0.0
N12 N 0.046 0.30142 0.27461 0.0
C13 C 0.06318 0.29435 0.27548 0.0
C14 C 0.04376 0.27142 0.27683 0.0
C15 C 0.03376 0.28703 0.27549 0.0
C16 C 0.08385 0.22362 0.26463 0.0
O17 O 0.10192 0.22767 0.26459 0.0
H18 H 0.07625 0.30222 0.27454 0.0
H19 H 0.03807 0.2576 0.27748 0.0
O20 O 0.10209 0.26854 0.26121 0.0
H21 H 0.11997 0.26785 0.33355 0.0
H22 H 0.01866 0.28771 0.2751 0.0
Cu23 Cu 0.02734 0.80476 0.48031 0.0
N24 N 0.02982 0.8069 0.45505 0.0
N25 N 0.03235 0.82017 0.42771 0.0
C26 C 0.03273 0.82264 0.44604 0.0
C27 C 0.02912 0.80211 0.42511 0.0
C28 C 0.02761 0.79394 0.44204 0.0
O29 O 0.00114 0.80112 0.48632 0.0
C30 C 0.04302 0.82928 0.50748 0.0
O31 O 0.04015 0.81608 0.5193 0.0
H32 H 0.03418 0.83576 0.45284 0.0
H33 H 0.0246 0.77967 0.4447 0.0
N34 N 0.03999 0.78476 0.48864 0.0
N35 N 0.06065 0.76821 0.50354 0.0
C36 C 0.05691 0.78473 0.49669 0.0
C37 C 0.03283 0.76769 0.49012 0.0
C38 C 0.04551 0.75743 0.49928 0.0
C39 C 0.98875 0.81173 0.48075 0.0
O40 O 0.99394 0.82627 0.47143 0.0
H41 H 0.06597 0.79678 0.49796 0.0
H42 H 0.01898 0.76325 0.48561 0.0
O43 O 0.0379 0.82701 0.49093 0.0
H44 H 0.02764 0.79532 0.41195 0.0
H45 H 0.04325 0.74338 0.50326 0.0
Cu46 Cu 0.40955 0.74054 0.82022 0.0
N47 N 0.3928 0.74598 0.83879 0.0
N48 N 0.36864 0.75916 0.85227 0.0
C49 C 0.38014 0.75899 0.8376 0.0
C50 C 0.37432 0.74565 0.86314 0.0
C51 C 0.3893 0.73754 0.85477 0.0
O52 O 0.42646 0.76153 0.81688 0.0
C53 C 0.40098 0.73128 0.78298 0.0
O54 O 0.41918 0.73067 0.78059 0.0
H55 H 0.37895 0.76764 0.82577 0.0
H56 H 0.39678 0.72604 0.85975 0.0
N57 N 0.42315 0.7202 0.82598 0.0
N58 N 0.43615 0.69311 0.82325 0.0
C59 C 0.4234 0.70441 0.81653 0.0
C60 C 0.43604 0.71885 0.83925 0.0
C61 C 0.44411 0.70214 0.8376 0.0
C62 C 0.42302 0.77421 0.80575 0.0
O63 O 0.40783 0.77286 0.79563 0.0
H64 H 0.41494 0.70157 0.8045 0.0
H65 H 0.43965 0.72947 0.8491 0.0
O66 O 0.39454 0.73541 0.79865 0.0
H67 H 0.36802 0.74179 0.8761 0.0
H68 H 0.45514 0.69716 0.84615 0.0
Cu69 Cu 0.50703 0.18434 0.99028 0.0
N70 N 0.49977 0.16291 0.97785 0.0
N71 N 0.50064 0.13693 0.96172 0.0
C72 C 0.51079 0.15039 0.97027 0.0
C73 C 0.48257 0.14122 0.96416 0.0
C74 C 0.4821 0.15725 0.97399 0.0
O75 O 0.52956 0.19486 0.97912 0.0
C76 C 0.50321 0.16882 0.02649 0.0
O77 O 0.50918 0.16671 0.0433 0.0
H78 H 0.52594 0.15145 0.97058 0.0
H79 H 0.46973 0.16435 0.978 0.0
N80 N 0.48808 0.201 0.98848 0.0
N81 N 0.46559 0.22007 0.99598 0.0
C82 C 0.47954 0.20983 0.0022 0.0
C83 C 0.47948 0.20599 0.97305 0.0
C84 C 0.4656 0.21776 0.97762 0.0
C85 C 0.54565 0.19034 0.98451 0.0
O86 O 0.54683 0.17799 0.99732 0.0
H87 H 0.48336 0.20862 0.01646 0.0
H88 H 0.48278 0.20102 0.95948 0.0
O89 O 0.51224 0.17967 0.01591 0.0
H90 H 0.47049 0.13335 0.95923 0.0
H91 H 0.4558 0.22357 0.96823 0.0
Cu92 Cu 0.99799 0.01216 0.31126 0.0
N93 N 0.99004 0.02151 0.33362 0.0
N94 N 0.99354 0.03367 0.36161 0.0
C95 C 0.00144 0.03108 0.34504 0.0
C96 C 0.97637 0.02541 0.36052 0.0
C97 C 0.97424 0.01791 0.34318 0.0
O98 O 0.01297 0.03133 0.29945 0.0
C99 C 0.00172 0.97673 0.32193 0.0
O100 O 0.98343 0.97793 0.3225 0.0
H101 H 0.01582 0.03483 0.34166 0.0
H102 H 0.9625 0.00953 0.33831 0.0
N103 N 0.97798 0.005 0.29602 0.0
N104 N 0.9614 0.98744 0.27633 0.0
C105 C 0.97844 0.99138 0.28361 0.0
C106 C 0.96009 0.01011 0.29645 0.0
C107 C 0.9498 0.99926 0.28433 0.0
C108 C 0.00435 0.04574 0.29582 0.0
O109 O 0.98639 0.04617 0.29965 0.0
H110 H 0.99081 0.98371 0.28094 0.0
H111 H 0.95475 0.02048 0.30545 0.0
O112 O 0.01175 0.99055 0.31709 0.0
H113 H 0.9664 0.02419 0.37165 0.0
H114 H 0.93487 0.99971 0.28198 0.0
Cu115 Cu 0.26512 0.73494 0.60135 0.0
N116 N 0.2785 0.75716 0.60283 0.0
N117 N 0.28575 0.78472 0.61458 0.0
C118 C 0.27199 0.77209 0.6111 0.0
C119 C 0.30156 0.77745 0.60811 0.0
C120 C 0.29707 0.76041 0.601 0.0
O121 O 0.23878 0.73986 0.59989 0.0
C122 C 0.28702 0.71458 0.62429 0.0
O123 O 0.29738 0.71391 0.60945 0.0
H124 H 0.25775 0.77287 0.61608 0.0
H125 H 0.30692 0.75055 0.59637 0.0
N126 N 0.27137 0.72123 0.58067 0.0
N127 N 0.28719 0.70933 0.55731 0.0
C128 C 0.28637 0.72316 0.56955 0.0
C129 C 0.26228 0.70583 0.57503 0.0
C130 C 0.272 0.69844 0.56068 0.0
C131 C 0.22582 0.72797 0.60294 0.0
O132 O 0.23016 0.71181 0.60879 0.0
H133 H 0.29701 0.73389 0.57099 0.0
H134 H 0.2498 0.69998 0.58135 0.0
O135 O 0.27129 0.72213 0.6235 0.0
H136 H 0.31553 0.78352 0.60941 0.0
H137 H 0.26845 0.68579 0.55359 0.0
Cu138 Cu 0.5232 0.98587 0.80735 0.0
N139 N 0.50072 0.99445 0.81593 0.0
N140 N 0.47986 0.00169 0.83732 0.0
C141 C 0.49573 0.99302 0.83358 0.0
C142 C 0.4745 0.00873 0.82119 0.0
C143 C 0.48751 0.00429 0.80797 0.0
O144 O 0.51956 0.95987 0.80343 0.0
C145 C 0.54932 0.00715 0.82843 0.0
O146 O 0.55223 0.0165 0.8134 0.0
H147 H 0.50382 0.98579 0.84348 0.0
H148 H 0.48757 0.00832 0.79376 0.0
N149 N 0.52994 0.99721 0.78541 0.0
N150 N 0.53466 0.01851 0.7641 0.0
C151 C 0.52812 0.01482 0.78108 0.0
C152 C 0.53764 0.98941 0.77062 0.0
C153 C 0.54057 0.00253 0.75741 0.0
C154 C 0.51996 0.94852 0.81647 0.0
O155 O 0.52442 0.95436 0.83301 0.0
H156 H 0.52225 0.02474 0.79028 0.0
H157 H 0.54108 0.97523 0.7696 0.0
O158 O 0.54023 0.99196 0.82746 0.0
H159 H 0.46239 0.0169 0.81915 0.0
H160 H 0.54703 1.00056 0.74416 0.0
Cu161 Cu 0.2705 0.26222 0.10271 0.0
N162 N 0.26778 0.23827 0.11043 0.0
N163 N 0.26951 0.2142 0.12874 0.0
C164 C 0.27349 0.23217 0.12673 0.0
C165 C 0.26092 0.20884 0.11302 0.0
C166 C 0.25991 0.22374 0.10172 0.0
O167 O 0.29685 0.26635 0.09719 0.0
C168 C 0.25259 0.29129 0.12146 0.0
O169 O 0.25092 0.29879 0.10531 0.0
H170 H 0.2801 0.2409 0.13703 0.0
H171 H 0.25383 0.224 0.08817 0.0
N172 N 0.25571 0.26551 0.08198 0.0
N173 N 0.23105 0.2718 0.06469 0.0
C174 C 0.23708 0.26772 0.08163 0.0
C175 C 0.26157 0.2678 0.0646 0.0
C176 C 0.2464 0.27183 0.05392 0.0
C177 C 0.30397 0.27963 0.0882 0.0
O178 O 0.29327 0.2928 0.08299 0.0
H179 H 0.22829 0.26729 0.09373 0.0
H180 H 0.27595 0.26709 0.06009 0.0
O181 O 0.2618 0.27689 0.12299 0.0
H182 H 0.25585 0.19512 0.10982 0.0
H183 H 0.24667 0.27481 0.03942 0.0
Cu184 Cu 0.26473 0.06951 0.29733 0.0
N185 N 0.23973 0.07519 0.29483 0.0
N186 N 0.21345 0.09031 0.29855 0.0
C187 C 0.2302 0.08643 0.30575 0.0
C188 C 0.21229 0.08086 0.28262 0.0
C189 C 0.22853 0.07151 0.28039 0.0
O190 O 0.26956 0.06708 0.32332 0.0
C191 C 0.27665 0.10575 0.28853 0.0
O192 O 0.2654 0.11061 0.3018 0.0
H193 H 0.23606 0.09276 0.31801 0.0
H194 H 0.23237 0.06344 0.2686 0.0
N195 N 0.26878 0.04857 0.28356 0.0
N196 N 0.27544 0.03255 0.25835 0.0
C197 C 0.27732 0.04875 0.26714 0.0
C198 C 0.26124 0.03165 0.28539 0.0
C199 C 0.26545 0.02167 0.26989 0.0
C200 C 0.27709 0.0537 0.33098 0.0
O201 O 0.28402 0.04073 0.32082 0.0
H202 H 0.28405 0.06086 0.26147 0.0
H203 H 0.25244 0.02722 0.29669 0.0
O204 O 0.27947 0.08894 0.28591 0.0
H205 H 0.20091 0.08133 0.27288 0.0
H206 H 0.26053 0.00787 0.26692 0.0
Cu207 Cu 0.16728 0.02678 0.52892 0.0
N208 N 0.14699 0.041 0.52382 0.0
N209 N 0.12205 0.05023 0.50844 0.0
C210 C 0.13779 0.04058 0.50779 0.0
C211 C 0.12154 0.05715 0.52565 0.0
C212 C 0.13692 0.05137 0.53513 0.0
O213 O 0.18679 0.03241 0.51115 0.0
C214 C 0.16291 0.98809 0.53496 0.0
O215 O 0.17619 0.98996 0.54733 0.0
H216 H 0.14244 0.03285 0.49607 0.0
H217 H 0.14011 0.05389 0.54942 0.0
N218 N 0.17563 0.03102 0.55277 0.0
N219 N 0.17852 0.02811 0.58307 0.0
C220 C 0.16796 0.02405 0.56815 0.0
C221 C 0.1914 0.04008 0.55809 0.0
C222 C 0.19322 0.03833 0.57679 0.0
C223 C 0.19945 0.02138 0.50693 0.0
O224 O 0.20001 0.00575 0.51546 0.0
H225 H 0.15521 0.01565 0.56821 0.0
H226 H 0.20125 0.04684 0.54891 0.0
O227 O 0.15807 0.00181 0.52583 0.0
H228 H 0.11045 0.06512 0.53132 0.0
H229 H 0.20498 0.04338 0.58492 0.0
Cu230 Cu 0.22485 0.91789 0.79067 0.0
N231 N 0.21658 0.8978 0.80416 0.0
N232 N 0.22023 0.87336 0.82156 0.0
C233 C 0.2273 0.88986 0.81666 0.0
C234 C 0.20429 0.87084 0.81182 0.0
C235 C 0.20201 0.88603 0.80113 0.0
O236 O 0.23909 0.93385 0.80722 0.0
C237 C 0.23099 0.89994 0.75817 0.0
O238 O 0.21276 0.89749 0.75987 0.0
H239 H 0.24097 0.89532 0.82072 0.0
H240 H 0.19129 0.88775 0.79091 0.0
N241 N 0.20529 0.93029 0.78014 0.0
N242 N 0.19039 0.94543 0.75851 0.0
C243 C 0.20695 0.93942 0.76433 0.0
C244 C 0.18704 0.93065 0.7847 0.0
C245 C 0.1778 0.94011 0.77138 0.0
C246 C 0.23011 0.94287 0.81907 0.0
O247 O 0.21171 0.94186 0.81884 0.0
H248 H 0.22005 0.9411 0.75697 0.0
H249 H 0.18081 0.92397 0.79649 0.0
O250 O 0.23996 0.90878 0.77064 0.0
H251 H 0.19557 0.85848 0.81162 0.0
H252 H 0.16288 0.94213 0.77077 0.0
Cu253 Cu 0.33274 0.01227 0.01815 0.0
N254 N 0.35486 0.99997 0.0195 0.0
N255 N 0.38194 0.99163 0.00743 0.0
C256 C 0.36346 0.99333 0.00464 0.0
C257 C 0.38509 0.99723 0.02483 0.0
C258 C 0.36828 0.00229 0.03231 0.0
O259 O 0.32074 0.00492 0.99538 0.0
C260 C 0.34849 0.04368 0.00316 0.0
O261 O 0.34876 0.03304 0.98862 0.0
H262 H 0.3569 0.99237 0.99129 0.0
H263 H 0.36644 0.00929 0.04525 0.0
N264 N 0.31739 0.00671 0.0381 0.0
N265 N 0.30639 0.00436 0.06669 0.0
C266 C 0.32031 0.01109 0.05583 0.0
C267 C 0.30117 0.99688 0.03765 0.0
C268 C 0.29433 0.99541 0.05524 0.0
C269 C 0.30636 0.01209 0.98875 0.0
O270 O 0.2982 0.02505 0.99797 0.0
H271 H 0.33235 0.01914 0.0606 0.0
H272 H 0.29487 0.99102 0.02539 0.0
O273 O 0.34056 0.03775 0.01766 0.0
H274 H 0.39878 0.99927 0.03101 0.0
H275 H 0.28164 0.98801 0.05927 0.0
Cu276 Cu 0.75297 0.25681 0.89816 0.0
N277 N 0.74604 0.23732 0.88287 0.0
N278 N 0.72933 0.22329 0.86075 0.0
C279 C 0.73709 0.23919 0.86685 0.0
C280 C 0.73376 0.21083 0.87336 0.0
C281 C 0.7441 0.21954 0.88701 0.0
O282 O 0.73127 0.26089 0.91333 0.0
C283 C 0.76362 0.29338 0.88737 0.0
O284 O 0.76401 0.2976 0.90489 0.0
H285 H 0.73476 0.25228 0.86073 0.0
H286 H 0.74859 0.2136 0.89969 0.0
N287 N 0.77296 0.25115 0.91323 0.0
N288 N 0.79965 0.25357 0.92924 0.0
C289 C 0.78937 0.2605 0.91557 0.0
C290 C 0.77282 0.23786 0.92576 0.0
C291 C 0.78923 0.23927 0.9356 0.0
C292 C 0.7158 0.26531 0.90636 0.0
O293 O 0.7153 0.2697 0.88897 0.0
H294 H 0.79342 0.27237 0.90765 0.0
H295 H 0.76122 0.22831 0.92811 0.0
O296 O 0.75929 0.27716 0.88238 0.0
H297 H 0.72896 0.19669 0.87326 0.0
H298 H 0.79273 0.23088 0.94712 0.0
Cu299 Cu 0.99016 0.52517 0.20668 0.0
N300 N 0.96504 0.52419 0.19997 0.0
N301 N 0.93978 0.53142 0.18401 0.0
C302 C 0.95677 0.5371 0.19025 0.0
C303 C 0.93711 0.51433 0.19044 0.0
C304 C 0.95274 0.50991 0.20032 0.0
O305 O 0.9965 0.55068 0.21161 0.0
C306 C 0.99974 0.51416 0.17043 0.0
O307 O 0.98657 0.52504 0.16534 0.0
H308 H 0.9639 0.54971 0.18629 0.0
H309 H 0.95547 0.49684 0.20625 0.0
N310 N 0.99351 0.5113 0.22753 0.0
N311 N 0.99947 0.48692 0.24428 0.0
C312 C 0.99463 0.49308 0.22766 0.0
C313 C 0.9977 0.51695 0.24466 0.0
C314 C 0.00143 0.50189 0.25506 0.0
C315 C 0.00146 0.56205 0.19932 0.0
O316 O 0.00549 0.55606 0.18284 0.0
H317 H 0.9929 0.48462 0.21552 0.0
H318 H 0.99865 0.53104 0.24908 0.0
O319 O 0.00438 0.51368 0.18724 0.0
H320 H 0.92521 0.5053 0.18736 0.0
H321 H 0.0056 0.50198 0.26931 0.0
Cu322 Cu 0.76768 0.75174 0.4312 0.0
N323 N 0.76441 0.76844 0.4127 0.0
N324 N 0.76989 0.78133 0.38558 0.0
C325 C 0.7708 0.76607 0.39559 0.0
C326 C 0.76254 0.79385 0.39688 0.0
C327 C 0.75912 0.78581 0.41368 0.0
O328 O 0.79085 0.75903 0.44316 0.0
C329 C 0.76362 0.71288 0.42428 0.0
O330 O 0.75548 0.71135 0.44037 0.0
H331 H 0.77739 0.75378 0.39106 0.0
H332 H 0.7542 0.79242 0.42598 0.0
N333 N 0.74788 0.75219 0.4478 0.0
N334 N 0.71993 0.74748 0.46106 0.0
C335 C 0.73057 0.74452 0.44606 0.0
C336 C 0.74821 0.76042 0.46431 0.0
C337 C 0.73101 0.75753 0.47254 0.0
C338 C 0.79976 0.74931 0.45423 0.0
O339 O 0.79303 0.73299 0.45842 0.0
H340 H 0.72609 0.7366 0.43419 0.0
H341 H 0.76016 0.76795 0.46997 0.0
O342 O 0.76981 0.72837 0.41893 0.0
H343 H 0.76053 0.80796 0.39351 0.0
H344 H 0.727 0.76257 0.48589 0.0
Cu345 Cu 0.89961 0.76516 0.19413 0.0
N346 N 0.88232 0.75711 0.17658 0.0
N347 N 0.85745 0.7415 0.16533 0.0
C348 C 0.87001 0.74309 0.17908 0.0
C349 C 0.86206 0.75512 0.15368 0.0
C350 C 0.87747 0.76475 0.16068 0.0
O351 O 0.91766 0.74632 0.19764 0.0
C352 C 0.89152 0.77299 0.23185 0.0
O353 O 0.90965 0.77273 0.23473 0.0
H354 H 0.86968 0.73485 0.1913 0.0
H355 H 0.8842 0.77683 0.15495 0.0
N356 N 0.91165 0.78691 0.18713 0.0
N357 N 0.92195 0.81599 0.18815 0.0
C358 C 0.91109 0.80291 0.19618 0.0
C359 C 0.92319 0.78989 0.17282 0.0
C360 C 0.9296 0.80784 0.17342 0.0
C361 C 0.91446 0.73299 0.20835 0.0
O362 O 0.89887 0.73229 0.21792 0.0
H363 H 0.90328 0.80475 0.20873 0.0
H364 H 0.92683 0.77968 0.1628 0.0
O365 O 0.88508 0.76977 0.2159 0.0
H366 H 0.85464 0.75814 0.14122 0.0
H367 H 0.93915 0.81434 0.16376 0.0
Cu368 Cu 0.56991 0.24955 0.69371 0.0
N369 N 0.58386 0.26049 0.67507 0.0
N370 N 0.60421 0.28072 0.66286 0.0
C371 C 0.59863 0.27191 0.67816 0.0
C372 C 0.59246 0.27454 0.64955 0.0
C373 C 0.57989 0.262 0.65715 0.0
O374 O 0.55021 0.26602 0.69972 0.0
C375 C 0.58248 0.24036 0.72965 0.0
O376 O 0.56492 0.23559 0.73305 0.0
H377 H 0.60423 0.27474 0.6917 0.0
H378 H 0.56806 0.2553 0.65036 0.0
N379 N 0.55998 0.22682 0.6865 0.0
N380 N 0.55258 0.19705 0.68749 0.0
C381 C 0.56263 0.21103 0.69513 0.0
C382 C 0.54797 0.22272 0.67277 0.0
C383 C 0.54341 0.2043 0.6733 0.0
C384 C 0.55393 0.28 0.70962 0.0
O385 O 0.57069 0.28208 0.7169 0.0
H386 H 0.57167 0.20984 0.70688 0.0
H387 H 0.54254 0.23251 0.66336 0.0
O388 O 0.58696 0.24667 0.71403 0.0
H389 H 0.59247 0.27927 0.63555 0.0
H390 H 0.53361 0.19698 0.6644 0.0
Cu391 Cu 0.50415 0.49232 0.69823 0.0
N392 N 0.52945 0.49421 0.69235 0.0
N393 N 0.5558 0.48815 0.6774 0.0
C394 C 0.5388 0.48168 0.68284 0.0
C395 C 0.55726 0.50539 0.68393 0.0
C396 C 0.54096 0.50908 0.6932 0.0
O397 O 0.4983 0.46664 0.70187 0.0
C398 C 0.49358 0.49856 0.66187 0.0
O399 O 0.50293 0.48378 0.65875 0.0
H400 H 0.53262 0.46863 0.67868 0.0
H401 H 0.53727 0.52201 0.69912 0.0
N402 N 0.49994 0.50463 0.72014 0.0
N403 N 0.49195 0.5258 0.74055 0.0
C404 C 0.49393 0.52164 0.72258 0.0
C405 C 0.50191 0.49782 0.73702 0.0
C406 C 0.49698 0.51083 0.74965 0.0
C407 C 0.48673 0.45604 0.69344 0.0
O408 O 0.476 0.46245 0.6806 0.0
H409 H 0.49074 0.5306 0.71141 0.0
H410 H 0.50653 0.48429 0.73991 0.0
O411 O 0.49104 0.50372 0.67835 0.0
H412 H 0.56888 0.51491 0.68144 0.0
H413 H 0.49727 0.50941 0.76438 0.0
Cu414 Cu 0.0019 0.35306 0.00735 0.0
N415 N 0.00656 0.36984 0.98891 0.0
N416 N 0.99921 0.39429 0.97286 0.0
C417 C 0.99277 0.37892 0.98103 0.0
C418 C 0.01792 0.39479 0.97554 0.0
C419 C 0.02244 0.37962 0.98545 0.0
O420 O 0.9773 0.34228 0.00212 0.0
C421 C 0.00867 0.36442 0.04516 0.0
O422 O 0.01654 0.34883 0.04805 0.0
H423 H 0.97807 0.37559 0.98333 0.0
H424 H 0.03594 0.37697 0.99135 0.0
N425 N 0.01994 0.33528 0.00758 0.0
N426 N 0.04612 0.32047 0.0128 0.0
C427 C 0.03781 0.33669 0.0135 0.0
C428 C 0.01705 0.31772 0.00265 0.0
C429 C 0.03311 0.30853 0.00596 0.0
C430 C 0.96935 0.32882 0.01017 0.0
O431 O 0.97782 0.32109 0.02387 0.0
H432 H 0.04434 0.34915 0.01883 0.0
H433 H 0.00404 0.31193 0.99726 0.0
O434 O 0.00152 0.3676 0.02962 0.0
H435 H 0.02739 0.40606 0.972 0.0
H436 H 0.03509 0.29416 0.00358 0.0
Cu437 Cu 0.50751 0.64184 0.48134 0.0
N438 N 0.51234 0.62246 0.46581 0.0
N439 N 0.52882 0.60039 0.45322 0.0
C440 C 0.52951 0.61636 0.46244 0.0
C441 C 0.51042 0.59634 0.45056 0.0
C442 C 0.50026 0.61007 0.45833 0.0
O443 O 0.52943 0.65804 0.48047 0.0
C444 C 0.51543 0.62344 0.51365 0.0
O445 O 0.53216 0.62304 0.5062 0.0
H446 H 0.54219 0.62282 0.46791 0.0
H447 H 0.48518 0.61049 0.45935 0.0
N448 N 0.48695 0.65409 0.47304 0.0
N449 N 0.45865 0.66583 0.47188 0.0
C450 C 0.46987 0.65445 0.48076 0.0
C451 C 0.48655 0.66551 0.45876 0.0
C452 C 0.46908 0.67283 0.45803 0.0
C453 C 0.53698 0.66675 0.49381 0.0
O454 O 0.52953 0.66549 0.51023 0.0
H455 H 0.46602 0.64707 0.49305 0.0
H456 H 0.49828 0.66857 0.44979 0.0
O457 O 0.50266 0.63182 0.50547 0.0
H458 H 0.50472 0.58402 0.44416 0.0
H459 H 0.46447 0.68265 0.44819 0.0
Cu460 Cu 0.68962 0.44661 0.49045 0.0
N461 N 0.67474 0.42972 0.50311 0.0
N462 N 0.65626 0.41991 0.52591 0.0
C463 C 0.67043 0.43143 0.52094 0.0
C464 C 0.65152 0.41045 0.51057 0.0
C465 C 0.66302 0.41652 0.49648 0.0
O466 O 0.71151 0.45221 0.50547 0.0
C467 C 0.67935 0.48245 0.47999 0.0
O468 O 0.69703 0.48539 0.47555 0.0
H469 H 0.67637 0.44213 0.52967 0.0
H470 H 0.662 0.41256 0.48221 0.0
N471 N 0.69597 0.43778 0.46736 0.0
N472 N 0.69784 0.4364 0.4368 0.0
C473 C 0.69091 0.44524 0.45145 0.0
C474 C 0.70643 0.4236 0.46273 0.0
C475 C 0.70766 0.42273 0.44385 0.0
C476 C 0.71116 0.46449 0.51784 0.0
O477 O 0.69644 0.47462 0.51915 0.0
H478 H 0.68269 0.45727 0.4507 0.0
H479 H 0.71284 0.41466 0.4724 0.0
O480 O 0.67413 0.46733 0.48699 0.0
H481 H 0.6399 0.40064 0.50938 0.0
H482 H 0.71524 0.41285 0.43598 0.0
Cu483 Cu 0.76443 0.45699 0.73042 0.0
N484 N 0.73942 0.44946 0.72797 0.0
N485 N 0.71448 0.4337 0.71696 0.0
C486 C 0.73214 0.44005 0.71363 0.0
C487 C 0.71047 0.43975 0.73402 0.0
C488 C 0.72589 0.44943 0.74077 0.0
O489 O 0.77397 0.46155 0.70592 0.0
C490 C 0.77291 0.42162 0.74257 0.0
O491 O 0.76124 0.41603 0.72966 0.0
H492 H 0.74011 0.43718 0.70141 0.0
H493 H 0.72753 0.45511 0.75441 0.0
N494 N 0.76615 0.47839 0.74416 0.0
N495 N 0.76829 0.49683 0.76856 0.0
C496 C 0.76419 0.47977 0.76245 0.0
C497 C 0.77158 0.49513 0.73846 0.0
C498 C 0.77296 0.50656 0.75353 0.0
C499 C 0.78074 0.44959 0.69535 0.0
O500 O 0.78373 0.43331 0.70173 0.0
H501 H 0.76072 0.46829 0.77116 0.0
H502 H 0.77487 0.4986 0.72443 0.0
O503 O 0.77715 0.43853 0.74413 0.0
H504 H 0.69781 0.43644 0.74162 0.0
H505 H 0.77734 0.52081 0.75347 0.0
Cu506 Cu 0.82777 0.54218 0.0017 0.0
N507 N 0.84028 0.56466 0.00452 0.0
N508 N 0.85786 0.58432 0.02121 0.0
C509 C 0.8433 0.57214 0.02114 0.0
C510 C 0.86394 0.5849 0.00369 0.0
C511 C 0.85301 0.57275 0.99338 0.0
O512 O 0.81894 0.53601 0.02607 0.0
C513 C 0.8617 0.52431 0.00078 0.0
O514 O 0.8657 0.53554 0.01444 0.0
H515 H 0.83681 0.56672 0.03345 0.0
H516 H 0.85564 0.56855 0.9794 0.0
N517 N 0.80839 0.54357 0.98484 0.0
N518 N 0.79305 0.54174 0.95825 0.0
C519 C 0.80977 0.54066 0.96668 0.0
C520 C 0.79024 0.54676 0.98803 0.0
C521 C 0.7807 0.54553 0.97162 0.0
C522 C 0.80533 0.52559 0.03104 0.0
O523 O 0.79521 0.51665 0.01869 0.0
H524 H 0.82269 0.5373 0.95988 0.0
H525 H 0.78434 0.54954 0.00137 0.0
O526 O 0.8456 0.52462 0.99338 0.0
H527 H 0.87654 0.59209 0.99905 0.0
H528 H 0.76586 0.54731 0.96968 0.0
Cu529 Cu 0.72517 0.57347 0.24198 0.0
N530 N 0.71365 0.59214 0.22973 0.0
N531 N 0.71387 0.61689 0.21219 0.0
C532 C 0.72191 0.60099 0.21568 0.0
C533 C 0.69983 0.61806 0.22449 0.0
C534 C 0.69967 0.60267 0.23528 0.0
O535 O 0.74156 0.56226 0.22422 0.0
C536 C 0.72827 0.58826 0.27683 0.0
O537 O 0.71019 0.58441 0.27627 0.0
H538 H 0.73488 0.59683 0.2095 0.0
H539 H 0.69109 0.60017 0.24728 0.0
N540 N 0.70831 0.55572 0.25098 0.0
N541 N 0.6976 0.53388 0.26976 0.0
C542 C 0.71257 0.54422 0.26443 0.0
C543 C 0.69001 0.55248 0.24744 0.0
C544 C 0.68336 0.53888 0.25899 0.0
C545 C 0.73343 0.55324 0.21135 0.0
O546 O 0.71507 0.55131 0.21164 0.0
H547 H 0.72635 0.54387 0.27052 0.0
H548 H 0.68197 0.55986 0.23761 0.0
O549 O 0.73829 0.5846 0.2629 0.0
H550 H 0.6912 0.62973 0.22639 0.0
H551 H 0.66902 0.53369 0.25996 0.0
C552 C 0.24367 0.29033 0.15455 0.0
C553 C 0.24026 0.29654 0.13677 0.0
C554 C 0.23009 0.29176 0.16822 0.0
C555 C 0.18369 0.31116 0.17952 0.0
H556 H 0.17745 0.26664 0.20734 0.0
C557 C 0.11507 0.28911 0.21734 0.0
C558 C 0.11685 0.28094 0.23456 0.0
C559 C 0.13095 0.29343 0.20676 0.0
C560 C 0.17912 0.27928 0.1999 0.0
H561 H 0.22044 0.31023 0.11969 0.0
H562 H 0.19657 0.31233 0.14337 0.0
H563 H 0.2041 0.27062 0.18697 0.0
H564 H 0.13679 0.27141 0.2544 0.0
H565 H 0.16438 0.27891 0.23596 0.0
H566 H 0.15816 0.31941 0.19213 0.0
C567 C 0.20983 0.3066 0.14691 0.0
C568 C 0.19449 0.28163 0.18824 0.0
C569 C 0.22353 0.30538 0.13329 0.0
C570 C 0.13488 0.27759 0.24115 0.0
C571 C 0.15071 0.28182 0.23056 0.0
C572 C 0.16819 0.30874 0.19113 0.0
C573 C 0.21266 0.29919 0.16436 0.0
C574 C 0.19696 0.29755 0.1778 0.0
C575 C 0.14893 0.28958 0.21315 0.0
C576 C 0.1657 0.29271 0.20137 0.0
H577 H 0.25652 0.28362 0.1577 0.0
H578 H 0.23299 0.28638 0.18165 0.0
H579 H 0.18523 0.32368 0.17185 0.0
H580 H 0.10139 0.29193 0.21189 0.0
H581 H 0.12912 0.29927 0.19334 0.0
C582 C 0.023 0.83219 0.39768 0.0
C583 C 0.03318 0.83424 0.41406 0.0
C584 C 0.02228 0.84656 0.3853 0.0
C585 C 0.04468 0.89053 0.37164 0.0
H586 H 0.99438 0.90185 0.35689 0.0
C587 C 0.02544 0.95963 0.3395 0.0
C588 C 0.00992 0.95961 0.32775 0.0
C589 C 0.03058 0.94344 0.34787 0.0
C590 C 0.0086 0.89874 0.36047 0.0
H591 H 0.05149 0.8526 0.42977 0.0
H592 H 0.05021 0.87774 0.40815 0.0
H593 H 0.99926 0.87508 0.37516 0.0
H594 H 0.98863 0.94269 0.31421 0.0
H595 H 0.99814 0.91442 0.32786 0.0
H596 H 0.05401 0.91429 0.3569 0.0
C597 C 0.04275 0.86502 0.40492 0.0
C598 C 0.01137 0.88337 0.37105 0.0
C599 C 0.04333 0.8507 0.41738 0.0
C600 C 1.00053 0.94306 0.32341 0.0
C601 C 0.00588 0.9269 0.33141 0.0
C602 C 0.04194 0.90588 0.36084 0.0
C603 C 0.03188 0.86324 0.38895 0.0
C604 C 0.02939 0.87912 0.37684 0.0
C605 C 0.02043 0.92695 0.34437 0.0
C606 C 0.02382 0.91023 0.35516 0.0
H607 H 0.01495 0.81975 0.39475 0.0
H608 H 0.01392 0.84474 0.37301 0.0
H609 H 0.05876 0.88753 0.37587 0.0
H610 H 0.03279 0.97229 0.34315 0.0
H611 H 0.04181 0.94407 0.35782 0.0
C612 C 0.31348 0.70341 0.64288 0.0
C613 C 0.29528 0.71002 0.64217 0.0
C614 C 0.32287 0.7023 0.65956 0.0
C615 C 0.32352 0.72458 0.70471 0.0
H616 H 0.36131 0.68955 0.71515 0.0
C617 C 0.36852 0.72901 0.77016 0.0
C618 C 0.38787 0.7269 0.76777 0.0
C619 C 0.35603 0.72494 0.7559 0.0
C620 C 0.35085 0.69947 0.71236 0.0
H621 H 0.27208 0.71924 0.6586 0.0
H622 H 0.28837 0.71696 0.68781 0.0
H623 H 0.34059 0.68465 0.68885 0.0
H624 H 0.40921 0.71861 0.74859 0.0
H625 H 0.38733 0.71157 0.72361 0.0
H626 H 0.33393 0.73951 0.72805 0.0
C627 C 0.29555 0.71306 0.67538 0.0
C628 C 0.33897 0.69666 0.69732 0.0
C629 C 0.28616 0.71423 0.65866 0.0
C630 C 0.39441 0.72043 0.75085 0.0
C631 C 0.38187 0.71626 0.7366 0.0
C632 C 0.33532 0.72733 0.71977 0.0
C633 C 0.31425 0.70769 0.67595 0.0
C634 C 0.32536 0.70935 0.69313 0.0
C635 C 0.36255 0.71858 0.73895 0.0
C636 C 0.34931 0.71496 0.7236 0.0
H637 H 0.3209 0.69996 0.63045 0.0
H638 H 0.33728 0.69822 0.65942 0.0
H639 H 0.31347 0.73483 0.70172 0.0
H640 H 0.36299 0.73391 0.78304 0.0
H641 H 0.34121 0.7267 0.75819 0.0
C642 C 0.52548 0.11517 0.9545 0.0
C643 C 0.50753 0.12175 0.95129 0.0
C644 C 0.53219 0.10069 0.94405 0.0
C645 C 0.54683 0.07822 0.91192 0.0
H646 H 0.51252 0.03922 0.8959 0.0
C647 C 0.55878 0.03454 0.84732 0.0
C648 C 0.55107 0.01668 0.8464 0.0
C649 C 0.55637 0.04531 0.86297 0.0
C650 C 0.52244 0.04979 0.90047 0.0
H651 H 0.48273 0.11826 0.93431 0.0
H652 H 0.49436 0.09324 0.91624 0.0
H653 H 0.50207 0.06166 0.91795 0.0
H654 H 0.53622 0.99561 0.86191 0.0
H655 H 0.53232 0.0143 0.88929 0.0
H656 H 0.56719 0.06633 0.89435 0.0
C657 C 0.50314 0.09897 0.92706 0.0
C658 C 0.51634 0.06284 0.91294 0.0
C659 C 0.49646 0.1134 0.93746 0.0
C660 C 0.54227 0.00934 0.86208 0.0
C661 C 0.53986 0.02013 0.87774 0.0
C662 C 0.55296 0.06512 0.89945 0.0
C663 C 0.5211 0.09243 0.93017 0.0
C664 C 0.5283 0.07747 0.91849 0.0
C665 C 0.54624 0.03847 0.87812 0.0
C666 C 0.54071 0.05096 0.89325 0.0
H667 H 0.53431 0.12109 0.96517 0.0
H668 H 0.54602 0.09588 0.94695 0.0
H669 H 0.55641 0.08933 0.91584 0.0
H670 H 0.56568 0.04063 0.83554 0.0
H671 H 0.56141 0.05938 0.86268 0.0
C672 C 0.1924 0.11531 0.29202 0.0
C673 C 0.20143 0.10441 0.30475 0.0
C674 C 0.18246 0.13028 0.29789 0.0
C675 C 0.15788 0.15063 0.33626 0.0
H676 H 0.1695 0.19574 0.31076 0.0
C677 C 0.10914 0.21123 0.33086 0.0
C678 C 0.11728 0.22887 0.32954 0.0
C679 C 0.12034 0.19621 0.33302 0.0
C680 C 0.16629 0.18336 0.31825 0.0
H681 H 0.20642 0.10015 0.33363 0.0
H682 H 0.18868 0.12632 0.34396 0.0
H683 H 0.18675 0.16868 0.30333 0.0
H684 H 0.14339 0.24476 0.3312 0.0
H685 H 0.16295 0.21855 0.33515 0.0
H686 H 0.13693 0.16528 0.35075 0.0
C687 C 0.1895 0.12328 0.32944 0.0
C688 C 0.17602 0.16781 0.31382 0.0
C689 C 0.19968 0.1084 0.32354 0.0
C690 C 0.13668 0.23137 0.33222 0.0
C691 C 0.1479 0.21634 0.33429 0.0
C692 C 0.14795 0.16619 0.34055 0.0
C693 C 0.18116 0.13457 0.31662 0.0
C694 C 0.17169 0.15123 0.32252 0.0
C695 C 0.13992 0.19857 0.33385 0.0
C696 C 0.1519 0.18265 0.3314 0.0
H697 H 0.19365 0.11272 0.27747 0.0
H698 H 0.17598 0.13867 0.28774 0.0
H699 H 0.15431 0.13798 0.34316 0.0
H700 H 0.0942 0.20898 0.329 0.0
H701 H 0.11376 0.1827 0.3326 0.0
C702 C 0.06502 0.84663 0.52864 0.0
C703 C 0.05427 0.84585 0.51252 0.0
C704 C 0.07737 0.8615 0.5321 0.0
C705 C 0.10353 0.8979 0.50727 0.0
H706 H 0.11043 0.92013 0.55525 0.0
C707 C 0.14022 0.96794 0.51756 0.0
C708 C 0.15258 0.97045 0.53239 0.0
C709 C 0.12947 0.95182 0.51563 0.0
C710 C 0.10883 0.91388 0.54183 0.0
H711 H 0.04727 0.86049 0.48791 0.0
H712 H 0.0684 0.88645 0.49412 0.0
H713 H 0.08841 0.89409 0.55145 0.0
H714 H 0.16354 0.95788 0.55673 0.0
H715 H 0.14463 0.92959 0.55332 0.0
H716 H 0.12366 0.91781 0.49756 0.0
C717 C 0.06773 0.8754 0.50385 0.0
C718 C 0.09621 0.899 0.53964 0.0
C719 C 0.0555 0.86057 0.50037 0.0
C720 C 0.15418 0.95633 0.54512 0.0
C721 C 0.14327 0.94021 0.54325 0.0
C722 C 0.11605 0.91277 0.50943 0.0
C723 C 0.07915 0.87586 0.51952 0.0
C724 C 0.0932 0.89104 0.52226 0.0
C725 C 0.13074 0.93784 0.52852 0.0
C726 C 0.11863 0.9211 0.52666 0.0
H727 H 0.06443 0.83547 0.53823 0.0
H728 H 0.08601 0.86142 0.54427 0.0
H729 H 0.10192 0.8918 0.49378 0.0
H730 H 0.13864 0.97854 0.50752 0.0
H731 H 0.11979 0.95049 0.50425 0.0
C732 C 0.23117 0.84209 0.82472 0.0
C733 C 0.23034 0.86 0.83142 0.0
C734 C 0.24403 0.8302 0.832 0.0
C735 C 0.28979 0.83288 0.85532 0.0
H736 H 0.28437 0.78023 0.85333 0.0
C737 C 0.35282 0.78783 0.8465 0.0
C738 C 0.35289 0.77067 0.85482 0.0
C739 C 0.33709 0.79848 0.84759 0.0
C740 C 0.28606 0.79491 0.85428 0.0
H741 H 0.24097 0.87906 0.85194 0.0
H742 H 0.26292 0.85815 0.8652 0.0
H743 H 0.25692 0.79857 0.84923 0.0
H744 H 0.33659 0.75147 0.8713 0.0
H745 H 0.3091 0.77028 0.87349 0.0
H746 H 0.31886 0.82928 0.8604 0.0
C747 C 0.25418 0.85341 0.8539 0.0
C748 C 0.27035 0.80544 0.8517 0.0
C749 C 0.24153 0.86535 0.84644 0.0
C750 C 0.33702 0.76467 0.86481 0.0
C751 C 0.32121 0.77536 0.8659 0.0
C752 C 0.30542 0.82238 0.85802 0.0
C753 C 0.25616 0.83593 0.84627 0.0
C754 C 0.27211 0.82458 0.85169 0.0
C755 C 0.32099 0.79232 0.85712 0.0
C756 C 0.30388 0.80328 0.85697 0.0
H757 H 0.22284 0.83769 0.81302 0.0
H758 H 0.24523 0.81694 0.82561 0.0
H759 H 0.29184 0.84755 0.85523 0.0
H760 H 0.36488 0.79299 0.83893 0.0
H761 H 0.33738 0.81134 0.84044 0.0
C762 C 0.36534 0.06903 0.02029 0.0
C763 C 0.36036 0.06061 0.00356 0.0
C764 C 0.37907 0.08308 0.02087 0.0
C765 C 0.42005 0.1001 0.99442 0.0
H766 H 0.42026 0.13919 0.03039 0.0
C767 C 0.469 0.1664 0.02036 0.0
C768 C 0.48649 0.15838 0.02029 0.0
C769 C 0.45277 0.156 0.01621 0.0
C770 C 0.42035 0.12852 0.02007 0.0
H771 H 0.36496 0.06116 0.97419 0.0
H772 H 0.38852 0.08594 0.97516 0.0
H773 H 0.39247 0.11931 0.0269 0.0
H774 H 0.50099 0.13333 0.01638 0.0
H775 H 0.47264 0.11494 0.00935 0.0
H776 H 0.44787 0.10943 0.98746 0.0
C777 C 0.38222 0.08138 0.9879 0.0
C778 C 0.40448 0.11697 0.01824 0.0
C779 C 0.36859 0.06726 0.98733 0.0
C780 C 0.4876 0.13981 0.01616 0.0
C781 C 0.47139 0.12936 0.01205 0.0
C782 C 0.43589 0.1117 0.99619 0.0
C783 C 0.38804 0.0891 0.00473 0.0
C784 C 0.40422 0.10243 0.00559 0.0
C785 C 0.45373 0.1373 0.01222 0.0
C786 C 0.43636 0.12588 0.00925 0.0
H787 H 0.35933 0.06417 0.03305 0.0
H788 H 0.38329 0.08858 0.0341 0.0
H789 H 0.42048 0.08894 0.98467 0.0
H790 H 0.46777 0.18053 0.02421 0.0
H791 H 0.43945 0.16259 0.01637 0.0
C792 C 0.01789 0.05375 0.37589 0.0
C793 C 0.00309 0.04075 0.37767 0.0
C794 C 0.02924 0.05849 0.39085 0.0
C795 C 0.03431 0.05505 0.4413 0.0
H796 H 0.0871 0.05218 0.42957 0.0
C797 C 0.09455 0.06497 0.49487 0.0
C798 C 0.10808 0.05148 0.49422 0.0
C799 C 0.081 0.06597 0.4811 0.0
C800 C 0.07242 0.05308 0.43306 0.0
H801 H 0.98791 0.0234 0.3969 0.0
H802 H 0.00775 0.03167 0.42307 0.0
H803 H 0.06405 0.05054 0.40506 0.0
H804 H 0.11734 0.02817 0.47851 0.0
H805 H 0.09419 0.03025 0.45458 0.0
H806 H 0.04285 0.05705 0.46946 0.0
C807 C 0.0105 0.03827 0.41008 0.0
C808 C 0.0592 0.05234 0.41901 0.0
C809 C 0.99912 0.03352 0.39508 0.0
C810 C 0.10759 0.03904 0.47944 0.0
C811 C 0.09422 0.04017 0.46565 0.0
C812 C 0.0476 0.05595 0.45541 0.0
C813 C 0.02606 0.05035 0.40797 0.0
C814 C 0.03998 0.05302 0.42296 0.0
C815 C 0.08081 0.05365 0.46628 0.0
C816 C 0.06676 0.0546 0.45142 0.0
H817 H 0.02104 0.05984 0.36274 0.0
H818 H 0.04088 0.06814 0.38888 0.0
H819 H 0.0196 0.05572 0.44476 0.0
H820 H 0.09451 0.07489 0.50589 0.0
H821 H 0.07086 0.07656 0.48187 0.0
C822 C 0.2991 0.8067 0.6374 0.0
C823 C 0.28419 0.80067 0.62606 0.0
C824 C 0.29675 0.82079 0.65011 0.0
C825 C 0.26522 0.85797 0.66314 0.0
H826 H 0.28163 0.84813 0.71258 0.0
C827 C 0.22966 0.88703 0.72656 0.0
C828 C 0.24044 0.89246 0.74187 0.0
C829 C 0.23797 0.87893 0.71142 0.0
C830 C 0.27729 0.8513 0.6988 0.0
H831 H 0.25549 0.80542 0.61847 0.0
H832 H 0.25127 0.82979 0.64073 0.0
H833 H 0.29086 0.82828 0.68745 0.0
H834 H 0.2685 0.89405 0.75314 0.0
H835 H 0.28311 0.87957 0.72654 0.0
H836 H 0.25104 0.88056 0.67463 0.0
C837 C 0.26483 0.82372 0.63978 0.0
C838 C 0.28257 0.83992 0.68437 0.0
C839 C 0.26717 0.80962 0.62714 0.0
C840 C 0.25985 0.88999 0.74153 0.0
C841 C 0.26818 0.88165 0.72636 0.0
C842 C 0.25992 0.86931 0.67755 0.0
C843 C 0.27947 0.82924 0.65168 0.0
C844 C 0.27615 0.84282 0.66646 0.0
C845 C 0.25726 0.87593 0.7112 0.0
C846 C 0.26544 0.86578 0.69561 0.0
H847 H 0.31235 0.80003 0.63705 0.0
H848 H 0.30835 0.82485 0.65895 0.0
H849 H 0.26036 0.8608 0.64945 0.0
H850 H 0.21468 0.88883 0.72633 0.0
H851 H 0.22911 0.87445 0.7001 0.0
C852 C 0.40876 0.00502 0.99056 0.0
C853 C 0.3954 0.99077 0.9929 0.0
C854 C 0.41916 0.00632 0.97437 0.0
C855 C 0.41677 0.99043 0.92596 0.0
H856 H 0.46663 0.01285 0.92367 0.0
C857 C 0.45176 0.00633 0.85653 0.0
C858 C 0.47095 0.00305 0.85501 0.0
C859 C 0.44297 0.00619 0.87367 0.0
C860 C 0.45278 0.00638 0.92403 0.0
H861 H 0.38303 0.96624 0.98091 0.0
H862 H 0.40198 0.96773 0.95303 0.0
H863 H 0.45188 0.00779 0.95326 0.0
H864 H 0.49617 0.99832 0.87062 0.0
H865 H 0.48081 0.99709 0.90008 0.0
H866 H 0.41803 0.98812 0.89684 0.0
C867 C 0.404 0.97834 0.96329 0.0
C868 C 0.44419 0.00369 0.94105 0.0
C869 C 0.39336 0.97727 0.97932 0.0
C870 C 0.48127 1.00037 0.87111 0.0
C871 C 0.47247 1.0 0.88816 0.0
C872 C 0.42547 0.99283 0.90898 0.0
C873 C 0.41658 0.99324 0.96031 0.0
C874 C 0.42606 0.99566 0.94226 0.0
C875 C 0.45314 0.00263 0.88968 0.0
C876 C 0.4436 1.00083 0.90776 0.0
H877 H 0.41024 0.01579 1.00072 0.0
H878 H 0.42848 0.01812 0.97255 0.0
H879 H 0.40264 0.98459 0.92623 0.0
H880 H 0.44339 0.0085 0.84446 0.0
H881 H 0.42814 0.0087 0.87432 0.0
C882 C 0.29298 0.11334 0.25904 0.0
C883 C 0.28239 0.11896 0.27418 0.0
C884 C 0.29523 0.12452 0.24375 0.0
C885 C 0.28857 0.17125 0.22622 0.0
H886 H 0.27882 0.14571 0.18031 0.0
C887 C 0.26218 0.18762 0.14843 0.0
C888 C 0.27327 0.20331 0.14458 0.0
C889 C 0.26543 0.17745 0.16413 0.0
C890 C 0.28151 0.15306 0.19301 0.0
H891 H 0.26701 0.14131 0.28564 0.0
H892 H 0.2708 0.16071 0.25894 0.0
H893 H 0.28157 0.12848 0.20843 0.0
H894 H 0.2969 0.22023 0.154 0.0
H895 H 0.30254 0.20252 0.18136 0.0
H896 H 0.28778 0.19588 0.21083 0.0
C897 C 0.27745 0.1477 0.25889 0.0
C898 C 0.28335 0.14317 0.20912 0.0
C899 C 0.27524 0.13653 0.27421 0.0
C900 C 0.28786 0.20843 0.1567 0.0
C901 C 0.29112 0.19827 0.17239 0.0
C902 C 0.28673 0.18116 0.21008 0.0
C903 C 0.28693 0.14156 0.24324 0.0
C904 C 0.28669 0.15214 0.22596 0.0
C905 C 0.27987 0.18271 0.17635 0.0
C906 C 0.28293 0.17218 0.19333 0.0
H907 H 0.29882 0.09994 0.25862 0.0
H908 H 0.30297 0.11954 0.23208 0.0
H909 H 0.29127 0.17857 0.23893 0.0
H910 H 0.25067 0.18341 0.13955 0.0
H911 H 0.25632 0.1657 0.16691 0.0
C912 C 0.78569 0.41524 0.77378 0.0
C913 C 0.77846 0.40877 0.75693 0.0
C914 C 0.78809 0.4033 0.78835 0.0
C915 C 0.7905 0.35453 0.80034 0.0
H916 H 0.7676 0.36932 0.84605 0.0
C917 C 0.7665 0.30266 0.85459 0.0
C918 C 0.76821 0.30724 0.87326 0.0
C919 C 0.77062 0.31555 0.84111 0.0
C920 C 0.77438 0.36507 0.83353 0.0
H921 H 0.76916 0.38455 0.74186 0.0
H922 H 0.77349 0.36376 0.76717 0.0
H923 H 0.77068 0.39092 0.82098 0.0
H924 H 0.77583 0.32897 0.8924 0.0
H925 H 0.78323 0.35153 0.86879 0.0
H926 H 0.79394 0.32861 0.81275 0.0
C927 C 0.77727 0.37804 0.76916 0.0
C928 C 0.77615 0.37747 0.81914 0.0
C929 C 0.77471 0.38998 0.75466 0.0
C930 C 0.77428 0.32503 0.87814 0.0
C931 C 0.77847 0.33796 0.86461 0.0
C932 C 0.78882 0.34218 0.81475 0.0
C933 C 0.78352 0.38462 0.7863 0.0
C934 C 0.78384 0.3722 0.80225 0.0
C935 C 0.77665 0.33337 0.84592 0.0
C936 C 0.78033 0.34715 0.83138 0.0
H937 H 0.7887 0.42964 0.77599 0.0
H938 H 0.79313 0.40873 0.80134 0.0
H939 H 0.79675 0.35017 0.78759 0.0
H940 H 0.76177 0.28912 0.8503 0.0
H941 H 0.76868 0.31161 0.8269 0.0
C942 C 0.91977 0.52977 0.15644 0.0
C943 C 0.92937 0.54019 0.1699 0.0
C944 C 0.9123 0.53813 0.14114 0.0
C945 C 0.89803 0.5817 0.1219 0.0
H946 H 0.90921 0.55787 0.07577 0.0
C947 C 0.8587 0.59195 0.05406 0.0
C948 C 0.86829 0.58916 0.03751 0.0
C949 C 0.86798 0.59076 0.07081 0.0
C950 C 0.90623 0.56492 0.08848 0.0
H951 H 0.93752 0.56765 0.17846 0.0
H952 H 0.92445 0.58229 0.15164 0.0
H953 H 0.92041 0.54528 0.10421 0.0
H954 H 0.89559 0.58505 0.02548 0.0
H955 H 0.9119 0.58344 0.05468 0.0
H956 H 0.8836 0.60124 0.10603 0.0
C957 C 0.92281 0.56765 0.15292 0.0
C958 C 0.91239 0.5575 0.10481 0.0
C959 C 0.93038 0.55926 0.16821 0.0
C960 C 0.88779 0.58728 0.03796 0.0
C961 C 0.89708 0.58611 0.05472 0.0
C962 C 0.89174 0.58909 0.1055 0.0
C963 C 0.91418 0.5571 0.13897 0.0
C964 C 0.90811 0.56562 0.12172 0.0
C965 C 0.88706 0.58681 0.0713 0.0
C966 C 0.8956 0.58064 0.08861 0.0
H967 H 0.91884 0.51507 0.15722 0.0
H968 H 0.90543 0.52969 0.13074 0.0
H969 H 0.89456 0.58826 0.13475 0.0
H970 H 0.84369 0.59356 0.05406 0.0
H971 H 0.85983 0.59138 0.08331 0.0
C972 C 0.77383 0.69859 0.3948 0.0
C973 C 0.76389 0.69717 0.41141 0.0
C974 C 0.77251 0.68465 0.38168 0.0
C975 C 0.73968 0.64865 0.36606 0.0
H976 H 0.78119 0.63275 0.33636 0.0
C977 C 0.7272 0.59458 0.31028 0.0
C978 C 0.73617 0.59734 0.29336 0.0
C979 C 0.73271 0.60475 0.32568 0.0
C980 C 0.76942 0.63716 0.34442 0.0
H981 H 0.74538 0.67959 0.42756 0.0
H982 H 0.74303 0.65525 0.40458 0.0
H983 H 0.78704 0.65414 0.36176 0.0
H984 H 0.75848 0.61238 0.2794 0.0
H985 H 0.76782 0.63072 0.30626 0.0
H986 H 0.72193 0.63238 0.34853 0.0
C987 C 0.75176 0.66725 0.4017 0.0
C988 C 0.7728 0.64935 0.35902 0.0
C989 C 0.75319 0.68115 0.4149 0.0
C990 C 0.75138 0.60994 0.29232 0.0
C991 C 0.75673 0.6204 0.30774 0.0
C992 C 0.73629 0.63663 0.35144 0.0
C993 C 0.76112 0.669 0.3848 0.0
C994 C 0.75793 0.65525 0.36997 0.0
C995 C 0.7471 0.61825 0.3245 0.0
C996 C 0.75109 0.6307 0.34039 0.0
H997 H 0.78226 0.71073 0.39168 0.0
H998 H 0.77978 0.68648 0.36875 0.0
H999 H 0.72788 0.65323 0.37397 0.0
H1000 H 0.71561 0.58474 0.31154 0.0
H1001 H 0.72534 0.60228 0.33844 0.0
C1002 C 0.72409 0.64907 0.20824 0.0
C1003 C 0.72228 0.63122 0.20128 0.0
C1004 C 0.73592 0.66198 0.19964 0.0
C1005 C 0.77843 0.66259 0.17109 0.0
H1006 H 0.77364 0.7149 0.17416 0.0
C1007 C 0.84229 0.71188 0.17305 0.0
C1008 C 0.84152 0.7289 0.16454 0.0
C1009 C 0.8265 0.70018 0.17378 0.0
C1010 C 0.77511 0.70033 0.17291 0.0
H1011 H 0.72993 0.61333 0.17906 0.0
H1012 H 0.75009 0.63596 0.16363 0.0
H1013 H 0.74673 0.69476 0.1813 0.0
H1014 H 0.82358 0.74679 0.14969 0.0
H1015 H 0.7959 0.72619 0.15078 0.0
H1016 H 0.80677 0.6681 0.16281 0.0
C1017 C 0.74292 0.63989 0.17605 0.0
C1018 C 0.75973 0.68877 0.17721 0.0
C1019 C 0.73127 0.62696 0.18477 0.0
C1020 C 0.82467 0.73372 0.15625 0.0
C1021 C 0.80877 0.72201 0.15704 0.0
C1022 C 0.79372 0.67411 0.16675 0.0
C1023 C 0.74605 0.65733 0.18382 0.0
C1024 C 0.76134 0.66974 0.17678 0.0
C1025 C 0.80946 0.70517 0.16599 0.0
C1026 C 0.79243 0.69311 0.1681 0.0
H1027 H 0.71748 0.65267 0.22105 0.0
H1028 H 0.73807 0.67519 0.20613 0.0
H1029 H 0.78035 0.64805 0.17079 0.0
H1030 H 0.85511 0.70766 0.17938 0.0
H1031 H 0.82751 0.68744 0.18099 0.0
C1032 C 0.61507 0.31063 0.65069 0.0
C1033 C 0.61777 0.29568 0.66216 0.0
C1034 C 0.6268 0.32626 0.65208 0.0
C1035 C 0.67191 0.34397 0.67193 0.0
H1036 H 0.64648 0.38959 0.67562 0.0
C1037 C 0.71214 0.41001 0.69255 0.0
C1038 C 0.70355 0.42071 0.70603 0.0
C1039 C 0.70199 0.39617 0.68333 0.0
C1040 C 0.65379 0.37697 0.67463 0.0
H1041 H 0.63554 0.28491 0.68315 0.0
H1042 H 0.6558 0.3121 0.68577 0.0
H1043 H 0.62897 0.36193 0.66636 0.0
H1044 H 0.67708 0.42581 0.71941 0.0
H1045 H 0.65958 0.40131 0.70382 0.0
H1046 H 0.69646 0.35869 0.68119 0.0
C1047 C 0.64474 0.31184 0.67564 0.0
C1048 C 0.64381 0.36115 0.66908 0.0
C1049 C 0.63301 0.2963 0.67429 0.0
C1050 C 0.6843 0.41769 0.7094 0.0
C1051 C 0.67417 0.40376 0.70024 0.0
C1052 C 0.68186 0.35974 0.67753 0.0
C1053 C 0.64152 0.32717 0.66487 0.0
C1054 C 0.65266 0.34438 0.66811 0.0
C1055 C 0.683 0.39256 0.68738 0.0
C1056 C 0.67284 0.37636 0.67935 0.0
H1057 H 0.60339 0.31059 0.64128 0.0
H1058 H 0.6241 0.33777 0.64344 0.0
H1059 H 0.67921 0.33132 0.67108 0.0
H1060 H 0.7269 0.41175 0.6895 0.0
H1061 H 0.70916 0.38803 0.67327 0.0
C1062 C 0.52562 0.60441 0.53979 0.0
C1063 C 0.51113 0.61262 0.53027 0.0
C1064 C 0.52159 0.59267 0.55433 0.0
C1065 C 0.48462 0.57755 0.58721 0.0
H1066 H 0.51424 0.53443 0.58897 0.0
C1067 C 0.48627 0.52933 0.6497 0.0
C1068 C 0.48956 0.51082 0.64648 0.0
C1069 C 0.48606 0.54159 0.63513 0.0
C1070 C 0.50561 0.54624 0.58858 0.0
H1071 H 0.48104 0.61542 0.52899 0.0
H1072 H 0.47398 0.59469 0.55425 0.0
H1073 H 0.51981 0.55642 0.56483 0.0
H1074 H 0.49362 0.49042 0.62537 0.0
H1075 H 0.4927 0.51164 0.59999 0.0
H1076 H 0.47021 0.56709 0.61089 0.0
C1077 C 0.48849 0.59748 0.55058 0.0
C1078 C 0.50905 0.55905 0.57487 0.0
C1079 C 0.49253 0.60933 0.53606 0.0
C1080 C 0.49128 0.50463 0.62833 0.0
C1081 C 0.4909 0.51684 0.61378 0.0
C1082 C 0.48114 0.56466 0.60096 0.0
C1083 C 0.50296 0.58872 0.55965 0.0
C1084 C 0.49876 0.57497 0.57411 0.0
C1085 C 0.489 0.53558 0.61704 0.0
C1086 C 0.49168 0.54888 0.60187 0.0
H1087 H 0.54011 0.60678 0.53582 0.0
H1088 H 0.53312 0.58653 0.56128 0.0
H1089 H 0.47648 0.5897 0.58707 0.0
H1090 H 0.48493 0.53456 0.66354 0.0
H1091 H 0.48464 0.55592 0.6382 0.0
C1092 C 0.69992 0.20967 0.84802 0.0
C1093 C 0.71587 0.22129 0.84614 0.0
C1094 C 0.68565 0.20962 0.83492 0.0
C1095 C 0.67478 0.22254 0.7875 0.0
H1096 H 0.62441 0.22836 0.80601 0.0
C1097 C 0.6154 0.24509 0.74073 0.0
C1098 C 0.59729 0.23747 0.74338 0.0
C1099 C 0.62969 0.24185 0.75318 0.0
C1100 C 0.63831 0.22644 0.80056 0.0
H1101 H 0.7298 0.24124 0.82871 0.0
H1102 H 0.70499 0.24103 0.8057 0.0
H1103 H 0.65 0.22393 0.82739 0.0
H1104 H 0.57995 0.22049 0.76121 0.0
H1105 H 0.605 0.21452 0.78281 0.0
H1106 H 0.6632 0.22499 0.76069 0.0
C1107 C 0.70348 0.23202 0.81731 0.0
C1108 C 0.65298 0.22391 0.81284 0.0
C1109 C 0.71763 0.23223 0.83051 0.0
C1110 C 0.59373 0.22665 0.75886 0.0
C1111 C 0.6081 0.22328 0.77126 0.0
C1112 C 0.6601 0.22491 0.77522 0.0
C1113 C 0.68716 0.221 0.81957 0.0
C1114 C 0.67141 0.22218 0.80645 0.0
C1115 C 0.6263 0.23076 0.76853 0.0
C1116 C 0.64171 0.22718 0.78159 0.0
H1117 H 0.69808 0.20124 0.86001 0.0
H1118 H 0.6733 0.20087 0.83693 0.0
H1119 H 0.6888 0.22102 0.78217 0.0
H1120 H 0.61859 0.25362 0.72902 0.0
H1121 H 0.64339 0.2482 0.75082 0.0
C1122 C 0.01649 0.48539 0.16358 0.0
C1123 C 0.00647 0.50028 0.15738 0.0
C1124 C 0.02014 0.47083 0.15178 0.0
C1125 C 0.02012 0.45672 0.10272 0.0
H1126 H 0.00808 0.40858 0.12176 0.0
C1127 C 0.00207 0.39615 0.05529 0.0
C1128 C 0.00951 0.37915 0.05919 0.0
C1129 C 0.00387 0.41058 0.06776 0.0
C1130 C 0.01177 0.42189 0.1163 0.0
H1131 H 0.99336 0.51195 0.13365 0.0
H1132 H 0.99967 0.48666 0.11316 0.0
H1133 H 0.0085 0.43492 0.1424 0.0
H1134 H 0.02439 0.36396 0.07955 0.0
H1135 H 0.02744 0.38929 0.10149 0.0
H1136 H 0.02292 0.44378 0.07655 0.0
C1137 C 0.0048 0.48621 0.1271 0.0
C1138 C 0.01206 0.43699 0.12813 0.0
C1139 C 0.00109 0.50071 0.13889 0.0
C1140 C 0.01846 0.37685 0.07612 0.0
C1141 C 0.0202 0.39135 0.08869 0.0
C1142 C 0.01979 0.44166 0.09091 0.0
C1143 C 0.01396 0.47089 0.1335 0.0
C1144 C 0.01586 0.45464 0.1214 0.0
C1145 C 0.01313 0.40845 0.08452 0.0
C1146 C 0.01521 0.42412 0.09748 0.0
H1147 H 0.02084 0.48461 0.17775 0.0
H1148 H 0.02746 0.45934 0.15706 0.0
H1149 H 0.02345 0.47007 0.09715 0.0
H1150 H 0.99501 0.39844 0.04243 0.0
H1151 H 0.99792 0.42345 0.06428 0.0
C1152 C 0.77912 0.76926 0.35549 0.0
C1153 C 0.77824 0.78399 0.36781 0.0
C1154 C 0.78965 0.77077 0.33946 0.0
C1155 C 0.83037 0.79628 0.32085 0.0
H1156 H 0.81629 0.77016 0.27632 0.0
C1157 C 0.88417 0.77713 0.26526 0.0
C1158 C 0.87838 0.77707 0.24689 0.0
C1159 C 0.87134 0.78028 0.27934 0.0
C1160 C 0.8204 0.77777 0.28853 0.0
H1161 H 0.78695 0.81219 0.3725 0.0
H1162 H 0.80516 0.81499 0.34419 0.0
H1163 H 0.79377 0.77238 0.30113 0.0
H1164 H 0.85477 0.78103 0.22884 0.0
H1165 H 0.83263 0.78689 0.25327 0.0
H1166 H 0.85699 0.80178 0.30814 0.0
C1167 C 0.7979 0.80216 0.34715 0.0
C1168 C 0.80752 0.77886 0.30285 0.0
C1169 C 0.78729 0.80063 0.36324 0.0
C1170 C 0.85965 0.78073 0.24287 0.0
C1171 C 0.84691 0.78403 0.2569 0.0
C1172 C 0.84325 0.79526 0.30646 0.0
C1173 C 0.79955 0.7871 0.3353 0.0
C1174 C 0.81245 0.78783 0.31931 0.0
C1175 C 0.8525 0.78357 0.27532 0.0
C1176 C 0.83852 0.78574 0.29023 0.0
H1177 H 0.77211 0.75634 0.35857 0.0
H1178 H 0.79071 0.75884 0.33076 0.0
H1179 H 0.8347 0.80315 0.3334 0.0
H1180 H 0.8985 0.77434 0.26878 0.0
H1181 H 0.87609 0.77961 0.29339 0.0
C1182 C 0.57711 0.48994 0.65078 0.0
C1183 C 0.56783 0.47957 0.66433 0.0
C1184 C 0.58696 0.48141 0.63679 0.0
C1185 C 0.61021 0.43977 0.62343 0.0
H1186 H 0.5986 0.45464 0.574 0.0
C1187 C 0.65537 0.42543 0.55923 0.0
C1188 C 0.64595 0.42099 0.54281 0.0
C1189 C 0.64533 0.4296 0.57506 0.0
C1190 C 0.60185 0.4502 0.5877 0.0
H1191 H 0.5623 0.45226 0.67436 0.0
H1192 H 0.57984 0.4373 0.64998 0.0
H1193 H 0.58285 0.46862 0.59994 0.0
H1194 H 0.61867 0.4166 0.53031 0.0
H1195 H 0.60108 0.424 0.558 0.0
H1196 H 0.62955 0.42159 0.61111 0.0
C1197 C 0.57933 0.45201 0.65015 0.0
C1198 C 0.593 0.45835 0.60255 0.0
C1199 C 0.56925 0.46054 0.66402 0.0
C1200 C 0.62628 0.41983 0.5428 0.0
C1201 C 0.61624 0.42424 0.55858 0.0
C1202 C 0.6193 0.43177 0.60855 0.0
C1203 C 0.58793 0.46235 0.63619 0.0
C1204 C 0.59718 0.45332 0.62055 0.0
C1205 C 0.62568 0.42963 0.57472 0.0
C1206 C 0.61523 0.43697 0.59054 0.0
H1207 H 0.5761 0.5046 0.65055 0.0
H1208 H 0.59362 0.4897 0.62627 0.0
H1209 H 0.61369 0.43566 0.63719 0.0
H1210 H 0.67052 0.42631 0.55959 0.0
H1211 H 0.65298 0.43379 0.58728 0.0
C1212 C 0.97035 0.40554 0.95937 0.0
C1213 C 0.98764 0.40912 0.96802 0.0
C1214 C 0.95718 0.41907 0.95818 0.0
C1215 C 0.94973 0.46861 0.96668 0.0
H1216 H 0.89965 0.45099 0.97963 0.0
C1217 C 0.89461 0.51383 0.99996 0.0
C1218 C 0.87598 0.51185 0.99389 0.0
C1219 C 0.90818 0.5021 0.99362 0.0
C1220 C 0.91347 0.45612 0.97572 0.0
H1221 H 0.00512 0.42991 0.98137 0.0
H1222 H 0.98212 0.45346 0.97968 0.0
H1223 H 0.92379 0.42932 0.97334 0.0
H1224 H 0.85702 0.49606 0.97626 0.0
H1225 H 0.88075 0.47535 0.96536 0.0
H1226 H 0.93942 0.49549 0.96995 0.0
C1227 C 0.97875 0.44034 0.97344 0.0
C1228 C 0.92735 0.44369 0.97203 0.0
C1229 C 0.99201 0.42684 0.97441 0.0
C1230 C 0.87124 0.49792 0.98123 0.0
C1231 C 0.8848 0.48605 0.97502 0.0
C1232 C 0.93586 0.48105 0.97055 0.0
C1233 C 0.96091 0.43644 0.96588 0.0
C1234 C 0.94575 0.44976 0.96773 0.0
C1235 C 0.90341 0.488 0.98118 0.0
C1236 C 0.91767 0.47492 0.9754 0.0
H1237 H 0.96674 0.39199 0.95424 0.0
H1238 H 0.94379 0.4157 0.95184 0.0
H1239 H 0.96363 0.47379 0.96312 0.0
H1240 H 0.89875 0.52446 0.00966 0.0
H1241 H 0.92234 0.5038 0.99879 0.0
C1242 C 0.64594 0.49078 0.47694 0.0
C1243 C 0.66507 0.49572 0.47526 0.0
C1244 C 0.63227 0.50271 0.47163 0.0
C1245 C 0.62324 0.55065 0.46524 0.0
H1246 H 0.58053 0.53179 0.43732 0.0
C1247 C 0.56243 0.59647 0.44734 0.0
C1248 C 0.54438 0.58881 0.45025 0.0
C1249 C 0.578 0.58551 0.44708 0.0
C1250 C 0.5923 0.53726 0.4452 0.0
H1251 H 0.68481 0.51719 0.46692 0.0
H1252 H 0.66072 0.53826 0.45788 0.0
H1253 H 0.6064 0.51206 0.44381 0.0
H1254 H 0.52841 0.56358 0.45451 0.0
H1255 H 0.5555 0.54445 0.4543 0.0
H1256 H 0.6089 0.57561 0.46732 0.0
C1257 C 0.65644 0.52506 0.46324 0.0
C1258 C 0.60712 0.52597 0.44887 0.0
C1259 C 0.6702 0.51301 0.4684 0.0
C1260 C 0.54211 0.56985 0.45202 0.0
C1261 C 0.55768 0.55889 0.45189 0.0
C1262 C 0.60834 0.56191 0.4617 0.0
C1263 C 0.63734 0.51992 0.46465 0.0
C1264 C 0.62258 0.53245 0.45922 0.0
C1265 C 0.57587 0.56664 0.44985 0.0
C1266 C 0.59253 0.55525 0.45191 0.0
H1267 H 0.64146 0.47758 0.48216 0.0
H1268 H 0.61766 0.4985 0.47316 0.0
H1269 H 0.63491 0.55595 0.47338 0.0
H1270 H 0.56454 0.61102 0.44568 0.0
H1271 H 0.59175 0.59188 0.44507 0.0
C1272 C 0.03381 0.06344 0.28682 0.0
C1273 C 0.0142 0.06227 0.28858 0.0
C1274 C 0.04286 0.0797 0.28115 0.0
C1275 C 0.03394 0.12412 0.259 0.0
H1276 H 0.07755 0.14152 0.28639 0.0
C1277 C 0.05774 0.19989 0.2629 0.0
C1278 C 0.07703 0.20437 0.26298 0.0
C1279 C 0.05133 0.18169 0.26325 0.0
C1280 C 0.06556 0.13675 0.27839 0.0
H1281 H 0.98873 0.07715 0.28531 0.0
H1282 H 0.00438 0.10528 0.27571 0.0
H1283 H 0.06431 0.111 0.29194 0.0
H1284 H 0.10472 0.19316 0.26295 0.0
H1285 H 0.0935 0.16141 0.26357 0.0
H1286 H 0.03486 0.15009 0.24588 0.0
C1287 C 0.01284 0.09368 0.27845 0.0
C1288 C 0.05798 0.11922 0.28156 0.0
C1289 C 0.00386 0.07752 0.28411 0.0
C1290 C 0.08976 0.1902 0.26287 0.0
C1291 C 0.08334 0.172 0.26336 0.0
C1292 C 0.04146 0.14165 0.2559 0.0
C1293 C 0.03246 0.09507 0.27704 0.0
C1294 C 0.04184 0.11283 0.27217 0.0
C1295 C 0.06405 0.16753 0.26381 0.0
C1296 C 0.05715 0.1483 0.2658 0.0
H1297 H 0.04218 0.05193 0.29015 0.0
H1298 H 0.05798 0.08026 0.28006 0.0
H1299 H 0.02173 0.11951 0.25125 0.0
H1300 H 0.04755 0.21046 0.26301 0.0
H1301 H 0.03638 0.17873 0.26378 0.0
C1302 C 0.19344 0.71709 0.59401 0.0
C1303 C 0.20645 0.73156 0.59725 0.0
C1304 C 0.17609 0.7203 0.58605 0.0
C1305 C 0.14257 0.75585 0.57594 0.0
H1306 H 0.13099 0.72662 0.53269 0.0
C1307 C 0.08771 0.77714 0.52332 0.0
C1308 C 0.07644 0.76351 0.51468 0.0
C1309 C 0.10262 0.77257 0.53453 0.0
C1310 C 0.13377 0.73472 0.5449 0.0
H1311 H 0.21105 0.76085 0.5957 0.0
H1312 H 0.18068 0.76646 0.58206 0.0
H1313 H 0.1579 0.7196 0.55144 0.0
H1314 H 0.07242 0.73427 0.51105 0.0
H1315 H 0.09791 0.72634 0.53106 0.0
H1316 H 0.11846 0.77096 0.5695 0.0
C1317 C 0.18393 0.75263 0.58558 0.0
C1318 C 0.14922 0.73068 0.55564 0.0
C1319 C 0.20135 0.7494 0.59331 0.0
C1320 C 0.08058 0.74518 0.51756 0.0
C1321 C 0.0954 0.74061 0.52891 0.0
C1322 C 0.12699 0.75978 0.56531 0.0
C1323 C 0.17133 0.73807 0.58143 0.0
C1324 C 0.15393 0.74136 0.57112 0.0
C1325 C 0.10661 0.75424 0.53757 0.0
C1326 C 0.12256 0.74943 0.54949 0.0
H1327 H 0.19696 0.70318 0.59688 0.0
H1328 H 0.16654 0.70885 0.58316 0.0
H1329 H 0.14578 0.76419 0.58792 0.0
H1330 H 0.08495 0.7914 0.52171 0.0
H1331 H 0.11113 0.78347 0.5407 0.0
C1332 C 0.51461 0.91649 0.82749 0.0
C1333 C 0.51336 0.92937 0.81345 0.0
C1334 C 0.50677 0.89888 0.82524 0.0
C1335 C 0.46908 0.87443 0.80052 0.0
H1336 H 0.49362 0.8309 0.8158 0.0
C1337 C 0.43335 0.80348 0.79087 0.0
C1338 C 0.43534 0.79084 0.80499 0.0
C1339 C 0.44424 0.81968 0.79067 0.0
C1340 C 0.48647 0.84293 0.81166 0.0
H1341 H 0.50339 0.93364 0.78581 0.0
H1342 H 0.4896 0.90299 0.78198 0.0
H1343 H 0.51036 0.86043 0.81784 0.0
H1344 H 0.45053 0.78517 0.82986 0.0
H1345 H 0.4691 0.81362 0.82985 0.0
H1346 H 0.445 0.85725 0.79491 0.0
C1347 C 0.49659 0.90655 0.79475 0.0
C1348 C 0.49611 0.85983 0.81276 0.0
C1349 C 0.50459 0.92408 0.79691 0.0
C1350 C 0.44871 0.7946 0.81874 0.0
C1351 C 0.45945 0.8109 0.81866 0.0
C1352 C 0.45938 0.8576 0.79959 0.0
C1353 C 0.49735 0.89385 0.80898 0.0
C1354 C 0.4875 0.87576 0.80723 0.0
C1355 C 0.45723 0.82376 0.80472 0.0
C1356 C 0.4679 0.8416 0.80519 0.0
H1357 H 0.52129 0.9201 0.84038 0.0
H1358 H 0.50748 0.88942 0.83649 0.0
H1359 H 0.46196 0.88651 0.79644 0.0
H1360 H 0.4233 0.80092 0.77997 0.0
H1361 H 0.44239 0.82903 0.77949 0.0
C1362 C 0.33524 0.26534 0.08828 0.0
C1363 C 0.32348 0.27863 0.08143 0.0
C1364 C 0.3527 0.26259 0.0803 0.0
C1365 C 0.37634 0.26707 0.0361 0.0
H1366 H 0.42026 0.25411 0.06353 0.0
C1367 C 0.44342 0.24496 0.99934 0.0
C1368 C 0.45224 0.22989 0.0067 0.0
C1369 C 0.42948 0.25368 0.00919 0.0
C1370 C 0.40808 0.25759 0.05566 0.0
H1371 H 0.32127 0.30004 0.06138 0.0
H1372 H 0.35183 0.29518 0.0474 0.0
H1373 H 0.39282 0.26484 0.07978 0.0
H1374 H 0.45345 0.2123 0.03031 0.0
H1375 H 0.42901 0.22726 0.04738 0.0
H1376 H 0.39122 0.25922 0.01205 0.0
C1377 C 0.34741 0.28682 0.05888 0.0
C1378 C 0.39239 0.26379 0.06498 0.0
C1379 C 0.32997 0.28968 0.06697 0.0
C1380 C 0.44713 0.22401 0.02434 0.0
C1381 C 0.4331 0.23265 0.03415 0.0
C1382 C 0.39198 0.26077 0.0268 0.0
C1383 C 0.35879 0.27297 0.06521 0.0
C1384 C 0.37622 0.26833 0.05532 0.0
C1385 C 0.42392 0.24745 0.02661 0.0
C1386 C 0.40795 0.25567 0.03647 0.0
H1387 H 0.3307 0.25662 0.09945 0.0
H1388 H 0.36104 0.25171 0.08541 0.0
H1389 H 0.36401 0.27018 0.02827 0.0
H1390 H 0.44726 0.24999 0.98591 0.0
H1391 H 0.42298 0.26525 0.00309 0.0
C1392 C 0.28291 0.01054 0.23365 0.0
C1393 C 0.28079 0.02858 0.23967 0.0
C1394 C 0.2874 0.00676 0.21536 0.0
C1395 C 0.30679 0.02821 0.17325 0.0
H1396 H 0.27896 0.98924 0.14813 0.0
C1397 C 0.32065 0.00949 0.09734 0.0
C1398 C 0.30472 0.00614 0.08633 0.0
C1399 C 0.31896 0.01114 0.11637 0.0
C1400 C 0.28682 1.0002 0.15494 0.0
H1401 H 0.2816 0.05678 0.23086 0.0
H1402 H 0.28949 0.05022 0.19929 0.0
H1403 H 0.27403 0.9942 0.18084 0.0
H1404 H 0.27448 0.00223 0.08686 0.0
H1405 H 0.27156 0.00508 0.11992 0.0
H1406 H 0.31916 0.03457 0.14726 0.0
C1407 C 0.28801 0.03898 0.20876 0.0
C1408 C 0.28415 0.0029 0.17373 0.0
C1409 C 0.28348 0.04274 0.22696 0.0
C1410 C 0.28709 0.00448 0.09487 0.0
C1411 C 0.2854 0.00611 0.11387 0.0
C1412 C 0.3095 0.02547 0.15448 0.0
C1413 C 0.28993 0.02096 0.20269 0.0
C1414 C 0.2939 0.01711 0.18306 0.0
C1415 C 0.30131 0.00946 0.12486 0.0
C1416 C 0.29934 0.0116 0.14504 0.0
H1417 H 0.28116 0.99932 0.24307 0.0
H1418 H 0.28897 0.99273 0.21115 0.0
H1419 H 0.31469 0.03915 0.18008 0.0
H1420 H 0.33448 0.01058 0.0913 0.0
H1421 H 0.33151 0.01353 0.12447 0.0
C1422 C 0.2248 0.01243 0.48513 0.0
C1423 C 0.21236 0.02549 0.49147 0.0
C1424 C 0.2358 0.01574 0.46956 0.0
C1425 C 0.25333 0.05225 0.43836 0.0
H1426 H 0.2529 0.0135 0.40197 0.0
C1427 C 0.26684 0.06498 0.36173 0.0
C1428 C 0.27548 0.05161 0.35111 0.0
C1429 C 0.26292 0.06204 0.38024 0.0
C1430 C 0.25353 0.02437 0.41209 0.0
H1431 H 0.20228 0.05256 0.48679 0.0
H1432 H 0.22136 0.05826 0.45963 0.0
H1433 H 0.23906 0.00787 0.43196 0.0
H1434 H 0.28773 0.02505 0.35193 0.0
H1435 H 0.28107 0.02 0.38434 0.0
H1436 H 0.26741 0.06887 0.41831 0.0
C1437 C 0.22273 0.04551 0.46675 0.0
C1438 C 0.24556 0.02114 0.42931 0.0
C1439 C 0.21168 0.04218 0.48227 0.0
C1440 C 0.28097 0.0356 0.35968 0.0
C1441 C 0.27704 0.03265 0.37824 0.0
C1442 C 0.26135 0.05547 0.42115 0.0
C1443 C 0.23469 0.03221 0.46003 0.0
C1444 C 0.24501 0.03514 0.44252 0.0
C1445 C 0.26756 0.04565 0.38863 0.0
C1446 C 0.26119 0.04168 0.40766 0.0
H1447 H 0.22573 0.99946 0.49193 0.0
H1448 H 0.24504 0.0053 0.46485 0.0
H1449 H 0.25341 0.06324 0.44835 0.0
H1450 H 0.26243 0.0775 0.35561 0.0
H1451 H 0.25544 0.07228 0.38774 0.0
C1452 C 0.19813 0.95033 0.72593 0.0
C1453 C 0.18684 0.95398 0.74122 0.0
C1454 C 0.19491 0.95857 0.70915 0.0
C1455 C 0.17381 0.99817 0.6882 0.0
H1456 H 0.17862 0.96956 0.64366 0.0
C1457 C 0.18447 0.02998 0.61647 0.0
C1458 C 0.17603 0.02102 0.60134 0.0
C1459 C 0.18335 0.02233 0.63393 0.0
C1460 C 0.17698 0.97772 0.65594 0.0
H1461 H 0.16325 0.96913 0.75084 0.0
H1462 H 0.15751 0.98357 0.72132 0.0
H1463 H 0.18088 0.95486 0.67326 0.0
H1464 H 0.15939 0.99708 0.59295 0.0
H1465 H 0.15713 0.984 0.62335 0.0
H1466 H 0.16993 0.02106 0.67078 0.0
C1467 C 0.16895 0.97437 0.72245 0.0
C1468 C 0.1785 0.96932 0.67292 0.0
C1469 C 0.17213 0.96601 0.73928 0.0
C1470 C 0.16593 0.00449 0.60423 0.0
C1471 C 0.16482 0.99686 0.62167 0.0
C1472 C 0.17233 0.0066 0.67116 0.0
C1473 C 0.1803 0.97069 0.70719 0.0
C1474 C 0.1772 0.97948 0.68924 0.0
C1475 C 0.17378 0.00551 0.63667 0.0
C1476 C 0.1741 0.9965 0.65483 0.0
H1477 H 0.20938 0.94091 0.72683 0.0
H1478 H 0.20405 0.9556 0.69775 0.0
H1479 H 0.17285 0.00638 0.70053 0.0
H1480 H 0.19215 0.04282 0.61479 0.0
H1481 H 0.19054 0.0293 0.64516 0.0
C1482 C 0.25878 0.94962 0.83815 0.0
C1483 C 0.23993 0.95275 0.83419 0.0
C1484 C 0.26728 0.95743 0.85374 0.0
C1485 C 0.26287 0.99372 0.88876 0.0
H1486 H 0.28926 0.9608 0.91994 0.0
C1487 C 0.28222 0.01203 0.96376 0.0
C1488 C 0.29937 0.00615 0.97049 0.0
C1489 C 0.27577 0.0063 0.94648 0.0
C1490 C 0.2822 0.97029 0.9113 0.0
H1491 H 0.21548 0.96718 0.843 0.0
H1492 H 0.23033 0.98086 0.87005 0.0
H1493 H 0.27738 0.95008 0.89039 0.0
H1494 H 0.32337 0.9899 0.96419 0.0
H1495 H 0.31234 0.98027 0.93405 0.0
H1496 H 0.26769 0.01395 0.90965 0.0
C1497 C 0.23855 0.97239 0.86115 0.0
C1498 C 0.2754 0.96412 0.89434 0.0
C1499 C 0.23002 0.96446 0.84569 0.0
C1500 C 0.30999 0.99456 0.95951 0.0
C1501 C 0.30362 0.98895 0.94222 0.0
C1502 C 0.2698 0.99994 0.90568 0.0
C1503 C 0.25715 0.96868 0.86555 0.0
C1504 C 0.26551 0.97571 0.88295 0.0
C1505 C 0.28638 0.99466 0.9355 0.0
C1506 C 0.27942 0.98826 0.91724 0.0
H1507 H 0.26678 0.94065 0.82956 0.0
H1508 H 0.2817 0.95448 0.85669 0.0
H1509 H 0.25546 0.00302 0.88019 0.0
H1510 H 0.27369 0.02093 0.9719 0.0
H1511 H 0.2623 0.01077 0.94188 0.0
C1512 C 0.07986 0.32853 0.01587 0.0
C1513 C 0.06462 0.31634 0.01889 0.0
C1514 C 0.09797 0.32401 0.02107 0.0
C1515 C 0.12562 0.28385 0.03413 0.0
H1516 H 0.1621 0.32103 0.04997 0.0
C1517 C 0.19669 0.26809 0.06762 0.0
C1518 C 0.21247 0.27676 0.0596 0.0
C1519 C 0.17864 0.27302 0.06274 0.0
C1520 C 0.15204 0.31054 0.0455 0.0
H1521 H 0.05613 0.29031 0.03044 0.0
H1522 H 0.08739 0.2827 0.04023 0.0
H1523 H 0.13051 0.32964 0.04185 0.0
H1524 H 0.22182 0.29762 0.04055 0.0
H1525 H 0.19024 0.30649 0.03227 0.0
H1526 H 0.14712 0.26473 0.03842 0.0
C1527 C 0.08569 0.29542 0.03316 0.0
C1528 C 0.13395 0.31545 0.04072 0.0
C1529 C 0.06771 0.2998 0.02766 0.0
C1530 C 0.20988 0.29059 0.04677 0.0
C1531 C 0.19186 0.29576 0.04216 0.0
C1532 C 0.14358 0.27893 0.03923 0.0
C1533 C 0.10116 0.30732 0.02971 0.0
C1534 C 0.12047 0.30218 0.03492 0.0
C1535 C 0.17607 0.28696 0.05004 0.0
C1536 C 0.15697 0.29222 0.04489 0.0
H1537 H 0.07783 0.34131 0.00901 0.0
H1538 H 0.10948 0.33345 0.01791 0.0
H1539 H 0.11588 0.27325 0.02933 0.0
H1540 H 0.19833 0.25736 0.07749 0.0
H1541 H 0.16669 0.26608 0.06906 0.0
C1542 C 0.68074 0.26521 0.90848 0.0
C1543 C 0.69811 0.26201 0.91666 0.0
C1544 C 0.66401 0.25939 0.91696 0.0
C1545 C 0.64663 0.22398 0.94818 0.0
H1546 H 0.60117 0.25121 0.94952 0.0
C1547 C 0.58036 0.19628 0.98497 0.0
C1548 C 0.56289 0.19927 0.97696 0.0
C1549 C 0.59666 0.20486 0.97816 0.0
C1550 C 0.61368 0.24333 0.94905 0.0
H1551 H 0.71146 0.25113 0.94069 0.0
H1552 H 0.68231 0.24105 0.95543 0.0
H1553 H 0.62994 0.26535 0.93717 0.0
H1554 H 0.54884 0.2136 0.9554 0.0
H1555 H 0.57736 0.22823 0.94318 0.0
H1556 H 0.63046 0.20183 0.95957 0.0
C1557 C 0.68164 0.24784 0.94235 0.0
C1558 C 0.63018 0.25148 0.94205 0.0
C1559 C 0.69834 0.25375 0.93395 0.0
C1560 C 0.56209 0.21103 0.96192 0.0
C1561 C 0.57844 0.21953 0.955 0.0
C1562 C 0.63015 0.2158 0.95503 0.0
C1563 C 0.66433 0.25017 0.93373 0.0
C1564 C 0.64684 0.2419 0.94159 0.0
C1565 C 0.59595 0.21654 0.96303 0.0
C1566 C 0.61345 0.22536 0.95561 0.0
H1567 H 0.68005 0.27156 0.89518 0.0
H1568 H 0.6509 0.26134 0.90994 0.0
H1569 H 0.65915 0.2161 0.94766 0.0
H1570 H 0.58148 0.18743 0.99668 0.0
H1571 H 0.60981 0.20248 0.98493 0.0
C1572 C 0.02551 0.32477 0.26237 0.0
C1573 C 0.04158 0.32023 0.27217 0.0
C1574 C 0.02123 0.34297 0.25981 0.0
C1575 C 0.02875 0.38892 0.27889 0.0
H1576 H 0.01434 0.40439 0.23044 0.0
C1577 C 0.01752 0.46461 0.26151 0.0
C1578 C 0.00344 0.46841 0.24883 0.0
C1579 C 0.02222 0.44663 0.2649 0.0
C1580 C 0.01804 0.40029 0.24413 0.0
H1581 H 0.06562 0.33121 0.28717 0.0
H1582 H 0.05805 0.36314 0.28279 0.0
H1583 H 0.02256 0.37294 0.23527 0.0
H1584 H 0.9827 0.45634 0.23039 0.0
H1585 H 0.99048 0.42499 0.2366 0.0
H1586 H 0.02389 0.41616 0.28786 0.0
C1587 C 0.04881 0.35255 0.27708 0.0
C1588 C 0.02284 0.38226 0.24686 0.0
C1589 C 0.05323 0.33431 0.27946 0.0
C1590 C 0.99381 0.45383 0.24001 0.0
C1591 C 0.99835 0.43587 0.24353 0.0
C1592 C 0.02377 0.40695 0.2762 0.0
C1593 C 0.03281 0.35706 0.26714 0.0
C1594 C 0.02818 0.37636 0.26427 0.0
C1595 C 0.01282 0.43201 0.25581 0.0
C1596 C 0.01827 0.41286 0.25879 0.0
H1597 H 0.01637 0.31425 0.25643 0.0
H1598 H 0.00873 0.34601 0.25222 0.0
H1599 H 0.03265 0.38471 0.2925 0.0
H1600 H 0.02534 0.47557 0.26835 0.0
H1601 H 0.03359 0.44424 0.27427 0.0
C1602 C 0.96316 0.79037 0.49193 0.0
C1603 C 0.96864 0.80664 0.48308 0.0
C1604 C 0.94432 0.7846 0.49253 0.0
C1605 C 0.89587 0.79973 0.48568 0.0
H1606 H 0.88566 0.74922 0.47204 0.0
C1607 C 0.82485 0.77378 0.45699 0.0
C1608 C 0.81805 0.75619 0.46148 0.0
C1609 C 0.84255 0.78005 0.46277 0.0
C1610 C 0.88822 0.76327 0.47622 0.0
H1611 H 0.95851 0.82997 0.4686 0.0
H1612 H 0.92567 0.81982 0.46952 0.0
H1613 H 0.91786 0.76021 0.47665 0.0
H1614 H 0.82432 0.73158 0.4761 0.0
H1615 H 0.85531 0.74261 0.48632 0.0
H1616 H 0.8662 0.80285 0.48483 0.0
C1617 C 0.93592 0.81159 0.47612 0.0
C1618 C 0.9067 0.76958 0.47885 0.0
C1619 C 0.95477 0.81737 0.4755 0.0
C1620 C 0.82918 0.74517 0.47233 0.0
C1621 C 0.84696 0.75146 0.47811 0.0
C1622 C 0.87736 0.7934 0.48307 0.0
C1623 C 0.93052 0.79497 0.48433 0.0
C1624 C 0.91077 0.78796 0.48329 0.0
C1625 C 0.85393 0.7689 0.47321 0.0
C1626 C 0.87335 0.77517 0.47797 0.0
H1627 H 0.97347 0.78183 0.49802 0.0
H1628 H 0.94058 0.77186 0.49919 0.0
H1629 H 0.89852 0.81389 0.48938 0.0
H1630 H 0.81665 0.78266 0.44867 0.0
H1631 H 0.84756 0.79345 0.45851 0.0
C1632 C 0.30745 0.68766 0.54158 0.0
C1633 C 0.30244 0.70566 0.5451 0.0
C1634 C 0.32315 0.68407 0.53093 0.0
C1635 C 0.36778 0.70587 0.51555 0.0
H1636 H 0.37014 0.6623 0.4854 0.0
C1637 C 0.43377 0.68821 0.47424 0.0
C1638 C 0.43997 0.67051 0.47702 0.0
C1639 C 0.41606 0.69306 0.48029 0.0
C1640 C 0.36965 0.67451 0.49378 0.0
H1641 H 0.30943 0.73399 0.53958 0.0
H1642 H 0.33666 0.72778 0.52056 0.0
H1643 H 0.34049 0.67014 0.49957 0.0
H1644 H 0.43225 0.64385 0.48764 0.0
H1645 H 0.40122 0.65228 0.49814 0.0
H1646 H 0.39697 0.71019 0.50971 0.0
C1647 C 0.32874 0.71642 0.52643 0.0
C1648 C 0.35271 0.67898 0.50196 0.0
C1649 C 0.31313 0.72 0.53726 0.0
C1650 C 0.42789 0.65762 0.48548 0.0
C1651 C 0.41009 0.6624 0.49133 0.0
C1652 C 0.38466 0.7015 0.50721 0.0
C1653 C 0.33413 0.69841 0.52337 0.0
C1654 C 0.35164 0.69455 0.51323 0.0
C1655 C 0.40411 0.68023 0.48901 0.0
C1656 C 0.38583 0.68562 0.49651 0.0
H1657 H 0.29967 0.67633 0.54767 0.0
H1658 H 0.32703 0.67006 0.52919 0.0
H1659 H 0.36761 0.71779 0.52437 0.0
H1660 H 0.44284 0.69846 0.4679 0.0
H1661 H 0.41174 0.70687 0.47825 0.0
C1662 C 0.93869 0.96343 0.26559 0.0
C1663 C 0.95649 0.97215 0.26454 0.0
C1664 C 0.93459 0.94756 0.25543 0.0
C1665 C 0.9582 0.90938 0.23303 0.0
H1666 H 0.90916 0.89862 0.21209 0.0
C1667 C 0.94224 0.84396 0.19063 0.0
C1668 C 0.9253 0.83444 0.19459 0.0
C1669 C 0.94584 0.8615 0.19767 0.0
C1670 C 0.92289 0.90138 0.21797 0.0
H1671 H 0.98359 0.97157 0.25121 0.0
H1672 H 0.97642 0.94403 0.23336 0.0
H1673 H 0.91573 0.92812 0.22681 0.0
H1674 H 0.89861 0.83625 0.20856 0.0
H1675 H 0.90498 0.86669 0.22103 0.0
H1676 H 0.96533 0.88262 0.22434 0.0
C1677 C 0.96575 0.94919 0.24237 0.0
C1678 C 0.92666 0.91828 0.22642 0.0
C1679 C 0.96986 0.965 0.25258 0.0
C1680 C 0.91189 0.84307 0.20543 0.0
C1681 C 0.91546 0.86063 0.21241 0.0
C1682 C 0.95446 0.89252 0.22455 0.0
C1683 C 0.94818 0.94008 0.24391 0.0
C1684 C 0.94433 0.92245 0.23417 0.0
C1685 C 0.93255 0.86998 0.20877 0.0
C1686 C 0.93672 0.88826 0.21703 0.0
H1687 H 0.92814 0.96843 0.27482 0.0
H1688 H 0.92098 0.9408 0.25712 0.0
H1689 H 0.97186 0.91197 0.23914 0.0
H1690 H 0.95293 0.8377 0.18245 0.0
H1691 H 0.95907 0.86841 0.19445 0.0
C1692 C 0.53868 0.05198 0.76607 0.0
C1693 C 0.53617 0.03605 0.75544 0.0
C1694 C 0.54074 0.06896 0.75773 0.0
C1695 C 0.53093 0.0937 0.71556 0.0
H1696 H 0.56986 0.12738 0.7335 0.0
C1697 C 0.54693 0.16397 0.68208 0.0
C1698 C 0.55099 0.17862 0.6941 0.0
C1699 C 0.54553 0.14612 0.68863 0.0
C1700 C 0.55878 0.11823 0.72845 0.0
H1701 H 0.53349 0.02549 0.72773 0.0
H1702 H 0.53709 0.05526 0.7131 0.0
H1703 H 0.56637 0.09717 0.74676 0.0
H1704 H 0.55611 0.18605 0.72252 0.0
H1705 H 0.5535 0.15515 0.73392 0.0
H1706 H 0.5231 0.11491 0.69748 0.0
C1707 C 0.53746 0.05454 0.72791 0.0
C1708 C 0.55682 0.1009 0.73603 0.0
C1709 C 0.53555 0.03751 0.73626 0.0
C1710 C 0.5534 0.17506 0.71281 0.0
C1711 C 0.55191 0.15729 0.71936 0.0
C1712 C 0.53282 0.11112 0.70803 0.0
C1713 C 0.54023 0.07043 0.73856 0.0
C1714 C 0.54275 0.08851 0.72983 0.0
C1715 C 0.54807 0.14257 0.70736 0.0
C1716 C 0.54664 0.12367 0.71454 0.0
H1717 H 0.53942 0.05131 0.78085 0.0
H1718 H 0.54266 0.08098 0.76631 0.0
H1719 H 0.51988 0.08447 0.71059 0.0
H1720 H 0.54515 0.16628 0.66758 0.0
H1721 H 0.54274 0.13508 0.67898 0.0
C1722 C 0.5442 0.30964 0.72298 0.0
C1723 C 0.54068 0.295 0.71082 0.0
C1724 C 0.53321 0.32497 0.72256 0.0
C1725 C 0.50582 0.35081 0.69049 0.0
H1726 H 0.49333 0.37855 0.73395 0.0
C1727 C 0.47773 0.42345 0.68556 0.0
C1728 C 0.4869 0.43625 0.69718 0.0
C1729 C 0.47978 0.40475 0.68816 0.0
C1730 C 0.49672 0.37097 0.72166 0.0
H1731 H 0.52231 0.28464 0.68919 0.0
H1732 H 0.50317 0.31155 0.6884 0.0
H1733 H 0.50519 0.348 0.73707 0.0
H1734 H 0.5047 0.43938 0.72115 0.0
H1735 H 0.5084 0.40707 0.72553 0.0
H1736 H 0.4982 0.37405 0.6751 0.0
C1737 C 0.5145 0.31114 0.69821 0.0
C1738 C 0.50349 0.35347 0.72347 0.0
C1739 C 0.5254 0.2957 0.69875 0.0
C1740 C 0.49748 0.42993 0.71189 0.0
C1741 C 0.49947 0.41133 0.71451 0.0
C1742 C 0.49913 0.36836 0.68868 0.0
C1743 C 0.51853 0.32608 0.70988 0.0
C1744 C 0.50861 0.3434 0.70792 0.0
C1745 C 0.49095 0.39849 0.70251 0.0
C1746 C 0.49504 0.37886 0.70428 0.0
H1747 H 0.55583 0.30952 0.73248 0.0
H1748 H 0.53681 0.33631 0.73161 0.0
H1749 H 0.50981 0.34346 0.67824 0.0
H1750 H 0.46945 0.42787 0.67411 0.0
H1751 H 0.47288 0.3952 0.67877 0.0
C1752 C 0.82838 0.24984 0.94768 0.0
C1753 C 0.81721 0.26074 0.93666 0.0
C1754 C 0.84484 0.257 0.95568 0.0
C1755 C 0.88081 0.29382 0.95158 0.0
H1756 H 0.89006 0.28447 0.00292 0.0
C1757 C 0.94101 0.33116 0.99036 0.0
C1758 C 0.95123 0.32127 0.00308 0.0
C1759 C 0.92451 0.32375 0.98271 0.0
C1760 C 0.88785 0.28702 0.98851 0.0
H1761 H 0.81501 0.28785 0.9254 0.0
H1762 H 0.84386 0.30014 0.93908 0.0
H1763 H 0.86198 0.27132 0.98825 0.0
H1764 H 0.95196 0.29589 0.01792 0.0
H1765 H 0.92332 0.28274 0.00426 0.0
H1766 H 0.90674 0.30926 0.95166 0.0
C1767 C 0.83981 0.28601 0.94146 0.0
C1768 C 0.87172 0.27951 0.98012 0.0
C1769 C 0.82325 0.27891 0.93356 0.0
C1770 C 0.94436 0.3039 0.00823 0.0
C1771 C 0.9279 0.29639 1.00043 0.0
C1772 C 0.897 0.30121 0.95992 0.0
C1773 C 0.85069 0.27519 0.95275 0.0
C1774 C 0.86799 0.2829 0.96158 0.0
C1775 C 0.91785 0.30616 0.98742 0.0
C1776 C 0.90069 0.29801 0.97853 0.0
H1777 H 0.82446 0.23572 0.95013 0.0
H1778 H 0.85309 0.24823 0.96407 0.0
H1779 H 0.87846 0.29646 0.93721 0.0
H1780 H 0.94581 0.34466 0.98621 0.0
H1781 H 0.91696 0.33187 0.97308 0.0
C1782 C 0.92509 0.70409 0.22234 0.0
C1783 C 0.92748 0.71774 0.20907 0.0
C1784 C 0.93652 0.68903 0.22231 0.0
C1785 C 0.96402 0.66138 0.19116 0.0
H1786 H 0.98321 0.64074 0.23576 0.0
C1787 C 0.00359 0.59452 0.18889 0.0
C1788 C 0.99873 0.58175 0.20247 0.0
C1789 C 0.99824 0.6126 0.19055 0.0
C1790 C 0.97785 0.64623 0.22318 0.0
H1791 H 0.94408 0.72646 0.18562 0.0
H1792 H 0.96392 0.70005 0.18548 0.0
H1793 H 0.9672 0.66952 0.23709 0.0
H1794 H 0.9852 0.57825 0.2289 0.0
H1795 H 0.97553 0.60948 0.2316 0.0
H1796 H 0.97387 0.63786 0.17729 0.0
C1797 C 0.95316 0.70102 0.19588 0.0
C1798 C 0.96872 0.66276 0.22395 0.0
C1799 C 0.94185 0.71619 0.19603 0.0
C1800 C 0.98924 0.58771 0.21819 0.0
C1801 C 0.98375 0.60572 0.21977 0.0
C1802 C 0.97298 0.64479 0.1904 0.0
C1803 C 0.95049 0.68718 0.20891 0.0
C1804 C 0.9615 0.6704 0.20798 0.0
C1805 C 0.98775 0.61832 0.20576 0.0
C1806 C 0.97981 0.63684 0.20643 0.0
H1807 H 0.91419 0.70487 0.23261 0.0
H1808 H 0.934 0.67852 0.23242 0.0
H1809 H 0.9584 0.66679 0.17864 0.0
H1810 H 0.011 0.59043 0.17667 0.0
H1811 H 0.00196 0.62199 0.17968 0.0
C1812 C 0.56553 0.68413 0.50554 0.0
C1813 C 0.55477 0.67728 0.49076 0.0
C1814 C 0.58298 0.6929 0.50247 0.0
C1815 C 0.62058 0.696 0.46763 0.0
H1816 H 0.63821 0.738 0.49603 0.0
C1817 C 0.68903 0.73589 0.44974 0.0
C1818 C 0.70098 0.7408 0.46439 0.0
C1819 C 0.67086 0.72898 0.453 0.0
C1820 C 0.63352 0.72619 0.48809 0.0
H1821 H 0.55353 0.67493 0.46112 0.0
H1822 H 0.58362 0.69044 0.45579 0.0
H1823 H 0.60696 0.72462 0.50176 0.0
H1824 H 0.70301 0.74221 0.49404 0.0
H1825 H 0.67133 0.73028 0.49969 0.0
H1826 H 0.64709 0.69754 0.45396 0.0
C1827 C 0.57887 0.68868 0.46978 0.0
C1828 C 0.61564 0.71851 0.49138 0.0
C1829 C 0.56154 0.67988 0.47285 0.0
C1830 C 0.69417 0.73884 0.4824 0.0
C1831 C 0.67598 0.73198 0.48566 0.0
C1832 C 0.6384 0.7037 0.4643 0.0
C1833 C 0.58996 0.69504 0.48454 0.0
C1834 C 0.60894 0.70333 0.48116 0.0
C1835 C 0.66416 0.72685 0.471 0.0
C1836 C 0.64508 0.71889 0.47447 0.0
H1837 H 0.56072 0.68232 0.5195 0.0
H1838 H 0.59122 0.69751 0.51416 0.0
H1839 H 0.61605 0.68409 0.45976 0.0
H1840 H 0.69363 0.73749 0.4357 0.0
H1841 H 0.66199 0.72541 0.44141 0.0
C1842 C 0.68134 0.45243 0.41228 0.0
C1843 C 0.69611 0.44159 0.41785 0.0
C1844 C 0.68067 0.45916 0.39448 0.0
C1845 C 0.71211 0.47053 0.35588 0.0
H1846 H 0.66547 0.48064 0.3315 0.0
C1847 C 0.70878 0.52455 0.30009 0.0
C1848 C 0.69685 0.52153 0.285 0.0
C1849 C 0.70834 0.51263 0.31485 0.0
C1850 C 0.67864 0.4777 0.33797 0.0
H1851 H 0.72123 0.42858 0.40858 0.0
H1852 H 0.71977 0.43988 0.37735 0.0
H1853 H 0.66494 0.46242 0.35927 0.0
H1854 H 0.675 0.50366 0.27364 0.0
H1855 H 0.6743 0.48259 0.29948 0.0
H1856 H 0.72583 0.48563 0.33454 0.0
C1857 C 0.70893 0.44354 0.38695 0.0
C1858 C 0.67833 0.46743 0.35403 0.0
C1859 C 0.70966 0.43688 0.40483 0.0
C1860 C 0.68429 0.50637 0.28511 0.0
C1861 C 0.6839 0.49433 0.29991 0.0
C1862 C 0.71242 0.48069 0.3398 0.0
C1863 C 0.69466 0.45512 0.38167 0.0
C1864 C 0.69503 0.46407 0.36342 0.0
C1865 C 0.69601 0.49729 0.31493 0.0
C1866 C 0.69568 0.4848 0.33089 0.0
H1867 H 0.67041 0.45604 0.42177 0.0
H1868 H 0.66954 0.46814 0.39103 0.0
H1869 H 0.72525 0.46839 0.36276 0.0
H1870 H 0.71828 0.53634 0.30067 0.0
H1871 H 0.71749 0.51566 0.32637 0.0
C1872 C 0.72531 0.4792 0.54586 0.0
C1873 C 0.72551 0.46533 0.53249 0.0
C1874 C 0.73685 0.47856 0.56126 0.0
C1875 C 0.75819 0.44496 0.59022 0.0
H1876 H 0.78062 0.48736 0.61474 0.0
C1877 C 0.78741 0.43938 0.66316 0.0
C1878 C 0.78182 0.45304 0.67539 0.0
C1879 C 0.78549 0.44156 0.64424 0.0
C1880 C 0.77439 0.47538 0.6081 0.0
H1881 H 0.73882 0.44046 0.52429 0.0
H1882 H 0.75894 0.43934 0.55125 0.0
H1883 H 0.76812 0.49016 0.58381 0.0
H1884 H 0.77092 0.48018 0.67722 0.0
H1885 H 0.76724 0.48381 0.64443 0.0
H1886 H 0.76353 0.43032 0.61469 0.0
C1887 C 0.74972 0.45063 0.54985 0.0
C1888 C 0.76728 0.47699 0.59036 0.0
C1889 C 0.73827 0.45133 0.53436 0.0
C1890 C 0.77534 0.46935 0.66822 0.0
C1891 C 0.77333 0.47148 0.64934 0.0
C1892 C 0.76517 0.44336 0.60798 0.0
C1893 C 0.74878 0.46398 0.5637 0.0
C1894 C 0.75872 0.46188 0.58139 0.0
C1895 C 0.77787 0.45741 0.63711 0.0
C1896 C 0.77297 0.45865 0.61733 0.0
H1897 H 0.7157 0.49021 0.54481 0.0
H1898 H 0.73567 0.48899 0.57173 0.0
H1899 H 0.75145 0.4331 0.58381 0.0
H1900 H 0.7926 0.4267 0.66821 0.0
H1901 H 0.78949 0.43058 0.63521 0.0
C1902 C 0.8026 0.54366 0.92579 0.0
C1903 C 0.78919 0.53867 0.9391 0.0
C1904 C 0.79911 0.54021 0.90722 0.0
C1905 C 0.77277 0.50944 0.87665 0.0
H1906 H 0.7823 0.54648 0.83996 0.0
C1907 C 0.75659 0.49539 0.80036 0.0
C1908 C 0.76911 0.50284 0.78738 0.0
C1909 C 0.75787 0.50063 0.81878 0.0
C1910 C 0.77979 0.53588 0.84997 0.0
H1911 H 0.76166 0.52613 0.94344 0.0
H1912 H 0.75564 0.51985 0.91095 0.0
H1913 H 0.787 0.55396 0.87229 0.0
H1914 H 0.79286 0.52155 0.78347 0.0
H1915 H 0.79554 0.53034 0.81562 0.0
H1916 H 0.76624 0.49114 0.8545 0.0
C1917 C 0.76879 0.52654 0.91491 0.0
C1918 C 0.78241 0.54023 0.8685 0.0
C1919 C 0.77217 0.53025 0.93346 0.0
C1920 C 0.78285 0.51578 0.79314 0.0
C1921 C 0.78433 0.52084 0.8116 0.0
C1922 C 0.7704 0.50502 0.85812 0.0
C1923 C 0.78225 0.53145 0.90162 0.0
C1924 C 0.77896 0.52704 0.88201 0.0
C1925 C 0.77192 0.51326 0.82471 0.0
C1926 C 0.77393 0.51816 0.8445 0.0
H1927 H 0.81577 0.5503 0.92975 0.0
H1928 H 0.80978 0.54403 0.89727 0.0
H1929 H 0.77023 0.49895 0.88678 0.0
H1930 H 0.74572 0.48556 0.79623 0.0
H1931 H 0.7478 0.49478 0.82835 0.0
C1932 C 0.73456 0.53556 0.18205 0.0
C1933 C 0.74384 0.54672 0.19515 0.0
C1934 C 0.74339 0.53097 0.16566 0.0
C1935 C 0.78002 0.54824 0.13446 0.0
H1936 H 0.77173 0.50147 0.1102 0.0
C1937 C 0.8121 0.53363 0.06379 0.0
C1938 C 0.80031 0.5249 0.05075 0.0
C1939 C 0.80688 0.53446 0.0822 0.0
C1940 C 0.77407 0.51464 0.11674 0.0
H1941 H 0.76998 0.56123 0.20162 0.0
H1942 H 0.78551 0.5531 0.17294 0.0
H1943 H 0.7602 0.50595 0.14137 0.0
H1944 H 0.77402 0.50967 0.04701 0.0
H1945 H 0.76476 0.51131 0.07921 0.0
H1946 H 0.79351 0.55708 0.10977 0.0
C1947 C 0.77129 0.54807 0.17532 0.0
C1948 C 0.7675 0.5172 0.13462 0.0
C1949 C 0.76246 0.55261 0.1918 0.0
C1950 C 0.78343 0.51648 0.0567 0.0
C1951 C 0.77816 0.51736 0.07518 0.0
C1952 C 0.78657 0.54568 0.1166 0.0
C1953 C 0.76172 0.53745 0.16192 0.0
C1954 C 0.77021 0.5341 0.14361 0.0
C1955 C 0.7897 0.52663 0.08809 0.0
C1956 C 0.78351 0.52892 0.10744 0.0
H1957 H 0.72023 0.53074 0.18419 0.0
H1958 H 0.73551 0.52295 0.1556 0.0
H1959 H 0.78206 0.56152 0.14082 0.0
H1960 H 0.82531 0.54013 0.05975 0.0
H1961 H 0.81627 0.5414 0.09181 0.0
C1962 C 0.45951 0.66962 0.8176 0.0
C1963 C 0.44123 0.67579 0.81561 0.0
C1964 C 0.46467 0.65327 0.80941 0.0
C1965 C 0.44536 0.60983 0.79048 0.0
H1966 H 0.49339 0.6082 0.76577 0.0
C1967 C 0.47678 0.54261 0.76566 0.0
C1968 C 0.48565 0.54257 0.74845 0.0
C1969 C 0.47094 0.55886 0.77352 0.0
C1970 C 0.47987 0.60847 0.7725 0.0
H1971 H 0.41392 0.66933 0.80384 0.0
H1972 H 0.42297 0.64089 0.78944 0.0
H1973 H 0.48397 0.63649 0.78026 0.0
H1974 H 0.49533 0.55963 0.72603 0.0
H1975 H 0.48498 0.58801 0.73969 0.0
H1976 H 0.4412 0.58185 0.78258 0.0
C1977 C 0.4333 0.64868 0.79738 0.0
C1978 C 0.47457 0.62462 0.78098 0.0
C1979 C 0.42816 0.66507 0.80549 0.0
C1980 C 0.48842 0.55916 0.73923 0.0
C1981 C 0.48266 0.57545 0.74714 0.0
C1982 C 0.45071 0.59366 0.78208 0.0
C1983 C 0.45166 0.64266 0.79912 0.0
C1984 C 0.45727 0.62548 0.7901 0.0
C1985 C 0.47389 0.57548 0.7644 0.0
C1986 C 0.46804 0.59278 0.77301 0.0
H1987 H 0.46998 0.6776 0.82514 0.0
H1988 H 0.47887 0.64891 0.81119 0.0
H1989 H 0.432 0.61001 0.7975 0.0
H1990 H 0.47421 0.53006 0.77303 0.0
H1991 H 0.46437 0.55842 0.7869 0.0
loop_
_geom_bond_atom_site_label_1
_geom_bond_atom_site_label_2
_geom_bond_distance
_geom_bond_site_symmetry_2
_ccdc_geom_bond_type
Cu0 N1 1.999 . S
Cu0 O6 1.974 . S
Cu0 N11 1.985 . S
Cu0 O20 1.959 . S
N1 Cu0 1.999 . S
N1 C3 1.263 . S
N1 C5 1.389 . S
N2 C3 1.358 . S
N2 C4 1.400 . S
C3 N1 1.263 . S
C3 N2 1.358 . S
C3 H9 0.930 . S
C4 N2 1.400 . S
C4 C5 1.351 . S
C4 H21 0.930 . S
C5 N1 1.389 . S
C5 C4 1.351 . S
C5 H10 0.930 . S
O6 Cu0 1.974 . S
O6 C16 1.282 . S
C7 O8 1.261 . S
C7 O20 1.251 . S
O8 C7 1.261 . S
H9 C3 0.930 . S
H10 C5 0.930 . S
N11 Cu0 1.985 . S
N11 C13 1.335 . S
N11 C14 1.390 . S
N12 C13 1.345 . S
N12 C15 1.336 . S
C13 N11 1.335 . S
C13 N12 1.345 . S
C13 H18 0.930 . S
C14 N11 1.390 . S
C14 C15 1.346 . S
C14 H19 0.930 . S
C15 N12 1.336 . S
C15 C14 1.346 . S
C15 H22 0.929 . S
C16 O6 1.282 . S
C16 O17 1.216 . S
O17 C16 1.216 . S
H18 C13 0.930 . S
H19 C14 0.930 . S
O20 Cu0 1.959 . S
O20 C7 1.251 . S
H21 C4 0.930 . S
H22 C15 0.929 . S
Cu23 N24 1.986 1_455 S
Cu23 O29 1.974 1_455 S
Cu23 N34 1.985 . S
Cu23 O43 1.959 . S
N24 Cu23 1.986 1_655 S
N24 C26 1.321 . S
N24 C28 1.348 1_655 S
N25 C26 1.358 . S
N25 C27 1.400 1_655 S
C26 N24 1.321 . S
C26 N25 1.358 . S
C26 H32 0.930 . S
C27 N25 1.400 1_455 S
C27 C28 1.351 . S
C27 H44 0.930 . S
C28 N24 1.348 1_455 S
C28 C27 1.351 . S
C28 H33 0.930 . S
O29 Cu23 1.974 1_655 S
O29 C39 1.282 . S
C30 O31 1.261 . S
C30 O43 1.251 . S
O31 C30 1.261 . S
H32 C26 0.930 . S
H33 C28 0.930 . S
N34 Cu23 1.985 . S
N34 C36 1.335 . S
N34 C37 1.390 1_455 S
N35 C36 1.345 . S
N35 C38 1.336 . S
C36 N34 1.335 . S
C36 N35 1.345 . S
C36 H41 0.930 . S
C37 N34 1.390 1_655 S
C37 C38 1.346 1_655 S
C37 H42 0.930 . S
C38 N35 1.336 . S
C38 C37 1.346 1_455 S
C38 H45 0.929 1_455 S
C39 O29 1.282 . S
C39 O40 1.216 . S
O40 C39 1.216 . S
H41 C36 0.930 . S
H42 C37 0.930 . S
O43 Cu23 1.959 . S
O43 C30 1.251 . S
H44 C27 0.930 . S
H45 C38 0.929 1_655 S
Cu46 N47 1.999 . S
Cu46 O52 1.974 . S
Cu46 N57 1.985 . S
Cu46 O66 1.959 . S
N47 Cu46 1.999 . S
N47 C49 1.263 . S
N47 C51 1.389 . S
N48 C49 1.358 . S
N48 C50 1.400 . S
C49 N47 1.263 . S
C49 N48 1.358 . S
C49 H55 0.930 . S
C50 N48 1.400 . S
C50 C51 1.351 . S
C50 H67 0.930 . S
C51 N47 1.389 . S
C51 C50 1.351 . S
C51 H56 0.930 . S
O52 Cu46 1.974 . S
O52 C62 1.282 . S
C53 O54 1.261 . S
C53 O66 1.251 . S
O54 C53 1.261 . S
H55 C49 0.930 . S
H56 C51 0.930 . S
N57 Cu46 1.985 . S
N57 C59 1.335 . S
N57 C60 1.390 . S
N58 C59 1.345 . S
N58 C61 1.336 . S
C59 N57 1.335 . S
C59 N58 1.345 . S
C59 H64 0.930 . S
C60 N57 1.390 . S
C60 C61 1.346 . S
C60 H65 0.930 . S
C61 N58 1.336 . S
C61 C60 1.346 . S
C61 H68 0.929 . S
C62 O52 1.282 . S
C62 O63 1.216 . S
O63 C62 1.216 . S
H64 C59 0.930 . S
H65 C60 0.930 . S
O66 Cu46 1.959 . S
O66 C53 1.251 . S
H67 C50 0.930 . S
H68 C61 0.929 . S
Cu69 N70 1.999 . S
Cu69 O75 1.974 . S
Cu69 N80 1.985 1_556 S
Cu69 O89 1.963 . S
N70 Cu69 1.999 . S
N70 C72 1.263 . S
N70 C74 1.389 . S
N71 C72 1.358 . S
N71 C73 1.400 . S
C72 N70 1.263 . S
C72 N71 1.358 . S
C72 H78 0.930 . S
C73 N71 1.400 . S
C73 C74 1.351 . S
C73 H90 0.930 . S
C74 N70 1.389 . S
C74 C73 1.351 . S
C74 H79 0.930 . S
O75 Cu69 1.974 . S
O75 C85 1.282 . S
C76 O77 1.261 . S
C76 O89 1.240 1_554 S
O77 C76 1.261 . S
H78 C72 0.930 . S
H79 C74 0.930 . S
N80 Cu69 1.985 1_554 S
N80 C82 1.335 . S
N80 C83 1.390 . S
N81 C82 1.345 . S
N81 C84 1.336 . S
C82 N80 1.335 . S
C82 N81 1.345 . S
C82 H87 0.930 . S
C83 N80 1.390 . S
C83 C84 1.346 . S
C83 H88 0.930 . S
C84 N81 1.336 . S
C84 C83 1.346 . S
C84 H91 0.929 . S
C85 O75 1.282 . S
C85 O86 1.216 1_556 S
O86 C85 1.216 1_554 S
H87 C82 0.930 . S
H88 C83 0.930 . S
O89 Cu69 1.963 . S
O89 C76 1.240 1_556 S
H90 C73 0.930 . S
H91 C84 0.929 . S
Cu92 N93 1.999 1_565 S
Cu92 O98 1.974 1_565 S
Cu92 N103 1.985 1_455 S
Cu92 O112 1.959 . S
N93 Cu92 1.999 1_545 S
N93 C95 1.263 . S
N93 C97 1.389 1_545 S
N94 C95 1.358 . S
N94 C96 1.400 . S
C95 N93 1.263 . S
C95 N94 1.358 . S
C95 H101 0.930 . S
C96 N94 1.400 . S
C96 C97 1.351 1_545 S
C96 H113 0.930 1_545 S
C97 N93 1.389 1_565 S
C97 C96 1.351 1_565 S
C97 H102 0.930 . S
O98 Cu92 1.974 1_545 S
O98 C108 1.282 . S
C99 O100 1.261 . S
C99 O112 1.251 1_655 S
O100 C99 1.261 . S
H101 C95 0.930 . S
H102 C97 0.930 . S
N103 Cu92 1.985 1_655 S
N103 C105 1.335 . S
N103 C106 1.390 1_565 S
N104 C105 1.345 . S
N104 C107 1.336 . S
C105 N103 1.335 . S
C105 N104 1.345 . S
C105 H110 0.930 . S
C106 N103 1.390 1_545 S
C106 C107 1.346 1_545 S
C106 H111 0.930 . S
C107 N104 1.336 . S
C107 C106 1.346 1_565 S
C107 H114 0.929 . S
C108 O98 1.282 . S
C108 O109 1.216 1_455 S
O109 C108 1.216 1_655 S
H110 C105 0.930 . S
H111 C106 0.930 . S
O112 Cu92 1.959 . S
O112 C99 1.251 1_455 S
H113 C96 0.930 1_565 S
H114 C107 0.929 . S
Cu115 N116 1.999 . S
Cu115 O121 1.974 . S
Cu115 N126 1.985 . S
Cu115 O135 1.959 . S
N116 Cu115 1.999 . S
N116 C118 1.263 . S
N116 C120 1.389 . S
N117 C118 1.358 . S
N117 C119 1.400 . S
C118 N116 1.263 . S
C118 N117 1.358 . S
C118 H124 0.930 . S
C119 N117 1.400 . S
C119 C120 1.351 . S
C119 H136 0.930 . S
C120 N116 1.389 . S
C120 C119 1.351 . S
C120 H125 0.930 . S
O121 Cu115 1.974 . S
O121 C131 1.282 . S
C122 O123 1.261 . S
C122 O135 1.251 . S
O123 C122 1.261 . S
H124 C118 0.930 . S
H125 C120 0.930 . S
N126 Cu115 1.985 . S
N126 C128 1.335 . S
N126 C129 1.390 . S
N127 C128 1.345 . S
N127 C130 1.336 . S
C128 N126 1.335 . S
C128 N127 1.345 . S
C128 H133 0.930 . S
C129 N126 1.390 . S
C129 C130 1.346 . S
C129 H134 0.930 . S
C130 N127 1.336 . S
C130 C129 1.346 . S
C130 H137 0.929 . S
C131 O121 1.282 . S
C131 O132 1.216 . S
O132 C131 1.216 . S
H133 C128 0.930 . S
H134 C129 0.930 . S
O135 Cu115 1.959 . S
O135 C122 1.251 . S
H136 C119 0.930 . S
H137 C130 0.929 . S
Cu138 N139 1.999 1_545 S
Cu138 O144 1.974 1_545 S
Cu138 N149 1.985 . S
Cu138 O158 1.959 . S
N139 Cu138 1.999 1_565 S
N139 C141 1.263 . S
N139 C143 1.389 1_565 S
N140 C141 1.358 . S
N140 C142 1.440 . S
C141 N139 1.263 . S
C141 N140 1.358 . S
C141 H147 0.930 . S
C142 N140 1.440 . S
C142 C143 1.331 1_565 S
C142 H159 0.915 1_565 S
C143 N139 1.389 1_545 S
C143 C142 1.331 1_545 S
C143 H148 0.930 . S
O144 Cu138 1.974 1_565 S
O144 C154 1.282 . S
C145 O146 1.261 . S
C145 O158 1.251 . S
O146 C145 1.261 . S
H147 C141 0.930 . S
H148 C143 0.930 . S
N149 Cu138 1.985 . S
N149 C151 1.335 . S
N149 C152 1.390 1_545 S
N150 C151 1.345 . S
N150 C153 1.336 . S
C151 N149 1.335 . S
C151 N150 1.345 . S
C151 H156 0.930 . S
C152 N149 1.390 1_565 S
C152 C153 1.346 1_565 S
C152 H157 0.930 . S
C153 N150 1.336 . S
C153 C152 1.346 1_545 S
C153 H160 0.929 . S
C154 O144 1.282 . S
C154 O155 1.216 . S
O155 C154 1.216 . S
H156 C151 0.930 . S
H157 C152 0.930 . S
O158 Cu138 1.959 . S
O158 C145 1.251 . S
H159 C142 0.915 1_545 S
H160 C153 0.929 . S
Cu161 N162 1.999 . S
Cu161 O167 1.974 . S
Cu161 N172 1.985 . S
Cu161 O181 1.959 . S
N162 Cu161 1.999 . S
N162 C164 1.263 . S
N162 C166 1.389 . S
N163 C164 1.358 . S
N163 C165 1.400 . S
C164 N162 1.263 . S
C164 N163 1.358 . S
C164 H170 0.930 . S
C165 N163 1.400 . S
C165 C166 1.351 . S
C165 H182 0.930 . S
C166 N162 1.389 . S
C166 C165 1.351 . S
C166 H171 0.930 . S
O167 Cu161 1.974 . S
O167 C177 1.282 . S
C168 O169 1.261 . S
C168 O181 1.251 . S
O169 C168 1.261 . S
H170 C164 0.930 . S
H171 C166 0.930 . S
N172 Cu161 1.985 . S
N172 C174 1.335 . S
N172 C175 1.390 . S
N173 C174 1.345 . S
N173 C176 1.336 . S
C174 N172 1.335 . S
C174 N173 1.345 . S
C174 H179 0.930 . S
C175 N172 1.390 . S
C175 C176 1.346 . S
C175 H180 0.930 . S
C176 N173 1.336 . S
C176 C175 1.346 . S
C176 H183 0.929 . S
C177 O167 1.282 . S
C177 O178 1.216 . S
O178 C177 1.216 . S
H179 C174 0.930 . S
H180 C175 0.930 . S
O181 Cu161 1.959 . S
O181 C168 1.251 . S
H182 C165 0.930 . S
H183 C176 0.929 . S
Cu184 N185 1.999 . S
Cu184 O190 1.974 . S
Cu184 N195 1.985 . S
Cu184 O204 1.959 . S
N185 Cu184 1.999 . S
N185 C187 1.263 . S
N185 C189 1.389 . S
N186 C187 1.358 . S
N186 C188 1.400 . S
C187 N185 1.263 . S
C187 N186 1.358 . S
C187 H193 0.930 . S
C188 N186 1.400 . S
C188 C189 1.351 . S
C188 H205 0.930 . S
C189 N185 1.389 . S
C189 C188 1.351 . S
C189 H194 0.930 . S
O190 Cu184 1.974 . S
O190 C200 1.282 . S
C191 O192 1.261 . S
C191 O204 1.251 . S
O192 C191 1.261 . S
H193 C187 0.930 . S
H194 C189 0.930 . S
N195 Cu184 1.985 . S
N195 C197 1.335 . S
N195 C198 1.390 . S
N196 C197 1.345 . S
N196 C199 1.336 . S
C197 N195 1.335 . S
C197 N196 1.345 . S
C197 H202 0.930 . S
C198 N195 1.390 . S
C198 C199 1.346 . S
C198 H203 0.930 . S
C199 N196 1.336 . S
C199 C198 1.346 . S
C199 H206 0.929 . S
C200 O190 1.282 . S
C200 O201 1.216 . S
O201 C200 1.216 . S
H202 C197 0.930 . S
H203 C198 0.930 . S
O204 Cu184 1.959 . S
O204 C191 1.251 . S
H205 C188 0.930 . S
H206 C199 0.929 . S
Cu207 N208 1.999 . S
Cu207 O213 1.974 . S
Cu207 N218 1.994 . S
Cu207 O227 1.959 1_545 S
N208 Cu207 1.999 . S
N208 C210 1.263 . S
N208 C212 1.389 . S
N209 C210 1.358 . S
N209 C211 1.400 . S
C210 N208 1.263 . S
C210 N209 1.358 . S
C210 H216 0.930 . S
C211 N209 1.400 . S
C211 C212 1.351 . S
C211 H228 0.930 . S
C212 N208 1.389 . S
C212 C211 1.351 . S
C212 H217 0.930 . S
O213 Cu207 1.974 . S
O213 C223 1.282 . S
C214 O215 1.261 . S
C214 O227 1.251 . S
O215 C214 1.261 . S
H216 C210 0.930 . S
H217 C212 0.930 . S
N218 Cu207 1.994 . S
N218 C220 1.324 1_545 S
N218 C221 1.394 . S
N219 C220 1.345 . S
N219 C222 1.336 . S
C220 N218 1.324 1_565 S
C220 N219 1.345 . S
C220 H225 0.930 . S
C221 N218 1.394 . S
C221 C222 1.346 1_545 S
C221 H226 0.930 . S
C222 N219 1.336 . S
C222 C221 1.346 1_565 S
C222 H229 0.929 . S
C223 O213 1.282 . S
C223 O224 1.216 . S
O224 C223 1.216 . S
H225 C220 0.930 . S
H226 C221 0.930 . S
O227 Cu207 1.959 1_565 S
O227 C214 1.251 . S
H228 C211 0.930 . S
H229 C222 0.929 . S
Cu230 N231 1.999 . S
Cu230 O236 1.974 . S
Cu230 N241 1.985 . S
Cu230 O250 1.959 . S
N231 Cu230 1.999 . S
N231 C233 1.263 . S
N231 C235 1.389 . S
N232 C233 1.358 . S
N232 C234 1.400 . S
C233 N231 1.263 . S
C233 N232 1.358 . S
C233 H239 0.930 . S
C234 N232 1.400 . S
C234 C235 1.351 . S
C234 H251 0.930 . S
C235 N231 1.389 . S
C235 C234 1.351 . S
C235 H240 0.930 . S
O236 Cu230 1.974 . S
O236 C246 1.282 . S
C237 O238 1.261 . S
C237 O250 1.251 . S
O238 C237 1.261 . S
H239 C233 0.930 . S
H240 C235 0.930 . S
N241 Cu230 1.985 . S
N241 C243 1.335 . S
N241 C244 1.390 . S
N242 C243 1.345 . S
N242 C245 1.336 . S
C243 N241 1.335 . S
C243 N242 1.345 . S
C243 H248 0.930 . S
C244 N241 1.390 . S
C244 C245 1.346 . S
C244 H249 0.930 . S
C245 N242 1.336 . S
C245 C244 1.346 . S
C245 H252 0.929 . S
C246 O236 1.282 . S
C246 O247 1.216 . S
O247 C246 1.216 . S
H248 C243 0.930 . S
H249 C244 0.930 . S
O250 Cu230 1.959 . S
O250 C237 1.251 . S
H251 C234 0.930 . S
H252 C245 0.929 . S
Cu253 N254 1.999 1_554 S
Cu253 O259 1.974 1_554 S
Cu253 N264 1.989 . S
Cu253 O273 1.959 1_565 S
N254 Cu253 1.999 1_556 S
N254 C256 1.263 . S
N254 C258 1.389 . S
N255 C256 1.358 . S
N255 C257 1.400 . S
C256 N254 1.263 . S
C256 N255 1.358 . S
C256 H262 0.930 . S
C257 N255 1.400 . S
C257 C258 1.351 . S
C257 H274 0.930 . S
C258 N254 1.389 . S
C258 C257 1.351 . S
C258 H263 0.930 . S
O259 Cu253 1.974 1_556 S
O259 C269 1.282 . S
C260 O261 1.229 1_554 S
C260 O273 1.251 . S
O261 C260 1.229 1_556 S
H262 C256 0.930 . S
H263 C258 0.930 . S
N264 Cu253 1.989 . S
N264 C266 1.330 1_565 S
N264 C267 1.392 . S
N265 C266 1.345 . S
N265 C268 1.336 . S
C266 N264 1.330 1_545 S
C266 N265 1.345 . S
C266 H271 0.930 . S
C267 N264 1.392 . S
C267 C268 1.346 1_565 S
C267 H272 0.930 . S
C268 N265 1.336 . S
C268 C267 1.346 1_545 S
C268 H275 0.929 . S
C269 O259 1.282 . S
C269 O270 1.216 . S
O270 C269 1.216 . S
H271 C266 0.930 . S
H272 C267 0.930 . S
O273 Cu253 1.959 1_545 S
O273 C260 1.251 . S
H274 C257 0.930 . S
H275 C268 0.929 . S
Cu276 N277 1.999 . S
Cu276 O282 1.974 . S
Cu276 N287 1.985 . S
Cu276 O296 1.959 . S
N277 Cu276 1.999 . S
N277 C279 1.263 . S
N277 C281 1.389 . S
N278 C279 1.358 . S
N278 C280 1.400 . S
C279 N277 1.263 . S
C279 N278 1.358 . S
C279 H285 0.930 . S
C280 N278 1.400 . S
C280 C281 1.351 . S
C280 H297 0.930 . S
C281 N277 1.389 . S
C281 C280 1.351 . S
C281 H286 0.930 . S
O282 Cu276 1.974 . S
O282 C292 1.282 . S
C283 O284 1.261 . S
C283 O296 1.251 . S
O284 C283 1.261 . S
H285 C279 0.930 . S
H286 C281 0.930 . S
N287 Cu276 1.985 . S
N287 C289 1.335 . S
N287 C290 1.390 . S
N288 C289 1.345 . S
N288 C291 1.336 . S
C289 N287 1.335 . S
C289 N288 1.345 . S
C289 H294 0.930 . S
C290 N287 1.390 . S
C290 C291 1.346 . S
C290 H295 0.930 . S
C291 N288 1.336 . S
C291 C290 1.346 . S
C291 H298 0.929 . S
C292 O282 1.282 . S
C292 O293 1.216 . S
O293 C292 1.216 . S
H294 C289 0.930 . S
H295 C290 0.930 . S
O296 Cu276 1.959 . S
O296 C283 1.251 . S
H297 C280 0.930 . S
H298 C291 0.929 . S
Cu299 N300 1.999 . S
Cu299 O305 1.974 . S
Cu299 N310 1.985 1_655 S
Cu299 O319 1.959 . S
N300 Cu299 1.999 . S
N300 C302 1.263 . S
N300 C304 1.389 . S
N301 C302 1.358 . S
N301 C303 1.400 . S
C302 N300 1.263 . S
C302 N301 1.358 . S
C302 H308 0.930 . S
C303 N301 1.400 . S
C303 C304 1.351 . S
C303 H320 0.930 . S
C304 N300 1.389 . S
C304 C303 1.351 . S
C304 H309 0.930 . S
O305 Cu299 1.974 . S
O305 C315 1.282 . S
C306 O307 1.261 . S
C306 O319 1.251 1_455 S
O307 C306 1.261 . S
H308 C302 0.930 . S
H309 C304 0.930 . S
N310 Cu299 1.985 1_455 S
N310 C312 1.335 . S
N310 C313 1.390 . S
N311 C312 1.345 . S
N311 C314 1.336 . S
C312 N310 1.335 . S
C312 N311 1.345 . S
C312 H317 0.930 . S
C313 N310 1.390 . S
C313 C314 1.346 . S
C313 H318 0.930 . S
C314 N311 1.336 . S
C314 C313 1.346 . S
C314 H321 0.929 . S
C315 O305 1.282 . S
C315 O316 1.216 1_655 S
O316 C315 1.216 1_455 S
H317 C312 0.930 . S
H318 C313 0.930 . S
O319 Cu299 1.959 . S
O319 C306 1.251 1_655 S
H320 C303 0.930 . S
H321 C314 0.929 . S
Cu322 N323 1.999 . S
Cu322 O328 1.974 . S
Cu322 N333 1.985 . S
Cu322 O342 1.959 . S
N323 Cu322 1.999 . S
N323 C325 1.263 . S
N323 C327 1.389 . S
N324 C325 1.358 . S
N324 C326 1.400 . S
C325 N323 1.263 . S
C325 N324 1.358 . S
C325 H331 0.930 . S
C326 N324 1.400 . S
C326 C327 1.351 . S
C326 H343 0.930 . S
C327 N323 1.389 . S
C327 C326 1.351 . S
C327 H332 0.930 . S
O328 Cu322 1.974 . S
O328 C338 1.282 . S
C329 O330 1.261 . S
C329 O342 1.251 . S
O330 C329 1.261 . S
H331 C325 0.930 . S
H332 C327 0.930 . S
N333 Cu322 1.985 . S
N333 C335 1.335 . S
N333 C336 1.390 . S
N334 C335 1.345 . S
N334 C337 1.336 . S
C335 N333 1.335 . S
C335 N334 1.345 . S
C335 H340 0.930 . S
C336 N333 1.390 . S
C336 C337 1.346 . S
C336 H341 0.930 . S
C337 N334 1.336 . S
C337 C336 1.346 . S
C337 H344 0.929 . S
C338 O328 1.282 . S
C338 O339 1.216 . S
O339 C338 1.216 . S
H340 C335 0.930 . S
H341 C336 0.930 . S
O342 Cu322 1.959 . S
O342 C329 1.251 . S
H343 C326 0.930 . S
H344 C337 0.929 . S
Cu345 N346 1.999 . S
Cu345 O351 1.974 . S
Cu345 N356 1.985 . S
Cu345 O365 1.959 . S
N346 Cu345 1.999 . S
N346 C348 1.263 . S
N346 C350 1.389 . S
N347 C348 1.358 . S
N347 C349 1.400 . S
C348 N346 1.263 . S
C348 N347 1.358 . S
C348 H354 0.930 . S
C349 N347 1.400 . S
C349 C350 1.351 . S
C349 H366 0.930 . S
C350 N346 1.389 . S
C350 C349 1.351 . S
C350 H355 0.930 . S
O351 Cu345 1.974 . S
O351 C361 1.282 . S
C352 O353 1.261 . S
C352 O365 1.251 . S
O353 C352 1.261 . S
H354 C348 0.930 . S
H355 C350 0.930 . S
N356 Cu345 1.985 . S
N356 C358 1.335 . S
N356 C359 1.390 . S
N357 C358 1.345 . S
N357 C360 1.336 . S
C358 N356 1.335 . S
C358 N357 1.345 . S
C358 H363 0.930 . S
C359 N356 1.390 . S
C359 C360 1.346 . S
C359 H364 0.930 . S
C360 N357 1.336 . S
C360 C359 1.346 . S
C360 H367 0.929 . S
C361 O351 1.282 . S
C361 O362 1.216 . S
O362 C361 1.216 . S
H363 C358 0.930 . S
H364 C359 0.930 . S
O365 Cu345 1.959 . S
O365 C352 1.251 . S
H366 C349 0.930 . S
H367 C360 0.929 . S
Cu368 N369 1.999 . S
Cu368 O374 1.974 . S
Cu368 N379 1.985 . S
Cu368 O388 1.959 . S
N369 Cu368 1.999 . S
N369 C371 1.263 . S
N369 C373 1.389 . S
N370 C371 1.358 . S
N370 C372 1.400 . S
C371 N369 1.263 . S
C371 N370 1.358 . S
C371 H377 0.930 . S
C372 N370 1.400 . S
C372 C373 1.351 . S
C372 H389 0.930 . S
C373 N369 1.389 . S
C373 C372 1.351 . S
C373 H378 0.930 . S
O374 Cu368 1.974 . S
O374 C384 1.282 . S
C375 O376 1.261 . S
C375 O388 1.251 . S
O376 C375 1.261 . S
H377 C371 0.930 . S
H378 C373 0.930 . S
N379 Cu368 1.985 . S
N379 C381 1.335 . S
N379 C382 1.390 . S
N380 C381 1.345 . S
N380 C383 1.336 . S
C381 N379 1.335 . S
C381 N380 1.345 . S
C381 H386 0.930 . S
C382 N379 1.390 . S
C382 C383 1.346 . S
C382 H387 0.930 . S
C383 N380 1.336 . S
C383 C382 1.346 . S
C383 H390 0.929 . S
C384 O374 1.282 . S
C384 O385 1.216 . S
O385 C384 1.216 . S
H386 C381 0.930 . S
H387 C382 0.930 . S
O388 Cu368 1.959 . S
O388 C375 1.251 . S
H389 C372 0.930 . S
H390 C383 0.929 . S
Cu391 N392 1.999 . S
Cu391 O397 1.974 . S
Cu391 N402 1.985 . S
Cu391 O411 1.959 . S
N392 Cu391 1.999 . S
N392 C394 1.263 . S
N392 C396 1.389 . S
N393 C394 1.358 . S
N393 C395 1.400 . S
C394 N392 1.263 . S
C394 N393 1.358 . S
C394 H400 0.930 . S
C395 N393 1.400 . S
C395 C396 1.351 . S
C395 H412 0.930 . S
C396 N392 1.389 . S
C396 C395 1.351 . S
C396 H401 0.930 . S
O397 Cu391 1.974 . S
O397 C407 1.282 . S
C398 O399 1.261 . S
C398 O411 1.251 . S
O399 C398 1.261 . S
H400 C394 0.930 . S
H401 C396 0.930 . S
N402 Cu391 1.985 . S
N402 C404 1.335 . S
N402 C405 1.390 . S
N403 C404 1.345 . S
N403 C406 1.336 . S
C404 N402 1.335 . S
C404 N403 1.345 . S
C404 H409 0.930 . S
C405 N402 1.390 . S
C405 C406 1.346 . S
C405 H410 0.930 . S
C406 N403 1.336 . S
C406 C405 1.346 . S
C406 H413 0.929 . S
C407 O397 1.282 . S
C407 O408 1.216 . S
O408 C407 1.216 . S
H409 C404 0.930 . S
H410 C405 0.930 . S
O411 Cu391 1.959 . S
O411 C398 1.251 . S
H412 C395 0.930 . S
H413 C406 0.929 . S
Cu414 N415 1.999 1_455 S
Cu414 O420 1.974 1_455 S
Cu414 N425 1.985 1_556 S
Cu414 O434 1.959 1_556 S
N415 Cu414 1.999 1_655 S
N415 C417 1.263 . S
N415 C419 1.389 . S
N416 C417 1.358 . S
N416 C418 1.400 . S
C417 N415 1.263 . S
C417 N416 1.358 . S
C417 H423 0.930 . S
C418 N416 1.400 . S
C418 C419 1.351 . S
C418 H435 0.930 . S
C419 N415 1.389 . S
C419 C418 1.351 . S
C419 H424 0.930 . S
O420 Cu414 1.974 1_655 S
O420 C430 1.282 . S
C421 O422 1.261 1_455 S
C421 O434 1.251 . S
O422 C421 1.261 1_655 S
H423 C417 0.930 . S
H424 C419 0.930 . S
N425 Cu414 1.985 1_554 S
N425 C427 1.335 . S
N425 C428 1.390 1_554 S
N426 C427 1.345 . S
N426 C429 1.336 . S
C427 N425 1.335 . S
C427 N426 1.345 . S
C427 H432 0.930 . S
C428 N425 1.390 1_556 S
C428 C429 1.346 1_556 S
C428 H433 0.930 . S
C429 N426 1.336 . S
C429 C428 1.346 1_554 S
C429 H436 0.929 . S
C430 O420 1.282 . S
C430 O431 1.216 . S
O431 C430 1.216 . S
H432 C427 0.930 . S
H433 C428 0.930 . S
O434 Cu414 1.959 1_554 S
O434 C421 1.251 . S
H435 C418 0.930 . S
H436 C429 0.929 . S
Cu437 N438 1.999 . S
Cu437 O443 1.974 . S
Cu437 N448 1.985 . S
Cu437 O457 1.959 . S
N438 Cu437 1.999 . S
N438 C440 1.263 . S
N438 C442 1.389 . S
N439 C440 1.358 . S
N439 C441 1.400 . S
C440 N438 1.263 . S
C440 N439 1.358 . S
C440 H446 0.930 . S
C441 N439 1.400 . S
C441 C442 1.351 . S
C441 H458 0.930 . S
C442 N438 1.389 . S
C442 C441 1.351 . S
C442 H447 0.930 . S
O443 Cu437 1.974 . S
O443 C453 1.282 . S
C444 O445 1.261 . S
C444 O457 1.251 . S
O445 C444 1.261 . S
H446 C440 0.930 . S
H447 C442 0.930 . S
N448 Cu437 1.985 . S
N448 C450 1.335 . S
N448 C451 1.390 . S
N449 C450 1.345 . S
N449 C452 1.336 . S
C450 N448 1.335 . S
C450 N449 1.345 . S
C450 H455 0.930 . S
C451 N448 1.390 . S
C451 C452 1.346 . S
C451 H456 0.930 . S
C452 N449 1.336 . S
C452 C451 1.346 . S
C452 H459 0.929 . S
C453 O443 1.282 . S
C453 O454 1.216 . S
O454 C453 1.216 . S
H455 C450 0.930 . S
H456 C451 0.930 . S
O457 Cu437 1.959 . S
O457 C444 1.251 . S
H458 C441 0.930 . S
H459 C452 0.929 . S
Cu460 N461 1.999 . S
Cu460 O466 1.974 . S
Cu460 N471 1.985 . S
Cu460 O480 1.959 . S
N461 Cu460 1.999 . S
N461 C463 1.263 . S
N461 C465 1.389 . S
N462 C463 1.358 . S
N462 C464 1.400 . S
C463 N461 1.263 . S
C463 N462 1.358 . S
C463 H469 0.930 . S
C464 N462 1.400 . S
C464 C465 1.351 . S
C464 H481 0.930 . S
C465 N461 1.389 . S
C465 C464 1.351 . S
C465 H470 0.930 . S
O466 Cu460 1.974 . S
O466 C476 1.282 . S
C467 O468 1.261 . S
C467 O480 1.251 . S
O468 C467 1.261 . S
H469 C463 0.930 . S
H470 C465 0.930 . S
N471 Cu460 1.985 . S
N471 C473 1.335 . S
N471 C474 1.390 . S
N472 C473 1.345 . S
N472 C475 1.336 . S
C473 N471 1.335 . S
C473 N472 1.345 . S
C473 H478 0.930 . S
C474 N471 1.390 . S
C474 C475 1.346 . S
C474 H479 0.930 . S
C475 N472 1.336 . S
C475 C474 1.346 . S
C475 H482 0.929 . S
C476 O466 1.282 . S
C476 O477 1.216 . S
O477 C476 1.216 . S
H478 C473 0.930 . S
H479 C474 0.930 . S
O480 Cu460 1.959 . S
O480 C467 1.251 . S
H481 C464 0.930 . S
H482 C475 0.929 . S
Cu483 N484 1.999 . S
Cu483 O489 1.974 . S
Cu483 N494 1.985 . S
Cu483 O503 1.959 . S
N484 Cu483 1.999 . S
N484 C486 1.263 . S
N484 C488 1.389 . S
N485 C486 1.358 . S
N485 C487 1.400 . S
C486 N484 1.263 . S
C486 N485 1.358 . S
C486 H492 0.930 . S
C487 N485 1.400 . S
C487 C488 1.351 . S
C487 H504 0.930 . S
C488 N484 1.389 . S
C488 C487 1.351 . S
C488 H493 0.930 . S
O489 Cu483 1.974 . S
O489 C499 1.282 . S
C490 O491 1.261 . S
C490 O503 1.251 . S
O491 C490 1.261 . S
H492 C486 0.930 . S
H493 C488 0.930 . S
N494 Cu483 1.985 . S
N494 C496 1.335 . S
N494 C497 1.390 . S
N495 C496 1.345 . S
N495 C498 1.336 . S
C496 N494 1.335 . S
C496 N495 1.345 . S
C496 H501 0.930 . S
C497 N494 1.390 . S
C497 C498 1.346 . S
C497 H502 0.930 . S
C498 N495 1.336 . S
C498 C497 1.346 . S
C498 H505 0.929 . S
C499 O489 1.282 . S
C499 O500 1.216 . S
O500 C499 1.216 . S
H501 C496 0.930 . S
H502 C497 0.930 . S
O503 Cu483 1.959 . S
O503 C490 1.251 . S
H504 C487 0.930 . S
H505 C498 0.929 . S
Cu506 N507 1.999 1_556 S
Cu506 O512 1.974 1_556 S
Cu506 N517 1.985 . S
Cu506 O526 1.959 . S
N507 Cu506 1.999 1_554 S
N507 C509 1.263 . S
N507 C511 1.389 . S
N508 C509 1.358 . S
N508 C510 1.400 . S
C509 N507 1.263 . S
C509 N508 1.358 . S
C509 H515 0.930 . S
C510 N508 1.400 . S
C510 C511 1.351 . S
C510 H527 0.930 . S
C511 N507 1.389 . S
C511 C510 1.351 . S
C511 H516 0.930 . S
O512 Cu506 1.974 1_554 S
O512 C522 1.282 . S
C513 O514 1.261 . S
C513 O526 1.251 . S
O514 C513 1.261 . S
H515 C509 0.930 . S
H516 C511 0.930 . S
N517 Cu506 1.985 . S
N517 C519 1.335 . S
N517 C520 1.390 . S
N518 C519 1.345 . S
N518 C521 1.336 . S
C519 N517 1.335 . S
C519 N518 1.345 . S
C519 H524 0.930 . S
C520 N517 1.390 . S
C520 C521 1.346 . S
C520 H525 0.930 . S
C521 N518 1.336 . S
C521 C520 1.346 . S
C521 H528 0.929 . S
C522 O512 1.282 . S
C522 O523 1.216 . S
O523 C522 1.216 . S
H524 C519 0.930 . S
H525 C520 0.930 . S
O526 Cu506 1.959 . S
O526 C513 1.251 . S
H527 C510 0.930 . S
H528 C521 0.929 . S
Cu529 N530 1.999 . S
Cu529 O535 1.974 . S
Cu529 N540 1.985 . S
Cu529 O549 1.959 . S
N530 Cu529 1.999 . S
N530 C532 1.263 . S
N530 C534 1.389 . S
N531 C532 1.358 . S
N531 C533 1.400 . S
C532 N530 1.263 . S
C532 N531 1.358 . S
C532 H538 0.930 . S
C533 N531 1.400 . S
C533 C534 1.351 . S
C533 H550 0.930 . S
C534 N530 1.389 . S
C534 C533 1.351 . S
C534 H539 0.930 . S
O535 Cu529 1.974 . S
O535 C545 1.282 . S
C536 O537 1.261 . S
C536 O549 1.251 . S
O537 C536 1.261 . S
H538 C532 0.930 . S
H539 C534 0.930 . S
N540 Cu529 1.985 . S
N540 C542 1.335 . S
N540 C543 1.390 . S
N541 C542 1.345 . S
N541 C544 1.336 . S
C542 N540 1.335 . S
C542 N541 1.345 . S
C542 H547 0.930 . S
C543 N540 1.390 . S
C543 C544 1.346 . S
C543 H548 0.930 . S
C544 N541 1.336 . S
C544 C543 1.346 . S
C544 H551 0.929 . S
C545 O535 1.282 . S
C545 O546 1.216 . S
O546 C545 1.216 . S
H547 C542 0.930 . S
H548 C543 0.930 . S
O549 Cu529 1.959 . S
O549 C536 1.251 . S
H550 C533 0.930 . S
H551 C544 0.929 . S
C552 C553 1.349 . S
C552 C554 1.327 . S
C552 H577 0.950 . S
C553 C552 1.349 . S
C553 C569 1.349 . S
C554 C552 1.327 . S
C554 C573 1.429 . S
C554 H578 0.950 . S
C555 C572 1.574 . S
C555 C574 1.368 . S
C555 H579 0.949 . S
H556 C560 0.949 . S
C557 C558 1.349 . S
C557 C559 1.327 . S
C557 H580 0.950 . S
C558 C557 1.349 . S
C558 C570 1.349 . S
C559 C557 1.327 . S
C559 C575 1.429 . S
C559 H581 0.950 . S
C560 H556 0.949 . S
C560 C568 1.574 . S
C560 C576 1.368 . S
H561 C569 0.950 . S
H562 C567 0.950 . S
H563 C568 0.949 . S
H564 C570 0.950 . S
H565 C571 0.950 . S
H566 C572 0.949 . S
C567 H562 0.950 . S
C567 C569 1.327 . S
C567 C573 1.429 . S
C568 C560 1.574 . S
C568 H563 0.949 . S
C568 C574 1.368 . S
C569 C553 1.349 . S
C569 H561 0.950 . S
C569 C567 1.327 . S
C570 C558 1.349 . S
C570 H564 0.950 . S
C570 C571 1.327 . S
C571 H565 0.950 . S
C571 C570 1.327 . S
C571 C575 1.429 . S
C572 C555 1.574 . S
C572 H566 0.949 . S
C572 C576 1.368 . S
C573 C554 1.429 . S
C573 C567 1.429 . S
C573 C574 1.523 . S
C574 C555 1.368 . S
C574 C568 1.368 . S
C574 C573 1.523 . S
C575 C559 1.429 . S
C575 C571 1.429 . S
C575 C576 1.523 . S
C576 C560 1.368 . S
C576 C572 1.368 . S
C576 C575 1.523 . S
H577 C552 0.950 . S
H578 C554 0.950 . S
H579 C555 0.949 . S
H580 C557 0.950 . S
H581 C559 0.950 . S
C582 C583 1.349 . S
C582 C584 1.327 . S
C582 H607 0.950 . S
C583 C582 1.349 . S
C583 C599 1.349 . S
C584 C582 1.327 . S
C584 C603 1.429 . S
C584 H608 0.950 . S
C585 C602 1.574 . S
C585 C604 1.368 . S
C585 H609 0.949 . S
H586 C590 0.949 . S
C587 C588 1.349 . S
C587 C589 1.327 . S
C587 H610 0.950 . S
C588 C587 1.349 . S
C588 C600 1.349 . S
C589 C587 1.327 . S
C589 C605 1.429 . S
C589 H611 0.950 . S
C590 H586 0.949 . S
C590 C598 1.574 . S
C590 C606 1.368 . S
H591 C599 0.950 . S
H592 C597 0.950 . S
H593 C598 0.949 . S
H594 C600 0.950 . S
H595 C601 0.950 . S
H596 C602 0.949 . S
C597 H592 0.950 . S
C597 C599 1.327 . S
C597 C603 1.429 . S
C598 C590 1.574 . S
C598 H593 0.949 . S
C598 C604 1.368 . S
C599 C583 1.349 . S
C599 H591 0.950 . S
C599 C597 1.327 . S
C600 C588 1.349 . S
C600 H594 0.950 . S
C600 C601 1.327 . S
C601 H595 0.950 . S
C601 C600 1.327 . S
C601 C605 1.429 . S
C602 C585 1.574 . S
C602 H596 0.949 . S
C602 C606 1.368 . S
C603 C584 1.429 . S
C603 C597 1.429 . S
C603 C604 1.523 . S
C604 C585 1.368 . S
C604 C598 1.368 . S
C604 C603 1.523 . S
C605 C589 1.429 . S
C605 C601 1.429 . S
C605 C606 1.523 . S
C606 C590 1.368 . S
C606 C602 1.368 . S
C606 C605 1.523 . S
H607 C582 0.950 . S
H608 C584 0.950 . S
H609 C585 0.949 . S
H610 C587 0.950 . S
H611 C589 0.950 . S
C612 C613 1.349 . S
C612 C614 1.327 . S
C612 H637 0.950 . S
C613 C612 1.349 . S
C613 C629 1.349 . S
C614 C612 1.327 . S
C614 C633 1.429 . S
C614 H638 0.950 . S
C615 C632 1.574 . S
C615 C634 1.368 . S
C615 H639 0.949 . S
H616 C620 0.949 . S
C617 C618 1.349 . S
C617 C619 1.327 . S
C617 H640 0.950 . S
C618 C617 1.349 . S
C618 C630 1.349 . S
C619 C617 1.327 . S
C619 C635 1.429 . S
C619 H641 0.950 . S
C620 H616 0.949 . S
C620 C628 1.574 . S
C620 C636 1.368 . S
H621 C629 0.950 . S
H622 C627 0.950 . S
H623 C628 0.949 . S
H624 C630 0.950 . S
H625 C631 0.950 . S
H626 C632 0.949 . S
C627 H622 0.950 . S
C627 C629 1.327 . S
C627 C633 1.429 . S
C628 C620 1.574 . S
C628 H623 0.949 . S
C628 C634 1.368 . S
C629 C613 1.349 . S
C629 H621 0.950 . S
C629 C627 1.327 . S
C630 C618 1.349 . S
C630 H624 0.950 . S
C630 C631 1.327 . S
C631 H625 0.950 . S
C631 C630 1.327 . S
C631 C635 1.429 . S
C632 C615 1.574 . S
C632 H626 0.949 . S
C632 C636 1.368 . S
C633 C614 1.429 . S
C633 C627 1.429 . S
C633 C634 1.523 . S
C634 C615 1.368 . S
C634 C628 1.368 . S
C634 C633 1.523 . S
C635 C619 1.429 . S
C635 C631 1.429 . S
C635 C636 1.523 . S
C636 C620 1.368 . S
C636 C632 1.368 . S
C636 C635 1.523 . S
H637 C612 0.950 . S
H638 C614 0.950 . S
H639 C615 0.949 . S
H640 C617 0.950 . S
H641 C619 0.950 . S
C642 C643 1.349 . S
C642 C644 1.327 . S
C642 H667 0.950 . S
C643 C642 1.349 . S
C643 C659 1.349 . S
C644 C642 1.327 . S
C644 C663 1.429 . S
C644 H668 0.950 . S
C645 C662 1.574 . S
C645 C664 1.368 . S
C645 H669 0.949 . S
H646 C650 0.949 . S
C647 C648 1.349 . S
C647 C649 1.327 . S
C647 H670 0.950 . S
C648 C647 1.349 . S
C648 C660 1.349 . S
C649 C647 1.327 . S
C649 C665 1.429 . S
C649 H671 0.950 . S
C650 H646 0.949 . S
C650 C658 1.574 . S
C650 C666 1.368 . S
H651 C659 0.950 . S
H652 C657 0.950 . S
H653 C658 0.949 . S
H654 C660 0.950 . S
H655 C661 0.950 . S
H656 C662 0.949 . S
C657 H652 0.950 . S
C657 C659 1.327 . S
C657 C663 1.429 . S
C658 C650 1.574 . S
C658 H653 0.949 . S
C658 C664 1.368 . S
C659 C643 1.349 . S
C659 H651 0.950 . S
C659 C657 1.327 . S
C660 C648 1.349 . S
C660 H654 0.950 . S
C660 C661 1.327 . S
C661 H655 0.950 . S
C661 C660 1.327 . S
C661 C665 1.429 . S
C662 C645 1.574 . S
C662 H656 0.949 . S
C662 C666 1.368 . S
C663 C644 1.429 . S
C663 C657 1.429 . S
C663 C664 1.523 . S
C664 C645 1.368 . S
C664 C658 1.368 . S
C664 C663 1.523 . S
C665 C649 1.429 . S
C665 C661 1.429 . S
C665 C666 1.523 . S
C666 C650 1.368 . S
C666 C662 1.368 . S
C666 C665 1.523 . S
H667 C642 0.950 . S
H668 C644 0.950 . S
H669 C645 0.949 . S
H670 C647 0.950 . S
H671 C649 0.950 . S
C672 C673 1.349 . S
C672 C674 1.327 . S
C672 H697 0.950 . S
C673 C672 1.349 . S
C673 C689 1.349 . S
C674 C672 1.327 . S
C674 C693 1.429 . S
C674 H698 0.950 . S
C675 C692 1.574 . S
C675 C694 1.368 . S
C675 H699 0.949 . S
H676 C680 0.949 . S
C677 C678 1.349 . S
C677 C679 1.327 . S
C677 H700 0.950 . S
C678 C677 1.349 . S
C678 C690 1.349 . S
C679 C677 1.327 . S
C679 C695 1.429 . S
C679 H701 0.950 . S
C680 H676 0.949 . S
C680 C688 1.574 . S
C680 C696 1.368 . S
H681 C689 0.950 . S
H682 C687 0.950 . S
H683 C688 0.949 . S
H684 C690 0.950 . S
H685 C691 0.950 . S
H686 C692 0.949 . S
C687 H682 0.950 . S
C687 C689 1.327 . S
C687 C693 1.429 . S
C688 C680 1.574 . S
C688 H683 0.949 . S
C688 C694 1.368 . S
C689 C673 1.349 . S
C689 H681 0.950 . S
C689 C687 1.327 . S
C690 C678 1.349 . S
C690 H684 0.950 . S
C690 C691 1.327 . S
C691 H685 0.950 . S
C691 C690 1.327 . S
C691 C695 1.429 . S
C692 C675 1.574 . S
C692 H686 0.949 . S
C692 C696 1.368 . S
C693 C674 1.429 . S
C693 C687 1.429 . S
C693 C694 1.523 . S
C694 C675 1.368 . S
C694 C688 1.368 . S
C694 C693 1.523 . S
C695 C679 1.429 . S
C695 C691 1.429 . S
C695 C696 1.523 . S
C696 C680 1.368 . S
C696 C692 1.368 . S
C696 C695 1.523 . S
H697 C672 0.950 . S
H698 C674 0.950 . S
H699 C675 0.949 . S
H700 C677 0.950 . S
H701 C679 0.950 . S
C702 C703 1.349 . S
C702 C704 1.327 . S
C702 H727 0.950 . S
C703 C702 1.349 . S
C703 C719 1.349 . S
C704 C702 1.327 . S
C704 C723 1.429 . S
C704 H728 0.950 . S
C705 C722 1.574 . S
C705 C724 1.368 . S
C705 H729 0.949 . S
H706 C710 0.949 . S
C707 C708 1.349 . S
C707 C709 1.327 . S
C707 H730 0.950 . S
C708 C707 1.349 . S
C708 C720 1.349 . S
C709 C707 1.327 . S
C709 C725 1.429 . S
C709 H731 0.950 . S
C710 H706 0.949 . S
C710 C718 1.574 . S
C710 C726 1.368 . S
H711 C719 0.950 . S
H712 C717 0.950 . S
H713 C718 0.949 . S
H714 C720 0.950 . S
H715 C721 0.950 . S
H716 C722 0.949 . S
C717 H712 0.950 . S
C717 C719 1.327 . S
C717 C723 1.429 . S
C718 C710 1.574 . S
C718 H713 0.949 . S
C718 C724 1.368 . S
C719 C703 1.349 . S
C719 H711 0.950 . S
C719 C717 1.327 . S
C720 C708 1.349 . S
C720 H714 0.950 . S
C720 C721 1.327 . S
C721 H715 0.950 . S
C721 C720 1.327 . S
C721 C725 1.429 . S
C722 C705 1.574 . S
C722 H716 0.949 . S
C722 C726 1.368 . S
C723 C704 1.429 . S
C723 C717 1.429 . S
C723 C724 1.523 . S
C724 C705 1.368 . S
C724 C718 1.368 . S
C724 C723 1.523 . S
C725 C709 1.429 . S
C725 C721 1.429 . S
C725 C726 1.523 . S
C726 C710 1.368 . S
C726 C722 1.368 . S
C726 C725 1.523 . S
H727 C702 0.950 . S
H728 C704 0.950 . S
H729 C705 0.949 . S
H730 C707 0.950 . S
H731 C709 0.950 . S
C732 C733 1.349 . S
C732 C734 1.327 . S
C732 H757 0.950 . S
C733 C732 1.349 . S
C733 C749 1.349 . S
C734 C732 1.327 . S
C734 C753 1.429 . S
C734 H758 0.950 . S
C735 C752 1.574 . S
C735 C754 1.368 . S
C735 H759 0.949 . S
H736 C740 0.949 . S
C737 C738 1.349 . S
C737 C739 1.327 . S
C737 H760 0.950 . S
C738 C737 1.349 . S
C738 C750 1.349 . S
C739 C737 1.327 . S
C739 C755 1.429 . S
C739 H761 0.950 . S
C740 H736 0.949 . S
C740 C748 1.574 . S
C740 C756 1.368 . S
H741 C749 0.950 . S
H742 C747 0.950 . S
H743 C748 0.949 . S
H744 C750 0.950 . S
H745 C751 0.950 . S
H746 C752 0.949 . S
C747 H742 0.950 . S
C747 C749 1.327 . S
C747 C753 1.429 . S
C748 C740 1.574 . S
C748 H743 0.949 . S
C748 C754 1.368 . S
C749 C733 1.349 . S
C749 H741 0.950 . S
C749 C747 1.327 . S
C750 C738 1.349 . S
C750 H744 0.950 . S
C750 C751 1.327 . S
C751 H745 0.950 . S
C751 C750 1.327 . S
C751 C755 1.429 . S
C752 C735 1.574 . S
C752 H746 0.949 . S
C752 C756 1.368 . S
C753 C734 1.429 . S
C753 C747 1.429 . S
C753 C754 1.523 . S
C754 C735 1.368 . S
C754 C748 1.368 . S
C754 C753 1.523 . S
C755 C739 1.429 . S
C755 C751 1.429 . S
C755 C756 1.523 . S
C756 C740 1.368 . S
C756 C752 1.368 . S
C756 C755 1.523 . S
H757 C732 0.950 . S
H758 C734 0.950 . S
H759 C735 0.949 . S
H760 C737 0.950 . S
H761 C739 0.950 . S
C762 C763 1.349 . S
C762 C764 1.327 . S
C762 H787 0.950 . S
C763 C762 1.349 . S
C763 C779 1.349 . S
C764 C762 1.327 . S
C764 C783 1.429 . S
C764 H788 0.950 . S
C765 C782 1.574 . S
C765 C784 1.368 . S
C765 H789 0.949 1_554 S
H766 C770 0.949 . S
C767 C768 1.349 . S
C767 C769 1.327 . S
C767 H790 0.950 1_554 S
C768 C767 1.349 . S
C768 C780 1.349 . S
C769 C767 1.327 . S
C769 C785 1.429 . S
C769 H791 0.950 1_554 S
C770 H766 0.949 . S
C770 C778 1.574 . S
C770 C786 1.368 . S
H771 C779 0.950 1_556 S
H772 C777 0.950 1_556 S
H773 C778 0.949 . S
H774 C780 0.950 . S
H775 C781 0.950 . S
H776 C782 0.949 1_556 S
C777 H772 0.950 1_554 S
C777 C779 1.327 . S
C777 C783 1.429 . S
C778 C770 1.574 . S
C778 H773 0.949 . S
C778 C784 1.368 . S
C779 C763 1.349 . S
C779 H771 0.950 1_554 S
C779 C777 1.327 . S
C780 C768 1.349 . S
C780 H774 0.950 . S
C780 C781 1.327 . S
C781 H775 0.950 . S
C781 C780 1.327 . S
C781 C785 1.429 . S
C782 C765 1.574 . S
C782 H776 0.949 1_554 S
C782 C786 1.368 . S
C783 C764 1.429 . S
C783 C777 1.429 . S
C783 C784 1.523 . S
C784 C765 1.368 . S
C784 C778 1.368 . S
C784 C783 1.523 . S
C785 C769 1.429 . S
C785 C781 1.429 . S
C785 C786 1.523 . S
C786 C770 1.368 . S
C786 C782 1.368 . S
C786 C785 1.523 . S
H787 C762 0.950 . S
H788 C764 0.950 . S
H789 C765 0.949 1_556 S
H790 C767 0.950 1_556 S
H791 C769 0.950 1_556 S
C792 C793 1.349 . S
C792 C794 1.327 . S
C792 H817 0.950 . S
C793 C792 1.349 . S
C793 C809 1.349 . S
C794 C792 1.327 . S
C794 C813 1.429 . S
C794 H818 0.950 . S
C795 C812 1.574 . S
C795 C814 1.368 . S
C795 H819 0.949 . S
H796 C800 0.949 . S
C797 C798 1.349 . S
C797 C799 1.327 . S
C797 H820 0.950 . S
C798 C797 1.349 . S
C798 C810 1.349 . S
C799 C797 1.327 . S
C799 C815 1.429 . S
C799 H821 0.950 . S
C800 H796 0.949 . S
C800 C808 1.574 . S
C800 C816 1.368 . S
H801 C809 0.950 . S
H802 C807 0.950 . S
H803 C808 0.949 . S
H804 C810 0.942 1_565 S
H805 C811 0.950 . S
H806 C812 0.949 . S
C807 H802 0.950 . S
C807 C809 1.327 . S
C807 C813 1.429 . S
C808 C800 1.574 . S
C808 H803 0.949 . S
C808 C814 1.368 . S
C809 C793 1.349 . S
C809 H801 0.950 . S
C809 C807 1.327 . S
C810 C798 1.349 . S
C810 H804 0.942 1_545 S
C810 C811 1.327 . S
C811 H805 0.950 . S
C811 C810 1.327 . S
C811 C815 1.429 . S
C812 C795 1.574 . S
C812 H806 0.949 . S
C812 C816 1.368 . S
C813 C794 1.429 . S
C813 C807 1.429 . S
C813 C814 1.523 . S
C814 C795 1.368 . S
C814 C808 1.368 . S
C814 C813 1.523 . S
C815 C799 1.429 . S
C815 C811 1.429 . S
C815 C816 1.523 . S
C816 C800 1.368 . S
C816 C812 1.368 . S
C816 C815 1.523 . S
H817 C792 0.950 . S
H818 C794 0.950 . S
H819 C795 0.949 . S
H820 C797 0.950 . S
H821 C799 0.950 . S
C822 C823 1.349 . S
C822 C824 1.327 . S
C822 H847 0.950 . S
C823 C822 1.349 . S
C823 C839 1.349 . S
C824 C822 1.327 . S
C824 C843 1.429 . S
C824 H848 0.950 . S
C825 C842 1.574 . S
C825 C844 1.368 . S
C825 H849 0.949 . S
H826 C830 0.949 . S
C827 C828 1.349 . S
C827 C829 1.327 . S
C827 H850 0.950 . S
C828 C827 1.349 . S
C828 C840 1.349 . S
C829 C827 1.327 . S
C829 C845 1.429 . S
C829 H851 0.950 . S
C830 H826 0.949 . S
C830 C838 1.574 . S
C830 C846 1.368 . S
H831 C839 0.950 . S
H832 C837 0.950 . S
H833 C838 0.949 . S
H834 C840 0.950 . S
H835 C841 0.950 . S
H836 C842 0.949 . S
C837 H832 0.950 . S
C837 C839 1.327 . S
C837 C843 1.429 . S
C838 C830 1.574 . S
C838 H833 0.949 . S
C838 C844 1.368 . S
C839 C823 1.349 . S
C839 H831 0.950 . S
C839 C837 1.327 . S
C840 C828 1.349 . S
C840 H834 0.950 . S
C840 C841 1.327 . S
C841 H835 0.950 . S
C841 C840 1.327 . S
C841 C845 1.429 . S
C842 C825 1.574 . S
C842 H836 0.949 . S
C842 C846 1.368 . S
C843 C824 1.429 . S
C843 C837 1.429 . S
C843 C844 1.523 . S
C844 C825 1.368 . S
C844 C838 1.368 . S
C844 C843 1.523 . S
C845 C829 1.429 . S
C845 C841 1.429 . S
C845 C846 1.523 . S
C846 C830 1.368 . S
C846 C842 1.368 . S
C846 C845 1.523 . S
H847 C822 0.950 . S
H848 C824 0.950 . S
H849 C825 0.949 . S
H850 C827 0.950 . S
H851 C829 0.950 . S
C852 C853 1.349 . S
C852 C854 1.327 . S
C852 H877 0.950 1_565 S
C853 C852 1.349 . S
C853 C869 1.349 . S
C854 C852 1.327 . S
C854 C873 1.429 . S
C854 H878 0.915 1_565 S
C855 C872 1.574 . S
C855 C874 1.368 . S
C855 H879 0.949 . S
H856 C860 0.949 . S
C857 C858 1.349 . S
C857 C859 1.327 . S
C857 H880 0.950 . S
C858 C857 1.349 . S
C858 C870 1.349 . S
C859 C857 1.327 . S
C859 C875 1.429 . S
C859 H881 0.950 . S
C860 H856 0.949 . S
C860 C868 1.574 . S
C860 C876 1.368 . S
H861 C869 0.950 . S
H862 C867 0.950 . S
H863 C868 0.964 . S
H864 C870 0.950 . S
H865 C871 0.950 . S
H866 C872 0.949 . S
C867 H862 0.950 . S
C867 C869 1.327 . S
C867 C873 1.429 . S
C868 C860 1.574 . S
C868 H863 0.964 . S
C868 C874 1.368 . S
C869 C853 1.349 . S
C869 H861 0.950 . S
C869 C867 1.327 . S
C870 C858 1.349 . S
C870 H864 0.950 . S
C870 C871 1.327 . S
C871 H865 0.950 . S
C871 C870 1.327 . S
C871 C875 1.429 . S
C872 C855 1.574 . S
C872 H866 0.949 . S
C872 C876 1.368 . S
C873 C854 1.429 . S
C873 C867 1.429 . S
C873 C874 1.523 . S
C874 C855 1.368 . S
C874 C868 1.368 . S
C874 C873 1.523 . S
C875 C859 1.429 . S
C875 C871 1.429 . S
C875 C876 1.523 . S
C876 C860 1.368 . S
C876 C872 1.368 . S
C876 C875 1.523 . S
H877 C852 0.950 1_545 S
H878 C854 0.915 1_545 S
H879 C855 0.949 . S
H880 C857 0.950 . S
H881 C859 0.950 . S
C882 C883 1.349 . S
C882 C884 1.327 . S
C882 H907 0.950 . S
C883 C882 1.349 . S
C883 C899 1.349 . S
C884 C882 1.327 . S
C884 C903 1.429 . S
C884 H908 0.950 . S
C885 C902 1.574 . S
C885 C904 1.368 . S
C885 H909 0.949 . S
H886 C890 0.949 . S
C887 C888 1.349 . S
C887 C889 1.327 . S
C887 H910 0.950 . S
C888 C887 1.349 . S
C888 C900 1.349 . S
C889 C887 1.327 . S
C889 C905 1.429 . S
C889 H911 0.950 . S
C890 H886 0.949 . S
C890 C898 1.574 . S
C890 C906 1.368 . S
H891 C899 0.950 . S
H892 C897 0.950 . S
H893 C898 0.949 . S
H894 C900 0.950 . S
H895 C901 0.950 . S
H896 C902 0.949 . S
C897 H892 0.950 . S
C897 C899 1.327 . S
C897 C903 1.429 . S
C898 C890 1.574 . S
C898 H893 0.949 . S
C898 C904 1.368 . S
C899 C883 1.349 . S
C899 H891 0.950 . S
C899 C897 1.327 . S
C900 C888 1.349 . S
C900 H894 0.950 . S
C900 C901 1.327 . S
C901 H895 0.950 . S
C901 C900 1.327 . S
C901 C905 1.429 . S
C902 C885 1.574 . S
C902 H896 0.949 . S
C902 C906 1.368 . S
C903 C884 1.429 . S
C903 C897 1.429 . S
C903 C904 1.523 . S
C904 C885 1.368 . S
C904 C898 1.368 . S
C904 C903 1.523 . S
C905 C889 1.429 . S
C905 C901 1.429 . S
C905 C906 1.523 . S
C906 C890 1.368 . S
C906 C902 1.368 . S
C906 C905 1.523 . S
H907 C882 0.950 . S
H908 C884 0.950 . S
H909 C885 0.949 . S
H910 C887 0.950 . S
H911 C889 0.950 . S
C912 C913 1.349 . S
C912 C914 1.327 . S
C912 H937 0.950 . S
C913 C912 1.349 . S
C913 C929 1.349 . S
C914 C912 1.327 . S
C914 C933 1.429 . S
C914 H938 0.950 . S
C915 C932 1.574 . S
C915 C934 1.368 . S
C915 H939 0.949 . S
H916 C920 0.949 . S
C917 C918 1.349 . S
C917 C919 1.327 . S
C917 H940 0.950 . S
C918 C917 1.349 . S
C918 C930 1.349 . S
C919 C917 1.327 . S
C919 C935 1.429 . S
C919 H941 0.950 . S
C920 H916 0.949 . S
C920 C928 1.574 . S
C920 C936 1.368 . S
H921 C929 0.950 . S
H922 C927 0.950 . S
H923 C928 0.949 . S
H924 C930 0.950 . S
H925 C931 0.950 . S
H926 C932 0.949 . S
C927 H922 0.950 . S
C927 C929 1.327 . S
C927 C933 1.429 . S
C928 C920 1.574 . S
C928 H923 0.949 . S
C928 C934 1.368 . S
C929 C913 1.349 . S
C929 H921 0.950 . S
C929 C927 1.327 . S
C930 C918 1.349 . S
C930 H924 0.950 . S
C930 C931 1.327 . S
C931 H925 0.950 . S
C931 C930 1.327 . S
C931 C935 1.429 . S
C932 C915 1.574 . S
C932 H926 0.949 . S
C932 C936 1.368 . S
C933 C914 1.429 . S
C933 C927 1.429 . S
C933 C934 1.523 . S
C934 C915 1.368 . S
C934 C928 1.368 . S
C934 C933 1.523 . S
C935 C919 1.429 . S
C935 C931 1.429 . S
C935 C936 1.523 . S
C936 C920 1.368 . S
C936 C932 1.368 . S
C936 C935 1.523 . S
H937 C912 0.950 . S
H938 C914 0.950 . S
H939 C915 0.949 . S
H940 C917 0.950 . S
H941 C919 0.950 . S
C942 C943 1.349 . S
C942 C944 1.327 . S
C942 H967 0.950 . S
C943 C942 1.349 . S
C943 C959 1.349 . S
C944 C942 1.327 . S
C944 C963 1.429 . S
C944 H968 0.950 . S
C945 C962 1.574 . S
C945 C964 1.368 . S
C945 H969 0.949 . S
H946 C950 0.949 . S
C947 C948 1.349 . S
C947 C949 1.327 . S
C947 H970 0.950 . S
C948 C947 1.349 . S
C948 C960 1.349 . S
C949 C947 1.327 . S
C949 C965 1.429 . S
C949 H971 0.950 . S
C950 H946 0.949 . S
C950 C958 1.574 . S
C950 C966 1.368 . S
H951 C959 0.950 . S
H952 C957 0.950 . S
H953 C958 0.949 . S
H954 C960 0.950 . S
H955 C961 0.950 . S
H956 C962 0.949 . S
C957 H952 0.950 . S
C957 C959 1.327 . S
C957 C963 1.429 . S
C958 C950 1.574 . S
C958 H953 0.949 . S
C958 C964 1.368 . S
C959 C943 1.349 . S
C959 H951 0.950 . S
C959 C957 1.327 . S
C960 C948 1.349 . S
C960 H954 0.950 . S
C960 C961 1.327 . S
C961 H955 0.950 . S
C961 C960 1.327 . S
C961 C965 1.429 . S
C962 C945 1.574 . S
C962 H956 0.949 . S
C962 C966 1.368 . S
C963 C944 1.429 . S
C963 C957 1.429 . S
C963 C964 1.523 . S
C964 C945 1.368 . S
C964 C958 1.368 . S
C964 C963 1.523 . S
C965 C949 1.429 . S
C965 C961 1.429 . S
C965 C966 1.523 . S
C966 C950 1.368 . S
C966 C962 1.368 . S
C966 C965 1.523 . S
H967 C942 0.950 . S
H968 C944 0.950 . S
H969 C945 0.949 . S
H970 C947 0.950 . S
H971 C949 0.950 . S
C972 C973 1.349 . S
C972 C974 1.327 . S
C972 H997 0.950 . S
C973 C972 1.349 . S
C973 C989 1.349 . S
C974 C972 1.327 . S
C974 C993 1.429 . S
C974 H998 0.950 . S
C975 C992 1.574 . S
C975 C994 1.368 . S
C975 H999 0.949 . S
H976 C980 0.949 . S
C977 C978 1.349 . S
C977 C979 1.327 . S
C977 H1000 0.950 . S
C978 C977 1.349 . S
C978 C990 1.349 . S
C979 C977 1.327 . S
C979 C995 1.429 . S
C979 H1001 0.950 . S
C980 H976 0.949 . S
C980 C988 1.574 . S
C980 C996 1.368 . S
H981 C989 0.950 . S
H982 C987 0.950 . S
H983 C988 0.949 . S
H984 C990 0.950 . S
H985 C991 0.950 . S
H986 C992 0.949 . S
C987 H982 0.950 . S
C987 C989 1.327 . S
C987 C993 1.429 . S
C988 C980 1.574 . S
C988 H983 0.949 . S
C988 C994 1.368 . S
C989 C973 1.349 . S
C989 H981 0.950 . S
C989 C987 1.327 . S
C990 C978 1.349 . S
C990 H984 0.950 . S
C990 C991 1.327 . S
C991 H985 0.950 . S
C991 C990 1.327 . S
C991 C995 1.429 . S
C992 C975 1.574 . S
C992 H986 0.949 . S
C992 C996 1.368 . S
C993 C974 1.429 . S
C993 C987 1.429 . S
C993 C994 1.523 . S
C994 C975 1.368 . S
C994 C988 1.368 . S
C994 C993 1.523 . S
C995 C979 1.429 . S
C995 C991 1.429 . S
C995 C996 1.523 . S
C996 C980 1.368 . S
C996 C992 1.368 . S
C996 C995 1.523 . S
H997 C972 0.950 . S
H998 C974 0.950 . S
H999 C975 0.949 . S
H1000 C977 0.950 . S
H1001 C979 0.950 . S
C1002 C1003 1.349 . S
C1002 C1004 1.327 . S
C1002 H1027 0.950 . S
C1003 C1002 1.349 . S
C1003 C1019 1.349 . S
C1004 C1002 1.327 . S
C1004 C1023 1.429 . S
C1004 H1028 0.950 . S
C1005 C1022 1.574 . S
C1005 C1024 1.368 . S
C1005 H1029 0.949 . S
H1006 C1010 0.949 . S
C1007 C1008 1.349 . S
C1007 C1009 1.327 . S
C1007 H1030 0.950 . S
C1008 C1007 1.349 . S
C1008 C1020 1.349 . S
C1009 C1007 1.327 . S
C1009 C1025 1.429 . S
C1009 H1031 0.950 . S
C1010 H1006 0.949 . S
C1010 C1018 1.574 . S
C1010 C1026 1.368 . S
H1011 C1019 0.950 . S
H1012 C1017 0.950 . S
H1013 C1018 0.949 . S
H1014 C1020 0.950 . S
H1015 C1021 0.950 . S
H1016 C1022 0.949 . S
C1017 H1012 0.950 . S
C1017 C1019 1.327 . S
C1017 C1023 1.429 . S
C1018 C1010 1.574 . S
C1018 H1013 0.949 . S
C1018 C1024 1.368 . S
C1019 C1003 1.349 . S
C1019 H1011 0.950 . S
C1019 C1017 1.327 . S
C1020 C1008 1.349 . S
C1020 H1014 0.950 . S
C1020 C1021 1.327 . S
C1021 H1015 0.950 . S
C1021 C1020 1.327 . S
C1021 C1025 1.429 . S
C1022 C1005 1.574 . S
C1022 H1016 0.949 . S
C1022 C1026 1.368 . S
C1023 C1004 1.429 . S
C1023 C1017 1.429 . S
C1023 C1024 1.523 . S
C1024 C1005 1.368 . S
C1024 C1018 1.368 . S
C1024 C1023 1.523 . S
C1025 C1009 1.429 . S
C1025 C1021 1.429 . S
C1025 C1026 1.523 . S
C1026 C1010 1.368 . S
C1026 C1022 1.368 . S
C1026 C1025 1.523 . S
H1027 C1002 0.950 . S
H1028 C1004 0.950 . S
H1029 C1005 0.949 . S
H1030 C1007 0.950 . S
H1031 C1009 0.950 . S
C1032 C1033 1.349 . S
C1032 C1034 1.327 . S
C1032 H1057 0.950 . S
C1033 C1032 1.349 . S
C1033 C1049 1.349 . S
C1034 C1032 1.327 . S
C1034 C1053 1.429 . S
C1034 H1058 0.950 . S
C1035 C1052 1.574 . S
C1035 C1054 1.368 . S
C1035 H1059 0.949 . S
H1036 C1040 0.949 . S
C1037 C1038 1.349 . S
C1037 C1039 1.327 . S
C1037 H1060 0.950 . S
C1038 C1037 1.349 . S
C1038 C1050 1.349 . S
C1039 C1037 1.327 . S
C1039 C1055 1.429 . S
C1039 H1061 0.950 . S
C1040 H1036 0.949 . S
C1040 C1048 1.574 . S
C1040 C1056 1.368 . S
H1041 C1049 0.950 . S
H1042 C1047 0.950 . S
H1043 C1048 0.949 . S
H1044 C1050 0.950 . S
H1045 C1051 0.950 . S
H1046 C1052 0.949 . S
C1047 H1042 0.950 . S
C1047 C1049 1.327 . S
C1047 C1053 1.429 . S
C1048 C1040 1.574 . S
C1048 H1043 0.949 . S
C1048 C1054 1.368 . S
C1049 C1033 1.349 . S
C1049 H1041 0.950 . S
C1049 C1047 1.327 . S
C1050 C1038 1.349 . S
C1050 H1044 0.950 . S
C1050 C1051 1.327 . S
C1051 H1045 0.950 . S
C1051 C1050 1.327 . S
C1051 C1055 1.429 . S
C1052 C1035 1.574 . S
C1052 H1046 0.949 . S
C1052 C1056 1.368 . S
C1053 C1034 1.429 . S
C1053 C1047 1.429 . S
C1053 C1054 1.523 . S
C1054 C1035 1.368 . S
C1054 C1048 1.368 . S
C1054 C1053 1.523 . S
C1055 C1039 1.429 . S
C1055 C1051 1.429 . S
C1055 C1056 1.523 . S
C1056 C1040 1.368 . S
C1056 C1052 1.368 . S
C1056 C1055 1.523 . S
H1057 C1032 0.950 . S
H1058 C1034 0.950 . S
H1059 C1035 0.949 . S
H1060 C1037 0.950 . S
H1061 C1039 0.950 . S
C1062 C1063 1.349 . S
C1062 C1064 1.327 . S
C1062 H1087 0.950 . S
C1063 C1062 1.349 . S
C1063 C1079 1.349 . S
C1064 C1062 1.327 . S
C1064 C1083 1.429 . S
C1064 H1088 0.950 . S
C1065 C1082 1.574 . S
C1065 C1084 1.368 . S
C1065 H1089 0.949 . S
H1066 C1070 0.949 . S
C1067 C1068 1.349 . S
C1067 C1069 1.327 . S
C1067 H1090 0.950 . S
C1068 C1067 1.349 . S
C1068 C1080 1.349 . S
C1069 C1067 1.327 . S
C1069 C1085 1.429 . S
C1069 H1091 0.950 . S
C1070 H1066 0.949 . S
C1070 C1078 1.574 . S
C1070 C1086 1.368 . S
H1071 C1079 0.950 . S
H1072 C1077 0.950 . S
H1073 C1078 0.949 . S
H1074 C1080 0.950 . S
H1075 C1081 0.950 . S
H1076 C1082 0.949 . S
C1077 H1072 0.950 . S
C1077 C1079 1.327 . S
C1077 C1083 1.429 . S
C1078 C1070 1.574 . S
C1078 H1073 0.949 . S
C1078 C1084 1.368 . S
C1079 C1063 1.349 . S
C1079 H1071 0.950 . S
C1079 C1077 1.327 . S
C1080 C1068 1.349 . S
C1080 H1074 0.950 . S
C1080 C1081 1.327 . S
C1081 H1075 0.950 . S
C1081 C1080 1.327 . S
C1081 C1085 1.429 . S
C1082 C1065 1.574 . S
C1082 H1076 0.949 . S
C1082 C1086 1.368 . S
C1083 C1064 1.429 . S
C1083 C1077 1.429 . S
C1083 C1084 1.523 . S
C1084 C1065 1.368 . S
C1084 C1078 1.368 . S
C1084 C1083 1.523 . S
C1085 C1069 1.429 . S
C1085 C1081 1.429 . S
C1085 C1086 1.523 . S
C1086 C1070 1.368 . S
C1086 C1082 1.368 . S
C1086 C1085 1.523 . S
H1087 C1062 0.950 . S
H1088 C1064 0.950 . S
H1089 C1065 0.949 . S
H1090 C1067 0.950 . S
H1091 C1069 0.950 . S
C1092 C1093 1.349 . S
C1092 C1094 1.327 . S
C1092 H1117 0.950 . S
C1093 C1092 1.349 . S
C1093 C1109 1.349 . S
C1094 C1092 1.327 . S
C1094 C1113 1.429 . S
C1094 H1118 0.950 . S
C1095 C1112 1.574 . S
C1095 C1114 1.368 . S
C1095 H1119 0.949 . S
H1096 C1100 0.949 . S
C1097 C1098 1.349 . S
C1097 C1099 1.327 . S
C1097 H1120 0.950 . S
C1098 C1097 1.349 . S
C1098 C1110 1.349 . S
C1099 C1097 1.327 . S
C1099 C1115 1.429 . S
C1099 H1121 0.950 . S
C1100 H1096 0.949 . S
C1100 C1108 1.574 . S
C1100 C1116 1.368 . S
H1101 C1109 0.950 . S
H1102 C1107 0.950 . S
H1103 C1108 0.949 . S
H1104 C1110 0.950 . S
H1105 C1111 0.950 . S
H1106 C1112 0.949 . S
C1107 H1102 0.950 . S
C1107 C1109 1.327 . S
C1107 C1113 1.429 . S
C1108 C1100 1.574 . S
C1108 H1103 0.949 . S
C1108 C1114 1.368 . S
C1109 C1093 1.349 . S
C1109 H1101 0.950 . S
C1109 C1107 1.327 . S
C1110 C1098 1.349 . S
C1110 H1104 0.950 . S
C1110 C1111 1.327 . S
C1111 H1105 0.950 . S
C1111 C1110 1.327 . S
C1111 C1115 1.429 . S
C1112 C1095 1.574 . S
C1112 H1106 0.949 . S
C1112 C1116 1.368 . S
C1113 C1094 1.429 . S
C1113 C1107 1.429 . S
C1113 C1114 1.523 . S
C1114 C1095 1.368 . S
C1114 C1108 1.368 . S
C1114 C1113 1.523 . S
C1115 C1099 1.429 . S
C1115 C1111 1.429 . S
C1115 C1116 1.523 . S
C1116 C1100 1.368 . S
C1116 C1112 1.368 . S
C1116 C1115 1.523 . S
H1117 C1092 0.950 . S
H1118 C1094 0.950 . S
H1119 C1095 0.949 . S
H1120 C1097 0.950 . S
H1121 C1099 0.950 . S
C1122 C1123 1.349 . S
C1122 C1124 1.327 . S
C1122 H1147 0.950 1_455 S
C1123 C1122 1.349 . S
C1123 C1139 1.349 . S
C1124 C1122 1.327 . S
C1124 C1143 1.429 . S
C1124 H1148 0.950 1_455 S
C1125 C1142 1.574 . S
C1125 C1144 1.368 . S
C1125 H1149 0.949 . S
H1126 C1130 0.949 1_655 S
C1127 C1128 1.349 . S
C1127 C1129 1.327 . S
C1127 H1150 0.950 . S
C1128 C1127 1.349 . S
C1128 C1140 1.349 . S
C1129 C1127 1.327 . S
C1129 C1145 1.429 . S
C1129 H1151 0.950 . S
C1130 H1126 0.949 1_455 S
C1130 C1138 1.574 . S
C1130 C1146 1.368 . S
H1131 C1139 0.950 . S
H1132 C1137 0.950 . S
H1133 C1138 0.949 1_655 S
H1134 C1140 0.950 1_655 S
H1135 C1141 0.950 1_655 S
H1136 C1142 0.949 . S
C1137 H1132 0.950 . S
C1137 C1139 1.327 . S
C1137 C1143 1.429 . S
C1138 C1130 1.574 . S
C1138 H1133 0.949 1_455 S
C1138 C1144 1.368 . S
C1139 C1123 1.349 . S
C1139 H1131 0.950 . S
C1139 C1137 1.327 . S
C1140 C1128 1.349 . S
C1140 H1134 0.950 1_455 S
C1140 C1141 1.327 . S
C1141 H1135 0.950 1_455 S
C1141 C1140 1.327 . S
C1141 C1145 1.429 . S
C1142 C1125 1.574 . S
C1142 H1136 0.949 . S
C1142 C1146 1.368 . S
C1143 C1124 1.429 . S
C1143 C1137 1.429 . S
C1143 C1144 1.523 . S
C1144 C1125 1.368 . S
C1144 C1138 1.368 . S
C1144 C1143 1.523 . S
C1145 C1129 1.429 . S
C1145 C1141 1.429 . S
C1145 C1146 1.523 . S
C1146 C1130 1.368 . S
C1146 C1142 1.368 . S
C1146 C1145 1.523 . S
H1147 C1122 0.950 1_655 S
H1148 C1124 0.950 1_655 S
H1149 C1125 0.949 . S
H1150 C1127 0.950 . S
H1151 C1129 0.950 . S
C1152 C1153 1.349 . S
C1152 C1154 1.327 . S
C1152 H1177 0.950 . S
C1153 C1152 1.349 . S
C1153 C1169 1.349 . S
C1154 C1152 1.327 . S
C1154 C1173 1.429 . S
C1154 H1178 0.950 . S
C1155 C1172 1.574 . S
C1155 C1174 1.368 . S
C1155 H1179 0.949 . S
H1156 C1160 0.949 . S
C1157 C1158 1.349 . S
C1157 C1159 1.327 . S
C1157 H1180 0.950 . S
C1158 C1157 1.349 . S
C1158 C1170 1.349 . S
C1159 C1157 1.327 . S
C1159 C1175 1.429 . S
C1159 H1181 0.950 . S
C1160 H1156 0.949 . S
C1160 C1168 1.574 . S
C1160 C1176 1.368 . S
H1161 C1169 0.950 . S
H1162 C1167 0.950 . S
H1163 C1168 0.949 . S
H1164 C1170 0.950 . S
H1165 C1171 0.950 . S
H1166 C1172 0.949 . S
C1167 H1162 0.950 . S
C1167 C1169 1.327 . S
C1167 C1173 1.429 . S
C1168 C1160 1.574 . S
C1168 H1163 0.949 . S
C1168 C1174 1.368 . S
C1169 C1153 1.349 . S
C1169 H1161 0.950 . S
C1169 C1167 1.327 . S
C1170 C1158 1.349 . S
C1170 H1164 0.950 . S
C1170 C1171 1.327 . S
C1171 H1165 0.950 . S
C1171 C1170 1.327 . S
C1171 C1175 1.429 . S
C1172 C1155 1.574 . S
C1172 H1166 0.949 . S
C1172 C1176 1.368 . S
C1173 C1154 1.429 . S
C1173 C1167 1.429 . S
C1173 C1174 1.523 . S
C1174 C1155 1.368 . S
C1174 C1168 1.368 . S
C1174 C1173 1.523 . S
C1175 C1159 1.429 . S
C1175 C1171 1.429 . S
C1175 C1176 1.523 . S
C1176 C1160 1.368 . S
C1176 C1172 1.368 . S
C1176 C1175 1.523 . S
H1177 C1152 0.950 . S
H1178 C1154 0.950 . S
H1179 C1155 0.949 . S
H1180 C1157 0.950 . S
H1181 C1159 0.950 . S
C1182 C1183 1.349 . S
C1182 C1184 1.327 . S
C1182 H1207 0.950 . S
C1183 C1182 1.349 . S
C1183 C1199 1.349 . S
C1184 C1182 1.327 . S
C1184 C1203 1.429 . S
C1184 H1208 0.950 . S
C1185 C1202 1.574 . S
C1185 C1204 1.368 . S
C1185 H1209 0.949 . S
H1186 C1190 0.949 . S
C1187 C1188 1.349 . S
C1187 C1189 1.327 . S
C1187 H1210 0.950 . S
C1188 C1187 1.349 . S
C1188 C1200 1.349 . S
C1189 C1187 1.327 . S
C1189 C1205 1.429 . S
C1189 H1211 0.950 . S
C1190 H1186 0.949 . S
C1190 C1198 1.574 . S
C1190 C1206 1.368 . S
H1191 C1199 0.950 . S
H1192 C1197 0.950 . S
H1193 C1198 0.949 . S
H1194 C1200 0.950 . S
H1195 C1201 0.950 . S
H1196 C1202 0.949 . S
C1197 H1192 0.950 . S
C1197 C1199 1.327 . S
C1197 C1203 1.429 . S
C1198 C1190 1.574 . S
C1198 H1193 0.949 . S
C1198 C1204 1.368 . S
C1199 C1183 1.349 . S
C1199 H1191 0.950 . S
C1199 C1197 1.327 . S
C1200 C1188 1.349 . S
C1200 H1194 0.950 . S
C1200 C1201 1.327 . S
C1201 H1195 0.950 . S
C1201 C1200 1.327 . S
C1201 C1205 1.429 . S
C1202 C1185 1.574 . S
C1202 H1196 0.949 . S
C1202 C1206 1.368 . S
C1203 C1184 1.429 . S
C1203 C1197 1.429 . S
C1203 C1204 1.523 . S
C1204 C1185 1.368 . S
C1204 C1198 1.368 . S
C1204 C1203 1.523 . S
C1205 C1189 1.429 . S
C1205 C1201 1.429 . S
C1205 C1206 1.523 . S
C1206 C1190 1.368 . S
C1206 C1202 1.368 . S
C1206 C1205 1.523 . S
H1207 C1182 0.950 . S
H1208 C1184 0.950 . S
H1209 C1185 0.949 . S
H1210 C1187 0.950 . S
H1211 C1189 0.950 . S
C1212 C1213 1.349 . S
C1212 C1214 1.327 . S
C1212 H1237 0.950 . S
C1213 C1212 1.349 . S
C1213 C1229 1.349 . S
C1214 C1212 1.327 . S
C1214 C1233 1.429 . S
C1214 H1238 0.950 . S
C1215 C1232 1.574 . S
C1215 C1234 1.368 . S
C1215 H1239 0.949 1_556 S
H1216 C1220 0.949 . S
C1217 C1218 1.349 . S
C1217 C1219 1.327 . S
C1217 H1240 0.950 1_556 S
C1218 C1217 1.349 . S
C1218 C1230 1.349 . S
C1219 C1217 1.327 . S
C1219 C1235 1.429 . S
C1219 H1241 0.950 1_556 S
C1220 H1216 0.949 . S
C1220 C1228 1.574 . S
C1220 C1236 1.368 . S
H1221 C1229 0.940 1_554 S
H1222 C1227 0.950 1_554 S
H1223 C1228 0.949 . S
H1224 C1230 0.950 . S
H1225 C1231 0.950 . S
H1226 C1232 0.949 1_554 S
C1227 H1222 0.950 1_556 S
C1227 C1229 1.327 . S
C1227 C1233 1.429 . S
C1228 C1220 1.574 . S
C1228 H1223 0.949 . S
C1228 C1234 1.368 . S
C1229 C1213 1.349 . S
C1229 H1221 0.940 1_556 S
C1229 C1227 1.327 . S
C1230 C1218 1.349 . S
C1230 H1224 0.950 . S
C1230 C1231 1.327 . S
C1231 H1225 0.950 . S
C1231 C1230 1.327 . S
C1231 C1235 1.429 . S
C1232 C1215 1.574 . S
C1232 H1226 0.949 1_556 S
C1232 C1236 1.368 . S
C1233 C1214 1.429 . S
C1233 C1227 1.429 . S
C1233 C1234 1.523 . S
C1234 C1215 1.368 . S
C1234 C1228 1.368 . S
C1234 C1233 1.523 . S
C1235 C1219 1.429 . S
C1235 C1231 1.429 . S
C1235 C1236 1.523 . S
C1236 C1220 1.368 . S
C1236 C1232 1.368 . S
C1236 C1235 1.523 . S
H1237 C1212 0.950 . S
H1238 C1214 0.950 . S
H1239 C1215 0.949 1_554 S
H1240 C1217 0.950 1_554 S
H1241 C1219 0.950 1_554 S
C1242 C1243 1.349 . S
C1242 C1244 1.327 . S
C1242 H1267 0.950 . S
C1243 C1242 1.349 . S
C1243 C1259 1.349 . S
C1244 C1242 1.327 . S
C1244 C1263 1.429 . S
C1244 H1268 0.950 . S
C1245 C1262 1.574 . S
C1245 C1264 1.368 . S
C1245 H1269 0.949 . S
H1246 C1250 0.949 . S
C1247 C1248 1.349 . S
C1247 C1249 1.327 . S
C1247 H1270 0.950 . S
C1248 C1247 1.349 . S
C1248 C1260 1.349 . S
C1249 C1247 1.327 . S
C1249 C1265 1.429 . S
C1249 H1271 0.950 . S
C1250 H1246 0.949 . S
C1250 C1258 1.574 . S
C1250 C1266 1.368 . S
H1251 C1259 0.950 . S
H1252 C1257 0.950 . S
H1253 C1258 0.949 . S
H1254 C1260 0.950 . S
H1255 C1261 0.950 . S
H1256 C1262 0.949 . S
C1257 H1252 0.950 . S
C1257 C1259 1.327 . S
C1257 C1263 1.429 . S
C1258 C1250 1.574 . S
C1258 H1253 0.949 . S
C1258 C1264 1.368 . S
C1259 C1243 1.349 . S
C1259 H1251 0.950 . S
C1259 C1257 1.327 . S
C1260 C1248 1.349 . S
C1260 H1254 0.950 . S
C1260 C1261 1.327 . S
C1261 H1255 0.950 . S
C1261 C1260 1.327 . S
C1261 C1265 1.429 . S
C1262 C1245 1.574 . S
C1262 H1256 0.949 . S
C1262 C1266 1.368 . S
C1263 C1244 1.429 . S
C1263 C1257 1.429 . S
C1263 C1264 1.523 . S
C1264 C1245 1.368 . S
C1264 C1258 1.368 . S
C1264 C1263 1.523 . S
C1265 C1249 1.429 . S
C1265 C1261 1.429 . S
C1265 C1266 1.523 . S
C1266 C1250 1.368 . S
C1266 C1262 1.368 . S
C1266 C1265 1.523 . S
H1267 C1242 0.950 . S
H1268 C1244 0.950 . S
H1269 C1245 0.949 . S
H1270 C1247 0.950 . S
H1271 C1249 0.950 . S
C1272 C1273 1.349 . S
C1272 C1274 1.327 . S
C1272 H1297 0.950 . S
C1273 C1272 1.349 . S
C1273 C1289 1.349 . S
C1274 C1272 1.327 . S
C1274 C1293 1.429 . S
C1274 H1298 0.950 . S
C1275 C1292 1.574 . S
C1275 C1294 1.368 . S
C1275 H1299 0.949 . S
H1276 C1280 0.949 . S
C1277 C1278 1.349 . S
C1277 C1279 1.327 . S
C1277 H1300 0.950 . S
C1278 C1277 1.349 . S
C1278 C1290 1.349 . S
C1279 C1277 1.327 . S
C1279 C1295 1.429 . S
C1279 H1301 0.950 . S
C1280 H1276 0.949 . S
C1280 C1288 1.574 . S
C1280 C1296 1.368 . S
H1281 C1289 0.951 . S
H1282 C1287 0.950 . S
H1283 C1288 0.949 . S
H1284 C1290 0.950 . S
H1285 C1291 0.950 . S
H1286 C1292 0.949 . S
C1287 H1282 0.950 . S
C1287 C1289 1.327 . S
C1287 C1293 1.429 . S
C1288 C1280 1.574 . S
C1288 H1283 0.949 . S
C1288 C1294 1.368 . S
C1289 C1273 1.349 . S
C1289 H1281 0.951 . S
C1289 C1287 1.327 . S
C1290 C1278 1.349 . S
C1290 H1284 0.950 . S
C1290 C1291 1.327 . S
C1291 H1285 0.950 . S
C1291 C1290 1.327 . S
C1291 C1295 1.429 . S
C1292 C1275 1.574 . S
C1292 H1286 0.949 . S
C1292 C1296 1.368 . S
C1293 C1274 1.429 . S
C1293 C1287 1.429 . S
C1293 C1294 1.523 . S
C1294 C1275 1.368 . S
C1294 C1288 1.368 . S
C1294 C1293 1.523 . S
C1295 C1279 1.429 . S
C1295 C1291 1.429 . S
C1295 C1296 1.523 . S
C1296 C1280 1.368 . S
C1296 C1292 1.368 . S
C1296 C1295 1.523 . S
H1297 C1272 0.950 . S
H1298 C1274 0.950 . S
H1299 C1275 0.949 . S
H1300 C1277 0.950 . S
H1301 C1279 0.950 . S
C1302 C1303 1.349 . S
C1302 C1304 1.327 . S
C1302 H1327 0.950 . S
C1303 C1302 1.349 . S
C1303 C1319 1.349 . S
C1304 C1302 1.327 . S
C1304 C1323 1.429 . S
C1304 H1328 0.950 . S
C1305 C1322 1.574 . S
C1305 C1324 1.368 . S
C1305 H1329 0.949 . S
H1306 C1310 0.949 . S
C1307 C1308 1.349 . S
C1307 C1309 1.327 . S
C1307 H1330 0.950 . S
C1308 C1307 1.349 . S
C1308 C1320 1.349 . S
C1309 C1307 1.327 . S
C1309 C1325 1.429 . S
C1309 H1331 0.950 . S
C1310 H1306 0.949 . S
C1310 C1318 1.574 . S
C1310 C1326 1.368 . S
H1311 C1319 0.950 . S
H1312 C1317 0.950 . S
H1313 C1318 0.949 . S
H1314 C1320 0.950 . S
H1315 C1321 0.950 . S
H1316 C1322 0.949 . S
C1317 H1312 0.950 . S
C1317 C1319 1.327 . S
C1317 C1323 1.429 . S
C1318 C1310 1.574 . S
C1318 H1313 0.949 . S
C1318 C1324 1.368 . S
C1319 C1303 1.349 . S
C1319 H1311 0.950 . S
C1319 C1317 1.327 . S
C1320 C1308 1.349 . S
C1320 H1314 0.950 . S
C1320 C1321 1.327 . S
C1321 H1315 0.950 . S
C1321 C1320 1.327 . S
C1321 C1325 1.429 . S
C1322 C1305 1.574 . S
C1322 H1316 0.949 . S
C1322 C1326 1.368 . S
C1323 C1304 1.429 . S
C1323 C1317 1.429 . S
C1323 C1324 1.523 . S
C1324 C1305 1.368 . S
C1324 C1318 1.368 . S
C1324 C1323 1.523 . S
C1325 C1309 1.429 . S
C1325 C1321 1.429 . S
C1325 C1326 1.523 . S
C1326 C1310 1.368 . S
C1326 C1322 1.368 . S
C1326 C1325 1.523 . S
H1327 C1302 0.950 . S
H1328 C1304 0.950 . S
H1329 C1305 0.949 . S
H1330 C1307 0.950 . S
H1331 C1309 0.950 . S
C1332 C1333 1.349 . S
C1332 C1334 1.327 . S
C1332 H1357 0.950 . S
C1333 C1332 1.349 . S
C1333 C1349 1.349 . S
C1334 C1332 1.327 . S
C1334 C1353 1.429 . S
C1334 H1358 0.950 . S
C1335 C1352 1.574 . S
C1335 C1354 1.368 . S
C1335 H1359 0.949 . S
H1336 C1340 0.949 . S
C1337 C1338 1.349 . S
C1337 C1339 1.327 . S
C1337 H1360 0.950 . S
C1338 C1337 1.349 . S
C1338 C1350 1.349 . S
C1339 C1337 1.327 . S
C1339 C1355 1.429 . S
C1339 H1361 0.950 . S
C1340 H1336 0.949 . S
C1340 C1348 1.574 . S
C1340 C1356 1.368 . S
H1341 C1349 0.950 . S
H1342 C1347 0.950 . S
H1343 C1348 0.949 . S
H1344 C1350 0.950 . S
H1345 C1351 0.950 . S
H1346 C1352 0.949 . S
C1347 H1342 0.950 . S
C1347 C1349 1.327 . S
C1347 C1353 1.429 . S
C1348 C1340 1.574 . S
C1348 H1343 0.949 . S
C1348 C1354 1.368 . S
C1349 C1333 1.349 . S
C1349 H1341 0.950 . S
C1349 C1347 1.327 . S
C1350 C1338 1.349 . S
C1350 H1344 0.950 . S
C1350 C1351 1.327 . S
C1351 H1345 0.950 . S
C1351 C1350 1.327 . S
C1351 C1355 1.429 . S
C1352 C1335 1.574 . S
C1352 H1346 0.949 . S
C1352 C1356 1.368 . S
C1353 C1334 1.429 . S
C1353 C1347 1.429 . S
C1353 C1354 1.523 . S
C1354 C1335 1.368 . S
C1354 C1348 1.368 . S
C1354 C1353 1.523 . S
C1355 C1339 1.429 . S
C1355 C1351 1.429 . S
C1355 C1356 1.523 . S
C1356 C1340 1.368 . S
C1356 C1352 1.368 . S
C1356 C1355 1.523 . S
H1357 C1332 0.950 . S
H1358 C1334 0.950 . S
H1359 C1335 0.949 . S
H1360 C1337 0.950 . S
H1361 C1339 0.950 . S
C1362 C1363 1.349 . S
C1362 C1364 1.327 . S
C1362 H1387 0.950 . S
C1363 C1362 1.349 . S
C1363 C1379 1.349 . S
C1364 C1362 1.327 . S
C1364 C1383 1.429 . S
C1364 H1388 0.950 . S
C1365 C1382 1.574 . S
C1365 C1384 1.368 . S
C1365 H1389 0.949 . S
H1366 C1370 0.949 . S
C1367 C1368 1.349 . S
C1367 C1369 1.327 . S
C1367 H1390 0.950 . S
C1368 C1367 1.349 . S
C1368 C1380 1.349 . S
C1369 C1367 1.327 . S
C1369 C1385 1.429 . S
C1369 H1391 0.950 . S
C1370 H1366 0.949 . S
C1370 C1378 1.574 . S
C1370 C1386 1.368 . S
H1371 C1379 0.950 . S
H1372 C1377 0.950 . S
H1373 C1378 0.949 . S
H1374 C1380 0.950 . S
H1375 C1381 0.950 . S
H1376 C1382 0.949 . S
C1377 H1372 0.950 . S
C1377 C1379 1.327 . S
C1377 C1383 1.429 . S
C1378 C1370 1.574 . S
C1378 H1373 0.949 . S
C1378 C1384 1.368 . S
C1379 C1363 1.349 . S
C1379 H1371 0.950 . S
C1379 C1377 1.327 . S
C1380 C1368 1.349 . S
C1380 H1374 0.950 . S
C1380 C1381 1.327 . S
C1381 H1375 0.950 . S
C1381 C1380 1.327 . S
C1381 C1385 1.429 . S
C1382 C1365 1.574 . S
C1382 H1376 0.949 . S
C1382 C1386 1.368 . S
C1383 C1364 1.429 . S
C1383 C1377 1.429 . S
C1383 C1384 1.523 . S
C1384 C1365 1.368 . S
C1384 C1378 1.368 . S
C1384 C1383 1.523 . S
C1385 C1369 1.429 . S
C1385 C1381 1.429 . S
C1385 C1386 1.523 . S
C1386 C1370 1.368 . S
C1386 C1382 1.368 . S
C1386 C1385 1.523 . S
H1387 C1362 0.950 . S
H1388 C1364 0.950 . S
H1389 C1365 0.949 . S
H1390 C1367 0.950 . S
H1391 C1369 0.950 . S
C1392 C1393 1.349 . S
C1392 C1394 1.327 . S
C1392 H1417 0.950 . S
C1393 C1392 1.349 . S
C1393 C1409 1.349 . S
C1394 C1392 1.327 . S
C1394 C1413 1.429 . S
C1394 H1418 0.950 . S
C1395 C1412 1.574 . S
C1395 C1414 1.368 . S
C1395 H1419 0.949 . S
H1396 C1400 0.949 . S
C1397 C1398 1.349 . S
C1397 C1399 1.327 . S
C1397 H1420 0.950 . S
C1398 C1397 1.349 . S
C1398 C1410 1.349 . S
C1399 C1397 1.327 . S
C1399 C1415 1.429 . S
C1399 H1421 0.950 . S
C1400 H1396 0.949 . S
C1400 C1408 1.574 . S
C1400 C1416 1.368 . S
H1401 C1409 0.950 . S
H1402 C1407 0.950 . S
H1403 C1408 0.949 . S
H1404 C1410 0.950 1_565 S
H1405 C1411 0.950 . S
H1406 C1412 0.949 . S
C1407 H1402 0.950 . S
C1407 C1409 1.327 . S
C1407 C1413 1.429 . S
C1408 C1400 1.574 . S
C1408 H1403 0.949 . S
C1408 C1414 1.368 . S
C1409 C1393 1.349 . S
C1409 H1401 0.950 . S
C1409 C1407 1.327 . S
C1410 C1398 1.349 . S
C1410 H1404 0.950 1_545 S
C1410 C1411 1.327 . S
C1411 H1405 0.950 . S
C1411 C1410 1.327 . S
C1411 C1415 1.429 . S
C1412 C1395 1.574 . S
C1412 H1406 0.949 . S
C1412 C1416 1.368 . S
C1413 C1394 1.429 . S
C1413 C1407 1.429 . S
C1413 C1414 1.523 . S
C1414 C1395 1.368 . S
C1414 C1408 1.368 . S
C1414 C1413 1.523 . S
C1415 C1399 1.429 . S
C1415 C1411 1.429 . S
C1415 C1416 1.523 . S
C1416 C1400 1.368 . S
C1416 C1412 1.368 . S
C1416 C1415 1.523 . S
H1417 C1392 0.950 . S
H1418 C1394 0.950 . S
H1419 C1395 0.949 . S
H1420 C1397 0.950 . S
H1421 C1399 0.950 . S
C1422 C1423 1.349 . S
C1422 C1424 1.327 . S
C1422 H1447 0.950 . S
C1423 C1422 1.349 . S
C1423 C1439 1.349 . S
C1424 C1422 1.327 . S
C1424 C1443 1.429 . S
C1424 H1448 0.950 . S
C1425 C1442 1.574 . S
C1425 C1444 1.368 . S
C1425 H1449 0.949 . S
H1426 C1430 0.949 . S
C1427 C1428 1.349 . S
C1427 C1429 1.327 . S
C1427 H1450 0.950 . S
C1428 C1427 1.349 . S
C1428 C1440 1.349 . S
C1429 C1427 1.327 . S
C1429 C1445 1.429 . S
C1429 H1451 0.950 . S
C1430 H1426 0.949 . S
C1430 C1438 1.574 . S
C1430 C1446 1.368 . S
H1431 C1439 0.950 . S
H1432 C1437 0.950 . S
H1433 C1438 0.949 . S
H1434 C1440 0.950 . S
H1435 C1441 0.950 . S
H1436 C1442 0.949 . S
C1437 H1432 0.950 . S
C1437 C1439 1.327 . S
C1437 C1443 1.429 . S
C1438 C1430 1.574 . S
C1438 H1433 0.949 . S
C1438 C1444 1.368 . S
C1439 C1423 1.349 . S
C1439 H1431 0.950 . S
C1439 C1437 1.327 . S
C1440 C1428 1.349 . S
C1440 H1434 0.950 . S
C1440 C1441 1.327 . S
C1441 H1435 0.950 . S
C1441 C1440 1.327 . S
C1441 C1445 1.429 . S
C1442 C1425 1.574 . S
C1442 H1436 0.949 . S
C1442 C1446 1.368 . S
C1443 C1424 1.429 . S
C1443 C1437 1.429 . S
C1443 C1444 1.523 . S
C1444 C1425 1.368 . S
C1444 C1438 1.368 . S
C1444 C1443 1.523 . S
C1445 C1429 1.429 . S
C1445 C1441 1.429 . S
C1445 C1446 1.523 . S
C1446 C1430 1.368 . S
C1446 C1442 1.368 . S
C1446 C1445 1.523 . S
H1447 C1422 0.950 . S
H1448 C1424 0.950 . S
H1449 C1425 0.949 . S
H1450 C1427 0.950 . S
H1451 C1429 0.950 . S
C1452 C1453 1.349 . S
C1452 C1454 1.327 . S
C1452 H1477 0.950 . S
C1453 C1452 1.349 . S
C1453 C1469 1.349 . S
C1454 C1452 1.327 . S
C1454 C1473 1.429 . S
C1454 H1478 0.950 . S
C1455 C1472 1.574 . S
C1455 C1474 1.368 . S
C1455 H1479 0.949 . S
H1456 C1460 0.949 . S
C1457 C1458 1.349 . S
C1457 C1459 1.327 . S
C1457 H1480 0.950 1_565 S
C1458 C1457 1.349 . S
C1458 C1470 1.349 . S
C1459 C1457 1.327 . S
C1459 C1475 1.429 . S
C1459 H1481 0.950 . S
C1460 H1456 0.949 . S
C1460 C1468 1.574 . S
C1460 C1476 1.368 . S
H1461 C1469 0.950 . S
H1462 C1467 0.950 . S
H1463 C1468 0.949 . S
H1464 C1470 0.950 . S
H1465 C1471 0.950 . S
H1466 C1472 0.949 . S
C1467 H1462 0.950 . S
C1467 C1469 1.327 . S
C1467 C1473 1.429 . S
C1468 C1460 1.574 . S
C1468 H1463 0.949 . S
C1468 C1474 1.368 . S
C1469 C1453 1.349 . S
C1469 H1461 0.950 . S
C1469 C1467 1.327 . S
C1470 C1458 1.349 . S
C1470 H1464 0.950 . S
C1470 C1471 1.327 . S
C1471 H1465 0.950 . S
C1471 C1470 1.327 . S
C1471 C1475 1.429 . S
C1472 C1455 1.574 . S
C1472 H1466 0.949 . S
C1472 C1476 1.368 . S
C1473 C1454 1.429 . S
C1473 C1467 1.429 . S
C1473 C1474 1.523 . S
C1474 C1455 1.368 . S
C1474 C1468 1.368 . S
C1474 C1473 1.523 . S
C1475 C1459 1.429 . S
C1475 C1471 1.429 . S
C1475 C1476 1.523 . S
C1476 C1460 1.368 . S
C1476 C1472 1.368 . S
C1476 C1475 1.523 . S
H1477 C1452 0.950 . S
H1478 C1454 0.950 . S
H1479 C1455 0.949 . S
H1480 C1457 0.950 1_545 S
H1481 C1459 0.950 . S
C1482 C1483 1.349 . S
C1482 C1484 1.327 . S
C1482 H1507 0.950 . S
C1483 C1482 1.349 . S
C1483 C1499 1.349 . S
C1484 C1482 1.327 . S
C1484 C1503 1.429 . S
C1484 H1508 0.950 . S
C1485 C1502 1.574 . S
C1485 C1504 1.368 . S
C1485 H1509 0.949 . S
H1486 C1490 0.949 . S
C1487 C1488 1.349 . S
C1487 C1489 1.327 . S
C1487 H1510 0.950 . S
C1488 C1487 1.349 . S
C1488 C1500 1.349 . S
C1489 C1487 1.327 . S
C1489 C1505 1.429 . S
C1489 H1511 0.950 . S
C1490 H1486 0.949 . S
C1490 C1498 1.574 . S
C1490 C1506 1.368 . S
H1491 C1499 0.950 . S
H1492 C1497 0.950 . S
H1493 C1498 0.949 . S
H1494 C1500 0.950 . S
H1495 C1501 0.950 . S
H1496 C1502 0.949 . S
C1497 H1492 0.950 . S
C1497 C1499 1.327 . S
C1497 C1503 1.429 . S
C1498 C1490 1.574 . S
C1498 H1493 0.949 . S
C1498 C1504 1.368 . S
C1499 C1483 1.349 . S
C1499 H1491 0.950 . S
C1499 C1497 1.327 . S
C1500 C1488 1.349 . S
C1500 H1494 0.950 . S
C1500 C1501 1.327 . S
C1501 H1495 0.950 . S
C1501 C1500 1.327 . S
C1501 C1505 1.429 . S
C1502 C1485 1.574 . S
C1502 H1496 0.949 . S
C1502 C1506 1.368 . S
C1503 C1484 1.429 . S
C1503 C1497 1.429 . S
C1503 C1504 1.523 . S
C1504 C1485 1.368 . S
C1504 C1498 1.368 . S
C1504 C1503 1.523 . S
C1505 C1489 1.429 . S
C1505 C1501 1.429 . S
C1505 C1506 1.523 . S
C1506 C1490 1.368 . S
C1506 C1502 1.368 . S
C1506 C1505 1.523 . S
H1507 C1482 0.950 . S
H1508 C1484 0.950 . S
H1509 C1485 0.949 . S
H1510 C1487 0.950 . S
H1511 C1489 0.950 . S
C1512 C1513 1.349 . S
C1512 C1514 1.327 . S
C1512 H1537 0.950 . S
C1513 C1512 1.349 . S
C1513 C1529 1.349 . S
C1514 C1512 1.327 . S
C1514 C1533 1.429 . S
C1514 H1538 0.950 . S
C1515 C1532 1.574 . S
C1515 C1534 1.368 . S
C1515 H1539 0.949 . S
H1516 C1520 0.949 . S
C1517 C1518 1.349 . S
C1517 C1519 1.327 . S
C1517 H1540 0.950 . S
C1518 C1517 1.349 . S
C1518 C1530 1.349 . S
C1519 C1517 1.327 . S
C1519 C1535 1.429 . S
C1519 H1541 0.950 . S
C1520 H1516 0.949 . S
C1520 C1528 1.574 . S
C1520 C1536 1.368 . S
H1521 C1529 0.950 . S
H1522 C1527 0.950 . S
H1523 C1528 0.949 . S
H1524 C1530 0.950 . S
H1525 C1531 0.950 . S
H1526 C1532 0.949 . S
C1527 H1522 0.950 . S
C1527 C1529 1.327 . S
C1527 C1533 1.429 . S
C1528 C1520 1.574 . S
C1528 H1523 0.949 . S
C1528 C1534 1.368 . S
C1529 C1513 1.349 . S
C1529 H1521 0.950 . S
C1529 C1527 1.327 . S
C1530 C1518 1.349 . S
C1530 H1524 0.950 . S
C1530 C1531 1.327 . S
C1531 H1525 0.950 . S
C1531 C1530 1.327 . S
C1531 C1535 1.429 . S
C1532 C1515 1.574 . S
C1532 H1526 0.949 . S
C1532 C1536 1.368 . S
C1533 C1514 1.429 . S
C1533 C1527 1.429 . S
C1533 C1534 1.523 . S
C1534 C1515 1.368 . S
C1534 C1528 1.368 . S
C1534 C1533 1.523 . S
C1535 C1519 1.429 . S
C1535 C1531 1.429 . S
C1535 C1536 1.523 . S
C1536 C1520 1.368 . S
C1536 C1532 1.368 . S
C1536 C1535 1.523 . S
H1537 C1512 0.950 . S
H1538 C1514 0.950 . S
H1539 C1515 0.949 . S
H1540 C1517 0.950 . S
H1541 C1519 0.950 . S
C1542 C1543 1.349 . S
C1542 C1544 1.327 . S
C1542 H1567 0.950 . S
C1543 C1542 1.349 . S
C1543 C1559 1.349 . S
C1544 C1542 1.327 . S
C1544 C1563 1.429 . S
C1544 H1568 0.950 . S
C1545 C1562 1.574 . S
C1545 C1564 1.368 . S
C1545 H1569 0.949 . S
H1546 C1550 0.949 . S
C1547 C1548 1.349 . S
C1547 C1549 1.327 . S
C1547 H1570 0.950 . S
C1548 C1547 1.349 . S
C1548 C1560 1.349 . S
C1549 C1547 1.327 . S
C1549 C1565 1.429 . S
C1549 H1571 0.950 . S
C1550 H1546 0.949 . S
C1550 C1558 1.574 . S
C1550 C1566 1.368 . S
H1551 C1559 0.950 . S
H1552 C1557 0.950 . S
H1553 C1558 0.949 . S
H1554 C1560 0.950 . S
H1555 C1561 0.950 . S
H1556 C1562 0.949 . S
C1557 H1552 0.950 . S
C1557 C1559 1.327 . S
C1557 C1563 1.429 . S
C1558 C1550 1.574 . S
C1558 H1553 0.949 . S
C1558 C1564 1.368 . S
C1559 C1543 1.349 . S
C1559 H1551 0.950 . S
C1559 C1557 1.327 . S
C1560 C1548 1.349 . S
C1560 H1554 0.950 . S
C1560 C1561 1.327 . S
C1561 H1555 0.950 . S
C1561 C1560 1.327 . S
C1561 C1565 1.429 . S
C1562 C1545 1.574 . S
C1562 H1556 0.949 . S
C1562 C1566 1.368 . S
C1563 C1544 1.429 . S
C1563 C1557 1.429 . S
C1563 C1564 1.523 . S
C1564 C1545 1.368 . S
C1564 C1558 1.368 . S
C1564 C1563 1.523 . S
C1565 C1549 1.429 . S
C1565 C1561 1.429 . S
C1565 C1566 1.523 . S
C1566 C1550 1.368 . S
C1566 C1562 1.368 . S
C1566 C1565 1.523 . S
H1567 C1542 0.950 . S
H1568 C1544 0.950 . S
H1569 C1545 0.949 . S
H1570 C1547 0.950 . S
H1571 C1549 0.950 . S
C1572 C1573 1.349 . S
C1572 C1574 1.327 . S
C1572 H1597 0.950 . S
C1573 C1572 1.349 . S
C1573 C1589 1.349 . S
C1574 C1572 1.327 . S
C1574 C1593 1.429 . S
C1574 H1598 0.950 . S
C1575 C1592 1.574 . S
C1575 C1594 1.368 . S
C1575 H1599 0.949 . S
H1576 C1580 0.949 . S
C1577 C1578 1.349 . S
C1577 C1579 1.327 . S
C1577 H1600 0.950 . S
C1578 C1577 1.349 . S
C1578 C1590 1.349 . S
C1579 C1577 1.327 . S
C1579 C1595 1.429 . S
C1579 H1601 0.950 . S
C1580 H1576 0.949 . S
C1580 C1588 1.574 . S
C1580 C1596 1.368 . S
H1581 C1589 0.950 . S
H1582 C1587 0.950 . S
H1583 C1588 0.949 . S
H1584 C1590 0.950 . S
H1585 C1591 0.950 . S
H1586 C1592 0.949 . S
C1587 H1582 0.950 . S
C1587 C1589 1.327 . S
C1587 C1593 1.429 . S
C1588 C1580 1.574 . S
C1588 H1583 0.949 . S
C1588 C1594 1.368 . S
C1589 C1573 1.349 . S
C1589 H1581 0.950 . S
C1589 C1587 1.327 . S
C1590 C1578 1.349 . S
C1590 H1584 0.950 . S
C1590 C1591 1.327 . S
C1591 H1585 0.950 . S
C1591 C1590 1.327 . S
C1591 C1595 1.429 . S
C1592 C1575 1.574 . S
C1592 H1586 0.949 . S
C1592 C1596 1.368 . S
C1593 C1574 1.429 . S
C1593 C1587 1.429 . S
C1593 C1594 1.523 . S
C1594 C1575 1.368 . S
C1594 C1588 1.368 . S
C1594 C1593 1.523 . S
C1595 C1579 1.429 . S
C1595 C1591 1.429 . S
C1595 C1596 1.523 . S
C1596 C1580 1.368 . S
C1596 C1592 1.368 . S
C1596 C1595 1.523 . S
H1597 C1572 0.950 . S
H1598 C1574 0.950 . S
H1599 C1575 0.949 . S
H1600 C1577 0.950 . S
H1601 C1579 0.950 . S
C1602 C1603 1.349 . S
C1602 C1604 1.327 . S
C1602 H1627 0.950 . S
C1603 C1602 1.349 . S
C1603 C1619 1.349 . S
C1604 C1602 1.327 . S
C1604 C1623 1.429 . S
C1604 H1628 0.950 . S
C1605 C1622 1.574 . S
C1605 C1624 1.368 . S
C1605 H1629 0.949 . S
H1606 C1610 0.949 . S
C1607 C1608 1.349 . S
C1607 C1609 1.327 . S
C1607 H1630 0.950 . S
C1608 C1607 1.349 . S
C1608 C1620 1.349 . S
C1609 C1607 1.327 . S
C1609 C1625 1.429 . S
C1609 H1631 0.950 . S
C1610 H1606 0.949 . S
C1610 C1618 1.574 . S
C1610 C1626 1.368 . S
H1611 C1619 0.950 . S
H1612 C1617 0.950 . S
H1613 C1618 0.949 . S
H1614 C1620 0.950 . S
H1615 C1621 0.950 . S
H1616 C1622 0.949 . S
C1617 H1612 0.950 . S
C1617 C1619 1.327 . S
C1617 C1623 1.429 . S
C1618 C1610 1.574 . S
C1618 H1613 0.949 . S
C1618 C1624 1.368 . S
C1619 C1603 1.349 . S
C1619 H1611 0.950 . S
C1619 C1617 1.327 . S
C1620 C1608 1.349 . S
C1620 H1614 0.950 . S
C1620 C1621 1.327 . S
C1621 H1615 0.950 . S
C1621 C1620 1.327 . S
C1621 C1625 1.429 . S
C1622 C1605 1.574 . S
C1622 H1616 0.949 . S
C1622 C1626 1.368 . S
C1623 C1604 1.429 . S
C1623 C1617 1.429 . S
C1623 C1624 1.523 . S
C1624 C1605 1.368 . S
C1624 C1618 1.368 . S
C1624 C1623 1.523 . S
C1625 C1609 1.429 . S
C1625 C1621 1.429 . S
C1625 C1626 1.523 . S
C1626 C1610 1.368 . S
C1626 C1622 1.368 . S
C1626 C1625 1.523 . S
H1627 C1602 0.950 . S
H1628 C1604 0.950 . S
H1629 C1605 0.949 . S
H1630 C1607 0.950 . S
H1631 C1609 0.950 . S
C1632 C1633 1.349 . S
C1632 C1634 1.327 . S
C1632 H1657 0.950 . S
C1633 C1632 1.349 . S
C1633 C1649 1.349 . S
C1634 C1632 1.327 . S
C1634 C1653 1.429 . S
C1634 H1658 0.950 . S
C1635 C1652 1.574 . S
C1635 C1654 1.368 . S
C1635 H1659 0.949 . S
H1636 C1640 0.949 . S
C1637 C1638 1.349 . S
C1637 C1639 1.327 . S
C1637 H1660 0.950 . S
C1638 C1637 1.349 . S
C1638 C1650 1.349 . S
C1639 C1637 1.327 . S
C1639 C1655 1.429 . S
C1639 H1661 0.950 . S
C1640 H1636 0.949 . S
C1640 C1648 1.574 . S
C1640 C1656 1.368 . S
H1641 C1649 0.950 . S
H1642 C1647 0.950 . S
H1643 C1648 0.949 . S
H1644 C1650 0.950 . S
H1645 C1651 0.950 . S
H1646 C1652 0.949 . S
C1647 H1642 0.950 . S
C1647 C1649 1.327 . S
C1647 C1653 1.429 . S
C1648 C1640 1.574 . S
C1648 H1643 0.949 . S
C1648 C1654 1.368 . S
C1649 C1633 1.349 . S
C1649 H1641 0.950 . S
C1649 C1647 1.327 . S
C1650 C1638 1.349 . S
C1650 H1644 0.950 . S
C1650 C1651 1.327 . S
C1651 H1645 0.950 . S
C1651 C1650 1.327 . S
C1651 C1655 1.429 . S
C1652 C1635 1.574 . S
C1652 H1646 0.949 . S
C1652 C1656 1.368 . S
C1653 C1634 1.429 . S
C1653 C1647 1.429 . S
C1653 C1654 1.523 . S
C1654 C1635 1.368 . S
C1654 C1648 1.368 . S
C1654 C1653 1.523 . S
C1655 C1639 1.429 . S
C1655 C1651 1.429 . S
C1655 C1656 1.523 . S
C1656 C1640 1.368 . S
C1656 C1652 1.368 . S
C1656 C1655 1.523 . S
H1657 C1632 0.950 . S
H1658 C1634 0.950 . S
H1659 C1635 0.949 . S
H1660 C1637 0.950 . S
H1661 C1639 0.950 . S
C1662 C1663 1.349 . S
C1662 C1664 1.327 . S
C1662 H1687 0.950 . S
C1663 C1662 1.349 . S
C1663 C1679 1.349 . S
C1664 C1662 1.327 . S
C1664 C1683 1.429 . S
C1664 H1688 0.950 . S
C1665 C1682 1.574 . S
C1665 C1684 1.368 . S
C1665 H1689 0.949 . S
H1666 C1670 0.949 . S
C1667 C1668 1.349 . S
C1667 C1669 1.327 . S
C1667 H1690 0.950 . S
C1668 C1667 1.349 . S
C1668 C1680 1.349 . S
C1669 C1667 1.327 . S
C1669 C1685 1.429 . S
C1669 H1691 0.950 . S
C1670 H1666 0.949 . S
C1670 C1678 1.574 . S
C1670 C1686 1.368 . S
H1671 C1679 0.950 . S
H1672 C1677 0.950 . S
H1673 C1678 0.949 . S
H1674 C1680 0.950 . S
H1675 C1681 0.950 . S
H1676 C1682 0.949 . S
C1677 H1672 0.950 . S
C1677 C1679 1.327 . S
C1677 C1683 1.429 . S
C1678 C1670 1.574 . S
C1678 H1673 0.949 . S
C1678 C1684 1.368 . S
C1679 C1663 1.349 . S
C1679 H1671 0.950 . S
C1679 C1677 1.327 . S
C1680 C1668 1.349 . S
C1680 H1674 0.950 . S
C1680 C1681 1.327 . S
C1681 H1675 0.950 . S
C1681 C1680 1.327 . S
C1681 C1685 1.429 . S
C1682 C1665 1.574 . S
C1682 H1676 0.949 . S
C1682 C1686 1.368 . S
C1683 C1664 1.429 . S
C1683 C1677 1.429 . S
C1683 C1684 1.523 . S
C1684 C1665 1.368 . S
C1684 C1678 1.368 . S
C1684 C1683 1.523 . S
C1685 C1669 1.429 . S
C1685 C1681 1.429 . S
C1685 C1686 1.523 . S
C1686 C1670 1.368 . S
C1686 C1682 1.368 . S
C1686 C1685 1.523 . S
H1687 C1662 0.950 . S
H1688 C1664 0.950 . S
H1689 C1665 0.949 . S
H1690 C1667 0.950 . S
H1691 C1669 0.950 . S
C1692 C1693 1.349 . S
C1692 C1694 1.327 . S
C1692 H1717 0.950 . S
C1693 C1692 1.349 . S
C1693 C1709 1.349 . S
C1694 C1692 1.327 . S
C1694 C1713 1.429 . S
C1694 H1718 0.950 . S
C1695 C1712 1.574 . S
C1695 C1714 1.368 . S
C1695 H1719 0.949 . S
H1696 C1700 0.949 . S
C1697 C1698 1.349 . S
C1697 C1699 1.327 . S
C1697 H1720 0.950 . S
C1698 C1697 1.349 . S
C1698 C1710 1.349 . S
C1699 C1697 1.327 . S
C1699 C1715 1.429 . S
C1699 H1721 0.950 . S
C1700 H1696 0.949 . S
C1700 C1708 1.574 . S
C1700 C1716 1.368 . S
H1701 C1709 0.950 . S
H1702 C1707 0.950 . S
H1703 C1708 0.949 . S
H1704 C1710 0.950 . S
H1705 C1711 0.950 . S
H1706 C1712 0.949 . S
C1707 H1702 0.950 . S
C1707 C1709 1.327 . S
C1707 C1713 1.429 . S
C1708 C1700 1.574 . S
C1708 H1703 0.949 . S
C1708 C1714 1.368 . S
C1709 C1693 1.349 . S
C1709 H1701 0.950 . S
C1709 C1707 1.327 . S
C1710 C1698 1.349 . S
C1710 H1704 0.950 . S
C1710 C1711 1.327 . S
C1711 H1705 0.950 . S
C1711 C1710 1.327 . S
C1711 C1715 1.429 . S
C1712 C1695 1.574 . S
C1712 H1706 0.949 . S
C1712 C1716 1.368 . S
C1713 C1694 1.429 . S
C1713 C1707 1.429 . S
C1713 C1714 1.523 . S
C1714 C1695 1.368 . S
C1714 C1708 1.368 . S
C1714 C1713 1.523 . S
C1715 C1699 1.429 . S
C1715 C1711 1.429 . S
C1715 C1716 1.523 . S
C1716 C1700 1.368 . S
C1716 C1712 1.368 . S
C1716 C1715 1.523 . S
H1717 C1692 0.950 . S
H1718 C1694 0.950 . S
H1719 C1695 0.949 . S
H1720 C1697 0.950 . S
H1721 C1699 0.950 . S
C1722 C1723 1.349 . S
C1722 C1724 1.327 . S
C1722 H1747 0.950 . S
C1723 C1722 1.349 . S
C1723 C1739 1.349 . S
C1724 C1722 1.327 . S
C1724 C1743 1.429 . S
C1724 H1748 0.950 . S
C1725 C1742 1.574 . S
C1725 C1744 1.368 . S
C1725 H1749 0.949 . S
H1726 C1730 0.949 . S
C1727 C1728 1.349 . S
C1727 C1729 1.327 . S
C1727 H1750 0.950 . S
C1728 C1727 1.349 . S
C1728 C1740 1.349 . S
C1729 C1727 1.327 . S
C1729 C1745 1.429 . S
C1729 H1751 0.950 . S
C1730 H1726 0.949 . S
C1730 C1738 1.574 . S
C1730 C1746 1.368 . S
H1731 C1739 0.950 . S
H1732 C1737 0.950 . S
H1733 C1738 0.949 . S
H1734 C1740 0.950 . S
H1735 C1741 0.950 . S
H1736 C1742 0.949 . S
C1737 H1732 0.950 . S
C1737 C1739 1.327 . S
C1737 C1743 1.429 . S
C1738 C1730 1.574 . S
C1738 H1733 0.949 . S
C1738 C1744 1.368 . S
C1739 C1723 1.349 . S
C1739 H1731 0.950 . S
C1739 C1737 1.327 . S
C1740 C1728 1.349 . S
C1740 H1734 0.950 . S
C1740 C1741 1.327 . S
C1741 H1735 0.950 . S
C1741 C1740 1.327 . S
C1741 C1745 1.429 . S
C1742 C1725 1.574 . S
C1742 H1736 0.949 . S
C1742 C1746 1.368 . S
C1743 C1724 1.429 . S
C1743 C1737 1.429 . S
C1743 C1744 1.523 . S
C1744 C1725 1.368 . S
C1744 C1738 1.368 . S
C1744 C1743 1.523 . S
C1745 C1729 1.429 . S
C1745 C1741 1.429 . S
C1745 C1746 1.523 . S
C1746 C1730 1.368 . S
C1746 C1742 1.368 . S
C1746 C1745 1.523 . S
H1747 C1722 0.950 . S
H1748 C1724 0.950 . S
H1749 C1725 0.949 . S
H1750 C1727 0.950 . S
H1751 C1729 0.950 . S
C1752 C1753 1.349 . S
C1752 C1754 1.327 . S
C1752 H1777 0.950 . S
C1753 C1752 1.349 . S
C1753 C1769 1.349 . S
C1754 C1752 1.327 . S
C1754 C1773 1.429 . S
C1754 H1778 0.950 . S
C1755 C1772 1.574 . S
C1755 C1774 1.368 . S
C1755 H1779 0.949 . S
H1756 C1760 0.949 . S
C1757 C1758 1.349 . S
C1757 C1759 1.327 . S
C1757 H1780 0.950 . S
C1758 C1757 1.349 . S
C1758 C1770 1.349 . S
C1759 C1757 1.327 . S
C1759 C1775 1.429 . S
C1759 H1781 0.950 . S
C1760 H1756 0.949 . S
C1760 C1768 1.574 . S
C1760 C1776 1.368 . S
H1761 C1769 0.950 . S
H1762 C1767 0.950 . S
H1763 C1768 0.949 . S
H1764 C1770 0.950 . S
H1765 C1771 0.950 . S
H1766 C1772 0.949 . S
C1767 H1762 0.950 . S
C1767 C1769 1.327 . S
C1767 C1773 1.429 . S
C1768 C1760 1.574 . S
C1768 H1763 0.949 . S
C1768 C1774 1.368 . S
C1769 C1753 1.349 . S
C1769 H1761 0.950 . S
C1769 C1767 1.327 . S
C1770 C1758 1.349 . S
C1770 H1764 0.950 . S
C1770 C1771 1.327 . S
C1771 H1765 0.950 . S
C1771 C1770 1.327 . S
C1771 C1775 1.429 . S
C1772 C1755 1.574 . S
C1772 H1766 0.949 . S
C1772 C1776 1.368 . S
C1773 C1754 1.429 . S
C1773 C1767 1.429 . S
C1773 C1774 1.523 . S
C1774 C1755 1.368 . S
C1774 C1768 1.368 . S
C1774 C1773 1.523 . S
C1775 C1759 1.429 . S
C1775 C1771 1.429 . S
C1775 C1776 1.523 . S
C1776 C1760 1.368 . S
C1776 C1772 1.368 . S
C1776 C1775 1.523 . S
H1777 C1752 0.950 . S
H1778 C1754 0.950 . S
H1779 C1755 0.949 . S
H1780 C1757 0.950 . S
H1781 C1759 0.950 . S
C1782 C1783 1.349 . S
C1782 C1784 1.327 . S
C1782 H1807 0.950 . S
C1783 C1782 1.349 . S
C1783 C1799 1.349 . S
C1784 C1782 1.327 . S
C1784 C1803 1.429 . S
C1784 H1808 0.950 . S
C1785 C1802 1.574 . S
C1785 C1804 1.368 . S
C1785 H1809 0.949 . S
H1786 C1790 0.949 . S
C1787 C1788 1.349 . S
C1787 C1789 1.327 . S
C1787 H1810 0.950 . S
C1788 C1787 1.349 . S
C1788 C1800 1.349 . S
C1789 C1787 1.327 . S
C1789 C1805 1.429 . S
C1789 H1811 0.950 . S
C1790 H1786 0.949 . S
C1790 C1798 1.574 . S
C1790 C1806 1.368 . S
H1791 C1799 0.950 . S
H1792 C1797 0.950 . S
H1793 C1798 0.949 . S
H1794 C1800 0.950 . S
H1795 C1801 0.950 . S
H1796 C1802 0.949 . S
C1797 H1792 0.950 . S
C1797 C1799 1.327 . S
C1797 C1803 1.429 . S
C1798 C1790 1.574 . S
C1798 H1793 0.949 . S
C1798 C1804 1.368 . S
C1799 C1783 1.349 . S
C1799 H1791 0.950 . S
C1799 C1797 1.327 . S
C1800 C1788 1.349 . S
C1800 H1794 0.950 . S
C1800 C1801 1.327 . S
C1801 H1795 0.950 . S
C1801 C1800 1.327 . S
C1801 C1805 1.429 . S
C1802 C1785 1.574 . S
C1802 H1796 0.949 . S
C1802 C1806 1.368 . S
C1803 C1784 1.429 . S
C1803 C1797 1.429 . S
C1803 C1804 1.523 . S
C1804 C1785 1.368 . S
C1804 C1798 1.368 . S
C1804 C1803 1.523 . S
C1805 C1789 1.429 . S
C1805 C1801 1.429 . S
C1805 C1806 1.523 . S
C1806 C1790 1.368 . S
C1806 C1802 1.368 . S
C1806 C1805 1.523 . S
H1807 C1782 0.950 . S
H1808 C1784 0.950 . S
H1809 C1785 0.949 . S
H1810 C1787 0.950 . S
H1811 C1789 0.950 . S
C1812 C1813 1.349 . S
C1812 C1814 1.327 . S
C1812 H1837 0.950 . S
C1813 C1812 1.349 . S
C1813 C1829 1.349 . S
C1814 C1812 1.327 . S
C1814 C1833 1.429 . S
C1814 H1838 0.950 . S
C1815 C1832 1.574 . S
C1815 C1834 1.368 . S
C1815 H1839 0.949 . S
H1816 C1820 0.949 . S
C1817 C1818 1.349 . S
C1817 C1819 1.327 . S
C1817 H1840 0.950 . S
C1818 C1817 1.349 . S
C1818 C1830 1.349 . S
C1819 C1817 1.327 . S
C1819 C1835 1.429 . S
C1819 H1841 0.950 . S
C1820 H1816 0.949 . S
C1820 C1828 1.574 . S
C1820 C1836 1.368 . S
H1821 C1829 0.950 . S
H1822 C1827 0.950 . S
H1823 C1828 0.949 . S
H1824 C1830 0.950 . S
H1825 C1831 0.950 . S
H1826 C1832 0.949 . S
C1827 H1822 0.950 . S
C1827 C1829 1.327 . S
C1827 C1833 1.429 . S
C1828 C1820 1.574 . S
C1828 H1823 0.949 . S
C1828 C1834 1.368 . S
C1829 C1813 1.349 . S
C1829 H1821 0.950 . S
C1829 C1827 1.327 . S
C1830 C1818 1.349 . S
C1830 H1824 0.950 . S
C1830 C1831 1.327 . S
C1831 H1825 0.950 . S
C1831 C1830 1.327 . S
C1831 C1835 1.429 . S
C1832 C1815 1.574 . S
C1832 H1826 0.949 . S
C1832 C1836 1.368 . S
C1833 C1814 1.429 . S
C1833 C1827 1.429 . S
C1833 C1834 1.523 . S
C1834 C1815 1.368 . S
C1834 C1828 1.368 . S
C1834 C1833 1.523 . S
C1835 C1819 1.429 . S
C1835 C1831 1.429 . S
C1835 C1836 1.523 . S
C1836 C1820 1.368 . S
C1836 C1832 1.368 . S
C1836 C1835 1.523 . S
H1837 C1812 0.950 . S
H1838 C1814 0.950 . S
H1839 C1815 0.949 . S
H1840 C1817 0.950 . S
H1841 C1819 0.950 . S
C1842 C1843 1.349 . S
C1842 C1844 1.327 . S
C1842 H1867 0.950 . S
C1843 C1842 1.349 . S
C1843 C1859 1.349 . S
C1844 C1842 1.327 . S
C1844 C1863 1.429 . S
C1844 H1868 0.950 . S
C1845 C1862 1.574 . S
C1845 C1864 1.368 . S
C1845 H1869 0.949 . S
H1846 C1850 0.949 . S
C1847 C1848 1.349 . S
C1847 C1849 1.327 . S
C1847 H1870 0.950 . S
C1848 C1847 1.349 . S
C1848 C1860 1.349 . S
C1849 C1847 1.327 . S
C1849 C1865 1.429 . S
C1849 H1871 0.950 . S
C1850 H1846 0.949 . S
C1850 C1858 1.574 . S
C1850 C1866 1.368 . S
H1851 C1859 0.950 . S
H1852 C1857 0.950 . S
H1853 C1858 0.949 . S
H1854 C1860 0.950 . S
H1855 C1861 0.950 . S
H1856 C1862 0.949 . S
C1857 H1852 0.950 . S
C1857 C1859 1.327 . S
C1857 C1863 1.429 . S
C1858 C1850 1.574 . S
C1858 H1853 0.949 . S
C1858 C1864 1.368 . S
C1859 C1843 1.349 . S
C1859 H1851 0.950 . S
C1859 C1857 1.327 . S
C1860 C1848 1.349 . S
C1860 H1854 0.950 . S
C1860 C1861 1.327 . S
C1861 H1855 0.950 . S
C1861 C1860 1.327 . S
C1861 C1865 1.429 . S
C1862 C1845 1.574 . S
C1862 H1856 0.949 . S
C1862 C1866 1.368 . S
C1863 C1844 1.429 . S
C1863 C1857 1.429 . S
C1863 C1864 1.523 . S
C1864 C1845 1.368 . S
C1864 C1858 1.368 . S
C1864 C1863 1.523 . S
C1865 C1849 1.429 . S
C1865 C1861 1.429 . S
C1865 C1866 1.523 . S
C1866 C1850 1.368 . S
C1866 C1862 1.368 . S
C1866 C1865 1.523 . S
H1867 C1842 0.950 . S
H1868 C1844 0.950 . S
H1869 C1845 0.949 . S
H1870 C1847 0.950 . S
H1871 C1849 0.950 . S
C1872 C1873 1.349 . S
C1872 C1874 1.327 . S
C1872 H1897 0.950 . S
C1873 C1872 1.349 . S
C1873 C1889 1.349 . S
C1874 C1872 1.327 . S
C1874 C1893 1.429 . S
C1874 H1898 0.950 . S
C1875 C1892 1.574 . S
C1875 C1894 1.368 . S
C1875 H1899 0.949 . S
H1876 C1880 0.949 . S
C1877 C1878 1.349 . S
C1877 C1879 1.327 . S
C1877 H1900 0.950 . S
C1878 C1877 1.349 . S
C1878 C1890 1.349 . S
C1879 C1877 1.327 . S
C1879 C1895 1.429 . S
C1879 H1901 0.950 . S
C1880 H1876 0.949 . S
C1880 C1888 1.574 . S
C1880 C1896 1.368 . S
H1881 C1889 0.950 . S
H1882 C1887 0.950 . S
H1883 C1888 0.949 . S
H1884 C1890 0.950 . S
H1885 C1891 0.950 . S
H1886 C1892 0.949 . S
C1887 H1882 0.950 . S
C1887 C1889 1.327 . S
C1887 C1893 1.429 . S
C1888 C1880 1.574 . S
C1888 H1883 0.949 . S
C1888 C1894 1.368 . S
C1889 C1873 1.349 . S
C1889 H1881 0.950 . S
C1889 C1887 1.327 . S
C1890 C1878 1.349 . S
C1890 H1884 0.950 . S
C1890 C1891 1.327 . S
C1891 H1885 0.950 . S
C1891 C1890 1.327 . S
C1891 C1895 1.429 . S
C1892 C1875 1.574 . S
C1892 H1886 0.949 . S
C1892 C1896 1.368 . S
C1893 C1874 1.429 . S
C1893 C1887 1.429 . S
C1893 C1894 1.523 . S
C1894 C1875 1.368 . S
C1894 C1888 1.368 . S
C1894 C1893 1.523 . S
C1895 C1879 1.429 . S
C1895 C1891 1.429 . S
C1895 C1896 1.523 . S
C1896 C1880 1.368 . S
C1896 C1892 1.368 . S
C1896 C1895 1.523 . S
H1897 C1872 0.950 . S
H1898 C1874 0.950 . S
H1899 C1875 0.949 . S
H1900 C1877 0.950 . S
H1901 C1879 0.950 . S
C1902 C1903 1.349 . S
C1902 C1904 1.327 . S
C1902 H1927 0.950 . S
C1903 C1902 1.349 . S
C1903 C1919 1.349 . S
C1904 C1902 1.327 . S
C1904 C1923 1.429 . S
C1904 H1928 0.950 . S
C1905 C1922 1.574 . S
C1905 C1924 1.368 . S
C1905 H1929 0.949 . S
H1906 C1910 0.949 . S
C1907 C1908 1.349 . S
C1907 C1909 1.327 . S
C1907 H1930 0.950 . S
C1908 C1907 1.349 . S
C1908 C1920 1.349 . S
C1909 C1907 1.327 . S
C1909 C1925 1.429 . S
C1909 H1931 0.950 . S
C1910 H1906 0.949 . S
C1910 C1918 1.574 . S
C1910 C1926 1.368 . S
H1911 C1919 0.950 . S
H1912 C1917 0.950 . S
H1913 C1918 0.949 . S
H1914 C1920 0.950 . S
H1915 C1921 0.950 . S
H1916 C1922 0.949 . S
C1917 H1912 0.950 . S
C1917 C1919 1.327 . S
C1917 C1923 1.429 . S
C1918 C1910 1.574 . S
C1918 H1913 0.949 . S
C1918 C1924 1.368 . S
C1919 C1903 1.349 . S
C1919 H1911 0.950 . S
C1919 C1917 1.327 . S
C1920 C1908 1.349 . S
C1920 H1914 0.950 . S
C1920 C1921 1.327 . S
C1921 H1915 0.950 . S
C1921 C1920 1.327 . S
C1921 C1925 1.429 . S
C1922 C1905 1.574 . S
C1922 H1916 0.949 . S
C1922 C1926 1.368 . S
C1923 C1904 1.429 . S
C1923 C1917 1.429 . S
C1923 C1924 1.523 . S
C1924 C1905 1.368 . S
C1924 C1918 1.368 . S
C1924 C1923 1.523 . S
C1925 C1909 1.429 . S
C1925 C1921 1.429 . S
C1925 C1926 1.523 . S
C1926 C1910 1.368 . S
C1926 C1922 1.368 . S
C1926 C1925 1.523 . S
H1927 C1902 0.950 . S
H1928 C1904 0.950 . S
H1929 C1905 0.949 . S
H1930 C1907 0.950 . S
H1931 C1909 0.950 . S
C1932 C1933 1.349 . S
C1932 C1934 1.327 . S
C1932 H1957 0.950 . S
C1933 C1932 1.349 . S
C1933 C1949 1.349 . S
C1934 C1932 1.327 . S
C1934 C1953 1.429 . S
C1934 H1958 0.950 . S
C1935 C1952 1.574 . S
C1935 C1954 1.368 . S
C1935 H1959 0.949 . S
H1936 C1940 0.949 . S
C1937 C1938 1.349 . S
C1937 C1939 1.327 . S
C1937 H1960 0.950 . S
C1938 C1937 1.349 . S
C1938 C1950 1.349 . S
C1939 C1937 1.327 . S
C1939 C1955 1.429 . S
C1939 H1961 0.950 . S
C1940 H1936 0.949 . S
C1940 C1948 1.574 . S
C1940 C1956 1.368 . S
H1941 C1949 0.950 . S
H1942 C1947 0.950 . S
H1943 C1948 0.949 . S
H1944 C1950 0.950 . S
H1945 C1951 0.950 . S
H1946 C1952 0.949 . S
C1947 H1942 0.950 . S
C1947 C1949 1.327 . S
C1947 C1953 1.429 . S
C1948 C1940 1.574 . S
C1948 H1943 0.949 . S
C1948 C1954 1.368 . S
C1949 C1933 1.349 . S
C1949 H1941 0.950 . S
C1949 C1947 1.327 . S
C1950 C1938 1.349 . S
C1950 H1944 0.950 . S
C1950 C1951 1.327 . S
C1951 H1945 0.950 . S
C1951 C1950 1.327 . S
C1951 C1955 1.429 . S
C1952 C1935 1.574 . S
C1952 H1946 0.949 . S
C1952 C1956 1.368 . S
C1953 C1934 1.429 . S
C1953 C1947 1.429 . S
C1953 C1954 1.523 . S
C1954 C1935 1.368 . S
C1954 C1948 1.368 . S
C1954 C1953 1.523 . S
C1955 C1939 1.429 . S
C1955 C1951 1.429 . S
C1955 C1956 1.523 . S
C1956 C1940 1.368 . S
C1956 C1952 1.368 . S
C1956 C1955 1.523 . S
H1957 C1932 0.950 . S
H1958 C1934 0.950 . S
H1959 C1935 0.949 . S
H1960 C1937 0.950 . S
H1961 C1939 0.950 . S
C1962 C1963 1.349 . S
C1962 C1964 1.327 . S
C1962 H1987 0.950 . S
C1963 C1962 1.349 . S
C1963 C1979 1.349 . S
C1964 C1962 1.327 . S
C1964 C1983 1.429 . S
C1964 H1988 0.950 . S
C1965 C1982 1.574 . S
C1965 C1984 1.368 . S
C1965 H1989 0.949 . S
H1966 C1970 0.949 . S
C1967 C1968 1.349 . S
C1967 C1969 1.327 . S
C1967 H1990 0.950 . S
C1968 C1967 1.349 . S
C1968 C1980 1.349 . S
C1969 C1967 1.327 . S
C1969 C1985 1.429 . S
C1969 H1991 0.950 . S
C1970 H1966 0.949 . S
C1970 C1978 1.574 . S
C1970 C1986 1.368 . S
H1971 C1979 0.950 . S
H1972 C1977 0.950 . S
H1973 C1978 0.949 . S
H1974 C1980 0.950 . S
H1975 C1981 0.950 . S
H1976 C1982 0.949 . S
C1977 H1972 0.950 . S
C1977 C1979 1.327 . S
C1977 C1983 1.429 . S
C1978 C1970 1.574 . S
C1978 H1973 0.949 . S
C1978 C1984 1.368 . S
C1979 C1963 1.349 . S
C1979 H1971 0.950 . S
C1979 C1977 1.327 . S
C1980 C1968 1.349 . S
C1980 H1974 0.950 . S
C1980 C1981 1.327 . S
C1981 H1975 0.950 . S
C1981 C1980 1.327 . S
C1981 C1985 1.429 . S
C1982 C1965 1.574 . S
C1982 H1976 0.949 . S
C1982 C1986 1.368 . S
C1983 C1964 1.429 . S
C1983 C1977 1.429 . S
C1983 C1984 1.523 . S
C1984 C1965 1.368 . S
C1984 C1978 1.368 . S
C1984 C1983 1.523 . S
C1985 C1969 1.429 . S
C1985 C1981 1.429 . S
C1985 C1986 1.523 . S
C1986 C1970 1.368 . S
C1986 C1982 1.368 . S
C1986 C1985 1.523 . S
H1987 C1962 0.950 . S
H1988 C1964 0.950 . S
H1989 C1965 0.949 . S
H1990 C1967 0.950 . S
H1991 C1969 0.950 . S
C553 C168 1.566 . S
C558 C7 1.533 . S
C583 N25 0.880 . S
C588 C99 0.914 . S
C613 C122 1.454 . S
C618 C53 1.433 . S
C643 N71 1.038 . S
C648 C145 1.095 . S
C673 N186 0.845 . S
C678 N2 0.888 . S
C703 C30 1.150 . S
C708 C214 1.138 . S
C733 N232 0.858 . S
C738 N48 0.907 . S
C763 C260 1.003 . S
C768 C76 0.996 . S
C793 N94 0.632 . S
C798 N209 0.562 . S
C823 N117 1.055 . S
C828 C237 1.167 . S
C853 N255 0.581 . S
C858 N140 0.647 . S
C883 C191 1.301 . S
C888 N163 1.175 . S
C913 C490 1.596 . S
C918 C283 1.583 . S
C943 N301 0.615 . S
C948 N508 0.623 . S
C973 C329 1.515 . S
C978 C536 1.515 . S
C1003 N531 0.681 . S
C1008 N347 0.653 . S
C1033 N370 0.667 . S
C1038 N485 0.685 . S
C1063 C444 1.159 . S
C1068 C398 1.151 . S
C1093 N278 1.095 . S
C1098 C375 1.127 . S
C1123 C306 1.024 . S
C1128 C421 1.025 . S
C1153 N324 1.205 . S
C1158 C352 1.241 . S
C1183 N393 0.666 . S
C1188 N462 0.658 . S
C1213 N416 0.801 . S
C1218 C513 0.809 . S
C1243 C467 0.855 . S
C1248 N439 0.839 . S
C1273 C108 2.611 . S
C1278 C16 2.501 . S
C1303 C131 1.802 . S
C1308 N35 1.793 . S
C1333 C154 2.827 . S
C1338 C62 2.724 . S
C1363 C177 2.329 . S
C1368 N81 2.336 . S
C1393 N196 2.406 . S
C1398 N265 2.481 . S
C1423 C223 2.176 . S
C1428 C200 2.257 . S
C1453 N242 2.019 . S
C1458 N219 2.108 . S
C1483 C246 1.556 . S
C1488 C269 1.492 . S
C1513 N426 2.393 . S
C1518 N173 2.345 . S
C1543 C292 2.150 . S
C1548 C85 2.246 . S
C1573 N12 2.319 . S
C1578 N311 2.305 . S
C1603 C39 2.682 . S
C1608 C338 2.599 . S
C1633 N127 2.109 . S
C1638 N449 2.171 . S
C1663 N104 1.219 . S
C1668 N357 1.228 . S
C1693 N150 1.325 . S
C1698 N380 1.335 . S
C1723 C384 2.049 . S
C1728 C407 2.174 . S
C1753 N288 1.690 . S
C1758 C430 1.605 . S
C1783 C361 1.941 . S
C1788 C315 2.062 . S
C1813 C453 2.287 . S
C1818 N334 2.422 . S
C1843 N472 2.197 . S
C1848 N541 2.129 . S
C1873 C476 2.282 . S
C1878 C499 2.398 . S
C1903 N518 2.564 . S
C1908 N495 2.509 . S
C1933 C545 1.569 . S
C1938 C522 1.478 . S
C1963 N58 2.556 . S
C1968 N403 2.511 . S
