# Generated by pormake.
# Topology wke, (5)-cn, num edge types: 1
# Building blocks:
#     Node 0, Type 0, BuildingBlock: BEQFEK_clean_sbu_0, # of connection points: 5
#     Node 1, Type 0, BuildingBlock: BEQFEK_clean_sbu_0, # of connection points: 5
#     Node 2, Type 0, BuildingBlock: BEQFEK_clean_sbu_0, # of connection points: 5
#     Node 3, Type 0, BuildingBlock: BEQFEK_clean_sbu_0, # of connection points: 5
#     Node 4, Type 0, BuildingBlock: BEQFEK_clean_sbu_0, # of connection points: 5
#     Node 5, Type 0, BuildingBlock: BEQFEK_clean_sbu_0, # of connection points: 5
#     Node 6, Type 0, BuildingBlock: BEQFEK_clean_sbu_0, # of connection points: 5
#     Node 7, Type 0, BuildingBlock: BEQFEK_clean_sbu_0, # of connection points: 5
#     Node 8, Type 0, BuildingBlock: BEQFEK_clean_sbu_0, # of connection points: 5
#     Node 9, Type 0, BuildingBlock: BEQFEK_clean_sbu_0, # of connection points: 5
#     Node 10, Type 0, BuildingBlock: BEQFEK_clean_sbu_0, # of connection points: 5
#     Node 11, Type 0, BuildingBlock: BEQFEK_clean_sbu_0, # of connection points: 5
#     Edge 12, Type (0, 0), BuildingBlock: OJICUG_clean_linker_0, # of connection points: 2
#     Edge 13, Type (0, 0), BuildingBlock: OJICUG_clean_linker_0, # of connection points: 2
#     Edge 14, Type (0, 0), BuildingBlock: OJICUG_clean_linker_0, # of connection points: 2
#     Edge 15, Type (0, 0), BuildingBlock: OJICUG_clean_linker_0, # of connection points: 2
#     Edge 16, Type (0, 0), BuildingBlock: OJICUG_clean_linker_0, # of connection points: 2
#     Edge 17, Type (0, 0), BuildingBlock: OJICUG_clean_linker_0, # of connection points: 2
#     Edge 18, Type (0, 0), BuildingBlock: OJICUG_clean_linker_0, # of connection points: 2
#     Edge 19, Type (0, 0), BuildingBlock: OJICUG_clean_linker_0, # of connection points: 2
#     Edge 20, Type (0, 0), BuildingBlock: OJICUG_clean_linker_0, # of connection points: 2
#     Edge 21, Type (0, 0), BuildingBlock: OJICUG_clean_linker_0, # of connection points: 2
#     Edge 22, Type (0, 0), BuildingBlock: OJICUG_clean_linker_0, # of connection points: 2
#     Edge 23, Type (0, 0), BuildingBlock: OJICUG_clean_linker_0, # of connection points: 2
#     Edge 24, Type (0, 0), BuildingBlock: OJICUG_clean_linker_0, # of connection points: 2
#     Edge 25, Type (0, 0), BuildingBlock: OJICUG_clean_linker_0, # of connection points: 2
#     Edge 26, Type (0, 0), BuildingBlock: OJICUG_clean_linker_0, # of connection points: 2
#     Edge 27, Type (0, 0), BuildingBlock: OJICUG_clean_linker_0, # of connection points: 2
#     Edge 28, Type (0, 0), BuildingBlock: OJICUG_clean_linker_0, # of connection points: 2
#     Edge 29, Type (0, 0), BuildingBlock: OJICUG_clean_linker_0, # of connection points: 2
#     Edge 30, Type (0, 0), BuildingBlock: OJICUG_clean_linker_0, # of connection points: 2
#     Edge 31, Type (0, 0), BuildingBlock: OJICUG_clean_linker_0, # of connection points: 2
#     Edge 32, Type (0, 0), BuildingBlock: OJICUG_clean_linker_0, # of connection points: 2
#     Edge 33, Type (0, 0), BuildingBlock: OJICUG_clean_linker_0, # of connection points: 2
#     Edge 34, Type (0, 0), BuildingBlock: OJICUG_clean_linker_0, # of connection points: 2
#     Edge 35, Type (0, 0), BuildingBlock: OJICUG_clean_linker_0, # of connection points: 2
#     Edge 36, Type (0, 0), BuildingBlock: OJICUG_clean_linker_0, # of connection points: 2
#     Edge 37, Type (0, 0), BuildingBlock: OJICUG_clean_linker_0, # of connection points: 2
#     Edge 38, Type (0, 0), BuildingBlock: OJICUG_clean_linker_0, # of connection points: 2
#     Edge 39, Type (0, 0), BuildingBlock: OJICUG_clean_linker_0, # of connection points: 2
#     Edge 40, Type (0, 0), BuildingBlock: OJICUG_clean_linker_0, # of connection points: 2
#     Edge 41, Type (0, 0), BuildingBlock: OJICUG_clean_linker_0, # of connection points: 2
# Relax obj value: 0.244
# Max RMSD: 0.190
# Mean RMSD: 0.190
data_MOF--net-wke--node1-BEQFEK_clean_sbu_0--edge1-OJICUG_clean_linker_0
_symmetry_space_group_name_H-M    P1
_symmetry_Int_Tables_number       1
_symmetry_cell_setting            triclinic
loop_
_symmetry_equiv_pos_as_xyz
'x, y, z'
_cell_length_a     53.259029
_cell_length_b     53.279368
_cell_length_c     14.787891
_cell_angle_alpha  90.015759
_cell_angle_beta   89.958308
_cell_angle_gamma 120.01209
loop_
_atom_site_label
_atom_site_type_symbol
_atom_site_fract_x
_atom_site_fract_y
_atom_site_fract_z
_atom_type_partial_charge
Co0 Co 0.09785 0.44624 0.24669 0.0
Co1 Co 0.12249 0.46993 0.43822 0.0
C2 C 0.05927 0.42349 0.40431 0.0
O3 O 0.06188 0.42134 0.31923 0.0
O4 O 0.08072 0.44147 0.45141 0.0
C5 C 0.08539 0.42008 0.05642 0.0
O6 O 0.07644 0.39325 0.08129 0.0
C7 C 0.12752 0.45596 0.62249 0.0
C8 C 0.14519 0.49841 0.68974 0.0
C9 C 0.13234 0.46889 0.70703 0.0
N10 N 0.13628 0.47674 0.55901 0.0
N11 N 0.1476 0.50217 0.59954 0.0
C12 C 0.11181 0.42421 0.60151 0.0
H13 H 0.10812 0.4203 0.52784 0.0
H14 H 0.1252 0.41477 0.62384 0.0
H15 H 0.09092 0.41302 0.63866 0.0
C16 C 0.14938 0.43779 0.24396 0.0
N17 N 0.13098 0.44435 0.28671 0.0
N18 N 0.14178 0.45524 0.3667 0.0
C19 C 0.16735 0.45613 0.37709 0.0
C20 C 0.1729 0.4449 0.29985 0.0
C21 C 0.14652 0.42844 0.14734 0.0
H22 H 0.14418 0.44411 0.10397 0.0
H23 H 0.12693 0.40681 0.14009 0.0
H24 H 0.1656 0.42711 0.12385 0.0
O25 O 0.10702 0.4871 0.25179 0.0
O26 O 0.12669 0.50607 0.38446 0.0
H27 H 0.19015 0.49098 0.47052 0.0
H28 H 0.20783 0.47001 0.4479 0.0
C29 C 0.18666 0.46894 0.45752 0.0
H30 H 0.17576 0.45546 0.51782 0.0
H31 H 0.15451 0.52177 0.56587 0.0
O32 O 0.09294 0.43991 0.11524 0.0
C33 C 0.1185 0.50855 0.30568 0.0
Co34 Co 0.65471 0.09659 0.75432 0.0
Co35 Co 0.65567 0.12125 0.94593 0.0
C36 C 0.63897 0.05806 0.91179 0.0
O37 O 0.64377 0.0607 0.82674 0.0
O38 O 0.6424 0.07947 0.95899 0.0
C39 C 0.66826 0.08405 0.56402 0.0
O40 O 0.68616 0.07512 0.58894 0.0
C41 C 0.6747 0.12624 0.13017 0.0
C42 C 0.65 0.144 0.19753 0.0
C43 C 0.66661 0.13107 0.21474 0.0
N44 N 0.66273 0.13505 0.06673 0.0
N45 N 0.64867 0.14643 0.10733 0.0
C46 C 0.69066 0.11045 0.10911 0.0
H47 H 0.69096 0.10686 0.0354 0.0
H48 H 0.71347 0.12372 0.13176 0.0
H49 H 0.68082 0.08951 0.14594 0.0
C50 C 0.7146 0.14815 0.75106 0.0
N51 N 0.6897 0.12976 0.79409 0.0
N52 N 0.68964 0.14059 0.87407 0.0
C53 C 0.71433 0.16619 0.88419 0.0
C54 C 0.73105 0.17171 0.80676 0.0
C55 C 0.72096 0.14525 0.6543 0.0
H56 H 0.70284 0.14281 0.61127 0.0
H57 H 0.7231 0.12573 0.64692 0.0
H58 H 0.74128 0.16436 0.63044 0.0
O59 O 0.623 0.10568 0.75999 0.0
O60 O 0.62357 0.12533 0.89261 0.0
H61 H 0.70243 0.18911 0.97765 0.0
H62 H 0.7411 0.20661 0.9551 0.0
C63 C 0.72091 0.1855 0.96467 0.0
H64 H 0.7234 0.17455 0.02496 0.0
H65 H 0.63602 0.15339 0.07372 0.0
O66 O 0.656 0.09164 0.62282 0.0
C67 C 0.61293 0.11708 0.81382 0.0
Co68 Co 0.56047 0.65297 0.25129 0.0
Co69 Co 0.53653 0.65349 0.4428 0.0
C70 C 0.58298 0.63674 0.40827 0.0
O71 O 0.58526 0.64172 0.32332 0.0
O72 O 0.56496 0.64011 0.45554 0.0
C73 C 0.58664 0.6668 0.06079 0.0
O74 O 0.61356 0.68458 0.08522 0.0
C75 C 0.55049 0.67244 0.62706 0.0
C76 C 0.50804 0.6477 0.69454 0.0
C77 C 0.53758 0.66441 0.71166 0.0
N78 N 0.52969 0.66034 0.5637 0.0
N79 N 0.50426 0.64624 0.60434 0.0
C80 C 0.58225 0.68845 0.6059 0.0
H81 H 0.58613 0.68862 0.53223 0.0
H82 H 0.59172 0.71129 0.62814 0.0
H83 H 0.59342 0.67875 0.64299 0.0
C84 C 0.5692 0.71303 0.25019 0.0
N85 N 0.56242 0.68792 0.2922 0.0
N86 N 0.55135 0.68762 0.37206 0.0
C87 C 0.55049 0.71229 0.38302 0.0
C88 C 0.562 0.7293 0.30639 0.0
C89 C 0.579 0.71987 0.15402 0.0
H90 H 0.60046 0.7215 0.14721 0.0
H91 H 0.58087 0.7406 0.1315 0.0
H92 H 0.56329 0.70222 0.10963 0.0
O93 O 0.51959 0.62128 0.25586 0.0
O94 O 0.50042 0.62166 0.38854 0.0
H95 H 0.51549 0.6998 0.47633 0.0
H96 H 0.53598 0.73845 0.45337 0.0
C97 C 0.53741 0.71856 0.46327 0.0
H98 H 0.55094 0.72144 0.52364 0.0
H99 H 0.48464 0.63352 0.57077 0.0
O100 O 0.56688 0.65464 0.1199 0.0
C101 C 0.49805 0.61117 0.30952 0.0
Co102 Co 0.90987 0.55879 0.74703 0.0
Co103 Co 0.88545 0.53532 0.93889 0.0
C104 C 0.94862 0.58171 0.90409 0.0
O105 O 0.9459 0.58375 0.81904 0.0
O106 O 0.92724 0.56381 0.95162 0.0
C107 C 0.92229 0.58499 0.55706 0.0
O108 O 0.93114 0.61178 0.58222 0.0
C109 C 0.88043 0.5493 0.1232 0.0
C110 C 0.86262 0.50682 0.1904 0.0
C111 C 0.87551 0.53635 0.20769 0.0
N112 N 0.87168 0.52853 0.0597 0.0
N113 N 0.86028 0.50308 0.10019 0.0
C114 C 0.89624 0.58106 0.10229 0.0
H115 H 0.89992 0.58497 0.02862 0.0
H116 H 0.88293 0.59057 0.12486 0.0
H117 H 0.91714 0.59215 0.1393 0.0
C118 C 0.85831 0.56718 0.7448 0.0
N119 N 0.87677 0.5607 0.78735 0.0
N120 N 0.86608 0.54992 0.86755 0.0
C121 C 0.84051 0.54902 0.87829 0.0
C122 C 0.83486 0.56015 0.80107 0.0
C123 C 0.86103 0.5764 0.64808 0.0
H124 H 0.86343 0.56075 0.60479 0.0
H125 H 0.88053 0.59808 0.64047 0.0
H126 H 0.84185 0.57759 0.6248 0.0
O127 O 0.90076 0.51795 0.7523 0.0
O128 O 0.88126 0.49916 0.88536 0.0
H129 H 0.81785 0.51426 0.97216 0.0
H130 H 0.80007 0.53512 0.94953 0.0
C131 C 0.82128 0.53626 0.95898 0.0
H132 H 0.83219 0.54982 0.01908 0.0
H133 H 0.85334 0.48349 0.06651 0.0
O134 O 0.91477 0.56511 0.61566 0.0
C135 C 0.88936 0.49658 0.80652 0.0
Co136 Co 0.35396 0.90917 0.24414 0.0
Co137 Co 0.35203 0.88481 0.43681 0.0
C138 C 0.36959 0.94802 0.40148 0.0
O139 O 0.36525 0.94526 0.31624 0.0
O140 O 0.36556 0.92661 0.44975 0.0
C141 C 0.34017 0.9218 0.05533 0.0
O142 O 0.32177 0.92991 0.08202 0.0
C143 C 0.33293 0.87978 0.62122 0.0
C144 C 0.35751 0.8618 0.68796 0.0
C145 C 0.34102 0.87483 0.70553 0.0
N146 N 0.3448 0.87092 0.55748 0.0
N147 N 0.35877 0.8594 0.59772 0.0
C148 C 0.31704 0.89567 0.60083 0.0
H149 H 0.31697 0.89963 0.52729 0.0
H150 H 0.29418 0.88229 0.62297 0.0
H151 H 0.32674 0.9164 0.63874 0.0
C152 C 0.294 0.85747 0.23971 0.0
N153 N 0.31866 0.87609 0.28341 0.0
N154 N 0.31824 0.86563 0.36441 0.0
C155 C 0.29342 0.84017 0.37478 0.0
C156 C 0.27714 0.83426 0.29627 0.0
C157 C 0.2884 0.85958 0.14164 0.0
H158 H 0.30742 0.86308 0.10127 0.0
H159 H 0.28486 0.87817 0.13164 0.0
H160 H 0.26904 0.83968 0.1167 0.0
O161 O 0.3854 0.89974 0.25041 0.0
O162 O 0.38408 0.88043 0.38429 0.0
H163 H 0.30422 0.81687 0.47003 0.0
H164 H 0.26562 0.80059 0.44855 0.0
C165 C 0.28631 0.82131 0.45665 0.0
H166 H 0.28453 0.83302 0.51608 0.0
H167 H 0.37134 0.85239 0.56382 0.0
O168 O 0.35301 0.91451 0.11286 0.0
C169 C 0.39505 0.88831 0.30565 0.0
Co170 Co 0.44659 0.35166 0.7448 0.0
Co171 Co 0.46954 0.34977 0.9368 0.0
C172 C 0.42371 0.36727 0.90288 0.0
O173 O 0.42174 0.36276 0.81768 0.0
O174 O 0.44138 0.36341 0.95017 0.0
C175 C 0.42032 0.3382 0.55534 0.0
O176 O 0.39368 0.32 0.58142 0.0
C177 C 0.45534 0.33077 0.12119 0.0
C178 C 0.49789 0.35517 0.18817 0.0
C179 C 0.46834 0.33885 0.20562 0.0
N180 N 0.47613 0.34249 0.05755 0.0
N181 N 0.50161 0.35635 0.09795 0.0
C182 C 0.42357 0.31508 0.10049 0.0
H183 H 0.41964 0.31479 0.02682 0.0
H184 H 0.41385 0.29227 0.12334 0.0
H185 H 0.41267 0.3251 0.13746 0.0
C186 C 0.43828 0.29175 0.73961 0.0
N187 N 0.44446 0.3164 0.78363 0.0
N188 N 0.45473 0.31598 0.86422 0.0
C189 C 0.45541 0.29117 0.87401 0.0
C190 C 0.44482 0.2749 0.7955 0.0
C191 C 0.43032 0.28622 0.64171 0.0
H192 H 0.40828 0.28303 0.63235 0.0
H193 H 0.43047 0.26671 0.61634 0.0
H194 H 0.44594 0.30513 0.60118 0.0
O195 O 0.48748 0.38312 0.75098 0.0
O196 O 0.50594 0.38175 0.88394 0.0
H197 H 0.48989 0.30189 0.96774 0.0
H198 H 0.46719 0.26329 0.94714 0.0
C199 C 0.4674 0.28409 0.95531 0.0
H200 H 0.45422 0.28257 0.01535 0.0
H201 H 0.52124 0.36882 0.06416 0.0
O202 O 0.44035 0.35078 0.61336 0.0
C203 C 0.50875 0.39275 0.80548 0.0
Co204 Co 0.56055 0.90831 0.25193 0.0
Co205 Co 0.53751 0.88381 0.05985 0.0
C206 C 0.58367 0.94699 0.09457 0.0
O207 O 0.58557 0.94431 0.17971 0.0
O208 O 0.56592 0.92557 0.04697 0.0
C209 C 0.58682 0.92088 0.44142 0.0
O210 O 0.61351 0.9295 0.41555 0.0
C211 C 0.5516 0.87886 0.87552 0.0
C212 C 0.50907 0.86087 0.80853 0.0
C213 C 0.53861 0.87391 0.7911 0.0
N214 N 0.53083 0.86999 0.93913 0.0
N215 N 0.50535 0.85847 0.89875 0.0
C216 C 0.58338 0.8948 0.8962 0.0
H217 H 0.58732 0.89846 0.96986 0.0
H218 H 0.59299 0.88161 0.87342 0.0
H219 H 0.59437 0.9157 0.85917 0.0
C220 C 0.5689 0.8567 0.25546 0.0
N221 N 0.56255 0.87518 0.21233 0.0
N222 N 0.55208 0.86455 0.13184 0.0
C223 C 0.55132 0.83905 0.12139 0.0
C224 C 0.56216 0.83334 0.19918 0.0
C225 C 0.57758 0.85925 0.35269 0.0
H226 H 0.56196 0.86207 0.39486 0.0
H227 H 0.59944 0.87843 0.36103 0.0
H228 H 0.57815 0.83983 0.37677 0.0
O229 O 0.5197 0.89918 0.24598 0.0
O230 O 0.50126 0.8796 0.11276 0.0
H231 H 0.51684 0.81609 0.02691 0.0
H232 H 0.53833 0.79896 0.04924 0.0
C233 C 0.53901 0.81996 0.04025 0.0
H234 H 0.55257 0.83121 0.98042 0.0
H235 H 0.48574 0.85144 0.93254 0.0
O236 O 0.56681 0.91339 0.3833 0.0
C237 C 0.49846 0.88774 0.19131 0.0
Co238 Co 0.65413 0.5581 0.74786 0.0
Co239 Co 0.65522 0.53473 0.55598 0.0
C240 C 0.63836 0.58103 0.59071 0.0
O241 O 0.64308 0.58305 0.67578 0.0
O242 O 0.64189 0.56317 0.54319 0.0
C243 C 0.66786 0.5843 0.93778 0.0
O244 O 0.68578 0.6111 0.91253 0.0
C245 C 0.67424 0.54874 0.37165 0.0
C246 C 0.6496 0.50625 0.30451 0.0
C247 C 0.66619 0.53577 0.28718 0.0
N248 N 0.66225 0.52797 0.43518 0.0
N249 N 0.64823 0.50252 0.39473 0.0
C250 C 0.69016 0.5805 0.39251 0.0
H251 H 0.69041 0.58442 0.46618 0.0
H252 H 0.71299 0.59004 0.36989 0.0
H253 H 0.68033 0.59156 0.35549 0.0
C254 C 0.71417 0.56666 0.75028 0.0
N255 N 0.6892 0.56008 0.70769 0.0
N256 N 0.68917 0.54936 0.62745 0.0
C257 C 0.71391 0.54859 0.61673 0.0
C258 C 0.73067 0.55975 0.694 0.0
C259 C 0.72063 0.57587 0.84701 0.0
H260 H 0.70255 0.5602 0.89025 0.0
H261 H 0.72282 0.59754 0.85459 0.0
H262 H 0.74099 0.57706 0.87039 0.0
O263 O 0.62239 0.51725 0.74246 0.0
O264 O 0.62323 0.49855 0.6094 0.0
H265 H 0.70199 0.51395 0.52257 0.0
H266 H 0.74064 0.53495 0.54536 0.0
C267 C 0.7205 0.53598 0.53593 0.0
H268 H 0.72312 0.54958 0.47594 0.0
H269 H 0.63558 0.48291 0.42844 0.0
O270 O 0.65551 0.5644 0.87924 0.0
C271 C 0.61246 0.49591 0.68815 0.0
Co272 Co 0.09854 0.65371 0.2432 0.0
Co273 Co 0.12302 0.65437 0.05161 0.0
C274 C 0.0598 0.6376 0.08623 0.0
O275 O 0.0625 0.64251 0.17121 0.0
O276 O 0.0812 0.64102 0.03888 0.0
C277 C 0.08617 0.66746 0.43366 0.0
O278 O 0.07693 0.68513 0.40915 0.0
C279 C 0.12806 0.67336 0.86736 0.0
C280 C 0.14583 0.64868 0.79999 0.0
C281 C 0.13298 0.66535 0.7828 0.0
N282 N 0.13676 0.66129 0.93077 0.0
N283 N 0.14814 0.64723 0.89019 0.0
C284 C 0.11227 0.68933 0.88844 0.0
H285 H 0.10858 0.68952 0.96212 0.0
H286 H 0.12562 0.71216 0.86609 0.0
H287 H 0.09138 0.67957 0.8514 0.0
C288 C 0.14989 0.71377 0.24457 0.0
N289 N 0.13157 0.68868 0.20247 0.0
N290 N 0.14236 0.68844 0.12257 0.0
C291 C 0.1679 0.71315 0.11171 0.0
C292 C 0.17337 0.73011 0.18841 0.0
C293 C 0.14688 0.72066 0.34061 0.0
H294 H 0.12692 0.72209 0.34729 0.0
H295 H 0.16564 0.74152 0.36283 0.0
H296 H 0.1451 0.70314 0.38525 0.0
O297 O 0.10764 0.62197 0.23831 0.0
O298 O 0.1272 0.62246 0.10556 0.0
H299 H 0.20878 0.73917 0.04232 0.0
H300 H 0.17691 0.72271 0.97141 0.0
C301 C 0.18735 0.71946 0.03168 0.0
H302 H 0.19024 0.70058 0.01802 0.0
H303 H 0.15505 0.63454 0.9238 0.0
O304 O 0.09383 0.65534 0.3746 0.0
C305 C 0.11903 0.61187 0.18447 0.0
Co306 Co 0.44779 0.09799 0.73924 0.0
Co307 Co 0.4737 0.12241 0.55149 0.0
C308 C 0.42608 0.05912 0.58449 0.0
O309 O 0.42316 0.06163 0.66919 0.0
O310 O 0.4446 0.08064 0.53852 0.0
C311 C 0.42507 0.08224 0.93595 0.0
O312 O 0.40254 0.05621 0.92481 0.0
C313 C 0.4597 0.12689 0.36932 0.0
C314 C 0.50161 0.1442 0.29856 0.0
C315 C 0.47197 0.13157 0.28418 0.0
N316 N 0.48089 0.13547 0.43095 0.0
N317 N 0.50602 0.14633 0.38859 0.0
C318 C 0.4283 0.11426 0.39275 0.0
H319 H 0.42598 0.12284 0.45867 0.0
H320 H 0.41686 0.11928 0.33923 0.0
H321 H 0.4179 0.09043 0.39904 0.0
C322 C 0.43679 0.14732 0.73438 0.0
N323 N 0.44549 0.13016 0.6948 0.0
N324 N 0.45883 0.14218 0.61875 0.0
C325 C 0.45994 0.16786 0.60879 0.0
C326 C 0.44586 0.17191 0.68173 0.0
C327 C 0.42274 0.14174 0.82543 0.0
H328 H 0.43965 0.14851 0.87828 0.0
H329 H 0.40707 0.11828 0.83356 0.0
H330 H 0.41135 0.15418 0.83508 0.0
O331 O 0.48878 0.10679 0.73962 0.0
O332 O 0.50914 0.1263 0.60813 0.0
H333 H 0.49686 0.19052 0.52225 0.0
H334 H 0.47776 0.21011 0.54595 0.0
C335 C 0.47528 0.18848 0.53284 0.0
H336 H 0.46262 0.17957 0.46976 0.0
H337 H 0.52583 0.15314 0.42077 0.0
O338 O 0.4405 0.09629 0.86895 0.0
C339 C 0.51076 0.11804 0.68761 0.0
Co340 Co 0.35307 0.44601 0.24496 0.0
Co341 Co 0.35243 0.46997 0.05357 0.0
C342 C 0.36892 0.42333 0.08735 0.0
O343 O 0.36406 0.42107 0.17238 0.0
O344 O 0.3656 0.44141 0.04038 0.0
C345 C 0.33928 0.41988 0.43546 0.0
O346 O 0.32136 0.39301 0.4109 0.0
C347 C 0.33344 0.45606 0.86931 0.0
C348 C 0.35842 0.49848 0.80195 0.0
C349 C 0.3416 0.46896 0.78473 0.0
N350 N 0.34556 0.47685 0.93274 0.0
N351 N 0.3598 0.50226 0.89215 0.0
C352 C 0.31725 0.42432 0.89041 0.0
H353 H 0.31703 0.42043 0.96408 0.0
H354 H 0.29442 0.41498 0.86814 0.0
H355 H 0.32685 0.41304 0.8533 0.0
C356 C 0.29314 0.43767 0.24718 0.0
N357 N 0.31815 0.44427 0.20468 0.0
N358 N 0.31838 0.45531 0.12484 0.0
C359 C 0.29374 0.45627 0.11432 0.0
C360 C 0.27684 0.44492 0.1913 0.0
C361 C 0.28648 0.42808 0.34356 0.0
H362 H 0.30436 0.44372 0.3874 0.0
H363 H 0.28455 0.4065 0.35046 0.0
H364 H 0.26596 0.42657 0.36677 0.0
O365 O 0.38489 0.48681 0.24015 0.0
O366 O 0.38444 0.50601 0.10767 0.0
H367 H 0.30605 0.49122 0.02107 0.0
H368 H 0.26737 0.47047 0.04373 0.0
C369 C 0.28739 0.46924 0.03401 0.0
H370 H 0.28468 0.45575 0.97364 0.0
H371 H 0.37258 0.52185 0.92576 0.0
O372 O 0.35153 0.43964 0.37641 0.0
C373 C 0.39501 0.50834 0.18654 0.0
Co374 Co 0.90991 0.35173 0.74678 0.0
Co375 Co 0.88507 0.35044 0.55525 0.0
C376 C 0.9484 0.36754 0.58895 0.0
O377 O 0.94587 0.36286 0.67406 0.0
O378 O 0.92688 0.36389 0.54193 0.0
C379 C 0.92258 0.33833 0.93708 0.0
O380 O 0.93177 0.32063 0.91215 0.0
C381 C 0.88008 0.33139 0.37098 0.0
C382 C 0.86213 0.35594 0.30388 0.0
C383 C 0.87519 0.33946 0.28648 0.0
N384 N 0.87118 0.34328 0.43454 0.0
N385 N 0.8597 0.35724 0.3941 0.0
C386 C 0.89598 0.31553 0.39187 0.0
H387 H 0.89963 0.3153 0.46554 0.0
H388 H 0.88273 0.29271 0.36933 0.0
H389 H 0.91689 0.3254 0.35484 0.0
C390 C 0.85848 0.29174 0.75038 0.0
N391 N 0.87681 0.31662 0.70718 0.0
N392 N 0.86589 0.31657 0.62729 0.0
C393 C 0.84029 0.29188 0.61748 0.0
C394 C 0.83486 0.27523 0.69495 0.0
C395 C 0.86152 0.28538 0.84698 0.0
H396 H 0.88125 0.2836 0.85408 0.0
H397 H 0.84259 0.26486 0.87059 0.0
H398 H 0.86367 0.30332 0.89032 0.0
O399 O 0.90068 0.38336 0.74122 0.0
O400 O 0.88087 0.38243 0.60861 0.0
H401 H 0.79961 0.26524 0.54775 0.0
H402 H 0.83151 0.28254 0.47699 0.0
C403 C 0.8208 0.28529 0.53749 0.0
H404 H 0.81735 0.30385 0.52442 0.0
H405 H 0.85266 0.36982 0.42783 0.0
O406 O 0.91487 0.35046 0.87828 0.0
C407 C 0.88915 0.39324 0.68722 0.0
C408 C 0.02952 0.4051 0.54613 0.0
C409 C 0.03088 0.40619 0.45079 0.0
H410 H 1.00265 0.39168 0.66461 0.0
C411 C 0.00486 0.39244 0.40183 0.0
H412 H 0.04912 0.41552 0.58625 0.0
C413 C 0.97818 0.37918 0.44707 0.0
C414 C 0.97681 0.37886 0.54242 0.0
H415 H 0.00505 0.39293 0.32859 0.0
H416 H 0.95857 0.36981 0.40697 0.0
C417 C 1.00284 0.3914 0.59137 0.0
C418 C 0.62731 0.02815 0.05329 0.0
C419 C 0.62785 0.02965 0.95797 0.0
H420 H 0.61353 1.0011 0.17131 0.0
C421 C 0.61576 0.00372 0.9086 0.0
H422 H 0.63634 0.04768 0.0937 0.0
C423 C 0.60226 0.97698 0.95338 0.0
C424 C 0.60091 0.97547 0.04867 0.0
H425 H 0.61568 0.00401 0.83536 0.0
H426 H 0.59216 0.95745 0.91293 0.0
C427 C 0.61423 1.00141 0.09809 0.0
C428 C 0.62691 0.59954 0.4495 0.0
C429 C 0.62719 0.59831 0.5448 0.0
H430 H 0.61331 0.613 0.33156 0.0
C431 C 0.6148 0.61185 0.59429 0.0
H432 H 0.63618 0.58929 0.40901 0.0
C433 C 0.60125 0.62505 0.54958 0.0
C434 C 0.60017 0.62548 0.45427 0.0
H435 H 0.61451 0.61126 0.66752 0.0
H436 H 0.59094 0.63428 0.59005 0.0
C437 C 0.61379 0.61317 0.4048 0.0
C438 C 0.00539 0.61393 0.08986 0.0
C439 C 0.03133 0.62632 0.04031 0.0
H440 H 0.9591 0.58995 0.08578 0.0
C441 C 0.02979 0.6259 0.94501 0.0
H442 H 0.00572 0.61374 0.16309 0.0
C443 C 1.00302 0.61265 0.90037 0.0
C444 C 0.97709 0.59904 0.94993 0.0
H445 H 0.04933 0.63518 0.90448 0.0
H446 H 1.00269 0.61207 0.82715 0.0
C447 C 0.97863 0.60026 0.04523 0.0
C448 C 0.4099 0.02923 0.44227 0.0
C449 C 0.40897 0.0308 0.53743 0.0
H450 H 0.39771 1.00211 0.32451 0.0
C451 C 0.3931 0.00496 0.58631 0.0
H452 H 0.42215 0.0486 0.4021 0.0
C453 C 0.3796 0.97822 0.54155 0.0
C454 C 0.38112 0.97663 0.44666 0.0
H455 H 0.39199 0.00528 0.65941 0.0
H456 H 0.36853 0.9587 0.58179 0.0
C457 C 0.39588 1.00252 0.3974 0.0
C458 C 0.40545 0.37883 0.04461 0.0
C459 C 0.40663 0.37862 0.94927 0.0
H460 H 0.39227 0.39252 0.16305 0.0
C461 C 0.39329 0.39129 0.90026 0.0
H462 H 0.41558 0.36937 0.08476 0.0
C463 C 0.38034 0.40502 0.94548 0.0
C464 C 0.37995 0.40599 0.04083 0.0
H465 H 0.39386 0.39166 0.82704 0.0
H466 H 0.37127 0.41554 0.90535 0.0
C467 C 0.39207 0.39212 0.08981 0.0
C468 C 0.12218 0.58143 0.30802 0.0
C469 C 0.12182 0.58691 0.21497 0.0
H470 H 0.122 0.55266 0.40982 0.0
C471 C 0.12241 0.56743 0.15235 0.0
H472 H 0.12194 0.59618 0.358 0.0
C473 C 0.12196 0.54229 0.18216 0.0
C474 C 0.12152 0.53641 0.27521 0.0
H475 H 0.12211 0.57104 0.08036 0.0
H476 H 0.12156 0.52722 0.13217 0.0
C477 C 0.12234 0.55659 0.33783 0.0
C478 C 0.54328 0.12007 0.81354 0.0
C479 C 0.53819 0.12047 0.72021 0.0
H480 H 0.57124 0.1193 0.91666 0.0
C481 C 0.55885 0.12172 0.65868 0.0
H482 H 0.52782 0.11931 0.8627 0.0
C483 C 0.5834 0.12125 0.68961 0.0
C484 C 0.58815 0.12011 0.7828 0.0
H485 H 0.55556 0.12204 0.58649 0.0
H486 H 0.59854 0.12141 0.64029 0.0
C487 C 0.56818 0.1202 0.84457 0.0
C488 C 0.46452 0.581 0.18542 0.0
C489 C 0.47026 0.58632 0.27857 0.0
H490 H 0.43595 0.55247 0.08311 0.0
C491 C 0.45002 0.56683 0.34084 0.0
H492 H 0.47964 0.59577 0.13569 0.0
C493 C 0.42526 0.54182 0.31059 0.0
C494 C 0.41992 0.53609 0.21744 0.0
H495 H 0.45384 0.57032 0.41289 0.0
H496 H 0.41046 0.52673 0.36032 0.0
C497 C 0.43946 0.55629 0.15516 0.0
C498 C 0.88593 0.46267 0.68356 0.0
C499 C 0.8864 0.4687 0.7765 0.0
H500 H 0.88584 0.43379 0.5823 0.0
C501 C 0.88568 0.44867 0.83949 0.0
H502 H 0.88626 0.47762 0.6333 0.0
C503 C 0.88591 0.42383 0.81015 0.0
C504 C 0.88626 0.41819 0.71721 0.0
H505 H 0.88604 0.45272 0.91141 0.0
H506 H 0.88623 0.40919 0.86041 0.0
C507 C 0.88556 0.43752 0.65422 0.0
C508 C 0.4643 0.88475 0.3129 0.0
C509 C 0.47052 0.88487 0.22023 0.0
H510 H 0.43526 0.88515 0.41276 0.0
C511 C 0.45063 0.88398 0.15634 0.0
H512 H 0.47914 0.88523 0.36385 0.0
C513 C 0.42576 0.8844 0.18447 0.0
C514 C 0.41997 0.88513 0.27709 0.0
H515 H 0.45481 0.88407 0.0846 0.0
H516 H 0.41126 0.88459 0.13349 0.0
C517 C 0.43913 0.88458 0.34105 0.0
C518 C 0.5567 0.43685 0.83952 0.0
C519 C 0.53678 0.41761 0.77614 0.0
H520 H 0.59617 0.47687 0.86116 0.0
C521 C 0.54301 0.42327 0.68332 0.0
H522 H 0.55249 0.43309 0.91135 0.0
C523 C 0.56823 0.44807 0.65445 0.0
C524 C 0.58744 0.46804 0.71779 0.0
H525 H 0.52814 0.40871 0.63278 0.0
H526 H 0.5721 0.45215 0.5826 0.0
C527 C 0.58163 0.46196 0.81063 0.0
C528 C 0.10806 0.46817 0.85147 0.0
C529 C 0.11906 0.45488 0.7944 0.0
H530 H 0.08789 0.46696 0.97745 0.0
C531 C 0.11657 0.42838 0.82122 0.0
H532 H 0.10926 0.48838 0.83253 0.0
C533 C 0.1037 0.41572 0.90418 0.0
C534 C 0.0935 0.42959 0.96194 0.0
H535 H 0.12542 0.4179 0.78002 0.0
H536 H 0.10314 0.39596 0.92506 0.0
C537 C 0.09545 0.45569 0.93406 0.0
C538 C 0.69101 0.10234 0.41185 0.0
C539 C 0.66691 0.09216 0.46954 0.0
H540 H 0.71061 0.12406 0.28779 0.0
C541 C 0.64277 0.09414 0.44159 0.0
H542 H 0.71019 0.10175 0.43278 0.0
C543 C 0.64295 0.10677 0.35903 0.0
C544 C 0.66728 0.11776 0.30205 0.0
H545 H 0.62393 0.0866 0.48492 0.0
H546 H 0.62396 0.108 0.34004 0.0
C547 C 0.69126 0.11522 0.32891 0.0
C548 C 0.53834 0.64111 0.85645 0.0
C549 C 0.55162 0.6653 0.79904 0.0
H550 H 0.53964 0.62235 0.98263 0.0
C551 C 0.57815 0.68937 0.8255 0.0
H552 H 0.51811 0.62206 0.8378 0.0
C553 C 0.59087 0.68929 0.90839 0.0
C554 C 0.57704 0.6653 0.96645 0.0
H555 H 0.5886 0.70863 0.78406 0.0
H556 H 0.61067 0.70851 0.92898 0.0
C557 C 0.55088 0.6411 0.93898 0.0
C558 C 0.90397 0.5894 0.40501 0.0
C559 C 0.91427 0.57558 0.46253 0.0
H560 H 0.88223 0.5872 0.28101 0.0
C561 C 0.91245 0.54955 0.43438 0.0
H562 H 0.90444 0.6091 0.42611 0.0
C563 C 0.89986 0.53709 0.35181 0.0
C564 C 0.88876 0.55033 0.29502 0.0
H565 H 0.92008 0.53832 0.47758 0.0
H566 H 0.89876 0.51693 0.33265 0.0
C567 C 0.89114 0.57677 0.32204 0.0
C568 C 0.36524 0.89976 0.8483 0.0
C569 C 0.34059 0.88828 0.79276 0.0
H570 H 0.3847 0.92034 0.97324 0.0
C571 C 0.3165 0.89045 0.82085 0.0
H572 H 0.38433 0.89885 0.82816 0.0
C573 C 0.31692 0.90334 0.90396 0.0
C574 C 0.34132 0.91394 0.96042 0.0
H575 H 0.29697 0.88132 0.78053 0.0
H576 H 0.29764 0.90357 0.92604 0.0
C577 C 0.36561 0.91245 0.93093 0.0
C578 C 0.45557 0.36342 0.43167 0.0
C579 C 0.42951 0.33935 0.46056 0.0
H580 H 0.48808 0.38191 0.32937 0.0
C581 C 0.41548 0.3151 0.40358 0.0
H582 H 0.46696 0.38238 0.4744 0.0
C583 C 0.42795 0.31461 0.32052 0.0
C584 C 0.45445 0.33849 0.29288 0.0
H585 H 0.39575 0.29597 0.42519 0.0
H586 H 0.41736 0.29516 0.27991 0.0
C587 C 0.46788 0.36298 0.34904 0.0
C588 C 0.55162 0.91113 0.56492 0.0
C589 C 0.57759 0.91291 0.53615 0.0
H590 H 0.51912 0.89738 0.66717 0.0
C591 C 0.59149 0.90257 0.5932 0.0
H592 H 0.54034 0.91881 0.52211 0.0
C593 C 0.57895 0.8897 0.67627 0.0
C594 C 0.55254 0.8873 0.7038 0.0
H595 H 0.61115 0.90302 0.57165 0.0
H596 H 0.58943 0.88075 0.71697 0.0
C597 C 0.53925 0.89848 0.64756 0.0
C598 C 0.6425 0.53645 0.14316 0.0
C599 C 0.66687 0.54973 0.19985 0.0
H600 H 0.62344 0.53761 0.01746 0.0
C601 C 0.6909 0.57619 0.17273 0.0
H602 H 0.62347 0.51627 0.1624 0.0
C603 C 0.69066 0.5888 0.08976 0.0
C604 C 0.66651 0.57492 0.03233 0.0
H605 H 0.71028 0.58667 0.21369 0.0
H606 H 0.70988 0.60852 0.06858 0.0
C607 C 0.64232 0.54888 0.06059 0.0
C608 C 0.09631 0.64187 0.5556 0.0
C609 C 0.0943 0.66602 0.528 0.0
H610 H 0.11011 0.62293 0.65688 0.0
C611 C 0.10444 0.69003 0.58594 0.0
H612 H 0.0888 0.6231 0.51204 0.0
C613 C 0.11727 0.69018 0.66883 0.0
C614 C 0.11979 0.66617 0.69541 0.0
H615 H 0.10383 0.70922 0.56524 0.0
H616 H 0.12607 0.70947 0.71016 0.0
C617 C 0.10888 0.64195 0.63813 0.0
C618 C 0.42146 0.07994 0.10563 0.0
C619 C 0.43462 0.09543 0.02641 0.0
H620 H 0.42332 0.07889 0.24966 0.0
C621 C 0.45871 0.12365 0.03365 0.0
H622 H 0.40312 0.05811 0.10233 0.0
C623 C 0.46995 0.13573 0.11778 0.0
C624 C 0.45735 0.12002 0.19681 0.0
H625 H 0.46959 0.13627 0.97412 0.0
H626 H 0.48897 0.15715 0.12095 0.0
C627 C 0.43285 0.09208 0.19019 0.0
C628 C 0.31664 0.42842 0.67076 0.0
C629 C 0.34073 0.4549 0.69735 0.0
H630 H 0.29748 0.39593 0.56717 0.0
C631 C 0.36498 0.46812 0.64002 0.0
H632 H 0.29734 0.418 0.71211 0.0
C633 C 0.36499 0.45558 0.55745 0.0
C634 C 0.34077 0.42947 0.52985 0.0
H635 H 0.38405 0.48832 0.65876 0.0
H636 H 0.38379 0.46679 0.51388 0.0
C637 C 0.31673 0.41569 0.58784 0.0
C638 C 0.89937 0.36322 0.14213 0.0
C639 C 0.88858 0.33892 0.19908 0.0
H640 H 0.91948 0.38236 0.01627 0.0
C641 C 0.89138 0.3151 0.17213 0.0
H642 H 0.89793 0.3821 0.16116 0.0
C643 C 0.90435 0.31549 0.08919 0.0
C644 C 0.91436 0.33957 0.03155 0.0
H645 H 0.88269 0.29576 0.2132 0.0
H646 H 0.90516 0.29643 0.06821 0.0
C647 C 0.91209 0.36354 0.05956 0.0
C648 C 0.22558 0.47123 0.26069 0.0
C649 C 0.19976 0.44495 0.27486 0.0
H650 H 0.27036 0.4917 0.22103 0.0
C651 C 0.19919 0.4187 0.25923 0.0
H652 H 0.2263 0.49169 0.27141 0.0
C653 C 0.22426 0.4187 0.23093 0.0
C654 C 0.25002 0.44497 0.21614 0.0
H655 H 0.17935 0.39823 0.26906 0.0
H656 H 0.22357 0.39824 0.22049 0.0
C657 C 0.25055 0.47124 0.2311 0.0
C658 C 0.78245 0.24927 0.73746 0.0
C659 C 0.80801 0.24854 0.72074 0.0
H660 H 0.73792 0.22528 0.77997 0.0
C661 C 0.80841 0.22271 0.73488 0.0
H662 H 0.78189 0.26915 0.72795 0.0
C663 C 0.7834 0.19776 0.76416 0.0
C664 C 0.75788 0.19852 0.78143 0.0
H665 H 0.82806 0.22187 0.72314 0.0
H666 H 0.78394 0.17786 0.77332 0.0
C667 C 0.75755 0.22442 0.76803 0.0
C668 C 0.58831 0.80722 0.24235 0.0
C669 C 0.56211 0.80648 0.22402 0.0
H670 H 0.60869 0.78293 0.28275 0.0
C671 C 0.53582 0.78044 0.23511 0.0
H672 H 0.60878 0.82722 0.2349 0.0
C673 C 0.53574 0.75543 0.2643 0.0
C674 C 0.56197 0.75613 0.28193 0.0
H675 H 0.51537 0.77958 0.22227 0.0
H676 H 0.51527 0.73545 0.27201 0.0
C677 C 0.58826 0.78211 0.27024 0.0
C678 C 0.80837 0.58621 0.7616 0.0
C679 C 0.80794 0.56 0.77643 0.0
H680 H 0.78379 0.60654 0.72391 0.0
C681 C 0.78221 0.53368 0.7619 0.0
H682 H 0.82814 0.60671 0.77172 0.0
C683 C 0.75717 0.53358 0.73272 0.0
C684 C 0.75755 0.55981 0.71856 0.0
H685 H 0.78161 0.51325 0.77204 0.0
H686 H 0.73743 0.51308 0.72231 0.0
C687 C 0.78322 0.58611 0.73374 0.0
C688 C 0.22532 0.80837 0.24758 0.0
C689 C 0.25032 0.80737 0.27129 0.0
H690 H 0.18106 0.78427 0.20275 0.0
C691 C 0.25013 0.78098 0.26542 0.0
H692 H 0.22518 0.82861 0.25098 0.0
C693 C 0.22525 0.75591 0.23608 0.0
C694 C 0.20022 0.75692 0.213 0.0
H695 H 0.26934 0.77988 0.28237 0.0
H696 H 0.22539 0.73568 0.23241 0.0
C697 C 0.20032 0.78322 0.21948 0.0
C698 C 0.41912 0.22335 0.74406 0.0
C699 C 0.445 0.2482 0.76959 0.0
H700 H 0.39921 0.17948 0.69579 0.0
C701 C 0.47124 0.24806 0.76416 0.0
H702 H 0.3987 0.22317 0.74704 0.0
C703 C 0.47158 0.22339 0.73346 0.0
C704 C 0.44567 0.19851 0.70837 0.0
H705 H 0.49148 0.26716 0.78238 0.0
H706 H 0.492 0.22359 0.73018 0.0
C707 C 0.41942 0.19858 0.71428 0.0
loop_
_geom_bond_atom_site_label_1
_geom_bond_atom_site_label_2
_geom_bond_distance
_geom_bond_site_symmetry_2
_ccdc_geom_bond_type
Co0 O3 1.970 . S
Co0 N17 1.989 . S
Co0 O25 1.967 . S
Co0 O32 1.920 . S
Co1 O4 1.966 . S
Co1 N10 2.022 . S
Co1 N18 1.993 . S
Co1 O26 1.941 . S
C2 O3 1.258 . S
C2 O4 1.263 . S
O3 Co0 1.970 . S
O3 C2 1.258 . S
O4 Co1 1.966 . S
O4 C2 1.263 . S
C5 O6 1.235 . S
C5 O32 1.289 . S
O6 C5 1.235 . S
C7 C9 1.400 . S
C7 N10 1.351 . S
C7 C12 1.501 . S
C8 C9 1.387 . S
C8 N11 1.341 . S
C9 C7 1.400 . S
C9 C8 1.387 . S
N10 Co1 2.022 . S
N10 C7 1.351 . S
N10 N11 1.365 . S
N11 C8 1.341 . S
N11 N10 1.365 . S
N11 H31 0.862 . S
C12 C7 1.501 . S
C12 H13 0.961 . S
C12 H14 0.961 . S
C12 H15 0.960 . S
H13 C12 0.961 . S
H14 C12 0.961 . S
H15 C12 0.960 . S
C16 N17 1.342 . S
C16 C20 1.401 . S
C16 C21 1.499 . S
N17 Co0 1.989 . S
N17 C16 1.342 . S
N17 N18 1.388 . S
N18 Co1 1.993 . S
N18 N17 1.388 . S
N18 C19 1.346 . S
C19 N18 1.346 . S
C19 C20 1.396 . S
C19 C29 1.510 . S
C20 C16 1.401 . S
C20 C19 1.396 . S
C21 C16 1.499 . S
C21 H22 0.959 . S
C21 H23 0.960 . S
C21 H24 0.961 . S
H22 C21 0.959 . S
H23 C21 0.960 . S
H24 C21 0.961 . S
O25 Co0 1.967 . S
O25 C33 1.258 . S
O26 Co1 1.941 . S
O26 C33 1.266 . S
H27 C29 0.959 . S
H28 C29 0.961 . S
C29 C19 1.510 . S
C29 H27 0.959 . S
C29 H28 0.961 . S
C29 H30 0.960 . S
H30 C29 0.960 . S
H31 N11 0.862 . S
O32 Co0 1.920 . S
O32 C5 1.289 . S
C33 O25 1.258 . S
C33 O26 1.266 . S
Co34 O37 1.970 . S
Co34 N51 1.989 . S
Co34 O59 1.967 . S
Co34 O66 1.920 . S
Co35 O38 1.966 . S
Co35 N44 2.022 1_556 S
Co35 N52 1.993 . S
Co35 O60 1.941 . S
C36 O37 1.258 . S
C36 O38 1.263 . S
O37 Co34 1.970 . S
O37 C36 1.258 . S
O38 Co35 1.966 . S
O38 C36 1.263 . S
C39 O40 1.235 . S
C39 O66 1.289 . S
O40 C39 1.235 . S
C41 C43 1.400 . S
C41 N44 1.351 . S
C41 C46 1.501 . S
C42 C43 1.387 . S
C42 N45 1.341 . S
C43 C41 1.400 . S
C43 C42 1.387 . S
N44 Co35 2.022 1_554 S
N44 C41 1.351 . S
N44 N45 1.365 . S
N45 C42 1.341 . S
N45 N44 1.365 . S
N45 H65 0.862 . S
C46 C41 1.501 . S
C46 H47 0.961 . S
C46 H48 0.961 . S
C46 H49 0.960 . S
H47 C46 0.961 . S
H48 C46 0.961 . S
H49 C46 0.960 . S
C50 N51 1.342 . S
C50 C54 1.401 . S
C50 C55 1.499 . S
N51 Co34 1.989 . S
N51 C50 1.342 . S
N51 N52 1.388 . S
N52 Co35 1.993 . S
N52 N51 1.388 . S
N52 C53 1.346 . S
C53 N52 1.346 . S
C53 C54 1.396 . S
C53 C63 1.510 . S
C54 C50 1.401 . S
C54 C53 1.396 . S
C55 C50 1.499 . S
C55 H56 0.959 . S
C55 H57 0.960 . S
C55 H58 0.961 . S
H56 C55 0.959 . S
H57 C55 0.960 . S
H58 C55 0.961 . S
O59 Co34 1.967 . S
O59 C67 1.258 . S
O60 Co35 1.941 . S
O60 C67 1.266 . S
H61 C63 0.959 1_554 S
H62 C63 0.961 1_554 S
C63 C53 1.510 . S
C63 H61 0.959 1_556 S
C63 H62 0.961 1_556 S
C63 H64 0.960 1_556 S
H64 C63 0.960 1_554 S
H65 N45 0.862 . S
O66 Co34 1.920 . S
O66 C39 1.289 . S
C67 O59 1.258 . S
C67 O60 1.266 . S
Co68 O71 1.970 . S
Co68 N85 1.989 . S
Co68 O93 1.967 . S
Co68 O100 1.920 . S
Co69 O72 1.966 . S
Co69 N78 2.022 . S
Co69 N86 1.993 . S
Co69 O94 1.941 . S
C70 O71 1.258 . S
C70 O72 1.263 . S
O71 Co68 1.970 . S
O71 C70 1.258 . S
O72 Co69 1.966 . S
O72 C70 1.263 . S
C73 O74 1.235 . S
C73 O100 1.289 . S
O74 C73 1.235 . S
C75 C77 1.400 . S
C75 N78 1.351 . S
C75 C80 1.501 . S
C76 C77 1.387 . S
C76 N79 1.341 . S
C77 C75 1.400 . S
C77 C76 1.387 . S
N78 Co69 2.022 . S
N78 C75 1.351 . S
N78 N79 1.365 . S
N79 C76 1.341 . S
N79 N78 1.365 . S
N79 H99 0.862 . S
C80 C75 1.501 . S
C80 H81 0.961 . S
C80 H82 0.961 . S
C80 H83 0.960 . S
H81 C80 0.961 . S
H82 C80 0.961 . S
H83 C80 0.960 . S
C84 N85 1.342 . S
C84 C88 1.401 . S
C84 C89 1.499 . S
N85 Co68 1.989 . S
N85 C84 1.342 . S
N85 N86 1.388 . S
N86 Co69 1.993 . S
N86 N85 1.388 . S
N86 C87 1.346 . S
C87 N86 1.346 . S
C87 C88 1.396 . S
C87 C97 1.510 . S
C88 C84 1.401 . S
C88 C87 1.396 . S
C89 C84 1.499 . S
C89 H90 0.959 . S
C89 H91 0.960 . S
C89 H92 0.961 . S
H90 C89 0.959 . S
H91 C89 0.960 . S
H92 C89 0.961 . S
O93 Co68 1.967 . S
O93 C101 1.258 . S
O94 Co69 1.941 . S
O94 C101 1.266 . S
H95 C97 0.959 . S
H96 C97 0.961 . S
C97 C87 1.510 . S
C97 H95 0.959 . S
C97 H96 0.961 . S
C97 H98 0.960 . S
H98 C97 0.960 . S
H99 N79 0.862 . S
O100 Co68 1.920 . S
O100 C73 1.289 . S
C101 O93 1.258 . S
C101 O94 1.266 . S
Co102 O105 1.970 . S
Co102 N119 1.989 . S
Co102 O127 1.967 . S
Co102 O134 1.920 . S
Co103 O106 1.966 . S
Co103 N112 2.022 1_556 S
Co103 N120 1.993 . S
Co103 O128 1.941 . S
C104 O105 1.258 . S
C104 O106 1.263 . S
O105 Co102 1.970 . S
O105 C104 1.258 . S
O106 Co103 1.966 . S
O106 C104 1.263 . S
C107 O108 1.235 . S
C107 O134 1.289 . S
O108 C107 1.235 . S
C109 C111 1.400 . S
C109 N112 1.351 . S
C109 C114 1.501 . S
C110 C111 1.387 . S
C110 N113 1.341 . S
C111 C109 1.400 . S
C111 C110 1.387 . S
N112 Co103 2.022 1_554 S
N112 C109 1.351 . S
N112 N113 1.365 . S
N113 C110 1.341 . S
N113 N112 1.365 . S
N113 H133 0.862 . S
C114 C109 1.501 . S
C114 H115 0.961 . S
C114 H116 0.961 . S
C114 H117 0.960 . S
H115 C114 0.961 . S
H116 C114 0.961 . S
H117 C114 0.960 . S
C118 N119 1.342 . S
C118 C122 1.401 . S
C118 C123 1.499 . S
N119 Co102 1.989 . S
N119 C118 1.342 . S
N119 N120 1.388 . S
N120 Co103 1.993 . S
N120 N119 1.388 . S
N120 C121 1.346 . S
C121 N120 1.346 . S
C121 C122 1.396 . S
C121 C131 1.510 . S
C122 C118 1.401 . S
C122 C121 1.396 . S
C123 C118 1.499 . S
C123 H124 0.959 . S
C123 H125 0.960 . S
C123 H126 0.961 . S
H124 C123 0.959 . S
H125 C123 0.960 . S
H126 C123 0.961 . S
O127 Co102 1.967 . S
O127 C135 1.258 . S
O128 Co103 1.941 . S
O128 C135 1.266 . S
H129 C131 0.959 1_554 S
H130 C131 0.961 1_554 S
C131 C121 1.510 . S
C131 H129 0.959 1_556 S
C131 H130 0.961 1_556 S
C131 H132 0.960 1_556 S
H132 C131 0.960 1_554 S
H133 N113 0.862 . S
O134 Co102 1.920 . S
O134 C107 1.289 . S
C135 O127 1.258 . S
C135 O128 1.266 . S
Co136 O139 1.970 . S
Co136 N153 1.989 . S
Co136 O161 1.967 . S
Co136 O168 1.920 . S
Co137 O140 1.966 . S
Co137 N146 2.022 . S
Co137 N154 1.993 . S
Co137 O162 1.941 . S
C138 O139 1.258 . S
C138 O140 1.263 . S
O139 Co136 1.970 . S
O139 C138 1.258 . S
O140 Co137 1.966 . S
O140 C138 1.263 . S
C141 O142 1.235 . S
C141 O168 1.289 . S
O142 C141 1.235 . S
C143 C145 1.400 . S
C143 N146 1.351 . S
C143 C148 1.501 . S
C144 C145 1.387 . S
C144 N147 1.341 . S
C145 C143 1.400 . S
C145 C144 1.387 . S
N146 Co137 2.022 . S
N146 C143 1.351 . S
N146 N147 1.365 . S
N147 C144 1.341 . S
N147 N146 1.365 . S
N147 H167 0.862 . S
C148 C143 1.501 . S
C148 H149 0.961 . S
C148 H150 0.961 . S
C148 H151 0.960 . S
H149 C148 0.961 . S
H150 C148 0.961 . S
H151 C148 0.960 . S
C152 N153 1.342 . S
C152 C156 1.401 . S
C152 C157 1.499 . S
N153 Co136 1.989 . S
N153 C152 1.342 . S
N153 N154 1.388 . S
N154 Co137 1.993 . S
N154 N153 1.388 . S
N154 C155 1.346 . S
C155 N154 1.346 . S
C155 C156 1.396 . S
C155 C165 1.510 . S
C156 C152 1.401 . S
C156 C155 1.396 . S
C157 C152 1.499 . S
C157 H158 0.959 . S
C157 H159 0.960 . S
C157 H160 0.961 . S
H158 C157 0.959 . S
H159 C157 0.960 . S
H160 C157 0.961 . S
O161 Co136 1.967 . S
O161 C169 1.258 . S
O162 Co137 1.941 . S
O162 C169 1.266 . S
H163 C165 0.959 . S
H164 C165 0.961 . S
C165 C155 1.510 . S
C165 H163 0.959 . S
C165 H164 0.961 . S
C165 H166 0.960 . S
H166 C165 0.960 . S
H167 N147 0.862 . S
O168 Co136 1.920 . S
O168 C141 1.289 . S
C169 O161 1.258 . S
C169 O162 1.266 . S
Co170 O173 1.970 . S
Co170 N187 1.989 . S
Co170 O195 1.967 . S
Co170 O202 1.920 . S
Co171 O174 1.966 . S
Co171 N180 2.022 1_556 S
Co171 N188 1.993 . S
Co171 O196 1.941 . S
C172 O173 1.258 . S
C172 O174 1.263 . S
O173 Co170 1.970 . S
O173 C172 1.258 . S
O174 Co171 1.966 . S
O174 C172 1.263 . S
C175 O176 1.235 . S
C175 O202 1.289 . S
O176 C175 1.235 . S
C177 C179 1.400 . S
C177 N180 1.351 . S
C177 C182 1.501 . S
C178 C179 1.387 . S
C178 N181 1.341 . S
C179 C177 1.400 . S
C179 C178 1.387 . S
N180 Co171 2.022 1_554 S
N180 C177 1.351 . S
N180 N181 1.365 . S
N181 C178 1.341 . S
N181 N180 1.365 . S
N181 H201 0.862 . S
C182 C177 1.501 . S
C182 H183 0.961 . S
C182 H184 0.961 . S
C182 H185 0.960 . S
H183 C182 0.961 . S
H184 C182 0.961 . S
H185 C182 0.960 . S
C186 N187 1.342 . S
C186 C190 1.401 . S
C186 C191 1.499 . S
N187 Co170 1.989 . S
N187 C186 1.342 . S
N187 N188 1.388 . S
N188 Co171 1.993 . S
N188 N187 1.388 . S
N188 C189 1.346 . S
C189 N188 1.346 . S
C189 C190 1.396 . S
C189 C199 1.510 . S
C190 C186 1.401 . S
C190 C189 1.396 . S
C191 C186 1.499 . S
C191 H192 0.959 . S
C191 H193 0.960 . S
C191 H194 0.961 . S
H192 C191 0.959 . S
H193 C191 0.960 . S
H194 C191 0.961 . S
O195 Co170 1.967 . S
O195 C203 1.258 . S
O196 Co171 1.941 . S
O196 C203 1.266 . S
H197 C199 0.959 1_554 S
H198 C199 0.961 1_554 S
C199 C189 1.510 . S
C199 H197 0.959 1_556 S
C199 H198 0.961 1_556 S
C199 H200 0.960 1_556 S
H200 C199 0.960 1_554 S
H201 N181 0.862 . S
O202 Co170 1.920 . S
O202 C175 1.289 . S
C203 O195 1.258 . S
C203 O196 1.266 . S
Co204 O207 1.970 . S
Co204 N221 1.989 . S
Co204 O229 1.967 . S
Co204 O236 1.920 . S
Co205 O208 1.966 . S
Co205 N214 2.022 1_554 S
Co205 N222 1.993 . S
Co205 O230 1.941 . S
C206 O207 1.258 . S
C206 O208 1.263 . S
O207 Co204 1.970 . S
O207 C206 1.258 . S
O208 Co205 1.966 . S
O208 C206 1.263 . S
C209 O210 1.235 . S
C209 O236 1.289 . S
O210 C209 1.235 . S
C211 C213 1.400 . S
C211 N214 1.351 . S
C211 C216 1.501 . S
C212 C213 1.387 . S
C212 N215 1.341 . S
C213 C211 1.400 . S
C213 C212 1.387 . S
N214 Co205 2.022 1_556 S
N214 C211 1.351 . S
N214 N215 1.365 . S
N215 C212 1.341 . S
N215 N214 1.365 . S
N215 H235 0.862 . S
C216 C211 1.501 . S
C216 H217 0.961 . S
C216 H218 0.961 . S
C216 H219 0.960 . S
H217 C216 0.961 . S
H218 C216 0.961 . S
H219 C216 0.960 . S
C220 N221 1.342 . S
C220 C224 1.401 . S
C220 C225 1.499 . S
N221 Co204 1.989 . S
N221 C220 1.342 . S
N221 N222 1.388 . S
N222 Co205 1.993 . S
N222 N221 1.388 . S
N222 C223 1.346 . S
C223 N222 1.346 . S
C223 C224 1.396 . S
C223 C233 1.510 . S
C224 C220 1.401 . S
C224 C223 1.396 . S
C225 C220 1.499 . S
C225 H226 0.959 . S
C225 H227 0.960 . S
C225 H228 0.961 . S
H226 C225 0.959 . S
H227 C225 0.960 . S
H228 C225 0.961 . S
O229 Co204 1.967 . S
O229 C237 1.258 . S
O230 Co205 1.941 . S
O230 C237 1.266 . S
H231 C233 0.959 1_556 S
H232 C233 0.961 1_556 S
C233 C223 1.510 . S
C233 H231 0.959 1_554 S
C233 H232 0.961 1_554 S
C233 H234 0.960 1_554 S
H234 C233 0.960 1_556 S
H235 N215 0.862 . S
O236 Co204 1.920 . S
O236 C209 1.289 . S
C237 O229 1.258 . S
C237 O230 1.266 . S
Co238 O241 1.970 . S
Co238 N255 1.989 . S
Co238 O263 1.967 . S
Co238 O270 1.920 . S
Co239 O242 1.966 . S
Co239 N248 2.022 . S
Co239 N256 1.993 . S
Co239 O264 1.941 . S
C240 O241 1.258 . S
C240 O242 1.263 . S
O241 Co238 1.970 . S
O241 C240 1.258 . S
O242 Co239 1.966 . S
O242 C240 1.263 . S
C243 O244 1.235 . S
C243 O270 1.289 . S
O244 C243 1.235 . S
C245 C247 1.400 . S
C245 N248 1.351 . S
C245 C250 1.501 . S
C246 C247 1.387 . S
C246 N249 1.341 . S
C247 C245 1.400 . S
C247 C246 1.387 . S
N248 Co239 2.022 . S
N248 C245 1.351 . S
N248 N249 1.365 . S
N249 C246 1.341 . S
N249 N248 1.365 . S
N249 H269 0.862 . S
C250 C245 1.501 . S
C250 H251 0.961 . S
C250 H252 0.961 . S
C250 H253 0.960 . S
H251 C250 0.961 . S
H252 C250 0.961 . S
H253 C250 0.960 . S
C254 N255 1.342 . S
C254 C258 1.401 . S
C254 C259 1.499 . S
N255 Co238 1.989 . S
N255 C254 1.342 . S
N255 N256 1.388 . S
N256 Co239 1.993 . S
N256 N255 1.388 . S
N256 C257 1.346 . S
C257 N256 1.346 . S
C257 C258 1.396 . S
C257 C267 1.510 . S
C258 C254 1.401 . S
C258 C257 1.396 . S
C259 C254 1.499 . S
C259 H260 0.959 . S
C259 H261 0.960 . S
C259 H262 0.961 . S
H260 C259 0.959 . S
H261 C259 0.960 . S
H262 C259 0.961 . S
O263 Co238 1.967 . S
O263 C271 1.258 . S
O264 Co239 1.941 . S
O264 C271 1.266 . S
H265 C267 0.959 . S
H266 C267 0.961 . S
C267 C257 1.510 . S
C267 H265 0.959 . S
C267 H266 0.961 . S
C267 H268 0.960 . S
H268 C267 0.960 . S
H269 N249 0.862 . S
O270 Co238 1.920 . S
O270 C243 1.289 . S
C271 O263 1.258 . S
C271 O264 1.266 . S
Co272 O275 1.970 . S
Co272 N289 1.989 . S
Co272 O297 1.967 . S
Co272 O304 1.920 . S
Co273 O276 1.966 . S
Co273 N282 2.022 1_554 S
Co273 N290 1.993 . S
Co273 O298 1.941 . S
C274 O275 1.258 . S
C274 O276 1.263 . S
O275 Co272 1.970 . S
O275 C274 1.258 . S
O276 Co273 1.966 . S
O276 C274 1.263 . S
C277 O278 1.235 . S
C277 O304 1.289 . S
O278 C277 1.235 . S
C279 C281 1.400 . S
C279 N282 1.351 . S
C279 C284 1.501 . S
C280 C281 1.387 . S
C280 N283 1.341 . S
C281 C279 1.400 . S
C281 C280 1.387 . S
N282 Co273 2.022 1_556 S
N282 C279 1.351 . S
N282 N283 1.365 . S
N283 C280 1.341 . S
N283 N282 1.365 . S
N283 H303 0.862 . S
C284 C279 1.501 . S
C284 H285 0.961 . S
C284 H286 0.961 . S
C284 H287 0.960 . S
H285 C284 0.961 . S
H286 C284 0.961 . S
H287 C284 0.960 . S
C288 N289 1.342 . S
C288 C292 1.401 . S
C288 C293 1.499 . S
N289 Co272 1.989 . S
N289 C288 1.342 . S
N289 N290 1.388 . S
N290 Co273 1.993 . S
N290 N289 1.388 . S
N290 C291 1.346 . S
C291 N290 1.346 . S
C291 C292 1.396 . S
C291 C301 1.510 . S
C292 C288 1.401 . S
C292 C291 1.396 . S
C293 C288 1.499 . S
C293 H294 0.959 . S
C293 H295 0.960 . S
C293 H296 0.961 . S
H294 C293 0.959 . S
H295 C293 0.960 . S
H296 C293 0.961 . S
O297 Co272 1.967 . S
O297 C305 1.258 . S
O298 Co273 1.941 . S
O298 C305 1.266 . S
H299 C301 0.959 1_556 S
H300 C301 0.961 1_556 S
C301 C291 1.510 . S
C301 H299 0.959 1_554 S
C301 H300 0.961 1_554 S
C301 H302 0.960 1_554 S
H302 C301 0.960 1_556 S
H303 N283 0.862 . S
O304 Co272 1.920 . S
O304 C277 1.289 . S
C305 O297 1.258 . S
C305 O298 1.266 . S
Co306 O309 1.970 . S
Co306 N323 1.989 . S
Co306 O331 1.967 . S
Co306 O338 1.920 . S
Co307 O310 1.966 . S
Co307 N316 2.022 . S
Co307 N324 1.993 . S
Co307 O332 1.941 . S
C308 O309 1.258 . S
C308 O310 1.263 . S
O309 Co306 1.970 . S
O309 C308 1.258 . S
O310 Co307 1.966 . S
O310 C308 1.263 . S
C311 O312 1.235 . S
C311 O338 1.289 . S
O312 C311 1.235 . S
C313 C315 1.400 . S
C313 N316 1.351 . S
C313 C318 1.501 . S
C314 C315 1.387 . S
C314 N317 1.341 . S
C315 C313 1.400 . S
C315 C314 1.387 . S
N316 Co307 2.022 . S
N316 C313 1.351 . S
N316 N317 1.365 . S
N317 C314 1.341 . S
N317 N316 1.365 . S
N317 H337 0.862 . S
C318 C313 1.501 . S
C318 H319 0.961 . S
C318 H320 0.961 . S
C318 H321 0.960 . S
H319 C318 0.961 . S
H320 C318 0.961 . S
H321 C318 0.960 . S
C322 N323 1.342 . S
C322 C326 1.401 . S
C322 C327 1.499 . S
N323 Co306 1.989 . S
N323 C322 1.342 . S
N323 N324 1.388 . S
N324 Co307 1.993 . S
N324 N323 1.388 . S
N324 C325 1.346 . S
C325 N324 1.346 . S
C325 C326 1.396 . S
C325 C335 1.510 . S
C326 C322 1.401 . S
C326 C325 1.396 . S
C327 C322 1.499 . S
C327 H328 0.959 . S
C327 H329 0.960 . S
C327 H330 0.961 . S
H328 C327 0.959 . S
H329 C327 0.960 . S
H330 C327 0.961 . S
O331 Co306 1.967 . S
O331 C339 1.258 . S
O332 Co307 1.941 . S
O332 C339 1.266 . S
H333 C335 0.959 . S
H334 C335 0.961 . S
C335 C325 1.510 . S
C335 H333 0.959 . S
C335 H334 0.961 . S
C335 H336 0.960 . S
H336 C335 0.960 . S
H337 N317 0.862 . S
O338 Co306 1.920 . S
O338 C311 1.289 . S
C339 O331 1.258 . S
C339 O332 1.266 . S
Co340 O343 1.970 . S
Co340 N357 1.989 . S
Co340 O365 1.967 . S
Co340 O372 1.920 . S
Co341 O344 1.966 . S
Co341 N350 2.022 1_554 S
Co341 N358 1.993 . S
Co341 O366 1.941 . S
C342 O343 1.258 . S
C342 O344 1.263 . S
O343 Co340 1.970 . S
O343 C342 1.258 . S
O344 Co341 1.966 . S
O344 C342 1.263 . S
C345 O346 1.235 . S
C345 O372 1.289 . S
O346 C345 1.235 . S
C347 C349 1.400 . S
C347 N350 1.351 . S
C347 C352 1.501 . S
C348 C349 1.387 . S
C348 N351 1.341 . S
C349 C347 1.400 . S
C349 C348 1.387 . S
N350 Co341 2.022 1_556 S
N350 C347 1.351 . S
N350 N351 1.365 . S
N351 C348 1.341 . S
N351 N350 1.365 . S
N351 H371 0.862 . S
C352 C347 1.501 . S
C352 H353 0.961 . S
C352 H354 0.961 . S
C352 H355 0.960 . S
H353 C352 0.961 . S
H354 C352 0.961 . S
H355 C352 0.960 . S
C356 N357 1.342 . S
C356 C360 1.401 . S
C356 C361 1.499 . S
N357 Co340 1.989 . S
N357 C356 1.342 . S
N357 N358 1.388 . S
N358 Co341 1.993 . S
N358 N357 1.388 . S
N358 C359 1.346 . S
C359 N358 1.346 . S
C359 C360 1.396 . S
C359 C369 1.510 . S
C360 C356 1.401 . S
C360 C359 1.396 . S
C361 C356 1.499 . S
C361 H362 0.959 . S
C361 H363 0.960 . S
C361 H364 0.961 . S
H362 C361 0.959 . S
H363 C361 0.960 . S
H364 C361 0.961 . S
O365 Co340 1.967 . S
O365 C373 1.258 . S
O366 Co341 1.941 . S
O366 C373 1.266 . S
H367 C369 0.959 1_556 S
H368 C369 0.961 1_556 S
C369 C359 1.510 . S
C369 H367 0.959 1_554 S
C369 H368 0.961 1_554 S
C369 H370 0.960 1_554 S
H370 C369 0.960 1_556 S
H371 N351 0.862 . S
O372 Co340 1.920 . S
O372 C345 1.289 . S
C373 O365 1.258 . S
C373 O366 1.266 . S
Co374 O377 1.970 . S
Co374 N391 1.989 . S
Co374 O399 1.967 . S
Co374 O406 1.920 . S
Co375 O378 1.966 . S
Co375 N384 2.022 . S
Co375 N392 1.993 . S
Co375 O400 1.941 . S
C376 O377 1.258 . S
C376 O378 1.263 . S
O377 Co374 1.970 . S
O377 C376 1.258 . S
O378 Co375 1.966 . S
O378 C376 1.263 . S
C379 O380 1.235 . S
C379 O406 1.289 . S
O380 C379 1.235 . S
C381 C383 1.400 . S
C381 N384 1.351 . S
C381 C386 1.501 . S
C382 C383 1.387 . S
C382 N385 1.341 . S
C383 C381 1.400 . S
C383 C382 1.387 . S
N384 Co375 2.022 . S
N384 C381 1.351 . S
N384 N385 1.365 . S
N385 C382 1.341 . S
N385 N384 1.365 . S
N385 H405 0.862 . S
C386 C381 1.501 . S
C386 H387 0.961 . S
C386 H388 0.961 . S
C386 H389 0.960 . S
H387 C386 0.961 . S
H388 C386 0.961 . S
H389 C386 0.960 . S
C390 N391 1.342 . S
C390 C394 1.401 . S
C390 C395 1.499 . S
N391 Co374 1.989 . S
N391 C390 1.342 . S
N391 N392 1.388 . S
N392 Co375 1.993 . S
N392 N391 1.388 . S
N392 C393 1.346 . S
C393 N392 1.346 . S
C393 C394 1.396 . S
C393 C403 1.510 . S
C394 C390 1.401 . S
C394 C393 1.396 . S
C395 C390 1.499 . S
C395 H396 0.959 . S
C395 H397 0.960 . S
C395 H398 0.961 . S
H396 C395 0.959 . S
H397 C395 0.960 . S
H398 C395 0.961 . S
O399 Co374 1.967 . S
O399 C407 1.258 . S
O400 Co375 1.941 . S
O400 C407 1.266 . S
H401 C403 0.959 . S
H402 C403 0.961 . S
C403 C393 1.510 . S
C403 H401 0.959 . S
C403 H402 0.961 . S
C403 H404 0.960 . S
H404 C403 0.960 . S
H405 N385 0.862 . S
O406 Co374 1.920 . S
O406 C379 1.289 . S
C407 O399 1.258 . S
C407 O400 1.266 . S
C408 C409 1.387 . S
C408 H412 0.950 . S
C408 C417 1.409 . S
C409 C408 1.387 . S
C409 C411 1.379 1_455 S
H410 C417 0.940 . S
C411 C409 1.379 1_655 S
C411 C413 1.409 . S
C411 H415 0.941 . S
H412 C408 0.950 . S
C413 C411 1.409 . S
C413 C414 1.387 . S
C413 H416 0.950 . S
C414 C413 1.387 . S
C414 C417 1.379 1_655 S
H415 C411 0.941 . S
H416 C413 0.950 . S
C417 C408 1.409 . S
C417 H410 0.940 . S
C417 C414 1.379 1_455 S
C418 C419 1.387 . S
C418 H422 0.950 . S
C418 C427 1.390 1_546 S
C419 C418 1.387 . S
C419 C421 1.387 . S
H420 C427 0.950 . S
C421 C419 1.387 . S
C421 C423 1.390 1_546 S
C421 H425 0.950 . S
H422 C418 0.950 . S
C423 C421 1.390 1_564 S
C423 C424 1.387 . S
C423 H426 0.950 . S
C424 C423 1.387 . S
C424 C427 1.387 . S
H425 C421 0.950 . S
H426 C423 0.950 . S
C427 C418 1.390 1_564 S
C427 H420 0.950 . S
C427 C424 1.387 . S
C428 C429 1.387 . S
C428 H432 0.950 . S
C428 C437 1.390 . S
C429 C428 1.387 . S
C429 C431 1.387 . S
H430 C437 0.950 . S
C431 C429 1.387 . S
C431 C433 1.390 . S
C431 H435 0.950 . S
H432 C428 0.950 . S
C433 C431 1.390 . S
C433 C434 1.387 . S
C433 H436 0.950 . S
C434 C433 1.387 . S
C434 C437 1.387 . S
H435 C431 0.950 . S
H436 C433 0.950 . S
C437 C428 1.390 . S
C437 H430 0.950 . S
C437 C434 1.387 . S
C438 C439 1.387 . S
C438 H442 0.950 . S
C438 C447 1.390 1_454 S
C439 C438 1.387 . S
C439 C441 1.387 . S
H440 C447 0.950 . S
C441 C439 1.387 . S
C441 C443 1.390 1_454 S
C441 H445 0.950 . S
H442 C438 0.950 . S
C443 C441 1.390 1_656 S
C443 C444 1.387 . S
C443 H446 0.950 . S
C444 C443 1.387 . S
C444 C447 1.387 . S
H445 C441 0.950 . S
H446 C443 0.950 . S
C447 C438 1.390 1_656 S
C447 H440 0.950 . S
C447 C444 1.387 . S
C448 C449 1.387 . S
C448 H452 0.950 . S
C448 C457 1.390 1_545 S
C449 C448 1.387 . S
C449 C451 1.387 . S
H450 C457 0.950 . S
C451 C449 1.387 . S
C451 C453 1.390 1_545 S
C451 H455 0.950 . S
H452 C448 0.950 . S
C453 C451 1.390 1_565 S
C453 C454 1.387 . S
C453 H456 0.950 . S
C454 C453 1.387 . S
C454 C457 1.387 . S
H455 C451 0.950 . S
H456 C453 0.950 . S
C457 C448 1.390 1_565 S
C457 H450 0.950 . S
C457 C454 1.387 . S
C458 C459 1.387 . S
C458 H462 0.950 . S
C458 C467 1.390 1_556 S
C459 C458 1.387 . S
C459 C461 1.387 . S
H460 C467 0.950 . S
C461 C459 1.387 . S
C461 C463 1.390 1_556 S
C461 H465 0.950 . S
H462 C458 0.950 . S
C463 C461 1.390 1_554 S
C463 C464 1.387 . S
C463 H466 0.950 . S
C464 C463 1.387 . S
C464 C467 1.387 . S
H465 C461 0.950 . S
H466 C463 0.950 . S
C467 C458 1.390 1_554 S
C467 H460 0.950 . S
C467 C464 1.387 . S
C468 C469 1.387 . S
C468 H472 0.950 . S
C468 C477 1.390 . S
C469 C468 1.387 . S
C469 C471 1.387 . S
H470 C477 0.950 . S
C471 C469 1.387 . S
C471 C473 1.390 . S
C471 H475 0.950 . S
H472 C468 0.950 . S
C473 C471 1.390 . S
C473 C474 1.387 . S
C473 H476 0.950 . S
C474 C473 1.387 . S
C474 C477 1.387 . S
H475 C471 0.950 . S
H476 C473 0.950 . S
C477 C468 1.390 . S
C477 H470 0.950 . S
C477 C474 1.387 . S
C478 C479 1.387 . S
C478 H482 0.950 . S
C478 C487 1.390 . S
C479 C478 1.387 . S
C479 C481 1.387 . S
H480 C487 0.950 . S
C481 C479 1.387 . S
C481 C483 1.390 . S
C481 H485 0.950 . S
H482 C478 0.950 . S
C483 C481 1.390 . S
C483 C484 1.387 . S
C483 H486 0.950 . S
C484 C483 1.387 . S
C484 C487 1.387 . S
H485 C481 0.950 . S
H486 C483 0.950 . S
C487 C478 1.390 . S
C487 H480 0.950 . S
C487 C484 1.387 . S
C488 C489 1.387 . S
C488 H492 0.950 . S
C488 C497 1.390 . S
C489 C488 1.387 . S
C489 C491 1.387 . S
H490 C497 0.950 . S
C491 C489 1.387 . S
C491 C493 1.390 . S
C491 H495 0.950 . S
H492 C488 0.950 . S
C493 C491 1.390 . S
C493 C494 1.387 . S
C493 H496 0.950 . S
C494 C493 1.387 . S
C494 C497 1.387 . S
H495 C491 0.950 . S
H496 C493 0.950 . S
C497 C488 1.390 . S
C497 H490 0.950 . S
C497 C494 1.387 . S
C498 C499 1.387 . S
C498 H502 0.950 . S
C498 C507 1.390 . S
C499 C498 1.387 . S
C499 C501 1.387 . S
H500 C507 0.950 . S
C501 C499 1.387 . S
C501 C503 1.390 . S
C501 H505 0.950 . S
H502 C498 0.950 . S
C503 C501 1.390 . S
C503 C504 1.387 . S
C503 H506 0.950 . S
C504 C503 1.387 . S
C504 C507 1.387 . S
H505 C501 0.950 . S
H506 C503 0.950 . S
C507 C498 1.390 . S
C507 H500 0.950 . S
C507 C504 1.387 . S
C508 C509 1.387 . S
C508 H512 0.950 . S
C508 C517 1.390 . S
C509 C508 1.387 . S
C509 C511 1.387 . S
H510 C517 0.950 . S
C511 C509 1.387 . S
C511 C513 1.390 . S
C511 H515 0.950 . S
H512 C508 0.950 . S
C513 C511 1.390 . S
C513 C514 1.387 . S
C513 H516 0.950 . S
C514 C513 1.387 . S
C514 C517 1.387 . S
H515 C511 0.950 . S
H516 C513 0.950 . S
C517 C508 1.390 . S
C517 H510 0.950 . S
C517 C514 1.387 . S
C518 C519 1.387 . S
C518 H522 0.950 . S
C518 C527 1.390 . S
C519 C518 1.387 . S
C519 C521 1.387 . S
H520 C527 0.950 . S
C521 C519 1.387 . S
C521 C523 1.390 . S
C521 H525 0.950 . S
H522 C518 0.950 . S
C523 C521 1.390 . S
C523 C524 1.387 . S
C523 H526 0.950 . S
C524 C523 1.387 . S
C524 C527 1.387 . S
H525 C521 0.950 . S
H526 C523 0.950 . S
C527 C518 1.390 . S
C527 H520 0.950 . S
C527 C524 1.387 . S
C528 C529 1.387 . S
C528 H532 0.950 . S
C528 C537 1.390 . S
C529 C528 1.387 . S
C529 C531 1.387 . S
H530 C537 0.950 . S
C531 C529 1.387 . S
C531 C533 1.390 . S
C531 H535 0.950 . S
H532 C528 0.950 . S
C533 C531 1.390 . S
C533 C534 1.387 . S
C533 H536 0.950 . S
C534 C533 1.387 . S
C534 C537 1.387 . S
H535 C531 0.950 . S
H536 C533 0.950 . S
C537 C528 1.390 . S
C537 H530 0.950 . S
C537 C534 1.387 . S
C538 C539 1.387 . S
C538 H542 0.950 . S
C538 C547 1.390 . S
C539 C538 1.387 . S
C539 C541 1.387 . S
H540 C547 0.950 . S
C541 C539 1.387 . S
C541 C543 1.390 . S
C541 H545 0.950 . S
H542 C538 0.950 . S
C543 C541 1.390 . S
C543 C544 1.387 . S
C543 H546 0.950 . S
C544 C543 1.387 . S
C544 C547 1.387 . S
H545 C541 0.950 . S
H546 C543 0.950 . S
C547 C538 1.390 . S
C547 H540 0.950 . S
C547 C544 1.387 . S
C548 C549 1.387 . S
C548 H552 0.950 . S
C548 C557 1.390 . S
C549 C548 1.387 . S
C549 C551 1.387 . S
H550 C557 0.950 . S
C551 C549 1.387 . S
C551 C553 1.390 . S
C551 H555 0.950 . S
H552 C548 0.950 . S
C553 C551 1.390 . S
C553 C554 1.387 . S
C553 H556 0.950 . S
C554 C553 1.387 . S
C554 C557 1.387 . S
H555 C551 0.950 . S
H556 C553 0.950 . S
C557 C548 1.390 . S
C557 H550 0.950 . S
C557 C554 1.387 . S
C558 C559 1.387 . S
C558 H562 0.950 . S
C558 C567 1.390 . S
C559 C558 1.387 . S
C559 C561 1.387 . S
H560 C567 0.950 . S
C561 C559 1.387 . S
C561 C563 1.390 . S
C561 H565 0.950 . S
H562 C558 0.950 . S
C563 C561 1.390 . S
C563 C564 1.387 . S
C563 H566 0.950 . S
C564 C563 1.387 . S
C564 C567 1.387 . S
H565 C561 0.950 . S
H566 C563 0.950 . S
C567 C558 1.390 . S
C567 H560 0.950 . S
C567 C564 1.387 . S
C568 C569 1.387 . S
C568 H572 0.950 . S
C568 C577 1.390 . S
C569 C568 1.387 . S
C569 C571 1.387 . S
H570 C577 0.950 . S
C571 C569 1.387 . S
C571 C573 1.390 . S
C571 H575 0.950 . S
H572 C568 0.950 . S
C573 C571 1.390 . S
C573 C574 1.387 . S
C573 H576 0.950 1_556 S
C574 C573 1.387 . S
C574 C577 1.387 . S
H575 C571 0.950 . S
H576 C573 0.950 1_554 S
C577 C568 1.390 . S
C577 H570 0.950 . S
C577 C574 1.387 . S
C578 C579 1.387 . S
C578 H582 0.950 . S
C578 C587 1.390 . S
C579 C578 1.387 . S
C579 C581 1.387 . S
H580 C587 0.950 . S
C581 C579 1.387 . S
C581 C583 1.390 . S
C581 H585 0.950 . S
H582 C578 0.950 . S
C583 C581 1.390 . S
C583 C584 1.387 . S
C583 H586 0.950 . S
C584 C583 1.387 . S
C584 C587 1.387 . S
H585 C581 0.950 . S
H586 C583 0.950 . S
C587 C578 1.390 . S
C587 H580 0.950 . S
C587 C584 1.387 . S
C588 C589 1.387 . S
C588 H592 0.950 . S
C588 C597 1.390 . S
C589 C588 1.387 . S
C589 C591 1.387 . S
H590 C597 0.950 . S
C591 C589 1.387 . S
C591 C593 1.390 . S
C591 H595 0.950 . S
H592 C588 0.950 . S
C593 C591 1.390 . S
C593 C594 1.387 . S
C593 H596 0.950 . S
C594 C593 1.387 . S
C594 C597 1.387 . S
H595 C591 0.950 . S
H596 C593 0.950 . S
C597 C588 1.390 . S
C597 H590 0.950 . S
C597 C594 1.387 . S
C598 C599 1.387 . S
C598 H602 0.950 . S
C598 C607 1.390 . S
C599 C598 1.387 . S
C599 C601 1.387 . S
H600 C607 0.950 . S
C601 C599 1.387 . S
C601 C603 1.390 . S
C601 H605 0.950 . S
H602 C598 0.950 . S
C603 C601 1.390 . S
C603 C604 1.387 . S
C603 H606 0.950 . S
C604 C603 1.387 . S
C604 C607 1.387 . S
H605 C601 0.950 . S
H606 C603 0.950 . S
C607 C598 1.390 . S
C607 H600 0.950 . S
C607 C604 1.387 . S
C608 C609 1.387 . S
C608 H612 0.950 . S
C608 C617 1.390 . S
C609 C608 1.387 . S
C609 C611 1.387 . S
H610 C617 0.950 . S
C611 C609 1.387 . S
C611 C613 1.390 . S
C611 H615 0.950 . S
H612 C608 0.950 . S
C613 C611 1.390 . S
C613 C614 1.387 . S
C613 H616 0.950 . S
C614 C613 1.387 . S
C614 C617 1.387 . S
H615 C611 0.950 . S
H616 C613 0.950 . S
C617 C608 1.390 . S
C617 H610 0.950 . S
C617 C614 1.387 . S
C618 C619 1.387 . S
C618 H622 0.950 . S
C618 C627 1.390 . S
C619 C618 1.387 . S
C619 C621 1.387 . S
H620 C627 0.950 . S
C621 C619 1.387 . S
C621 C623 1.390 . S
C621 H625 0.950 1_554 S
H622 C618 0.950 . S
C623 C621 1.390 . S
C623 C624 1.387 . S
C623 H626 0.950 . S
C624 C623 1.387 . S
C624 C627 1.387 . S
H625 C621 0.950 1_556 S
H626 C623 0.950 . S
C627 C618 1.390 . S
C627 H620 0.950 . S
C627 C624 1.387 . S
C628 C629 1.387 . S
C628 H632 0.950 . S
C628 C637 1.390 . S
C629 C628 1.387 . S
C629 C631 1.387 . S
H630 C637 0.950 . S
C631 C629 1.387 . S
C631 C633 1.390 . S
C631 H635 0.950 . S
H632 C628 0.950 . S
C633 C631 1.390 . S
C633 C634 1.387 . S
C633 H636 0.950 . S
C634 C633 1.387 . S
C634 C637 1.387 . S
H635 C631 0.950 . S
H636 C633 0.950 . S
C637 C628 1.390 . S
C637 H630 0.950 . S
C637 C634 1.387 . S
C638 C639 1.387 . S
C638 H642 0.950 . S
C638 C647 1.390 . S
C639 C638 1.387 . S
C639 C641 1.387 . S
H640 C647 0.950 . S
C641 C639 1.387 . S
C641 C643 1.390 . S
C641 H645 0.950 . S
H642 C638 0.950 . S
C643 C641 1.390 . S
C643 C644 1.387 . S
C643 H646 0.950 . S
C644 C643 1.387 . S
C644 C647 1.387 . S
H645 C641 0.950 . S
H646 C643 0.950 . S
C647 C638 1.390 . S
C647 H640 0.950 . S
C647 C644 1.387 . S
C648 C649 1.387 . S
C648 H652 0.950 . S
C648 C657 1.390 . S
C649 C648 1.387 . S
C649 C651 1.387 . S
H650 C657 0.950 . S
C651 C649 1.387 . S
C651 C653 1.390 . S
C651 H655 0.950 . S
H652 C648 0.950 . S
C653 C651 1.390 . S
C653 C654 1.387 . S
C653 H656 0.950 . S
C654 C653 1.387 . S
C654 C657 1.387 . S
H655 C651 0.950 . S
H656 C653 0.950 . S
C657 C648 1.390 . S
C657 H650 0.950 . S
C657 C654 1.387 . S
C658 C659 1.387 . S
C658 H662 0.950 . S
C658 C667 1.390 . S
C659 C658 1.387 . S
C659 C661 1.387 . S
H660 C667 0.950 . S
C661 C659 1.387 . S
C661 C663 1.390 . S
C661 H665 0.950 . S
H662 C658 0.950 . S
C663 C661 1.390 . S
C663 C664 1.387 . S
C663 H666 0.950 . S
C664 C663 1.387 . S
C664 C667 1.387 . S
H665 C661 0.950 . S
H666 C663 0.950 . S
C667 C658 1.390 . S
C667 H660 0.950 . S
C667 C664 1.387 . S
C668 C669 1.387 . S
C668 H672 0.950 . S
C668 C677 1.390 . S
C669 C668 1.387 . S
C669 C671 1.387 . S
H670 C677 0.950 . S
C671 C669 1.387 . S
C671 C673 1.390 . S
C671 H675 0.950 . S
H672 C668 0.950 . S
C673 C671 1.390 . S
C673 C674 1.387 . S
C673 H676 0.950 . S
C674 C673 1.387 . S
C674 C677 1.387 . S
H675 C671 0.950 . S
H676 C673 0.950 . S
C677 C668 1.390 . S
C677 H670 0.950 . S
C677 C674 1.387 . S
C678 C679 1.387 . S
C678 H682 0.950 . S
C678 C687 1.390 . S
C679 C678 1.387 . S
C679 C681 1.387 . S
H680 C687 0.950 . S
C681 C679 1.387 . S
C681 C683 1.390 . S
C681 H685 0.950 . S
H682 C678 0.950 . S
C683 C681 1.390 . S
C683 C684 1.387 . S
C683 H686 0.950 . S
C684 C683 1.387 . S
C684 C687 1.387 . S
H685 C681 0.950 . S
H686 C683 0.950 . S
C687 C678 1.390 . S
C687 H680 0.950 . S
C687 C684 1.387 . S
C688 C689 1.387 . S
C688 H692 0.950 . S
C688 C697 1.390 . S
C689 C688 1.387 . S
C689 C691 1.387 . S
H690 C697 0.950 . S
C691 C689 1.387 . S
C691 C693 1.390 . S
C691 H695 0.950 . S
H692 C688 0.950 . S
C693 C691 1.390 . S
C693 C694 1.387 . S
C693 H696 0.950 . S
C694 C693 1.387 . S
C694 C697 1.387 . S
H695 C691 0.950 . S
H696 C693 0.950 . S
C697 C688 1.390 . S
C697 H690 0.950 . S
C697 C694 1.387 . S
C698 C699 1.387 . S
C698 H702 0.950 . S
C698 C707 1.390 . S
C699 C698 1.387 . S
C699 C701 1.387 . S
H700 C707 0.950 . S
C701 C699 1.387 . S
C701 C703 1.390 . S
C701 H705 0.950 . S
H702 C698 0.950 . S
C703 C701 1.390 . S
C703 C704 1.387 . S
C703 H706 0.950 . S
C704 C703 1.387 . S
C704 C707 1.387 . S
H705 C701 0.950 . S
H706 C703 0.950 . S
C707 C698 1.390 . S
C707 H700 0.950 . S
C707 C704 1.387 . S
C409 C2 1.690 . S
C414 C376 1.690 . S
C419 C36 1.689 . S
C424 C206 1.689 . S
C429 C240 1.690 . S
C434 C70 1.690 . S
C439 C274 1.689 . S
C444 C104 1.690 . S
C449 C308 1.689 . S
C454 C138 1.689 . S
C459 C172 1.692 . S
C464 C342 1.692 . S
C469 C305 1.606 . S
C474 C33 1.606 . S
C479 C339 1.606 . S
C484 C67 1.606 . S
C489 C101 1.606 . S
C494 C373 1.606 . S
C499 C135 1.607 . S
C504 C407 1.607 . S
C509 C237 1.606 . S
C514 C169 1.606 . S
C519 C203 1.606 . S
C524 C271 1.606 . S
C529 C9 1.400 . S
C534 C5 1.397 1_556 S
C539 C39 1.394 . S
C544 C43 1.398 . S
C549 C77 1.399 . S
C554 C73 1.397 1_556 S
C559 C107 1.394 . S
C564 C111 1.398 . S
C569 C145 1.398 . S
C574 C141 1.397 1_556 S
C579 C175 1.397 . S
C584 C179 1.399 . S
C589 C209 1.397 . S
C594 C213 1.399 . S
C599 C247 1.399 . S
C604 C243 1.397 1_554 S
C609 C277 1.397 . S
C614 C281 1.399 . S
C619 C311 1.395 1_554 S
C624 C315 1.397 . S
C629 C349 1.400 . S
C634 C345 1.395 . S
C639 C383 1.399 . S
C644 C379 1.397 1_554 S
C649 C20 1.568 . S
C654 C360 1.568 . S
C659 C394 1.569 . S
C664 C54 1.569 . S
C669 C224 1.569 . S
C674 C88 1.570 . S
C679 C122 1.570 . S
C684 C258 1.570 . S
C689 C156 1.569 . S
C694 C292 1.569 . S
C699 C190 1.570 . S
C704 C326 1.570 . S
