# Generated by pormake.
# Topology umm, (4)-cn, num edge types: 1
# Building blocks:
#     Node 0, Type 0, BuildingBlock: ESEHIV_clean_sbu_0, # of connection points: 4
#     Node 1, Type 0, BuildingBlock: ESEHIV_clean_sbu_0, # of connection points: 4
#     Node 2, Type 0, BuildingBlock: ESEHIV_clean_sbu_0, # of connection points: 4
#     Node 3, Type 0, BuildingBlock: ESEHIV_clean_sbu_0, # of connection points: 4
#     Node 4, Type 0, BuildingBlock: ESEHIV_clean_sbu_0, # of connection points: 4
#     Node 5, Type 0, BuildingBlock: ESEHIV_clean_sbu_0, # of connection points: 4
#     Node 6, Type 0, BuildingBlock: ESEHIV_clean_sbu_0, # of connection points: 4
#     Node 7, Type 0, BuildingBlock: ESEHIV_clean_sbu_0, # of connection points: 4
#     Node 8, Type 0, BuildingBlock: ESEHIV_clean_sbu_0, # of connection points: 4
#     Node 9, Type 0, BuildingBlock: ESEHIV_clean_sbu_0, # of connection points: 4
#     Node 10, Type 0, BuildingBlock: ESEHIV_clean_sbu_0, # of connection points: 4
#     Node 11, Type 0, BuildingBlock: ESEHIV_clean_sbu_0, # of connection points: 4
#     Edge 12, Type (0, 0), None
#     Edge 13, Type (0, 0), None
#     Edge 14, Type (0, 0), None
#     Edge 15, Type (0, 0), None
#     Edge 16, Type (0, 0), None
#     Edge 17, Type (0, 0), None
#     Edge 18, Type (0, 0), None
#     Edge 19, Type (0, 0), None
#     Edge 20, Type (0, 0), None
#     Edge 21, Type (0, 0), None
#     Edge 22, Type (0, 0), None
#     Edge 23, Type (0, 0), None
#     Edge 24, Type (0, 0), None
#     Edge 25, Type (0, 0), None
#     Edge 26, Type (0, 0), None
#     Edge 27, Type (0, 0), None
#     Edge 28, Type (0, 0), None
#     Edge 29, Type (0, 0), None
#     Edge 30, Type (0, 0), None
#     Edge 31, Type (0, 0), None
#     Edge 32, Type (0, 0), None
#     Edge 33, Type (0, 0), None
#     Edge 34, Type (0, 0), None
#     Edge 35, Type (0, 0), None
# Relax obj value: 0.041
# Max RMSD: 0.119
# Mean RMSD: 0.119
data_MOF--net-umm--node1-ESEHIV_clean_sbu_0--edge1-none
_symmetry_space_group_name_H-M    P1
_symmetry_Int_Tables_number       1
_symmetry_cell_setting            triclinic
loop_
_symmetry_equiv_pos_as_xyz
'x, y, z'
_cell_length_a     34.496138
_cell_length_b     34.49753
_cell_length_c     13.076603
_cell_angle_alpha  90.029568
_cell_angle_beta   89.97446
_cell_angle_gamma 120.08035
loop_
_atom_site_label
_atom_site_type_symbol
_atom_site_fract_x
_atom_site_fract_y
_atom_site_fract_z
_atom_type_partial_charge
Cu0 Cu 0.44082 0.57946 0.10426 0.0
N1 N 0.47127 0.54821 0.12458 0.0
N2 N 0.52817 0.53498 0.123 0.0
C3 C 0.51239 0.5611 0.08761 0.0
C4 C 0.49603 0.50447 0.18471 0.0
C5 C 0.46087 0.51292 0.18587 0.0
O6 O 0.45433 0.61899 0.21912 0.0
C7 C 0.45181 0.59889 0.89632 0.0
O8 O 0.41767 0.55804 0.88753 0.0
H9 H 0.53064 0.58969 0.03789 0.0
H10 H 0.43049 0.49539 0.2305 0.0
N11 N 0.37934 0.54121 0.08483 0.0
N12 N 0.31067 0.51814 0.02532 0.0
C13 C 0.34995 0.55374 0.05409 0.0
C14 C 0.3576 0.49622 0.07566 0.0
C15 C 0.31505 0.48182 0.03868 0.0
C16 C 0.43988 0.60255 0.30688 0.0
O17 O 0.41104 0.55953 0.31561 0.0
H18 H 0.35838 0.58831 0.04565 0.0
H19 H 0.37256 0.47561 0.0884 0.0
O20 O 0.46641 0.61535 0.98409 0.0
H21 H 0.49813 0.47876 0.22749 0.0
H22 H 0.2901 0.44776 0.01946 0.0
Cu23 Cu 0.89663 0.42811 0.43545 0.0
N24 N 0.9591 0.45594 0.44206 0.0
N25 N 1.02995 0.51156 0.45055 0.0
C26 C 0.98661 0.4999 0.46063 0.0
C27 C 1.03018 0.47386 0.42476 0.0
C28 C 0.98621 0.4395 0.41894 0.0
O29 O 0.87859 0.45006 0.55587 0.0
C30 C 0.89799 0.48213 0.26753 0.0
O31 O 0.91794 0.51514 0.33323 0.0
H32 H 0.97509 0.52312 0.47795 0.0
H33 H 0.97493 0.40558 0.39439 0.0
N34 N 0.86947 0.36579 0.43705 0.0
N35 N 0.8227 0.29588 0.38708 0.0
C36 C 0.83056 0.33819 0.3895 0.0
C37 C 0.88623 0.33967 0.46679 0.0
C38 C 0.85742 0.29626 0.435 0.0
C39 C 0.87729 0.43497 0.64624 0.0
O40 O 0.88332 0.40059 0.65839 0.0
H41 H 0.80991 0.34936 0.35207 0.0
H42 H 0.91793 0.35157 0.50533 0.0
O43 O 0.88304 0.4422 0.29847 0.0
H44 H 0.05966 0.47189 0.40554 0.0
H45 H 0.86194 0.26761 0.44447 0.0
Cu46 Cu 0.49623 0.87782 0.76967 0.0
N47 N 0.53308 0.94008 0.77471 0.0
N48 N 0.55096 1.01178 0.77911 0.0
C49 C 0.51773 0.96885 0.78673 0.0
C50 C 0.58869 1.01035 0.76119 0.0
C51 C 0.57745 0.96589 0.75772 0.0
O52 O 0.457 0.86029 0.88583 0.0
C53 C 0.47636 0.86856 0.56345 0.0
O54 O 0.51759 0.87637 0.55474 0.0
H55 H 0.48277 0.95838 0.79813 0.0
H56 H 0.59983 0.95348 0.73959 0.0
N57 N 0.52824 0.84711 0.76131 0.0
N58 N 0.54878 0.79869 0.70816 0.0
C59 C 0.51548 0.80833 0.71114 0.0
C60 C 0.57057 0.86151 0.79255 0.0
C61 C 0.58359 0.83187 0.75864 0.0
C62 C 0.47045 0.8572 0.97383 0.0
O63 O 0.51051 0.86211 0.98474 0.0
H64 H 0.48353 0.78898 0.67303 0.0
H65 H 0.591 0.892 0.83499 0.0
O66 O 0.4597 0.86603 0.65109 0.0
H67 H 0.62145 0.03908 0.74707 0.0
H68 H 0.61599 0.83462 0.76912 0.0
Cu69 Cu 0.65261 0.48886 0.08838 0.0
N70 N 0.62519 0.52355 0.0885 0.0
N71 N 0.57043 0.53964 0.10182 0.0
C72 C 0.58468 0.51116 0.1288 0.0
C73 C 0.60293 0.57111 0.04244 0.0
C74 C 0.63669 0.5609 0.03397 0.0
O75 O 0.63176 0.45039 0.20579 0.0
C76 C 0.64587 0.46623 0.88317 0.0
O77 O 0.67996 0.50708 0.87337 0.0
H78 H 0.56522 0.48069 0.17218 0.0
H79 H 0.66641 0.57813 0.98706 0.0
N80 N 0.71504 0.52407 0.08052 0.0
N81 N 0.78463 0.54644 0.02905 0.0
C82 C 0.74321 0.51112 0.04314 0.0
C83 C 0.73991 0.56889 0.09175 0.0
C84 C 0.78303 0.58292 0.05928 0.0
C85 C 0.65025 0.46213 0.29258 0.0
O86 O 0.68731 0.50083 0.30321 0.0
H87 H 0.73283 0.47715 0.02014 0.0
H88 H 0.72708 0.59015 0.1171 0.0
O89 O 0.62989 0.45113 0.97082 0.0
H90 H 0.60172 0.59839 1.00474 0.0
H91 H 0.81056 0.61708 0.05571 0.0
Cu92 Cu 0.20029 0.63827 0.4317 0.0
N93 N 0.13789 0.61089 0.43922 0.0
N94 N 0.067 0.55548 0.44954 0.0
C95 C 0.11032 0.5672 0.4604 0.0
C96 C 0.06683 0.59289 0.42082 0.0
C97 C 0.11083 0.62712 0.41384 0.0
O98 O 0.21828 0.61625 0.55194 0.0
C99 C 0.19705 0.58366 0.26318 0.0
O100 O 0.17591 0.55067 0.3284 0.0
H101 H 0.1218 0.54414 0.47985 0.0
H102 H 0.12218 0.66074 0.38691 0.0
N103 N 0.22792 0.70062 0.43289 0.0
N104 N 0.27541 0.77037 0.38311 0.0
C105 C 0.26719 0.72795 0.38635 0.0
C106 C 0.21125 0.72702 0.46106 0.0
C107 C 0.24053 0.77033 0.42945 0.0
C108 C 0.21953 0.63128 0.64237 0.0
O109 O 0.21356 0.66571 0.65468 0.0
H110 H 0.28788 0.71649 0.35017 0.0
H111 H 0.17932 0.71537 0.49831 0.0
O112 O 0.21343 0.62372 0.29466 0.0
H113 H 1.03737 0.59467 0.40032 0.0
H114 H 0.2362 0.79915 0.43793 0.0
Cu115 Cu 0.60128 0.18419 0.77015 0.0
N116 N 0.56429 0.12194 0.77508 0.0
N117 N 0.5464 0.05024 0.77919 0.0
C118 C 0.57966 0.09317 0.78646 0.0
C119 C 0.50861 0.05167 0.76225 0.0
C120 C 0.51986 0.09614 0.75894 0.0
O121 O 0.6406 0.20153 0.8861 0.0
C122 C 0.62128 0.19385 0.56377 0.0
O123 O 0.58011 0.18622 0.55502 0.0
H124 H 0.61465 0.10363 0.79725 0.0
H125 H 0.49742 0.10855 0.74158 0.0
N126 N 0.5696 0.21522 0.76185 0.0
N127 N 0.54946 0.26374 0.70725 0.0
C128 C 0.58264 0.25395 0.71127 0.0
C129 C 0.5272 0.20101 0.79234 0.0
C130 C 0.51442 0.23069 0.75742 0.0
C131 C 0.62827 0.20665 0.97377 0.0
O132 O 0.58915 0.20394 0.98495 0.0
H133 H 0.61462 0.27302 0.6731 0.0
H134 H 0.50652 0.17054 0.83456 0.0
O135 O 0.63776 0.19593 0.6514 0.0
H136 H 0.47579 1.02294 0.74876 0.0
H137 H 0.48196 0.22795 0.76659 0.0
Cu138 Cu 0.49603 0.63111 0.5979 0.0
N139 N 0.53295 0.6058 0.59417 0.0
N140 N 0.55125 0.55232 0.58768 0.0
C141 C 0.5181 0.56197 0.57781 0.0
C142 C 0.58839 0.59121 0.61157 0.0
C143 C 0.57687 0.6242 0.6163 0.0
O144 O 0.45632 0.6081 0.4822 0.0
C145 C 0.47656 0.6228 0.80549 0.0
O146 O 0.51792 0.65611 0.8137 0.0
H147 H 0.4835 0.5376 0.56159 0.0
H148 H 0.59865 0.65867 0.63854 0.0
N149 N 0.52813 0.69389 0.60369 0.0
N150 N 0.54873 0.76315 0.65498 0.0
C151 C 0.51525 0.72022 0.65185 0.0
C152 C 0.57077 0.72158 0.57392 0.0
C153 C 0.58381 0.76443 0.60669 0.0
C154 C 0.46357 0.62842 0.39751 0.0
O155 O 0.49813 0.66899 0.3876 0.0
H156 H 0.48314 0.7078 0.68907 0.0
H157 H 0.59144 0.71114 0.53398 0.0
O158 O 0.46002 0.60775 0.71809 0.0
H159 H 0.62085 0.59514 0.62872 0.0
H160 H 0.6165 0.79393 0.59751 0.0
Cu161 Cu 0.89709 0.48874 0.94574 0.0
N162 N 0.95937 0.52308 0.93463 0.0
N163 N 1.0297 0.53684 0.92559 0.0
C164 C 0.986 0.50529 0.92165 0.0
C165 C 1.03092 0.57605 0.94177 0.0
C166 C 0.9873 0.56738 0.94786 0.0
O167 O 0.87844 0.44704 0.82825 0.0
C168 C 0.89766 0.49293 0.15787 0.0
O169 O 0.91418 0.53519 0.13303 0.0
H170 H 0.97344 0.46978 0.91268 0.0
H171 H 0.9769 0.59143 0.96524 0.0
N172 N 0.8691 0.52317 0.93958 0.0
N173 N 0.82112 0.54572 0.98257 0.0
C174 C 0.82995 0.51193 0.98585 0.0
C175 C 0.88498 0.56524 0.9046 0.0
C176 C 0.8554 0.57945 0.9318 0.0
C177 C 0.87742 0.46068 0.73752 0.0
O178 O 0.88389 0.50125 0.72477 0.0
H179 H 0.80969 0.48064 0.02585 0.0
H180 H 0.91641 0.58471 0.86475 0.0
O181 O 0.88625 0.46388 0.08604 0.0
H182 H 0.0609 0.6082 0.95262 0.0
H183 H 0.859 0.61194 0.91672 0.0
Cu184 Cu 0.443 0.88133 0.26742 0.0
N185 N 0.47114 0.94368 0.26222 0.0
N186 N 0.52761 1.01412 0.25651 0.0
C187 C 0.51547 0.9706 0.2476 0.0
C188 C 0.48986 1.01501 0.27799 0.0
C189 C 0.45496 0.97127 0.2823 0.0
O190 O 0.46277 0.86195 0.15111 0.0
C191 C 0.45233 0.86973 0.47346 0.0
O192 O 0.41978 0.87877 0.483 0.0
H193 H 0.53841 0.95838 0.23377 0.0
H194 H 0.42079 0.96056 0.30346 0.0
N195 N 0.38047 0.85335 0.27711 0.0
N196 N 0.31141 0.80657 0.33266 0.0
C197 C 0.35366 0.81437 0.32549 0.0
C198 C 0.35369 0.86983 0.25089 0.0
C199 C 0.31091 0.8411 0.28619 0.0
C200 C 0.44564 0.85804 0.06349 0.0
O201 O 0.41088 0.86357 0.05246 0.0
H202 H 0.36534 0.79345 0.35933 0.0
H203 H 0.36462 0.90101 0.21084 0.0
O204 O 0.46664 0.86782 0.38557 0.0
H205 H 0.48797 0.04477 0.29435 0.0
H206 H 0.28195 0.84527 0.27888 0.0
Cu207 Cu 0.60181 0.43023 0.58763 0.0
N208 N 0.56496 0.45568 0.58422 0.0
N209 N 0.54695 0.50943 0.58393 0.0
C210 C 0.58045 0.5001 0.57864 0.0
C211 C 0.50887 0.4697 0.59355 0.0
C212 C 0.52016 0.43651 0.59448 0.0
O213 O 0.64055 0.45178 0.47064 0.0
C214 C 0.62178 0.44114 0.79307 0.0
O215 O 0.58005 0.40858 0.80136 0.0
H216 H 0.61563 0.52499 0.57289 0.0
H217 H 0.49733 0.40119 0.60581 0.0
N218 N 0.57 0.36743 0.59635 0.0
N219 N 0.54957 0.29876 0.65172 0.0
C220 C 0.58263 0.34186 0.64876 0.0
C221 C 0.52802 0.33898 0.56351 0.0
C222 C 0.51506 0.2965 0.59886 0.0
C223 C 0.62531 0.43682 0.38246 0.0
O224 O 0.58393 0.40371 0.37248 0.0
H225 H 0.61426 0.35493 0.68853 0.0
H226 H 0.50778 0.34854 0.51896 0.0
O227 O 0.63882 0.45487 0.70555 0.0
H228 H 0.47567 0.46509 0.6033 0.0
H229 H 0.48287 0.26655 0.58779 0.0
Cu230 Cu 0.19908 0.57717 0.94167 0.0
N231 N 0.13681 0.54312 0.93014 0.0
N232 N 0.06654 0.52962 0.9237 0.0
C233 C 0.11023 0.56125 0.92366 0.0
C234 C 0.06524 0.48998 0.93049 0.0
C235 C 0.10886 0.49848 0.93494 0.0
O236 O 0.21809 0.61896 0.82431 0.0
C237 C 0.1973 0.57282 0.1535 0.0
O238 O 0.17971 0.53045 0.12828 0.0
H239 H 0.12283 0.59695 0.92157 0.0
H240 H 0.1192 0.47389 0.94491 0.0
N241 N 0.22682 0.54249 0.93611 0.0
N242 N 0.27438 0.51936 0.97902 0.0
C243 C 0.26479 0.55257 0.98646 0.0
C244 C 0.21238 0.50174 0.89447 0.0
C245 C 0.24174 0.4872 0.92131 0.0
C246 C 0.21918 0.60542 0.73348 0.0
O247 O 0.21255 0.56481 0.72038 0.0
H248 H 0.2839 0.58278 0.03098 0.0
H249 H 0.18227 0.4835 0.84932 0.0
O250 O 0.20979 0.60207 0.08191 0.0
H251 H 1.03521 0.45749 0.93562 0.0
H252 H 0.23918 0.45563 0.90059 0.0
Cu253 Cu 0.65611 0.18375 0.26743 0.0
N254 N 0.62819 0.12143 0.26048 0.0
N255 N 0.57166 0.05099 0.25552 0.0
C256 C 0.58367 0.09454 0.24909 0.0
C257 C 0.60973 0.05002 0.2719 0.0
C258 C 0.64467 0.09375 0.27578 0.0
O259 O 0.63677 0.20366 0.15138 0.0
C260 C 0.64558 0.19334 0.47359 0.0
O261 O 0.67797 0.18404 0.48247 0.0
H262 H 0.56053 0.1068 0.2393 0.0
H263 H 0.67914 0.10434 0.29341 0.0
N264 N 0.71862 0.21221 0.2786 0.0
N265 N 0.7872 0.25949 0.33593 0.0
C266 C 0.74475 0.25102 0.32829 0.0
C267 C 0.74607 0.19656 0.252 0.0
C268 C 0.78857 0.22559 0.28844 0.0
C269 C 0.65297 0.20565 0.06343 0.0
O270 O 0.68636 0.19793 0.0526 0.0
H271 H 0.73245 0.27138 0.36247 0.0
H272 H 0.73586 0.16582 0.21059 0.0
O273 O 0.6318 0.1963 0.38588 0.0
H274 H 0.61186 1.02019 0.28508 0.0
H275 H 0.81793 0.22213 0.28098 0.0
loop_
_geom_bond_atom_site_label_1
_geom_bond_atom_site_label_2
_geom_bond_distance
_geom_bond_site_symmetry_2
_ccdc_geom_bond_type
Cu0 N1 1.999 . S
Cu0 O6 1.974 . S
Cu0 N11 1.985 . S
Cu0 O20 1.959 1_554 S
N1 Cu0 1.999 . S
N1 C3 1.263 . S
N1 C5 1.389 . S
N2 C3 1.358 . S
N2 C4 1.400 . S
C3 N1 1.263 . S
C3 N2 1.358 . S
C3 H9 0.930 . S
C4 N2 1.400 . S
C4 C5 1.351 . S
C4 H21 0.930 1_554 S
C5 N1 1.389 . S
C5 C4 1.351 . S
C5 H10 0.930 1_554 S
O6 Cu0 1.974 . S
O6 C16 1.282 . S
C7 O8 1.261 . S
C7 O20 1.251 . S
O8 C7 1.261 . S
H9 C3 0.930 . S
H10 C5 0.930 1_556 S
N11 Cu0 1.985 . S
N11 C13 1.335 . S
N11 C14 1.390 . S
N12 C13 1.345 . S
N12 C15 1.336 . S
C13 N11 1.335 . S
C13 N12 1.345 . S
C13 H18 0.930 1_554 S
C14 N11 1.390 . S
C14 C15 1.346 . S
C14 H19 0.930 . S
C15 N12 1.336 . S
C15 C14 1.346 . S
C15 H22 0.929 . S
C16 O6 1.282 . S
C16 O17 1.216 . S
O17 C16 1.216 . S
H18 C13 0.930 1_556 S
H19 C14 0.930 . S
O20 Cu0 1.959 1_556 S
O20 C7 1.251 . S
H21 C4 0.930 1_556 S
H22 C15 0.929 . S
Cu23 N24 1.999 . S
Cu23 O29 1.974 . S
Cu23 N34 1.985 . S
Cu23 O43 1.959 . S
N24 Cu23 1.999 . S
N24 C26 1.263 . S
N24 C28 1.389 . S
N25 C26 1.358 . S
N25 C27 1.400 . S
C26 N24 1.263 . S
C26 N25 1.358 . S
C26 H32 0.930 . S
C27 N25 1.400 . S
C27 C28 1.351 . S
C27 H44 0.930 1_655 S
C28 N24 1.389 . S
C28 C27 1.351 . S
C28 H33 0.930 . S
O29 Cu23 1.974 . S
O29 C39 1.282 . S
C30 O31 1.261 . S
C30 O43 1.251 . S
O31 C30 1.261 . S
H32 C26 0.930 . S
H33 C28 0.930 . S
N34 Cu23 1.985 . S
N34 C36 1.335 . S
N34 C37 1.390 . S
N35 C36 1.345 . S
N35 C38 1.336 . S
C36 N34 1.335 . S
C36 N35 1.345 . S
C36 H41 0.930 . S
C37 N34 1.390 . S
C37 C38 1.346 . S
C37 H42 0.930 . S
C38 N35 1.336 . S
C38 C37 1.346 . S
C38 H45 0.929 . S
C39 O29 1.282 . S
C39 O40 1.216 . S
O40 C39 1.216 . S
H41 C36 0.930 . S
H42 C37 0.930 . S
O43 Cu23 1.959 . S
O43 C30 1.251 . S
H44 C27 0.930 1_455 S
H45 C38 0.929 . S
Cu46 N47 1.999 . S
Cu46 O52 1.974 . S
Cu46 N57 1.985 . S
Cu46 O66 1.959 . S
N47 Cu46 1.999 . S
N47 C49 1.263 . S
N47 C51 1.389 . S
N48 C49 1.358 . S
N48 C50 1.400 . S
C49 N47 1.263 . S
C49 N48 1.358 . S
C49 H55 0.930 . S
C50 N48 1.400 . S
C50 C51 1.351 . S
C50 H67 0.930 1_565 S
C51 N47 1.389 . S
C51 C50 1.351 . S
C51 H56 0.930 . S
O52 Cu46 1.974 . S
O52 C62 1.282 . S
C53 O54 1.261 . S
C53 O66 1.251 . S
O54 C53 1.261 . S
H55 C49 0.930 . S
H56 C51 0.930 . S
N57 Cu46 1.985 . S
N57 C59 1.335 . S
N57 C60 1.390 . S
N58 C59 1.345 . S
N58 C61 1.336 . S
C59 N57 1.335 . S
C59 N58 1.345 . S
C59 H64 0.930 . S
C60 N57 1.390 . S
C60 C61 1.346 . S
C60 H65 0.930 . S
C61 N58 1.336 . S
C61 C60 1.346 . S
C61 H68 0.929 . S
C62 O52 1.282 . S
C62 O63 1.216 . S
O63 C62 1.216 . S
H64 C59 0.930 . S
H65 C60 0.930 . S
O66 Cu46 1.959 . S
O66 C53 1.251 . S
H67 C50 0.930 1_545 S
H68 C61 0.929 . S
Cu69 N70 1.999 . S
Cu69 O75 1.974 . S
Cu69 N80 1.985 . S
Cu69 O89 1.959 1_554 S
N70 Cu69 1.999 . S
N70 C72 1.263 . S
N70 C74 1.389 . S
N71 C72 1.358 . S
N71 C73 1.400 . S
C72 N70 1.263 . S
C72 N71 1.358 . S
C72 H78 0.930 . S
C73 N71 1.400 . S
C73 C74 1.351 . S
C73 H90 0.930 1_554 S
C74 N70 1.389 . S
C74 C73 1.351 . S
C74 H79 0.930 1_554 S
O75 Cu69 1.974 . S
O75 C85 1.282 . S
C76 O77 1.261 . S
C76 O89 1.251 . S
O77 C76 1.261 . S
H78 C72 0.930 . S
H79 C74 0.930 1_556 S
N80 Cu69 1.985 . S
N80 C82 1.335 . S
N80 C83 1.390 . S
N81 C82 1.345 . S
N81 C84 1.336 . S
C82 N80 1.335 . S
C82 N81 1.345 . S
C82 H87 0.930 1_554 S
C83 N80 1.390 . S
C83 C84 1.346 . S
C83 H88 0.930 . S
C84 N81 1.336 . S
C84 C83 1.346 . S
C84 H91 0.929 . S
C85 O75 1.282 . S
C85 O86 1.216 . S
O86 C85 1.216 . S
H87 C82 0.930 1_556 S
H88 C83 0.930 . S
O89 Cu69 1.959 1_556 S
O89 C76 1.251 . S
H90 C73 0.930 1_556 S
H91 C84 0.929 . S
Cu92 N93 1.999 . S
Cu92 O98 1.974 . S
Cu92 N103 1.985 . S
Cu92 O112 1.959 . S
N93 Cu92 1.999 . S
N93 C95 1.263 . S
N93 C97 1.389 . S
N94 C95 1.358 . S
N94 C96 1.400 . S
C95 N93 1.263 . S
C95 N94 1.358 . S
C95 H101 0.930 . S
C96 N94 1.400 . S
C96 C97 1.351 . S
C96 H113 0.930 1_455 S
C97 N93 1.389 . S
C97 C96 1.351 . S
C97 H102 0.930 . S
O98 Cu92 1.974 . S
O98 C108 1.282 . S
C99 O100 1.261 . S
C99 O112 1.251 . S
O100 C99 1.261 . S
H101 C95 0.930 . S
H102 C97 0.930 . S
N103 Cu92 1.985 . S
N103 C105 1.335 . S
N103 C106 1.390 . S
N104 C105 1.345 . S
N104 C107 1.336 . S
C105 N103 1.335 . S
C105 N104 1.345 . S
C105 H110 0.930 . S
C106 N103 1.390 . S
C106 C107 1.346 . S
C106 H111 0.930 . S
C107 N104 1.336 . S
C107 C106 1.346 . S
C107 H114 0.929 . S
C108 O98 1.282 . S
C108 O109 1.216 . S
O109 C108 1.216 . S
H110 C105 0.930 . S
H111 C106 0.930 . S
O112 Cu92 1.959 . S
O112 C99 1.251 . S
H113 C96 0.930 1_655 S
H114 C107 0.929 . S
Cu115 N116 1.999 . S
Cu115 O121 1.974 . S
Cu115 N126 1.985 . S
Cu115 O135 1.959 . S
N116 Cu115 1.999 . S
N116 C118 1.263 . S
N116 C120 1.389 . S
N117 C118 1.358 . S
N117 C119 1.400 . S
C118 N116 1.263 . S
C118 N117 1.358 . S
C118 H124 0.930 . S
C119 N117 1.400 . S
C119 C120 1.351 . S
C119 H136 0.930 1_545 S
C120 N116 1.389 . S
C120 C119 1.351 . S
C120 H125 0.930 . S
O121 Cu115 1.974 . S
O121 C131 1.282 . S
C122 O123 1.261 . S
C122 O135 1.251 . S
O123 C122 1.261 . S
H124 C118 0.930 . S
H125 C120 0.930 . S
N126 Cu115 1.985 . S
N126 C128 1.335 . S
N126 C129 1.390 . S
N127 C128 1.345 . S
N127 C130 1.336 . S
C128 N126 1.335 . S
C128 N127 1.345 . S
C128 H133 0.930 . S
C129 N126 1.390 . S
C129 C130 1.346 . S
C129 H134 0.930 . S
C130 N127 1.336 . S
C130 C129 1.346 . S
C130 H137 0.929 . S
C131 O121 1.282 . S
C131 O132 1.216 . S
O132 C131 1.216 . S
H133 C128 0.930 . S
H134 C129 0.930 . S
O135 Cu115 1.959 . S
O135 C122 1.251 . S
H136 C119 0.930 1_565 S
H137 C130 0.929 . S
Cu138 N139 1.999 . S
Cu138 O144 1.974 . S
Cu138 N149 1.985 . S
Cu138 O158 1.959 . S
N139 Cu138 1.999 . S
N139 C141 1.263 . S
N139 C143 1.389 . S
N140 C141 1.358 . S
N140 C142 1.400 . S
C141 N139 1.263 . S
C141 N140 1.358 . S
C141 H147 0.930 . S
C142 N140 1.400 . S
C142 C143 1.351 . S
C142 H159 0.930 . S
C143 N139 1.389 . S
C143 C142 1.351 . S
C143 H148 0.930 . S
O144 Cu138 1.974 . S
O144 C154 1.282 . S
C145 O146 1.261 . S
C145 O158 1.251 . S
O146 C145 1.261 . S
H147 C141 0.930 . S
H148 C143 0.930 . S
N149 Cu138 1.985 . S
N149 C151 1.335 . S
N149 C152 1.390 . S
N150 C151 1.345 . S
N150 C153 1.336 . S
C151 N149 1.335 . S
C151 N150 1.345 . S
C151 H156 0.930 . S
C152 N149 1.390 . S
C152 C153 1.346 . S
C152 H157 0.930 . S
C153 N150 1.336 . S
C153 C152 1.346 . S
C153 H160 0.929 . S
C154 O144 1.282 . S
C154 O155 1.216 . S
O155 C154 1.216 . S
H156 C151 0.930 . S
H157 C152 0.930 . S
O158 Cu138 1.959 . S
O158 C145 1.251 . S
H159 C142 0.930 . S
H160 C153 0.929 . S
Cu161 N162 1.999 . S
Cu161 O167 1.974 . S
Cu161 N172 1.985 . S
Cu161 O181 1.959 1_556 S
N162 Cu161 1.999 . S
N162 C164 1.263 . S
N162 C166 1.389 . S
N163 C164 1.358 . S
N163 C165 1.400 . S
C164 N162 1.263 . S
C164 N163 1.358 . S
C164 H170 0.930 . S
C165 N163 1.400 . S
C165 C166 1.351 . S
C165 H182 0.930 1_656 S
C166 N162 1.389 . S
C166 C165 1.351 . S
C166 H171 0.930 1_556 S
O167 Cu161 1.974 . S
O167 C177 1.282 . S
C168 O169 1.261 . S
C168 O181 1.251 . S
O169 C168 1.261 . S
H170 C164 0.930 . S
H171 C166 0.930 1_554 S
N172 Cu161 1.985 . S
N172 C174 1.335 . S
N172 C175 1.390 . S
N173 C174 1.345 . S
N173 C176 1.336 . S
C174 N172 1.335 . S
C174 N173 1.345 . S
C174 H179 0.930 1_556 S
C175 N172 1.390 . S
C175 C176 1.346 . S
C175 H180 0.930 . S
C176 N173 1.336 . S
C176 C175 1.346 . S
C176 H183 0.929 . S
C177 O167 1.282 . S
C177 O178 1.216 . S
O178 C177 1.216 . S
H179 C174 0.930 1_554 S
H180 C175 0.930 . S
O181 Cu161 1.959 1_554 S
O181 C168 1.251 . S
H182 C165 0.930 1_454 S
H183 C176 0.929 . S
Cu184 N185 1.999 . S
Cu184 O190 1.974 . S
Cu184 N195 1.985 . S
Cu184 O204 1.959 . S
N185 Cu184 1.999 . S
N185 C187 1.263 . S
N185 C189 1.389 . S
N186 C187 1.358 . S
N186 C188 1.400 . S
C187 N185 1.263 . S
C187 N186 1.358 . S
C187 H193 0.930 . S
C188 N186 1.400 . S
C188 C189 1.351 . S
C188 H205 0.930 1_565 S
C189 N185 1.389 . S
C189 C188 1.351 . S
C189 H194 0.930 . S
O190 Cu184 1.974 . S
O190 C200 1.282 . S
C191 O192 1.261 . S
C191 O204 1.251 . S
O192 C191 1.261 . S
H193 C187 0.930 . S
H194 C189 0.930 . S
N195 Cu184 1.985 . S
N195 C197 1.335 . S
N195 C198 1.390 . S
N196 C197 1.345 . S
N196 C199 1.336 . S
C197 N195 1.335 . S
C197 N196 1.345 . S
C197 H202 0.930 . S
C198 N195 1.390 . S
C198 C199 1.346 . S
C198 H203 0.930 . S
C199 N196 1.336 . S
C199 C198 1.346 . S
C199 H206 0.929 . S
C200 O190 1.282 . S
C200 O201 1.216 . S
O201 C200 1.216 . S
H202 C197 0.930 . S
H203 C198 0.930 . S
O204 Cu184 1.959 . S
O204 C191 1.251 . S
H205 C188 0.930 1_545 S
H206 C199 0.929 . S
Cu207 N208 1.999 . S
Cu207 O213 1.974 . S
Cu207 N218 1.985 . S
Cu207 O227 1.959 . S
N208 Cu207 1.999 . S
N208 C210 1.263 . S
N208 C212 1.389 . S
N209 C210 1.358 . S
N209 C211 1.400 . S
C210 N208 1.263 . S
C210 N209 1.358 . S
C210 H216 0.930 . S
C211 N209 1.400 . S
C211 C212 1.351 . S
C211 H228 0.930 . S
C212 N208 1.389 . S
C212 C211 1.351 . S
C212 H217 0.930 . S
O213 Cu207 1.974 . S
O213 C223 1.282 . S
C214 O215 1.261 . S
C214 O227 1.251 . S
O215 C214 1.261 . S
H216 C210 0.930 . S
H217 C212 0.930 . S
N218 Cu207 1.985 . S
N218 C220 1.335 . S
N218 C221 1.390 . S
N219 C220 1.345 . S
N219 C222 1.336 . S
C220 N218 1.335 . S
C220 N219 1.345 . S
C220 H225 0.930 . S
C221 N218 1.390 . S
C221 C222 1.346 . S
C221 H226 0.930 . S
C222 N219 1.336 . S
C222 C221 1.346 . S
C222 H229 0.929 . S
C223 O213 1.282 . S
C223 O224 1.216 . S
O224 C223 1.216 . S
H225 C220 0.930 . S
H226 C221 0.930 . S
O227 Cu207 1.959 . S
O227 C214 1.251 . S
H228 C211 0.930 . S
H229 C222 0.929 . S
Cu230 N231 1.999 . S
Cu230 O236 1.974 . S
Cu230 N241 1.985 . S
Cu230 O250 1.959 1_556 S
N231 Cu230 1.999 . S
N231 C233 1.263 . S
N231 C235 1.389 . S
N232 C233 1.358 . S
N232 C234 1.400 . S
C233 N231 1.263 . S
C233 N232 1.358 . S
C233 H239 0.930 . S
C234 N232 1.400 . S
C234 C235 1.351 . S
C234 H251 0.930 1_456 S
C235 N231 1.389 . S
C235 C234 1.351 . S
C235 H240 0.930 1_556 S
O236 Cu230 1.974 . S
O236 C246 1.282 . S
C237 O238 1.261 . S
C237 O250 1.251 . S
O238 C237 1.261 . S
H239 C233 0.930 . S
H240 C235 0.930 1_554 S
N241 Cu230 1.985 . S
N241 C243 1.335 . S
N241 C244 1.390 . S
N242 C243 1.345 . S
N242 C245 1.336 . S
C243 N241 1.335 . S
C243 N242 1.345 . S
C243 H248 0.930 1_556 S
C244 N241 1.390 . S
C244 C245 1.346 . S
C244 H249 0.930 . S
C245 N242 1.336 . S
C245 C244 1.346 . S
C245 H252 0.929 . S
C246 O236 1.282 . S
C246 O247 1.216 . S
O247 C246 1.216 . S
H248 C243 0.930 1_554 S
H249 C244 0.930 . S
O250 Cu230 1.959 1_554 S
O250 C237 1.251 . S
H251 C234 0.930 1_654 S
H252 C245 0.929 . S
Cu253 N254 1.999 . S
Cu253 O259 1.974 . S
Cu253 N264 1.985 . S
Cu253 O273 1.959 . S
N254 Cu253 1.999 . S
N254 C256 1.263 . S
N254 C258 1.389 . S
N255 C256 1.358 . S
N255 C257 1.400 . S
C256 N254 1.263 . S
C256 N255 1.358 . S
C256 H262 0.930 . S
C257 N255 1.400 . S
C257 C258 1.351 . S
C257 H274 0.930 1_545 S
C258 N254 1.389 . S
C258 C257 1.351 . S
C258 H263 0.930 . S
O259 Cu253 1.974 . S
O259 C269 1.282 . S
C260 O261 1.261 . S
C260 O273 1.251 . S
O261 C260 1.261 . S
H262 C256 0.930 . S
H263 C258 0.930 . S
N264 Cu253 1.985 . S
N264 C266 1.335 . S
N264 C267 1.390 . S
N265 C266 1.345 . S
N265 C268 1.336 . S
C266 N264 1.335 . S
C266 N265 1.345 . S
C266 H271 0.930 . S
C267 N264 1.390 . S
C267 C268 1.346 . S
C267 H272 0.930 . S
C268 N265 1.336 . S
C268 C267 1.346 . S
C268 H275 0.929 . S
C269 O259 1.282 . S
C269 O270 1.216 . S
O270 C269 1.216 . S
H271 C266 0.930 . S
H272 C267 0.930 . S
O273 Cu253 1.959 . S
O273 C260 1.251 . S
H274 C257 0.930 1_565 S
H275 C268 0.929 . S
C16 C154 1.409 . S
C39 C177 1.409 . S
C62 C200 1.409 1_556 S
C85 C223 1.409 . S
C108 C246 1.409 . S
C269 C131 1.409 1_554 S
N12 N242 1.847 1_554 S
N35 N265 1.847 . S
N58 N150 1.847 . S
N81 N173 1.847 1_554 S
N104 N196 1.847 . S
N127 N219 1.847 . S
N2 N71 1.611 . S
N25 N94 1.611 1_655 S
N117 N48 1.611 1_545 S
N140 N209 1.611 . S
N232 N163 1.611 1_455 S
N186 N255 1.611 1_565 S
C145 C7 1.610 . S
C30 C168 1.610 . S
C53 C191 1.610 . S
C214 C76 1.610 . S
C237 C99 1.610 . S
C122 C260 1.610 . S
