# Generated by pormake.
# Topology wjt, (5)-cn, num edge types: 1
# Building blocks:
#     Node 0, Type 0, BuildingBlock: BEQFEK_clean_sbu_0, # of connection points: 5
#     Node 1, Type 0, BuildingBlock: BEQFEK_clean_sbu_0, # of connection points: 5
#     Node 2, Type 0, BuildingBlock: BEQFEK_clean_sbu_0, # of connection points: 5
#     Node 3, Type 0, BuildingBlock: BEQFEK_clean_sbu_0, # of connection points: 5
#     Node 4, Type 0, BuildingBlock: BEQFEK_clean_sbu_0, # of connection points: 5
#     Node 5, Type 0, BuildingBlock: BEQFEK_clean_sbu_0, # of connection points: 5
#     Node 6, Type 0, BuildingBlock: BEQFEK_clean_sbu_0, # of connection points: 5
#     Node 7, Type 0, BuildingBlock: BEQFEK_clean_sbu_0, # of connection points: 5
#     Node 8, Type 0, BuildingBlock: BEQFEK_clean_sbu_0, # of connection points: 5
#     Node 9, Type 0, BuildingBlock: BEQFEK_clean_sbu_0, # of connection points: 5
#     Node 10, Type 0, BuildingBlock: BEQFEK_clean_sbu_0, # of connection points: 5
#     Node 11, Type 0, BuildingBlock: BEQFEK_clean_sbu_0, # of connection points: 5
#     Edge 12, Type (0, 0), BuildingBlock: AJUNOK_clean_linker_0, # of connection points: 2
#     Edge 13, Type (0, 0), BuildingBlock: AJUNOK_clean_linker_0, # of connection points: 2
#     Edge 14, Type (0, 0), BuildingBlock: AJUNOK_clean_linker_0, # of connection points: 2
#     Edge 15, Type (0, 0), BuildingBlock: AJUNOK_clean_linker_0, # of connection points: 2
#     Edge 16, Type (0, 0), BuildingBlock: AJUNOK_clean_linker_0, # of connection points: 2
#     Edge 17, Type (0, 0), BuildingBlock: AJUNOK_clean_linker_0, # of connection points: 2
#     Edge 18, Type (0, 0), BuildingBlock: AJUNOK_clean_linker_0, # of connection points: 2
#     Edge 19, Type (0, 0), BuildingBlock: AJUNOK_clean_linker_0, # of connection points: 2
#     Edge 20, Type (0, 0), BuildingBlock: AJUNOK_clean_linker_0, # of connection points: 2
#     Edge 21, Type (0, 0), BuildingBlock: AJUNOK_clean_linker_0, # of connection points: 2
#     Edge 22, Type (0, 0), BuildingBlock: AJUNOK_clean_linker_0, # of connection points: 2
#     Edge 23, Type (0, 0), BuildingBlock: AJUNOK_clean_linker_0, # of connection points: 2
#     Edge 24, Type (0, 0), BuildingBlock: AJUNOK_clean_linker_0, # of connection points: 2
#     Edge 25, Type (0, 0), BuildingBlock: AJUNOK_clean_linker_0, # of connection points: 2
#     Edge 26, Type (0, 0), BuildingBlock: AJUNOK_clean_linker_0, # of connection points: 2
#     Edge 27, Type (0, 0), BuildingBlock: AJUNOK_clean_linker_0, # of connection points: 2
#     Edge 28, Type (0, 0), BuildingBlock: AJUNOK_clean_linker_0, # of connection points: 2
#     Edge 29, Type (0, 0), BuildingBlock: AJUNOK_clean_linker_0, # of connection points: 2
#     Edge 30, Type (0, 0), BuildingBlock: AJUNOK_clean_linker_0, # of connection points: 2
#     Edge 31, Type (0, 0), BuildingBlock: AJUNOK_clean_linker_0, # of connection points: 2
#     Edge 32, Type (0, 0), BuildingBlock: AJUNOK_clean_linker_0, # of connection points: 2
#     Edge 33, Type (0, 0), BuildingBlock: AJUNOK_clean_linker_0, # of connection points: 2
#     Edge 34, Type (0, 0), BuildingBlock: AJUNOK_clean_linker_0, # of connection points: 2
#     Edge 35, Type (0, 0), BuildingBlock: AJUNOK_clean_linker_0, # of connection points: 2
#     Edge 36, Type (0, 0), BuildingBlock: AJUNOK_clean_linker_0, # of connection points: 2
#     Edge 37, Type (0, 0), BuildingBlock: AJUNOK_clean_linker_0, # of connection points: 2
#     Edge 38, Type (0, 0), BuildingBlock: AJUNOK_clean_linker_0, # of connection points: 2
#     Edge 39, Type (0, 0), BuildingBlock: AJUNOK_clean_linker_0, # of connection points: 2
#     Edge 40, Type (0, 0), BuildingBlock: AJUNOK_clean_linker_0, # of connection points: 2
#     Edge 41, Type (0, 0), BuildingBlock: AJUNOK_clean_linker_0, # of connection points: 2
# Relax obj value: 0.335
# Max RMSD: 0.196
# Mean RMSD: 0.196
data_MOF--net-wjt--node1-BEQFEK_clean_sbu_0--edge1-AJUNOK_clean_linker_0
_symmetry_space_group_name_H-M    P1
_symmetry_Int_Tables_number       1
_symmetry_cell_setting            triclinic
loop_
_symmetry_equiv_pos_as_xyz
'x, y, z'
_cell_length_a     51.552719
_cell_length_b     51.563302
_cell_length_c     14.391964
_cell_angle_alpha  89.998926
_cell_angle_beta   89.991404
_cell_angle_gamma 120.02216
loop_
_atom_site_label
_atom_site_type_symbol
_atom_site_fract_x
_atom_site_fract_y
_atom_site_fract_z
_atom_type_partial_charge
Co0 Co 0.32497 0.44989 0.31679 0.0
Co1 Co 0.35715 0.45894 0.12529 0.0
C2 C 0.35375 0.41404 0.26636 0.0
O3 O 0.33885 0.42088 0.32103 0.0
O4 O 0.36154 0.42613 0.18628 0.0
C5 C 0.29974 0.42472 0.49022 0.0
O6 O 0.29501 0.39955 0.45222 0.0
C7 C 0.35181 0.44153 0.93164 0.0
C8 C 0.38476 0.48404 0.86546 0.0
C9 C 0.36082 0.45575 0.84609 0.0
N10 N 0.36853 0.4611 0.99819 0.0
N11 N 0.389 0.48605 0.95802 0.0
C12 C 0.32496 0.41156 0.95138 0.0
H13 H 0.3196 0.40891 0.02666 0.0
H14 H 0.3053 0.40838 0.9107 0.0
H15 H 0.3299 0.39382 0.92982 0.0
C16 C 0.27514 0.44306 0.19398 0.0
N17 N 0.30257 0.44649 0.20834 0.0
N18 N 0.3174 0.45359 0.12918 0.0
C19 C 0.30048 0.45684 0.06352 0.0
C20 C 0.27294 0.44929 0.10137 0.0
C21 C 0.25284 0.43697 0.26921 0.0
H22 H 0.25905 0.45826 0.30567 0.0
H23 H 0.2533 0.42116 0.32064 0.0
H24 H 0.22996 0.42776 0.24006 0.0
O25 O 0.36147 0.49004 0.32255 0.0
O26 O 0.38524 0.49707 0.18824 0.0
H27 H 0.33618 0.48612 0.97141 0.0
H28 H 0.30151 0.48528 0.95153 0.0
C29 C 0.31157 0.47141 0.97066 0.0
H30 H 0.30472 0.45402 0.91628 0.0
H31 H 0.40393 0.50541 0.99406 0.0
O32 O 0.30495 0.44652 0.43709 0.0
C33 C 0.38361 0.50597 0.26954 0.0
Co34 Co 0.87488 0.32855 0.64229 0.0
Co35 Co 0.89776 0.35776 0.44767 0.0
C36 C 0.94008 0.3567 0.58418 0.0
O37 O 0.91844 0.34366 0.64087 0.0
O38 O 0.93582 0.36314 0.50213 0.0
C39 C 0.87907 0.30504 0.81227 0.0
O40 O 0.89791 0.29875 0.77061 0.0
C41 C 0.91721 0.3633 0.2526 0.0
C42 C 0.88622 0.37589 0.18839 0.0
C43 C 0.90583 0.36567 0.16705 0.0
N44 N 0.90314 0.36958 0.32018 0.0
N45 N 0.88565 0.37835 0.28111 0.0
C46 C 0.94114 0.35564 0.27144 0.0
H47 H 0.95746 0.37215 0.32119 0.0
H48 H 0.93125 0.33332 0.30503 0.0
H49 H 0.95316 0.35616 0.20686 0.0
C50 C 0.82982 0.27783 0.52727 0.0
N51 N 0.8547 0.30488 0.53789 0.0
N52 N 0.86505 0.31674 0.45566 0.0
C53 C 0.8474 0.29699 0.39022 0.0
C54 C 0.82432 0.27193 0.4327 0.0
C55 C 0.81058 0.25942 0.60631 0.0
H56 H 0.81018 0.27428 0.66138 0.0
H57 H 0.82036 0.24645 0.63668 0.0
H58 H 0.78739 0.24364 0.58283 0.0
O59 O 0.86964 0.36345 0.6485 0.0
O60 O 0.88762 0.38597 0.51376 0.0
H61 H 0.84857 0.3178 0.26088 0.0
H62 H 0.84024 0.27955 0.24948 0.0
C63 C 0.85355 0.30073 0.28845 0.0
H64 H 0.8773 0.30787 0.27806 0.0
H65 H 0.87131 0.38342 0.31789 0.0
O66 O 0.86083 0.30902 0.76338 0.0
C67 C 0.87647 0.38518 0.59357 0.0
Co68 Co 0.5463 0.87232 0.98789 0.0
Co69 Co 0.53777 0.89504 0.79562 0.0
C70 C 0.58332 0.93648 0.93652 0.0
O71 O 0.57641 0.9148 0.99148 0.0
O72 O 0.57075 0.93212 0.85716 0.0
C73 C 0.57232 0.87117 0.15758 0.0
O74 O 0.59796 0.88871 0.11628 0.0
C75 C 0.55817 0.90968 0.6049 0.0
C76 C 0.51577 0.89551 0.53046 0.0
C77 C 0.54555 0.90356 0.51621 0.0
N78 N 0.53645 0.90366 0.66732 0.0
N79 N 0.51139 0.89625 0.62229 0.0
C80 C 0.59007 0.92103 0.6322 0.0
H81 H 0.59637 0.93776 0.6887 0.0
H82 H 0.59246 0.9023 0.66035 0.0
H83 H 0.60542 0.93162 0.57244 0.0
C84 C 0.55208 0.82819 0.86809 0.0
N85 N 0.54927 0.85259 0.88128 0.0
N86 N 0.54245 0.86031 0.80176 0.0
C87 C 0.5387 0.83977 0.73699 0.0
C88 C 0.54554 0.81938 0.77585 0.0
C89 C 0.55793 0.81207 0.94415 0.0
H90 H 0.57467 0.82848 0.99335 0.0
H91 H 0.56591 0.79727 0.91569 0.0
H92 H 0.53682 0.79815 0.98309 0.0
O93 O 0.50668 0.86989 0.99239 0.0
O94 O 0.49963 0.88586 0.85672 0.0
H95 H 0.51439 0.81398 0.61575 0.0
H96 H 0.5426 0.85147 0.59386 0.0
C97 C 0.52497 0.83708 0.64336 0.0
H98 H 0.50777 0.84389 0.64714 0.0
H99 H 0.49077 0.88921 0.65441 0.0
O100 O 0.54918 0.85578 0.10803 0.0
C101 C 0.49084 0.87602 0.93874 0.0
Co102 Co 0.67235 0.54835 0.30359 0.0
Co103 Co 0.64255 0.54034 0.10943 0.0
C104 C 0.64437 0.58451 0.25087 0.0
O105 O 0.65866 0.57759 0.3078 0.0
O106 O 0.63726 0.5723 0.17091 0.0
C107 C 0.69985 0.57591 0.47089 0.0
O108 O 0.70747 0.60097 0.42654 0.0
C109 C 0.6488 0.56159 0.91963 0.0
C110 C 0.62051 0.51959 0.84327 0.0
C111 C 0.64212 0.54947 0.83044 0.0
N112 N 0.6332 0.5395 0.98108 0.0
N113 N 0.61557 0.51467 0.935 0.0
C114 C 0.66961 0.59331 0.94811 0.0
H115 H 0.65933 0.59952 0.00526 0.0
H116 H 0.69066 0.59536 0.9757 0.0
H117 H 0.67458 0.60894 0.88902 0.0
C118 C 0.72357 0.55577 0.18625 0.0
N119 N 0.69614 0.55263 0.19802 0.0
N120 N 0.68215 0.54603 0.11758 0.0
C121 C 0.69944 0.54278 0.0536 0.0
C122 C 0.72653 0.54977 0.09392 0.0
C123 C 0.74495 0.56109 0.26371 0.0
H124 H 0.7455 0.57811 0.31212 0.0
H125 H 0.76779 0.56848 0.23672 0.0
H126 H 0.73697 0.53994 0.30316 0.0
O127 O 0.63586 0.50784 0.30541 0.0
O128 O 0.61408 0.50171 0.16778 0.0
H129 H 0.70185 0.51891 0.9324 0.0
H130 H 0.69159 0.54638 0.9103 0.0
C131 C 0.68879 0.52895 0.95982 0.0
H132 H 0.66489 0.51134 0.96321 0.0
H133 H 0.60199 0.49389 0.9662 0.0
O134 O 0.69181 0.55218 0.42415 0.0
C135 C 0.61468 0.4921 0.24887 0.0
Co136 Co 0.12794 0.67488 0.66097 0.0
Co137 Co 0.10418 0.64432 0.46709 0.0
C138 C 0.0631 0.64668 0.60807 0.0
O139 O 0.08469 0.65922 0.66468 0.0
O140 O 0.06703 0.64054 0.52537 0.0
C141 C 0.12468 0.69921 0.83085 0.0
O142 O 0.10565 0.70468 0.78659 0.0
C143 C 0.0896 0.64713 0.27335 0.0
C144 C 0.10283 0.61683 0.20734 0.0
C145 C 0.09493 0.63831 0.18755 0.0
N146 N 0.09533 0.63243 0.34012 0.0
N147 N 0.10202 0.61347 0.30018 0.0
C148 C 0.08382 0.67235 0.29269 0.0
H149 H 0.09067 0.68085 0.36454 0.0
H150 H 0.09565 0.69083 0.24198 0.0
H151 H 0.05944 0.66391 0.28597 0.0
C152 C 0.17086 0.72554 0.54022 0.0
N153 N 0.14671 0.6981 0.55305 0.0
N154 N 0.13838 0.68422 0.47231 0.0
C155 C 0.15802 0.70197 0.40661 0.0
C156 C 0.17866 0.72884 0.4468 0.0
C157 C 0.18774 0.74679 0.6172 0.0
H158 H 0.17182 0.74665 0.66938 0.0
H159 H 0.20231 0.76983 0.59024 0.0
H160 H 0.20198 0.73923 0.65223 0.0
O161 O 0.13286 0.63938 0.66499 0.0
O162 O 0.11381 0.6159 0.53159 0.0
H163 H 0.18249 0.70489 0.28062 0.0
H164 H 0.14546 0.69783 0.2634 0.0
C165 C 0.15947 0.69258 0.30907 0.0
H166 H 0.15187 0.66839 0.30657 0.0
H167 H 0.10882 0.60032 0.33629 0.0
O168 O 0.14272 0.6945 0.78315 0.0
C169 C 0.12539 0.61721 0.61104 0.0
Co170 Co 0.45386 0.12765 0.98698 0.0
Co171 Co 0.46105 0.10388 0.79453 0.0
C172 C 0.416 0.06319 0.93748 0.0
O173 O 0.42365 0.08504 0.99241 0.0
O174 O 0.42807 0.06727 0.85742 0.0
C175 C 0.42877 0.12887 0.15885 0.0
O176 O 0.40281 0.11167 0.11877 0.0
C177 C 0.44128 0.08989 0.60225 0.0
C178 C 0.48276 0.09832 0.53169 0.0
C179 C 0.45405 0.0932 0.51459 0.0
N180 N 0.46195 0.09426 0.66685 0.0
N181 N 0.48637 0.09832 0.62424 0.0
C182 C 0.41035 0.08356 0.62577 0.0
H183 H 0.40241 0.06978 0.68985 0.0
H184 H 0.41063 0.10482 0.63994 0.0
H185 H 0.39459 0.07167 0.56786 0.0
C186 C 0.44758 0.17134 0.86555 0.0
N187 N 0.45033 0.14692 0.87941 0.0
N188 N 0.45672 0.1388 0.7998 0.0
C189 C 0.46037 0.15913 0.73435 0.0
C190 C 0.45379 0.17978 0.77281 0.0
C191 C 0.44218 0.18785 0.94144 0.0
H192 H 0.42507 0.17165 0.99026 0.0
H193 H 0.43489 0.20319 0.91296 0.0
H194 H 0.46327 0.20121 0.98096 0.0
O195 O 0.4938 0.13061 0.98932 0.0
O196 O 0.49945 0.11332 0.85434 0.0
H197 H 0.488 0.15116 0.63991 0.0
H198 H 0.48695 0.1846 0.61607 0.0
C199 C 0.47336 0.16113 0.63971 0.0
H200 H 0.45504 0.14957 0.5889 0.0
H201 H 0.50628 0.10343 0.65816 0.0
O202 O 0.45152 0.14449 0.10791 0.0
C203 C 0.50921 0.12414 0.93484 0.0
Co204 Co 0.54453 0.6714 0.34916 0.0
Co205 Co 0.53914 0.64086 0.54148 0.0
C206 C 0.58245 0.64431 0.3954 0.0
O207 O 0.57387 0.65802 0.34183 0.0
O208 O 0.57196 0.63716 0.47755 0.0
C209 C 0.56975 0.6979 0.17692 0.0
O210 O 0.59511 0.70383 0.2164 0.0
C211 C 0.55742 0.64699 0.73485 0.0
C212 C 0.51551 0.61291 0.80125 0.0
C213 C 0.5433 0.63764 0.82048 0.0
N214 N 0.53811 0.62977 0.66843 0.0
N215 N 0.5136 0.60862 0.70877 0.0
C216 C 0.58702 0.67433 0.71489 0.0
H217 H 0.58917 0.68007 0.63991 0.0
H218 H 0.59009 0.69363 0.75729 0.0
H219 H 0.60515 0.6697 0.73406 0.0
C220 C 0.55118 0.72133 0.47064 0.0
N221 N 0.5488 0.69431 0.45717 0.0
N222 N 0.54313 0.6801 0.53724 0.0
C223 C 0.53963 0.6969 0.60281 0.0
C224 C 0.54556 0.72382 0.56364 0.0
C225 C 0.55558 0.7428 0.39431 0.0
H226 H 0.53409 0.73461 0.35668 0.0
H227 H 0.57236 0.74375 0.34401 0.0
H228 H 0.56284 0.76549 0.42225 0.0
O229 O 0.50442 0.63459 0.34755 0.0
O230 O 0.50065 0.61194 0.48224 0.0
H231 H 0.51262 0.66146 0.69873 0.0
H232 H 0.51243 0.69549 0.71952 0.0
C233 C 0.52665 0.68613 0.69768 0.0
H234 H 0.54491 0.69391 0.74941 0.0
H235 H 0.49447 0.59314 0.67291 0.0
O236 O 0.54721 0.69105 0.22868 0.0
C237 C 0.48991 0.61279 0.40327 0.0
Co238 Co 0.87776 0.54998 0.68031 0.0
Co239 Co 0.89704 0.53849 0.87387 0.0
C240 C 0.94104 0.58609 0.74315 0.0
O241 O 0.92078 0.58068 0.68361 0.0
O242 O 0.93472 0.57148 0.81906 0.0
C243 C 0.87866 0.57647 0.50845 0.0
O244 O 0.89827 0.60142 0.54934 0.0
C245 C 0.91023 0.5564 0.06511 0.0
C246 C 0.89875 0.51383 0.13497 0.0
C247 C 0.90552 0.54306 0.15203 0.0
N248 N 0.90529 0.53565 0.00051 0.0
N249 N 0.89954 0.51055 0.04247 0.0
C250 C 0.91454 0.58666 0.0419 0.0
H251 H 0.90776 0.5873 0.96923 0.0
H252 H 0.90176 0.59289 0.09017 0.0
H253 H 0.93866 0.60358 0.04829 0.0
C254 C 0.83219 0.55494 0.79723 0.0
N255 N 0.85634 0.55153 0.78602 0.0
N256 N 0.86309 0.54421 0.86643 0.0
C257 C 0.84244 0.54113 0.92998 0.0
C258 C 0.82267 0.54845 0.88902 0.0
C259 C 0.81722 0.5618 0.71992 0.0
H260 H 0.80393 0.54123 0.67797 0.0
H261 H 0.83439 0.57912 0.67372 0.0
H262 H 0.80204 0.56947 0.74714 0.0
O263 O 0.87477 0.50982 0.67154 0.0
O264 O 0.88747 0.50101 0.81037 0.0
H265 H 0.84813 0.51298 0.02848 0.0
H266 H 0.81647 0.51745 0.05161 0.0
C267 C 0.83988 0.52906 0.02642 0.0
H268 H 0.85283 0.54781 0.07505 0.0
H269 H 0.89353 0.49053 0.008 0.0
O270 O 0.86208 0.55394 0.55905 0.0
C271 C 0.87892 0.49299 0.72709 0.0
Co272 Co 0.32803 0.87662 0.02339 0.0
Co273 Co 0.35858 0.89961 0.21683 0.0
C274 C 0.35563 0.94116 0.07705 0.0
O275 O 0.34231 0.9197 0.02023 0.0
O276 O 0.36257 0.93672 0.15813 0.0
C277 C 0.30279 0.87789 0.85164 0.0
O278 O 0.29838 0.89821 0.892 0.0
C279 C 0.35458 0.91277 0.41061 0.0
C280 C 0.38604 0.90096 0.47588 0.0
C281 C 0.36336 0.90714 0.49583 0.0
N282 N 0.37022 0.90849 0.34361 0.0
N283 N 0.3899 0.90271 0.38319 0.0
C284 C 0.32877 0.91769 0.39193 0.0
H285 H 0.32205 0.91343 0.31777 0.0
H286 H 0.30941 0.90327 0.43723 0.0
H287 H 0.33575 0.94132 0.40823 0.0
C288 C 0.27743 0.83315 0.14326 0.0
N289 N 0.30485 0.85737 0.1308 0.0
N290 N 0.31882 0.86534 0.21138 0.0
C291 C 0.30129 0.84527 0.27641 0.0
C292 C 0.27432 0.82487 0.23624 0.0
C293 C 0.25604 0.81667 0.06617 0.0
H294 H 0.264 0.80326 0.028 0.0
H295 H 0.25555 0.83288 0.01653 0.0
H296 H 0.2332 0.8014 0.09339 0.0
O297 O 0.36411 0.87217 0.01878 0.0
O298 O 0.38676 0.8897 0.15421 0.0
H299 H 0.33557 0.85154 0.37382 0.0
H300 H 0.29984 0.81939 0.39702 0.0
C301 C 0.31116 0.84288 0.37237 0.0
H302 H 0.30499 0.85536 0.42162 0.0
H303 H 0.40389 0.89709 0.34678 0.0
O304 O 0.30812 0.8609 0.90252 0.0
C305 C 0.38573 0.87858 0.07431 0.0
Co306 Co 0.45244 0.32634 0.34271 0.0
Co307 Co 0.46384 0.3584 0.53452 0.0
C308 C 0.41653 0.35382 0.3987 0.0
O309 O 0.42225 0.33869 0.34142 0.0
O310 O 0.43056 0.36234 0.4757 0.0
C311 C 0.42573 0.2989 0.17353 0.0
O312 O 0.40057 0.29252 0.21512 0.0
C313 C 0.44324 0.34973 0.72454 0.0
C314 C 0.48423 0.38057 0.80167 0.0
C315 C 0.4552 0.35691 0.81369 0.0
N316 N 0.46465 0.36724 0.66347 0.0
N317 N 0.48886 0.38623 0.71003 0.0
C318 C 0.41216 0.32675 0.69596 0.0
H319 H 0.41222 0.3067 0.66829 0.0
H320 H 0.39632 0.32028 0.75519 0.0
H321 H 0.4045 0.3358 0.639 0.0
C322 C 0.44649 0.27637 0.46478 0.0
N323 N 0.45025 0.3039 0.44964 0.0
N324 N 0.45943 0.31946 0.52701 0.0
C325 C 0.46438 0.30337 0.59108 0.0
C326 C 0.45524 0.27521 0.55543 0.0
C327 C 0.43751 0.25286 0.39163 0.0
H328 H 0.45774 0.25701 0.35223 0.0
H329 H 0.4216 0.25408 0.3423 0.0
H330 H 0.4273 0.23022 0.42327 0.0
O331 O 0.49232 0.36378 0.3364 0.0
O332 O 0.50147 0.38714 0.47239 0.0
H333 H 0.49706 0.34056 0.67147 0.0
H334 H 0.49585 0.30582 0.69493 0.0
C335 C 0.48199 0.31609 0.67851 0.0
H336 H 0.46661 0.31134 0.7374 0.0
H337 H 0.50919 0.40144 0.67911 0.0
O338 O 0.44888 0.30643 0.22277 0.0
C339 C 0.50911 0.38575 0.38908 0.0
Co340 Co 0.12654 0.45438 0.68061 0.0
Co341 Co 0.10253 0.45956 0.87469 0.0
C342 C 0.06158 0.41669 0.72994 0.0
O343 O 0.08363 0.42519 0.67523 0.0
O344 O 0.06539 0.42736 0.812 0.0
C345 C 0.12669 0.42773 0.51205 0.0
O346 O 0.10999 0.40217 0.5549 0.0
C347 C 0.08516 0.4399 0.06643 0.0
C348 C 0.10402 0.48345 0.13793 0.0
C349 C 0.09251 0.45307 0.15449 0.0
N350 N 0.09397 0.46176 0.00251 0.0
N351 N 0.10407 0.48759 0.04582 0.0
C352 C 0.06989 0.40742 0.04113 0.0
H353 H 0.05361 0.40292 0.98438 0.0
H354 H 0.08663 0.40181 0.01391 0.0
H355 H 0.05782 0.39304 0.10155 0.0
C356 C 0.17003 0.44676 0.79741 0.0
N357 N 0.14552 0.44953 0.78624 0.0
N358 N 0.13667 0.45374 0.86787 0.0
C359 C 0.15627 0.45518 0.93286 0.0
C360 C 0.17757 0.45023 0.891 0.0
C361 C 0.18736 0.4438 0.71895 0.0
H362 H 0.19844 0.4651 0.67923 0.0
H363 H 0.17178 0.42591 0.67095 0.0
H364 H 0.20462 0.43869 0.74457 0.0
O365 O 0.13067 0.49466 0.67925 0.0
O366 O 0.11287 0.49842 0.81583 0.0
H367 H 0.15301 0.48325 0.03622 0.0
H368 H 0.17772 0.46954 0.06806 0.0
C369 C 0.15653 0.46381 0.03213 0.0
H370 H 0.13849 0.44462 0.06915 0.0
H371 H 0.11346 0.50831 0.01243 0.0
O372 O 0.14253 0.45111 0.56016 0.0
C373 C 0.12406 0.50926 0.73657 0.0
Co374 Co 0.67246 0.12347 0.01582 0.0
Co375 Co 0.64183 0.10183 0.20958 0.0
C376 C 0.6439 0.05915 0.07146 0.0
O377 O 0.65795 0.08031 0.01406 0.0
O378 O 0.63672 0.06418 0.15144 0.0
C379 C 0.6978 0.12201 0.84429 0.0
O380 O 0.70154 0.10122 0.88432 0.0
C381 C 0.64611 0.08898 0.40306 0.0
C382 C 0.6155 0.10179 0.46918 0.0
C383 C 0.6378 0.09499 0.48842 0.0
N384 N 0.63049 0.09349 0.33654 0.0
N385 N 0.61136 0.09993 0.3766 0.0
C386 C 0.67156 0.08355 0.38378 0.0
H387 H 0.67743 0.08658 0.30887 0.0
H388 H 0.69145 0.09862 0.4262 0.0
H389 H 0.6647 0.06019 0.40367 0.0
C390 C 0.72371 0.16634 0.13506 0.0
N391 N 0.69584 0.14282 0.12273 0.0
N392 N 0.68203 0.13511 0.20359 0.0
C393 C 0.70029 0.15447 0.26889 0.0
C394 C 0.72751 0.17403 0.22862 0.0
C395 C 0.74545 0.18206 0.05804 0.0
H396 H 0.73893 0.19684 0.0212 0.0
H397 H 0.74456 0.16542 0.00731 0.0
H398 H 0.76857 0.19589 0.08524 0.0
O399 O 0.63649 0.12812 0.01006 0.0
O400 O 0.61433 0.11271 0.14734 0.0
H401 H 0.70251 0.1828 0.38247 0.0
H402 H 0.69646 0.14695 0.41588 0.0
C403 C 0.69058 0.15874 0.36302 0.0
H404 H 0.66626 0.15059 0.36395 0.0
H405 H 0.59756 0.10589 0.34051 0.0
O406 O 0.69257 0.13903 0.89528 0.0
C407 C 0.61531 0.12295 0.06609 0.0
C408 C 0.22489 0.42325 0.01307 0.0
C409 C 0.24802 0.44976 0.0522 0.0
C410 C 0.20275 0.42369 0.95713 0.0
C411 C 0.20335 0.4507 0.93792 0.0
H412 H 0.22407 0.40212 0.02527 0.0
H413 H 0.18478 0.40276 0.93013 0.0
S414 S 0.25968 0.52617 0.02172 0.0
N415 N 0.27041 0.50362 0.06727 0.0
N416 N 0.22923 0.50457 0.96057 0.0
C417 C 0.22665 0.47736 0.97543 0.0
C418 C 0.24887 0.47685 0.03321 0.0
C419 C 0.76143 0.22857 0.25956 0.0
C420 C 0.75332 0.19873 0.27726 0.0
C421 C 0.78359 0.25194 0.31292 0.0
C422 C 0.79884 0.24633 0.38452 0.0
H423 H 0.75008 0.2338 0.20573 0.0
H424 H 0.78902 0.27468 0.29755 0.0
S425 S 0.78552 0.17172 0.45744 0.0
N426 N 0.76137 0.16448 0.37222 0.0
N427 N 0.80416 0.20853 0.46934 0.0
C428 C 0.79078 0.21649 0.40282 0.0
C429 C 0.76781 0.19267 0.34968 0.0
C430 C 0.57202 0.77388 0.64058 0.0
C431 C 0.545 0.74878 0.61247 0.0
C432 C 0.57206 0.79619 0.6968 0.0
C433 C 0.54508 0.79385 0.7274 0.0
H434 H 0.59323 0.77606 0.61986 0.0
H435 H 0.59328 0.81558 0.71548 0.0
S436 S 0.46845 0.73258 0.67271 0.0
N437 N 0.49067 0.72317 0.61766 0.0
N438 N 0.49077 0.7645 0.72618 0.0
C439 C 0.51797 0.76877 0.70026 0.0
C440 C 0.51793 0.74641 0.6418 0.0
C441 C 0.79902 0.57554 0.96194 0.0
C442 C 0.797 0.54836 0.93534 0.0
C443 C 0.7766 0.57588 0.01667 0.0
C444 C 0.75172 0.54906 0.04722 0.0
H445 H 0.81826 0.59663 0.94139 0.0
H446 H 0.77851 0.5972 0.03428 0.0
S447 S 0.73597 0.47215 0.99569 0.0
N448 N 0.7679 0.49407 0.94163 0.0
N449 N 0.72637 0.49474 0.04724 0.0
C450 C 0.74957 0.52181 0.0214 0.0
C451 C 0.77203 0.52145 0.96446 0.0
C452 C 0.20225 0.77916 0.37117 0.0
C453 C 0.20421 0.75406 0.39882 0.0
C454 C 0.22452 0.80155 0.315 0.0
C455 C 0.24913 0.79923 0.28395 0.0
H456 H 0.18321 0.78128 0.39214 0.0
H457 H 0.2227 0.82096 0.2967 0.0
S458 S 0.26438 0.73782 0.33676 0.0
N459 N 0.23274 0.72831 0.39195 0.0
N460 N 0.27408 0.7699 0.28424 0.0
C461 C 0.25116 0.77414 0.3106 0.0
C462 C 0.22885 0.75169 0.36887 0.0
C463 C 0.48115 0.25069 0.63071 0.0
C464 C 0.45438 0.24993 0.60665 0.0
C465 C 0.48096 0.22871 0.68867 0.0
C466 C 0.45395 0.20504 0.72336 0.0
H467 H 0.50241 0.26858 0.60531 0.0
H468 H 0.50205 0.22995 0.70532 0.0
S469 S 0.37796 0.19351 0.68279 0.0
N470 N 0.40034 0.22436 0.62434 0.0
N471 N 0.39988 0.18239 0.73084 0.0
C472 C 0.42709 0.20419 0.70045 0.0
C473 C 0.42731 0.22672 0.64217 0.0
C474 C 0.45515 0.58163 0.27613 0.0
C475 C 0.46116 0.58689 0.3719 0.0
C476 C 0.4297 0.5558 0.24372 0.0
C477 C 0.40893 0.53438 0.3057 0.0
H478 H 0.47076 0.59707 0.22536 0.0
H479 H 0.42654 0.55242 0.16935 0.0
S480 S 0.41308 0.5386 0.56368 0.0
N481 N 0.44342 0.56924 0.52856 0.0
N482 N 0.39541 0.52091 0.46807 0.0
C483 C 0.41403 0.53994 0.40185 0.0
C484 C 0.44018 0.56609 0.4348 0.0
C485 C 0.87967 0.46061 0.59829 0.0
C486 C 0.87524 0.46421 0.69291 0.0
C487 C 0.87918 0.43466 0.56606 0.0
C488 C 0.87378 0.41109 0.62694 0.0
H489 H 0.88464 0.47843 0.54917 0.0
H490 H 0.88367 0.43338 0.49317 0.0
S491 S 0.8577 0.40835 0.88013 0.0
N492 N 0.86326 0.44129 0.846 0.0
N493 N 0.86172 0.39242 0.78605 0.0
C494 C 0.86787 0.41391 0.72114 0.0
C495 C 0.86879 0.44047 0.75395 0.0
C496 C 0.44171 0.87393 0.91347 0.0
C497 C 0.4628 0.87377 0.97512 0.0
C498 C 0.4163 0.87433 0.94631 0.0
C499 C 0.41116 0.87505 0.04219 0.0
H500 H 0.44503 0.87419 0.83907 0.0
H501 H 0.40111 0.8751 0.89583 0.0
S502 S 0.45864 0.87326 0.23322 0.0
N503 N 0.47602 0.87294 0.13731 0.0
N504 N 0.42851 0.87402 0.19855 0.0
C505 C 0.43161 0.87405 0.10472 0.0
C506 C 0.45732 0.87329 0.07135 0.0
C507 C 0.58458 0.45737 0.37754 0.0
C508 C 0.5891 0.46328 0.28152 0.0
C509 C 0.55907 0.43192 0.41147 0.0
C510 C 0.53714 0.41107 0.35086 0.0
H511 H 0.60038 0.47302 0.42748 0.0
H512 H 0.55634 0.42885 0.48602 0.0
S513 S 0.5392 0.41492 0.09276 0.0
N514 N 0.57014 0.44529 0.12594 0.0
N515 N 0.52232 0.39738 0.18945 0.0
C516 C 0.54191 0.41607 0.25443 0.0
C517 C 0.5678 0.44217 0.21987 0.0
C518 C 0.12729 0.54449 0.61156 0.0
C519 C 0.12728 0.5383 0.70694 0.0
C520 C 0.12739 0.57036 0.58108 0.0
C521 C 0.12799 0.59137 0.64466 0.0
H522 H 0.12617 0.52872 0.55971 0.0
H523 H 0.12658 0.57369 0.50704 0.0
S524 S 0.13015 0.58669 0.90221 0.0
N525 N 0.12926 0.55599 0.8648 0.0
N526 N 0.12982 0.60476 0.80797 0.0
C527 C 0.12912 0.586 0.74033 0.0
C528 C 0.12863 0.55944 0.77132 0.0
C529 C 0.58151 0.1213 0.93906 0.0
C530 C 0.5901 0.12656 0.03305 0.0
C531 C 0.55585 0.12142 0.90746 0.0
C532 C 0.53798 0.12728 0.96827 0.0
H533 H 0.59404 0.11587 0.89002 0.0
H534 H 0.54969 0.11623 0.83506 0.0
S535 S 0.5534 0.14646 0.21907 0.0
N536 N 0.58034 0.14016 0.1852 0.0
N537 N 0.53271 0.14145 0.12594 0.0
C538 C 0.5474 0.13427 0.06162 0.0
C539 C 0.57324 0.13358 0.09399 0.0
C540 C 0.37581 0.38084 0.24053 0.0
C541 C 0.36565 0.39495 0.30225 0.0
C542 C 0.39062 0.36601 0.27305 0.0
C543 C 0.3964 0.36516 0.3686 0.0
H544 H 0.37301 0.38191 0.16628 0.0
H545 H 0.39886 0.3564 0.22212 0.0
S546 S 0.37305 0.39718 0.55986 0.0
N547 N 0.36111 0.40573 0.46461 0.0
N548 N 0.3892 0.37822 0.52478 0.0
C549 C 0.38532 0.37813 0.43133 0.0
C550 C 0.3699 0.39291 0.39846 0.0
C551 C 0.00578 0.38682 0.75171 0.0
C552 C 0.03076 0.39714 0.69267 0.0
C553 C 0.97652 0.37233 0.71612 0.0
C554 C 0.97096 0.36785 0.61976 0.0
H555 H 0.0088 0.39085 0.82586 0.0
H556 H 0.95821 0.36588 0.76458 0.0
S557 S 0.0281 0.38709 0.43576 0.0
N558 N 0.04758 0.39902 0.53288 0.0
N559 N 0.99267 0.37221 0.46692 0.0
C560 C 0.99554 0.37652 0.56036 0.0
C561 C 0.02536 0.39099 0.59654 0.0
C562 C 0.62859 0.02155 0.94301 0.0
C563 C 0.63254 0.02794 0.03902 0.0
C564 C 0.61391 0.99198 0.90999 0.0
C565 C 0.60301 0.96755 0.97142 0.0
H566 H 0.6356 0.03947 0.89272 0.0
H567 H 0.61027 0.98829 0.83586 0.0
S568 S 0.61109 0.97237 0.22907 0.0
N569 N 0.62668 0.00754 0.19459 0.0
N570 N 0.59971 0.95205 0.13337 0.0
C571 C 0.60857 0.97374 0.06746 0.0
C572 C 0.62312 0.00387 0.10101 0.0
C573 C 0.61724 0.62375 0.41537 0.0
C574 C 0.60177 0.63309 0.35631 0.0
C575 C 0.63247 0.60969 0.37992 0.0
C576 C 0.63247 0.60391 0.28395 0.0
H577 H 0.61696 0.62662 0.48987 0.0
H578 H 0.64318 0.60209 0.42901 0.0
S579 S 0.59655 0.6251 0.09882 0.0
N580 N 0.58861 0.63672 0.19587 0.0
N581 N 0.61697 0.61016 0.13022 0.0
C582 C 0.61811 0.6142 0.22378 0.0
C583 C 0.60285 0.62879 0.25964 0.0
C584 C 0.02435 0.61527 0.72341 0.0
C585 C 0.03261 0.63428 0.6457 0.0
C586 C 0.99505 0.60119 0.75809 0.0
C587 C 0.97293 0.6058 0.71674 0.0
H588 H 0.0404 0.61033 0.75557 0.0
H589 H 0.98945 0.58552 0.815 0.0
S590 S 0.98577 0.65968 0.52682 0.0
N591 N 0.01822 0.66084 0.53774 0.0
N592 N 0.96304 0.63498 0.60386 0.0
C593 C 0.98169 0.62669 0.64342 0.0
C594 C 0.01154 0.64074 0.60748 0.0
C595 C 0.38655 0.00757 0.91264 0.0
C596 C 0.39595 0.0322 0.97266 0.0
C597 C 0.372 0.97815 0.94676 0.0
C598 C 0.36666 0.97209 0.04262 0.0
H599 H 0.3914 0.01101 0.83897 0.0
H600 H 0.36628 0.96012 0.89776 0.0
S601 S 0.38288 0.02797 0.22823 0.0
N602 N 0.39545 0.04801 0.13227 0.0
N603 N 0.3691 0.99279 0.19586 0.0
C604 C 0.37435 0.99624 0.10286 0.0
C605 C 0.38866 0.02623 0.06803 0.0
C606 C 0.31507 0.41043 0.63829 0.0
C607 C 0.31042 0.43126 0.58804 0.0
C608 C 0.33117 0.41831 0.72206 0.0
C609 C 0.34307 0.44725 0.75906 0.0
H610 H 0.30749 0.38823 0.61072 0.0
H611 H 0.33517 0.40195 0.75632 0.0
S612 S 0.33275 0.50847 0.66441 0.0
N613 N 0.31599 0.48101 0.58841 0.0
N614 N 0.346 0.49566 0.74569 0.0
C615 C 0.33699 0.46769 0.71291 0.0
C616 C 0.32059 0.45969 0.62783 0.0
C617 C 0.89974 0.36446 0.99612 0.0
C618 C 0.90501 0.35183 0.07551 0.0
C619 C 0.89131 0.34906 0.91165 0.0
C620 C 0.88798 0.32042 0.90261 0.0
H621 H 0.90098 0.38605 0.0002 0.0
H622 H 0.88723 0.35965 0.85288 0.0
S623 S 0.90068 0.27751 0.08487 0.0
N624 N 0.90711 0.3087 0.13687 0.0
N625 N 0.89233 0.2806 0.97626 0.0
C626 C 0.89468 0.30805 0.97893 0.0
C627 C 0.90293 0.32353 0.0659 0.0
C628 C 0.54929 0.89323 0.25768 0.0
C629 C 0.56753 0.88028 0.2498 0.0
C630 C 0.54419 0.90242 0.34379 0.0
C631 C 0.55681 0.89875 0.42603 0.0
H632 H 0.53887 0.89632 0.19651 0.0
H633 H 0.5295 0.9118 0.34617 0.0
S634 S 0.60613 0.86515 0.44026 0.0
N635 N 0.59884 0.86464 0.32842 0.0
N636 N 0.58835 0.88034 0.49187 0.0
C637 C 0.57561 0.88611 0.41824 0.0
C638 C 0.58117 0.87726 0.32964 0.0
C639 C 0.64111 0.55012 0.65829 0.0
C640 C 0.65789 0.56141 0.74041 0.0
C641 C 0.65503 0.5553 0.57155 0.0
C642 C 0.68634 0.57212 0.56324 0.0
H643 H 0.61694 0.53622 0.66131 0.0
H644 H 0.64119 0.54567 0.51042 0.0
S645 S 0.74116 0.6078 0.75314 0.0
N646 N 0.70826 0.59102 0.80554 0.0
N647 N 0.73392 0.60125 0.64116 0.0
C648 C 0.70352 0.58474 0.643 0.0
C649 C 0.68943 0.57927 0.73208 0.0
C650 C 0.13027 0.66507 0.05774 0.0
C651 C 0.10223 0.65537 0.0995 0.0
C652 C 0.13804 0.68091 0.97379 0.0
C653 C 0.11802 0.68761 0.92774 0.0
H654 H 0.14638 0.66025 0.09005 0.0
H655 H 0.15963 0.68718 0.94343 0.0
S656 S 0.04166 0.66723 0.00982 0.0
N657 N 0.05449 0.65372 0.09031 0.0
N658 N 0.06881 0.68362 0.93249 0.0
C659 C 0.09011 0.67872 0.97054 0.0
C660 C 0.08226 0.66252 0.05628 0.0
C661 C 0.42734 0.11349 0.41702 0.0
C662 C 0.44413 0.09871 0.42319 0.0
C663 C 0.42214 0.12308 0.33121 0.0
C664 C 0.43411 0.11887 0.24903 0.0
H665 H 0.41903 0.11889 0.4785 0.0
H666 H 0.40937 0.13457 0.32949 0.0
S667 S 0.476 0.0781 0.22427 0.0
N668 N 0.46987 0.0777 0.33699 0.0
N669 N 0.46102 0.0967 0.17678 0.0
C670 C 0.45 0.10333 0.25335 0.0
C671 C 0.45478 0.09305 0.3401 0.0
C672 C 0.58642 0.68485 0.02908 0.0
C673 C 0.5644 0.68788 0.07835 0.0
C674 C 0.57969 0.66896 0.94498 0.0
C675 C 0.55078 0.65564 0.90687 0.0
H676 H 0.60863 0.69339 0.0579 0.0
H677 H 0.59693 0.66611 0.9116 0.0
S678 S 0.48678 0.66199 0.99788 0.0
N679 N 0.51364 0.67971 0.07514 0.0
N680 N 0.50115 0.65006 0.91748 0.0
C681 C 0.52922 0.66036 0.95165 0.0
C682 C 0.53604 0.67657 0.03693 0.0
C683 C 0.87217 0.53377 0.28796 0.0
C684 C 0.89852 0.55331 0.23953 0.0
C685 C 0.86475 0.54235 0.37148 0.0
C686 C 0.88342 0.57085 0.4103 0.0
H687 H 0.85719 0.51149 0.26149 0.0
H688 H 0.84472 0.52602 0.40751 0.0
S689 S 0.95391 0.63115 0.30573 0.0
N690 N 0.9428 0.60264 0.2338 0.0
N691 N 0.92831 0.61957 0.38851 0.0
C692 C 0.90907 0.5912 0.35961 0.0
C693 C 0.91682 0.5822 0.27506 0.0
C694 C 0.33729 0.91771 0.62469 0.0
C695 C 0.34562 0.89842 0.5826 0.0
C696 C 0.32143 0.90996 0.70892 0.0
C697 C 0.3132 0.88253 0.75367 0.0
H698 H 0.34395 0.93934 0.59397 0.0
H699 H 0.31688 0.92626 0.7411 0.0
S700 S 0.32545 0.82216 0.66248 0.0
N701 N 0.34161 0.8494 0.58548 0.0
N702 N 0.31156 0.83464 0.74281 0.0
C703 C 0.31973 0.86227 0.70858 0.0
C704 C 0.33609 0.8703 0.6235 0.0
C705 C 0.45188 0.35749 0.98566 0.0
C706 C 0.44358 0.34065 0.90306 0.0
C707 C 0.44559 0.34357 0.07266 0.0
C708 C 0.43085 0.31224 0.08054 0.0
H709 H 0.46394 0.38175 0.98308 0.0
H710 H 0.45268 0.35746 0.13446 0.0
S711 S 0.40482 0.25735 0.88849 0.0
N712 N 0.42004 0.29029 0.83652 0.0
N713 N 0.40789 0.26452 0.00103 0.0
C714 C 0.42182 0.29492 0.99976 0.0
C715 C 0.42828 0.30903 0.9106 0.0
C716 C 0.10677 0.45278 0.41143 0.0
C717 C 0.11653 0.43191 0.42062 0.0
C718 C 0.09668 0.45731 0.32616 0.0
C719 C 0.09641 0.44161 0.2457 0.0
H720 H 0.10691 0.46578 0.47082 0.0
H721 H 0.09003 0.47417 0.32264 0.0
S722 S 0.11924 0.38347 0.23634 0.0
N723 N 0.12393 0.3941 0.34611 0.0
N724 N 0.10665 0.40343 0.18373 0.0
C725 C 0.10535 0.41983 0.25528 0.0
C726 C 0.11503 0.41484 0.3433 0.0
C727 C 0.66321 0.08328 0.61641 0.0
C728 C 0.65563 0.10321 0.57486 0.0
C729 C 0.67899 0.09048 0.70069 0.0
C730 C 0.68786 0.11796 0.74598 0.0
H731 H 0.65595 0.06157 0.58536 0.0
H732 H 0.68287 0.0737 0.73262 0.0
S733 S 0.67793 0.17989 0.65588 0.0
N734 N 0.66119 0.15288 0.57847 0.0
N735 N 0.69113 0.16661 0.73593 0.0
C736 C 0.6822 0.13888 0.70122 0.0
C737 C 0.66592 0.13141 0.6161 0.0
loop_
_geom_bond_atom_site_label_1
_geom_bond_atom_site_label_2
_geom_bond_distance
_geom_bond_site_symmetry_2
_ccdc_geom_bond_type
Co0 O3 1.970 . S
Co0 N17 1.989 . S
Co0 O25 1.967 . S
Co0 O32 1.920 . S
Co1 O4 1.966 . S
Co1 N10 2.022 1_554 S
Co1 N18 1.993 . S
Co1 O26 1.941 . S
C2 O3 1.258 . S
C2 O4 1.263 . S
O3 Co0 1.970 . S
O3 C2 1.258 . S
O4 Co1 1.966 . S
O4 C2 1.263 . S
C5 O6 1.235 . S
C5 O32 1.289 . S
O6 C5 1.235 . S
C7 C9 1.400 . S
C7 N10 1.351 . S
C7 C12 1.501 . S
C8 C9 1.387 . S
C8 N11 1.341 . S
C9 C7 1.400 . S
C9 C8 1.387 . S
N10 Co1 2.022 1_556 S
N10 C7 1.351 . S
N10 N11 1.365 . S
N11 C8 1.341 . S
N11 N10 1.365 . S
N11 H31 0.862 . S
C12 C7 1.501 . S
C12 H13 0.961 1_556 S
C12 H14 0.961 . S
C12 H15 0.960 . S
H13 C12 0.961 1_554 S
H14 C12 0.961 . S
H15 C12 0.960 . S
C16 N17 1.342 . S
C16 C20 1.401 . S
C16 C21 1.499 . S
N17 Co0 1.989 . S
N17 C16 1.342 . S
N17 N18 1.388 . S
N18 Co1 1.993 . S
N18 N17 1.388 . S
N18 C19 1.346 . S
C19 N18 1.346 . S
C19 C20 1.396 . S
C19 C29 1.510 1_554 S
C20 C16 1.401 . S
C20 C19 1.396 . S
C21 C16 1.499 . S
C21 H22 0.959 . S
C21 H23 0.960 . S
C21 H24 0.961 . S
H22 C21 0.959 . S
H23 C21 0.960 . S
H24 C21 0.961 . S
O25 Co0 1.967 . S
O25 C33 1.258 . S
O26 Co1 1.941 . S
O26 C33 1.266 . S
H27 C29 0.959 . S
H28 C29 0.961 . S
C29 C19 1.510 1_556 S
C29 H27 0.959 . S
C29 H28 0.961 . S
C29 H30 0.960 . S
H30 C29 0.960 . S
H31 N11 0.862 . S
O32 Co0 1.920 . S
O32 C5 1.289 . S
C33 O25 1.258 . S
C33 O26 1.266 . S
Co34 O37 1.970 . S
Co34 N51 1.989 . S
Co34 O59 1.967 . S
Co34 O66 1.920 . S
Co35 O38 1.966 . S
Co35 N44 2.022 . S
Co35 N52 1.993 . S
Co35 O60 1.941 . S
C36 O37 1.258 . S
C36 O38 1.263 . S
O37 Co34 1.970 . S
O37 C36 1.258 . S
O38 Co35 1.966 . S
O38 C36 1.263 . S
C39 O40 1.235 . S
C39 O66 1.289 . S
O40 C39 1.235 . S
C41 C43 1.400 . S
C41 N44 1.351 . S
C41 C46 1.501 . S
C42 C43 1.387 . S
C42 N45 1.341 . S
C43 C41 1.400 . S
C43 C42 1.387 . S
N44 Co35 2.022 . S
N44 C41 1.351 . S
N44 N45 1.365 . S
N45 C42 1.341 . S
N45 N44 1.365 . S
N45 H65 0.862 . S
C46 C41 1.501 . S
C46 H47 0.961 . S
C46 H48 0.961 . S
C46 H49 0.960 . S
H47 C46 0.961 . S
H48 C46 0.961 . S
H49 C46 0.960 . S
C50 N51 1.342 . S
C50 C54 1.401 . S
C50 C55 1.499 . S
N51 Co34 1.989 . S
N51 C50 1.342 . S
N51 N52 1.388 . S
N52 Co35 1.993 . S
N52 N51 1.388 . S
N52 C53 1.346 . S
C53 N52 1.346 . S
C53 C54 1.396 . S
C53 C63 1.510 . S
C54 C50 1.401 . S
C54 C53 1.396 . S
C55 C50 1.499 . S
C55 H56 0.959 . S
C55 H57 0.960 . S
C55 H58 0.961 . S
H56 C55 0.959 . S
H57 C55 0.960 . S
H58 C55 0.961 . S
O59 Co34 1.967 . S
O59 C67 1.258 . S
O60 Co35 1.941 . S
O60 C67 1.266 . S
H61 C63 0.959 . S
H62 C63 0.961 . S
C63 C53 1.510 . S
C63 H61 0.959 . S
C63 H62 0.961 . S
C63 H64 0.960 . S
H64 C63 0.960 . S
H65 N45 0.862 . S
O66 Co34 1.920 . S
O66 C39 1.289 . S
C67 O59 1.258 . S
C67 O60 1.266 . S
Co68 O71 1.970 . S
Co68 N85 1.989 . S
Co68 O93 1.967 . S
Co68 O100 1.920 1_556 S
Co69 O72 1.966 . S
Co69 N78 2.022 . S
Co69 N86 1.993 . S
Co69 O94 1.941 . S
C70 O71 1.258 . S
C70 O72 1.263 . S
O71 Co68 1.970 . S
O71 C70 1.258 . S
O72 Co69 1.966 . S
O72 C70 1.263 . S
C73 O74 1.235 . S
C73 O100 1.289 . S
O74 C73 1.235 . S
C75 C77 1.400 . S
C75 N78 1.351 . S
C75 C80 1.501 . S
C76 C77 1.387 . S
C76 N79 1.341 . S
C77 C75 1.400 . S
C77 C76 1.387 . S
N78 Co69 2.022 . S
N78 C75 1.351 . S
N78 N79 1.365 . S
N79 C76 1.341 . S
N79 N78 1.365 . S
N79 H99 0.862 . S
C80 C75 1.501 . S
C80 H81 0.961 . S
C80 H82 0.961 . S
C80 H83 0.960 . S
H81 C80 0.961 . S
H82 C80 0.961 . S
H83 C80 0.960 . S
C84 N85 1.342 . S
C84 C88 1.401 . S
C84 C89 1.499 1_556 S
N85 Co68 1.989 . S
N85 C84 1.342 . S
N85 N86 1.388 . S
N86 Co69 1.993 . S
N86 N85 1.388 . S
N86 C87 1.346 . S
C87 N86 1.346 . S
C87 C88 1.396 . S
C87 C97 1.510 . S
C88 C84 1.401 . S
C88 C87 1.396 . S
C89 C84 1.499 1_554 S
C89 H90 0.959 . S
C89 H91 0.960 . S
C89 H92 0.961 . S
H90 C89 0.959 . S
H91 C89 0.960 . S
H92 C89 0.961 . S
O93 Co68 1.967 . S
O93 C101 1.258 . S
O94 Co69 1.941 . S
O94 C101 1.266 . S
H95 C97 0.959 . S
H96 C97 0.961 . S
C97 C87 1.510 . S
C97 H95 0.959 . S
C97 H96 0.961 . S
C97 H98 0.960 . S
H98 C97 0.960 . S
H99 N79 0.862 . S
O100 Co68 1.920 1_554 S
O100 C73 1.289 . S
C101 O93 1.258 . S
C101 O94 1.266 . S
Co102 O105 1.970 . S
Co102 N119 1.989 . S
Co102 O127 1.967 . S
Co102 O134 1.920 . S
Co103 O106 1.966 . S
Co103 N112 2.022 1_554 S
Co103 N120 1.993 . S
Co103 O128 1.941 . S
C104 O105 1.258 . S
C104 O106 1.263 . S
O105 Co102 1.970 . S
O105 C104 1.258 . S
O106 Co103 1.966 . S
O106 C104 1.263 . S
C107 O108 1.235 . S
C107 O134 1.289 . S
O108 C107 1.235 . S
C109 C111 1.400 . S
C109 N112 1.351 . S
C109 C114 1.501 . S
C110 C111 1.387 . S
C110 N113 1.341 . S
C111 C109 1.400 . S
C111 C110 1.387 . S
N112 Co103 2.022 1_556 S
N112 C109 1.351 . S
N112 N113 1.365 . S
N113 C110 1.341 . S
N113 N112 1.365 . S
N113 H133 0.862 . S
C114 C109 1.501 . S
C114 H115 0.961 1_556 S
C114 H116 0.961 . S
C114 H117 0.960 . S
H115 C114 0.961 1_554 S
H116 C114 0.961 . S
H117 C114 0.960 . S
C118 N119 1.342 . S
C118 C122 1.401 . S
C118 C123 1.499 . S
N119 Co102 1.989 . S
N119 C118 1.342 . S
N119 N120 1.388 . S
N120 Co103 1.993 . S
N120 N119 1.388 . S
N120 C121 1.346 . S
C121 N120 1.346 . S
C121 C122 1.396 . S
C121 C131 1.510 1_554 S
C122 C118 1.401 . S
C122 C121 1.396 . S
C123 C118 1.499 . S
C123 H124 0.959 . S
C123 H125 0.960 . S
C123 H126 0.961 . S
H124 C123 0.959 . S
H125 C123 0.960 . S
H126 C123 0.961 . S
O127 Co102 1.967 . S
O127 C135 1.258 . S
O128 Co103 1.941 . S
O128 C135 1.266 . S
H129 C131 0.959 . S
H130 C131 0.961 . S
C131 C121 1.510 1_556 S
C131 H129 0.959 . S
C131 H130 0.961 . S
C131 H132 0.960 . S
H132 C131 0.960 . S
H133 N113 0.862 . S
O134 Co102 1.920 . S
O134 C107 1.289 . S
C135 O127 1.258 . S
C135 O128 1.266 . S
Co136 O139 1.970 . S
Co136 N153 1.989 . S
Co136 O161 1.967 . S
Co136 O168 1.920 . S
Co137 O140 1.966 . S
Co137 N146 2.022 . S
Co137 N154 1.993 . S
Co137 O162 1.941 . S
C138 O139 1.258 . S
C138 O140 1.263 . S
O139 Co136 1.970 . S
O139 C138 1.258 . S
O140 Co137 1.966 . S
O140 C138 1.263 . S
C141 O142 1.235 . S
C141 O168 1.289 . S
O142 C141 1.235 . S
C143 C145 1.400 . S
C143 N146 1.351 . S
C143 C148 1.501 . S
C144 C145 1.387 . S
C144 N147 1.341 . S
C145 C143 1.400 . S
C145 C144 1.387 . S
N146 Co137 2.022 . S
N146 C143 1.351 . S
N146 N147 1.365 . S
N147 C144 1.341 . S
N147 N146 1.365 . S
N147 H167 0.862 . S
C148 C143 1.501 . S
C148 H149 0.961 . S
C148 H150 0.961 . S
C148 H151 0.960 . S
H149 C148 0.961 . S
H150 C148 0.961 . S
H151 C148 0.960 . S
C152 N153 1.342 . S
C152 C156 1.401 . S
C152 C157 1.499 . S
N153 Co136 1.989 . S
N153 C152 1.342 . S
N153 N154 1.388 . S
N154 Co137 1.993 . S
N154 N153 1.388 . S
N154 C155 1.346 . S
C155 N154 1.346 . S
C155 C156 1.396 . S
C155 C165 1.510 . S
C156 C152 1.401 . S
C156 C155 1.396 . S
C157 C152 1.499 . S
C157 H158 0.959 . S
C157 H159 0.960 . S
C157 H160 0.961 . S
H158 C157 0.959 . S
H159 C157 0.960 . S
H160 C157 0.961 . S
O161 Co136 1.967 . S
O161 C169 1.258 . S
O162 Co137 1.941 . S
O162 C169 1.266 . S
H163 C165 0.959 . S
H164 C165 0.961 . S
C165 C155 1.510 . S
C165 H163 0.959 . S
C165 H164 0.961 . S
C165 H166 0.960 . S
H166 C165 0.960 . S
H167 N147 0.862 . S
O168 Co136 1.920 . S
O168 C141 1.289 . S
C169 O161 1.258 . S
C169 O162 1.266 . S
Co170 O173 1.970 . S
Co170 N187 1.989 . S
Co170 O195 1.967 . S
Co170 O202 1.920 1_556 S
Co171 O174 1.966 . S
Co171 N180 2.022 . S
Co171 N188 1.993 . S
Co171 O196 1.941 . S
C172 O173 1.258 . S
C172 O174 1.263 . S
O173 Co170 1.970 . S
O173 C172 1.258 . S
O174 Co171 1.966 . S
O174 C172 1.263 . S
C175 O176 1.235 . S
C175 O202 1.289 . S
O176 C175 1.235 . S
C177 C179 1.400 . S
C177 N180 1.351 . S
C177 C182 1.501 . S
C178 C179 1.387 . S
C178 N181 1.341 . S
C179 C177 1.400 . S
C179 C178 1.387 . S
N180 Co171 2.022 . S
N180 C177 1.351 . S
N180 N181 1.365 . S
N181 C178 1.341 . S
N181 N180 1.365 . S
N181 H201 0.862 . S
C182 C177 1.501 . S
C182 H183 0.961 . S
C182 H184 0.961 . S
C182 H185 0.960 . S
H183 C182 0.961 . S
H184 C182 0.961 . S
H185 C182 0.960 . S
C186 N187 1.342 . S
C186 C190 1.401 . S
C186 C191 1.499 1_556 S
N187 Co170 1.989 . S
N187 C186 1.342 . S
N187 N188 1.388 . S
N188 Co171 1.993 . S
N188 N187 1.388 . S
N188 C189 1.346 . S
C189 N188 1.346 . S
C189 C190 1.396 . S
C189 C199 1.510 . S
C190 C186 1.401 . S
C190 C189 1.396 . S
C191 C186 1.499 1_554 S
C191 H192 0.959 . S
C191 H193 0.960 . S
C191 H194 0.961 . S
H192 C191 0.959 . S
H193 C191 0.960 . S
H194 C191 0.961 . S
O195 Co170 1.967 . S
O195 C203 1.258 . S
O196 Co171 1.941 . S
O196 C203 1.266 . S
H197 C199 0.959 . S
H198 C199 0.961 . S
C199 C189 1.510 . S
C199 H197 0.959 . S
C199 H198 0.961 . S
C199 H200 0.960 . S
H200 C199 0.960 . S
H201 N181 0.862 . S
O202 Co170 1.920 1_554 S
O202 C175 1.289 . S
C203 O195 1.258 . S
C203 O196 1.266 . S
Co204 O207 1.970 . S
Co204 N221 1.989 . S
Co204 O229 1.967 . S
Co204 O236 1.920 . S
Co205 O208 1.966 . S
Co205 N214 2.022 . S
Co205 N222 1.993 . S
Co205 O230 1.941 . S
C206 O207 1.258 . S
C206 O208 1.263 . S
O207 Co204 1.970 . S
O207 C206 1.258 . S
O208 Co205 1.966 . S
O208 C206 1.263 . S
C209 O210 1.235 . S
C209 O236 1.289 . S
O210 C209 1.235 . S
C211 C213 1.400 . S
C211 N214 1.351 . S
C211 C216 1.501 . S
C212 C213 1.387 . S
C212 N215 1.341 . S
C213 C211 1.400 . S
C213 C212 1.387 . S
N214 Co205 2.022 . S
N214 C211 1.351 . S
N214 N215 1.365 . S
N215 C212 1.341 . S
N215 N214 1.365 . S
N215 H235 0.862 . S
C216 C211 1.501 . S
C216 H217 0.961 . S
C216 H218 0.961 . S
C216 H219 0.960 . S
H217 C216 0.961 . S
H218 C216 0.961 . S
H219 C216 0.960 . S
C220 N221 1.342 . S
C220 C224 1.401 . S
C220 C225 1.499 . S
N221 Co204 1.989 . S
N221 C220 1.342 . S
N221 N222 1.388 . S
N222 Co205 1.993 . S
N222 N221 1.388 . S
N222 C223 1.346 . S
C223 N222 1.346 . S
C223 C224 1.396 . S
C223 C233 1.510 . S
C224 C220 1.401 . S
C224 C223 1.396 . S
C225 C220 1.499 . S
C225 H226 0.959 . S
C225 H227 0.960 . S
C225 H228 0.961 . S
H226 C225 0.959 . S
H227 C225 0.960 . S
H228 C225 0.961 . S
O229 Co204 1.967 . S
O229 C237 1.258 . S
O230 Co205 1.941 . S
O230 C237 1.266 . S
H231 C233 0.959 . S
H232 C233 0.961 . S
C233 C223 1.510 . S
C233 H231 0.959 . S
C233 H232 0.961 . S
C233 H234 0.960 . S
H234 C233 0.960 . S
H235 N215 0.862 . S
O236 Co204 1.920 . S
O236 C209 1.289 . S
C237 O229 1.258 . S
C237 O230 1.266 . S
Co238 O241 1.970 . S
Co238 N255 1.989 . S
Co238 O263 1.967 . S
Co238 O270 1.920 . S
Co239 O242 1.966 . S
Co239 N248 2.022 1_556 S
Co239 N256 1.993 . S
Co239 O264 1.941 . S
C240 O241 1.258 . S
C240 O242 1.263 . S
O241 Co238 1.970 . S
O241 C240 1.258 . S
O242 Co239 1.966 . S
O242 C240 1.263 . S
C243 O244 1.235 . S
C243 O270 1.289 . S
O244 C243 1.235 . S
C245 C247 1.400 . S
C245 N248 1.351 . S
C245 C250 1.501 . S
C246 C247 1.387 . S
C246 N249 1.341 . S
C247 C245 1.400 . S
C247 C246 1.387 . S
N248 Co239 2.022 1_554 S
N248 C245 1.351 . S
N248 N249 1.365 . S
N249 C246 1.341 . S
N249 N248 1.365 . S
N249 H269 0.862 . S
C250 C245 1.501 . S
C250 H251 0.961 1_554 S
C250 H252 0.961 . S
C250 H253 0.960 . S
H251 C250 0.961 1_556 S
H252 C250 0.961 . S
H253 C250 0.960 . S
C254 N255 1.342 . S
C254 C258 1.401 . S
C254 C259 1.499 . S
N255 Co238 1.989 . S
N255 C254 1.342 . S
N255 N256 1.388 . S
N256 Co239 1.993 . S
N256 N255 1.388 . S
N256 C257 1.346 . S
C257 N256 1.346 . S
C257 C258 1.396 . S
C257 C267 1.510 1_556 S
C258 C254 1.401 . S
C258 C257 1.396 . S
C259 C254 1.499 . S
C259 H260 0.959 . S
C259 H261 0.960 . S
C259 H262 0.961 . S
H260 C259 0.959 . S
H261 C259 0.960 . S
H262 C259 0.961 . S
O263 Co238 1.967 . S
O263 C271 1.258 . S
O264 Co239 1.941 . S
O264 C271 1.266 . S
H265 C267 0.959 . S
H266 C267 0.961 . S
C267 C257 1.510 1_554 S
C267 H265 0.959 . S
C267 H266 0.961 . S
C267 H268 0.960 . S
H268 C267 0.960 . S
H269 N249 0.862 . S
O270 Co238 1.920 . S
O270 C243 1.289 . S
C271 O263 1.258 . S
C271 O264 1.266 . S
Co272 O275 1.970 . S
Co272 N289 1.989 . S
Co272 O297 1.967 . S
Co272 O304 1.920 1_554 S
Co273 O276 1.966 . S
Co273 N282 2.022 . S
Co273 N290 1.993 . S
Co273 O298 1.941 . S
C274 O275 1.258 . S
C274 O276 1.263 . S
O275 Co272 1.970 . S
O275 C274 1.258 . S
O276 Co273 1.966 . S
O276 C274 1.263 . S
C277 O278 1.235 . S
C277 O304 1.289 . S
O278 C277 1.235 . S
C279 C281 1.400 . S
C279 N282 1.351 . S
C279 C284 1.501 . S
C280 C281 1.387 . S
C280 N283 1.341 . S
C281 C279 1.400 . S
C281 C280 1.387 . S
N282 Co273 2.022 . S
N282 C279 1.351 . S
N282 N283 1.365 . S
N283 C280 1.341 . S
N283 N282 1.365 . S
N283 H303 0.862 . S
C284 C279 1.501 . S
C284 H285 0.961 . S
C284 H286 0.961 . S
C284 H287 0.960 . S
H285 C284 0.961 . S
H286 C284 0.961 . S
H287 C284 0.960 . S
C288 N289 1.342 . S
C288 C292 1.401 . S
C288 C293 1.499 1_554 S
N289 Co272 1.989 . S
N289 C288 1.342 . S
N289 N290 1.388 . S
N290 Co273 1.993 . S
N290 N289 1.388 . S
N290 C291 1.346 . S
C291 N290 1.346 . S
C291 C292 1.396 . S
C291 C301 1.510 . S
C292 C288 1.401 . S
C292 C291 1.396 . S
C293 C288 1.499 1_556 S
C293 H294 0.959 . S
C293 H295 0.960 . S
C293 H296 0.961 . S
H294 C293 0.959 . S
H295 C293 0.960 . S
H296 C293 0.961 . S
O297 Co272 1.967 . S
O297 C305 1.258 . S
O298 Co273 1.941 . S
O298 C305 1.266 . S
H299 C301 0.959 . S
H300 C301 0.961 . S
C301 C291 1.510 . S
C301 H299 0.959 . S
C301 H300 0.961 . S
C301 H302 0.960 . S
H302 C301 0.960 . S
H303 N283 0.862 . S
O304 Co272 1.920 1_556 S
O304 C277 1.289 . S
C305 O297 1.258 . S
C305 O298 1.266 . S
Co306 O309 1.970 . S
Co306 N323 1.989 . S
Co306 O331 1.967 . S
Co306 O338 1.920 . S
Co307 O310 1.966 . S
Co307 N316 2.022 . S
Co307 N324 1.993 . S
Co307 O332 1.941 . S
C308 O309 1.258 . S
C308 O310 1.263 . S
O309 Co306 1.970 . S
O309 C308 1.258 . S
O310 Co307 1.966 . S
O310 C308 1.263 . S
C311 O312 1.235 . S
C311 O338 1.289 . S
O312 C311 1.235 . S
C313 C315 1.400 . S
C313 N316 1.351 . S
C313 C318 1.501 . S
C314 C315 1.387 . S
C314 N317 1.341 . S
C315 C313 1.400 . S
C315 C314 1.387 . S
N316 Co307 2.022 . S
N316 C313 1.351 . S
N316 N317 1.365 . S
N317 C314 1.341 . S
N317 N316 1.365 . S
N317 H337 0.862 . S
C318 C313 1.501 . S
C318 H319 0.961 . S
C318 H320 0.961 . S
C318 H321 0.960 . S
H319 C318 0.961 . S
H320 C318 0.961 . S
H321 C318 0.960 . S
C322 N323 1.342 . S
C322 C326 1.401 . S
C322 C327 1.499 . S
N323 Co306 1.989 . S
N323 C322 1.342 . S
N323 N324 1.388 . S
N324 Co307 1.993 . S
N324 N323 1.388 . S
N324 C325 1.346 . S
C325 N324 1.346 . S
C325 C326 1.396 . S
C325 C335 1.510 . S
C326 C322 1.401 . S
C326 C325 1.396 . S
C327 C322 1.499 . S
C327 H328 0.959 . S
C327 H329 0.960 . S
C327 H330 0.961 . S
H328 C327 0.959 . S
H329 C327 0.960 . S
H330 C327 0.961 . S
O331 Co306 1.967 . S
O331 C339 1.258 . S
O332 Co307 1.941 . S
O332 C339 1.266 . S
H333 C335 0.959 . S
H334 C335 0.961 . S
C335 C325 1.510 . S
C335 H333 0.959 . S
C335 H334 0.961 . S
C335 H336 0.960 . S
H336 C335 0.960 . S
H337 N317 0.862 . S
O338 Co306 1.920 . S
O338 C311 1.289 . S
C339 O331 1.258 . S
C339 O332 1.266 . S
Co340 O343 1.970 . S
Co340 N357 1.989 . S
Co340 O365 1.967 . S
Co340 O372 1.920 . S
Co341 O344 1.966 . S
Co341 N350 2.022 1_556 S
Co341 N358 1.993 . S
Co341 O366 1.941 . S
C342 O343 1.258 . S
C342 O344 1.263 . S
O343 Co340 1.970 . S
O343 C342 1.258 . S
O344 Co341 1.966 . S
O344 C342 1.263 . S
C345 O346 1.235 . S
C345 O372 1.289 . S
O346 C345 1.235 . S
C347 C349 1.400 . S
C347 N350 1.351 . S
C347 C352 1.501 . S
C348 C349 1.387 . S
C348 N351 1.341 . S
C349 C347 1.400 . S
C349 C348 1.387 . S
N350 Co341 2.022 1_554 S
N350 C347 1.351 . S
N350 N351 1.365 . S
N351 C348 1.341 . S
N351 N350 1.365 . S
N351 H371 0.862 . S
C352 C347 1.501 . S
C352 H353 0.961 1_554 S
C352 H354 0.961 . S
C352 H355 0.960 . S
H353 C352 0.961 1_556 S
H354 C352 0.961 . S
H355 C352 0.960 . S
C356 N357 1.342 . S
C356 C360 1.401 . S
C356 C361 1.499 . S
N357 Co340 1.989 . S
N357 C356 1.342 . S
N357 N358 1.388 . S
N358 Co341 1.993 . S
N358 N357 1.388 . S
N358 C359 1.346 . S
C359 N358 1.346 . S
C359 C360 1.396 . S
C359 C369 1.510 1_556 S
C360 C356 1.401 . S
C360 C359 1.396 . S
C361 C356 1.499 . S
C361 H362 0.959 . S
C361 H363 0.960 . S
C361 H364 0.961 . S
H362 C361 0.959 . S
H363 C361 0.960 . S
H364 C361 0.961 . S
O365 Co340 1.967 . S
O365 C373 1.258 . S
O366 Co341 1.941 . S
O366 C373 1.266 . S
H367 C369 0.959 . S
H368 C369 0.961 . S
C369 C359 1.510 1_554 S
C369 H367 0.959 . S
C369 H368 0.961 . S
C369 H370 0.960 . S
H370 C369 0.960 . S
H371 N351 0.862 . S
O372 Co340 1.920 . S
O372 C345 1.289 . S
C373 O365 1.258 . S
C373 O366 1.266 . S
Co374 O377 1.970 . S
Co374 N391 1.989 . S
Co374 O399 1.967 . S
Co374 O406 1.920 1_554 S
Co375 O378 1.966 . S
Co375 N384 2.022 . S
Co375 N392 1.993 . S
Co375 O400 1.941 . S
C376 O377 1.258 . S
C376 O378 1.263 . S
O377 Co374 1.970 . S
O377 C376 1.258 . S
O378 Co375 1.966 . S
O378 C376 1.263 . S
C379 O380 1.235 . S
C379 O406 1.289 . S
O380 C379 1.235 . S
C381 C383 1.400 . S
C381 N384 1.351 . S
C381 C386 1.501 . S
C382 C383 1.387 . S
C382 N385 1.341 . S
C383 C381 1.400 . S
C383 C382 1.387 . S
N384 Co375 2.022 . S
N384 C381 1.351 . S
N384 N385 1.365 . S
N385 C382 1.341 . S
N385 N384 1.365 . S
N385 H405 0.862 . S
C386 C381 1.501 . S
C386 H387 0.961 . S
C386 H388 0.961 . S
C386 H389 0.960 . S
H387 C386 0.961 . S
H388 C386 0.961 . S
H389 C386 0.960 . S
C390 N391 1.342 . S
C390 C394 1.401 . S
C390 C395 1.499 1_554 S
N391 Co374 1.989 . S
N391 C390 1.342 . S
N391 N392 1.388 . S
N392 Co375 1.993 . S
N392 N391 1.388 . S
N392 C393 1.346 . S
C393 N392 1.346 . S
C393 C394 1.396 . S
C393 C403 1.510 . S
C394 C390 1.401 . S
C394 C393 1.396 . S
C395 C390 1.499 1_556 S
C395 H396 0.959 . S
C395 H397 0.960 . S
C395 H398 0.961 . S
H396 C395 0.959 . S
H397 C395 0.960 . S
H398 C395 0.961 . S
O399 Co374 1.967 . S
O399 C407 1.258 . S
O400 Co375 1.941 . S
O400 C407 1.266 . S
H401 C403 0.959 . S
H402 C403 0.961 . S
C403 C393 1.510 . S
C403 H401 0.959 . S
C403 H402 0.961 . S
C403 H404 0.960 . S
H404 C403 0.960 . S
H405 N385 0.862 . S
O406 Co374 1.920 1_556 S
O406 C379 1.289 . S
C407 O399 1.258 . S
C407 O400 1.266 . S
C408 C409 1.369 . S
C408 C410 1.419 1_554 S
C408 H412 0.930 . S
C409 C408 1.369 . S
C409 C418 1.429 . S
C410 C408 1.419 1_556 S
C410 C411 1.363 . S
C410 H413 0.929 . S
C411 C410 1.363 . S
C411 C417 1.428 . S
H412 C408 0.930 . S
H413 C410 0.929 . S
S414 N415 1.613 1_556 S
S414 N416 1.610 . S
N415 S414 1.613 1_554 S
N415 C418 1.350 . S
N416 S414 1.610 . S
N416 C417 1.351 . S
C417 C411 1.428 . S
C417 N416 1.351 . S
C417 C418 1.434 1_556 S
C418 C409 1.429 . S
C418 N415 1.350 . S
C418 C417 1.434 1_554 S
C419 C420 1.369 . S
C419 C421 1.419 . S
C419 H423 0.930 . S
C420 C419 1.369 . S
C420 C429 1.429 . S
C421 C419 1.419 . S
C421 C422 1.363 . S
C421 H424 0.929 . S
C422 C421 1.363 . S
C422 C428 1.428 . S
H423 C419 0.930 . S
H424 C421 0.929 . S
S425 N426 1.613 . S
S425 N427 1.610 . S
N426 S425 1.613 . S
N426 C429 1.350 . S
N427 S425 1.610 . S
N427 C428 1.351 . S
C428 C422 1.428 . S
C428 N427 1.351 . S
C428 C429 1.434 . S
C429 C420 1.429 . S
C429 N426 1.350 . S
C429 C428 1.434 . S
C430 C431 1.369 . S
C430 C432 1.419 . S
C430 H434 0.930 . S
C431 C430 1.369 . S
C431 C440 1.429 . S
C432 C430 1.419 . S
C432 C433 1.363 . S
C432 H435 0.929 . S
C433 C432 1.363 . S
C433 C439 1.428 . S
H434 C430 0.930 . S
H435 C432 0.929 . S
S436 N437 1.613 . S
S436 N438 1.610 . S
N437 S436 1.613 . S
N437 C440 1.350 . S
N438 S436 1.610 . S
N438 C439 1.351 . S
C439 C433 1.428 . S
C439 N438 1.351 . S
C439 C440 1.434 . S
C440 C431 1.429 . S
C440 N437 1.350 . S
C440 C439 1.434 . S
C441 C442 1.369 . S
C441 C443 1.411 1_556 S
C441 H445 0.930 . S
C442 C441 1.369 . S
C442 C451 1.429 1_556 S
C443 C441 1.411 1_554 S
C443 C444 1.372 . S
C443 H446 0.929 1_554 S
C444 C443 1.372 . S
C444 C450 1.428 . S
H445 C441 0.930 . S
H446 C443 0.929 1_556 S
S447 N448 1.613 . S
S447 N449 1.610 . S
N448 S447 1.613 . S
N448 C451 1.350 . S
N449 S447 1.610 . S
N449 C450 1.351 . S
C450 C444 1.428 . S
C450 N449 1.351 . S
C450 C451 1.434 . S
C451 C442 1.429 1_554 S
C451 N448 1.350 . S
C451 C450 1.434 . S
C452 C453 1.369 . S
C452 C454 1.419 . S
C452 H456 0.930 . S
C453 C452 1.369 . S
C453 C462 1.429 . S
C454 C452 1.419 . S
C454 C455 1.363 . S
C454 H457 0.929 . S
C455 C454 1.363 . S
C455 C461 1.428 . S
H456 C452 0.930 . S
H457 C454 0.929 . S
S458 N459 1.613 . S
S458 N460 1.610 . S
N459 S458 1.613 . S
N459 C462 1.350 . S
N460 S458 1.610 . S
N460 C461 1.351 . S
C461 C455 1.428 . S
C461 N460 1.351 . S
C461 C462 1.434 . S
C462 C453 1.429 . S
C462 N459 1.350 . S
C462 C461 1.434 . S
C463 C464 1.369 . S
C463 C465 1.419 . S
C463 H467 0.930 . S
C464 C463 1.369 . S
C464 C473 1.429 . S
C465 C463 1.419 . S
C465 C466 1.363 . S
C465 H468 0.929 . S
C466 C465 1.363 . S
C466 C472 1.428 . S
H467 C463 0.930 . S
H468 C465 0.929 . S
S469 N470 1.613 . S
S469 N471 1.610 . S
N470 S469 1.613 . S
N470 C473 1.350 . S
N471 S469 1.610 . S
N471 C472 1.351 . S
C472 C466 1.428 . S
C472 N471 1.351 . S
C472 C473 1.434 . S
C473 C464 1.429 . S
C473 N470 1.350 . S
C473 C472 1.434 . S
C474 C475 1.369 . S
C474 C476 1.419 . S
C474 H478 0.930 . S
C475 C474 1.369 . S
C475 C484 1.429 . S
C476 C474 1.419 . S
C476 C477 1.363 . S
C476 H479 0.929 . S
C477 C476 1.363 . S
C477 C483 1.428 . S
H478 C474 0.930 . S
H479 C476 0.929 . S
S480 N481 1.613 . S
S480 N482 1.610 . S
N481 S480 1.613 . S
N481 C484 1.350 . S
N482 S480 1.610 . S
N482 C483 1.351 . S
C483 C477 1.428 . S
C483 N482 1.351 . S
C483 C484 1.434 . S
C484 C475 1.429 . S
C484 N481 1.350 . S
C484 C483 1.434 . S
C485 C486 1.369 . S
C485 C487 1.419 . S
C485 H489 0.930 . S
C486 C485 1.369 . S
C486 C495 1.429 . S
C487 C485 1.419 . S
C487 C488 1.363 . S
C487 H490 0.929 . S
C488 C487 1.363 . S
C488 C494 1.428 . S
H489 C485 0.930 . S
H490 C487 0.929 . S
S491 N492 1.613 . S
S491 N493 1.610 . S
N492 S491 1.613 . S
N492 C495 1.350 . S
N493 S491 1.610 . S
N493 C494 1.351 . S
C494 C488 1.428 . S
C494 N493 1.351 . S
C494 C495 1.434 . S
C495 C486 1.429 . S
C495 N492 1.350 . S
C495 C494 1.434 . S
C496 C497 1.369 . S
C496 C498 1.419 1_556 S
C496 H500 0.930 . S
C497 C496 1.369 . S
C497 C506 1.429 . S
C498 C496 1.419 1_554 S
C498 C499 1.363 . S
C498 H501 0.929 . S
C499 C498 1.363 . S
C499 C505 1.428 . S
H500 C496 0.930 . S
H501 C498 0.929 . S
S502 N503 1.613 1_554 S
S502 N504 1.610 . S
N503 S502 1.613 1_556 S
N503 C506 1.350 . S
N504 S502 1.610 . S
N504 C505 1.351 . S
C505 C499 1.428 . S
C505 N504 1.351 . S
C505 C506 1.434 1_554 S
C506 C497 1.429 . S
C506 N503 1.350 . S
C506 C505 1.434 1_556 S
C507 C508 1.369 . S
C507 C509 1.419 . S
C507 H511 0.930 . S
C508 C507 1.369 . S
C508 C517 1.429 . S
C509 C507 1.419 . S
C509 C510 1.363 . S
C509 H512 0.929 . S
C510 C509 1.363 . S
C510 C516 1.428 . S
H511 C507 0.930 . S
H512 C509 0.929 . S
S513 N514 1.613 . S
S513 N515 1.610 . S
N514 S513 1.613 . S
N514 C517 1.350 . S
N515 S513 1.610 . S
N515 C516 1.351 . S
C516 C510 1.428 . S
C516 N515 1.351 . S
C516 C517 1.434 . S
C517 C508 1.429 . S
C517 N514 1.350 . S
C517 C516 1.434 . S
C518 C519 1.369 . S
C518 C520 1.419 . S
C518 H522 0.930 . S
C519 C518 1.369 . S
C519 C528 1.429 . S
C520 C518 1.419 . S
C520 C521 1.363 . S
C520 H523 0.929 . S
C521 C520 1.363 . S
C521 C527 1.428 . S
H522 C518 0.930 . S
H523 C520 0.929 . S
S524 N525 1.613 . S
S524 N526 1.610 . S
N525 S524 1.613 . S
N525 C528 1.350 . S
N526 S524 1.610 . S
N526 C527 1.351 . S
C527 C521 1.428 . S
C527 N526 1.351 . S
C527 C528 1.434 . S
C528 C519 1.429 . S
C528 N525 1.350 . S
C528 C527 1.434 . S
C529 C530 1.369 . S
C529 C531 1.419 1_554 S
C529 H533 0.930 . S
C530 C529 1.369 . S
C530 C539 1.429 . S
C531 C529 1.419 1_556 S
C531 C532 1.363 . S
C531 H534 0.929 . S
C532 C531 1.363 . S
C532 C538 1.428 . S
H533 C529 0.930 . S
H534 C531 0.929 . S
S535 N536 1.613 . S
S535 N537 1.610 1_554 S
N536 S535 1.613 . S
N536 C539 1.350 . S
N537 S535 1.610 1_556 S
N537 C538 1.351 . S
C538 C532 1.428 . S
C538 N537 1.351 . S
C538 C539 1.434 1_556 S
C539 C530 1.429 . S
C539 N536 1.350 . S
C539 C538 1.434 1_554 S
C540 C541 1.369 . S
C540 C542 1.419 . S
C540 H544 0.930 . S
C541 C540 1.369 . S
C541 C550 1.429 . S
C542 C540 1.419 . S
C542 C543 1.363 . S
C542 H545 0.929 . S
C543 C542 1.363 . S
C543 C549 1.428 . S
H544 C540 0.930 . S
H545 C542 0.929 . S
S546 N547 1.613 . S
S546 N548 1.610 . S
N547 S546 1.613 . S
N547 C550 1.350 . S
N548 S546 1.610 . S
N548 C549 1.351 . S
C549 C543 1.428 . S
C549 N548 1.351 . S
C549 C550 1.434 . S
C550 C541 1.429 . S
C550 N547 1.350 . S
C550 C549 1.434 . S
C551 C552 1.369 . S
C551 C553 1.419 1_455 S
C551 H555 0.930 . S
C552 C551 1.369 . S
C552 C561 1.429 . S
C553 C551 1.419 1_655 S
C553 C554 1.363 . S
C553 H556 0.929 . S
C554 C553 1.363 . S
C554 C560 1.445 . S
H555 C551 0.930 . S
H556 C553 0.929 . S
S557 N558 1.613 . S
S557 N559 1.610 . S
N558 S557 1.613 . S
N558 C561 1.350 . S
N559 S557 1.610 . S
N559 C560 1.357 1_455 S
C560 C554 1.445 . S
C560 N559 1.357 1_655 S
C560 C561 1.411 1_655 S
C561 C552 1.429 . S
C561 N558 1.350 . S
C561 C560 1.411 1_455 S
C562 C563 1.369 1_556 S
C562 C564 1.419 1_545 S
C562 H566 0.930 . S
C563 C562 1.369 1_554 S
C563 C572 1.446 . S
C564 C562 1.419 1_565 S
C564 C565 1.363 . S
C564 H567 0.938 . S
C565 C564 1.363 . S
C565 C571 1.428 1_556 S
H566 C562 0.930 . S
H567 C564 0.938 . S
S568 N569 1.613 . S
S568 N570 1.610 . S
N569 S568 1.613 . S
N569 C572 1.344 1_565 S
N570 S568 1.610 . S
N570 C571 1.351 . S
C571 C565 1.428 1_554 S
C571 N570 1.351 . S
C571 C572 1.421 1_565 S
C572 C563 1.446 . S
C572 N569 1.344 1_545 S
C572 C571 1.421 1_545 S
C573 C574 1.369 . S
C573 C575 1.419 . S
C573 H577 0.930 . S
C574 C573 1.369 . S
C574 C583 1.429 . S
C575 C573 1.419 . S
C575 C576 1.363 . S
C575 H578 0.929 . S
C576 C575 1.363 . S
C576 C582 1.428 . S
H577 C573 0.930 . S
H578 C575 0.929 . S
S579 N580 1.613 . S
S579 N581 1.610 . S
N580 S579 1.613 . S
N580 C583 1.350 . S
N581 S579 1.610 . S
N581 C582 1.351 . S
C582 C576 1.428 . S
C582 N581 1.351 . S
C582 C583 1.434 . S
C583 C574 1.429 . S
C583 N580 1.350 . S
C583 C582 1.434 . S
C584 C585 1.369 . S
C584 C586 1.419 1_455 S
C584 H588 0.930 . S
C585 C584 1.369 . S
C585 C594 1.429 . S
C586 C584 1.419 1_655 S
C586 C587 1.363 . S
C586 H589 0.929 . S
C587 C586 1.363 . S
C587 C593 1.428 . S
H588 C584 0.930 . S
H589 C586 0.929 . S
S590 N591 1.613 1_655 S
S590 N592 1.610 . S
N591 S590 1.613 1_455 S
N591 C594 1.350 . S
N592 S590 1.610 . S
N592 C593 1.351 . S
C593 C587 1.428 . S
C593 N592 1.351 . S
C593 C594 1.434 1_655 S
C594 C585 1.429 . S
C594 N591 1.350 . S
C594 C593 1.434 1_455 S
C595 C596 1.369 . S
C595 C597 1.419 1_545 S
C595 H599 0.930 . S
C596 C595 1.369 . S
C596 C605 1.429 1_556 S
C597 C595 1.419 1_565 S
C597 C598 1.363 1_556 S
C597 H600 0.929 . S
C598 C597 1.363 1_554 S
C598 C604 1.428 . S
H599 C595 0.930 . S
H600 C597 0.929 . S
S601 N602 1.613 . S
S601 N603 1.610 . S
N602 S601 1.613 . S
N602 C605 1.350 . S
N603 S601 1.610 . S
N603 C604 1.351 1_545 S
C604 C598 1.428 . S
C604 N603 1.351 1_565 S
C604 C605 1.434 1_565 S
C605 C596 1.429 1_554 S
C605 N602 1.350 . S
C605 C604 1.434 1_545 S
C606 C607 1.369 . S
C606 C608 1.419 . S
C606 H610 0.930 . S
C607 C606 1.369 . S
C607 C616 1.429 . S
C608 C606 1.419 . S
C608 C609 1.363 . S
C608 H611 0.929 . S
C609 C608 1.363 . S
C609 C615 1.428 . S
H610 C606 0.930 . S
H611 C608 0.929 . S
S612 N613 1.613 . S
S612 N614 1.610 . S
N613 S612 1.613 . S
N613 C616 1.350 . S
N614 S612 1.610 . S
N614 C615 1.351 . S
C615 C609 1.428 . S
C615 N614 1.351 . S
C615 C616 1.434 . S
C616 C607 1.429 . S
C616 N613 1.350 . S
C616 C615 1.434 . S
C617 C618 1.369 . S
C617 C619 1.419 1_554 S
C617 H621 0.930 . S
C618 C617 1.369 . S
C618 C627 1.429 . S
C619 C617 1.419 1_556 S
C619 C620 1.363 . S
C619 H622 0.929 . S
C620 C619 1.363 . S
C620 C626 1.428 . S
H621 C617 0.930 . S
H622 C619 0.929 . S
S623 N624 1.613 . S
S623 N625 1.610 1_554 S
N624 S623 1.613 . S
N624 C627 1.350 . S
N625 S623 1.610 1_556 S
N625 C626 1.351 . S
C626 C620 1.428 . S
C626 N625 1.351 . S
C626 C627 1.434 1_556 S
C627 C618 1.429 . S
C627 N624 1.350 . S
C627 C626 1.434 1_554 S
C628 C629 1.369 . S
C628 C630 1.419 . S
C628 H632 0.930 . S
C629 C628 1.369 . S
C629 C638 1.429 . S
C630 C628 1.419 . S
C630 C631 1.363 . S
C630 H633 0.929 . S
C631 C630 1.363 . S
C631 C637 1.428 . S
H632 C628 0.930 . S
H633 C630 0.929 . S
S634 N635 1.613 . S
S634 N636 1.610 . S
N635 S634 1.613 . S
N635 C638 1.350 . S
N636 S634 1.610 . S
N636 C637 1.351 . S
C637 C631 1.428 . S
C637 N636 1.351 . S
C637 C638 1.434 . S
C638 C629 1.429 . S
C638 N635 1.350 . S
C638 C637 1.434 . S
C639 C640 1.369 . S
C639 C641 1.419 . S
C639 H643 0.930 . S
C640 C639 1.369 . S
C640 C649 1.429 . S
C641 C639 1.419 . S
C641 C642 1.363 . S
C641 H644 0.929 . S
C642 C641 1.363 . S
C642 C648 1.428 . S
H643 C639 0.930 . S
H644 C641 0.929 . S
S645 N646 1.613 . S
S645 N647 1.610 . S
N646 S645 1.613 . S
N646 C649 1.350 . S
N647 S645 1.610 . S
N647 C648 1.351 . S
C648 C642 1.428 . S
C648 N647 1.351 . S
C648 C649 1.434 . S
C649 C640 1.429 . S
C649 N646 1.350 . S
C649 C648 1.434 . S
C650 C651 1.369 . S
C650 C652 1.419 1_554 S
C650 H654 0.930 . S
C651 C650 1.369 . S
C651 C660 1.440 . S
C652 C650 1.419 1_556 S
C652 C653 1.363 . S
C652 H655 0.929 . S
C653 C652 1.363 . S
C653 C659 1.428 . S
H654 C650 0.930 . S
H655 C652 0.929 . S
S656 N657 1.613 . S
S656 N658 1.610 . S
N657 S656 1.613 . S
N657 C660 1.348 1_556 S
N658 S656 1.610 . S
N658 C659 1.351 . S
C659 C653 1.428 . S
C659 N658 1.351 . S
C659 C660 1.423 1_556 S
C660 C651 1.440 . S
C660 N657 1.348 1_554 S
C660 C659 1.423 1_554 S
C661 C662 1.369 . S
C661 C663 1.419 . S
C661 H665 0.930 . S
C662 C661 1.369 . S
C662 C671 1.429 . S
C663 C661 1.419 . S
C663 C664 1.363 . S
C663 H666 0.929 . S
C664 C663 1.363 . S
C664 C670 1.428 . S
H665 C661 0.930 . S
H666 C663 0.929 . S
S667 N668 1.613 . S
S667 N669 1.610 . S
N668 S667 1.613 . S
N668 C671 1.350 . S
N669 S667 1.610 . S
N669 C670 1.351 . S
C670 C664 1.428 . S
C670 N669 1.351 . S
C670 C671 1.434 . S
C671 C662 1.429 . S
C671 N668 1.350 . S
C671 C670 1.434 . S
C672 C673 1.369 . S
C672 C674 1.419 1_554 S
C672 H676 0.930 . S
C673 C672 1.369 . S
C673 C682 1.429 . S
C674 C672 1.419 1_556 S
C674 C675 1.363 . S
C674 H677 0.929 . S
C675 C674 1.363 . S
C675 C681 1.428 . S
H676 C672 0.930 . S
H677 C674 0.929 . S
S678 N679 1.613 . S
S678 N680 1.610 1_554 S
N679 S678 1.613 . S
N679 C682 1.350 . S
N680 S678 1.610 1_556 S
N680 C681 1.351 . S
C681 C675 1.428 . S
C681 N680 1.351 . S
C681 C682 1.434 1_556 S
C682 C673 1.429 . S
C682 N679 1.350 . S
C682 C681 1.434 1_554 S
C683 C684 1.369 . S
C683 C685 1.419 . S
C683 H687 0.930 . S
C684 C683 1.369 . S
C684 C693 1.429 . S
C685 C683 1.419 . S
C685 C686 1.363 . S
C685 H688 0.929 . S
C686 C685 1.363 . S
C686 C692 1.428 . S
H687 C683 0.930 . S
H688 C685 0.929 . S
S689 N690 1.613 . S
S689 N691 1.610 . S
N690 S689 1.613 . S
N690 C693 1.350 . S
N691 S689 1.610 . S
N691 C692 1.351 . S
C692 C686 1.428 . S
C692 N691 1.351 . S
C692 C693 1.434 . S
C693 C684 1.429 . S
C693 N690 1.350 . S
C693 C692 1.434 . S
C694 C695 1.369 . S
C694 C696 1.419 . S
C694 H698 0.930 . S
C695 C694 1.369 . S
C695 C704 1.429 . S
C696 C694 1.419 . S
C696 C697 1.363 . S
C696 H699 0.929 . S
C697 C696 1.363 . S
C697 C703 1.428 . S
H698 C694 0.930 . S
H699 C696 0.929 . S
S700 N701 1.613 . S
S700 N702 1.610 . S
N701 S700 1.613 . S
N701 C704 1.350 . S
N702 S700 1.610 . S
N702 C703 1.351 . S
C703 C697 1.428 . S
C703 N702 1.351 . S
C703 C704 1.434 . S
C704 C695 1.429 . S
C704 N701 1.350 . S
C704 C703 1.434 . S
C705 C706 1.359 1_554 S
C705 C707 1.428 . S
C705 H709 0.931 . S
C706 C705 1.359 1_556 S
C706 C715 1.429 . S
C707 C705 1.428 . S
C707 C708 1.363 . S
C707 H710 0.929 . S
C708 C707 1.363 . S
C708 C714 1.428 1_554 S
H709 C705 0.931 . S
H710 C707 0.929 . S
S711 N712 1.613 . S
S711 N713 1.610 . S
N712 S711 1.613 . S
N712 C715 1.350 . S
N713 S711 1.610 . S
N713 C714 1.351 . S
C714 C708 1.428 1_556 S
C714 N713 1.351 . S
C714 C715 1.434 . S
C715 C706 1.429 . S
C715 N712 1.350 . S
C715 C714 1.434 . S
C716 C717 1.369 . S
C716 C718 1.419 . S
C716 H720 0.930 . S
C717 C716 1.369 . S
C717 C726 1.429 . S
C718 C716 1.419 . S
C718 C719 1.363 . S
C718 H721 0.929 . S
C719 C718 1.363 . S
C719 C725 1.428 . S
H720 C716 0.930 . S
H721 C718 0.929 . S
S722 N723 1.613 . S
S722 N724 1.610 . S
N723 S722 1.613 . S
N723 C726 1.350 . S
N724 S722 1.610 . S
N724 C725 1.351 . S
C725 C719 1.428 . S
C725 N724 1.351 . S
C725 C726 1.434 . S
C726 C717 1.429 . S
C726 N723 1.350 . S
C726 C725 1.434 . S
C727 C728 1.369 . S
C727 C729 1.419 . S
C727 H731 0.930 . S
C728 C727 1.369 . S
C728 C737 1.429 . S
C729 C727 1.419 . S
C729 C730 1.363 . S
C729 H732 0.929 . S
C730 C729 1.363 . S
C730 C736 1.428 . S
H731 C727 0.930 . S
H732 C729 0.929 . S
S733 N734 1.613 . S
S733 N735 1.610 . S
N734 S733 1.613 . S
N734 C737 1.350 . S
N735 S733 1.610 . S
N735 C736 1.351 . S
C736 C730 1.428 . S
C736 N735 1.351 . S
C736 C737 1.434 . S
C737 C728 1.429 . S
C737 N734 1.350 . S
C737 C736 1.434 . S
C409 C20 1.741 . S
C411 C360 1.740 . S
C420 C394 1.737 . S
C422 C54 1.741 . S
C431 C224 1.738 . S
C433 C88 1.742 . S
C442 C258 1.738 . S
C444 C122 1.742 . S
C453 C156 1.744 . S
C455 C292 1.736 . S
C464 C326 1.740 . S
C466 C190 1.739 . S
C475 C237 1.473 . S
C477 C33 1.470 . S
C486 C271 1.473 . S
C488 C67 1.471 . S
C497 C101 1.472 . S
C499 C305 1.471 . S
C508 C135 1.473 . S
C510 C339 1.469 . S
C519 C373 1.471 . S
C521 C169 1.470 . S
C530 C407 1.473 . S
C532 C203 1.471 . S
C541 C2 1.505 . S
C543 C308 1.509 . S
C552 C342 1.503 . S
C554 C36 1.508 . S
C563 C376 1.509 . S
C565 C70 1.505 . S
C574 C206 1.504 . S
C576 C104 1.509 . S
C585 C138 1.507 . S
C587 C240 1.507 . S
C596 C172 1.503 . S
C598 C274 1.509 . S
C607 C5 1.239 . S
C609 C9 1.186 . S
C618 C43 1.197 . S
C620 C39 1.237 . S
C629 C73 1.237 . S
C631 C77 1.196 . S
C640 C111 1.200 . S
C642 C107 1.234 . S
C651 C145 1.200 . S
C653 C141 1.229 . S
C662 C179 1.186 . S
C664 C175 1.236 . S
C673 C209 1.231 . S
C675 C213 1.191 . S
C684 C247 1.202 . S
C686 C243 1.230 . S
C695 C281 1.185 . S
C697 C277 1.241 . S
C706 C315 1.190 . S
C708 C311 1.240 . S
C717 C345 1.238 . S
C719 C349 1.195 . S
C728 C383 1.185 . S
C730 C379 1.241 . S
