# Generated by pormake.
# Topology wfu, (7)-cn, num edge types: 1
# Building blocks:
#     Node 0, Type 0, BuildingBlock: NUHQUE_clean_sbu_2, # of connection points: 7
#     Node 1, Type 0, BuildingBlock: NUHQUE_clean_sbu_2, # of connection points: 7
#     Node 2, Type 0, BuildingBlock: NUHQUE_clean_sbu_2, # of connection points: 7
#     Node 3, Type 0, BuildingBlock: NUHQUE_clean_sbu_2, # of connection points: 7
#     Node 4, Type 0, BuildingBlock: NUHQUE_clean_sbu_2, # of connection points: 7
#     Node 5, Type 0, BuildingBlock: NUHQUE_clean_sbu_2, # of connection points: 7
#     Node 6, Type 0, BuildingBlock: NUHQUE_clean_sbu_2, # of connection points: 7
#     Node 7, Type 0, BuildingBlock: NUHQUE_clean_sbu_2, # of connection points: 7
#     Edge 8, Type (0, 0), BuildingBlock: AJUNOK_clean_linker_0, # of connection points: 2
#     Edge 9, Type (0, 0), BuildingBlock: AJUNOK_clean_linker_0, # of connection points: 2
#     Edge 10, Type (0, 0), BuildingBlock: AJUNOK_clean_linker_0, # of connection points: 2
#     Edge 11, Type (0, 0), BuildingBlock: AJUNOK_clean_linker_0, # of connection points: 2
#     Edge 12, Type (0, 0), BuildingBlock: AJUNOK_clean_linker_0, # of connection points: 2
#     Edge 13, Type (0, 0), BuildingBlock: AJUNOK_clean_linker_0, # of connection points: 2
#     Edge 14, Type (0, 0), BuildingBlock: AJUNOK_clean_linker_0, # of connection points: 2
#     Edge 15, Type (0, 0), BuildingBlock: AJUNOK_clean_linker_0, # of connection points: 2
#     Edge 16, Type (0, 0), BuildingBlock: AJUNOK_clean_linker_0, # of connection points: 2
#     Edge 17, Type (0, 0), BuildingBlock: AJUNOK_clean_linker_0, # of connection points: 2
#     Edge 18, Type (0, 0), BuildingBlock: AJUNOK_clean_linker_0, # of connection points: 2
#     Edge 19, Type (0, 0), BuildingBlock: AJUNOK_clean_linker_0, # of connection points: 2
#     Edge 20, Type (0, 0), BuildingBlock: AJUNOK_clean_linker_0, # of connection points: 2
#     Edge 21, Type (0, 0), BuildingBlock: AJUNOK_clean_linker_0, # of connection points: 2
#     Edge 22, Type (0, 0), BuildingBlock: AJUNOK_clean_linker_0, # of connection points: 2
#     Edge 23, Type (0, 0), BuildingBlock: AJUNOK_clean_linker_0, # of connection points: 2
#     Edge 24, Type (0, 0), BuildingBlock: AJUNOK_clean_linker_0, # of connection points: 2
#     Edge 25, Type (0, 0), BuildingBlock: AJUNOK_clean_linker_0, # of connection points: 2
#     Edge 26, Type (0, 0), BuildingBlock: AJUNOK_clean_linker_0, # of connection points: 2
#     Edge 27, Type (0, 0), BuildingBlock: AJUNOK_clean_linker_0, # of connection points: 2
#     Edge 28, Type (0, 0), BuildingBlock: AJUNOK_clean_linker_0, # of connection points: 2
#     Edge 29, Type (0, 0), BuildingBlock: AJUNOK_clean_linker_0, # of connection points: 2
#     Edge 30, Type (0, 0), BuildingBlock: AJUNOK_clean_linker_0, # of connection points: 2
#     Edge 31, Type (0, 0), BuildingBlock: AJUNOK_clean_linker_0, # of connection points: 2
#     Edge 32, Type (0, 0), BuildingBlock: AJUNOK_clean_linker_0, # of connection points: 2
#     Edge 33, Type (0, 0), BuildingBlock: AJUNOK_clean_linker_0, # of connection points: 2
#     Edge 34, Type (0, 0), BuildingBlock: AJUNOK_clean_linker_0, # of connection points: 2
#     Edge 35, Type (0, 0), BuildingBlock: AJUNOK_clean_linker_0, # of connection points: 2
# Relax obj value: 0.227
# Max RMSD: 0.203
# Mean RMSD: 0.203
data_MOF--net-wfu--node1-NUHQUE_clean_sbu_2--edge1-AJUNOK_clean_linker_0
_symmetry_space_group_name_H-M    P1
_symmetry_Int_Tables_number       1
_symmetry_cell_setting            triclinic
loop_
_symmetry_equiv_pos_as_xyz
'x, y, z'
_cell_length_a     28.568285
_cell_length_b     28.564884
_cell_length_c     23.804998
_cell_angle_alpha  90.670276
_cell_angle_beta   90.963954
_cell_angle_gamma 90.242146
loop_
_atom_site_label
_atom_site_type_symbol
_atom_site_fract_x
_atom_site_fract_y
_atom_site_fract_z
_atom_type_partial_charge
O0 O 0.3083 0.52906 0.21962 0.0
Tb1 Tb 0.3334 0.47027 0.1702 0.0
Eu2 Eu 0.38024 0.38366 0.27489 0.0
C3 C 0.33345 0.56764 0.22279 0.0
O4 O 0.37704 0.56607 0.20649 0.0
C5 C 0.42975 0.47753 0.23683 0.0
O6 O 0.44511 0.35372 0.23541 0.0
C7 C 0.35326 0.35356 0.37168 0.0
C8 C 0.44713 0.35977 0.18073 0.0
O9 O 0.41245 0.38101 0.15496 0.0
C10 C 0.30015 0.36877 0.17963 0.0
C11 C 0.32051 0.31837 0.39385 0.0
C12 C 0.30263 0.32411 0.44847 0.0
C13 C 0.2693 0.29239 0.46882 0.0
C14 C 0.25434 0.25504 0.43443 0.0
C15 C 0.27271 0.2481 0.38077 0.0
C16 C 0.30576 0.2799 0.36037 0.0
O17 O 0.40858 0.4737 0.18737 0.0
O18 O 0.4139 0.45556 0.28101 0.0
O19 O 0.30155 0.51546 0.10716 0.0
O20 O 0.34577 0.46102 0.07968 0.0
C21 C 0.32003 0.49602 0.06334 0.0
O22 O 0.33581 0.35011 0.20633 0.0
O23 O 0.2882 0.41206 0.19086 0.0
O24 O 0.39092 0.33777 0.34638 0.0
O25 O 0.33353 0.38912 0.34574 0.0
H26 H 0.31438 0.35319 0.47485 0.0
H27 H 0.2296 0.22982 0.45064 0.0
H28 H 0.31975 0.2748 0.3187 0.0
O29 O 0.52576 0.74683 0.81701 0.0
Tb30 Tb 0.47515 0.71979 0.87573 0.0
Eu31 Eu 0.38711 0.67153 0.77923 0.0
C32 C 0.56402 0.72285 0.80699 0.0
O33 O 0.56489 0.67843 0.82038 0.0
C34 C 0.47977 0.62024 0.81871 0.0
O35 O 0.35132 0.60962 0.81897 0.0
C36 C 0.35652 0.70078 0.6822 0.0
C37 C 0.3603 0.6051 0.87314 0.0
O38 O 0.38781 0.63585 0.89849 0.0
C39 C 0.37141 0.75161 0.87551 0.0
C40 C 0.3194 0.73106 0.65833 0.0
C41 C 0.323 0.74815 0.60293 0.0
C42 C 0.28844 0.7782 0.58074 0.0
C43 C 0.25061 0.79074 0.61417 0.0
C44 C 0.24621 0.7734 0.66862 0.0
C45 C 0.28057 0.74361 0.69079 0.0
O46 O 0.47803 0.64376 0.86641 0.0
O47 O 0.45737 0.6353 0.77371 0.0
O48 O 0.53053 0.74966 0.9295 0.0
O49 O 0.47463 0.71377 0.96749 0.0
C50 C 0.51369 0.73629 0.97697 0.0
O51 O 0.35503 0.71438 0.84887 0.0
O52 O 0.41481 0.76572 0.86925 0.0
O53 O 0.34303 0.66096 0.70453 0.0
O54 O 0.38968 0.72237 0.7119 0.0
H55 H 0.35248 0.73825 0.57738 0.0
H56 H 0.22351 0.81324 0.59701 0.0
H57 H 0.27709 0.7303 0.733 0.0
O58 O 0.72939 0.53708 0.198 0.0
Tb59 Tb 0.68934 0.57378 0.13403 0.0
Eu60 Eu 0.6865 0.65087 0.25064 0.0
C61 C 0.71328 0.49674 0.21574 0.0
O62 O 0.66916 0.48634 0.20504 0.0
C63 C 0.60983 0.5719 0.2205 0.0
O64 O 0.62735 0.68303 0.20141 0.0
C65 C 0.70435 0.69189 0.34721 0.0
C66 C 0.63176 0.72261 0.1746 0.0
O67 O 0.6707 0.74687 0.18056 0.0
C68 C 0.74138 0.66813 0.1364 0.0
C69 C 0.73642 0.72757 0.37313 0.0
C70 C 0.75218 0.72271 0.42956 0.0
C71 C 0.78161 0.75699 0.45488 0.0
C72 C 0.79501 0.79575 0.42365 0.0
C73 C 0.77916 0.80167 0.36828 0.0
C74 C 0.74988 0.7676 0.34291 0.0
O75 O 0.61983 0.57458 0.167 0.0
O76 O 0.64013 0.58571 0.26022 0.0
O77 O 0.73083 0.53158 0.07639 0.0
O78 O 0.65928 0.54195 0.05666 0.0
C79 C 0.6977 0.52223 0.03997 0.0
O80 O 0.74619 0.66867 0.19163 0.0
O81 O 0.70824 0.64374 0.11125 0.0
O82 O 0.673 0.70701 0.31059 0.0
O83 O 0.72267 0.65136 0.3325 0.0
H84 H 0.7413 0.69275 0.4537 0.0
H85 H 0.817 0.82255 0.44342 0.0
H86 H 0.73749 0.77243 0.30009 0.0
O87 O 0.53285 0.3282 0.83768 0.0
Tb88 Tb 0.59303 0.35025 0.88904 0.0
Eu89 Eu 0.67685 0.38966 0.78118 0.0
C90 C 0.49446 0.3535 0.83981 0.0
O91 O 0.49675 0.39448 0.86532 0.0
C92 C 0.58679 0.44511 0.82452 0.0
O93 O 0.73085 0.44689 0.77364 0.0
C94 C 0.68851 0.33164 0.69714 0.0
C95 C 0.7472 0.47431 0.81438 0.0
O96 O 0.78116 0.50366 0.80302 0.0
C97 C 0.69676 0.32532 0.8859 0.0
C98 C 0.72587 0.30163 0.67388 0.0
C99 C 0.72356 0.28732 0.61677 0.0
C100 C 0.75972 0.2603 0.59354 0.0
C101 C 0.79773 0.24759 0.62765 0.0
C102 C 0.80113 0.26228 0.68392 0.0
C103 C 0.76527 0.28953 0.70709 0.0
O104 O 0.59223 0.42552 0.87405 0.0
O105 O 0.60726 0.4277 0.77977 0.0
O106 O 0.55178 0.31217 0.94992 0.0
O107 O 0.59522 0.36758 0.97934 0.0
C108 C 0.56534 0.3357 0.99426 0.0
O109 O 0.71096 0.3634 0.86082 0.0
O110 O 0.65491 0.30826 0.87444 0.0
O111 O 0.69583 0.37694 0.69417 0.0
O112 O 0.67017 0.31915 0.74516 0.0
H113 H 0.69425 0.29781 0.59036 0.0
H114 H 0.82603 0.22751 0.60949 0.0
H115 H 0.76822 0.30159 0.75036 0.0
O116 O 0.81761 1.02491 0.33502 0.0
Tb117 Tb 0.83989 0.08805 0.38071 0.0
Eu118 Eu 0.89341 0.17556 0.28644 0.0
C119 C 0.84384 0.98724 0.33832 0.0
O120 O 0.88501 0.99099 0.36316 0.0
C121 C 0.93762 0.07915 0.32277 0.0
O122 O 0.96191 0.19999 0.32395 0.0
C123 C 0.86891 0.21236 0.19128 0.0
C124 C 0.96436 0.23902 0.35346 0.0
O125 O 0.92939 0.26863 0.34987 0.0
C126 C 0.81169 0.18974 0.37512 0.0
C127 C 0.84072 0.25151 0.16922 0.0
C128 C 0.82244 0.24864 0.11381 0.0
C129 C 0.79547 0.28541 0.09198 0.0
C130 C 0.78745 0.32499 0.12527 0.0
C131 C 0.80531 0.32846 0.18023 0.0
C132 C 0.83172 0.29155 0.20262 0.0
O133 O 0.91573 0.08408 0.37067 0.0
O134 O 0.92314 0.10222 0.27814 0.0
O135 O 0.80214 0.05346 0.44752 0.0
O136 O 0.85674 0.10084 0.46955 0.0
C137 C 0.82536 0.07262 0.48921 0.0
O138 O 0.85168 0.20641 0.35771 0.0
O139 O 0.79821 0.14814 0.35737 0.0
O140 O 0.90791 0.22353 0.2187 0.0
O141 O 0.8456 0.17775 0.21426 0.0
H142 H 0.82877 0.21784 0.08805 0.0
H143 H 0.7666 0.3534 0.10832 0.0
H144 H 0.84521 0.294 0.2454 0.0
O145 O 1.02373 0.23403 0.72182 0.0
Tb146 Tb 0.08506 0.21554 0.67306 0.0
Eu147 Eu 0.17575 0.16624 0.76858 0.0
C148 C 0.98769 0.20517 0.72224 0.0
O149 O 0.99276 0.16315 0.70047 0.0
C150 C 0.08271 0.1151 0.72745 0.0
O151 O 0.20985 0.10239 0.7317 0.0
C152 C 0.20853 0.1965 0.86444 0.0
C153 C 0.20267 0.09748 0.67733 0.0
O154 O 0.17764 0.12891 0.65076 0.0
C155 C 0.18678 0.24928 0.68028 0.0
C156 C 0.24396 0.22987 0.88687 0.0
C157 C 0.23812 0.24849 0.94129 0.0
C158 C 0.26995 0.28159 0.96338 0.0
C159 C 0.30766 0.296 0.93112 0.0
C160 C 0.31452 0.27745 0.87714 0.0
C161 C 0.28262 0.24412 0.85487 0.0
O162 O 0.0842 0.13935 0.68078 0.0
O163 O 0.10511 0.12975 0.77323 0.0
O164 O 0.04464 0.25304 0.60944 0.0
O165 O 0.09355 0.20214 0.58301 0.0
C166 C 0.06264 0.23235 0.56608 0.0
O167 O 0.20503 0.21063 0.69975 0.0
O168 O 0.14409 0.26102 0.69414 0.0
O169 O 0.22391 0.15824 0.83952 0.0
O170 O 0.1719 0.21514 0.83893 0.0
H171 H 0.20885 0.23734 0.96636 0.0
H172 H 0.3326 0.32114 0.94879 0.0
H173 H 0.2876 0.22978 0.81304 0.0
O174 O 0.23227 1.0273 0.33342 0.0
Tb175 Tb 0.21273 0.96543 0.38017 0.0
Eu176 Eu 0.16481 0.88305 0.27497 0.0
C177 C 0.20576 0.06476 0.33671 0.0
O178 O 0.16507 0.06111 0.36116 0.0
C179 C 0.11412 0.97356 0.32068 0.0
O180 O 0.10188 0.84739 0.31133 0.0
C181 C 0.19232 0.85647 0.17642 0.0
C182 C 0.09937 0.85203 0.36621 0.0
O183 O 0.13208 0.87593 0.39332 0.0
C184 C 0.24576 0.86436 0.36736 0.0
C185 C 0.22255 0.81953 0.15332 0.0
C186 C 0.24178 0.82426 0.09942 0.0
C187 C 0.2726 0.79014 0.0787 0.0
C188 C 0.28377 0.75156 0.11191 0.0
C189 C 0.26444 0.74632 0.16511 0.0
C190 C 0.23383 0.78026 0.18589 0.0
O191 O 0.13667 0.9687 0.36894 0.0
O192 O 0.13041 0.95459 0.27437 0.0
O193 O 0.20193 0.95369 0.46984 0.0
O194 O 0.25004 1.0058 0.44493 0.0
C195 C 0.23143 0.98556 0.48774 0.0
O196 O 0.20862 0.84687 0.34163 0.0
O197 O 0.25804 0.90772 0.35745 0.0
O198 O 0.15249 0.84257 0.19817 0.0
O199 O 0.21414 0.88893 0.20691 0.0
H200 H 0.23321 0.85441 0.07408 0.0
H201 H 0.30715 0.72491 0.0958 0.0
H202 H 0.21922 0.77631 0.22733 0.0
O203 O 1.02708 0.81598 0.71211 0.0
Tb204 Tb 0.96772 0.83838 0.66097 0.0
Eu205 Eu 0.88556 0.88686 0.76054 0.0
C206 C 0.06556 0.84142 0.71329 0.0
O207 O 0.06406 0.88357 0.69203 0.0
C208 C 0.97779 0.93698 0.7196 0.0
O209 O 0.85159 0.95173 0.72678 0.0
C210 C 0.85738 0.85925 0.85768 0.0
C211 C 0.85485 0.95633 0.6722 0.0
O212 O 0.8764 0.92394 0.64306 0.0
C213 C 0.8664 0.80523 0.66879 0.0
C214 C 0.81911 0.8303 0.87944 0.0
C215 C 0.82402 0.80905 0.93241 0.0
C216 C 0.78818 0.78022 0.9525 0.0
C217 C 0.74752 0.77329 0.91973 0.0
C218 C 0.74236 0.79411 0.86707 0.0
C219 C 0.7782 0.82252 0.84675 0.0
O220 O 0.97221 0.91445 0.67139 0.0
O221 O 0.95733 0.92136 0.76488 0.0
O222 O 0.95684 0.8469 0.57014 0.0
O223 O 1.01116 0.80296 0.59965 0.0
C224 C 0.9907 0.81939 0.55503 0.0
O225 O 0.84978 0.84367 0.69147 0.0
O226 O 0.90949 0.79284 0.68077 0.0
O227 O 0.84509 0.89954 0.83552 0.0
O228 O 0.88925 0.83672 0.82857 0.0
H229 H 0.85583 0.81411 0.95723 0.0
H230 H 0.71991 0.75072 0.93493 0.0
H231 H 0.77446 0.83811 0.80561 0.0
C232 C 0.29452 0.29715 0.11836 0.0
C233 C 0.28163 0.34412 0.12841 0.0
C234 C 0.28704 0.27567 0.0657 0.0
C235 C 0.26631 0.30027 1.02122 0.0
H236 H 0.31288 0.27748 0.15046 0.0
H237 H 0.30019 0.24059 0.05873 0.0
S238 S 0.22106 0.42145 0.0262 0.0
N239 N 0.24245 0.41267 0.09011 0.0
N240 N 0.22962 0.37221 0.99087 0.0
C241 C 0.25047 0.34593 0.03131 0.0
C242 C 0.25761 0.36782 0.08509 0.0
C243 C 0.36552 0.79409 0.96793 0.0
C244 C 0.34292 0.77243 0.92129 0.0
C245 C 0.34135 0.8036 1.01768 0.0
C246 C 0.29355 0.79275 0.02228 0.0
H247 H 0.40291 0.80053 0.96772 0.0
H248 H 0.36084 0.81684 0.05398 0.0
S249 S 0.21658 0.74167 0.91067 0.0
N250 N 0.26855 0.74487 0.88152 0.0
N251 N 0.22351 0.76308 0.97506 0.0
C252 C 0.26973 0.77446 0.97488 0.0
C253 C 0.2943 0.76433 0.92434 0.0
C254 C 0.7798 0.77438 0.05695 0.0
C255 C 0.79281 0.75381 1.0055 0.0
C256 C 0.76899 0.74648 0.10354 0.0
C257 C 0.77027 0.69731 0.09942 0.0
H258 H 0.77415 0.81181 0.05971 0.0
H259 H 0.75535 0.76327 0.14078 0.0
S260 S 0.80812 0.62724 0.97633 0.0
N261 N 0.81145 0.68207 0.95542 0.0
N262 N 0.79081 0.62982 0.04214 0.0
C263 C 0.78746 0.67693 0.04988 0.0
C264 C 0.79867 0.70513 1.00299 0.0
C265 C 0.72487 0.27737 0.03024 0.0
C266 C 0.77356 0.2838 0.03524 0.0
C267 C 0.70065 0.28808 0.98031 0.0
C268 C 0.72418 0.30663 0.93402 0.0
H269 H 0.70504 0.26651 0.06628 0.0
H270 H 0.66287 0.28454 0.97934 0.0
S271 S 0.85247 0.32407 0.92363 0.0
N272 N 0.84511 0.30529 0.98832 0.0
N273 N 0.79964 0.32595 0.89438 0.0
C274 C 0.77326 0.31057 0.93744 0.0
C275 C 0.79795 0.29904 0.98812 0.0
C276 C 0.76252 0.18452 0.46194 0.0
C277 C 0.7897 0.2117 0.42549 0.0
C278 C 0.74921 0.20187 0.51494 0.0
C279 C 0.76153 0.24743 0.53292 0.0
H280 H 0.75395 0.14853 0.45114 0.0
H281 H 0.7315 0.1786 0.54333 0.0
S282 S 0.82772 0.33467 0.4517 0.0
N283 N 0.82487 0.28812 0.40995 0.0
N284 N 0.79949 0.32039 0.50906 0.0
C285 C 0.7859 0.27595 0.49562 0.0
C286 C 0.79994 0.25825 0.44202 0.0
C287 C 0.18298 0.29041 0.58766 0.0
C288 C 0.21006 0.27202 0.63213 0.0
C289 C 0.2032 0.30089 0.5358 0.0
C290 C 0.25141 0.2947 0.52705 0.0
H291 H 0.14539 0.29338 0.59133 0.0
H292 H 0.18052 0.31124 0.50122 0.0
S293 S 0.33872 0.25427 0.63232 0.0
N294 N 0.28848 0.25285 0.66564 0.0
N295 N 0.32632 0.27351 0.56863 0.0
C296 C 0.27943 0.28024 0.57255 0.0
C297 C 0.25881 0.26875 0.625 0.0
C298 C 0.28837 0.86461 0.46097 0.0
C299 C 0.26608 0.8392 0.41684 0.0
C300 C 0.29907 0.84359 0.51283 0.0
C301 C 0.28907 0.79607 0.52223 0.0
H302 H 0.29489 0.90177 0.45688 0.0
H303 H 0.31297 0.8653 0.54687 0.0
S304 S 0.23599 0.71257 0.41912 0.0
N305 N 0.23808 0.76259 0.38511 0.0
N306 N 0.25876 0.72344 0.48221 0.0
C307 C 0.26972 0.76954 0.47752 0.0
C308 C 0.25822 0.79096 0.42494 0.0
C309 C 0.86607 0.75819 0.57867 0.0
C310 C 0.84089 0.78269 0.6201 0.0
C311 C 0.84514 0.74544 0.52673 0.0
C312 C 0.79795 0.75565 0.51455 0.0
H313 H 0.90314 0.75172 0.58459 0.0
H314 H 0.86688 0.73033 0.49442 0.0
S315 S 0.7148 0.81323 0.61081 0.0
N316 N 0.76462 0.8122 0.64703 0.0
N317 N 0.7256 0.78789 0.54966 0.0
C318 C 0.77146 0.77676 0.557 0.0
C319 C 0.79281 0.79027 0.60969 0.0
C320 C 0.55401 0.36571 0.09248 0.0
C321 C 0.54268 0.33294 0.04964 0.0
C322 C 0.52571 0.37061 0.13997 0.0
C323 C 0.48558 0.34263 0.14608 0.0
H324 H 0.58287 0.38994 0.08744 0.0
H325 H 0.53294 0.39904 0.16944 0.0
S326 S 0.44349 0.2485 0.04947 0.0
N327 N 0.49102 0.26903 1.01966 0.0
N328 N 0.43792 0.27899 0.10832 0.0
C329 C 0.47607 0.30747 0.10594 0.0
C330 C 0.50472 0.30232 0.05785 0.0
C331 C 0.35025 0.5003 0.96516 0.0
C332 C 0.31985 0.51712 1.00671 0.0
C333 C 0.35924 0.52665 0.91689 0.0
C334 C 0.33754 0.57013 0.90842 0.0
H335 H 0.36994 0.46848 0.97195 0.0
H336 H 0.38624 0.5149 0.88865 0.0
S337 S 0.25113 0.62708 1.00083 0.0
N338 N 0.26448 0.57784 0.03293 0.0
N339 N 0.28179 0.62698 0.94264 0.0
C340 C 0.30427 0.58529 0.94716 0.0
C341 C 0.29516 0.55876 0.99618 0.0
C342 C 0.58408 0.7604 0.03335 0.0
C343 C 0.53935 0.73956 0.03126 0.0
C344 C 0.61267 0.75763 0.08158 0.0
C345 C 0.59766 0.73358 0.12928 0.0
H346 H 0.59804 0.7772 0.99662 0.0
H347 H 0.64777 0.77203 0.08011 0.0
S348 S 0.48078 0.67916 0.14807 0.0
N349 N 0.47927 0.69884 0.0831 0.0
N350 N 0.53315 0.69316 0.17371 0.0
C351 C 0.55181 0.71527 0.129 0.0
C352 C 0.52258 0.71841 0.07998 0.0
C353 C 0.68611 0.49569 0.88365 0.0
C354 C 0.72907 0.47413 0.87205 0.0
C355 C 0.67418 0.50803 0.93903 0.0
C356 C 0.70539 0.49999 0.9843 0.0
H357 H 0.66326 0.5063 0.84941 0.0
H358 H 0.64192 0.52691 0.9458 0.0
S359 S 0.8202 0.44041 0.97628 0.0
N360 N 0.80114 0.44215 0.91043 0.0
N361 N 0.77899 0.46506 1.01421 0.0
C362 C 0.74708 0.4758 0.97341 0.0
C363 C 0.759 0.46316 0.91729 0.0
C364 C 0.99162 0.27723 0.44308 0.0
C365 C 0.99804 0.24245 0.40155 0.0
C366 C 1.01477 0.27498 0.49528 0.0
C367 C 0.04562 0.23823 0.50774 0.0
H368 H 0.96637 0.30494 0.43676 0.0
H369 H 1.00679 0.30115 0.52697 0.0
S370 S 0.07976 0.1418 0.41141 0.0
N371 N 0.04158 0.17266 0.37467 0.0
N372 N 0.0852 0.1689 0.47282 0.0
C373 C 0.05536 0.20532 0.46529 0.0
C374 C 0.03157 0.20736 0.41211 0.0
C375 C 0.25631 0.07194 0.60416 0.0
C376 C 0.22293 0.05964 0.64397 0.0
C377 C 0.26252 0.0445 0.55589 0.0
C378 C 0.2349 1.00435 0.54559 0.0
H379 H 0.27451 0.10525 0.60769 0.0
H380 H 0.28605 0.05723 0.52422 0.0
S381 S 0.14908 0.95298 0.64249 0.0
N382 N 0.16693 1.00163 0.67455 0.0
N383 N 0.17847 0.94959 0.58343 0.0
C384 C 0.2052 0.98892 0.58813 0.0
C385 C 0.19912 1.01688 0.63753 0.0
C386 C 1.02029 0.85276 0.40682 0.0
C387 C 0.06321 0.82983 0.39974 0.0
C388 C 0.99399 0.84581 0.4554 0.0
C389 C 1.01025 0.81598 0.49811 0.0
H390 H 1.00937 0.87958 0.37761 0.0
H391 H 0.96305 0.86692 0.46161 0.0
S392 S 0.11708 0.74263 0.49442 0.0
N393 N 0.11795 0.77232 0.43534 0.0
N394 N 0.06856 0.75847 0.52609 0.0
C395 C 0.05058 0.78923 0.48836 0.0
C396 C 0.07716 0.79643 0.43918 0.0
C397 C 0.79137 1.02057 0.56064 0.0
C398 C 0.82466 0.05486 0.54706 0.0
C399 C 0.79806 0.992 0.60743 0.0
C400 C 0.83781 0.99738 0.64229 0.0
H401 H 0.76225 1.01284 0.53225 0.0
H402 H 0.77446 0.96269 0.61313 0.0
S403 S 0.93124 0.08648 0.63018 0.0
N404 N 0.89546 0.09665 0.57654 0.0
N405 N 0.9079 0.04246 0.66446 0.0
C406 C 0.86854 0.03469 0.63282 0.0
C407 C 0.86188 0.0638 0.58513 0.0
C408 C 0.48385 0.53626 0.19628 0.0
C409 C 0.47432 0.50502 0.23993 0.0
C410 C 0.52676 0.55947 0.19312 0.0
C411 C 0.56282 0.55251 0.23307 0.0
H412 H 0.4584 0.54213 0.16291 0.0
H413 H 0.53222 0.58206 0.15755 0.0
S414 S 0.55622 0.47568 0.35708 0.0
N415 N 0.50442 0.46963 0.32577 0.0
N416 N 0.58592 0.51327 0.31906 0.0
C417 C 0.55361 0.52292 0.27839 0.0
C418 C 0.50927 0.49913 0.28191 0.0
C419 C 0.51787 0.55323 0.86868 0.0
C420 C 0.5063 0.57521 0.81762 0.0
C421 C 0.54341 0.51139 0.8701 0.0
C422 C 0.55911 0.48945 0.82062 0.0
H423 H 0.50695 0.56829 0.90824 0.0
H424 H 0.55113 0.49639 0.91083 0.0
S425 S 0.53858 0.53266 0.67558 0.0
N426 N 0.51268 0.57176 0.71599 0.0
N427 N 0.5609 0.4933 0.71854 0.0
C428 C 0.5478 0.51099 0.76905 0.0
C429 C 0.52135 0.55365 0.76765 0.0
C430 C 1.01075 0.05011 0.27397 0.0
C431 C 0.98183 0.05071 0.32152 0.0
C432 C 0.05299 1.02449 0.27323 0.0
C433 C 0.06824 0.99862 0.3201 0.0
H434 H 1.00105 0.07 0.23716 0.0
H435 H 0.07433 1.02578 0.23609 0.0
S436 S 1.00356 0.98388 0.45262 0.0
N437 N 0.97101 1.02013 0.4156 0.0
N438 N 0.0492 0.97215 0.4135 0.0
C439 C 0.03919 0.99792 0.36719 0.0
C440 C 0.99643 1.02385 0.36809 0.0
C441 C 0.03922 0.04901 0.77481 0.0
C442 C 0.0578 0.06878 0.72598 0.0
C443 C 1.01359 1.00654 0.77265 0.0
C444 C 1.00585 0.98171 0.72162 0.0
H445 H 0.04366 0.06694 0.81492 0.0
H446 H 0.99957 0.99327 0.81132 0.0
S447 S 0.05013 1.01717 0.58224 0.0
N448 N 0.06846 0.059 0.62553 0.0
N449 N 1.02106 0.98002 0.62122 0.0
C450 C 1.02532 1.00079 0.67275 0.0
C451 C 0.05099 0.04398 0.67497 0.0
C452 C 0.19473 0.15072 0.32789 0.0
C453 C 0.22541 0.11227 0.32823 0.0
C454 C 0.21111 0.19623 0.33879 0.0
C455 C 0.25886 0.20503 0.34952 0.0
H456 H 0.1573 0.14522 0.32366 0.0
H457 H 0.18583 0.22415 0.34342 0.0
S458 S 0.35479 0.11842 0.34422 0.0
N459 N 0.30681 0.08728 0.33171 0.0
N460 N 0.33742 0.17317 0.35186 0.0
C461 C 0.29053 0.16797 0.34335 0.0
C462 C 0.27385 0.12142 0.33258 0.0
C463 C 0.19663 0.83158 0.7176 0.0
C464 C 0.20345 0.78521 0.69951 0.0
C465 C 0.15166 0.84819 0.72898 0.0
C466 C 0.11197 0.81926 0.72139 0.0
H467 H 0.22571 0.85608 0.71861 0.0
H468 H 0.14761 0.88495 0.73933 0.0
S469 S 0.1128 0.69303 0.68245 0.0
N470 N 0.16838 0.70905 0.68124 0.0
N471 N 0.08353 0.74011 0.70182 0.0
C472 C 0.11907 0.77149 0.70895 0.0
C473 C 0.165 0.75457 0.69786 0.0
C474 C 0.83985 0.85544 0.33232 0.0
C475 C 0.7922 0.84568 0.34017 0.0
C476 C 0.85572 0.90147 0.32572 0.0
C477 C 0.82455 0.93956 0.32724 0.0
H478 H 0.86547 0.82772 0.3361 0.0
H479 H 0.89314 0.90746 0.32383 0.0
S480 S 0.69535 0.9314 0.3384 0.0
N481 N 0.71335 0.87664 0.34241 0.0
N482 N 0.74292 0.96348 0.3299 0.0
C483 C 0.77626 0.92972 0.32928 0.0
C484 C 0.76014 0.88262 0.33591 0.0
C485 C 0.90234 0.18968 0.73241 0.0
C486 C 0.93943 0.22237 0.73229 0.0
C487 C 0.8559 0.20367 0.7235 0.0
C488 C 0.84473 0.25092 0.71515 0.0
H489 H 0.90945 0.15253 0.73471 0.0
H490 H 0.8291 0.17694 0.71818 0.0
S491 S 0.92697 0.35137 0.72245 0.0
N492 N 0.96056 0.30509 0.73188 0.0
N493 N 0.87294 0.33108 0.71546 0.0
C494 C 0.88047 0.28448 0.72165 0.0
C495 C 0.92799 0.27029 0.73034 0.0
C496 C 0.75126 0.37285 0.24072 0.0
C497 C 0.79391 0.3713 0.21234 0.0
C498 C 0.72769 0.41538 0.2485 0.0
C499 C 0.74594 0.45764 0.22785 0.0
H500 H 0.73354 0.34058 0.25124 0.0
H501 H 0.69284 0.41438 0.26573 0.0
S502 S 0.86131 0.47247 0.16059 0.0
N503 N 0.85694 0.41563 0.1714 0.0
N504 N 0.81336 0.4958 0.18647 0.0
C505 C 0.79154 0.45708 0.20615 0.0
C506 C 0.81532 0.41371 0.19812 0.0
C507 C 0.44139 0.28323 0.83786 0.0
C508 C 0.44767 0.33169 0.82994 0.0
C509 C 0.3966 0.2642 0.84658 0.0
C510 C 0.35676 0.29292 0.84705 0.0
H511 H 0.47145 0.26056 0.84264 0.0
H512 H 0.39369 0.22774 0.85813 0.0
S513 S 0.35315 0.41982 0.81729 0.0
N514 N 0.40924 0.40637 0.81448 0.0
N515 N 0.32549 0.37048 0.83102 0.0
C516 C 0.36206 0.34024 0.83318 0.0
C517 C 0.40744 0.35965 0.8245 0.0
C518 C 0.32176 0.6985 0.21835 0.0
C519 C 0.27608 0.70396 0.19699 0.0
C520 C 0.33858 0.65424 0.23297 0.0
C521 C 0.31042 0.61393 0.22599 0.0
H522 H 0.3457 0.72804 0.21972 0.0
H523 H 0.37508 0.65117 0.24548 0.0
S524 S 0.1861 0.6114 0.17772 0.0
N525 N 0.20139 0.66712 0.17478 0.0
N526 N 0.23261 0.58359 0.20212 0.0
C527 C 0.26316 0.61981 0.20963 0.0
C528 C 0.24613 0.665 0.19487 0.0
C529 C 0.61441 0.79246 0.82903 0.0
C530 C 0.60934 0.74796 0.80336 0.0
C531 C 0.65877 0.80998 0.84464 0.0
C532 C 0.69934 0.78404 0.83398 0.0
H533 H 0.58396 0.81185 0.84233 0.0
H534 H 0.66105 0.84207 0.86929 0.0
S535 S 0.70589 0.67071 0.7577 0.0
N536 N 0.64928 0.68198 0.76033 0.0
N537 N 0.73259 0.71543 0.78931 0.0
C538 C 0.69517 0.74224 0.80286 0.0
C539 C 0.65011 0.72413 0.78741 0.0
loop_
_geom_bond_atom_site_label_1
_geom_bond_atom_site_label_2
_geom_bond_distance
_geom_bond_site_symmetry_2
_ccdc_geom_bond_type
O0 Tb1 2.292 . S
O0 C3 1.255 . S
Tb1 O0 2.292 . S
Tb1 O17 2.326 . S
Tb1 O19 2.500 . S
Tb1 O20 2.473 . S
Tb1 O23 2.324 . S
Eu2 O6 2.292 . S
Eu2 C7 2.852 . S
Eu2 O18 2.324 . S
Eu2 O22 2.326 . S
Eu2 O24 2.500 . S
Eu2 O25 2.473 . S
C3 O0 1.255 . S
C3 O4 1.247 . S
O4 C3 1.247 . S
C5 O17 1.242 . S
C5 O18 1.258 . S
O6 Eu2 2.292 . S
O6 C8 1.255 . S
C7 Eu2 2.852 . S
C7 C11 1.503 . S
C7 O24 1.273 . S
C7 O25 1.257 . S
C8 O6 1.255 . S
C8 O9 1.247 1_554 S
O9 C8 1.247 1_556 S
C10 O22 1.242 . S
C10 O23 1.258 . S
C11 C7 1.503 . S
C11 C12 1.379 . S
C11 C16 1.392 . S
C12 C11 1.379 . S
C12 C13 1.404 . S
C12 H26 0.929 . S
C13 C12 1.404 . S
C13 C14 1.389 . S
C14 C13 1.389 . S
C14 C15 1.399 . S
C14 H27 0.931 . S
C15 C14 1.399 . S
C15 C16 1.390 . S
C16 C11 1.392 . S
C16 C15 1.390 . S
C16 H28 0.929 . S
O17 Tb1 2.326 . S
O17 C5 1.242 . S
O18 Eu2 2.324 . S
O18 C5 1.258 . S
O19 Tb1 2.500 . S
O19 C21 1.273 . S
O20 Tb1 2.473 . S
O20 C21 1.257 . S
C21 O19 1.273 . S
C21 O20 1.257 . S
O22 Eu2 2.326 . S
O22 C10 1.242 . S
O23 Tb1 2.324 . S
O23 C10 1.258 . S
O24 Eu2 2.500 . S
O24 C7 1.273 . S
O25 Eu2 2.473 . S
O25 C7 1.257 . S
H26 C12 0.929 . S
H27 C14 0.931 . S
H28 C16 0.929 . S
O29 Tb30 2.292 . S
O29 C32 1.255 . S
Tb30 O29 2.292 . S
Tb30 O46 2.326 . S
Tb30 O48 2.500 . S
Tb30 O49 2.473 . S
Tb30 O52 2.324 . S
Eu31 O35 2.292 . S
Eu31 C36 2.852 . S
Eu31 O47 2.324 . S
Eu31 O51 2.326 . S
Eu31 O53 2.500 . S
Eu31 O54 2.473 . S
C32 O29 1.255 . S
C32 O33 1.247 . S
O33 C32 1.247 . S
C34 O46 1.242 . S
C34 O47 1.258 . S
O35 Eu31 2.292 . S
O35 C37 1.255 . S
C36 Eu31 2.852 . S
C36 C40 1.503 . S
C36 O53 1.273 . S
C36 O54 1.257 . S
C37 O35 1.255 . S
C37 O38 1.247 1_556 S
O38 C37 1.247 1_554 S
C39 O51 1.242 . S
C39 O52 1.258 . S
C40 C36 1.503 . S
C40 C41 1.379 . S
C40 C45 1.392 . S
C41 C40 1.379 . S
C41 C42 1.404 . S
C41 H55 0.929 . S
C42 C41 1.404 . S
C42 C43 1.389 . S
C43 C42 1.389 . S
C43 C44 1.399 . S
C43 H56 0.931 . S
C44 C43 1.399 . S
C44 C45 1.390 . S
C45 C40 1.392 . S
C45 C44 1.390 . S
C45 H57 0.929 . S
O46 Tb30 2.326 . S
O46 C34 1.242 . S
O47 Eu31 2.324 . S
O47 C34 1.258 . S
O48 Tb30 2.500 . S
O48 C50 1.273 . S
O49 Tb30 2.473 . S
O49 C50 1.257 . S
C50 O48 1.273 . S
C50 O49 1.257 . S
O51 Eu31 2.326 . S
O51 C39 1.242 . S
O52 Tb30 2.324 . S
O52 C39 1.258 . S
O53 Eu31 2.500 . S
O53 C36 1.273 . S
O54 Eu31 2.473 . S
O54 C36 1.257 . S
H55 C41 0.929 . S
H56 C43 0.931 . S
H57 C45 0.929 . S
O58 Tb59 2.292 . S
O58 C61 1.255 . S
Tb59 O58 2.292 . S
Tb59 O75 2.326 . S
Tb59 O77 2.500 . S
Tb59 O78 2.473 . S
Tb59 O81 2.324 . S
Eu60 O64 2.292 . S
Eu60 C65 2.852 . S
Eu60 O76 2.324 . S
Eu60 O80 2.326 . S
Eu60 O82 2.500 . S
Eu60 O83 2.473 . S
C61 O58 1.255 . S
C61 O62 1.247 . S
O62 C61 1.247 . S
C63 O75 1.242 . S
C63 O76 1.258 . S
O64 Eu60 2.292 . S
O64 C66 1.255 . S
C65 Eu60 2.852 . S
C65 C69 1.503 . S
C65 O82 1.273 . S
C65 O83 1.257 . S
C66 O64 1.255 . S
C66 O67 1.247 1_554 S
O67 C66 1.247 1_556 S
C68 O80 1.242 . S
C68 O81 1.258 . S
C69 C65 1.503 . S
C69 C70 1.379 . S
C69 C74 1.392 . S
C70 C69 1.379 . S
C70 C71 1.404 . S
C70 H84 0.929 . S
C71 C70 1.404 . S
C71 C72 1.389 . S
C72 C71 1.389 . S
C72 C73 1.399 . S
C72 H85 0.931 . S
C73 C72 1.399 . S
C73 C74 1.390 . S
C74 C69 1.392 . S
C74 C73 1.390 . S
C74 H86 0.929 . S
O75 Tb59 2.326 . S
O75 C63 1.242 . S
O76 Eu60 2.324 . S
O76 C63 1.258 . S
O77 Tb59 2.500 . S
O77 C79 1.273 . S
O78 Tb59 2.473 . S
O78 C79 1.257 . S
C79 O77 1.273 . S
C79 O78 1.257 . S
O80 Eu60 2.326 . S
O80 C68 1.242 . S
O81 Tb59 2.324 . S
O81 C68 1.258 . S
O82 Eu60 2.500 . S
O82 C65 1.273 . S
O83 Eu60 2.473 . S
O83 C65 1.257 . S
H84 C70 0.929 . S
H85 C72 0.931 . S
H86 C74 0.929 . S
O87 Tb88 2.292 . S
O87 C90 1.255 . S
Tb88 O87 2.292 . S
Tb88 O104 2.326 . S
Tb88 O106 2.500 . S
Tb88 O107 2.473 . S
Tb88 O110 2.324 . S
Eu89 O93 2.292 . S
Eu89 C94 2.852 . S
Eu89 O105 2.324 . S
Eu89 O109 2.326 . S
Eu89 O111 2.500 . S
Eu89 O112 2.473 . S
C90 O87 1.255 . S
C90 O91 1.247 . S
O91 C90 1.247 . S
C92 O104 1.242 . S
C92 O105 1.258 . S
O93 Eu89 2.292 . S
O93 C95 1.255 . S
C94 Eu89 2.852 . S
C94 C98 1.503 . S
C94 O111 1.273 . S
C94 O112 1.257 . S
C95 O93 1.255 . S
C95 O96 1.247 1_556 S
O96 C95 1.247 1_554 S
C97 O109 1.242 . S
C97 O110 1.258 . S
C98 C94 1.503 . S
C98 C99 1.379 . S
C98 C103 1.392 . S
C99 C98 1.379 . S
C99 C100 1.404 . S
C99 H113 0.929 . S
C100 C99 1.404 . S
C100 C101 1.389 . S
C101 C100 1.389 . S
C101 C102 1.399 . S
C101 H114 0.931 . S
C102 C101 1.399 . S
C102 C103 1.390 . S
C103 C98 1.392 . S
C103 C102 1.390 . S
C103 H115 0.929 . S
O104 Tb88 2.326 . S
O104 C92 1.242 . S
O105 Eu89 2.324 . S
O105 C92 1.258 . S
O106 Tb88 2.500 . S
O106 C108 1.273 . S
O107 Tb88 2.473 . S
O107 C108 1.257 . S
C108 O106 1.273 . S
C108 O107 1.257 . S
O109 Eu89 2.326 . S
O109 C97 1.242 . S
O110 Tb88 2.324 . S
O110 C97 1.258 . S
O111 Eu89 2.500 . S
O111 C94 1.273 . S
O112 Eu89 2.473 . S
O112 C94 1.257 . S
H113 C99 0.929 . S
H114 C101 0.931 . S
H115 C103 0.929 . S
O116 Tb117 2.292 1_565 S
O116 C119 1.255 . S
Tb117 O116 2.292 1_545 S
Tb117 O133 2.326 . S
Tb117 O135 2.500 1_545 S
Tb117 O136 2.473 . S
Tb117 O139 2.324 . S
Eu118 O122 2.292 . S
Eu118 C123 2.852 . S
Eu118 O134 2.324 . S
Eu118 O138 2.326 . S
Eu118 O140 2.500 . S
Eu118 O141 2.473 . S
C119 O116 1.255 . S
C119 O120 1.253 . S
O120 C119 1.253 . S
C121 O133 1.242 . S
C121 O134 1.258 . S
O122 Eu118 2.292 . S
O122 C124 1.255 . S
C123 Eu118 2.852 . S
C123 C127 1.503 . S
C123 O140 1.273 . S
C123 O141 1.257 . S
C124 O122 1.255 . S
C124 O125 1.247 . S
O125 C124 1.247 . S
C126 O138 1.242 . S
C126 O139 1.258 . S
C127 C123 1.503 . S
C127 C128 1.379 . S
C127 C132 1.392 . S
C128 C127 1.379 . S
C128 C129 1.404 . S
C128 H142 0.929 . S
C129 C128 1.404 . S
C129 C130 1.389 . S
C130 C129 1.389 . S
C130 C131 1.399 . S
C130 H143 0.931 . S
C131 C130 1.399 . S
C131 C132 1.390 . S
C132 C127 1.392 . S
C132 C131 1.390 . S
C132 H144 0.929 . S
O133 Tb117 2.326 . S
O133 C121 1.242 . S
O134 Eu118 2.324 . S
O134 C121 1.258 . S
O135 Tb117 2.500 1_565 S
O135 C137 1.273 . S
O136 Tb117 2.473 . S
O136 C137 1.257 1_545 S
C137 O135 1.273 . S
C137 O136 1.257 1_565 S
O138 Eu118 2.326 . S
O138 C126 1.242 . S
O139 Tb117 2.324 . S
O139 C126 1.258 . S
O140 Eu118 2.500 . S
O140 C123 1.273 . S
O141 Eu118 2.473 . S
O141 C123 1.257 . S
H142 C128 0.929 . S
H143 C130 0.931 . S
H144 C132 0.929 . S
O145 Tb146 2.292 1_655 S
O145 C148 1.255 . S
Tb146 O145 2.292 1_455 S
Tb146 O162 2.326 . S
Tb146 O164 2.500 1_455 S
Tb146 O165 2.473 . S
Tb146 O168 2.324 . S
Eu147 O151 2.292 . S
Eu147 C152 2.852 . S
Eu147 O163 2.324 . S
Eu147 O167 2.326 . S
Eu147 O169 2.500 . S
Eu147 O170 2.473 . S
C148 O145 1.255 . S
C148 O149 1.253 . S
O149 C148 1.253 . S
C150 O162 1.242 . S
C150 O163 1.258 . S
O151 Eu147 2.292 . S
O151 C153 1.255 . S
C152 Eu147 2.852 . S
C152 C156 1.503 . S
C152 O169 1.273 . S
C152 O170 1.257 . S
C153 O151 1.255 . S
C153 O154 1.247 . S
O154 C153 1.247 . S
C155 O167 1.242 . S
C155 O168 1.258 . S
C156 C152 1.503 . S
C156 C157 1.379 . S
C156 C161 1.392 . S
C157 C156 1.379 . S
C157 C158 1.404 . S
C157 H171 0.929 . S
C158 C157 1.404 . S
C158 C159 1.389 . S
C159 C158 1.389 . S
C159 C160 1.399 . S
C159 H172 0.931 . S
C160 C159 1.399 . S
C160 C161 1.390 . S
C161 C156 1.392 . S
C161 C160 1.390 . S
C161 H173 0.929 . S
O162 Tb146 2.326 . S
O162 C150 1.242 . S
O163 Eu147 2.324 . S
O163 C150 1.258 . S
O164 Tb146 2.500 1_655 S
O164 C166 1.273 . S
O165 Tb146 2.473 . S
O165 C166 1.257 1_455 S
C166 O164 1.273 . S
C166 O165 1.257 1_655 S
O167 Eu147 2.326 . S
O167 C155 1.242 . S
O168 Tb146 2.324 . S
O168 C155 1.258 . S
O169 Eu147 2.500 . S
O169 C152 1.273 . S
O170 Eu147 2.473 . S
O170 C152 1.257 . S
H171 C157 0.929 . S
H172 C159 0.931 . S
H173 C161 0.929 . S
O174 Tb175 2.292 1_545 S
O174 C177 1.255 . S
Tb175 O174 2.292 1_565 S
Tb175 O191 2.326 . S
Tb175 O193 2.500 1_565 S
Tb175 O194 2.473 . S
Tb175 O197 2.324 . S
Eu176 O180 2.292 . S
Eu176 C181 2.852 . S
Eu176 O192 2.324 . S
Eu176 O196 2.326 . S
Eu176 O198 2.500 . S
Eu176 O199 2.473 . S
C177 O174 1.255 . S
C177 O178 1.253 . S
O178 C177 1.253 . S
C179 O191 1.242 . S
C179 O192 1.258 . S
O180 Eu176 2.292 . S
O180 C182 1.255 . S
C181 Eu176 2.852 . S
C181 C185 1.503 . S
C181 O198 1.273 . S
C181 O199 1.257 . S
C182 O180 1.255 . S
C182 O183 1.247 . S
O183 C182 1.247 . S
C184 O196 1.242 . S
C184 O197 1.258 . S
C185 C181 1.503 . S
C185 C186 1.379 . S
C185 C190 1.392 . S
C186 C185 1.379 . S
C186 C187 1.404 . S
C186 H200 0.929 . S
C187 C186 1.404 . S
C187 C188 1.389 . S
C188 C187 1.389 . S
C188 C189 1.399 . S
C188 H201 0.931 . S
C189 C188 1.399 . S
C189 C190 1.390 . S
C190 C185 1.392 . S
C190 C189 1.390 . S
C190 H202 0.929 . S
O191 Tb175 2.326 . S
O191 C179 1.242 . S
O192 Eu176 2.324 . S
O192 C179 1.258 . S
O193 Tb175 2.500 1_545 S
O193 C195 1.273 . S
O194 Tb175 2.473 . S
O194 C195 1.257 1_565 S
C195 O193 1.273 . S
C195 O194 1.257 1_545 S
O196 Eu176 2.326 . S
O196 C184 1.242 . S
O197 Tb175 2.324 . S
O197 C184 1.258 . S
O198 Eu176 2.500 . S
O198 C181 1.273 . S
O199 Eu176 2.473 . S
O199 C181 1.257 . S
H200 C186 0.929 . S
H201 C188 0.931 . S
H202 C190 0.929 . S
O203 Tb204 2.292 1_455 S
O203 C206 1.255 . S
Tb204 O203 2.292 1_655 S
Tb204 O220 2.326 . S
Tb204 O222 2.500 1_655 S
Tb204 O223 2.473 . S
Tb204 O226 2.324 . S
Eu205 O209 2.292 . S
Eu205 C210 2.852 . S
Eu205 O221 2.324 . S
Eu205 O225 2.326 . S
Eu205 O227 2.500 . S
Eu205 O228 2.473 . S
C206 O203 1.255 . S
C206 O207 1.253 . S
O207 C206 1.253 . S
C208 O220 1.242 . S
C208 O221 1.258 . S
O209 Eu205 2.292 . S
O209 C211 1.255 . S
C210 Eu205 2.852 . S
C210 C214 1.503 . S
C210 O227 1.273 . S
C210 O228 1.257 . S
C211 O209 1.255 . S
C211 O212 1.247 . S
O212 C211 1.247 . S
C213 O225 1.242 . S
C213 O226 1.258 . S
C214 C210 1.503 . S
C214 C215 1.379 . S
C214 C219 1.392 . S
C215 C214 1.379 . S
C215 C216 1.404 . S
C215 H229 0.929 . S
C216 C215 1.404 . S
C216 C217 1.389 . S
C217 C216 1.389 . S
C217 C218 1.399 . S
C217 H230 0.931 . S
C218 C217 1.399 . S
C218 C219 1.390 . S
C219 C214 1.392 . S
C219 C218 1.390 . S
C219 H231 0.929 . S
O220 Tb204 2.326 . S
O220 C208 1.242 . S
O221 Eu205 2.324 . S
O221 C208 1.258 . S
O222 Tb204 2.500 1_455 S
O222 C224 1.273 . S
O223 Tb204 2.473 . S
O223 C224 1.257 1_655 S
C224 O222 1.273 . S
C224 O223 1.257 1_455 S
O225 Eu205 2.326 . S
O225 C213 1.242 . S
O226 Tb204 2.324 . S
O226 C213 1.258 . S
O227 Eu205 2.500 . S
O227 C210 1.273 . S
O228 Eu205 2.473 . S
O228 C210 1.257 . S
H229 C215 0.929 . S
H230 C217 0.931 . S
H231 C219 0.929 . S
C232 C233 1.369 1_556 S
C232 C234 1.419 . S
C232 H236 0.930 1_556 S
C233 C232 1.369 1_554 S
C233 C242 1.429 1_554 S
C234 C232 1.419 . S
C234 C235 1.363 . S
C234 H237 0.929 . S
C235 C234 1.363 . S
C235 C241 1.428 . S
H236 C232 0.930 1_554 S
H237 C234 0.929 . S
S238 N239 1.613 . S
S238 N240 1.610 . S
N239 S238 1.613 . S
N239 C242 1.350 . S
N240 S238 1.610 . S
N240 C241 1.351 . S
C241 C235 1.428 . S
C241 N240 1.351 . S
C241 C242 1.434 . S
C242 C233 1.429 1_556 S
C242 N239 1.350 . S
C242 C241 1.434 . S
C243 C244 1.369 1_554 S
C243 C245 1.419 . S
C243 H247 0.930 . S
C244 C243 1.369 1_556 S
C244 C253 1.429 1_556 S
C245 C243 1.419 . S
C245 C246 1.363 . S
C245 H248 0.929 . S
C246 C245 1.363 . S
C246 C252 1.428 . S
H247 C243 0.930 . S
H248 C245 0.929 . S
S249 N250 1.613 . S
S249 N251 1.610 1_556 S
N250 S249 1.613 . S
N250 C253 1.350 1_556 S
N251 S249 1.610 1_554 S
N251 C252 1.351 . S
C252 C246 1.428 . S
C252 N251 1.351 . S
C252 C253 1.434 . S
C253 C244 1.429 1_554 S
C253 N250 1.350 1_554 S
C253 C252 1.434 . S
C254 C255 1.369 . S
C254 C256 1.419 . S
C254 H258 0.930 . S
C255 C254 1.369 . S
C255 C264 1.429 . S
C256 C254 1.419 . S
C256 C257 1.363 1_556 S
C256 H259 0.929 1_556 S
C257 C256 1.363 1_554 S
C257 C263 1.428 1_554 S
H258 C254 0.930 . S
H259 C256 0.929 1_554 S
S260 N261 1.613 . S
S260 N262 1.610 . S
N261 S260 1.613 . S
N261 C264 1.350 . S
N262 S260 1.610 . S
N262 C263 1.351 . S
C263 C257 1.428 1_556 S
C263 N262 1.351 . S
C263 C264 1.434 . S
C264 C255 1.429 . S
C264 N261 1.350 . S
C264 C263 1.434 . S
C265 C266 1.369 . S
C265 C267 1.419 . S
C265 H269 0.930 . S
C266 C265 1.369 . S
C266 C275 1.429 . S
C267 C265 1.419 . S
C267 C268 1.363 1_554 S
C267 H270 0.929 . S
C268 C267 1.363 1_556 S
C268 C274 1.428 1_556 S
H269 C265 0.930 . S
H270 C267 0.929 . S
S271 N272 1.613 . S
S271 N273 1.610 1_554 S
N272 S271 1.613 . S
N272 C275 1.350 . S
N273 S271 1.610 1_556 S
N273 C274 1.351 1_556 S
C274 C268 1.428 1_554 S
C274 N273 1.351 1_554 S
C274 C275 1.434 . S
C275 C266 1.429 . S
C275 N272 1.350 . S
C275 C274 1.434 . S
C276 C277 1.369 . S
C276 C278 1.419 . S
C276 H280 0.930 . S
C277 C276 1.369 . S
C277 C286 1.429 . S
C278 C276 1.419 . S
C278 C279 1.363 . S
C278 H281 0.929 . S
C279 C278 1.363 . S
C279 C285 1.428 . S
H280 C276 0.930 . S
H281 C278 0.929 . S
S282 N283 1.613 . S
S282 N284 1.610 . S
N283 S282 1.613 . S
N283 C286 1.350 . S
N284 S282 1.610 . S
N284 C285 1.351 . S
C285 C279 1.428 . S
C285 N284 1.351 . S
C285 C286 1.434 . S
C286 C277 1.429 . S
C286 N283 1.350 . S
C286 C285 1.434 . S
C287 C288 1.369 . S
C287 C289 1.419 . S
C287 H291 0.930 . S
C288 C287 1.369 . S
C288 C297 1.429 . S
C289 C287 1.419 . S
C289 C290 1.363 . S
C289 H292 0.929 . S
C290 C289 1.363 . S
C290 C296 1.428 . S
H291 C287 0.930 . S
H292 C289 0.929 . S
S293 N294 1.613 . S
S293 N295 1.610 . S
N294 S293 1.613 . S
N294 C297 1.350 . S
N295 S293 1.610 . S
N295 C296 1.351 . S
C296 C290 1.428 . S
C296 N295 1.351 . S
C296 C297 1.434 . S
C297 C288 1.429 . S
C297 N294 1.350 . S
C297 C296 1.434 . S
C298 C299 1.369 . S
C298 C300 1.419 . S
C298 H302 0.930 . S
C299 C298 1.369 . S
C299 C308 1.429 . S
C300 C298 1.419 . S
C300 C301 1.363 . S
C300 H303 0.929 . S
C301 C300 1.363 . S
C301 C307 1.428 . S
H302 C298 0.930 . S
H303 C300 0.929 . S
S304 N305 1.613 . S
S304 N306 1.610 . S
N305 S304 1.613 . S
N305 C308 1.350 . S
N306 S304 1.610 . S
N306 C307 1.351 . S
C307 C301 1.428 . S
C307 N306 1.351 . S
C307 C308 1.434 . S
C308 C299 1.429 . S
C308 N305 1.350 . S
C308 C307 1.434 . S
C309 C310 1.369 . S
C309 C311 1.419 . S
C309 H313 0.930 . S
C310 C309 1.369 . S
C310 C319 1.429 . S
C311 C309 1.419 . S
C311 C312 1.363 . S
C311 H314 0.929 . S
C312 C311 1.363 . S
C312 C318 1.428 . S
H313 C309 0.930 . S
H314 C311 0.929 . S
S315 N316 1.613 . S
S315 N317 1.610 . S
N316 S315 1.613 . S
N316 C319 1.350 . S
N317 S315 1.610 . S
N317 C318 1.351 . S
C318 C312 1.428 . S
C318 N317 1.351 . S
C318 C319 1.434 . S
C319 C310 1.429 . S
C319 N316 1.350 . S
C319 C318 1.434 . S
C320 C321 1.369 1_554 S
C320 C322 1.419 . S
C320 H324 0.930 . S
C321 C320 1.369 1_556 S
C321 C330 1.429 . S
C322 C320 1.419 . S
C322 C323 1.363 . S
C322 H325 0.929 . S
C323 C322 1.363 . S
C323 C329 1.428 1_554 S
H324 C320 0.930 . S
H325 C322 0.929 . S
S326 N327 1.613 . S
S326 N328 1.610 . S
N327 S326 1.613 . S
N327 C330 1.350 . S
N328 S326 1.610 . S
N328 C329 1.351 . S
C329 C323 1.428 1_556 S
C329 N328 1.351 . S
C329 C330 1.434 . S
C330 C321 1.429 . S
C330 N327 1.350 . S
C330 C329 1.434 . S
C331 C332 1.369 . S
C331 C333 1.419 . S
C331 H335 0.930 . S
C332 C331 1.369 . S
C332 C341 1.429 1_554 S
C333 C331 1.419 . S
C333 C334 1.363 1_554 S
C333 H336 0.929 . S
C334 C333 1.363 1_556 S
C334 C340 1.428 . S
H335 C331 0.930 . S
H336 C333 0.929 . S
S337 N338 1.613 . S
S337 N339 1.610 . S
N338 S337 1.613 . S
N338 C341 1.350 . S
N339 S337 1.610 . S
N339 C340 1.351 . S
C340 C334 1.428 . S
C340 N339 1.351 . S
C340 C341 1.434 . S
C341 C332 1.429 1_556 S
C341 N338 1.350 . S
C341 C340 1.434 . S
C342 C343 1.369 . S
C342 C344 1.419 . S
C342 H346 0.930 . S
C343 C342 1.369 . S
C343 C352 1.429 1_556 S
C344 C342 1.419 . S
C344 C345 1.363 1_556 S
C344 H347 0.929 . S
C345 C344 1.363 1_554 S
C345 C351 1.428 . S
H346 C342 0.930 . S
H347 C344 0.929 . S
S348 N349 1.613 . S
S348 N350 1.610 . S
N349 S348 1.613 . S
N349 C352 1.350 . S
N350 S348 1.610 . S
N350 C351 1.351 . S
C351 C345 1.428 . S
C351 N350 1.351 . S
C351 C352 1.434 . S
C352 C343 1.429 1_554 S
C352 N349 1.350 . S
C352 C351 1.434 . S
C353 C354 1.369 . S
C353 C355 1.419 . S
C353 H357 0.930 . S
C354 C353 1.369 . S
C354 C363 1.429 1_556 S
C355 C353 1.419 . S
C355 C356 1.363 1_556 S
C355 H358 0.929 . S
C356 C355 1.363 1_554 S
C356 C362 1.428 . S
H357 C353 0.930 . S
H358 C355 0.929 . S
S359 N360 1.613 . S
S359 N361 1.610 . S
N360 S359 1.613 . S
N360 C363 1.350 . S
N361 S359 1.610 . S
N361 C362 1.351 . S
C362 C356 1.428 . S
C362 N361 1.351 . S
C362 C363 1.434 . S
C363 C354 1.429 1_554 S
C363 N360 1.350 . S
C363 C362 1.434 . S
C364 C365 1.369 . S
C364 C366 1.419 . S
C364 H368 0.930 . S
C365 C364 1.369 . S
C365 C374 1.429 . S
C366 C364 1.419 . S
C366 C367 1.363 . S
C366 H369 0.929 . S
C367 C366 1.363 . S
C367 C373 1.428 . S
H368 C364 0.930 . S
H369 C366 0.929 . S
S370 N371 1.613 . S
S370 N372 1.610 . S
N371 S370 1.613 . S
N371 C374 1.350 . S
N372 S370 1.610 . S
N372 C373 1.351 . S
C373 C367 1.428 . S
C373 N372 1.351 . S
C373 C374 1.434 . S
C374 C365 1.429 . S
C374 N371 1.350 . S
C374 C373 1.434 . S
C375 C376 1.369 . S
C375 C377 1.419 . S
C375 H379 0.930 . S
C376 C375 1.369 . S
C376 C385 1.429 . S
C377 C375 1.419 . S
C377 C378 1.363 . S
C377 H380 0.929 . S
C378 C377 1.363 . S
C378 C384 1.428 . S
H379 C375 0.930 . S
H380 C377 0.929 . S
S381 N382 1.613 . S
S381 N383 1.610 . S
N382 S381 1.613 . S
N382 C385 1.350 . S
N383 S381 1.610 . S
N383 C384 1.351 . S
C384 C378 1.428 . S
C384 N383 1.351 . S
C384 C385 1.434 . S
C385 C376 1.429 . S
C385 N382 1.350 . S
C385 C384 1.434 . S
C386 C387 1.369 . S
C386 C388 1.419 . S
C386 H390 0.930 . S
C387 C386 1.369 . S
C387 C396 1.429 . S
C388 C386 1.419 . S
C388 C389 1.363 . S
C388 H391 0.929 . S
C389 C388 1.363 . S
C389 C395 1.428 . S
H390 C386 0.930 . S
H391 C388 0.929 . S
S392 N393 1.613 . S
S392 N394 1.610 . S
N393 S392 1.613 . S
N393 C396 1.350 . S
N394 S392 1.610 . S
N394 C395 1.351 . S
C395 C389 1.428 . S
C395 N394 1.351 . S
C395 C396 1.434 . S
C396 C387 1.429 . S
C396 N393 1.350 . S
C396 C395 1.434 . S
C397 C398 1.369 . S
C397 C399 1.419 . S
C397 H401 0.930 . S
C398 C397 1.369 . S
C398 C407 1.429 . S
C399 C397 1.419 . S
C399 C400 1.363 . S
C399 H402 0.929 . S
C400 C399 1.363 . S
C400 C406 1.428 . S
H401 C397 0.930 . S
H402 C399 0.929 . S
S403 N404 1.613 . S
S403 N405 1.610 . S
N404 S403 1.613 . S
N404 C407 1.350 . S
N405 S403 1.610 . S
N405 C406 1.351 . S
C406 C400 1.428 . S
C406 N405 1.351 . S
C406 C407 1.434 . S
C407 C398 1.429 . S
C407 N404 1.350 . S
C407 C406 1.434 . S
C408 C409 1.369 . S
C408 C410 1.419 . S
C408 H412 0.930 . S
C409 C408 1.369 . S
C409 C418 1.429 . S
C410 C408 1.419 . S
C410 C411 1.363 . S
C410 H413 0.929 . S
C411 C410 1.363 . S
C411 C417 1.428 . S
H412 C408 0.930 . S
H413 C410 0.929 . S
S414 N415 1.613 . S
S414 N416 1.610 . S
N415 S414 1.613 . S
N415 C418 1.350 . S
N416 S414 1.610 . S
N416 C417 1.351 . S
C417 C411 1.428 . S
C417 N416 1.351 . S
C417 C418 1.434 . S
C418 C409 1.429 . S
C418 N415 1.350 . S
C418 C417 1.434 . S
C419 C420 1.369 . S
C419 C421 1.419 . S
C419 H423 0.930 . S
C420 C419 1.369 . S
C420 C429 1.429 . S
C421 C419 1.419 . S
C421 C422 1.363 . S
C421 H424 0.929 . S
C422 C421 1.363 . S
C422 C428 1.428 . S
H423 C419 0.930 . S
H424 C421 0.929 . S
S425 N426 1.613 . S
S425 N427 1.610 . S
N426 S425 1.613 . S
N426 C429 1.350 . S
N427 S425 1.610 . S
N427 C428 1.351 . S
C428 C422 1.428 . S
C428 N427 1.351 . S
C428 C429 1.434 . S
C429 C420 1.429 . S
C429 N426 1.350 . S
C429 C428 1.434 . S
C430 C431 1.369 . S
C430 C432 1.419 1_655 S
C430 H434 0.930 . S
C431 C430 1.369 . S
C431 C440 1.429 1_545 S
C432 C430 1.419 1_455 S
C432 C433 1.363 1_545 S
C432 H435 0.929 . S
C433 C432 1.363 1_565 S
C433 C439 1.428 . S
H434 C430 0.930 . S
H435 C432 0.929 . S
S436 N437 1.613 . S
S436 N438 1.610 1_655 S
N437 S436 1.613 . S
N437 C440 1.350 . S
N438 S436 1.610 1_455 S
N438 C439 1.351 . S
C439 C433 1.428 . S
C439 N438 1.351 . S
C439 C440 1.434 1_455 S
C440 C431 1.429 1_565 S
C440 N437 1.350 . S
C440 C439 1.434 1_655 S
C441 C442 1.369 . S
C441 C443 1.419 1_445 S
C441 H445 0.930 . S
C442 C441 1.369 . S
C442 C451 1.431 . S
C443 C441 1.419 1_665 S
C443 C444 1.363 . S
C443 H446 0.929 . S
C444 C443 1.363 . S
C444 C450 1.428 . S
H445 C441 0.930 . S
H446 C443 0.929 . S
S447 N448 1.613 . S
S447 N449 1.610 1_545 S
N448 S447 1.613 . S
N448 C451 1.349 1_655 S
N449 S447 1.610 1_565 S
N449 C450 1.351 . S
C450 C444 1.428 . S
C450 N449 1.351 . S
C450 C451 1.432 1_665 S
C451 C442 1.431 . S
C451 N448 1.349 1_455 S
C451 C450 1.432 1_445 S
C452 C453 1.369 . S
C452 C454 1.419 . S
C452 H456 0.930 . S
C453 C452 1.369 . S
C453 C462 1.429 . S
C454 C452 1.419 . S
C454 C455 1.363 . S
C454 H457 0.929 . S
C455 C454 1.363 . S
C455 C461 1.428 . S
H456 C452 0.930 . S
H457 C454 0.929 . S
S458 N459 1.613 . S
S458 N460 1.610 . S
N459 S458 1.613 . S
N459 C462 1.350 . S
N460 S458 1.610 . S
N460 C461 1.351 . S
C461 C455 1.428 . S
C461 N460 1.351 . S
C461 C462 1.434 . S
C462 C453 1.429 . S
C462 N459 1.350 . S
C462 C461 1.434 . S
C463 C464 1.369 . S
C463 C465 1.419 . S
C463 H467 0.930 . S
C464 C463 1.369 . S
C464 C473 1.429 . S
C465 C463 1.419 . S
C465 C466 1.363 . S
C465 H468 0.929 . S
C466 C465 1.363 . S
C466 C472 1.428 . S
H467 C463 0.930 . S
H468 C465 0.929 . S
S469 N470 1.613 . S
S469 N471 1.610 . S
N470 S469 1.613 . S
N470 C473 1.350 . S
N471 S469 1.610 . S
N471 C472 1.351 . S
C472 C466 1.428 . S
C472 N471 1.351 . S
C472 C473 1.434 . S
C473 C464 1.429 . S
C473 N470 1.350 . S
C473 C472 1.434 . S
C474 C475 1.369 . S
C474 C476 1.419 . S
C474 H478 0.930 . S
C475 C474 1.369 . S
C475 C484 1.429 . S
C476 C474 1.419 . S
C476 C477 1.363 . S
C476 H479 0.929 . S
C477 C476 1.363 . S
C477 C483 1.428 . S
H478 C474 0.930 . S
H479 C476 0.929 . S
S480 N481 1.613 . S
S480 N482 1.610 . S
N481 S480 1.613 . S
N481 C484 1.350 . S
N482 S480 1.610 . S
N482 C483 1.351 . S
C483 C477 1.428 . S
C483 N482 1.351 . S
C483 C484 1.434 . S
C484 C475 1.429 . S
C484 N481 1.350 . S
C484 C483 1.434 . S
C485 C486 1.369 . S
C485 C487 1.419 . S
C485 H489 0.930 . S
C486 C485 1.369 . S
C486 C495 1.429 . S
C487 C485 1.419 . S
C487 C488 1.363 . S
C487 H490 0.929 . S
C488 C487 1.363 . S
C488 C494 1.428 . S
H489 C485 0.930 . S
H490 C487 0.929 . S
S491 N492 1.613 . S
S491 N493 1.610 . S
N492 S491 1.613 . S
N492 C495 1.350 . S
N493 S491 1.610 . S
N493 C494 1.351 . S
C494 C488 1.428 . S
C494 N493 1.351 . S
C494 C495 1.434 . S
C495 C486 1.429 . S
C495 N492 1.350 . S
C495 C494 1.434 . S
C496 C497 1.369 . S
C496 C498 1.419 . S
C496 H500 0.930 . S
C497 C496 1.369 . S
C497 C506 1.429 . S
C498 C496 1.419 . S
C498 C499 1.363 . S
C498 H501 0.929 . S
C499 C498 1.363 . S
C499 C505 1.428 . S
H500 C496 0.930 . S
H501 C498 0.929 . S
S502 N503 1.613 . S
S502 N504 1.610 . S
N503 S502 1.613 . S
N503 C506 1.350 . S
N504 S502 1.610 . S
N504 C505 1.351 . S
C505 C499 1.428 . S
C505 N504 1.351 . S
C505 C506 1.434 . S
C506 C497 1.429 . S
C506 N503 1.350 . S
C506 C505 1.434 . S
C507 C508 1.369 . S
C507 C509 1.419 . S
C507 H511 0.930 . S
C508 C507 1.369 . S
C508 C517 1.429 . S
C509 C507 1.419 . S
C509 C510 1.363 . S
C509 H512 0.929 . S
C510 C509 1.363 . S
C510 C516 1.428 . S
H511 C507 0.930 . S
H512 C509 0.929 . S
S513 N514 1.613 . S
S513 N515 1.610 . S
N514 S513 1.613 . S
N514 C517 1.350 . S
N515 S513 1.610 . S
N515 C516 1.351 . S
C516 C510 1.428 . S
C516 N515 1.351 . S
C516 C517 1.434 . S
C517 C508 1.429 . S
C517 N514 1.350 . S
C517 C516 1.434 . S
C518 C519 1.369 . S
C518 C520 1.419 . S
C518 H522 0.930 . S
C519 C518 1.369 . S
C519 C528 1.429 . S
C520 C518 1.419 . S
C520 C521 1.363 . S
C520 H523 0.929 . S
C521 C520 1.363 . S
C521 C527 1.428 . S
H522 C518 0.930 . S
H523 C520 0.929 . S
S524 N525 1.613 . S
S524 N526 1.610 . S
N525 S524 1.613 . S
N525 C528 1.350 . S
N526 S524 1.610 . S
N526 C527 1.351 . S
C527 C521 1.428 . S
C527 N526 1.351 . S
C527 C528 1.434 . S
C528 C519 1.429 . S
C528 N525 1.350 . S
C528 C527 1.434 . S
C529 C530 1.369 . S
C529 C531 1.419 . S
C529 H533 0.930 . S
C530 C529 1.369 . S
C530 C539 1.429 . S
C531 C529 1.419 . S
C531 C532 1.363 . S
C531 H534 0.929 . S
C532 C531 1.363 . S
C532 C538 1.428 . S
H533 C529 0.930 . S
H534 C531 0.929 . S
S535 N536 1.613 . S
S535 N537 1.610 . S
N536 S535 1.613 . S
N536 C539 1.350 . S
N537 S535 1.610 . S
N537 C538 1.351 . S
C538 C532 1.428 . S
C538 N537 1.351 . S
C538 C539 1.434 . S
C539 C530 1.429 . S
C539 N536 1.350 . S
C539 C538 1.434 . S
C233 C10 2.295 . S
C235 C158 2.187 . S
C244 C39 2.300 . S
C246 C187 2.187 . S
C255 C216 2.182 . S
C257 C68 2.296 . S
C266 C129 2.186 . S
C268 C97 2.300 . S
C277 C126 2.300 . S
C279 C100 2.182 . S
C288 C155 2.301 . S
C290 C13 2.186 . S
C299 C184 2.300 . S
C301 C42 2.182 . S
C310 C213 2.299 . S
C312 C71 2.188 . S
C321 C108 0.785 . S
C323 C8 0.745 . S
C332 C21 0.792 . S
C334 C37 0.743 . S
C343 C50 0.802 . S
C345 C66 0.732 . S
C354 C95 0.756 . S
C356 C79 0.779 . S
C365 C124 0.729 . S
C367 C166 0.798 . S
C376 C153 0.741 . S
C378 C195 0.794 . S
C387 C182 0.744 . S
C389 C224 0.788 . S
C398 C137 0.804 . S
C400 C211 0.732 . S
C409 C5 2.957 . S
C411 C63 2.962 . S
C420 C34 2.962 . S
C422 C92 2.959 . S
C431 C121 2.958 . S
C433 C179 2.956 . S
C442 C150 2.958 . S
C444 C208 2.956 . S
C453 C177 1.483 . S
C455 C15 1.527 . S
C464 C44 1.525 . S
C466 C206 1.490 . S
C475 C73 1.525 . S
C477 C119 1.486 . S
C486 C148 1.491 . S
C488 C102 1.526 . S
C497 C131 1.529 . S
C499 C61 1.483 . S
C508 C90 1.491 . S
C510 C160 1.528 . S
C519 C189 1.525 . S
C521 C3 1.490 . S
C530 C32 1.490 . S
C532 C218 1.529 . S
