# Generated by pormake.
# Topology uka, (4)-cn, num edge types: 1
# Building blocks:
#     Node 0, Type 0, BuildingBlock: GALJAG_clean_sbu_0, # of connection points: 4
#     Node 1, Type 0, BuildingBlock: GALJAG_clean_sbu_0, # of connection points: 4
#     Node 2, Type 0, BuildingBlock: GALJAG_clean_sbu_0, # of connection points: 4
#     Node 3, Type 0, BuildingBlock: GALJAG_clean_sbu_0, # of connection points: 4
#     Node 4, Type 0, BuildingBlock: GALJAG_clean_sbu_0, # of connection points: 4
#     Node 5, Type 0, BuildingBlock: GALJAG_clean_sbu_0, # of connection points: 4
#     Node 6, Type 0, BuildingBlock: GALJAG_clean_sbu_0, # of connection points: 4
#     Node 7, Type 0, BuildingBlock: GALJAG_clean_sbu_0, # of connection points: 4
#     Node 8, Type 0, BuildingBlock: GALJAG_clean_sbu_0, # of connection points: 4
#     Node 9, Type 0, BuildingBlock: GALJAG_clean_sbu_0, # of connection points: 4
#     Node 10, Type 0, BuildingBlock: GALJAG_clean_sbu_0, # of connection points: 4
#     Node 11, Type 0, BuildingBlock: GALJAG_clean_sbu_0, # of connection points: 4
#     Node 12, Type 0, BuildingBlock: GALJAG_clean_sbu_0, # of connection points: 4
#     Node 13, Type 0, BuildingBlock: GALJAG_clean_sbu_0, # of connection points: 4
#     Node 14, Type 0, BuildingBlock: GALJAG_clean_sbu_0, # of connection points: 4
#     Node 15, Type 0, BuildingBlock: GALJAG_clean_sbu_0, # of connection points: 4
#     Node 16, Type 0, BuildingBlock: GALJAG_clean_sbu_0, # of connection points: 4
#     Node 17, Type 0, BuildingBlock: GALJAG_clean_sbu_0, # of connection points: 4
#     Node 18, Type 0, BuildingBlock: GALJAG_clean_sbu_0, # of connection points: 4
#     Node 19, Type 0, BuildingBlock: GALJAG_clean_sbu_0, # of connection points: 4
#     Node 20, Type 0, BuildingBlock: GALJAG_clean_sbu_0, # of connection points: 4
#     Node 21, Type 0, BuildingBlock: GALJAG_clean_sbu_0, # of connection points: 4
#     Node 22, Type 0, BuildingBlock: GALJAG_clean_sbu_0, # of connection points: 4
#     Node 23, Type 0, BuildingBlock: GALJAG_clean_sbu_0, # of connection points: 4
#     Node 24, Type 0, BuildingBlock: GALJAG_clean_sbu_0, # of connection points: 4
#     Node 25, Type 0, BuildingBlock: GALJAG_clean_sbu_0, # of connection points: 4
#     Node 26, Type 0, BuildingBlock: GALJAG_clean_sbu_0, # of connection points: 4
#     Node 27, Type 0, BuildingBlock: GALJAG_clean_sbu_0, # of connection points: 4
#     Node 28, Type 0, BuildingBlock: GALJAG_clean_sbu_0, # of connection points: 4
#     Node 29, Type 0, BuildingBlock: GALJAG_clean_sbu_0, # of connection points: 4
#     Node 30, Type 0, BuildingBlock: GALJAG_clean_sbu_0, # of connection points: 4
#     Node 31, Type 0, BuildingBlock: GALJAG_clean_sbu_0, # of connection points: 4
#     Edge 32, Type (0, 0), BuildingBlock: CIFDUS_clean_linker_0, # of connection points: 2
#     Edge 33, Type (0, 0), BuildingBlock: CIFDUS_clean_linker_0, # of connection points: 2
#     Edge 34, Type (0, 0), BuildingBlock: CIFDUS_clean_linker_0, # of connection points: 2
#     Edge 35, Type (0, 0), BuildingBlock: CIFDUS_clean_linker_0, # of connection points: 2
#     Edge 36, Type (0, 0), BuildingBlock: CIFDUS_clean_linker_0, # of connection points: 2
#     Edge 37, Type (0, 0), BuildingBlock: CIFDUS_clean_linker_0, # of connection points: 2
#     Edge 38, Type (0, 0), BuildingBlock: CIFDUS_clean_linker_0, # of connection points: 2
#     Edge 39, Type (0, 0), BuildingBlock: CIFDUS_clean_linker_0, # of connection points: 2
#     Edge 40, Type (0, 0), BuildingBlock: CIFDUS_clean_linker_0, # of connection points: 2
#     Edge 41, Type (0, 0), BuildingBlock: CIFDUS_clean_linker_0, # of connection points: 2
#     Edge 42, Type (0, 0), BuildingBlock: CIFDUS_clean_linker_0, # of connection points: 2
#     Edge 43, Type (0, 0), BuildingBlock: CIFDUS_clean_linker_0, # of connection points: 2
#     Edge 44, Type (0, 0), BuildingBlock: CIFDUS_clean_linker_0, # of connection points: 2
#     Edge 45, Type (0, 0), BuildingBlock: CIFDUS_clean_linker_0, # of connection points: 2
#     Edge 46, Type (0, 0), BuildingBlock: CIFDUS_clean_linker_0, # of connection points: 2
#     Edge 47, Type (0, 0), BuildingBlock: CIFDUS_clean_linker_0, # of connection points: 2
#     Edge 48, Type (0, 0), BuildingBlock: CIFDUS_clean_linker_0, # of connection points: 2
#     Edge 49, Type (0, 0), BuildingBlock: CIFDUS_clean_linker_0, # of connection points: 2
#     Edge 50, Type (0, 0), BuildingBlock: CIFDUS_clean_linker_0, # of connection points: 2
#     Edge 51, Type (0, 0), BuildingBlock: CIFDUS_clean_linker_0, # of connection points: 2
#     Edge 52, Type (0, 0), BuildingBlock: CIFDUS_clean_linker_0, # of connection points: 2
#     Edge 53, Type (0, 0), BuildingBlock: CIFDUS_clean_linker_0, # of connection points: 2
#     Edge 54, Type (0, 0), BuildingBlock: CIFDUS_clean_linker_0, # of connection points: 2
#     Edge 55, Type (0, 0), BuildingBlock: CIFDUS_clean_linker_0, # of connection points: 2
#     Edge 56, Type (0, 0), BuildingBlock: CIFDUS_clean_linker_0, # of connection points: 2
#     Edge 57, Type (0, 0), BuildingBlock: CIFDUS_clean_linker_0, # of connection points: 2
#     Edge 58, Type (0, 0), BuildingBlock: CIFDUS_clean_linker_0, # of connection points: 2
#     Edge 59, Type (0, 0), BuildingBlock: CIFDUS_clean_linker_0, # of connection points: 2
#     Edge 60, Type (0, 0), BuildingBlock: CIFDUS_clean_linker_0, # of connection points: 2
#     Edge 61, Type (0, 0), BuildingBlock: CIFDUS_clean_linker_0, # of connection points: 2
#     Edge 62, Type (0, 0), BuildingBlock: CIFDUS_clean_linker_0, # of connection points: 2
#     Edge 63, Type (0, 0), BuildingBlock: CIFDUS_clean_linker_0, # of connection points: 2
#     Edge 64, Type (0, 0), BuildingBlock: CIFDUS_clean_linker_0, # of connection points: 2
#     Edge 65, Type (0, 0), BuildingBlock: CIFDUS_clean_linker_0, # of connection points: 2
#     Edge 66, Type (0, 0), BuildingBlock: CIFDUS_clean_linker_0, # of connection points: 2
#     Edge 67, Type (0, 0), BuildingBlock: CIFDUS_clean_linker_0, # of connection points: 2
#     Edge 68, Type (0, 0), BuildingBlock: CIFDUS_clean_linker_0, # of connection points: 2
#     Edge 69, Type (0, 0), BuildingBlock: CIFDUS_clean_linker_0, # of connection points: 2
#     Edge 70, Type (0, 0), BuildingBlock: CIFDUS_clean_linker_0, # of connection points: 2
#     Edge 71, Type (0, 0), BuildingBlock: CIFDUS_clean_linker_0, # of connection points: 2
#     Edge 72, Type (0, 0), BuildingBlock: CIFDUS_clean_linker_0, # of connection points: 2
#     Edge 73, Type (0, 0), BuildingBlock: CIFDUS_clean_linker_0, # of connection points: 2
#     Edge 74, Type (0, 0), BuildingBlock: CIFDUS_clean_linker_0, # of connection points: 2
#     Edge 75, Type (0, 0), BuildingBlock: CIFDUS_clean_linker_0, # of connection points: 2
#     Edge 76, Type (0, 0), BuildingBlock: CIFDUS_clean_linker_0, # of connection points: 2
#     Edge 77, Type (0, 0), BuildingBlock: CIFDUS_clean_linker_0, # of connection points: 2
#     Edge 78, Type (0, 0), BuildingBlock: CIFDUS_clean_linker_0, # of connection points: 2
#     Edge 79, Type (0, 0), BuildingBlock: CIFDUS_clean_linker_0, # of connection points: 2
#     Edge 80, Type (0, 0), BuildingBlock: CIFDUS_clean_linker_0, # of connection points: 2
#     Edge 81, Type (0, 0), BuildingBlock: CIFDUS_clean_linker_0, # of connection points: 2
#     Edge 82, Type (0, 0), BuildingBlock: CIFDUS_clean_linker_0, # of connection points: 2
#     Edge 83, Type (0, 0), BuildingBlock: CIFDUS_clean_linker_0, # of connection points: 2
#     Edge 84, Type (0, 0), BuildingBlock: CIFDUS_clean_linker_0, # of connection points: 2
#     Edge 85, Type (0, 0), BuildingBlock: CIFDUS_clean_linker_0, # of connection points: 2
#     Edge 86, Type (0, 0), BuildingBlock: CIFDUS_clean_linker_0, # of connection points: 2
#     Edge 87, Type (0, 0), BuildingBlock: CIFDUS_clean_linker_0, # of connection points: 2
#     Edge 88, Type (0, 0), BuildingBlock: CIFDUS_clean_linker_0, # of connection points: 2
#     Edge 89, Type (0, 0), BuildingBlock: CIFDUS_clean_linker_0, # of connection points: 2
#     Edge 90, Type (0, 0), BuildingBlock: CIFDUS_clean_linker_0, # of connection points: 2
#     Edge 91, Type (0, 0), BuildingBlock: CIFDUS_clean_linker_0, # of connection points: 2
#     Edge 92, Type (0, 0), BuildingBlock: CIFDUS_clean_linker_0, # of connection points: 2
#     Edge 93, Type (0, 0), BuildingBlock: CIFDUS_clean_linker_0, # of connection points: 2
#     Edge 94, Type (0, 0), BuildingBlock: CIFDUS_clean_linker_0, # of connection points: 2
#     Edge 95, Type (0, 0), BuildingBlock: CIFDUS_clean_linker_0, # of connection points: 2
# Relax obj value: 0.105
# Max RMSD: 0.149
# Mean RMSD: 0.149
data_MOF--net-uka--node1-GALJAG_clean_sbu_0--edge1-CIFDUS_clean_linker_0
_symmetry_space_group_name_H-M    P1
_symmetry_Int_Tables_number       1
_symmetry_cell_setting            triclinic
loop_
_symmetry_equiv_pos_as_xyz
'x, y, z'
_cell_length_a     50.129711
_cell_length_b     50.209031
_cell_length_c     41.011076
_cell_angle_alpha  89.981326
_cell_angle_beta   90.010188
_cell_angle_gamma 89.833742
loop_
_atom_site_label
_atom_site_type_symbol
_atom_site_fract_x
_atom_site_fract_y
_atom_site_fract_z
_atom_type_partial_charge
In0 In 0.12266 0.26833 0.25597 0.0
O1 O 0.16695 0.27555 0.26159 0.0
O2 O 0.15495 0.24122 0.23492 0.0
C3 C 0.1052 0.30779 0.295 0.0
C4 C 0.1073 0.28737 0.19755 0.0
C5 C 0.10405 0.22671 0.2908 0.0
O6 O 0.12797 0.29741 0.29831 0.0
O7 O 0.09164 0.29878 0.27163 0.0
O8 O 0.09781 0.22979 0.26114 0.0
O9 O 0.11947 0.24419 0.30193 0.0
C10 C 0.17392 0.25487 0.24629 0.0
O11 O 0.09467 0.26897 0.21187 0.0
O12 O 0.12787 0.29541 0.21232 0.0
In13 In 0.98057 0.85862 0.51824 0.0
O14 O 0.98762 0.83505 0.47107 0.0
O15 O 0.94991 0.85361 0.47802 0.0
C16 C 0.01853 0.82928 0.54793 0.0
C17 C 0.99168 0.90994 0.50498 0.0
C18 C 0.94447 0.85365 0.56659 0.0
O19 O 0.02006 0.85426 0.54524 0.0
O20 O -0.0014 0.81899 0.53401 0.0
O21 O 0.96674 0.86472 0.57066 0.0
O22 O 0.94013 0.84563 0.53793 0.0
C23 C 0.96454 0.8395 0.45992 0.0
O24 O 0.97114 0.90268 0.52022 0.0
O25 O 0.00682 0.8912 0.49607 0.0
In26 In 0.3801 0.70965 0.75408 0.0
O27 O 0.40207 0.71857 0.70624 0.0
O28 O 0.38277 0.6811 0.71136 0.0
C29 C 0.38741 0.75493 0.78812 0.0
C30 C 0.32696 0.71012 0.7463 0.0
C31 C 0.40707 0.67767 0.79547 0.0
O32 O 0.39823 0.75155 0.76054 0.0
O33 O 0.37311 0.73589 0.79755 0.0
O34 O 0.38223 0.68117 0.79734 0.0
O35 O 0.41823 0.68947 0.77202 0.0
C36 C 0.39654 0.69629 0.69356 0.0
O37 O 0.33943 0.69014 0.75724 0.0
O38 O 0.34147 0.72947 0.73795 0.0
In39 In 0.54113 0.116 0.02285 0.0
O40 O 0.55043 0.07185 0.02558 0.0
O41 O 0.51298 0.08319 0.00553 0.0
C42 C 0.57127 0.12074 0.07697 0.0
C43 C 0.56086 0.13277 0.96487 0.0
C44 C 0.50298 0.14842 0.04661 0.0
O45 O 0.54888 0.10943 0.07685 0.0
O46 O 0.57912 0.12859 0.04935 0.0
O47 O 0.52609 0.15648 0.0395 0.0
O48 O 0.49857 0.12431 0.03965 0.0
C49 C 0.52849 0.06447 0.01366 0.0
O50 O 0.53835 0.14007 0.97534 0.0
O51 O 0.57315 0.11688 0.98336 0.0
In52 In 0.11263 0.72228 0.24122 0.0
O53 O 0.15626 0.71075 0.24166 0.0
O54 O 0.14624 0.75032 0.25574 0.0
C55 C 0.10818 0.69051 0.18862 0.0
C56 C 0.09468 0.70674 0.30031 0.0
C57 C 0.08174 0.75955 0.21323 0.0
O58 O 0.12181 0.71152 0.18862 0.0
O59 O 0.09779 0.68473 0.21578 0.0
O60 O 0.07258 0.73767 0.22339 0.0
O61 O 0.10607 0.7634 0.21955 0.0
C62 C 0.16439 0.73343 0.25026 0.0
O63 O 0.09078 0.72987 0.28924 0.0
O64 O 0.10788 0.69162 0.28177 0.0
In65 In 0.53428 0.87251 0.48486 0.0
O66 O 0.53239 0.8433 0.52757 0.0
O67 O 0.56428 0.87109 0.52657 0.0
C68 C 0.49294 0.8477 0.45629 0.0
C69 C 0.52051 0.92244 0.50054 0.0
C70 C 0.56634 0.86789 0.43228 0.0
O71 O 0.4919 0.87163 0.46541 0.0
O72 O 0.51416 0.83562 0.46393 0.0
O73 O 0.54614 0.88282 0.43274 0.0
O74 O 0.5715 0.85679 0.45917 0.0
C75 C 0.55315 0.85204 0.54126 0.0
O76 O 0.5413 0.91715 0.48435 0.0
O77 O 0.50736 0.90244 0.50987 0.0
In78 In 0.3508 0.27586 0.72141 0.0
O79 O 0.37696 0.26355 0.76464 0.0
O80 O 0.35439 0.29952 0.76818 0.0
C81 C 0.35844 0.23941 0.67442 0.0
C82 C 0.29893 0.26747 0.7323 0.0
C83 C 0.37717 0.31343 0.68833 0.0
O84 O 0.36671 0.23541 0.70324 0.0
O85 O 0.34631 0.26111 0.67015 0.0
O86 O 0.35194 0.31247 0.68825 0.0
O87 O 0.38858 0.29641 0.70622 0.0
C88 C 0.37098 0.28389 0.78142 0.0
O89 O 0.30759 0.28982 0.72282 0.0
O90 O 0.31659 0.25002 0.73755 0.0
In91 In 0.95627 0.11467 0.99137 0.0
O92 O 0.94189 0.07277 0.98257 0.0
O93 O 0.97688 0.07768 0.01153 0.0
C94 C 0.93436 0.1351 0.93702 0.0
C95 C 0.93128 0.13309 0.04541 0.0
C96 C 0.00473 0.12876 0.96939 0.0
O97 O 0.92947 0.11165 0.94616 0.0
O98 O 0.94819 0.14857 0.95652 0.0
O99 O 0.99193 0.14272 0.98977 0.0
O100 O -0.00596 0.10675 0.96255 0.0
C101 C 0.96082 0.06183 0.99785 0.0
O102 O 0.95609 0.13537 0.04123 0.0
O103 O 0.91923 0.12118 0.02279 0.0
In104 In 0.87697 0.73211 0.74211 0.0
O105 O 0.8337 0.72211 0.73263 0.0
O106 O 0.84216 0.74985 0.77055 0.0
C107 C 0.89946 0.70591 0.69181 0.0
C108 C 0.89659 0.7068 0.79507 0.0
C109 C 0.88673 0.78074 0.71765 0.0
O110 O 0.87604 0.70093 0.70127 0.0
O111 O 0.91161 0.72308 0.70848 0.0
O112 O 0.89942 0.7718 0.74202 0.0
O113 O 0.86849 0.76573 0.70728 0.0
C114 C 0.82467 0.73753 0.75431 0.0
O115 O 0.90264 0.7306 0.78846 0.0
O116 O 0.88064 0.69614 0.77527 0.0
In117 In 0.00892 0.11962 0.47745 0.0
O118 O 0.0055 0.14244 0.52554 0.0
O119 O 0.03815 0.1156 0.51915 0.0
C120 C 0.96359 0.13705 0.44925 0.0
C121 C 0.0007 0.0676 0.4881 0.0
C122 C 0.04434 0.14102 0.43535 0.0
O123 O 0.97337 0.14847 0.47397 0.0
O124 O 0.97634 0.11688 0.43971 0.0
O125 O 0.03235 0.11956 0.42933 0.0
O126 O 0.03908 0.15108 0.4627 0.0
C127 C 0.02636 0.13205 0.53751 0.0
O128 O 0.02078 0.07597 0.47257 0.0
O129 O 0.98504 0.08549 0.49825 0.0
In130 In 0.59516 0.26381 0.24194 0.0
O131 O 0.6353 0.28222 0.22859 0.0
O132 O 0.63407 0.25273 0.26606 0.0
C133 C 0.56408 0.28004 0.19199 0.0
C134 C 0.57872 0.28936 0.2963 0.0
C135 C 0.59438 0.21236 0.22389 0.0
O136 O 0.58838 0.28642 0.1941 0.0
O137 O 0.55532 0.26685 0.21584 0.0
O138 O 0.57881 0.22112 0.24574 0.0
O139 O 0.61038 0.22928 0.21257 0.0
C140 C 0.64817 0.26803 0.24873 0.0
O141 O 0.57699 0.26436 0.29329 0.0
O142 O 0.5882 0.30123 0.2718 0.0
In143 In 0.46134 0.86711 0.97715 0.0
O144 O 0.4477 0.91044 0.97904 0.0
O145 O 0.48631 0.90068 0.99737 0.0
C146 C 0.42472 0.84615 0.93658 0.0
C147 C 0.4484 0.8484 0.03664 0.0
C148 C 0.50387 0.85579 0.9393 0.0
O149 O 0.43282 0.86976 0.93363 0.0
O150 O 0.4341 0.83369 0.96065 0.0
O151 O 0.49962 0.84324 0.96556 0.0
O152 O 0.48722 0.8739 0.93317 0.0
C153 C 0.46931 0.91862 0.99133 0.0
O154 O 0.46895 0.8404 0.02154 0.0
O155 O 0.43481 0.86585 0.0218 0.0
In156 In 0.88699 0.2594 0.7545 0.0
O157 O 0.91231 0.2603 0.70811 0.0
O158 O 0.883 0.29048 0.71456 0.0
C159 C 0.9147 0.21725 0.77651 0.0
C160 C 0.83555 0.24659 0.74709 0.0
C161 C 0.89516 0.28993 0.80773 0.0
O162 O 0.92544 0.23956 0.77137 0.0
O163 O 0.8907 0.21571 0.76757 0.0
O164 O 0.88179 0.26876 0.80844 0.0
O165 O 0.90343 0.29645 0.77978 0.0
C166 C 0.90114 0.28087 0.69678 0.0
O167 O 0.84302 0.2662 0.764 0.0
O168 O 0.85404 0.23395 0.73299 0.0
In169 In 0.46663 0.12584 0.51577 0.0
O170 O 0.47487 0.15874 0.47859 0.0
O171 O 0.44778 0.12781 0.46568 0.0
C172 C 0.49989 0.13739 0.56511 0.0
C173 C 0.48285 0.07629 0.50189 0.0
C174 C 0.4225 0.14162 0.54732 0.0
O175 O 0.50562 0.14367 0.53606 0.0
O176 O 0.47804 0.12556 0.56864 0.0
O177 O 0.42957 0.11743 0.54644 0.0
O178 O 0.43676 0.15723 0.53069 0.0
C179 C 0.45919 0.14918 0.45744 0.0
O180 O 0.45938 0.08134 0.51136 0.0
O181 O 0.4977 0.09633 0.49843 0.0
In182 In 0.61647 0.72597 0.25969 0.0
O183 O 0.65974 0.71241 0.25961 0.0
O184 O 0.64886 0.74697 0.23206 0.0
C185 C 0.5895 0.69477 0.30105 0.0
C186 C 0.59517 0.70982 0.20295 0.0
C187 C 0.61594 0.76908 0.29833 0.0
O188 O 0.6145 0.69243 0.29758 0.0
O189 O 0.57854 0.71207 0.28314 0.0
O190 O 0.60205 0.76829 0.27248 0.0
O191 O 0.6296 0.74848 0.3039 0.0
C192 C 0.66723 0.73162 0.24181 0.0
O193 O 0.58934 0.7322 0.2154 0.0
O194 O 0.61178 0.69609 0.21901 0.0
In195 In 0.00696 0.85896 0.00607 0.0
O196 O 0.02667 0.89974 0.00767 0.0
O197 O 0.99058 0.89564 0.98089 0.0
C198 C 0.03372 0.83742 0.05616 0.0
C199 C 0.0221 0.83179 0.95217 0.0
C200 C 0.96076 0.85749 0.03928 0.0
O201 O 0.04138 0.85861 0.04244 0.0
O202 O 0.01359 0.82653 0.04342 0.0
O203 O 0.96537 0.84164 0.01591 0.0
O204 O 0.97887 0.87429 0.04454 0.0
C205 C 0.00842 0.91103 0.99153 0.0
O206 O -0.00197 0.83781 0.95758 0.0
O207 O 0.03823 0.83962 0.97364 0.0
In208 In 0.61371 0.75544 0.76066 0.0
O209 O 0.58849 0.75185 0.71443 0.0
O210 O 0.6109 0.7873 0.72128 0.0
C211 C 0.5914 0.71017 0.78242 0.0
C212 C 0.66634 0.74968 0.75033 0.0
C213 C 0.60016 0.78502 0.81327 0.0
O214 O 0.57774 0.72962 0.77221 0.0
O215 O 0.61625 0.71284 0.77916 0.0
O216 O 0.6144 0.76441 0.81519 0.0
O217 O 0.59381 0.79156 0.78459 0.0
C218 C 0.59493 0.77445 0.70348 0.0
O219 O 0.65695 0.76696 0.76953 0.0
O220 O 0.64913 0.73578 0.73577 0.0
In221 In 0.45364 0.35914 0.00325 0.0
O222 O 0.45148 0.40374 0.01088 0.0
O223 O 0.48299 0.38884 0.98125 0.0
C224 C 0.42142 0.35836 0.05575 0.0
C225 C 0.43025 0.34374 0.94672 0.0
C226 C 0.49129 0.32754 0.03011 0.0
O227 O 0.44417 0.36895 0.05599 0.0
O228 O 0.41427 0.34925 0.02841 0.0
O229 O 0.46691 0.32147 0.02953 0.0
O230 O 0.49705 0.34827 0.01422 0.0
C231 C 0.47208 0.40883 0.99441 0.0
O232 O 0.44955 0.33108 0.9591 0.0
O233 O 0.42315 0.36402 0.96261 0.0
In234 In 0.85572 0.22374 0.2606 0.0
O235 O 0.81354 0.21142 0.27288 0.0
O236 O 0.81816 0.24612 0.24381 0.0
C237 C 0.87058 0.18994 0.30857 0.0
C238 C 0.87308 0.20894 0.20083 0.0
C239 C 0.88352 0.26533 0.28387 0.0
O240 O 0.86058 0.21251 0.31402 0.0
O241 O 0.87219 0.18385 0.2788 0.0
O242 O 0.89439 0.24537 0.27066 0.0
O243 O 0.85832 0.2651 0.28357 0.0
C244 C 0.8024 0.23054 0.25833 0.0
O245 O 0.87873 0.23114 0.2134 0.0
O246 O 0.85769 0.19469 0.21773 0.0
In247 In 0.02734 0.61932 0.52225 0.0
O248 O 0.02982 0.57472 0.52796 0.0
O249 O -0.00163 0.59 0.49852 0.0
C250 C 0.06079 0.61917 0.5737 0.0
C251 C 0.04761 0.63651 0.46495 0.0
C252 C 0.99108 0.65237 0.5488 0.0
O253 O 0.03698 0.6114 0.5754 0.0
O254 O 0.06816 0.62634 0.54559 0.0
O255 O 0.98538 0.62893 0.54016 0.0
O256 O 0.01456 0.65955 0.54214 0.0
C257 C 0.00964 0.5698 0.51072 0.0
O258 O 0.02794 0.64758 0.47857 0.0
O259 O 0.05695 0.61673 0.48012 0.0
In260 In 0.62855 0.21405 0.74025 0.0
O261 O 0.60127 0.22199 0.78399 0.0
O262 O 0.62444 0.18623 0.78318 0.0
C263 C 0.62469 0.25357 0.69633 0.0
C264 C 0.67955 0.22121 0.7562 0.0
C265 C 0.60313 0.17999 0.70114 0.0
O266 O 0.61334 0.25544 0.72391 0.0
O267 O 0.63807 0.2326 0.69211 0.0
O268 O 0.62822 0.17926 0.70443 0.0
O269 O 0.59118 0.19672 0.71894 0.0
C270 C 0.60757 0.20042 0.79816 0.0
O271 O 0.67167 0.20061 0.74129 0.0
O272 O 0.66146 0.2376 0.76402 0.0
In273 In 0.02549 0.36869 0.98048 0.0
O274 O 0.01492 0.34432 0.02588 0.0
O275 O 0.05269 0.36368 0.02394 0.0
C276 C 0.98355 0.36016 0.94082 0.0
C277 C 0.0217 0.42093 0.9927 0.0
C278 C 0.06129 0.34426 0.94193 0.0
O279 O 0.98593 0.34785 0.96762 0.0
O280 O 0.00176 0.37668 0.93502 0.0
O281 O 0.05599 0.36871 0.93905 0.0
O282 O 0.04917 0.33249 0.96459 0.0
C283 C 0.03713 0.34864 0.03961 0.0
O284 O 0.04278 0.41034 0.9818 0.0
O285 O 0.00299 0.4049 -0.00113 0.0
In286 In 0.87239 0.77901 0.2379 0.0
O287 O 0.82773 0.78534 0.23664 0.0
O288 O 0.84212 0.74876 0.25628 0.0
C289 C 0.8852 0.81966 0.19828 0.0
C290 C 0.89066 0.79508 0.29639 0.0
C291 C 0.8909 0.73983 0.19909 0.0
O292 O 0.86262 0.80867 0.19765 0.0
O293 O 0.90084 0.81108 0.22002 0.0
O294 O 0.89543 0.73962 0.22944 0.0
O295 O 0.87748 0.75939 0.18923 0.0
C296 C 0.82222 0.7628 0.24843 0.0
O297 O 0.90319 0.77841 0.27903 0.0
O298 O 0.86896 0.80329 0.28431 0.0
In299 In 0.44228 0.61508 0.45951 0.0
O300 O 0.44761 0.64246 0.50381 0.0
O301 O 0.41773 0.61241 0.50574 0.0
C302 C 0.48011 0.63282 0.41863 0.0
C303 C 0.45618 0.56403 0.46903 0.0
C304 C 0.40276 0.63452 0.4221 0.0
O305 O 0.48171 0.6372 0.44898 0.0
O306 O 0.46035 0.61923 0.40985 0.0
O307 O 0.41097 0.61081 0.41937 0.0
O308 O 0.41308 0.6475 0.44522 0.0
C309 C 0.42923 0.63145 0.52007 0.0
O310 O 0.43293 0.57076 0.46036 0.0
O311 O 0.47219 0.58307 0.47312 0.0
In312 In 0.38294 0.22798 0.23487 0.0
O313 O 0.40714 0.22802 0.28244 0.0
O314 O 0.38973 0.1917 0.26653 0.0
C315 C 0.38859 0.27712 0.21014 0.0
C316 C 0.33096 0.2318 0.24964 0.0
C317 C 0.40649 0.20297 0.1844 0.0
O318 O 0.40381 0.26852 0.23247 0.0
O319 O 0.37044 0.26127 0.20158 0.0
O320 O 0.38332 0.19688 0.19396 0.0
O321 O 0.41779 0.22086 0.20087 0.0
C322 C 0.40347 0.2035 0.2878 0.0
O323 O 0.33945 0.21684 0.22709 0.0
O324 O 0.34882 0.24404 0.26531 0.0
In325 In 0.52557 0.61179 0.98831 0.0
O326 O 0.52366 0.64048 0.03186 0.0
O327 O 0.55784 0.6156 0.02673 0.0
C328 C 0.48276 0.62205 0.95112 0.0
C329 C 0.51363 0.56135 0.00374 0.0
C330 C 0.55688 0.63075 0.94104 0.0
O331 O 0.48568 0.63321 0.97863 0.0
O332 O 0.50034 0.60503 0.94401 0.0
O333 O 0.55993 0.60732 0.95177 0.0
O334 O 0.53992 0.64476 0.95596 0.0
C335 C 0.54611 0.63343 0.04304 0.0
O336 O 0.5335 0.56731 0.98627 0.0
O337 O 0.50049 0.58097 0.01452 0.0
In338 In 0.11839 0.74193 0.74847 0.0
O339 O 0.11938 0.74816 0.80378 0.0
O340 O 0.08411 0.75928 0.779 0.0
C341 C 0.10889 0.69185 0.72792 0.0
C342 C 0.17181 0.74368 0.75155 0.0
C343 C 0.10013 0.77048 0.69728 0.0
O344 O 0.0943 0.70297 0.7491 0.0
O345 O 0.1285 0.70556 0.7188 0.0
O346 O 0.11568 0.78049 0.71819 0.0
O347 O 0.09374 0.74668 0.70268 0.0
C348 C 0.09633 0.75802 0.80575 0.0
O349 O 0.1583 0.76242 0.73912 0.0
O350 O 0.15825 0.72493 0.76352 0.0
In351 In 0.97802 0.36384 0.47779 0.0
O352 O 0.96683 0.40777 0.47639 0.0
O353 O -0.0031 0.39534 0.50976 0.0
C354 C 0.94581 0.34531 0.43058 0.0
C355 C 0.96251 0.33627 0.53092 0.0
C356 C 0.02397 0.35967 0.44455 0.0
O357 O 0.93993 0.36592 0.44672 0.0
O358 O 0.96698 0.33376 0.43927 0.0
O359 O 0.01975 0.34643 0.47029 0.0
O360 O 0.00544 0.37543 0.43658 0.0
C361 C 0.98352 0.41435 0.49796 0.0
O362 O 0.98463 0.33217 0.51709 0.0
O363 O 0.94828 0.35401 0.51777 0.0
In364 In 0.36387 0.79342 0.2659 0.0
O365 O 0.38853 0.78693 0.21927 0.0
O366 O 0.36906 0.8243 0.22658 0.0
C367 C 0.36157 0.75019 0.30401 0.0
C368 C 0.3118 0.79093 0.25353 0.0
C369 C 0.39458 0.81843 0.30926 0.0
O370 O 0.3735 0.74942 0.27665 0.0
O371 O 0.35092 0.77225 0.31103 0.0
O372 O 0.37142 0.82693 0.30236 0.0
O373 O 0.40251 0.79877 0.29264 0.0
C374 C 0.38357 0.81006 0.20838 0.0
O375 O 0.32168 0.81011 0.26954 0.0
O376 O 0.32846 0.77429 0.24244 0.0
In377 In 0.97665 0.62539 0.01254 0.0
O378 O 0.9579 0.58424 0.01149 0.0
O379 O -0.00254 0.58888 0.99304 0.0
C380 C 0.94348 0.65354 0.05074 0.0
C381 C 0.96598 0.646 0.95351 0.0
C382 C 0.01894 0.62848 0.05253 0.0
O383 O 0.94463 0.62845 0.05219 0.0
O384 O 0.95821 0.66407 0.02951 0.0
O385 O 0.01864 0.64056 0.0254 0.0
O386 O -0.00164 0.61509 0.05863 0.0
C387 C 0.97852 0.57326 -0.00025 0.0
O388 O 0.9874 0.65121 0.96856 0.0
O389 O 0.95063 0.62989 0.96788 0.0
In390 In 0.10044 0.20469 0.76344 0.0
O391 O 0.06911 0.21137 0.72347 0.0
O392 O 0.0923 0.17598 0.72181 0.0
C393 C 0.09808 0.25079 0.79615 0.0
C394 C 0.15199 0.20993 0.74729 0.0
C395 C 0.0806 0.17454 0.81186 0.0
O396 O 0.08505 0.2473 0.77003 0.0
O397 O 0.11234 0.23132 0.80493 0.0
O398 O 0.10094 0.16739 0.79592 0.0
O399 O 0.06969 0.19572 0.80215 0.0
C400 C 0.07425 0.18989 0.70878 0.0
O401 O 0.14363 0.19059 0.76407 0.0
O402 O 0.13415 0.22574 0.73739 0.0
In403 In 0.53025 0.37231 0.52783 0.0
O404 O 0.52155 0.33805 0.49271 0.0
O405 O 0.55004 0.36723 0.47839 0.0
C406 C 0.49159 0.36381 0.5721 0.0
C407 C 0.5197 0.42237 0.50881 0.0
C408 C 0.57051 0.35548 0.56609 0.0
O409 O 0.48883 0.3567 0.5427 0.0
O410 O 0.51333 0.37506 0.57854 0.0
O411 O 0.563 0.37951 0.56565 0.0
O412 O 0.55902 0.34063 0.54568 0.0
C413 C 0.53771 0.34611 0.4712 0.0
O414 O 0.54279 0.41526 0.51777 0.0
O415 O 0.50243 0.40418 0.50906 0.0
H416 H 0.0411 0.13871 0.36922 0.0
H417 H 0.08463 0.17505 0.44821 0.0
H418 H 0.10876 0.20301 0.40956 0.0
H419 H 0.11454 0.21982 0.35449 0.0
H420 H 0.06911 0.18653 0.27507 0.0
H421 H 0.04866 0.15448 0.31268 0.0
C422 C 0.05625 0.15241 0.37778 0.0
C423 C 0.06121 0.15487 0.41141 0.0
C424 C 0.0694 0.16911 0.35545 0.0
C425 C 0.08053 0.17292 0.4224 0.0
C426 C 0.09425 0.18893 0.40035 0.0
C427 C 0.10034 0.20541 0.34524 0.0
C428 C 0.09321 0.20562 0.31209 0.0
C429 C 0.08836 0.18764 0.36699 0.0
C430 C 0.07484 0.18678 0.30053 0.0
C431 C 0.06315 0.16852 0.32203 0.0
H432 H 0.05606 0.84853 0.5894 0.0
H433 H 0.01961 0.77552 0.55649 0.0
H434 H 0.043 0.75072 0.59901 0.0
H435 H 0.07067 0.75039 0.64809 0.0
H436 H 0.10629 0.82331 0.68245 0.0
H437 H 0.08636 0.84762 0.63667 0.0
C438 C 0.05363 0.82712 0.59117 0.0
C439 C 0.03608 0.81388 0.5699 0.0
C440 C 0.0667 0.81307 0.61615 0.0
C441 C 0.03301 0.78616 0.57257 0.0
C442 C 0.04627 0.77199 0.59698 0.0
C443 C 0.07421 0.7716 0.6455 0.0
C444 C 0.08967 0.78514 0.66878 0.0
C445 C 0.06261 0.78536 0.61936 0.0
C446 C 0.09431 0.81252 0.66492 0.0
C447 C 0.08293 0.82639 0.63877 0.0
H448 H 0.4313 0.85053 0.87151 0.0
H449 H 0.38566 0.80981 0.94523 0.0
H450 H 0.36713 0.78 0.90393 0.0
H451 H 0.36859 0.76209 0.84887 0.0
H452 H 0.41797 0.79917 0.77572 0.0
H453 H 0.43037 0.83406 0.8147 0.0
C454 C 0.41669 0.83559 0.87822 0.0
C455 C 0.40953 0.83237 0.91112 0.0
C456 C 0.40727 0.81767 0.8546 0.0
C457 C 0.3912 0.81262 0.91992 0.0
C458 C 0.3808 0.79553 0.89639 0.0
C459 C 0.3818 0.778 0.84123 0.0
C460 C 0.39255 0.77797 0.80956 0.0
C461 C 0.38943 0.7973 0.86394 0.0
C462 C 0.40956 0.79873 0.80004 0.0
C463 C 0.41666 0.81862 0.82232 0.0
H464 H 0.44872 0.22192 0.15095 0.0
H465 H 0.39304 0.15662 0.15368 0.0
H466 H 0.41647 0.13513 0.10831 0.0
H467 H 0.45488 0.13341 0.07095 0.0
H468 H 0.5103 0.19903 0.06855 0.0
H469 H 0.48451 0.2222 0.1103 0.0
C470 C 0.44167 0.20301 0.14154 0.0
C471 C 0.41949 0.1906 0.1559 0.0
C472 C 0.45509 0.19095 0.11543 0.0
C473 C 0.41022 0.1664 0.14312 0.0
C474 C 0.42359 0.15414 0.11721 0.0
C475 C 0.46101 0.153 0.07912 0.0
C476 C 0.48456 0.1644 0.06683 0.0
C477 C 0.44631 0.16604 0.10354 0.0
C478 C 0.49227 0.1898 0.07764 0.0
C479 C 0.47764 0.20299 0.10169 0.0
H480 H 0.10088 0.80098 0.17803 0.0
H481 H 0.02981 0.75462 0.19483 0.0
H482 H 0.00848 0.77524 0.1476 0.0
H483 H 0.01164 0.80316 0.09882 0.0
H484 H 0.08261 0.84941 0.08145 0.0
H485 H 0.1026 0.83184 0.13157 0.0
C486 C 0.08052 0.79583 0.17177 0.0
C487 C 0.06697 0.77622 0.18976 0.0
C488 C 0.06864 0.80725 0.14412 0.0
C489 C 0.04064 0.76967 0.18134 0.0
C490 C 0.02852 0.78126 0.15418 0.0
C491 C 0.03152 0.80933 0.10598 0.0
C492 C 0.0459 0.82711 0.08628 0.0
C493 C 0.04266 0.79942 0.13486 0.0
C494 C 0.07134 0.83548 0.09614 0.0
C495 C 0.0827 0.82553 0.12479 0.0
H496 H 0.43338 0.79193 0.34086 0.0
H497 H 0.38932 0.86585 0.34164 0.0
H498 H 0.41431 0.88046 0.38983 0.0
H499 H 0.44993 0.87268 0.4301 0.0
H500 H 0.49326 0.79824 0.42915 0.0
H501 H 0.46667 0.78298 0.38297 0.0
C502 C 0.42937 0.81134 0.35142 0.0
C503 C 0.40996 0.82806 0.33745 0.0
C504 C 0.44334 0.81926 0.3793 0.0
C505 C 0.40445 0.85283 0.35183 0.0
C506 C 0.41861 0.86109 0.37941 0.0
C507 C 0.45322 0.85293 0.42016 0.0
C508 C 0.47356 0.83661 0.43295 0.0
C509 C 0.43818 0.84449 0.39324 0.0
C510 C 0.47766 0.81112 0.41979 0.0
C511 C 0.46264 0.80248 0.39321 0.0
H512 H 0.37363 0.18701 0.67568 0.0
H513 H 0.35646 0.2525 0.61066 0.0
H514 H 0.37099 0.22615 0.5642 0.0
H515 H 0.39381 0.18678 0.54295 0.0
H516 H 0.41039 0.12052 0.60667 0.0
H517 H 0.39017 0.14446 0.65246 0.0
C518 C 0.3728 0.19529 0.65127 0.0
C519 C 0.36445 0.22175 0.64666 0.0
C520 C 0.38096 0.17988 0.62439 0.0
C521 C 0.363 0.2322 0.61489 0.0
C522 C 0.37131 0.21717 0.58824 0.0
C523 C 0.39226 0.17732 0.56668 0.0
C524 C 0.40366 0.15213 0.57161 0.0
C525 C 0.38101 0.1913 0.59283 0.0
C526 C 0.40153 0.13991 0.60232 0.0
C527 C 0.39031 0.15372 0.62859 0.0
H528 H 0.06334 0.19811 0.86642 0.0
H529 H 0.07864 0.12105 0.82408 0.0
H530 H 0.05988 0.09933 0.8726 0.0
H531 H 0.03461 0.10294 0.92404 0.0
H532 H 0.02076 0.18043 0.96649 0.0
H533 H 0.04442 0.20139 0.92138 0.0
C534 C 0.06267 0.17654 0.86799 0.0
C535 C 0.07161 0.16106 0.84166 0.0
C536 C 0.05243 0.16439 0.89602 0.0
C537 C 0.07148 0.13322 0.84407 0.0
C538 C 0.06082 0.12088 0.87175 0.0
C539 C 0.03743 0.12435 0.92386 0.0
C540 C 0.02565 0.14014 0.94833 0.0
C541 C 0.05067 0.13632 0.89753 0.0
C542 C 0.02961 0.16783 0.94795 0.0
C543 C 0.04286 0.17987 0.92196 0.0
H544 H 0.95623 0.85488 0.63107 0.0
H545 H 0.89286 0.83735 0.56323 0.0
H546 H 0.8664 0.81801 0.6072 0.0
H547 H 0.86484 0.79933 0.66205 0.0
H548 H 0.93005 0.81262 0.7287 0.0
H549 H 0.95192 0.84111 0.68841 0.0
C550 C 0.93636 0.84741 0.62611 0.0
C551 C 0.92659 0.84718 0.59395 0.0
C552 C 0.92171 0.8354 0.65127 0.0
C553 C 0.90087 0.83745 0.58777 0.0
C554 C 0.88577 0.82636 0.61287 0.0
C555 C 0.88352 0.80899 0.66811 0.0
C556 C 0.89606 0.80354 0.69806 0.0
C557 C 0.89651 0.8242 0.64434 0.0
C558 C 0.92011 0.81639 0.7057 0.0
C559 C 0.93272 0.83248 0.68256 0.0
H560 H 0.9416 0.11566 0.39529 0.0
H561 H 0.93508 0.1827 0.46066 0.0
H562 H 0.9024 0.20353 0.42425 0.0
H563 H 0.8801 0.20494 0.37089 0.0
H564 H 0.88926 0.13907 0.30419 0.0
H565 H 0.91631 0.11527 0.34437 0.0
C566 C 0.93274 0.13466 0.40185 0.0
C567 C 0.94091 0.14779 0.43042 0.0
C568 C 0.91459 0.14674 0.38047 0.0
C569 C 0.92916 0.17228 0.4387 0.0
C570 C 0.91058 0.18422 0.41785 0.0
C571 C 0.88759 0.18515 0.36541 0.0
C572 C 0.88289 0.1738 0.33458 0.0
C573 C 0.90378 0.17198 0.38822 0.0
C574 C 0.89275 0.14823 0.32772 0.0
C575 C 0.90828 0.13468 0.35062 0.0
H576 H 0.54925 0.1222 0.13717 0.0
H577 H 0.6218 0.13946 0.08474 0.0
H578 H 0.63835 0.16505 0.13112 0.0
H579 H 0.62795 0.18988 0.18066 0.0
H580 H 0.55324 0.17691 0.23028 0.0
H581 H 0.54201 0.14169 0.19143 0.0
C582 C 0.56904 0.13088 0.13631 0.0
C583 C 0.58417 0.12936 0.10746 0.0
C584 C 0.57781 0.14663 0.16242 0.0
C585 C 0.60973 0.14064 0.1066 0.0
C586 C 0.61911 0.15537 0.13304 0.0
C587 C 0.60951 0.17886 0.1835 0.0
C588 C 0.59116 0.18631 0.20779 0.0
C589 C 0.60268 0.15967 0.16023 0.0
C590 C 0.56757 0.17164 0.21159 0.0
C591 C 0.56106 0.15168 0.18919 0.0
H592 H 0.54023 0.81515 0.94282 0.0
H593 H 0.51437 0.88055 0.88207 0.0
H594 H 0.54406 0.86594 0.83872 0.0
H595 H 0.57374 0.83206 0.81574 0.0
H596 H 0.60005 0.76653 0.87579 0.0
H597 H 0.57423 0.78387 0.9217 0.0
C598 C 0.54145 0.8264 0.92029 0.0
C599 C 0.52486 0.84867 0.91555 0.0
C600 C 0.55855 0.81779 0.89519 0.0
C601 C 0.52675 0.86317 0.88628 0.0
C602 C 0.54371 0.85482 0.86138 0.0
C603 C 0.57418 0.82184 0.83905 0.0
C604 C 0.58854 0.79798 0.8423 0.0
C605 C 0.55914 0.83178 0.86522 0.0
C606 C 0.58911 0.78499 0.87268 0.0
C607 C 0.57422 0.7948 0.89891 0.0
H608 H 0.89092 0.17327 0.80123 0.0
H609 H 0.96387 0.21869 0.80472 0.0
H610 H 0.97683 0.19591 0.85487 0.0
H611 H 0.96429 0.1682 0.90147 0.0
H612 H 0.89153 0.12269 0.89872 0.0
H613 H 0.88127 0.14079 0.84451 0.0
C614 C 0.91 0.17765 0.81246 0.0
C615 C 0.92623 0.19792 0.79962 0.0
C616 C 0.91688 0.16514 0.84186 0.0
C617 C 0.95098 0.20326 0.81426 0.0
C618 C 0.95824 0.1905 0.84314 0.0
C619 C 0.94615 0.16231 0.88896 0.0
C620 C 0.92818 0.1449 0.90419 0.0
C621 C 0.94074 0.17239 0.85787 0.0
C622 C 0.90529 0.13653 0.88749 0.0
C623 C 0.89955 0.14675 0.85655 0.0
H624 H 0.55094 0.16852 0.69929 0.0
H625 H 0.62351 0.16169 0.64355 0.0
H626 H 0.5979 0.14799 0.5955 0.0
H627 H 0.55412 0.14155 0.56834 0.0
H628 H 0.48221 0.14723 0.62576 0.0
H629 H 0.50823 0.15815 0.67406 0.0
C630 C 0.56116 0.16354 0.67677 0.0
C631 C 0.58893 0.16616 0.67478 0.0
C632 C 0.54637 0.15602 0.6494 0.0
C633 C 0.60208 0.15957 0.64563 0.0
C634 C 0.58743 0.15206 0.61808 0.0
C635 C 0.54431 0.14525 0.59147 0.0
C636 C 0.51639 0.144 0.59355 0.0
C637 C 0.55947 0.15092 0.61946 0.0
C638 C 0.50374 0.14825 0.62366 0.0
C639 C 0.51856 0.15441 0.65129 0.0
H640 H 0.58428 0.81357 0.2975 0.0
H641 H 0.64539 0.77351 0.35338 0.0
H642 H 0.63866 0.80424 0.39842 0.0
H643 H 0.61063 0.83758 0.42516 0.0
H644 H 0.54895 0.87754 0.37035 0.0
H645 H 0.56118 0.85241 0.32159 0.0
C646 C 0.59645 0.81196 0.31928 0.0
C647 C 0.61483 0.79094 0.32237 0.0
C648 C 0.59232 0.82962 0.34543 0.0
C649 C 0.63074 0.78925 0.35058 0.0
C650 C 0.62694 0.80682 0.37642 0.0
C651 C 0.60036 0.84131 0.40231 0.0
C652 C 0.57867 0.85899 0.40148 0.0
C653 C 0.60706 0.82637 0.37461 0.0
C654 C 0.56568 0.86388 0.37165 0.0
C655 C 0.57249 0.84933 0.3438 0.0
H656 H 0.8743 0.81297 0.1347 0.0
H657 H 0.91925 0.86155 0.20155 0.0
H658 H 0.94338 0.88163 0.15588 0.0
H659 H 0.95648 0.87977 0.09869 0.0
H660 H 0.91635 0.8262 0.03281 0.0
H661 H 0.88515 0.8138 0.0762 0.0
C662 C 0.88879 0.82859 0.13906 0.0
C663 C 0.89496 0.83607 0.17121 0.0
C664 C 0.90366 0.83872 0.1129 0.0
C665 C 0.91419 0.85573 0.17687 0.0
C666 C 0.92805 0.86702 0.15083 0.0
C667 C 0.94053 0.86583 0.09356 0.0
C668 C 0.93876 0.85377 0.06269 0.0
C669 C 0.9237 0.85785 0.11895 0.0
C670 C 0.91812 0.83564 0.05646 0.0
C671 C 0.90039 0.82849 0.08128 0.0
H672 H 0.52919 0.65483 0.89422 0.0
H673 H 0.60774 0.62526 0.91719 0.0
H674 H 0.62492 0.64382 0.86578 0.0
H675 H 0.61809 0.67309 0.81811 0.0
H676 H 0.53893 0.70206 0.79596 0.0
H677 H 0.5211 0.67802 0.84278 0.0
C678 C 0.55007 0.65238 0.88782 0.0
C679 C 0.5675 0.63954 0.90954 0.0
C680 C 0.55949 0.66266 0.85835 0.0
C681 C 0.59423 0.63556 0.90083 0.0
C682 C 0.60394 0.64608 0.87153 0.0
C683 C 0.59683 0.67356 0.82302 0.0
C684 C 0.57989 0.68969 0.80396 0.0
C685 C 0.58685 0.66029 0.85054 0.0
C686 C 0.55238 0.68996 0.81044 0.0
C687 C 0.54223 0.67645 0.83738 0.0
H688 H 0.57929 0.30429 0.13557 0.0
H689 H 0.51178 0.26778 0.18301 0.0
H690 H 0.48431 0.27592 0.13492 0.0
H691 H 0.4787 0.29564 0.08084 0.0
H692 H 0.5453 0.3341 0.03394 0.0
H693 H 0.57411 0.32229 0.07996 0.0
C694 C 0.55855 0.29819 0.13537 0.0
C695 C 0.54751 0.28576 0.16297 0.0
C696 C 0.54282 0.30294 0.10757 0.0
C697 C 0.5207 0.27765 0.16222 0.0
C698 C 0.50499 0.28216 0.13466 0.0
C699 C 0.49967 0.30091 0.0803 0.0
C700 C 0.50991 0.31562 0.05396 0.0
C701 C 0.51578 0.29496 0.10732 0.0
C702 C 0.53702 0.32264 0.05388 0.0
C703 C 0.55341 0.31612 0.08032 0.0
H704 H 0.86458 0.30294 0.32581 0.0
H705 H 0.9374 0.26931 0.28727 0.0
H706 H 0.96322 0.29251 0.32874 0.0
H707 H 0.96462 0.3179 0.37944 0.0
H708 H 0.8925 0.35222 0.41853 0.0
H709 H 0.86674 0.33313 0.37332 0.0
C710 C 0.88615 0.30122 0.32604 0.0
C711 C 0.89905 0.28421 0.30376 0.0
C712 C 0.90088 0.31426 0.35039 0.0
C713 C 0.927 0.28216 0.30428 0.0
C714 C 0.94177 0.29527 0.32812 0.0
C715 C 0.94326 0.32128 0.37796 0.0
C716 C 0.93027 0.33587 0.40247 0.0
C717 C 0.92882 0.31054 0.35193 0.0
C718 C 0.90277 0.34076 0.39999 0.0
C719 C 0.88811 0.32988 0.37419 0.0
H720 H 0.94157 0.72428 0.65794 0.0
H721 H 0.88406 0.66058 0.66012 0.0
H722 H 0.90576 0.63969 0.61304 0.0
H723 H 0.94315 0.63802 0.57412 0.0
H724 H 0.00039 0.7021 0.57242 0.0
H725 H 0.97631 0.72474 0.61607 0.0
C726 C 0.93378 0.70583 0.64808 0.0
C727 C 0.9116 0.69367 0.66273 0.0
C728 C 0.94616 0.69416 0.62101 0.0
C729 C 0.9013 0.67011 0.64936 0.0
C730 C 0.91367 0.65822 0.62246 0.0
C731 C 0.95004 0.65719 0.58288 0.0
C732 C 0.97361 0.66828 0.57025 0.0
C733 C 0.93636 0.66988 0.60841 0.0
C734 C 0.98232 0.69312 0.5818 0.0
C735 C 0.96868 0.70599 0.60692 0.0
H736 H 0.60114 0.31142 0.56394 0.0
H737 H 0.57393 0.37336 0.62865 0.0
H738 H 0.58973 0.34787 0.6758 0.0
H739 H 0.60609 0.30502 0.69871 0.0
H740 H 0.63441 0.24423 0.6327 0.0
H741 H 0.62349 0.27213 0.58619 0.0
C742 C 0.59936 0.31961 0.58833 0.0
C743 C 0.58634 0.34404 0.59293 0.0
C744 C 0.60826 0.30481 0.61519 0.0
C745 C 0.58414 0.35461 0.62455 0.0
C746 C 0.59286 0.33989 0.65154 0.0
C747 C 0.61014 0.29813 0.67414 0.0
C748 C 0.62064 0.27247 0.66918 0.0
C749 C 0.60409 0.3145 0.64721 0.0
C750 C 0.62618 0.26386 0.63724 0.0
C751 C 0.61993 0.27978 0.61053 0.0
H752 H 0.94596 0.32087 0.94215 0.0
H753 H 0.97567 0.38569 0.88342 0.0
H754 H 0.94811 0.37148 0.83785 0.0
H755 H 0.92022 0.33744 0.81238 0.0
H756 H 0.89048 0.27227 0.87033 0.0
H757 H 0.91295 0.29002 0.91848 0.0
C758 C 0.94596 0.33215 0.91959 0.0
C759 C 0.96314 0.35401 0.91601 0.0
C760 C 0.93021 0.3237 0.89319 0.0
C761 C 0.96285 0.36857 0.8867 0.0
C762 C 0.94713 0.36045 0.86054 0.0
C763 C 0.91824 0.32743 0.8357 0.0
C764 C 0.90405 0.30346 0.83773 0.0
C765 C 0.93145 0.33754 0.86315 0.0
C766 C 0.90141 0.29077 0.86813 0.0
C767 C 0.91438 0.30081 0.89565 0.0
H768 H 0.93798 0.64495 0.11554 0.0
H769 H 0.91722 0.69932 0.03813 0.0
H770 H 0.89792 0.73026 0.07766 0.0
H771 H 0.8898 0.74304 0.13388 0.0
H772 H 0.91345 0.69103 0.21256 0.0
H773 H 0.92914 0.65787 0.17288 0.0
C774 C 0.92869 0.66334 0.10746 0.0
C775 C 0.92858 0.66987 0.07413 0.0
C776 C 0.91867 0.68151 0.13048 0.0
C777 C 0.91723 0.69396 0.06373 0.0
C778 C 0.90638 0.71165 0.08628 0.0
C779 C 0.89825 0.72439 0.14245 0.0
C780 C 0.90049 0.71942 0.17605 0.0
C781 C 0.90748 0.70584 0.11968 0.0
C782 C 0.91164 0.69528 0.18676 0.0
C783 C 0.9205 0.67634 0.1641 0.0
H784 H 0.53732 0.68407 0.29823 0.0
H785 H 0.60684 0.67283 0.35854 0.0
H786 H 0.57901 0.65325 0.4016 0.0
H787 H 0.53406 0.64089 0.42262 0.0
H788 H 0.46577 0.65042 0.35956 0.0
H789 H 0.49386 0.66941 0.31717 0.0
C790 C 0.54641 0.67713 0.32072 0.0
C791 C 0.57394 0.67993 0.32541 0.0
C792 C 0.53043 0.66589 0.34498 0.0
C793 C 0.58561 0.67067 0.35443 0.0
C794 C 0.56969 0.65971 0.37909 0.0
C795 C 0.5255 0.64725 0.3996 0.0
C796 C 0.49798 0.64452 0.39417 0.0
C797 C 0.54197 0.65754 0.3748 0.0
C798 C 0.48698 0.65236 0.36416 0.0
C799 C 0.50298 0.6632 0.33992 0.0
H800 H 0.44169 0.35865 0.11678 0.0
H801 H 0.36988 0.34219 0.06246 0.0
H802 H 0.35073 0.31997 0.10998 0.0
H803 H 0.35815 0.29791 0.16227 0.0
H804 H 0.43199 0.30996 0.2142 0.0
H805 H 0.44646 0.34174 0.17263 0.0
C806 C 0.42152 0.35091 0.11568 0.0
C807 C 0.40727 0.35172 0.08613 0.0
C808 C 0.41123 0.33704 0.14253 0.0
C809 C 0.38125 0.34157 0.08492 0.0
C810 C 0.37038 0.32876 0.11201 0.0
C811 C 0.37714 0.30799 0.16493 0.0
C812 C 0.39422 0.30127 0.19088 0.0
C813 C 0.38575 0.32521 0.14028 0.0
C814 C 0.41859 0.31469 0.19429 0.0
C815 C 0.42693 0.3327 0.1704 0.0
H816 H 0.48896 0.61903 0.88644 0.0
H817 H 0.43414 0.6463 0.96033 0.0
H818 H 0.40428 0.66378 0.91781 0.0
H819 H 0.39535 0.67336 0.85964 0.0
H820 H 0.45333 0.65039 0.78715 0.0
H821 H 0.48058 0.62901 0.8292 0.0
C822 C 0.47027 0.62846 0.89326 0.0
C823 C 0.46347 0.6311 0.92636 0.0
C824 C 0.45397 0.63929 0.86894 0.0
C825 C 0.4396 0.64393 0.93494 0.0
C826 C 0.42263 0.65393 0.91067 0.0
C827 C 0.41376 0.66329 0.85311 0.0
C828 C 0.42228 0.66307 0.82043 0.0
C829 C 0.42979 0.65197 0.8776 0.0
C830 C 0.44642 0.65061 0.81218 0.0
C831 C 0.46196 0.63844 0.83617 0.0
H832 H 0.13526 0.66912 0.67784 0.0
H833 H 0.06333 0.66238 0.73499 0.0
H834 H 0.04377 0.63358 0.69332 0.0
H835 H 0.04378 0.61887 0.63625 0.0
H836 H 0.11383 0.63072 0.57691 0.0
H837 H 0.13764 0.64879 0.62391 0.0
C838 C 0.11557 0.66077 0.68163 0.0
C839 C 0.10051 0.66829 0.70908 0.0
C840 C 0.10396 0.64557 0.65682 0.0
C841 C 0.0752 0.65706 0.7139 0.0
C842 C 0.06393 0.64081 0.68992 0.0
C843 C 0.06449 0.62475 0.63383 0.0
C844 C 0.07696 0.62391 0.60311 0.0
C845 C 0.07758 0.63623 0.66054 0.0
C846 C 0.10377 0.6315 0.60027 0.0
C847 C 0.11733 0.6419 0.6271 0.0
H848 H 0.02837 0.3748 0.38182 0.0
H849 H 0.06929 0.33101 0.45736 0.0
H850 H 0.10177 0.31473 0.4174 0.0
H851 H 0.11408 0.30769 0.35988 0.0
H852 H 0.06914 0.3471 0.28423 0.0
H853 H 0.04284 0.37077 0.32529 0.0
C854 C 0.04475 0.36218 0.3897 0.0
C855 C 0.0464 0.35395 0.42239 0.0
C856 C 0.06245 0.35197 0.36643 0.0
C857 C 0.0676 0.33748 0.43225 0.0
C858 C 0.08607 0.32811 0.4094 0.0
C859 C 0.09901 0.32204 0.35253 0.0
C860 C 0.09346 0.32582 0.31927 0.0
C861 C 0.08309 0.33445 0.37625 0.0
C862 C 0.07363 0.34399 0.3098 0.0
C863 C 0.05857 0.35739 0.33322 0.0
H864 H 0.37179 0.67813 0.42792 0.0
H865 H 0.40279 0.62255 0.35735 0.0
H866 H 0.39076 0.65291 0.313 0.0
H867 H 0.37765 0.69838 0.29539 0.0
H868 H 0.34606 0.75307 0.36698 0.0
H869 H 0.35195 0.72001 0.40959 0.0
C870 C 0.37513 0.67236 0.40274 0.0
C871 C 0.38826 0.64835 0.39585 0.0
C872 C 0.36855 0.69002 0.37754 0.0
C873 C 0.39248 0.64093 0.3632 0.0
C874 C 0.38594 0.65844 0.33786 0.0
C875 C 0.37171 0.70283 0.32023 0.0
C876 C 0.36195 0.7283 0.32807 0.0
C877 C 0.37499 0.68355 0.34487 0.0
C878 C 0.35392 0.73371 0.36028 0.0
C879 C 0.35726 0.71482 0.38477 0.0
H880 H 0.06061 0.66333 0.05208 0.0
H881 H 0.024 0.60106 0.10905 0.0
H882 H 0.05204 0.61218 0.15547 0.0
H883 H 0.08144 0.64406 0.18246 0.0
H884 H 0.11762 0.70704 0.1264 0.0
H885 H 0.0958 0.69086 0.07704 0.0
C886 C 0.05926 0.65184 0.07441 0.0
C887 C 0.03991 0.63182 0.07737 0.0
C888 C 0.07519 0.65861 0.10134 0.0
C889 C 0.03847 0.61689 0.10634 0.0
C890 C 0.05447 0.62323 0.13297 0.0
C891 C 0.08505 0.65384 0.15928 0.0
C892 C 0.10068 0.67692 0.15814 0.0
C893 C 0.07206 0.64476 0.13117 0.0
C894 C 0.10548 0.68927 0.12793 0.0
C895 C 0.09286 0.68015 0.09971 0.0
H896 H 0.11483 0.25588 0.85809 0.0
H897 H 0.07305 0.29794 0.78175 0.0
H898 H 0.06207 0.33384 0.81999 0.0
H899 H 0.05934 0.34992 0.87672 0.0
H900 H 0.09631 0.30435 0.95356 0.0
H901 H 0.11474 0.27327 0.91348 0.0
C902 C 0.10373 0.27313 0.84962 0.0
C903 C 0.0946 0.27426 0.81726 0.0
C904 C 0.09663 0.29297 0.87193 0.0
C905 C 0.08014 0.29663 0.80665 0.0
C906 C 0.07384 0.31709 0.82849 0.0
C907 C 0.0721 0.3336 0.88442 0.0
C908 C 0.0768 0.32936 0.91777 0.0
C909 C 0.0813 0.31504 0.86141 0.0
C910 C 0.0927 0.30789 0.92787 0.0
C911 C 0.10304 0.29011 0.90503 0.0
H912 H 0.43791 0.35636 0.56586 0.0
H913 H 0.50179 0.35898 0.63633 0.0
H914 H 0.47098 0.34685 0.67971 0.0
H915 H 0.42698 0.3315 0.69674 0.0
H916 H 0.36224 0.32997 0.62766 0.0
H917 H 0.392 0.3464 0.58476 0.0
C918 C 0.44492 0.3544 0.59077 0.0
C919 C 0.47205 0.35812 0.5979 0.0
C920 C 0.42695 0.34785 0.61582 0.0
C921 C 0.48096 0.35606 0.63028 0.0
C922 C 0.46339 0.34914 0.65512 0.0
C923 C 0.41929 0.33538 0.67245 0.0
C924 C 0.39266 0.32947 0.66517 0.0
C925 C 0.43649 0.34451 0.64806 0.0
C926 C 0.38273 0.33463 0.63377 0.0
C927 C 0.3998 0.34369 0.60919 0.0
H928 H 0.28906 0.20971 0.21752 0.0
H929 H 0.30871 0.26571 0.29363 0.0
H930 H 0.26178 0.27783 0.29905 0.0
H931 H 0.21553 0.27387 0.28079 0.0
H932 H 0.19525 0.21742 0.20556 0.0
H933 H 0.24216 0.20419 0.201 0.0
C934 C 0.28301 0.22436 0.2355 0.0
C935 C 0.30231 0.23685 0.25507 0.0
C936 C 0.25598 0.23135 0.23839 0.0
C937 C 0.29422 0.2558 0.27828 0.0
C938 C 0.26742 0.26284 0.28131 0.0
C939 C 0.22139 0.25872 0.26333 0.0
C940 C 0.2021 0.24681 0.24329 0.0
C941 C 0.24821 0.25102 0.26119 0.0
C942 C 0.20985 0.22694 0.22113 0.0
C943 C 0.23662 0.21935 0.21856 0.0
H944 H 0.96213 0.95217 0.5237 0.0
H945 H 0.03418 0.93104 0.47218 0.0
H946 H 0.04351 0.97822 0.46238 0.0
H947 H 0.03101 0.02547 0.46867 0.0
H948 H 0.95884 0.04591 0.52052 0.0
H949 H 0.94976 -0.00111 0.53003 0.0
C950 C 0.97987 0.95787 0.51028 0.0
C951 C -0.00257 0.93823 0.49864 0.0
C952 C 0.98509 0.98487 0.50486 0.0
C953 C 0.02036 0.94587 0.48136 0.0
C954 C 0.02569 0.9728 0.47578 0.0
C955 C 0.01332 0.01959 0.48206 0.0
C956 C -0.00437 0.03909 0.49387 0.0
C957 C 0.00819 0.99248 0.48745 0.0
C958 C 0.97278 0.03125 0.51118 0.0
C959 C 0.96755 0.00438 0.51663 0.0
H960 H 0.29613 0.75292 0.73114 0.0
H961 H 0.29205 0.67099 0.76268 0.0
H962 H 0.24369 0.67459 0.76805 0.0
H963 H 0.20286 0.70114 0.76495 0.0
H964 H 0.20633 0.78289 0.73281 0.0
H965 H 0.25483 0.77935 0.72687 0.0
C966 C 0.2846 0.73579 0.73889 0.0
C967 C 0.2976 0.71171 0.74646 0.0
C968 C 0.25683 0.73808 0.74222 0.0
C969 C 0.28248 0.68972 0.75663 0.0
C970 C 0.25486 0.6918 0.75986 0.0
C971 C 0.21424 0.71826 0.75686 0.0
C972 C 0.20114 0.74231 0.74959 0.0
C973 C 0.2419 0.71594 0.75305 0.0
C974 C 0.21606 0.76421 0.73873 0.0
C975 C 0.24372 0.76216 0.73522 0.0
H976 H 0.48075 0.04368 0.99531 0.0
H977 H 0.5601 0.0217 0.02638 0.0
H978 H 0.54828 0.97469 0.0236 0.0
H979 H 0.51576 0.93988 0.01186 0.0
H980 H 0.4364 0.96123 0.98037 0.0
H981 H 0.44777 0.00851 0.98418 0.0
C982 C 0.49544 0.02857 0.00135 0.0
C983 C 0.52127 0.03612 0.01089 0.0
C984 C 0.48847 0.00153 -0.00013 0.0
C985 C 0.54009 0.01638 0.01887 0.0
C986 C 0.53335 0.9895 0.01737 0.0
C987 C 0.50087 0.95487 0.00605 0.0
C988 C 0.47529 0.94712 0.9959 0.0
C989 C 0.50763 0.98186 0.00792 0.0
C990 C 0.45624 0.96674 0.98832 0.0
C991 C 0.46275 -0.00625 0.99038 0.0
H992 H 0.18679 0.78127 0.26486 0.0
H993 H 0.20589 0.70076 0.23582 0.0
H994 H 0.25293 0.7123 0.23201 0.0
H995 H 0.28846 0.74487 0.23688 0.0
H996 H 0.27069 0.82501 0.26816 0.0
H997 H 0.22305 0.81413 0.2706 0.0
C998 C 0.20131 0.76625 0.25793 0.0
C999 C 0.19293 0.7402 0.2507 0.0
C1000 C 0.2284 0.77302 0.25576 0.0
C1001 C 0.21188 0.72093 0.24164 0.0
C1002 C 0.23875 0.72752 0.23928 0.0
C1003 C 0.27416 0.7601 0.24386 0.0
C1004 C 0.28295 0.78577 0.25202 0.0
C1005 C 0.24717 0.7535 0.24609 0.0
C1006 C 0.26427 0.80515 0.26154 0.0
C1007 C 0.23713 0.79889 0.26312 0.0
H1008 H 0.54344 0.96799 0.47913 0.0
H1009 H 0.47541 0.93817 0.53216 0.0
H1010 H 0.45712 0.98318 0.536 0.0
H1011 H 0.46015 0.03085 0.5236 0.0
H1012 H 0.52859 0.06083 0.47159 0.0
H1013 H 0.54689 0.01578 0.46763 0.0
C1014 C 0.52473 0.97139 0.49175 0.0
C1015 C 0.51081 0.94986 0.50537 0.0
C1016 C 0.51425 -0.00276 0.49369 0.0
C1017 C 0.48654 0.95449 0.52157 0.0
C1018 C 0.47599 0.98017 0.52363 0.0
C1019 C 0.47895 0.02745 0.51117 0.0
C1020 C 0.49293 0.04898 0.49769 0.0
C1021 C 0.48957 0.00164 0.50953 0.0
C1022 C 0.51745 0.04446 0.48204 0.0
C1023 C 0.52796 0.01877 0.47988 0.0
H1024 H 0.17395 0.25639 0.72809 0.0
H1025 H 0.19392 0.17655 0.75871 0.0
H1026 H 0.24138 0.18765 0.75737 0.0
H1027 H 0.27688 0.22033 0.74888 0.0
H1028 H 0.25687 0.30053 0.71961 0.0
H1029 H 0.20949 0.28909 0.71953 0.0
C1030 C 0.18872 0.24133 0.73408 0.0
C1031 C 0.18056 0.21565 0.74327 0.0
C1032 C 0.21582 0.24803 0.73399 0.0
C1033 C 0.19981 0.19642 0.75142 0.0
C1034 C 0.22689 0.20279 0.75082 0.0
C1035 C 0.26214 0.23536 0.74266 0.0
C1036 C 0.27029 0.26126 0.7344 0.0
C1037 C 0.23506 0.22861 0.7425 0.0
C1038 C 0.25103 0.28049 0.72624 0.0
C1039 C 0.22399 0.27393 0.72602 0.0
H1040 H 0.00608 0.03498 0.01367 0.0
H1041 H 0.92618 0.02413 0.97685 0.0
H1042 H 0.9349 0.97677 0.96872 0.0
H1043 H 0.96489 0.93854 0.97249 0.0
H1044 H 0.04459 0.94867 0.01015 0.0
H1045 H 0.03653 -0.00353 0.01673 0.0
C1046 C 0.99052 0.02216 0.00421 0.0
C1047 C 0.96547 0.03291 0.99613 0.0
C1048 C -0.00421 -0.00499 -0.00083 0.0
C1049 C 0.94558 0.01622 0.98344 0.0
C1050 C 0.95059 0.98921 0.97858 0.0
C1051 C 0.98066 0.95126 0.98166 0.0
C1052 C 0.00533 0.94019 0.99066 0.0
C1053 C 0.97564 0.97844 0.98619 0.0
C1054 C 0.02547 0.95684 0.00286 0.0
C1055 C 0.0208 0.98409 0.00689 0.0
H1056 H 0.78454 0.71521 0.71988 0.0
H1057 H 0.80021 0.77024 0.79835 0.0
H1058 H 0.75245 0.77936 0.80354 0.0
H1059 H 0.70636 0.77195 0.78534 0.0
H1060 H 0.69091 0.71668 0.70705 0.0
H1061 H 0.73861 0.70755 0.70202 0.0
C1062 C 0.7775 0.72911 0.73823 0.0
C1063 C 0.79582 0.74201 0.75873 0.0
C1064 C 0.75013 0.73435 0.74092 0.0
C1065 C 0.78645 0.76002 0.78233 0.0
C1066 C 0.75918 0.7653 0.78524 0.0
C1067 C 0.71347 0.75802 0.76708 0.0
C1068 C 0.69521 0.74508 0.74651 0.0
C1069 C 0.74087 0.75268 0.76454 0.0
C1070 C 0.70462 0.72692 0.72312 0.0
C1071 C 0.73186 0.72165 0.72028 0.0
H1072 H 0.67843 0.23248 0.28126 0.0
H1073 H 0.68373 0.3002 0.21685 0.0
H1074 H 0.7323 0.29483 0.21422 0.0
H1075 H 0.77307 0.26964 0.22886 0.0
H1076 H 0.76647 0.20097 0.29173 0.0
H1077 H 0.71853 0.20786 0.29608 0.0
C1078 C 0.69021 0.24627 0.2669 0.0
C1079 C 0.67757 0.26676 0.24938 0.0
C1080 C 0.71786 0.24269 0.26493 0.0
C1081 C 0.69307 0.28431 0.23066 0.0
C1082 C 0.7208 0.28117 0.22903 0.0
C1083 C 0.76108 0.2562 0.24344 0.0
C1084 C 0.77328 0.23477 0.25983 0.0
C1085 C 0.73337 0.2602 0.24576 0.0
C1086 C 0.75756 0.21753 0.27872 0.0
C1087 C 0.73014 0.2215 0.28134 0.0
H1088 H 0.72166 0.19641 0.72816 0.0
H1089 H 0.70085 0.26014 0.79409 0.0
H1090 H 0.74755 0.27362 0.79707 0.0
H1091 H 0.79381 0.26846 0.77911 0.0
H1092 H 0.81464 0.20541 0.7122 0.0
H1093 H 0.76825 0.19061 0.71115 0.0
C1094 C 0.72743 0.21302 0.7435 0.0
C1095 C 0.70796 0.22726 0.76092 0.0
C1096 C 0.75418 0.22099 0.74454 0.0
C1097 C 0.71557 0.24889 0.78048 0.0
C1098 C 0.74221 0.25667 0.78208 0.0
C1099 C 0.78818 0.25153 0.76422 0.0
C1100 C 0.8075 0.23815 0.74559 0.0
C1101 C 0.76158 0.24312 0.76382 0.0
C1102 C 0.80002 0.21612 0.7266 0.0
C1103 C 0.77356 0.20759 0.72609 0.0
H1104 H 0.77938 0.78277 0.21728 0.0
H1105 H 0.8037 0.72026 0.28314 0.0
H1106 H 0.75785 0.70356 0.28502 0.0
H1107 H 0.7106 0.70789 0.2692 0.0
H1108 H 0.68708 0.77029 0.20258 0.0
H1109 H 0.73308 0.78557 0.19921 0.0
C1110 C 0.77461 0.76556 0.23217 0.0
C1111 C 0.79468 0.75295 0.2504 0.0
C1112 C 0.74847 0.7559 0.23269 0.0
C1113 C 0.78842 0.73039 0.26911 0.0
C1114 C 0.76229 0.7208 0.27009 0.0
C1115 C 0.71565 0.72457 0.25358 0.0
C1116 C 0.69551 0.738 0.23626 0.0
C1117 C 0.74213 0.73348 0.25205 0.0
C1118 C 0.70226 0.75965 0.2162 0.0
C1119 C 0.72851 0.7685 0.21438 0.0
H1120 H 0.45528 0.4524 0.02717 0.0
H1121 H 0.51448 0.42564 0.95808 0.0
H1122 H 0.53378 0.47033 0.95654 0.0
H1123 H 0.53308 0.51717 0.97399 0.0
H1124 H 0.47351 0.5437 0.04278 0.0
H1125 H 0.45532 0.4987 0.04569 0.0
C1126 C 0.47235 0.45636 0.01167 0.0
C1127 C 0.48333 0.43587 0.99256 0.0
C1128 C 0.4834 0.48195 0.01111 0.0
C1129 C 0.5056 0.44119 0.97286 0.0
C1130 C 0.51668 0.46668 0.97206 0.0
C1131 C 0.51631 0.51301 0.9899 0.0
C1132 C 0.50464 0.53367 0.00816 0.0
C1133 C 0.5057 0.48721 0.99105 0.0
C1134 C 0.48284 0.52809 0.02851 0.0
C1135 C 0.47236 0.50242 0.03007 0.0
H1136 H 0.96135 0.45867 0.47121 0.0
H1137 H 0.01779 0.43249 0.54412 0.0
H1138 H 0.03017 0.47855 0.55503 0.0
H1139 H 0.02682 0.52579 0.54183 0.0
H1140 H 0.97081 0.5526 0.4689 0.0
H1141 H 0.95634 0.50662 0.45995 0.0
C1142 C 0.97615 0.4631 0.48972 0.0
C1143 C 0.98875 0.44227 0.50673 0.0
C1144 C 0.9834 0.48963 0.49562 0.0
C1145 C 0.00787 0.44822 0.53065 0.0
C1146 C 0.01503 0.47452 0.53684 0.0
C1147 C 0.01141 0.52159 0.52399 0.0
C1148 C 6e-05 0.54242 0.50579 0.0
C1149 C 0.00325 0.4953 0.51908 0.0
C1150 C 0.97991 0.53679 0.48306 0.0
C1151 C 0.97165 0.51055 0.47796 0.0
H1152 H 0.97601 0.44797 0.00526 0.0
H1153 H 0.05954 0.45898 0.98373 0.0
H1154 H 0.0531 0.5072 0.98238 0.0
H1155 H 0.02376 0.54601 0.98685 0.0
H1156 H 0.94029 0.53533 0.00881 0.0
H1157 H 0.94658 0.487 0.00991 0.0
C1158 C 0.99284 0.46095 0.00057 0.0
C1159 C 0.01823 0.45 0.99475 0.0
C1160 C 0.98892 0.48859 -0.00055 0.0
C1161 C 0.03982 0.46699 0.98842 0.0
C1162 C 0.03613 0.49452 0.98748 0.0
C1163 C 0.00688 0.5331 0.99157 0.0
C1164 C 0.98157 0.54414 0.99755 0.0
C1165 C 0.01075 0.50549 0.99271 0.0
C1166 C 0.95994 0.52723 0.00397 0.0
C1167 C 0.96356 0.49964 0.00477 0.0
H1168 H 0.47162 0.44077 0.48939 0.0
H1169 H 0.55225 0.46596 0.50922 0.0
H1170 H 0.53968 0.5122 0.49802 0.0
H1171 H 0.50539 0.54544 0.48434 0.0
H1172 H 0.42477 0.51998 0.46486 0.0
H1173 H 0.43776 0.47368 0.47426 0.0
C1174 C 0.48649 0.45635 0.4911 0.0
C1175 C 0.51279 0.45003 0.50019 0.0
C1176 C 0.4791 0.48277 0.48487 0.0
C1177 C 0.53186 0.47038 0.50226 0.0
C1178 C 0.52468 0.49679 0.49594 0.0
C1179 C 0.49068 0.52974 0.48211 0.0
C1180 C 0.46414 0.53607 0.47409 0.0
C1181 C 0.49829 0.50322 0.48754 0.0
C1182 C 0.44531 0.51557 0.4711 0.0
C1183 C 0.45272 0.48913 0.47646 0.0
H1184 H 0.08438 0.35399 0.0705 0.0
H1185 H 0.00871 0.31367 0.07734 0.0
H1186 H 0.024 0.29031 0.12641 0.0
H1187 H 0.05924 0.28122 0.1672 0.0
H1188 H 0.13458 0.32217 0.15962 0.0
H1189 H 0.11912 0.34519 0.11079 0.0
C1190 C 0.07113 0.3402 0.08279 0.0
C1191 C 0.04542 0.33563 0.07036 0.0
C1192 C 0.08011 0.32677 0.1107 0.0
C1193 C 0.02857 0.31762 0.08652 0.0
C1194 C 0.03734 0.30419 0.11449 0.0
C1195 C 0.0723 0.29504 0.15468 0.0
C1196 C 0.09806 0.2999 0.16693 0.0
C1197 C 0.06315 0.30851 0.12671 0.0
C1198 C 0.11469 0.31805 0.15066 0.0
C1199 C 0.10585 0.33128 0.12278 0.0
H1200 H 0.93895 0.78503 0.32451 0.0
H1201 H 0.8649 0.82746 0.33915 0.0
H1202 H 0.88132 0.84485 0.39087 0.0
H1203 H 0.9166 0.84833 0.43174 0.0
H1204 H 0.99106 0.80664 0.41755 0.0
H1205 H 0.97464 0.78868 0.3658 0.0
C1206 C 0.92641 0.79801 0.33911 0.0
C1207 C 0.90073 0.8049 0.32804 0.0
C1208 C 0.93606 0.80813 0.36881 0.0
C1209 C 0.88474 0.82184 0.34711 0.0
C1210 C 0.89411 0.83182 0.37669 0.0
C1211 C 0.92926 0.83532 0.41734 0.0
C1212 C 0.955 0.82882 0.42843 0.0
C1213 C 0.91973 0.82516 0.38772 0.0
C1214 C 0.97117 0.81197 0.40948 0.0
C1215 C 0.96178 0.80167 0.37993 0.0
H1216 H 0.38289 0.65165 0.66079 0.0
H1217 H 0.43028 0.72288 0.65234 0.0
H1218 H 0.4452 0.70894 0.59806 0.0
H1219 H 0.44452 0.67634 0.55278 0.0
H1220 H 0.39595 0.60585 0.56166 0.0
H1221 H 0.38185 0.61964 0.61596 0.0
C1222 C 0.3965 0.66415 0.6471 0.0
C1223 C 0.40548 0.68825 0.66059 0.0
C1224 C 0.40482 0.6561 0.61596 0.0
C1225 C 0.42303 0.70425 0.64247 0.0
C1226 C 0.4316 0.69626 0.61146 0.0
C1227 C 0.43092 0.664 0.56669 0.0
C1228 C 0.42134 0.64008 0.55321 0.0
C1229 C 0.42261 0.6722 0.59793 0.0
C1230 C 0.4036 0.62437 0.57142 0.0
C1231 C 0.39551 0.63222 0.60251 0.0
H1232 H 0.62364 0.15917 0.83576 0.0
H1233 H 0.56514 0.22221 0.83084 0.0
H1234 H 0.54499 0.20648 0.88174 0.0
H1235 H 0.54395 0.17445 0.92751 0.0
H1236 H 0.60369 0.11253 0.93268 0.0
H1237 H 0.62334 0.12812 0.88173 0.0
C1238 C 0.60649 0.16951 0.84582 0.0
C1239 C 0.59584 0.19177 0.82952 0.0
C1240 C 0.59519 0.16048 0.87508 0.0
C1241 C 0.57373 0.20505 0.84298 0.0
C1242 C 0.56217 0.19602 0.87202 0.0
C1243 C 0.56121 0.16435 0.91738 0.0
C1244 C 0.57227 0.14228 0.93375 0.0
C1245 C 0.57268 0.17368 0.88823 0.0
C1246 C 0.59479 0.12954 0.92054 0.0
C1247 C 0.60605 0.13845 0.89141 0.0
H1248 H 0.03701 0.68315 0.43398 0.0
H1249 H 0.08381 0.61117 0.42634 0.0
H1250 H 0.10259 0.62661 0.37474 0.0
H1251 H 0.1055 0.66041 0.33164 0.0
H1252 H 0.05978 0.73302 0.33997 0.0
H1253 H 0.04086 0.71756 0.39153 0.0
C1254 C 0.05129 0.67085 0.42097 0.0
C1255 C 0.05893 0.64602 0.43384 0.0
C1256 C 0.06224 0.67999 0.39151 0.0
C1257 C 0.07762 0.63037 0.4169 0.0
C1258 C 0.08835 0.63917 0.3874 0.0
C1259 C 0.09143 0.67286 0.34478 0.0
C1260 C 0.08399 0.69777 0.33201 0.0
C1261 C 0.08079 0.66392 0.37447 0.0
C1262 C 0.06585 0.71377 0.34935 0.0
C1263 C 0.05498 0.70492 0.37879 0.0
H1264 H 0.61033 0.81955 0.67249 0.0
H1265 H 0.55578 0.75352 0.66503 0.0
H1266 H 0.53772 0.77187 0.61435 0.0
H1267 H 0.53737 0.80684 0.57222 0.0
H1268 H 0.59286 0.87214 0.57915 0.0
H1269 H 0.61059 0.85393 0.62998 0.0
C1270 C 0.59449 0.80917 0.65976 0.0
C1271 C 0.58436 0.78526 0.67251 0.0
C1272 C 0.58436 0.81973 0.63056 0.0
C1273 C 0.56394 0.77196 0.65568 0.0
C1274 C 0.55358 0.78246 0.62673 0.0
C1275 C 0.55331 0.81709 0.5849 0.0
C1276 C 0.56373 0.84084 0.57201 0.0
C1277 C 0.5636 0.80636 0.61397 0.0
C1278 C 0.5845 0.85381 0.58857 0.0
C1279 C 0.59465 0.84343 0.61765 0.0
H1280 H 0.36142 0.32667 0.81981 0.0
H1281 H 0.40926 0.25528 0.81397 0.0
H1282 H 0.43197 0.26736 0.86472 0.0
H1283 H 0.4389 0.29898 0.91021 0.0
H1284 H 0.39068 0.37024 0.91513 0.0
H1285 H 0.36759 0.35748 0.86527 0.0
C1286 C 0.37671 0.31364 0.82971 0.0
C1287 C 0.38363 0.29011 0.81314 0.0
C1288 C 0.38976 0.32079 0.85867 0.0
C1289 C 0.40351 0.27349 0.8263 0.0
C1290 C 0.41657 0.28043 0.85526 0.0
C1291 C 0.42335 0.31168 0.90031 0.0
C1292 C 0.4166 0.33557 0.91632 0.0
C1293 C 0.41 0.30417 0.87154 0.0
C1294 C 0.39632 0.35178 0.90329 0.0
C1295 C 0.38306 0.34449 0.87477 0.0
H1296 H 0.85802 0.16683 0.1636 0.0
H1297 H 0.91687 0.22909 0.17049 0.0
H1298 H 0.94069 0.21057 0.12369 0.0
H1299 H 0.94551 0.17587 0.08164 0.0
H1300 H 0.88509 0.11542 0.07237 0.0
H1301 H 0.86126 0.13385 0.11934 0.0
C1302 C 0.87594 0.17644 0.15466 0.0
C1303 C 0.88572 0.19923 0.17051 0.0
C1304 C 0.88939 0.16584 0.12752 0.0
C1305 C 0.90887 0.21159 0.15859 0.0
C1306 C 0.9226 0.20092 0.13196 0.0
C1307 C 0.92718 0.16672 0.09006 0.0
C1308 C 0.91719 0.14417 0.07394 0.0
C1309 C 0.91321 0.17789 0.11645 0.0
C1310 C 0.89318 0.13275 0.08457 0.0
C1311 C 0.87955 0.14329 0.11136 0.0
H1312 H 0.92533 0.63245 0.9137 0.0
H1313 H 0.98887 0.68947 0.92468 0.0
H1314 H 0.97291 0.71371 0.87661 0.0
H1315 H 0.9397 0.71947 0.83251 0.0
H1316 H 0.8772 0.66126 0.82128 0.0
H1317 H 0.89385 0.6368 0.86849 0.0
C1318 C 0.93581 0.65008 0.90545 0.0
C1319 C 0.95816 0.65922 0.92275 0.0
C1320 C 0.92656 0.66382 0.8779 0.0
C1321 C 0.97165 0.68199 0.91167 0.0
C1322 C 0.96244 0.69593 0.88431 0.0
C1323 C 0.92976 0.70145 0.84049 0.0
C1324 C 0.90714 0.69229 0.82363 0.0
C1325 C 0.93971 0.6872 0.86745 0.0
C1326 C 0.89462 0.66874 0.83391 0.0
C1327 C 0.90412 0.65473 0.86089 0.0
H1328 H 0.08641 0.14756 0.67093 0.0
H1329 H 0.0326 0.21452 0.67771 0.0
H1330 H 0.01209 0.20195 0.62576 0.0
H1331 H 0.01053 0.17254 0.57748 0.0
H1332 H 0.06571 0.10662 0.57067 0.0
H1333 H 0.08453 0.11813 0.6236 0.0
C1334 C 0.0701 0.15934 0.66114 0.0
C1335 C 0.06104 0.18193 0.67809 0.0
C1336 C 0.05869 0.15221 0.6312 0.0
C1337 C 0.03995 0.19705 0.66506 0.0
C1338 C 0.02823 0.18988 0.63537 0.0
C1339 C 0.02657 0.16065 0.58772 0.0
C1340 C 0.03674 0.1388 0.57017 0.0
C1341 C 0.03759 0.16759 0.61808 0.0
C1342 C 0.0576 0.12361 0.58363 0.0
C1343 C 0.06838 0.13015 0.61391 0.0
H1344 H 0.56216 0.36508 0.41724 0.0
H1345 H 0.52319 0.29527 0.45545 0.0
H1346 H 0.53213 0.27139 0.40452 0.0
H1347 H 0.55207 0.27016 0.34939 0.0
H1348 H 0.58946 0.3409 0.3111 0.0
H1349 H 0.58001 0.3646 0.36168 0.0
C1350 C 0.55561 0.34464 0.41441 0.0
C1351 C 0.54222 0.33189 0.44011 0.0
C1352 C 0.56053 0.3312 0.38501 0.0
C1353 C 0.53357 0.3055 0.43598 0.0
C1354 C 0.53871 0.29184 0.4069 0.0
C1355 C 0.55804 0.29078 0.35213 0.0
C1356 C 0.57156 0.3037 0.32658 0.0
C1357 C 0.55232 0.30444 0.38129 0.0
C1358 C 0.57902 0.33048 0.33038 0.0
C1359 C 0.57368 0.34406 0.35933 0.0
H1360 H 0.41017 0.86821 0.07623 0.0
H1361 H 0.46825 0.80496 0.06925 0.0
H1362 H 0.45315 0.78695 0.12165 0.0
H1363 H 0.42282 0.78912 0.16943 0.0
H1364 H 0.36608 0.85372 0.17606 0.0
H1365 H 0.3812 0.87115 0.12389 0.0
C1366 C 0.41958 0.85049 0.08617 0.0
C1367 C 0.44023 0.83789 0.06885 0.0
C1368 C 0.41095 0.84043 0.11627 0.0
C1369 C 0.45233 0.81506 0.08217 0.0
C1370 C 0.44364 0.80472 0.11208 0.0
C1371 C 0.4138 0.80697 0.15936 0.0
C1372 C 0.3933 0.82004 0.17658 0.0
C1373 C 0.42287 0.81719 0.12933 0.0
C1374 C 0.38191 0.84328 0.16337 0.0
C1375 C 0.39053 0.85329 0.13349 0.0
H1376 H 0.91895 0.34639 0.56774 0.0
H1377 H 0.98754 0.29457 0.56112 0.0
H1378 H 0.97419 0.27217 0.61154 0.0
H1379 H 0.94344 0.26811 0.65819 0.0
H1380 H 0.87573 0.32111 0.66509 0.0
H1381 H 0.88831 0.34224 0.61382 0.0
C1382 C 0.93093 0.33012 0.57724 0.0
C1383 C 0.95417 0.32212 0.56076 0.0
C1384 C 0.92332 0.3176 0.60632 0.0
C1385 C 0.96955 0.30109 0.57342 0.0
C1386 C 0.96194 0.2883 0.60223 0.0
C1387 C 0.93142 0.28422 0.64837 0.0
C1388 C 0.90871 0.29306 0.66539 0.0
C1389 C 0.93893 0.2965 0.619 0.0
C1390 C 0.89335 0.314 0.65248 0.0
C1391 C 0.90051 0.32609 0.62316 0.0
H1392 H 0.43591 0.22298 0.33574 0.0
H1393 H 0.39354 0.15245 0.30545 0.0
H1394 H 0.40797 0.12924 0.35453 0.0
H1395 H 0.43104 0.1293 0.40694 0.0
H1396 H 0.47402 0.19916 0.43789 0.0
H1397 H 0.46116 0.22221 0.38761 0.0
C1398 C 0.42996 0.20251 0.33988 0.0
C1399 C 0.41354 0.18953 0.31708 0.0
C1400 C 0.43842 0.18915 0.36825 0.0
C1401 C 0.4061 0.16294 0.32264 0.0
C1402 C 0.41433 0.14962 0.35073 0.0
C1403 C 0.43773 0.14953 0.40262 0.0
C1404 C 0.45331 0.16256 0.42614 0.0
C1405 C 0.43025 0.16259 0.37381 0.0
C1406 C 0.46199 0.1887 0.42011 0.0
C1407 C 0.45456 0.20191 0.39143 0.0
H1408 H 0.53029 0.67785 0.07647 0.0
H1409 H 0.58897 0.61476 0.07639 0.0
H1410 H 0.6093 0.63301 0.12548 0.0
H1411 H 0.6104 0.66649 0.16862 0.0
H1412 H 0.55298 0.73062 0.16875 0.0
H1413 H 0.53227 0.7125 0.11938 0.0
C1414 C 0.54749 0.66812 0.08729 0.0
C1415 C 0.55802 0.64492 0.07288 0.0
C1416 C 0.55936 0.67894 0.11543 0.0
C1417 C 0.58046 0.63263 0.08698 0.0
C1418 C 0.59211 0.64305 0.11507 0.0
C1419 C 0.59337 0.67656 0.15784 0.0
C1420 C 0.58318 0.6998 0.17236 0.0
C1421 C 0.58173 0.66614 0.1295 0.0
C1422 C 0.56122 0.71271 0.15797 0.0
C1423 C 0.54934 0.70231 0.12982 0.0
H1424 H 0.04616 0.77698 0.81665 0.0
H1425 H 0.12202 0.76355 0.86375 0.0
H1426 H 0.10545 0.78469 0.91337 0.0
H1427 H 0.07023 0.80873 0.94255 0.0
H1428 H -0.0061 0.82149 0.89648 0.0
H1429 H 0.00979 0.79879 0.84728 0.0
C1430 C 0.05898 0.77853 0.83787 0.0
C1431 C 0.08533 0.76886 0.83646 0.0
C1432 C 0.04929 0.79069 0.8664 0.0
C1433 C 0.10167 0.77085 0.86419 0.0
C1434 C 0.09224 0.78301 0.89255 0.0
C1435 C 0.05704 0.80649 0.92177 0.0
C1436 C 0.03103 0.81698 0.92299 0.0
C1437 C 0.06623 0.7933 0.89378 0.0
C1438 C 0.01405 0.81364 0.89606 0.0
C1439 C 0.02313 0.80071 0.86793 0.0
loop_
_geom_bond_atom_site_label_1
_geom_bond_atom_site_label_2
_geom_bond_distance
_geom_bond_site_symmetry_2
_ccdc_geom_bond_type
In0 O1 2.294 . S
In0 O2 2.326 . S
In0 O6 2.266 . S
In0 O7 2.326 . S
In0 O8 2.266 . S
In0 O9 2.326 . S
In0 O11 2.294 . S
In0 O12 2.326 . S
O1 In0 2.294 . S
O1 C10 1.240 . S
O2 In0 2.326 . S
O2 C10 1.252 . S
C3 O6 1.252 . S
C3 O7 1.260 . S
C4 O11 1.240 . S
C4 O12 1.252 . S
C5 O8 1.252 . S
C5 O9 1.260 . S
O6 In0 2.266 . S
O6 C3 1.252 . S
O7 In0 2.326 . S
O7 C3 1.260 . S
O8 In0 2.266 . S
O8 C5 1.252 . S
O9 In0 2.326 . S
O9 C5 1.260 . S
C10 O1 1.240 . S
C10 O2 1.252 . S
O11 In0 2.294 . S
O11 C4 1.240 . S
O12 In0 2.326 . S
O12 C4 1.252 . S
In13 O14 2.294 . S
In13 O15 2.326 . S
In13 O19 2.266 . S
In13 O20 2.326 . S
In13 O21 2.266 . S
In13 O22 2.326 . S
In13 O24 2.294 . S
In13 O25 2.326 . S
O14 In13 2.294 . S
O14 C23 1.240 . S
O15 In13 2.326 . S
O15 C23 1.252 . S
C16 O19 1.252 . S
C16 O20 1.260 . S
C17 O24 1.240 . S
C17 O25 1.252 . S
C18 O21 1.252 . S
C18 O22 1.260 . S
O19 In13 2.266 . S
O19 C16 1.252 . S
O20 In13 2.326 . S
O20 C16 1.260 . S
O21 In13 2.266 . S
O21 C18 1.252 . S
O22 In13 2.326 . S
O22 C18 1.260 . S
C23 O14 1.240 . S
C23 O15 1.252 . S
O24 In13 2.294 . S
O24 C17 1.240 . S
O25 In13 2.326 . S
O25 C17 1.252 . S
In26 O27 2.294 . S
In26 O28 2.326 . S
In26 O32 2.266 . S
In26 O33 2.326 . S
In26 O34 2.266 . S
In26 O35 2.326 . S
In26 O37 2.294 . S
In26 O38 2.326 . S
O27 In26 2.294 . S
O27 C36 1.240 . S
O28 In26 2.326 . S
O28 C36 1.252 . S
C29 O32 1.252 . S
C29 O33 1.260 . S
C30 O37 1.240 . S
C30 O38 1.252 . S
C31 O34 1.252 . S
C31 O35 1.260 . S
O32 In26 2.266 . S
O32 C29 1.252 . S
O33 In26 2.326 . S
O33 C29 1.260 . S
O34 In26 2.266 . S
O34 C31 1.252 . S
O35 In26 2.326 . S
O35 C31 1.260 . S
C36 O27 1.240 . S
C36 O28 1.252 . S
O37 In26 2.294 . S
O37 C30 1.240 . S
O38 In26 2.326 . S
O38 C30 1.252 . S
In39 O40 2.294 . S
In39 O41 2.326 . S
In39 O45 2.266 . S
In39 O46 2.326 . S
In39 O47 2.266 . S
In39 O48 2.326 . S
In39 O50 2.294 1_554 S
In39 O51 2.326 1_554 S
O40 In39 2.294 . S
O40 C49 1.240 . S
O41 In39 2.326 . S
O41 C49 1.252 . S
C42 O45 1.252 . S
C42 O46 1.260 . S
C43 O50 1.240 . S
C43 O51 1.252 . S
C44 O47 1.252 . S
C44 O48 1.260 . S
O45 In39 2.266 . S
O45 C42 1.252 . S
O46 In39 2.326 . S
O46 C42 1.260 . S
O47 In39 2.266 . S
O47 C44 1.252 . S
O48 In39 2.326 . S
O48 C44 1.260 . S
C49 O40 1.240 . S
C49 O41 1.252 . S
O50 In39 2.294 1_556 S
O50 C43 1.240 . S
O51 In39 2.326 1_556 S
O51 C43 1.252 . S
In52 O53 2.294 . S
In52 O54 2.326 . S
In52 O58 2.266 . S
In52 O59 2.326 . S
In52 O60 2.266 . S
In52 O61 2.326 . S
In52 O63 2.294 . S
In52 O64 2.326 . S
O53 In52 2.294 . S
O53 C62 1.240 . S
O54 In52 2.326 . S
O54 C62 1.252 . S
C55 O58 1.252 . S
C55 O59 1.260 . S
C56 O63 1.240 . S
C56 O64 1.252 . S
C57 O60 1.252 . S
C57 O61 1.260 . S
O58 In52 2.266 . S
O58 C55 1.252 . S
O59 In52 2.326 . S
O59 C55 1.260 . S
O60 In52 2.266 . S
O60 C57 1.252 . S
O61 In52 2.326 . S
O61 C57 1.260 . S
C62 O53 1.240 . S
C62 O54 1.252 . S
O63 In52 2.294 . S
O63 C56 1.240 . S
O64 In52 2.326 . S
O64 C56 1.252 . S
In65 O66 2.294 . S
In65 O67 2.326 . S
In65 O71 2.266 . S
In65 O72 2.326 . S
In65 O73 2.266 . S
In65 O74 2.326 . S
In65 O76 2.294 . S
In65 O77 2.326 . S
O66 In65 2.294 . S
O66 C75 1.240 . S
O67 In65 2.326 . S
O67 C75 1.252 . S
C68 O71 1.252 . S
C68 O72 1.260 . S
C69 O76 1.240 . S
C69 O77 1.252 . S
C70 O73 1.252 . S
C70 O74 1.260 . S
O71 In65 2.266 . S
O71 C68 1.252 . S
O72 In65 2.326 . S
O72 C68 1.260 . S
O73 In65 2.266 . S
O73 C70 1.252 . S
O74 In65 2.326 . S
O74 C70 1.260 . S
C75 O66 1.240 . S
C75 O67 1.252 . S
O76 In65 2.294 . S
O76 C69 1.240 . S
O77 In65 2.326 . S
O77 C69 1.252 . S
In78 O79 2.294 . S
In78 O80 2.326 . S
In78 O84 2.266 . S
In78 O85 2.326 . S
In78 O86 2.266 . S
In78 O87 2.326 . S
In78 O89 2.294 . S
In78 O90 2.326 . S
O79 In78 2.294 . S
O79 C88 1.240 . S
O80 In78 2.326 . S
O80 C88 1.252 . S
C81 O84 1.252 . S
C81 O85 1.260 . S
C82 O89 1.240 . S
C82 O90 1.252 . S
C83 O86 1.252 . S
C83 O87 1.260 . S
O84 In78 2.266 . S
O84 C81 1.252 . S
O85 In78 2.326 . S
O85 C81 1.260 . S
O86 In78 2.266 . S
O86 C83 1.252 . S
O87 In78 2.326 . S
O87 C83 1.260 . S
C88 O79 1.240 . S
C88 O80 1.252 . S
O89 In78 2.294 . S
O89 C82 1.240 . S
O90 In78 2.326 . S
O90 C82 1.252 . S
In91 O92 2.294 . S
In91 O93 2.326 . S
In91 O97 2.266 . S
In91 O98 2.326 . S
In91 O99 2.266 . S
In91 O100 2.326 . S
In91 O102 2.294 1_556 S
In91 O103 2.326 1_556 S
O92 In91 2.294 . S
O92 C101 1.240 . S
O93 In91 2.326 . S
O93 C101 1.252 . S
C94 O97 1.252 . S
C94 O98 1.260 . S
C95 O102 1.240 . S
C95 O103 1.252 . S
C96 O99 1.252 . S
C96 O100 1.260 . S
O97 In91 2.266 . S
O97 C94 1.252 . S
O98 In91 2.326 . S
O98 C94 1.260 . S
O99 In91 2.266 . S
O99 C96 1.252 . S
O100 In91 2.326 . S
O100 C96 1.260 . S
C101 O92 1.240 . S
C101 O93 1.252 . S
O102 In91 2.294 1_554 S
O102 C95 1.240 . S
O103 In91 2.326 1_554 S
O103 C95 1.252 . S
In104 O105 2.294 . S
In104 O106 2.326 . S
In104 O110 2.266 . S
In104 O111 2.326 . S
In104 O112 2.266 . S
In104 O113 2.326 . S
In104 O115 2.294 . S
In104 O116 2.326 . S
O105 In104 2.294 . S
O105 C114 1.240 . S
O106 In104 2.326 . S
O106 C114 1.252 . S
C107 O110 1.252 . S
C107 O111 1.260 . S
C108 O115 1.240 . S
C108 O116 1.252 . S
C109 O112 1.252 . S
C109 O113 1.260 . S
O110 In104 2.266 . S
O110 C107 1.252 . S
O111 In104 2.326 . S
O111 C107 1.260 . S
O112 In104 2.266 . S
O112 C109 1.252 . S
O113 In104 2.326 . S
O113 C109 1.260 . S
C114 O105 1.240 . S
C114 O106 1.252 . S
O115 In104 2.294 . S
O115 C108 1.240 . S
O116 In104 2.326 . S
O116 C108 1.252 . S
In117 O118 2.294 . S
In117 O119 2.326 . S
In117 O123 2.266 . S
In117 O124 2.326 . S
In117 O125 2.266 . S
In117 O126 2.326 . S
In117 O128 2.294 . S
In117 O129 2.326 . S
O118 In117 2.294 . S
O118 C127 1.240 . S
O119 In117 2.326 . S
O119 C127 1.252 . S
C120 O123 1.252 . S
C120 O124 1.260 . S
C121 O128 1.240 . S
C121 O129 1.252 . S
C122 O125 1.252 . S
C122 O126 1.260 . S
O123 In117 2.266 . S
O123 C120 1.252 . S
O124 In117 2.326 . S
O124 C120 1.260 . S
O125 In117 2.266 . S
O125 C122 1.252 . S
O126 In117 2.326 . S
O126 C122 1.260 . S
C127 O118 1.240 . S
C127 O119 1.252 . S
O128 In117 2.294 . S
O128 C121 1.240 . S
O129 In117 2.326 . S
O129 C121 1.252 . S
In130 O131 2.294 . S
In130 O132 2.326 . S
In130 O136 2.266 . S
In130 O137 2.326 . S
In130 O138 2.266 . S
In130 O139 2.326 . S
In130 O141 2.294 . S
In130 O142 2.326 . S
O131 In130 2.294 . S
O131 C140 1.240 . S
O132 In130 2.326 . S
O132 C140 1.252 . S
C133 O136 1.252 . S
C133 O137 1.260 . S
C134 O141 1.240 . S
C134 O142 1.252 . S
C135 O138 1.252 . S
C135 O139 1.260 . S
O136 In130 2.266 . S
O136 C133 1.252 . S
O137 In130 2.326 . S
O137 C133 1.260 . S
O138 In130 2.266 . S
O138 C135 1.252 . S
O139 In130 2.326 . S
O139 C135 1.260 . S
C140 O131 1.240 . S
C140 O132 1.252 . S
O141 In130 2.294 . S
O141 C134 1.240 . S
O142 In130 2.326 . S
O142 C134 1.252 . S
In143 O144 2.294 . S
In143 O145 2.326 . S
In143 O149 2.266 . S
In143 O150 2.326 . S
In143 O151 2.266 . S
In143 O152 2.326 . S
In143 O154 2.294 1_556 S
In143 O155 2.326 1_556 S
O144 In143 2.294 . S
O144 C153 1.240 . S
O145 In143 2.326 . S
O145 C153 1.252 . S
C146 O149 1.252 . S
C146 O150 1.260 . S
C147 O154 1.240 . S
C147 O155 1.252 . S
C148 O151 1.252 . S
C148 O152 1.260 . S
O149 In143 2.266 . S
O149 C146 1.252 . S
O150 In143 2.326 . S
O150 C146 1.260 . S
O151 In143 2.266 . S
O151 C148 1.252 . S
O152 In143 2.326 . S
O152 C148 1.260 . S
C153 O144 1.240 . S
C153 O145 1.252 . S
O154 In143 2.294 1_554 S
O154 C147 1.240 . S
O155 In143 2.326 1_554 S
O155 C147 1.252 . S
In156 O157 2.294 . S
In156 O158 2.326 . S
In156 O162 2.266 . S
In156 O163 2.326 . S
In156 O164 2.266 . S
In156 O165 2.326 . S
In156 O167 2.294 . S
In156 O168 2.326 . S
O157 In156 2.294 . S
O157 C166 1.240 . S
O158 In156 2.326 . S
O158 C166 1.252 . S
C159 O162 1.252 . S
C159 O163 1.260 . S
C160 O167 1.240 . S
C160 O168 1.252 . S
C161 O164 1.252 . S
C161 O165 1.260 . S
O162 In156 2.266 . S
O162 C159 1.252 . S
O163 In156 2.326 . S
O163 C159 1.260 . S
O164 In156 2.266 . S
O164 C161 1.252 . S
O165 In156 2.326 . S
O165 C161 1.260 . S
C166 O157 1.240 . S
C166 O158 1.252 . S
O167 In156 2.294 . S
O167 C160 1.240 . S
O168 In156 2.326 . S
O168 C160 1.252 . S
In169 O170 2.294 . S
In169 O171 2.326 . S
In169 O175 2.266 . S
In169 O176 2.326 . S
In169 O177 2.266 . S
In169 O178 2.326 . S
In169 O180 2.294 . S
In169 O181 2.326 . S
O170 In169 2.294 . S
O170 C179 1.240 . S
O171 In169 2.326 . S
O171 C179 1.252 . S
C172 O175 1.252 . S
C172 O176 1.260 . S
C173 O180 1.240 . S
C173 O181 1.252 . S
C174 O177 1.252 . S
C174 O178 1.260 . S
O175 In169 2.266 . S
O175 C172 1.252 . S
O176 In169 2.326 . S
O176 C172 1.260 . S
O177 In169 2.266 . S
O177 C174 1.252 . S
O178 In169 2.326 . S
O178 C174 1.260 . S
C179 O170 1.240 . S
C179 O171 1.252 . S
O180 In169 2.294 . S
O180 C173 1.240 . S
O181 In169 2.326 . S
O181 C173 1.252 . S
In182 O183 2.294 . S
In182 O184 2.326 . S
In182 O188 2.266 . S
In182 O189 2.326 . S
In182 O190 2.266 . S
In182 O191 2.326 . S
In182 O193 2.294 . S
In182 O194 2.326 . S
O183 In182 2.294 . S
O183 C192 1.240 . S
O184 In182 2.326 . S
O184 C192 1.252 . S
C185 O188 1.252 . S
C185 O189 1.260 . S
C186 O193 1.240 . S
C186 O194 1.252 . S
C187 O190 1.252 . S
C187 O191 1.260 . S
O188 In182 2.266 . S
O188 C185 1.252 . S
O189 In182 2.326 . S
O189 C185 1.260 . S
O190 In182 2.266 . S
O190 C187 1.252 . S
O191 In182 2.326 . S
O191 C187 1.260 . S
C192 O183 1.240 . S
C192 O184 1.252 . S
O193 In182 2.294 . S
O193 C186 1.240 . S
O194 In182 2.326 . S
O194 C186 1.252 . S
In195 O196 2.294 . S
In195 O197 2.326 . S
In195 O201 2.266 . S
In195 O202 2.326 . S
In195 O203 2.266 . S
In195 O204 2.326 . S
In195 O206 2.294 1_554 S
In195 O207 2.326 1_554 S
O196 In195 2.294 . S
O196 C205 1.240 . S
O197 In195 2.326 . S
O197 C205 1.252 . S
C198 O201 1.252 . S
C198 O202 1.260 . S
C199 O206 1.240 . S
C199 O207 1.252 . S
C200 O203 1.252 . S
C200 O204 1.260 . S
O201 In195 2.266 . S
O201 C198 1.252 . S
O202 In195 2.326 . S
O202 C198 1.260 . S
O203 In195 2.266 . S
O203 C200 1.252 . S
O204 In195 2.326 . S
O204 C200 1.260 . S
C205 O196 1.240 . S
C205 O197 1.252 . S
O206 In195 2.294 1_556 S
O206 C199 1.240 . S
O207 In195 2.326 1_556 S
O207 C199 1.252 . S
In208 O209 2.294 . S
In208 O210 2.326 . S
In208 O214 2.266 . S
In208 O215 2.326 . S
In208 O216 2.266 . S
In208 O217 2.326 . S
In208 O219 2.294 . S
In208 O220 2.326 . S
O209 In208 2.294 . S
O209 C218 1.240 . S
O210 In208 2.326 . S
O210 C218 1.252 . S
C211 O214 1.252 . S
C211 O215 1.260 . S
C212 O219 1.240 . S
C212 O220 1.252 . S
C213 O216 1.252 . S
C213 O217 1.260 . S
O214 In208 2.266 . S
O214 C211 1.252 . S
O215 In208 2.326 . S
O215 C211 1.260 . S
O216 In208 2.266 . S
O216 C213 1.252 . S
O217 In208 2.326 . S
O217 C213 1.260 . S
C218 O209 1.240 . S
C218 O210 1.252 . S
O219 In208 2.294 . S
O219 C212 1.240 . S
O220 In208 2.326 . S
O220 C212 1.252 . S
In221 O222 2.294 . S
In221 O223 2.326 . S
In221 O227 2.266 . S
In221 O228 2.326 . S
In221 O229 2.266 . S
In221 O230 2.326 . S
In221 O232 2.294 1_554 S
In221 O233 2.326 1_554 S
O222 In221 2.294 . S
O222 C231 1.240 . S
O223 In221 2.326 . S
O223 C231 1.252 . S
C224 O227 1.252 . S
C224 O228 1.260 . S
C225 O232 1.240 . S
C225 O233 1.252 . S
C226 O229 1.252 . S
C226 O230 1.260 . S
O227 In221 2.266 . S
O227 C224 1.252 . S
O228 In221 2.326 . S
O228 C224 1.260 . S
O229 In221 2.266 . S
O229 C226 1.252 . S
O230 In221 2.326 . S
O230 C226 1.260 . S
C231 O222 1.240 . S
C231 O223 1.252 . S
O232 In221 2.294 1_556 S
O232 C225 1.240 . S
O233 In221 2.326 1_556 S
O233 C225 1.252 . S
In234 O235 2.294 . S
In234 O236 2.326 . S
In234 O240 2.266 . S
In234 O241 2.326 . S
In234 O242 2.266 . S
In234 O243 2.326 . S
In234 O245 2.294 . S
In234 O246 2.326 . S
O235 In234 2.294 . S
O235 C244 1.240 . S
O236 In234 2.326 . S
O236 C244 1.252 . S
C237 O240 1.252 . S
C237 O241 1.260 . S
C238 O245 1.240 . S
C238 O246 1.252 . S
C239 O242 1.252 . S
C239 O243 1.260 . S
O240 In234 2.266 . S
O240 C237 1.252 . S
O241 In234 2.326 . S
O241 C237 1.260 . S
O242 In234 2.266 . S
O242 C239 1.252 . S
O243 In234 2.326 . S
O243 C239 1.260 . S
C244 O235 1.240 . S
C244 O236 1.252 . S
O245 In234 2.294 . S
O245 C238 1.240 . S
O246 In234 2.326 . S
O246 C238 1.252 . S
In247 O248 2.294 . S
In247 O249 2.326 . S
In247 O253 2.266 . S
In247 O254 2.326 . S
In247 O255 2.266 . S
In247 O256 2.326 . S
In247 O258 2.294 . S
In247 O259 2.326 . S
O248 In247 2.294 . S
O248 C257 1.240 . S
O249 In247 2.326 . S
O249 C257 1.252 . S
C250 O253 1.252 . S
C250 O254 1.260 . S
C251 O258 1.240 . S
C251 O259 1.252 . S
C252 O255 1.252 . S
C252 O256 1.260 . S
O253 In247 2.266 . S
O253 C250 1.252 . S
O254 In247 2.326 . S
O254 C250 1.260 . S
O255 In247 2.266 . S
O255 C252 1.252 . S
O256 In247 2.326 . S
O256 C252 1.260 . S
C257 O248 1.240 . S
C257 O249 1.252 . S
O258 In247 2.294 . S
O258 C251 1.240 . S
O259 In247 2.326 . S
O259 C251 1.252 . S
In260 O261 2.294 . S
In260 O262 2.326 . S
In260 O266 2.266 . S
In260 O267 2.326 . S
In260 O268 2.266 . S
In260 O269 2.326 . S
In260 O271 2.294 . S
In260 O272 2.326 . S
O261 In260 2.294 . S
O261 C270 1.240 . S
O262 In260 2.326 . S
O262 C270 1.252 . S
C263 O266 1.252 . S
C263 O267 1.260 . S
C264 O271 1.240 . S
C264 O272 1.252 . S
C265 O268 1.252 . S
C265 O269 1.260 . S
O266 In260 2.266 . S
O266 C263 1.252 . S
O267 In260 2.326 . S
O267 C263 1.260 . S
O268 In260 2.266 . S
O268 C265 1.252 . S
O269 In260 2.326 . S
O269 C265 1.260 . S
C270 O261 1.240 . S
C270 O262 1.252 . S
O271 In260 2.294 . S
O271 C264 1.240 . S
O272 In260 2.326 . S
O272 C264 1.252 . S
In273 O274 2.294 1_556 S
In273 O275 2.326 1_556 S
In273 O279 2.266 . S
In273 O280 2.326 . S
In273 O281 2.266 . S
In273 O282 2.326 . S
In273 O284 2.294 . S
In273 O285 2.326 . S
O274 In273 2.294 1_554 S
O274 C283 1.240 . S
O275 In273 2.326 1_554 S
O275 C283 1.252 . S
C276 O279 1.252 . S
C276 O280 1.260 . S
C277 O284 1.240 . S
C277 O285 1.252 . S
C278 O281 1.252 . S
C278 O282 1.260 . S
O279 In273 2.266 . S
O279 C276 1.252 . S
O280 In273 2.326 . S
O280 C276 1.260 . S
O281 In273 2.266 . S
O281 C278 1.252 . S
O282 In273 2.326 . S
O282 C278 1.260 . S
C283 O274 1.240 . S
C283 O275 1.252 . S
O284 In273 2.294 . S
O284 C277 1.240 . S
O285 In273 2.326 . S
O285 C277 1.252 . S
In286 O287 2.294 . S
In286 O288 2.326 . S
In286 O292 2.266 . S
In286 O293 2.326 . S
In286 O294 2.266 . S
In286 O295 2.326 . S
In286 O297 2.294 . S
In286 O298 2.326 . S
O287 In286 2.294 . S
O287 C296 1.240 . S
O288 In286 2.326 . S
O288 C296 1.252 . S
C289 O292 1.252 . S
C289 O293 1.260 . S
C290 O297 1.240 . S
C290 O298 1.252 . S
C291 O294 1.252 . S
C291 O295 1.260 . S
O292 In286 2.266 . S
O292 C289 1.252 . S
O293 In286 2.326 . S
O293 C289 1.260 . S
O294 In286 2.266 . S
O294 C291 1.252 . S
O295 In286 2.326 . S
O295 C291 1.260 . S
C296 O287 1.240 . S
C296 O288 1.252 . S
O297 In286 2.294 . S
O297 C290 1.240 . S
O298 In286 2.326 . S
O298 C290 1.252 . S
In299 O300 2.294 . S
In299 O301 2.326 . S
In299 O305 2.266 . S
In299 O306 2.326 . S
In299 O307 2.266 . S
In299 O308 2.326 . S
In299 O310 2.294 . S
In299 O311 2.326 . S
O300 In299 2.294 . S
O300 C309 1.240 . S
O301 In299 2.326 . S
O301 C309 1.252 . S
C302 O305 1.252 . S
C302 O306 1.260 . S
C303 O310 1.240 . S
C303 O311 1.252 . S
C304 O307 1.252 . S
C304 O308 1.260 . S
O305 In299 2.266 . S
O305 C302 1.252 . S
O306 In299 2.326 . S
O306 C302 1.260 . S
O307 In299 2.266 . S
O307 C304 1.252 . S
O308 In299 2.326 . S
O308 C304 1.260 . S
C309 O300 1.240 . S
C309 O301 1.252 . S
O310 In299 2.294 . S
O310 C303 1.240 . S
O311 In299 2.326 . S
O311 C303 1.252 . S
In312 O313 2.294 . S
In312 O314 2.326 . S
In312 O318 2.266 . S
In312 O319 2.326 . S
In312 O320 2.266 . S
In312 O321 2.326 . S
In312 O323 2.294 . S
In312 O324 2.326 . S
O313 In312 2.294 . S
O313 C322 1.240 . S
O314 In312 2.326 . S
O314 C322 1.252 . S
C315 O318 1.252 . S
C315 O319 1.260 . S
C316 O323 1.240 . S
C316 O324 1.252 . S
C317 O320 1.252 . S
C317 O321 1.260 . S
O318 In312 2.266 . S
O318 C315 1.252 . S
O319 In312 2.326 . S
O319 C315 1.260 . S
O320 In312 2.266 . S
O320 C317 1.252 . S
O321 In312 2.326 . S
O321 C317 1.260 . S
C322 O313 1.240 . S
C322 O314 1.252 . S
O323 In312 2.294 . S
O323 C316 1.240 . S
O324 In312 2.326 . S
O324 C316 1.252 . S
In325 O326 2.294 1_556 S
In325 O327 2.326 1_556 S
In325 O331 2.266 . S
In325 O332 2.326 . S
In325 O333 2.266 . S
In325 O334 2.326 . S
In325 O336 2.294 . S
In325 O337 2.326 . S
O326 In325 2.294 1_554 S
O326 C335 1.240 . S
O327 In325 2.326 1_554 S
O327 C335 1.252 . S
C328 O331 1.252 . S
C328 O332 1.260 . S
C329 O336 1.240 . S
C329 O337 1.252 . S
C330 O333 1.252 . S
C330 O334 1.260 . S
O331 In325 2.266 . S
O331 C328 1.252 . S
O332 In325 2.326 . S
O332 C328 1.260 . S
O333 In325 2.266 . S
O333 C330 1.252 . S
O334 In325 2.326 . S
O334 C330 1.260 . S
C335 O326 1.240 . S
C335 O327 1.252 . S
O336 In325 2.294 . S
O336 C329 1.240 . S
O337 In325 2.326 . S
O337 C329 1.252 . S
In338 O339 2.294 . S
In338 O340 2.326 . S
In338 O344 2.266 . S
In338 O345 2.326 . S
In338 O346 2.266 . S
In338 O347 2.326 . S
In338 O349 2.294 . S
In338 O350 2.326 . S
O339 In338 2.294 . S
O339 C348 1.240 . S
O340 In338 2.326 . S
O340 C348 1.252 . S
C341 O344 1.252 . S
C341 O345 1.260 . S
C342 O349 1.240 . S
C342 O350 1.252 . S
C343 O346 1.252 . S
C343 O347 1.260 . S
O344 In338 2.266 . S
O344 C341 1.252 . S
O345 In338 2.326 . S
O345 C341 1.260 . S
O346 In338 2.266 . S
O346 C343 1.252 . S
O347 In338 2.326 . S
O347 C343 1.260 . S
C348 O339 1.240 . S
C348 O340 1.252 . S
O349 In338 2.294 . S
O349 C342 1.240 . S
O350 In338 2.326 . S
O350 C342 1.252 . S
In351 O352 2.294 . S
In351 O353 2.326 . S
In351 O357 2.266 . S
In351 O358 2.326 . S
In351 O359 2.266 . S
In351 O360 2.326 . S
In351 O362 2.294 . S
In351 O363 2.326 . S
O352 In351 2.294 . S
O352 C361 1.240 . S
O353 In351 2.326 . S
O353 C361 1.252 . S
C354 O357 1.252 . S
C354 O358 1.260 . S
C355 O362 1.240 . S
C355 O363 1.252 . S
C356 O359 1.252 . S
C356 O360 1.260 . S
O357 In351 2.266 . S
O357 C354 1.252 . S
O358 In351 2.326 . S
O358 C354 1.260 . S
O359 In351 2.266 . S
O359 C356 1.252 . S
O360 In351 2.326 . S
O360 C356 1.260 . S
C361 O352 1.240 . S
C361 O353 1.252 . S
O362 In351 2.294 . S
O362 C355 1.240 . S
O363 In351 2.326 . S
O363 C355 1.252 . S
In364 O365 2.294 . S
In364 O366 2.326 . S
In364 O370 2.266 . S
In364 O371 2.326 . S
In364 O372 2.266 . S
In364 O373 2.326 . S
In364 O375 2.294 . S
In364 O376 2.326 . S
O365 In364 2.294 . S
O365 C374 1.240 . S
O366 In364 2.326 . S
O366 C374 1.252 . S
C367 O370 1.252 . S
C367 O371 1.260 . S
C368 O375 1.240 . S
C368 O376 1.252 . S
C369 O372 1.252 . S
C369 O373 1.260 . S
O370 In364 2.266 . S
O370 C367 1.252 . S
O371 In364 2.326 . S
O371 C367 1.260 . S
O372 In364 2.266 . S
O372 C369 1.252 . S
O373 In364 2.326 . S
O373 C369 1.260 . S
C374 O365 1.240 . S
C374 O366 1.252 . S
O375 In364 2.294 . S
O375 C368 1.240 . S
O376 In364 2.326 . S
O376 C368 1.252 . S
In377 O378 2.294 . S
In377 O379 2.326 . S
In377 O383 2.266 . S
In377 O384 2.326 . S
In377 O385 2.266 . S
In377 O386 2.326 . S
In377 O388 2.294 1_554 S
In377 O389 2.326 1_554 S
O378 In377 2.294 . S
O378 C387 1.240 . S
O379 In377 2.326 . S
O379 C387 1.252 . S
C380 O383 1.252 . S
C380 O384 1.260 . S
C381 O388 1.240 . S
C381 O389 1.252 . S
C382 O385 1.252 . S
C382 O386 1.260 . S
O383 In377 2.266 . S
O383 C380 1.252 . S
O384 In377 2.326 . S
O384 C380 1.260 . S
O385 In377 2.266 . S
O385 C382 1.252 . S
O386 In377 2.326 . S
O386 C382 1.260 . S
C387 O378 1.240 . S
C387 O379 1.252 . S
O388 In377 2.294 1_556 S
O388 C381 1.240 . S
O389 In377 2.326 1_556 S
O389 C381 1.252 . S
In390 O391 2.294 . S
In390 O392 2.326 . S
In390 O396 2.266 . S
In390 O397 2.326 . S
In390 O398 2.266 . S
In390 O399 2.326 . S
In390 O401 2.294 . S
In390 O402 2.326 . S
O391 In390 2.294 . S
O391 C400 1.240 . S
O392 In390 2.326 . S
O392 C400 1.252 . S
C393 O396 1.252 . S
C393 O397 1.260 . S
C394 O401 1.240 . S
C394 O402 1.252 . S
C395 O398 1.252 . S
C395 O399 1.260 . S
O396 In390 2.266 . S
O396 C393 1.252 . S
O397 In390 2.326 . S
O397 C393 1.260 . S
O398 In390 2.266 . S
O398 C395 1.252 . S
O399 In390 2.326 . S
O399 C395 1.260 . S
C400 O391 1.240 . S
C400 O392 1.252 . S
O401 In390 2.294 . S
O401 C394 1.240 . S
O402 In390 2.326 . S
O402 C394 1.252 . S
In403 O404 2.294 . S
In403 O405 2.326 . S
In403 O409 2.266 . S
In403 O410 2.326 . S
In403 O411 2.266 . S
In403 O412 2.326 . S
In403 O414 2.294 . S
In403 O415 2.326 . S
O404 In403 2.294 . S
O404 C413 1.240 . S
O405 In403 2.326 . S
O405 C413 1.252 . S
C406 O409 1.252 . S
C406 O410 1.260 . S
C407 O414 1.240 . S
C407 O415 1.252 . S
C408 O411 1.252 . S
C408 O412 1.260 . S
O409 In403 2.266 . S
O409 C406 1.252 . S
O410 In403 2.326 . S
O410 C406 1.260 . S
O411 In403 2.266 . S
O411 C408 1.252 . S
O412 In403 2.326 . S
O412 C408 1.260 . S
C413 O404 1.240 . S
C413 O405 1.252 . S
O414 In403 2.294 . S
O414 C407 1.240 . S
O415 In403 2.326 . S
O415 C407 1.252 . S
H416 C422 0.930 . S
H417 C425 0.930 . S
H418 C426 0.930 . S
H419 C427 0.930 . S
H420 C430 0.930 . S
H421 C431 0.930 . S
C422 H416 0.930 . S
C422 C423 1.355 . S
C422 C424 1.415 . S
C423 C422 1.355 . S
C423 C425 1.419 . S
C424 C422 1.415 . S
C424 C429 1.425 . S
C424 C431 1.409 . S
C425 H417 0.930 . S
C425 C423 1.419 . S
C425 C426 1.362 . S
C426 H418 0.930 . S
C426 C425 1.362 . S
C426 C429 1.409 . S
C427 H419 0.930 . S
C427 C428 1.355 . S
C427 C429 1.415 . S
C428 C427 1.355 . S
C428 C430 1.419 . S
C429 C424 1.425 . S
C429 C426 1.409 . S
C429 C427 1.415 . S
C430 H420 0.930 . S
C430 C428 1.419 . S
C430 C431 1.362 . S
C431 H421 0.930 . S
C431 C424 1.409 . S
C431 C430 1.362 . S
H432 C438 0.930 . S
H433 C441 0.930 . S
H434 C442 0.930 . S
H435 C443 0.930 . S
H436 C446 0.930 . S
H437 C447 0.930 . S
C438 H432 0.930 . S
C438 C439 1.355 . S
C438 C440 1.415 . S
C439 C438 1.355 . S
C439 C441 1.419 1_455 S
C440 C438 1.415 . S
C440 C445 1.425 . S
C440 C447 1.409 . S
C441 H433 0.930 . S
C441 C439 1.419 1_655 S
C441 C442 1.362 1_655 S
C442 H434 0.930 . S
C442 C441 1.362 1_455 S
C442 C445 1.409 . S
C443 H435 0.930 . S
C443 C444 1.355 . S
C443 C445 1.415 . S
C444 C443 1.355 . S
C444 C446 1.419 . S
C445 C440 1.425 . S
C445 C442 1.409 . S
C445 C443 1.415 . S
C446 H436 0.930 . S
C446 C444 1.419 . S
C446 C447 1.362 . S
C447 H437 0.930 . S
C447 C440 1.409 . S
C447 C446 1.362 . S
H448 C454 0.930 . S
H449 C457 0.930 . S
H450 C458 0.930 . S
H451 C459 0.930 . S
H452 C462 0.930 . S
H453 C463 0.930 . S
C454 H448 0.930 . S
C454 C455 1.355 . S
C454 C456 1.415 . S
C455 C454 1.355 . S
C455 C457 1.419 . S
C456 C454 1.415 . S
C456 C461 1.425 . S
C456 C463 1.409 . S
C457 H449 0.930 . S
C457 C455 1.419 . S
C457 C458 1.362 . S
C458 H450 0.930 . S
C458 C457 1.362 . S
C458 C461 1.409 . S
C459 H451 0.930 . S
C459 C460 1.355 . S
C459 C461 1.415 . S
C460 C459 1.355 . S
C460 C462 1.419 . S
C461 C456 1.425 . S
C461 C458 1.409 . S
C461 C459 1.415 . S
C462 H452 0.930 . S
C462 C460 1.419 . S
C462 C463 1.362 . S
C463 H453 0.930 . S
C463 C456 1.409 . S
C463 C462 1.362 . S
H464 C470 0.930 . S
H465 C473 0.930 . S
H466 C474 0.930 . S
H467 C475 0.930 . S
H468 C478 0.930 . S
H469 C479 0.930 . S
C470 H464 0.930 . S
C470 C471 1.355 . S
C470 C472 1.415 . S
C471 C470 1.355 . S
C471 C473 1.419 . S
C472 C470 1.415 . S
C472 C477 1.425 . S
C472 C479 1.409 . S
C473 H465 0.930 . S
C473 C471 1.419 . S
C473 C474 1.362 . S
C474 H466 0.930 . S
C474 C473 1.362 . S
C474 C477 1.409 . S
C475 H467 0.930 . S
C475 C476 1.355 . S
C475 C477 1.415 . S
C476 C475 1.355 . S
C476 C478 1.419 . S
C477 C472 1.425 . S
C477 C474 1.409 . S
C477 C475 1.415 . S
C478 H468 0.930 . S
C478 C476 1.419 . S
C478 C479 1.362 . S
C479 H469 0.930 . S
C479 C472 1.409 . S
C479 C478 1.362 . S
H480 C486 0.930 . S
H481 C489 0.930 . S
H482 C490 0.930 . S
H483 C491 0.930 . S
H484 C494 0.930 . S
H485 C495 0.930 . S
C486 H480 0.930 . S
C486 C487 1.355 . S
C486 C488 1.415 . S
C487 C486 1.355 . S
C487 C489 1.419 . S
C488 C486 1.415 . S
C488 C493 1.425 . S
C488 C495 1.409 . S
C489 H481 0.930 . S
C489 C487 1.419 . S
C489 C490 1.362 . S
C490 H482 0.930 . S
C490 C489 1.362 . S
C490 C493 1.409 . S
C491 H483 0.930 . S
C491 C492 1.355 . S
C491 C493 1.415 . S
C492 C491 1.355 . S
C492 C494 1.419 . S
C493 C488 1.425 . S
C493 C490 1.409 . S
C493 C491 1.415 . S
C494 H484 0.930 . S
C494 C492 1.419 . S
C494 C495 1.362 . S
C495 H485 0.930 . S
C495 C488 1.409 . S
C495 C494 1.362 . S
H496 C502 0.930 . S
H497 C505 0.930 . S
H498 C506 0.930 . S
H499 C507 0.930 . S
H500 C510 0.930 . S
H501 C511 0.930 . S
C502 H496 0.930 . S
C502 C503 1.355 . S
C502 C504 1.415 . S
C503 C502 1.355 . S
C503 C505 1.419 . S
C504 C502 1.415 . S
C504 C509 1.425 . S
C504 C511 1.409 . S
C505 H497 0.930 . S
C505 C503 1.419 . S
C505 C506 1.362 . S
C506 H498 0.930 . S
C506 C505 1.362 . S
C506 C509 1.409 . S
C507 H499 0.930 . S
C507 C508 1.355 . S
C507 C509 1.415 . S
C508 C507 1.355 . S
C508 C510 1.419 . S
C509 C504 1.425 . S
C509 C506 1.409 . S
C509 C507 1.415 . S
C510 H500 0.930 . S
C510 C508 1.419 . S
C510 C511 1.362 . S
C511 H501 0.930 . S
C511 C504 1.409 . S
C511 C510 1.362 . S
H512 C518 0.930 . S
H513 C521 0.930 . S
H514 C522 0.930 . S
H515 C523 0.930 . S
H516 C526 0.930 . S
H517 C527 0.930 . S
C518 H512 0.930 . S
C518 C519 1.355 . S
C518 C520 1.415 . S
C519 C518 1.355 . S
C519 C521 1.419 . S
C520 C518 1.415 . S
C520 C525 1.425 . S
C520 C527 1.409 . S
C521 H513 0.930 . S
C521 C519 1.419 . S
C521 C522 1.362 . S
C522 H514 0.930 . S
C522 C521 1.362 . S
C522 C525 1.409 . S
C523 H515 0.930 . S
C523 C524 1.355 . S
C523 C525 1.415 . S
C524 C523 1.355 . S
C524 C526 1.419 . S
C525 C520 1.425 . S
C525 C522 1.409 . S
C525 C523 1.415 . S
C526 H516 0.930 . S
C526 C524 1.419 . S
C526 C527 1.362 . S
C527 H517 0.930 . S
C527 C520 1.409 . S
C527 C526 1.362 . S
H528 C534 0.930 . S
H529 C537 0.930 . S
H530 C538 0.930 . S
H531 C539 0.930 . S
H532 C542 0.930 1_655 S
H533 C543 0.930 . S
C534 H528 0.930 . S
C534 C535 1.355 . S
C534 C536 1.415 . S
C535 C534 1.355 . S
C535 C537 1.419 . S
C536 C534 1.415 . S
C536 C541 1.425 . S
C536 C543 1.409 . S
C537 H529 0.930 . S
C537 C535 1.419 . S
C537 C538 1.362 . S
C538 H530 0.930 . S
C538 C537 1.362 . S
C538 C541 1.409 . S
C539 H531 0.930 . S
C539 C540 1.355 . S
C539 C541 1.415 . S
C540 C539 1.355 . S
C540 C542 1.419 . S
C541 C536 1.425 . S
C541 C538 1.409 . S
C541 C539 1.415 . S
C542 H532 0.930 1_455 S
C542 C540 1.419 . S
C542 C543 1.362 . S
C543 H533 0.930 . S
C543 C536 1.409 . S
C543 C542 1.362 . S
H544 C550 0.930 . S
H545 C553 0.930 . S
H546 C554 0.930 . S
H547 C555 0.930 . S
H548 C558 0.930 . S
H549 C559 0.930 . S
C550 H544 0.930 . S
C550 C551 1.355 . S
C550 C552 1.415 . S
C551 C550 1.355 . S
C551 C553 1.419 . S
C552 C550 1.415 . S
C552 C557 1.425 . S
C552 C559 1.409 . S
C553 H545 0.930 . S
C553 C551 1.419 . S
C553 C554 1.362 . S
C554 H546 0.930 . S
C554 C553 1.362 . S
C554 C557 1.409 . S
C555 H547 0.930 . S
C555 C556 1.355 . S
C555 C557 1.415 . S
C556 C555 1.355 . S
C556 C558 1.419 . S
C557 C552 1.425 . S
C557 C554 1.409 . S
C557 C555 1.415 . S
C558 H548 0.930 . S
C558 C556 1.419 . S
C558 C559 1.362 . S
C559 H549 0.930 . S
C559 C552 1.409 . S
C559 C558 1.362 . S
H560 C566 0.930 1_455 S
H561 C569 0.930 . S
H562 C570 0.930 . S
H563 C571 0.930 . S
H564 C574 0.930 . S
H565 C575 0.930 . S
C566 H560 0.930 1_655 S
C566 C567 1.355 . S
C566 C568 1.415 . S
C567 C566 1.355 . S
C567 C569 1.419 . S
C568 C566 1.415 . S
C568 C573 1.425 . S
C568 C575 1.409 . S
C569 H561 0.930 . S
C569 C567 1.419 . S
C569 C570 1.362 . S
C570 H562 0.930 . S
C570 C569 1.362 . S
C570 C573 1.409 . S
C571 H563 0.930 . S
C571 C572 1.355 . S
C571 C573 1.415 . S
C572 C571 1.355 . S
C572 C574 1.419 . S
C573 C568 1.425 . S
C573 C570 1.409 . S
C573 C571 1.415 . S
C574 H564 0.930 . S
C574 C572 1.419 . S
C574 C575 1.362 . S
C575 H565 0.930 . S
C575 C568 1.409 . S
C575 C574 1.362 . S
H576 C582 0.930 . S
H577 C585 0.930 . S
H578 C586 0.930 . S
H579 C587 0.930 . S
H580 C590 0.930 . S
H581 C591 0.930 . S
C582 H576 0.930 . S
C582 C583 1.355 . S
C582 C584 1.415 . S
C583 C582 1.355 . S
C583 C585 1.419 . S
C584 C582 1.415 . S
C584 C589 1.425 . S
C584 C591 1.409 . S
C585 H577 0.930 . S
C585 C583 1.419 . S
C585 C586 1.362 . S
C586 H578 0.930 . S
C586 C585 1.362 . S
C586 C589 1.409 . S
C587 H579 0.930 . S
C587 C588 1.355 . S
C587 C589 1.415 . S
C588 C587 1.355 . S
C588 C590 1.419 . S
C589 C584 1.425 . S
C589 C586 1.409 . S
C589 C587 1.415 . S
C590 H580 0.930 . S
C590 C588 1.419 . S
C590 C591 1.362 . S
C591 H581 0.930 . S
C591 C584 1.409 . S
C591 C590 1.362 . S
H592 C598 0.930 . S
H593 C601 0.930 . S
H594 C602 0.930 . S
H595 C603 0.930 . S
H596 C606 0.930 . S
H597 C607 0.930 . S
C598 H592 0.930 . S
C598 C599 1.355 . S
C598 C600 1.415 . S
C599 C598 1.355 . S
C599 C601 1.419 . S
C600 C598 1.415 . S
C600 C605 1.425 . S
C600 C607 1.409 . S
C601 H593 0.930 . S
C601 C599 1.419 . S
C601 C602 1.362 . S
C602 H594 0.930 . S
C602 C601 1.362 . S
C602 C605 1.409 . S
C603 H595 0.930 . S
C603 C604 1.355 . S
C603 C605 1.415 . S
C604 C603 1.355 . S
C604 C606 1.419 . S
C605 C600 1.425 . S
C605 C602 1.409 . S
C605 C603 1.415 . S
C606 H596 0.930 . S
C606 C604 1.419 . S
C606 C607 1.362 . S
C607 H597 0.930 . S
C607 C600 1.409 . S
C607 C606 1.362 . S
H608 C614 0.930 . S
H609 C617 0.930 . S
H610 C618 0.930 . S
H611 C619 0.930 . S
H612 C622 0.930 . S
H613 C623 0.930 . S
C614 H608 0.930 . S
C614 C615 1.355 . S
C614 C616 1.415 . S
C615 C614 1.355 . S
C615 C617 1.419 . S
C616 C614 1.415 . S
C616 C621 1.425 . S
C616 C623 1.409 . S
C617 H609 0.930 . S
C617 C615 1.419 . S
C617 C618 1.362 . S
C618 H610 0.930 . S
C618 C617 1.362 . S
C618 C621 1.409 . S
C619 H611 0.930 . S
C619 C620 1.355 . S
C619 C621 1.415 . S
C620 C619 1.355 . S
C620 C622 1.419 . S
C621 C616 1.425 . S
C621 C618 1.409 . S
C621 C619 1.415 . S
C622 H612 0.930 . S
C622 C620 1.419 . S
C622 C623 1.362 . S
C623 H613 0.930 . S
C623 C616 1.409 . S
C623 C622 1.362 . S
H624 C630 0.930 . S
H625 C633 0.930 . S
H626 C634 0.930 . S
H627 C635 0.930 . S
H628 C638 0.930 . S
H629 C639 0.930 . S
C630 H624 0.930 . S
C630 C631 1.355 . S
C630 C632 1.415 . S
C631 C630 1.355 . S
C631 C633 1.419 . S
C632 C630 1.415 . S
C632 C637 1.425 . S
C632 C639 1.409 . S
C633 H625 0.930 . S
C633 C631 1.419 . S
C633 C634 1.362 . S
C634 H626 0.930 . S
C634 C633 1.362 . S
C634 C637 1.409 . S
C635 H627 0.930 . S
C635 C636 1.355 . S
C635 C637 1.415 . S
C636 C635 1.355 . S
C636 C638 1.419 . S
C637 C632 1.425 . S
C637 C634 1.409 . S
C637 C635 1.415 . S
C638 H628 0.930 . S
C638 C636 1.419 . S
C638 C639 1.362 . S
C639 H629 0.930 . S
C639 C632 1.409 . S
C639 C638 1.362 . S
H640 C646 0.930 . S
H641 C649 0.930 . S
H642 C650 0.930 . S
H643 C651 0.930 . S
H644 C654 0.930 . S
H645 C655 0.930 . S
C646 H640 0.930 . S
C646 C647 1.355 . S
C646 C648 1.415 . S
C647 C646 1.355 . S
C647 C649 1.419 . S
C648 C646 1.415 . S
C648 C653 1.425 . S
C648 C655 1.409 . S
C649 H641 0.930 . S
C649 C647 1.419 . S
C649 C650 1.362 . S
C650 H642 0.930 . S
C650 C649 1.362 . S
C650 C653 1.409 . S
C651 H643 0.930 . S
C651 C652 1.355 . S
C651 C653 1.415 . S
C652 C651 1.355 . S
C652 C654 1.419 . S
C653 C648 1.425 . S
C653 C650 1.409 . S
C653 C651 1.415 . S
C654 H644 0.930 . S
C654 C652 1.419 . S
C654 C655 1.362 . S
C655 H645 0.930 . S
C655 C648 1.409 . S
C655 C654 1.362 . S
H656 C662 0.930 . S
H657 C665 0.930 . S
H658 C666 0.930 . S
H659 C667 0.930 . S
H660 C670 0.930 . S
H661 C671 0.930 . S
C662 H656 0.930 . S
C662 C663 1.355 . S
C662 C664 1.415 . S
C663 C662 1.355 . S
C663 C665 1.419 . S
C664 C662 1.415 . S
C664 C669 1.425 . S
C664 C671 1.409 . S
C665 H657 0.930 . S
C665 C663 1.419 . S
C665 C666 1.362 . S
C666 H658 0.930 . S
C666 C665 1.362 . S
C666 C669 1.409 . S
C667 H659 0.930 . S
C667 C668 1.355 . S
C667 C669 1.415 . S
C668 C667 1.355 . S
C668 C670 1.419 . S
C669 C664 1.425 . S
C669 C666 1.409 . S
C669 C667 1.415 . S
C670 H660 0.930 . S
C670 C668 1.419 . S
C670 C671 1.362 . S
C671 H661 0.930 . S
C671 C664 1.409 . S
C671 C670 1.362 . S
H672 C678 0.930 . S
H673 C681 0.930 . S
H674 C682 0.930 . S
H675 C683 0.930 . S
H676 C686 0.930 . S
H677 C687 0.930 . S
C678 H672 0.930 . S
C678 C679 1.355 . S
C678 C680 1.415 . S
C679 C678 1.355 . S
C679 C681 1.419 . S
C680 C678 1.415 . S
C680 C685 1.425 . S
C680 C687 1.409 . S
C681 H673 0.930 . S
C681 C679 1.419 . S
C681 C682 1.362 . S
C682 H674 0.930 . S
C682 C681 1.362 . S
C682 C685 1.409 . S
C683 H675 0.930 . S
C683 C684 1.355 . S
C683 C685 1.415 . S
C684 C683 1.355 . S
C684 C686 1.419 . S
C685 C680 1.425 . S
C685 C682 1.409 . S
C685 C683 1.415 . S
C686 H676 0.930 . S
C686 C684 1.419 . S
C686 C687 1.362 . S
C687 H677 0.930 . S
C687 C680 1.409 . S
C687 C686 1.362 . S
H688 C694 0.930 . S
H689 C697 0.930 . S
H690 C698 0.930 . S
H691 C699 0.930 . S
H692 C702 0.930 . S
H693 C703 0.930 . S
C694 H688 0.930 . S
C694 C695 1.355 . S
C694 C696 1.415 . S
C695 C694 1.355 . S
C695 C697 1.419 . S
C696 C694 1.415 . S
C696 C701 1.425 . S
C696 C703 1.409 . S
C697 H689 0.930 . S
C697 C695 1.419 . S
C697 C698 1.362 . S
C698 H690 0.930 . S
C698 C697 1.362 . S
C698 C701 1.409 . S
C699 H691 0.930 . S
C699 C700 1.355 . S
C699 C701 1.415 . S
C700 C699 1.355 . S
C700 C702 1.419 . S
C701 C696 1.425 . S
C701 C698 1.409 . S
C701 C699 1.415 . S
C702 H692 0.930 . S
C702 C700 1.419 . S
C702 C703 1.362 . S
C703 H693 0.930 . S
C703 C696 1.409 . S
C703 C702 1.362 . S
H704 C710 0.930 . S
H705 C713 0.930 . S
H706 C714 0.930 . S
H707 C715 0.930 . S
H708 C718 0.930 . S
H709 C719 0.930 . S
C710 H704 0.930 . S
C710 C711 1.355 . S
C710 C712 1.415 . S
C711 C710 1.355 . S
C711 C713 1.419 . S
C712 C710 1.415 . S
C712 C717 1.425 . S
C712 C719 1.409 . S
C713 H705 0.930 . S
C713 C711 1.419 . S
C713 C714 1.362 . S
C714 H706 0.930 . S
C714 C713 1.362 . S
C714 C717 1.409 . S
C715 H707 0.930 . S
C715 C716 1.355 . S
C715 C717 1.415 . S
C716 C715 1.355 . S
C716 C718 1.419 . S
C717 C712 1.425 . S
C717 C714 1.409 . S
C717 C715 1.415 . S
C718 H708 0.930 . S
C718 C716 1.419 . S
C718 C719 1.362 . S
C719 H709 0.930 . S
C719 C712 1.409 . S
C719 C718 1.362 . S
H720 C726 0.930 . S
H721 C729 0.930 . S
H722 C730 0.930 . S
H723 C731 0.930 . S
H724 C734 0.930 . S
H725 C735 0.930 . S
C726 H720 0.930 . S
C726 C727 1.355 . S
C726 C728 1.415 . S
C727 C726 1.355 . S
C727 C729 1.419 . S
C728 C726 1.415 . S
C728 C733 1.425 . S
C728 C735 1.409 . S
C729 H721 0.930 . S
C729 C727 1.419 . S
C729 C730 1.362 . S
C730 H722 0.930 . S
C730 C729 1.362 . S
C730 C733 1.409 . S
C731 H723 0.930 . S
C731 C732 1.355 . S
C731 C733 1.415 . S
C732 C731 1.355 . S
C732 C734 1.419 1_655 S
C733 C728 1.425 . S
C733 C730 1.409 . S
C733 C731 1.415 . S
C734 H724 0.930 . S
C734 C732 1.419 1_455 S
C734 C735 1.362 1_455 S
C735 H725 0.930 . S
C735 C728 1.409 . S
C735 C734 1.362 1_655 S
H736 C742 0.930 . S
H737 C745 0.930 . S
H738 C746 0.930 . S
H739 C747 0.930 . S
H740 C750 0.930 . S
H741 C751 0.930 . S
C742 H736 0.930 . S
C742 C743 1.355 . S
C742 C744 1.415 . S
C743 C742 1.355 . S
C743 C745 1.419 . S
C744 C742 1.415 . S
C744 C749 1.425 . S
C744 C751 1.409 . S
C745 H737 0.930 . S
C745 C743 1.419 . S
C745 C746 1.362 . S
C746 H738 0.930 . S
C746 C745 1.362 . S
C746 C749 1.409 . S
C747 H739 0.930 . S
C747 C748 1.355 . S
C747 C749 1.415 . S
C748 C747 1.355 . S
C748 C750 1.419 . S
C749 C744 1.425 . S
C749 C746 1.409 . S
C749 C747 1.415 . S
C750 H740 0.930 . S
C750 C748 1.419 . S
C750 C751 1.362 . S
C751 H741 0.930 . S
C751 C744 1.409 . S
C751 C750 1.362 . S
H752 C758 0.930 . S
H753 C761 0.930 1_455 S
H754 C762 0.930 . S
H755 C763 0.930 . S
H756 C766 0.930 . S
H757 C767 0.930 . S
C758 H752 0.930 . S
C758 C759 1.355 . S
C758 C760 1.415 . S
C759 C758 1.355 . S
C759 C761 1.419 . S
C760 C758 1.415 . S
C760 C765 1.425 . S
C760 C767 1.409 . S
C761 H753 0.930 1_655 S
C761 C759 1.419 . S
C761 C762 1.362 . S
C762 H754 0.930 . S
C762 C761 1.362 . S
C762 C765 1.409 . S
C763 H755 0.930 . S
C763 C764 1.355 . S
C763 C765 1.415 . S
C764 C763 1.355 . S
C764 C766 1.419 . S
C765 C760 1.425 . S
C765 C762 1.409 . S
C765 C763 1.415 . S
C766 H756 0.930 . S
C766 C764 1.419 . S
C766 C767 1.362 . S
C767 H757 0.930 . S
C767 C760 1.409 . S
C767 C766 1.362 . S
H768 C774 0.930 . S
H769 C777 0.930 . S
H770 C778 0.930 . S
H771 C779 0.930 . S
H772 C782 0.930 . S
H773 C783 0.930 . S
C774 H768 0.930 . S
C774 C775 1.355 . S
C774 C776 1.415 . S
C775 C774 1.355 . S
C775 C777 1.419 . S
C776 C774 1.415 . S
C776 C781 1.425 . S
C776 C783 1.409 . S
C777 H769 0.930 . S
C777 C775 1.419 . S
C777 C778 1.362 . S
C778 H770 0.930 . S
C778 C777 1.362 . S
C778 C781 1.409 . S
C779 H771 0.930 . S
C779 C780 1.355 . S
C779 C781 1.415 . S
C780 C779 1.355 . S
C780 C782 1.419 . S
C781 C776 1.425 . S
C781 C778 1.409 . S
C781 C779 1.415 . S
C782 H772 0.930 . S
C782 C780 1.419 . S
C782 C783 1.362 . S
C783 H773 0.930 . S
C783 C776 1.409 . S
C783 C782 1.362 . S
H784 C790 0.930 . S
H785 C793 0.930 . S
H786 C794 0.930 . S
H787 C795 0.930 . S
H788 C798 0.930 . S
H789 C799 0.930 . S
C790 H784 0.930 . S
C790 C791 1.355 . S
C790 C792 1.415 . S
C791 C790 1.355 . S
C791 C793 1.419 . S
C792 C790 1.415 . S
C792 C797 1.425 . S
C792 C799 1.409 . S
C793 H785 0.930 . S
C793 C791 1.419 . S
C793 C794 1.362 . S
C794 H786 0.930 . S
C794 C793 1.362 . S
C794 C797 1.409 . S
C795 H787 0.930 . S
C795 C796 1.355 . S
C795 C797 1.415 . S
C796 C795 1.355 . S
C796 C798 1.419 . S
C797 C792 1.425 . S
C797 C794 1.409 . S
C797 C795 1.415 . S
C798 H788 0.930 . S
C798 C796 1.419 . S
C798 C799 1.362 . S
C799 H789 0.930 . S
C799 C792 1.409 . S
C799 C798 1.362 . S
H800 C806 0.930 . S
H801 C809 0.930 . S
H802 C810 0.930 . S
H803 C811 0.930 . S
H804 C814 0.930 . S
H805 C815 0.930 . S
C806 H800 0.930 . S
C806 C807 1.355 . S
C806 C808 1.415 . S
C807 C806 1.355 . S
C807 C809 1.419 . S
C808 C806 1.415 . S
C808 C813 1.425 . S
C808 C815 1.409 . S
C809 H801 0.930 . S
C809 C807 1.419 . S
C809 C810 1.362 . S
C810 H802 0.930 . S
C810 C809 1.362 . S
C810 C813 1.409 . S
C811 H803 0.930 . S
C811 C812 1.355 . S
C811 C813 1.415 . S
C812 C811 1.355 . S
C812 C814 1.419 . S
C813 C808 1.425 . S
C813 C810 1.409 . S
C813 C811 1.415 . S
C814 H804 0.930 . S
C814 C812 1.419 . S
C814 C815 1.362 . S
C815 H805 0.930 . S
C815 C808 1.409 . S
C815 C814 1.362 . S
H816 C822 0.930 . S
H817 C825 0.930 . S
H818 C826 0.930 . S
H819 C827 0.930 . S
H820 C830 0.930 . S
H821 C831 0.930 . S
C822 H816 0.930 . S
C822 C823 1.355 . S
C822 C824 1.415 . S
C823 C822 1.355 . S
C823 C825 1.419 . S
C824 C822 1.415 . S
C824 C829 1.425 . S
C824 C831 1.409 . S
C825 H817 0.930 . S
C825 C823 1.419 . S
C825 C826 1.362 . S
C826 H818 0.930 . S
C826 C825 1.362 . S
C826 C829 1.409 . S
C827 H819 0.930 . S
C827 C828 1.355 . S
C827 C829 1.415 . S
C828 C827 1.355 . S
C828 C830 1.419 . S
C829 C824 1.425 . S
C829 C826 1.409 . S
C829 C827 1.415 . S
C830 H820 0.930 . S
C830 C828 1.419 . S
C830 C831 1.362 . S
C831 H821 0.930 . S
C831 C824 1.409 . S
C831 C830 1.362 . S
H832 C838 0.930 . S
H833 C841 0.930 . S
H834 C842 0.930 . S
H835 C843 0.930 . S
H836 C846 0.930 . S
H837 C847 0.930 . S
C838 H832 0.930 . S
C838 C839 1.355 . S
C838 C840 1.415 . S
C839 C838 1.355 . S
C839 C841 1.419 . S
C840 C838 1.415 . S
C840 C845 1.425 . S
C840 C847 1.409 . S
C841 H833 0.930 . S
C841 C839 1.419 . S
C841 C842 1.362 . S
C842 H834 0.930 . S
C842 C841 1.362 . S
C842 C845 1.409 . S
C843 H835 0.930 . S
C843 C844 1.355 . S
C843 C845 1.415 . S
C844 C843 1.355 . S
C844 C846 1.419 . S
C845 C840 1.425 . S
C845 C842 1.409 . S
C845 C843 1.415 . S
C846 H836 0.930 . S
C846 C844 1.419 . S
C846 C847 1.362 . S
C847 H837 0.930 . S
C847 C840 1.409 . S
C847 C846 1.362 . S
H848 C854 0.943 . S
H849 C857 0.930 . S
H850 C858 0.930 . S
H851 C859 0.930 . S
H852 C862 0.930 . S
H853 C863 0.930 . S
C854 H848 0.943 . S
C854 C855 1.355 . S
C854 C856 1.415 . S
C855 C854 1.355 . S
C855 C857 1.419 . S
C856 C854 1.415 . S
C856 C861 1.425 . S
C856 C863 1.409 . S
C857 H849 0.930 . S
C857 C855 1.419 . S
C857 C858 1.362 . S
C858 H850 0.930 . S
C858 C857 1.362 . S
C858 C861 1.409 . S
C859 H851 0.930 . S
C859 C860 1.355 . S
C859 C861 1.415 . S
C860 C859 1.355 . S
C860 C862 1.419 . S
C861 C856 1.425 . S
C861 C858 1.409 . S
C861 C859 1.415 . S
C862 H852 0.930 . S
C862 C860 1.419 . S
C862 C863 1.362 . S
C863 H853 0.930 . S
C863 C856 1.409 . S
C863 C862 1.362 . S
H864 C870 0.930 . S
H865 C873 0.930 . S
H866 C874 0.930 . S
H867 C875 0.930 . S
H868 C878 0.930 . S
H869 C879 0.930 . S
C870 H864 0.930 . S
C870 C871 1.355 . S
C870 C872 1.415 . S
C871 C870 1.355 . S
C871 C873 1.419 . S
C872 C870 1.415 . S
C872 C877 1.425 . S
C872 C879 1.409 . S
C873 H865 0.930 . S
C873 C871 1.419 . S
C873 C874 1.362 . S
C874 H866 0.930 . S
C874 C873 1.362 . S
C874 C877 1.409 . S
C875 H867 0.930 . S
C875 C876 1.355 . S
C875 C877 1.415 . S
C876 C875 1.355 . S
C876 C878 1.419 . S
C877 C872 1.425 . S
C877 C874 1.409 . S
C877 C875 1.415 . S
C878 H868 0.930 . S
C878 C876 1.419 . S
C878 C879 1.362 . S
C879 H869 0.930 . S
C879 C872 1.409 . S
C879 C878 1.362 . S
H880 C886 0.930 . S
H881 C889 0.930 . S
H882 C890 0.930 . S
H883 C891 0.930 . S
H884 C894 0.930 . S
H885 C895 0.930 . S
C886 H880 0.930 . S
C886 C887 1.355 . S
C886 C888 1.415 . S
C887 C886 1.355 . S
C887 C889 1.419 1_455 S
C888 C886 1.415 . S
C888 C893 1.425 . S
C888 C895 1.409 . S
C889 H881 0.930 . S
C889 C887 1.419 1_655 S
C889 C890 1.362 1_655 S
C890 H882 0.930 . S
C890 C889 1.362 1_455 S
C890 C893 1.409 . S
C891 H883 0.930 . S
C891 C892 1.355 . S
C891 C893 1.415 . S
C892 C891 1.355 . S
C892 C894 1.419 . S
C893 C888 1.425 . S
C893 C890 1.409 . S
C893 C891 1.415 . S
C894 H884 0.930 . S
C894 C892 1.419 . S
C894 C895 1.362 . S
C895 H885 0.930 . S
C895 C888 1.409 . S
C895 C894 1.362 . S
H896 C902 0.930 . S
H897 C905 0.930 . S
H898 C906 0.930 . S
H899 C907 0.930 . S
H900 C910 0.930 . S
H901 C911 0.930 . S
C902 H896 0.930 . S
C902 C903 1.355 . S
C902 C904 1.415 . S
C903 C902 1.355 . S
C903 C905 1.419 . S
C904 C902 1.415 . S
C904 C909 1.425 . S
C904 C911 1.409 . S
C905 H897 0.930 . S
C905 C903 1.419 . S
C905 C906 1.362 . S
C906 H898 0.930 . S
C906 C905 1.362 . S
C906 C909 1.409 . S
C907 H899 0.930 . S
C907 C908 1.355 . S
C907 C909 1.415 . S
C908 C907 1.355 . S
C908 C910 1.419 . S
C909 C904 1.425 . S
C909 C906 1.409 . S
C909 C907 1.415 . S
C910 H900 0.930 . S
C910 C908 1.419 . S
C910 C911 1.362 . S
C911 H901 0.930 . S
C911 C904 1.409 . S
C911 C910 1.362 . S
H912 C918 0.930 . S
H913 C921 0.930 . S
H914 C922 0.930 . S
H915 C923 0.930 . S
H916 C926 0.930 . S
H917 C927 0.930 . S
C918 H912 0.930 . S
C918 C919 1.355 . S
C918 C920 1.415 . S
C919 C918 1.355 . S
C919 C921 1.419 . S
C920 C918 1.415 . S
C920 C925 1.425 . S
C920 C927 1.409 . S
C921 H913 0.930 . S
C921 C919 1.419 . S
C921 C922 1.362 . S
C922 H914 0.930 . S
C922 C921 1.362 . S
C922 C925 1.409 . S
C923 H915 0.930 . S
C923 C924 1.355 . S
C923 C925 1.415 . S
C924 C923 1.355 . S
C924 C926 1.419 . S
C925 C920 1.425 . S
C925 C922 1.409 . S
C925 C923 1.415 . S
C926 H916 0.930 . S
C926 C924 1.419 . S
C926 C927 1.362 . S
C927 H917 0.930 . S
C927 C920 1.409 . S
C927 C926 1.362 . S
H928 C934 0.930 . S
H929 C937 0.930 . S
H930 C938 0.930 . S
H931 C939 0.930 . S
H932 C942 0.930 . S
H933 C943 0.930 . S
C934 H928 0.930 . S
C934 C935 1.355 . S
C934 C936 1.415 . S
C935 C934 1.355 . S
C935 C937 1.419 . S
C936 C934 1.415 . S
C936 C941 1.425 . S
C936 C943 1.409 . S
C937 H929 0.930 . S
C937 C935 1.419 . S
C937 C938 1.362 . S
C938 H930 0.930 . S
C938 C937 1.362 . S
C938 C941 1.409 . S
C939 H931 0.930 . S
C939 C940 1.355 . S
C939 C941 1.415 . S
C940 C939 1.355 . S
C940 C942 1.419 . S
C941 C936 1.425 . S
C941 C938 1.409 . S
C941 C939 1.415 . S
C942 H932 0.930 . S
C942 C940 1.419 . S
C942 C943 1.362 . S
C943 H933 0.930 . S
C943 C936 1.409 . S
C943 C942 1.362 . S
H944 C950 0.930 . S
H945 C953 0.928 1_455 S
H946 C954 0.930 . S
H947 C955 0.930 . S
H948 C958 0.928 1_655 S
H949 C959 0.930 . S
C950 H944 0.930 . S
C950 C951 1.355 . S
C950 C952 1.415 1_565 S
C951 C950 1.355 . S
C951 C953 1.419 . S
C952 C950 1.415 1_545 S
C952 C957 1.425 1_645 S
C952 C959 1.409 . S
C953 H945 0.928 1_655 S
C953 C951 1.419 . S
C953 C954 1.362 1_655 S
C954 H946 0.930 . S
C954 C953 1.362 1_455 S
C954 C957 1.409 . S
C955 H947 0.930 . S
C955 C956 1.355 . S
C955 C957 1.415 1_545 S
C956 C955 1.355 . S
C956 C958 1.419 . S
C957 C952 1.425 1_465 S
C957 C954 1.409 . S
C957 C955 1.415 1_565 S
C958 H948 0.928 1_455 S
C958 C956 1.419 . S
C958 C959 1.362 1_455 S
C959 H949 0.930 . S
C959 C952 1.409 . S
C959 C958 1.362 1_655 S
H960 C966 0.930 . S
H961 C969 0.930 . S
H962 C970 0.930 . S
H963 C971 0.930 . S
H964 C974 0.930 . S
H965 C975 0.930 . S
C966 H960 0.930 . S
C966 C967 1.355 . S
C966 C968 1.415 . S
C967 C966 1.355 . S
C967 C969 1.419 . S
C968 C966 1.415 . S
C968 C973 1.425 . S
C968 C975 1.409 . S
C969 H961 0.930 . S
C969 C967 1.419 . S
C969 C970 1.362 . S
C970 H962 0.930 . S
C970 C969 1.362 . S
C970 C973 1.409 . S
C971 H963 0.930 . S
C971 C972 1.355 . S
C971 C973 1.415 . S
C972 C971 1.355 . S
C972 C974 1.419 . S
C973 C968 1.425 . S
C973 C970 1.409 . S
C973 C971 1.415 . S
C974 H964 0.930 . S
C974 C972 1.419 . S
C974 C975 1.362 . S
C975 H965 0.930 . S
C975 C968 1.409 . S
C975 C974 1.362 . S
H976 C982 0.930 . S
H977 C985 0.930 . S
H978 C986 0.930 . S
H979 C987 0.930 . S
H980 C990 0.930 . S
H981 C991 0.930 . S
C982 H976 0.930 . S
C982 C983 1.355 1_556 S
C982 C984 1.401 1_545 S
C983 C982 1.355 1_554 S
C983 C985 1.419 . S
C984 C982 1.401 1_565 S
C984 C989 1.424 1_566 S
C984 C991 1.423 . S
C985 H977 0.930 . S
C985 C983 1.419 . S
C985 C986 1.362 . S
C986 H978 0.930 . S
C986 C985 1.362 . S
C986 C989 1.423 . S
C987 H979 0.930 . S
C987 C988 1.355 1_554 S
C987 C989 1.401 1_565 S
C988 C987 1.355 1_556 S
C988 C990 1.419 . S
C989 C984 1.424 1_544 S
C989 C986 1.423 . S
C989 C987 1.401 1_545 S
C990 H980 0.930 . S
C990 C988 1.419 . S
C990 C991 1.362 . S
C991 H981 0.930 . S
C991 C984 1.423 . S
C991 C990 1.362 . S
H992 C998 0.930 . S
H993 C1001 0.930 . S
H994 C1002 0.930 . S
H995 C1003 0.930 . S
H996 C1006 0.930 . S
H997 C1007 0.930 . S
C998 H992 0.930 . S
C998 C999 1.355 . S
C998 C1000 1.415 . S
C999 C998 1.355 . S
C999 C1001 1.419 . S
C1000 C998 1.415 . S
C1000 C1005 1.425 . S
C1000 C1007 1.409 . S
C1001 H993 0.930 . S
C1001 C999 1.419 . S
C1001 C1002 1.362 . S
C1002 H994 0.930 . S
C1002 C1001 1.362 . S
C1002 C1005 1.409 . S
C1003 H995 0.930 . S
C1003 C1004 1.355 . S
C1003 C1005 1.415 . S
C1004 C1003 1.355 . S
C1004 C1006 1.419 . S
C1005 C1000 1.425 . S
C1005 C1002 1.409 . S
C1005 C1003 1.415 . S
C1006 H996 0.930 . S
C1006 C1004 1.419 . S
C1006 C1007 1.362 . S
C1007 H997 0.930 . S
C1007 C1000 1.409 . S
C1007 C1006 1.362 . S
H1008 C1014 0.930 . S
H1009 C1017 0.930 . S
H1010 C1018 0.930 . S
H1011 C1019 0.930 . S
H1012 C1022 0.930 . S
H1013 C1023 0.930 . S
C1014 H1008 0.930 . S
C1014 C1015 1.355 . S
C1014 C1016 1.415 1_565 S
C1015 C1014 1.355 . S
C1015 C1017 1.419 . S
C1016 C1014 1.415 1_545 S
C1016 C1021 1.425 1_545 S
C1016 C1023 1.409 . S
C1017 H1009 0.930 . S
C1017 C1015 1.419 . S
C1017 C1018 1.362 . S
C1018 H1010 0.930 . S
C1018 C1017 1.362 . S
C1018 C1021 1.409 . S
C1019 H1011 0.930 . S
C1019 C1020 1.355 . S
C1019 C1021 1.415 1_545 S
C1020 C1019 1.355 . S
C1020 C1022 1.419 . S
C1021 C1016 1.425 1_565 S
C1021 C1018 1.409 . S
C1021 C1019 1.415 1_565 S
C1022 H1012 0.930 . S
C1022 C1020 1.419 . S
C1022 C1023 1.362 . S
C1023 H1013 0.930 . S
C1023 C1016 1.409 . S
C1023 C1022 1.362 . S
H1024 C1030 0.930 . S
H1025 C1033 0.930 . S
H1026 C1034 0.930 . S
H1027 C1035 0.930 . S
H1028 C1038 0.930 . S
H1029 C1039 0.930 . S
C1030 H1024 0.930 . S
C1030 C1031 1.355 . S
C1030 C1032 1.415 . S
C1031 C1030 1.355 . S
C1031 C1033 1.419 . S
C1032 C1030 1.415 . S
C1032 C1037 1.425 . S
C1032 C1039 1.409 . S
C1033 H1025 0.930 . S
C1033 C1031 1.419 . S
C1033 C1034 1.362 . S
C1034 H1026 0.930 . S
C1034 C1033 1.362 . S
C1034 C1037 1.409 . S
C1035 H1027 0.930 . S
C1035 C1036 1.355 . S
C1035 C1037 1.415 . S
C1036 C1035 1.355 . S
C1036 C1038 1.419 . S
C1037 C1032 1.425 . S
C1037 C1034 1.409 . S
C1037 C1035 1.415 . S
C1038 H1028 0.930 . S
C1038 C1036 1.419 . S
C1038 C1039 1.362 . S
C1039 H1029 0.930 . S
C1039 C1032 1.409 . S
C1039 C1038 1.362 . S
H1040 C1046 0.930 . S
H1041 C1049 0.930 . S
H1042 C1050 0.930 . S
H1043 C1051 0.930 . S
H1044 C1054 0.930 . S
H1045 C1055 0.930 . S
C1046 H1040 0.930 . S
C1046 C1047 1.355 1_554 S
C1046 C1048 1.385 1_545 S
C1047 C1046 1.355 1_556 S
C1047 C1049 1.419 . S
C1048 C1046 1.385 1_565 S
C1048 C1053 1.422 1_664 S
C1048 C1055 1.442 . S
C1049 H1041 0.930 . S
C1049 C1047 1.419 . S
C1049 C1050 1.362 1_655 S
C1050 H1042 0.930 . S
C1050 C1049 1.362 1_455 S
C1050 C1053 1.442 . S
C1051 H1043 0.930 . S
C1051 C1052 1.355 1_556 S
C1051 C1053 1.385 1_565 S
C1052 C1051 1.355 1_554 S
C1052 C1054 1.419 . S
C1053 C1048 1.422 1_446 S
C1053 C1050 1.442 . S
C1053 C1051 1.385 1_545 S
C1054 H1044 0.930 . S
C1054 C1052 1.419 . S
C1054 C1055 1.362 1_455 S
C1055 H1045 0.930 . S
C1055 C1048 1.442 . S
C1055 C1054 1.362 1_655 S
H1056 C1062 0.930 . S
H1057 C1065 0.930 . S
H1058 C1066 0.930 . S
H1059 C1067 0.930 . S
H1060 C1070 0.930 . S
H1061 C1071 0.930 . S
C1062 H1056 0.930 . S
C1062 C1063 1.355 . S
C1062 C1064 1.415 . S
C1063 C1062 1.355 . S
C1063 C1065 1.419 . S
C1064 C1062 1.415 . S
C1064 C1069 1.425 . S
C1064 C1071 1.409 . S
C1065 H1057 0.930 . S
C1065 C1063 1.419 . S
C1065 C1066 1.362 . S
C1066 H1058 0.930 . S
C1066 C1065 1.362 . S
C1066 C1069 1.409 . S
C1067 H1059 0.930 . S
C1067 C1068 1.355 . S
C1067 C1069 1.415 . S
C1068 C1067 1.355 . S
C1068 C1070 1.419 . S
C1069 C1064 1.425 . S
C1069 C1066 1.409 . S
C1069 C1067 1.415 . S
C1070 H1060 0.930 . S
C1070 C1068 1.419 . S
C1070 C1071 1.362 . S
C1071 H1061 0.930 . S
C1071 C1064 1.409 . S
C1071 C1070 1.362 . S
H1072 C1078 0.930 . S
H1073 C1081 0.930 . S
H1074 C1082 0.930 . S
H1075 C1083 0.930 . S
H1076 C1086 0.930 . S
H1077 C1087 0.930 . S
C1078 H1072 0.930 . S
C1078 C1079 1.355 . S
C1078 C1080 1.415 . S
C1079 C1078 1.355 . S
C1079 C1081 1.419 . S
C1080 C1078 1.415 . S
C1080 C1085 1.425 . S
C1080 C1087 1.409 . S
C1081 H1073 0.930 . S
C1081 C1079 1.419 . S
C1081 C1082 1.362 . S
C1082 H1074 0.930 . S
C1082 C1081 1.362 . S
C1082 C1085 1.409 . S
C1083 H1075 0.930 . S
C1083 C1084 1.355 . S
C1083 C1085 1.415 . S
C1084 C1083 1.355 . S
C1084 C1086 1.419 . S
C1085 C1080 1.425 . S
C1085 C1082 1.409 . S
C1085 C1083 1.415 . S
C1086 H1076 0.930 . S
C1086 C1084 1.419 . S
C1086 C1087 1.362 . S
C1087 H1077 0.930 . S
C1087 C1080 1.409 . S
C1087 C1086 1.362 . S
H1088 C1094 0.930 . S
H1089 C1097 0.930 . S
H1090 C1098 0.930 . S
H1091 C1099 0.930 . S
H1092 C1102 0.930 . S
H1093 C1103 0.930 . S
C1094 H1088 0.930 . S
C1094 C1095 1.355 . S
C1094 C1096 1.415 . S
C1095 C1094 1.355 . S
C1095 C1097 1.419 . S
C1096 C1094 1.415 . S
C1096 C1101 1.425 . S
C1096 C1103 1.409 . S
C1097 H1089 0.930 . S
C1097 C1095 1.419 . S
C1097 C1098 1.362 . S
C1098 H1090 0.930 . S
C1098 C1097 1.362 . S
C1098 C1101 1.409 . S
C1099 H1091 0.930 . S
C1099 C1100 1.355 . S
C1099 C1101 1.415 . S
C1100 C1099 1.355 . S
C1100 C1102 1.419 . S
C1101 C1096 1.425 . S
C1101 C1098 1.409 . S
C1101 C1099 1.415 . S
C1102 H1092 0.930 . S
C1102 C1100 1.419 . S
C1102 C1103 1.362 . S
C1103 H1093 0.930 . S
C1103 C1096 1.409 . S
C1103 C1102 1.362 . S
H1104 C1110 0.930 . S
H1105 C1113 0.930 . S
H1106 C1114 0.930 . S
H1107 C1115 0.930 . S
H1108 C1118 0.930 . S
H1109 C1119 0.930 . S
C1110 H1104 0.930 . S
C1110 C1111 1.355 . S
C1110 C1112 1.415 . S
C1111 C1110 1.355 . S
C1111 C1113 1.419 . S
C1112 C1110 1.415 . S
C1112 C1117 1.425 . S
C1112 C1119 1.409 . S
C1113 H1105 0.930 . S
C1113 C1111 1.419 . S
C1113 C1114 1.362 . S
C1114 H1106 0.930 . S
C1114 C1113 1.362 . S
C1114 C1117 1.409 . S
C1115 H1107 0.930 . S
C1115 C1116 1.355 . S
C1115 C1117 1.415 . S
C1116 C1115 1.355 . S
C1116 C1118 1.419 . S
C1117 C1112 1.425 . S
C1117 C1114 1.409 . S
C1117 C1115 1.415 . S
C1118 H1108 0.930 . S
C1118 C1116 1.419 . S
C1118 C1119 1.362 . S
C1119 H1109 0.930 . S
C1119 C1112 1.409 . S
C1119 C1118 1.362 . S
H1120 C1126 0.930 . S
H1121 C1129 0.930 . S
H1122 C1130 0.930 1_556 S
H1123 C1131 0.930 . S
H1124 C1134 0.930 . S
H1125 C1135 0.930 1_554 S
C1126 H1120 0.930 . S
C1126 C1127 1.355 . S
C1126 C1128 1.415 . S
C1127 C1126 1.355 . S
C1127 C1129 1.419 . S
C1128 C1126 1.415 . S
C1128 C1133 1.425 1_554 S
C1128 C1135 1.409 1_554 S
C1129 H1121 0.930 . S
C1129 C1127 1.419 . S
C1129 C1130 1.362 . S
C1130 H1122 0.930 1_554 S
C1130 C1129 1.362 . S
C1130 C1133 1.409 1_554 S
C1131 H1123 0.930 . S
C1131 C1132 1.355 . S
C1131 C1133 1.415 . S
C1132 C1131 1.355 . S
C1132 C1134 1.419 . S
C1133 C1128 1.425 1_556 S
C1133 C1130 1.409 1_556 S
C1133 C1131 1.415 . S
C1134 H1124 0.930 . S
C1134 C1132 1.419 . S
C1134 C1135 1.362 . S
C1135 H1125 0.930 1_556 S
C1135 C1128 1.409 1_556 S
C1135 C1134 1.362 . S
H1136 C1142 0.930 . S
H1137 C1145 0.935 . S
H1138 C1146 0.930 . S
H1139 C1147 0.930 . S
H1140 C1150 0.935 . S
H1141 C1151 0.930 . S
C1142 H1136 0.930 . S
C1142 C1143 1.355 . S
C1142 C1144 1.415 . S
C1143 C1142 1.355 . S
C1143 C1145 1.419 . S
C1144 C1142 1.415 . S
C1144 C1149 1.425 1_655 S
C1144 C1151 1.409 . S
C1145 H1137 0.935 . S
C1145 C1143 1.419 . S
C1145 C1146 1.362 1_655 S
C1146 H1138 0.930 . S
C1146 C1145 1.362 1_455 S
C1146 C1149 1.409 . S
C1147 H1139 0.930 . S
C1147 C1148 1.355 . S
C1147 C1149 1.415 . S
C1148 C1147 1.355 . S
C1148 C1150 1.419 . S
C1149 C1144 1.425 1_455 S
C1149 C1146 1.409 . S
C1149 C1147 1.415 . S
C1150 H1140 0.935 . S
C1150 C1148 1.419 . S
C1150 C1151 1.362 1_455 S
C1151 H1141 0.930 . S
C1151 C1144 1.409 . S
C1151 C1150 1.362 1_655 S
H1152 C1158 0.930 . S
H1153 C1161 0.930 . S
H1154 C1162 0.930 . S
H1155 C1163 0.930 . S
H1156 C1166 0.930 . S
H1157 C1167 0.930 . S
C1158 H1152 0.930 . S
C1158 C1159 1.355 . S
C1158 C1160 1.415 1_455 S
C1159 C1158 1.355 . S
C1159 C1161 1.419 1_556 S
C1160 C1158 1.415 1_655 S
C1160 C1165 1.425 1_656 S
C1160 C1167 1.409 . S
C1161 H1153 0.930 . S
C1161 C1159 1.419 1_554 S
C1161 C1162 1.362 . S
C1162 H1154 0.930 . S
C1162 C1161 1.362 . S
C1162 C1165 1.409 . S
C1163 H1155 0.930 . S
C1163 C1164 1.355 . S
C1163 C1165 1.415 1_655 S
C1164 C1163 1.355 . S
C1164 C1166 1.419 1_554 S
C1165 C1160 1.425 1_454 S
C1165 C1162 1.409 . S
C1165 C1163 1.415 1_455 S
C1166 H1156 0.930 . S
C1166 C1164 1.419 1_556 S
C1166 C1167 1.362 . S
C1167 H1157 0.930 . S
C1167 C1160 1.409 . S
C1167 C1166 1.362 . S
H1168 C1174 0.930 . S
H1169 C1177 0.930 . S
H1170 C1178 0.930 . S
H1171 C1179 0.930 . S
H1172 C1182 0.930 . S
H1173 C1183 0.930 . S
C1174 H1168 0.930 . S
C1174 C1175 1.355 . S
C1174 C1176 1.415 . S
C1175 C1174 1.355 . S
C1175 C1177 1.419 . S
C1176 C1174 1.415 . S
C1176 C1181 1.425 . S
C1176 C1183 1.409 . S
C1177 H1169 0.930 . S
C1177 C1175 1.419 . S
C1177 C1178 1.362 . S
C1178 H1170 0.930 . S
C1178 C1177 1.362 . S
C1178 C1181 1.409 . S
C1179 H1171 0.930 . S
C1179 C1180 1.355 . S
C1179 C1181 1.415 . S
C1180 C1179 1.355 . S
C1180 C1182 1.419 . S
C1181 C1176 1.425 . S
C1181 C1178 1.409 . S
C1181 C1179 1.415 . S
C1182 H1172 0.930 . S
C1182 C1180 1.419 . S
C1182 C1183 1.362 . S
C1183 H1173 0.930 . S
C1183 C1176 1.409 . S
C1183 C1182 1.362 . S
H1184 C1190 0.930 . S
H1185 C1193 0.930 . S
H1186 C1194 0.930 . S
H1187 C1195 0.930 . S
H1188 C1198 0.930 . S
H1189 C1199 0.930 . S
C1190 H1184 0.930 . S
C1190 C1191 1.355 . S
C1190 C1192 1.415 . S
C1191 C1190 1.355 . S
C1191 C1193 1.419 . S
C1192 C1190 1.415 . S
C1192 C1197 1.425 . S
C1192 C1199 1.409 . S
C1193 H1185 0.930 . S
C1193 C1191 1.419 . S
C1193 C1194 1.362 . S
C1194 H1186 0.930 . S
C1194 C1193 1.362 . S
C1194 C1197 1.409 . S
C1195 H1187 0.930 . S
C1195 C1196 1.355 . S
C1195 C1197 1.415 . S
C1196 C1195 1.355 . S
C1196 C1198 1.419 . S
C1197 C1192 1.425 . S
C1197 C1194 1.409 . S
C1197 C1195 1.415 . S
C1198 H1188 0.930 . S
C1198 C1196 1.419 . S
C1198 C1199 1.362 . S
C1199 H1189 0.930 . S
C1199 C1192 1.409 . S
C1199 C1198 1.362 . S
H1200 C1206 0.930 . S
H1201 C1209 0.930 . S
H1202 C1210 0.930 . S
H1203 C1211 0.930 . S
H1204 C1214 0.930 . S
H1205 C1215 0.930 . S
C1206 H1200 0.930 . S
C1206 C1207 1.355 . S
C1206 C1208 1.415 . S
C1207 C1206 1.355 . S
C1207 C1209 1.419 . S
C1208 C1206 1.415 . S
C1208 C1213 1.425 . S
C1208 C1215 1.409 . S
C1209 H1201 0.930 . S
C1209 C1207 1.419 . S
C1209 C1210 1.362 . S
C1210 H1202 0.930 . S
C1210 C1209 1.362 . S
C1210 C1213 1.409 . S
C1211 H1203 0.930 . S
C1211 C1212 1.355 . S
C1211 C1213 1.415 . S
C1212 C1211 1.355 . S
C1212 C1214 1.419 . S
C1213 C1208 1.425 . S
C1213 C1210 1.409 . S
C1213 C1211 1.415 . S
C1214 H1204 0.930 . S
C1214 C1212 1.419 . S
C1214 C1215 1.362 . S
C1215 H1205 0.930 . S
C1215 C1208 1.409 . S
C1215 C1214 1.362 . S
H1216 C1222 0.930 . S
H1217 C1225 0.930 . S
H1218 C1226 0.930 . S
H1219 C1227 0.930 . S
H1220 C1230 0.930 . S
H1221 C1231 0.930 . S
C1222 H1216 0.930 . S
C1222 C1223 1.355 . S
C1222 C1224 1.415 . S
C1223 C1222 1.355 . S
C1223 C1225 1.419 . S
C1224 C1222 1.415 . S
C1224 C1229 1.425 . S
C1224 C1231 1.409 . S
C1225 H1217 0.930 . S
C1225 C1223 1.419 . S
C1225 C1226 1.362 . S
C1226 H1218 0.930 . S
C1226 C1225 1.362 . S
C1226 C1229 1.409 . S
C1227 H1219 0.930 . S
C1227 C1228 1.355 . S
C1227 C1229 1.415 . S
C1228 C1227 1.355 . S
C1228 C1230 1.419 . S
C1229 C1224 1.425 . S
C1229 C1226 1.409 . S
C1229 C1227 1.415 . S
C1230 H1220 0.930 . S
C1230 C1228 1.419 . S
C1230 C1231 1.362 . S
C1231 H1221 0.930 . S
C1231 C1224 1.409 . S
C1231 C1230 1.362 . S
H1232 C1238 0.930 . S
H1233 C1241 0.930 . S
H1234 C1242 0.930 . S
H1235 C1243 0.930 . S
H1236 C1246 0.930 . S
H1237 C1247 0.930 . S
C1238 H1232 0.930 . S
C1238 C1239 1.355 . S
C1238 C1240 1.415 . S
C1239 C1238 1.355 . S
C1239 C1241 1.419 . S
C1240 C1238 1.415 . S
C1240 C1245 1.425 . S
C1240 C1247 1.409 . S
C1241 H1233 0.930 . S
C1241 C1239 1.419 . S
C1241 C1242 1.362 . S
C1242 H1234 0.930 . S
C1242 C1241 1.362 . S
C1242 C1245 1.409 . S
C1243 H1235 0.930 . S
C1243 C1244 1.355 . S
C1243 C1245 1.415 . S
C1244 C1243 1.355 . S
C1244 C1246 1.419 . S
C1245 C1240 1.425 . S
C1245 C1242 1.409 . S
C1245 C1243 1.415 . S
C1246 H1236 0.930 . S
C1246 C1244 1.419 . S
C1246 C1247 1.362 . S
C1247 H1237 0.930 . S
C1247 C1240 1.409 . S
C1247 C1246 1.362 . S
H1248 C1254 0.930 . S
H1249 C1257 0.930 . S
H1250 C1258 0.930 . S
H1251 C1259 0.930 . S
H1252 C1262 0.930 . S
H1253 C1263 0.930 . S
C1254 H1248 0.930 . S
C1254 C1255 1.355 . S
C1254 C1256 1.415 . S
C1255 C1254 1.355 . S
C1255 C1257 1.419 . S
C1256 C1254 1.415 . S
C1256 C1261 1.425 . S
C1256 C1263 1.409 . S
C1257 H1249 0.930 . S
C1257 C1255 1.419 . S
C1257 C1258 1.362 . S
C1258 H1250 0.930 . S
C1258 C1257 1.362 . S
C1258 C1261 1.409 . S
C1259 H1251 0.930 . S
C1259 C1260 1.355 . S
C1259 C1261 1.415 . S
C1260 C1259 1.355 . S
C1260 C1262 1.419 . S
C1261 C1256 1.425 . S
C1261 C1258 1.409 . S
C1261 C1259 1.415 . S
C1262 H1252 0.930 . S
C1262 C1260 1.419 . S
C1262 C1263 1.362 . S
C1263 H1253 0.930 . S
C1263 C1256 1.409 . S
C1263 C1262 1.362 . S
H1264 C1270 0.930 . S
H1265 C1273 0.930 . S
H1266 C1274 0.930 . S
H1267 C1275 0.930 . S
H1268 C1278 0.930 . S
H1269 C1279 0.930 . S
C1270 H1264 0.930 . S
C1270 C1271 1.355 . S
C1270 C1272 1.415 . S
C1271 C1270 1.355 . S
C1271 C1273 1.419 . S
C1272 C1270 1.415 . S
C1272 C1277 1.425 . S
C1272 C1279 1.409 . S
C1273 H1265 0.930 . S
C1273 C1271 1.419 . S
C1273 C1274 1.362 . S
C1274 H1266 0.930 . S
C1274 C1273 1.362 . S
C1274 C1277 1.409 . S
C1275 H1267 0.930 . S
C1275 C1276 1.355 . S
C1275 C1277 1.415 . S
C1276 C1275 1.355 . S
C1276 C1278 1.419 . S
C1277 C1272 1.425 . S
C1277 C1274 1.409 . S
C1277 C1275 1.415 . S
C1278 H1268 0.930 . S
C1278 C1276 1.419 . S
C1278 C1279 1.362 . S
C1279 H1269 0.930 . S
C1279 C1272 1.409 . S
C1279 C1278 1.362 . S
H1280 C1286 0.930 . S
H1281 C1289 0.930 . S
H1282 C1290 0.930 . S
H1283 C1291 0.930 . S
H1284 C1294 0.930 . S
H1285 C1295 0.930 . S
C1286 H1280 0.930 . S
C1286 C1287 1.355 . S
C1286 C1288 1.415 . S
C1287 C1286 1.355 . S
C1287 C1289 1.419 . S
C1288 C1286 1.415 . S
C1288 C1293 1.425 . S
C1288 C1295 1.409 . S
C1289 H1281 0.930 . S
C1289 C1287 1.419 . S
C1289 C1290 1.362 . S
C1290 H1282 0.930 . S
C1290 C1289 1.362 . S
C1290 C1293 1.409 . S
C1291 H1283 0.930 . S
C1291 C1292 1.355 . S
C1291 C1293 1.415 . S
C1292 C1291 1.355 . S
C1292 C1294 1.419 . S
C1293 C1288 1.425 . S
C1293 C1290 1.409 . S
C1293 C1291 1.415 . S
C1294 H1284 0.930 . S
C1294 C1292 1.419 . S
C1294 C1295 1.362 . S
C1295 H1285 0.930 . S
C1295 C1288 1.409 . S
C1295 C1294 1.362 . S
H1296 C1302 0.930 . S
H1297 C1305 0.930 . S
H1298 C1306 0.930 . S
H1299 C1307 0.930 . S
H1300 C1310 0.930 . S
H1301 C1311 0.930 . S
C1302 H1296 0.930 . S
C1302 C1303 1.355 . S
C1302 C1304 1.415 . S
C1303 C1302 1.355 . S
C1303 C1305 1.419 . S
C1304 C1302 1.415 . S
C1304 C1309 1.425 . S
C1304 C1311 1.409 . S
C1305 H1297 0.930 . S
C1305 C1303 1.419 . S
C1305 C1306 1.362 . S
C1306 H1298 0.930 . S
C1306 C1305 1.362 . S
C1306 C1309 1.409 . S
C1307 H1299 0.930 . S
C1307 C1308 1.355 . S
C1307 C1309 1.415 . S
C1308 C1307 1.355 . S
C1308 C1310 1.419 . S
C1309 C1304 1.425 . S
C1309 C1306 1.409 . S
C1309 C1307 1.415 . S
C1310 H1300 0.930 . S
C1310 C1308 1.419 . S
C1310 C1311 1.362 . S
C1311 H1301 0.930 . S
C1311 C1304 1.409 . S
C1311 C1310 1.362 . S
H1312 C1318 0.930 . S
H1313 C1321 0.930 . S
H1314 C1322 0.930 . S
H1315 C1323 0.930 . S
H1316 C1326 0.930 . S
H1317 C1327 0.930 . S
C1318 H1312 0.930 . S
C1318 C1319 1.355 . S
C1318 C1320 1.415 . S
C1319 C1318 1.355 . S
C1319 C1321 1.419 . S
C1320 C1318 1.415 . S
C1320 C1325 1.425 . S
C1320 C1327 1.409 . S
C1321 H1313 0.930 . S
C1321 C1319 1.419 . S
C1321 C1322 1.362 . S
C1322 H1314 0.930 . S
C1322 C1321 1.362 . S
C1322 C1325 1.409 . S
C1323 H1315 0.930 . S
C1323 C1324 1.355 . S
C1323 C1325 1.415 . S
C1324 C1323 1.355 . S
C1324 C1326 1.419 . S
C1325 C1320 1.425 . S
C1325 C1322 1.409 . S
C1325 C1323 1.415 . S
C1326 H1316 0.930 . S
C1326 C1324 1.419 . S
C1326 C1327 1.362 . S
C1327 H1317 0.930 . S
C1327 C1320 1.409 . S
C1327 C1326 1.362 . S
H1328 C1334 0.930 . S
H1329 C1337 0.930 . S
H1330 C1338 0.930 . S
H1331 C1339 0.930 . S
H1332 C1342 0.930 . S
H1333 C1343 0.930 . S
C1334 H1328 0.930 . S
C1334 C1335 1.355 . S
C1334 C1336 1.415 . S
C1335 C1334 1.355 . S
C1335 C1337 1.419 . S
C1336 C1334 1.415 . S
C1336 C1341 1.425 . S
C1336 C1343 1.409 . S
C1337 H1329 0.930 . S
C1337 C1335 1.419 . S
C1337 C1338 1.362 . S
C1338 H1330 0.930 . S
C1338 C1337 1.362 . S
C1338 C1341 1.409 . S
C1339 H1331 0.930 . S
C1339 C1340 1.355 . S
C1339 C1341 1.415 . S
C1340 C1339 1.355 . S
C1340 C1342 1.419 . S
C1341 C1336 1.425 . S
C1341 C1338 1.409 . S
C1341 C1339 1.415 . S
C1342 H1332 0.930 . S
C1342 C1340 1.419 . S
C1342 C1343 1.362 . S
C1343 H1333 0.930 . S
C1343 C1336 1.409 . S
C1343 C1342 1.362 . S
H1344 C1350 0.930 . S
H1345 C1353 0.930 . S
H1346 C1354 0.930 . S
H1347 C1355 0.930 . S
H1348 C1358 0.930 . S
H1349 C1359 0.930 . S
C1350 H1344 0.930 . S
C1350 C1351 1.355 . S
C1350 C1352 1.415 . S
C1351 C1350 1.355 . S
C1351 C1353 1.419 . S
C1352 C1350 1.415 . S
C1352 C1357 1.425 . S
C1352 C1359 1.409 . S
C1353 H1345 0.930 . S
C1353 C1351 1.419 . S
C1353 C1354 1.362 . S
C1354 H1346 0.930 . S
C1354 C1353 1.362 . S
C1354 C1357 1.409 . S
C1355 H1347 0.930 . S
C1355 C1356 1.355 . S
C1355 C1357 1.415 . S
C1356 C1355 1.355 . S
C1356 C1358 1.419 . S
C1357 C1352 1.425 . S
C1357 C1354 1.409 . S
C1357 C1355 1.415 . S
C1358 H1348 0.930 . S
C1358 C1356 1.419 . S
C1358 C1359 1.362 . S
C1359 H1349 0.930 . S
C1359 C1352 1.409 . S
C1359 C1358 1.362 . S
H1360 C1366 0.930 . S
H1361 C1369 0.930 . S
H1362 C1370 0.930 . S
H1363 C1371 0.930 . S
H1364 C1374 0.930 . S
H1365 C1375 0.930 . S
C1366 H1360 0.930 . S
C1366 C1367 1.355 . S
C1366 C1368 1.415 . S
C1367 C1366 1.355 . S
C1367 C1369 1.419 . S
C1368 C1366 1.415 . S
C1368 C1373 1.425 . S
C1368 C1375 1.409 . S
C1369 H1361 0.930 . S
C1369 C1367 1.419 . S
C1369 C1370 1.362 . S
C1370 H1362 0.930 . S
C1370 C1369 1.362 . S
C1370 C1373 1.409 . S
C1371 H1363 0.930 . S
C1371 C1372 1.355 . S
C1371 C1373 1.415 . S
C1372 C1371 1.355 . S
C1372 C1374 1.419 . S
C1373 C1368 1.425 . S
C1373 C1370 1.409 . S
C1373 C1371 1.415 . S
C1374 H1364 0.930 . S
C1374 C1372 1.419 . S
C1374 C1375 1.362 . S
C1375 H1365 0.930 . S
C1375 C1368 1.409 . S
C1375 C1374 1.362 . S
H1376 C1382 0.930 . S
H1377 C1385 0.930 . S
H1378 C1386 0.930 . S
H1379 C1387 0.930 . S
H1380 C1390 0.930 . S
H1381 C1391 0.930 . S
C1382 H1376 0.930 . S
C1382 C1383 1.355 . S
C1382 C1384 1.415 . S
C1383 C1382 1.355 . S
C1383 C1385 1.419 . S
C1384 C1382 1.415 . S
C1384 C1389 1.425 . S
C1384 C1391 1.409 . S
C1385 H1377 0.930 . S
C1385 C1383 1.419 . S
C1385 C1386 1.362 . S
C1386 H1378 0.930 . S
C1386 C1385 1.362 . S
C1386 C1389 1.409 . S
C1387 H1379 0.930 . S
C1387 C1388 1.355 . S
C1387 C1389 1.415 . S
C1388 C1387 1.355 . S
C1388 C1390 1.419 . S
C1389 C1384 1.425 . S
C1389 C1386 1.409 . S
C1389 C1387 1.415 . S
C1390 H1380 0.930 . S
C1390 C1388 1.419 . S
C1390 C1391 1.362 . S
C1391 H1381 0.930 . S
C1391 C1384 1.409 . S
C1391 C1390 1.362 . S
H1392 C1398 0.930 . S
H1393 C1401 0.930 . S
H1394 C1402 0.930 . S
H1395 C1403 0.930 . S
H1396 C1406 0.930 . S
H1397 C1407 0.930 . S
C1398 H1392 0.930 . S
C1398 C1399 1.355 . S
C1398 C1400 1.415 . S
C1399 C1398 1.355 . S
C1399 C1401 1.419 . S
C1400 C1398 1.415 . S
C1400 C1405 1.425 . S
C1400 C1407 1.409 . S
C1401 H1393 0.930 . S
C1401 C1399 1.419 . S
C1401 C1402 1.362 . S
C1402 H1394 0.930 . S
C1402 C1401 1.362 . S
C1402 C1405 1.409 . S
C1403 H1395 0.930 . S
C1403 C1404 1.355 . S
C1403 C1405 1.415 . S
C1404 C1403 1.355 . S
C1404 C1406 1.419 . S
C1405 C1400 1.425 . S
C1405 C1402 1.409 . S
C1405 C1403 1.415 . S
C1406 H1396 0.930 . S
C1406 C1404 1.419 . S
C1406 C1407 1.362 . S
C1407 H1397 0.930 . S
C1407 C1400 1.409 . S
C1407 C1406 1.362 . S
H1408 C1414 0.930 . S
H1409 C1417 0.930 . S
H1410 C1418 0.930 . S
H1411 C1419 0.930 . S
H1412 C1422 0.930 . S
H1413 C1423 0.930 . S
C1414 H1408 0.930 . S
C1414 C1415 1.355 . S
C1414 C1416 1.415 . S
C1415 C1414 1.355 . S
C1415 C1417 1.419 . S
C1416 C1414 1.415 . S
C1416 C1421 1.425 . S
C1416 C1423 1.409 . S
C1417 H1409 0.930 . S
C1417 C1415 1.419 . S
C1417 C1418 1.362 . S
C1418 H1410 0.930 . S
C1418 C1417 1.362 . S
C1418 C1421 1.409 . S
C1419 H1411 0.930 . S
C1419 C1420 1.355 . S
C1419 C1421 1.415 . S
C1420 C1419 1.355 . S
C1420 C1422 1.419 . S
C1421 C1416 1.425 . S
C1421 C1418 1.409 . S
C1421 C1419 1.415 . S
C1422 H1412 0.930 . S
C1422 C1420 1.419 . S
C1422 C1423 1.362 . S
C1423 H1413 0.930 . S
C1423 C1416 1.409 . S
C1423 C1422 1.362 . S
H1424 C1430 0.930 . S
H1425 C1433 0.930 . S
H1426 C1434 0.930 . S
H1427 C1435 0.930 . S
H1428 C1438 0.930 . S
H1429 C1439 0.930 . S
C1430 H1424 0.930 . S
C1430 C1431 1.355 . S
C1430 C1432 1.415 . S
C1431 C1430 1.355 . S
C1431 C1433 1.419 . S
C1432 C1430 1.415 . S
C1432 C1437 1.425 . S
C1432 C1439 1.409 . S
C1433 H1425 0.930 . S
C1433 C1431 1.419 . S
C1433 C1434 1.362 . S
C1434 H1426 0.930 . S
C1434 C1433 1.362 . S
C1434 C1437 1.409 . S
C1435 H1427 0.930 . S
C1435 C1436 1.355 . S
C1435 C1437 1.415 . S
C1436 C1435 1.355 . S
C1436 C1438 1.419 . S
C1437 C1432 1.425 . S
C1437 C1434 1.409 . S
C1437 C1435 1.415 . S
C1438 H1428 0.930 . S
C1438 C1436 1.419 . S
C1438 C1439 1.362 . S
C1439 H1429 0.930 . S
C1439 C1432 1.409 . S
C1439 C1438 1.362 . S
C423 C122 1.161 . S
C428 C5 1.183 . S
C439 C16 1.169 1_455 S
C444 C343 1.160 . S
C455 C146 1.115 . S
C460 C29 1.175 . S
C471 C317 1.180 . S
C476 C44 1.179 . S
C487 C57 1.182 . S
C492 C198 1.175 . S
C503 C369 1.136 . S
C508 C68 1.163 . S
C519 C81 1.160 . S
C524 C174 1.109 . S
C535 C395 1.177 . S
C540 C96 1.176 1_455 S
C551 C18 1.129 . S
C556 C109 1.178 . S
C567 C120 1.178 1_655 S
C572 C237 1.129 . S
C583 C42 1.114 . S
C588 C135 1.175 . S
C599 C148 1.162 . S
C604 C213 1.130 . S
C615 C159 1.175 . S
C620 C94 1.176 . S
C631 C265 1.169 . S
C636 C172 1.172 . S
C647 C187 1.160 . S
C652 C70 1.111 . S
C663 C289 1.125 . S
C668 C200 1.177 1_655 S
C679 C330 1.180 . S
C684 C211 1.181 . S
C695 C133 1.092 . S
C700 C226 1.167 . S
C711 C239 1.183 . S
C716 C354 1.168 . S
C727 C107 1.143 . S
C732 C252 1.165 1_655 S
C743 C408 1.115 . S
C748 C263 1.160 . S
C759 C276 1.163 1_655 S
C764 C161 1.136 . S
C775 C380 1.103 . S
C780 C291 1.172 . S
C791 C185 1.129 . S
C796 C302 1.162 . S
C807 C224 1.107 . S
C812 C315 1.173 . S
C823 C328 1.177 . S
C828 C31 1.123 . S
C839 C341 1.181 . S
C844 C250 1.148 . S
C855 C356 1.182 1_455 S
C860 C3 1.155 . S
C871 C304 1.118 . S
C876 C367 1.161 . S
C887 C382 1.167 1_455 S
C892 C55 1.151 . S
C903 C393 1.183 . S
C908 C278 1.171 . S
C919 C406 1.163 . S
C924 C83 1.132 . S
C935 C316 1.528 . S
C940 C10 1.528 . S
C951 C17 1.527 . S
C956 C121 1.527 . S
C967 C30 1.589 . S
C972 C342 1.589 . S
C983 C49 1.531 . S
C988 C153 1.531 . S
C999 C62 1.582 . S
C1004 C368 1.582 . S
C1015 C69 1.536 . S
C1020 C173 1.536 . S
C1031 C394 1.563 . S
C1036 C82 1.563 . S
C1047 C101 1.530 . S
C1052 C205 1.530 . S
C1063 C114 1.535 . S
C1068 C212 1.535 . S
C1079 C140 1.584 . S
C1084 C244 1.584 . S
C1095 C264 1.535 . S
C1100 C160 1.535 . S
C1111 C296 1.545 . S
C1116 C192 1.545 . S
C1127 C231 1.530 . S
C1132 C329 1.530 . S
C1143 C361 1.527 . S
C1148 C257 1.527 . S
C1159 C277 1.589 . S
C1164 C387 1.589 . S
C1175 C407 1.557 . S
C1180 C303 1.557 . S
C1191 C283 1.926 . S
C1196 C4 1.931 . S
C1207 C290 1.939 . S
C1212 C23 1.935 . S
C1223 C36 1.926 . S
C1228 C309 1.932 . S
C1239 C270 1.928 . S
C1244 C43 1.935 . S
C1255 C251 1.934 . S
C1260 C56 1.927 . S
C1271 C218 1.927 . S
C1276 C75 1.927 . S
C1287 C88 1.929 . S
C1292 C225 1.937 . S
C1303 C238 1.929 . S
C1308 C95 1.936 . S
C1319 C381 1.936 . S
C1324 C108 1.939 . S
C1335 C400 1.932 . S
C1340 C127 1.938 . S
C1351 C413 1.937 . S
C1356 C134 1.938 . S
C1367 C147 1.930 . S
C1372 C374 1.937 . S
C1383 C355 1.933 . S
C1388 C166 1.938 . S
C1399 C322 1.937 . S
C1404 C179 1.930 . S
C1415 C335 1.934 . S
C1420 C186 1.927 . S
C1431 C348 1.938 . S
C1436 C199 1.936 . S
