# Generated by pormake.
# Topology wlb, (5)-cn, num edge types: 1
# Building blocks:
#     Node 0, Type 0, BuildingBlock: XOMCOT_clean_sbu_1, # of connection points: 5
#     Node 1, Type 0, BuildingBlock: XOMCOT_clean_sbu_1, # of connection points: 5
#     Node 2, Type 0, BuildingBlock: XOMCOT_clean_sbu_1, # of connection points: 5
#     Node 3, Type 0, BuildingBlock: XOMCOT_clean_sbu_1, # of connection points: 5
#     Node 4, Type 0, BuildingBlock: XOMCOT_clean_sbu_1, # of connection points: 5
#     Node 5, Type 0, BuildingBlock: XOMCOT_clean_sbu_1, # of connection points: 5
#     Node 6, Type 0, BuildingBlock: XOMCOT_clean_sbu_1, # of connection points: 5
#     Node 7, Type 0, BuildingBlock: XOMCOT_clean_sbu_1, # of connection points: 5
#     Node 8, Type 0, BuildingBlock: XOMCOT_clean_sbu_1, # of connection points: 5
#     Node 9, Type 0, BuildingBlock: XOMCOT_clean_sbu_1, # of connection points: 5
#     Node 10, Type 0, BuildingBlock: XOMCOT_clean_sbu_1, # of connection points: 5
#     Node 11, Type 0, BuildingBlock: XOMCOT_clean_sbu_1, # of connection points: 5
#     Node 12, Type 0, BuildingBlock: XOMCOT_clean_sbu_1, # of connection points: 5
#     Node 13, Type 0, BuildingBlock: XOMCOT_clean_sbu_1, # of connection points: 5
#     Node 14, Type 0, BuildingBlock: XOMCOT_clean_sbu_1, # of connection points: 5
#     Node 15, Type 0, BuildingBlock: XOMCOT_clean_sbu_1, # of connection points: 5
#     Node 16, Type 0, BuildingBlock: XOMCOT_clean_sbu_1, # of connection points: 5
#     Node 17, Type 0, BuildingBlock: XOMCOT_clean_sbu_1, # of connection points: 5
#     Edge 18, Type (0, 0), BuildingBlock: XUDNAN_clean_linker_2, # of connection points: 2
#     Edge 19, Type (0, 0), BuildingBlock: XUDNAN_clean_linker_2, # of connection points: 2
#     Edge 20, Type (0, 0), BuildingBlock: XUDNAN_clean_linker_2, # of connection points: 2
#     Edge 21, Type (0, 0), BuildingBlock: XUDNAN_clean_linker_2, # of connection points: 2
#     Edge 22, Type (0, 0), BuildingBlock: XUDNAN_clean_linker_2, # of connection points: 2
#     Edge 23, Type (0, 0), BuildingBlock: XUDNAN_clean_linker_2, # of connection points: 2
#     Edge 24, Type (0, 0), BuildingBlock: XUDNAN_clean_linker_2, # of connection points: 2
#     Edge 25, Type (0, 0), BuildingBlock: XUDNAN_clean_linker_2, # of connection points: 2
#     Edge 26, Type (0, 0), BuildingBlock: XUDNAN_clean_linker_2, # of connection points: 2
#     Edge 27, Type (0, 0), BuildingBlock: XUDNAN_clean_linker_2, # of connection points: 2
#     Edge 28, Type (0, 0), BuildingBlock: XUDNAN_clean_linker_2, # of connection points: 2
#     Edge 29, Type (0, 0), BuildingBlock: XUDNAN_clean_linker_2, # of connection points: 2
#     Edge 30, Type (0, 0), BuildingBlock: XUDNAN_clean_linker_2, # of connection points: 2
#     Edge 31, Type (0, 0), BuildingBlock: XUDNAN_clean_linker_2, # of connection points: 2
#     Edge 32, Type (0, 0), BuildingBlock: XUDNAN_clean_linker_2, # of connection points: 2
#     Edge 33, Type (0, 0), BuildingBlock: XUDNAN_clean_linker_2, # of connection points: 2
#     Edge 34, Type (0, 0), BuildingBlock: XUDNAN_clean_linker_2, # of connection points: 2
#     Edge 35, Type (0, 0), BuildingBlock: XUDNAN_clean_linker_2, # of connection points: 2
#     Edge 36, Type (0, 0), BuildingBlock: XUDNAN_clean_linker_2, # of connection points: 2
#     Edge 37, Type (0, 0), BuildingBlock: XUDNAN_clean_linker_2, # of connection points: 2
#     Edge 38, Type (0, 0), BuildingBlock: XUDNAN_clean_linker_2, # of connection points: 2
#     Edge 39, Type (0, 0), BuildingBlock: XUDNAN_clean_linker_2, # of connection points: 2
#     Edge 40, Type (0, 0), BuildingBlock: XUDNAN_clean_linker_2, # of connection points: 2
#     Edge 41, Type (0, 0), BuildingBlock: XUDNAN_clean_linker_2, # of connection points: 2
#     Edge 42, Type (0, 0), BuildingBlock: XUDNAN_clean_linker_2, # of connection points: 2
#     Edge 43, Type (0, 0), BuildingBlock: XUDNAN_clean_linker_2, # of connection points: 2
#     Edge 44, Type (0, 0), BuildingBlock: XUDNAN_clean_linker_2, # of connection points: 2
#     Edge 45, Type (0, 0), BuildingBlock: XUDNAN_clean_linker_2, # of connection points: 2
#     Edge 46, Type (0, 0), BuildingBlock: XUDNAN_clean_linker_2, # of connection points: 2
#     Edge 47, Type (0, 0), BuildingBlock: XUDNAN_clean_linker_2, # of connection points: 2
#     Edge 48, Type (0, 0), BuildingBlock: XUDNAN_clean_linker_2, # of connection points: 2
#     Edge 49, Type (0, 0), BuildingBlock: XUDNAN_clean_linker_2, # of connection points: 2
#     Edge 50, Type (0, 0), BuildingBlock: XUDNAN_clean_linker_2, # of connection points: 2
#     Edge 51, Type (0, 0), BuildingBlock: XUDNAN_clean_linker_2, # of connection points: 2
#     Edge 52, Type (0, 0), BuildingBlock: XUDNAN_clean_linker_2, # of connection points: 2
#     Edge 53, Type (0, 0), BuildingBlock: XUDNAN_clean_linker_2, # of connection points: 2
#     Edge 54, Type (0, 0), BuildingBlock: XUDNAN_clean_linker_2, # of connection points: 2
#     Edge 55, Type (0, 0), BuildingBlock: XUDNAN_clean_linker_2, # of connection points: 2
#     Edge 56, Type (0, 0), BuildingBlock: XUDNAN_clean_linker_2, # of connection points: 2
#     Edge 57, Type (0, 0), BuildingBlock: XUDNAN_clean_linker_2, # of connection points: 2
#     Edge 58, Type (0, 0), BuildingBlock: XUDNAN_clean_linker_2, # of connection points: 2
#     Edge 59, Type (0, 0), BuildingBlock: XUDNAN_clean_linker_2, # of connection points: 2
#     Edge 60, Type (0, 0), BuildingBlock: XUDNAN_clean_linker_2, # of connection points: 2
#     Edge 61, Type (0, 0), BuildingBlock: XUDNAN_clean_linker_2, # of connection points: 2
#     Edge 62, Type (0, 0), BuildingBlock: XUDNAN_clean_linker_2, # of connection points: 2
# Relax obj value: 0.337
# Max RMSD: 0.210
# Mean RMSD: 0.210
data_MOF--net-wlb--node1-XOMCOT_clean_sbu_1--edge1-XUDNAN_clean_linker_2
_symmetry_space_group_name_H-M    P1
_symmetry_Int_Tables_number       1
_symmetry_cell_setting            triclinic
loop_
_symmetry_equiv_pos_as_xyz
'x, y, z'
_cell_length_a     52.001364
_cell_length_b     51.960477
_cell_length_c     39.810508
_cell_angle_alpha  89.960753
_cell_angle_beta   90.031118
_cell_angle_gamma 119.98515
loop_
_atom_site_label
_atom_site_type_symbol
_atom_site_fract_x
_atom_site_fract_y
_atom_site_fract_z
_atom_type_partial_charge
C0 C 0.12211 0.21021 0.22109 0.0
C1 C 0.13704 0.19515 0.22805 0.0
N2 N 0.11724 0.16764 0.23891 0.0
N3 N 0.09299 0.19245 0.22758 0.0
C4 C 0.09079 0.1667 0.2384 0.0
H5 H 0.13186 0.23255 0.2113 0.0
Co6 Co 0.06369 0.20295 0.2204 0.0
C7 C 0.01949 0.14504 0.26069 0.0
O8 O 0.02959 0.14836 0.29156 0.0
N9 N 0.03443 0.21386 0.21348 0.0
C10 C 0.99138 0.21327 0.21089 0.0
C11 C 1.00489 0.19731 0.21917 0.0
C12 C 0.03827 0.24022 0.20235 0.0
N13 N 0.01234 0.24023 0.20032 0.0
O14 O 0.07265 0.22279 0.26313 0.0
H15 H 0.99341 0.17517 0.22931 0.0
H16 H 0.05953 0.25887 0.19528 0.0
O17 O 0.03342 0.16544 0.23899 0.0
C18 C 0.09177 0.25034 0.25952 0.0
O19 O 0.10298 0.25982 0.22948 0.0
N20 N 0.05636 0.18573 0.17742 0.0
C21 C 0.04345 0.16357 0.11183 0.0
C22 C 0.04032 0.14495 0.13899 0.0
C23 C 0.0469 0.15644 0.17155 0.0
C24 C 0.06153 0.20458 0.15121 0.0
C25 C 0.05476 0.19394 0.11833 0.0
H26 H 0.04397 0.14155 0.19195 0.0
H27 H 0.07038 0.22799 0.15587 0.0
H28 H 0.07007 0.14707 0.24443 0.0
H29 H 0.16064 0.20386 0.22506 0.0
H30 H 0.96792 0.20582 0.21307 0.0
H31 H 0.03266 0.12158 0.13528 0.0
H32 H 0.05761 0.20935 0.09844 0.0
C33 C 0.80357 0.90771 0.20542 0.0
C34 C 0.81914 0.93821 0.20339 0.0
N35 N 0.84483 0.94828 0.22041 0.0
N36 N 0.81935 0.8985 0.2235 0.0
C37 C 0.84423 0.92375 0.2327 0.0
H38 H 0.78253 0.89305 0.19349 0.0
Co39 Co 0.80789 0.85865 0.22913 0.0
C40 C 0.86226 0.85702 0.24497 0.0
O41 O 0.8515 0.83373 0.22508 0.0
N42 N 0.795 0.81779 0.23617 0.0
C43 C 0.78455 0.77751 0.26628 0.0
C44 C 0.7991 0.80791 0.26604 0.0
C45 C 0.77684 0.79252 0.21909 0.0
N46 N 0.77039 0.76776 0.23677 0.0
O47 O 0.78952 0.85797 0.27108 0.0
H48 H 0.81141 0.82204 0.28691 0.0
H49 H 0.7669 0.79183 0.19514 0.0
O50 O 0.8469 0.86976 0.25045 0.0
C51 C 0.76172 0.84711 0.26594 0.0
O52 O 0.75206 0.84162 0.23479 0.0
N53 N 0.82344 0.85926 0.18597 0.0
C54 C 0.84223 0.86178 0.11943 0.0
C55 C 0.86213 0.87992 0.14441 0.0
C56 C 0.85229 0.87853 0.17729 0.0
C57 C 0.80329 0.84368 0.16152 0.0
C58 C 0.81227 0.84364 0.12848 0.0
H59 H 0.86787 0.89377 0.19544 0.0
H60 H 0.77991 0.83201 0.16732 0.0
H61 H 0.8623 0.92417 0.24656 0.0
H62 H 0.81235 0.95185 0.18976 0.0
H63 H 0.78417 0.76373 0.28687 0.0
H64 H 0.88505 0.89577 0.13864 0.0
H65 H 0.79564 0.82964 0.11035 0.0
C66 C 0.10147 0.90966 0.19264 0.0
C67 C 0.07177 0.89877 0.19867 0.0
N68 N 0.06906 0.91578 0.22238 0.0
N69 N 0.11753 0.93339 0.21248 0.0
C70 C 0.09717 0.93662 0.23034 0.0
H71 H 0.11081 0.90111 0.17454 0.0
Co72 Co 0.15887 0.95549 0.21204 0.0
C73 C 0.17417 0.01536 0.23518 0.0
O74 O 0.1961 0.02574 0.21343 0.0
N75 N 0.20108 0.97707 0.21245 0.0
C76 C 0.24671 0.99976 0.23433 0.0
C77 C 0.21702 0.98795 0.24102 0.0
C78 C 0.22185 0.98205 0.18887 0.0
N79 N 0.24973 0.99594 0.20147 0.0
O80 O 0.1605 0.93427 0.25094 0.0
H81 H 0.20751 0.98686 0.2655 0.0
H82 H 0.21698 0.97535 0.16302 0.0
O83 O 0.15788 0.98714 0.23899 0.0
C84 C 0.16318 0.91299 0.23871 0.0
O85 O 0.16161 0.90971 0.2059 0.0
N86 N 0.15659 0.97311 0.17151 0.0
C87 C 0.1519 0.99255 0.1074 0.0
C88 C 0.14135 1.00042 0.13582 0.0
C89 C 0.14332 0.98996 0.16754 0.0
C90 C 0.16403 0.96282 0.1439 0.0
C91 C 0.16291 0.97301 0.11183 0.0
H92 H 0.1333 0.99474 0.18857 0.0
H93 H 0.17064 0.94626 0.14675 0.0
H94 H 0.10273 0.95377 0.2489 0.0
H95 H 0.05356 0.88023 0.18589 0.0
H96 H 0.26456 0.00944 0.25251 0.0
H97 H 0.13099 0.01397 0.13358 0.0
H98 H 0.1708 0.96562 0.09086 0.0
C99 C 0.21693 0.11929 0.74547 0.0
C100 C 0.20213 0.13485 0.74233 0.0
N101 N 0.17304 0.11618 0.74816 0.0
N102 N 0.1974 0.09075 0.75298 0.0
C103 C 0.17081 0.0896 0.75496 0.0
H104 H 0.24053 0.12827 0.74222 0.0
Co105 Co 0.2082 0.06158 0.75855 0.0
C106 C 0.14901 0.02429 0.71973 0.0
O107 O 0.14816 0.04445 0.7006 0.0
N108 N 0.21919 0.03258 0.76364 0.0
C109 C 0.22519 0.99409 0.75209 0.0
C110 C 0.21218 0.01011 0.74188 0.0
C111 C 0.23729 0.03033 0.78641 0.0
N112 N 0.24107 0.0069 0.77994 0.0
O113 O 0.22806 0.07209 0.71567 0.0
H114 H 0.1995 1.00638 0.71908 0.0
H115 H 0.24796 0.04587 0.80681 0.0
O116 O 0.17075 0.03137 0.73964 0.0
C117 C 0.25614 0.0865 0.72059 0.0
O118 O 0.26595 0.09141 0.75169 0.0
N119 N 0.19168 0.05328 0.80149 0.0
C120 C 0.17447 0.04587 0.86879 0.0
C121 C 0.15933 0.02273 0.84554 0.0
C122 C 0.16844 0.0268 0.81196 0.0
C123 C 0.20668 0.0759 0.82364 0.0
C124 C 0.19841 0.07274 0.85733 0.0
H125 H 0.15723 0.00843 0.79474 0.0
H126 H 0.22561 0.09639 0.81511 0.0
H127 H 0.15026 0.06975 0.76147 0.0
H128 H 0.21203 0.15806 0.73554 0.0
H129 H 0.22431 0.97534 0.73913 0.0
H130 H 0.14077 1.00159 0.85324 0.0
H131 H 0.21131 0.09093 0.87441 0.0
C132 C 0.90367 0.09555 0.75474 0.0
C133 C 0.893 0.06573 0.75003 0.0
N134 N 0.915 0.05986 0.75649 0.0
N135 N 0.93247 0.10881 0.76389 0.0
C136 C 0.93852 0.0863 0.76543 0.0
H137 H 0.89113 0.10673 0.7509 0.0
Co138 Co 0.95855 0.14982 0.77055 0.0
C139 C 0.9949 0.13377 0.72286 0.0
O140 O 0.97321 0.11304 0.70497 0.0
N141 N 0.98458 0.19046 0.77633 0.0
C142 C 0.01826 0.23698 0.76405 0.0
C143 C 1.00466 0.20812 0.75327 0.0
C144 C 0.98608 0.20916 0.80082 0.0
N145 N 1.00646 0.23781 0.79388 0.0
O146 O 0.94242 0.15938 0.73174 0.0
H147 H 1.0086 0.20068 0.72948 0.0
H148 H 0.97172 0.20193 0.82261 0.0
O149 O 0.98944 0.14739 0.74591 0.0
C150 C 0.92387 0.16567 0.74527 0.0
O151 O 0.92 0.16217 0.77796 0.0
N152 N 0.97205 0.14176 0.81044 0.0
C153 C 0.98695 0.13232 0.87475 0.0
C154 C 1.00878 0.14544 0.84971 0.0
C155 C 1.00086 0.15007 0.81758 0.0
C156 C 0.95068 0.12922 0.83448 0.0
C157 C 0.95756 0.12404 0.86667 0.0
H158 H 0.01801 0.16113 0.79889 0.0
H159 H 0.92817 0.12375 0.82876 0.0
H160 H 0.96002 0.08946 0.77237 0.0
H161 H 0.87095 0.04986 0.74129 0.0
H162 H 0.03543 0.25586 0.75062 0.0
H163 H 0.03177 0.15236 0.855 0.0
H164 H 0.94015 0.1146 0.8854 0.0
C165 C 0.9238 0.81399 0.80731 0.0
C166 C 0.95418 0.83116 0.80483 0.0
N167 N 0.96069 0.84857 0.77742 0.0
N168 N 0.91119 0.82046 0.78153 0.0
C169 C 0.93425 0.84158 0.76368 0.0
H170 H 0.91161 0.7979 0.82675 0.0
Co171 Co 0.87051 0.8032 0.77381 0.0
C172 C 0.86257 0.8519 0.74818 0.0
O173 O 0.83715 0.83957 0.76437 0.0
N174 N 0.82917 0.78503 0.76462 0.0
C175 C 0.78879 0.76622 0.73216 0.0
C176 C 0.81919 0.78189 0.73262 0.0
C177 C 0.80397 0.77087 0.78319 0.0
N178 N 0.77924 0.75934 0.76398 0.0
O179 O 0.87369 0.7825 0.73546 0.0
H180 H 0.83325 0.79051 0.7107 0.0
H181 H 0.80326 0.76816 0.81006 0.0
O182 O 0.87791 0.83877 0.74776 0.0
C183 C 0.87064 0.7582 0.74712 0.0
O184 O 0.87058 0.75521 0.77992 0.0
N185 N 0.86748 0.82052 0.81401 0.0
C186 C 0.869 0.8402 0.8794 0.0
C187 C 0.88381 0.86062 0.85361 0.0
C188 C 0.88305 0.8503 0.82101 0.0
C189 C 0.85446 0.80052 0.8394 0.0
C190 C 0.85407 0.80985 0.8721 0.0
H191 H 0.89663 0.86619 0.80211 0.0
H192 H 0.84559 0.77712 0.83456 0.0
H193 H 0.93181 0.85126 0.7407 0.0
H194 H 0.97025 0.83113 0.8221 0.0
H195 H 0.77477 0.76053 0.71013 0.0
H196 H 0.89671 0.8842 0.85887 0.0
H197 H 0.84369 0.79349 0.89187 0.0
C198 C 0.77186 0.53378 0.54249 0.0
C199 C 0.78724 0.51873 0.54599 0.0
N200 N 0.77369 0.49765 0.56973 0.0
N201 N 0.74874 0.52228 0.56393 0.0
C202 C 0.75042 0.50029 0.58022 0.0
H203 H 0.77744 0.55231 0.52584 0.0
Co204 Co 0.72303 0.53694 0.57051 0.0
C205 C 0.66536 0.48476 0.58792 0.0
O206 O 0.65301 0.4973 0.57064 0.0
N207 N 0.69752 0.55266 0.57862 0.0
C208 C 0.67081 0.56646 0.60962 0.0
C209 C 0.68584 0.55108 0.60941 0.0
C210 C 0.68955 0.56976 0.56066 0.0
N211 N 0.67321 0.57837 0.57898 0.0
O212 O 0.74277 0.55444 0.61217 0.0
H213 H 0.68835 0.53956 0.63068 0.0
H214 H 0.69638 0.57685 0.53515 0.0
O215 O 0.69368 0.49869 0.59163 0.0
C216 C 0.76025 0.58193 0.60561 0.0
O217 O 0.76156 0.59104 0.57451 0.0
N218 N 0.70704 0.52292 0.52747 0.0
C219 C 0.69586 0.50905 0.45947 0.0
C220 C 0.68654 0.48643 0.48341 0.0
C221 C 0.69319 0.49386 0.5173 0.0
C222 C 0.71697 0.54506 0.50414 0.0
C223 C 0.71134 0.53865 0.47002 0.0
H224 H 0.68876 0.47624 0.53475 0.0
H225 H 0.73083 0.56789 0.5119 0.0
H226 H 0.73567 0.48724 0.60033 0.0
H227 H 0.80698 0.52308 0.53226 0.0
H228 H 0.65898 0.5686 0.63079 0.0
H229 H 0.67581 0.46335 0.47579 0.0
H230 H 0.7199 0.55664 0.45193 0.0
C231 C 0.49094 0.24049 0.52147 0.0
C232 C 0.50865 0.27067 0.52614 0.0
N233 N 0.52544 0.27519 0.55371 0.0
N234 N 0.49648 0.22606 0.54603 0.0
C235 C 0.51746 0.24781 0.56539 0.0
H236 H 0.47529 0.22971 0.50123 0.0
Co237 Co 0.47886 0.18492 0.55072 0.0
C238 C 0.52708 0.17598 0.57723 0.0
O239 O 0.51558 0.15106 0.56008 0.0
N240 N 0.46026 0.14316 0.55668 0.0
C241 C 0.43936 0.10099 0.58613 0.0
C242 C 0.45705 0.13124 0.58769 0.0
C243 C 0.44392 0.1193 0.53662 0.0
N244 N 0.43109 0.0935 0.55402 0.0
O245 O 0.45661 0.18588 0.58882 0.0
H246 H 0.46638 0.14396 0.61041 0.0
H247 H 0.43991 0.12052 0.51025 0.0
O248 O 0.51334 0.19075 0.578 0.0
C249 C 0.43266 0.18281 0.57607 0.0
O250 O 0.43099 0.18364 0.54318 0.0
N251 N 0.49774 0.18407 0.51082 0.0
C252 C 0.51973 0.18456 0.44684 0.0
C253 C 0.53915 0.19774 0.47395 0.0
C254 C 0.52773 0.19812 0.50557 0.0
C255 C 0.47882 0.17311 0.48421 0.0
C256 C 0.48922 0.17258 0.45213 0.0
H257 H 0.54315 0.21074 0.52526 0.0
H258 H 0.45548 0.16542 0.48777 0.0
H259 H 0.52655 0.24376 0.58787 0.0
H260 H 0.50966 0.28792 0.50999 0.0
H261 H 0.43262 0.08569 0.6071 0.0
H262 H 0.56297 0.20854 0.47048 0.0
H263 H 0.4735 0.16291 0.43167 0.0
C264 C 0.78031 0.2456 0.56939 0.0
C265 C 0.74978 0.23123 0.56933 0.0
N266 N 0.7412 0.25181 0.56864 0.0
N267 N 0.79115 0.27518 0.56902 0.0
C268 C 0.7668 0.27824 0.56762 0.0
H269 H 0.7937 0.23509 0.57108 0.0
Co270 Co 0.83124 0.30406 0.57433 0.0
C271 C 0.80321 0.33129 0.62049 0.0
O272 O 0.78188 0.30738 0.6349 0.0
N273 N 0.87109 0.33278 0.58025 0.0
C274 C 0.91245 0.36567 0.60596 0.0
C275 C 0.8822 0.34888 0.60853 0.0
C276 C 0.89509 0.34005 0.5608 0.0
N277 N 0.92066 0.36 0.57606 0.0
O278 O 0.8336 0.28415 0.61406 0.0
H279 H 0.86923 0.34769 0.63031 0.0
H280 H 0.8939 0.32993 0.53667 0.0
O281 O 0.82038 0.32925 0.59918 0.0
C282 C 0.84762 0.27042 0.60709 0.0
O283 O 0.85639 0.27118 0.57595 0.0
N284 N 0.83028 0.32209 0.53417 0.0
C285 C 0.83526 0.34671 0.4705 0.0
C286 C 0.83593 0.36238 0.49956 0.0
C287 C 0.8338 0.34986 0.5312 0.0
C288 C 0.82885 0.30622 0.50635 0.0
C289 C 0.8313 0.31808 0.47427 0.0
H290 H 0.83602 0.36303 0.55309 0.0
H291 H 0.82682 0.28457 0.50921 0.0
H292 H 0.76784 0.29954 0.56681 0.0
H293 H 0.73515 0.20748 0.5715 0.0
H294 H 0.92728 0.38062 0.62495 0.0
H295 H 0.83868 0.38442 0.49799 0.0
H296 H 0.83129 0.30533 0.45277 0.0
C297 C 0.87796 0.45725 0.1348 0.0
C298 C 0.85925 0.46846 0.12974 0.0
N299 N 0.83818 0.45099 0.10738 0.0
N300 N 0.86875 0.4327 0.11592 0.0
C301 C 0.84472 0.42962 0.09923 0.0
H302 H 0.89662 0.46594 0.15189 0.0
Co303 Co 0.88514 0.40796 0.11597 0.0
C304 C 0.83352 0.34707 0.10995 0.0
O305 O 0.84645 0.33823 0.13181 0.0
N306 N 0.90214 0.38311 0.11474 0.0
C307 C 0.91361 0.35084 0.09229 0.0
C308 C 0.89865 0.36599 0.0876 0.0
C309 C 0.92027 0.37847 0.1353 0.0
N310 N 0.9272 0.35868 0.12228 0.0
O311 O 0.89879 0.41943 0.07092 0.0
H312 H 0.8857 0.3644 0.06563 0.0
H313 H 0.92819 0.38894 0.15941 0.0
O314 O 0.84665 0.37439 0.10083 0.0
C315 C 0.92407 0.44317 0.07083 0.0
O316 O 0.93354 0.45837 0.0989 0.0
N317 N 0.87464 0.39959 0.16149 0.0
C318 C 0.86658 0.39752 0.23098 0.0
C319 C 0.84206 0.38398 0.2093 0.0
C320 C 0.84654 0.38596 0.17451 0.0
C321 C 0.8985 0.41415 0.1822 0.0
C322 C 0.89508 0.41292 0.21695 0.0
H323 H 0.82739 0.37756 0.1583 0.0
H324 H 0.9204 0.42748 0.17152 0.0
H325 H 0.83215 0.41191 0.0816 0.0
H326 H 0.86055 0.4874 0.14262 0.0
H327 H 0.91467 0.33542 0.07484 0.0
H328 H 0.81963 0.37295 0.21909 0.0
H329 H 0.91465 0.42414 0.23265 0.0
C330 C 0.56675 0.42594 0.12446 0.0
C331 C 0.55533 0.39621 0.11788 0.0
N332 N 0.57372 0.39314 0.09644 0.0
N333 N 0.59234 0.44169 0.10749 0.0
C334 C 0.59589 0.4212 0.09037 0.0
H335 H 0.55752 0.43548 0.1414 0.0
Co336 Co 0.61668 0.48256 0.11152 0.0
C337 C 0.67805 0.49519 0.09841 0.0
O338 O 0.68712 0.51591 0.1216 0.0
N339 N 0.6407 0.5245 0.11484 0.0
C340 C 0.67128 0.57122 0.0988 0.0
C341 C 0.65647 0.54204 0.08883 0.0
C342 C 0.64554 0.54394 0.13999 0.0
N343 N 0.66448 0.57246 0.13117 0.0
O344 O 0.60362 0.48828 0.06866 0.0
H345 H 0.65767 0.534 0.06414 0.0
H346 H 0.63507 0.53765 0.16418 0.0
O347 O 0.65032 0.4802 0.09104 0.0
C348 C 0.58285 0.49449 0.07134 0.0
O349 O 0.57123 0.49267 0.10116 0.0
N350 N 0.62721 0.47646 0.15505 0.0
C351 C 0.64241 0.47238 0.22125 0.0
C352 C 0.65164 0.46109 0.19475 0.0
C353 C 0.64314 0.46265 0.16188 0.0
C354 C 0.61452 0.48341 0.18079 0.0
C355 C 0.62248 0.48243 0.21407 0.0
H356 H 0.64952 0.45277 0.14213 0.0
H357 H 0.59888 0.49083 0.17533 0.0
H358 H 0.61448 0.42675 0.074 0.0
H359 H 0.53556 0.37829 0.12919 0.0
H360 H 0.68634 0.58987 0.0834 0.0
H361 H 0.66548 0.45134 0.19932 0.0
H362 H 0.61395 0.49052 0.23371 0.0
C363 C 0.59166 0.13876 0.10162 0.0
C364 C 0.62186 0.15779 0.10077 0.0
N365 N 0.62699 0.1855 0.0947 0.0
N366 N 0.57766 0.15424 0.09598 0.0
C367 C 0.59977 0.18268 0.09202 0.0
H368 H 0.58063 0.1151 0.10619 0.0
Co369 Co 0.53649 0.13776 0.09507 0.0
C370 C 0.52554 0.18758 0.08079 0.0
O371 O 0.50229 0.17465 0.10067 0.0
N372 N 0.49465 0.12017 0.09321 0.0
C373 C 0.45054 0.10199 0.06836 0.0
C374 C 0.48056 0.11954 0.06434 0.0
C375 C 0.47236 0.10262 0.11455 0.0
N376 N 0.44543 0.09138 0.09986 0.0
O377 O 0.53488 0.12118 0.05159 0.0
H378 H 0.49157 0.13063 0.04132 0.0
H379 H 0.47556 0.09682 0.13964 0.0
O380 O 0.54119 0.17513 0.07572 0.0
C381 C 0.52688 0.09376 0.05553 0.0
O382 O 0.52482 0.08377 0.08633 0.0
N383 N 0.5382 0.15089 0.1392 0.0
C384 C 0.54517 0.16238 0.20785 0.0
C385 C 0.55242 0.18547 0.18494 0.0
C386 C 0.54961 0.1794 0.1505 0.0
C387 C 0.5318 0.12845 0.16128 0.0
C388 C 0.53493 0.13363 0.19574 0.0
H389 H 0.5579 0.19788 0.13335 0.0
H390 H 0.52488 0.1064 0.1519 0.0
H391 H 0.59603 0.2011 0.08813 0.0
H392 H 0.63867 0.15153 0.10404 0.0
H393 H 0.43372 0.09693 0.04942 0.0
H394 H 0.56134 0.20814 0.19355 0.0
H395 H 0.52956 0.11535 0.21277 0.0
C396 C 0.44915 0.86784 0.86302 0.0
C397 C 0.4645 0.8541 0.87346 0.0
N398 N 0.45126 0.8381 0.90118 0.0
N399 N 0.42552 0.85995 0.88331 0.0
C400 C 0.42869 0.84326 0.90746 0.0
H401 H 0.45523 0.88254 0.84174 0.0
Co402 Co 0.39509 0.8703 0.88021 0.0
C403 C 0.3609 0.80636 0.8995 0.0
O404 O 0.3765 0.80116 0.87734 0.0
N405 N 0.36589 0.88121 0.87839 0.0
C406 C 0.32707 0.88617 0.89152 0.0
C407 C 0.34279 0.87232 0.89972 0.0
C408 C 0.36428 0.90122 0.85802 0.0
N409 N 0.34067 0.90441 0.86544 0.0
O410 O 0.41046 0.89387 0.92022 0.0
H411 H 0.33832 0.85777 0.92094 0.0
H412 H 0.38029 0.91345 0.8385 0.0
O413 O 0.36683 0.83322 0.90461 0.0
C414 C 0.42812 0.9193 0.90732 0.0
O415 O 0.43253 0.9207 0.87469 0.0
N416 N 0.3817 0.85118 0.83829 0.0
C417 C 0.36673 0.82972 0.77277 0.0
C418 C 0.34592 0.81699 0.79879 0.0
C419 C 0.3536 0.82862 0.83129 0.0
C420 C 0.40073 0.86571 0.81255 0.0
C421 C 0.39414 0.85491 0.77985 0.0
H422 H 0.3367 0.81982 0.85049 0.0
H423 H 0.42067 0.88658 0.81708 0.0
H424 H 0.41408 0.83419 0.92887 0.0
H425 H 0.48314 0.85479 0.86056 0.0
H426 H 0.30787 0.88407 0.90465 0.0
H427 H 0.32392 0.79838 0.79409 0.0
H428 H 0.41003 0.86679 0.76007 0.0
C429 C 0.13963 0.57957 0.86756 0.0
C430 C 0.15547 0.60994 0.87189 0.0
N431 N 0.17993 0.61671 0.89 0.0
N432 N 0.15396 0.56729 0.88307 0.0
C433 C 0.17847 0.59053 0.89647 0.0
H434 H 0.11896 0.56719 0.854 0.0
Co435 Co 0.14074 0.52674 0.88589 0.0
C436 C 0.19467 0.52263 0.89638 0.0
O437 O 0.18307 0.50008 0.8754 0.0
N438 N 0.1266 0.48541 0.89045 0.0
C439 C 0.11537 0.44437 0.9194 0.0
C440 C 0.13122 0.47471 0.91944 0.0
C441 C 0.10721 0.46064 0.87327 0.0
N442 N 0.10009 0.43545 0.89049 0.0
O443 O 0.12446 0.52525 0.92958 0.0
H444 H 0.14462 0.48827 0.94012 0.0
H445 H 0.09708 0.46076 0.84966 0.0
O446 O 0.17992 0.53555 0.904 0.0
C447 C 0.09742 0.51783 0.9241 0.0
O448 O 0.08896 0.51694 0.89283 0.0
N449 N 0.15333 0.52792 0.84126 0.0
C450 C 0.16412 0.5338 0.77212 0.0
C451 C 0.18766 0.54743 0.79503 0.0
C452 C 0.18172 0.54493 0.82956 0.0
C453 C 0.13024 0.51539 0.81921 0.0
C454 C 0.13511 0.51758 0.78464 0.0
H455 H 0.19984 0.55789 0.84655 0.0
H456 H 0.10773 0.50489 0.82848 0.0
H457 H 0.19477 0.58845 0.91124 0.0
H458 H 0.14973 0.62584 0.86205 0.0
H459 H 0.11481 0.42998 0.93939 0.0
H460 H 0.21027 0.56116 0.78633 0.0
H461 H 0.11622 0.50724 0.76784 0.0
C462 C 0.44132 0.57239 0.89162 0.0
C463 C 0.41126 0.55943 0.89668 0.0
N464 N 0.40483 0.58089 0.90435 0.0
N465 N 0.4541 0.60192 0.89626 0.0
C466 C 0.43133 0.60644 0.90414 0.0
H467 H 0.45304 0.56094 0.88456 0.0
Co468 Co 0.49461 0.62825 0.89039 0.0
C469 C 0.50553 0.68751 0.91095 0.0
O470 O 0.52514 0.69829 0.88655 0.0
N471 N 0.53621 0.65411 0.8852 0.0
C472 C 0.58346 0.68157 0.90109 0.0
C473 C 0.55446 0.66793 0.91147 0.0
C474 C 0.55499 0.65944 0.85915 0.0
N475 N 0.58387 0.67616 0.86809 0.0
O476 O 0.50333 0.61201 0.92973 0.0
H477 H 0.54709 0.66735 0.93701 0.0
H478 H 0.54791 0.6506 0.83429 0.0
O479 O 0.49153 0.65937 0.91652 0.0
C480 C 0.51235 0.59495 0.91809 0.0
O481 O 0.51127 0.59087 0.88541 0.0
N482 N 0.48584 0.64098 0.84969 0.0
C483 C 0.4739 0.6539 0.78513 0.0
C484 C 0.46506 0.6632 0.81387 0.0
C485 C 0.47101 0.65634 0.84585 0.0
C486 C 0.49171 0.62917 0.82225 0.0
C487 C 0.487 0.63617 0.78985 0.0
H488 H 0.46303 0.66298 0.86723 0.0
H489 H 0.50054 0.6144 0.82555 0.0
H490 H 0.434 0.62812 0.90861 0.0
H491 H 0.39546 0.53594 0.89467 0.0
H492 H 0.60271 0.69336 0.9171 0.0
H493 H 0.45329 0.67541 0.81188 0.0
H494 H 0.49409 0.62799 0.7689 0.0
C495 C 0.53999 0.77837 0.42362 0.0
C496 C 0.52154 0.78973 0.41756 0.0
N497 N 0.49335 0.76814 0.42318 0.0
N498 N 0.52355 0.74962 0.43287 0.0
C499 C 0.49528 0.74429 0.43305 0.0
H500 H 0.56383 0.7903 0.42071 0.0
Co501 Co 0.53682 0.72262 0.44169 0.0
C502 C 0.48425 0.68566 0.3942 0.0
O503 O 0.4862 0.70679 0.37439 0.0
N504 N 0.54969 0.69542 0.44978 0.0
C505 C 0.56035 0.65971 0.44043 0.0
C506 C 0.547 0.6746 0.42764 0.0
C507 C 0.5651 0.69303 0.47578 0.0
N508 N 0.57199 0.67138 0.47068 0.0
O509 O 0.56257 0.73654 0.40278 0.0
H510 H 0.53659 0.67088 0.40325 0.0
H511 H 0.57185 0.70752 0.49745 0.0
O512 O 0.50294 0.69164 0.41784 0.0
C513 C 0.58775 0.75413 0.41627 0.0
O514 O 0.58825 0.75887 0.44879 0.0
N515 N 0.51528 0.71151 0.48161 0.0
C516 C 0.49162 0.70092 0.54629 0.0
C517 C 0.4805 0.67809 0.52219 0.0
C518 C 0.49278 0.68381 0.48987 0.0
C519 C 0.52634 0.73382 0.50464 0.0
C520 C 0.51478 0.72909 0.53699 0.0
H521 H 0.4848 0.66582 0.47197 0.0
H522 H 0.54481 0.75535 0.49796 0.0
H523 H 0.47636 0.72309 0.43983 0.0
H524 H 0.52833 0.81188 0.40854 0.0
H525 H 0.56136 0.64168 0.42814 0.0
H526 H 0.46278 0.65596 0.52837 0.0
H527 H 0.52472 0.74716 0.55491 0.0
C528 C 0.22354 0.75335 0.44219 0.0
C529 C 0.20959 0.72345 0.43515 0.0
N530 N 0.22786 0.71821 0.416 0.0
N531 N 0.25048 0.76699 0.42756 0.0
C532 C 0.25249 0.74502 0.41169 0.0
H533 H 0.21473 0.76452 0.45718 0.0
Co534 Co 0.27656 0.80768 0.43091 0.0
C535 C 0.33619 0.81736 0.41519 0.0
O536 O 0.34644 0.83844 0.43802 0.0
N537 N 0.30238 0.84972 0.43352 0.0
C538 C 0.33156 0.89611 0.41522 0.0
C539 C 0.31677 0.86659 0.40648 0.0
C540 C 0.30856 0.86989 0.45829 0.0
N541 N 0.32636 0.89823 0.44791 0.0
O542 O 0.26177 0.81357 0.38912 0.0
H543 H 0.31625 0.85793 0.38164 0.0
H544 H 0.30012 0.86431 0.48346 0.0
O545 O 0.3083 0.80333 0.40839 0.0
C546 C 0.24458 0.82416 0.39404 0.0
O547 O 0.23905 0.82846 0.42511 0.0
N548 N 0.28829 0.80105 0.47338 0.0
C549 C 0.3035 0.79332 0.53839 0.0
C550 C 0.30999 0.78084 0.51069 0.0
C551 C 0.30172 0.78449 0.47848 0.0
C552 C 0.27814 0.80957 0.50024 0.0
C553 C 0.2864 0.80698 0.53289 0.0
H554 H 0.30588 0.77363 0.45784 0.0
H555 H 0.26392 0.81894 0.49625 0.0
H556 H 0.27131 0.74855 0.3968 0.0
H557 H 0.18786 0.70677 0.44393 0.0
H558 H 0.3444 0.91454 0.39843 0.0
H559 H 0.3213 0.76826 0.51375 0.0
H560 H 0.27995 0.81628 0.55333 0.0
C561 C 0.24489 0.4682 0.42186 0.0
C562 C 0.27522 0.48257 0.41921 0.0
N563 N 0.2859 0.51194 0.4231 0.0
N564 N 0.23607 0.48826 0.42708 0.0
C565 C 0.26171 0.51479 0.42823 0.0
H566 H 0.23031 0.44448 0.42004 0.0
Co567 Co 0.19629 0.47854 0.4324 0.0
C568 C 0.21816 0.52887 0.38035 0.0
O569 O 0.24032 0.52697 0.36727 0.0
N570 N 0.15676 0.46869 0.43774 0.0
C571 C 0.11099 0.45938 0.42717 0.0
C572 C 0.13902 0.47036 0.41417 0.0
C573 C 0.13904 0.45639 0.4647 0.0
N574 N 0.11095 0.45047 0.45901 0.0
O575 O 0.18399 0.45011 0.39582 0.0
H576 H 0.14582 0.47835 0.38884 0.0
H577 H 0.1465 0.45104 0.48765 0.0
O578 O 0.20206 0.51099 0.40334 0.0
C579 C 0.17206 0.4245 0.40982 0.0
O580 O 0.17313 0.42355 0.44278 0.0
N581 N 0.2065 0.50316 0.4701 0.0
C582 C 0.20656 0.5261 0.53349 0.0
C583 C 0.20442 0.54009 0.50422 0.0
C584 C 0.20404 0.52805 0.47272 0.0
C585 C 0.21097 0.49068 0.49794 0.0
C586 C 0.211 0.50171 0.52991 0.0
H587 H 0.19976 0.5377 0.45093 0.0
H588 H 0.2122 0.47059 0.49545 0.0
H589 H 0.26259 0.53576 0.43276 0.0
H590 H 0.28837 0.47213 0.41422 0.0
H591 H 0.09215 0.45805 0.41403 0.0
H592 H 0.20151 0.55928 0.50564 0.0
H593 H 0.21234 0.48983 0.55157 0.0
H594 H 0.9161 0.30234 0.11831 0.0
H595 H 0.97727 0.38873 0.15994 0.0
H596 H 1.00818 0.36859 0.18276 0.0
H597 H 0.91894 0.25976 0.18725 0.0
H598 H 0.9159 0.23018 0.16088 0.0
H599 H 0.8997 0.25207 0.14761 0.0
H600 H 0.92982 0.26495 0.09217 0.0
H601 H 0.94632 0.2433 0.1054 0.0
H602 H 0.96966 0.28175 0.09393 0.0
H603 H 0.03288 0.33809 0.1996 0.0
H604 H 0.0457 0.29923 0.21395 0.0
H605 H 0.96686 0.23357 0.16202 0.0
C606 C 0.93611 0.31706 0.13205 0.0
C607 C 0.94454 0.3471 0.13716 0.0
C608 C 0.97048 0.3656 0.15592 0.0
C609 C 0.9882 0.35439 0.1687 0.0
C610 C 0.9794 0.32463 0.16273 0.0
C611 C 0.9537 0.3062 0.14518 0.0
C612 C 0.94819 0.27483 0.14315 0.0
C613 C 0.91896 0.25293 0.16078 0.0
C614 C 0.94853 0.26568 0.10648 0.0
C615 C 0.97481 0.27831 0.16228 0.0
C616 C 0.99285 0.30719 0.17312 0.0
C617 C 0.01883 0.31542 0.19128 0.0
C618 C 0.02607 0.29336 0.19912 0.0
C619 C 1.00714 0.26354 0.18917 0.0
C620 C 0.98152 0.2562 0.17015 0.0
H621 H 0.6941 0.63082 0.11138 0.0
H622 H 0.66222 0.57404 0.19974 0.0
H623 H 0.6832 0.61819 0.23568 0.0
H624 H 0.76348 0.68332 0.14679 0.0
H625 H 0.76482 0.71496 0.12641 0.0
H626 H 0.74503 0.67887 0.10707 0.0
H627 H 0.69743 0.68302 0.10463 0.0
H628 H 0.71708 0.71913 0.12403 0.0
H629 H 0.68331 0.69027 0.14264 0.0
H630 H 0.7091 0.66816 0.26252 0.0
H631 H 0.73957 0.72071 0.27848 0.0
H632 H 0.75741 0.74522 0.17322 0.0
C633 C 0.69137 0.62742 0.13821 0.0
C634 C 0.67605 0.59853 0.15235 0.0
C635 C 0.67315 0.59561 0.18783 0.0
C636 C 0.68519 0.62067 0.20865 0.0
C637 C 0.70026 0.64863 0.19381 0.0
C638 C 0.70351 0.65219 0.15943 0.0
C639 C 0.72208 0.68473 0.15001 0.0
C640 C 0.75054 0.69082 0.13148 0.0
C641 C 0.70388 0.69488 0.12909 0.0
C642 C 0.72898 0.69884 0.18455 0.0
C643 C 0.71595 0.67759 0.2094 0.0
C644 C 0.71948 0.68502 0.2433 0.0
C645 C 0.73706 0.71498 0.25211 0.0
C646 C 0.75117 0.73721 0.22715 0.0
C647 C 0.74673 0.72889 0.1929 0.0
H648 H 0.42196 0.09519 0.15915 0.0
H649 H 0.40423 0.04141 0.06983 0.0
H650 H 0.35256 0.00852 0.08864 0.0
H651 H 0.37281 0.03395 0.21739 0.0
H652 H 0.36078 0.05664 0.23883 0.0
H653 H 0.3974 0.07351 0.22067 0.0
H654 H 0.38618 0.10917 0.18638 0.0
H655 H 0.3495 0.09228 0.20419 0.0
H656 H 0.35414 0.09395 0.15923 0.0
H657 H 0.30222 0.9843 0.11427 0.0
H658 H 0.25604 0.9697 0.14543 0.0
H659 H 0.30541 0.04036 0.21735 0.0
C660 C 0.4073 0.07594 0.14423 0.0
C661 C 0.41689 0.07046 0.11329 0.0
C662 C 0.39708 0.04571 0.09367 0.0
C663 C 0.36782 0.02695 0.10419 0.0
C664 C 0.35869 0.03336 0.13435 0.0
C665 C 0.37779 0.05717 0.15421 0.0
C666 C 0.36155 0.06048 0.18404 0.0
C667 C 0.37387 0.05586 0.2172 0.0
C668 C 0.36293 0.09076 0.1834 0.0
C669 C 0.33032 0.03521 0.17742 0.0
C670 C 0.32927 0.0197 0.14882 0.0
C671 C 0.30276 0.99615 0.13684 0.0
C672 C 0.27655 0.98821 0.15456 0.0
C673 C 0.27695 1.00391 0.18383 0.0
C674 C 0.30435 0.02761 0.19539 0.0
H675 H 0.22667 0.95171 0.79906 0.0
H676 H 0.29881 0.04271 0.79651 0.0
H677 H 0.33353 0.02637 0.81715 0.0
H678 H 0.2506 0.93092 0.87594 0.0
H679 H 0.23818 0.89373 0.86122 0.0
H680 H 0.21965 0.91329 0.84735 0.0
H681 H 0.22895 0.9047 0.78546 0.0
H682 H 0.24797 0.88558 0.79913 0.0
H683 H 0.26635 0.9172 0.77153 0.0
H684 H 0.3608 0.99851 0.8334 0.0
H685 H 0.3767 0.96293 0.85217 0.0
H686 H 0.28565 0.89113 0.84704 0.0
C687 C 0.24972 0.96815 0.80341 0.0
C688 C 0.26025 0.99839 0.79641 0.0
C689 C 0.29045 0.01949 0.80222 0.0
C690 C 0.31025 0.01034 0.8136 0.0
C691 C 0.29925 0.98012 0.81951 0.0
C692 C 0.26951 0.95947 0.81531 0.0
C693 C 0.26299 0.92842 0.82386 0.0
C694 C 0.2416 0.91586 0.85388 0.0
C695 C 0.25086 0.90777 0.79316 0.0
C696 C 0.29377 0.93464 0.8331 0.0
C697 C 0.31454 0.96449 0.83006 0.0
C698 C 0.34465 0.97516 0.83619 0.0
C699 C 0.35354 0.95487 0.8465 0.0
C700 C 0.33231 0.92449 0.85098 0.0
C701 C 0.30218 0.91434 0.84391 0.0
H702 H 0.08908 0.41149 0.82784 0.0
H703 H 0.06514 0.39057 0.93267 0.0
H704 H 0.035 0.33741 0.91858 0.0
H705 H 0.01641 0.35327 0.7929 0.0
H706 H 0.03398 0.34577 0.75824 0.0
H707 H 0.05092 0.38252 0.77611 0.0
H708 H 0.09945 0.38111 0.78613 0.0
H709 H 0.08261 0.34432 0.76863 0.0
H710 H 0.09819 0.35115 0.81032 0.0
H711 H 0.01203 0.28613 0.89416 0.0
H712 H 0.99666 0.24076 0.86071 0.0
H713 H 0.03366 0.29513 0.77143 0.0
C714 C 0.07683 0.39577 0.84761 0.0
C715 C 0.0796 0.40511 0.88135 0.0
C716 C 0.06369 0.38383 0.90671 0.0
C717 C 0.04633 0.3536 0.89893 0.0
C718 C 0.04482 0.34496 0.86559 0.0
C719 C 0.05935 0.36543 0.84025 0.0
C720 C 0.05554 0.35007 0.80681 0.0
C721 C 0.03817 0.3584 0.78206 0.0
C722 C 0.08574 0.35708 0.79213 0.0
C723 C 0.03743 0.31785 0.81755 0.0
C724 C 0.03125 0.31535 0.85147 0.0
C725 C 0.01628 0.28778 0.86742 0.0
C726 C 1.00755 0.26208 0.84816 0.0
C727 C 0.01388 0.2641 0.81333 0.0
C728 C 0.02865 0.29251 0.79798 0.0
H729 H 0.64064 0.72041 0.88047 0.0
H730 H 0.58662 0.65093 0.80895 0.0
H731 H 0.63102 0.66482 0.77476 0.0
H732 H 0.69007 0.774 0.82105 0.0
H733 H 0.72232 0.78694 0.84754 0.0
H734 H 0.68606 0.77204 0.86611 0.0
H735 H 0.69422 0.73379 0.89929 0.0
H736 H 0.73048 0.74852 0.88075 0.0
H737 H 0.70369 0.70951 0.87692 0.0
H738 H 0.68122 0.68626 0.74806 0.0
H739 H 0.73396 0.71366 0.73108 0.0
H740 H 0.75566 0.76758 0.82104 0.0
C741 C 0.638 0.70786 0.85781 0.0
C742 C 0.60982 0.68456 0.84757 0.0
C743 C 0.60764 0.66917 0.81731 0.0
C744 C 0.63285 0.67674 0.79775 0.0
C745 C 0.66018 0.69963 0.80879 0.0
C746 C 0.66295 0.71493 0.83814 0.0
C747 C 0.69496 0.73847 0.84454 0.0
C748 C 0.69855 0.76971 0.84481 0.0
C749 C 0.70651 0.73218 0.87732 0.0
C750 C 0.70977 0.73402 0.81412 0.0
C751 C 0.68927 0.71158 0.79376 0.0
C752 C 0.69748 0.70383 0.76383 0.0
C753 C 0.72742 0.71957 0.75433 0.0
C754 C 0.74881 0.74267 0.77479 0.0
C755 C 0.73982 0.74976 0.8052 0.0
H756 H 0.65835 0.58578 0.51547 0.0
H757 H 0.66029 0.6128 0.61902 0.0
H758 H 0.63622 0.64132 0.60224 0.0
H759 H 0.67344 0.65652 0.47776 0.0
H760 H 0.64911 0.63852 0.44262 0.0
H761 H 0.66785 0.62138 0.46268 0.0
H762 H 0.61723 0.57359 0.47255 0.0
H763 H 0.59833 0.59063 0.45275 0.0
H764 H 0.58831 0.57601 0.49476 0.0
H765 H 0.60902 0.66453 0.57464 0.0
H766 H 0.58193 0.68132 0.538 0.0
H767 H 0.60027 0.64125 0.45232 0.0
C768 C 0.65424 0.59811 0.53454 0.0
C769 C 0.66107 0.59678 0.56862 0.0
C770 C 0.65483 0.61295 0.59283 0.0
C771 C 0.64134 0.62945 0.58352 0.0
C772 C 0.63442 0.62985 0.54983 0.0
C773 C 0.64088 0.61481 0.52567 0.0
C774 C 0.6304 0.61817 0.49132 0.0
C775 C 0.65678 0.63463 0.46717 0.0
C776 C 0.60719 0.58779 0.47702 0.0
C777 C 0.6166 0.63697 0.5001 0.0
C778 C 0.61921 0.64359 0.53392 0.0
C779 C 0.60714 0.65979 0.548 0.0
C780 C 0.59187 0.66935 0.52693 0.0
C781 C 0.58877 0.66267 0.49214 0.0
C782 C 0.60172 0.64652 0.47875 0.0
H783 H 0.37412 0.95296 0.43441 0.0
H784 H 0.3025 0.90519 0.50588 0.0
H785 H 0.321 0.9506 0.53966 0.0
H786 H 0.4299 0.99757 0.4935 0.0
H787 H 0.44668 0.03036 0.46748 0.0
H788 H 0.42764 0.99412 0.44838 0.0
H789 H 0.39387 0.00889 0.41566 0.0
H790 H 0.41282 0.04521 0.43468 0.0
H791 H 0.37307 0.02247 0.43837 0.0
H792 H 0.34812 1.00042 0.56703 0.0
H793 H 0.38183 0.05196 0.58559 0.0
H794 H 0.43454 0.06854 0.49544 0.0
C795 C 0.36201 0.95201 0.45689 0.0
C796 C 0.33684 0.92515 0.46739 0.0
C797 C 0.32209 0.92508 0.49739 0.0
C798 C 0.33229 0.95093 0.5167 0.0
C799 C 0.35715 0.97684 0.50564 0.0
C800 C 0.37175 0.97768 0.47636 0.0
C801 C 0.39818 0.00843 0.47037 0.0
C802 C 0.42732 0.00755 0.46992 0.0
C803 C 0.39424 0.02205 0.43784 0.0
C804 C 0.3963 0.02465 0.50108 0.0
C805 C 0.37246 1.00594 0.52108 0.0
C806 C 0.36674 0.01534 0.55148 0.0
C807 C 0.38604 0.04456 0.56188 0.0
C808 C 0.41067 0.06413 0.54189 0.0
C809 C 0.41561 0.05411 0.51089 0.0
H810 H 0.05199 0.42215 0.44267 0.0
H811 H 0.1128 0.44803 0.52722 0.0
H812 H 0.07024 0.42509 0.56597 0.0
H813 H 0.99981 0.438 0.48222 0.0
H814 H 0.9678 0.40712 0.4632 0.0
H815 H 1.00304 0.42412 0.44187 0.0
H816 H 1.00019 0.37297 0.43829 0.0
H817 H 0.96498 0.35583 0.45976 0.0
H818 H 0.99517 0.35194 0.47618 0.0
H819 H 0.02144 0.40058 0.59563 0.0
H820 H 0.96959 0.37744 0.61464 0.0
H821 H 0.94013 0.36913 0.51115 0.0
C822 C 0.05652 0.42318 0.46929 0.0
C823 C 0.08598 0.43688 0.48173 0.0
C824 C 0.0906 0.43731 0.51688 0.0
C825 C 0.06652 0.42443 0.53916 0.0
C826 C 0.0379 0.41122 0.52598 0.0
C827 C 0.03276 0.41057 0.4919 0.0
C828 C 0.99979 0.3958 0.48437 0.0
C829 C 0.99217 0.41756 0.46689 0.0
C830 C 0.98943 0.36745 0.46341 0.0
C831 C 0.98721 0.3885 0.51963 0.0
C832 C 1.00962 0.39745 0.54318 0.0
C833 C 1.00371 0.39357 0.57744 0.0
C834 C 0.97415 0.38058 0.58798 0.0
C835 C 0.95074 0.37172 0.56442 0.0
C836 C 0.95746 0.37543 0.52974 0.0
H837 H 0.17447 0.41321 0.34166 0.0
H838 H 0.13382 0.37069 0.43626 0.0
H839 H 0.10871 0.32207 0.40846 0.0
H840 H 0.11092 0.36483 0.28858 0.0
H841 H 0.13358 0.36382 0.25494 0.0
H842 H 0.14773 0.39589 0.2819 0.0
H843 H 0.19342 0.39039 0.29596 0.0
H844 H 0.17932 0.35824 0.26916 0.0
H845 H 0.18783 0.35565 0.3125 0.0
H846 H 0.08845 0.27735 0.37116 0.0
H847 H 0.07445 0.23997 0.32591 0.0
H848 H 0.12834 0.31062 0.25567 0.0
C849 C 0.16008 0.3937 0.35637 0.0
C850 C 0.15628 0.39592 0.39121 0.0
C851 C 0.13737 0.36972 0.4096 0.0
C852 C 0.12286 0.34186 0.39404 0.0
C853 C 0.12735 0.34027 0.35991 0.0
C854 C 0.14542 0.36541 0.34118 0.0
C855 C 0.14681 0.35714 0.30496 0.0
C856 C 0.13399 0.37126 0.28119 0.0
C857 C 0.17874 0.36588 0.29508 0.0
C858 C 0.12693 0.32359 0.30651 0.0
C859 C 0.11583 0.31431 0.33841 0.0
C860 C 0.09698 0.28432 0.34599 0.0
C861 C 0.08917 0.26322 0.32019 0.0
C862 C 0.10031 0.27222 0.28727 0.0
C863 C 0.11947 0.30287 0.28057 0.0
H864 H 0.59863 0.76022 0.34704 0.0
H865 H 0.64241 0.78169 0.44433 0.0
H866 H 0.69092 0.80826 0.41686 0.0
H867 H 0.65417 0.74898 0.30422 0.0
H868 H 0.65192 0.76569 0.26546 0.0
H869 H 0.62001 0.74767 0.29261 0.0
H870 H 0.61702 0.79596 0.29441 0.0
H871 H 0.64903 0.81415 0.26744 0.0
H872 H 0.64903 0.83021 0.30756 0.0
H873 H 0.73528 0.8329 0.3797 0.0
H874 H 0.77247 0.85313 0.33398 0.0
H875 H 0.70109 0.81701 0.26061 0.0
C876 C 0.61844 0.77039 0.36245 0.0
C877 C 0.61648 0.76887 0.3979 0.0
C878 C 0.64305 0.78261 0.41715 0.0
C879 C 0.67091 0.79782 0.40181 0.0
C880 C 0.67217 0.79931 0.36702 0.0
C881 C 0.64675 0.78595 0.34745 0.0
C882 C 0.65474 0.79121 0.31046 0.0
C883 C 0.64461 0.76163 0.29211 0.0
C884 C 0.64167 0.80894 0.29401 0.0
C885 C 0.68841 0.80953 0.31257 0.0
C886 C 0.69798 0.81389 0.34545 0.0
C887 C 0.7281 0.82973 0.35376 0.0
C888 C 0.74908 0.84121 0.32768 0.0
C889 C 0.73981 0.83688 0.29374 0.0
C890 C 0.709 0.82097 0.28629 0.0
H891 H 0.17867 0.91781 0.3064 0.0
H892 H 0.16761 0.86608 0.21634 0.0
H893 H 0.18711 0.83806 0.24596 0.0
H894 H 0.2463 0.92314 0.33355 0.0
H895 H 0.23726 0.91884 0.37765 0.0
H896 H 0.22126 0.93455 0.35004 0.0
H897 H 0.16842 0.89453 0.36869 0.0
H898 H 0.18429 0.87888 0.39662 0.0
H899 H 0.1575 0.85578 0.36546 0.0
H900 H 0.2116 0.81803 0.2834 0.0
H901 H 0.23432 0.80366 0.32912 0.0
H902 H 0.22718 0.86577 0.3959 0.0
C903 C 0.1799 0.90027 0.29315 0.0
C904 C 0.17166 0.89434 0.25895 0.0
C905 C 0.17385 0.87127 0.24247 0.0
C906 C 0.18497 0.85514 0.25905 0.0
C907 C 0.1936 0.86196 0.29237 0.0
C908 C 0.19077 0.88359 0.30951 0.0
C909 C 0.20178 0.88632 0.34534 0.0
C910 C 0.22822 0.91757 0.35202 0.0
C911 C 0.17649 0.8784 0.37051 0.0
C912 C 0.21139 0.8631 0.34536 0.0
C913 C 0.20674 0.8495 0.31445 0.0
C914 C 0.21502 0.82823 0.30792 0.0
C915 C 0.22803 0.8203 0.3339 0.0
C916 C 0.2322 0.83333 0.36605 0.0
C917 C 0.22384 0.85508 0.37167 0.0
H918 H 0.41846 0.15853 0.64017 0.0
H919 H 0.38401 0.18484 0.5556 0.0
H920 H 0.33481 0.16174 0.58225 0.0
H921 H 0.35455 0.08837 0.65355 0.0
H922 H 0.35653 0.08981 0.69877 0.0
H923 H 0.3899 0.10984 0.67421 0.0
H924 H 0.40207 0.15892 0.70416 0.0
H925 H 0.36904 0.13893 0.72927 0.0
H926 H 0.37471 0.17056 0.70482 0.0
H927 H 0.28794 0.13216 0.61567 0.0
H928 H 0.24865 0.10432 0.65804 0.0
H929 H 0.31347 0.09879 0.72166 0.0
C930 C 0.40076 0.16006 0.62771 0.0
C931 C 0.40518 0.17353 0.59577 0.0
C932 C 0.38123 0.1746 0.58005 0.0
C933 C 0.35307 0.16143 0.5949 0.0
C934 C 0.34909 0.14737 0.62574 0.0
C935 C 0.37235 0.14708 0.64233 0.0
C936 C 0.36187 0.13031 0.67525 0.0
C937 C 0.36596 0.10297 0.67544 0.0
C938 C 0.37787 0.15092 0.70514 0.0
C939 C 0.32923 0.12124 0.67436 0.0
C940 C 0.32219 0.13098 0.6454 0.0
C941 C 0.29322 0.12462 0.63864 0.0
C942 C 0.27099 0.1086 0.66262 0.0
C943 C 0.27804 0.09952 0.69306 0.0
C944 C 0.30747 0.10563 0.69864 0.0
H945 H 0.88884 0.25267 0.60208 0.0
H946 H 0.82253 0.25114 0.66953 0.0
H947 H 0.83345 0.22185 0.71039 0.0
H948 H 0.87538 0.17892 0.61907 0.0
H949 H 0.91402 0.18932 0.61726 0.0
H950 H 0.90071 0.20961 0.59305 0.0
H951 H 0.93981 0.25878 0.62101 0.0
H952 H 0.95341 0.2387 0.64509 0.0
H953 H 0.94146 0.2616 0.66618 0.0
H954 H 0.85084 0.19229 0.74297 0.0
H955 H 0.87631 0.16821 0.76843 0.0
H956 H 0.93322 0.19007 0.68077 0.0
C957 C 0.8765 0.24612 0.62542 0.0
C958 C 0.8546 0.254 0.63257 0.0
C959 C 0.83933 0.24536 0.66356 0.0
C960 C 0.84531 0.22861 0.68678 0.0
C961 C 0.86679 0.22096 0.67871 0.0
C962 C 0.88241 0.22971 0.64896 0.0
C963 C 0.90514 0.21949 0.64693 0.0
C964 C 0.8984 0.19806 0.61732 0.0
C965 C 0.93683 0.24624 0.64468 0.0
C966 C 0.89989 0.20351 0.6803 0.0
C967 C 0.87745 0.20448 0.69796 0.0
C968 C 0.86849 0.19153 0.72943 0.0
C969 C 0.88322 0.17785 0.74365 0.0
C970 C 0.90696 0.17727 0.7267 0.0
C971 C 0.91507 0.18991 0.69426 0.0
H972 H 0.8436 0.74497 0.68467 0.0
H973 H 0.87496 0.70989 0.76365 0.0
H974 H 0.85026 0.66082 0.73633 0.0
H975 H 0.77316 0.68223 0.67635 0.0
H976 H 0.77091 0.68407 0.63131 0.0
H977 H 0.79339 0.71745 0.65505 0.0
H978 H 0.83949 0.72863 0.61933 0.0
H979 H 0.81701 0.69558 0.59503 0.0
H980 H 0.85023 0.70071 0.61536 0.0
H981 H 0.81718 0.6138 0.70405 0.0
H982 H 0.78406 0.57431 0.6641 0.0
H983 H 0.77595 0.6402 0.60531 0.0
C984 C 0.84609 0.72724 0.69556 0.0
C985 C 0.86135 0.73136 0.72623 0.0
C986 C 0.86344 0.70731 0.74012 0.0
C987 C 0.84937 0.67926 0.72487 0.0
C988 C 0.83341 0.67551 0.69549 0.0
C989 C 0.83219 0.69896 0.68055 0.0
C990 C 0.81278 0.68866 0.64947 0.0
C991 C 0.78598 0.69339 0.65329 0.0
C992 C 0.83097 0.70432 0.61793 0.0
C993 C 0.80318 0.65586 0.64954 0.0
C994 C 0.81503 0.64859 0.67646 0.0
C995 C 0.8081 0.6193 0.68255 0.0
C996 C 0.78913 0.59698 0.65998 0.0
C997 C 0.77773 0.60426 0.63157 0.0
C998 C 0.7847 0.63404 0.62662 0.0
H999 H 0.97426 0.49608 0.0578 0.0
H1000 H 0.92374 0.40483 0.02324 0.0
H1001 H 0.96505 0.41355 0.98545 0.0
H1002 H 1.00726 0.52798 0.97609 0.0
H1003 H 0.04195 0.55538 0.99447 0.0
H1004 H 1.00793 0.54183 0.01778 0.0
H1005 H 0.03105 0.52711 0.06654 0.0
H1006 H 0.06486 0.53986 0.04298 0.0
H1007 H 0.0451 0.50224 0.05847 0.0
H1008 H 0.01293 0.43122 0.95433 0.0
H1009 H 0.06051 0.45898 0.92401 0.0
H1010 H 0.07969 0.53941 0.97706 0.0
C1011 C 0.97167 0.47808 0.04182 0.0
C1012 C 0.94576 0.44974 0.04346 0.0
C1013 C 0.94322 0.42676 0.02221 0.0
C1014 C 0.96672 0.43143 0.00094 0.0
C1015 C 0.99241 0.4593 0.00095 0.0
C1016 C 0.99473 0.48247 0.02018 0.0
C1017 C 0.02446 0.5105 0.01484 0.0
C1018 C 0.02014 0.53539 -0.0001 0.0
C1019 C 0.04242 0.52051 0.04767 0.0
C1020 C 0.03864 0.49946 0.98971 0.0
C1021 C 0.01986 0.46971 0.98247 0.0
C1022 C 0.02776 0.45448 0.95979 0.0
C1023 C 0.05494 0.47033 0.94298 0.0
C1024 C 0.0739 0.50106 0.94885 0.0
C1025 C 0.06593 0.51573 0.97294 0.0
H1026 H 0.50116 0.57365 0.98382 0.0
H1027 H 0.55841 0.58894 0.89792 0.0
H1028 H 0.58213 0.56462 0.92729 0.0
H1029 H 0.55631 0.58452 0.04849 0.0
H1030 H 0.52953 0.55528 0.07504 0.0
H1031 H 0.51804 0.57555 0.04807 0.0
H1032 H 0.47822 0.526 0.02145 0.0
H1033 H 0.48986 0.50563 0.04803 0.0
H1034 H 0.48935 0.50137 0.00306 0.0
H1035 H 0.59846 0.53683 0.96427 0.0
H1036 H 0.60828 0.50965 0.00875 0.0
H1037 H 0.54043 0.51122 0.07085 0.0
C1038 C 0.51903 0.57229 0.97158 0.0
C1039 C 0.52791 0.58314 0.93858 0.0
C1040 C 0.55108 0.58057 0.92311 0.0
C1041 C 0.56476 0.56681 0.93958 0.0
C1042 C 0.55503 0.55553 0.97161 0.0
C1043 C 0.53288 0.55824 0.98766 0.0
C1044 C 0.52625 0.54331 0.02185 0.0
C1045 C 0.53294 0.56602 0.05003 0.0
C1046 C 0.494 0.51755 0.02369 0.0
C1047 C 0.54808 0.53191 0.02227 0.0
C1048 C 0.5644 0.53918 0.993 0.0
C1049 C 0.58586 0.53102 0.98741 0.0
C1050 C 0.59118 0.51543 0.01272 0.0
C1051 C 0.57511 0.50816 0.04325 0.0
C1052 C 0.55307 0.51632 0.04777 0.0
H1053 H 0.50598 0.03397 0.05896 0.0
H1054 H 0.51951 0.10404 0.98934 0.0
H1055 H 0.49455 0.06638 0.94476 0.0
H1056 H 0.51735 0.98782 -0.00057 0.0
H1057 H 0.48901 0.95356 0.01775 0.0
H1058 H 0.50894 0.98614 0.04358 0.0
H1059 H 0.45908 0.98153 0.0622 0.0
H1060 H 0.43899 0.94915 0.03611 0.0
H1061 H 0.43363 0.98062 0.03083 0.0
H1062 H 0.46721 0.02145 0.9087 0.0
H1063 H 0.44149 0.97251 0.88163 0.0
H1064 H 0.44449 0.93061 0.97482 0.0
C1065 C 0.50404 0.04154 0.03425 0.0
C1066 C 0.51488 0.07208 0.02757 0.0
C1067 C 0.51164 0.08089 0.99495 0.0
C1068 C 0.49735 0.05962 0.96958 0.0
C1069 C 0.48642 0.0297 0.97729 0.0
C1070 C 0.48975 0.02064 0.00874 0.0
C1071 C 0.47567 0.98705 0.01058 0.0
C1072 C 0.49914 0.97813 0.01828 0.0
C1073 C 0.45034 0.97382 0.03647 0.0
C1074 C 0.46384 0.97851 0.9751 0.0
C1075 C 0.47033 1.00357 0.95647 0.0
C1076 C 0.46214 1.00175 0.92299 0.0
C1077 C 0.44755 0.97374 0.90787 0.0
C1078 C 0.44111 0.94769 0.92606 0.0
C1079 C 0.44893 0.95007 0.96037 0.0
H1080 H 0.0677 0.19044 0.05089 0.0
H1081 H 0.99651 0.1091 0.09419 0.0
H1082 H 0.97843 0.08989 0.03747 0.0
H1083 H 0.02337 0.19734 0.98934 0.0
H1084 H 0.05184 0.21233 0.95753 0.0
H1085 H 0.06197 0.21796 0.00123 0.0
H1086 H 0.09517 0.19439 0.99238 0.0
H1087 H 0.08501 0.18856 0.94859 0.0
H1088 H 0.0793 0.1577 0.97453 0.0
H1089 H 0.96512 0.08113 0.97667 0.0
H1090 H 0.95641 0.08446 0.91629 0.0
H1091 H 0.03424 0.17253 0.91258 0.0
C1092 C 0.0484 0.16851 0.0486 0.0
C1093 C 0.03382 0.15126 0.07733 0.0
C1094 C 1.00869 0.12257 0.07282 0.0
C1095 C 0.99808 0.11146 0.04061 0.0
C1096 C 0.01272 0.12925 0.013 0.0
C1097 C 0.03728 0.1572 0.01664 0.0
C1098 C 0.04733 0.17287 0.98305 0.0
C1099 C 0.04603 0.20183 0.98279 0.0
C1100 C 0.07856 0.17872 0.97412 0.0
C1101 C 0.02407 0.14966 0.9601 0.0
C1102 C 1.0046 0.12449 0.97783 0.0
C1103 C 0.98036 0.10063 0.96246 0.0
C1104 C 0.9755 0.10279 0.92821 0.0
C1105 C 0.99464 0.12874 0.90972 0.0
C1106 C 0.01957 0.15218 0.92585 0.0
H1107 H 0.82553 0.83718 0.92036 0.0
H1108 H 0.91884 0.86379 0.91742 0.0
H1109 H 0.92284 0.87408 0.97854 0.0
H1110 H 0.83373 0.89361 0.98313 0.0
H1111 H 0.79867 0.8687 0.00273 0.0
H1112 H 0.80388 0.86527 0.95856 0.0
H1113 H 0.78858 0.81003 0.96759 0.0
H1114 H 0.78372 0.81338 0.01182 0.0
H1115 H 0.80844 0.80067 0.99782 0.0
H1116 H 0.91485 0.87521 0.04049 0.0
H1117 H 0.89748 0.87314 0.09828 0.0
H1118 H 0.81049 0.85138 0.06 0.0
C1119 C 0.84687 0.84576 0.93264 0.0
C1120 C 0.87197 0.84995 0.91457 0.0
C1121 C 0.89955 0.86086 0.93109 0.0
C1122 C 0.90195 0.8666 0.96569 0.0
C1123 C 0.87665 0.86178 0.98306 0.0
C1124 C 0.84978 0.85221 0.96701 0.0
C1125 C 0.82597 0.84855 0.99158 0.0
C1126 C 0.81492 0.87034 0.98352 0.0
C1127 C 0.80016 0.81624 0.99223 0.0
C1128 C 0.84343 0.85669 0.02409 0.0
C1129 C 0.87253 0.86407 0.01863 0.0
C1130 C 0.89232 0.87029 0.04503 0.0
C1131 C 0.8822 0.86925 0.07788 0.0
C1132 C 0.8526 0.86255 0.08423 0.0
C1133 C 0.83314 0.85634 0.05662 0.0
H1134 H 0.15787 0.99613 0.90747 0.0
H1135 H 0.17384 0.08643 0.91252 0.0
H1136 H 0.16631 0.08145 0.97388 0.0
H1137 H 0.09993 0.96556 0.9738 0.0
H1138 H 0.11252 0.94114 0.98934 0.0
H1139 H 0.11665 0.95106 0.94548 0.0
H1140 H 0.17306 0.96998 0.94962 0.0
H1141 H 0.1692 0.96044 0.99349 0.0
H1142 H 0.19504 0.99788 0.98037 0.0
H1143 H 0.16239 0.06846 0.03518 0.0
H1144 H 0.1603 0.04778 0.09146 0.0
H1145 H 0.14293 0.96458 0.04593 0.0
C1146 C 0.15897 0.0146 0.92126 0.0
C1147 C 0.16657 0.04172 0.90508 0.0
C1148 C 0.16848 0.06557 0.92435 0.0
C1149 C 0.16401 0.06289 0.9592 0.0
C1150 C 0.15726 0.03609 0.97441 0.0
C1151 C 0.15435 0.01223 0.95601 0.0
C1152 C 0.14829 0.98635 0.97862 0.0
C1153 C 0.11751 0.95944 0.97138 0.0
C1154 C 0.17286 0.97821 0.97532 0.0
C1155 C 0.14914 0.99971 0.01267 0.0
C1156 C 0.15419 0.02835 0.00972 0.0
C1157 C 0.15781 0.04583 0.0378 0.0
C1158 C 0.15642 0.03377 0.06975 0.0
C1159 C 0.15133 1.00442 0.07345 0.0
C1160 C 0.14718 0.98717 0.0443 0.0
H1161 H 0.61358 0.4632 0.28219 0.0
H1162 H 0.6995 0.48883 0.23815 0.0
H1163 H 0.72153 0.49765 0.29468 0.0
H1164 H 0.64051 0.51819 0.34526 0.0
H1165 H 0.61451 0.495 0.37702 0.0
H1166 H 0.60463 0.48789 0.33329 0.0
H1167 H 0.5936 0.43373 0.34036 0.0
H1168 H 0.60336 0.44064 0.38418 0.0
H1169 H 0.62183 0.42697 0.35738 0.0
H1170 H 0.73543 0.50839 0.35501 0.0
H1171 H 0.73965 0.51807 0.41623 0.0
H1172 H 0.64503 0.48507 0.42181 0.0
C1173 C 0.63697 0.47045 0.28442 0.0
C1174 C 0.65473 0.47512 0.25562 0.0
C1175 C 0.68526 0.48451 0.25976 0.0
C1176 C 0.69805 0.48978 0.29178 0.0
C1177 C 0.68005 0.48544 0.31952 0.0
C1178 C 0.65013 0.47577 0.31626 0.0
C1179 C 0.63607 0.47408 0.35016 0.0
C1180 C 0.62318 0.49504 0.3515 0.0
C1181 C 0.61231 0.44194 0.35851 0.0
C1182 C 0.66289 0.48483 0.37287 0.0
C1183 C 0.68803 0.49124 0.35462 0.0
C1184 C 0.71587 0.50308 0.36965 0.0
C1185 C 0.71809 0.50858 0.40427 0.0
C1186 C 0.69264 0.50204 0.42336 0.0
C1187 C 0.66467 0.48981 0.40759 0.0
H1188 H 0.50398 0.1986 0.3869 0.0
H1189 H 0.56074 0.16842 0.43061 0.0
H1190 H 0.57678 0.1633 0.37371 0.0
H1191 H 0.47862 0.14952 0.31887 0.0
H1192 H 0.47835 0.17566 0.28928 0.0
H1193 H 0.47355 0.17956 0.33337 0.0
H1194 H 0.51808 0.23342 0.33211 0.0
H1195 H 0.523 0.22971 0.28792 0.0
H1196 H 0.55351 0.24025 0.31658 0.0
H1197 H 0.58207 0.15611 0.31235 0.0
H1198 H 0.57842 0.14999 0.25055 0.0
H1199 H 0.51972 0.18664 0.2469 0.0
C1200 C 0.51999 0.19116 0.38446 0.0
C1201 C 0.53111 0.18381 0.41303 0.0
C1202 C 0.55218 0.17438 0.40897 0.0
C1203 C 0.56134 0.17136 0.37681 0.0
C1204 C 0.54951 0.17828 0.34911 0.0
C1205 C 0.52956 0.18831 0.35263 0.0
C1206 C 0.51928 0.19314 0.31883 0.0
C1207 C 0.48545 0.17328 0.31487 0.0
C1208 C 0.52906 0.22609 0.31356 0.0
C1209 C 0.53591 0.18341 0.29572 0.0
C1210 C 0.55328 0.17499 0.31368 0.0
C1211 C 0.56899 0.16314 0.29798 0.0
C1212 C 0.56672 0.15964 0.26301 0.0
C1213 C 0.54907 0.16817 0.24426 0.0
C1214 C 0.53382 0.18056 0.26076 0.0
H1215 H 0.82924 0.3496 0.27003 0.0
H1216 H 0.89541 0.44327 0.2755 0.0
H1217 H 0.89205 0.44109 0.33732 0.0
H1218 H 0.78419 0.34928 0.34197 0.0
H1219 H 0.77631 0.31302 0.35581 0.0
H1220 H 0.7822 0.32246 0.31183 0.0
H1221 H 0.82386 0.30892 0.31038 0.0
H1222 H 0.81824 0.29961 0.35433 0.0
H1223 H 0.85453 0.32677 0.3393 0.0
H1224 H 0.8847 0.428 0.39815 0.0
H1225 H 0.87339 0.40507 0.45425 0.0
H1226 H 0.81016 0.32022 0.40985 0.0
C1227 C 0.84256 0.36977 0.28424 0.0
C1228 C 0.86269 0.39658 0.26797 0.0
C1229 C 0.88014 0.42239 0.28745 0.0
C1230 C 0.87823 0.42144 0.32256 0.0
C1231 C 0.85861 0.39455 0.33785 0.0
C1232 C 0.84093 0.36921 0.31937 0.0
C1233 C 0.82278 0.34283 0.34215 0.0
C1234 C 0.78939 0.33122 0.33767 0.0
C1235 C 0.83032 0.31808 0.33618 0.0
C1236 C 0.83354 0.3572 0.37625 0.0
C1237 C 0.85404 0.38708 0.37316 0.0
C1238 C 0.86826 0.40474 0.40097 0.0
C1239 C 0.8615 0.3915 0.43283 0.0
C1240 C 0.84061 0.36083 0.43673 0.0
C1241 C 0.82629 0.34366 0.40789 0.0
H1242 H 0.31527 0.81244 0.73728 0.0
H1243 H 0.40282 0.82191 0.72938 0.0
H1244 H 0.39394 0.80856 0.66937 0.0
H1245 H 0.27774 0.74934 0.67661 0.0
H1246 H 0.25485 0.7634 0.66009 0.0
H1247 H 0.2666 0.77003 0.70338 0.0
H1248 H 0.28923 0.82663 0.69401 0.0
H1249 H 0.27784 0.82025 0.65071 0.0
H1250 H 0.3163 0.84477 0.66118 0.0
H1251 H 0.37844 0.8007 0.60953 0.0
H1252 H 0.35682 0.79731 0.55373 0.0
H1253 H 0.27776 0.78978 0.60042 0.0
C1254 C 0.33219 0.81082 0.72315 0.0
C1255 C 0.35973 0.81819 0.73794 0.0
C1256 C 0.38165 0.81657 0.71843 0.0
C1257 C 0.37674 0.80882 0.68441 0.0
C1258 C 0.34968 0.80247 0.67035 0.0
C1259 C 0.32762 0.80305 0.68912 0.0
C1260 C 0.30143 0.79737 0.66727 0.0
C1261 C 0.2735 0.7683 0.67745 0.0
C1262 C 0.2959 0.82383 0.66836 0.0
C1263 C 0.31271 0.79458 0.63316 0.0
C1264 C 0.34045 0.79731 0.6356 0.0
C1265 C 0.3564 0.79778 0.60732 0.0
C1266 C 0.34377 0.79565 0.57565 0.0
C1267 C 0.31534 0.79295 0.57237 0.0
C1268 C 0.29954 0.79194 0.60176 0.0
H1269 H 0.23166 0.52568 0.59478 0.0
H1270 H 0.16642 0.5438 0.54909 0.0
H1271 H 0.15198 0.55208 0.605 0.0
H1272 H 0.18642 0.48347 0.66159 0.0
H1273 H 0.2157 0.49662 0.69241 0.0
H1274 H 0.2241 0.49607 0.64866 0.0
H1275 H 0.26284 0.55226 0.65103 0.0
H1276 H 0.25465 0.55296 0.6949 0.0
H1277 H 0.25176 0.57805 0.66589 0.0
H1278 H 0.14072 0.55334 0.6654 0.0
H1279 H 0.13428 0.54867 0.7269 0.0
H1280 H 0.20552 0.52837 0.73438 0.0
C1281 C 0.21461 0.53176 0.59644 0.0
C1282 C 0.20053 0.53444 0.56723 0.0
C1283 C 0.17824 0.5424 0.57077 0.0
C1284 C 0.16965 0.54693 0.60254 0.0
C1285 C 0.18349 0.54346 0.6307 0.0
C1286 C 0.20561 0.53623 0.62804 0.0
C1287 C 0.21544 0.5319 0.66246 0.0
C1288 C 0.21008 0.50013 0.66651 0.0
C1289 C 0.24811 0.55519 0.66895 0.0
C1290 C 0.19485 0.5371 0.68478 0.0
C1291 C 0.17678 0.54395 0.66587 0.0
C1292 C 0.15492 0.54827 0.68052 0.0
C1293 C 0.15128 0.54534 0.71543 0.0
C1294 C 0.16934 0.53808 0.73536 0.0
C1295 C 0.19166 0.53429 0.71979 0.0
H1296 H 0.46561 0.62391 0.7248 0.0
H1297 H 0.47457 0.70538 0.7665 0.0
H1298 H 0.47176 0.7221 0.70968 0.0
H1299 H 0.51534 0.65962 0.65925 0.0
H1300 H 0.49608 0.63012 0.62922 0.0
H1301 H 0.49292 0.62177 0.67337 0.0
H1302 H 0.4356 0.59616 0.66891 0.0
H1303 H 0.43863 0.60464 0.62467 0.0
H1304 H 0.41885 0.61649 0.65191 0.0
H1305 H 0.47285 0.73249 0.64839 0.0
H1306 H 0.48209 0.73765 0.58737 0.0
H1307 H 0.47792 0.6521 0.58547 0.0
C1308 C 0.46691 0.64525 0.72231 0.0
C1309 C 0.47003 0.66304 0.75071 0.0
C1310 C 0.47129 0.6907 0.74565 0.0
C1311 C 0.46988 0.70057 0.71329 0.0
C1312 C 0.46747 0.68275 0.68602 0.0
C1313 C 0.46625 0.65578 0.69016 0.0
C1314 C 0.46732 0.64255 0.65662 0.0
C1315 C 0.49453 0.63829 0.65451 0.0
C1316 C 0.43837 0.61322 0.65016 0.0
C1317 C 0.47025 0.66676 0.63305 0.0
C1318 C 0.46956 0.68939 0.65049 0.0
C1319 C 0.47329 0.71484 0.63444 0.0
C1320 C 0.47872 0.71764 0.5998 0.0
C1321 C 0.48093 0.69537 0.58161 0.0
C1322 C 0.47585 0.66928 0.59846 0.0
H1323 H 0.19892 0.07439 0.22112 0.0
H1324 H 0.12573 1.00269 0.27526 0.0
H1325 H 0.10492 0.03558 0.28628 0.0
H1326 H 0.20565 0.13666 0.27227 0.0
H1327 H 0.21363 0.16011 0.23587 0.0
H1328 H 0.22459 0.13224 0.23675 0.0
H1329 H 0.19569 0.10993 0.18139 0.0
H1330 H 0.18439 0.13745 0.18047 0.0
H1331 H 0.15681 0.09854 0.17928 0.0
H1332 H 0.08989 0.07551 0.2864 0.0
H1333 H 0.08219 0.11801 0.27622 0.0
H1334 H 0.16448 0.16191 0.21954 0.0
C1335 C 0.17892 0.06567 0.2361 0.0
C1336 C 0.16404 0.03586 0.24742 0.0
C1337 C 0.13764 0.02542 0.26643 0.0
C1338 C 0.12566 0.04398 0.2728 0.0
C1339 C 0.14041 0.07294 0.26011 0.0
C1340 C 0.16661 0.08371 0.24235 0.0
C1341 C 0.17699 0.11462 0.22887 0.0
C1342 C 0.20699 0.13724 0.24438 0.0
C1343 C 0.17854 0.11514 0.19022 0.0
C1344 C 0.15229 0.11952 0.24125 0.0
C1345 C 0.13152 0.09541 0.25951 0.0
C1346 C 0.10615 0.09453 0.2723 0.0
C1347 C 0.10185 0.11877 0.2661 0.0
C1348 C 0.12266 0.14355 0.24692 0.0
C1349 C 0.14831 0.14378 0.23472 0.0
H1350 H 0.98786 0.09151 0.29512 0.0
H1351 H 0.99037 0.13482 0.20073 0.0
H1352 H 0.94628 0.08972 0.18146 0.0
H1353 H 0.96537 0.0195 0.25761 0.0
H1354 H 0.94152 0.99847 0.29196 0.0
H1355 H 0.97329 0.03462 0.29954 0.0
H1356 H 0.93925 0.05196 0.32667 0.0
H1357 H 0.90738 0.01586 0.31921 0.0
H1358 H 0.90804 0.04867 0.30331 0.0
H1359 H 0.90162 0.04104 0.17199 0.0
H1360 H 0.85987 0.98965 0.17173 0.0
H1361 H 0.88564 0.9753 0.27061 0.0
C1362 C 0.97902 0.09153 0.2705 0.0
C1363 C 0.9926 0.11714 0.24977 0.0
C1364 C 0.98049 0.11591 0.21745 0.0
C1365 C 0.95532 0.09024 0.20611 0.0
C1366 C 0.94246 0.06558 0.22707 0.0
C1367 C 0.95392 0.06573 0.25844 0.0
C1368 C 0.93594 0.03556 0.27527 0.0
C1369 C 0.95518 0.02119 0.28146 0.0
C1370 C 0.92182 0.03818 0.30806 0.0
C1371 C 0.91253 0.01878 0.24855 0.0
C1372 C 0.91678 0.03671 0.22109 0.0
C1373 C 0.89801 0.02671 0.19333 0.0
C1374 C 0.87419 0.99752 0.19353 0.0
C1375 C 0.8693 0.97845 0.2212 0.0
C1376 C 0.8889 0.98929 0.24903 0.0
H1377 H 0.89569 0.83046 0.24496 0.0
H1378 H 0.90103 0.91506 0.26461 0.0
H1379 H 0.95585 0.93912 0.26775 0.0
H1380 H 0.9609 0.84286 0.29661 0.0
H1381 H 0.97107 0.82388 0.26613 0.0
H1382 H 0.93259 0.81301 0.27202 0.0
H1383 H 0.92814 0.82086 0.20845 0.0
H1384 H 0.96659 0.83217 0.2024 0.0
H1385 H 0.9529 0.85646 0.18975 0.0
H1386 H 0.01092 0.95473 0.26037 0.0
H1387 H 0.05932 0.95991 0.2442 0.0
H1388 H 0.01643 0.86479 0.22854 0.0
C1389 C 0.90824 0.85392 0.25094 0.0
C1390 C 0.89401 0.87086 0.25458 0.0
C1391 C 0.91135 0.90154 0.26205 0.0
C1392 C 0.94256 0.91539 0.26377 0.0
C1393 C 0.95595 0.89816 0.25839 0.0
C1394 C 0.93915 0.86795 0.25257 0.0
C1395 C 0.9584 0.85461 0.24424 0.0
C1396 C 0.95557 0.83227 0.27138 0.0
C1397 C 0.95107 0.8402 0.20913 0.0
C1398 C 0.98873 0.88215 0.24496 0.0
C1399 C 0.9871 0.90705 0.2537 0.0
C1400 C 0.01239 0.93525 0.25405 0.0
C1401 C 0.03982 0.93799 0.2449 0.0
C1402 C 0.04166 0.91274 0.23504 0.0
C1403 C 0.01576 0.88452 0.23573 0.0
H1404 H 0.0106 0.09109 0.71086 0.0
H1405 H 0.04683 0.18416 0.73585 0.0
H1406 H 0.09612 0.18934 0.74436 0.0
H1407 H 0.05071 0.07659 0.77246 0.0
H1408 H 0.05715 0.05157 0.74721 0.0
H1409 H 0.02501 0.05529 0.73954 0.0
H1410 H 0.04068 0.06888 0.67745 0.0
H1411 H 0.07261 0.06473 0.68482 0.0
H1412 H 0.07736 0.099 0.6678 0.0
H1413 H 0.14033 0.18419 0.75387 0.0
H1414 H 0.17836 0.1697 0.76106 0.0
H1415 H 0.1147 0.07957 0.73081 0.0
C1416 C 0.02915 0.11273 0.71711 0.0
C1417 C 0.02501 0.13741 0.72215 0.0
C1418 C 0.04958 0.1651 0.73149 0.0
C1419 C 0.07764 0.16823 0.73651 0.0
C1420 C 0.08086 0.14338 0.73233 0.0
C1421 C 0.05744 0.11618 0.72262 0.0
C1422 C 0.06689 0.09279 0.72158 0.0
C1423 C 0.04886 0.06758 0.7467 0.0
C1424 C 0.06423 0.08064 0.68577 0.0
C1425 C 0.09919 0.11117 0.73236 0.0
C1426 C 0.10662 0.14027 0.73835 0.0
C1427 C 0.1349 0.16155 0.7489 0.0
C1428 C 0.1564 0.15309 0.75283 0.0
C1429 C 0.14972 0.12358 0.74624 0.0
C1430 C 0.1205 0.10225 0.73625 0.0
H1431 H 0.8657 1.00503 0.757 0.0
H1432 H 0.96153 0.05016 0.74613 0.0
H1433 H 0.9587 1.00171 0.73737 0.0
H1434 H 0.85744 0.9428 0.80158 0.0
H1435 H 0.82305 0.91708 0.78127 0.0
H1436 H 0.83319 0.95546 0.78565 0.0
H1437 H 0.82787 0.95887 0.72124 0.0
H1438 H 0.81805 0.92053 0.71665 0.0
H1439 H 0.84879 0.949 0.69322 0.0
H1440 H 0.94471 0.94684 0.73174 0.0
H1441 H 0.9214 0.89205 0.73363 0.0
H1442 H 0.83498 0.88459 0.74541 0.0
C1443 C 0.88615 1.00497 0.75233 0.0
C1444 C 0.91382 0.03163 0.7522 0.0
C1445 C 0.94003 0.03015 0.74675 0.0
C1446 C 0.93862 1.00268 0.74138 0.0
C1447 C 0.91084 0.97689 0.7413 0.0
C1448 C 0.88512 0.97793 0.74672 0.0
C1449 C 0.85804 0.94722 0.74669 0.0
C1450 C 0.84201 0.94024 0.78082 0.0
C1451 C 0.83695 0.94371 0.71772 0.0
C1452 C 0.87245 0.92854 0.74093 0.0
C1453 C 0.90289 0.94589 0.73762 0.0
C1454 C 0.92085 0.93313 0.73395 0.0
C1455 C 0.90738 0.90192 0.73482 0.0
C1456 C 0.8763 0.8839 0.73952 0.0
C1457 C 0.85875 0.89759 0.74152 0.0
H1458 H 0.0894 1.00607 0.71207 0.0
H1459 H 0.14996 0.97398 0.73565 0.0
H1460 H 0.10782 0.92458 0.74802 0.0
H1461 H 0.03997 0.96883 0.77794 0.0
H1462 H 1.00647 0.95973 0.75526 0.0
H1463 H 0.04104 0.99185 0.74344 0.0
H1464 H 0.03472 0.97194 0.68268 0.0
H1465 H 0.99997 0.93981 0.69429 0.0
H1466 H 0.02892 0.93514 0.67551 0.0
H1467 H 0.06049 0.8805 0.76352 0.0
H1468 H 1.00962 0.84329 0.78046 0.0
H1469 H 0.97801 0.90233 0.74807 0.0
C1470 C 0.09367 0.98834 0.71879 0.0
C1471 C 0.1231 0.99383 0.72232 0.0
C1472 C 0.12778 0.97034 0.73236 0.0
C1473 C 0.1039 0.94211 0.73948 0.0
C1474 C 0.07527 0.93754 0.73662 0.0
C1475 C 0.06987 0.95986 0.7264 0.0
C1476 C 0.03685 0.94937 0.72817 0.0
C1477 C 0.03074 0.96859 0.75267 0.0
C1478 C 0.02438 0.94904 0.69306 0.0
C1479 C 0.02483 0.918 0.7416 0.0
C1480 C 0.04747 0.91172 0.74602 0.0
C1481 C 0.04247 0.88497 0.75982 0.0
C1482 C 0.01356 0.86405 0.76958 0.0
C1483 C 0.98991 0.86986 0.76549 0.0
C1484 C 0.99561 0.89711 0.75092 0.0
H1485 H 0.75628 0.34177 0.62289 0.0
H1486 H 0.85239 0.38584 0.6201 0.0
H1487 H 0.85495 0.43407 0.61201 0.0
H1488 H 0.74926 0.38214 0.55803 0.0
H1489 H 0.71852 0.38462 0.57528 0.0
H1490 H 0.7238 0.35405 0.58667 0.0
H1491 H 0.72485 0.36697 0.64962 0.0
H1492 H 0.71921 0.39742 0.63842 0.0
H1493 H 0.75055 0.40404 0.664 0.0
H1494 H 0.84748 0.47605 0.59676 0.0
H1495 H 0.83033 0.51017 0.57781 0.0
H1496 H 0.73886 0.44008 0.58976 0.0
C1497 C 0.77782 0.36177 0.62196 0.0
C1498 C 0.80421 0.36019 0.62277 0.0
C1499 C 0.83198 0.38664 0.62004 0.0
C1500 C 0.83364 0.41414 0.61537 0.0
C1501 C 0.80729 0.41491 0.61343 0.0
C1502 C 0.77986 0.38954 0.61695 0.0
C1503 C 0.755 0.39634 0.61072 0.0
C1504 C 0.73551 0.37821 0.5809 0.0
C1505 C 0.7363 0.39087 0.6426 0.0
C1506 C 0.77281 0.42925 0.60235 0.0
C1507 C 0.80293 0.43945 0.60431 0.0
C1508 C 0.82396 0.46847 0.59563 0.0
C1509 C 0.81403 0.48763 0.58464 0.0
C1510 C 0.78332 0.47783 0.58241 0.0
C1511 C 0.76247 0.4483 0.59178 0.0
H1512 H 0.60621 0.44918 0.57645 0.0
H1513 H 0.68373 0.44654 0.61214 0.0
H1514 H 0.65451 0.39153 0.61244 0.0
H1515 H 0.54894 0.38232 0.62064 0.0
H1516 H 0.52402 0.37178 0.58529 0.0
H1517 H 0.5497 0.41047 0.59347 0.0
H1518 H 0.57038 0.41642 0.533 0.0
H1519 H 0.54514 0.37776 0.52473 0.0
H1520 H 0.58448 0.39281 0.51909 0.0
H1521 H 0.61739 0.33621 0.60301 0.0
H1522 H 0.57702 0.28702 0.58419 0.0
H1523 H 0.52547 0.32732 0.55238 0.0
C1524 C 0.61699 0.4372 0.58526 0.0
C1525 C 0.6473 0.45232 0.59451 0.0
C1526 C 0.66048 0.43556 0.60529 0.0
C1527 C 0.64404 0.40426 0.60546 0.0
C1528 C 0.61445 0.39012 0.59487 0.0
C1529 C 0.60109 0.40619 0.58516 0.0
C1530 C 0.57007 0.3862 0.57177 0.0
C1531 C 0.54681 0.38779 0.59414 0.0
C1532 C 0.56739 0.39375 0.53498 0.0
C1533 C 0.56815 0.35629 0.5746 0.0
C1534 C 0.59371 0.35881 0.58849 0.0
C1535 C 0.59721 0.33405 0.59248 0.0
C1536 C 0.57414 0.30619 0.58181 0.0
C1537 C 0.5481 0.30337 0.56683 0.0
C1538 C 0.54515 0.32881 0.56356 0.0
H1539 H 0.68962 0.20103 0.55402 0.0
H1540 H 0.72433 0.29026 0.59327 0.0
H1541 H 0.67319 0.27983 0.60349 0.0
H1542 H 0.62633 0.19612 0.51239 0.0
H1543 H 0.60269 0.15737 0.52234 0.0
H1544 H 0.6421 0.17241 0.51811 0.0
H1545 H 0.64374 0.15328 0.57784 0.0
H1546 H 0.60437 0.13858 0.5824 0.0
H1547 H 0.62967 0.16443 0.61296 0.0
H1548 H 0.61714 0.25899 0.60938 0.0
H1549 H 0.56228 0.23105 0.60646 0.0
H1550 H 0.56535 0.15536 0.56514 0.0
C1551 C 0.68662 0.21839 0.56497 0.0
C1552 C 0.71126 0.24648 0.57284 0.0
C1553 C 0.70602 0.26866 0.58659 0.0
C1554 C 0.67696 0.26284 0.59282 0.0
C1555 C 0.65327 0.2347 0.58529 0.0
C1556 C 0.65786 0.21294 0.57145 0.0
C1557 C 0.62877 0.1847 0.56494 0.0
C1558 C 0.62474 0.17723 0.52721 0.0
C1559 C 0.62652 0.15872 0.58578 0.0
C1560 C 0.607 0.19391 0.57717 0.0
C1561 C 0.62144 0.22278 0.58893 0.0
C1562 C 0.60567 0.23632 0.60033 0.0
C1563 C 0.57444 0.22023 0.59867 0.0
C1564 C 0.55928 0.19094 0.58558 0.0
C1565 C 0.57601 0.17755 0.57562 0.0
H1566 H 0.83176 0.49989 0.11103 0.0
H1567 H 0.78611 0.40728 0.08048 0.0
H1568 H 0.74164 0.41057 0.06682 0.0
H1569 H 0.77185 0.49666 0.15343 0.0
H1570 H 0.7801 0.53355 0.14182 0.0
H1571 H 0.80951 0.52498 0.14433 0.0
H1572 H 0.82442 0.54272 0.08285 0.0
H1573 H 0.79484 0.55119 0.08012 0.0
H1574 H 0.79704 0.5265 0.04997 0.0
H1575 H 0.70004 0.42272 0.06198 0.0
H1576 H 0.6654 0.44187 0.06928 0.0
H1577 H 0.73824 0.52581 0.10436 0.0
C1578 C 0.81261 0.48029 0.10121 0.0
C1579 C 0.81279 0.45336 0.09681 0.0
C1580 C 0.78701 0.42838 0.08365 0.0
C1581 C 0.76148 0.42999 0.07584 0.0
C1582 C 0.76199 0.45676 0.08114 0.0
C1583 C 0.78696 0.48146 0.09351 0.0
C1584 C 0.78117 0.50684 0.09978 0.0
C1585 C 0.78593 0.51602 0.13704 0.0
C1586 C 0.80052 0.53338 0.0768 0.0
C1587 C 0.74876 0.49231 0.09005 0.0
C1588 C 0.73812 0.46359 0.07879 0.0
C1589 C 0.70827 0.44532 0.07035 0.0
C1590 C 0.68871 0.45642 0.07446 0.0
C1591 C 0.69903 0.48537 0.08735 0.0
C1592 C 0.72962 0.50366 0.09425 0.0
H1593 H 0.49603 0.21838 0.0863 0.0
H1594 H 0.58035 0.22833 0.05462 0.0
H1595 H 0.60105 0.28264 0.04982 0.0
H1596 H 0.49935 0.27906 0.03296 0.0
H1597 H 0.48194 0.28946 0.06519 0.0
H1598 H 0.47299 0.25131 0.06125 0.0
H1599 H 0.48734 0.25149 0.12364 0.0
H1600 H 0.4967 0.28965 0.12769 0.0
H1601 H 0.52385 0.27894 0.13782 0.0
H1602 H 0.61425 0.33676 0.05668 0.0
H1603 H 0.61794 0.38457 0.07142 0.0
H1604 H 0.52407 0.33826 0.09629 0.0
C1605 C 0.51866 0.2318 0.07751 0.0
C1606 C 0.53663 0.21903 0.07116 0.0
C1607 C 0.56614 0.23752 0.05982 0.0
C1608 C 0.57808 0.26844 0.05696 0.0
C1609 C 0.56004 0.28042 0.06491 0.0
C1610 C 0.53077 0.2625 0.07436 0.0
C1611 C 0.51647 0.2807 0.08377 0.0
C1612 C 0.49119 0.27478 0.05933 0.0
C1613 C 0.50546 0.27484 0.12039 0.0
C1614 C 0.54255 0.31177 0.07943 0.0
C1615 C 0.56745 0.31127 0.06825 0.0
C1616 C 0.59469 0.33737 0.06476 0.0
C1617 C 0.59653 0.36454 0.07315 0.0
C1618 C 0.57129 0.36551 0.08506 0.0
C1619 C 0.54391 0.3386 0.08753 0.0
H1620 H 0.7997 0.28865 0.12754 0.0
H1621 H 0.79612 0.35843 0.07138 0.0
H1622 H 0.74272 0.32433 0.06019 0.0
H1623 H 0.74872 0.22694 0.07507 0.0
H1624 H 0.73256 0.2022 0.11033 0.0
H1625 H 0.77064 0.23174 0.11211 0.0
H1626 H 0.75943 0.25126 0.16688 0.0
H1627 H 0.7213 0.22191 0.16519 0.0
H1628 H 0.73003 0.2601 0.16718 0.0
H1629 H 0.68857 0.28247 0.05757 0.0
H1630 H 0.63964 0.23679 0.06216 0.0
H1631 H 0.67958 0.19558 0.12111 0.0
C1632 C 0.78788 0.29679 0.11253 0.0
C1633 C 0.80222 0.32629 0.10031 0.0
C1634 C 0.78573 0.33594 0.08094 0.0
C1635 C 0.75534 0.31671 0.07451 0.0
C1636 C 0.74183 0.28791 0.0875 0.0
C1637 C 0.7577 0.278 0.10595 0.0
C1638 C 0.73805 0.24641 0.11798 0.0
C1639 C 0.74809 0.2256 0.10297 0.0
C1640 C 0.73715 0.24485 0.15659 0.0
C1641 C 0.70849 0.24002 0.10365 0.0
C1642 C 0.71103 0.26415 0.08611 0.0
C1643 C 0.68642 0.26346 0.07118 0.0
C1644 C 0.65862 0.23742 0.07414 0.0
C1645 C 0.65556 0.21236 0.09194 0.0
C1646 C 0.68102 0.21398 0.10686 0.0
H1647 H 0.50279 0.83671 0.9013 0.0
H1648 H 0.41083 0.78742 0.93319 0.0
H1649 H 0.41744 0.74529 0.94949 0.0
H1650 H 0.50317 0.77896 0.86153 0.0
H1651 H 0.54063 0.78894 0.87265 0.0
H1652 H 0.53035 0.81713 0.87032 0.0
H1653 H 0.54816 0.8328 0.93163 0.0
H1654 H 0.5585 0.8045 0.93414 0.0
H1655 H 0.53336 0.8054 0.96465 0.0
H1656 H 0.432 0.7053 0.9535 0.0
H1657 H 0.45271 0.67218 0.94346 0.0
H1658 H 0.53471 0.74777 0.90853 0.0
C1659 C 0.48422 0.81737 0.91248 0.0
C1660 C 0.45636 0.81563 0.91609 0.0
C1661 C 0.4326 0.78972 0.93072 0.0
C1662 C 0.43612 0.76553 0.93998 0.0
C1663 C 0.46363 0.76761 0.93487 0.0
C1664 C 0.48735 0.79308 0.92174 0.0
C1665 C 0.51359 0.78874 0.91509 0.0
C1666 C 0.52242 0.79372 0.87769 0.0
C1667 C 0.53996 0.80907 0.93774 0.0
C1668 C 0.50053 0.75646 0.92499 0.0
C1669 C 0.47189 0.74468 0.93698 0.0
C1670 C 0.45461 0.71448 0.94475 0.0
C1671 C 0.46656 0.69578 0.93902 0.0
C1672 C 0.49532 0.70731 0.92515 0.0
C1673 C 0.51273 0.73823 0.91939 0.0
H1674 H 0.34589 0.748 0.89982 0.0
H1675 H 0.3113 0.8064 0.92365 0.0
H1676 H 0.26116 0.76291 0.92976 0.0
H1677 H 0.28945 0.70098 0.84897 0.0
H1678 H 0.28826 0.66713 0.86183 0.0
H1679 H 0.32224 0.70204 0.86554 0.0
H1680 H 0.32501 0.69275 0.92901 0.0
H1681 H 0.2912 0.65746 0.92542 0.0
H1682 H 0.29381 0.68443 0.95573 0.0
H1683 H 0.21375 0.71412 0.92265 0.0
H1684 H 0.17356 0.66322 0.90903 0.0
H1685 H 0.23896 0.63632 0.89155 0.0
C1686 C 0.32796 0.75162 0.90747 0.0
C1687 C 0.33262 0.78072 0.91132 0.0
C1688 C 0.30848 0.78446 0.92092 0.0
C1689 C 0.27981 0.7598 0.92431 0.0
C1690 C 0.27574 0.73152 0.91863 0.0
C1691 C 0.2993 0.72725 0.91116 0.0
C1692 C 0.28877 0.69488 0.90359 0.0
C1693 C 0.29771 0.69106 0.86787 0.0
C1694 C 0.30038 0.68159 0.93002 0.0
C1695 C 0.25551 0.68179 0.90655 0.0
C1696 C 0.24842 0.70324 0.91539 0.0
C1697 C 0.21905 0.69702 0.91652 0.0
C1698 C 0.1964 0.66817 0.90849 0.0
C1699 C 0.2032 0.64586 0.89963 0.0
C1700 C 0.23314 0.65278 0.89906 0.0
H1701 H 0.2303 0.49942 0.88318 0.0
H1702 H 0.231 0.57493 0.93064 0.0
H1703 H 0.28517 0.59779 0.9403 0.0
H1704 H 0.28575 0.49677 0.93657 0.0
H1705 H 0.30137 0.48664 0.9021 0.0
H1706 H 0.26259 0.4757 0.90177 0.0
H1707 H 0.2694 0.50131 0.84392 0.0
H1708 H 0.30819 0.51247 0.84414 0.0
H1709 H 0.29702 0.53999 0.83931 0.0
H1710 H 0.34071 0.61336 0.9414 0.0
H1711 H 0.39078 0.61956 0.9348 0.0
H1712 H 0.35187 0.53395 0.88478 0.0
C1713 C 0.2416 0.52058 0.8961 0.0
C1714 C 0.22628 0.53534 0.90618 0.0
C1715 C 0.24217 0.56309 0.92279 0.0
C1716 C 0.27297 0.57626 0.92835 0.0
C1717 C 0.28746 0.56128 0.91729 0.0
C1718 C 0.27211 0.53393 0.90169 0.0
C1719 C 0.29261 0.52279 0.89063 0.0
C1720 C 0.28513 0.49376 0.90887 0.0
C1721 C 0.29175 0.51893 0.85223 0.0
C1722 C 0.32209 0.54823 0.9021 0.0
C1723 C 0.31884 0.57022 0.91759 0.0
C1724 C 0.34338 0.59615 0.92944 0.0
C1725 C 0.37183 0.59955 0.92535 0.0
C1726 C 0.37559 0.57723 0.90935 0.0
C1727 C 0.35013 0.5513 0.89772 0.0
H1728 H 0.39641 0.84654 0.4177 0.0
H1729 H 0.32047 0.7614 0.39141 0.0
H1730 H 0.35316 0.73968 0.38746 0.0
H1731 H 0.45185 0.84003 0.36482 0.0
H1732 H 0.48042 0.85837 0.39609 0.0
H1733 H 0.45154 0.8677 0.39184 0.0
H1734 H 0.4388 0.85588 0.45493 0.0
H1735 H 0.46717 0.84595 0.45928 0.0
H1736 H 0.42941 0.81972 0.47082 0.0
H1737 H 0.39367 0.72597 0.39424 0.0
H1738 H 0.43879 0.72277 0.40538 0.0
H1739 H 0.48753 0.81708 0.42758 0.0
C1740 C 0.38671 0.82352 0.41013 0.0
C1741 C 0.35581 0.8057 0.40483 0.0
C1742 C 0.34404 0.77561 0.39527 0.0
C1743 C 0.36248 0.76304 0.39317 0.0
C1744 C 0.39267 0.78098 0.40022 0.0
C1745 C 0.40475 0.81075 0.40786 0.0
C1746 C 0.43739 0.82497 0.41644 0.0
C1747 C 0.45642 0.8492 0.39076 0.0
C1748 C 0.44353 0.83734 0.4525 0.0
C1749 C 0.44175 0.79841 0.41333 0.0
C1750 C 0.41578 0.77321 0.40387 0.0
C1751 C 0.41419 0.74568 0.40118 0.0
C1752 C 0.43986 0.74402 0.40791 0.0
C1753 C 0.46679 0.76972 0.41725 0.0
C1754 C 0.46751 0.79716 0.41994 0.0
H1755 H 0.26222 0.58725 0.38212 0.0
H1756 H 0.16737 0.53009 0.36916 0.0
H1757 H 0.16065 0.57386 0.3708 0.0
H1758 H 0.25674 0.63228 0.44221 0.0
H1759 H 0.28847 0.66669 0.4289 0.0
H1760 H 0.28701 0.63197 0.4205 0.0
H1761 H 0.29459 0.64434 0.35712 0.0
H1762 H 0.2964 0.67934 0.36528 0.0
H1763 H 0.26994 0.65372 0.3354 0.0
H1764 H 0.16312 0.62215 0.38053 0.0
H1765 H 0.17451 0.67234 0.39768 0.0
H1766 H 0.26774 0.69919 0.40641 0.0
C1767 C 0.24026 0.58422 0.37817 0.0
C1768 C 0.21533 0.55542 0.37456 0.0
C1769 C 0.18672 0.55202 0.37127 0.0
C1770 C 0.18273 0.57676 0.3722 0.0
C1771 C 0.20757 0.6048 0.37676 0.0
C1772 C 0.23584 0.60878 0.37959 0.0
C1773 C 0.25822 0.6409 0.38808 0.0
C1774 C 0.27349 0.64307 0.42194 0.0
C1775 C 0.28114 0.65543 0.35977 0.0
C1776 C 0.23798 0.65412 0.39026 0.0
C1777 C 0.20892 0.63289 0.38329 0.0
C1778 C 0.18583 0.63907 0.38564 0.0
C1779 C 0.19248 0.66759 0.39566 0.0
C1780 C 0.22198 0.68972 0.40335 0.0
C1781 C 0.24507 0.68292 0.40011 0.0
H1782 H 0.42648 0.67085 0.37945 0.0
H1783 H 0.48079 0.63376 0.41224 0.0
H1784 H 0.43574 0.58562 0.42267 0.0
H1785 H 0.37046 0.63506 0.44092 0.0
H1786 H 0.33976 0.62807 0.41399 0.0
H1787 H 0.37615 0.65919 0.40572 0.0
H1788 H 0.37455 0.63998 0.34534 0.0
H1789 H 0.33797 0.60905 0.35335 0.0
H1790 H 0.36712 0.6025 0.33915 0.0
H1791 H 0.38586 0.54299 0.43341 0.0
H1792 H 0.33299 0.50626 0.4406 0.0
H1793 H 0.30912 0.56954 0.40151 0.0
C1794 C 0.42882 0.65231 0.38787 0.0
C1795 C 0.45721 0.65592 0.3946 0.0
C1796 C 0.45935 0.63141 0.40662 0.0
C1797 C 0.43386 0.604 0.41275 0.0
C1798 C 0.40625 0.60138 0.40691 0.0
C1799 C 0.40341 0.62467 0.39448 0.0
C1800 C 0.37082 0.61593 0.39194 0.0
C1801 C 0.3639 0.63574 0.41449 0.0
C1802 C 0.3621 0.61692 0.35526 0.0
C1803 C 0.35597 0.5842 0.40507 0.0
C1804 C 0.37699 0.57644 0.41349 0.0
C1805 C 0.36915 0.54864 0.42654 0.0
C1806 C 0.339 0.52787 0.43045 0.0
C1807 C 0.3168 0.53479 0.42132 0.0
C1808 C 0.32551 0.56359 0.40888 0.0
loop_
_geom_bond_atom_site_label_1
_geom_bond_atom_site_label_2
_geom_bond_distance
_geom_bond_site_symmetry_2
_ccdc_geom_bond_type
C0 C1 1.351 . S
C0 N3 1.368 . S
C0 H5 0.931 . S
C1 C0 1.351 . S
C1 N2 1.373 . S
C1 H29 0.930 . S
N2 C1 1.373 . S
N2 C4 1.340 . S
N3 C0 1.368 . S
N3 C4 1.321 . S
N3 Co6 2.135 . S
C4 N2 1.340 . S
C4 N3 1.321 . S
C4 H28 0.930 . S
H5 C0 0.931 . S
Co6 N3 2.135 . S
Co6 N9 2.121 1_455 S
Co6 O14 2.055 . S
Co6 O17 2.039 1_455 S
Co6 N20 2.140 . S
C7 O8 1.227 . S
C7 O17 1.265 . S
O8 C7 1.227 . S
N9 Co6 2.121 1_655 S
N9 C11 1.375 . S
N9 C12 1.313 . S
C10 C11 1.338 . S
C10 N13 1.377 . S
C10 H30 0.930 . S
C11 N9 1.375 . S
C11 C10 1.338 . S
C11 H15 0.931 . S
C12 N9 1.313 . S
C12 N13 1.344 . S
C12 H16 0.930 1_655 S
N13 C10 1.377 . S
N13 C12 1.344 . S
O14 Co6 2.055 . S
O14 C18 1.253 . S
H15 C11 0.931 . S
H16 C12 0.930 1_455 S
O17 Co6 2.039 1_655 S
O17 C7 1.265 . S
C18 O14 1.253 . S
C18 O19 1.227 . S
O19 C18 1.227 . S
N20 Co6 2.140 . S
N20 C23 1.346 . S
N20 C24 1.345 . S
C21 C22 1.387 . S
C21 C25 1.391 . S
C22 C21 1.387 . S
C22 C23 1.369 . S
C22 H31 0.929 . S
C23 N20 1.346 . S
C23 C22 1.369 . S
C23 H26 0.928 . S
C24 N20 1.345 . S
C24 C25 1.371 . S
C24 H27 0.931 . S
C25 C21 1.391 . S
C25 C24 1.371 . S
C25 H32 0.930 . S
H26 C23 0.928 . S
H27 C24 0.931 . S
H28 C4 0.930 . S
H29 C1 0.930 . S
H30 C10 0.930 . S
H31 C22 0.929 . S
H32 C25 0.930 . S
C33 C34 1.351 . S
C33 N36 1.368 . S
C33 H38 0.931 . S
C34 C33 1.351 . S
C34 N35 1.373 . S
C34 H62 0.930 . S
N35 C34 1.373 . S
N35 C37 1.340 . S
N36 C33 1.368 . S
N36 C37 1.321 . S
N36 Co39 2.135 . S
C37 N35 1.340 . S
C37 N36 1.321 . S
C37 H61 0.930 . S
H38 C33 0.931 . S
Co39 N36 2.135 . S
Co39 N42 2.121 . S
Co39 O47 2.055 . S
Co39 O50 2.039 . S
Co39 N53 2.140 . S
C40 O41 1.227 . S
C40 O50 1.265 . S
O41 C40 1.227 . S
N42 Co39 2.121 . S
N42 C44 1.375 . S
N42 C45 1.313 . S
C43 C44 1.338 . S
C43 N46 1.377 . S
C43 H63 0.930 . S
C44 N42 1.375 . S
C44 C43 1.338 . S
C44 H48 0.931 . S
C45 N42 1.313 . S
C45 N46 1.344 . S
C45 H49 0.930 . S
N46 C43 1.377 . S
N46 C45 1.344 . S
O47 Co39 2.055 . S
O47 C51 1.253 . S
H48 C44 0.931 . S
H49 C45 0.930 . S
O50 Co39 2.039 . S
O50 C40 1.265 . S
C51 O47 1.253 . S
C51 O52 1.227 . S
O52 C51 1.227 . S
N53 Co39 2.140 . S
N53 C56 1.346 . S
N53 C57 1.345 . S
C54 C55 1.387 . S
C54 C58 1.391 . S
C55 C54 1.387 . S
C55 C56 1.369 . S
C55 H64 0.929 . S
C56 N53 1.346 . S
C56 C55 1.369 . S
C56 H59 0.928 . S
C57 N53 1.345 . S
C57 C58 1.371 . S
C57 H60 0.931 . S
C58 C54 1.391 . S
C58 C57 1.371 . S
C58 H65 0.930 . S
H59 C56 0.928 . S
H60 C57 0.931 . S
H61 C37 0.930 . S
H62 C34 0.930 . S
H63 C43 0.930 . S
H64 C55 0.929 . S
H65 C58 0.930 . S
C66 C67 1.351 . S
C66 N69 1.368 . S
C66 H71 0.931 . S
C67 C66 1.351 . S
C67 N68 1.373 . S
C67 H95 0.930 . S
N68 C67 1.373 . S
N68 C70 1.340 . S
N69 C66 1.368 . S
N69 C70 1.321 . S
N69 Co72 2.135 . S
C70 N68 1.340 . S
C70 N69 1.321 . S
C70 H94 0.930 . S
H71 C66 0.931 . S
Co72 N69 2.135 . S
Co72 N75 2.121 1_565 S
Co72 O80 2.055 . S
Co72 O83 2.039 1_565 S
Co72 N86 2.140 . S
C73 O74 1.227 . S
C73 O83 1.265 . S
O74 C73 1.227 . S
N75 Co72 2.121 1_545 S
N75 C77 1.375 . S
N75 C78 1.313 . S
C76 C77 1.338 . S
C76 N79 1.377 . S
C76 H96 0.930 . S
C77 N75 1.375 . S
C77 C76 1.338 . S
C77 H81 0.931 . S
C78 N75 1.313 . S
C78 N79 1.344 . S
C78 H82 0.930 1_545 S
N79 C76 1.377 . S
N79 C78 1.344 . S
O80 Co72 2.055 . S
O80 C84 1.253 . S
H81 C77 0.931 . S
H82 C78 0.930 1_565 S
O83 Co72 2.039 1_545 S
O83 C73 1.265 . S
C84 O80 1.253 . S
C84 O85 1.227 . S
O85 C84 1.227 . S
N86 Co72 2.140 . S
N86 C89 1.346 . S
N86 C90 1.345 . S
C87 C88 1.387 . S
C87 C91 1.391 . S
C88 C87 1.387 . S
C88 C89 1.369 . S
C88 H97 0.929 . S
C89 N86 1.346 . S
C89 C88 1.369 . S
C89 H92 0.928 . S
C90 N86 1.345 . S
C90 C91 1.371 . S
C90 H93 0.931 . S
C91 C87 1.391 . S
C91 C90 1.371 . S
C91 H98 0.930 . S
H92 C89 0.928 . S
H93 C90 0.931 . S
H94 C70 0.930 . S
H95 C67 0.930 . S
H96 C76 0.930 . S
H97 C88 0.929 . S
H98 C91 0.930 . S
C99 C100 1.351 . S
C99 N102 1.368 . S
C99 H104 0.931 . S
C100 C99 1.351 . S
C100 N101 1.373 . S
C100 H128 0.930 . S
N101 C100 1.373 . S
N101 C103 1.340 . S
N102 C99 1.368 . S
N102 C103 1.321 . S
N102 Co105 2.135 . S
C103 N101 1.340 . S
C103 N102 1.321 . S
C103 H127 0.930 . S
H104 C99 0.931 . S
Co105 N102 2.135 . S
Co105 N108 2.121 1_545 S
Co105 O113 2.055 . S
Co105 O116 2.039 1_545 S
Co105 N119 2.140 . S
C106 O107 1.227 . S
C106 O116 1.265 . S
O107 C106 1.227 . S
N108 Co105 2.121 1_565 S
N108 C110 1.375 . S
N108 C111 1.313 . S
C109 C110 1.338 . S
C109 N112 1.377 . S
C109 H129 0.930 . S
C110 N108 1.375 . S
C110 C109 1.338 . S
C110 H114 0.931 . S
C111 N108 1.313 . S
C111 N112 1.344 . S
C111 H115 0.930 1_565 S
N112 C109 1.377 . S
N112 C111 1.344 . S
O113 Co105 2.055 . S
O113 C117 1.253 . S
H114 C110 0.931 . S
H115 C111 0.930 1_545 S
O116 Co105 2.039 1_565 S
O116 C106 1.265 . S
C117 O113 1.253 . S
C117 O118 1.227 . S
O118 C117 1.227 . S
N119 Co105 2.140 . S
N119 C122 1.346 . S
N119 C123 1.345 . S
C120 C121 1.387 . S
C120 C124 1.391 . S
C121 C120 1.387 . S
C121 C122 1.369 . S
C121 H130 0.929 . S
C122 N119 1.346 . S
C122 C121 1.369 . S
C122 H125 0.928 . S
C123 N119 1.345 . S
C123 C124 1.371 . S
C123 H126 0.931 . S
C124 C120 1.391 . S
C124 C123 1.371 . S
C124 H131 0.930 . S
H125 C122 0.928 . S
H126 C123 0.931 . S
H127 C103 0.930 . S
H128 C100 0.930 . S
H129 C109 0.930 . S
H130 C121 0.929 . S
H131 C124 0.930 . S
C132 C133 1.351 . S
C132 N135 1.368 . S
C132 H137 0.931 . S
C133 C132 1.351 . S
C133 N134 1.373 . S
C133 H161 0.930 . S
N134 C133 1.373 . S
N134 C136 1.340 . S
N135 C132 1.368 . S
N135 C136 1.321 . S
N135 Co138 2.135 . S
C136 N134 1.340 . S
C136 N135 1.321 . S
C136 H160 0.930 . S
H137 C132 0.931 . S
Co138 N135 2.135 . S
Co138 N141 2.121 1_655 S
Co138 O146 2.055 . S
Co138 O149 2.039 1_655 S
Co138 N152 2.140 . S
C139 O140 1.227 . S
C139 O149 1.265 . S
O140 C139 1.227 . S
N141 Co138 2.121 1_455 S
N141 C143 1.375 . S
N141 C144 1.313 . S
C142 C143 1.338 . S
C142 N145 1.377 . S
C142 H162 0.930 . S
C143 N141 1.375 . S
C143 C142 1.338 . S
C143 H147 0.931 . S
C144 N141 1.313 . S
C144 N145 1.344 . S
C144 H148 0.930 1_455 S
N145 C142 1.377 . S
N145 C144 1.344 . S
O146 Co138 2.055 . S
O146 C150 1.253 . S
H147 C143 0.931 . S
H148 C144 0.930 1_655 S
O149 Co138 2.039 1_455 S
O149 C139 1.265 . S
C150 O146 1.253 . S
C150 O151 1.227 . S
O151 C150 1.227 . S
N152 Co138 2.140 . S
N152 C155 1.346 . S
N152 C156 1.345 . S
C153 C154 1.387 . S
C153 C157 1.391 . S
C154 C153 1.387 . S
C154 C155 1.369 . S
C154 H163 0.929 . S
C155 N152 1.346 . S
C155 C154 1.369 . S
C155 H158 0.928 . S
C156 N152 1.345 . S
C156 C157 1.371 . S
C156 H159 0.931 . S
C157 C153 1.391 . S
C157 C156 1.371 . S
C157 H164 0.930 . S
H158 C155 0.928 . S
H159 C156 0.931 . S
H160 C136 0.930 . S
H161 C133 0.930 . S
H162 C142 0.930 . S
H163 C154 0.929 . S
H164 C157 0.930 . S
C165 C166 1.351 . S
C165 N168 1.368 . S
C165 H170 0.931 . S
C166 C165 1.351 . S
C166 N167 1.373 . S
C166 H194 0.930 . S
N167 C166 1.373 . S
N167 C169 1.340 . S
N168 C165 1.368 . S
N168 C169 1.321 . S
N168 Co171 2.135 . S
C169 N167 1.340 . S
C169 N168 1.321 . S
C169 H193 0.930 . S
H170 C165 0.931 . S
Co171 N168 2.135 . S
Co171 N174 2.121 . S
Co171 O179 2.055 . S
Co171 O182 2.039 . S
Co171 N185 2.140 . S
C172 O173 1.227 . S
C172 O182 1.265 . S
O173 C172 1.227 . S
N174 Co171 2.121 . S
N174 C176 1.375 . S
N174 C177 1.313 . S
C175 C176 1.338 . S
C175 N178 1.377 . S
C175 H195 0.930 . S
C176 N174 1.375 . S
C176 C175 1.338 . S
C176 H180 0.931 . S
C177 N174 1.313 . S
C177 N178 1.344 . S
C177 H181 0.930 . S
N178 C175 1.377 . S
N178 C177 1.344 . S
O179 Co171 2.055 . S
O179 C183 1.253 . S
H180 C176 0.931 . S
H181 C177 0.930 . S
O182 Co171 2.039 . S
O182 C172 1.265 . S
C183 O179 1.253 . S
C183 O184 1.227 . S
O184 C183 1.227 . S
N185 Co171 2.140 . S
N185 C188 1.346 . S
N185 C189 1.345 . S
C186 C187 1.387 . S
C186 C190 1.391 . S
C187 C186 1.387 . S
C187 C188 1.369 . S
C187 H196 0.929 . S
C188 N185 1.346 . S
C188 C187 1.369 . S
C188 H191 0.928 . S
C189 N185 1.345 . S
C189 C190 1.371 . S
C189 H192 0.931 . S
C190 C186 1.391 . S
C190 C189 1.371 . S
C190 H197 0.930 . S
H191 C188 0.928 . S
H192 C189 0.931 . S
H193 C169 0.930 . S
H194 C166 0.930 . S
H195 C175 0.930 . S
H196 C187 0.929 . S
H197 C190 0.930 . S
C198 C199 1.351 . S
C198 N201 1.368 . S
C198 H203 0.931 . S
C199 C198 1.351 . S
C199 N200 1.373 . S
C199 H227 0.930 . S
N200 C199 1.373 . S
N200 C202 1.340 . S
N201 C198 1.368 . S
N201 C202 1.321 . S
N201 Co204 2.135 . S
C202 N200 1.340 . S
C202 N201 1.321 . S
C202 H226 0.930 . S
H203 C198 0.931 . S
Co204 N201 2.135 . S
Co204 N207 2.121 . S
Co204 O212 2.055 . S
Co204 O215 2.039 . S
Co204 N218 2.140 . S
C205 O206 1.227 . S
C205 O215 1.265 . S
O206 C205 1.227 . S
N207 Co204 2.121 . S
N207 C209 1.375 . S
N207 C210 1.313 . S
C208 C209 1.338 . S
C208 N211 1.377 . S
C208 H228 0.930 . S
C209 N207 1.375 . S
C209 C208 1.338 . S
C209 H213 0.931 . S
C210 N207 1.313 . S
C210 N211 1.344 . S
C210 H214 0.930 . S
N211 C208 1.377 . S
N211 C210 1.344 . S
O212 Co204 2.055 . S
O212 C216 1.253 . S
H213 C209 0.931 . S
H214 C210 0.930 . S
O215 Co204 2.039 . S
O215 C205 1.265 . S
C216 O212 1.253 . S
C216 O217 1.227 . S
O217 C216 1.227 . S
N218 Co204 2.140 . S
N218 C221 1.346 . S
N218 C222 1.345 . S
C219 C220 1.387 . S
C219 C223 1.391 . S
C220 C219 1.387 . S
C220 C221 1.369 . S
C220 H229 0.929 . S
C221 N218 1.346 . S
C221 C220 1.369 . S
C221 H224 0.928 . S
C222 N218 1.345 . S
C222 C223 1.371 . S
C222 H225 0.931 . S
C223 C219 1.391 . S
C223 C222 1.371 . S
C223 H230 0.930 . S
H224 C221 0.928 . S
H225 C222 0.931 . S
H226 C202 0.930 . S
H227 C199 0.930 . S
H228 C208 0.930 . S
H229 C220 0.929 . S
H230 C223 0.930 . S
C231 C232 1.351 . S
C231 N234 1.368 . S
C231 H236 0.931 . S
C232 C231 1.351 . S
C232 N233 1.373 . S
C232 H260 0.930 . S
N233 C232 1.373 . S
N233 C235 1.340 . S
N234 C231 1.368 . S
N234 C235 1.321 . S
N234 Co237 2.135 . S
C235 N233 1.340 . S
C235 N234 1.321 . S
C235 H259 0.930 . S
H236 C231 0.931 . S
Co237 N234 2.135 . S
Co237 N240 2.121 . S
Co237 O245 2.055 . S
Co237 O248 2.039 . S
Co237 N251 2.140 . S
C238 O239 1.227 . S
C238 O248 1.265 . S
O239 C238 1.227 . S
N240 Co237 2.121 . S
N240 C242 1.375 . S
N240 C243 1.313 . S
C241 C242 1.338 . S
C241 N244 1.377 . S
C241 H261 0.930 . S
C242 N240 1.375 . S
C242 C241 1.338 . S
C242 H246 0.931 . S
C243 N240 1.313 . S
C243 N244 1.344 . S
C243 H247 0.930 . S
N244 C241 1.377 . S
N244 C243 1.344 . S
O245 Co237 2.055 . S
O245 C249 1.253 . S
H246 C242 0.931 . S
H247 C243 0.930 . S
O248 Co237 2.039 . S
O248 C238 1.265 . S
C249 O245 1.253 . S
C249 O250 1.227 . S
O250 C249 1.227 . S
N251 Co237 2.140 . S
N251 C254 1.346 . S
N251 C255 1.345 . S
C252 C253 1.387 . S
C252 C256 1.391 . S
C253 C252 1.387 . S
C253 C254 1.369 . S
C253 H262 0.929 . S
C254 N251 1.346 . S
C254 C253 1.369 . S
C254 H257 0.928 . S
C255 N251 1.345 . S
C255 C256 1.371 . S
C255 H258 0.931 . S
C256 C252 1.391 . S
C256 C255 1.371 . S
C256 H263 0.930 . S
H257 C254 0.928 . S
H258 C255 0.931 . S
H259 C235 0.930 . S
H260 C232 0.930 . S
H261 C241 0.930 . S
H262 C253 0.929 . S
H263 C256 0.930 . S
C264 C265 1.351 . S
C264 N267 1.368 . S
C264 H269 0.931 . S
C265 C264 1.351 . S
C265 N266 1.373 . S
C265 H293 0.930 . S
N266 C265 1.373 . S
N266 C268 1.340 . S
N267 C264 1.368 . S
N267 C268 1.321 . S
N267 Co270 2.135 . S
C268 N266 1.340 . S
C268 N267 1.321 . S
C268 H292 0.930 . S
H269 C264 0.931 . S
Co270 N267 2.135 . S
Co270 N273 2.121 . S
Co270 O278 2.055 . S
Co270 O281 2.039 . S
Co270 N284 2.140 . S
C271 O272 1.227 . S
C271 O281 1.265 . S
O272 C271 1.227 . S
N273 Co270 2.121 . S
N273 C275 1.375 . S
N273 C276 1.313 . S
C274 C275 1.338 . S
C274 N277 1.377 . S
C274 H294 0.930 . S
C275 N273 1.375 . S
C275 C274 1.338 . S
C275 H279 0.931 . S
C276 N273 1.313 . S
C276 N277 1.344 . S
C276 H280 0.930 . S
N277 C274 1.377 . S
N277 C276 1.344 . S
O278 Co270 2.055 . S
O278 C282 1.253 . S
H279 C275 0.931 . S
H280 C276 0.930 . S
O281 Co270 2.039 . S
O281 C271 1.265 . S
C282 O278 1.253 . S
C282 O283 1.227 . S
O283 C282 1.227 . S
N284 Co270 2.140 . S
N284 C287 1.346 . S
N284 C288 1.345 . S
C285 C286 1.387 . S
C285 C289 1.391 . S
C286 C285 1.387 . S
C286 C287 1.369 . S
C286 H295 0.929 . S
C287 N284 1.346 . S
C287 C286 1.369 . S
C287 H290 0.928 . S
C288 N284 1.345 . S
C288 C289 1.371 . S
C288 H291 0.931 . S
C289 C285 1.391 . S
C289 C288 1.371 . S
C289 H296 0.930 . S
H290 C287 0.928 . S
H291 C288 0.931 . S
H292 C268 0.930 . S
H293 C265 0.930 . S
H294 C274 0.930 . S
H295 C286 0.929 . S
H296 C289 0.930 . S
C297 C298 1.351 . S
C297 N300 1.368 . S
C297 H302 0.931 . S
C298 C297 1.351 . S
C298 N299 1.373 . S
C298 H326 0.930 . S
N299 C298 1.373 . S
N299 C301 1.340 . S
N300 C297 1.368 . S
N300 C301 1.321 . S
N300 Co303 2.135 . S
C301 N299 1.340 . S
C301 N300 1.321 . S
C301 H325 0.930 . S
H302 C297 0.931 . S
Co303 N300 2.135 . S
Co303 N306 2.121 . S
Co303 O311 2.055 . S
Co303 O314 2.039 . S
Co303 N317 2.140 . S
C304 O305 1.227 . S
C304 O314 1.265 . S
O305 C304 1.227 . S
N306 Co303 2.121 . S
N306 C308 1.375 . S
N306 C309 1.313 . S
C307 C308 1.338 . S
C307 N310 1.377 . S
C307 H327 0.930 . S
C308 N306 1.375 . S
C308 C307 1.338 . S
C308 H312 0.931 . S
C309 N306 1.313 . S
C309 N310 1.344 . S
C309 H313 0.930 . S
N310 C307 1.377 . S
N310 C309 1.344 . S
O311 Co303 2.055 . S
O311 C315 1.253 . S
H312 C308 0.931 . S
H313 C309 0.930 . S
O314 Co303 2.039 . S
O314 C304 1.265 . S
C315 O311 1.253 . S
C315 O316 1.227 . S
O316 C315 1.227 . S
N317 Co303 2.140 . S
N317 C320 1.346 . S
N317 C321 1.345 . S
C318 C319 1.387 . S
C318 C322 1.391 . S
C319 C318 1.387 . S
C319 C320 1.369 . S
C319 H328 0.929 . S
C320 N317 1.346 . S
C320 C319 1.369 . S
C320 H323 0.928 . S
C321 N317 1.345 . S
C321 C322 1.371 . S
C321 H324 0.931 . S
C322 C318 1.391 . S
C322 C321 1.371 . S
C322 H329 0.930 . S
H323 C320 0.928 . S
H324 C321 0.931 . S
H325 C301 0.930 . S
H326 C298 0.930 . S
H327 C307 0.930 . S
H328 C319 0.929 . S
H329 C322 0.930 . S
C330 C331 1.351 . S
C330 N333 1.368 . S
C330 H335 0.931 . S
C331 C330 1.351 . S
C331 N332 1.373 . S
C331 H359 0.930 . S
N332 C331 1.373 . S
N332 C334 1.340 . S
N333 C330 1.368 . S
N333 C334 1.321 . S
N333 Co336 2.135 . S
C334 N332 1.340 . S
C334 N333 1.321 . S
C334 H358 0.930 . S
H335 C330 0.931 . S
Co336 N333 2.135 . S
Co336 N339 2.121 . S
Co336 O344 2.055 . S
Co336 O347 2.039 . S
Co336 N350 2.140 . S
C337 O338 1.227 . S
C337 O347 1.265 . S
O338 C337 1.227 . S
N339 Co336 2.121 . S
N339 C341 1.375 . S
N339 C342 1.313 . S
C340 C341 1.338 . S
C340 N343 1.377 . S
C340 H360 0.930 . S
C341 N339 1.375 . S
C341 C340 1.338 . S
C341 H345 0.931 . S
C342 N339 1.313 . S
C342 N343 1.344 . S
C342 H346 0.930 . S
N343 C340 1.377 . S
N343 C342 1.344 . S
O344 Co336 2.055 . S
O344 C348 1.253 . S
H345 C341 0.931 . S
H346 C342 0.930 . S
O347 Co336 2.039 . S
O347 C337 1.265 . S
C348 O344 1.253 . S
C348 O349 1.227 . S
O349 C348 1.227 . S
N350 Co336 2.140 . S
N350 C353 1.346 . S
N350 C354 1.345 . S
C351 C352 1.387 . S
C351 C355 1.391 . S
C352 C351 1.387 . S
C352 C353 1.369 . S
C352 H361 0.929 . S
C353 N350 1.346 . S
C353 C352 1.369 . S
C353 H356 0.928 . S
C354 N350 1.345 . S
C354 C355 1.371 . S
C354 H357 0.931 . S
C355 C351 1.391 . S
C355 C354 1.371 . S
C355 H362 0.930 . S
H356 C353 0.928 . S
H357 C354 0.931 . S
H358 C334 0.930 . S
H359 C331 0.930 . S
H360 C340 0.930 . S
H361 C352 0.929 . S
H362 C355 0.930 . S
C363 C364 1.351 . S
C363 N366 1.368 . S
C363 H368 0.931 . S
C364 C363 1.351 . S
C364 N365 1.373 . S
C364 H392 0.930 . S
N365 C364 1.373 . S
N365 C367 1.340 . S
N366 C363 1.368 . S
N366 C367 1.321 . S
N366 Co369 2.135 . S
C367 N365 1.340 . S
C367 N366 1.321 . S
C367 H391 0.930 . S
H368 C363 0.931 . S
Co369 N366 2.135 . S
Co369 N372 2.121 . S
Co369 O377 2.055 . S
Co369 O380 2.039 . S
Co369 N383 2.140 . S
C370 O371 1.227 . S
C370 O380 1.265 . S
O371 C370 1.227 . S
N372 Co369 2.121 . S
N372 C374 1.375 . S
N372 C375 1.313 . S
C373 C374 1.338 . S
C373 N376 1.377 . S
C373 H393 0.930 . S
C374 N372 1.375 . S
C374 C373 1.338 . S
C374 H378 0.931 . S
C375 N372 1.313 . S
C375 N376 1.344 . S
C375 H379 0.930 . S
N376 C373 1.377 . S
N376 C375 1.344 . S
O377 Co369 2.055 . S
O377 C381 1.253 . S
H378 C374 0.931 . S
H379 C375 0.930 . S
O380 Co369 2.039 . S
O380 C370 1.265 . S
C381 O377 1.253 . S
C381 O382 1.227 . S
O382 C381 1.227 . S
N383 Co369 2.140 . S
N383 C386 1.346 . S
N383 C387 1.345 . S
C384 C385 1.387 . S
C384 C388 1.391 . S
C385 C384 1.387 . S
C385 C386 1.369 . S
C385 H394 0.929 . S
C386 N383 1.346 . S
C386 C385 1.369 . S
C386 H389 0.928 . S
C387 N383 1.345 . S
C387 C388 1.371 . S
C387 H390 0.931 . S
C388 C384 1.391 . S
C388 C387 1.371 . S
C388 H395 0.930 . S
H389 C386 0.928 . S
H390 C387 0.931 . S
H391 C367 0.930 . S
H392 C364 0.930 . S
H393 C373 0.930 . S
H394 C385 0.929 . S
H395 C388 0.930 . S
C396 C397 1.351 . S
C396 N399 1.368 . S
C396 H401 0.931 . S
C397 C396 1.351 . S
C397 N398 1.373 . S
C397 H425 0.930 . S
N398 C397 1.373 . S
N398 C400 1.340 . S
N399 C396 1.368 . S
N399 C400 1.321 . S
N399 Co402 2.135 . S
C400 N398 1.340 . S
C400 N399 1.321 . S
C400 H424 0.930 . S
H401 C396 0.931 . S
Co402 N399 2.135 . S
Co402 N405 2.121 . S
Co402 O410 2.055 . S
Co402 O413 2.039 . S
Co402 N416 2.140 . S
C403 O404 1.227 . S
C403 O413 1.265 . S
O404 C403 1.227 . S
N405 Co402 2.121 . S
N405 C407 1.375 . S
N405 C408 1.313 . S
C406 C407 1.338 . S
C406 N409 1.377 . S
C406 H426 0.930 . S
C407 N405 1.375 . S
C407 C406 1.338 . S
C407 H411 0.931 . S
C408 N405 1.313 . S
C408 N409 1.344 . S
C408 H412 0.930 . S
N409 C406 1.377 . S
N409 C408 1.344 . S
O410 Co402 2.055 . S
O410 C414 1.253 . S
H411 C407 0.931 . S
H412 C408 0.930 . S
O413 Co402 2.039 . S
O413 C403 1.265 . S
C414 O410 1.253 . S
C414 O415 1.227 . S
O415 C414 1.227 . S
N416 Co402 2.140 . S
N416 C419 1.346 . S
N416 C420 1.345 . S
C417 C418 1.387 . S
C417 C421 1.391 . S
C418 C417 1.387 . S
C418 C419 1.369 . S
C418 H427 0.929 . S
C419 N416 1.346 . S
C419 C418 1.369 . S
C419 H422 0.928 . S
C420 N416 1.345 . S
C420 C421 1.371 . S
C420 H423 0.931 . S
C421 C417 1.391 . S
C421 C420 1.371 . S
C421 H428 0.930 . S
H422 C419 0.928 . S
H423 C420 0.931 . S
H424 C400 0.930 . S
H425 C397 0.930 . S
H426 C406 0.930 . S
H427 C418 0.929 . S
H428 C421 0.930 . S
C429 C430 1.351 . S
C429 N432 1.368 . S
C429 H434 0.931 . S
C430 C429 1.351 . S
C430 N431 1.373 . S
C430 H458 0.930 . S
N431 C430 1.373 . S
N431 C433 1.340 . S
N432 C429 1.368 . S
N432 C433 1.321 . S
N432 Co435 2.135 . S
C433 N431 1.340 . S
C433 N432 1.321 . S
C433 H457 0.930 . S
H434 C429 0.931 . S
Co435 N432 2.135 . S
Co435 N438 2.121 . S
Co435 O443 2.055 . S
Co435 O446 2.039 . S
Co435 N449 2.140 . S
C436 O437 1.227 . S
C436 O446 1.265 . S
O437 C436 1.227 . S
N438 Co435 2.121 . S
N438 C440 1.375 . S
N438 C441 1.313 . S
C439 C440 1.338 . S
C439 N442 1.377 . S
C439 H459 0.930 . S
C440 N438 1.375 . S
C440 C439 1.338 . S
C440 H444 0.931 . S
C441 N438 1.313 . S
C441 N442 1.344 . S
C441 H445 0.930 . S
N442 C439 1.377 . S
N442 C441 1.344 . S
O443 Co435 2.055 . S
O443 C447 1.253 . S
H444 C440 0.931 . S
H445 C441 0.930 . S
O446 Co435 2.039 . S
O446 C436 1.265 . S
C447 O443 1.253 . S
C447 O448 1.227 . S
O448 C447 1.227 . S
N449 Co435 2.140 . S
N449 C452 1.346 . S
N449 C453 1.345 . S
C450 C451 1.387 . S
C450 C454 1.391 . S
C451 C450 1.387 . S
C451 C452 1.369 . S
C451 H460 0.929 . S
C452 N449 1.346 . S
C452 C451 1.369 . S
C452 H455 0.928 . S
C453 N449 1.345 . S
C453 C454 1.371 . S
C453 H456 0.931 . S
C454 C450 1.391 . S
C454 C453 1.371 . S
C454 H461 0.930 . S
H455 C452 0.928 . S
H456 C453 0.931 . S
H457 C433 0.930 . S
H458 C430 0.930 . S
H459 C439 0.930 . S
H460 C451 0.929 . S
H461 C454 0.930 . S
C462 C463 1.351 . S
C462 N465 1.368 . S
C462 H467 0.931 . S
C463 C462 1.351 . S
C463 N464 1.373 . S
C463 H491 0.930 . S
N464 C463 1.373 . S
N464 C466 1.340 . S
N465 C462 1.368 . S
N465 C466 1.321 . S
N465 Co468 2.135 . S
C466 N464 1.340 . S
C466 N465 1.321 . S
C466 H490 0.930 . S
H467 C462 0.931 . S
Co468 N465 2.135 . S
Co468 N471 2.121 . S
Co468 O476 2.055 . S
Co468 O479 2.039 . S
Co468 N482 2.140 . S
C469 O470 1.227 . S
C469 O479 1.265 . S
O470 C469 1.227 . S
N471 Co468 2.121 . S
N471 C473 1.375 . S
N471 C474 1.313 . S
C472 C473 1.338 . S
C472 N475 1.377 . S
C472 H492 0.930 . S
C473 N471 1.375 . S
C473 C472 1.338 . S
C473 H477 0.931 . S
C474 N471 1.313 . S
C474 N475 1.344 . S
C474 H478 0.930 . S
N475 C472 1.377 . S
N475 C474 1.344 . S
O476 Co468 2.055 . S
O476 C480 1.253 . S
H477 C473 0.931 . S
H478 C474 0.930 . S
O479 Co468 2.039 . S
O479 C469 1.265 . S
C480 O476 1.253 . S
C480 O481 1.227 . S
O481 C480 1.227 . S
N482 Co468 2.140 . S
N482 C485 1.346 . S
N482 C486 1.345 . S
C483 C484 1.387 . S
C483 C487 1.391 . S
C484 C483 1.387 . S
C484 C485 1.369 . S
C484 H493 0.929 . S
C485 N482 1.346 . S
C485 C484 1.369 . S
C485 H488 0.928 . S
C486 N482 1.345 . S
C486 C487 1.371 . S
C486 H489 0.931 . S
C487 C483 1.391 . S
C487 C486 1.371 . S
C487 H494 0.930 . S
H488 C485 0.928 . S
H489 C486 0.931 . S
H490 C466 0.930 . S
H491 C463 0.930 . S
H492 C472 0.930 . S
H493 C484 0.929 . S
H494 C487 0.930 . S
C495 C496 1.351 . S
C495 N498 1.368 . S
C495 H500 0.931 . S
C496 C495 1.351 . S
C496 N497 1.373 . S
C496 H524 0.930 . S
N497 C496 1.373 . S
N497 C499 1.340 . S
N498 C495 1.368 . S
N498 C499 1.321 . S
N498 Co501 2.135 . S
C499 N497 1.340 . S
C499 N498 1.321 . S
C499 H523 0.930 . S
H500 C495 0.931 . S
Co501 N498 2.135 . S
Co501 N504 2.121 . S
Co501 O509 2.055 . S
Co501 O512 2.039 . S
Co501 N515 2.140 . S
C502 O503 1.227 . S
C502 O512 1.265 . S
O503 C502 1.227 . S
N504 Co501 2.121 . S
N504 C506 1.375 . S
N504 C507 1.313 . S
C505 C506 1.338 . S
C505 N508 1.377 . S
C505 H525 0.930 . S
C506 N504 1.375 . S
C506 C505 1.338 . S
C506 H510 0.931 . S
C507 N504 1.313 . S
C507 N508 1.344 . S
C507 H511 0.930 . S
N508 C505 1.377 . S
N508 C507 1.344 . S
O509 Co501 2.055 . S
O509 C513 1.253 . S
H510 C506 0.931 . S
H511 C507 0.930 . S
O512 Co501 2.039 . S
O512 C502 1.265 . S
C513 O509 1.253 . S
C513 O514 1.227 . S
O514 C513 1.227 . S
N515 Co501 2.140 . S
N515 C518 1.346 . S
N515 C519 1.345 . S
C516 C517 1.387 . S
C516 C520 1.391 . S
C517 C516 1.387 . S
C517 C518 1.369 . S
C517 H526 0.929 . S
C518 N515 1.346 . S
C518 C517 1.369 . S
C518 H521 0.928 . S
C519 N515 1.345 . S
C519 C520 1.371 . S
C519 H522 0.931 . S
C520 C516 1.391 . S
C520 C519 1.371 . S
C520 H527 0.930 . S
H521 C518 0.928 . S
H522 C519 0.931 . S
H523 C499 0.930 . S
H524 C496 0.930 . S
H525 C505 0.930 . S
H526 C517 0.929 . S
H527 C520 0.930 . S
C528 C529 1.351 . S
C528 N531 1.368 . S
C528 H533 0.931 . S
C529 C528 1.351 . S
C529 N530 1.373 . S
C529 H557 0.930 . S
N530 C529 1.373 . S
N530 C532 1.340 . S
N531 C528 1.368 . S
N531 C532 1.321 . S
N531 Co534 2.135 . S
C532 N530 1.340 . S
C532 N531 1.321 . S
C532 H556 0.930 . S
H533 C528 0.931 . S
Co534 N531 2.135 . S
Co534 N537 2.121 . S
Co534 O542 2.055 . S
Co534 O545 2.039 . S
Co534 N548 2.140 . S
C535 O536 1.227 . S
C535 O545 1.265 . S
O536 C535 1.227 . S
N537 Co534 2.121 . S
N537 C539 1.375 . S
N537 C540 1.313 . S
C538 C539 1.338 . S
C538 N541 1.377 . S
C538 H558 0.930 . S
C539 N537 1.375 . S
C539 C538 1.338 . S
C539 H543 0.931 . S
C540 N537 1.313 . S
C540 N541 1.344 . S
C540 H544 0.930 . S
N541 C538 1.377 . S
N541 C540 1.344 . S
O542 Co534 2.055 . S
O542 C546 1.253 . S
H543 C539 0.931 . S
H544 C540 0.930 . S
O545 Co534 2.039 . S
O545 C535 1.265 . S
C546 O542 1.253 . S
C546 O547 1.227 . S
O547 C546 1.227 . S
N548 Co534 2.140 . S
N548 C551 1.346 . S
N548 C552 1.345 . S
C549 C550 1.387 . S
C549 C553 1.391 . S
C550 C549 1.387 . S
C550 C551 1.369 . S
C550 H559 0.929 . S
C551 N548 1.346 . S
C551 C550 1.369 . S
C551 H554 0.928 . S
C552 N548 1.345 . S
C552 C553 1.371 . S
C552 H555 0.931 . S
C553 C549 1.391 . S
C553 C552 1.371 . S
C553 H560 0.930 . S
H554 C551 0.928 . S
H555 C552 0.931 . S
H556 C532 0.930 . S
H557 C529 0.930 . S
H558 C538 0.930 . S
H559 C550 0.929 . S
H560 C553 0.930 . S
C561 C562 1.351 . S
C561 N564 1.368 . S
C561 H566 0.931 . S
C562 C561 1.351 . S
C562 N563 1.373 . S
C562 H590 0.930 . S
N563 C562 1.373 . S
N563 C565 1.340 . S
N564 C561 1.368 . S
N564 C565 1.321 . S
N564 Co567 2.135 . S
C565 N563 1.340 . S
C565 N564 1.321 . S
C565 H589 0.930 . S
H566 C561 0.931 . S
Co567 N564 2.135 . S
Co567 N570 2.121 . S
Co567 O575 2.055 . S
Co567 O578 2.039 . S
Co567 N581 2.140 . S
C568 O569 1.227 . S
C568 O578 1.265 . S
O569 C568 1.227 . S
N570 Co567 2.121 . S
N570 C572 1.375 . S
N570 C573 1.313 . S
C571 C572 1.338 . S
C571 N574 1.377 . S
C571 H591 0.930 . S
C572 N570 1.375 . S
C572 C571 1.338 . S
C572 H576 0.931 . S
C573 N570 1.313 . S
C573 N574 1.344 . S
C573 H577 0.930 . S
N574 C571 1.377 . S
N574 C573 1.344 . S
O575 Co567 2.055 . S
O575 C579 1.253 . S
H576 C572 0.931 . S
H577 C573 0.930 . S
O578 Co567 2.039 . S
O578 C568 1.265 . S
C579 O575 1.253 . S
C579 O580 1.227 . S
O580 C579 1.227 . S
N581 Co567 2.140 . S
N581 C584 1.346 . S
N581 C585 1.345 . S
C582 C583 1.387 . S
C582 C586 1.391 . S
C583 C582 1.387 . S
C583 C584 1.369 . S
C583 H592 0.929 . S
C584 N581 1.346 . S
C584 C583 1.369 . S
C584 H587 0.928 . S
C585 N581 1.345 . S
C585 C586 1.371 . S
C585 H588 0.931 . S
C586 C582 1.391 . S
C586 C585 1.371 . S
C586 H593 0.930 . S
H587 C584 0.928 . S
H588 C585 0.931 . S
H589 C565 0.930 . S
H590 C562 0.930 . S
H591 C571 0.930 . S
H592 C583 0.929 . S
H593 C586 0.930 . S
H594 C606 0.930 . S
H595 C608 0.930 . S
H596 C609 0.930 . S
H597 C613 0.959 . S
H598 C613 0.959 . S
H599 C613 0.961 . S
H600 C614 0.960 . S
H601 C614 0.961 . S
H602 C614 0.959 . S
H603 C617 0.929 . S
H604 C618 0.931 . S
H605 C620 0.930 . S
C606 H594 0.930 . S
C606 C607 1.399 . S
C606 C611 1.399 . S
C607 C606 1.399 . S
C607 C608 1.376 . S
C608 H595 0.930 . S
C608 C607 1.376 . S
C608 C609 1.388 . S
C609 H596 0.930 . S
C609 C608 1.388 . S
C609 C610 1.390 . S
C610 C609 1.390 . S
C610 C611 1.394 . S
C610 C616 1.465 . S
C611 C606 1.399 . S
C611 C610 1.394 . S
C611 C612 1.516 . S
C612 C611 1.516 . S
C612 C613 1.502 . S
C612 C614 1.561 . S
C612 C615 1.526 . S
C613 H597 0.959 . S
C613 H598 0.959 . S
C613 H599 0.961 . S
C613 C612 1.502 . S
C614 H600 0.960 . S
C614 H601 0.961 . S
C614 H602 0.959 . S
C614 C612 1.561 . S
C615 C612 1.526 . S
C615 C616 1.396 . S
C615 C620 1.390 . S
C616 C610 1.465 . S
C616 C615 1.396 . S
C616 C617 1.399 . S
C617 H603 0.929 . S
C617 C616 1.399 . S
C617 C618 1.385 . S
C618 H604 0.931 . S
C618 C617 1.385 . S
C618 C619 1.389 . S
C619 C618 1.389 . S
C619 C620 1.387 . S
C620 H605 0.930 . S
C620 C615 1.390 . S
C620 C619 1.387 . S
H621 C633 0.930 . S
H622 C635 0.930 . S
H623 C636 0.930 . S
H624 C640 0.959 . S
H625 C640 0.959 . S
H626 C640 0.961 . S
H627 C641 0.960 . S
H628 C641 0.961 . S
H629 C641 0.959 . S
H630 C644 0.929 . S
H631 C645 0.931 . S
H632 C647 0.930 . S
C633 H621 0.930 . S
C633 C634 1.399 . S
C633 C638 1.399 . S
C634 C633 1.399 . S
C634 C635 1.376 . S
C635 H622 0.930 . S
C635 C634 1.376 . S
C635 C636 1.388 . S
C636 H623 0.930 . S
C636 C635 1.388 . S
C636 C637 1.390 . S
C637 C636 1.390 . S
C637 C638 1.394 . S
C637 C643 1.465 . S
C638 C633 1.399 . S
C638 C637 1.394 . S
C638 C639 1.516 . S
C639 C638 1.516 . S
C639 C640 1.502 . S
C639 C641 1.561 . S
C639 C642 1.526 . S
C640 H624 0.959 . S
C640 H625 0.959 . S
C640 H626 0.961 . S
C640 C639 1.502 . S
C641 H627 0.960 . S
C641 H628 0.961 . S
C641 H629 0.959 . S
C641 C639 1.561 . S
C642 C639 1.526 . S
C642 C643 1.396 . S
C642 C647 1.390 . S
C643 C637 1.465 . S
C643 C642 1.396 . S
C643 C644 1.399 . S
C644 H630 0.929 . S
C644 C643 1.399 . S
C644 C645 1.385 . S
C645 H631 0.931 . S
C645 C644 1.385 . S
C645 C646 1.389 . S
C646 C645 1.389 . S
C646 C647 1.387 . S
C647 H632 0.930 . S
C647 C642 1.390 . S
C647 C646 1.387 . S
H648 C660 0.930 . S
H649 C662 0.930 . S
H650 C663 0.930 . S
H651 C667 0.959 . S
H652 C667 0.959 . S
H653 C667 0.961 . S
H654 C668 0.960 . S
H655 C668 0.961 . S
H656 C668 0.959 . S
H657 C671 0.929 . S
H658 C672 0.931 . S
H659 C674 0.930 . S
C660 H648 0.930 . S
C660 C661 1.399 . S
C660 C665 1.399 . S
C661 C660 1.399 . S
C661 C662 1.376 . S
C662 H649 0.930 . S
C662 C661 1.376 . S
C662 C663 1.388 . S
C663 H650 0.930 . S
C663 C662 1.388 . S
C663 C664 1.390 . S
C664 C663 1.390 . S
C664 C665 1.394 . S
C664 C670 1.465 . S
C665 C660 1.399 . S
C665 C664 1.394 . S
C665 C666 1.516 . S
C666 C665 1.516 . S
C666 C667 1.502 . S
C666 C668 1.561 . S
C666 C669 1.526 . S
C667 H651 0.959 . S
C667 H652 0.959 . S
C667 H653 0.961 . S
C667 C666 1.502 . S
C668 H654 0.960 . S
C668 H655 0.961 . S
C668 H656 0.959 . S
C668 C666 1.561 . S
C669 C666 1.526 . S
C669 C670 1.396 . S
C669 C674 1.390 . S
C670 C664 1.465 . S
C670 C669 1.396 . S
C670 C671 1.399 . S
C671 H657 0.929 . S
C671 C670 1.399 . S
C671 C672 1.385 . S
C672 H658 0.931 . S
C672 C671 1.385 . S
C672 C673 1.389 . S
C673 C672 1.389 . S
C673 C674 1.387 . S
C674 H659 0.930 . S
C674 C669 1.390 . S
C674 C673 1.387 . S
H675 C687 0.930 . S
H676 C689 0.930 1_545 S
H677 C690 0.930 . S
H678 C694 0.959 . S
H679 C694 0.959 . S
H680 C694 0.961 . S
H681 C695 0.960 . S
H682 C695 0.961 . S
H683 C695 0.959 . S
H684 C698 0.929 . S
H685 C699 0.931 . S
H686 C701 0.930 . S
C687 H675 0.930 . S
C687 C688 1.399 . S
C687 C692 1.399 . S
C688 C687 1.399 . S
C688 C689 1.376 . S
C689 H676 0.930 1_565 S
C689 C688 1.376 . S
C689 C690 1.388 . S
C690 H677 0.930 . S
C690 C689 1.388 . S
C690 C691 1.390 . S
C691 C690 1.390 . S
C691 C692 1.394 . S
C691 C697 1.465 . S
C692 C687 1.399 . S
C692 C691 1.394 . S
C692 C693 1.516 . S
C693 C692 1.516 . S
C693 C694 1.502 . S
C693 C695 1.561 . S
C693 C696 1.526 . S
C694 H678 0.959 . S
C694 H679 0.959 . S
C694 H680 0.961 . S
C694 C693 1.502 . S
C695 H681 0.960 . S
C695 H682 0.961 . S
C695 H683 0.959 . S
C695 C693 1.561 . S
C696 C693 1.526 . S
C696 C697 1.396 . S
C696 C701 1.390 . S
C697 C691 1.465 . S
C697 C696 1.396 . S
C697 C698 1.399 . S
C698 H684 0.929 . S
C698 C697 1.399 . S
C698 C699 1.385 . S
C699 H685 0.931 . S
C699 C698 1.385 . S
C699 C700 1.389 . S
C700 C699 1.389 . S
C700 C701 1.387 . S
C701 H686 0.930 . S
C701 C696 1.390 . S
C701 C700 1.387 . S
H702 C714 0.930 . S
H703 C716 0.930 . S
H704 C717 0.930 . S
H705 C721 0.959 . S
H706 C721 0.959 . S
H707 C721 0.961 . S
H708 C722 0.960 . S
H709 C722 0.961 . S
H710 C722 0.959 . S
H711 C725 0.929 . S
H712 C726 0.931 . S
H713 C728 0.930 . S
C714 H702 0.930 . S
C714 C715 1.399 . S
C714 C719 1.399 . S
C715 C714 1.399 . S
C715 C716 1.376 . S
C716 H703 0.930 . S
C716 C715 1.376 . S
C716 C717 1.388 . S
C717 H704 0.930 . S
C717 C716 1.388 . S
C717 C718 1.390 . S
C718 C717 1.390 . S
C718 C719 1.394 . S
C718 C724 1.465 . S
C719 C714 1.399 . S
C719 C718 1.394 . S
C719 C720 1.516 . S
C720 C719 1.516 . S
C720 C721 1.502 . S
C720 C722 1.561 . S
C720 C723 1.526 . S
C721 H705 0.959 . S
C721 H706 0.959 . S
C721 H707 0.961 . S
C721 C720 1.502 . S
C722 H708 0.960 . S
C722 H709 0.961 . S
C722 H710 0.959 . S
C722 C720 1.561 . S
C723 C720 1.526 . S
C723 C724 1.396 . S
C723 C728 1.390 . S
C724 C718 1.465 . S
C724 C723 1.396 . S
C724 C725 1.399 . S
C725 H711 0.929 . S
C725 C724 1.399 . S
C725 C726 1.385 . S
C726 H712 0.931 . S
C726 C725 1.385 . S
C726 C727 1.389 . S
C727 C726 1.389 . S
C727 C728 1.387 . S
C728 H713 0.930 . S
C728 C723 1.390 . S
C728 C727 1.387 . S
H729 C741 0.930 . S
H730 C743 0.930 . S
H731 C744 0.930 . S
H732 C748 0.959 . S
H733 C748 0.959 . S
H734 C748 0.961 . S
H735 C749 0.960 . S
H736 C749 0.961 . S
H737 C749 0.959 . S
H738 C752 0.929 . S
H739 C753 0.931 . S
H740 C755 0.930 . S
C741 H729 0.930 . S
C741 C742 1.399 . S
C741 C746 1.399 . S
C742 C741 1.399 . S
C742 C743 1.376 . S
C743 H730 0.930 . S
C743 C742 1.376 . S
C743 C744 1.388 . S
C744 H731 0.930 . S
C744 C743 1.388 . S
C744 C745 1.390 . S
C745 C744 1.390 . S
C745 C746 1.394 . S
C745 C751 1.465 . S
C746 C741 1.399 . S
C746 C745 1.394 . S
C746 C747 1.516 . S
C747 C746 1.516 . S
C747 C748 1.502 . S
C747 C749 1.561 . S
C747 C750 1.526 . S
C748 H732 0.959 . S
C748 H733 0.959 . S
C748 H734 0.961 . S
C748 C747 1.502 . S
C749 H735 0.960 . S
C749 H736 0.961 . S
C749 H737 0.959 . S
C749 C747 1.561 . S
C750 C747 1.526 . S
C750 C751 1.396 . S
C750 C755 1.390 . S
C751 C745 1.465 . S
C751 C750 1.396 . S
C751 C752 1.399 . S
C752 H738 0.929 . S
C752 C751 1.399 . S
C752 C753 1.385 . S
C753 H739 0.931 . S
C753 C752 1.385 . S
C753 C754 1.389 . S
C754 C753 1.389 . S
C754 C755 1.387 . S
C755 H740 0.930 . S
C755 C750 1.390 . S
C755 C754 1.387 . S
H756 C768 0.930 . S
H757 C770 0.930 . S
H758 C771 0.930 . S
H759 C775 0.959 . S
H760 C775 0.959 . S
H761 C775 0.961 . S
H762 C776 0.960 . S
H763 C776 0.961 . S
H764 C776 0.959 . S
H765 C779 0.929 . S
H766 C780 0.931 . S
H767 C782 0.930 . S
C768 H756 0.930 . S
C768 C769 1.399 . S
C768 C773 1.399 . S
C769 C768 1.399 . S
C769 C770 1.376 . S
C770 H757 0.930 . S
C770 C769 1.376 . S
C770 C771 1.388 . S
C771 H758 0.930 . S
C771 C770 1.388 . S
C771 C772 1.390 . S
C772 C771 1.390 . S
C772 C773 1.394 . S
C772 C778 1.465 . S
C773 C768 1.399 . S
C773 C772 1.394 . S
C773 C774 1.516 . S
C774 C773 1.516 . S
C774 C775 1.502 . S
C774 C776 1.561 . S
C774 C777 1.526 . S
C775 H759 0.959 . S
C775 H760 0.959 . S
C775 H761 0.961 . S
C775 C774 1.502 . S
C776 H762 0.960 . S
C776 H763 0.961 . S
C776 H764 0.959 . S
C776 C774 1.561 . S
C777 C774 1.526 . S
C777 C778 1.396 . S
C777 C782 1.390 . S
C778 C772 1.465 . S
C778 C777 1.396 . S
C778 C779 1.399 . S
C779 H765 0.929 . S
C779 C778 1.399 . S
C779 C780 1.385 . S
C780 H766 0.931 . S
C780 C779 1.385 . S
C780 C781 1.389 . S
C781 C780 1.389 . S
C781 C782 1.387 . S
C782 H767 0.930 . S
C782 C777 1.390 . S
C782 C781 1.387 . S
H783 C795 0.930 . S
H784 C797 0.930 . S
H785 C798 0.930 . S
H786 C802 0.959 . S
H787 C802 0.959 . S
H788 C802 0.961 . S
H789 C803 0.960 . S
H790 C803 0.961 . S
H791 C803 0.959 . S
H792 C806 0.929 1_565 S
H793 C807 0.931 . S
H794 C809 0.930 . S
C795 H783 0.930 . S
C795 C796 1.399 . S
C795 C800 1.399 . S
C796 C795 1.399 . S
C796 C797 1.376 . S
C797 H784 0.930 . S
C797 C796 1.376 . S
C797 C798 1.388 . S
C798 H785 0.930 . S
C798 C797 1.388 . S
C798 C799 1.390 . S
C799 C798 1.390 . S
C799 C800 1.394 . S
C799 C805 1.465 1_565 S
C800 C795 1.399 . S
C800 C799 1.394 . S
C800 C801 1.516 1_565 S
C801 C800 1.516 1_545 S
C801 C802 1.502 . S
C801 C803 1.561 . S
C801 C804 1.526 . S
C802 H786 0.959 . S
C802 H787 0.959 . S
C802 H788 0.961 . S
C802 C801 1.502 . S
C803 H789 0.960 . S
C803 H790 0.961 . S
C803 H791 0.959 . S
C803 C801 1.561 . S
C804 C801 1.526 . S
C804 C805 1.396 . S
C804 C809 1.390 . S
C805 C799 1.465 1_545 S
C805 C804 1.396 . S
C805 C806 1.399 . S
C806 H792 0.929 1_545 S
C806 C805 1.399 . S
C806 C807 1.385 . S
C807 H793 0.931 . S
C807 C806 1.385 . S
C807 C808 1.389 . S
C808 C807 1.389 . S
C808 C809 1.387 . S
C809 H794 0.930 . S
C809 C804 1.390 . S
C809 C808 1.387 . S
H810 C822 0.930 . S
H811 C824 0.930 . S
H812 C825 0.930 . S
H813 C829 0.959 . S
H814 C829 0.959 . S
H815 C829 0.961 . S
H816 C830 0.960 . S
H817 C830 0.961 . S
H818 C830 0.959 . S
H819 C833 0.929 1_455 S
H820 C834 0.931 . S
H821 C836 0.930 . S
C822 H810 0.930 . S
C822 C823 1.399 . S
C822 C827 1.399 . S
C823 C822 1.399 . S
C823 C824 1.376 . S
C824 H811 0.930 . S
C824 C823 1.376 . S
C824 C825 1.388 . S
C825 H812 0.930 . S
C825 C824 1.388 . S
C825 C826 1.390 . S
C826 C825 1.390 . S
C826 C827 1.394 . S
C826 C832 1.465 1_455 S
C827 C822 1.399 . S
C827 C826 1.394 . S
C827 C828 1.516 1_455 S
C828 C827 1.516 1_655 S
C828 C829 1.502 . S
C828 C830 1.561 . S
C828 C831 1.526 . S
C829 H813 0.959 . S
C829 H814 0.959 . S
C829 H815 0.961 . S
C829 C828 1.502 . S
C830 H816 0.960 . S
C830 H817 0.961 . S
C830 H818 0.959 . S
C830 C828 1.561 . S
C831 C828 1.526 . S
C831 C832 1.396 . S
C831 C836 1.390 . S
C832 C826 1.465 1_655 S
C832 C831 1.396 . S
C832 C833 1.399 . S
C833 H819 0.929 1_655 S
C833 C832 1.399 . S
C833 C834 1.385 . S
C834 H820 0.931 . S
C834 C833 1.385 . S
C834 C835 1.389 . S
C835 C834 1.389 . S
C835 C836 1.387 . S
C836 H821 0.930 . S
C836 C831 1.390 . S
C836 C835 1.387 . S
H837 C849 0.930 . S
H838 C851 0.930 . S
H839 C852 0.930 . S
H840 C856 0.959 . S
H841 C856 0.959 . S
H842 C856 0.961 . S
H843 C857 0.960 . S
H844 C857 0.961 . S
H845 C857 0.959 . S
H846 C860 0.929 . S
H847 C861 0.931 . S
H848 C863 0.930 . S
C849 H837 0.930 . S
C849 C850 1.399 . S
C849 C854 1.399 . S
C850 C849 1.399 . S
C850 C851 1.376 . S
C851 H838 0.930 . S
C851 C850 1.376 . S
C851 C852 1.388 . S
C852 H839 0.930 . S
C852 C851 1.388 . S
C852 C853 1.390 . S
C853 C852 1.390 . S
C853 C854 1.394 . S
C853 C859 1.465 . S
C854 C849 1.399 . S
C854 C853 1.394 . S
C854 C855 1.516 . S
C855 C854 1.516 . S
C855 C856 1.502 . S
C855 C857 1.561 . S
C855 C858 1.526 . S
C856 H840 0.959 . S
C856 H841 0.959 . S
C856 H842 0.961 . S
C856 C855 1.502 . S
C857 H843 0.960 . S
C857 H844 0.961 . S
C857 H845 0.959 . S
C857 C855 1.561 . S
C858 C855 1.526 . S
C858 C859 1.396 . S
C858 C863 1.390 . S
C859 C853 1.465 . S
C859 C858 1.396 . S
C859 C860 1.399 . S
C860 H846 0.929 . S
C860 C859 1.399 . S
C860 C861 1.385 . S
C861 H847 0.931 . S
C861 C860 1.385 . S
C861 C862 1.389 . S
C862 C861 1.389 . S
C862 C863 1.387 . S
C863 H848 0.930 . S
C863 C858 1.390 . S
C863 C862 1.387 . S
H864 C876 0.930 . S
H865 C878 0.930 . S
H866 C879 0.930 . S
H867 C883 0.959 . S
H868 C883 0.959 . S
H869 C883 0.961 . S
H870 C884 0.960 . S
H871 C884 0.961 . S
H872 C884 0.959 . S
H873 C887 0.929 . S
H874 C888 0.931 . S
H875 C890 0.930 . S
C876 H864 0.930 . S
C876 C877 1.399 . S
C876 C881 1.399 . S
C877 C876 1.399 . S
C877 C878 1.376 . S
C878 H865 0.930 . S
C878 C877 1.376 . S
C878 C879 1.388 . S
C879 H866 0.930 . S
C879 C878 1.388 . S
C879 C880 1.390 . S
C880 C879 1.390 . S
C880 C881 1.394 . S
C880 C886 1.465 . S
C881 C876 1.399 . S
C881 C880 1.394 . S
C881 C882 1.516 . S
C882 C881 1.516 . S
C882 C883 1.502 . S
C882 C884 1.561 . S
C882 C885 1.526 . S
C883 H867 0.959 . S
C883 H868 0.959 . S
C883 H869 0.961 . S
C883 C882 1.502 . S
C884 H870 0.960 . S
C884 H871 0.961 . S
C884 H872 0.959 . S
C884 C882 1.561 . S
C885 C882 1.526 . S
C885 C886 1.396 . S
C885 C890 1.390 . S
C886 C880 1.465 . S
C886 C885 1.396 . S
C886 C887 1.399 . S
C887 H873 0.929 . S
C887 C886 1.399 . S
C887 C888 1.385 . S
C888 H874 0.931 . S
C888 C887 1.385 . S
C888 C889 1.389 . S
C889 C888 1.389 . S
C889 C890 1.387 . S
C890 H875 0.930 . S
C890 C885 1.390 . S
C890 C889 1.387 . S
H891 C903 0.930 . S
H892 C905 0.930 . S
H893 C906 0.930 . S
H894 C910 0.959 . S
H895 C910 0.959 . S
H896 C910 0.961 . S
H897 C911 0.960 . S
H898 C911 0.961 . S
H899 C911 0.959 . S
H900 C914 0.929 . S
H901 C915 0.931 . S
H902 C917 0.930 . S
C903 H891 0.930 . S
C903 C904 1.399 . S
C903 C908 1.399 . S
C904 C903 1.399 . S
C904 C905 1.376 . S
C905 H892 0.930 . S
C905 C904 1.376 . S
C905 C906 1.388 . S
C906 H893 0.930 . S
C906 C905 1.388 . S
C906 C907 1.390 . S
C907 C906 1.390 . S
C907 C908 1.394 . S
C907 C913 1.465 . S
C908 C903 1.399 . S
C908 C907 1.394 . S
C908 C909 1.516 . S
C909 C908 1.516 . S
C909 C910 1.502 . S
C909 C911 1.561 . S
C909 C912 1.526 . S
C910 H894 0.959 . S
C910 H895 0.959 . S
C910 H896 0.961 . S
C910 C909 1.502 . S
C911 H897 0.960 . S
C911 H898 0.961 . S
C911 H899 0.959 . S
C911 C909 1.561 . S
C912 C909 1.526 . S
C912 C913 1.396 . S
C912 C917 1.390 . S
C913 C907 1.465 . S
C913 C912 1.396 . S
C913 C914 1.399 . S
C914 H900 0.929 . S
C914 C913 1.399 . S
C914 C915 1.385 . S
C915 H901 0.931 . S
C915 C914 1.385 . S
C915 C916 1.389 . S
C916 C915 1.389 . S
C916 C917 1.387 . S
C917 H902 0.930 . S
C917 C912 1.390 . S
C917 C916 1.387 . S
H918 C930 0.930 . S
H919 C932 0.930 . S
H920 C933 0.930 . S
H921 C937 0.959 . S
H922 C937 0.959 . S
H923 C937 0.961 . S
H924 C938 0.960 . S
H925 C938 0.961 . S
H926 C938 0.959 . S
H927 C941 0.929 . S
H928 C942 0.931 . S
H929 C944 0.930 . S
C930 H918 0.930 . S
C930 C931 1.399 . S
C930 C935 1.399 . S
C931 C930 1.399 . S
C931 C932 1.376 . S
C932 H919 0.930 . S
C932 C931 1.376 . S
C932 C933 1.388 . S
C933 H920 0.930 . S
C933 C932 1.388 . S
C933 C934 1.390 . S
C934 C933 1.390 . S
C934 C935 1.394 . S
C934 C940 1.465 . S
C935 C930 1.399 . S
C935 C934 1.394 . S
C935 C936 1.516 . S
C936 C935 1.516 . S
C936 C937 1.502 . S
C936 C938 1.561 . S
C936 C939 1.526 . S
C937 H921 0.959 . S
C937 H922 0.959 . S
C937 H923 0.961 . S
C937 C936 1.502 . S
C938 H924 0.960 . S
C938 H925 0.961 . S
C938 H926 0.959 . S
C938 C936 1.561 . S
C939 C936 1.526 . S
C939 C940 1.396 . S
C939 C944 1.390 . S
C940 C934 1.465 . S
C940 C939 1.396 . S
C940 C941 1.399 . S
C941 H927 0.929 . S
C941 C940 1.399 . S
C941 C942 1.385 . S
C942 H928 0.931 . S
C942 C941 1.385 . S
C942 C943 1.389 . S
C943 C942 1.389 . S
C943 C944 1.387 . S
C944 H929 0.930 . S
C944 C939 1.390 . S
C944 C943 1.387 . S
H945 C957 0.930 . S
H946 C959 0.930 . S
H947 C960 0.930 . S
H948 C964 0.959 . S
H949 C964 0.959 . S
H950 C964 0.961 . S
H951 C965 0.960 . S
H952 C965 0.961 . S
H953 C965 0.959 . S
H954 C968 0.929 . S
H955 C969 0.931 . S
H956 C971 0.930 . S
C957 H945 0.930 . S
C957 C958 1.399 . S
C957 C962 1.399 . S
C958 C957 1.399 . S
C958 C959 1.376 . S
C959 H946 0.930 . S
C959 C958 1.376 . S
C959 C960 1.388 . S
C960 H947 0.930 . S
C960 C959 1.388 . S
C960 C961 1.390 . S
C961 C960 1.390 . S
C961 C962 1.394 . S
C961 C967 1.465 . S
C962 C957 1.399 . S
C962 C961 1.394 . S
C962 C963 1.516 . S
C963 C962 1.516 . S
C963 C964 1.502 . S
C963 C965 1.561 . S
C963 C966 1.526 . S
C964 H948 0.959 . S
C964 H949 0.959 . S
C964 H950 0.961 . S
C964 C963 1.502 . S
C965 H951 0.960 . S
C965 H952 0.961 . S
C965 H953 0.959 . S
C965 C963 1.561 . S
C966 C963 1.526 . S
C966 C967 1.396 . S
C966 C971 1.390 . S
C967 C961 1.465 . S
C967 C966 1.396 . S
C967 C968 1.399 . S
C968 H954 0.929 . S
C968 C967 1.399 . S
C968 C969 1.385 . S
C969 H955 0.931 . S
C969 C968 1.385 . S
C969 C970 1.389 . S
C970 C969 1.389 . S
C970 C971 1.387 . S
C971 H956 0.930 . S
C971 C966 1.390 . S
C971 C970 1.387 . S
H972 C984 0.930 . S
H973 C986 0.930 . S
H974 C987 0.930 . S
H975 C991 0.959 . S
H976 C991 0.959 . S
H977 C991 0.961 . S
H978 C992 0.960 . S
H979 C992 0.961 . S
H980 C992 0.959 . S
H981 C995 0.929 . S
H982 C996 0.931 . S
H983 C998 0.930 . S
C984 H972 0.930 . S
C984 C985 1.399 . S
C984 C989 1.399 . S
C985 C984 1.399 . S
C985 C986 1.376 . S
C986 H973 0.930 . S
C986 C985 1.376 . S
C986 C987 1.388 . S
C987 H974 0.930 . S
C987 C986 1.388 . S
C987 C988 1.390 . S
C988 C987 1.390 . S
C988 C989 1.394 . S
C988 C994 1.465 . S
C989 C984 1.399 . S
C989 C988 1.394 . S
C989 C990 1.516 . S
C990 C989 1.516 . S
C990 C991 1.502 . S
C990 C992 1.561 . S
C990 C993 1.526 . S
C991 H975 0.959 . S
C991 H976 0.959 . S
C991 H977 0.961 . S
C991 C990 1.502 . S
C992 H978 0.960 . S
C992 H979 0.961 . S
C992 H980 0.959 . S
C992 C990 1.561 . S
C993 C990 1.526 . S
C993 C994 1.396 . S
C993 C998 1.390 . S
C994 C988 1.465 . S
C994 C993 1.396 . S
C994 C995 1.399 . S
C995 H981 0.929 . S
C995 C994 1.399 . S
C995 C996 1.385 . S
C996 H982 0.931 . S
C996 C995 1.385 . S
C996 C997 1.389 . S
C997 C996 1.389 . S
C997 C998 1.387 . S
C998 H983 0.930 . S
C998 C993 1.390 . S
C998 C997 1.387 . S
H999 C1011 0.930 . S
H1000 C1013 0.930 . S
H1001 C1014 0.934 . S
H1002 C1018 0.959 1_656 S
H1003 C1018 0.963 . S
H1004 C1018 0.961 1_655 S
H1005 C1019 0.960 . S
H1006 C1019 0.961 . S
H1007 C1019 0.959 . S
H1008 C1022 0.929 . S
H1009 C1023 0.931 . S
H1010 C1025 0.930 . S
C1011 H999 0.930 . S
C1011 C1012 1.399 . S
C1011 C1016 1.399 . S
C1012 C1011 1.399 . S
C1012 C1013 1.376 . S
C1013 H1000 0.930 . S
C1013 C1012 1.376 . S
C1013 C1014 1.388 . S
C1014 H1001 0.934 . S
C1014 C1013 1.388 . S
C1014 C1015 1.390 . S
C1015 C1014 1.390 . S
C1015 C1016 1.394 . S
C1015 C1021 1.465 1_654 S
C1016 C1011 1.399 . S
C1016 C1015 1.394 . S
C1016 C1017 1.516 1_655 S
C1017 C1016 1.516 1_455 S
C1017 C1018 1.502 . S
C1017 C1019 1.561 . S
C1017 C1020 1.526 1_554 S
C1018 H1002 0.959 1_454 S
C1018 H1003 0.963 . S
C1018 H1004 0.961 1_455 S
C1018 C1017 1.502 . S
C1019 H1005 0.960 . S
C1019 H1006 0.961 . S
C1019 H1007 0.959 . S
C1019 C1017 1.561 . S
C1020 C1017 1.526 1_556 S
C1020 C1021 1.396 . S
C1020 C1025 1.390 . S
C1021 C1015 1.465 1_456 S
C1021 C1020 1.396 . S
C1021 C1022 1.399 . S
C1022 H1008 0.929 . S
C1022 C1021 1.399 . S
C1022 C1023 1.385 . S
C1023 H1009 0.931 . S
C1023 C1022 1.385 . S
C1023 C1024 1.389 . S
C1024 C1023 1.389 . S
C1024 C1025 1.387 . S
C1025 H1010 0.930 . S
C1025 C1020 1.390 . S
C1025 C1024 1.387 . S
H1026 C1038 0.930 . S
H1027 C1040 0.930 . S
H1028 C1041 0.930 . S
H1029 C1045 0.959 . S
H1030 C1045 0.959 . S
H1031 C1045 0.961 1_556 S
H1032 C1046 0.960 . S
H1033 C1046 0.961 . S
H1034 C1046 0.959 . S
H1035 C1049 0.929 . S
H1036 C1050 0.931 . S
H1037 C1052 0.930 . S
C1038 H1026 0.930 . S
C1038 C1039 1.399 . S
C1038 C1043 1.399 . S
C1039 C1038 1.399 . S
C1039 C1040 1.376 . S
C1040 H1027 0.930 . S
C1040 C1039 1.376 . S
C1040 C1041 1.388 . S
C1041 H1028 0.930 . S
C1041 C1040 1.388 . S
C1041 C1042 1.390 . S
C1042 C1041 1.390 . S
C1042 C1043 1.394 . S
C1042 C1048 1.465 1_556 S
C1043 C1038 1.399 . S
C1043 C1042 1.394 . S
C1043 C1044 1.516 . S
C1044 C1043 1.516 . S
C1044 C1045 1.502 1_556 S
C1044 C1046 1.561 . S
C1044 C1047 1.526 1_556 S
C1045 H1029 0.959 . S
C1045 H1030 0.959 . S
C1045 H1031 0.961 1_554 S
C1045 C1044 1.502 1_554 S
C1046 H1032 0.960 . S
C1046 H1033 0.961 . S
C1046 H1034 0.959 . S
C1046 C1044 1.561 . S
C1047 C1044 1.526 1_554 S
C1047 C1048 1.396 . S
C1047 C1052 1.390 . S
C1048 C1042 1.465 1_554 S
C1048 C1047 1.396 . S
C1048 C1049 1.399 . S
C1049 H1035 0.929 . S
C1049 C1048 1.399 . S
C1049 C1050 1.385 . S
C1050 H1036 0.931 . S
C1050 C1049 1.385 . S
C1050 C1051 1.389 . S
C1051 C1050 1.389 . S
C1051 C1052 1.387 . S
C1052 H1037 0.930 . S
C1052 C1047 1.390 . S
C1052 C1051 1.387 . S
H1053 C1065 0.930 . S
H1054 C1067 0.930 . S
H1055 C1068 0.930 . S
H1056 C1072 0.959 . S
H1057 C1072 0.959 . S
H1058 C1072 0.961 . S
H1059 C1073 0.960 . S
H1060 C1073 0.961 . S
H1061 C1073 0.959 . S
H1062 C1076 0.929 1_545 S
H1063 C1077 0.931 . S
H1064 C1079 0.927 1_554 S
C1065 H1053 0.930 . S
C1065 C1066 1.399 . S
C1065 C1070 1.399 . S
C1066 C1065 1.399 . S
C1066 C1067 1.376 . S
C1067 H1054 0.930 . S
C1067 C1066 1.376 . S
C1067 C1068 1.388 1_554 S
C1068 H1055 0.930 . S
C1068 C1067 1.388 1_556 S
C1068 C1069 1.390 . S
C1069 C1068 1.390 . S
C1069 C1070 1.394 1_556 S
C1069 C1075 1.465 1_545 S
C1070 C1065 1.399 . S
C1070 C1069 1.394 1_554 S
C1070 C1071 1.516 1_545 S
C1071 C1070 1.516 1_565 S
C1071 C1072 1.502 . S
C1071 C1073 1.561 . S
C1071 C1074 1.526 1_554 S
C1072 H1056 0.959 . S
C1072 H1057 0.959 . S
C1072 H1058 0.961 . S
C1072 C1071 1.502 . S
C1073 H1059 0.960 . S
C1073 H1060 0.961 . S
C1073 H1061 0.959 . S
C1073 C1071 1.561 . S
C1074 C1071 1.526 1_556 S
C1074 C1075 1.396 . S
C1074 C1079 1.390 . S
C1075 C1069 1.465 1_565 S
C1075 C1074 1.396 . S
C1075 C1076 1.399 . S
C1076 H1062 0.929 1_565 S
C1076 C1075 1.399 . S
C1076 C1077 1.385 . S
C1077 H1063 0.931 . S
C1077 C1076 1.385 . S
C1077 C1078 1.389 . S
C1078 C1077 1.389 . S
C1078 C1079 1.387 . S
C1079 H1064 0.927 1_556 S
C1079 C1074 1.390 . S
C1079 C1078 1.387 . S
H1080 C1092 0.930 . S
H1081 C1094 0.930 . S
H1082 C1095 0.930 . S
H1083 C1099 0.959 . S
H1084 C1099 0.959 1_556 S
H1085 C1099 0.961 . S
H1086 C1100 0.960 . S
H1087 C1100 0.961 . S
H1088 C1100 0.959 . S
H1089 C1103 0.929 . S
H1090 C1104 0.931 . S
H1091 C1106 0.930 . S
C1092 H1080 0.930 . S
C1092 C1093 1.399 . S
C1092 C1097 1.399 . S
C1093 C1092 1.399 . S
C1093 C1094 1.376 . S
C1094 H1081 0.930 . S
C1094 C1093 1.376 . S
C1094 C1095 1.388 . S
C1095 H1082 0.930 . S
C1095 C1094 1.388 . S
C1095 C1096 1.390 . S
C1096 C1095 1.390 . S
C1096 C1097 1.394 . S
C1096 C1102 1.465 1_454 S
C1097 C1092 1.399 . S
C1097 C1096 1.394 . S
C1097 C1098 1.516 1_554 S
C1098 C1097 1.516 1_556 S
C1098 C1099 1.502 1_456 S
C1098 C1100 1.561 . S
C1098 C1101 1.526 1_455 S
C1099 H1083 0.959 . S
C1099 H1084 0.959 1_554 S
C1099 H1085 0.961 . S
C1099 C1098 1.502 1_654 S
C1100 H1086 0.960 . S
C1100 H1087 0.961 . S
C1100 H1088 0.959 . S
C1100 C1098 1.561 . S
C1101 C1098 1.526 1_655 S
C1101 C1102 1.396 . S
C1101 C1106 1.390 . S
C1102 C1096 1.465 1_656 S
C1102 C1101 1.396 . S
C1102 C1103 1.399 . S
C1103 H1089 0.929 . S
C1103 C1102 1.399 . S
C1103 C1104 1.385 . S
C1104 H1090 0.931 . S
C1104 C1103 1.385 . S
C1104 C1105 1.389 . S
C1105 C1104 1.389 . S
C1105 C1106 1.387 . S
C1106 H1091 0.930 . S
C1106 C1101 1.390 . S
C1106 C1105 1.387 . S
H1107 C1119 0.930 . S
H1108 C1121 0.930 . S
H1109 C1122 0.930 . S
H1110 C1126 0.959 . S
H1111 C1126 0.959 . S
H1112 C1126 0.961 1_556 S
H1113 C1127 0.960 . S
H1114 C1127 0.958 1_554 S
H1115 C1127 0.959 . S
H1116 C1130 0.929 . S
H1117 C1131 0.931 . S
H1118 C1133 0.930 . S
C1119 H1107 0.930 . S
C1119 C1120 1.399 . S
C1119 C1124 1.399 . S
C1120 C1119 1.399 . S
C1120 C1121 1.376 . S
C1121 H1108 0.930 . S
C1121 C1120 1.376 . S
C1121 C1122 1.388 . S
C1122 H1109 0.930 . S
C1122 C1121 1.388 . S
C1122 C1123 1.390 . S
C1123 C1122 1.390 . S
C1123 C1124 1.394 . S
C1123 C1129 1.465 1_556 S
C1124 C1119 1.399 . S
C1124 C1123 1.394 . S
C1124 C1125 1.538 . S
C1125 C1124 1.538 . S
C1125 C1126 1.490 1_556 S
C1125 C1127 1.574 . S
C1125 C1128 1.504 1_556 S
C1126 H1110 0.959 . S
C1126 H1111 0.959 . S
C1126 H1112 0.961 1_554 S
C1126 C1125 1.490 1_554 S
C1127 H1113 0.960 . S
C1127 H1114 0.958 1_556 S
C1127 H1115 0.959 . S
C1127 C1125 1.574 . S
C1128 C1125 1.504 1_554 S
C1128 C1129 1.396 . S
C1128 C1133 1.390 . S
C1129 C1123 1.465 1_554 S
C1129 C1128 1.396 . S
C1129 C1130 1.399 . S
C1130 H1116 0.929 . S
C1130 C1129 1.399 . S
C1130 C1131 1.385 . S
C1131 H1117 0.931 . S
C1131 C1130 1.385 . S
C1131 C1132 1.389 . S
C1132 C1131 1.389 . S
C1132 C1133 1.387 . S
C1133 H1118 0.930 . S
C1133 C1128 1.390 . S
C1133 C1132 1.387 . S
H1134 C1146 0.930 1_565 S
H1135 C1148 0.930 . S
H1136 C1149 0.930 . S
H1137 C1153 0.959 . S
H1138 C1153 0.959 . S
H1139 C1153 0.961 . S
H1140 C1154 0.960 . S
H1141 C1154 0.961 . S
H1142 C1154 0.959 . S
H1143 C1157 0.929 . S
H1144 C1158 0.931 1_545 S
H1145 C1160 0.930 . S
C1146 H1134 0.930 1_545 S
C1146 C1147 1.399 . S
C1146 C1151 1.387 1_545 S
C1147 C1146 1.399 . S
C1147 C1148 1.376 . S
C1148 H1135 0.930 . S
C1148 C1147 1.376 . S
C1148 C1149 1.388 . S
C1149 H1136 0.930 . S
C1149 C1148 1.388 . S
C1149 C1150 1.390 . S
C1150 C1149 1.390 . S
C1150 C1151 1.374 1_545 S
C1150 C1156 1.465 1_556 S
C1151 C1146 1.387 1_565 S
C1151 C1150 1.374 1_565 S
C1151 C1152 1.549 . S
C1152 C1151 1.549 . S
C1152 C1153 1.502 . S
C1152 C1154 1.561 . S
C1152 C1155 1.526 1_556 S
C1153 H1137 0.959 . S
C1153 H1138 0.959 . S
C1153 H1139 0.961 . S
C1153 C1152 1.502 . S
C1154 H1140 0.960 . S
C1154 H1141 0.961 . S
C1154 H1142 0.959 . S
C1154 C1152 1.561 . S
C1155 C1152 1.526 1_554 S
C1155 C1156 1.396 1_565 S
C1155 C1160 1.390 . S
C1156 C1150 1.465 1_554 S
C1156 C1155 1.396 1_545 S
C1156 C1157 1.399 . S
C1157 H1143 0.929 . S
C1157 C1156 1.399 . S
C1157 C1158 1.385 1_545 S
C1158 H1144 0.931 1_565 S
C1158 C1157 1.385 1_565 S
C1158 C1159 1.389 . S
C1159 C1158 1.389 . S
C1159 C1160 1.387 . S
C1160 H1145 0.930 . S
C1160 C1155 1.390 . S
C1160 C1159 1.387 . S
H1161 C1173 0.930 . S
H1162 C1175 0.930 . S
H1163 C1176 0.930 . S
H1164 C1180 0.959 . S
H1165 C1180 0.959 . S
H1166 C1180 0.961 . S
H1167 C1181 0.960 . S
H1168 C1181 0.961 . S
H1169 C1181 0.959 . S
H1170 C1184 0.929 . S
H1171 C1185 0.931 . S
H1172 C1187 0.930 . S
C1173 H1161 0.930 . S
C1173 C1174 1.399 . S
C1173 C1178 1.399 . S
C1174 C1173 1.399 . S
C1174 C1175 1.376 . S
C1175 H1162 0.930 . S
C1175 C1174 1.376 . S
C1175 C1176 1.388 . S
C1176 H1163 0.930 . S
C1176 C1175 1.388 . S
C1176 C1177 1.390 . S
C1177 C1176 1.390 . S
C1177 C1178 1.394 . S
C1177 C1183 1.465 . S
C1178 C1173 1.399 . S
C1178 C1177 1.394 . S
C1178 C1179 1.516 . S
C1179 C1178 1.516 . S
C1179 C1180 1.502 . S
C1179 C1181 1.561 . S
C1179 C1182 1.526 . S
C1180 H1164 0.959 . S
C1180 H1165 0.959 . S
C1180 H1166 0.961 . S
C1180 C1179 1.502 . S
C1181 H1167 0.960 . S
C1181 H1168 0.961 . S
C1181 H1169 0.959 . S
C1181 C1179 1.561 . S
C1182 C1179 1.526 . S
C1182 C1183 1.396 . S
C1182 C1187 1.390 . S
C1183 C1177 1.465 . S
C1183 C1182 1.396 . S
C1183 C1184 1.399 . S
C1184 H1170 0.929 . S
C1184 C1183 1.399 . S
C1184 C1185 1.385 . S
C1185 H1171 0.931 . S
C1185 C1184 1.385 . S
C1185 C1186 1.389 . S
C1186 C1185 1.389 . S
C1186 C1187 1.387 . S
C1187 H1172 0.930 . S
C1187 C1182 1.390 . S
C1187 C1186 1.387 . S
H1188 C1200 0.930 . S
H1189 C1202 0.930 . S
H1190 C1203 0.930 . S
H1191 C1207 0.959 . S
H1192 C1207 0.959 . S
H1193 C1207 0.961 . S
H1194 C1208 0.960 . S
H1195 C1208 0.961 . S
H1196 C1208 0.959 . S
H1197 C1211 0.929 . S
H1198 C1212 0.931 . S
H1199 C1214 0.930 . S
C1200 H1188 0.930 . S
C1200 C1201 1.399 . S
C1200 C1205 1.399 . S
C1201 C1200 1.399 . S
C1201 C1202 1.376 . S
C1202 H1189 0.930 . S
C1202 C1201 1.376 . S
C1202 C1203 1.388 . S
C1203 H1190 0.930 . S
C1203 C1202 1.388 . S
C1203 C1204 1.390 . S
C1204 C1203 1.390 . S
C1204 C1205 1.394 . S
C1204 C1210 1.465 . S
C1205 C1200 1.399 . S
C1205 C1204 1.394 . S
C1205 C1206 1.516 . S
C1206 C1205 1.516 . S
C1206 C1207 1.502 . S
C1206 C1208 1.561 . S
C1206 C1209 1.526 . S
C1207 H1191 0.959 . S
C1207 H1192 0.959 . S
C1207 H1193 0.961 . S
C1207 C1206 1.502 . S
C1208 H1194 0.960 . S
C1208 H1195 0.961 . S
C1208 H1196 0.959 . S
C1208 C1206 1.561 . S
C1209 C1206 1.526 . S
C1209 C1210 1.396 . S
C1209 C1214 1.390 . S
C1210 C1204 1.465 . S
C1210 C1209 1.396 . S
C1210 C1211 1.399 . S
C1211 H1197 0.929 . S
C1211 C1210 1.399 . S
C1211 C1212 1.385 . S
C1212 H1198 0.931 . S
C1212 C1211 1.385 . S
C1212 C1213 1.389 . S
C1213 C1212 1.389 . S
C1213 C1214 1.387 . S
C1214 H1199 0.930 . S
C1214 C1209 1.390 . S
C1214 C1213 1.387 . S
H1215 C1227 0.930 . S
H1216 C1229 0.930 . S
H1217 C1230 0.930 . S
H1218 C1234 0.959 . S
H1219 C1234 0.959 . S
H1220 C1234 0.961 . S
H1221 C1235 0.960 . S
H1222 C1235 0.961 . S
H1223 C1235 0.959 . S
H1224 C1238 0.929 . S
H1225 C1239 0.931 . S
H1226 C1241 0.930 . S
C1227 H1215 0.930 . S
C1227 C1228 1.399 . S
C1227 C1232 1.399 . S
C1228 C1227 1.399 . S
C1228 C1229 1.376 . S
C1229 H1216 0.930 . S
C1229 C1228 1.376 . S
C1229 C1230 1.388 . S
C1230 H1217 0.930 . S
C1230 C1229 1.388 . S
C1230 C1231 1.390 . S
C1231 C1230 1.390 . S
C1231 C1232 1.394 . S
C1231 C1237 1.465 . S
C1232 C1227 1.399 . S
C1232 C1231 1.394 . S
C1232 C1233 1.516 . S
C1233 C1232 1.516 . S
C1233 C1234 1.502 . S
C1233 C1235 1.561 . S
C1233 C1236 1.526 . S
C1234 H1218 0.959 . S
C1234 H1219 0.959 . S
C1234 H1220 0.961 . S
C1234 C1233 1.502 . S
C1235 H1221 0.960 . S
C1235 H1222 0.961 . S
C1235 H1223 0.959 . S
C1235 C1233 1.561 . S
C1236 C1233 1.526 . S
C1236 C1237 1.396 . S
C1236 C1241 1.390 . S
C1237 C1231 1.465 . S
C1237 C1236 1.396 . S
C1237 C1238 1.399 . S
C1238 H1224 0.929 . S
C1238 C1237 1.399 . S
C1238 C1239 1.385 . S
C1239 H1225 0.931 . S
C1239 C1238 1.385 . S
C1239 C1240 1.389 . S
C1240 C1239 1.389 . S
C1240 C1241 1.387 . S
C1241 H1226 0.930 . S
C1241 C1236 1.390 . S
C1241 C1240 1.387 . S
H1242 C1254 0.930 . S
H1243 C1256 0.930 . S
H1244 C1257 0.930 . S
H1245 C1261 0.959 . S
H1246 C1261 0.959 . S
H1247 C1261 0.961 . S
H1248 C1262 0.960 . S
H1249 C1262 0.961 . S
H1250 C1262 0.959 . S
H1251 C1265 0.929 . S
H1252 C1266 0.931 . S
H1253 C1268 0.930 . S
C1254 H1242 0.930 . S
C1254 C1255 1.399 . S
C1254 C1259 1.399 . S
C1255 C1254 1.399 . S
C1255 C1256 1.376 . S
C1256 H1243 0.930 . S
C1256 C1255 1.376 . S
C1256 C1257 1.388 . S
C1257 H1244 0.930 . S
C1257 C1256 1.388 . S
C1257 C1258 1.390 . S
C1258 C1257 1.390 . S
C1258 C1259 1.394 . S
C1258 C1264 1.465 . S
C1259 C1254 1.399 . S
C1259 C1258 1.394 . S
C1259 C1260 1.516 . S
C1260 C1259 1.516 . S
C1260 C1261 1.502 . S
C1260 C1262 1.561 . S
C1260 C1263 1.526 . S
C1261 H1245 0.959 . S
C1261 H1246 0.959 . S
C1261 H1247 0.961 . S
C1261 C1260 1.502 . S
C1262 H1248 0.960 . S
C1262 H1249 0.961 . S
C1262 H1250 0.959 . S
C1262 C1260 1.561 . S
C1263 C1260 1.526 . S
C1263 C1264 1.396 . S
C1263 C1268 1.390 . S
C1264 C1258 1.465 . S
C1264 C1263 1.396 . S
C1264 C1265 1.399 . S
C1265 H1251 0.929 . S
C1265 C1264 1.399 . S
C1265 C1266 1.385 . S
C1266 H1252 0.931 . S
C1266 C1265 1.385 . S
C1266 C1267 1.389 . S
C1267 C1266 1.389 . S
C1267 C1268 1.387 . S
C1268 H1253 0.930 . S
C1268 C1263 1.390 . S
C1268 C1267 1.387 . S
H1269 C1281 0.930 . S
H1270 C1283 0.930 . S
H1271 C1284 0.930 . S
H1272 C1288 0.959 . S
H1273 C1288 0.959 . S
H1274 C1288 0.961 . S
H1275 C1289 0.960 . S
H1276 C1289 0.961 . S
H1277 C1289 0.959 . S
H1278 C1292 0.929 . S
H1279 C1293 0.931 . S
H1280 C1295 0.930 . S
C1281 H1269 0.930 . S
C1281 C1282 1.399 . S
C1281 C1286 1.399 . S
C1282 C1281 1.399 . S
C1282 C1283 1.376 . S
C1283 H1270 0.930 . S
C1283 C1282 1.376 . S
C1283 C1284 1.388 . S
C1284 H1271 0.930 . S
C1284 C1283 1.388 . S
C1284 C1285 1.390 . S
C1285 C1284 1.390 . S
C1285 C1286 1.394 . S
C1285 C1291 1.465 . S
C1286 C1281 1.399 . S
C1286 C1285 1.394 . S
C1286 C1287 1.516 . S
C1287 C1286 1.516 . S
C1287 C1288 1.502 . S
C1287 C1289 1.561 . S
C1287 C1290 1.526 . S
C1288 H1272 0.959 . S
C1288 H1273 0.959 . S
C1288 H1274 0.961 . S
C1288 C1287 1.502 . S
C1289 H1275 0.960 . S
C1289 H1276 0.961 . S
C1289 H1277 0.959 . S
C1289 C1287 1.561 . S
C1290 C1287 1.526 . S
C1290 C1291 1.396 . S
C1290 C1295 1.390 . S
C1291 C1285 1.465 . S
C1291 C1290 1.396 . S
C1291 C1292 1.399 . S
C1292 H1278 0.929 . S
C1292 C1291 1.399 . S
C1292 C1293 1.385 . S
C1293 H1279 0.931 . S
C1293 C1292 1.385 . S
C1293 C1294 1.389 . S
C1294 C1293 1.389 . S
C1294 C1295 1.387 . S
C1295 H1280 0.930 . S
C1295 C1290 1.390 . S
C1295 C1294 1.387 . S
H1296 C1308 0.930 . S
H1297 C1310 0.930 . S
H1298 C1311 0.930 . S
H1299 C1315 0.959 . S
H1300 C1315 0.959 . S
H1301 C1315 0.961 . S
H1302 C1316 0.960 . S
H1303 C1316 0.961 . S
H1304 C1316 0.959 . S
H1305 C1319 0.929 . S
H1306 C1320 0.931 . S
H1307 C1322 0.930 . S
C1308 H1296 0.930 . S
C1308 C1309 1.399 . S
C1308 C1313 1.399 . S
C1309 C1308 1.399 . S
C1309 C1310 1.376 . S
C1310 H1297 0.930 . S
C1310 C1309 1.376 . S
C1310 C1311 1.388 . S
C1311 H1298 0.930 . S
C1311 C1310 1.388 . S
C1311 C1312 1.390 . S
C1312 C1311 1.390 . S
C1312 C1313 1.394 . S
C1312 C1318 1.465 . S
C1313 C1308 1.399 . S
C1313 C1312 1.394 . S
C1313 C1314 1.516 . S
C1314 C1313 1.516 . S
C1314 C1315 1.502 . S
C1314 C1316 1.561 . S
C1314 C1317 1.526 . S
C1315 H1299 0.959 . S
C1315 H1300 0.959 . S
C1315 H1301 0.961 . S
C1315 C1314 1.502 . S
C1316 H1302 0.960 . S
C1316 H1303 0.961 . S
C1316 H1304 0.959 . S
C1316 C1314 1.561 . S
C1317 C1314 1.526 . S
C1317 C1318 1.396 . S
C1317 C1322 1.390 . S
C1318 C1312 1.465 . S
C1318 C1317 1.396 . S
C1318 C1319 1.399 . S
C1319 H1305 0.929 . S
C1319 C1318 1.399 . S
C1319 C1320 1.385 . S
C1320 H1306 0.931 . S
C1320 C1319 1.385 . S
C1320 C1321 1.389 . S
C1321 C1320 1.389 . S
C1321 C1322 1.387 . S
C1322 H1307 0.930 . S
C1322 C1317 1.390 . S
C1322 C1321 1.387 . S
H1323 C1335 0.930 . S
H1324 C1337 0.930 . S
H1325 C1338 0.930 . S
H1326 C1342 0.959 . S
H1327 C1342 0.959 . S
H1328 C1342 0.961 . S
H1329 C1343 0.960 . S
H1330 C1343 0.961 . S
H1331 C1343 0.959 . S
H1332 C1346 0.929 . S
H1333 C1347 0.931 . S
H1334 C1349 0.930 . S
C1335 H1323 0.930 . S
C1335 C1336 1.399 . S
C1335 C1340 1.399 . S
C1336 C1335 1.399 . S
C1336 C1337 1.376 . S
C1337 H1324 0.930 . S
C1337 C1336 1.376 . S
C1337 C1338 1.388 . S
C1338 H1325 0.930 . S
C1338 C1337 1.388 . S
C1338 C1339 1.390 . S
C1339 C1338 1.390 . S
C1339 C1340 1.394 . S
C1339 C1345 1.465 . S
C1340 C1335 1.399 . S
C1340 C1339 1.394 . S
C1340 C1341 1.516 . S
C1341 C1340 1.516 . S
C1341 C1342 1.502 . S
C1341 C1343 1.561 . S
C1341 C1344 1.526 . S
C1342 H1326 0.959 . S
C1342 H1327 0.959 . S
C1342 H1328 0.961 . S
C1342 C1341 1.502 . S
C1343 H1329 0.960 . S
C1343 H1330 0.961 . S
C1343 H1331 0.959 . S
C1343 C1341 1.561 . S
C1344 C1341 1.526 . S
C1344 C1345 1.396 . S
C1344 C1349 1.390 . S
C1345 C1339 1.465 . S
C1345 C1344 1.396 . S
C1345 C1346 1.399 . S
C1346 H1332 0.929 . S
C1346 C1345 1.399 . S
C1346 C1347 1.385 . S
C1347 H1333 0.931 . S
C1347 C1346 1.385 . S
C1347 C1348 1.389 . S
C1348 C1347 1.389 . S
C1348 C1349 1.387 . S
C1349 H1334 0.930 . S
C1349 C1344 1.390 . S
C1349 C1348 1.387 . S
H1350 C1362 0.930 . S
H1351 C1364 0.930 . S
H1352 C1365 0.930 . S
H1353 C1369 0.959 . S
H1354 C1369 0.959 . S
H1355 C1369 0.961 . S
H1356 C1370 0.960 . S
H1357 C1370 0.961 . S
H1358 C1370 0.959 . S
H1359 C1373 0.929 1_545 S
H1360 C1374 0.931 . S
H1361 C1376 0.930 . S
C1362 H1350 0.930 . S
C1362 C1363 1.399 . S
C1362 C1367 1.399 . S
C1363 C1362 1.399 . S
C1363 C1364 1.376 . S
C1364 H1351 0.930 . S
C1364 C1363 1.376 . S
C1364 C1365 1.388 . S
C1365 H1352 0.930 . S
C1365 C1364 1.388 . S
C1365 C1366 1.390 . S
C1366 C1365 1.390 . S
C1366 C1367 1.394 . S
C1366 C1372 1.465 . S
C1367 C1362 1.399 . S
C1367 C1366 1.394 . S
C1367 C1368 1.516 . S
C1368 C1367 1.516 . S
C1368 C1369 1.502 . S
C1368 C1370 1.561 . S
C1368 C1371 1.526 . S
C1369 H1353 0.959 . S
C1369 H1354 0.959 . S
C1369 H1355 0.961 . S
C1369 C1368 1.502 . S
C1370 H1356 0.960 . S
C1370 H1357 0.961 . S
C1370 H1358 0.959 . S
C1370 C1368 1.561 . S
C1371 C1368 1.526 . S
C1371 C1372 1.396 . S
C1371 C1376 1.390 1_545 S
C1372 C1366 1.465 . S
C1372 C1371 1.396 . S
C1372 C1373 1.399 1_545 S
C1373 H1359 0.929 1_565 S
C1373 C1372 1.399 1_565 S
C1373 C1374 1.385 . S
C1374 H1360 0.931 . S
C1374 C1373 1.385 . S
C1374 C1375 1.389 . S
C1375 C1374 1.389 . S
C1375 C1376 1.387 . S
C1376 H1361 0.930 . S
C1376 C1371 1.390 1_565 S
C1376 C1375 1.387 . S
H1377 C1389 0.930 . S
H1378 C1391 0.930 . S
H1379 C1392 0.930 . S
H1380 C1396 0.959 . S
H1381 C1396 0.959 . S
H1382 C1396 0.961 . S
H1383 C1397 0.960 . S
H1384 C1397 0.961 . S
H1385 C1397 0.959 . S
H1386 C1400 0.929 . S
H1387 C1401 0.931 . S
H1388 C1403 0.930 . S
C1389 H1377 0.930 . S
C1389 C1390 1.399 . S
C1389 C1394 1.399 . S
C1390 C1389 1.399 . S
C1390 C1391 1.376 . S
C1391 H1378 0.930 . S
C1391 C1390 1.376 . S
C1391 C1392 1.388 . S
C1392 H1379 0.930 . S
C1392 C1391 1.388 . S
C1392 C1393 1.390 . S
C1393 C1392 1.390 . S
C1393 C1394 1.394 . S
C1393 C1399 1.465 . S
C1394 C1389 1.399 . S
C1394 C1393 1.394 . S
C1394 C1395 1.516 . S
C1395 C1394 1.516 . S
C1395 C1396 1.502 . S
C1395 C1397 1.561 . S
C1395 C1398 1.526 . S
C1396 H1380 0.959 . S
C1396 H1381 0.959 . S
C1396 H1382 0.961 . S
C1396 C1395 1.502 . S
C1397 H1383 0.960 . S
C1397 H1384 0.961 . S
C1397 H1385 0.959 . S
C1397 C1395 1.561 . S
C1398 C1395 1.526 . S
C1398 C1399 1.396 . S
C1398 C1403 1.390 1_655 S
C1399 C1393 1.465 . S
C1399 C1398 1.396 . S
C1399 C1400 1.399 1_655 S
C1400 H1386 0.929 . S
C1400 C1399 1.399 1_455 S
C1400 C1401 1.385 . S
C1401 H1387 0.931 . S
C1401 C1400 1.385 . S
C1401 C1402 1.389 . S
C1402 C1401 1.389 . S
C1402 C1403 1.387 . S
C1403 H1388 0.930 . S
C1403 C1398 1.390 1_455 S
C1403 C1402 1.387 . S
H1404 C1416 0.930 . S
H1405 C1418 0.930 . S
H1406 C1419 0.930 . S
H1407 C1423 0.959 . S
H1408 C1423 0.959 . S
H1409 C1423 0.961 . S
H1410 C1424 0.960 . S
H1411 C1424 0.961 . S
H1412 C1424 0.959 . S
H1413 C1427 0.929 . S
H1414 C1428 0.931 . S
H1415 C1430 0.930 . S
C1416 H1404 0.930 . S
C1416 C1417 1.399 . S
C1416 C1421 1.399 . S
C1417 C1416 1.399 . S
C1417 C1418 1.376 . S
C1418 H1405 0.930 . S
C1418 C1417 1.376 . S
C1418 C1419 1.388 . S
C1419 H1406 0.930 . S
C1419 C1418 1.388 . S
C1419 C1420 1.390 . S
C1420 C1419 1.390 . S
C1420 C1421 1.394 . S
C1420 C1426 1.465 . S
C1421 C1416 1.399 . S
C1421 C1420 1.394 . S
C1421 C1422 1.516 . S
C1422 C1421 1.516 . S
C1422 C1423 1.502 . S
C1422 C1424 1.561 . S
C1422 C1425 1.526 . S
C1423 H1407 0.959 . S
C1423 H1408 0.959 . S
C1423 H1409 0.961 . S
C1423 C1422 1.502 . S
C1424 H1410 0.960 . S
C1424 H1411 0.961 . S
C1424 H1412 0.959 . S
C1424 C1422 1.561 . S
C1425 C1422 1.526 . S
C1425 C1426 1.396 . S
C1425 C1430 1.390 . S
C1426 C1420 1.465 . S
C1426 C1425 1.396 . S
C1426 C1427 1.399 . S
C1427 H1413 0.929 . S
C1427 C1426 1.399 . S
C1427 C1428 1.385 . S
C1428 H1414 0.931 . S
C1428 C1427 1.385 . S
C1428 C1429 1.389 . S
C1429 C1428 1.389 . S
C1429 C1430 1.387 . S
C1430 H1415 0.930 . S
C1430 C1425 1.390 . S
C1430 C1429 1.387 . S
H1431 C1443 0.930 . S
H1432 C1445 0.930 . S
H1433 C1446 0.930 1_565 S
H1434 C1450 0.959 . S
H1435 C1450 0.959 . S
H1436 C1450 0.961 . S
H1437 C1451 0.960 . S
H1438 C1451 0.961 . S
H1439 C1451 0.959 . S
H1440 C1454 0.929 . S
H1441 C1455 0.931 . S
H1442 C1457 0.930 . S
C1443 H1431 0.930 . S
C1443 C1444 1.399 . S
C1443 C1448 1.399 1_545 S
C1444 C1443 1.399 . S
C1444 C1445 1.376 . S
C1445 H1432 0.930 . S
C1445 C1444 1.376 . S
C1445 C1446 1.388 . S
C1446 H1433 0.930 1_545 S
C1446 C1445 1.388 . S
C1446 C1447 1.390 1_545 S
C1447 C1446 1.390 1_565 S
C1447 C1448 1.394 . S
C1447 C1453 1.465 . S
C1448 C1443 1.399 1_565 S
C1448 C1447 1.394 . S
C1448 C1449 1.516 . S
C1449 C1448 1.516 . S
C1449 C1450 1.502 . S
C1449 C1451 1.561 . S
C1449 C1452 1.526 . S
C1450 H1434 0.959 . S
C1450 H1435 0.959 . S
C1450 H1436 0.961 . S
C1450 C1449 1.502 . S
C1451 H1437 0.960 . S
C1451 H1438 0.961 . S
C1451 H1439 0.959 . S
C1451 C1449 1.561 . S
C1452 C1449 1.526 . S
C1452 C1453 1.396 . S
C1452 C1457 1.390 . S
C1453 C1447 1.465 . S
C1453 C1452 1.396 . S
C1453 C1454 1.399 . S
C1454 H1440 0.929 . S
C1454 C1453 1.399 . S
C1454 C1455 1.385 . S
C1455 H1441 0.931 . S
C1455 C1454 1.385 . S
C1455 C1456 1.389 . S
C1456 C1455 1.389 . S
C1456 C1457 1.387 . S
C1457 H1442 0.930 . S
C1457 C1452 1.390 . S
C1457 C1456 1.387 . S
H1458 C1470 0.930 . S
H1459 C1472 0.930 . S
H1460 C1473 0.930 . S
H1461 C1477 0.959 . S
H1462 C1477 0.959 . S
H1463 C1477 0.961 . S
H1464 C1478 0.960 . S
H1465 C1478 0.961 . S
H1466 C1478 0.959 . S
H1467 C1481 0.929 1_455 S
H1468 C1482 0.931 . S
H1469 C1484 0.930 . S
C1470 H1458 0.930 . S
C1470 C1471 1.399 . S
C1470 C1475 1.399 . S
C1471 C1470 1.399 . S
C1471 C1472 1.376 . S
C1472 H1459 0.930 . S
C1472 C1471 1.376 . S
C1472 C1473 1.388 . S
C1473 H1460 0.930 . S
C1473 C1472 1.388 . S
C1473 C1474 1.390 . S
C1474 C1473 1.390 . S
C1474 C1475 1.394 . S
C1474 C1480 1.465 . S
C1475 C1470 1.399 . S
C1475 C1474 1.394 . S
C1475 C1476 1.516 . S
C1476 C1475 1.516 . S
C1476 C1477 1.502 . S
C1476 C1478 1.561 . S
C1476 C1479 1.526 . S
C1477 H1461 0.959 . S
C1477 H1462 0.959 . S
C1477 H1463 0.961 . S
C1477 C1476 1.502 . S
C1478 H1464 0.960 . S
C1478 H1465 0.961 . S
C1478 H1466 0.959 . S
C1478 C1476 1.561 . S
C1479 C1476 1.526 . S
C1479 C1480 1.396 . S
C1479 C1484 1.390 1_455 S
C1480 C1474 1.465 . S
C1480 C1479 1.396 . S
C1480 C1481 1.399 1_455 S
C1481 H1467 0.929 1_655 S
C1481 C1480 1.399 1_655 S
C1481 C1482 1.385 . S
C1482 H1468 0.931 . S
C1482 C1481 1.385 . S
C1482 C1483 1.389 . S
C1483 C1482 1.389 . S
C1483 C1484 1.387 . S
C1484 H1469 0.930 . S
C1484 C1479 1.390 1_655 S
C1484 C1483 1.387 . S
H1485 C1497 0.930 . S
H1486 C1499 0.930 . S
H1487 C1500 0.930 . S
H1488 C1504 0.959 . S
H1489 C1504 0.959 . S
H1490 C1504 0.961 . S
H1491 C1505 0.960 . S
H1492 C1505 0.961 . S
H1493 C1505 0.959 . S
H1494 C1508 0.929 . S
H1495 C1509 0.931 . S
H1496 C1511 0.930 . S
C1497 H1485 0.930 . S
C1497 C1498 1.399 . S
C1497 C1502 1.399 . S
C1498 C1497 1.399 . S
C1498 C1499 1.376 . S
C1499 H1486 0.930 . S
C1499 C1498 1.376 . S
C1499 C1500 1.388 . S
C1500 H1487 0.930 . S
C1500 C1499 1.388 . S
C1500 C1501 1.390 . S
C1501 C1500 1.390 . S
C1501 C1502 1.394 . S
C1501 C1507 1.465 . S
C1502 C1497 1.399 . S
C1502 C1501 1.394 . S
C1502 C1503 1.516 . S
C1503 C1502 1.516 . S
C1503 C1504 1.502 . S
C1503 C1505 1.561 . S
C1503 C1506 1.526 . S
C1504 H1488 0.959 . S
C1504 H1489 0.959 . S
C1504 H1490 0.961 . S
C1504 C1503 1.502 . S
C1505 H1491 0.960 . S
C1505 H1492 0.961 . S
C1505 H1493 0.959 . S
C1505 C1503 1.561 . S
C1506 C1503 1.526 . S
C1506 C1507 1.396 . S
C1506 C1511 1.390 . S
C1507 C1501 1.465 . S
C1507 C1506 1.396 . S
C1507 C1508 1.399 . S
C1508 H1494 0.929 . S
C1508 C1507 1.399 . S
C1508 C1509 1.385 . S
C1509 H1495 0.931 . S
C1509 C1508 1.385 . S
C1509 C1510 1.389 . S
C1510 C1509 1.389 . S
C1510 C1511 1.387 . S
C1511 H1496 0.930 . S
C1511 C1506 1.390 . S
C1511 C1510 1.387 . S
H1512 C1524 0.930 . S
H1513 C1526 0.930 . S
H1514 C1527 0.930 . S
H1515 C1531 0.959 . S
H1516 C1531 0.959 . S
H1517 C1531 0.961 . S
H1518 C1532 0.960 . S
H1519 C1532 0.961 . S
H1520 C1532 0.959 . S
H1521 C1535 0.929 . S
H1522 C1536 0.931 . S
H1523 C1538 0.930 . S
C1524 H1512 0.930 . S
C1524 C1525 1.399 . S
C1524 C1529 1.399 . S
C1525 C1524 1.399 . S
C1525 C1526 1.376 . S
C1526 H1513 0.930 . S
C1526 C1525 1.376 . S
C1526 C1527 1.388 . S
C1527 H1514 0.930 . S
C1527 C1526 1.388 . S
C1527 C1528 1.390 . S
C1528 C1527 1.390 . S
C1528 C1529 1.394 . S
C1528 C1534 1.465 . S
C1529 C1524 1.399 . S
C1529 C1528 1.394 . S
C1529 C1530 1.516 . S
C1530 C1529 1.516 . S
C1530 C1531 1.502 . S
C1530 C1532 1.561 . S
C1530 C1533 1.526 . S
C1531 H1515 0.959 . S
C1531 H1516 0.959 . S
C1531 H1517 0.961 . S
C1531 C1530 1.502 . S
C1532 H1518 0.960 . S
C1532 H1519 0.961 . S
C1532 H1520 0.959 . S
C1532 C1530 1.561 . S
C1533 C1530 1.526 . S
C1533 C1534 1.396 . S
C1533 C1538 1.390 . S
C1534 C1528 1.465 . S
C1534 C1533 1.396 . S
C1534 C1535 1.399 . S
C1535 H1521 0.929 . S
C1535 C1534 1.399 . S
C1535 C1536 1.385 . S
C1536 H1522 0.931 . S
C1536 C1535 1.385 . S
C1536 C1537 1.389 . S
C1537 C1536 1.389 . S
C1537 C1538 1.387 . S
C1538 H1523 0.930 . S
C1538 C1533 1.390 . S
C1538 C1537 1.387 . S
H1539 C1551 0.930 . S
H1540 C1553 0.930 . S
H1541 C1554 0.930 . S
H1542 C1558 0.959 . S
H1543 C1558 0.959 . S
H1544 C1558 0.961 . S
H1545 C1559 0.960 . S
H1546 C1559 0.961 . S
H1547 C1559 0.959 . S
H1548 C1562 0.929 . S
H1549 C1563 0.931 . S
H1550 C1565 0.930 . S
C1551 H1539 0.930 . S
C1551 C1552 1.399 . S
C1551 C1556 1.399 . S
C1552 C1551 1.399 . S
C1552 C1553 1.376 . S
C1553 H1540 0.930 . S
C1553 C1552 1.376 . S
C1553 C1554 1.388 . S
C1554 H1541 0.930 . S
C1554 C1553 1.388 . S
C1554 C1555 1.390 . S
C1555 C1554 1.390 . S
C1555 C1556 1.394 . S
C1555 C1561 1.465 . S
C1556 C1551 1.399 . S
C1556 C1555 1.394 . S
C1556 C1557 1.516 . S
C1557 C1556 1.516 . S
C1557 C1558 1.502 . S
C1557 C1559 1.561 . S
C1557 C1560 1.526 . S
C1558 H1542 0.959 . S
C1558 H1543 0.959 . S
C1558 H1544 0.961 . S
C1558 C1557 1.502 . S
C1559 H1545 0.960 . S
C1559 H1546 0.961 . S
C1559 H1547 0.959 . S
C1559 C1557 1.561 . S
C1560 C1557 1.526 . S
C1560 C1561 1.396 . S
C1560 C1565 1.390 . S
C1561 C1555 1.465 . S
C1561 C1560 1.396 . S
C1561 C1562 1.399 . S
C1562 H1548 0.929 . S
C1562 C1561 1.399 . S
C1562 C1563 1.385 . S
C1563 H1549 0.931 . S
C1563 C1562 1.385 . S
C1563 C1564 1.389 . S
C1564 C1563 1.389 . S
C1564 C1565 1.387 . S
C1565 H1550 0.930 . S
C1565 C1560 1.390 . S
C1565 C1564 1.387 . S
H1566 C1578 0.930 . S
H1567 C1580 0.930 . S
H1568 C1581 0.930 . S
H1569 C1585 0.959 . S
H1570 C1585 0.959 . S
H1571 C1585 0.961 . S
H1572 C1586 0.960 . S
H1573 C1586 0.961 . S
H1574 C1586 0.959 . S
H1575 C1589 0.929 . S
H1576 C1590 0.931 . S
H1577 C1592 0.930 . S
C1578 H1566 0.930 . S
C1578 C1579 1.399 . S
C1578 C1583 1.399 . S
C1579 C1578 1.399 . S
C1579 C1580 1.376 . S
C1580 H1567 0.930 . S
C1580 C1579 1.376 . S
C1580 C1581 1.388 . S
C1581 H1568 0.930 . S
C1581 C1580 1.388 . S
C1581 C1582 1.390 . S
C1582 C1581 1.390 . S
C1582 C1583 1.394 . S
C1582 C1588 1.465 . S
C1583 C1578 1.399 . S
C1583 C1582 1.394 . S
C1583 C1584 1.516 . S
C1584 C1583 1.516 . S
C1584 C1585 1.502 . S
C1584 C1586 1.561 . S
C1584 C1587 1.526 . S
C1585 H1569 0.959 . S
C1585 H1570 0.959 . S
C1585 H1571 0.961 . S
C1585 C1584 1.502 . S
C1586 H1572 0.960 . S
C1586 H1573 0.961 . S
C1586 H1574 0.959 . S
C1586 C1584 1.561 . S
C1587 C1584 1.526 . S
C1587 C1588 1.396 . S
C1587 C1592 1.390 . S
C1588 C1582 1.465 . S
C1588 C1587 1.396 . S
C1588 C1589 1.399 . S
C1589 H1575 0.929 . S
C1589 C1588 1.399 . S
C1589 C1590 1.385 . S
C1590 H1576 0.931 . S
C1590 C1589 1.385 . S
C1590 C1591 1.389 . S
C1591 C1590 1.389 . S
C1591 C1592 1.387 . S
C1592 H1577 0.930 . S
C1592 C1587 1.390 . S
C1592 C1591 1.387 . S
H1593 C1605 0.930 . S
H1594 C1607 0.930 . S
H1595 C1608 0.930 . S
H1596 C1612 0.959 . S
H1597 C1612 0.959 . S
H1598 C1612 0.961 . S
H1599 C1613 0.960 . S
H1600 C1613 0.961 . S
H1601 C1613 0.959 . S
H1602 C1616 0.929 . S
H1603 C1617 0.931 . S
H1604 C1619 0.930 . S
C1605 H1593 0.930 . S
C1605 C1606 1.399 . S
C1605 C1610 1.399 . S
C1606 C1605 1.399 . S
C1606 C1607 1.376 . S
C1607 H1594 0.930 . S
C1607 C1606 1.376 . S
C1607 C1608 1.388 . S
C1608 H1595 0.930 . S
C1608 C1607 1.388 . S
C1608 C1609 1.390 . S
C1609 C1608 1.390 . S
C1609 C1610 1.394 . S
C1609 C1615 1.465 . S
C1610 C1605 1.399 . S
C1610 C1609 1.394 . S
C1610 C1611 1.516 . S
C1611 C1610 1.516 . S
C1611 C1612 1.502 . S
C1611 C1613 1.561 . S
C1611 C1614 1.526 . S
C1612 H1596 0.959 . S
C1612 H1597 0.959 . S
C1612 H1598 0.961 . S
C1612 C1611 1.502 . S
C1613 H1599 0.960 . S
C1613 H1600 0.961 . S
C1613 H1601 0.959 . S
C1613 C1611 1.561 . S
C1614 C1611 1.526 . S
C1614 C1615 1.396 . S
C1614 C1619 1.390 . S
C1615 C1609 1.465 . S
C1615 C1614 1.396 . S
C1615 C1616 1.399 . S
C1616 H1602 0.929 . S
C1616 C1615 1.399 . S
C1616 C1617 1.385 . S
C1617 H1603 0.931 . S
C1617 C1616 1.385 . S
C1617 C1618 1.389 . S
C1618 C1617 1.389 . S
C1618 C1619 1.387 . S
C1619 H1604 0.930 . S
C1619 C1614 1.390 . S
C1619 C1618 1.387 . S
H1620 C1632 0.930 . S
H1621 C1634 0.930 . S
H1622 C1635 0.930 . S
H1623 C1639 0.959 . S
H1624 C1639 0.959 . S
H1625 C1639 0.961 . S
H1626 C1640 0.960 . S
H1627 C1640 0.961 . S
H1628 C1640 0.959 . S
H1629 C1643 0.929 . S
H1630 C1644 0.931 . S
H1631 C1646 0.930 . S
C1632 H1620 0.930 . S
C1632 C1633 1.399 . S
C1632 C1637 1.399 . S
C1633 C1632 1.399 . S
C1633 C1634 1.376 . S
C1634 H1621 0.930 . S
C1634 C1633 1.376 . S
C1634 C1635 1.388 . S
C1635 H1622 0.930 . S
C1635 C1634 1.388 . S
C1635 C1636 1.390 . S
C1636 C1635 1.390 . S
C1636 C1637 1.394 . S
C1636 C1642 1.465 . S
C1637 C1632 1.399 . S
C1637 C1636 1.394 . S
C1637 C1638 1.516 . S
C1638 C1637 1.516 . S
C1638 C1639 1.502 . S
C1638 C1640 1.561 . S
C1638 C1641 1.526 . S
C1639 H1623 0.959 . S
C1639 H1624 0.959 . S
C1639 H1625 0.961 . S
C1639 C1638 1.502 . S
C1640 H1626 0.960 . S
C1640 H1627 0.961 . S
C1640 H1628 0.959 . S
C1640 C1638 1.561 . S
C1641 C1638 1.526 . S
C1641 C1642 1.396 . S
C1641 C1646 1.390 . S
C1642 C1636 1.465 . S
C1642 C1641 1.396 . S
C1642 C1643 1.399 . S
C1643 H1629 0.929 . S
C1643 C1642 1.399 . S
C1643 C1644 1.385 . S
C1644 H1630 0.931 . S
C1644 C1643 1.385 . S
C1644 C1645 1.389 . S
C1645 C1644 1.389 . S
C1645 C1646 1.387 . S
C1646 H1631 0.930 . S
C1646 C1641 1.390 . S
C1646 C1645 1.387 . S
H1647 C1659 0.930 . S
H1648 C1661 0.930 . S
H1649 C1662 0.930 . S
H1650 C1666 0.959 . S
H1651 C1666 0.959 . S
H1652 C1666 0.961 . S
H1653 C1667 0.960 . S
H1654 C1667 0.961 . S
H1655 C1667 0.959 . S
H1656 C1670 0.929 . S
H1657 C1671 0.931 . S
H1658 C1673 0.930 . S
C1659 H1647 0.930 . S
C1659 C1660 1.399 . S
C1659 C1664 1.399 . S
C1660 C1659 1.399 . S
C1660 C1661 1.376 . S
C1661 H1648 0.930 . S
C1661 C1660 1.376 . S
C1661 C1662 1.388 . S
C1662 H1649 0.930 . S
C1662 C1661 1.388 . S
C1662 C1663 1.390 . S
C1663 C1662 1.390 . S
C1663 C1664 1.394 . S
C1663 C1669 1.465 . S
C1664 C1659 1.399 . S
C1664 C1663 1.394 . S
C1664 C1665 1.516 . S
C1665 C1664 1.516 . S
C1665 C1666 1.502 . S
C1665 C1667 1.561 . S
C1665 C1668 1.526 . S
C1666 H1650 0.959 . S
C1666 H1651 0.959 . S
C1666 H1652 0.961 . S
C1666 C1665 1.502 . S
C1667 H1653 0.960 . S
C1667 H1654 0.961 . S
C1667 H1655 0.959 . S
C1667 C1665 1.561 . S
C1668 C1665 1.526 . S
C1668 C1669 1.396 . S
C1668 C1673 1.390 . S
C1669 C1663 1.465 . S
C1669 C1668 1.396 . S
C1669 C1670 1.399 . S
C1670 H1656 0.929 . S
C1670 C1669 1.399 . S
C1670 C1671 1.385 . S
C1671 H1657 0.931 . S
C1671 C1670 1.385 . S
C1671 C1672 1.389 . S
C1672 C1671 1.389 . S
C1672 C1673 1.387 . S
C1673 H1658 0.930 . S
C1673 C1668 1.390 . S
C1673 C1672 1.387 . S
H1674 C1686 0.930 . S
H1675 C1688 0.930 . S
H1676 C1689 0.930 . S
H1677 C1693 0.959 . S
H1678 C1693 0.959 . S
H1679 C1693 0.961 . S
H1680 C1694 0.960 . S
H1681 C1694 0.961 . S
H1682 C1694 0.959 . S
H1683 C1697 0.929 . S
H1684 C1698 0.931 . S
H1685 C1700 0.930 . S
C1686 H1674 0.930 . S
C1686 C1687 1.399 . S
C1686 C1691 1.399 . S
C1687 C1686 1.399 . S
C1687 C1688 1.376 . S
C1688 H1675 0.930 . S
C1688 C1687 1.376 . S
C1688 C1689 1.388 . S
C1689 H1676 0.930 . S
C1689 C1688 1.388 . S
C1689 C1690 1.390 . S
C1690 C1689 1.390 . S
C1690 C1691 1.394 . S
C1690 C1696 1.465 . S
C1691 C1686 1.399 . S
C1691 C1690 1.394 . S
C1691 C1692 1.516 . S
C1692 C1691 1.516 . S
C1692 C1693 1.502 . S
C1692 C1694 1.561 . S
C1692 C1695 1.526 . S
C1693 H1677 0.959 . S
C1693 H1678 0.959 . S
C1693 H1679 0.961 . S
C1693 C1692 1.502 . S
C1694 H1680 0.960 . S
C1694 H1681 0.961 . S
C1694 H1682 0.959 . S
C1694 C1692 1.561 . S
C1695 C1692 1.526 . S
C1695 C1696 1.396 . S
C1695 C1700 1.390 . S
C1696 C1690 1.465 . S
C1696 C1695 1.396 . S
C1696 C1697 1.399 . S
C1697 H1683 0.929 . S
C1697 C1696 1.399 . S
C1697 C1698 1.385 . S
C1698 H1684 0.931 . S
C1698 C1697 1.385 . S
C1698 C1699 1.389 . S
C1699 C1698 1.389 . S
C1699 C1700 1.387 . S
C1700 H1685 0.930 . S
C1700 C1695 1.390 . S
C1700 C1699 1.387 . S
H1701 C1713 0.930 . S
H1702 C1715 0.930 . S
H1703 C1716 0.930 . S
H1704 C1720 0.959 . S
H1705 C1720 0.959 . S
H1706 C1720 0.961 . S
H1707 C1721 0.960 . S
H1708 C1721 0.961 . S
H1709 C1721 0.959 . S
H1710 C1724 0.929 . S
H1711 C1725 0.931 . S
H1712 C1727 0.930 . S
C1713 H1701 0.930 . S
C1713 C1714 1.399 . S
C1713 C1718 1.399 . S
C1714 C1713 1.399 . S
C1714 C1715 1.376 . S
C1715 H1702 0.930 . S
C1715 C1714 1.376 . S
C1715 C1716 1.388 . S
C1716 H1703 0.930 . S
C1716 C1715 1.388 . S
C1716 C1717 1.390 . S
C1717 C1716 1.390 . S
C1717 C1718 1.394 . S
C1717 C1723 1.465 . S
C1718 C1713 1.399 . S
C1718 C1717 1.394 . S
C1718 C1719 1.516 . S
C1719 C1718 1.516 . S
C1719 C1720 1.502 . S
C1719 C1721 1.561 . S
C1719 C1722 1.526 . S
C1720 H1704 0.959 . S
C1720 H1705 0.959 . S
C1720 H1706 0.961 . S
C1720 C1719 1.502 . S
C1721 H1707 0.960 . S
C1721 H1708 0.961 . S
C1721 H1709 0.959 . S
C1721 C1719 1.561 . S
C1722 C1719 1.526 . S
C1722 C1723 1.396 . S
C1722 C1727 1.390 . S
C1723 C1717 1.465 . S
C1723 C1722 1.396 . S
C1723 C1724 1.399 . S
C1724 H1710 0.929 . S
C1724 C1723 1.399 . S
C1724 C1725 1.385 . S
C1725 H1711 0.931 . S
C1725 C1724 1.385 . S
C1725 C1726 1.389 . S
C1726 C1725 1.389 . S
C1726 C1727 1.387 . S
C1727 H1712 0.930 . S
C1727 C1722 1.390 . S
C1727 C1726 1.387 . S
H1728 C1740 0.930 . S
H1729 C1742 0.930 . S
H1730 C1743 0.930 . S
H1731 C1747 0.959 . S
H1732 C1747 0.959 . S
H1733 C1747 0.961 . S
H1734 C1748 0.960 . S
H1735 C1748 0.961 . S
H1736 C1748 0.959 . S
H1737 C1751 0.929 . S
H1738 C1752 0.931 . S
H1739 C1754 0.930 . S
C1740 H1728 0.930 . S
C1740 C1741 1.399 . S
C1740 C1745 1.399 . S
C1741 C1740 1.399 . S
C1741 C1742 1.376 . S
C1742 H1729 0.930 . S
C1742 C1741 1.376 . S
C1742 C1743 1.388 . S
C1743 H1730 0.930 . S
C1743 C1742 1.388 . S
C1743 C1744 1.390 . S
C1744 C1743 1.390 . S
C1744 C1745 1.394 . S
C1744 C1750 1.465 . S
C1745 C1740 1.399 . S
C1745 C1744 1.394 . S
C1745 C1746 1.516 . S
C1746 C1745 1.516 . S
C1746 C1747 1.502 . S
C1746 C1748 1.561 . S
C1746 C1749 1.526 . S
C1747 H1731 0.959 . S
C1747 H1732 0.959 . S
C1747 H1733 0.961 . S
C1747 C1746 1.502 . S
C1748 H1734 0.960 . S
C1748 H1735 0.961 . S
C1748 H1736 0.959 . S
C1748 C1746 1.561 . S
C1749 C1746 1.526 . S
C1749 C1750 1.396 . S
C1749 C1754 1.390 . S
C1750 C1744 1.465 . S
C1750 C1749 1.396 . S
C1750 C1751 1.399 . S
C1751 H1737 0.929 . S
C1751 C1750 1.399 . S
C1751 C1752 1.385 . S
C1752 H1738 0.931 . S
C1752 C1751 1.385 . S
C1752 C1753 1.389 . S
C1753 C1752 1.389 . S
C1753 C1754 1.387 . S
C1754 H1739 0.930 . S
C1754 C1749 1.390 . S
C1754 C1753 1.387 . S
H1755 C1767 0.930 . S
H1756 C1769 0.930 . S
H1757 C1770 0.930 . S
H1758 C1774 0.959 . S
H1759 C1774 0.959 . S
H1760 C1774 0.961 . S
H1761 C1775 0.960 . S
H1762 C1775 0.961 . S
H1763 C1775 0.959 . S
H1764 C1778 0.929 . S
H1765 C1779 0.931 . S
H1766 C1781 0.930 . S
C1767 H1755 0.930 . S
C1767 C1768 1.399 . S
C1767 C1772 1.399 . S
C1768 C1767 1.399 . S
C1768 C1769 1.376 . S
C1769 H1756 0.930 . S
C1769 C1768 1.376 . S
C1769 C1770 1.388 . S
C1770 H1757 0.930 . S
C1770 C1769 1.388 . S
C1770 C1771 1.390 . S
C1771 C1770 1.390 . S
C1771 C1772 1.394 . S
C1771 C1777 1.465 . S
C1772 C1767 1.399 . S
C1772 C1771 1.394 . S
C1772 C1773 1.516 . S
C1773 C1772 1.516 . S
C1773 C1774 1.502 . S
C1773 C1775 1.561 . S
C1773 C1776 1.526 . S
C1774 H1758 0.959 . S
C1774 H1759 0.959 . S
C1774 H1760 0.961 . S
C1774 C1773 1.502 . S
C1775 H1761 0.960 . S
C1775 H1762 0.961 . S
C1775 H1763 0.959 . S
C1775 C1773 1.561 . S
C1776 C1773 1.526 . S
C1776 C1777 1.396 . S
C1776 C1781 1.390 . S
C1777 C1771 1.465 . S
C1777 C1776 1.396 . S
C1777 C1778 1.399 . S
C1778 H1764 0.929 . S
C1778 C1777 1.399 . S
C1778 C1779 1.385 . S
C1779 H1765 0.931 . S
C1779 C1778 1.385 . S
C1779 C1780 1.389 . S
C1780 C1779 1.389 . S
C1780 C1781 1.387 . S
C1781 H1766 0.930 . S
C1781 C1776 1.390 . S
C1781 C1780 1.387 . S
H1782 C1794 0.930 . S
H1783 C1796 0.930 . S
H1784 C1797 0.930 . S
H1785 C1801 0.959 . S
H1786 C1801 0.959 . S
H1787 C1801 0.961 . S
H1788 C1802 0.960 . S
H1789 C1802 0.961 . S
H1790 C1802 0.959 . S
H1791 C1805 0.929 . S
H1792 C1806 0.931 . S
H1793 C1808 0.930 . S
C1794 H1782 0.930 . S
C1794 C1795 1.399 . S
C1794 C1799 1.399 . S
C1795 C1794 1.399 . S
C1795 C1796 1.376 . S
C1796 H1783 0.930 . S
C1796 C1795 1.376 . S
C1796 C1797 1.388 . S
C1797 H1784 0.930 . S
C1797 C1796 1.388 . S
C1797 C1798 1.390 . S
C1798 C1797 1.390 . S
C1798 C1799 1.394 . S
C1798 C1804 1.465 . S
C1799 C1794 1.399 . S
C1799 C1798 1.394 . S
C1799 C1800 1.516 . S
C1800 C1799 1.516 . S
C1800 C1801 1.502 . S
C1800 C1802 1.561 . S
C1800 C1803 1.526 . S
C1801 H1785 0.959 . S
C1801 H1786 0.959 . S
C1801 H1787 0.961 . S
C1801 C1800 1.502 . S
C1802 H1788 0.960 . S
C1802 H1789 0.961 . S
C1802 H1790 0.959 . S
C1802 C1800 1.561 . S
C1803 C1800 1.526 . S
C1803 C1804 1.396 . S
C1803 C1808 1.390 . S
C1804 C1798 1.465 . S
C1804 C1803 1.396 . S
C1804 C1805 1.399 . S
C1805 H1791 0.929 . S
C1805 C1804 1.399 . S
C1805 C1806 1.385 . S
C1806 H1792 0.931 . S
C1806 C1805 1.385 . S
C1806 C1807 1.389 . S
C1807 C1806 1.389 . S
C1807 C1808 1.387 . S
C1808 H1793 0.930 . S
C1808 C1803 1.390 . S
C1808 C1807 1.387 . S
C607 N310 1.014 . S
C619 N13 0.994 . S
C634 N343 0.937 . S
C646 N46 1.038 . S
C661 N376 1.036 . S
C673 N79 0.903 . S
C688 N112 0.987 . S
C700 N409 1.019 . S
C715 N442 0.995 . S
C727 N145 0.875 . S
C742 N475 1.019 . S
C754 N178 0.988 . S
C769 N211 1.037 . S
C781 N508 0.906 . S
C796 N541 0.918 . S
C808 N244 1.039 . S
C823 N574 0.882 . S
C835 N277 1.020 . S
C850 C579 1.896 . S
C862 C18 1.908 . S
C877 C513 1.909 . S
C889 C51 1.908 . S
C904 C84 1.910 . S
C916 C546 1.907 . S
C931 C249 1.887 . S
C943 C117 1.900 . S
C958 C282 1.889 . S
C970 C150 1.884 . S
C985 C183 1.901 . S
C997 C216 1.910 . S
C1012 C315 1.886 . S
C1024 C447 1.885 . S
C1039 C480 1.884 . S
C1051 C348 1.885 . S
C1066 C381 1.898 . S
C1078 C414 1.886 . S
C1093 C21 1.234 . S
C1105 C153 1.216 . S
C1120 C186 1.197 . S
C1132 C54 1.232 . S
C1147 C120 1.262 . S
C1159 C87 1.171 . S
C1174 C351 1.169 . S
C1186 C219 1.262 . S
C1201 C252 1.165 . S
C1213 C384 1.271 . S
C1228 C318 1.254 . S
C1240 C285 1.178 . S
C1255 C417 1.212 . S
C1267 C549 1.217 . S
C1282 C582 1.230 . S
C1294 C450 1.220 . S
C1309 C483 1.187 . S
C1321 C516 1.259 . S
C1336 C73 1.047 . S
C1348 N2 1.075 . S
C1363 C7 1.040 . S
C1375 N35 1.083 . S
C1390 C40 1.041 . S
C1402 N68 1.078 . S
C1417 C139 1.034 . S
C1429 N101 1.085 . S
C1444 N134 1.054 . S
C1456 C172 1.101 . S
C1471 C106 1.033 . S
C1483 N167 1.085 . S
C1498 C271 1.045 . S
C1510 N200 1.081 . S
C1525 C205 1.016 . S
C1537 N233 1.088 . S
C1552 N266 1.054 . S
C1564 C238 1.099 . S
C1579 N299 1.097 . S
C1591 C337 0.999 . S
C1606 C370 1.010 . S
C1618 N332 1.094 . S
C1633 C304 1.056 . S
C1645 N365 1.072 . S
C1660 N398 1.055 . S
C1672 C469 1.098 . S
C1687 C403 1.043 . S
C1699 N431 1.082 . S
C1714 C436 1.065 . S
C1726 N464 1.068 . S
C1741 C535 1.065 . S
C1753 N497 1.068 . S
C1768 C568 1.024 . S
C1780 N530 1.089 . S
C1795 C502 1.038 . S
C1807 N563 1.084 . S
