# Generated by pormake.
# Topology acs-a, (4)-cn, num edge types: 1
# Building blocks:
#     Node 0, Type 0, BuildingBlock: GALJAG_clean_sbu_0, # of connection points: 4
#     Node 1, Type 0, BuildingBlock: GALJAG_clean_sbu_0, # of connection points: 4
#     Node 2, Type 0, BuildingBlock: GALJAG_clean_sbu_0, # of connection points: 4
#     Node 3, Type 0, BuildingBlock: GALJAG_clean_sbu_0, # of connection points: 4
#     Node 4, Type 0, BuildingBlock: GALJAG_clean_sbu_0, # of connection points: 4
#     Node 5, Type 0, BuildingBlock: GALJAG_clean_sbu_0, # of connection points: 4
#     Node 6, Type 0, BuildingBlock: GALJAG_clean_sbu_0, # of connection points: 4
#     Node 7, Type 0, BuildingBlock: GALJAG_clean_sbu_0, # of connection points: 4
#     Node 8, Type 0, BuildingBlock: GALJAG_clean_sbu_0, # of connection points: 4
#     Node 9, Type 0, BuildingBlock: GALJAG_clean_sbu_0, # of connection points: 4
#     Node 10, Type 0, BuildingBlock: GALJAG_clean_sbu_0, # of connection points: 4
#     Node 11, Type 0, BuildingBlock: GALJAG_clean_sbu_0, # of connection points: 4
#     Edge 12, Type (0, 0), BuildingBlock: ZUJKAS_clean_linker_0, # of connection points: 2
#     Edge 13, Type (0, 0), BuildingBlock: ZUJKAS_clean_linker_0, # of connection points: 2
#     Edge 14, Type (0, 0), BuildingBlock: ZUJKAS_clean_linker_0, # of connection points: 2
#     Edge 15, Type (0, 0), BuildingBlock: ZUJKAS_clean_linker_0, # of connection points: 2
#     Edge 16, Type (0, 0), BuildingBlock: ZUJKAS_clean_linker_0, # of connection points: 2
#     Edge 17, Type (0, 0), BuildingBlock: ZUJKAS_clean_linker_0, # of connection points: 2
#     Edge 18, Type (0, 0), BuildingBlock: ZUJKAS_clean_linker_0, # of connection points: 2
#     Edge 19, Type (0, 0), BuildingBlock: ZUJKAS_clean_linker_0, # of connection points: 2
#     Edge 20, Type (0, 0), BuildingBlock: ZUJKAS_clean_linker_0, # of connection points: 2
#     Edge 21, Type (0, 0), BuildingBlock: ZUJKAS_clean_linker_0, # of connection points: 2
#     Edge 22, Type (0, 0), BuildingBlock: ZUJKAS_clean_linker_0, # of connection points: 2
#     Edge 23, Type (0, 0), BuildingBlock: ZUJKAS_clean_linker_0, # of connection points: 2
#     Edge 24, Type (0, 0), BuildingBlock: ZUJKAS_clean_linker_0, # of connection points: 2
#     Edge 25, Type (0, 0), BuildingBlock: ZUJKAS_clean_linker_0, # of connection points: 2
#     Edge 26, Type (0, 0), BuildingBlock: ZUJKAS_clean_linker_0, # of connection points: 2
#     Edge 27, Type (0, 0), BuildingBlock: ZUJKAS_clean_linker_0, # of connection points: 2
#     Edge 28, Type (0, 0), BuildingBlock: ZUJKAS_clean_linker_0, # of connection points: 2
#     Edge 29, Type (0, 0), BuildingBlock: ZUJKAS_clean_linker_0, # of connection points: 2
#     Edge 30, Type (0, 0), BuildingBlock: ZUJKAS_clean_linker_0, # of connection points: 2
#     Edge 31, Type (0, 0), BuildingBlock: ZUJKAS_clean_linker_0, # of connection points: 2
#     Edge 32, Type (0, 0), BuildingBlock: ZUJKAS_clean_linker_0, # of connection points: 2
#     Edge 33, Type (0, 0), BuildingBlock: ZUJKAS_clean_linker_0, # of connection points: 2
#     Edge 34, Type (0, 0), BuildingBlock: ZUJKAS_clean_linker_0, # of connection points: 2
#     Edge 35, Type (0, 0), BuildingBlock: ZUJKAS_clean_linker_0, # of connection points: 2
# Relax obj value: 0.468
# Max RMSD: 0.203
# Mean RMSD: 0.201
data_MOF--net-acs-a--node1-GALJAG_clean_sbu_0--edge1-ZUJKAS_clean_linker_0
_symmetry_space_group_name_H-M    P1
_symmetry_Int_Tables_number       1
_symmetry_cell_setting            triclinic
loop_
_symmetry_equiv_pos_as_xyz
'x, y, z'
_cell_length_a     67.685173
_cell_length_b     67.734289
_cell_length_c     38.261706
_cell_angle_alpha  89.936422
_cell_angle_beta   90.04604
_cell_angle_gamma 120.09038
loop_
_atom_site_label
_atom_site_type_symbol
_atom_site_fract_x
_atom_site_fract_y
_atom_site_fract_z
_atom_type_partial_charge
In0 In 0.58348 0.15448 0.01591 0.0
O1 O 0.5981 0.16013 0.07123 0.0
O2 O 0.56234 0.14621 0.06576 0.0
C3 C 0.62554 0.18695 0.99594 0.0
C4 C 0.56851 0.11064 0.99945 0.0
C5 C 0.55859 0.17004 0.98392 0.0
O6 O 0.61771 0.16624 0.98818 0.0
O7 O 0.6123 0.19096 0.01377 0.0
O8 O 0.57022 0.16342 0.96697 0.0
O9 O 0.55938 0.16849 0.0167 0.0
C10 C 0.57909 0.15279 0.0862 0.0
O11 O 0.55878 0.12128 0.9891 0.0
O12 O 0.58629 0.12233 0.01733 0.0
In13 In 0.40608 0.57035 0.4734 0.0
O14 O 0.39116 0.57264 0.5258 0.0
O15 O 0.42365 0.5749 0.52596 0.0
C16 C 0.42721 0.61418 0.45225 0.0
C17 C 0.42629 0.54533 0.46386 0.0
C18 C 0.36535 0.54903 0.44019 0.0
O19 O 0.41527 0.60726 0.47961 0.0
O20 O 0.42835 0.59891 0.43507 0.0
O21 O 0.38365 0.56265 0.42482 0.0
O22 O 0.36766 0.54598 0.47207 0.0
C23 C 0.40785 0.57478 0.5436 0.0
O24 O 0.40608 0.53679 0.47485 0.0
O25 O 0.43593 0.56627 0.45648 0.0
In26 In 0.81945 0.44529 0.02254 0.0
O27 O 0.84991 0.45264 0.98866 0.0
O28 O 0.85557 0.47474 0.03152 0.0
C29 C 0.79862 0.4011 0.00386 0.0
C30 C 0.8162 0.43904 0.09252 0.0
C31 C 0.79886 0.46594 0.9906 0.0
O32 O 0.81763 0.41576 0.99127 0.0
O33 O 0.79006 0.40883 0.02537 0.0
O34 O 0.81232 0.47483 0.01598 0.0
O35 O 0.79614 0.44695 0.98112 0.0
C36 C 0.86406 0.46955 0.00632 0.0
O37 O 0.80453 0.4458 0.076 0.0
O38 O 0.82958 0.4357 0.07381 0.0
In39 In 0.41117 0.83164 0.46984 0.0
O40 O 0.44341 0.86542 0.48005 0.0
O41 O 0.42021 0.86505 0.44243 0.0
C42 C 0.4262 0.80568 0.44032 0.0
C43 C 0.40779 0.82461 0.53989 0.0
C44 C 0.36926 0.81565 0.44195 0.0
O45 O 0.43689 0.82714 0.43704 0.0
O46 O 0.4082 0.79759 0.45841 0.0
O47 O 0.3751 0.82625 0.4706 0.0
O48 O 0.38474 0.81363 0.42696 0.0
C49 C 0.43854 0.87668 0.4591 0.0
O50 O 0.39712 0.83258 0.5237 0.0
O51 O 0.42 0.8199 0.52076 0.0
In52 In 0.55553 0.39754 1.00127 0.0
O53 O 0.54921 0.38204 0.05617 0.0
O54 O 0.57582 0.41629 0.04989 0.0
C55 C 0.5476 0.35761 0.97413 0.0
C56 C 0.51945 0.40374 0.99326 0.0
C57 C 0.59367 0.42984 0.96931 0.0
O58 O 0.56261 0.36835 0.9971 0.0
O59 O 0.53636 0.36698 0.96473 0.0
O60 O 0.58442 0.40892 0.96195 0.0
O61 O 0.58333 0.43459 0.99227 0.0
C62 C 0.56482 0.39981 0.07048 0.0
O63 O 0.53587 0.41162 0.972 0.0
O64 O 0.52107 0.39246 0.01812 0.0
In65 In 0.1524 0.56973 0.48177 0.0
O66 O 0.11774 0.56733 0.48457 0.0
O67 O 0.11951 0.54012 0.46027 0.0
C68 C 0.17828 0.613 0.45952 0.0
C69 C 0.15306 0.56772 0.55232 0.0
C70 C 0.17304 0.54991 0.44892 0.0
O71 O 0.15731 0.60131 0.45209 0.0
O72 O 0.18592 0.60279 0.47776 0.0
O73 O 0.172 0.5508 0.48177 0.0
O74 O 0.16342 0.55892 0.43233 0.0
C75 C 0.10712 0.54802 0.47025 0.0
O76 O 0.14794 0.5507 0.53314 0.0
O77 O 0.15813 0.58581 0.53596 0.0
In78 In 0.82651 0.40019 0.52956 0.0
O79 O 0.86084 0.42315 0.55522 0.0
O80 O 0.85769 0.39638 0.52249 0.0
C81 C 0.81222 0.42729 0.5582 0.0
C82 C 0.81991 0.40354 0.46053 0.0
C83 C 0.8037 0.35761 0.5558 0.0
O84 O 0.82901 0.43482 0.53769 0.0
O85 O 0.80285 0.40623 0.56447 0.0
O86 O 0.80398 0.36187 0.52362 0.0
O87 O 0.81531 0.37486 0.5748 0.0
C88 C 0.87052 0.4134 0.54115 0.0
O89 O 0.8035 0.3936 0.48168 0.0
O90 O 0.83937 0.41146 0.47414 0.0
In91 In 0.40906 0.82423 0.98533 0.0
O92 O 0.41294 0.85929 0.99368 0.0
O93 O 0.44222 0.8558 1.00047 0.0
C94 C 0.3652 0.80224 0.00719 0.0
C95 C 0.40845 0.82213 0.91494 0.0
C96 C 0.43018 0.8034 0.01428 0.0
O97 O 0.3815 0.81486 0.02717 0.0
O98 O 0.37104 0.80097 0.97642 0.0
O99 O 0.43326 0.81012 0.98297 0.0
O100 O 0.41625 0.80699 0.03101 0.0
C101 C 0.43395 0.86882 1.00075 0.0
O102 O 0.40485 0.80539 0.93398 0.0
O103 O 0.41233 0.83985 0.93143 0.0
In104 In 0.58869 0.42689 0.51366 0.0
O105 O 0.56259 0.4332 0.54114 0.0
O106 O 0.58658 0.45914 0.50759 0.0
C107 C 0.56301 0.38533 0.54219 0.0
C108 C 0.58769 0.42171 0.44342 0.0
C109 C 0.63104 0.4451 0.54094 0.0
O110 O 0.57284 0.4032 0.56058 0.0
O111 O 0.56622 0.38854 0.50969 0.0
O112 O 0.62292 0.4573 0.53088 0.0
O113 O 0.61791 0.42396 0.53707 0.0
C114 C 0.56948 0.45245 0.5273 0.0
O115 O 0.60509 0.42626 0.46143 0.0
O116 O 0.571 0.41973 0.46082 0.0
In117 In 0.14435 0.5539 0.99777 0.0
O118 O 0.1075 0.52461 0.00246 0.0
O119 O 0.11457 0.55808 0.01462 0.0
C120 C 0.1626 0.53157 0.03089 0.0
C121 C 0.14389 0.55528 0.92716 0.0
C122 C 0.17497 0.59626 0.01878 0.0
O123 O 0.15344 0.54103 0.04733 0.0
O124 O 0.16169 0.53269 0.99813 0.0
O125 O 0.1795 0.58557 0.9961 0.0
O126 O 0.15494 0.58556 0.03088 0.0
C127 C 0.09978 0.53731 0.0116 0.0
O128 O 0.1472 0.57196 0.94592 0.0
O129 O 0.1407 0.53792 0.94397 0.0
In130 In 0.55685 0.15668 0.52975 0.0
O131 O 0.54259 0.15493 0.47496 0.0
O132 O 0.57511 0.15749 0.47945 0.0
C133 C 0.54025 0.18313 0.55262 0.0
C134 C 0.53306 0.11121 0.53943 0.0
C135 C 0.59872 0.17812 0.55855 0.0
O136 O 0.54988 0.18585 0.52343 0.0
O137 O 0.53893 0.16695 0.57073 0.0
O138 O 0.58102 0.16646 0.57675 0.0
O139 O 0.59511 0.17916 0.52646 0.0
C140 C 0.55956 0.15596 0.4595 0.0
O141 O 0.55414 0.12303 0.54542 0.0
O142 O 0.52374 0.12247 0.53029 0.0
In143 In 0.4119 0.57479 0.98877 0.0
O144 O 0.43633 0.56179 0.00163 0.0
O145 O 0.40129 0.53742 0.99399 0.0
C146 C 0.43904 0.61729 0.01393 0.0
C147 C 0.41379 0.57922 0.91866 0.0
C148 C 0.37072 0.56081 0.01802 0.0
O149 O 0.4333 0.59973 0.0322 0.0
O150 O 0.43141 0.61332 0.98317 0.0
O151 O 0.3733 0.55833 0.986 0.0
O152 O 0.389 0.57065 0.03539 0.0
C153 C 0.42104 0.54102 1.00068 0.0
O154 O 0.39894 0.58046 0.93699 0.0
O155 O 0.42788 0.57597 0.93576 0.0
H156 H 0.52701 0.14934 0.41126 0.0
H157 H 0.52962 0.14759 0.34758 0.0
H158 H 0.59837 0.15986 0.3575 0.0
H159 H 0.59572 0.16114 0.42107 0.0
H160 H 0.55949 0.18031 0.30204 0.0
H161 H 0.56881 0.10357 0.29587 0.0
H162 H 0.55981 0.11172 0.335 0.0
H163 H 0.58957 0.12562 0.3235 0.0
C164 C 0.54264 0.15157 0.39984 0.0
C165 C 0.56111 0.15524 0.4211 0.0
C166 C 0.54411 0.15057 0.3635 0.0
C167 C 0.56404 0.15318 0.34788 0.0
C168 C 0.58263 0.15722 0.36906 0.0
H169 H 0.6122 0.16359 0.13542 0.0
H170 H 0.60812 0.16357 0.19908 0.0
C171 C 0.58114 0.15811 0.40536 0.0
C172 C 0.56564 0.15231 0.30936 0.0
H173 H 0.57596 0.12489 0.24317 0.0
C174 C 0.56292 0.16809 0.28913 0.0
C175 C 0.57012 0.13633 0.29263 0.0
C176 C 0.57203 0.1182 0.31282 0.0
C177 C 0.56504 0.16863 0.25262 0.0
C178 C 0.5698 0.15286 0.23601 0.0
C179 C 0.57241 0.13701 0.25614 0.0
C180 C 0.5721 0.15254 0.19765 0.0
C181 C 0.56264 0.18634 0.23209 0.0
C182 C 0.5531 0.14603 0.17599 0.0
C183 C 0.55534 0.14593 0.13971 0.0
C184 C 0.57665 0.15235 0.12456 0.0
C185 C 0.5956 0.15862 0.14637 0.0
C186 C 0.5933 0.15861 0.18267 0.0
H187 H 0.56349 0.20001 0.24917 0.0
H188 H 0.57621 0.19426 0.21192 0.0
H189 H 0.54589 0.17802 0.2185 0.0
H190 H 0.53654 0.14101 0.18717 0.0
H191 H 0.54043 0.14096 0.12355 0.0
H192 H 0.44069 0.57664 0.58701 0.0
H193 H 0.44172 0.57864 0.65087 0.0
H194 H 0.37858 0.5798 0.65094 0.0
H195 H 0.3772 0.57735 0.58704 0.0
H196 H 0.44275 0.61135 0.69517 0.0
H197 H 0.3647 0.52742 0.71742 0.0
H198 H 0.37868 0.53577 0.67547 0.0
H199 H 0.36035 0.5463 0.68968 0.0
C200 C 0.427 0.57729 0.60063 0.0
C201 C 0.40877 0.57668 0.58208 0.0
C202 C 0.42764 0.57846 0.63709 0.0
C203 C 0.41005 0.579 0.65565 0.0
C204 C 0.39207 0.57889 0.63715 0.0
H205 H 0.38395 0.58406 0.87658 0.0
H206 H 0.38386 0.5854 0.81264 0.0
C207 C 0.39137 0.57762 0.60067 0.0
C208 C 0.41063 0.57977 0.69435 0.0
H209 H 0.38125 0.55082 0.7672 0.0
C210 C 0.42934 0.5981 0.71095 0.0
C211 C 0.39313 0.56242 0.71483 0.0
C212 C 0.37317 0.54175 0.69852 0.0
C213 C 0.43087 0.59969 0.74753 0.0
C214 C 0.41334 0.58237 0.76795 0.0
C215 C 0.3946 0.5641 0.75139 0.0
C216 C 0.41418 0.58268 0.8066 0.0
C217 C 0.45102 0.62004 0.76407 0.0
C218 C 0.43123 0.58062 0.82428 0.0
C219 C 0.4313 0.57979 0.86079 0.0
C220 C 0.41427 0.58095 0.88016 0.0
C221 C 0.39732 0.58318 0.86235 0.0
C222 C 0.39723 0.58393 0.82587 0.0
H223 H 0.46004 0.63428 0.74519 0.0
H224 H 0.44554 0.62628 0.78683 0.0
H225 H 0.46333 0.61495 0.77354 0.0
H226 H 0.44423 0.57923 0.80983 0.0
H227 H 0.44452 0.57798 0.8738 0.0
H228 H 0.83768 0.42196 0.13202 0.0
H229 H 0.83402 0.41455 0.19489 0.0
H230 H 0.78627 0.43893 0.20202 0.0
H231 H 0.7899 0.44649 0.13893 0.0
H232 H 0.8218 0.45738 0.25271 0.0
H233 H 0.77881 0.36293 0.24726 0.0
H234 H 0.80425 0.3772 0.22117 0.0
H235 H 0.77998 0.38008 0.21026 0.0
C236 C 0.82634 0.42569 0.14692 0.0
C237 C 0.81404 0.43477 0.13057 0.0
C238 C 0.82416 0.4213 0.18279 0.0
C239 C 0.80959 0.42585 0.20294 0.0
C240 C 0.79745 0.43514 0.1868 0.0
H241 H 0.77986 0.38633 0.42381 0.0
H242 H 0.77532 0.39172 0.36142 0.0
C243 C 0.79956 0.43946 0.15083 0.0
C244 C 0.80785 0.42173 0.2411 0.0
H245 H 0.79461 0.38026 0.30242 0.0
C246 C 0.81562 0.4405 0.26363 0.0
C247 C 0.79951 0.39964 0.25524 0.0
C248 C 0.78995 0.37876 0.23228 0.0
C249 C 0.8162 0.43789 0.29993 0.0
C250 C 0.80901 0.41598 0.31392 0.0
C251 C 0.8003 0.39706 0.29154 0.0
C252 C 0.81155 0.4126 0.3515 0.0
C253 C 0.82473 0.45862 0.32305 0.0
C254 C 0.8334 0.42224 0.36627 0.0
C255 C 0.83604 0.41911 0.40165 0.0
C256 C 0.81685 0.40626 0.42294 0.0
C257 C 0.79494 0.39638 0.40803 0.0
C258 C 0.79232 0.39943 0.37248 0.0
H259 H 0.82392 0.47275 0.30961 0.0
H260 H 0.81465 0.4544 0.34758 0.0
H261 H 0.84281 0.46479 0.33012 0.0
H262 H 0.84846 0.43213 0.35034 0.0
H263 H 0.85315 0.42687 0.41234 0.0
H264 H 0.41698 0.85637 0.8692 0.0
H265 H 0.41612 0.85465 0.80531 0.0
H266 H 0.39844 0.78403 0.80962 0.0
H267 H 0.3991 0.78555 0.87363 0.0
H268 H 0.44236 0.84335 0.76068 0.0
H269 H 0.34912 0.78384 0.7454 0.0
H270 H 0.36161 0.79883 0.78568 0.0
H271 H 0.36365 0.77424 0.77407 0.0
C272 C 0.41285 0.84045 0.85656 0.0
C273 C 0.40803 0.82107 0.87638 0.0
C274 C 0.41239 0.83951 0.82009 0.0
C275 C 0.40696 0.81915 0.80281 0.0
C276 C 0.40231 0.7998 0.8225 0.0
H277 H 0.43032 0.80906 0.58064 0.0
H278 H 0.42997 0.80656 0.64456 0.0
C279 C 0.4028 0.80073 0.85902 0.0
C280 C 0.4066 0.8184 0.76415 0.0
H281 H 0.37146 0.79419 0.69391 0.0
C282 C 0.4269 0.83257 0.74603 0.0
C283 C 0.38631 0.80447 0.74524 0.0
C284 C 0.36386 0.7896 0.76347 0.0
C285 C 0.42748 0.83318 0.70937 0.0
C286 C 0.40728 0.819 0.69043 0.0
C287 C 0.38696 0.80486 0.70856 0.0
C288 C 0.4067 0.81937 0.65177 0.0
C289 C 0.44957 0.84941 0.69123 0.0
C290 C 0.3932 0.82675 0.6347 0.0
C291 C 0.39328 0.8281 0.59827 0.0
C292 C 0.40679 0.82197 0.57827 0.0
C293 C 0.41983 0.81401 0.59539 0.0
C294 C 0.41975 0.81267 0.63186 0.0
H295 H 0.46201 0.86261 0.70935 0.0
H296 H 0.45743 0.83968 0.6807 0.0
H297 H 0.44646 0.85807 0.66901 0.0
H298 H 0.38295 0.83191 0.64963 0.0
H299 H 0.38301 0.83424 0.5858 0.0
H300 H 0.55133 0.41045 0.40093 0.0
H301 H 0.54951 0.40628 0.33743 0.0
H302 H 0.61997 0.42306 0.33543 0.0
H303 H 0.62183 0.42693 0.39928 0.0
H304 H 0.57518 0.43897 0.28819 0.0
H305 H 0.58783 0.36422 0.27775 0.0
H306 H 0.58078 0.37268 0.31846 0.0
H307 H 0.6095 0.38791 0.30202 0.0
C308 C 0.56642 0.41313 0.38703 0.0
C309 C 0.58672 0.41895 0.40506 0.0
C310 C 0.56535 0.41076 0.35075 0.0
C311 C 0.58451 0.41409 0.33178 0.0
C312 C 0.60486 0.41998 0.34966 0.0
H313 H 0.59778 0.43626 0.10637 0.0
H314 H 0.60384 0.4399 0.16965 0.0
C315 C 0.60593 0.42231 0.38607 0.0
C316 C 0.5832 0.41209 0.29318 0.0
H317 H 0.58664 0.38166 0.22468 0.0
C318 C 0.57773 0.42648 0.27427 0.0
C319 C 0.5863 0.3956 0.2752 0.0
C320 C 0.59123 0.37906 0.29433 0.0
C321 C 0.57525 0.42483 0.23782 0.0
C322 C 0.57875 0.40863 0.21976 0.0
C323 C 0.58418 0.3942 0.23863 0.0
C324 C 0.57609 0.40596 0.18134 0.0
C325 C 0.56832 0.44005 0.21908 0.0
C326 C 0.55897 0.3854 0.16691 0.0
C327 C 0.55555 0.38321 0.13076 0.0
C328 C 0.56927 0.40155 0.10847 0.0
C329 C 0.58684 0.42189 0.12293 0.0
C330 C 0.59027 0.42404 0.15906 0.0
H331 H 0.56103 0.44748 0.23731 0.0
H332 H 0.58356 0.45432 0.20648 0.0
H333 H 0.55554 0.43048 0.19839 0.0
H334 H 0.54792 0.37122 0.1837 0.0
H335 H 0.54193 0.36732 0.12035 0.0
H336 H 0.14333 0.53081 0.59302 0.0
H337 H 0.14128 0.52845 0.65694 0.0
H338 H 0.15956 0.5992 0.66244 0.0
H339 H 0.16151 0.60168 0.59858 0.0
H340 H 0.17627 0.55519 0.70639 0.0
H341 H 0.10026 0.56552 0.72077 0.0
H342 H 0.10804 0.55814 0.67972 0.0
H343 H 0.12302 0.58712 0.69495 0.0
C344 C 0.14691 0.54586 0.60786 0.0
C345 C 0.15249 0.56641 0.59085 0.0
C346 C 0.14573 0.54447 0.64432 0.0
C347 C 0.14994 0.56355 0.66429 0.0
C348 C 0.15585 0.58418 0.64741 0.0
H349 H 0.15184 0.59127 0.88551 0.0
H350 H 0.15344 0.59295 0.82156 0.0
C351 C 0.15709 0.5856 0.61097 0.0
C352 C 0.14848 0.56197 0.70285 0.0
H353 H 0.11958 0.56617 0.77286 0.0
C354 C 0.16382 0.55747 0.72098 0.0
C355 C 0.13223 0.565 0.72167 0.0
C356 C 0.1148 0.56902 0.70336 0.0
C357 C 0.16365 0.55638 0.75761 0.0
C358 C 0.1474 0.55943 0.77645 0.0
C359 C 0.13202 0.56386 0.75829 0.0
C360 C 0.14616 0.5582 0.81507 0.0
C361 C 0.1812 0.55251 0.77583 0.0
C362 C 0.14117 0.53799 0.83251 0.0
C363 C 0.14029 0.53699 0.86898 0.0
C364 C 0.14423 0.55616 0.8886 0.0
C365 C 0.14879 0.57625 0.87106 0.0
C366 C 0.1497 0.57724 0.83458 0.0
H367 H 0.19585 0.55634 0.75846 0.0
H368 H 0.18779 0.56322 0.79967 0.0
H369 H 0.17317 0.53435 0.78385 0.0
H370 H 0.13791 0.52296 0.81789 0.0
H371 H 0.13659 0.52124 0.88179 0.0
H372 H 0.58457 0.08332 0.02334 0.0
H373 H 0.56399 0.04149 0.02385 0.0
H374 H 0.50848 0.04037 0.96678 0.0
H375 H 0.52885 0.08206 0.966 0.0
H376 H 0.49933 0.0165 0.03772 0.0
H377 H 0.54514 -0.00723 0.94041 0.0
H378 H 0.56166 0.01581 0.97036 0.0
H379 H 0.5448 0.01923 0.93739 0.0
C380 C 0.56821 0.07414 0.01023 0.0
C381 C 0.55821 0.08587 0.99481 0.0
C382 C 0.55654 0.05033 0.01054 0.0
C383 C 0.53482 0.03806 0.99538 0.0
C384 C 0.52529 0.0497 0.97855 0.0
H385 H 0.42199 0.90124 0.99051 0.0
H386 H 0.44709 0.9426 0.99279 0.0
C387 C 0.53695 0.07345 0.97809 0.0
C388 C 0.52103 0.01322 0.99989 0.0
H389 H 0.51431 0.96281 0.97043 0.0
C390 C 0.50257 0.00468 0.02316 0.0
C391 C 0.52565 -0.00188 0.98108 0.0
C392 C 0.54532 0.00678 0.95573 0.0
C393 C 0.48832 0.98118 0.02792 0.0
C394 C 0.49241 0.96596 0.00818 0.0
C395 C 0.51123 0.97457 0.98547 0.0
C396 C 0.47687 0.94106 0.00952 0.0
C397 C 0.46917 0.97291 0.0542 0.0
C398 C 0.48539 0.92657 0.01785 0.0
C399 C 0.47117 0.90297 0.01611 0.0
C400 C 0.44823 0.89355 0.00604 0.0
C401 C 0.43956 0.90808 0.99864 0.0
C402 C 0.45385 0.93168 1.0001 0.0
H403 H 0.47276 0.98604 0.07445 0.0
H404 H 0.45321 0.96925 0.04056 0.0
H405 H 0.46624 0.95704 0.06734 0.0
H406 H 0.50314 0.93353 0.02506 0.0
H407 H 0.47827 0.89212 0.02195 0.0
H408 H 0.46912 0.55971 0.43945 0.0
H409 H 0.49266 0.54246 0.45128 0.0
H410 H 0.43604 0.48654 0.50448 0.0
H411 H 0.41225 0.50342 0.4921 0.0
H412 H 0.50273 0.53575 0.5188 0.0
H413 H 0.46101 0.45415 0.44498 0.0
H414 H 0.45536 0.47704 0.43602 0.0
H415 H 0.44207 0.45841 0.4727 0.0
C416 C 0.46152 0.54344 0.45286 0.0
C417 C 0.43891 0.53291 0.46496 0.0
C418 C 0.47499 0.53367 0.4597 0.0
C419 C 0.46604 0.51324 0.47867 0.0
C420 C 0.44313 0.50212 0.4893 0.0
H421 H 0.52879 0.43808 0.56004 0.0
H422 H 0.50378 0.45426 0.55357 0.0
C423 C 0.42959 0.51181 0.48226 0.0
C424 C 0.48128 0.50482 0.49016 0.0
H425 H 0.48997 0.45952 0.48523 0.0
C426 C 0.5 0.51911 0.51139 0.0
C427 C 0.47746 0.48303 0.48071 0.0
C428 C 0.45801 0.46732 0.45711 0.0
C429 C 0.51514 0.51218 0.52336 0.0
C430 C 0.51147 0.49054 0.51355 0.0
C431 C 0.49256 0.47608 0.49282 0.0
C432 C 0.52783 0.48301 0.52245 0.0
C433 C 0.53484 0.52798 0.54649 0.0
C434 C 0.54977 0.49424 0.50783 0.0
C435 C 0.56405 0.48506 0.51143 0.0
C436 C 0.5565 0.46447 0.52956 0.0
C437 C 0.53504 0.45399 0.54596 0.0
C438 C 0.52073 0.46315 0.54222 0.0
H439 H 0.53188 0.54109 0.55895 0.0
H440 H 0.53781 0.51829 0.56725 0.0
H441 H 0.55058 0.53694 0.53045 0.0
H442 H 0.55538 0.50943 0.49207 0.0
H443 H 0.5805 0.49346 0.49849 0.0
H444 H 0.08018 0.56008 0.03997 0.0
H445 H 0.03972 0.54864 0.03937 0.0
H446 H 0.02386 0.48556 0.98842 0.0
H447 H 0.06424 0.4966 0.98995 0.0
H448 H 0.01413 0.54121 0.98156 0.0
H449 H 0.97593 0.46325 0.06392 0.0
H450 H 0.00627 0.48304 0.06265 0.0
H451 H -0.00725 0.46221 0.02854 0.0
C452 C 0.06799 0.54357 0.02928 0.0
C453 C 0.07525 0.52917 0.01509 0.0
C454 C 0.04493 0.53711 0.02885 0.0
C455 C 0.02881 0.5162 0.0141 0.0
C456 C 0.03597 0.50155 1.00061 0.0
H457 H 0.88616 0.45639 0.96086 0.0
H458 H 0.92709 0.46962 0.95966 0.0
C459 C 0.05903 0.50789 1.0014 0.0
C460 C 0.00478 0.5105 0.01078 0.0
H461 H 0.95008 0.47021 0.03114 0.0
C462 C 0.00013 0.52576 0.99259 0.0
C463 C 0.9866 0.49032 0.02517 0.0
C464 C -0.00939 0.47387 0.04645 0.0
C465 C 0.97769 0.52123 0.98817 0.0
C466 C 0.95961 0.50096 0.00217 0.0
C467 C 0.96416 0.48568 0.02026 0.0
C468 C 0.93573 0.49546 0.99922 0.0
C469 C 0.97329 0.53791 0.96836 0.0
C470 C 0.92738 0.50607 0.02134 0.0
C471 C 0.90405 0.4985 0.02225 0.0
C472 C 0.88885 0.48024 1.00101 0.0
C473 C 0.8975 0.47052 0.97747 0.0
C474 C 0.9208 0.47799 0.97678 0.0
H475 H -0.011 0.55161 0.95575 0.0
H476 H 0.96009 0.52883 0.94798 0.0
H477 H 0.96663 0.54592 0.98662 0.0
H478 H 0.93878 0.51951 0.03896 0.0
H479 H 0.89781 0.50627 0.04064 0.0
H480 H 0.54957 0.08344 0.55834 0.0
H481 H 0.53331 0.04316 0.54317 0.0
H482 H 0.47451 0.04257 0.49835 0.0
H483 H 0.49041 0.0827 0.51408 0.0
H484 H 0.4638 0.00318 0.53539 0.0
H485 H 0.53431 0.02535 0.44126 0.0
H486 H 0.54377 0.03481 0.4851 0.0
H487 H 0.52922 0.04657 0.46104 0.0
C488 C 0.53296 0.07458 0.5459 0.0
C489 C 0.52134 0.0862 0.53702 0.0
C490 C 0.52382 0.05169 0.53697 0.0
C491 C 0.50309 0.04021 0.51873 0.0
C492 C 0.49068 0.05129 0.51207 0.0
H493 H 0.4265 0.905 0.42681 0.0
H494 H 0.44328 0.94602 0.43707 0.0
C495 C 0.49974 0.07416 0.52119 0.0
C496 C 0.49479 0.01697 0.50532 0.0
H497 H 0.50893 0.98581 0.45143 0.0
C498 C 0.47356 -0.00062 0.51688 0.0
C499 C 0.50756 0.01222 0.48089 0.0
C500 C 0.52988 0.03076 0.46604 0.0
C501 C 0.46502 0.97692 0.5054 0.0
C502 C 0.47801 0.97213 0.48158 0.0
C503 C 0.4991 0.98971 0.46968 0.0
C504 C 0.47033 0.94864 0.47035 0.0
C505 C 0.44244 0.95833 0.51941 0.0
C506 C 0.48077 0.93704 0.48438 0.0
C507 C 0.47127 0.9137 0.47864 0.0
C508 C 0.45127 0.90176 0.45865 0.0
C509 C 0.4419 0.91381 0.44238 0.0
C510 C 0.45136 0.93715 0.4483 0.0
H511 H 0.43613 0.96437 0.54141 0.0
H512 H 0.42951 0.95224 0.49821 0.0
H513 H 0.44398 0.94358 0.52847 0.0
H514 H 0.49551 0.94578 0.50135 0.0
H515 H 0.47888 0.90482 0.49135 0.0
H516 H 0.39068 0.49538 0.9986 0.0
H517 H 0.39914 0.46428 0.00207 0.0
H518 H 0.47069 0.51333 0.01535 0.0
H519 H 0.46235 0.54446 0.01235 0.0
H520 H 0.42688 0.45752 0.95685 0.0
H521 H 0.45866 0.46697 0.09248 0.0
H522 H 0.44247 0.47992 0.07742 0.0
H523 H 0.47267 0.49349 0.06907 0.0
C524 C 0.40818 0.4995 0.00274 0.0
C525 C 0.4259 0.52231 0.00524 0.0
C526 C 0.41294 0.48174 0.0047 0.0
C527 C 0.43545 0.48653 0.00946 0.0
C528 C 0.45312 0.50928 0.01247 0.0
H529 H 0.51499 0.4314 0.94619 0.0
H530 H 0.4886 0.44596 0.94948 0.0
C531 C 0.44838 0.52705 0.01053 0.0
C532 C 0.4409 0.46802 0.00859 0.0
H533 H 0.47079 0.44765 0.05233 0.0
C534 C 0.43608 0.45499 0.97798 0.0
C535 C 0.45243 0.46442 0.03646 0.0
C536 C 0.45664 0.47678 0.07085 0.0
C537 C 0.44401 0.43961 0.97353 0.0
C538 C 0.45739 0.43761 1.00014 0.0
C539 C 0.46073 0.44939 0.03175 0.0
C540 C 0.47028 0.42561 0.99454 0.0
C541 C 0.43851 0.42613 0.94004 0.0
C542 C 0.46864 0.40924 0.01864 0.0
C543 C 0.48391 0.4011 0.01704 0.0
C544 C 0.50109 0.40932 0.99142 0.0
C545 C 0.50188 0.42474 0.96615 0.0
C546 C 0.48668 0.43293 0.96784 0.0
H547 H 0.42209 0.42314 0.9288 0.0
H548 H 0.45211 0.43597 0.92057 0.0
H549 H 0.43746 0.40941 0.94422 0.0
H550 H 0.45618 0.40351 0.03954 0.0
H551 H 0.48289 0.38915 0.0368 0.0
H552 H 0.902 0.45294 0.57227 0.0
H553 H 0.94303 0.47405 0.56036 0.0
H554 H 0.93637 0.41838 0.49713 0.0
H555 H 0.8953 0.39708 0.50887 0.0
H556 H 0.97817 0.44334 0.54459 0.0
H557 H 0.96047 0.49744 0.45493 0.0
H558 H 0.94902 0.49358 0.49843 0.0
H559 H 0.93846 0.46961 0.46939 0.0
C560 C 0.90936 0.44493 0.55661 0.0
C561 C 0.89547 0.42353 0.54109 0.0
C562 C 0.93273 0.45704 0.54975 0.0
C563 C 0.94244 0.44783 0.52742 0.0
C564 C 0.92901 0.42571 0.51427 0.0
H565 H 0.08051 0.50487 0.44509 0.0
H566 H 0.03959 0.47975 0.45539 0.0
C567 C 0.90561 0.4136 0.52104 0.0
C568 C 0.96603 0.46216 0.51506 0.0
H569 H -0.00084 0.50822 0.46354 0.0
C570 C 0.98284 0.45747 0.52675 0.0
C571 C 0.97179 0.48041 0.49165 0.0
C572 C 0.95401 0.48556 0.47756 0.0
C573 C 0.00566 0.47115 0.51642 0.0
C574 C 0.01148 0.48958 0.49324 0.0
C575 C -0.00546 0.49401 0.48118 0.0
C576 C 0.03532 0.50527 0.48286 0.0
C577 C 0.02343 0.46626 0.53129 0.0
C578 C 0.04598 0.5282 0.49311 0.0
C579 C 0.0692 0.54263 0.48693 0.0
C580 C 0.08206 0.53427 0.4704 0.0
C581 C 0.071 0.5117 0.45808 0.0
C582 C 0.04773 0.49729 0.46419 0.0
H583 H 0.01695 0.45479 0.55438 0.0
H584 H 0.02835 0.4578 0.51106 0.0
H585 H 0.039 0.48232 0.53906 0.0
H586 H 0.03655 0.53467 0.50728 0.0
H587 H 0.07728 0.55998 0.49661 0.0
H588 H 0.53494 0.18735 0.01618 0.0
H589 H 0.52248 0.21213 0.99097 0.0
H590 H 0.5431 0.20252 0.88858 0.0
H591 H 0.55646 0.1781 0.9142 0.0
H592 H 0.56262 0.24521 0.90192 0.0
H593 H 0.47288 0.21163 0.93587 0.0
H594 H 0.4869 0.21059 0.97489 0.0
H595 H 0.48575 0.19383 0.93739 0.0
C596 C 0.53628 0.18998 0.98814 0.0
C597 C 0.54694 0.18105 0.96722 0.0
C598 C 0.52881 0.20394 0.97359 0.0
C599 C 0.53147 0.20897 0.93769 0.0
C600 C 0.5407 0.19875 0.91629 0.0
H601 H 0.51477 0.32949 0.92729 0.0
H602 H 0.5084 0.29274 0.90475 0.0
C603 C 0.54837 0.18486 0.93095 0.0
C604 C 0.52889 0.22819 0.92473 0.0
H605 H 0.49803 0.25415 0.94275 0.0
C606 C 0.54809 0.24684 0.9096 0.0
C607 C 0.50976 0.23037 0.93355 0.0
C608 C 0.48761 0.21034 0.94593 0.0
C609 C 0.54989 0.26833 0.90781 0.0
C610 C 0.53233 0.27126 0.92226 0.0
C611 C 0.51183 0.25203 0.93267 0.0
C612 C 0.53671 0.29405 0.93307 0.0
C613 C 0.57134 0.28804 0.89284 0.0
C614 C 0.55445 0.30666 0.95681 0.0
C615 C 0.55803 0.32738 0.96975 0.0
C616 C 0.54381 0.33588 0.95943 0.0
C617 C 0.52603 0.32332 0.93557 0.0
C618 C 0.52239 0.30242 0.92264 0.0
H619 H 0.57823 0.28219 0.87139 0.0
H620 H 0.56822 0.30161 0.88266 0.0
H621 H 0.58458 0.29546 0.91356 0.0
H622 H 0.56527 0.30019 0.96605 0.0
H623 H 0.5718 0.3366 0.9882 0.0
H624 H 0.32399 0.5208 0.4695 0.0
H625 H 0.28676 0.51119 0.44639 0.0
H626 H 0.31809 0.54588 0.34997 0.0
H627 H 0.3557 0.55604 0.37344 0.0
H628 H 0.29471 0.56284 0.37887 0.0
H629 H 0.239 0.46975 0.37853 0.0
H630 H 0.25362 0.47818 0.41958 0.0
H631 H 0.26977 0.48308 0.37979 0.0
C632 C 0.32293 0.52584 0.443 0.0
C633 C 0.34275 0.53941 0.42344 0.0
C634 C 0.30154 0.52007 0.42959 0.0
C635 C 0.29953 0.52752 0.3962 0.0
C636 C 0.31921 0.53977 0.37566 0.0
H637 H 0.18358 0.55167 0.3794 0.0
H638 H 0.21076 0.54194 0.35333 0.0
C639 C 0.34068 0.54562 0.38914 0.0
C640 C 0.27784 0.52645 0.38638 0.0
H641 H 0.22028 0.49191 0.39523 0.0
C642 C 0.27837 0.54721 0.38104 0.0
C643 C 0.25653 0.50605 0.38887 0.0
C644 C 0.25476 0.48301 0.39162 0.0
C645 C 0.25837 0.54852 0.38256 0.0
C646 C 0.23731 0.52843 0.38909 0.0
C647 C 0.23649 0.50732 0.39057 0.0
C648 C 0.21741 0.52978 0.40176 0.0
C649 C 0.26027 0.57169 0.38076 0.0
C650 C 0.2114 0.5251 0.43711 0.0
C651 C 0.19599 0.53058 0.45196 0.0
C652 C 0.18627 0.54081 0.43168 0.0
C653 C 0.19099 0.54396 0.39567 0.0
C654 C 0.20649 0.53845 0.38076 0.0
H655 H 0.27826 0.58577 0.37864 0.0
H656 H 0.25081 0.57246 0.3576 0.0
H657 H 0.25255 0.57461 0.40438 0.0
H658 H 0.21967 0.51844 0.45376 0.0
H659 H 0.19251 0.52775 0.4797 0.0
H660 H 0.8117 0.3805 0.95464 0.0
H661 H 0.79187 0.33976 0.93913 0.0
H662 H 0.74052 0.32636 0.01685 0.0
H663 H 0.75999 0.36668 0.03236 0.0
H664 H 0.76148 0.29528 0.01383 0.0
H665 H 0.72587 0.30729 0.88929 0.0
H666 H 0.75574 0.32496 0.89988 0.0
H667 H 0.73482 0.32853 0.92329 0.0
C668 C 0.79622 0.36879 0.96844 0.0
C669 C 0.78728 0.37672 0.99456 0.0
C670 C 0.78499 0.34561 0.95959 0.0
C671 C 0.76483 0.3302 0.97695 0.0
C672 C 0.75616 0.33806 0.00335 0.0
H673 H 0.64151 0.23225 1.00051 0.0
H674 H 0.67952 0.26329 0.98623 0.0
C675 C 0.76723 0.36111 0.01203 0.0
C676 C 0.75162 0.30591 0.96717 0.0
H677 H 0.70584 0.27124 0.91638 0.0
C678 C 0.74991 0.28972 0.99169 0.0
C679 C 0.73671 0.29887 0.93817 0.0
C680 C 0.73824 0.31571 0.91096 0.0
C681 C 0.73192 0.26708 0.99012 0.0
C682 C 0.71537 0.26076 0.96351 0.0
C683 C 0.71865 0.27625 0.9367 0.0
C684 C 0.69215 0.24129 0.96872 0.0
C685 C 0.72917 0.25078 0.0191 0.0
C686 C 0.6867 0.21864 0.96326 0.0
C687 C 0.66478 0.2007 0.97139 0.0
C688 C 0.64831 0.20536 0.98533 0.0
C689 C 0.65386 0.22811 0.99003 0.0
C690 C 0.67552 0.24587 0.9817 0.0
H691 H 0.74439 0.25779 0.0364 0.0
H692 H 0.71403 0.24708 0.03518 0.0
H693 H 0.72618 0.2344 0.0079 0.0
H694 H 0.69944 0.21488 0.95333 0.0
H695 H 0.66088 0.18327 0.96752 0.0
H696 H 0.4686 0.81813 0.41413 0.0
H697 H 0.48227 0.79238 0.39496 0.0
H698 H 0.4153 0.73451 0.41398 0.0
H699 H 0.40172 0.75985 0.43292 0.0
H700 H 0.48302 0.7602 0.43782 0.0
H701 H 0.43174 0.71701 0.3217 0.0
H702 H 0.43615 0.7443 0.3364 0.0
H703 H 0.41346 0.7181 0.35455 0.0
C704 C 0.45676 0.79992 0.41345 0.0
C705 C 0.43415 0.79092 0.42515 0.0
C706 C 0.46455 0.78529 0.40244 0.0
C707 C 0.44967 0.76159 0.40234 0.0
C708 C 0.42692 0.75277 0.41285 0.0
H709 H 0.43081 0.64987 0.48933 0.0
H710 H 0.44579 0.68893 0.46963 0.0
C711 C 0.41924 0.76726 0.42411 0.0
C712 C 0.45807 0.74548 0.39655 0.0
H713 H 0.43817 0.69233 0.36288 0.0
C714 C 0.47392 0.74574 0.42045 0.0
C715 C 0.44682 0.72693 0.37321 0.0
C716 C 0.4313 0.72674 0.34476 0.0
C717 C 0.47615 0.72642 0.42513 0.0
C718 C 0.46187 0.70643 0.40586 0.0
C719 C 0.4487 0.70746 0.37834 0.0
C720 C 0.45638 0.68364 0.41873 0.0
C721 C 0.49241 0.72698 0.4526 0.0
C722 C 0.45704 0.66751 0.3965 0.0
C723 C 0.44824 0.64494 0.40771 0.0
C724 C 0.43837 0.63822 0.44106 0.0
C725 C 0.4383 0.65455 0.46348 0.0
C726 C 0.44716 0.67699 0.4524 0.0
H727 H 0.5079 0.74419 0.45394 0.0
H728 H 0.48398 0.72336 0.47855 0.0
H729 H 0.49766 0.71415 0.44731 0.0
H730 H 0.46376 0.67223 0.37023 0.0
H731 H 0.44847 0.63264 0.38991 0.0
H732 H 0.62004 0.47451 0.98862 0.0
H733 H 0.66108 0.49873 0.97852 0.0
H734 H 0.66009 0.44675 0.91218 0.0
H735 H 0.61924 0.42284 0.92156 0.0
H736 H 0.68706 0.48335 0.00347 0.0
H737 H 0.70909 0.50269 0.86469 0.0
H738 H 0.68104 0.49465 0.88133 0.0
H739 H 0.68804 0.47314 0.8692 0.0
C740 C 0.62844 0.46867 0.97079 0.0
C741 C 0.61656 0.44665 0.95632 0.0
C742 C 0.65188 0.48255 0.96496 0.0
C743 C 0.66371 0.47466 0.94445 0.0
C744 C 0.65136 0.45352 0.92744 0.0
H745 H 0.7651 0.44641 0.94215 0.0
H746 H 0.73718 0.4577 0.9273 0.0
C747 C 0.62798 0.43969 0.93318 0.0
C748 C 0.68885 0.48534 0.9473 0.0
H749 H 0.73527 0.49475 0.89945 0.0
C750 C 0.69791 0.48671 0.98079 0.0
C751 C 0.70299 0.4898 0.91774 0.0
C752 C 0.69477 0.49022 0.88128 0.0
C753 C 0.71975 0.48965 0.9854 0.0
C754 C 0.73311 0.49187 0.95559 0.0
C755 C 0.72496 0.49288 0.92225 0.0
C756 C 0.7531 0.48859 0.95831 0.0
C757 C 0.7273 0.488 0.02194 0.0
C758 C 0.77198 0.5028 0.97931 0.0
C759 C 0.78782 0.49613 0.98838 0.0
C760 C 0.78514 0.47537 0.97606 0.0
C761 C 0.76749 0.46238 0.95233 0.0
C762 C 0.75157 0.4689 0.94364 0.0
H763 H 0.71349 0.48313 0.04153 0.0
H764 H 0.73298 0.47522 0.02296 0.0
H765 H 0.74189 0.50478 0.02973 0.0
H766 H 0.77374 0.51832 0.99028 0.0
H767 H 0.80147 0.50663 0.00635 0.0
H768 H 0.16523 0.64202 0.43122 0.0
H769 H 0.19 0.68305 0.41926 0.0
H770 H 0.24862 0.67867 0.45239 0.0
H771 H 0.22424 0.63821 0.46475 0.0
H772 H 0.24104 0.71291 0.48656 0.0
H773 H 0.24074 0.71645 0.34103 0.0
H774 H 0.21428 0.7008 0.36482 0.0
H775 H 0.23388 0.69033 0.36355 0.0
C776 C 0.18345 0.64985 0.43552 0.0
C777 C 0.19284 0.63703 0.44912 0.0
C778 C 0.19752 0.67319 0.42862 0.0
C779 C 0.22107 0.68377 0.43497 0.0
C780 C 0.23044 0.67077 0.44744 0.0
H781 H 0.35005 0.78013 0.39665 0.0
H782 H 0.30947 0.75299 0.39028 0.0
C783 C 0.21649 0.64766 0.4545 0.0
C784 C 0.23634 0.7086 0.43102 0.0
H785 H 0.26946 0.7485 0.37047 0.0
C786 C 0.24694 0.72105 0.46127 0.0
C787 C 0.24371 0.71894 0.39794 0.0
C788 C 0.23267 0.70607 0.3648 0.0
C789 C 0.26639 0.74275 0.45938 0.0
C790 C 0.27494 0.75258 0.4261 0.0
C791 C 0.26287 0.74097 0.39589 0.0
C792 C 0.29847 0.77213 0.42219 0.0
C793 C 0.27881 0.75375 0.49298 0.0
C794 C 0.30578 0.79268 0.44029 0.0
C795 C 0.32912 0.80793 0.44485 0.0
C796 C 0.34532 0.80317 0.43027 0.0
C797 C 0.33792 0.78413 0.4084 0.0
C798 C 0.31467 0.76863 0.40463 0.0
H799 H 0.27172 0.74205 0.51574 0.0
H800 H 0.29722 0.75927 0.49076 0.0
H801 H 0.27725 0.76897 0.49854 0.0
H802 H 0.29354 0.79609 0.45305 0.0
H803 H 0.33444 0.82274 0.46136 0.0
H804 H 0.8273 0.47226 0.54413 0.0
H805 H 0.80706 0.49301 0.55629 0.0
H806 H 0.75496 0.43423 0.61131 0.0
H807 H 0.77528 0.41382 0.6001 0.0
H808 H 0.76718 0.47946 0.52873 0.0
H809 H 0.75625 0.48328 0.66998 0.0
H810 H 0.77809 0.47832 0.65206 0.0
H811 H 0.74954 0.45484 0.65953 0.0
C812 C 0.81191 0.46408 0.55979 0.0
C813 C 0.80269 0.44135 0.57085 0.0
C814 C 0.80042 0.47598 0.56681 0.0
C815 C 0.77963 0.46534 0.58511 0.0
C816 C 0.77128 0.44313 0.59807 0.0
H817 H 0.64906 0.42182 0.57229 0.0
H818 H 0.68879 0.43615 0.58841 0.0
C819 C 0.78278 0.43131 0.59121 0.0
C820 C 0.76425 0.475 0.58464 0.0
H821 H 0.72197 0.47451 0.63364 0.0
C822 C 0.7579 0.47939 0.55187 0.0
C823 C 0.75232 0.47525 0.61481 0.0
C824 C 0.75966 0.47291 0.65106 0.0
C825 C 0.73808 0.48083 0.54793 0.0
C826 C 0.72446 0.47794 0.57761 0.0
C827 C 0.73232 0.47641 0.61087 0.0
C828 C 0.70018 0.47106 0.5735 0.0
C829 C 0.73051 0.48288 0.51164 0.0
C830 C 0.69338 0.48614 0.56062 0.0
C831 C 0.67055 0.47794 0.55129 0.0
C832 C 0.65443 0.45458 0.55456 0.0
C833 C 0.66115 0.43985 0.56918 0.0
C834 C 0.6838 0.44805 0.57865 0.0
H835 H 0.74282 0.48431 0.49122 0.0
H836 H 0.71361 0.46776 0.50577 0.0
H837 H 0.72864 0.49822 0.51014 0.0
H838 H 0.70582 0.50398 0.55657 0.0
H839 H 0.66575 0.48966 0.54021 0.0
H840 H 0.32763 0.77734 0.96722 0.0
H841 H 0.28997 0.74833 0.98699 0.0
H842 H 0.31127 0.76563 0.09432 0.0
H843 H 0.34939 0.79475 0.0745 0.0
H844 H 0.29608 0.72165 0.08127 0.0
H845 H 0.23277 0.74217 0.02911 0.0
H846 H 0.25245 0.74563 0.99514 0.0
H847 H 0.26261 0.76351 0.03346 0.0
C848 C 0.32414 0.77543 0.99503 0.0
C849 C 0.34147 0.7881 0.01934 0.0
C850 C 0.30248 0.75899 0.00633 0.0
C851 C 0.29767 0.755 0.04216 0.0
C852 C 0.31456 0.76862 0.06656 0.0
H853 H 0.16797 0.62464 0.0613 0.0
H854 H 0.19594 0.66407 0.0776 0.0
C855 C 0.33631 0.78519 0.05521 0.0
C856 C 0.27673 0.73398 0.05319 0.0
H857 H 0.22076 0.70107 0.03025 0.0
C858 C 0.27942 0.7174 0.07118 0.0
C859 C 0.25489 0.72846 0.04069 0.0
C860 C 0.25051 0.74604 0.02388 0.0
C861 C 0.26149 0.6948 0.07333 0.0
C862 C 0.24056 0.68868 0.05669 0.0
C863 C 0.23703 0.70574 0.04234 0.0
C864 C 0.22377 0.66461 0.04905 0.0
C865 C 0.26554 0.67735 0.09146 0.0
C866 C 0.23019 0.6521 0.02733 0.0
C867 C 0.21434 0.62981 0.01782 0.0
C868 C 0.19175 0.61962 0.02983 0.0
C869 C 0.18533 0.63209 0.05179 0.0
C870 C 0.20122 0.65454 0.06113 0.0
H871 H 0.27868 0.68538 0.11225 0.0
H872 H 0.24955 0.66354 0.10324 0.0
H873 H 0.27185 0.6696 0.07213 0.0
H874 H 0.24741 0.65978 0.01712 0.0
H875 H 0.21976 0.62064 1.0008 0.0
H876 H 0.53418 0.21291 0.51339 0.0
H877 H 0.52537 0.24171 0.53365 0.0
H878 H 0.51951 0.21733 0.63946 0.0
H879 H 0.52831 0.18811 0.61917 0.0
H880 H 0.48695 0.23893 0.57759 0.0
H881 H 0.57386 0.28586 0.6373 0.0
H882 H 0.56721 0.26378 0.6054 0.0
H883 H 0.55461 0.25636 0.64807 0.0
C884 C 0.53069 0.21342 0.5409 0.0
C885 C 0.53219 0.1985 0.56479 0.0
C886 C 0.5255 0.22977 0.5524 0.0
C887 C 0.52188 0.23163 0.58801 0.0
C888 C 0.52228 0.2161 0.61187 0.0
H889 H 0.55779 0.37314 0.61134 0.0
H890 H 0.54049 0.3343 0.63507 0.0
C891 C 0.52731 0.19949 0.60026 0.0
C892 C 0.5205 0.25169 0.5995 0.0
H893 H 0.55696 0.3072 0.62064 0.0
C894 C 0.50189 0.25373 0.58822 0.0
C895 C 0.53984 0.27081 0.61393 0.0
C896 C 0.5601 0.2693 0.62696 0.0
C897 C 0.50319 0.27505 0.58742 0.0
C898 C 0.52382 0.2947 0.59724 0.0
C899 C 0.54123 0.29216 0.61269 0.0
C900 C 0.52977 0.31773 0.58471 0.0
C901 C 0.48304 0.27648 0.57383 0.0
C902 C 0.52925 0.32128 0.54864 0.0
C903 C 0.53914 0.34329 0.53511 0.0
C904 C 0.54997 0.36226 0.55733 0.0
C905 C 0.54957 0.35879 0.59362 0.0
C906 C 0.53963 0.33665 0.60721 0.0
H907 H 0.46677 0.26128 0.58205 0.0
H908 H 0.48325 0.2921 0.58321 0.0
H909 H 0.48338 0.27667 0.54483 0.0
H910 H 0.52244 0.30706 0.53059 0.0
H911 H 0.53917 0.34543 0.50704 0.0
H912 H 0.17993 0.50718 1.00121 0.0
H913 H 0.21169 0.50356 0.02292 0.0
H914 H 0.21012 0.53486 0.12027 0.0
H915 H 0.17829 0.53886 0.09824 0.0
H916 H 0.25002 0.55859 0.08821 0.0
H917 H 0.22901 0.46903 0.08919 0.0
H918 H 0.21918 0.47469 0.04901 0.0
H919 H 0.20716 0.47694 0.08989 0.0
C920 C 0.18577 0.51253 0.02773 0.0
C921 C 0.17686 0.52356 0.04787 0.0
C922 C 0.20383 0.51023 0.04032 0.0
C923 C 0.21322 0.51877 0.07338 0.0
C924 C 0.20302 0.528 0.09479 0.0
H925 H 0.36065 0.56492 0.086 0.0
H926 H 0.32276 0.55262 0.11084 0.0
C927 C 0.18483 0.53025 0.08219 0.0
C928 C 0.23621 0.52242 0.08159 0.0
H929 H 0.26833 0.49706 0.06994 0.0
C930 C 0.25404 0.54504 0.0856 0.0
C931 C 0.24144 0.50475 0.07838 0.0
C932 C 0.22308 0.47998 0.07677 0.0
C933 C 0.27692 0.55073 0.08233 0.0
C934 C 0.282 0.53327 0.07531 0.0
C935 C 0.26433 0.51043 0.07491 0.0
C936 C 0.30471 0.53874 0.06225 0.0
C937 C 0.29533 0.57556 0.0831 0.0
C938 C 0.30695 0.53456 0.027 0.0
C939 C 0.32841 0.54154 0.01282 0.0
C940 C 0.34806 0.55279 0.03368 0.0
C941 C 0.34578 0.55641 0.06929 0.0
C942 C 0.3242 0.5494 0.0835 0.0
H943 H 0.28824 0.58714 0.08582 0.0
H944 H 0.30694 0.57857 0.10548 0.0
H945 H 0.30567 0.5801 0.0588 0.0
H946 H 0.29208 0.52644 0.01017 0.0
H947 H 0.32962 0.53841 0.98535 0.0
H948 H 0.63825 0.19523 0.52246 0.0
H949 H 0.6769 0.2181 0.5447 0.0
H950 H 0.65085 0.21099 0.64963 0.0
H951 H 0.61166 0.18777 0.62727 0.0
H952 H 0.67849 0.25563 0.62864 0.0
H953 H 0.72205 0.20738 0.59997 0.0
H954 H 0.7054 0.20663 0.56301 0.0
H955 H 0.69133 0.19382 0.60367 0.0
C956 C 0.64071 0.19816 0.55037 0.0
C957 C 0.62199 0.1899 0.57314 0.0
C958 C 0.66286 0.21097 0.56312 0.0
C959 C 0.66679 0.21584 0.59892 0.0
C960 C 0.64816 0.20708 0.62199 0.0
H961 H 0.79597 0.34486 0.62465 0.0
H962 H 0.76627 0.30801 0.64785 0.0
C963 C 0.62585 0.19395 0.60921 0.0
C964 C 0.69001 0.23309 0.61033 0.0
H965 H 0.7454 0.24923 0.59249 0.0
C966 C 0.69326 0.2541 0.62218 0.0
C967 C 0.70919 0.23091 0.60223 0.0
C968 C 0.70678 0.20834 0.59188 0.0
C969 C 0.71495 0.27373 0.62151 0.0
C970 C 0.73377 0.27204 0.60923 0.0
C971 C 0.7309 0.25051 0.60152 0.0
C972 C 0.75477 0.2925 0.59697 0.0
C973 C 0.71707 0.29645 0.63028 0.0
C974 C 0.75885 0.29549 0.56088 0.0
C975 C 0.77574 0.31634 0.54763 0.0
C976 C 0.78887 0.3346 0.57027 0.0
C977 C 0.78594 0.3311 0.60659 0.0
C978 C 0.76898 0.31012 0.61989 0.0
H979 H 0.70032 0.2949 0.63656 0.0
H980 H 0.72844 0.30396 0.65325 0.0
H981 H 0.72477 0.30847 0.60804 0.0
H982 H 0.74805 0.28208 0.54276 0.0
H983 H 0.77773 0.31848 0.51955 0.0
H984 H 0.44738 0.63021 0.08266 0.0
H985 H 0.45899 0.66829 0.10585 0.0
H986 H 0.46863 0.6946 1.0007 0.0
H987 H 0.45733 0.65692 0.97753 0.0
H988 H 0.50012 0.72669 0.05251 0.0
H989 H 0.40818 0.68464 0.09079 0.0
H990 H 0.42567 0.67393 0.10828 0.0
H991 H 0.41845 0.67039 0.06269 0.0
C992 C 0.45268 0.64431 0.0646 0.0
C993 C 0.45103 0.6406 0.0283 0.0
C994 C 0.45927 0.666 0.07788 0.0
C995 C 0.46428 0.6841 0.05493 0.0
C996 C 0.46481 0.68083 0.01884 0.0
H997 H 0.45711 0.79028 0.98086 0.0
H998 H 0.47096 0.76586 0.0034 0.0
C999 C 0.45819 0.65925 0.00561 0.0
C1000 C 0.46487 0.7051 0.06695 0.0
H1001 H 0.42751 0.72385 0.08265 0.0
C1002 C 0.48447 0.72621 0.06025 0.0
C1003 C 0.44451 0.70443 0.07752 0.0
C1004 C 0.42292 0.6822 0.08521 0.0
C1005 C 0.48362 0.74648 0.06058 0.0
C1006 C 0.4625 0.7454 0.06683 0.0
C1007 C 0.44365 0.72466 0.07748 0.0
C1008 C 0.45817 0.76391 0.05597 0.0
C1009 C 0.50506 0.76865 0.05243 0.0
C1010 C 0.44615 0.77088 0.07784 0.0
C1011 C 0.4377 0.78449 0.06468 0.0
C1012 C 0.44117 0.7913 0.02945 0.0
C1013 C 0.45419 0.7853 0.00815 0.0
C1014 C 0.46245 0.77159 0.02118 0.0
H1015 H 0.52026 0.76867 0.06346 0.0
H1016 H 0.50739 0.77055 0.02367 0.0
H1017 H 0.50434 0.78355 0.06295 0.0
H1018 H 0.44243 0.76496 0.10465 0.0
H1019 H 0.42782 0.78898 0.08172 0.0
loop_
_geom_bond_atom_site_label_1
_geom_bond_atom_site_label_2
_geom_bond_distance
_geom_bond_site_symmetry_2
_ccdc_geom_bond_type
In0 O1 2.296 . S
In0 O2 2.328 . S
In0 O6 2.266 1_554 S
In0 O7 2.324 1_554 S
In0 O8 2.265 1_554 S
In0 O9 2.326 . S
In0 O11 2.293 1_554 S
In0 O12 2.326 . S
O1 In0 2.296 . S
O1 C10 1.240 . S
O2 In0 2.328 . S
O2 C10 1.252 . S
C3 O6 1.252 . S
C3 O7 1.260 . S
C4 O11 1.240 . S
C4 O12 1.252 1_556 S
C5 O8 1.252 . S
C5 O9 1.260 1_556 S
O6 In0 2.266 1_556 S
O6 C3 1.252 . S
O7 In0 2.324 1_556 S
O7 C3 1.260 . S
O8 In0 2.265 1_556 S
O8 C5 1.252 . S
O9 In0 2.326 . S
O9 C5 1.260 1_554 S
C10 O1 1.240 . S
C10 O2 1.252 . S
O11 In0 2.293 1_556 S
O11 C4 1.240 . S
O12 In0 2.326 . S
O12 C4 1.252 1_554 S
In13 O14 2.294 . S
In13 O15 2.326 . S
In13 O19 2.266 . S
In13 O20 2.326 . S
In13 O21 2.266 . S
In13 O22 2.326 . S
In13 O24 2.294 . S
In13 O25 2.326 . S
O14 In13 2.294 . S
O14 C23 1.240 . S
O15 In13 2.326 . S
O15 C23 1.252 . S
C16 O19 1.252 . S
C16 O20 1.260 . S
C17 O24 1.240 . S
C17 O25 1.252 . S
C18 O21 1.252 . S
C18 O22 1.260 . S
O19 In13 2.266 . S
O19 C16 1.252 . S
O20 In13 2.326 . S
O20 C16 1.260 . S
O21 In13 2.266 . S
O21 C18 1.252 . S
O22 In13 2.326 . S
O22 C18 1.260 . S
C23 O14 1.240 . S
C23 O15 1.252 . S
O24 In13 2.294 . S
O24 C17 1.240 . S
O25 In13 2.326 . S
O25 C17 1.252 . S
In26 O27 2.293 1_554 S
In26 O28 2.326 . S
In26 O32 2.265 1_554 S
In26 O33 2.326 . S
In26 O34 2.266 1_554 S
In26 O35 2.324 1_554 S
In26 O37 2.296 . S
In26 O38 2.328 . S
O27 In26 2.293 1_556 S
O27 C36 1.240 . S
O28 In26 2.326 . S
O28 C36 1.252 1_554 S
C29 O32 1.252 . S
C29 O33 1.260 1_556 S
C30 O37 1.240 . S
C30 O38 1.252 . S
C31 O34 1.252 . S
C31 O35 1.260 . S
O32 In26 2.265 1_556 S
O32 C29 1.252 . S
O33 In26 2.326 . S
O33 C29 1.260 1_554 S
O34 In26 2.266 1_556 S
O34 C31 1.252 . S
O35 In26 2.324 1_556 S
O35 C31 1.260 . S
C36 O27 1.240 . S
C36 O28 1.252 1_556 S
O37 In26 2.296 . S
O37 C30 1.240 . S
O38 In26 2.328 . S
O38 C30 1.252 . S
In39 O40 2.294 . S
In39 O41 2.326 . S
In39 O45 2.266 . S
In39 O46 2.326 . S
In39 O47 2.266 . S
In39 O48 2.326 . S
In39 O50 2.294 . S
In39 O51 2.326 . S
O40 In39 2.294 . S
O40 C49 1.240 . S
O41 In39 2.326 . S
O41 C49 1.252 . S
C42 O45 1.252 . S
C42 O46 1.260 . S
C43 O50 1.240 . S
C43 O51 1.252 . S
C44 O47 1.252 . S
C44 O48 1.260 . S
O45 In39 2.266 . S
O45 C42 1.252 . S
O46 In39 2.326 . S
O46 C42 1.260 . S
O47 In39 2.266 . S
O47 C44 1.252 . S
O48 In39 2.326 . S
O48 C44 1.260 . S
C49 O40 1.240 . S
C49 O41 1.252 . S
O50 In39 2.294 . S
O50 C43 1.240 . S
O51 In39 2.326 . S
O51 C43 1.252 . S
In52 O53 2.296 . S
In52 O54 2.328 . S
In52 O58 2.266 1_554 S
In52 O59 2.324 1_554 S
In52 O60 2.265 1_554 S
In52 O61 2.326 . S
In52 O63 2.293 1_554 S
In52 O64 2.326 . S
O53 In52 2.296 . S
O53 C62 1.240 . S
O54 In52 2.328 . S
O54 C62 1.252 . S
C55 O58 1.252 . S
C55 O59 1.260 . S
C56 O63 1.240 . S
C56 O64 1.252 1_556 S
C57 O60 1.252 . S
C57 O61 1.260 1_556 S
O58 In52 2.266 1_556 S
O58 C55 1.252 . S
O59 In52 2.324 1_556 S
O59 C55 1.260 . S
O60 In52 2.265 1_556 S
O60 C57 1.252 . S
O61 In52 2.326 . S
O61 C57 1.260 1_554 S
C62 O53 1.240 . S
C62 O54 1.252 . S
O63 In52 2.293 1_556 S
O63 C56 1.240 . S
O64 In52 2.326 . S
O64 C56 1.252 1_554 S
In65 O66 2.294 . S
In65 O67 2.326 . S
In65 O71 2.266 . S
In65 O72 2.326 . S
In65 O73 2.266 . S
In65 O74 2.326 . S
In65 O76 2.294 . S
In65 O77 2.326 . S
O66 In65 2.294 . S
O66 C75 1.240 . S
O67 In65 2.326 . S
O67 C75 1.252 . S
C68 O71 1.252 . S
C68 O72 1.260 . S
C69 O76 1.240 . S
C69 O77 1.252 . S
C70 O73 1.252 . S
C70 O74 1.260 . S
O71 In65 2.266 . S
O71 C68 1.252 . S
O72 In65 2.326 . S
O72 C68 1.260 . S
O73 In65 2.266 . S
O73 C70 1.252 . S
O74 In65 2.326 . S
O74 C70 1.260 . S
C75 O66 1.240 . S
C75 O67 1.252 . S
O76 In65 2.294 . S
O76 C69 1.240 . S
O77 In65 2.326 . S
O77 C69 1.252 . S
In78 O79 2.294 . S
In78 O80 2.326 . S
In78 O84 2.266 . S
In78 O85 2.326 . S
In78 O86 2.266 . S
In78 O87 2.326 . S
In78 O89 2.294 . S
In78 O90 2.326 . S
O79 In78 2.294 . S
O79 C88 1.240 . S
O80 In78 2.326 . S
O80 C88 1.252 . S
C81 O84 1.252 . S
C81 O85 1.260 . S
C82 O89 1.240 . S
C82 O90 1.252 . S
C83 O86 1.252 . S
C83 O87 1.260 . S
O84 In78 2.266 . S
O84 C81 1.252 . S
O85 In78 2.326 . S
O85 C81 1.260 . S
O86 In78 2.266 . S
O86 C83 1.252 . S
O87 In78 2.326 . S
O87 C83 1.260 . S
C88 O79 1.240 . S
C88 O80 1.252 . S
O89 In78 2.294 . S
O89 C82 1.240 . S
O90 In78 2.326 . S
O90 C82 1.252 . S
In91 O92 2.293 1_556 S
In91 O93 2.326 . S
In91 O97 2.265 1_556 S
In91 O98 2.326 . S
In91 O99 2.266 1_556 S
In91 O100 2.324 1_556 S
In91 O102 2.296 . S
In91 O103 2.328 . S
O92 In91 2.293 1_554 S
O92 C101 1.240 . S
O93 In91 2.326 . S
O93 C101 1.252 1_556 S
C94 O97 1.252 . S
C94 O98 1.260 1_554 S
C95 O102 1.240 . S
C95 O103 1.252 . S
C96 O99 1.252 . S
C96 O100 1.260 . S
O97 In91 2.265 1_554 S
O97 C94 1.252 . S
O98 In91 2.326 . S
O98 C94 1.260 1_556 S
O99 In91 2.266 1_554 S
O99 C96 1.252 . S
O100 In91 2.324 1_554 S
O100 C96 1.260 . S
C101 O92 1.240 . S
C101 O93 1.252 1_554 S
O102 In91 2.296 . S
O102 C95 1.240 . S
O103 In91 2.328 . S
O103 C95 1.252 . S
In104 O105 2.294 . S
In104 O106 2.326 . S
In104 O110 2.266 . S
In104 O111 2.326 . S
In104 O112 2.266 . S
In104 O113 2.326 . S
In104 O115 2.294 . S
In104 O116 2.326 . S
O105 In104 2.294 . S
O105 C114 1.240 . S
O106 In104 2.326 . S
O106 C114 1.252 . S
C107 O110 1.252 . S
C107 O111 1.260 . S
C108 O115 1.240 . S
C108 O116 1.252 . S
C109 O112 1.252 . S
C109 O113 1.260 . S
O110 In104 2.266 . S
O110 C107 1.252 . S
O111 In104 2.326 . S
O111 C107 1.260 . S
O112 In104 2.266 . S
O112 C109 1.252 . S
O113 In104 2.326 . S
O113 C109 1.260 . S
C114 O105 1.240 . S
C114 O106 1.252 . S
O115 In104 2.294 . S
O115 C108 1.240 . S
O116 In104 2.326 . S
O116 C108 1.252 . S
In117 O118 2.293 1_556 S
In117 O119 2.326 . S
In117 O123 2.265 1_556 S
In117 O124 2.326 . S
In117 O125 2.266 1_556 S
In117 O126 2.324 1_556 S
In117 O128 2.296 . S
In117 O129 2.328 . S
O118 In117 2.293 1_554 S
O118 C127 1.240 . S
O119 In117 2.326 . S
O119 C127 1.252 1_556 S
C120 O123 1.252 . S
C120 O124 1.260 1_554 S
C121 O128 1.240 . S
C121 O129 1.252 . S
C122 O125 1.252 . S
C122 O126 1.260 . S
O123 In117 2.265 1_554 S
O123 C120 1.252 . S
O124 In117 2.326 . S
O124 C120 1.260 1_556 S
O125 In117 2.266 1_554 S
O125 C122 1.252 . S
O126 In117 2.324 1_554 S
O126 C122 1.260 . S
C127 O118 1.240 . S
C127 O119 1.252 1_554 S
O128 In117 2.296 . S
O128 C121 1.240 . S
O129 In117 2.328 . S
O129 C121 1.252 . S
In130 O131 2.294 . S
In130 O132 2.326 . S
In130 O136 2.266 . S
In130 O137 2.326 . S
In130 O138 2.266 . S
In130 O139 2.326 . S
In130 O141 2.294 . S
In130 O142 2.326 . S
O131 In130 2.294 . S
O131 C140 1.240 . S
O132 In130 2.326 . S
O132 C140 1.252 . S
C133 O136 1.252 . S
C133 O137 1.260 . S
C134 O141 1.240 . S
C134 O142 1.252 . S
C135 O138 1.252 . S
C135 O139 1.260 . S
O136 In130 2.266 . S
O136 C133 1.252 . S
O137 In130 2.326 . S
O137 C133 1.260 . S
O138 In130 2.266 . S
O138 C135 1.252 . S
O139 In130 2.326 . S
O139 C135 1.260 . S
C140 O131 1.240 . S
C140 O132 1.252 . S
O141 In130 2.294 . S
O141 C134 1.240 . S
O142 In130 2.326 . S
O142 C134 1.252 . S
In143 O144 2.293 1_556 S
In143 O145 2.326 . S
In143 O149 2.265 1_556 S
In143 O150 2.326 . S
In143 O151 2.266 1_556 S
In143 O152 2.324 1_556 S
In143 O154 2.296 . S
In143 O155 2.328 . S
O144 In143 2.293 1_554 S
O144 C153 1.240 . S
O145 In143 2.326 . S
O145 C153 1.252 1_556 S
C146 O149 1.252 . S
C146 O150 1.260 1_554 S
C147 O154 1.240 . S
C147 O155 1.252 . S
C148 O151 1.252 . S
C148 O152 1.260 . S
O149 In143 2.265 1_554 S
O149 C146 1.252 . S
O150 In143 2.326 . S
O150 C146 1.260 1_556 S
O151 In143 2.266 1_554 S
O151 C148 1.252 . S
O152 In143 2.324 1_554 S
O152 C148 1.260 . S
C153 O144 1.240 . S
C153 O145 1.252 1_554 S
O154 In143 2.296 . S
O154 C147 1.240 . S
O155 In143 2.328 . S
O155 C147 1.252 . S
H156 C164 0.929 . S
H157 C166 0.930 . S
H158 C168 0.930 . S
H159 C171 0.929 . S
H160 C174 0.930 . S
H161 C176 0.960 . S
H162 C176 0.960 . S
H163 C176 0.960 . S
C164 H156 0.929 . S
C164 C165 1.377 . S
C164 C166 1.384 . S
C165 C164 1.377 . S
C165 C171 1.390 . S
C166 H157 0.930 . S
C166 C164 1.384 . S
C166 C167 1.372 . S
C167 C166 1.372 . S
C167 C168 1.400 . S
C167 C172 1.490 . S
C168 H158 0.930 . S
C168 C167 1.400 . S
C168 C171 1.386 . S
H169 C185 0.930 . S
H170 C186 0.931 . S
C171 H159 0.929 . S
C171 C165 1.390 . S
C171 C168 1.386 . S
C172 C167 1.490 . S
C172 C174 1.395 . S
C172 C175 1.403 . S
H173 C179 0.930 . S
C174 H160 0.930 . S
C174 C172 1.395 . S
C174 C177 1.403 . S
C175 C172 1.403 . S
C175 C176 1.524 . S
C175 C179 1.400 . S
C176 H161 0.960 . S
C176 H162 0.960 . S
C176 H163 0.960 . S
C176 C175 1.524 . S
C177 C174 1.403 . S
C177 C178 1.392 . S
C177 C181 1.495 . S
C178 C177 1.392 . S
C178 C179 1.385 . S
C178 C180 1.478 . S
C179 H173 0.930 . S
C179 C175 1.400 . S
C179 C178 1.385 . S
C180 C178 1.478 . S
C180 C182 1.381 . S
C180 C186 1.383 . S
C181 C177 1.495 . S
C181 H187 0.959 . S
C181 H188 0.961 . S
C181 H189 0.960 . S
C182 C180 1.381 . S
C182 C183 1.394 . S
C182 H190 0.930 . S
C183 C182 1.394 . S
C183 C184 1.383 . S
C183 H191 0.929 . S
C184 C183 1.383 . S
C184 C185 1.377 . S
C185 H169 0.930 . S
C185 C184 1.377 . S
C185 C186 1.379 . S
C186 H170 0.931 . S
C186 C180 1.383 . S
C186 C185 1.379 . S
H187 C181 0.959 . S
H188 C181 0.961 . S
H189 C181 0.960 . S
H190 C182 0.930 . S
H191 C183 0.929 . S
H192 C200 0.929 . S
H193 C202 0.930 . S
H194 C204 0.930 . S
H195 C207 0.929 . S
H196 C210 0.930 . S
H197 C212 0.960 . S
H198 C212 0.960 . S
H199 C212 0.960 . S
C200 H192 0.929 . S
C200 C201 1.377 . S
C200 C202 1.384 . S
C201 C200 1.377 . S
C201 C207 1.390 . S
C202 H193 0.930 . S
C202 C200 1.384 . S
C202 C203 1.372 . S
C203 C202 1.372 . S
C203 C204 1.400 . S
C203 C208 1.490 . S
C204 H194 0.930 . S
C204 C203 1.400 . S
C204 C207 1.386 . S
H205 C221 0.930 . S
H206 C222 0.931 . S
C207 H195 0.929 . S
C207 C201 1.390 . S
C207 C204 1.386 . S
C208 C203 1.490 . S
C208 C210 1.395 . S
C208 C211 1.403 . S
H209 C215 0.930 . S
C210 H196 0.930 . S
C210 C208 1.395 . S
C210 C213 1.403 . S
C211 C208 1.403 . S
C211 C212 1.524 . S
C211 C215 1.400 . S
C212 H197 0.960 . S
C212 H198 0.960 . S
C212 H199 0.960 . S
C212 C211 1.524 . S
C213 C210 1.403 . S
C213 C214 1.392 . S
C213 C217 1.495 . S
C214 C213 1.392 . S
C214 C215 1.385 . S
C214 C216 1.478 . S
C215 H209 0.930 . S
C215 C211 1.400 . S
C215 C214 1.385 . S
C216 C214 1.478 . S
C216 C218 1.381 . S
C216 C222 1.383 . S
C217 C213 1.495 . S
C217 H223 0.959 . S
C217 H224 0.961 . S
C217 H225 0.960 . S
C218 C216 1.381 . S
C218 C219 1.394 . S
C218 H226 0.930 . S
C219 C218 1.394 . S
C219 C220 1.383 . S
C219 H227 0.929 . S
C220 C219 1.383 . S
C220 C221 1.377 . S
C221 H205 0.930 . S
C221 C220 1.377 . S
C221 C222 1.379 . S
C222 H206 0.931 . S
C222 C216 1.383 . S
C222 C221 1.379 . S
H223 C217 0.959 . S
H224 C217 0.961 . S
H225 C217 0.960 . S
H226 C218 0.930 . S
H227 C219 0.929 . S
H228 C236 0.929 . S
H229 C238 0.930 . S
H230 C240 0.930 . S
H231 C243 0.929 . S
H232 C246 0.930 . S
H233 C248 0.960 . S
H234 C248 0.960 . S
H235 C248 0.960 . S
C236 H228 0.929 . S
C236 C237 1.377 . S
C236 C238 1.384 . S
C237 C236 1.377 . S
C237 C243 1.390 . S
C238 H229 0.930 . S
C238 C236 1.384 . S
C238 C239 1.372 . S
C239 C238 1.372 . S
C239 C240 1.400 . S
C239 C244 1.490 . S
C240 H230 0.930 . S
C240 C239 1.400 . S
C240 C243 1.386 . S
H241 C257 0.930 . S
H242 C258 0.931 . S
C243 H231 0.929 . S
C243 C237 1.390 . S
C243 C240 1.386 . S
C244 C239 1.490 . S
C244 C246 1.395 . S
C244 C247 1.403 . S
H245 C251 0.930 . S
C246 H232 0.930 . S
C246 C244 1.395 . S
C246 C249 1.403 . S
C247 C244 1.403 . S
C247 C248 1.524 . S
C247 C251 1.400 . S
C248 H233 0.960 . S
C248 H234 0.960 . S
C248 H235 0.960 . S
C248 C247 1.524 . S
C249 C246 1.403 . S
C249 C250 1.392 . S
C249 C253 1.495 . S
C250 C249 1.392 . S
C250 C251 1.385 . S
C250 C252 1.478 . S
C251 H245 0.930 . S
C251 C247 1.400 . S
C251 C250 1.385 . S
C252 C250 1.478 . S
C252 C254 1.381 . S
C252 C258 1.383 . S
C253 C249 1.495 . S
C253 H259 0.959 . S
C253 H260 0.961 . S
C253 H261 0.960 . S
C254 C252 1.381 . S
C254 C255 1.394 . S
C254 H262 0.930 . S
C255 C254 1.394 . S
C255 C256 1.383 . S
C255 H263 0.929 . S
C256 C255 1.383 . S
C256 C257 1.377 . S
C257 H241 0.930 . S
C257 C256 1.377 . S
C257 C258 1.379 . S
C258 H242 0.931 . S
C258 C252 1.383 . S
C258 C257 1.379 . S
H259 C253 0.959 . S
H260 C253 0.961 . S
H261 C253 0.960 . S
H262 C254 0.930 . S
H263 C255 0.929 . S
H264 C272 0.929 . S
H265 C274 0.930 . S
H266 C276 0.930 . S
H267 C279 0.929 . S
H268 C282 0.930 . S
H269 C284 0.960 . S
H270 C284 0.960 . S
H271 C284 0.960 . S
C272 H264 0.929 . S
C272 C273 1.377 . S
C272 C274 1.384 . S
C273 C272 1.377 . S
C273 C279 1.390 . S
C274 H265 0.930 . S
C274 C272 1.384 . S
C274 C275 1.372 . S
C275 C274 1.372 . S
C275 C276 1.400 . S
C275 C280 1.490 . S
C276 H266 0.930 . S
C276 C275 1.400 . S
C276 C279 1.386 . S
H277 C293 0.930 . S
H278 C294 0.931 . S
C279 H267 0.929 . S
C279 C273 1.390 . S
C279 C276 1.386 . S
C280 C275 1.490 . S
C280 C282 1.395 . S
C280 C283 1.403 . S
H281 C287 0.930 . S
C282 H268 0.930 . S
C282 C280 1.395 . S
C282 C285 1.403 . S
C283 C280 1.403 . S
C283 C284 1.524 . S
C283 C287 1.400 . S
C284 H269 0.960 . S
C284 H270 0.960 . S
C284 H271 0.960 . S
C284 C283 1.524 . S
C285 C282 1.403 . S
C285 C286 1.392 . S
C285 C289 1.495 . S
C286 C285 1.392 . S
C286 C287 1.385 . S
C286 C288 1.478 . S
C287 H281 0.930 . S
C287 C283 1.400 . S
C287 C286 1.385 . S
C288 C286 1.478 . S
C288 C290 1.381 . S
C288 C294 1.383 . S
C289 C285 1.495 . S
C289 H295 0.959 . S
C289 H296 0.961 . S
C289 H297 0.960 . S
C290 C288 1.381 . S
C290 C291 1.394 . S
C290 H298 0.930 . S
C291 C290 1.394 . S
C291 C292 1.383 . S
C291 H299 0.929 . S
C292 C291 1.383 . S
C292 C293 1.377 . S
C293 H277 0.930 . S
C293 C292 1.377 . S
C293 C294 1.379 . S
C294 H278 0.931 . S
C294 C288 1.383 . S
C294 C293 1.379 . S
H295 C289 0.959 . S
H296 C289 0.961 . S
H297 C289 0.960 . S
H298 C290 0.930 . S
H299 C291 0.929 . S
H300 C308 0.929 . S
H301 C310 0.930 . S
H302 C312 0.930 . S
H303 C315 0.929 . S
H304 C318 0.930 . S
H305 C320 0.960 . S
H306 C320 0.960 . S
H307 C320 0.960 . S
C308 H300 0.929 . S
C308 C309 1.377 . S
C308 C310 1.384 . S
C309 C308 1.377 . S
C309 C315 1.390 . S
C310 H301 0.930 . S
C310 C308 1.384 . S
C310 C311 1.372 . S
C311 C310 1.372 . S
C311 C312 1.400 . S
C311 C316 1.490 . S
C312 H302 0.930 . S
C312 C311 1.400 . S
C312 C315 1.386 . S
H313 C329 0.930 . S
H314 C330 0.931 . S
C315 H303 0.929 . S
C315 C309 1.390 . S
C315 C312 1.386 . S
C316 C311 1.490 . S
C316 C318 1.395 . S
C316 C319 1.403 . S
H317 C323 0.930 . S
C318 H304 0.930 . S
C318 C316 1.395 . S
C318 C321 1.403 . S
C319 C316 1.403 . S
C319 C320 1.524 . S
C319 C323 1.400 . S
C320 H305 0.960 . S
C320 H306 0.960 . S
C320 H307 0.960 . S
C320 C319 1.524 . S
C321 C318 1.403 . S
C321 C322 1.392 . S
C321 C325 1.495 . S
C322 C321 1.392 . S
C322 C323 1.385 . S
C322 C324 1.478 . S
C323 H317 0.930 . S
C323 C319 1.400 . S
C323 C322 1.385 . S
C324 C322 1.478 . S
C324 C326 1.381 . S
C324 C330 1.383 . S
C325 C321 1.495 . S
C325 H331 0.959 . S
C325 H332 0.961 . S
C325 H333 0.960 . S
C326 C324 1.381 . S
C326 C327 1.394 . S
C326 H334 0.930 . S
C327 C326 1.394 . S
C327 C328 1.383 . S
C327 H335 0.929 . S
C328 C327 1.383 . S
C328 C329 1.377 . S
C329 H313 0.930 . S
C329 C328 1.377 . S
C329 C330 1.379 . S
C330 H314 0.931 . S
C330 C324 1.383 . S
C330 C329 1.379 . S
H331 C325 0.959 . S
H332 C325 0.961 . S
H333 C325 0.960 . S
H334 C326 0.930 . S
H335 C327 0.929 . S
H336 C344 0.929 . S
H337 C346 0.930 . S
H338 C348 0.930 . S
H339 C351 0.929 . S
H340 C354 0.930 . S
H341 C356 0.960 . S
H342 C356 0.960 . S
H343 C356 0.960 . S
C344 H336 0.929 . S
C344 C345 1.377 . S
C344 C346 1.384 . S
C345 C344 1.377 . S
C345 C351 1.390 . S
C346 H337 0.930 . S
C346 C344 1.384 . S
C346 C347 1.372 . S
C347 C346 1.372 . S
C347 C348 1.400 . S
C347 C352 1.490 . S
C348 H338 0.930 . S
C348 C347 1.400 . S
C348 C351 1.386 . S
H349 C365 0.930 . S
H350 C366 0.931 . S
C351 H339 0.929 . S
C351 C345 1.390 . S
C351 C348 1.386 . S
C352 C347 1.490 . S
C352 C354 1.395 . S
C352 C355 1.403 . S
H353 C359 0.930 . S
C354 H340 0.930 . S
C354 C352 1.395 . S
C354 C357 1.403 . S
C355 C352 1.403 . S
C355 C356 1.524 . S
C355 C359 1.400 . S
C356 H341 0.960 . S
C356 H342 0.960 . S
C356 H343 0.960 . S
C356 C355 1.524 . S
C357 C354 1.403 . S
C357 C358 1.392 . S
C357 C361 1.495 . S
C358 C357 1.392 . S
C358 C359 1.385 . S
C358 C360 1.478 . S
C359 H353 0.930 . S
C359 C355 1.400 . S
C359 C358 1.385 . S
C360 C358 1.478 . S
C360 C362 1.381 . S
C360 C366 1.383 . S
C361 C357 1.495 . S
C361 H367 0.959 . S
C361 H368 0.961 . S
C361 H369 0.960 . S
C362 C360 1.381 . S
C362 C363 1.394 . S
C362 H370 0.930 . S
C363 C362 1.394 . S
C363 C364 1.383 . S
C363 H371 0.929 . S
C364 C363 1.383 . S
C364 C365 1.377 . S
C365 H349 0.930 . S
C365 C364 1.377 . S
C365 C366 1.379 . S
C366 H350 0.931 . S
C366 C360 1.383 . S
C366 C365 1.379 . S
H367 C361 0.959 . S
H368 C361 0.961 . S
H369 C361 0.960 . S
H370 C362 0.930 . S
H371 C363 0.929 . S
H372 C380 0.929 . S
H373 C382 0.930 . S
H374 C384 0.930 . S
H375 C387 0.929 . S
H376 C390 0.930 . S
H377 C392 0.960 . S
H378 C392 0.960 . S
H379 C392 0.960 . S
C380 H372 0.929 . S
C380 C381 1.377 1_554 S
C380 C382 1.384 . S
C381 C380 1.377 1_556 S
C381 C387 1.390 . S
C382 H373 0.930 . S
C382 C380 1.384 . S
C382 C383 1.372 1_554 S
C383 C382 1.372 1_556 S
C383 C384 1.400 . S
C383 C388 1.490 . S
C384 H374 0.930 . S
C384 C383 1.400 . S
C384 C387 1.386 . S
H385 C401 0.930 . S
H386 C402 0.931 . S
C387 H375 0.929 . S
C387 C381 1.390 . S
C387 C384 1.386 . S
C388 C383 1.490 . S
C388 C390 1.395 1_556 S
C388 C391 1.403 . S
H389 C395 0.930 . S
C390 H376 0.930 . S
C390 C388 1.395 1_554 S
C390 C393 1.403 1_545 S
C391 C388 1.403 . S
C391 C392 1.524 . S
C391 C395 1.400 1_545 S
C392 H377 0.960 . S
C392 H378 0.960 . S
C392 H379 0.960 . S
C392 C391 1.524 . S
C393 C390 1.403 1_565 S
C393 C394 1.392 . S
C393 C397 1.495 . S
C394 C393 1.392 . S
C394 C395 1.385 1_554 S
C394 C396 1.478 . S
C395 H389 0.930 . S
C395 C391 1.400 1_565 S
C395 C394 1.385 1_556 S
C396 C394 1.478 . S
C396 C398 1.381 . S
C396 C402 1.383 1_554 S
C397 C393 1.495 . S
C397 H403 0.959 . S
C397 H404 0.961 . S
C397 H405 0.960 . S
C398 C396 1.381 . S
C398 C399 1.394 . S
C398 H406 0.930 . S
C399 C398 1.394 . S
C399 C400 1.383 . S
C399 H407 0.929 . S
C400 C399 1.383 . S
C400 C401 1.377 1_554 S
C401 H385 0.930 . S
C401 C400 1.377 1_556 S
C401 C402 1.379 . S
C402 H386 0.931 . S
C402 C396 1.383 1_556 S
C402 C401 1.379 . S
H403 C397 0.959 . S
H404 C397 0.961 . S
H405 C397 0.960 . S
H406 C398 0.930 . S
H407 C399 0.929 . S
H408 C416 0.929 . S
H409 C418 0.930 . S
H410 C420 0.930 . S
H411 C423 0.929 . S
H412 C426 0.930 . S
H413 C428 0.960 . S
H414 C428 0.960 . S
H415 C428 0.960 . S
C416 H408 0.929 . S
C416 C417 1.377 . S
C416 C418 1.384 . S
C417 C416 1.377 . S
C417 C423 1.390 . S
C418 H409 0.930 . S
C418 C416 1.384 . S
C418 C419 1.372 . S
C419 C418 1.372 . S
C419 C420 1.400 . S
C419 C424 1.490 . S
C420 H410 0.930 . S
C420 C419 1.400 . S
C420 C423 1.386 . S
H421 C437 0.930 . S
H422 C438 0.931 . S
C423 H411 0.929 . S
C423 C417 1.390 . S
C423 C420 1.386 . S
C424 C419 1.490 . S
C424 C426 1.395 . S
C424 C427 1.403 . S
H425 C431 0.930 . S
C426 H412 0.930 . S
C426 C424 1.395 . S
C426 C429 1.403 . S
C427 C424 1.403 . S
C427 C428 1.524 . S
C427 C431 1.400 . S
C428 H413 0.960 . S
C428 H414 0.960 . S
C428 H415 0.960 . S
C428 C427 1.524 . S
C429 C426 1.403 . S
C429 C430 1.392 . S
C429 C433 1.495 . S
C430 C429 1.392 . S
C430 C431 1.385 . S
C430 C432 1.478 . S
C431 H425 0.930 . S
C431 C427 1.400 . S
C431 C430 1.385 . S
C432 C430 1.478 . S
C432 C434 1.381 . S
C432 C438 1.383 . S
C433 C429 1.495 . S
C433 H439 0.959 . S
C433 H440 0.961 . S
C433 H441 0.960 . S
C434 C432 1.381 . S
C434 C435 1.394 . S
C434 H442 0.930 . S
C435 C434 1.394 . S
C435 C436 1.383 . S
C435 H443 0.929 . S
C436 C435 1.383 . S
C436 C437 1.377 . S
C437 H421 0.930 . S
C437 C436 1.377 . S
C437 C438 1.379 . S
C438 H422 0.931 . S
C438 C432 1.383 . S
C438 C437 1.379 . S
H439 C433 0.959 . S
H440 C433 0.961 . S
H441 C433 0.960 . S
H442 C434 0.930 . S
H443 C435 0.929 . S
H444 C452 0.929 . S
H445 C454 0.930 . S
H446 C456 0.930 . S
H447 C459 0.929 . S
H448 C462 0.930 . S
H449 C464 0.960 . S
H450 C464 0.960 . S
H451 C464 0.960 1_556 S
C452 H444 0.929 . S
C452 C453 1.377 . S
C452 C454 1.384 . S
C453 C452 1.377 . S
C453 C459 1.390 1_554 S
C454 H445 0.930 . S
C454 C452 1.384 . S
C454 C455 1.372 . S
C455 C454 1.372 . S
C455 C456 1.400 1_554 S
C455 C460 1.490 . S
C456 H446 0.930 . S
C456 C455 1.400 1_556 S
C456 C459 1.386 . S
H457 C473 0.930 . S
H458 C474 0.931 . S
C459 H447 0.929 . S
C459 C453 1.390 1_556 S
C459 C456 1.386 . S
C460 C455 1.490 . S
C460 C462 1.395 . S
C460 C463 1.403 . S
H461 C467 0.931 . S
C462 H448 0.930 . S
C462 C460 1.395 . S
C462 C465 1.403 1_454 S
C463 C460 1.403 . S
C463 C464 1.524 . S
C463 C467 1.397 1_454 S
C464 H449 0.960 . S
C464 H450 0.960 . S
C464 H451 0.960 1_554 S
C464 C463 1.524 . S
C465 C462 1.403 1_656 S
C465 C466 1.392 . S
C465 C469 1.495 . S
C466 C465 1.392 . S
C466 C467 1.387 . S
C466 C468 1.478 . S
C467 H461 0.931 . S
C467 C463 1.397 1_656 S
C467 C466 1.387 . S
C468 C466 1.478 . S
C468 C470 1.381 1_556 S
C468 C474 1.383 . S
C469 C465 1.495 . S
C469 H475 0.959 . S
C469 H476 0.961 . S
C469 H477 0.960 1_556 S
C470 C468 1.381 1_554 S
C470 C471 1.394 . S
C470 H478 0.930 . S
C471 C470 1.394 . S
C471 C472 1.383 1_554 S
C471 H479 0.929 . S
C472 C471 1.383 1_556 S
C472 C473 1.377 . S
C473 H457 0.930 . S
C473 C472 1.377 . S
C473 C474 1.379 . S
C474 H458 0.931 . S
C474 C468 1.383 . S
C474 C473 1.379 . S
H475 C469 0.959 . S
H476 C469 0.961 . S
H477 C469 0.960 1_554 S
H478 C470 0.930 . S
H479 C471 0.929 . S
H480 C488 0.929 . S
H481 C490 0.930 . S
H482 C492 0.930 . S
H483 C495 0.929 . S
H484 C498 0.930 . S
H485 C500 0.960 . S
H486 C500 0.960 . S
H487 C500 0.960 . S
C488 H480 0.929 . S
C488 C489 1.377 . S
C488 C490 1.384 . S
C489 C488 1.377 . S
C489 C495 1.390 . S
C490 H481 0.930 . S
C490 C488 1.384 . S
C490 C491 1.372 . S
C491 C490 1.372 . S
C491 C492 1.400 . S
C491 C496 1.490 . S
C492 H482 0.930 . S
C492 C491 1.400 . S
C492 C495 1.386 . S
H493 C509 0.930 . S
H494 C510 0.931 . S
C495 H483 0.929 . S
C495 C489 1.390 . S
C495 C492 1.386 . S
C496 C491 1.490 . S
C496 C498 1.395 . S
C496 C499 1.403 . S
H497 C503 0.930 . S
C498 H484 0.930 . S
C498 C496 1.395 . S
C498 C501 1.403 1_545 S
C499 C496 1.403 . S
C499 C500 1.524 . S
C499 C503 1.400 1_545 S
C500 H485 0.960 . S
C500 H486 0.960 . S
C500 H487 0.960 . S
C500 C499 1.524 . S
C501 C498 1.403 1_565 S
C501 C502 1.392 . S
C501 C505 1.495 . S
C502 C501 1.392 . S
C502 C503 1.385 . S
C502 C504 1.478 . S
C503 H497 0.930 . S
C503 C499 1.400 1_565 S
C503 C502 1.385 . S
C504 C502 1.478 . S
C504 C506 1.381 . S
C504 C510 1.383 . S
C505 C501 1.495 . S
C505 H511 0.959 . S
C505 H512 0.961 . S
C505 H513 0.960 . S
C506 C504 1.381 . S
C506 C507 1.394 . S
C506 H514 0.930 . S
C507 C506 1.394 . S
C507 C508 1.383 . S
C507 H515 0.929 . S
C508 C507 1.383 . S
C508 C509 1.377 . S
C509 H493 0.930 . S
C509 C508 1.377 . S
C509 C510 1.379 . S
C510 H494 0.931 . S
C510 C504 1.383 . S
C510 C509 1.379 . S
H511 C505 0.959 . S
H512 C505 0.961 . S
H513 C505 0.960 . S
H514 C506 0.930 . S
H515 C507 0.929 . S
H516 C524 0.929 . S
H517 C526 0.930 . S
H518 C528 0.930 . S
H519 C531 0.929 . S
H520 C534 0.930 . S
H521 C536 0.960 . S
H522 C536 0.960 . S
H523 C536 0.960 . S
C524 H516 0.929 . S
C524 C525 1.377 . S
C524 C526 1.384 . S
C525 C524 1.377 . S
C525 C531 1.390 1_554 S
C526 H517 0.930 . S
C526 C524 1.384 . S
C526 C527 1.372 . S
C527 C526 1.372 . S
C527 C528 1.400 1_554 S
C527 C532 1.490 . S
C528 H518 0.930 . S
C528 C527 1.400 1_556 S
C528 C531 1.386 . S
H529 C545 0.930 . S
H530 C546 0.931 . S
C531 H519 0.929 . S
C531 C525 1.390 1_556 S
C531 C528 1.386 . S
C532 C527 1.490 . S
C532 C534 1.395 1_554 S
C532 C535 1.403 . S
H533 C539 0.930 . S
C534 H520 0.930 . S
C534 C532 1.395 1_556 S
C534 C537 1.403 . S
C535 C532 1.403 . S
C535 C536 1.524 . S
C535 C539 1.400 . S
C536 H521 0.960 . S
C536 H522 0.960 . S
C536 H523 0.960 . S
C536 C535 1.524 . S
C537 C534 1.403 . S
C537 C538 1.392 . S
C537 C541 1.495 . S
C538 C537 1.392 . S
C538 C539 1.385 1_556 S
C538 C540 1.478 . S
C539 H533 0.930 . S
C539 C535 1.400 . S
C539 C538 1.385 1_554 S
C540 C538 1.478 . S
C540 C542 1.381 1_556 S
C540 C546 1.383 . S
C541 C537 1.495 . S
C541 H547 0.959 . S
C541 H548 0.961 . S
C541 H549 0.960 . S
C542 C540 1.381 1_554 S
C542 C543 1.394 . S
C542 H550 0.930 . S
C543 C542 1.394 . S
C543 C544 1.383 1_554 S
C543 H551 0.929 . S
C544 C543 1.383 1_556 S
C544 C545 1.377 . S
C545 H529 0.930 . S
C545 C544 1.377 . S
C545 C546 1.379 . S
C546 H530 0.931 . S
C546 C540 1.383 . S
C546 C545 1.379 . S
H547 C541 0.959 . S
H548 C541 0.961 . S
H549 C541 0.960 . S
H550 C542 0.930 . S
H551 C543 0.929 . S
H552 C560 0.929 . S
H553 C562 0.930 . S
H554 C564 0.930 . S
H555 C567 0.929 . S
H556 C570 0.930 . S
H557 C572 0.960 . S
H558 C572 0.960 . S
H559 C572 0.960 . S
C560 H552 0.929 . S
C560 C561 1.377 . S
C560 C562 1.384 . S
C561 C560 1.377 . S
C561 C567 1.390 . S
C562 H553 0.930 . S
C562 C560 1.384 . S
C562 C563 1.372 . S
C563 C562 1.372 . S
C563 C564 1.400 . S
C563 C568 1.490 . S
C564 H554 0.930 . S
C564 C563 1.400 . S
C564 C567 1.386 . S
H565 C581 0.930 . S
H566 C582 0.931 . S
C567 H555 0.929 . S
C567 C561 1.390 . S
C567 C564 1.386 . S
C568 C563 1.490 . S
C568 C570 1.395 . S
C568 C571 1.403 . S
H569 C575 0.930 . S
C570 H556 0.930 . S
C570 C568 1.395 . S
C570 C573 1.403 1_655 S
C571 C568 1.403 . S
C571 C572 1.524 . S
C571 C575 1.400 1_655 S
C572 H557 0.960 . S
C572 H558 0.960 . S
C572 H559 0.960 . S
C572 C571 1.524 . S
C573 C570 1.403 1_455 S
C573 C574 1.392 . S
C573 C577 1.495 . S
C574 C573 1.392 . S
C574 C575 1.385 . S
C574 C576 1.478 . S
C575 H569 0.930 . S
C575 C571 1.400 1_455 S
C575 C574 1.385 . S
C576 C574 1.478 . S
C576 C578 1.381 . S
C576 C582 1.383 . S
C577 C573 1.495 . S
C577 H583 0.959 . S
C577 H584 0.961 . S
C577 H585 0.960 . S
C578 C576 1.381 . S
C578 C579 1.394 . S
C578 H586 0.930 . S
C579 C578 1.394 . S
C579 C580 1.383 . S
C579 H587 0.929 . S
C580 C579 1.383 . S
C580 C581 1.377 . S
C581 H565 0.930 . S
C581 C580 1.377 . S
C581 C582 1.379 . S
C582 H566 0.931 . S
C582 C576 1.383 . S
C582 C581 1.379 . S
H583 C577 0.959 . S
H584 C577 0.961 . S
H585 C577 0.960 . S
H586 C578 0.930 . S
H587 C579 0.929 . S
H588 C596 0.925 1_554 S
H589 C598 0.930 1_554 S
H590 C600 0.930 . S
H591 C603 0.929 . S
H592 C606 0.930 . S
H593 C608 0.960 . S
H594 C608 0.960 . S
H595 C608 0.960 1_556 S
C596 H588 0.925 1_556 S
C596 C597 1.381 . S
C596 C598 1.384 . S
C597 C596 1.381 . S
C597 C603 1.390 . S
C598 H589 0.930 1_556 S
C598 C596 1.384 . S
C598 C599 1.372 . S
C599 C598 1.372 . S
C599 C600 1.400 . S
C599 C604 1.490 . S
C600 H590 0.930 . S
C600 C599 1.400 . S
C600 C603 1.386 . S
H601 C617 0.930 . S
H602 C618 0.931 . S
C603 H591 0.929 . S
C603 C597 1.390 . S
C603 C600 1.386 . S
C604 C599 1.490 . S
C604 C606 1.395 . S
C604 C607 1.403 . S
H605 C611 0.930 . S
C606 H592 0.930 . S
C606 C604 1.395 . S
C606 C609 1.403 . S
C607 C604 1.403 . S
C607 C608 1.524 1_556 S
C607 C611 1.400 . S
C608 H593 0.960 . S
C608 H594 0.960 . S
C608 H595 0.960 1_554 S
C608 C607 1.524 1_554 S
C609 C606 1.403 . S
C609 C610 1.392 . S
C609 C613 1.495 . S
C610 C609 1.392 . S
C610 C611 1.385 . S
C610 C612 1.478 . S
C611 H605 0.930 . S
C611 C607 1.400 . S
C611 C610 1.385 . S
C612 C610 1.478 . S
C612 C614 1.381 . S
C612 C618 1.383 . S
C613 C609 1.495 . S
C613 H619 0.959 . S
C613 H620 0.961 . S
C613 H621 0.960 . S
C614 C612 1.381 . S
C614 C615 1.394 . S
C614 H622 0.930 . S
C615 C614 1.394 . S
C615 C616 1.383 . S
C615 H623 0.929 . S
C616 C615 1.383 . S
C616 C617 1.377 . S
C617 H601 0.930 . S
C617 C616 1.377 . S
C617 C618 1.379 . S
C618 H602 0.931 . S
C618 C612 1.383 . S
C618 C617 1.379 . S
H619 C613 0.959 . S
H620 C613 0.961 . S
H621 C613 0.960 . S
H622 C614 0.930 . S
H623 C615 0.929 . S
H624 C632 0.929 . S
H625 C634 0.930 . S
H626 C636 0.930 . S
H627 C639 0.929 . S
H628 C642 0.930 . S
H629 C644 0.960 . S
H630 C644 0.960 . S
H631 C644 0.960 . S
C632 H624 0.929 . S
C632 C633 1.377 . S
C632 C634 1.384 . S
C633 C632 1.377 . S
C633 C639 1.390 . S
C634 H625 0.930 . S
C634 C632 1.384 . S
C634 C635 1.372 . S
C635 C634 1.372 . S
C635 C636 1.400 . S
C635 C640 1.490 . S
C636 H626 0.930 . S
C636 C635 1.400 . S
C636 C639 1.386 . S
H637 C653 0.930 . S
H638 C654 0.931 . S
C639 H627 0.929 . S
C639 C633 1.390 . S
C639 C636 1.386 . S
C640 C635 1.490 . S
C640 C642 1.395 . S
C640 C643 1.403 . S
H641 C647 0.930 . S
C642 H628 0.930 . S
C642 C640 1.395 . S
C642 C645 1.403 . S
C643 C640 1.403 . S
C643 C644 1.524 . S
C643 C647 1.400 . S
C644 H629 0.960 . S
C644 H630 0.960 . S
C644 H631 0.960 . S
C644 C643 1.524 . S
C645 C642 1.403 . S
C645 C646 1.392 . S
C645 C649 1.495 . S
C646 C645 1.392 . S
C646 C647 1.385 . S
C646 C648 1.478 . S
C647 H641 0.930 . S
C647 C643 1.400 . S
C647 C646 1.385 . S
C648 C646 1.478 . S
C648 C650 1.381 . S
C648 C654 1.383 . S
C649 C645 1.495 . S
C649 H655 0.959 . S
C649 H656 0.961 . S
C649 H657 0.960 . S
C650 C648 1.381 . S
C650 C651 1.394 . S
C650 H658 0.930 . S
C651 C650 1.394 . S
C651 C652 1.383 . S
C651 H659 0.929 . S
C652 C651 1.383 . S
C652 C653 1.377 . S
C653 H637 0.930 . S
C653 C652 1.377 . S
C653 C654 1.379 . S
C654 H638 0.931 . S
C654 C648 1.383 . S
C654 C653 1.379 . S
H655 C649 0.959 . S
H656 C649 0.961 . S
H657 C649 0.960 . S
H658 C650 0.930 . S
H659 C651 0.929 . S
H660 C668 0.929 . S
H661 C670 0.930 . S
H662 C672 0.930 . S
H663 C675 0.929 . S
H664 C678 0.930 1_554 S
H665 C680 0.960 . S
H666 C680 0.960 . S
H667 C680 0.960 . S
C668 H660 0.929 . S
C668 C669 1.377 . S
C668 C670 1.384 . S
C669 C668 1.377 . S
C669 C675 1.390 . S
C670 H661 0.930 . S
C670 C668 1.384 . S
C670 C671 1.372 . S
C671 C670 1.372 . S
C671 C672 1.400 . S
C671 C676 1.490 . S
C672 H662 0.930 . S
C672 C671 1.400 . S
C672 C675 1.386 . S
H673 C689 0.930 . S
H674 C690 0.931 . S
C675 H663 0.929 . S
C675 C669 1.390 . S
C675 C672 1.386 . S
C676 C671 1.490 . S
C676 C678 1.395 . S
C676 C679 1.403 . S
H677 C683 0.930 . S
C678 H664 0.930 1_556 S
C678 C676 1.395 . S
C678 C681 1.403 . S
C679 C676 1.403 . S
C679 C680 1.524 . S
C679 C683 1.400 . S
C680 H665 0.960 . S
C680 H666 0.960 . S
C680 H667 0.960 . S
C680 C679 1.524 . S
C681 C678 1.403 . S
C681 C682 1.392 . S
C681 C685 1.495 1_556 S
C682 C681 1.392 . S
C682 C683 1.385 . S
C682 C684 1.478 . S
C683 H677 0.930 . S
C683 C679 1.400 . S
C683 C682 1.385 . S
C684 C682 1.478 . S
C684 C686 1.381 . S
C684 C690 1.383 . S
C685 C681 1.495 1_554 S
C685 H691 0.959 . S
C685 H692 0.961 . S
C685 H693 0.960 . S
C686 C684 1.381 . S
C686 C687 1.394 . S
C686 H694 0.930 . S
C687 C686 1.394 . S
C687 C688 1.383 . S
C687 H695 0.929 . S
C688 C687 1.383 . S
C688 C689 1.377 . S
C689 H673 0.930 . S
C689 C688 1.377 . S
C689 C690 1.379 . S
C690 H674 0.931 . S
C690 C684 1.383 . S
C690 C689 1.379 . S
H691 C685 0.959 . S
H692 C685 0.961 . S
H693 C685 0.960 . S
H694 C686 0.930 . S
H695 C687 0.929 . S
H696 C704 0.929 . S
H697 C706 0.930 . S
H698 C708 0.930 . S
H699 C711 0.929 . S
H700 C714 0.930 . S
H701 C716 0.960 . S
H702 C716 0.960 . S
H703 C716 0.960 . S
C704 H696 0.929 . S
C704 C705 1.377 . S
C704 C706 1.384 . S
C705 C704 1.377 . S
C705 C711 1.390 . S
C706 H697 0.930 . S
C706 C704 1.384 . S
C706 C707 1.372 . S
C707 C706 1.372 . S
C707 C708 1.400 . S
C707 C712 1.490 . S
C708 H698 0.930 . S
C708 C707 1.400 . S
C708 C711 1.386 . S
H709 C725 0.930 . S
H710 C726 0.931 . S
C711 H699 0.929 . S
C711 C705 1.390 . S
C711 C708 1.386 . S
C712 C707 1.490 . S
C712 C714 1.395 . S
C712 C715 1.403 . S
H713 C719 0.930 . S
C714 H700 0.930 . S
C714 C712 1.395 . S
C714 C717 1.403 . S
C715 C712 1.403 . S
C715 C716 1.524 . S
C715 C719 1.400 . S
C716 H701 0.960 . S
C716 H702 0.960 . S
C716 H703 0.960 . S
C716 C715 1.524 . S
C717 C714 1.403 . S
C717 C718 1.392 . S
C717 C721 1.495 . S
C718 C717 1.392 . S
C718 C719 1.385 . S
C718 C720 1.478 . S
C719 H713 0.930 . S
C719 C715 1.400 . S
C719 C718 1.385 . S
C720 C718 1.478 . S
C720 C722 1.381 . S
C720 C726 1.383 . S
C721 C717 1.495 . S
C721 H727 0.959 . S
C721 H728 0.961 . S
C721 H729 0.960 . S
C722 C720 1.381 . S
C722 C723 1.394 . S
C722 H730 0.930 . S
C723 C722 1.394 . S
C723 C724 1.383 . S
C723 H731 0.929 . S
C724 C723 1.383 . S
C724 C725 1.377 . S
C725 H709 0.930 . S
C725 C724 1.377 . S
C725 C726 1.379 . S
C726 H710 0.931 . S
C726 C720 1.383 . S
C726 C725 1.379 . S
H727 C721 0.959 . S
H728 C721 0.961 . S
H729 C721 0.960 . S
H730 C722 0.930 . S
H731 C723 0.929 . S
H732 C740 0.929 . S
H733 C742 0.930 . S
H734 C744 0.930 . S
H735 C747 0.929 . S
H736 C750 0.930 . S
H737 C752 0.960 . S
H738 C752 0.960 . S
H739 C752 0.960 . S
C740 H732 0.929 . S
C740 C741 1.377 1_554 S
C740 C742 1.384 . S
C741 C740 1.377 1_556 S
C741 C747 1.390 . S
C742 H733 0.930 . S
C742 C740 1.384 . S
C742 C743 1.372 1_554 S
C743 C742 1.372 1_556 S
C743 C744 1.400 . S
C743 C748 1.490 . S
C744 H734 0.930 . S
C744 C743 1.400 . S
C744 C747 1.386 . S
H745 C761 0.930 . S
H746 C762 0.931 . S
C747 H735 0.929 . S
C747 C741 1.390 . S
C747 C744 1.386 . S
C748 C743 1.490 . S
C748 C750 1.395 1_556 S
C748 C751 1.403 . S
H749 C755 0.930 . S
C750 H736 0.930 . S
C750 C748 1.395 1_554 S
C750 C753 1.403 . S
C751 C748 1.403 . S
C751 C752 1.524 . S
C751 C755 1.400 . S
C752 H737 0.960 . S
C752 H738 0.960 . S
C752 H739 0.960 . S
C752 C751 1.524 . S
C753 C750 1.403 . S
C753 C754 1.392 1_554 S
C753 C757 1.495 . S
C754 C753 1.392 1_556 S
C754 C755 1.385 . S
C754 C756 1.478 . S
C755 H749 0.930 . S
C755 C751 1.400 . S
C755 C754 1.385 . S
C756 C754 1.478 . S
C756 C758 1.381 . S
C756 C762 1.383 . S
C757 C753 1.495 . S
C757 H763 0.959 . S
C757 H764 0.961 . S
C757 H765 0.960 . S
C758 C756 1.381 . S
C758 C759 1.394 . S
C758 H766 0.930 1_556 S
C759 C758 1.394 . S
C759 C760 1.383 . S
C759 H767 0.929 . S
C760 C759 1.383 . S
C760 C761 1.377 . S
C761 H745 0.930 . S
C761 C760 1.377 . S
C761 C762 1.379 . S
C762 H746 0.931 . S
C762 C756 1.383 . S
C762 C761 1.379 . S
H763 C757 0.959 . S
H764 C757 0.961 . S
H765 C757 0.960 . S
H766 C758 0.930 1_554 S
H767 C759 0.929 . S
H768 C776 0.929 . S
H769 C778 0.930 . S
H770 C780 0.930 . S
H771 C783 0.929 . S
H772 C786 0.930 . S
H773 C788 0.960 . S
H774 C788 0.960 . S
H775 C788 0.960 . S
C776 H768 0.929 . S
C776 C777 1.377 . S
C776 C778 1.384 . S
C777 C776 1.377 . S
C777 C783 1.390 . S
C778 H769 0.930 . S
C778 C776 1.384 . S
C778 C779 1.372 . S
C779 C778 1.372 . S
C779 C780 1.400 . S
C779 C784 1.490 . S
C780 H770 0.930 . S
C780 C779 1.400 . S
C780 C783 1.386 . S
H781 C797 0.930 . S
H782 C798 0.931 . S
C783 H771 0.929 . S
C783 C777 1.390 . S
C783 C780 1.386 . S
C784 C779 1.490 . S
C784 C786 1.395 . S
C784 C787 1.403 . S
H785 C791 0.930 . S
C786 H772 0.930 . S
C786 C784 1.395 . S
C786 C789 1.403 . S
C787 C784 1.403 . S
C787 C788 1.524 . S
C787 C791 1.400 . S
C788 H773 0.960 . S
C788 H774 0.960 . S
C788 H775 0.960 . S
C788 C787 1.524 . S
C789 C786 1.403 . S
C789 C790 1.392 . S
C789 C793 1.495 . S
C790 C789 1.392 . S
C790 C791 1.385 . S
C790 C792 1.478 . S
C791 H785 0.930 . S
C791 C787 1.400 . S
C791 C790 1.385 . S
C792 C790 1.478 . S
C792 C794 1.381 . S
C792 C798 1.383 . S
C793 C789 1.495 . S
C793 H799 0.959 . S
C793 H800 0.961 . S
C793 H801 0.960 . S
C794 C792 1.381 . S
C794 C795 1.394 . S
C794 H802 0.930 . S
C795 C794 1.394 . S
C795 C796 1.383 . S
C795 H803 0.929 . S
C796 C795 1.383 . S
C796 C797 1.377 . S
C797 H781 0.930 . S
C797 C796 1.377 . S
C797 C798 1.379 . S
C798 H782 0.931 . S
C798 C792 1.383 . S
C798 C797 1.379 . S
H799 C793 0.959 . S
H800 C793 0.961 . S
H801 C793 0.960 . S
H802 C794 0.930 . S
H803 C795 0.929 . S
H804 C812 0.929 . S
H805 C814 0.930 . S
H806 C816 0.930 . S
H807 C819 0.929 . S
H808 C822 0.930 . S
H809 C824 0.960 . S
H810 C824 0.960 . S
H811 C824 0.960 . S
C812 H804 0.929 . S
C812 C813 1.377 . S
C812 C814 1.384 . S
C813 C812 1.377 . S
C813 C819 1.390 . S
C814 H805 0.930 . S
C814 C812 1.384 . S
C814 C815 1.372 . S
C815 C814 1.372 . S
C815 C816 1.400 . S
C815 C820 1.490 . S
C816 H806 0.930 . S
C816 C815 1.400 . S
C816 C819 1.386 . S
H817 C833 0.930 . S
H818 C834 0.931 . S
C819 H807 0.929 . S
C819 C813 1.390 . S
C819 C816 1.386 . S
C820 C815 1.490 . S
C820 C822 1.395 . S
C820 C823 1.403 . S
H821 C827 0.930 . S
C822 H808 0.930 . S
C822 C820 1.395 . S
C822 C825 1.403 . S
C823 C820 1.403 . S
C823 C824 1.524 . S
C823 C827 1.400 . S
C824 H809 0.960 . S
C824 H810 0.960 . S
C824 H811 0.960 . S
C824 C823 1.524 . S
C825 C822 1.403 . S
C825 C826 1.392 . S
C825 C829 1.495 . S
C826 C825 1.392 . S
C826 C827 1.385 . S
C826 C828 1.478 . S
C827 H821 0.930 . S
C827 C823 1.400 . S
C827 C826 1.385 . S
C828 C826 1.478 . S
C828 C830 1.381 . S
C828 C834 1.383 . S
C829 C825 1.495 . S
C829 H835 0.959 . S
C829 H836 0.961 . S
C829 H837 0.960 . S
C830 C828 1.381 . S
C830 C831 1.394 . S
C830 H838 0.930 . S
C831 C830 1.394 . S
C831 C832 1.383 . S
C831 H839 0.929 . S
C832 C831 1.383 . S
C832 C833 1.377 . S
C833 H817 0.930 . S
C833 C832 1.377 . S
C833 C834 1.379 . S
C834 H818 0.931 . S
C834 C828 1.383 . S
C834 C833 1.379 . S
H835 C829 0.959 . S
H836 C829 0.961 . S
H837 C829 0.960 . S
H838 C830 0.930 . S
H839 C831 0.929 . S
H840 C848 0.929 . S
H841 C850 0.930 . S
H842 C852 0.930 . S
H843 C855 0.929 . S
H844 C858 0.930 . S
H845 C860 0.960 . S
H846 C860 0.960 . S
H847 C860 0.960 . S
C848 H840 0.929 . S
C848 C849 1.377 1_556 S
C848 C850 1.384 . S
C849 C848 1.377 1_554 S
C849 C855 1.390 . S
C850 H841 0.930 . S
C850 C848 1.384 . S
C850 C851 1.372 1_556 S
C851 C850 1.372 1_554 S
C851 C852 1.400 . S
C851 C856 1.490 . S
C852 H842 0.930 . S
C852 C851 1.400 . S
C852 C855 1.386 . S
H853 C869 0.930 . S
H854 C870 0.931 . S
C855 H843 0.929 . S
C855 C849 1.390 . S
C855 C852 1.386 . S
C856 C851 1.490 . S
C856 C858 1.395 . S
C856 C859 1.403 . S
H857 C863 0.930 . S
C858 H844 0.930 . S
C858 C856 1.395 . S
C858 C861 1.403 . S
C859 C856 1.403 . S
C859 C860 1.524 . S
C859 C863 1.400 . S
C860 H845 0.960 . S
C860 H846 0.960 . S
C860 H847 0.960 . S
C860 C859 1.524 . S
C861 C858 1.403 . S
C861 C862 1.392 . S
C861 C865 1.495 . S
C862 C861 1.392 . S
C862 C863 1.385 . S
C862 C864 1.478 . S
C863 H857 0.930 . S
C863 C859 1.400 . S
C863 C862 1.385 . S
C864 C862 1.478 . S
C864 C866 1.381 . S
C864 C870 1.383 . S
C865 C861 1.495 . S
C865 H871 0.959 1_554 S
C865 H872 0.961 . S
C865 H873 0.960 1_554 S
C866 C864 1.381 . S
C866 C867 1.394 . S
C866 H874 0.930 1_554 S
C867 C866 1.394 . S
C867 C868 1.383 . S
C867 H875 0.929 1_554 S
C868 C867 1.383 . S
C868 C869 1.377 . S
C869 H853 0.930 . S
C869 C868 1.377 . S
C869 C870 1.379 . S
C870 H854 0.931 . S
C870 C864 1.383 . S
C870 C869 1.379 . S
H871 C865 0.959 1_556 S
H872 C865 0.961 . S
H873 C865 0.960 1_556 S
H874 C866 0.930 1_556 S
H875 C867 0.929 1_556 S
H876 C884 0.929 . S
H877 C886 0.930 . S
H878 C888 0.930 . S
H879 C891 0.929 . S
H880 C894 0.930 . S
H881 C896 0.960 . S
H882 C896 0.960 . S
H883 C896 0.960 . S
C884 H876 0.929 . S
C884 C885 1.377 . S
C884 C886 1.384 . S
C885 C884 1.377 . S
C885 C891 1.390 . S
C886 H877 0.930 . S
C886 C884 1.384 . S
C886 C887 1.372 . S
C887 C886 1.372 . S
C887 C888 1.400 . S
C887 C892 1.490 . S
C888 H878 0.930 . S
C888 C887 1.400 . S
C888 C891 1.386 . S
H889 C905 0.930 . S
H890 C906 0.931 . S
C891 H879 0.929 . S
C891 C885 1.390 . S
C891 C888 1.386 . S
C892 C887 1.490 . S
C892 C894 1.395 . S
C892 C895 1.403 . S
H893 C899 0.930 . S
C894 H880 0.930 . S
C894 C892 1.395 . S
C894 C897 1.403 . S
C895 C892 1.403 . S
C895 C896 1.524 . S
C895 C899 1.400 . S
C896 H881 0.960 . S
C896 H882 0.960 . S
C896 H883 0.960 . S
C896 C895 1.524 . S
C897 C894 1.403 . S
C897 C898 1.392 . S
C897 C901 1.495 . S
C898 C897 1.392 . S
C898 C899 1.385 . S
C898 C900 1.478 . S
C899 H893 0.930 . S
C899 C895 1.400 . S
C899 C898 1.385 . S
C900 C898 1.478 . S
C900 C902 1.381 . S
C900 C906 1.383 . S
C901 C897 1.495 . S
C901 H907 0.959 . S
C901 H908 0.961 . S
C901 H909 0.960 . S
C902 C900 1.381 . S
C902 C903 1.394 . S
C902 H910 0.930 . S
C903 C902 1.394 . S
C903 C904 1.383 . S
C903 H911 0.929 . S
C904 C903 1.383 . S
C904 C905 1.377 . S
C905 H889 0.930 . S
C905 C904 1.377 . S
C905 C906 1.379 . S
C906 H890 0.931 . S
C906 C900 1.383 . S
C906 C905 1.379 . S
H907 C901 0.959 . S
H908 C901 0.961 . S
H909 C901 0.960 . S
H910 C902 0.930 . S
H911 C903 0.929 . S
H912 C920 0.929 . S
H913 C922 0.930 . S
H914 C924 0.930 . S
H915 C927 0.929 . S
H916 C930 0.930 1_556 S
H917 C932 0.960 . S
H918 C932 0.960 . S
H919 C932 0.960 . S
C920 H912 0.929 . S
C920 C921 1.377 1_556 S
C920 C922 1.384 . S
C921 C920 1.377 1_554 S
C921 C927 1.390 . S
C922 H913 0.930 . S
C922 C920 1.384 . S
C922 C923 1.372 1_556 S
C923 C922 1.372 1_554 S
C923 C924 1.400 . S
C923 C928 1.490 . S
C924 H914 0.930 . S
C924 C923 1.400 . S
C924 C927 1.386 . S
H925 C941 0.930 . S
H926 C942 0.931 . S
C927 H915 0.929 . S
C927 C921 1.390 . S
C927 C924 1.386 . S
C928 C923 1.490 . S
C928 C930 1.395 . S
C928 C931 1.403 . S
H929 C935 0.930 . S
C930 H916 0.930 1_554 S
C930 C928 1.395 . S
C930 C933 1.403 . S
C931 C928 1.403 . S
C931 C932 1.524 . S
C931 C935 1.400 . S
C932 H917 0.960 . S
C932 H918 0.960 . S
C932 H919 0.960 . S
C932 C931 1.524 . S
C933 C930 1.403 . S
C933 C934 1.392 . S
C933 C937 1.495 1_554 S
C934 C933 1.392 . S
C934 C935 1.385 . S
C934 C936 1.478 . S
C935 H929 0.930 . S
C935 C931 1.400 . S
C935 C934 1.385 . S
C936 C934 1.478 . S
C936 C938 1.381 . S
C936 C942 1.383 . S
C937 C933 1.495 1_556 S
C937 H943 0.959 . S
C937 H944 0.961 . S
C937 H945 0.960 . S
C938 C936 1.381 . S
C938 C939 1.394 . S
C938 H946 0.930 1_554 S
C939 C938 1.394 . S
C939 C940 1.383 . S
C939 H947 0.929 1_554 S
C940 C939 1.383 . S
C940 C941 1.377 . S
C941 H925 0.930 . S
C941 C940 1.377 . S
C941 C942 1.379 . S
C942 H926 0.931 . S
C942 C936 1.383 . S
C942 C941 1.379 . S
H943 C937 0.959 . S
H944 C937 0.961 . S
H945 C937 0.960 . S
H946 C938 0.930 1_556 S
H947 C939 0.929 1_556 S
H948 C956 0.929 . S
H949 C958 0.930 . S
H950 C960 0.930 . S
H951 C963 0.929 . S
H952 C966 0.930 . S
H953 C968 0.960 . S
H954 C968 0.960 . S
H955 C968 0.960 . S
C956 H948 0.929 . S
C956 C957 1.377 . S
C956 C958 1.384 . S
C957 C956 1.377 . S
C957 C963 1.390 . S
C958 H949 0.930 . S
C958 C956 1.384 . S
C958 C959 1.372 . S
C959 C958 1.372 . S
C959 C960 1.400 . S
C959 C964 1.490 . S
C960 H950 0.930 . S
C960 C959 1.400 . S
C960 C963 1.386 . S
H961 C977 0.930 . S
H962 C978 0.931 . S
C963 H951 0.929 . S
C963 C957 1.390 . S
C963 C960 1.386 . S
C964 C959 1.490 . S
C964 C966 1.395 . S
C964 C967 1.403 . S
H965 C971 0.930 . S
C966 H952 0.930 . S
C966 C964 1.395 . S
C966 C969 1.403 . S
C967 C964 1.403 . S
C967 C968 1.524 . S
C967 C971 1.400 . S
C968 H953 0.960 . S
C968 H954 0.960 . S
C968 H955 0.960 . S
C968 C967 1.524 . S
C969 C966 1.403 . S
C969 C970 1.392 . S
C969 C973 1.495 . S
C970 C969 1.392 . S
C970 C971 1.385 . S
C970 C972 1.478 . S
C971 H965 0.930 . S
C971 C967 1.400 . S
C971 C970 1.385 . S
C972 C970 1.478 . S
C972 C974 1.381 . S
C972 C978 1.383 . S
C973 C969 1.495 . S
C973 H979 0.959 . S
C973 H980 0.961 . S
C973 H981 0.960 . S
C974 C972 1.381 . S
C974 C975 1.394 . S
C974 H982 0.930 . S
C975 C974 1.394 . S
C975 C976 1.383 . S
C975 H983 0.929 . S
C976 C975 1.383 . S
C976 C977 1.377 . S
C977 H961 0.930 . S
C977 C976 1.377 . S
C977 C978 1.379 . S
C978 H962 0.931 . S
C978 C972 1.383 . S
C978 C977 1.379 . S
H979 C973 0.959 . S
H980 C973 0.961 . S
H981 C973 0.960 . S
H982 C974 0.930 . S
H983 C975 0.929 . S
H984 C992 0.929 . S
H985 C994 0.930 . S
H986 C996 0.930 . S
H987 C999 0.929 . S
H988 C1002 0.930 . S
H989 C1004 0.960 . S
H990 C1004 0.960 . S
H991 C1004 0.960 . S
C992 H984 0.929 . S
C992 C993 1.377 . S
C992 C994 1.384 . S
C993 C992 1.377 . S
C993 C999 1.390 1_554 S
C994 H985 0.930 . S
C994 C992 1.384 . S
C994 C995 1.372 . S
C995 C994 1.372 . S
C995 C996 1.400 1_554 S
C995 C1000 1.490 . S
C996 H986 0.930 . S
C996 C995 1.400 1_556 S
C996 C999 1.386 . S
H997 C1013 0.930 1_556 S
H998 C1014 0.931 1_556 S
C999 H987 0.929 . S
C999 C993 1.390 1_556 S
C999 C996 1.386 . S
C1000 C995 1.490 . S
C1000 C1002 1.395 . S
C1000 C1003 1.403 . S
H1001 C1007 0.930 . S
C1002 H988 0.930 . S
C1002 C1000 1.395 . S
C1002 C1005 1.403 . S
C1003 C1000 1.403 . S
C1003 C1004 1.524 . S
C1003 C1007 1.400 . S
C1004 H989 0.960 . S
C1004 H990 0.960 . S
C1004 H991 0.960 . S
C1004 C1003 1.524 . S
C1005 C1002 1.403 . S
C1005 C1006 1.392 . S
C1005 C1009 1.495 . S
C1006 C1005 1.392 . S
C1006 C1007 1.385 . S
C1006 C1008 1.478 . S
C1007 H1001 0.930 . S
C1007 C1003 1.400 . S
C1007 C1006 1.385 . S
C1008 C1006 1.478 . S
C1008 C1010 1.381 . S
C1008 C1014 1.383 . S
C1009 C1005 1.495 . S
C1009 H1015 0.959 . S
C1009 H1016 0.961 . S
C1009 H1017 0.960 . S
C1010 C1008 1.381 . S
C1010 C1011 1.394 . S
C1010 H1018 0.930 . S
C1011 C1010 1.394 . S
C1011 C1012 1.383 . S
C1011 H1019 0.929 . S
C1012 C1011 1.383 . S
C1012 C1013 1.377 . S
C1013 H997 0.930 1_554 S
C1013 C1012 1.377 . S
C1013 C1014 1.379 . S
C1014 H998 0.931 1_554 S
C1014 C1008 1.383 . S
C1014 C1013 1.379 . S
H1015 C1009 0.959 . S
H1016 C1009 0.961 . S
H1017 C1009 0.960 . S
H1018 C1010 0.930 . S
H1019 C1011 0.929 . S
C165 C140 1.680 . S
C184 C10 1.671 . S
C201 C23 1.681 . S
C220 C147 1.677 . S
C237 C30 1.680 . S
C256 C82 1.682 . S
C273 C95 1.679 . S
C292 C43 1.685 . S
C309 C108 1.677 . S
C328 C62 1.674 . S
C345 C69 1.678 . S
C364 C121 1.660 . S
C381 C4 0.844 . S
C400 C101 0.858 . S
C417 C17 0.875 . S
C436 C114 0.886 . S
C453 C127 0.853 . S
C472 C36 0.867 . S
C489 C134 0.862 . S
C508 C49 0.830 . S
C525 C153 0.855 . S
C544 C56 0.874 . S
C561 C88 0.867 . S
C580 C75 0.851 . S
C597 C5 0.967 . S
C616 C55 0.929 . S
C633 C18 1.024 . S
C652 C70 0.933 . S
C669 C29 0.977 . S
C688 C3 0.924 . S
C705 C42 1.020 . S
C724 C16 1.002 . S
C741 C57 0.976 . S
C760 C31 0.885 . S
C777 C68 1.026 . S
C796 C44 0.933 . S
C813 C81 1.023 . S
C832 C109 0.936 . S
C849 C94 0.974 . S
C868 C122 0.898 . S
C885 C133 0.971 . S
C904 C107 1.033 . S
C921 C120 0.972 . S
C940 C148 0.884 . S
C957 C135 1.023 . S
C976 C83 0.945 . S
C993 C146 0.972 . S
C1012 C96 0.967 . S
