# Generated by pormake.
# Topology umz, (4)-cn, num edge types: 1
# Building blocks:
#     Node 0, Type 0, BuildingBlock: NAHDIM_clean_sbu_0, # of connection points: 4
#     Node 1, Type 0, BuildingBlock: NAHDIM_clean_sbu_0, # of connection points: 4
#     Node 2, Type 0, BuildingBlock: NAHDIM_clean_sbu_0, # of connection points: 4
#     Node 3, Type 0, BuildingBlock: NAHDIM_clean_sbu_0, # of connection points: 4
#     Node 4, Type 0, BuildingBlock: NAHDIM_clean_sbu_0, # of connection points: 4
#     Node 5, Type 0, BuildingBlock: NAHDIM_clean_sbu_0, # of connection points: 4
#     Node 6, Type 0, BuildingBlock: NAHDIM_clean_sbu_0, # of connection points: 4
#     Node 7, Type 0, BuildingBlock: NAHDIM_clean_sbu_0, # of connection points: 4
#     Node 8, Type 0, BuildingBlock: NAHDIM_clean_sbu_0, # of connection points: 4
#     Node 9, Type 0, BuildingBlock: NAHDIM_clean_sbu_0, # of connection points: 4
#     Node 10, Type 0, BuildingBlock: NAHDIM_clean_sbu_0, # of connection points: 4
#     Node 11, Type 0, BuildingBlock: NAHDIM_clean_sbu_0, # of connection points: 4
#     Node 12, Type 0, BuildingBlock: NAHDIM_clean_sbu_0, # of connection points: 4
#     Node 13, Type 0, BuildingBlock: NAHDIM_clean_sbu_0, # of connection points: 4
#     Node 14, Type 0, BuildingBlock: NAHDIM_clean_sbu_0, # of connection points: 4
#     Node 15, Type 0, BuildingBlock: NAHDIM_clean_sbu_0, # of connection points: 4
#     Edge 16, Type (0, 0), BuildingBlock: MIFKUJ_clean_linker_0, # of connection points: 2
#     Edge 17, Type (0, 0), BuildingBlock: MIFKUJ_clean_linker_0, # of connection points: 2
#     Edge 18, Type (0, 0), BuildingBlock: MIFKUJ_clean_linker_0, # of connection points: 2
#     Edge 19, Type (0, 0), BuildingBlock: MIFKUJ_clean_linker_0, # of connection points: 2
#     Edge 20, Type (0, 0), BuildingBlock: MIFKUJ_clean_linker_0, # of connection points: 2
#     Edge 21, Type (0, 0), BuildingBlock: MIFKUJ_clean_linker_0, # of connection points: 2
#     Edge 22, Type (0, 0), BuildingBlock: MIFKUJ_clean_linker_0, # of connection points: 2
#     Edge 23, Type (0, 0), BuildingBlock: MIFKUJ_clean_linker_0, # of connection points: 2
#     Edge 24, Type (0, 0), BuildingBlock: MIFKUJ_clean_linker_0, # of connection points: 2
#     Edge 25, Type (0, 0), BuildingBlock: MIFKUJ_clean_linker_0, # of connection points: 2
#     Edge 26, Type (0, 0), BuildingBlock: MIFKUJ_clean_linker_0, # of connection points: 2
#     Edge 27, Type (0, 0), BuildingBlock: MIFKUJ_clean_linker_0, # of connection points: 2
#     Edge 28, Type (0, 0), BuildingBlock: MIFKUJ_clean_linker_0, # of connection points: 2
#     Edge 29, Type (0, 0), BuildingBlock: MIFKUJ_clean_linker_0, # of connection points: 2
#     Edge 30, Type (0, 0), BuildingBlock: MIFKUJ_clean_linker_0, # of connection points: 2
#     Edge 31, Type (0, 0), BuildingBlock: MIFKUJ_clean_linker_0, # of connection points: 2
#     Edge 32, Type (0, 0), BuildingBlock: MIFKUJ_clean_linker_0, # of connection points: 2
#     Edge 33, Type (0, 0), BuildingBlock: MIFKUJ_clean_linker_0, # of connection points: 2
#     Edge 34, Type (0, 0), BuildingBlock: MIFKUJ_clean_linker_0, # of connection points: 2
#     Edge 35, Type (0, 0), BuildingBlock: MIFKUJ_clean_linker_0, # of connection points: 2
#     Edge 36, Type (0, 0), BuildingBlock: MIFKUJ_clean_linker_0, # of connection points: 2
#     Edge 37, Type (0, 0), BuildingBlock: MIFKUJ_clean_linker_0, # of connection points: 2
#     Edge 38, Type (0, 0), BuildingBlock: MIFKUJ_clean_linker_0, # of connection points: 2
#     Edge 39, Type (0, 0), BuildingBlock: MIFKUJ_clean_linker_0, # of connection points: 2
#     Edge 40, Type (0, 0), BuildingBlock: MIFKUJ_clean_linker_0, # of connection points: 2
#     Edge 41, Type (0, 0), BuildingBlock: MIFKUJ_clean_linker_0, # of connection points: 2
#     Edge 42, Type (0, 0), BuildingBlock: MIFKUJ_clean_linker_0, # of connection points: 2
#     Edge 43, Type (0, 0), BuildingBlock: MIFKUJ_clean_linker_0, # of connection points: 2
#     Edge 44, Type (0, 0), BuildingBlock: MIFKUJ_clean_linker_0, # of connection points: 2
#     Edge 45, Type (0, 0), BuildingBlock: MIFKUJ_clean_linker_0, # of connection points: 2
#     Edge 46, Type (0, 0), BuildingBlock: MIFKUJ_clean_linker_0, # of connection points: 2
#     Edge 47, Type (0, 0), BuildingBlock: MIFKUJ_clean_linker_0, # of connection points: 2
# Relax obj value: 0.222
# Max RMSD: 0.162
# Mean RMSD: 0.160
data_MOF--net-umz--node1-NAHDIM_clean_sbu_0--edge1-MIFKUJ_clean_linker_0
_symmetry_space_group_name_H-M    P1
_symmetry_Int_Tables_number       1
_symmetry_cell_setting            triclinic
loop_
_symmetry_equiv_pos_as_xyz
'x, y, z'
_cell_length_a     77.171495
_cell_length_b     77.162973
_cell_length_c     28.215712
_cell_angle_alpha  90.00418
_cell_angle_beta   89.999257
_cell_angle_gamma 89.984022
loop_
_atom_site_label
_atom_site_type_symbol
_atom_site_fract_x
_atom_site_fract_y
_atom_site_fract_z
_atom_type_partial_charge
C0 C 0.0065 0.69167 0.15152 0.0
O1 O 0.99262 0.68187 0.14895 0.0
O2 O 0.99639 0.65045 0.19873 0.0
Zn3 Zn 0.02034 0.6605 0.19009 0.0
O4 O 0.03245 0.6482 0.13693 0.0
C5 C 0.03363 0.63841 0.25628 0.0
O6 O 0.02479 0.62858 0.22691 0.0
O7 O 0.01994 0.68575 0.17196 0.0
C8 C 0.04877 0.64989 0.13311 0.0
O9 O 0.05707 0.65973 0.1636 0.0
C10 C 0.98934 0.64109 0.16708 0.0
O11 O 0.99719 0.63908 0.12614 0.0
O12 O 0.03392 0.65469 0.24903 0.0
C13 C 0.81894 0.01674 0.67276 0.0
O14 O 0.826 0.00205 0.68617 0.0
O15 O 0.86181 0.00707 0.69956 0.0
Zn16 Zn 0.85175 0.03121 0.70275 0.0
O17 O 0.86433 0.04721 0.65826 0.0
C18 C 0.8662 0.03415 0.7954 0.0
O19 O 0.87467 0.02049 0.78009 0.0
O20 O 0.82707 0.03082 0.67989 0.0
C21 C 0.87851 0.0548 0.66796 0.0
O22 O 0.88609 0.05184 0.70885 0.0
C23 C 0.87454 0.00289 0.6734 0.0
O24 O 0.88125 0.01449 0.6447 0.0
O25 O 0.85461 0.04085 0.76905 0.0
C26 C 0.4929 0.82646 0.16509 0.0
O27 O 0.50627 0.83695 0.16741 0.0
O28 O 0.49599 0.86979 0.20763 0.0
Zn29 Zn 0.47389 0.85632 0.20023 0.0
O30 O 0.45922 0.86705 0.14939 0.0
C31 C 0.46959 0.85887 0.30074 0.0
O32 O 0.48648 0.85676 0.29958 0.0
O33 O 0.47824 0.83166 0.17998 0.0
C34 C 0.45245 0.88199 0.15302 0.0
O35 O 0.45532 0.89123 0.19135 0.0
C36 C 0.50419 0.87736 0.17456 0.0
O37 O 0.49849 0.87622 0.13081 0.0
O38 O 0.46109 0.85808 0.26221 0.0
C39 C 0.6752 0.49345 0.63356 0.0
O40 O 0.66104 0.49569 0.60849 0.0
O41 O 0.63713 0.5066 0.71806 0.0
Zn42 Zn 0.64925 0.48458 0.69861 0.0
O43 O 0.63724 0.47237 0.64461 0.0
C44 C 0.63215 0.46421 0.76351 0.0
O45 O 0.61972 0.47184 0.73956 0.0
O46 O 0.6738 0.48898 0.6768 0.0
C47 C 0.62197 0.47423 0.62864 0.0
O48 O 0.6116 0.48582 0.6476 0.0
C49 C 0.63215 0.51871 0.69073 0.0
O50 O 0.63516 0.51755 0.64504 0.0
O51 O 0.64779 0.46799 0.75379 0.0
C52 C 0.01546 0.82574 0.80303 0.0
O53 O 0.00059 0.83315 0.79296 0.0
O54 O 0.00449 0.8688 0.77974 0.0
Zn55 Zn 0.02899 0.85969 0.78224 0.0
O56 O 0.0423 0.8708 0.83549 0.0
C57 C 0.04108 0.88317 0.71684 0.0
O58 O 0.03292 0.89271 0.74831 0.0
O59 O 0.0294 0.83417 0.79653 0.0
C60 C 0.05866 0.87223 0.83189 0.0
O61 O 0.06645 0.86652 0.79355 0.0
C62 C -0.00073 0.8811 0.80604 0.0
O63 O 0.00989 0.88776 0.83754 0.0
O64 O 0.04096 0.86678 0.72183 0.0
C65 C 0.68589 0.01409 0.32016 0.0
O66 O 0.67571 0.00045 0.32006 0.0
O67 O 0.64326 0.00768 0.27527 0.0
Zn68 Zn 0.65466 0.03056 0.28971 0.0
O69 O 0.64391 0.041 0.3479 0.0
C70 C 0.63254 0.0495 0.23456 0.0
O71 O 0.62253 0.04164 0.26551 0.0
O72 O 0.6801 0.02837 0.30422 0.0
C73 C 0.64671 0.05694 0.35608 0.0
O74 O 0.65675 0.0657 0.32709 0.0
C75 C 0.63517 0.99917 0.30684 0.0
O76 O 0.63521 0.00484 0.35074 0.0
O77 O 0.64878 0.04671 0.23599 0.0
C78 C 0.48612 0.68631 0.83411 0.0
O79 O 0.50007 0.67854 0.81798 0.0
O80 O 0.49171 0.64271 0.79924 0.0
Zn81 Zn 0.46868 0.65457 0.80567 0.0
O82 O 0.45436 0.64203 0.854 0.0
C83 C 0.46513 0.65206 0.70471 0.0
O84 O 0.48196 0.6546 0.70632 0.0
O85 O 0.47148 0.67895 0.82956 0.0
C86 C 0.44727 0.62747 0.8459 0.0
O87 O 0.4496 0.61998 0.80457 0.0
C88 C 0.50019 0.63637 0.83369 0.0
O89 O 0.49396 0.63771 0.87686 0.0
O90 O 0.45645 0.65281 0.74293 0.0
C91 C 0.83476 0.48054 0.37508 0.0
O92 O 0.84974 0.48271 0.39637 0.0
O93 O 0.86971 0.49569 0.2954 0.0
Zn94 Zn 0.85832 0.47242 0.30389 0.0
O95 O 0.8718 0.45796 0.35051 0.0
C96 C 0.86282 0.46587 0.20328 0.0
O97 O 0.8655 0.48266 0.20112 0.0
O98 O 0.83461 0.476 0.33175 0.0
C99 C 0.88321 0.44696 0.33814 0.0
O100 O 0.88711 0.44522 0.29307 0.0
C101 C 0.88602 0.49696 0.29039 0.0
O102 O 0.89552 0.48285 0.29133 0.0
O103 O 0.85817 0.45915 0.24239 0.0
C104 C 0.97294 0.32149 0.83234 0.0
O105 O 0.95778 0.32786 0.82031 0.0
O106 O 0.97112 0.3553 0.73689 0.0
Zn107 Zn 0.98253 0.35469 0.8012 0.0
O108 O 0.96656 0.36596 0.84853 0.0
C109 C 0.00551 0.38389 0.80606 0.0
O110 O 0.99123 0.39182 0.81908 0.0
O111 O 0.98644 0.33047 0.82458 0.0
C112 C 0.97078 0.36963 0.89085 0.0
O113 O 0.98667 0.36659 0.90538 0.0
C114 C 0.95499 0.35845 0.73335 0.0
O115 O 0.94568 0.35998 0.77208 0.0
O116 O 0.00508 0.36777 0.79679 0.0
C117 C 0.19261 0.97108 0.29713 0.0
O118 O 0.18702 0.9554 0.28731 0.0
O119 O 0.15301 0.96261 0.22704 0.0
Zn120 Zn 0.15718 0.97724 0.28536 0.0
O121 O 0.1507 0.96357 0.34306 0.0
C122 C 0.12578 0.99592 0.29272 0.0
O123 O 0.12048 0.98028 0.30398 0.0
O124 O 0.18204 0.98366 0.29441 0.0
C125 C 0.14996 0.97054 0.38375 0.0
O126 O 0.15406 0.98698 0.38842 0.0
C127 C 0.14192 0.95047 0.22999 0.0
O128 O 0.13436 0.94747 0.27087 0.0
O129 O 0.14168 0.99825 0.2827 0.0
C130 C 0.54173 0.1901 0.80578 0.0
O131 O 0.55649 0.18257 0.79499 0.0
O132 O 0.54372 0.1502 0.73325 0.0
Zn133 Zn 0.5307 0.15577 0.79293 0.0
O134 O 0.54537 0.14706 0.847 0.0
C135 C 0.50399 0.13082 0.81737 0.0
O136 O 0.51561 0.12553 0.84811 0.0
O137 O 0.52789 0.18124 0.80346 0.0
C138 C 0.54196 0.15062 0.88996 0.0
O139 O 0.5281 0.15981 0.90001 0.0
C140 C 0.54632 0.13407 0.72752 0.0
O141 O 0.54006 0.12321 0.75904 0.0
O142 O 0.50743 0.14369 0.79083 0.0
C143 C 0.32751 0.53476 0.34298 0.0
O144 O 0.3325 0.54949 0.32409 0.0
O145 O 0.35813 0.53902 0.24681 0.0
Zn146 Zn 0.36044 0.52563 0.3081 0.0
O147 O 0.37427 0.53983 0.35452 0.0
C148 C 0.38314 0.50289 0.25857 0.0
O149 O 0.3844 0.51679 0.23191 0.0
O150 O 0.33724 0.52156 0.33868 0.0
C151 C 0.38983 0.5446 0.34782 0.0
O152 O 0.39792 0.53976 0.30905 0.0
C153 C 0.36106 0.5552 0.24409 0.0
O154 O 0.36384 0.56404 0.28314 0.0
O155 O 0.37319 0.50323 0.29452 0.0
C156 C 0.96451 0.18371 0.17056 0.0
O157 O 0.94897 0.1773 0.17775 0.0
O158 O 0.96061 0.15424 0.27801 0.0
Zn159 Zn 0.9726 0.15218 0.215 0.0
O160 O 0.95717 0.13908 0.16966 0.0
C161 C 0.99234 0.1242 0.24858 0.0
O162 O 0.97668 0.11968 0.26206 0.0
O163 O 0.97758 0.17538 0.18578 0.0
C164 C 0.96279 0.12749 0.14164 0.0
O165 O 0.97936 0.1236 0.14179 0.0
C166 C 0.94441 0.15176 0.2823 0.0
O167 O 0.93495 0.14968 0.24401 0.0
O168 O 0.99435 0.1384 0.22638 0.0
C169 C 0.32677 0.96586 0.64217 0.0
O170 O 0.33493 0.95096 0.6452 0.0
O171 O 0.35328 0.96341 0.7606 0.0
Zn172 Zn 0.35564 0.97558 0.69777 0.0
O173 O 0.3706 0.961 0.65503 0.0
C174 C 0.37739 0.00037 0.74393 0.0
O175 O 0.37939 0.98728 0.77319 0.0
O176 O 0.33279 0.97885 0.66444 0.0
C177 C 0.38539 0.95502 0.66627 0.0
O178 O 0.392 0.95879 0.70791 0.0
C179 C 0.35404 0.94701 0.76406 0.0
O180 O 0.35415 0.93761 0.72525 0.0
O181 O 0.36749 0.9986 0.70821 0.0
C182 C 0.5498 0.31558 0.17185 0.0
O183 O 0.56501 0.32258 0.18032 0.0
O184 O 0.54844 0.3532 0.26575 0.0
Zn185 Zn 0.53903 0.34903 0.20045 0.0
O186 O 0.5555 0.35924 0.15279 0.0
C187 C 0.51488 0.37638 0.17868 0.0
O188 O 0.52878 0.38345 0.16005 0.0
O189 O 0.53623 0.32404 0.18255 0.0
C190 C 0.5524 0.35749 0.10884 0.0
O191 O 0.53831 0.34928 0.09544 0.0
C192 C 0.56452 0.35515 0.27375 0.0
O193 O 0.57566 0.35228 0.23944 0.0
O194 O 0.51597 0.36141 0.19725 0.0
C195 C 0.18317 0.54994 0.657 0.0
O196 O 0.1742 0.56431 0.65226 0.0
O197 O 0.14563 0.553 0.74945 0.0
Zn198 Zn 0.15073 0.53855 0.69176 0.0
O199 O 0.13892 0.55053 0.63723 0.0
C200 C 0.13874 0.50861 0.74278 0.0
O201 O 0.14411 0.51768 0.77934 0.0
O202 O 0.17602 0.5369 0.67631 0.0
C203 C 0.12759 0.54367 0.61053 0.0
O204 O 0.12319 0.5274 0.6172 0.0
C205 C 0.12946 0.55499 0.75621 0.0
O206 O 0.11858 0.54772 0.7264 0.0
O207 O 0.14069 0.51468 0.70125 0.0
H208 H 0.98023 0.7077 0.10401 0.0
H209 H 0.98278 0.73074 0.04519 0.0
H210 H 0.03758 0.73452 0.07336 0.0
H211 H 0.03513 0.71157 0.13284 0.0
H212 H 0.02308 0.76629 0.05764 0.0
H213 H 0.02402 0.71087 0.98171 0.0
H214 H 0.01349 0.68147 0.96335 0.0
H215 H 0.96629 0.70274 0.90751 0.0
H216 H 0.97644 0.73228 0.92622 0.0
H217 H 0.04348 0.81021 0.84477 0.0
H218 H 0.04301 0.7869 0.9034 0.0
H219 H 0.98776 0.78177 0.88528 0.0
H220 H 0.98808 0.80499 0.82642 0.0
H221 H 0.00398 0.75028 0.89541 0.0
H222 H 0.0039 0.80619 0.97195 0.0
H223 H 0.01528 0.83528 0.99024 0.0
H224 H 0.06192 0.81267 0.04554 0.0
H225 H 0.05106 0.78347 0.02622 0.0
C226 C 0.99278 0.71363 0.09836 0.0
C227 C 0.00752 0.70765 0.12269 0.0
C228 C 0.99423 0.72674 0.06455 0.0
C229 C 0.01044 0.73403 0.05415 0.0
C230 C 0.02497 0.72895 0.08063 0.0
C231 C 0.02353 0.71585 0.11463 0.0
C232 C 0.01235 0.74615 0.01376 0.0
C233 C 0.01913 0.76273 0.02204 0.0
C234 C 0.00703 0.74152 0.96742 0.0
C235 C 0.00093 0.72378 0.95579 0.0
C236 C 0.01134 0.70928 0.96584 0.0
C237 C 0.00545 0.69258 0.95533 0.0
C238 C 0.98921 0.69024 0.93438 0.0
C239 C 0.97885 0.70458 0.9238 0.0
C240 C 0.98468 0.7213 0.93432 0.0
C241 C 0.03127 0.8039 0.8525 0.0
C242 C 0.01577 0.80959 0.83131 0.0
C243 C 0.03102 0.79065 0.88624 0.0
C244 C 0.0153 0.78289 0.89934 0.0
C245 C 1e-05 0.7877 0.87588 0.0
C246 C 0.00022 0.80098 0.84225 0.0
C247 C 0.01456 0.77048 0.93933 0.0
C248 C 0.008 0.75382 0.93096 0.0
C249 C 0.02021 0.77503 0.98548 0.0
C250 C 0.02675 0.79263 0.997 0.0
C251 C 0.01668 0.80742 0.98743 0.0
C252 C 0.02304 0.82394 0.99798 0.0
C253 C 0.03938 0.82584 0.01872 0.0
C254 C 0.04934 0.81121 0.0291 0.0
C255 C 0.0431 0.79467 0.0183 0.0
H256 H 0.04428 0.83864 0.02695 0.0
H257 H 0.98467 0.6773 0.92627 0.0
H258 H 0.70141 0.98601 0.36097 0.0
H259 H 0.72488 0.98623 0.41899 0.0
H260 H 0.73031 0.0415 0.4016 0.0
H261 H 0.70699 0.04139 0.34297 0.0
H262 H 0.76159 0.02585 0.41371 0.0
H263 H 0.70608 0.02587 0.49043 0.0
H264 H 0.67659 0.01518 0.50705 0.0
H265 H 0.69747 0.9665 0.5538 0.0
H266 H 0.72709 0.97682 0.53676 0.0
H267 H 0.80344 0.04448 0.62974 0.0
H268 H 0.78089 0.04376 0.56906 0.0
H269 H 0.77707 0.98827 0.58397 0.0
H270 H 0.79957 0.98883 0.645 0.0
H271 H 0.74514 0.00394 0.57295 0.0
H272 H 0.80096 0.00457 0.49679 0.0
H273 H 0.83027 0.01593 0.4811 0.0
H274 H 0.80853 0.06422 0.43434 0.0
H275 H 0.77908 0.05323 0.45044 0.0
C276 C 0.70781 0.99817 0.36874 0.0
C277 C 0.70217 0.01372 0.34782 0.0
C278 C 0.72117 0.99828 0.4021 0.0
C279 C 0.72903 0.01394 0.41539 0.0
C280 C 0.72431 0.02929 0.39207 0.0
C281 C 0.71097 0.02919 0.35855 0.0
C282 C 0.74128 0.01448 0.4558 0.0
C283 C 0.75794 0.02123 0.44863 0.0
C284 C 0.73657 0.00825 0.50124 0.0
C285 C 0.71878 0.00205 0.51186 0.0
C286 C 0.70438 0.01284 0.50392 0.0
C287 C 0.68764 0.00685 0.51346 0.0
C288 C 0.68515 0.99015 0.53135 0.0
C289 C 0.69941 0.97942 0.53986 0.0
C290 C 0.71618 0.98533 0.5303 0.0
C291 C 0.79763 0.03213 0.62073 0.0
C292 C 0.80344 0.01668 0.64187 0.0
C293 C 0.78481 0.03175 0.58584 0.0
C294 C 0.77759 0.01592 0.57142 0.0
C295 C 0.78259 0.0006 0.59443 0.0
C296 C 0.79545 0.00096 0.62929 0.0
C297 C 0.76545 0.01525 0.53081 0.0
C298 C 0.7488 0.00851 0.53799 0.0
C299 C 0.77015 0.02157 0.48547 0.0
C300 C 0.78783 0.02814 0.47525 0.0
C301 C 0.80244 0.01766 0.48349 0.0
C302 C 0.81907 0.02402 0.47447 0.0
C303 C 0.82126 0.0408 0.45685 0.0
C304 C 0.80681 0.05123 0.44806 0.0
C305 C 0.79014 0.04494 0.45708 0.0
H306 H 0.83415 0.0457 0.44992 0.0
H307 H 0.67219 0.98554 0.53872 0.0
H308 H 0.467 0.80336 0.14589 0.0
H309 H 0.46817 0.77863 0.09224 0.0
H310 H 0.52273 0.78754 0.06955 0.0
H311 H 0.52161 0.81257 0.12264 0.0
H312 H 0.50643 0.78402 0.98746 0.0
H313 H 0.50849 0.75204 0.13157 0.0
H314 H 0.49973 0.74323 0.21206 0.0
H315 H 0.44993 0.72754 0.15956 0.0
H316 H 0.45829 0.73648 0.07881 0.0
H317 H 0.51547 0.70474 0.85508 0.0
H318 H 0.51838 0.72834 0.9125 0.0
H319 H 0.46336 0.72671 0.93881 0.0
H320 H 0.4603 0.70316 0.8817 0.0
H321 H 0.48253 0.72561 0.02082 0.0
H322 H 0.48043 0.75954 0.8773 0.0
H323 H 0.48972 0.7682 0.79711 0.0
H324 H 0.54064 0.77975 0.8497 0.0
H325 H 0.53171 0.77093 0.93014 0.0
C326 C 0.47933 0.79991 0.13016 0.0
C327 C 0.4942 0.81 0.1384 0.0
C328 C 0.47999 0.78571 0.09956 0.0
C329 C 0.49556 0.78118 0.07699 0.0
C330 C 0.51057 0.79083 0.08651 0.0
C331 C 0.50992 0.80509 0.11704 0.0
C332 C 0.4958 0.76716 0.04102 0.0
C333 C 0.50152 0.77114 0.99502 0.0
C334 C 0.48909 0.75046 0.05062 0.0
C335 C 0.48398 0.74507 0.09916 0.0
C336 C 0.49562 0.74684 0.13723 0.0
C337 C 0.49073 0.7418 0.1829 0.0
C338 C 0.47427 0.73487 0.19094 0.0
C339 C 0.46267 0.73293 0.15329 0.0
C340 C 0.46749 0.73796 0.10754 0.0
C341 C 0.50395 0.70957 0.87256 0.0
C342 C 0.48767 0.70202 0.86392 0.0
C343 C 0.50564 0.72306 0.90536 0.0
C344 C 0.49109 0.72922 0.92997 0.0
C345 C 0.47476 0.72207 0.92035 0.0
C346 C 0.47304 0.70867 0.88748 0.0
C347 C 0.4929 0.74259 0.96729 0.0
C348 C 0.48758 0.73846 0.0135 0.0
C349 C 0.50008 0.75909 0.95796 0.0
C350 C 0.50546 0.76439 0.90962 0.0
C351 C 0.49366 0.76378 0.87168 0.0
C352 C 0.49884 0.76875 0.8262 0.0
C353 C 0.51578 0.77447 0.81828 0.0
C354 C 0.52754 0.77528 0.85587 0.0
C355 C 0.52242 0.77031 0.90141 0.0
H356 H 0.51977 0.77832 0.78305 0.0
H357 H 0.47051 0.73096 0.22632 0.0
H358 H 0.68144 0.49953 0.54018 0.0
H359 H 0.70914 0.49855 0.49892 0.0
H360 H 0.7354 0.48867 0.63107 0.0
H361 H 0.70754 0.48952 0.67308 0.0
H362 H 0.75218 0.51357 0.56882 0.0
H363 H 0.72851 0.45579 0.56563 0.0
H364 H 0.70561 0.43413 0.55137 0.0
H365 H 0.704 0.44835 0.40431 0.0
H366 H 0.72672 0.47029 0.41786 0.0
H367 H 0.83111 0.48393 0.47059 0.0
H368 H 0.80439 0.48736 0.51561 0.0
H369 H 0.77488 0.48648 0.38569 0.0
H370 H 0.80164 0.48244 0.34037 0.0
H371 H 0.75973 0.46713 0.44882 0.0
H372 H 0.78263 0.52471 0.44933 0.0
H373 H 0.80458 0.54751 0.46141 0.0
H374 H 0.80684 0.53525 0.60972 0.0
H375 H 0.78506 0.51221 0.59841 0.0
C376 C 0.69309 0.49729 0.56073 0.0
C377 C 0.69227 0.49445 0.60993 0.0
C378 C 0.7089 0.49672 0.53699 0.0
C379 C 0.72423 0.49334 0.56192 0.0
C380 C 0.72364 0.49124 0.6113 0.0
C381 C 0.70774 0.49169 0.63517 0.0
C382 C 0.74068 0.49126 0.53571 0.0
C383 C 0.754 0.50329 0.54307 0.0
C384 C 0.74273 0.47812 0.50121 0.0
C385 C 0.72921 0.46479 0.49287 0.0
C386 C 0.72318 0.45439 0.53033 0.0
C387 C 0.71025 0.44205 0.52236 0.0
C388 C 0.70332 0.4399 0.47699 0.0
C389 C 0.70936 0.45005 0.43945 0.0
C390 C 0.72228 0.46242 0.44725 0.0
C391 C 0.81895 0.48453 0.45151 0.0
C392 C 0.81848 0.48297 0.40188 0.0
C393 C 0.80368 0.48659 0.47733 0.0
C394 C 0.78764 0.48748 0.45403 0.0
C395 C 0.78712 0.48588 0.40443 0.0
C396 C 0.80241 0.4836 0.37856 0.0
C397 C 0.77138 0.48953 0.48158 0.0
C398 C 0.75803 0.47745 0.47453 0.0
C399 C 0.76926 0.50276 0.51598 0.0
C400 C 0.78234 0.51662 0.52292 0.0
C401 C 0.78791 0.52679 0.48445 0.0
C402 C 0.8003 0.53977 0.49117 0.0
C403 C 0.80713 0.5428 0.53628 0.0
C404 C 0.80155 0.53287 0.57479 0.0
C405 C 0.78917 0.51986 0.56825 0.0
H406 H 0.81672 0.55285 0.54141 0.0
H407 H 0.6933 0.43034 0.4709 0.0
H408 H 0.94627 0.30042 0.85857 0.0
H409 H 0.94706 0.27691 0.91632 0.0
H410 H 0.00233 0.28317 0.93073 0.0
H411 H 0.00172 0.30673 0.87258 0.0
H412 H 0.9914 0.24823 0.93091 0.0
H413 H 0.97754 0.30196 0.00902 0.0
H414 H 0.96107 0.32915 0.01809 0.0
H415 H 0.91408 0.30018 0.03685 0.0
H416 H 0.93022 0.27281 0.02703 0.0
H417 H 0.99482 0.19967 0.14461 0.0
H418 H 0.99828 0.22372 0.08883 0.0
H419 H 0.94277 0.2266 0.0721 0.0
H420 H 0.93919 0.2029 0.12836 0.0
H421 H 0.9562 0.25815 0.07569 0.0
H422 H 0.96837 0.2052 0.99166 0.0
H423 H 0.98337 0.17748 0.97704 0.0
H424 H 0.03199 0.20424 0.96609 0.0
H425 H 0.01729 0.23211 0.9813 0.0
C426 C 0.95865 0.29666 0.8734 0.0
C427 C 0.97391 0.30559 0.86143 0.0
C428 C 0.95906 0.28325 0.9065 0.0
C429 C 0.9747 0.27857 0.92837 0.0
C430 C 0.99013 0.28669 0.91439 0.0
C431 C 0.98974 0.30015 0.88121 0.0
C432 C 0.97467 0.26599 0.9679 0.0
C433 C 0.98396 0.25048 0.96296 0.0
C434 C 0.9647 0.26889 0.00925 0.0
C435 C 0.95508 0.28533 0.01691 0.0
C436 C 0.96368 0.30138 0.01487 0.0
C437 C 0.9544 0.31683 0.02012 0.0
C438 C 0.93653 0.31639 0.02786 0.0
C439 C 0.92792 0.3005 0.03076 0.0
C440 C 0.93713 0.28501 0.0254 0.0
C441 C 0.98335 0.20556 0.12946 0.0
C442 C 0.96673 0.19929 0.14062 0.0
C443 C 0.98535 0.21924 0.09742 0.0
C444 C 0.97079 0.22675 0.07572 0.0
C445 C 0.95419 0.22097 0.08832 0.0
C446 C 0.95217 0.20737 0.12043 0.0
C447 C 0.97274 0.2402 0.03855 0.0
C448 C 0.96382 0.25593 0.04396 0.0
C449 C 0.98292 0.23742 0.99745 0.0
C450 C 0.99177 0.2207 0.98818 0.0
C451 C 0.98228 0.20515 0.98652 0.0
C452 C 0.99072 0.18942 0.97806 0.0
C453 C 0.00863 0.1891 0.97079 0.0
C454 C 0.01813 0.20451 0.97183 0.0
C455 C 0.00975 0.22028 0.98035 0.0
H456 H 0.01514 0.1769 0.96423 0.0
H457 H 0.92934 0.32835 0.03166 0.0
H458 H 0.31289 0.94108 0.58484 0.0
H459 H 0.29109 0.94489 0.52319 0.0
H460 H 0.28588 0.9988 0.56085 0.0
H461 H 0.30779 0.99514 0.62301 0.0
H462 H 0.25399 0.98207 0.54267 0.0
H463 H 0.30943 0.98952 0.46843 0.0
H464 H 0.33955 0.98151 0.44921 0.0
H465 H 0.32179 0.93459 0.38337 0.0
H466 H 0.29157 0.94219 0.40285 0.0
H467 H 0.20547 0.0006 0.33787 0.0
H468 H 0.23011 0.00262 0.39198 0.0
H469 H 0.24214 0.94883 0.36654 0.0
H470 H 0.21764 0.9467 0.31211 0.0
H471 H 0.27149 0.96865 0.3773 0.0
H472 H 0.21712 0.95915 0.45704 0.0
H473 H 0.18668 0.96593 0.4761 0.0
H474 H 0.2021 0.01527 0.53241 0.0
H475 H 0.23262 0.00891 0.51281 0.0
C476 C 0.30702 0.95373 0.58045 0.0
C477 C 0.31219 0.96785 0.60858 0.0
C478 C 0.2946 0.95589 0.54505 0.0
C479 C 0.28712 0.97218 0.53702 0.0
C480 C 0.29162 0.98614 0.5664 0.0
C481 C 0.30413 0.98402 0.60183 0.0
C482 C 0.27503 0.97462 0.49687 0.0
C483 C 0.25787 0.97948 0.5064 0.0
C484 C 0.28008 0.97088 0.44972 0.0
C485 C 0.29824 0.96637 0.43742 0.0
C486 C 0.31195 0.97743 0.45014 0.0
C487 C 0.32905 0.97298 0.43916 0.0
C488 C 0.33259 0.95754 0.41517 0.0
C489 C 0.31903 0.94654 0.40198 0.0
C490 C 0.30191 0.95093 0.41294 0.0
C491 C 0.2136 0.98931 0.34285 0.0
C492 C 0.20944 0.9734 0.32129 0.0
C493 C 0.22763 0.99048 0.37393 0.0
C494 C 0.23769 0.97577 0.38393 0.0
C495 C 0.23445 0.96029 0.35946 0.0
C496 C 0.22041 0.9591 0.32845 0.0
C497 C 0.25043 0.97597 0.42313 0.0
C498 C 0.26768 0.97153 0.41346 0.0
C499 C 0.24542 0.97994 0.47021 0.0
C500 C 0.22713 0.98364 0.48296 0.0
C501 C 0.21401 0.97149 0.47319 0.0
C502 C 0.19674 0.97526 0.4841 0.0
C503 C 0.19245 0.99104 0.50534 0.0
C504 C 0.20544 0.00307 0.51587 0.0
C505 C 0.22273 -0.00061 0.50486 0.0
H506 H 0.17907 0.99394 0.51373 0.0
H507 H 0.34583 0.9541 0.40672 0.0
H508 H 0.5696 0.21046 0.82679 0.0
H509 H 0.57045 0.2341 0.88424 0.0
H510 H 0.51499 0.23123 0.9003 0.0
H511 H 0.51392 0.20755 0.84274 0.0
H512 H 0.53209 0.26717 0.90614 0.0
H513 H 0.53229 0.20889 0.98146 0.0
H514 H 0.54316 0.17884 0.9793 0.0
H515 H 0.59557 0.19753 0.98194 0.0
H516 H 0.58493 0.22769 0.98524 0.0
H517 H 0.52051 0.30134 0.13367 0.0
H518 H 0.51903 0.2804 0.06892 0.0
H519 H 0.57463 0.27487 0.07211 0.0
H520 H 0.57626 0.29575 0.13712 0.0
H521 H 0.5581 0.2438 0.05414 0.0
H522 H 0.55819 0.30177 0.99539 0.0
H523 H 0.54858 0.33217 0.99102 0.0
H524 H 0.4978 0.31561 0.94838 0.0
H525 H 0.50706 0.28503 0.95318 0.0
C526 C 0.5575 0.21516 0.84141 0.0
C527 C 0.54172 0.20691 0.83086 0.0
C528 C 0.55803 0.2287 0.87415 0.0
C529 C 0.5428 0.23421 0.89671 0.0
C530 C 0.52685 0.22713 0.88308 0.0
C531 C 0.5263 0.21355 0.85035 0.0
C532 C 0.54391 0.24509 0.93961 0.0
C533 C 0.53758 0.26208 0.93868 0.0
C534 C 0.55144 0.23848 0.98152 0.0
C535 C 0.55784 0.22044 0.98387 0.0
C536 C 0.54612 0.20653 0.98219 0.0
C537 C 0.55224 0.18949 0.9807 0.0
C538 C 0.57005 0.18624 0.98053 0.0
C539 C 0.58177 0.20004 0.98243 0.0
C540 C 0.57572 0.2171 0.98449 0.0
C541 C 0.5324 0.29539 0.12139 0.0
C542 C 0.54853 0.30039 0.14013 0.0
C543 C 0.53154 0.2835 0.08421 0.0
C544 C 0.54676 0.2764 0.06516 0.0
C545 C 0.56275 0.28031 0.08616 0.0
C546 C 0.56365 0.29225 0.12329 0.0
C547 C 0.54608 0.26598 0.02118 0.0
C548 C 0.55254 0.249 0.02181 0.0
C549 C 0.53885 0.27275 0.97884 0.0
C550 C 0.53327 0.29111 0.97512 0.0
C551 C 0.54493 0.3046 0.98541 0.0
C552 C 0.53955 0.32187 0.98283 0.0
C553 C 0.52256 0.32583 0.96959 0.0
C554 C 0.51094 0.31252 0.95871 0.0
C555 C 0.51626 0.29521 0.96132 0.0
H556 H 0.51842 0.33921 0.96765 0.0
H557 H 0.57476 0.17304 0.97886 0.0
H558 H 0.31619 0.50814 0.39956 0.0
H559 H 0.29253 0.50907 0.45736 0.0
H560 H 0.28037 0.5613 0.41413 0.0
H561 H 0.30401 0.56057 0.35687 0.0
H562 H 0.28321 0.55875 0.50899 0.0
H563 H 0.25457 0.52727 0.38334 0.0
H564 H 0.25106 0.50346 0.32583 0.0
H565 H 0.25079 0.46643 0.43943 0.0
H566 H 0.25452 0.49002 0.49759 0.0
H567 H 0.20012 0.57402 0.60356 0.0
H568 H 0.22617 0.56978 0.5562 0.0
H569 H 0.23095 0.51761 0.60967 0.0
H570 H 0.20458 0.52162 0.65657 0.0
H571 H 0.23366 0.51792 0.51612 0.0
H572 H 0.25979 0.54948 0.64246 0.0
H573 H 0.26318 0.5732 0.70028 0.0
H574 H 0.26847 0.60986 0.58674 0.0
H575 H 0.26487 0.5864 0.52819 0.0
C576 C 0.30832 0.51973 0.40193 0.0
C577 C 0.31203 0.53432 0.37379 0.0
C578 C 0.29481 0.52024 0.43495 0.0
C579 C 0.28473 0.53527 0.44007 0.0
C580 C 0.28808 0.54962 0.41096 0.0
C581 C 0.30156 0.54914 0.3781 0.0
C582 C 0.27114 0.53648 0.47699 0.0
C583 C 0.27228 0.54993 0.51032 0.0
C584 C 0.25725 0.52457 0.47971 0.0
C585 C 0.25503 0.51039 0.44476 0.0
C586 C 0.25392 0.51404 0.39602 0.0
C587 C 0.25186 0.50058 0.36331 0.0
C588 C 0.25076 0.48344 0.37895 0.0
C589 C 0.25168 0.47971 0.42735 0.0
C590 C 0.25375 0.49312 0.4602 0.0
C591 C 0.20684 0.56172 0.60591 0.0
C592 C 0.20024 0.54814 0.63371 0.0
C593 C 0.2218 0.55934 0.57889 0.0
C594 C 0.23058 0.5434 0.57961 0.0
C595 C 0.22435 0.53 0.60857 0.0
C596 C 0.20933 0.53235 0.63548 0.0
C597 C 0.24552 0.54045 0.54757 0.0
C598 C 0.24468 0.52665 0.5152 0.0
C599 C 0.25973 0.55202 0.5458 0.0
C600 C 0.26194 0.56618 0.58092 0.0
C601 C 0.26155 0.56262 0.6298 0.0
C602 C 0.26353 0.57601 0.66271 0.0
C603 C 0.266 0.59303 0.64719 0.0
C604 C 0.26654 0.59668 0.59871 0.0
C605 C 0.26456 0.58333 0.56565 0.0
H606 H 0.26753 0.60338 0.67273 0.0
H607 H 0.24916 0.47304 0.35358 0.0
H608 H 0.03533 0.63042 0.06115 0.0
H609 H 0.05118 0.61441 0.00046 0.0
H610 H 0.09964 0.63183 0.05998 0.0
H611 H 0.08385 0.64821 0.12039 0.0
H612 H 0.10022 0.63369 0.96509 0.0
H613 H 0.08543 0.59083 0.08026 0.0
H614 H 0.06611 0.57464 0.13397 0.0
H615 H 0.03596 0.55734 0.01516 0.0
H616 H 0.05495 0.57363 0.96076 0.0
H617 H 0.14796 0.57213 0.82493 0.0
H618 H 0.13631 0.58832 0.89263 0.0
H619 H 0.08429 0.57643 0.84706 0.0
H620 H 0.09573 0.56019 0.78002 0.0
H621 H 0.08833 0.57112 0.94095 0.0
H622 H 0.10194 0.61602 0.827 0.0
H623 H 0.12117 0.63247 0.77364 0.0
H624 H 0.1539 0.64575 0.89124 0.0
H625 H 0.13496 0.62918 0.94522 0.0
C626 C 0.04936 0.63088 0.06135 0.0
C627 C 0.05834 0.64051 0.09573 0.0
C628 C 0.0584 0.62166 0.02674 0.0
C629 C 0.0766 0.62171 0.02621 0.0
C630 C 0.08561 0.63158 0.0599 0.0
C631 C 0.07656 0.64089 0.09443 0.0
C632 C 0.08614 0.61142 0.99037 0.0
C633 C 0.09786 0.61994 0.96031 0.0
C634 C 0.08291 0.59353 0.98388 0.0
C635 C 0.07155 0.58356 0.01646 0.0
C636 C 0.07461 0.58366 0.0656 0.0
C637 C 0.06373 0.57446 0.09617 0.0
C638 C 0.0498 0.56499 0.078 0.0
C639 C 0.04675 0.56468 0.02919 0.0
C640 C 0.05759 0.57388 0.99846 0.0
C641 C 0.13405 0.57299 0.82939 0.0
C642 C 0.12277 0.56491 0.79709 0.0
C643 C 0.12742 0.58227 0.86796 0.0
C644 C 0.10944 0.58364 0.87466 0.0
C645 C 0.09821 0.5755 0.8426 0.0
C646 C 0.10479 0.56627 0.80417 0.0
C647 C 0.1021 0.59346 0.91502 0.0
C648 C 0.09083 0.58483 0.94606 0.0
C649 C 0.1058 0.61122 0.92245 0.0
C650 C 0.11716 0.62119 0.89003 0.0
C651 C 0.11332 0.62232 0.84141 0.0
C652 C 0.12415 0.63169 0.81106 0.0
C653 C 0.13878 0.6401 0.82901 0.0
C654 C 0.14258 0.6392 0.87737 0.0
C655 C 0.1318 0.62983 0.90785 0.0
H656 H 0.14715 0.64735 0.80546 0.0
H657 H 0.04139 0.55788 0.10172 0.0
H658 H 0.96099 0.1523 0.36805 0.0
H659 H 0.95039 0.1403 0.44276 0.0
H660 H 0.90095 0.12962 0.37777 0.0
H661 H 0.9113 0.14182 0.30317 0.0
H662 H 0.89726 0.13954 0.4699 0.0
H663 H 0.9322 0.09923 0.37955 0.0
H664 H 0.95876 0.09004 0.33788 0.0
H665 H 0.98786 0.09502 0.46687 0.0
H666 H 0.96151 0.10455 0.50912 0.0
H667 H 0.86459 0.06565 0.58423 0.0
H668 H 0.87686 0.08615 0.52772 0.0
H669 H 0.92185 0.09241 0.61677 0.0
H670 H 0.90963 0.07182 0.67392 0.0
H671 H 0.92997 0.08744 0.52149 0.0
H672 H 0.89348 0.12409 0.61398 0.0
H673 H 0.86652 0.13285 0.65424 0.0
H674 H 0.83991 0.13412 0.52062 0.0
H675 H 0.86667 0.12511 0.4796 0.0
C676 C 0.94773 0.14776 0.3699 0.0
C677 C 0.93707 0.14775 0.32944 0.0
C678 C 0.94172 0.14086 0.41261 0.0
C679 C 0.92502 0.13375 0.41544 0.0
C680 C 0.91392 0.13496 0.37622 0.0
C681 C 0.91988 0.14191 0.33355 0.0
C682 C 0.91965 0.12353 0.45736 0.0
C683 C 0.90437 0.12813 0.48116 0.0
C684 C 0.92916 0.10883 0.47255 0.0
C685 C 0.94493 0.1028 0.44736 0.0
C686 C 0.94429 0.09848 0.39895 0.0
C687 C 0.9593 0.09321 0.37523 0.0
C688 C 0.975 0.092 0.39968 0.0
C689 C 0.9757 0.096 0.44795 0.0
C690 C 0.96073 0.10135 0.4718 0.0
C691 C 0.87709 0.07137 0.59196 0.0
C692 C 0.88613 0.06711 0.63363 0.0
C693 C 0.88404 0.08316 0.55969 0.0
C694 C 0.90015 0.09093 0.56839 0.0
C695 C 0.90935 0.08658 0.6096 0.0
C696 C 0.90234 0.07484 0.64216 0.0
C697 C 0.90743 0.10329 0.53356 0.0
C698 C 0.92303 0.09904 0.51092 0.0
C699 C 0.89817 0.11824 0.51928 0.0
C700 C 0.88207 0.12381 0.54375 0.0
C701 C 0.88186 0.12612 0.5932 0.0
C702 C 0.86661 0.13115 0.61616 0.0
C703 C 0.85151 0.13402 0.59001 0.0
C704 C 0.85163 0.1319 0.54083 0.0
C705 C 0.86684 0.12685 0.5177 0.0
H706 H 0.83971 0.1379 0.60785 0.0
H707 H 0.98661 0.08791 0.38128 0.0
H708 H 0.43599 0.91342 0.14825 0.0
H709 H 0.41688 0.92395 0.08532 0.0
H710 H 0.42382 0.87595 0.00919 0.0
H711 H 0.44312 0.86547 0.07135 0.0
H712 H 0.42644 0.9029 0.95085 0.0
H713 H 0.38657 0.88433 0.07148 0.0
H714 H 0.37411 0.88334 0.15191 0.0
H715 H 0.36327 0.93787 0.14523 0.0
H716 H 0.37588 0.93923 0.06496 0.0
H717 H 0.36121 0.91296 0.78199 0.0
H718 H 0.37491 0.90112 0.85297 0.0
H719 H 0.37173 0.95114 0.9206 0.0
H720 H 0.35791 0.96311 0.84987 0.0
H721 H 0.36661 0.92328 0.98378 0.0
H722 H 0.40702 0.94191 0.86417 0.0
H723 H 0.4186 0.94282 0.78275 0.0
H724 H 0.4283 0.88805 0.78768 0.0
H725 H 0.41645 0.88676 0.86886 0.0
C726 C 0.43346 0.90512 0.1181 0.0
C727 C 0.44105 0.88859 0.11489 0.0
C728 C 0.42246 0.91111 0.08228 0.0
C729 C 0.41875 0.90064 0.04283 0.0
C730 C 0.42648 0.88424 0.03933 0.0
C731 C 0.43749 0.87826 0.07499 0.0
C732 C 0.40703 0.90682 0.00475 0.0
C733 C 0.41329 0.90713 0.95804 0.0
C734 C 0.38998 0.91271 0.01422 0.0
C735 C 0.38233 0.91191 0.0624 0.0
C736 C 0.38165 0.89613 0.0873 0.0
C737 C 0.37454 0.8955 0.13284 0.0
C738 C 0.36794 0.91054 0.15372 0.0
C739 C 0.3684 0.92624 0.12904 0.0
C740 C 0.37552 0.92694 0.08351 0.0
C741 C 0.36302 0.92136 0.81233 0.0
C742 C 0.35873 0.93905 0.80998 0.0
C743 C 0.37089 0.91457 0.85283 0.0
C744 C 0.37461 0.92536 0.89156 0.0
C745 C 0.36902 0.94264 0.89093 0.0
C746 C 0.36117 0.94946 0.8504 0.0
C747 C 0.38601 0.91915 0.93017 0.0
C748 C 0.37974 0.91896 0.97679 0.0
C749 C 0.40307 0.91338 0.92072 0.0
C750 C 0.41069 0.91421 0.87243 0.0
C751 C 0.41153 0.93004 0.8478 0.0
C752 C 0.41814 0.93063 0.80169 0.0
C753 C 0.42414 0.9155 0.78 0.0
C754 C 0.42362 0.89976 0.80449 0.0
C755 C 0.41696 0.89909 0.85056 0.0
H756 H 0.42923 0.91597 0.74427 0.0
H757 H 0.36244 0.91003 0.18897 0.0
H758 H 0.54425 0.37139 0.33945 0.0
H759 H 0.55389 0.39031 0.40358 0.0
H760 H 0.60712 0.37806 0.37155 0.0
H761 H 0.59763 0.35923 0.30658 0.0
H762 H 0.59857 0.38032 0.47239 0.0
H763 H 0.59351 0.41187 0.32645 0.0
H764 H 0.57885 0.42205 0.25402 0.0
H765 H 0.53966 0.44673 0.33842 0.0
H766 H 0.55381 0.43625 0.41137 0.0
H767 H 0.64108 0.45131 0.57702 0.0
H768 H 0.63068 0.43013 0.51966 0.0
H769 H 0.57838 0.44861 0.53881 0.0
H770 H 0.58874 0.47015 0.59601 0.0
H771 H 0.58579 0.44266 0.44613 0.0
H772 H 0.59169 0.41179 0.59286 0.0
H773 H 0.60721 0.4023 0.66471 0.0
H774 H 0.6455 0.37695 0.57876 0.0
H775 H 0.63037 0.38654 0.50634 0.0
C776 C 0.55801 0.3724 0.34656 0.0
C777 C 0.57021 0.36393 0.31762 0.0
C778 C 0.56347 0.38327 0.38314 0.0
C779 C 0.58119 0.38569 0.39178 0.0
C780 C 0.59338 0.37634 0.36523 0.0
C781 C 0.58794 0.36564 0.32812 0.0
C782 C 0.58695 0.39907 0.42574 0.0
C783 C 0.59593 0.39396 0.46657 0.0
C784 C 0.5832 0.41681 0.41825 0.0
C785 C 0.57458 0.42304 0.37439 0.0
C786 C 0.58162 0.41924 0.32957 0.0
C787 C 0.57341 0.42509 0.2884 0.0
C788 C 0.55826 0.43492 0.29158 0.0
C789 C 0.55132 0.43899 0.33596 0.0
C790 C 0.55942 0.43309 0.37725 0.0
C791 C 0.62736 0.45096 0.56896 0.0
C792 C 0.6157 0.46232 0.5914 0.0
C793 C 0.62144 0.43878 0.53628 0.0
C794 C 0.60372 0.43757 0.52573 0.0
C795 C 0.5921 0.44927 0.54675 0.0
C796 C 0.59804 0.46156 0.5794 0.0
C797 C 0.5974 0.42396 0.49304 0.0
C798 C 0.58832 0.42901 0.45228 0.0
C799 C 0.60109 0.40618 0.50062 0.0
C800 C 0.60997 0.40001 0.54415 0.0
C801 C 0.60347 0.40427 0.58927 0.0
C802 C 0.61219 0.39887 0.63011 0.0
C803 C 0.62736 0.38907 0.62629 0.0
C804 C 0.63377 0.38456 0.58165 0.0
C805 C 0.62511 0.38996 0.54069 0.0
H806 H 0.63414 0.38495 0.65792 0.0
H807 H 0.55196 0.43945 0.25965 0.0
H808 H 0.15573 0.95159 0.14038 0.0
H809 H 0.14477 0.93692 0.06944 0.0
H810 H 0.10417 0.9134 0.15267 0.0
H811 H 0.1153 0.92748 0.22354 0.0
H812 H 0.11591 0.89083 0.09197 0.0
H813 H 0.09753 0.95053 0.08463 0.0
H814 H 0.10163 0.98223 0.08356 0.0
H815 H 0.13295 0.97788 0.95832 0.0
H816 H 0.12921 0.94611 0.95903 0.0
H817 H 0.04905 0.87649 0.92417 0.0
H818 H 0.06641 0.88871 0.98865 0.0
H819 H 0.10854 0.8979 0.89144 0.0
H820 H 0.09138 0.88543 0.82679 0.0
H821 H 0.09908 0.92686 0.9537 0.0
H822 H 0.11476 0.86667 0.95905 0.0
H823 H 0.10887 0.83528 0.96039 0.0
H824 H 0.08038 0.84107 0.09014 0.0
H825 H 0.08598 0.87257 0.08935 0.0
C826 C 0.14457 0.94316 0.14356 0.0
C827 C 0.13631 0.9408 0.18748 0.0
C828 C 0.13828 0.93484 0.103 0.0
C829 C 0.12348 0.92428 0.10562 0.0
C830 C 0.1156 0.92148 0.14975 0.0
C831 C 0.12197 0.92961 0.19026 0.0
C832 C 0.11566 0.91661 0.06245 0.0
C833 C 0.11217 0.89875 0.06189 0.0
C834 C 0.11103 0.92686 0.02274 0.0
C835 C 0.11327 0.94594 0.02222 0.0
C836 C 0.1054 0.95633 0.05708 0.0
C837 C 0.10764 0.97431 0.05651 0.0
C838 C 0.11759 0.98206 0.02098 0.0
C839 C 0.12528 0.97185 0.98588 0.0
C840 C 0.1231 0.95386 0.98633 0.0
C841 C 0.06199 0.88115 0.9165 0.0
C842 C 0.0689 0.87998 0.87055 0.0
C843 C 0.07189 0.88805 0.95333 0.0
C844 C 0.08874 0.89409 0.94464 0.0
C845 C 0.09556 0.89326 0.89867 0.0
C846 C 0.08577 0.88609 0.86194 0.0
C847 C 0.09917 0.90124 0.98385 0.0
C848 C 0.10308 0.91897 0.98361 0.0
C849 C 0.10398 0.89093 0.02304 0.0
C850 C 0.1007 0.87199 0.02397 0.0
C851 C 0.10715 0.86127 0.98771 0.0
C852 C 0.10389 0.84346 0.98841 0.0
C853 C 0.09426 0.83619 0.02532 0.0
C854 C 0.08787 0.84673 0.06162 0.0
C855 C 0.09111 0.86456 0.06111 0.0
H856 H 0.09182 0.82239 0.02583 0.0
H857 H 0.11931 0.99598 0.02059 0.0
H858 H 0.55263 0.10038 0.70489 0.0
H859 H 0.57107 0.08923 0.64184 0.0
H860 H 0.58262 0.14143 0.59721 0.0
H861 H 0.56389 0.1528 0.6602 0.0
H862 H 0.57639 0.12029 0.52215 0.0
H863 H 0.61214 0.11903 0.65984 0.0
H864 H 0.61983 0.11254 0.74276 0.0
H865 H 0.6146 0.05805 0.71534 0.0
H866 H 0.60661 0.06423 0.63239 0.0
H867 H 0.6459 0.09165 0.37494 0.0
H868 H 0.63016 0.10634 0.43855 0.0
H869 H 0.61203 0.05701 0.49059 0.0
H870 H 0.62772 0.04219 0.42712 0.0
H871 H 0.62356 0.07906 0.56218 0.0
H872 H 0.58591 0.08091 0.42557 0.0
H873 H 0.57866 0.08767 0.34248 0.0
H874 H 0.58822 0.14167 0.36826 0.0
H875 H 0.59581 0.13519 0.45137 0.0
C876 C 0.55904 0.10954 0.68167 0.0
C877 C 0.55689 0.12749 0.68774 0.0
C878 C 0.56964 0.10312 0.64575 0.0
C879 C 0.57845 0.11451 0.61542 0.0
C880 C 0.576 0.13244 0.62047 0.0
C881 C 0.56532 0.1389 0.65646 0.0
C882 C 0.5902 0.10752 0.57859 0.0
C883 C 0.58691 0.11153 0.53094 0.0
C884 C 0.60377 0.0959 0.59011 0.0
C885 C 0.60864 0.09211 0.63996 0.0
C886 C 0.6125 0.10567 0.67157 0.0
C887 C 0.61693 0.10204 0.71857 0.0
C888 C 0.61767 0.0849 0.73434 0.0
C889 C 0.61401 0.07133 0.70309 0.0
C890 C 0.60955 0.07489 0.65606 0.0
C891 C 0.63866 0.08391 0.40008 0.0
C892 C 0.63798 0.06576 0.3959 0.0
C893 C 0.62964 0.09233 0.43628 0.0
C894 C 0.61984 0.08275 0.46891 0.0
C895 C 0.61952 0.06462 0.46565 0.0
C896 C 0.62844 0.05618 0.42929 0.0
C897 C 0.60955 0.09161 0.50587 0.0
C898 C 0.61315 0.08796 0.55352 0.0
C899 C 0.59634 0.10361 0.49435 0.0
C900 C 0.59161 0.10754 0.44454 0.0
C901 C 0.5866 0.09421 0.41342 0.0
C902 C 0.58241 0.09799 0.36634 0.0
C903 C 0.58303 0.11508 0.35006 0.0
C904 C 0.58778 0.12843 0.38089 0.0
C905 C 0.59202 0.12472 0.42799 0.0
H906 H 0.57978 0.11798 0.3136 0.0
H907 H 0.62111 0.08212 0.77074 0.0
H908 H 0.35838 0.5402 0.15642 0.0
H909 H 0.36871 0.55203 0.08118 0.0
H910 H 0.38239 0.59981 0.15122 0.0
H911 H 0.37178 0.58826 0.22625 0.0
H912 H 0.36991 0.606 0.06414 0.0
H913 H 0.41187 0.56729 0.13528 0.0
H914 H 0.42209 0.53941 0.16769 0.0
H915 H 0.41182 0.5146 0.03439 0.0
H916 H 0.40124 0.54229 0.00144 0.0
H917 H 0.43939 0.64019 0.93352 0.0
H918 H 0.42083 0.62715 0.99361 0.0
H919 H 0.41122 0.58357 0.90154 0.0
H920 H 0.42999 0.59648 0.84104 0.0
H921 H 0.41863 0.57346 0.99151 0.0
H922 H 0.37998 0.61356 0.91784 0.0
H923 H 0.37058 0.64183 0.88626 0.0
H924 H 0.37534 0.66443 0.02471 0.0
H925 H 0.385 0.63635 0.05703 0.0
C926 C 0.36327 0.55336 0.15565 0.0
C927 C 0.36447 0.56322 0.19745 0.0
C928 C 0.36923 0.56006 0.11265 0.0
C929 C 0.37665 0.57665 0.11086 0.0
C930 C 0.37679 0.58694 0.15187 0.0
C931 C 0.37075 0.58029 0.19479 0.0
C932 C 0.38549 0.58289 0.06749 0.0
C933 C 0.3806 0.59893 0.04832 0.0
C934 C 0.3992 0.57344 0.04625 0.0
C935 C 0.40558 0.55681 0.06607 0.0
C936 C 0.41165 0.55586 0.11301 0.0
C937 C 0.41752 0.54009 0.13146 0.0
C938 C 0.41758 0.52524 0.10313 0.0
C939 C 0.41175 0.52612 0.05631 0.0
C940 C 0.40581 0.54183 0.03773 0.0
C941 C 0.43333 0.62784 0.92589 0.0
C942 C 0.43613 0.61939 0.8824 0.0
C943 C 0.42263 0.62046 0.96022 0.0
C944 C 0.41443 0.60453 0.95172 0.0
C945 C 0.41735 0.59593 0.90863 0.0
C946 C 0.42807 0.60333 0.87414 0.0
C947 C 0.40325 0.59673 0.98868 0.0
C948 C 0.40774 0.5804 0.00672 0.0
C949 C 0.38924 0.60595 0.00903 0.0
C950 C 0.38333 0.62286 0.98979 0.0
C951 C 0.37914 0.62458 0.9415 0.0
C952 C 0.37374 0.64057 0.92348 0.0
C953 C 0.37239 0.65493 0.95344 0.0
C954 C 0.37639 0.65331 0.00154 0.0
C955 C 0.38181 0.63735 0.01974 0.0
H956 H 0.36822 0.6673 0.93942 0.0
H957 H 0.4222 0.51307 0.11738 0.0
H958 H 0.9697 0.35514 0.64533 0.0
H959 H 0.95807 0.36576 0.57002 0.0
H960 H 0.91171 0.38288 0.64163 0.0
H961 H 0.92292 0.37181 0.71634 0.0
H962 H 0.90345 0.37071 0.55858 0.0
H963 H 0.94682 0.41045 0.61817 0.0
H964 H 0.976 0.41881 0.64556 0.0
H965 H 0.9975 0.40355 0.51151 0.0
H966 H 0.96845 0.39489 0.48355 0.0
H967 H 0.87397 0.44324 0.43086 0.0
H968 H 0.88697 0.4241 0.48987 0.0
H969 H 0.92399 0.40617 0.38639 0.0
H970 H 0.91097 0.42527 0.32672 0.0
H971 H 0.93857 0.41518 0.47543 0.0
H972 H 0.89291 0.37988 0.41337 0.0
H973 H 0.86299 0.37341 0.38843 0.0
H974 H 0.84494 0.38232 0.5303 0.0
H975 H 0.87473 0.38909 0.55597 0.0
C976 C 0.95692 0.36093 0.64484 0.0
C977 C 0.94731 0.36281 0.68688 0.0
C978 C 0.95032 0.36706 0.60183 0.0
C979 C 0.93417 0.37544 0.60036 0.0
C980 C 0.92422 0.37651 0.64187 0.0
C981 C 0.93069 0.3702 0.68466 0.0
C982 C 0.92794 0.38409 0.55659 0.0
C983 C 0.91112 0.38046 0.5405 0.0
C984 C 0.93808 0.39657 0.53231 0.0
C985 C 0.95552 0.40183 0.54901 0.0
C986 C 0.9578 0.40876 0.59468 0.0
C987 C 0.9743 0.41357 0.61028 0.0
C988 C 0.9886 0.41166 0.58035 0.0
C989 C 0.98641 0.40499 0.53469 0.0
C990 C 0.96994 0.40013 0.51895 0.0
C991 C 0.88489 0.43526 0.42057 0.0
C992 C 0.89143 0.43574 0.37409 0.0
C993 C 0.89223 0.42427 0.45427 0.0
C994 C 0.90629 0.41361 0.44223 0.0
C995 C 0.91308 0.41426 0.39617 0.0
C996 C 0.90562 0.42514 0.36221 0.0
C997 C 0.91398 0.40207 0.47838 0.0
C998 C 0.93105 0.40518 0.49299 0.0
C999 C 0.90398 0.38931 0.50173 0.0
C1000 C 0.88606 0.3851 0.48652 0.0
C1001 C 0.88255 0.38058 0.43918 0.0
C1002 C 0.86561 0.37684 0.42493 0.0
C1003 C 0.85206 0.37748 0.45774 0.0
C1004 C 0.85544 0.38183 0.50492 0.0
C1005 C 0.87236 0.38559 0.51936 0.0
H1006 H 0.83896 0.37459 0.44663 0.0
H1007 H 0.00137 0.41539 0.59249 0.0
H1008 H 0.97685 0.38873 0.97066 0.0
H1009 H 0.95541 0.40292 0.0213 0.0
H1010 H 0.91422 0.3821 0.93478 0.0
H1011 H 0.93564 0.36859 0.88285 0.0
H1012 H 0.9072 0.41362 0.9525 0.0
H1013 H 0.92485 0.3658 0.04978 0.0
H1014 H 0.94542 0.34677 0.092 0.0
H1015 H 0.96311 0.38989 0.1749 0.0
H1016 H 0.9428 0.40924 0.13301 0.0
H1017 H 0.86091 0.43051 0.19829 0.0
H1018 H 0.87531 0.41166 0.14097 0.0
H1019 H 0.89331 0.45653 0.06418 0.0
H1020 H 0.87868 0.47545 0.12069 0.0
H1021 H 0.9088 0.40963 0.12785 0.0
H1022 H 0.9006 0.44673 0.94954 0.0
H1023 H 0.87834 0.46393 0.90799 0.0
H1024 H 0.83834 0.43833 0.98722 0.0
H1025 H 0.86032 0.4208 0.02877 0.0
C1026 C 0.96321 0.38712 0.96264 0.0
C1027 C 0.95791 0.37758 0.92284 0.0
C1028 C 0.95095 0.39515 0.99175 0.0
C1029 C 0.93314 0.39338 0.98234 0.0
C1030 C 0.92786 0.38369 0.94279 0.0
C1031 C 0.94012 0.37595 0.91318 0.0
C1032 C 0.92005 0.40213 0.01266 0.0
C1033 C 0.90751 0.41267 0.99084 0.0
C1034 C 0.92018 0.40065 0.06269 0.0
C1035 C 0.93237 0.389 0.08801 0.0
C1036 C 0.9332 0.37125 0.07681 0.0
C1037 C 0.9448 0.3604 0.10069 0.0
C1038 C 0.95559 0.36712 0.13595 0.0
C1039 C 0.95476 0.38471 0.14755 0.0
C1040 C 0.94319 0.39561 0.12382 0.0
C1041 C 0.86759 0.43638 0.16857 0.0
C1042 C 0.86873 0.4545 0.16423 0.0
C1043 C 0.87588 0.42557 0.13597 0.0
C1044 C 0.88541 0.43266 0.09832 0.0
C1045 C 0.88585 0.45073 0.09257 0.0
C1046 C 0.8775 0.46155 0.12505 0.0
C1047 C 0.89619 0.42133 0.06769 0.0
C1048 C 0.90836 0.41039 0.08947 0.0
C1049 C 0.89547 0.42215 0.01766 0.0
C1050 C 0.88214 0.43255 0.99256 0.0
C1051 C 0.88705 0.44471 0.95796 0.0
C1052 C 0.87448 0.45453 0.93443 0.0
C1053 C 0.85695 0.45226 0.94506 0.0
C1054 C 0.85193 0.44012 0.97915 0.0
C1055 C 0.86444 0.43026 0.00276 0.0
H1056 H 0.84724 0.45987 0.92681 0.0
H1057 H 0.96456 0.3587 0.15436 0.0
H1058 H 0.06024 0.8679 0.64623 0.0
H1059 H 0.07959 0.88238 0.58993 0.0
H1060 H 0.06583 0.93199 0.64969 0.0
H1061 H 0.04619 0.91776 0.70478 0.0
H1062 H 0.06784 0.93484 0.558 0.0
H1063 H 0.10369 0.91104 0.67986 0.0
H1064 H 0.11528 0.88821 0.73213 0.0
H1065 H 0.13386 0.86014 0.61092 0.0
H1066 H 0.12212 0.88269 0.55784 0.0
H1067 H 0.13803 0.98345 0.46788 0.0
H1068 H 0.12099 0.96795 0.52754 0.0
H1069 H 0.12716 0.92041 0.44893 0.0
H1070 H 0.14408 0.93577 0.38898 0.0
H1071 H 0.1295 0.91671 0.55035 0.0
H1072 H 0.0929 0.94241 0.42936 0.0
H1073 H 0.08269 0.96708 0.38131 0.0
H1074 H 0.0665 0.99361 0.50753 0.0
H1075 H 0.07699 0.96926 0.55644 0.0
C1076 C 0.06122 0.8819 0.64698 0.0
C1077 C 0.05176 0.89167 0.68013 0.0
C1078 C 0.07235 0.89015 0.61502 0.0
C1079 C 0.07438 0.90825 0.61615 0.0
C1080 C 0.06451 0.91802 0.64819 0.0
C1081 C 0.05331 0.90983 0.67978 0.0
C1082 C 0.08706 0.91708 0.58491 0.0
C1083 C 0.08134 0.93096 0.55675 0.0
C1084 C 0.10469 0.912 0.58305 0.0
C1085 C 0.11186 0.89846 0.61485 0.0
C1086 C 0.11013 0.89993 0.66433 0.0
C1087 C 0.11674 0.88705 0.69411 0.0
C1088 C 0.12526 0.87271 0.67485 0.0
C1089 C 0.12723 0.87124 0.62578 0.0
C1090 C 0.1206 0.88407 0.59583 0.0
C1091 C 0.13604 0.96964 0.46375 0.0
C1092 C 0.14217 0.96086 0.42345 0.0
C1093 C 0.1263 0.96082 0.49779 0.0
C1094 C 0.12268 0.94312 0.49215 0.0
C1095 C 0.1298 0.93409 0.45372 0.0
C1096 C 0.13939 0.94291 0.41946 0.0
C1097 C 0.11022 0.93435 0.52375 0.0
C1098 C 0.11598 0.92051 0.5518 0.0
C1099 C 0.0927 0.93966 0.52613 0.0
C1100 C 0.0859 0.95408 0.49661 0.0
C1101 C 0.08728 0.95356 0.4469 0.0
C1102 C 0.08144 0.96749 0.4195 0.0
C1103 C 0.07401 0.98194 0.44136 0.0
C1104 C 0.07231 0.98244 0.49065 0.0
C1105 C 0.0782 0.96857 0.51823 0.0
H1106 H 0.06952 0.99272 0.42009 0.0
H1107 H 0.13038 0.86275 0.69796 0.0
H1108 H 0.59955 0.06169 0.23394 0.0
H1109 H 0.58594 0.08051 0.17567 0.0
H1110 H 0.63387 0.08307 0.09724 0.0
H1111 H 0.64782 0.06437 0.15648 0.0
H1112 H 0.61829 0.11449 0.10216 0.0
H1113 H 0.6012 0.05709 0.0594 0.0
H1114 H 0.58955 0.02772 0.07237 0.0
H1115 H 0.54058 0.04929 0.11408 0.0
H1116 H 0.55201 0.07881 0.10201 0.0
H1117 H 0.57565 0.14023 0.8843 0.0
H1118 H 0.5928 0.12578 0.94578 0.0
H1119 H 0.54976 0.12959 0.04263 0.0
H1120 H 0.53262 0.14436 0.98164 0.0
H1121 H 0.56382 0.09491 0.02551 0.0
H1122 H 0.58209 0.15183 0.07776 0.0
H1123 H 0.59427 0.18124 0.07 0.0
H1124 H 0.64055 0.16019 0.00809 0.0
H1125 H 0.62877 0.1306 0.01651 0.0
C1126 C 0.60725 0.06622 0.20434 0.0
C1127 C 0.62473 0.06138 0.19951 0.0
C1128 C 0.59942 0.07696 0.17096 0.0
C1129 C 0.60879 0.0829 0.13162 0.0
C1130 C 0.62639 0.07851 0.12724 0.0
C1131 C 0.63432 0.06782 0.16098 0.0
C1132 C 0.6 0.09354 0.09512 0.0
C1133 C 0.60655 0.11008 0.08478 0.0
C1134 C 0.58448 0.08793 0.07314 0.0
C1135 C 0.57751 0.07018 0.08016 0.0
C1136 C 0.58798 0.05558 0.07166 0.0
C1137 C 0.58142 0.0389 0.0788 0.0
C1138 C 0.56435 0.03664 0.09413 0.0
C1139 C 0.5538 0.05106 0.10224 0.0
C1140 C 0.56031 0.06777 0.0952 0.0
C1141 C 0.56992 0.13818 0.9189 0.0
C1142 C 0.55277 0.14328 0.92816 0.0
C1143 C 0.57977 0.13005 0.954 0.0
C1144 C 0.57252 0.12668 0.99861 0.0
C1145 C 0.55556 0.13217 0.00838 0.0
C1146 C 0.54581 0.14057 0.97356 0.0
C1147 C 0.58199 0.11587 0.0332 0.0
C1148 C 0.5756 0.09925 0.04283 0.0
C1149 C 0.59766 0.12135 0.05425 0.0
C1150 C 0.60449 0.13907 0.04727 0.0
C1151 C 0.59481 0.1535 0.06215 0.0
C1152 C 0.60169 0.17018 0.05794 0.0
C1153 C 0.61813 0.1726 0.03827 0.0
C1154 C 0.6278 0.15831 0.02318 0.0
C1155 C 0.62107 0.14158 0.02793 0.0
H1156 H 0.62339 0.18554 0.03486 0.0
H1157 H 0.55929 0.02371 0.09965 0.0
H1158 H 0.42259 0.55819 0.34372 0.0
H1159 H 0.43592 0.57868 0.39898 0.0
H1160 H 0.38944 0.57844 0.48395 0.0
H1161 H 0.37597 0.55815 0.42879 0.0
H1162 H 0.40123 0.61101 0.47032 0.0
H1163 H 0.42494 0.55605 0.51855 0.0
H1164 H 0.4403 0.52832 0.50736 0.0
H1165 H 0.486 0.55568 0.4634 0.0
H1166 H 0.47083 0.58358 0.47375 0.0
H1167 H 0.43131 0.64261 0.69168 0.0
H1168 H 0.41908 0.62709 0.62421 0.0
H1169 H 0.46817 0.63028 0.55156 0.0
H1170 H 0.4806 0.64565 0.61927 0.0
H1171 H 0.45634 0.59773 0.5532 0.0
H1172 H 0.43301 0.65304 0.51201 0.0
H1173 H 0.41744 0.68054 0.52496 0.0
H1174 H 0.37086 0.6525 0.55713 0.0
H1175 H 0.3862 0.62481 0.54502 0.0
C1176 C 0.41523 0.56245 0.37426 0.0
C1177 C 0.39824 0.5565 0.38192 0.0
C1178 C 0.42287 0.57414 0.40582 0.0
C1179 C 0.41369 0.58002 0.44569 0.0
C1180 C 0.39674 0.57411 0.45334 0.0
C1181 C 0.3891 0.56244 0.42188 0.0
C1182 C 0.42169 0.59232 0.47959 0.0
C1183 C 0.41321 0.60806 0.48878 0.0
C1184 C 0.43754 0.58865 0.50266 0.0
C1185 C 0.44668 0.57189 0.49638 0.0
C1186 C 0.43822 0.55615 0.50609 0.0
C1187 C 0.4469 0.5404 0.49998 0.0
C1188 C 0.4641 0.54024 0.48453 0.0
C1189 C 0.47267 0.55583 0.47528 0.0
C1190 C 0.46404 0.57161 0.48128 0.0
C1191 C 0.43943 0.64033 0.66101 0.0
C1192 C 0.45697 0.64529 0.661 0.0
C1193 C 0.4324 0.63148 0.62235 0.0
C1194 C 0.4427 0.62756 0.58277 0.0
C1195 C 0.46 0.63315 0.5818 0.0
C1196 C 0.46706 0.642 0.62047 0.0
C1197 C 0.43581 0.61639 0.54436 0.0
C1198 C 0.44448 0.60081 0.53436 0.0
C1199 C 0.4201 0.6202 0.5207 0.0
C1200 C 0.41081 0.63684 0.52795 0.0
C1201 C 0.41948 0.65273 0.52221 0.0
C1202 C 0.41069 0.66835 0.52933 0.0
C1203 C 0.39318 0.66827 0.54195 0.0
C1204 C 0.38442 0.65255 0.54738 0.0
C1205 C 0.39315 0.63688 0.54033 0.0
H1206 H 0.3864 0.68038 0.54745 0.0
H1207 H 0.4708 0.52803 0.47984 0.0
H1208 H 0.85347 0.06404 0.83534 0.0
H1209 H 0.8661 0.08039 0.90127 0.0
H1210 H 0.90534 0.04101 0.9181 0.0
H1211 H 0.89257 0.02444 0.85368 0.0
H1212 H 0.89612 0.05234 0.00139 0.0
H1213 H 0.91227 0.07841 0.85268 0.0
H1214 H 0.90675 0.0919 0.77488 0.0
H1215 H 0.8794 0.13357 0.84261 0.0
H1216 H 0.88452 0.12016 0.9208 0.0
H1217 H 0.96865 0.0976 0.09251 0.0
H1218 H 0.94862 0.08244 0.03964 0.0
H1219 H 0.9099 0.12172 0.0641 0.0
H1220 H 0.92978 0.13692 0.11764 0.0
H1221 H 0.91557 0.11222 0.9654 0.0
H1222 H 0.90357 0.08617 0.11679 0.0
H1223 H 0.9115 0.07203 0.1921 0.0
H1224 H 0.93399 0.0295 0.11562 0.0
H1225 H 0.92643 0.04351 0.0398 0.0
C1226 C 0.86461 0.05874 0.85367 0.0
C1227 C 0.87212 0.04303 0.83893 0.0
C1228 C 0.87187 0.06814 0.89115 0.0
C1229 C 0.88688 0.06209 0.91402 0.0
C1230 C 0.8938 0.04598 0.90095 0.0
C1231 C 0.88649 0.03653 0.8639 0.0
C1232 C 0.89612 0.07285 0.94954 0.0
C1233 C 0.9004 0.06541 0.99341 0.0
C1234 C 0.90154 0.09001 0.93943 0.0
C1235 C 0.89859 0.09818 0.89252 0.0
C1236 C 0.90497 0.09039 0.85095 0.0
C1237 C 0.90193 0.09802 0.80679 0.0
C1238 C 0.89268 0.11356 0.80379 0.0
C1239 C 0.88652 0.12152 0.84498 0.0
C1240 C 0.88949 0.11391 0.88922 0.0
C1241 C 0.95588 0.10303 0.08665 0.0
C1242 C 0.95076 0.11842 0.10932 0.0
C1243 C 0.94445 0.09433 0.05657 0.0
C1244 C 0.92779 0.10094 0.0483 0.0
C1245 C 0.92271 0.11644 0.0702 0.0
C1246 C 0.93405 0.12504 0.10085 0.0
C1247 C 0.91573 0.09156 0.01666 0.0
C1248 C 0.911 0.09926 0.97356 0.0
C1249 C 0.91018 0.07453 0.02706 0.0
C1250 C 0.91454 0.06596 0.07261 0.0
C1251 C 0.91032 0.07386 0.11602 0.0
C1252 C 0.91473 0.06586 0.15881 0.0
C1253 C 0.92327 0.04989 0.15865 0.0
C1254 C 0.92738 0.04187 0.11569 0.0
C1255 C 0.92301 0.04983 0.0728 0.0
H1256 H 0.92668 0.04372 0.19181 0.0
H1257 H 0.89034 0.11945 0.76957 0.0
H1258 H 0.4183 0.942 0.67466 0.0
H1259 H 0.4335 0.92299 0.61882 0.0
H1260 H 0.3886 0.92269 0.52779 0.0
H1261 H 0.37337 0.94165 0.58305 0.0
H1262 H 0.40278 0.88996 0.54011 0.0
H1263 H 0.42144 0.94781 0.50038 0.0
H1264 H 0.43409 0.97652 0.51679 0.0
H1265 H 0.48189 0.95254 0.5589 0.0
H1266 H 0.46941 0.92364 0.5434 0.0
H1267 H 0.43521 0.86596 0.31445 0.0
H1268 H 0.42186 0.87924 0.38398 0.0
H1269 H 0.47111 0.87858 0.45624 0.0
H1270 H 0.48464 0.86544 0.38663 0.0
H1271 H 0.45642 0.91005 0.46027 0.0
H1272 H 0.43853 0.8521 0.49212 0.0
H1273 H 0.42572 0.82352 0.47486 0.0
H1274 H 0.37653 0.84749 0.44715 0.0
H1275 H 0.38911 0.87626 0.46358 0.0
C1276 C 0.41167 0.93788 0.64275 0.0
C1277 C 0.39468 0.94344 0.63311 0.0
C1278 C 0.42037 0.92703 0.61093 0.0
C1279 C 0.41218 0.92151 0.56913 0.0
C1280 C 0.39513 0.92678 0.5599 0.0
C1281 C 0.38649 0.93771 0.59143 0.0
C1282 C 0.42144 0.91059 0.53418 0.0
C1283 C 0.41446 0.89436 0.52239 0.0
C1284 C 0.43689 0.9162 0.51204 0.0
C1285 C 0.44442 0.93356 0.52132 0.0
C1286 C 0.43459 0.94865 0.51358 0.0
C1287 C 0.44174 0.96496 0.52263 0.0
C1288 C 0.45877 0.96635 0.53904 0.0
C1289 C 0.46869 0.95143 0.5463 0.0
C1290 C 0.46159 0.93509 0.53738 0.0
C1291 C 0.44316 0.86837 0.34539 0.0
C1292 C 0.46101 0.86469 0.3449 0.0
C1293 C 0.43549 0.87592 0.3852 0.0
C1294 C 0.44548 0.87984 0.42539 0.0
C1295 C 0.46317 0.87567 0.42559 0.0
C1296 C 0.47086 0.86809 0.38581 0.0
C1297 C 0.43768 0.88943 0.46568 0.0
C1298 C 0.4449 0.90547 0.47842 0.0
C1299 C 0.42244 0.88364 0.48864 0.0
C1300 C 0.41481 0.86636 0.47872 0.0
C1301 C 0.42502 0.8513 0.48197 0.0
C1302 C 0.41779 0.83506 0.47241 0.0
C1303 C 0.40033 0.83369 0.45982 0.0
C1304 C 0.39006 0.84857 0.45687 0.0
C1305 C 0.39722 0.86484 0.46636 0.0
H1306 H 0.39476 0.82111 0.45244 0.0
H1307 H 0.46428 0.97899 0.54601 0.0
H1308 H 0.58571 0.36852 0.12121 0.0
H1309 H 0.60413 0.38336 0.06349 0.0
H1310 H 0.56316 0.38017 0.95965 0.0
H1311 H 0.54499 0.36479 0.01657 0.0
H1312 H 0.59267 0.37464 0.91819 0.0
H1313 H 0.57111 0.4174 0.02857 0.0
H1314 H 0.56652 0.42998 0.10797 0.0
H1315 H 0.62155 0.4337 0.12815 0.0
H1316 H 0.62645 0.42092 0.04906 0.0
H1317 H 0.60141 0.44767 0.77314 0.0
H1318 H 0.59314 0.4264 0.83266 0.0
H1319 H 0.64405 0.42955 0.8951 0.0
H1320 H 0.6526 0.45095 0.83473 0.0
H1321 H 0.61541 0.43278 0.96036 0.0
H1322 H 0.63528 0.39445 0.83863 0.0
H1323 H 0.63761 0.38281 0.75748 0.0
H1324 H 0.58299 0.3723 0.75613 0.0
H1325 H 0.58026 0.38414 0.83694 0.0
C1326 C 0.5807 0.37089 0.08594 0.0
C1327 C 0.56388 0.36562 0.07344 0.0
C1328 C 0.59122 0.37941 0.05304 0.0
C1329 C 0.58493 0.38316 0.00747 0.0
C1330 C 0.56831 0.37742 0.99458 0.0
C1331 C 0.55791 0.36868 0.02719 0.0
C1332 C 0.59525 0.39367 0.97362 0.0
C1333 C 0.5976 0.38737 0.92739 0.0
C1334 C 0.60208 0.41011 0.98593 0.0
C1335 C 0.59915 0.41802 0.03318 0.0
C1336 C 0.58222 0.42081 0.05008 0.0
C1337 C 0.57957 0.42798 0.095 0.0
C1338 C 0.59373 0.43258 0.12316 0.0
C1339 C 0.61059 0.43009 0.10634 0.0
C1340 C 0.61332 0.42289 0.06147 0.0
C1341 C 0.61092 0.44384 0.79937 0.0
C1342 C 0.62765 0.45102 0.79938 0.0
C1343 C 0.60619 0.43159 0.83318 0.0
C1344 C 0.61803 0.42631 0.86791 0.0
C1345 C 0.63478 0.43343 0.8683 0.0
C1346 C 0.63963 0.4456 0.83387 0.0
C1347 C 0.61235 0.41393 0.90475 0.0
C1348 C 0.61084 0.41988 0.95152 0.0
C1349 C 0.60597 0.39733 0.89268 0.0
C1350 C 0.60756 0.39026 0.84388 0.0
C1351 C 0.62374 0.38979 0.82091 0.0
C1352 C 0.62513 0.38313 0.77498 0.0
C1353 C 0.61046 0.3768 0.75172 0.0
C1354 C 0.59435 0.37718 0.77424 0.0
C1355 C 0.59287 0.38384 0.82014 0.0
H1356 H 0.61157 0.37156 0.71628 0.0
H1357 H 0.59165 0.43811 0.15795 0.0
H1358 H 0.10319 0.53321 0.54623 0.0
H1359 H 0.08865 0.55092 0.48639 0.0
H1360 H 0.11795 0.5956 0.5313 0.0
H1361 H 0.13247 0.57805 0.59146 0.0
H1362 H 0.08374 0.6032 0.51979 0.0
H1363 H 0.12856 0.57558 0.43029 0.0
H1364 H 0.14598 0.55105 0.40085 0.0
H1365 H 0.10064 0.52862 0.33751 0.0
H1366 H 0.08289 0.55291 0.36716 0.0
H1367 H 0.05685 0.6536 0.31756 0.0
H1368 H 0.07416 0.63907 0.37885 0.0
H1369 H 0.0498 0.59038 0.34403 0.0
H1370 H 0.03278 0.60462 0.28283 0.0
H1371 H 0.08398 0.5867 0.34987 0.0
H1372 H 0.03886 0.61312 0.44393 0.0
H1373 H 0.02121 0.63739 0.47406 0.0
H1374 H 0.06696 0.66192 0.52888 0.0
H1375 H 0.08491 0.63788 0.49851 0.0
C1376 C 0.1066 0.54679 0.5433 0.0
C1377 C 0.11903 0.5542 0.57351 0.0
C1378 C 0.09831 0.55688 0.509 0.0
C1379 C 0.10235 0.57454 0.50418 0.0
C1380 C 0.11467 0.582 0.53444 0.0
C1381 C 0.12299 0.57192 0.56866 0.0
C1382 C 0.09354 0.58524 0.46783 0.0
C1383 C 0.084 0.59978 0.4825 0.0
C1384 C 0.09372 0.5806 0.41935 0.0
C1385 C 0.10437 0.566 0.4013 0.0
C1386 C 0.12228 0.56535 0.4104 0.0
C1387 C 0.13222 0.5515 0.39362 0.0
C1388 C 0.12442 0.53827 0.36742 0.0
C1389 C 0.10666 0.53888 0.35785 0.0
C1390 C 0.09666 0.55269 0.37459 0.0
C1391 C 0.05513 0.63983 0.32327 0.0
C1392 C 0.04349 0.63026 0.29527 0.0
C1393 C 0.06499 0.63155 0.3583 0.0
C1394 C 0.06323 0.61364 0.36602 0.0
C1395 C 0.05144 0.60418 0.3385 0.0
C1396 C 0.04168 0.61238 0.30358 0.0
C1397 C 0.07385 0.60446 0.4019 0.0
C1398 C 0.0838 0.59022 0.3871 0.0
C1399 C 0.07401 0.60936 0.45022 0.0
C1400 C 0.06324 0.62381 0.46845 0.0
C1401 C 0.04517 0.62377 0.46204 0.0
C1402 C 0.03511 0.63746 0.47924 0.0
C1403 C 0.04297 0.65122 0.50323 0.0
C1404 C 0.06089 0.65128 0.5102 0.0
C1405 C 0.07101 0.63762 0.49303 0.0
H1406 H 0.03516 0.66181 0.51654 0.0
H1407 H 0.13214 0.52755 0.35446 0.0
H1408 H 0.92038 0.50399 0.27819 0.0
H1409 H 0.93375 0.532 0.26177 0.0
H1410 H 0.88357 0.55659 0.26637 0.0
H1411 H 0.87 0.52851 0.2823 0.0
H1412 H 0.90205 0.56774 0.19161 0.0
H1413 H 0.91106 0.56213 0.35729 0.0
H1414 H 0.91968 0.54777 0.43171 0.0
H1415 H 0.97221 0.5444 0.38232 0.0
H1416 H 0.96385 0.55852 0.30728 0.0
H1417 H 0.96984 0.64223 0.248 0.0
H1418 H 0.94726 0.62186 0.27218 0.0
H1419 H 0.95207 0.59524 0.13831 0.0
H1420 H 0.9743 0.61575 0.11349 0.0
H1421 H 0.95166 0.58903 0.28704 0.0
H1422 H 0.91559 0.5742 0.10981 0.0
H1423 H 0.90548 0.58998 0.03902 0.0
H1424 H 0.90397 0.63738 0.1186 0.0
H1425 H 0.91384 0.62186 0.19004 0.0
C1426 C 0.91216 0.51534 0.27591 0.0
C1427 C 0.89413 0.51402 0.28168 0.0
C1428 C 0.91984 0.53136 0.2667 0.0
C1429 C 0.90967 0.5464 0.26338 0.0
C1430 C 0.89165 0.54514 0.26891 0.0
C1431 C 0.88394 0.5291 0.27816 0.0
C1432 C 0.91795 0.56331 0.25317 0.0
C1433 C 0.91283 0.57249 0.21258 0.0
C1434 C 0.93167 0.56974 0.28134 0.0
C1435 C 0.9368 0.56129 0.32651 0.0
C1436 C 0.92443 0.55822 0.36215 0.0
C1437 C 0.92927 0.55014 0.40447 0.0
C1438 C 0.94648 0.54515 0.4117 0.0
C1439 C 0.95888 0.54827 0.37666 0.0
C1440 C 0.9541 0.55633 0.33424 0.0
C1441 C 0.96583 0.63226 0.22331 0.0
C1442 C 0.97396 0.63053 0.17894 0.0
C1443 C 0.95295 0.62061 0.23724 0.0
C1444 C 0.94793 0.60704 0.20707 0.0
C1445 C 0.95549 0.60577 0.16193 0.0
C1446 C 0.9683 0.61747 0.14786 0.0
C1447 C 0.93622 0.59318 0.2244 0.0
C1448 C 0.94072 0.5845 0.26636 0.0
C1449 C 0.92171 0.58745 0.19797 0.0
C1450 C 0.91558 0.59686 0.15524 0.0
C1451 C 0.91301 0.58797 0.1123 0.0
C1452 C 0.90734 0.59687 0.07202 0.0
C1453 C 0.90412 0.61467 0.07428 0.0
C1454 C 0.90653 0.6236 0.11685 0.0
C1455 C 0.91218 0.61476 0.15723 0.0
H1456 H 0.89974 0.62155 0.04305 0.0
H1457 H 0.9502 0.5389 0.44449 0.0
H1458 H 0.90612 0.99267 0.64007 0.0
H1459 H 0.92192 0.96639 0.66048 0.0
H1460 H 0.87817 0.9483 0.74192 0.0
H1461 H 0.86245 0.97492 0.72286 0.0
H1462 H 0.90533 0.9451 0.79234 0.0
H1463 H 0.89125 0.92753 0.63752 0.0
H1464 H 0.88747 0.92961 0.55096 0.0
H1465 H 0.94231 0.93644 0.53341 0.0
H1466 H 0.94641 0.93466 0.61993 0.0
H1467 H 0.97267 0.8686 0.75182 0.0
H1468 H 0.94583 0.88358 0.73049 0.0
H1469 H 0.96116 0.92728 0.81633 0.0
H1470 H 0.98758 0.91218 0.83902 0.0
H1471 H 0.94186 0.91104 0.6817 0.0
H1472 H 0.92824 0.9501 0.85584 0.0
H1473 H 0.92949 0.94535 0.94218 0.0
H1474 H 0.92502 0.89043 0.92089 0.0
H1475 H 0.92349 0.89486 0.83446 0.0
C1476 C 0.89972 0.98298 0.66164 0.0
C1477 C 0.88308 0.98593 0.68009 0.0
C1478 C 0.90875 0.96787 0.67308 0.0
C1479 C 0.9012 0.95525 0.70245 0.0
C1480 C 0.88427 0.95785 0.71927 0.0
C1481 C 0.8753 0.97306 0.70826 0.0
C1482 C 0.91165 0.94029 0.71909 0.0
C1483 C 0.91317 0.93751 0.76811 0.0
C1484 C 0.92147 0.92995 0.68751 0.0
C1485 C 0.91912 0.93104 0.63533 0.0
C1486 C 0.9025 0.92959 0.61525 0.0
C1487 C 0.9003 0.9307 0.56617 0.0
C1488 C 0.91463 0.93317 0.53671 0.0
C1489 C 0.93121 0.93452 0.55627 0.0
C1490 C 0.93348 0.93343 0.60535 0.0
C1491 C 0.97015 0.88128 0.76679 0.0
C1492 C 0.98225 0.88923 0.79705 0.0
C1493 C 0.95482 0.88983 0.7545 0.0
C1494 C 0.95136 0.9065 0.77207 0.0
C1495 C 0.96328 0.91426 0.80315 0.0
C1496 C 0.97848 0.90565 0.81591 0.0
C1497 C 0.93614 0.91649 0.75499 0.0
C1498 C 0.93374 0.91834 0.70591 0.0
C1499 C 0.92512 0.92557 0.78648 0.0
C1500 C 0.92584 0.92282 0.83857 0.0
C1501 C 0.92741 0.93702 0.86956 0.0
C1502 C 0.9282 0.93438 0.91853 0.0
C1503 C 0.92737 0.9176 0.937 0.0
C1504 C 0.92571 0.90342 0.90653 0.0
C1505 C 0.92491 0.90599 0.85754 0.0
H1506 H 0.92799 0.91558 0.97492 0.0
H1507 H 0.9129 0.93402 0.49871 0.0
H1508 H 0.51715 0.88445 0.26229 0.0
H1509 H 0.54131 0.90341 0.28237 0.0
H1510 H 0.55032 0.91335 0.134 0.0
H1511 H 0.52602 0.89429 0.11332 0.0
H1512 H 0.58116 0.90789 0.18801 0.0
H1513 H 0.52947 0.94251 0.19213 0.0
H1514 H 0.49946 0.94947 0.21536 0.0
H1515 H 0.51433 0.94948 0.362 0.0
H1516 H 0.5444 0.94226 0.33967 0.0
H1517 H 0.63031 0.98564 0.2182 0.0
H1518 H 0.61007 0.96285 0.19501 0.0
H1519 H 0.5954 0.95584 0.3413 0.0
H1520 H 0.61543 0.9788 0.36478 0.0
H1521 H 0.56763 0.95954 0.28612 0.0
H1522 H 0.61942 0.92539 0.28273 0.0
H1523 H 0.6494 0.91804 0.26016 0.0
H1524 H 0.63467 0.91689 0.11345 0.0
H1525 H 0.60463 0.92449 0.13509 0.0
C1526 C 0.52431 0.89054 0.23378 0.0
C1527 C 0.51957 0.88798 0.18616 0.0
C1528 C 0.53811 0.90138 0.24538 0.0
C1529 C 0.54745 0.90988 0.20968 0.0
C1530 C 0.54321 0.90689 0.16202 0.0
C1531 C 0.5293 0.89608 0.15032 0.0
C1532 C 0.56105 0.92252 0.2226 0.0
C1533 C 0.57823 0.91933 0.20891 0.0
C1534 C 0.55719 0.9372 0.2507 0.0
C1535 C 0.53915 0.94168 0.26424 0.0
C1536 C 0.52631 0.94386 0.22935 0.0
C1537 C 0.5093 0.94787 0.24235 0.0
C1538 C 0.50498 0.94987 0.29013 0.0
C1539 C 0.51769 0.94791 0.32501 0.0
C1540 C 0.53472 0.94387 0.3122 0.0
C1541 C 0.62295 0.9791 0.24555 0.0
C1542 C 0.62441 0.9841 0.29334 0.0
C1543 C 0.61144 0.96602 0.23222 0.0
C1544 C 0.60128 0.9576 0.26645 0.0
C1545 C 0.6031 0.9622 0.31432 0.0
C1546 C 0.61459 0.9753 0.32768 0.0
C1547 C 0.58789 0.94488 0.25205 0.0
C1548 C 0.57066 0.94811 0.26531 0.0
C1549 C 0.59176 0.93025 0.22366 0.0
C1550 C 0.60981 0.92569 0.21051 0.0
C1551 C 0.6226 0.92373 0.24562 0.0
C1552 C 0.6396 0.91948 0.233 0.0
C1553 C 0.64394 0.91704 0.18539 0.0
C1554 C 0.63129 0.91881 0.15031 0.0
C1555 C 0.61427 0.92307 0.16274 0.0
H1556 H 0.65711 0.91375 0.1757 0.0
H1557 H 0.4918 0.95298 0.30013 0.0
H1558 H 0.61637 0.54493 0.64172 0.0
H1559 H 0.59725 0.56734 0.67337 0.0
H1560 H 0.60548 0.54786 0.81492 0.0
H1561 H 0.62437 0.52521 0.78351 0.0
H1562 H 0.5721 0.55194 0.79813 0.0
H1563 H 0.62252 0.58695 0.77972 0.0
H1564 H 0.64775 0.59947 0.7385 0.0
H1565 H 0.61405 0.62294 0.63581 0.0
H1566 H 0.58862 0.61035 0.67603 0.0
H1567 H 0.52066 0.61908 0.89749 0.0
H1568 H 0.54636 0.60155 0.88034 0.0
H1569 H 0.54197 0.61436 0.732 0.0
H1570 H 0.51651 0.63203 0.74878 0.0
H1571 H 0.57554 0.61468 0.76096 0.0
H1572 H 0.52584 0.57665 0.77399 0.0
H1573 H 0.50054 0.56395 0.81454 0.0
H1574 H 0.53332 0.54608 0.92739 0.0
H1575 H 0.5588 0.55888 0.88776 0.0
C1576 C 0.61428 0.54553 0.67964 0.0
C1577 C 0.62183 0.53323 0.71005 0.0
C1578 C 0.60342 0.55842 0.69773 0.0
C1579 C 0.60005 0.55936 0.74658 0.0
C1580 C 0.60791 0.54737 0.77712 0.0
C1581 C 0.61872 0.53444 0.75907 0.0
C1582 C 0.58732 0.57204 0.76529 0.0
C1583 C 0.57306 0.56571 0.79085 0.0
C1584 C 0.5884 0.58996 0.75502 0.0
C1585 C 0.60366 0.59758 0.73072 0.0
C1586 C 0.62049 0.59467 0.74814 0.0
C1587 C 0.63483 0.6018 0.72498 0.0
C1588 C 0.6325 0.61196 0.68451 0.0
C1589 C 0.61583 0.61505 0.66716 0.0
C1590 C 0.60145 0.60794 0.69016 0.0
C1591 C 0.52527 0.6183 0.8613 0.0
C1592 C 0.51645 0.62681 0.82444 0.0
C1593 C 0.53993 0.60826 0.85156 0.0
C1594 C 0.54594 0.6065 0.80481 0.0
C1595 C 0.53756 0.61554 0.76831 0.0
C1596 C 0.52294 0.62556 0.77797 0.0
C1597 C 0.5603 0.5945 0.79316 0.0
C1598 C 0.57479 0.60094 0.76884 0.0
C1599 C 0.55947 0.57666 0.80452 0.0
C1600 C 0.54418 0.56889 0.82821 0.0
C1601 C 0.52763 0.57012 0.80763 0.0
C1602 C 0.51326 0.56289 0.83041 0.0
C1603 C 0.51531 0.55426 0.87359 0.0
C1604 C 0.53175 0.5528 0.894 0.0
C1605 C 0.54615 0.56003 0.87139 0.0
H1606 H 0.50417 0.54867 0.89117 0.0
H1607 H 0.64362 0.61748 0.66663 0.0
H1608 H 0.13363 0.48205 0.68032 0.0
H1609 H 0.1147 0.45689 0.69057 0.0
H1610 H 0.10126 0.47471 0.83093 0.0
H1611 H 0.12089 0.49924 0.82179 0.0
H1612 H 0.10262 0.44184 0.83339 0.0
H1613 H 0.07566 0.48275 0.72782 0.0
H1614 H 0.07363 0.50134 0.65691 0.0
H1615 H 0.07829 0.4566 0.56727 0.0
H1616 H 0.08059 0.43777 0.63772 0.0
H1617 H 0.01415 0.41401 0.85008 0.0
H1618 H 0.04044 0.43129 0.83878 0.0
H1619 H 0.05942 0.39393 0.73773 0.0
H1620 H 0.03333 0.37624 0.74984 0.0
H1621 H 0.0573 0.43303 0.71101 0.0
H1622 H 0.08031 0.39224 0.82449 0.0
H1623 H 0.07984 0.37573 0.8993 0.0
H1624 H 0.0794 0.42323 0.97859 0.0
H1625 H 0.0796 0.44003 0.90419 0.0
C1626 C 0.1268 0.48043 0.71356 0.0
C1627 C 0.12862 0.49264 0.75014 0.0
C1628 C 0.11591 0.46611 0.71931 0.0
C1629 C 0.1062 0.46409 0.76111 0.0
C1630 C 0.10857 0.47595 0.79832 0.0
C1631 C 0.11977 0.49001 0.79302 0.0
C1632 C 0.09291 0.45025 0.76548 0.0
C1633 C 0.09271 0.43999 0.80662 0.0
C1634 C 0.08003 0.44761 0.73037 0.0
C1635 C 0.0785 0.45889 0.688 0.0
C1636 C 0.07637 0.4769 0.69297 0.0
C1637 C 0.07516 0.48748 0.65288 0.0
C1638 C 0.07589 0.48016 0.60762 0.0
C1639 C 0.07777 0.46225 0.60236 0.0
C1640 C 0.07902 0.45162 0.64235 0.0
C1641 C 0.02399 0.4094 0.82575 0.0
C1642 C 0.02173 0.39381 0.8008 0.0
C1643 C 0.03898 0.41924 0.81946 0.0
C1644 C 0.05179 0.4138 0.78755 0.0
C1645 C 0.04964 0.39824 0.76262 0.0
C1646 C 0.0348 0.38817 0.76968 0.0
C1647 C 0.06701 0.42493 0.77894 0.0
C1648 C 0.06746 0.43472 0.73717 0.0
C1649 C 0.07982 0.42745 0.81395 0.0
C1650 C 0.07981 0.41739 0.85874 0.0
C1651 C 0.07995 0.39916 0.85786 0.0
C1652 C 0.07977 0.38976 0.9002 0.0
C1653 C 0.07955 0.39843 0.94367 0.0
C1654 C 0.07956 0.41653 0.94489 0.0
C1655 C 0.07972 0.426 0.90265 0.0
H1656 H 0.07941 0.39112 0.97641 0.0
H1657 H 0.07496 0.48837 0.57662 0.0
H1658 H 0.02671 0.13013 0.23041 0.0
H1659 H 0.05093 0.11014 0.24255 0.0
H1660 H 0.01563 0.07174 0.29767 0.0
H1661 H 0.99149 0.09175 0.28676 0.0
H1662 H 0.04426 0.0721 0.34871 0.0
H1663 H 0.03069 0.07035 0.18234 0.0
H1664 H 0.02584 0.08261 0.10273 0.0
H1665 H 0.07797 0.10206 0.10059 0.0
H1666 H 0.08304 0.09011 0.18053 0.0
H1667 H 0.09143 0.99486 0.31487 0.0
H1668 H 0.07047 0.01843 0.31106 0.0
H1669 H 0.11061 0.05341 0.2645 0.0
H1670 H 0.13174 0.02972 0.26745 0.0
H1671 H 0.08144 0.05657 0.21163 0.0
H1672 H 0.09523 0.05558 0.37748 0.0
H1673 H 0.09953 0.04153 0.45508 0.0
H1674 H 0.04625 0.02553 0.45643 0.0
H1675 H 0.04167 0.03933 0.37853 0.0
C1676 C 0.02413 0.11745 0.24531 0.0
C1677 C 0.00717 0.11248 0.25731 0.0
C1678 C 0.03797 0.10603 0.2521 0.0
C1679 C 0.03506 0.08934 0.27038 0.0
C1680 C 0.01819 0.08453 0.28348 0.0
C1681 C 0.00439 0.09598 0.27704 0.0
C1682 C 0.04945 0.07667 0.2747 0.0
C1683 C 0.05231 0.06863 0.31866 0.0
C1684 C 0.06018 0.07236 0.23572 0.0
C1685 C 0.05718 0.07951 0.18762 0.0
C1686 C 0.04107 0.07736 0.16504 0.0
C1687 C 0.03829 0.08423 0.11984 0.0
C1688 C 0.05157 0.09316 0.09667 0.0
C1689 C 0.06768 0.09518 0.11861 0.0
C1690 C 0.07052 0.08835 0.16386 0.0
C1691 C 0.09586 0.00756 0.30389 0.0
C1692 C 0.11327 0.01042 0.29143 0.0
C1693 C 0.08386 0.02105 0.302 0.0
C1694 C 0.08903 0.03772 0.28808 0.0
C1695 C 0.10638 0.04064 0.2755 0.0
C1696 C 0.11843 0.02711 0.27731 0.0
C1697 C 0.07614 0.05193 0.28547 0.0
C1698 C 0.07354 0.06023 0.24183 0.0
C1699 C 0.06554 0.05635 0.3246 0.0
C1700 C 0.06813 0.04842 0.37204 0.0
C1701 C 0.08444 0.04902 0.39424 0.0
C1702 C 0.08693 0.0411 0.43828 0.0
C1703 C 0.07318 0.03264 0.46065 0.0
C1704 C 0.05689 0.03212 0.43908 0.0
C1705 C 0.05433 0.04001 0.39502 0.0
H1706 H 0.07514 0.0265 0.49471 0.0
H1707 H 0.0494 0.09847 0.06167 0.0
H1708 H 0.37787 0.02953 0.68825 0.0
H1709 H 0.39549 0.05561 0.69963 0.0
H1710 H 0.41678 0.0338 0.8278 0.0
H1711 H 0.39913 0.00791 0.81714 0.0
H1712 H 0.40951 0.06774 0.839 0.0
H1713 H 0.4387 0.03159 0.72328 0.0
H1714 H 0.4409 0.01529 0.6483 0.0
H1715 H 0.43076 0.06183 0.56959 0.0
H1716 H 0.42827 0.07836 0.64421 0.0
H1717 H 0.49208 0.10417 0.87175 0.0
H1718 H 0.46659 0.08622 0.85798 0.0
H1719 H 0.45353 0.11694 0.73533 0.0
H1720 H 0.4792 0.13497 0.74865 0.0
H1721 H 0.453 0.08257 0.71601 0.0
H1722 H 0.42864 0.11951 0.83336 0.0
H1723 H 0.42727 0.13539 0.90909 0.0
H1724 H 0.42888 0.08732 0.98563 0.0
H1725 H 0.43051 0.07115 0.91037 0.0
C1726 C 0.3862 0.03036 0.71904 0.0
C1727 C 0.3872 0.01659 0.75161 0.0
C1728 C 0.39628 0.04525 0.72543 0.0
C1729 C 0.40756 0.04656 0.76433 0.0
C1730 C 0.40815 0.03307 0.79758 0.0
C1731 C 0.3981 0.01823 0.79127 0.0
C1732 C 0.41941 0.06155 0.76968 0.0
C1733 C 0.41906 0.07097 0.81221 0.0
C1734 C 0.43153 0.06606 0.73412 0.0
C1735 C 0.43308 0.05615 0.68929 0.0
C1736 C 0.4368 0.03831 0.68999 0.0
C1737 C 0.43812 0.02904 0.64757 0.0
C1738 C 0.43591 0.03751 0.60422 0.0
C1739 C 0.43243 0.05528 0.6032 0.0
C1740 C 0.43106 0.06461 0.64553 0.0
C1741 C 0.48371 0.10726 0.84212 0.0
C1742 C 0.4877 0.12098 0.81121 0.0
C1743 C 0.46907 0.09704 0.83446 0.0
C1744 C 0.45807 0.10035 0.79588 0.0
C1745 C 0.46183 0.11422 0.76541 0.0
C1746 C 0.47647 0.12452 0.77315 0.0
C1747 C 0.44341 0.0885 0.78588 0.0
C1748 C 0.44323 0.07963 0.74246 0.0
C1749 C 0.43086 0.08445 0.82073 0.0
C1750 C 0.4298 0.09412 0.86616 0.0
C1751 C 0.42882 0.11232 0.86634 0.0
C1752 C 0.42798 0.12138 0.90919 0.0
C1753 C 0.42801 0.11237 0.95215 0.0
C1754 C 0.42885 0.09428 0.95233 0.0
C1755 C 0.42971 0.08516 0.90957 0.0
H1756 H 0.42736 0.11941 0.98529 0.0
H1757 H 0.43695 0.03031 0.57141 0.0
H1758 H 0.50635 0.40528 0.12869 0.0
H1759 H 0.48137 0.42417 0.14066 0.0
H1760 H 0.46212 0.38981 0.2492 0.0
H1761 H 0.48692 0.37052 0.2364 0.0
H1762 H 0.4357 0.40321 0.19822 0.0
H1763 H 0.48526 0.42503 0.27908 0.0
H1764 H 0.51559 0.43432 0.28832 0.0
H1765 H 0.50764 0.4749 0.18646 0.0
H1766 H 0.47732 0.46557 0.17574 0.0
H1767 H 0.38481 0.47191 0.3066 0.0
H1768 H 0.40478 0.44777 0.29145 0.0
H1769 H 0.42611 0.4754 0.17207 0.0
H1770 H 0.40636 0.49941 0.1868 0.0
H1771 H 0.45089 0.46422 0.23517 0.0
H1772 H 0.40069 0.44106 0.15429 0.0
H1773 H 0.3703 0.43142 0.14863 0.0
H1774 H 0.37933 0.39347 0.25717 0.0
H1775 H 0.40973 0.40306 0.26394 0.0
C1776 C 0.4967 0.40162 0.15469 0.0
C1777 C 0.49871 0.38655 0.18207 0.0
C1778 C 0.48244 0.41243 0.16156 0.0
C1779 C 0.47011 0.4086 0.1966 0.0
C1780 C 0.47154 0.39306 0.22215 0.0
C1781 C 0.48573 0.38208 0.21487 0.0
C1782 C 0.4565 0.42145 0.20856 0.0
C1783 C 0.439 0.4165 0.20689 0.0
C1784 C 0.46082 0.43879 0.21987 0.0
C1785 C 0.47905 0.44451 0.22634 0.0
C1786 C 0.49001 0.43585 0.25836 0.0
C1787 C 0.50721 0.44114 0.2639 0.0
C1788 C 0.51355 0.45522 0.23803 0.0
C1789 C 0.50271 0.464 0.20648 0.0
C1790 C 0.48552 0.45871 0.20064 0.0
C1791 C 0.39364 0.47274 0.27685 0.0
C1792 C 0.39409 0.48763 0.24809 0.0
C1793 C 0.40498 0.45893 0.26816 0.0
C1794 C 0.41689 0.45983 0.23063 0.0
C1795 C 0.41703 0.47448 0.20127 0.0
C1796 C 0.40571 0.4882 0.20977 0.0
C1797 C 0.43008 0.44614 0.22346 0.0
C1798 C 0.44757 0.45093 0.22652 0.0
C1799 C 0.4257 0.42868 0.21409 0.0
C1800 C 0.40743 0.42291 0.21 0.0
C1801 C 0.39615 0.43077 0.17727 0.0
C1802 C 0.37893 0.42529 0.17379 0.0
C1803 C 0.37287 0.41188 0.20263 0.0
C1804 C 0.38403 0.40388 0.23492 0.0
C1805 C 0.40126 0.40933 0.23856 0.0
H1806 H 0.35954 0.40765 0.19987 0.0
H1807 H 0.52685 0.45935 0.24249 0.0
loop_
_geom_bond_atom_site_label_1
_geom_bond_atom_site_label_2
_geom_bond_distance
_geom_bond_site_symmetry_2
_ccdc_geom_bond_type
C0 O1 1.160 . S
C0 O7 1.185 . S
O1 C0 1.160 . S
O2 Zn3 1.899 . S
O2 C10 1.284 . S
Zn3 O2 1.899 . S
Zn3 O4 2.032 . S
Zn3 O7 2.086 . S
Zn3 O12 1.977 . S
O4 Zn3 2.032 . S
O4 C8 1.278 . S
C5 O6 1.203 . S
C5 O12 1.267 . S
O6 C5 1.203 . S
O7 C0 1.185 . S
O7 Zn3 2.086 . S
C8 O4 1.278 . S
C8 O9 1.211 . S
O9 C8 1.211 . S
C10 O2 1.284 . S
C10 O11 1.273 . S
O11 C10 1.273 . S
O12 Zn3 1.977 . S
O12 C5 1.267 . S
C13 O14 1.160 . S
C13 O20 1.185 . S
O14 C13 1.160 . S
O15 Zn16 1.899 . S
O15 C23 1.284 . S
Zn16 O15 1.899 . S
Zn16 O17 2.032 . S
Zn16 O20 2.086 . S
Zn16 O25 1.977 . S
O17 Zn16 2.032 . S
O17 C21 1.278 . S
C18 O19 1.203 . S
C18 O25 1.267 . S
O19 C18 1.203 . S
O20 C13 1.185 . S
O20 Zn16 2.086 . S
C21 O17 1.278 . S
C21 O22 1.211 . S
O22 C21 1.211 . S
C23 O15 1.284 . S
C23 O24 1.273 . S
O24 C23 1.273 . S
O25 Zn16 1.977 . S
O25 C18 1.267 . S
C26 O27 1.160 . S
C26 O33 1.185 . S
O27 C26 1.160 . S
O28 Zn29 1.899 . S
O28 C36 1.284 . S
Zn29 O28 1.899 . S
Zn29 O30 2.032 . S
Zn29 O33 2.086 . S
Zn29 O38 1.977 . S
O30 Zn29 2.032 . S
O30 C34 1.278 . S
C31 O32 1.203 . S
C31 O38 1.267 . S
O32 C31 1.203 . S
O33 C26 1.185 . S
O33 Zn29 2.086 . S
C34 O30 1.278 . S
C34 O35 1.211 . S
O35 C34 1.211 . S
C36 O28 1.284 . S
C36 O37 1.273 . S
O37 C36 1.273 . S
O38 Zn29 1.977 . S
O38 C31 1.267 . S
C39 O40 1.160 . S
C39 O46 1.185 . S
O40 C39 1.160 . S
O41 Zn42 1.899 . S
O41 C49 1.284 . S
Zn42 O41 1.899 . S
Zn42 O43 2.032 . S
Zn42 O46 2.086 . S
Zn42 O51 1.977 . S
O43 Zn42 2.032 . S
O43 C47 1.278 . S
C44 O45 1.203 . S
C44 O51 1.267 . S
O45 C44 1.203 . S
O46 C39 1.185 . S
O46 Zn42 2.086 . S
C47 O43 1.278 . S
C47 O48 1.211 . S
O48 C47 1.211 . S
C49 O41 1.284 . S
C49 O50 1.273 . S
O50 C49 1.273 . S
O51 Zn42 1.977 . S
O51 C44 1.267 . S
C52 O53 1.160 . S
C52 O59 1.185 . S
O53 C52 1.160 . S
O54 Zn55 1.899 . S
O54 C62 1.284 . S
Zn55 O54 1.899 . S
Zn55 O56 2.032 . S
Zn55 O59 2.086 . S
Zn55 O64 1.977 . S
O56 Zn55 2.032 . S
O56 C60 1.278 . S
C57 O58 1.203 . S
C57 O64 1.267 . S
O58 C57 1.203 . S
O59 C52 1.185 . S
O59 Zn55 2.086 . S
C60 O56 1.278 . S
C60 O61 1.211 . S
O61 C60 1.211 . S
C62 O54 1.284 . S
C62 O63 1.273 . S
O63 C62 1.273 . S
O64 Zn55 1.977 . S
O64 C57 1.267 . S
C65 O66 1.160 . S
C65 O72 1.185 . S
O66 C65 1.160 . S
O67 Zn68 1.899 . S
O67 C75 1.284 . S
Zn68 O67 1.899 . S
Zn68 O69 2.032 . S
Zn68 O72 2.086 . S
Zn68 O77 1.977 . S
O69 Zn68 2.032 . S
O69 C73 1.278 . S
C70 O71 1.203 . S
C70 O77 1.267 . S
O71 C70 1.203 . S
O72 C65 1.185 . S
O72 Zn68 2.086 . S
C73 O69 1.278 . S
C73 O74 1.211 . S
O74 C73 1.211 . S
C75 O67 1.284 . S
C75 O76 1.273 . S
O76 C75 1.273 . S
O77 Zn68 1.977 . S
O77 C70 1.267 . S
C78 O79 1.160 . S
C78 O85 1.185 . S
O79 C78 1.160 . S
O80 Zn81 1.899 . S
O80 C88 1.284 . S
Zn81 O80 1.899 . S
Zn81 O82 2.032 . S
Zn81 O85 2.086 . S
Zn81 O90 1.977 . S
O82 Zn81 2.032 . S
O82 C86 1.278 . S
C83 O84 1.203 . S
C83 O90 1.267 . S
O84 C83 1.203 . S
O85 C78 1.185 . S
O85 Zn81 2.086 . S
C86 O82 1.278 . S
C86 O87 1.211 . S
O87 C86 1.211 . S
C88 O80 1.284 . S
C88 O89 1.273 . S
O89 C88 1.273 . S
O90 Zn81 1.977 . S
O90 C83 1.267 . S
C91 O92 1.160 . S
C91 O98 1.185 . S
O92 C91 1.160 . S
O93 Zn94 1.899 . S
O93 C101 1.284 . S
Zn94 O93 1.899 . S
Zn94 O95 2.032 . S
Zn94 O98 2.086 . S
Zn94 O103 1.977 . S
O95 Zn94 2.032 . S
O95 C99 1.278 . S
C96 O97 1.203 . S
C96 O103 1.267 . S
O97 C96 1.203 . S
O98 C91 1.185 . S
O98 Zn94 2.086 . S
C99 O95 1.278 . S
C99 O100 1.211 . S
O100 C99 1.211 . S
C101 O93 1.284 . S
C101 O102 1.273 . S
O102 C101 1.273 . S
O103 Zn94 1.977 . S
O103 C96 1.267 . S
C104 O105 1.160 . S
C104 O111 1.185 . S
O105 C104 1.160 . S
O106 Zn107 1.899 . S
O106 C114 1.284 . S
Zn107 O106 1.899 . S
Zn107 O108 2.032 . S
Zn107 O111 2.086 . S
Zn107 O116 1.977 1_655 S
O108 Zn107 2.032 . S
O108 C112 1.278 . S
C109 O110 1.203 1_455 S
C109 O116 1.267 . S
O110 C109 1.203 1_655 S
O111 C104 1.185 . S
O111 Zn107 2.086 . S
C112 O108 1.278 . S
C112 O113 1.211 . S
O113 C112 1.211 . S
C114 O106 1.284 . S
C114 O115 1.273 . S
O115 C114 1.273 . S
O116 Zn107 1.977 1_455 S
O116 C109 1.267 . S
C117 O118 1.160 . S
C117 O124 1.185 . S
O118 C117 1.160 . S
O119 Zn120 1.899 . S
O119 C127 1.284 . S
Zn120 O119 1.899 . S
Zn120 O121 2.032 . S
Zn120 O124 2.086 . S
Zn120 O129 1.977 1_565 S
O121 Zn120 2.032 . S
O121 C125 1.278 . S
C122 O123 1.203 1_545 S
C122 O129 1.267 . S
O123 C122 1.203 1_565 S
O124 C117 1.185 . S
O124 Zn120 2.086 . S
C125 O121 1.278 . S
C125 O126 1.211 . S
O126 C125 1.211 . S
C127 O119 1.284 . S
C127 O128 1.273 . S
O128 C127 1.273 . S
O129 Zn120 1.977 1_545 S
O129 C122 1.267 . S
C130 O131 1.160 . S
C130 O137 1.185 . S
O131 C130 1.160 . S
O132 Zn133 1.899 . S
O132 C140 1.284 . S
Zn133 O132 1.899 . S
Zn133 O134 2.032 . S
Zn133 O137 2.086 . S
Zn133 O142 1.977 . S
O134 Zn133 2.032 . S
O134 C138 1.278 . S
C135 O136 1.203 . S
C135 O142 1.267 . S
O136 C135 1.203 . S
O137 C130 1.185 . S
O137 Zn133 2.086 . S
C138 O134 1.278 . S
C138 O139 1.211 . S
O139 C138 1.211 . S
C140 O132 1.284 . S
C140 O141 1.273 . S
O141 C140 1.273 . S
O142 Zn133 1.977 . S
O142 C135 1.267 . S
C143 O144 1.160 . S
C143 O150 1.185 . S
O144 C143 1.160 . S
O145 Zn146 1.899 . S
O145 C153 1.284 . S
Zn146 O145 1.899 . S
Zn146 O147 2.032 . S
Zn146 O150 2.086 . S
Zn146 O155 1.977 . S
O147 Zn146 2.032 . S
O147 C151 1.278 . S
C148 O149 1.203 . S
C148 O155 1.267 . S
O149 C148 1.203 . S
O150 C143 1.185 . S
O150 Zn146 2.086 . S
C151 O147 1.278 . S
C151 O152 1.211 . S
O152 C151 1.211 . S
C153 O145 1.284 . S
C153 O154 1.273 . S
O154 C153 1.273 . S
O155 Zn146 1.977 . S
O155 C148 1.267 . S
C156 O157 1.160 . S
C156 O163 1.185 . S
O157 C156 1.160 . S
O158 Zn159 1.899 . S
O158 C166 1.284 . S
Zn159 O158 1.899 . S
Zn159 O160 2.032 . S
Zn159 O163 2.086 . S
Zn159 O168 1.977 1_655 S
O160 Zn159 2.032 . S
O160 C164 1.278 . S
C161 O162 1.203 1_455 S
C161 O168 1.267 . S
O162 C161 1.203 1_655 S
O163 C156 1.185 . S
O163 Zn159 2.086 . S
C164 O160 1.278 . S
C164 O165 1.211 . S
O165 C164 1.211 . S
C166 O158 1.284 . S
C166 O167 1.273 . S
O167 C166 1.273 . S
O168 Zn159 1.977 1_455 S
O168 C161 1.267 . S
C169 O170 1.160 . S
C169 O176 1.185 . S
O170 C169 1.160 . S
O171 Zn172 1.899 . S
O171 C179 1.284 . S
Zn172 O171 1.899 . S
Zn172 O173 2.032 . S
Zn172 O176 2.086 . S
Zn172 O181 1.977 1_565 S
O173 Zn172 2.032 . S
O173 C177 1.278 . S
C174 O175 1.203 1_545 S
C174 O181 1.267 . S
O175 C174 1.203 1_565 S
O176 C169 1.185 . S
O176 Zn172 2.086 . S
C177 O173 1.278 . S
C177 O178 1.211 . S
O178 C177 1.211 . S
C179 O171 1.284 . S
C179 O180 1.273 . S
O180 C179 1.273 . S
O181 Zn172 1.977 1_545 S
O181 C174 1.267 . S
C182 O183 1.160 . S
C182 O189 1.185 . S
O183 C182 1.160 . S
O184 Zn185 1.899 . S
O184 C192 1.284 . S
Zn185 O184 1.899 . S
Zn185 O186 2.032 . S
Zn185 O189 2.086 . S
Zn185 O194 1.977 . S
O186 Zn185 2.032 . S
O186 C190 1.278 . S
C187 O188 1.203 . S
C187 O194 1.267 . S
O188 C187 1.203 . S
O189 C182 1.185 . S
O189 Zn185 2.086 . S
C190 O186 1.278 . S
C190 O191 1.211 . S
O191 C190 1.211 . S
C192 O184 1.284 . S
C192 O193 1.273 . S
O193 C192 1.273 . S
O194 Zn185 1.977 . S
O194 C187 1.267 . S
C195 O196 1.160 . S
C195 O202 1.185 . S
O196 C195 1.160 . S
O197 Zn198 1.899 . S
O197 C205 1.284 . S
Zn198 O197 1.899 . S
Zn198 O199 2.032 . S
Zn198 O202 2.086 . S
Zn198 O207 1.977 . S
O199 Zn198 2.032 . S
O199 C203 1.278 . S
C200 O201 1.203 . S
C200 O207 1.267 . S
O201 C200 1.203 . S
O202 C195 1.185 . S
O202 Zn198 2.086 . S
C203 O199 1.278 . S
C203 O204 1.211 . S
O204 C203 1.211 . S
C205 O197 1.284 . S
C205 O206 1.273 . S
O206 C205 1.273 . S
O207 Zn198 1.977 . S
O207 C200 1.267 . S
H208 C226 0.951 . S
H209 C228 0.951 . S
H210 C230 0.950 . S
H211 C231 0.950 . S
H212 C233 0.950 . S
H213 C236 0.950 . S
H214 C237 0.950 . S
H215 C239 0.950 . S
H216 C240 0.950 . S
H217 C241 0.951 . S
H218 C243 0.951 . S
H219 C245 0.950 . S
H220 C246 0.950 . S
H221 C248 0.950 . S
H222 C251 0.950 1_655 S
H223 C252 0.950 . S
H224 C254 0.950 . S
H225 C255 0.950 . S
C226 H208 0.951 . S
C226 C227 1.366 . S
C226 C228 1.388 . S
C227 C226 1.366 . S
C227 C231 1.385 . S
C228 H209 0.951 . S
C228 C226 1.388 . S
C228 C229 1.366 . S
C229 C228 1.366 . S
C229 C230 1.414 . S
C229 C232 1.499 . S
C230 H210 0.950 . S
C230 C229 1.414 . S
C230 C231 1.374 . S
C231 H211 0.950 . S
C231 C227 1.385 . S
C231 C230 1.374 . S
C232 C229 1.499 . S
C232 C233 1.373 . S
C232 C234 1.389 1_554 S
C233 H212 0.950 . S
C233 C232 1.373 . S
C233 C249 1.377 . S
C234 C232 1.389 1_556 S
C234 C235 1.524 . S
C234 C248 1.377 . S
C235 C234 1.524 . S
C235 C236 1.397 . S
C235 C240 1.363 . S
C236 H213 0.950 . S
C236 C235 1.397 . S
C236 C237 1.334 . S
C237 H214 0.950 . S
C237 C236 1.334 . S
C237 C238 1.287 . S
C238 C237 1.287 . S
C238 C239 1.524 . S
C238 H257 0.913 . S
C239 H215 0.950 . S
C239 C238 1.524 . S
C239 C240 1.415 . S
C240 H216 0.950 . S
C240 C235 1.363 . S
C240 C239 1.415 . S
C241 H217 0.951 . S
C241 C242 1.366 . S
C241 C243 1.388 . S
C242 C241 1.366 . S
C242 C246 1.385 . S
C243 H218 0.951 . S
C243 C241 1.388 . S
C243 C244 1.366 . S
C244 C243 1.366 . S
C244 C245 1.414 . S
C244 C247 1.499 . S
C245 H219 0.950 . S
C245 C244 1.414 . S
C245 C246 1.374 . S
C246 H220 0.950 . S
C246 C242 1.385 . S
C246 C245 1.374 . S
C247 C244 1.499 . S
C247 C248 1.373 . S
C247 C249 1.389 1_556 S
C248 H221 0.950 . S
C248 C234 1.377 . S
C248 C247 1.373 . S
C249 C233 1.377 . S
C249 C247 1.389 1_554 S
C249 C250 1.524 . S
C250 C249 1.524 . S
C250 C251 1.397 . S
C250 C255 1.363 . S
C251 H222 0.950 1_455 S
C251 C250 1.397 . S
C251 C252 1.334 1_455 S
C252 H223 0.950 . S
C252 C251 1.334 1_655 S
C252 C253 1.287 1_655 S
C253 C252 1.287 1_455 S
C253 C254 1.524 . S
C253 H256 0.999 . S
C254 H224 0.950 . S
C254 C253 1.524 . S
C254 C255 1.415 . S
C255 H225 0.950 . S
C255 C250 1.363 . S
C255 C254 1.415 . S
H256 C253 0.999 . S
H257 C238 0.913 . S
H258 C276 0.951 1_565 S
H259 C278 0.951 1_565 S
H260 C280 0.950 . S
H261 C281 0.950 . S
H262 C283 0.950 . S
H263 C286 0.950 . S
H264 C287 0.950 . S
H265 C289 0.950 . S
H266 C290 0.950 . S
H267 C291 0.951 . S
H268 C293 0.951 . S
H269 C295 0.950 1_565 S
H270 C296 0.950 1_565 S
H271 C298 0.950 . S
H272 C301 0.950 . S
H273 C302 0.950 . S
H274 C304 0.950 . S
H275 C305 0.950 . S
C276 H258 0.951 1_545 S
C276 C277 1.366 . S
C276 C278 1.388 . S
C277 C276 1.366 . S
C277 C281 1.385 . S
C278 H259 0.951 1_545 S
C278 C276 1.388 . S
C278 C279 1.366 . S
C279 C278 1.366 . S
C279 C280 1.414 . S
C279 C282 1.499 . S
C280 H260 0.950 . S
C280 C279 1.414 . S
C280 C281 1.374 . S
C281 H261 0.950 . S
C281 C277 1.385 . S
C281 C280 1.374 . S
C282 C279 1.499 . S
C282 C283 1.373 . S
C282 C284 1.389 . S
C283 H262 0.950 . S
C283 C282 1.373 . S
C283 C299 1.377 . S
C284 C282 1.389 . S
C284 C285 1.524 . S
C284 C298 1.377 . S
C285 C284 1.524 . S
C285 C286 1.397 . S
C285 C290 1.363 1_545 S
C286 H263 0.950 . S
C286 C285 1.397 . S
C286 C287 1.334 . S
C287 H264 0.950 . S
C287 C286 1.334 . S
C287 C288 1.287 1_545 S
C288 C287 1.287 1_565 S
C288 C289 1.524 . S
C288 H307 0.913 . S
C289 H265 0.950 . S
C289 C288 1.524 . S
C289 C290 1.415 . S
C290 H266 0.950 . S
C290 C285 1.363 1_565 S
C290 C289 1.415 . S
C291 H267 0.951 . S
C291 C292 1.366 . S
C291 C293 1.388 . S
C292 C291 1.366 . S
C292 C296 1.385 . S
C293 H268 0.951 . S
C293 C291 1.388 . S
C293 C294 1.366 . S
C294 C293 1.366 . S
C294 C295 1.414 . S
C294 C297 1.499 . S
C295 H269 0.950 1_545 S
C295 C294 1.414 . S
C295 C296 1.374 . S
C296 H270 0.950 1_545 S
C296 C292 1.385 . S
C296 C295 1.374 . S
C297 C294 1.499 . S
C297 C298 1.373 . S
C297 C299 1.389 . S
C298 H271 0.950 . S
C298 C284 1.377 . S
C298 C297 1.373 . S
C299 C283 1.377 . S
C299 C297 1.389 . S
C299 C300 1.524 . S
C300 C299 1.524 . S
C300 C301 1.397 . S
C300 C305 1.363 . S
C301 H272 0.950 . S
C301 C300 1.397 . S
C301 C302 1.334 . S
C302 H273 0.950 . S
C302 C301 1.334 . S
C302 C303 1.287 . S
C303 C302 1.287 . S
C303 C304 1.524 . S
C303 H306 0.999 . S
C304 H274 0.950 . S
C304 C303 1.524 . S
C304 C305 1.415 . S
C305 H275 0.950 . S
C305 C300 1.363 . S
C305 C304 1.415 . S
H306 C303 0.999 . S
H307 C288 0.913 . S
H308 C326 0.951 . S
H309 C328 0.951 . S
H310 C330 0.950 . S
H311 C331 0.950 . S
H312 C333 0.950 . S
H313 C336 0.950 . S
H314 C337 0.950 . S
H315 C339 0.950 . S
H316 C340 0.950 . S
H317 C341 0.951 . S
H318 C343 0.951 . S
H319 C345 0.950 . S
H320 C346 0.950 . S
H321 C348 0.950 . S
H322 C351 0.950 . S
H323 C352 0.950 . S
H324 C354 0.950 . S
H325 C355 0.950 . S
C326 H308 0.951 . S
C326 C327 1.366 . S
C326 C328 1.388 . S
C327 C326 1.366 . S
C327 C331 1.385 . S
C328 H309 0.951 . S
C328 C326 1.388 . S
C328 C329 1.366 . S
C329 C328 1.366 . S
C329 C330 1.414 . S
C329 C332 1.499 . S
C330 H310 0.950 . S
C330 C329 1.414 . S
C330 C331 1.374 . S
C331 H311 0.950 . S
C331 C327 1.385 . S
C331 C330 1.374 . S
C332 C329 1.499 . S
C332 C333 1.373 1_554 S
C332 C334 1.389 . S
C333 H312 0.950 . S
C333 C332 1.373 1_556 S
C333 C349 1.377 . S
C334 C332 1.389 . S
C334 C335 1.524 . S
C334 C348 1.377 . S
C335 C334 1.524 . S
C335 C336 1.397 . S
C335 C340 1.363 . S
C336 H313 0.950 . S
C336 C335 1.397 . S
C336 C337 1.334 . S
C337 H314 0.950 . S
C337 C336 1.334 . S
C337 C338 1.287 . S
C338 C337 1.287 . S
C338 C339 1.524 . S
C338 H357 0.913 . S
C339 H315 0.950 . S
C339 C338 1.524 . S
C339 C340 1.415 . S
C340 H316 0.950 . S
C340 C335 1.363 . S
C340 C339 1.415 . S
C341 H317 0.951 . S
C341 C342 1.366 . S
C341 C343 1.388 . S
C342 C341 1.366 . S
C342 C346 1.385 . S
C343 H318 0.951 . S
C343 C341 1.388 . S
C343 C344 1.366 . S
C344 C343 1.366 . S
C344 C345 1.414 . S
C344 C347 1.499 . S
C345 H319 0.950 . S
C345 C344 1.414 . S
C345 C346 1.374 . S
C346 H320 0.950 . S
C346 C342 1.385 . S
C346 C345 1.374 . S
C347 C344 1.499 . S
C347 C348 1.373 1_556 S
C347 C349 1.389 . S
C348 H321 0.950 . S
C348 C334 1.377 . S
C348 C347 1.373 1_554 S
C349 C333 1.377 . S
C349 C347 1.389 . S
C349 C350 1.524 . S
C350 C349 1.524 . S
C350 C351 1.397 . S
C350 C355 1.363 . S
C351 H322 0.950 . S
C351 C350 1.397 . S
C351 C352 1.334 . S
C352 H323 0.950 . S
C352 C351 1.334 . S
C352 C353 1.287 . S
C353 C352 1.287 . S
C353 C354 1.524 . S
C353 H356 0.999 . S
C354 H324 0.950 . S
C354 C353 1.524 . S
C354 C355 1.415 . S
C355 H325 0.950 . S
C355 C350 1.363 . S
C355 C354 1.415 . S
H356 C353 0.999 . S
H357 C338 0.913 . S
H358 C376 0.951 . S
H359 C378 0.951 . S
H360 C380 0.950 . S
H361 C381 0.950 . S
H362 C383 0.950 . S
H363 C386 0.950 . S
H364 C387 0.950 . S
H365 C389 0.950 . S
H366 C390 0.950 . S
H367 C391 0.951 . S
H368 C393 0.951 . S
H369 C395 0.950 . S
H370 C396 0.950 . S
H371 C398 0.950 . S
H372 C401 0.950 . S
H373 C402 0.950 . S
H374 C404 0.950 . S
H375 C405 0.950 . S
C376 H358 0.951 . S
C376 C377 1.366 . S
C376 C378 1.388 . S
C377 C376 1.366 . S
C377 C381 1.385 . S
C378 H359 0.951 . S
C378 C376 1.388 . S
C378 C379 1.366 . S
C379 C378 1.366 . S
C379 C380 1.414 . S
C379 C382 1.499 . S
C380 H360 0.950 . S
C380 C379 1.414 . S
C380 C381 1.374 . S
C381 H361 0.950 . S
C381 C377 1.385 . S
C381 C380 1.374 . S
C382 C379 1.499 . S
C382 C383 1.373 . S
C382 C384 1.389 . S
C383 H362 0.950 . S
C383 C382 1.373 . S
C383 C399 1.377 . S
C384 C382 1.389 . S
C384 C385 1.524 . S
C384 C398 1.377 . S
C385 C384 1.524 . S
C385 C386 1.397 . S
C385 C390 1.363 . S
C386 H363 0.950 . S
C386 C385 1.397 . S
C386 C387 1.334 . S
C387 H364 0.950 . S
C387 C386 1.334 . S
C387 C388 1.287 . S
C388 C387 1.287 . S
C388 C389 1.524 . S
C388 H407 0.913 . S
C389 H365 0.950 . S
C389 C388 1.524 . S
C389 C390 1.415 . S
C390 H366 0.950 . S
C390 C385 1.363 . S
C390 C389 1.415 . S
C391 H367 0.951 . S
C391 C392 1.366 . S
C391 C393 1.388 . S
C392 C391 1.366 . S
C392 C396 1.385 . S
C393 H368 0.951 . S
C393 C391 1.388 . S
C393 C394 1.366 . S
C394 C393 1.366 . S
C394 C395 1.414 . S
C394 C397 1.499 . S
C395 H369 0.950 . S
C395 C394 1.414 . S
C395 C396 1.374 . S
C396 H370 0.950 . S
C396 C392 1.385 . S
C396 C395 1.374 . S
C397 C394 1.499 . S
C397 C398 1.373 . S
C397 C399 1.389 . S
C398 H371 0.950 . S
C398 C384 1.377 . S
C398 C397 1.373 . S
C399 C383 1.377 . S
C399 C397 1.389 . S
C399 C400 1.524 . S
C400 C399 1.524 . S
C400 C401 1.397 . S
C400 C405 1.363 . S
C401 H372 0.950 . S
C401 C400 1.397 . S
C401 C402 1.334 . S
C402 H373 0.950 . S
C402 C401 1.334 . S
C402 C403 1.287 . S
C403 C402 1.287 . S
C403 C404 1.524 . S
C403 H406 0.999 . S
C404 H374 0.950 . S
C404 C403 1.524 . S
C404 C405 1.415 . S
C405 H375 0.950 . S
C405 C400 1.363 . S
C405 C404 1.415 . S
H406 C403 0.999 . S
H407 C388 0.913 . S
H408 C426 0.951 . S
H409 C428 0.951 . S
H410 C430 0.950 . S
H411 C431 0.950 . S
H412 C433 0.950 . S
H413 C436 0.950 1_556 S
H414 C437 0.950 . S
H415 C439 0.950 . S
H416 C440 0.950 . S
H417 C441 0.951 . S
H418 C443 0.951 . S
H419 C445 0.950 . S
H420 C446 0.950 . S
H421 C448 0.950 . S
H422 C451 0.950 1_554 S
H423 C452 0.950 . S
H424 C454 0.950 . S
H425 C455 0.950 . S
C426 H408 0.951 . S
C426 C427 1.366 . S
C426 C428 1.388 . S
C427 C426 1.366 . S
C427 C431 1.385 . S
C428 H409 0.951 . S
C428 C426 1.388 . S
C428 C429 1.366 . S
C429 C428 1.366 . S
C429 C430 1.414 . S
C429 C432 1.499 . S
C430 H410 0.950 . S
C430 C429 1.414 . S
C430 C431 1.374 . S
C431 H411 0.950 . S
C431 C427 1.385 . S
C431 C430 1.374 . S
C432 C429 1.499 . S
C432 C433 1.373 . S
C432 C434 1.389 1_556 S
C433 H412 0.950 . S
C433 C432 1.373 . S
C433 C449 1.377 . S
C434 C432 1.389 1_554 S
C434 C435 1.561 . S
C434 C448 1.377 . S
C435 C434 1.561 . S
C435 C436 1.350 1_655 S
C435 C440 1.372 . S
C436 H413 0.950 1_554 S
C436 C435 1.350 1_455 S
C436 C437 1.334 . S
C437 H414 0.950 . S
C437 C436 1.334 . S
C437 C438 1.287 . S
C438 C437 1.287 . S
C438 C439 1.524 . S
C438 H457 0.913 . S
C439 H415 0.950 . S
C439 C438 1.524 . S
C439 C440 1.415 1_455 S
C440 H416 0.950 . S
C440 C435 1.372 . S
C440 C439 1.415 1_655 S
C441 H417 0.951 . S
C441 C442 1.366 . S
C441 C443 1.388 . S
C442 C441 1.366 . S
C442 C446 1.385 . S
C443 H418 0.951 . S
C443 C441 1.388 . S
C443 C444 1.366 . S
C444 C443 1.366 . S
C444 C445 1.414 . S
C444 C447 1.499 . S
C445 H419 0.950 . S
C445 C444 1.414 . S
C445 C446 1.374 . S
C446 H420 0.950 . S
C446 C442 1.385 . S
C446 C445 1.374 . S
C447 C444 1.499 . S
C447 C448 1.373 . S
C447 C449 1.389 1_554 S
C448 H421 0.950 . S
C448 C434 1.377 . S
C448 C447 1.373 . S
C449 C433 1.377 . S
C449 C447 1.389 1_556 S
C449 C450 1.524 . S
C450 C449 1.524 . S
C450 C451 1.397 . S
C450 C455 1.363 . S
C451 H422 0.950 1_556 S
C451 C450 1.397 . S
C451 C452 1.334 . S
C452 H423 0.950 . S
C452 C451 1.334 . S
C452 C453 1.287 . S
C453 C452 1.287 . S
C453 C454 1.524 . S
C453 H456 0.999 . S
C454 H424 0.950 . S
C454 C453 1.524 . S
C454 C455 1.415 . S
C455 H425 0.950 . S
C455 C450 1.363 . S
C455 C454 1.415 . S
H456 C453 0.999 . S
H457 C438 0.913 . S
H458 C476 0.951 . S
H459 C478 0.951 . S
H460 C480 0.950 1_545 S
H461 C481 0.950 1_545 S
H462 C483 0.950 . S
H463 C486 0.950 . S
H464 C487 0.950 . S
H465 C489 0.950 . S
H466 C490 0.950 . S
H467 C491 0.951 1_545 S
H468 C493 0.951 1_545 S
H469 C495 0.950 . S
H470 C496 0.950 . S
H471 C498 0.950 . S
H472 C501 0.950 . S
H473 C502 0.950 . S
H474 C504 0.944 1_545 S
H475 C505 0.950 1_545 S
C476 H458 0.951 . S
C476 C477 1.366 . S
C476 C478 1.388 . S
C477 C476 1.366 . S
C477 C481 1.385 . S
C478 H459 0.951 . S
C478 C476 1.388 . S
C478 C479 1.366 . S
C479 C478 1.366 . S
C479 C480 1.414 . S
C479 C482 1.499 . S
C480 H460 0.950 1_565 S
C480 C479 1.414 . S
C480 C481 1.374 . S
C481 H461 0.950 1_565 S
C481 C477 1.385 . S
C481 C480 1.374 . S
C482 C479 1.499 . S
C482 C483 1.373 . S
C482 C484 1.389 . S
C483 H462 0.950 . S
C483 C482 1.373 . S
C483 C499 1.377 . S
C484 C482 1.389 . S
C484 C485 1.524 . S
C484 C498 1.377 . S
C485 C484 1.524 . S
C485 C486 1.397 . S
C485 C490 1.363 . S
C486 H463 0.950 . S
C486 C485 1.397 . S
C486 C487 1.334 . S
C487 H464 0.950 . S
C487 C486 1.334 . S
C487 C488 1.287 . S
C488 C487 1.287 . S
C488 C489 1.524 . S
C488 H507 0.913 . S
C489 H465 0.950 . S
C489 C488 1.524 . S
C489 C490 1.415 . S
C490 H466 0.950 . S
C490 C485 1.363 . S
C490 C489 1.415 . S
C491 H467 0.951 1_565 S
C491 C492 1.366 . S
C491 C493 1.388 . S
C492 C491 1.366 . S
C492 C496 1.385 . S
C493 H468 0.951 1_565 S
C493 C491 1.388 . S
C493 C494 1.366 . S
C494 C493 1.366 . S
C494 C495 1.414 . S
C494 C497 1.499 . S
C495 H469 0.950 . S
C495 C494 1.414 . S
C495 C496 1.374 . S
C496 H470 0.950 . S
C496 C492 1.385 . S
C496 C495 1.374 . S
C497 C494 1.499 . S
C497 C498 1.373 . S
C497 C499 1.389 . S
C498 H471 0.950 . S
C498 C484 1.377 . S
C498 C497 1.373 . S
C499 C483 1.377 . S
C499 C497 1.389 . S
C499 C500 1.524 . S
C500 C499 1.524 . S
C500 C501 1.397 . S
C500 C505 1.363 . S
C501 H472 0.950 . S
C501 C500 1.397 . S
C501 C502 1.334 . S
C502 H473 0.950 . S
C502 C501 1.334 . S
C502 C503 1.287 . S
C503 C502 1.287 . S
C503 C504 1.530 . S
C503 H506 0.999 . S
C504 H474 0.944 1_565 S
C504 C503 1.530 . S
C504 C505 1.416 . S
C505 H475 0.950 1_565 S
C505 C500 1.363 . S
C505 C504 1.416 . S
H506 C503 0.999 . S
H507 C488 0.913 . S
H508 C526 0.951 . S
H509 C528 0.951 . S
H510 C530 0.950 . S
H511 C531 0.950 . S
H512 C533 0.950 . S
H513 C536 0.950 . S
H514 C537 0.950 . S
H515 C539 0.950 . S
H516 C540 0.950 . S
H517 C541 0.951 . S
H518 C543 0.951 . S
H519 C545 0.950 . S
H520 C546 0.950 . S
H521 C548 0.950 . S
H522 C551 0.950 . S
H523 C552 0.950 . S
H524 C554 0.950 . S
H525 C555 0.950 . S
C526 H508 0.951 . S
C526 C527 1.366 . S
C526 C528 1.388 . S
C527 C526 1.366 . S
C527 C531 1.385 . S
C528 H509 0.951 . S
C528 C526 1.388 . S
C528 C529 1.366 . S
C529 C528 1.366 . S
C529 C530 1.414 . S
C529 C532 1.499 . S
C530 H510 0.950 . S
C530 C529 1.414 . S
C530 C531 1.374 . S
C531 H511 0.950 . S
C531 C527 1.385 . S
C531 C530 1.374 . S
C532 C529 1.499 . S
C532 C533 1.373 . S
C532 C534 1.389 . S
C533 H512 0.950 . S
C533 C532 1.373 . S
C533 C549 1.377 1_556 S
C534 C532 1.389 . S
C534 C535 1.524 . S
C534 C548 1.377 1_556 S
C535 C534 1.524 . S
C535 C536 1.397 . S
C535 C540 1.363 . S
C536 H513 0.950 . S
C536 C535 1.397 . S
C536 C537 1.334 . S
C537 H514 0.950 . S
C537 C536 1.334 . S
C537 C538 1.287 . S
C538 C537 1.287 . S
C538 C539 1.524 . S
C538 H557 0.913 . S
C539 H515 0.950 . S
C539 C538 1.524 . S
C539 C540 1.415 . S
C540 H516 0.950 . S
C540 C535 1.363 . S
C540 C539 1.415 . S
C541 H517 0.951 . S
C541 C542 1.366 . S
C541 C543 1.388 . S
C542 C541 1.366 . S
C542 C546 1.385 . S
C543 H518 0.951 . S
C543 C541 1.388 . S
C543 C544 1.366 . S
C544 C543 1.366 . S
C544 C545 1.414 . S
C544 C547 1.499 . S
C545 H519 0.950 . S
C545 C544 1.414 . S
C545 C546 1.374 . S
C546 H520 0.950 . S
C546 C542 1.385 . S
C546 C545 1.374 . S
C547 C544 1.499 . S
C547 C548 1.373 . S
C547 C549 1.389 . S
C548 H521 0.950 . S
C548 C534 1.377 1_554 S
C548 C547 1.373 . S
C549 C533 1.377 1_554 S
C549 C547 1.389 . S
C549 C550 1.524 . S
C550 C549 1.524 . S
C550 C551 1.397 . S
C550 C555 1.363 . S
C551 H522 0.950 . S
C551 C550 1.397 . S
C551 C552 1.334 . S
C552 H523 0.950 . S
C552 C551 1.334 . S
C552 C553 1.287 . S
C553 C552 1.287 . S
C553 C554 1.524 . S
C553 H556 0.999 . S
C554 H524 0.950 . S
C554 C553 1.524 . S
C554 C555 1.415 . S
C555 H525 0.950 . S
C555 C550 1.363 . S
C555 C554 1.415 . S
H556 C553 0.999 . S
H557 C538 0.913 . S
H558 C576 0.951 . S
H559 C578 0.951 . S
H560 C580 0.950 . S
H561 C581 0.950 . S
H562 C583 0.950 . S
H563 C586 0.950 . S
H564 C587 0.950 . S
H565 C589 0.950 . S
H566 C590 0.950 . S
H567 C591 0.951 . S
H568 C593 0.951 . S
H569 C595 0.950 . S
H570 C596 0.950 . S
H571 C598 0.950 . S
H572 C601 0.950 . S
H573 C602 0.950 . S
H574 C604 0.950 . S
H575 C605 0.950 . S
C576 H558 0.951 . S
C576 C577 1.366 . S
C576 C578 1.388 . S
C577 C576 1.366 . S
C577 C581 1.385 . S
C578 H559 0.951 . S
C578 C576 1.388 . S
C578 C579 1.366 . S
C579 C578 1.366 . S
C579 C580 1.414 . S
C579 C582 1.499 . S
C580 H560 0.950 . S
C580 C579 1.414 . S
C580 C581 1.374 . S
C581 H561 0.950 . S
C581 C577 1.385 . S
C581 C580 1.374 . S
C582 C579 1.499 . S
C582 C583 1.373 . S
C582 C584 1.389 . S
C583 H562 0.950 . S
C583 C582 1.373 . S
C583 C599 1.377 . S
C584 C582 1.389 . S
C584 C585 1.524 . S
C584 C598 1.377 . S
C585 C584 1.524 . S
C585 C586 1.397 . S
C585 C590 1.363 . S
C586 H563 0.950 . S
C586 C585 1.397 . S
C586 C587 1.334 . S
C587 H564 0.950 . S
C587 C586 1.334 . S
C587 C588 1.287 . S
C588 C587 1.287 . S
C588 C589 1.524 . S
C588 H607 0.913 . S
C589 H565 0.950 . S
C589 C588 1.524 . S
C589 C590 1.415 . S
C590 H566 0.950 . S
C590 C585 1.363 . S
C590 C589 1.415 . S
C591 H567 0.951 . S
C591 C592 1.366 . S
C591 C593 1.388 . S
C592 C591 1.366 . S
C592 C596 1.385 . S
C593 H568 0.951 . S
C593 C591 1.388 . S
C593 C594 1.366 . S
C594 C593 1.366 . S
C594 C595 1.414 . S
C594 C597 1.499 . S
C595 H569 0.950 . S
C595 C594 1.414 . S
C595 C596 1.374 . S
C596 H570 0.950 . S
C596 C592 1.385 . S
C596 C595 1.374 . S
C597 C594 1.499 . S
C597 C598 1.373 . S
C597 C599 1.389 . S
C598 H571 0.950 . S
C598 C584 1.377 . S
C598 C597 1.373 . S
C599 C583 1.377 . S
C599 C597 1.389 . S
C599 C600 1.524 . S
C600 C599 1.524 . S
C600 C601 1.397 . S
C600 C605 1.363 . S
C601 H572 0.950 . S
C601 C600 1.397 . S
C601 C602 1.334 . S
C602 H573 0.950 . S
C602 C601 1.334 . S
C602 C603 1.287 . S
C603 C602 1.287 . S
C603 C604 1.524 . S
C603 H606 0.999 . S
C604 H574 0.950 . S
C604 C603 1.524 . S
C604 C605 1.415 . S
C605 H575 0.950 . S
C605 C600 1.363 . S
C605 C604 1.415 . S
H606 C603 0.999 . S
H607 C588 0.913 . S
H608 C626 0.951 . S
H609 C628 0.951 . S
H610 C630 0.950 . S
H611 C631 0.950 . S
H612 C633 0.950 . S
H613 C636 0.950 . S
H614 C637 0.950 1_554 S
H615 C639 0.950 . S
H616 C640 0.950 . S
H617 C641 0.951 . S
H618 C643 0.951 . S
H619 C645 0.950 . S
H620 C646 0.950 . S
H621 C648 0.950 . S
H622 C651 0.950 . S
H623 C652 0.950 . S
H624 C654 0.950 . S
H625 C655 0.950 . S
C626 H608 0.951 . S
C626 C627 1.366 1_556 S
C626 C628 1.388 . S
C627 C626 1.366 1_554 S
C627 C631 1.385 . S
C628 H609 0.951 . S
C628 C626 1.388 . S
C628 C629 1.366 . S
C629 C628 1.366 . S
C629 C630 1.414 1_556 S
C629 C632 1.499 . S
C630 H610 0.950 . S
C630 C629 1.414 1_554 S
C630 C631 1.374 . S
C631 H611 0.950 . S
C631 C627 1.385 . S
C631 C630 1.374 . S
C632 C629 1.499 . S
C632 C633 1.373 . S
C632 C634 1.389 . S
C633 H612 0.950 . S
C633 C632 1.373 . S
C633 C649 1.377 . S
C634 C632 1.389 . S
C634 C635 1.524 . S
C634 C648 1.377 . S
C635 C634 1.524 . S
C635 C636 1.397 . S
C635 C640 1.363 . S
C636 H613 0.950 . S
C636 C635 1.397 . S
C636 C637 1.334 . S
C637 H614 0.950 1_556 S
C637 C636 1.334 . S
C637 C638 1.287 . S
C638 C637 1.287 . S
C638 C639 1.524 . S
C638 H657 0.913 . S
C639 H615 0.950 . S
C639 C638 1.524 . S
C639 C640 1.415 . S
C640 H616 0.950 . S
C640 C635 1.363 . S
C640 C639 1.415 . S
C641 H617 0.951 . S
C641 C642 1.366 . S
C641 C643 1.388 . S
C642 C641 1.366 . S
C642 C646 1.385 . S
C643 H618 0.951 . S
C643 C641 1.388 . S
C643 C644 1.366 . S
C644 C643 1.366 . S
C644 C645 1.414 . S
C644 C647 1.499 . S
C645 H619 0.950 . S
C645 C644 1.414 . S
C645 C646 1.374 . S
C646 H620 0.950 . S
C646 C642 1.385 . S
C646 C645 1.374 . S
C647 C644 1.499 . S
C647 C648 1.373 . S
C647 C649 1.389 . S
C648 H621 0.950 . S
C648 C634 1.377 . S
C648 C647 1.373 . S
C649 C633 1.377 . S
C649 C647 1.389 . S
C649 C650 1.524 . S
C650 C649 1.524 . S
C650 C651 1.397 . S
C650 C655 1.363 . S
C651 H622 0.950 . S
C651 C650 1.397 . S
C651 C652 1.334 . S
C652 H623 0.950 . S
C652 C651 1.334 . S
C652 C653 1.287 . S
C653 C652 1.287 . S
C653 C654 1.524 . S
C653 H656 0.999 . S
C654 H624 0.950 . S
C654 C653 1.524 . S
C654 C655 1.415 . S
C655 H625 0.950 . S
C655 C650 1.363 . S
C655 C654 1.415 . S
H656 C653 0.999 . S
H657 C638 0.913 . S
H658 C676 0.951 . S
H659 C678 0.951 . S
H660 C680 0.950 . S
H661 C681 0.950 . S
H662 C683 0.950 . S
H663 C686 0.950 . S
H664 C687 0.950 . S
H665 C689 0.950 . S
H666 C690 0.950 . S
H667 C691 0.951 . S
H668 C693 0.951 . S
H669 C695 0.950 . S
H670 C696 0.950 . S
H671 C698 0.950 . S
H672 C701 0.950 . S
H673 C702 0.950 . S
H674 C704 0.950 . S
H675 C705 0.950 . S
C676 H658 0.951 . S
C676 C677 1.366 . S
C676 C678 1.388 . S
C677 C676 1.366 . S
C677 C681 1.385 . S
C678 H659 0.951 . S
C678 C676 1.388 . S
C678 C679 1.366 . S
C679 C678 1.366 . S
C679 C680 1.414 . S
C679 C682 1.499 . S
C680 H660 0.950 . S
C680 C679 1.414 . S
C680 C681 1.374 . S
C681 H661 0.950 . S
C681 C677 1.385 . S
C681 C680 1.374 . S
C682 C679 1.499 . S
C682 C683 1.373 . S
C682 C684 1.389 . S
C683 H662 0.950 . S
C683 C682 1.373 . S
C683 C699 1.377 . S
C684 C682 1.389 . S
C684 C685 1.524 . S
C684 C698 1.377 . S
C685 C684 1.524 . S
C685 C686 1.397 . S
C685 C690 1.363 . S
C686 H663 0.950 . S
C686 C685 1.397 . S
C686 C687 1.334 . S
C687 H664 0.950 . S
C687 C686 1.334 . S
C687 C688 1.287 . S
C688 C687 1.287 . S
C688 C689 1.524 . S
C688 H707 0.913 . S
C689 H665 0.950 . S
C689 C688 1.524 . S
C689 C690 1.415 . S
C690 H666 0.950 . S
C690 C685 1.363 . S
C690 C689 1.415 . S
C691 H667 0.951 . S
C691 C692 1.366 . S
C691 C693 1.388 . S
C692 C691 1.366 . S
C692 C696 1.385 . S
C693 H668 0.951 . S
C693 C691 1.388 . S
C693 C694 1.366 . S
C694 C693 1.366 . S
C694 C695 1.414 . S
C694 C697 1.499 . S
C695 H669 0.950 . S
C695 C694 1.414 . S
C695 C696 1.374 . S
C696 H670 0.950 . S
C696 C692 1.385 . S
C696 C695 1.374 . S
C697 C694 1.499 . S
C697 C698 1.373 . S
C697 C699 1.389 . S
C698 H671 0.950 . S
C698 C684 1.377 . S
C698 C697 1.373 . S
C699 C683 1.377 . S
C699 C697 1.389 . S
C699 C700 1.524 . S
C700 C699 1.524 . S
C700 C701 1.397 . S
C700 C705 1.363 . S
C701 H672 0.950 . S
C701 C700 1.397 . S
C701 C702 1.334 . S
C702 H673 0.950 . S
C702 C701 1.334 . S
C702 C703 1.287 . S
C703 C702 1.287 . S
C703 C704 1.524 . S
C703 H706 0.999 . S
C704 H674 0.950 . S
C704 C703 1.524 . S
C704 C705 1.415 . S
C705 H675 0.950 . S
C705 C700 1.363 . S
C705 C704 1.415 . S
H706 C703 0.999 . S
H707 C688 0.913 . S
H708 C726 0.951 . S
H709 C728 0.951 . S
H710 C730 0.950 . S
H711 C731 0.950 . S
H712 C733 0.950 . S
H713 C736 0.950 . S
H714 C737 0.950 . S
H715 C739 0.950 . S
H716 C740 0.950 . S
H717 C741 0.951 . S
H718 C743 0.951 . S
H719 C745 0.950 . S
H720 C746 0.950 . S
H721 C748 0.950 . S
H722 C751 0.950 . S
H723 C752 0.950 . S
H724 C754 0.950 . S
H725 C755 0.950 . S
C726 H708 0.951 . S
C726 C727 1.366 . S
C726 C728 1.388 1_554 S
C727 C726 1.366 . S
C727 C731 1.385 . S
C728 H709 0.951 . S
C728 C726 1.388 1_556 S
C728 C729 1.366 . S
C729 C728 1.366 . S
C729 C730 1.414 . S
C729 C732 1.499 . S
C730 H710 0.950 . S
C730 C729 1.414 . S
C730 C731 1.374 1_556 S
C731 H711 0.950 . S
C731 C727 1.385 . S
C731 C730 1.374 1_554 S
C732 C729 1.499 . S
C732 C733 1.373 . S
C732 C734 1.389 . S
C733 H712 0.950 . S
C733 C732 1.373 . S
C733 C749 1.377 . S
C734 C732 1.389 . S
C734 C735 1.524 . S
C734 C748 1.377 . S
C735 C734 1.524 . S
C735 C736 1.397 1_556 S
C735 C740 1.363 . S
C736 H713 0.950 . S
C736 C735 1.397 1_554 S
C736 C737 1.334 . S
C737 H714 0.950 . S
C737 C736 1.334 . S
C737 C738 1.287 . S
C738 C737 1.287 . S
C738 C739 1.524 1_554 S
C738 H757 0.913 . S
C739 H715 0.950 . S
C739 C738 1.524 1_556 S
C739 C740 1.415 . S
C740 H716 0.950 . S
C740 C735 1.363 . S
C740 C739 1.415 . S
C741 H717 0.951 . S
C741 C742 1.366 . S
C741 C743 1.388 . S
C742 C741 1.366 . S
C742 C746 1.385 . S
C743 H718 0.951 . S
C743 C741 1.388 . S
C743 C744 1.366 . S
C744 C743 1.366 . S
C744 C745 1.414 . S
C744 C747 1.499 . S
C745 H719 0.950 . S
C745 C744 1.414 . S
C745 C746 1.374 . S
C746 H720 0.950 . S
C746 C742 1.385 . S
C746 C745 1.374 . S
C747 C744 1.499 . S
C747 C748 1.373 . S
C747 C749 1.389 . S
C748 H721 0.950 . S
C748 C734 1.377 . S
C748 C747 1.373 . S
C749 C733 1.377 . S
C749 C747 1.389 . S
C749 C750 1.524 . S
C750 C749 1.524 . S
C750 C751 1.397 . S
C750 C755 1.363 . S
C751 H722 0.950 . S
C751 C750 1.397 . S
C751 C752 1.334 . S
C752 H723 0.950 . S
C752 C751 1.334 . S
C752 C753 1.287 . S
C753 C752 1.287 . S
C753 C754 1.524 . S
C753 H756 0.999 . S
C754 H724 0.950 . S
C754 C753 1.524 . S
C754 C755 1.415 . S
C755 H725 0.950 . S
C755 C750 1.363 . S
C755 C754 1.415 . S
H756 C753 0.999 . S
H757 C738 0.913 . S
H758 C776 0.951 . S
H759 C778 0.951 . S
H760 C780 0.950 . S
H761 C781 0.950 . S
H762 C783 0.950 . S
H763 C786 0.950 . S
H764 C787 0.950 . S
H765 C789 0.950 . S
H766 C790 0.950 . S
H767 C791 0.951 . S
H768 C793 0.951 . S
H769 C795 0.950 . S
H770 C796 0.950 . S
H771 C798 0.950 . S
H772 C801 0.950 . S
H773 C802 0.950 . S
H774 C804 0.950 . S
H775 C805 0.950 . S
C776 H758 0.951 . S
C776 C777 1.366 . S
C776 C778 1.388 . S
C777 C776 1.366 . S
C777 C781 1.385 . S
C778 H759 0.951 . S
C778 C776 1.388 . S
C778 C779 1.366 . S
C779 C778 1.366 . S
C779 C780 1.414 . S
C779 C782 1.499 . S
C780 H760 0.950 . S
C780 C779 1.414 . S
C780 C781 1.374 . S
C781 H761 0.950 . S
C781 C777 1.385 . S
C781 C780 1.374 . S
C782 C779 1.499 . S
C782 C783 1.373 . S
C782 C784 1.389 . S
C783 H762 0.950 . S
C783 C782 1.373 . S
C783 C799 1.377 . S
C784 C782 1.389 . S
C784 C785 1.524 . S
C784 C798 1.377 . S
C785 C784 1.524 . S
C785 C786 1.397 . S
C785 C790 1.363 . S
C786 H763 0.950 . S
C786 C785 1.397 . S
C786 C787 1.334 . S
C787 H764 0.950 . S
C787 C786 1.334 . S
C787 C788 1.287 . S
C788 C787 1.287 . S
C788 C789 1.524 . S
C788 H807 0.913 . S
C789 H765 0.950 . S
C789 C788 1.524 . S
C789 C790 1.415 . S
C790 H766 0.950 . S
C790 C785 1.363 . S
C790 C789 1.415 . S
C791 H767 0.951 . S
C791 C792 1.366 . S
C791 C793 1.388 . S
C792 C791 1.366 . S
C792 C796 1.385 . S
C793 H768 0.951 . S
C793 C791 1.388 . S
C793 C794 1.366 . S
C794 C793 1.366 . S
C794 C795 1.414 . S
C794 C797 1.499 . S
C795 H769 0.950 . S
C795 C794 1.414 . S
C795 C796 1.374 . S
C796 H770 0.950 . S
C796 C792 1.385 . S
C796 C795 1.374 . S
C797 C794 1.499 . S
C797 C798 1.373 . S
C797 C799 1.389 . S
C798 H771 0.950 . S
C798 C784 1.377 . S
C798 C797 1.373 . S
C799 C783 1.377 . S
C799 C797 1.389 . S
C799 C800 1.524 . S
C800 C799 1.524 . S
C800 C801 1.397 . S
C800 C805 1.363 . S
C801 H772 0.950 . S
C801 C800 1.397 . S
C801 C802 1.334 . S
C802 H773 0.950 . S
C802 C801 1.334 . S
C802 C803 1.287 . S
C803 C802 1.287 . S
C803 C804 1.524 . S
C803 H806 0.999 . S
C804 H774 0.950 . S
C804 C803 1.524 . S
C804 C805 1.415 . S
C805 H775 0.950 . S
C805 C800 1.363 . S
C805 C804 1.415 . S
H806 C803 0.999 . S
H807 C788 0.913 . S
H808 C826 0.951 . S
H809 C828 0.951 . S
H810 C830 0.950 . S
H811 C831 0.950 . S
H812 C833 0.950 . S
H813 C836 0.950 . S
H814 C837 0.950 . S
H815 C839 0.950 . S
H816 C840 0.950 . S
H817 C841 0.951 . S
H818 C843 0.951 . S
H819 C845 0.950 . S
H820 C846 0.950 . S
H821 C848 0.950 . S
H822 C851 0.950 . S
H823 C852 0.950 . S
H824 C854 0.950 . S
H825 C855 0.950 . S
C826 H808 0.951 . S
C826 C827 1.366 . S
C826 C828 1.388 . S
C827 C826 1.366 . S
C827 C831 1.385 . S
C828 H809 0.951 . S
C828 C826 1.388 . S
C828 C829 1.366 . S
C829 C828 1.366 . S
C829 C830 1.414 . S
C829 C832 1.499 . S
C830 H810 0.950 . S
C830 C829 1.414 . S
C830 C831 1.374 . S
C831 H811 0.950 . S
C831 C827 1.385 . S
C831 C830 1.374 . S
C832 C829 1.499 . S
C832 C833 1.373 . S
C832 C834 1.389 . S
C833 H812 0.950 . S
C833 C832 1.373 . S
C833 C849 1.377 . S
C834 C832 1.389 . S
C834 C835 1.524 . S
C834 C848 1.377 . S
C835 C834 1.524 . S
C835 C836 1.397 . S
C835 C840 1.363 . S
C836 H813 0.950 . S
C836 C835 1.397 . S
C836 C837 1.334 . S
C837 H814 0.950 . S
C837 C836 1.334 . S
C837 C838 1.287 . S
C838 C837 1.287 . S
C838 C839 1.524 . S
C838 H857 0.913 . S
C839 H815 0.950 . S
C839 C838 1.524 . S
C839 C840 1.415 . S
C840 H816 0.950 . S
C840 C835 1.363 . S
C840 C839 1.415 . S
C841 H817 0.951 . S
C841 C842 1.366 1_554 S
C841 C843 1.388 . S
C842 C841 1.366 1_556 S
C842 C846 1.385 . S
C843 H818 0.951 . S
C843 C841 1.388 . S
C843 C844 1.366 . S
C844 C843 1.366 . S
C844 C845 1.414 1_554 S
C844 C847 1.499 . S
C845 H819 0.950 . S
C845 C844 1.414 1_556 S
C845 C846 1.374 . S
C846 H820 0.950 . S
C846 C842 1.385 . S
C846 C845 1.374 . S
C847 C844 1.499 . S
C847 C848 1.373 . S
C847 C849 1.389 . S
C848 H821 0.950 . S
C848 C834 1.377 . S
C848 C847 1.373 . S
C849 C833 1.377 . S
C849 C847 1.389 . S
C849 C850 1.524 . S
C850 C849 1.524 . S
C850 C851 1.397 . S
C850 C855 1.363 . S
C851 H822 0.950 . S
C851 C850 1.397 . S
C851 C852 1.334 . S
C852 H823 0.950 . S
C852 C851 1.334 . S
C852 C853 1.287 . S
C853 C852 1.287 . S
C853 C854 1.524 . S
C853 H856 0.999 . S
C854 H824 0.950 . S
C854 C853 1.524 . S
C854 C855 1.415 . S
C855 H825 0.950 . S
C855 C850 1.363 . S
C855 C854 1.415 . S
H856 C853 0.999 . S
H857 C838 0.913 . S
H858 C876 0.951 . S
H859 C878 0.951 . S
H860 C880 0.950 . S
H861 C881 0.950 . S
H862 C883 0.950 . S
H863 C886 0.950 . S
H864 C887 0.950 . S
H865 C889 0.950 . S
H866 C890 0.950 . S
H867 C891 0.951 . S
H868 C893 0.951 . S
H869 C895 0.950 . S
H870 C896 0.950 . S
H871 C898 0.950 . S
H872 C901 0.950 . S
H873 C902 0.950 . S
H874 C904 0.950 . S
H875 C905 0.950 . S
C876 H858 0.951 . S
C876 C877 1.366 . S
C876 C878 1.388 . S
C877 C876 1.366 . S
C877 C881 1.385 . S
C878 H859 0.951 . S
C878 C876 1.388 . S
C878 C879 1.366 . S
C879 C878 1.366 . S
C879 C880 1.414 . S
C879 C882 1.499 . S
C880 H860 0.950 . S
C880 C879 1.414 . S
C880 C881 1.374 . S
C881 H861 0.950 . S
C881 C877 1.385 . S
C881 C880 1.374 . S
C882 C879 1.499 . S
C882 C883 1.373 . S
C882 C884 1.389 . S
C883 H862 0.950 . S
C883 C882 1.373 . S
C883 C899 1.377 . S
C884 C882 1.389 . S
C884 C885 1.524 . S
C884 C898 1.377 . S
C885 C884 1.524 . S
C885 C886 1.397 . S
C885 C890 1.363 . S
C886 H863 0.950 . S
C886 C885 1.397 . S
C886 C887 1.334 . S
C887 H864 0.950 . S
C887 C886 1.334 . S
C887 C888 1.287 . S
C888 C887 1.287 . S
C888 C889 1.524 . S
C888 H907 0.913 . S
C889 H865 0.950 . S
C889 C888 1.524 . S
C889 C890 1.415 . S
C890 H866 0.950 . S
C890 C885 1.363 . S
C890 C889 1.415 . S
C891 H867 0.951 . S
C891 C892 1.366 . S
C891 C893 1.388 . S
C892 C891 1.366 . S
C892 C896 1.385 . S
C893 H868 0.951 . S
C893 C891 1.388 . S
C893 C894 1.366 . S
C894 C893 1.366 . S
C894 C895 1.414 . S
C894 C897 1.499 . S
C895 H869 0.950 . S
C895 C894 1.414 . S
C895 C896 1.374 . S
C896 H870 0.950 . S
C896 C892 1.385 . S
C896 C895 1.374 . S
C897 C894 1.499 . S
C897 C898 1.373 . S
C897 C899 1.389 . S
C898 H871 0.950 . S
C898 C884 1.377 . S
C898 C897 1.373 . S
C899 C883 1.377 . S
C899 C897 1.389 . S
C899 C900 1.524 . S
C900 C899 1.524 . S
C900 C901 1.397 . S
C900 C905 1.363 . S
C901 H872 0.950 . S
C901 C900 1.397 . S
C901 C902 1.334 . S
C902 H873 0.950 . S
C902 C901 1.334 . S
C902 C903 1.287 . S
C903 C902 1.287 . S
C903 C904 1.524 . S
C903 H906 0.999 . S
C904 H874 0.950 . S
C904 C903 1.524 . S
C904 C905 1.415 . S
C905 H875 0.950 . S
C905 C900 1.363 . S
C905 C904 1.415 . S
H906 C903 0.999 . S
H907 C888 0.913 . S
H908 C926 0.951 . S
H909 C928 0.951 . S
H910 C930 0.950 . S
H911 C931 0.950 . S
H912 C933 0.950 . S
H913 C936 0.950 . S
H914 C937 0.950 . S
H915 C939 0.950 . S
H916 C940 0.950 . S
H917 C941 0.954 . S
H918 C943 0.951 . S
H919 C945 0.950 . S
H920 C946 0.950 . S
H921 C948 0.950 . S
H922 C951 0.950 . S
H923 C952 0.950 1_556 S
H924 C954 0.950 . S
H925 C955 0.950 . S
C926 H908 0.951 . S
C926 C927 1.366 . S
C926 C928 1.388 . S
C927 C926 1.366 . S
C927 C931 1.385 . S
C928 H909 0.951 . S
C928 C926 1.388 . S
C928 C929 1.366 . S
C929 C928 1.366 . S
C929 C930 1.414 . S
C929 C932 1.499 . S
C930 H910 0.950 . S
C930 C929 1.414 . S
C930 C931 1.374 . S
C931 H911 0.950 . S
C931 C927 1.385 . S
C931 C930 1.374 . S
C932 C929 1.499 . S
C932 C933 1.373 . S
C932 C934 1.389 . S
C933 H912 0.950 . S
C933 C932 1.373 . S
C933 C949 1.377 . S
C934 C932 1.389 . S
C934 C935 1.524 . S
C934 C948 1.377 . S
C935 C934 1.524 . S
C935 C936 1.397 . S
C935 C940 1.363 . S
C936 H913 0.950 . S
C936 C935 1.397 . S
C936 C937 1.334 . S
C937 H914 0.950 . S
C937 C936 1.334 . S
C937 C938 1.287 . S
C938 C937 1.287 . S
C938 C939 1.524 . S
C938 H957 0.913 . S
C939 H915 0.950 . S
C939 C938 1.524 . S
C939 C940 1.415 . S
C940 H916 0.950 . S
C940 C935 1.363 . S
C940 C939 1.415 . S
C941 H917 0.954 . S
C941 C942 1.348 1_554 S
C941 C943 1.403 . S
C942 C941 1.348 1_556 S
C942 C946 1.385 . S
C943 H918 0.951 . S
C943 C941 1.403 . S
C943 C944 1.366 . S
C944 C943 1.366 . S
C944 C945 1.414 1_554 S
C944 C947 1.499 . S
C945 H919 0.950 . S
C945 C944 1.414 1_556 S
C945 C946 1.374 . S
C946 H920 0.950 . S
C946 C942 1.385 . S
C946 C945 1.374 . S
C947 C944 1.499 . S
C947 C948 1.373 . S
C947 C949 1.389 . S
C948 H921 0.950 . S
C948 C934 1.377 . S
C948 C947 1.373 . S
C949 C933 1.377 . S
C949 C947 1.389 . S
C949 C950 1.524 . S
C950 C949 1.524 . S
C950 C951 1.397 . S
C950 C955 1.363 . S
C951 H922 0.950 . S
C951 C950 1.397 . S
C951 C952 1.334 . S
C952 H923 0.950 1_554 S
C952 C951 1.334 . S
C952 C953 1.287 . S
C953 C952 1.287 . S
C953 C954 1.524 . S
C953 H956 0.999 . S
C954 H924 0.950 . S
C954 C953 1.524 . S
C954 C955 1.415 . S
C955 H925 0.950 . S
C955 C950 1.363 . S
C955 C954 1.415 . S
H956 C953 0.999 . S
H957 C938 0.913 . S
H958 C976 0.951 . S
H959 C978 0.951 . S
H960 C980 0.950 . S
H961 C981 0.950 . S
H962 C983 0.950 . S
H963 C986 0.950 . S
H964 C987 0.950 . S
H965 C989 0.950 . S
H966 C990 0.950 . S
H967 C991 0.951 . S
H968 C993 0.951 . S
H969 C995 0.950 . S
H970 C996 0.950 . S
H971 C998 0.950 . S
H972 C1001 0.950 . S
H973 C1002 0.950 . S
H974 C1004 0.950 . S
H975 C1005 0.950 . S
C976 H958 0.951 . S
C976 C977 1.366 . S
C976 C978 1.388 . S
C977 C976 1.366 . S
C977 C981 1.385 . S
C978 H959 0.951 . S
C978 C976 1.388 . S
C978 C979 1.366 . S
C979 C978 1.366 . S
C979 C980 1.414 . S
C979 C982 1.499 . S
C980 H960 0.950 . S
C980 C979 1.414 . S
C980 C981 1.374 . S
C981 H961 0.950 . S
C981 C977 1.385 . S
C981 C980 1.374 . S
C982 C979 1.499 . S
C982 C983 1.373 . S
C982 C984 1.389 . S
C983 H962 0.950 . S
C983 C982 1.373 . S
C983 C999 1.377 . S
C984 C982 1.389 . S
C984 C985 1.524 . S
C984 C998 1.377 . S
C985 C984 1.524 . S
C985 C986 1.397 . S
C985 C990 1.363 . S
C986 H963 0.950 . S
C986 C985 1.397 . S
C986 C987 1.334 . S
C987 H964 0.950 . S
C987 C986 1.334 . S
C987 C988 1.287 . S
C988 C987 1.287 . S
C988 C989 1.524 . S
C988 H1007 0.901 1_655 S
C989 H965 0.950 . S
C989 C988 1.524 . S
C989 C990 1.415 . S
C990 H966 0.950 . S
C990 C985 1.363 . S
C990 C989 1.415 . S
C991 H967 0.951 . S
C991 C992 1.366 . S
C991 C993 1.388 . S
C992 C991 1.366 . S
C992 C996 1.385 . S
C993 H968 0.951 . S
C993 C991 1.388 . S
C993 C994 1.366 . S
C994 C993 1.366 . S
C994 C995 1.414 . S
C994 C997 1.499 . S
C995 H969 0.950 . S
C995 C994 1.414 . S
C995 C996 1.374 . S
C996 H970 0.950 . S
C996 C992 1.385 . S
C996 C995 1.374 . S
C997 C994 1.499 . S
C997 C998 1.373 . S
C997 C999 1.389 . S
C998 H971 0.950 . S
C998 C984 1.377 . S
C998 C997 1.373 . S
C999 C983 1.377 . S
C999 C997 1.389 . S
C999 C1000 1.524 . S
C1000 C999 1.524 . S
C1000 C1001 1.397 . S
C1000 C1005 1.363 . S
C1001 H972 0.950 . S
C1001 C1000 1.397 . S
C1001 C1002 1.334 . S
C1002 H973 0.950 . S
C1002 C1001 1.334 . S
C1002 C1003 1.287 . S
C1003 C1002 1.287 . S
C1003 C1004 1.524 . S
C1003 H1006 0.999 . S
C1004 H974 0.950 . S
C1004 C1003 1.524 . S
C1004 C1005 1.415 . S
C1005 H975 0.950 . S
C1005 C1000 1.363 . S
C1005 C1004 1.415 . S
H1006 C1003 0.999 . S
H1007 C988 0.901 1_455 S
H1008 C1026 0.951 . S
H1009 C1028 0.951 . S
H1010 C1030 0.950 . S
H1011 C1031 0.950 . S
H1012 C1033 0.950 . S
H1013 C1036 0.950 . S
H1014 C1037 0.950 . S
H1015 C1039 0.950 . S
H1016 C1040 0.950 . S
H1017 C1041 0.951 . S
H1018 C1043 0.951 . S
H1019 C1045 0.950 . S
H1020 C1046 0.950 . S
H1021 C1048 0.950 . S
H1022 C1051 0.950 . S
H1023 C1052 0.950 . S
H1024 C1054 0.950 . S
H1025 C1055 0.950 . S
C1026 H1008 0.951 . S
C1026 C1027 1.366 . S
C1026 C1028 1.388 1_556 S
C1027 C1026 1.366 . S
C1027 C1031 1.385 . S
C1028 H1009 0.951 . S
C1028 C1026 1.388 1_554 S
C1028 C1029 1.366 . S
C1029 C1028 1.366 . S
C1029 C1030 1.414 . S
C1029 C1032 1.499 . S
C1030 H1010 0.950 . S
C1030 C1029 1.414 . S
C1030 C1031 1.374 1_554 S
C1031 H1011 0.950 . S
C1031 C1027 1.385 . S
C1031 C1030 1.374 1_556 S
C1032 C1029 1.499 . S
C1032 C1033 1.373 . S
C1032 C1034 1.389 . S
C1033 H1012 0.950 . S
C1033 C1032 1.373 . S
C1033 C1049 1.377 . S
C1034 C1032 1.389 . S
C1034 C1035 1.524 . S
C1034 C1048 1.377 . S
C1035 C1034 1.524 . S
C1035 C1036 1.397 . S
C1035 C1040 1.363 . S
C1036 H1013 0.950 . S
C1036 C1035 1.397 . S
C1036 C1037 1.334 . S
C1037 H1014 0.950 . S
C1037 C1036 1.334 . S
C1037 C1038 1.287 . S
C1038 C1037 1.287 . S
C1038 C1039 1.524 . S
C1038 H1057 0.950 . S
C1039 H1015 0.950 . S
C1039 C1038 1.524 . S
C1039 C1040 1.415 . S
C1040 H1016 0.950 . S
C1040 C1035 1.363 . S
C1040 C1039 1.415 . S
C1041 H1017 0.951 . S
C1041 C1042 1.366 . S
C1041 C1043 1.388 . S
C1042 C1041 1.366 . S
C1042 C1046 1.385 . S
C1043 H1018 0.951 . S
C1043 C1041 1.388 . S
C1043 C1044 1.366 . S
C1044 C1043 1.366 . S
C1044 C1045 1.414 . S
C1044 C1047 1.499 . S
C1045 H1019 0.950 . S
C1045 C1044 1.414 . S
C1045 C1046 1.374 . S
C1046 H1020 0.950 . S
C1046 C1042 1.385 . S
C1046 C1045 1.374 . S
C1047 C1044 1.499 . S
C1047 C1048 1.373 . S
C1047 C1049 1.389 . S
C1048 H1021 0.950 . S
C1048 C1034 1.377 . S
C1048 C1047 1.373 . S
C1049 C1033 1.377 . S
C1049 C1047 1.389 . S
C1049 C1050 1.524 . S
C1050 C1049 1.524 . S
C1050 C1051 1.397 . S
C1050 C1055 1.363 . S
C1051 H1022 0.950 . S
C1051 C1050 1.397 . S
C1051 C1052 1.334 . S
C1052 H1023 0.950 . S
C1052 C1051 1.334 . S
C1052 C1053 1.287 . S
C1053 C1052 1.287 . S
C1053 C1054 1.524 . S
C1053 H1056 0.999 . S
C1054 H1024 0.950 . S
C1054 C1053 1.524 . S
C1054 C1055 1.415 . S
C1055 H1025 0.950 . S
C1055 C1050 1.363 . S
C1055 C1054 1.415 . S
H1056 C1053 0.999 . S
H1057 C1038 0.950 . S
H1058 C1076 0.951 . S
H1059 C1078 0.951 . S
H1060 C1080 0.950 . S
H1061 C1081 0.950 . S
H1062 C1083 0.950 . S
H1063 C1086 0.950 . S
H1064 C1087 0.950 . S
H1065 C1089 0.950 . S
H1066 C1090 0.950 . S
H1067 C1091 0.951 . S
H1068 C1093 0.951 . S
H1069 C1095 0.950 . S
H1070 C1096 0.950 . S
H1071 C1098 0.950 . S
H1072 C1101 0.950 . S
H1073 C1102 0.950 . S
H1074 C1104 0.950 . S
H1075 C1105 0.950 . S
C1076 H1058 0.951 . S
C1076 C1077 1.366 . S
C1076 C1078 1.388 . S
C1077 C1076 1.366 . S
C1077 C1081 1.385 . S
C1078 H1059 0.951 . S
C1078 C1076 1.388 . S
C1078 C1079 1.366 . S
C1079 C1078 1.366 . S
C1079 C1080 1.414 . S
C1079 C1082 1.499 . S
C1080 H1060 0.950 . S
C1080 C1079 1.414 . S
C1080 C1081 1.374 . S
C1081 H1061 0.950 . S
C1081 C1077 1.385 . S
C1081 C1080 1.374 . S
C1082 C1079 1.499 . S
C1082 C1083 1.373 . S
C1082 C1084 1.389 . S
C1083 H1062 0.950 . S
C1083 C1082 1.373 . S
C1083 C1099 1.377 . S
C1084 C1082 1.389 . S
C1084 C1085 1.524 . S
C1084 C1098 1.377 . S
C1085 C1084 1.524 . S
C1085 C1086 1.397 . S
C1085 C1090 1.363 . S
C1086 H1063 0.950 . S
C1086 C1085 1.397 . S
C1086 C1087 1.334 . S
C1087 H1064 0.950 . S
C1087 C1086 1.334 . S
C1087 C1088 1.287 . S
C1088 C1087 1.287 . S
C1088 C1089 1.524 . S
C1088 H1107 0.913 . S
C1089 H1065 0.950 . S
C1089 C1088 1.524 . S
C1089 C1090 1.415 . S
C1090 H1066 0.950 . S
C1090 C1085 1.363 . S
C1090 C1089 1.415 . S
C1091 H1067 0.951 . S
C1091 C1092 1.366 . S
C1091 C1093 1.388 . S
C1092 C1091 1.366 . S
C1092 C1096 1.385 . S
C1093 H1068 0.951 . S
C1093 C1091 1.388 . S
C1093 C1094 1.366 . S
C1094 C1093 1.366 . S
C1094 C1095 1.414 . S
C1094 C1097 1.499 . S
C1095 H1069 0.950 . S
C1095 C1094 1.414 . S
C1095 C1096 1.374 . S
C1096 H1070 0.950 . S
C1096 C1092 1.385 . S
C1096 C1095 1.374 . S
C1097 C1094 1.499 . S
C1097 C1098 1.373 . S
C1097 C1099 1.389 . S
C1098 H1071 0.950 . S
C1098 C1084 1.377 . S
C1098 C1097 1.373 . S
C1099 C1083 1.377 . S
C1099 C1097 1.389 . S
C1099 C1100 1.524 . S
C1100 C1099 1.524 . S
C1100 C1101 1.397 . S
C1100 C1105 1.363 . S
C1101 H1072 0.950 . S
C1101 C1100 1.397 . S
C1101 C1102 1.334 . S
C1102 H1073 0.950 . S
C1102 C1101 1.334 . S
C1102 C1103 1.287 . S
C1103 C1102 1.287 . S
C1103 C1104 1.524 . S
C1103 H1106 0.999 . S
C1104 H1074 0.950 . S
C1104 C1103 1.524 . S
C1104 C1105 1.415 . S
C1105 H1075 0.950 . S
C1105 C1100 1.363 . S
C1105 C1104 1.415 . S
H1106 C1103 0.999 . S
H1107 C1088 0.913 . S
H1108 C1126 0.951 . S
H1109 C1128 0.951 . S
H1110 C1130 0.950 . S
H1111 C1131 0.950 . S
H1112 C1133 0.950 . S
H1113 C1136 0.950 . S
H1114 C1137 0.950 . S
H1115 C1139 0.950 . S
H1116 C1140 0.950 . S
H1117 C1141 0.951 . S
H1118 C1143 0.951 . S
H1119 C1145 0.950 . S
H1120 C1146 0.948 1_554 S
H1121 C1148 0.950 . S
H1122 C1151 0.950 . S
H1123 C1152 0.950 . S
H1124 C1154 0.950 . S
H1125 C1155 0.950 . S
C1126 H1108 0.951 . S
C1126 C1127 1.366 . S
C1126 C1128 1.388 . S
C1127 C1126 1.366 . S
C1127 C1131 1.385 . S
C1128 H1109 0.951 . S
C1128 C1126 1.388 . S
C1128 C1129 1.366 . S
C1129 C1128 1.366 . S
C1129 C1130 1.414 . S
C1129 C1132 1.499 . S
C1130 H1110 0.950 . S
C1130 C1129 1.414 . S
C1130 C1131 1.374 . S
C1131 H1111 0.950 . S
C1131 C1127 1.385 . S
C1131 C1130 1.374 . S
C1132 C1129 1.499 . S
C1132 C1133 1.373 . S
C1132 C1134 1.389 . S
C1133 H1112 0.950 . S
C1133 C1132 1.373 . S
C1133 C1149 1.377 . S
C1134 C1132 1.389 . S
C1134 C1135 1.524 . S
C1134 C1148 1.377 . S
C1135 C1134 1.524 . S
C1135 C1136 1.397 . S
C1135 C1140 1.363 . S
C1136 H1113 0.950 . S
C1136 C1135 1.397 . S
C1136 C1137 1.334 . S
C1137 H1114 0.950 . S
C1137 C1136 1.334 . S
C1137 C1138 1.287 . S
C1138 C1137 1.287 . S
C1138 C1139 1.524 . S
C1138 H1157 0.913 . S
C1139 H1115 0.950 . S
C1139 C1138 1.524 . S
C1139 C1140 1.415 . S
C1140 H1116 0.950 . S
C1140 C1135 1.363 . S
C1140 C1139 1.415 . S
C1141 H1117 0.951 . S
C1141 C1142 1.366 . S
C1141 C1143 1.388 . S
C1142 C1141 1.366 . S
C1142 C1146 1.385 . S
C1143 H1118 0.951 . S
C1143 C1141 1.388 . S
C1143 C1144 1.366 1_556 S
C1144 C1143 1.366 1_554 S
C1144 C1145 1.414 . S
C1144 C1147 1.499 . S
C1145 H1119 0.950 . S
C1145 C1144 1.414 . S
C1145 C1146 1.374 1_554 S
C1146 H1120 0.948 1_556 S
C1146 C1142 1.385 . S
C1146 C1145 1.374 1_556 S
C1147 C1144 1.499 . S
C1147 C1148 1.373 . S
C1147 C1149 1.389 . S
C1148 H1121 0.950 . S
C1148 C1134 1.377 . S
C1148 C1147 1.373 . S
C1149 C1133 1.377 . S
C1149 C1147 1.389 . S
C1149 C1150 1.524 . S
C1150 C1149 1.524 . S
C1150 C1151 1.397 . S
C1150 C1155 1.363 . S
C1151 H1122 0.950 . S
C1151 C1150 1.397 . S
C1151 C1152 1.334 . S
C1152 H1123 0.950 . S
C1152 C1151 1.334 . S
C1152 C1153 1.287 . S
C1153 C1152 1.287 . S
C1153 C1154 1.524 . S
C1153 H1156 0.999 . S
C1154 H1124 0.950 . S
C1154 C1153 1.524 . S
C1154 C1155 1.415 . S
C1155 H1125 0.950 . S
C1155 C1150 1.363 . S
C1155 C1154 1.415 . S
H1156 C1153 0.999 . S
H1157 C1138 0.913 . S
H1158 C1176 0.951 . S
H1159 C1178 0.951 . S
H1160 C1180 0.950 . S
H1161 C1181 0.950 . S
H1162 C1183 0.950 . S
H1163 C1186 0.950 . S
H1164 C1187 0.950 . S
H1165 C1189 0.950 . S
H1166 C1190 0.950 . S
H1167 C1191 0.951 . S
H1168 C1193 0.951 . S
H1169 C1195 0.950 . S
H1170 C1196 0.950 . S
H1171 C1198 0.950 . S
H1172 C1201 0.950 . S
H1173 C1202 0.950 . S
H1174 C1204 0.950 . S
H1175 C1205 0.950 . S
C1176 H1158 0.951 . S
C1176 C1177 1.366 . S
C1176 C1178 1.388 . S
C1177 C1176 1.366 . S
C1177 C1181 1.385 . S
C1178 H1159 0.951 . S
C1178 C1176 1.388 . S
C1178 C1179 1.366 . S
C1179 C1178 1.366 . S
C1179 C1180 1.414 . S
C1179 C1182 1.499 . S
C1180 H1160 0.950 . S
C1180 C1179 1.414 . S
C1180 C1181 1.374 . S
C1181 H1161 0.950 . S
C1181 C1177 1.385 . S
C1181 C1180 1.374 . S
C1182 C1179 1.499 . S
C1182 C1183 1.373 . S
C1182 C1184 1.389 . S
C1183 H1162 0.950 . S
C1183 C1182 1.373 . S
C1183 C1199 1.377 . S
C1184 C1182 1.389 . S
C1184 C1185 1.524 . S
C1184 C1198 1.377 . S
C1185 C1184 1.524 . S
C1185 C1186 1.397 . S
C1185 C1190 1.363 . S
C1186 H1163 0.950 . S
C1186 C1185 1.397 . S
C1186 C1187 1.334 . S
C1187 H1164 0.950 . S
C1187 C1186 1.334 . S
C1187 C1188 1.287 . S
C1188 C1187 1.287 . S
C1188 C1189 1.524 . S
C1188 H1207 0.913 . S
C1189 H1165 0.950 . S
C1189 C1188 1.524 . S
C1189 C1190 1.415 . S
C1190 H1166 0.950 . S
C1190 C1185 1.363 . S
C1190 C1189 1.415 . S
C1191 H1167 0.951 . S
C1191 C1192 1.366 . S
C1191 C1193 1.388 . S
C1192 C1191 1.366 . S
C1192 C1196 1.385 . S
C1193 H1168 0.951 . S
C1193 C1191 1.388 . S
C1193 C1194 1.366 . S
C1194 C1193 1.366 . S
C1194 C1195 1.414 . S
C1194 C1197 1.499 . S
C1195 H1169 0.950 . S
C1195 C1194 1.414 . S
C1195 C1196 1.374 . S
C1196 H1170 0.950 . S
C1196 C1192 1.385 . S
C1196 C1195 1.374 . S
C1197 C1194 1.499 . S
C1197 C1198 1.373 . S
C1197 C1199 1.389 . S
C1198 H1171 0.950 . S
C1198 C1184 1.377 . S
C1198 C1197 1.373 . S
C1199 C1183 1.377 . S
C1199 C1197 1.389 . S
C1199 C1200 1.524 . S
C1200 C1199 1.524 . S
C1200 C1201 1.397 . S
C1200 C1205 1.363 . S
C1201 H1172 0.950 . S
C1201 C1200 1.397 . S
C1201 C1202 1.334 . S
C1202 H1173 0.950 . S
C1202 C1201 1.334 . S
C1202 C1203 1.287 . S
C1203 C1202 1.287 . S
C1203 C1204 1.524 . S
C1203 H1206 0.999 . S
C1204 H1174 0.950 . S
C1204 C1203 1.524 . S
C1204 C1205 1.415 . S
C1205 H1175 0.950 . S
C1205 C1200 1.363 . S
C1205 C1204 1.415 . S
H1206 C1203 0.999 . S
H1207 C1188 0.913 . S
H1208 C1226 0.951 . S
H1209 C1228 0.951 . S
H1210 C1230 0.950 . S
H1211 C1231 0.950 . S
H1212 C1233 0.950 . S
H1213 C1236 0.950 . S
H1214 C1237 0.950 . S
H1215 C1239 0.950 . S
H1216 C1240 0.950 . S
H1217 C1241 0.951 . S
H1218 C1243 0.951 . S
H1219 C1245 0.950 . S
H1220 C1246 0.950 . S
H1221 C1248 0.950 . S
H1222 C1251 0.950 . S
H1223 C1252 0.950 . S
H1224 C1254 0.950 . S
H1225 C1255 0.950 . S
C1226 H1208 0.951 . S
C1226 C1227 1.366 . S
C1226 C1228 1.388 . S
C1227 C1226 1.366 . S
C1227 C1231 1.385 . S
C1228 H1209 0.951 . S
C1228 C1226 1.388 . S
C1228 C1229 1.366 . S
C1229 C1228 1.366 . S
C1229 C1230 1.414 . S
C1229 C1232 1.499 . S
C1230 H1210 0.950 . S
C1230 C1229 1.414 . S
C1230 C1231 1.374 . S
C1231 H1211 0.950 . S
C1231 C1227 1.385 . S
C1231 C1230 1.374 . S
C1232 C1229 1.499 . S
C1232 C1233 1.373 . S
C1232 C1234 1.389 . S
C1233 H1212 0.950 . S
C1233 C1232 1.373 . S
C1233 C1249 1.377 . S
C1234 C1232 1.389 . S
C1234 C1235 1.524 . S
C1234 C1248 1.377 . S
C1235 C1234 1.524 . S
C1235 C1236 1.397 . S
C1235 C1240 1.363 . S
C1236 H1213 0.950 . S
C1236 C1235 1.397 . S
C1236 C1237 1.334 . S
C1237 H1214 0.950 . S
C1237 C1236 1.334 . S
C1237 C1238 1.287 . S
C1238 C1237 1.287 . S
C1238 C1239 1.524 . S
C1238 H1257 0.913 . S
C1239 H1215 0.950 . S
C1239 C1238 1.524 . S
C1239 C1240 1.415 . S
C1240 H1216 0.950 . S
C1240 C1235 1.363 . S
C1240 C1239 1.415 . S
C1241 H1217 0.951 . S
C1241 C1242 1.366 . S
C1241 C1243 1.388 1_554 S
C1242 C1241 1.366 . S
C1242 C1246 1.385 . S
C1243 H1218 0.951 . S
C1243 C1241 1.388 1_556 S
C1243 C1244 1.366 . S
C1244 C1243 1.366 . S
C1244 C1245 1.414 . S
C1244 C1247 1.499 . S
C1245 H1219 0.950 . S
C1245 C1244 1.414 . S
C1245 C1246 1.374 1_556 S
C1246 H1220 0.950 . S
C1246 C1242 1.385 . S
C1246 C1245 1.374 1_554 S
C1247 C1244 1.499 . S
C1247 C1248 1.373 . S
C1247 C1249 1.389 . S
C1248 H1221 0.950 . S
C1248 C1234 1.377 . S
C1248 C1247 1.373 . S
C1249 C1233 1.377 . S
C1249 C1247 1.389 . S
C1249 C1250 1.524 . S
C1250 C1249 1.524 . S
C1250 C1251 1.397 1_556 S
C1250 C1255 1.363 . S
C1251 H1222 0.950 . S
C1251 C1250 1.397 1_554 S
C1251 C1252 1.334 . S
C1252 H1223 0.950 . S
C1252 C1251 1.334 . S
C1252 C1253 1.287 . S
C1253 C1252 1.287 . S
C1253 C1254 1.524 . S
C1253 H1256 0.999 . S
C1254 H1224 0.950 . S
C1254 C1253 1.524 . S
C1254 C1255 1.415 1_554 S
C1255 H1225 0.950 . S
C1255 C1250 1.363 . S
C1255 C1254 1.415 1_556 S
H1256 C1253 0.999 . S
H1257 C1238 0.913 . S
H1258 C1276 0.951 . S
H1259 C1278 0.951 . S
H1260 C1280 0.950 . S
H1261 C1281 0.950 . S
H1262 C1283 0.950 . S
H1263 C1286 0.950 . S
H1264 C1287 0.950 . S
H1265 C1289 0.950 . S
H1266 C1290 0.950 . S
H1267 C1291 0.951 . S
H1268 C1293 0.951 . S
H1269 C1295 0.950 . S
H1270 C1296 0.950 . S
H1271 C1298 0.950 . S
H1272 C1301 0.950 . S
H1273 C1302 0.950 . S
H1274 C1304 0.950 . S
H1275 C1305 0.950 . S
C1276 H1258 0.951 . S
C1276 C1277 1.366 . S
C1276 C1278 1.388 . S
C1277 C1276 1.366 . S
C1277 C1281 1.385 . S
C1278 H1259 0.951 . S
C1278 C1276 1.388 . S
C1278 C1279 1.366 . S
C1279 C1278 1.366 . S
C1279 C1280 1.414 . S
C1279 C1282 1.499 . S
C1280 H1260 0.950 . S
C1280 C1279 1.414 . S
C1280 C1281 1.374 . S
C1281 H1261 0.950 . S
C1281 C1277 1.385 . S
C1281 C1280 1.374 . S
C1282 C1279 1.499 . S
C1282 C1283 1.373 . S
C1282 C1284 1.389 . S
C1283 H1262 0.950 . S
C1283 C1282 1.373 . S
C1283 C1299 1.377 . S
C1284 C1282 1.389 . S
C1284 C1285 1.524 . S
C1284 C1298 1.377 . S
C1285 C1284 1.524 . S
C1285 C1286 1.397 . S
C1285 C1290 1.363 . S
C1286 H1263 0.950 . S
C1286 C1285 1.397 . S
C1286 C1287 1.334 . S
C1287 H1264 0.950 . S
C1287 C1286 1.334 . S
C1287 C1288 1.287 . S
C1288 C1287 1.287 . S
C1288 C1289 1.524 . S
C1288 H1307 0.881 1_565 S
C1289 H1265 0.950 . S
C1289 C1288 1.524 . S
C1289 C1290 1.415 . S
C1290 H1266 0.950 . S
C1290 C1285 1.363 . S
C1290 C1289 1.415 . S
C1291 H1267 0.951 . S
C1291 C1292 1.366 . S
C1291 C1293 1.388 . S
C1292 C1291 1.366 . S
C1292 C1296 1.385 . S
C1293 H1268 0.951 . S
C1293 C1291 1.388 . S
C1293 C1294 1.366 . S
C1294 C1293 1.366 . S
C1294 C1295 1.414 . S
C1294 C1297 1.499 . S
C1295 H1269 0.950 . S
C1295 C1294 1.414 . S
C1295 C1296 1.374 . S
C1296 H1270 0.950 . S
C1296 C1292 1.385 . S
C1296 C1295 1.374 . S
C1297 C1294 1.499 . S
C1297 C1298 1.373 . S
C1297 C1299 1.389 . S
C1298 H1271 0.950 . S
C1298 C1284 1.377 . S
C1298 C1297 1.373 . S
C1299 C1283 1.377 . S
C1299 C1297 1.389 . S
C1299 C1300 1.524 . S
C1300 C1299 1.524 . S
C1300 C1301 1.397 . S
C1300 C1305 1.363 . S
C1301 H1272 0.950 . S
C1301 C1300 1.397 . S
C1301 C1302 1.334 . S
C1302 H1273 0.950 . S
C1302 C1301 1.334 . S
C1302 C1303 1.287 . S
C1303 C1302 1.287 . S
C1303 C1304 1.524 . S
C1303 H1306 0.999 . S
C1304 H1274 0.950 . S
C1304 C1303 1.524 . S
C1304 C1305 1.415 . S
C1305 H1275 0.950 . S
C1305 C1300 1.363 . S
C1305 C1304 1.415 . S
H1306 C1303 0.999 . S
H1307 C1288 0.881 1_545 S
H1308 C1326 0.951 . S
H1309 C1328 0.951 . S
H1310 C1330 0.950 . S
H1311 C1331 0.950 . S
H1312 C1333 0.950 . S
H1313 C1336 0.950 . S
H1314 C1337 0.950 . S
H1315 C1339 0.950 . S
H1316 C1340 0.950 . S
H1317 C1341 0.951 . S
H1318 C1343 0.951 . S
H1319 C1345 0.950 . S
H1320 C1346 0.950 . S
H1321 C1348 0.950 . S
H1322 C1351 0.950 . S
H1323 C1352 0.950 . S
H1324 C1354 0.950 . S
H1325 C1355 0.950 . S
C1326 H1308 0.951 . S
C1326 C1327 1.366 . S
C1326 C1328 1.388 1_554 S
C1327 C1326 1.366 . S
C1327 C1331 1.385 . S
C1328 H1309 0.951 . S
C1328 C1326 1.388 1_556 S
C1328 C1329 1.366 . S
C1329 C1328 1.366 . S
C1329 C1330 1.414 . S
C1329 C1332 1.499 . S
C1330 H1310 0.950 . S
C1330 C1329 1.414 . S
C1330 C1331 1.374 1_556 S
C1331 H1311 0.950 . S
C1331 C1327 1.385 . S
C1331 C1330 1.374 1_554 S
C1332 C1329 1.499 . S
C1332 C1333 1.373 . S
C1332 C1334 1.389 . S
C1333 H1312 0.950 . S
C1333 C1332 1.373 . S
C1333 C1349 1.377 . S
C1334 C1332 1.389 . S
C1334 C1335 1.524 . S
C1334 C1348 1.377 . S
C1335 C1334 1.524 . S
C1335 C1336 1.397 1_556 S
C1335 C1340 1.363 . S
C1336 H1313 0.950 . S
C1336 C1335 1.397 1_554 S
C1336 C1337 1.334 . S
C1337 H1314 0.950 . S
C1337 C1336 1.334 . S
C1337 C1338 1.287 . S
C1338 C1337 1.287 . S
C1338 C1339 1.524 . S
C1338 H1357 0.913 . S
C1339 H1315 0.950 . S
C1339 C1338 1.524 . S
C1339 C1340 1.415 1_554 S
C1340 H1316 0.950 . S
C1340 C1335 1.363 . S
C1340 C1339 1.415 1_556 S
C1341 H1317 0.951 . S
C1341 C1342 1.366 . S
C1341 C1343 1.388 . S
C1342 C1341 1.366 . S
C1342 C1346 1.385 . S
C1343 H1318 0.951 . S
C1343 C1341 1.388 . S
C1343 C1344 1.366 . S
C1344 C1343 1.366 . S
C1344 C1345 1.414 . S
C1344 C1347 1.499 . S
C1345 H1319 0.950 . S
C1345 C1344 1.414 . S
C1345 C1346 1.374 . S
C1346 H1320 0.950 . S
C1346 C1342 1.385 . S
C1346 C1345 1.374 . S
C1347 C1344 1.499 . S
C1347 C1348 1.373 . S
C1347 C1349 1.389 . S
C1348 H1321 0.950 . S
C1348 C1334 1.377 . S
C1348 C1347 1.373 . S
C1349 C1333 1.377 . S
C1349 C1347 1.389 . S
C1349 C1350 1.524 . S
C1350 C1349 1.524 . S
C1350 C1351 1.397 . S
C1350 C1355 1.363 . S
C1351 H1322 0.950 . S
C1351 C1350 1.397 . S
C1351 C1352 1.334 . S
C1352 H1323 0.950 . S
C1352 C1351 1.334 . S
C1352 C1353 1.287 . S
C1353 C1352 1.287 . S
C1353 C1354 1.524 . S
C1353 H1356 0.999 . S
C1354 H1324 0.950 . S
C1354 C1353 1.524 . S
C1354 C1355 1.415 . S
C1355 H1325 0.950 . S
C1355 C1350 1.363 . S
C1355 C1354 1.415 . S
H1356 C1353 0.999 . S
H1357 C1338 0.913 . S
H1358 C1376 0.951 . S
H1359 C1378 0.951 . S
H1360 C1380 0.950 . S
H1361 C1381 0.950 . S
H1362 C1383 0.950 . S
H1363 C1386 0.950 . S
H1364 C1387 0.950 . S
H1365 C1389 0.950 . S
H1366 C1390 0.950 . S
H1367 C1391 0.951 . S
H1368 C1393 0.951 . S
H1369 C1395 0.950 . S
H1370 C1396 0.950 . S
H1371 C1398 0.950 . S
H1372 C1401 0.950 . S
H1373 C1402 0.950 . S
H1374 C1404 0.950 . S
H1375 C1405 0.950 . S
C1376 H1358 0.951 . S
C1376 C1377 1.366 . S
C1376 C1378 1.388 . S
C1377 C1376 1.366 . S
C1377 C1381 1.385 . S
C1378 H1359 0.951 . S
C1378 C1376 1.388 . S
C1378 C1379 1.366 . S
C1379 C1378 1.366 . S
C1379 C1380 1.414 . S
C1379 C1382 1.499 . S
C1380 H1360 0.950 . S
C1380 C1379 1.414 . S
C1380 C1381 1.374 . S
C1381 H1361 0.950 . S
C1381 C1377 1.385 . S
C1381 C1380 1.374 . S
C1382 C1379 1.499 . S
C1382 C1383 1.373 . S
C1382 C1384 1.389 . S
C1383 H1362 0.950 . S
C1383 C1382 1.373 . S
C1383 C1399 1.377 . S
C1384 C1382 1.389 . S
C1384 C1385 1.524 . S
C1384 C1398 1.377 . S
C1385 C1384 1.524 . S
C1385 C1386 1.397 . S
C1385 C1390 1.363 . S
C1386 H1363 0.950 . S
C1386 C1385 1.397 . S
C1386 C1387 1.334 . S
C1387 H1364 0.950 . S
C1387 C1386 1.334 . S
C1387 C1388 1.287 . S
C1388 C1387 1.287 . S
C1388 C1389 1.524 . S
C1388 H1407 0.913 . S
C1389 H1365 0.950 . S
C1389 C1388 1.524 . S
C1389 C1390 1.415 . S
C1390 H1366 0.950 . S
C1390 C1385 1.363 . S
C1390 C1389 1.415 . S
C1391 H1367 0.951 . S
C1391 C1392 1.366 . S
C1391 C1393 1.388 . S
C1392 C1391 1.366 . S
C1392 C1396 1.385 . S
C1393 H1368 0.951 . S
C1393 C1391 1.388 . S
C1393 C1394 1.366 . S
C1394 C1393 1.366 . S
C1394 C1395 1.414 . S
C1394 C1397 1.499 . S
C1395 H1369 0.950 . S
C1395 C1394 1.414 . S
C1395 C1396 1.374 . S
C1396 H1370 0.950 . S
C1396 C1392 1.385 . S
C1396 C1395 1.374 . S
C1397 C1394 1.499 . S
C1397 C1398 1.373 . S
C1397 C1399 1.389 . S
C1398 H1371 0.950 . S
C1398 C1384 1.377 . S
C1398 C1397 1.373 . S
C1399 C1383 1.377 . S
C1399 C1397 1.389 . S
C1399 C1400 1.524 . S
C1400 C1399 1.524 . S
C1400 C1401 1.397 . S
C1400 C1405 1.363 . S
C1401 H1372 0.950 . S
C1401 C1400 1.397 . S
C1401 C1402 1.334 . S
C1402 H1373 0.950 . S
C1402 C1401 1.334 . S
C1402 C1403 1.287 . S
C1403 C1402 1.287 . S
C1403 C1404 1.524 . S
C1403 H1406 0.999 . S
C1404 H1374 0.950 . S
C1404 C1403 1.524 . S
C1404 C1405 1.415 . S
C1405 H1375 0.950 . S
C1405 C1400 1.363 . S
C1405 C1404 1.415 . S
H1406 C1403 0.999 . S
H1407 C1388 0.913 . S
H1408 C1426 0.951 . S
H1409 C1428 0.951 . S
H1410 C1430 0.950 . S
H1411 C1431 0.950 . S
H1412 C1433 0.950 . S
H1413 C1436 0.950 . S
H1414 C1437 0.950 . S
H1415 C1439 0.950 . S
H1416 C1440 0.950 . S
H1417 C1441 0.951 . S
H1418 C1443 0.951 . S
H1419 C1445 0.950 . S
H1420 C1446 0.950 1_455 S
H1421 C1448 0.950 . S
H1422 C1451 0.950 . S
H1423 C1452 0.950 . S
H1424 C1454 0.950 . S
H1425 C1455 0.950 . S
C1426 H1408 0.951 . S
C1426 C1427 1.366 . S
C1426 C1428 1.388 . S
C1427 C1426 1.366 . S
C1427 C1431 1.385 . S
C1428 H1409 0.951 . S
C1428 C1426 1.388 . S
C1428 C1429 1.366 . S
C1429 C1428 1.366 . S
C1429 C1430 1.414 . S
C1429 C1432 1.499 . S
C1430 H1410 0.950 . S
C1430 C1429 1.414 . S
C1430 C1431 1.374 . S
C1431 H1411 0.950 . S
C1431 C1427 1.385 . S
C1431 C1430 1.374 . S
C1432 C1429 1.499 . S
C1432 C1433 1.373 . S
C1432 C1434 1.389 . S
C1433 H1412 0.950 . S
C1433 C1432 1.373 . S
C1433 C1449 1.377 . S
C1434 C1432 1.389 . S
C1434 C1435 1.524 . S
C1434 C1448 1.377 . S
C1435 C1434 1.524 . S
C1435 C1436 1.397 . S
C1435 C1440 1.363 . S
C1436 H1413 0.950 . S
C1436 C1435 1.397 . S
C1436 C1437 1.334 . S
C1437 H1414 0.950 . S
C1437 C1436 1.334 . S
C1437 C1438 1.287 . S
C1438 C1437 1.287 . S
C1438 C1439 1.524 . S
C1438 H1457 0.913 . S
C1439 H1415 0.950 . S
C1439 C1438 1.524 . S
C1439 C1440 1.415 . S
C1440 H1416 0.950 . S
C1440 C1435 1.363 . S
C1440 C1439 1.415 . S
C1441 H1417 0.951 . S
C1441 C1442 1.366 . S
C1441 C1443 1.388 . S
C1442 C1441 1.366 . S
C1442 C1446 1.385 . S
C1443 H1418 0.951 . S
C1443 C1441 1.388 . S
C1443 C1444 1.366 . S
C1444 C1443 1.366 . S
C1444 C1445 1.414 . S
C1444 C1447 1.499 . S
C1445 H1419 0.950 . S
C1445 C1444 1.414 . S
C1445 C1446 1.374 . S
C1446 H1420 0.950 1_655 S
C1446 C1442 1.385 . S
C1446 C1445 1.374 . S
C1447 C1444 1.499 . S
C1447 C1448 1.373 . S
C1447 C1449 1.389 . S
C1448 H1421 0.950 . S
C1448 C1434 1.377 . S
C1448 C1447 1.373 . S
C1449 C1433 1.377 . S
C1449 C1447 1.389 . S
C1449 C1450 1.524 . S
C1450 C1449 1.524 . S
C1450 C1451 1.397 . S
C1450 C1455 1.363 . S
C1451 H1422 0.950 . S
C1451 C1450 1.397 . S
C1451 C1452 1.334 . S
C1452 H1423 0.950 . S
C1452 C1451 1.334 . S
C1452 C1453 1.287 . S
C1453 C1452 1.287 . S
C1453 C1454 1.524 . S
C1453 H1456 0.999 . S
C1454 H1424 0.950 . S
C1454 C1453 1.524 . S
C1454 C1455 1.415 . S
C1455 H1425 0.950 . S
C1455 C1450 1.363 . S
C1455 C1454 1.415 . S
H1456 C1453 0.999 . S
H1457 C1438 0.913 . S
H1458 C1476 0.992 . S
H1459 C1478 0.951 . S
H1460 C1480 0.950 . S
H1461 C1481 0.950 . S
H1462 C1483 0.950 . S
H1463 C1486 0.950 . S
H1464 C1487 0.950 . S
H1465 C1489 0.950 . S
H1466 C1490 0.950 . S
H1467 C1491 0.951 . S
H1468 C1493 0.951 . S
H1469 C1495 0.950 . S
H1470 C1496 0.950 1_455 S
H1471 C1498 0.950 . S
H1472 C1501 0.950 . S
H1473 C1502 0.950 . S
H1474 C1504 0.950 . S
H1475 C1505 0.950 . S
C1476 H1458 0.992 . S
C1476 C1477 1.366 . S
C1476 C1478 1.388 . S
C1477 C1476 1.366 . S
C1477 C1481 1.385 . S
C1478 H1459 0.951 . S
C1478 C1476 1.388 . S
C1478 C1479 1.366 . S
C1479 C1478 1.366 . S
C1479 C1480 1.414 . S
C1479 C1482 1.499 . S
C1480 H1460 0.950 . S
C1480 C1479 1.414 . S
C1480 C1481 1.374 . S
C1481 H1461 0.950 . S
C1481 C1477 1.385 . S
C1481 C1480 1.374 . S
C1482 C1479 1.499 . S
C1482 C1483 1.373 . S
C1482 C1484 1.389 . S
C1483 H1462 0.950 . S
C1483 C1482 1.373 . S
C1483 C1499 1.377 . S
C1484 C1482 1.389 . S
C1484 C1485 1.524 . S
C1484 C1498 1.377 . S
C1485 C1484 1.524 . S
C1485 C1486 1.397 . S
C1485 C1490 1.363 . S
C1486 H1463 0.950 . S
C1486 C1485 1.397 . S
C1486 C1487 1.334 . S
C1487 H1464 0.950 . S
C1487 C1486 1.334 . S
C1487 C1488 1.287 . S
C1488 C1487 1.287 . S
C1488 C1489 1.524 . S
C1488 H1507 0.913 . S
C1489 H1465 0.950 . S
C1489 C1488 1.524 . S
C1489 C1490 1.415 . S
C1490 H1466 0.950 . S
C1490 C1485 1.363 . S
C1490 C1489 1.415 . S
C1491 H1467 0.951 . S
C1491 C1492 1.366 . S
C1491 C1493 1.388 . S
C1492 C1491 1.366 . S
C1492 C1496 1.385 . S
C1493 H1468 0.951 . S
C1493 C1491 1.388 . S
C1493 C1494 1.366 . S
C1494 C1493 1.366 . S
C1494 C1495 1.414 . S
C1494 C1497 1.499 . S
C1495 H1469 0.950 . S
C1495 C1494 1.414 . S
C1495 C1496 1.374 . S
C1496 H1470 0.950 1_655 S
C1496 C1492 1.385 . S
C1496 C1495 1.374 . S
C1497 C1494 1.499 . S
C1497 C1498 1.373 . S
C1497 C1499 1.389 . S
C1498 H1471 0.950 . S
C1498 C1484 1.377 . S
C1498 C1497 1.373 . S
C1499 C1483 1.377 . S
C1499 C1497 1.389 . S
C1499 C1500 1.524 . S
C1500 C1499 1.524 . S
C1500 C1501 1.397 . S
C1500 C1505 1.363 . S
C1501 H1472 0.950 . S
C1501 C1500 1.397 . S
C1501 C1502 1.334 . S
C1502 H1473 0.950 . S
C1502 C1501 1.334 . S
C1502 C1503 1.287 . S
C1503 C1502 1.287 . S
C1503 C1504 1.524 . S
C1503 H1506 0.999 . S
C1504 H1474 0.950 . S
C1504 C1503 1.524 . S
C1504 C1505 1.415 . S
C1505 H1475 0.950 . S
C1505 C1500 1.363 . S
C1505 C1504 1.415 . S
H1506 C1503 0.999 . S
H1507 C1488 0.913 . S
H1508 C1526 0.951 . S
H1509 C1528 0.951 . S
H1510 C1530 0.950 . S
H1511 C1531 0.950 . S
H1512 C1533 0.950 . S
H1513 C1536 0.950 . S
H1514 C1537 0.950 . S
H1515 C1539 0.950 . S
H1516 C1540 0.950 . S
H1517 C1541 0.951 . S
H1518 C1543 0.951 . S
H1519 C1545 0.950 . S
H1520 C1546 0.950 . S
H1521 C1548 0.950 . S
H1522 C1551 0.950 . S
H1523 C1552 0.950 . S
H1524 C1554 0.950 . S
H1525 C1555 0.950 . S
C1526 H1508 0.951 . S
C1526 C1527 1.366 . S
C1526 C1528 1.388 . S
C1527 C1526 1.366 . S
C1527 C1531 1.385 . S
C1528 H1509 0.951 . S
C1528 C1526 1.388 . S
C1528 C1529 1.366 . S
C1529 C1528 1.366 . S
C1529 C1530 1.414 . S
C1529 C1532 1.499 . S
C1530 H1510 0.950 . S
C1530 C1529 1.414 . S
C1530 C1531 1.374 . S
C1531 H1511 0.950 . S
C1531 C1527 1.385 . S
C1531 C1530 1.374 . S
C1532 C1529 1.499 . S
C1532 C1533 1.373 . S
C1532 C1534 1.389 . S
C1533 H1512 0.950 . S
C1533 C1532 1.373 . S
C1533 C1549 1.377 . S
C1534 C1532 1.389 . S
C1534 C1535 1.524 . S
C1534 C1548 1.377 . S
C1535 C1534 1.524 . S
C1535 C1536 1.397 . S
C1535 C1540 1.363 . S
C1536 H1513 0.950 . S
C1536 C1535 1.397 . S
C1536 C1537 1.334 . S
C1537 H1514 0.950 . S
C1537 C1536 1.334 . S
C1537 C1538 1.287 . S
C1538 C1537 1.287 . S
C1538 C1539 1.524 . S
C1538 H1557 0.913 . S
C1539 H1515 0.950 . S
C1539 C1538 1.524 . S
C1539 C1540 1.415 . S
C1540 H1516 0.950 . S
C1540 C1535 1.363 . S
C1540 C1539 1.415 . S
C1541 H1517 0.951 . S
C1541 C1542 1.366 . S
C1541 C1543 1.388 . S
C1542 C1541 1.366 . S
C1542 C1546 1.385 . S
C1543 H1518 0.951 . S
C1543 C1541 1.388 . S
C1543 C1544 1.366 . S
C1544 C1543 1.366 . S
C1544 C1545 1.414 . S
C1544 C1547 1.499 . S
C1545 H1519 0.950 . S
C1545 C1544 1.414 . S
C1545 C1546 1.374 . S
C1546 H1520 0.950 . S
C1546 C1542 1.385 . S
C1546 C1545 1.374 . S
C1547 C1544 1.499 . S
C1547 C1548 1.373 . S
C1547 C1549 1.389 . S
C1548 H1521 0.950 . S
C1548 C1534 1.377 . S
C1548 C1547 1.373 . S
C1549 C1533 1.377 . S
C1549 C1547 1.389 . S
C1549 C1550 1.524 . S
C1550 C1549 1.524 . S
C1550 C1551 1.397 . S
C1550 C1555 1.363 . S
C1551 H1522 0.950 . S
C1551 C1550 1.397 . S
C1551 C1552 1.334 . S
C1552 H1523 0.950 . S
C1552 C1551 1.334 . S
C1552 C1553 1.287 . S
C1553 C1552 1.287 . S
C1553 C1554 1.524 . S
C1553 H1556 0.999 . S
C1554 H1524 0.950 . S
C1554 C1553 1.524 . S
C1554 C1555 1.415 . S
C1555 H1525 0.950 . S
C1555 C1550 1.363 . S
C1555 C1554 1.415 . S
H1556 C1553 0.999 . S
H1557 C1538 0.913 . S
H1558 C1576 0.951 . S
H1559 C1578 0.951 . S
H1560 C1580 0.950 . S
H1561 C1581 0.950 . S
H1562 C1583 0.950 . S
H1563 C1586 0.950 . S
H1564 C1587 0.950 . S
H1565 C1589 0.950 . S
H1566 C1590 0.950 . S
H1567 C1591 0.951 . S
H1568 C1593 0.951 . S
H1569 C1595 0.950 . S
H1570 C1596 0.950 . S
H1571 C1598 0.950 . S
H1572 C1601 0.950 . S
H1573 C1602 0.950 . S
H1574 C1604 0.950 . S
H1575 C1605 0.950 . S
C1576 H1558 0.951 . S
C1576 C1577 1.366 . S
C1576 C1578 1.388 . S
C1577 C1576 1.366 . S
C1577 C1581 1.385 . S
C1578 H1559 0.951 . S
C1578 C1576 1.388 . S
C1578 C1579 1.366 . S
C1579 C1578 1.366 . S
C1579 C1580 1.414 . S
C1579 C1582 1.499 . S
C1580 H1560 0.950 . S
C1580 C1579 1.414 . S
C1580 C1581 1.374 . S
C1581 H1561 0.950 . S
C1581 C1577 1.385 . S
C1581 C1580 1.374 . S
C1582 C1579 1.499 . S
C1582 C1583 1.373 . S
C1582 C1584 1.389 . S
C1583 H1562 0.950 . S
C1583 C1582 1.373 . S
C1583 C1599 1.377 . S
C1584 C1582 1.389 . S
C1584 C1585 1.524 . S
C1584 C1598 1.377 . S
C1585 C1584 1.524 . S
C1585 C1586 1.397 . S
C1585 C1590 1.363 . S
C1586 H1563 0.950 . S
C1586 C1585 1.397 . S
C1586 C1587 1.334 . S
C1587 H1564 0.950 . S
C1587 C1586 1.334 . S
C1587 C1588 1.287 . S
C1588 C1587 1.287 . S
C1588 C1589 1.524 . S
C1588 H1607 0.913 . S
C1589 H1565 0.950 . S
C1589 C1588 1.524 . S
C1589 C1590 1.415 . S
C1590 H1566 0.950 . S
C1590 C1585 1.363 . S
C1590 C1589 1.415 . S
C1591 H1567 0.951 . S
C1591 C1592 1.366 . S
C1591 C1593 1.388 . S
C1592 C1591 1.366 . S
C1592 C1596 1.385 . S
C1593 H1568 0.951 . S
C1593 C1591 1.388 . S
C1593 C1594 1.366 . S
C1594 C1593 1.366 . S
C1594 C1595 1.414 . S
C1594 C1597 1.499 . S
C1595 H1569 0.950 . S
C1595 C1594 1.414 . S
C1595 C1596 1.374 . S
C1596 H1570 0.950 . S
C1596 C1592 1.385 . S
C1596 C1595 1.374 . S
C1597 C1594 1.499 . S
C1597 C1598 1.373 . S
C1597 C1599 1.389 . S
C1598 H1571 0.950 . S
C1598 C1584 1.377 . S
C1598 C1597 1.373 . S
C1599 C1583 1.377 . S
C1599 C1597 1.389 . S
C1599 C1600 1.524 . S
C1600 C1599 1.524 . S
C1600 C1601 1.397 . S
C1600 C1605 1.363 . S
C1601 H1572 0.950 . S
C1601 C1600 1.397 . S
C1601 C1602 1.334 . S
C1602 H1573 0.950 . S
C1602 C1601 1.334 . S
C1602 C1603 1.287 . S
C1603 C1602 1.287 . S
C1603 C1604 1.524 . S
C1603 H1606 0.999 . S
C1604 H1574 0.950 . S
C1604 C1603 1.524 . S
C1604 C1605 1.415 . S
C1605 H1575 0.950 . S
C1605 C1600 1.363 . S
C1605 C1604 1.415 . S
H1606 C1603 0.999 . S
H1607 C1588 0.913 . S
H1608 C1626 0.951 . S
H1609 C1628 0.951 . S
H1610 C1630 0.950 . S
H1611 C1631 0.950 . S
H1612 C1633 0.950 . S
H1613 C1636 0.950 . S
H1614 C1637 0.950 . S
H1615 C1639 0.950 . S
H1616 C1640 0.950 . S
H1617 C1641 0.951 . S
H1618 C1643 0.951 . S
H1619 C1645 0.950 . S
H1620 C1646 0.950 . S
H1621 C1648 0.950 . S
H1622 C1651 0.950 . S
H1623 C1652 0.950 . S
H1624 C1654 0.950 . S
H1625 C1655 0.950 . S
C1626 H1608 0.951 . S
C1626 C1627 1.366 . S
C1626 C1628 1.388 . S
C1627 C1626 1.366 . S
C1627 C1631 1.385 . S
C1628 H1609 0.951 . S
C1628 C1626 1.388 . S
C1628 C1629 1.366 . S
C1629 C1628 1.366 . S
C1629 C1630 1.414 . S
C1629 C1632 1.499 . S
C1630 H1610 0.950 . S
C1630 C1629 1.414 . S
C1630 C1631 1.374 . S
C1631 H1611 0.950 . S
C1631 C1627 1.385 . S
C1631 C1630 1.374 . S
C1632 C1629 1.499 . S
C1632 C1633 1.373 . S
C1632 C1634 1.389 . S
C1633 H1612 0.950 . S
C1633 C1632 1.373 . S
C1633 C1649 1.377 . S
C1634 C1632 1.389 . S
C1634 C1635 1.524 . S
C1634 C1648 1.377 . S
C1635 C1634 1.524 . S
C1635 C1636 1.397 . S
C1635 C1640 1.363 . S
C1636 H1613 0.950 . S
C1636 C1635 1.397 . S
C1636 C1637 1.334 . S
C1637 H1614 0.950 . S
C1637 C1636 1.334 . S
C1637 C1638 1.287 . S
C1638 C1637 1.287 . S
C1638 C1639 1.524 . S
C1638 H1657 0.913 . S
C1639 H1615 0.950 . S
C1639 C1638 1.524 . S
C1639 C1640 1.415 . S
C1640 H1616 0.950 . S
C1640 C1635 1.363 . S
C1640 C1639 1.415 . S
C1641 H1617 0.951 . S
C1641 C1642 1.366 . S
C1641 C1643 1.388 . S
C1642 C1641 1.366 . S
C1642 C1646 1.385 . S
C1643 H1618 0.951 . S
C1643 C1641 1.388 . S
C1643 C1644 1.366 . S
C1644 C1643 1.366 . S
C1644 C1645 1.414 . S
C1644 C1647 1.499 . S
C1645 H1619 0.950 . S
C1645 C1644 1.414 . S
C1645 C1646 1.374 . S
C1646 H1620 0.950 . S
C1646 C1642 1.385 . S
C1646 C1645 1.374 . S
C1647 C1644 1.499 . S
C1647 C1648 1.373 . S
C1647 C1649 1.389 . S
C1648 H1621 0.950 . S
C1648 C1634 1.377 . S
C1648 C1647 1.373 . S
C1649 C1633 1.377 . S
C1649 C1647 1.389 . S
C1649 C1650 1.524 . S
C1650 C1649 1.524 . S
C1650 C1651 1.397 . S
C1650 C1655 1.363 . S
C1651 H1622 0.950 . S
C1651 C1650 1.397 . S
C1651 C1652 1.334 . S
C1652 H1623 0.950 . S
C1652 C1651 1.334 . S
C1652 C1653 1.287 . S
C1653 C1652 1.287 . S
C1653 C1654 1.524 . S
C1653 H1656 0.999 . S
C1654 H1624 0.950 . S
C1654 C1653 1.524 . S
C1654 C1655 1.415 . S
C1655 H1625 0.950 . S
C1655 C1650 1.363 . S
C1655 C1654 1.415 . S
H1656 C1653 0.999 . S
H1657 C1638 0.913 . S
H1658 C1676 0.951 . S
H1659 C1678 0.951 . S
H1660 C1680 0.950 . S
H1661 C1681 0.950 . S
H1662 C1683 0.950 . S
H1663 C1686 0.950 . S
H1664 C1687 0.950 . S
H1665 C1689 0.950 . S
H1666 C1690 0.950 . S
H1667 C1691 0.951 . S
H1668 C1693 0.951 . S
H1669 C1695 0.950 . S
H1670 C1696 0.950 . S
H1671 C1698 0.950 . S
H1672 C1701 0.950 . S
H1673 C1702 0.950 . S
H1674 C1704 0.950 . S
H1675 C1705 0.950 . S
C1676 H1658 0.951 . S
C1676 C1677 1.366 . S
C1676 C1678 1.388 . S
C1677 C1676 1.366 . S
C1677 C1681 1.385 . S
C1678 H1659 0.951 . S
C1678 C1676 1.388 . S
C1678 C1679 1.366 . S
C1679 C1678 1.366 . S
C1679 C1680 1.414 . S
C1679 C1682 1.499 . S
C1680 H1660 0.950 . S
C1680 C1679 1.414 . S
C1680 C1681 1.374 . S
C1681 H1661 0.950 . S
C1681 C1677 1.385 . S
C1681 C1680 1.374 . S
C1682 C1679 1.499 . S
C1682 C1683 1.373 . S
C1682 C1684 1.389 . S
C1683 H1662 0.950 . S
C1683 C1682 1.373 . S
C1683 C1699 1.377 . S
C1684 C1682 1.389 . S
C1684 C1685 1.524 . S
C1684 C1698 1.377 . S
C1685 C1684 1.524 . S
C1685 C1686 1.397 . S
C1685 C1690 1.363 . S
C1686 H1663 0.950 . S
C1686 C1685 1.397 . S
C1686 C1687 1.334 . S
C1687 H1664 0.950 . S
C1687 C1686 1.334 . S
C1687 C1688 1.287 . S
C1688 C1687 1.287 . S
C1688 C1689 1.524 . S
C1688 H1707 0.913 . S
C1689 H1665 0.950 . S
C1689 C1688 1.524 . S
C1689 C1690 1.415 . S
C1690 H1666 0.950 . S
C1690 C1685 1.363 . S
C1690 C1689 1.415 . S
C1691 H1667 0.951 . S
C1691 C1692 1.366 . S
C1691 C1693 1.388 . S
C1692 C1691 1.366 . S
C1692 C1696 1.385 . S
C1693 H1668 0.951 . S
C1693 C1691 1.388 . S
C1693 C1694 1.366 . S
C1694 C1693 1.366 . S
C1694 C1695 1.414 . S
C1694 C1697 1.499 . S
C1695 H1669 0.950 . S
C1695 C1694 1.414 . S
C1695 C1696 1.374 . S
C1696 H1670 0.950 . S
C1696 C1692 1.385 . S
C1696 C1695 1.374 . S
C1697 C1694 1.499 . S
C1697 C1698 1.373 . S
C1697 C1699 1.389 . S
C1698 H1671 0.950 . S
C1698 C1684 1.377 . S
C1698 C1697 1.373 . S
C1699 C1683 1.377 . S
C1699 C1697 1.389 . S
C1699 C1700 1.524 . S
C1700 C1699 1.524 . S
C1700 C1701 1.397 . S
C1700 C1705 1.363 . S
C1701 H1672 0.950 . S
C1701 C1700 1.397 . S
C1701 C1702 1.334 . S
C1702 H1673 0.950 . S
C1702 C1701 1.334 . S
C1702 C1703 1.287 . S
C1703 C1702 1.287 . S
C1703 C1704 1.524 . S
C1703 H1706 0.999 . S
C1704 H1674 0.950 . S
C1704 C1703 1.524 . S
C1704 C1705 1.415 . S
C1705 H1675 0.950 . S
C1705 C1700 1.363 . S
C1705 C1704 1.415 . S
H1706 C1703 0.999 . S
H1707 C1688 0.913 . S
H1708 C1726 0.951 . S
H1709 C1728 0.951 . S
H1710 C1730 0.950 . S
H1711 C1731 0.950 . S
H1712 C1733 0.950 . S
H1713 C1736 0.950 . S
H1714 C1737 0.950 . S
H1715 C1739 0.950 . S
H1716 C1740 0.950 . S
H1717 C1741 0.951 . S
H1718 C1743 0.951 . S
H1719 C1745 0.950 . S
H1720 C1746 0.950 . S
H1721 C1748 0.950 . S
H1722 C1751 0.950 . S
H1723 C1752 0.950 . S
H1724 C1754 0.950 . S
H1725 C1755 0.950 . S
C1726 H1708 0.951 . S
C1726 C1727 1.366 . S
C1726 C1728 1.388 . S
C1727 C1726 1.366 . S
C1727 C1731 1.385 . S
C1728 H1709 0.951 . S
C1728 C1726 1.388 . S
C1728 C1729 1.366 . S
C1729 C1728 1.366 . S
C1729 C1730 1.414 . S
C1729 C1732 1.499 . S
C1730 H1710 0.950 . S
C1730 C1729 1.414 . S
C1730 C1731 1.374 . S
C1731 H1711 0.950 . S
C1731 C1727 1.385 . S
C1731 C1730 1.374 . S
C1732 C1729 1.499 . S
C1732 C1733 1.373 . S
C1732 C1734 1.389 . S
C1733 H1712 0.950 . S
C1733 C1732 1.373 . S
C1733 C1749 1.377 . S
C1734 C1732 1.389 . S
C1734 C1735 1.524 . S
C1734 C1748 1.377 . S
C1735 C1734 1.524 . S
C1735 C1736 1.397 . S
C1735 C1740 1.363 . S
C1736 H1713 0.950 . S
C1736 C1735 1.397 . S
C1736 C1737 1.334 . S
C1737 H1714 0.950 . S
C1737 C1736 1.334 . S
C1737 C1738 1.287 . S
C1738 C1737 1.287 . S
C1738 C1739 1.524 . S
C1738 H1757 0.913 . S
C1739 H1715 0.950 . S
C1739 C1738 1.524 . S
C1739 C1740 1.415 . S
C1740 H1716 0.950 . S
C1740 C1735 1.363 . S
C1740 C1739 1.415 . S
C1741 H1717 0.951 . S
C1741 C1742 1.366 . S
C1741 C1743 1.388 . S
C1742 C1741 1.366 . S
C1742 C1746 1.385 . S
C1743 H1718 0.951 . S
C1743 C1741 1.388 . S
C1743 C1744 1.366 . S
C1744 C1743 1.366 . S
C1744 C1745 1.414 . S
C1744 C1747 1.499 . S
C1745 H1719 0.950 . S
C1745 C1744 1.414 . S
C1745 C1746 1.374 . S
C1746 H1720 0.950 . S
C1746 C1742 1.385 . S
C1746 C1745 1.374 . S
C1747 C1744 1.499 . S
C1747 C1748 1.373 . S
C1747 C1749 1.389 . S
C1748 H1721 0.950 . S
C1748 C1734 1.377 . S
C1748 C1747 1.373 . S
C1749 C1733 1.377 . S
C1749 C1747 1.389 . S
C1749 C1750 1.524 . S
C1750 C1749 1.524 . S
C1750 C1751 1.397 . S
C1750 C1755 1.363 . S
C1751 H1722 0.950 . S
C1751 C1750 1.397 . S
C1751 C1752 1.334 . S
C1752 H1723 0.950 . S
C1752 C1751 1.334 . S
C1752 C1753 1.287 . S
C1753 C1752 1.287 . S
C1753 C1754 1.524 . S
C1753 H1756 0.999 . S
C1754 H1724 0.950 . S
C1754 C1753 1.524 . S
C1754 C1755 1.415 . S
C1755 H1725 0.950 . S
C1755 C1750 1.363 . S
C1755 C1754 1.415 . S
H1756 C1753 0.999 . S
H1757 C1738 0.913 . S
H1758 C1776 0.951 . S
H1759 C1778 0.951 . S
H1760 C1780 0.950 . S
H1761 C1781 0.950 . S
H1762 C1783 0.950 . S
H1763 C1786 0.950 . S
H1764 C1787 0.950 . S
H1765 C1789 0.950 . S
H1766 C1790 0.950 . S
H1767 C1791 0.951 . S
H1768 C1793 0.951 . S
H1769 C1795 0.950 . S
H1770 C1796 0.950 . S
H1771 C1798 0.950 . S
H1772 C1801 0.950 . S
H1773 C1802 0.950 . S
H1774 C1804 0.950 . S
H1775 C1805 0.950 . S
C1776 H1758 0.951 . S
C1776 C1777 1.366 . S
C1776 C1778 1.388 . S
C1777 C1776 1.366 . S
C1777 C1781 1.385 . S
C1778 H1759 0.951 . S
C1778 C1776 1.388 . S
C1778 C1779 1.366 . S
C1779 C1778 1.366 . S
C1779 C1780 1.414 . S
C1779 C1782 1.499 . S
C1780 H1760 0.950 . S
C1780 C1779 1.414 . S
C1780 C1781 1.374 . S
C1781 H1761 0.950 . S
C1781 C1777 1.385 . S
C1781 C1780 1.374 . S
C1782 C1779 1.499 . S
C1782 C1783 1.373 . S
C1782 C1784 1.389 . S
C1783 H1762 0.950 . S
C1783 C1782 1.373 . S
C1783 C1799 1.377 . S
C1784 C1782 1.389 . S
C1784 C1785 1.524 . S
C1784 C1798 1.377 . S
C1785 C1784 1.524 . S
C1785 C1786 1.397 . S
C1785 C1790 1.363 . S
C1786 H1763 0.950 . S
C1786 C1785 1.397 . S
C1786 C1787 1.334 . S
C1787 H1764 0.950 . S
C1787 C1786 1.334 . S
C1787 C1788 1.287 . S
C1788 C1787 1.287 . S
C1788 C1789 1.524 . S
C1788 H1807 0.913 . S
C1789 H1765 0.950 . S
C1789 C1788 1.524 . S
C1789 C1790 1.415 . S
C1790 H1766 0.950 . S
C1790 C1785 1.363 . S
C1790 C1789 1.415 . S
C1791 H1767 0.951 . S
C1791 C1792 1.366 . S
C1791 C1793 1.388 . S
C1792 C1791 1.366 . S
C1792 C1796 1.385 . S
C1793 H1768 0.951 . S
C1793 C1791 1.388 . S
C1793 C1794 1.366 . S
C1794 C1793 1.366 . S
C1794 C1795 1.414 . S
C1794 C1797 1.499 . S
C1795 H1769 0.950 . S
C1795 C1794 1.414 . S
C1795 C1796 1.374 . S
C1796 H1770 0.950 . S
C1796 C1792 1.385 . S
C1796 C1795 1.374 . S
C1797 C1794 1.499 . S
C1797 C1798 1.373 . S
C1797 C1799 1.389 . S
C1798 H1771 0.950 . S
C1798 C1784 1.377 . S
C1798 C1797 1.373 . S
C1799 C1783 1.377 . S
C1799 C1797 1.389 . S
C1799 C1800 1.524 . S
C1800 C1799 1.524 . S
C1800 C1801 1.397 . S
C1800 C1805 1.363 . S
C1801 H1772 0.950 . S
C1801 C1800 1.397 . S
C1801 C1802 1.334 . S
C1802 H1773 0.950 . S
C1802 C1801 1.334 . S
C1802 C1803 1.287 . S
C1803 C1802 1.287 . S
C1803 C1804 1.524 . S
C1803 H1806 0.999 . S
C1804 H1774 0.950 . S
C1804 C1803 1.524 . S
C1804 C1805 1.415 . S
C1805 H1775 0.950 . S
C1805 C1800 1.363 . S
C1805 C1804 1.415 . S
H1806 C1803 0.999 . S
H1807 C1788 0.913 . S
C227 C0 1.067 . S
C242 C52 1.067 . S
C277 C65 1.067 . S
C292 C13 1.067 . S
C327 C26 1.067 . S
C342 C78 1.067 . S
C377 C39 1.067 . S
C392 C91 1.068 . S
C427 C104 1.122 . S
C442 C156 1.122 . S
C477 C169 1.122 . S
C492 C117 1.122 . S
C527 C130 1.122 . S
C542 C182 1.122 . S
C577 C143 1.122 . S
C592 C195 1.122 . S
C627 C8 1.082 . S
C642 C205 1.071 . S
C677 C166 1.072 . S
C692 C21 1.083 . S
C727 C34 1.083 . S
C742 C179 1.072 . S
C777 C192 1.072 . S
C792 C47 1.083 . S
C827 C127 1.071 . S
C842 C60 1.082 . S
C877 C140 1.072 . S
C892 C73 1.083 . S
C927 C153 1.072 . S
C942 C86 1.082 . S
C977 C114 1.072 . S
C992 C99 1.082 . S
C1027 C112 0.990 . S
C1042 C96 0.955 . S
C1077 C57 0.955 . S
C1092 C125 0.990 . S
C1127 C70 0.957 . S
C1142 C138 0.989 . S
C1177 C151 0.990 . S
C1192 C83 0.955 . S
C1227 C18 0.956 . S
C1242 C164 0.990 . S
C1277 C177 0.990 . S
C1292 C31 0.955 . S
C1327 C190 0.990 . S
C1342 C44 0.956 . S
C1377 C203 0.989 . S
C1392 C5 0.955 . S
C1427 C101 1.231 . S
C1442 C10 1.230 1_655 S
C1477 C23 1.230 1_565 S
C1492 C62 1.231 1_655 S
C1527 C36 1.231 . S
C1542 C75 1.230 1_565 S
C1577 C49 1.230 . S
C1592 C88 1.231 . S
C1627 C200 1.095 . S
C1642 C109 1.094 . S
C1677 C161 1.095 . S
C1692 C122 1.094 . S
C1727 C174 1.095 . S
C1742 C135 1.094 . S
C1777 C187 1.095 . S
C1792 C148 1.094 . S
