# Generated by pormake.
# Topology cab, (5)-cn, num edge types: 1
# Building blocks:
#     Node 0, Type 0, BuildingBlock: BEQFEK_clean_sbu_0, # of connection points: 5
#     Node 1, Type 0, BuildingBlock: BEQFEK_clean_sbu_0, # of connection points: 5
#     Node 2, Type 0, BuildingBlock: BEQFEK_clean_sbu_0, # of connection points: 5
#     Node 3, Type 0, BuildingBlock: BEQFEK_clean_sbu_0, # of connection points: 5
#     Node 4, Type 0, BuildingBlock: BEQFEK_clean_sbu_0, # of connection points: 5
#     Node 5, Type 0, BuildingBlock: BEQFEK_clean_sbu_0, # of connection points: 5
#     Edge 6, Type (0, 0), BuildingBlock: CIFDUS_clean_linker_0, # of connection points: 2
#     Edge 7, Type (0, 0), BuildingBlock: CIFDUS_clean_linker_0, # of connection points: 2
#     Edge 8, Type (0, 0), BuildingBlock: CIFDUS_clean_linker_0, # of connection points: 2
#     Edge 9, Type (0, 0), BuildingBlock: CIFDUS_clean_linker_0, # of connection points: 2
#     Edge 10, Type (0, 0), BuildingBlock: CIFDUS_clean_linker_0, # of connection points: 2
#     Edge 11, Type (0, 0), BuildingBlock: CIFDUS_clean_linker_0, # of connection points: 2
#     Edge 12, Type (0, 0), BuildingBlock: CIFDUS_clean_linker_0, # of connection points: 2
#     Edge 13, Type (0, 0), BuildingBlock: CIFDUS_clean_linker_0, # of connection points: 2
#     Edge 14, Type (0, 0), BuildingBlock: CIFDUS_clean_linker_0, # of connection points: 2
#     Edge 15, Type (0, 0), BuildingBlock: CIFDUS_clean_linker_0, # of connection points: 2
#     Edge 16, Type (0, 0), BuildingBlock: CIFDUS_clean_linker_0, # of connection points: 2
#     Edge 17, Type (0, 0), BuildingBlock: CIFDUS_clean_linker_0, # of connection points: 2
#     Edge 18, Type (0, 0), BuildingBlock: CIFDUS_clean_linker_0, # of connection points: 2
#     Edge 19, Type (0, 0), BuildingBlock: CIFDUS_clean_linker_0, # of connection points: 2
#     Edge 20, Type (0, 0), BuildingBlock: CIFDUS_clean_linker_0, # of connection points: 2
# Relax obj value: 1.264
# Max RMSD: 0.230
# Mean RMSD: 0.210
data_MOF--net-cab--node1-BEQFEK_clean_sbu_0--edge1-CIFDUS_clean_linker_0
_symmetry_space_group_name_H-M    P1
_symmetry_Int_Tables_number       1
_symmetry_cell_setting            triclinic
loop_
_symmetry_equiv_pos_as_xyz
'x, y, z'
_cell_length_a     27.847071
_cell_length_b     27.04944
_cell_length_c     28.590541
_cell_angle_alpha  112.40608
_cell_angle_beta   97.318381
_cell_angle_gamma 130.1727
loop_
_atom_site_label
_atom_site_type_symbol
_atom_site_fract_x
_atom_site_fract_y
_atom_site_fract_z
_atom_type_partial_charge
Co0 Co 0.37932 0.5214 0.67827 0.0
Co1 Co 0.229 0.45631 0.62185 0.0
C2 C 0.24104 0.35371 0.55973 0.0
O3 O 0.30737 0.40792 0.60232 0.0
O4 O 0.20457 0.36644 0.55977 0.0
C5 C 0.48039 0.5584 0.64998 0.0
O6 O 0.42881 0.5334 0.60631 0.0
C7 C 0.09389 0.37658 0.53198 0.0
C8 C 0.03937 0.38242 0.57976 0.0
C9 C 0.02863 0.34825 0.52352 0.0
N10 N 0.14134 0.42421 0.59045 0.0
N11 N 0.10873 0.42814 0.61904 0.0
C12 C 0.11049 0.35834 0.4845 0.0
H13 H 0.17087 0.40264 0.50379 0.0
H14 H 0.08818 0.36028 0.45104 0.0
H15 H 0.08272 0.29576 0.46102 0.0
C16 C 0.43277 0.6567 0.67646 0.0
N17 N 0.37865 0.58818 0.67016 0.0
N18 N 0.31512 0.55755 0.64036 0.0
C19 C 0.32682 0.60324 0.62368 0.0
C20 C 0.40194 0.66677 0.64468 0.0
C21 C 0.51356 0.71306 0.71283 0.0
H22 H 0.52447 0.70329 0.74507 0.0
H23 H 0.53414 0.70391 0.68383 0.0
H24 H 0.5445 0.77706 0.73728 0.0
O25 O 0.35062 0.5041 0.73428 0.0
O26 O 0.24056 0.4493 0.68843 0.0
H27 H 0.21709 0.54452 0.58415 0.0
H28 H 0.28502 0.63428 0.58905 0.0
C29 C 0.26634 0.57944 0.58056 0.0
H30 H 0.25101 0.5412 0.53459 0.0
H31 H 0.1323 0.45856 0.66491 0.0
O32 O 0.47479 0.5631 0.69457 0.0
C33 C 0.28695 0.46522 0.72711 0.0
Co34 Co 0.10864 0.03687 0.69492 0.0
Co35 Co 0.9507 0.95892 0.66194 0.0
C36 C 0.09393 0.13321 0.76981 0.0
O37 O 0.13349 0.1272 0.75911 0.0
O38 O 0.02369 0.07294 0.73638 0.0
C39 C 0.26415 0.14834 0.7545 0.0
O40 O 0.26602 0.201 0.76333 0.0
C41 C 0.84514 0.90604 0.69721 0.0
C42 C 0.74433 0.84209 0.62186 0.0
C43 C 0.77335 0.86384 0.67814 0.0
N44 N 0.85799 0.90739 0.65386 0.0
N45 N 0.79764 0.8693 0.60875 0.0
C46 C 0.90271 0.94961 0.75764 0.0
H47 H 0.95158 0.96781 0.75775 0.0
H48 H 0.87986 0.91055 0.77216 0.0
H49 H 0.92049 0.00521 0.79039 0.0
C50 C 0.04108 0.90026 0.69986 0.0
N51 N 0.03655 0.94105 0.68784 0.0
N52 N 0.96896 0.904 0.66887 0.0
C53 C 0.92772 0.8363 0.66599 0.0
C54 C 0.9725 0.83291 0.68722 0.0
C55 C 0.11112 0.92798 0.72606 0.0
H56 H 0.13228 0.93161 0.69572 0.0
H57 H 0.15358 0.99013 0.76933 0.0
H58 H 0.10227 0.88542 0.73261 0.0
O59 O 0.06521 0.01254 0.61789 0.0
O60 O 0.96072 0.96808 0.59745 0.0
H61 H 0.82006 0.77856 0.61589 0.0
H62 H 0.8187 0.71443 0.62242 0.0
C63 C 0.84764 0.77754 0.64633 0.0
H64 H 0.84245 0.79312 0.68577 0.0
H65 H 0.79289 0.86211 0.5693 0.0
O66 O 0.20191 0.07252 0.71988 0.0
C67 C 0.02607 0.02122 0.60792 0.0
Co68 Co 0.58201 0.4024 0.1809 0.0
Co69 Co 0.62355 0.44295 0.30755 0.0
C70 C 0.46502 0.32011 0.20706 0.0
O71 O 0.48412 0.33215 0.17111 0.0
O72 O 0.51287 0.35888 0.25986 0.0
C73 C 0.54219 0.33503 0.05997 0.0
O74 O 0.52689 0.27739 0.05917 0.0
C75 C 0.62484 0.4994 0.41699 0.0
C76 C 0.71979 0.54415 0.48309 0.0
C77 C 0.6659 0.53842 0.4769 0.0
N78 N 0.65381 0.48429 0.38904 0.0
N79 N 0.7101 0.51024 0.42857 0.0
C80 C 0.55765 0.47446 0.38558 0.0
H81 H 0.5087 0.40756 0.36022 0.0
H82 H 0.56113 0.4883 0.35345 0.0
H83 H 0.54898 0.50355 0.41634 0.0
C84 C 0.66545 0.57261 0.2532 0.0
N85 N 0.64839 0.51124 0.24909 0.0
N86 N 0.67134 0.53055 0.3025 0.0
C87 C 0.70763 0.60711 0.34261 0.0
C88 C 0.70228 0.6353 0.31286 0.0
C89 C 0.63286 0.56294 0.19996 0.0
H90 H 0.65584 0.55693 0.1722 0.0
H91 H 0.57204 0.50586 0.17246 0.0
H92 H 0.64476 0.61536 0.21235 0.0
O93 O 0.61013 0.35198 0.18402 0.0
O94 O 0.64288 0.3832 0.27425 0.0
H95 H 0.76574 0.63642 0.42374 0.0
H96 H 0.78391 0.71784 0.43269 0.0
C97 C 0.74072 0.65073 0.40838 0.0
H98 H 0.69753 0.63183 0.41913 0.0
H99 H 0.74331 0.50714 0.41876 0.0
O100 O 0.56942 0.39647 0.10859 0.0
C101 C 0.63112 0.34679 0.22237 0.0
Co102 Co 0.44384 0.81101 0.3483 0.0
Co103 Co 0.40038 0.72311 0.21363 0.0
C104 C 0.31853 0.62762 0.25403 0.0
O105 O 0.35507 0.69215 0.30521 0.0
O106 O 0.33274 0.63031 0.21424 0.0
C107 C 0.47808 0.81032 0.44188 0.0
O108 O 0.47186 0.75964 0.40013 0.0
C109 C 0.3529 0.60236 0.09693 0.0
C110 C 0.38021 0.66052 0.05273 0.0
C111 C 0.34826 0.58964 0.04425 0.0
N112 N 0.38555 0.67727 0.13537 0.0
N113 N 0.40205 0.71194 0.10867 0.0
C114 C 0.3282 0.54407 0.11052 0.0
H115 H 0.36898 0.57768 0.15667 0.0
H116 H 0.32172 0.49737 0.07924 0.0
H117 H 0.27392 0.51222 0.10612 0.0
C118 C 0.58629 0.87558 0.36496 0.0
N119 N 0.51809 0.83619 0.33076 0.0
N120 N 0.49904 0.79838 0.27465 0.0
C121 C 0.55339 0.81078 0.27149 0.0
C122 C 0.61019 0.85851 0.32865 0.0
C123 C 0.62626 0.92349 0.43126 0.0
H124 H 0.60934 0.9497 0.45062 0.0
H125 H 0.61361 0.8834 0.443 0.0
H126 H 0.68698 0.97337 0.4508 0.0
O127 O 0.40457 0.84178 0.32152 0.0
O128 O 0.36652 0.77081 0.22532 0.0
H129 H 0.52949 0.77446 0.18356 0.0
H130 H 0.59564 0.78452 0.2205 0.0
C131 C 0.54448 0.76476 0.21406 0.0
H132 H 0.49914 0.69852 0.1927 0.0
H133 H 0.42741 0.77027 0.12834 0.0
O134 O 0.4742 0.85045 0.43259 0.0
C135 C 0.37044 0.81494 0.26849 0.0
Co136 Co 0.76746 0.096 0.10326 0.0
Co137 Co 0.62605 0.91538 0.05359 0.0
C138 C 0.75681 0.04662 0.18026 0.0
O139 O 0.7931 0.09821 0.17051 0.0
O140 O 0.69197 0.97432 0.13972 0.0
C141 C 0.91587 0.22394 0.14912 0.0
O142 O 0.90927 0.16994 0.14604 0.0
C143 C 0.58617 0.77832 0.02975 0.0
C144 C 0.46971 0.6689 0.9558 0.0
C145 C 0.53103 0.69406 0.99087 0.0
N146 N 0.55922 0.80249 0.01949 0.0
N147 N 0.48874 0.73663 0.97602 0.0
C148 C 0.66682 0.83586 0.06974 0.0
H149 H 0.67939 0.85785 0.11586 0.0
H150 H 0.70139 0.88945 0.0697 0.0
H151 H 0.68198 0.80587 0.05621 0.0
C152 C 0.75256 0.01414 0.99031 0.0
N153 N 0.73494 0.01228 0.03178 0.0
N154 N 0.67402 0.93627 0.0091 0.0
C155 C 0.65091 0.88703 0.95183 0.0
C156 C 0.69972 0.93492 0.93813 0.0
C157 C 0.8159 0.09111 0.99938 0.0
H158 H 0.86855 0.12289 0.03406 0.0
H159 H 0.8178 0.07923 0.95845 0.0
H160 H 0.81204 0.13213 0.01487 0.0
O161 O 0.68831 0.08219 0.09359 0.0
O162 O 0.5832 0.95376 0.05616 0.0
H163 H 0.53345 0.78803 0.91035 0.0
H164 H 0.56616 0.77243 0.86233 0.0
C165 C 0.57823 0.79779 0.90861 0.0
H166 H 0.57935 0.76458 0.92143 0.0
H167 H 0.45541 0.73805 0.95713 0.0
O168 O 0.85841 0.20452 0.12958 0.0
C169 C 0.61986 0.02636 0.07558 0.0
Co170 Co 0.0141 0.84192 0.19084 0.0
Co171 Co 0.97366 0.75533 0.05902 0.0
C172 C 0.08864 0.93889 0.14855 0.0
O173 O 0.0769 0.93415 0.18882 0.0
O174 O 0.05314 0.87487 0.09713 0.0
C175 C 0.10026 0.95056 0.31321 0.0
O176 O 0.14504 0.95326 0.30002 0.0
C177 C 0.93697 0.73426 0.95004 0.0
C178 C 0.93427 0.64868 0.89367 0.0
C179 C 0.93423 0.70132 0.89756 0.0
N180 N 0.94014 0.70424 0.9767 0.0
N181 N 0.93681 0.65154 0.94221 0.0
C182 C 0.94073 0.79715 0.97636 0.0
H183 H 0.91988 0.79351 0.00693 0.0
H184 H 0.90798 0.7883 0.94052 0.0
H185 H -0.0011 0.85915 0.00232 0.0
C186 C 0.85442 0.73954 0.12865 0.0
N187 N 0.91365 0.76107 0.12874 0.0
N188 N 0.89594 0.72093 0.07336 0.0
C189 C 0.82386 0.66931 0.03627 0.0
C190 C 0.79466 0.67994 0.06976 0.0
C191 C 0.85883 0.78448 0.18333 0.0
H192 H 0.83844 0.74986 0.20154 0.0
H193 H 0.91668 0.84616 0.21783 0.0
H194 H 0.8245 0.79123 0.17292 0.0
O195 O 0.05555 0.80253 0.18535 0.0
O196 O 0.02297 0.73672 0.09066 0.0
H197 H 0.80505 0.58679 0.95864 0.0
H198 H 0.7235 0.55841 0.95025 0.0
C199 C 0.78404 0.61046 0.97 0.0
H200 H 0.79459 0.64244 0.95045 0.0
H201 H 0.94215 0.62252 0.95395 0.0
O202 O 0.03313 0.89608 0.27185 0.0
C203 C 0.05619 0.76303 0.14354 0.0
H204 H 0.50811 0.75101 0.47932 0.0
H205 H 0.44592 0.86536 0.51912 0.0
H206 H 0.42315 0.838 0.59077 0.0
H207 H 0.40825 0.7676 0.63395 0.0
H208 H 0.46178 0.64465 0.58506 0.0
H209 H 0.50187 0.6906 0.52642 0.0
C210 C 0.49052 0.77106 0.5042 0.0
C211 C 0.47795 0.80933 0.49338 0.0
C212 C 0.47574 0.75323 0.5438 0.0
C213 C 0.45605 0.83575 0.5266 0.0
C214 C 0.44244 0.81949 0.56722 0.0
C215 C 0.42919 0.75157 0.61071 0.0
C216 C 0.43281 0.70356 0.61456 0.0
C217 C 0.44992 0.77596 0.57485 0.0
C218 C 0.46033 0.68342 0.58439 0.0
C219 C 0.48246 0.70882 0.5501 0.0
H220 H 0.79465 0.16901 0.27106 0.0
H221 H 0.7895 0.99408 0.22767 0.0
H222 H 0.86648 0.06782 0.3343 0.0
H223 H 0.95051 0.1942 0.43782 0.0
H224 H 0.95645 0.36955 0.47977 0.0
H225 H 0.86222 0.28272 0.37547 0.0
C226 C 0.80917 0.14623 0.28527 0.0
C227 C 0.78777 0.07732 0.24237 0.0
C228 C 0.85372 0.18933 0.34601 0.0
C229 C 0.80574 0.04719 0.26041 0.0
C230 C 0.85003 0.08965 0.32114 0.0
C231 C 0.92965 0.2121 0.42405 0.0
C232 C 0.96038 0.28811 0.46554 0.0
C233 C 0.87664 0.16254 0.36407 0.0
C234 C 0.9331 0.31109 0.44818 0.0
C235 C 0.87989 0.26187 0.38865 0.0
H236 H 0.29906 0.30139 0.54432 0.0
H237 H 0.09684 0.22095 0.46776 0.0
H238 H 0.03313 0.08605 0.38896 0.0
H239 H 0.03593 0.99274 0.33844 0.0
H240 H 0.23787 0.07235 0.41303 0.0
H241 H 0.29965 0.20458 0.49677 0.0
C242 C 0.24111 0.25444 0.51036 0.0
C243 C 0.20345 0.27221 0.51145 0.0
C244 C 0.20429 0.17626 0.46514 0.0
C245 C 0.12796 0.21001 0.46745 0.0
C246 C 0.09108 0.13232 0.42253 0.0
C247 C 0.09301 0.03832 0.37359 0.0
C248 C 0.13227 0.02277 0.36935 0.0
C249 C 0.12882 0.11498 0.4206 0.0
C250 C 0.20639 0.08283 0.41518 0.0
C251 C 0.24196 0.15872 0.46286 0.0
H252 H 0.64829 0.51096 0.55893 0.0
H253 H 0.66762 0.64651 0.50217 0.0
H254 H 0.6201 0.67491 0.55955 0.0
H255 H 0.55544 0.64288 0.61185 0.0
H256 H 0.53584 0.50958 0.67116 0.0
H257 H 0.60514 0.50253 0.62981 0.0
C258 C 0.64442 0.54907 0.56101 0.0
C259 C 0.65802 0.5737 0.52458 0.0
C260 C 0.61793 0.56629 0.59497 0.0
C261 C 0.65474 0.62462 0.52839 0.0
C262 C 0.62824 0.64147 0.5615 0.0
C263 C 0.56833 0.61443 0.61727 0.0
C264 C 0.54023 0.57599 0.64365 0.0
C265 C 0.60664 0.60955 0.59267 0.0
C266 C 0.55755 0.53995 0.65114 0.0
C267 C 0.59636 0.53516 0.62692 0.0
H268 H 0.86193 0.61904 0.77731 0.0
H269 H 0.05162 0.85975 0.94441 0.0
H270 H 0.08131 0.92057 0.89332 0.0
H271 H 0.05009 0.90683 0.80254 0.0
H272 H 0.86457 0.66817 0.63345 0.0
H273 H 0.83606 0.60462 0.68351 0.0
C274 C 0.90973 0.68464 0.80213 0.0
C275 C 0.95289 0.73527 0.86458 0.0
C276 C 0.92709 0.7194 0.77218 0.0
C277 C 0.01564 0.82002 0.89654 0.0
C278 C 0.03322 0.8548 0.86734 0.0
C279 C 0.00437 0.84076 0.7765 0.0
C280 C 0.95945 0.79209 0.71464 0.0
C281 C 0.98878 0.80528 0.80541 0.0
C282 C 0.89945 0.70674 0.68136 0.0
C283 C 0.88334 0.67054 0.70993 0.0
H284 H 0.45664 0.19722 0.9473 0.0
H285 H 0.56531 0.4418 0.04574 0.0
H286 H 0.49797 0.40901 0.95452 0.0
H287 H 0.39259 0.30421 0.85182 0.0
H288 H 0.27806 0.05714 0.75515 0.0
H289 H 0.36453 0.09816 0.84025 0.0
C290 C 0.46681 0.24393 0.94865 0.0
C291 C 0.51456 0.32116 0.00349 0.0
C292 C 0.42622 0.22392 0.89636 0.0
C293 C 0.52783 0.38133 0.00428 0.0
C294 C 0.4892 0.36258 0.95211 0.0
C295 C 0.38753 0.25964 0.84866 0.0
C296 C 0.3277 0.1772 0.79769 0.0
C297 C 0.43575 0.28296 0.89854 0.0
C298 C 0.32279 0.12068 0.7942 0.0
C299 C 0.37203 0.14401 0.84301 0.0
H300 H 0.23804 0.2823 0.82992 0.0
H301 H 0.03161 0.16402 0.82126 0.0
H302 H 0.09161 0.29608 0.90324 0.0
H303 H 0.20369 0.44466 0.97961 0.0
H304 H 0.40942 0.56311 0.98841 0.0
H305 H 0.34865 0.43183 0.90289 0.0
C306 C 0.20613 0.28533 0.84594 0.0
C307 C 0.13056 0.21321 0.81983 0.0
C308 C 0.2407 0.36158 0.89245 0.0
C309 C 0.08988 0.21846 0.84071 0.0
C310 C 0.12409 0.29395 0.8875 0.0
C311 C 0.23465 0.44142 0.96204 0.0
C312 C 0.31038 0.51291 0.98902 0.0
C313 C 0.19946 0.36574 0.91385 0.0
C314 C 0.35065 0.5088 0.96682 0.0
C315 C 0.31607 0.4337 0.91866 0.0
H316 H 0.69821 0.83194 0.86871 0.0
H317 H 0.68328 0.98345 0.8766 0.0
H318 H 0.69395 0.96471 0.78931 0.0
H319 H 0.72452 0.92027 0.71949 0.0
H320 H 0.7446 0.77356 0.71448 0.0
H321 H 0.71222 0.77229 0.78998 0.0
C322 C 0.69569 0.85915 0.85028 0.0
C323 C 0.6916 0.91024 0.87926 0.0
C324 C 0.7029 0.84896 0.80067 0.0
C325 C 0.68776 0.94499 0.8552 0.0
C326 C 0.69406 0.9345 0.80553 0.0
C327 C 0.71983 0.88644 0.73403 0.0
C328 C 0.73725 0.84761 0.71227 0.0
C329 C 0.70409 0.88881 0.77909 0.0
C330 C 0.7317 0.80426 0.73131 0.0
C331 C 0.71371 0.80398 0.77464 0.0
H332 H 0.76508 0.76335 0.30955 0.0
H333 H 0.61988 0.62232 0.35929 0.0
H334 H 0.59089 0.69268 0.38032 0.0
H335 H 0.58971 0.77572 0.36848 0.0
H336 H 0.72664 0.91276 0.31324 0.0
H337 H 0.77578 0.86257 0.30997 0.0
C338 C 0.72846 0.74972 0.32622 0.0
C339 C 0.69548 0.68856 0.3336 0.0
C340 C 0.70961 0.78865 0.33625 0.0
C341 C 0.64747 0.67051 0.35466 0.0
C342 C 0.63006 0.71003 0.36604 0.0
C343 C 0.63269 0.79751 0.35822 0.0
C344 C 0.655 0.84808 0.34149 0.0
C345 C 0.65879 0.76701 0.3551 0.0
C346 C 0.70905 0.87394 0.32651 0.0
C347 C 0.73654 0.84472 0.3242 0.0
H348 H 0.39817 0.29697 0.27077 0.0
H349 H 0.35243 0.18762 0.09134 0.0
H350 H 0.22669 0.06141 0.05528 0.0
H351 H 0.13674 0.97614 0.07732 0.0
H352 H 0.18359 0.08672 0.25742 0.0
H353 H 0.30139 0.21828 0.29028 0.0
C354 C 0.36051 0.24605 0.22376 0.0
C355 C 0.38532 0.2513 0.18422 0.0
C356 C 0.28852 0.17336 0.20339 0.0
C357 C 0.33501 0.18522 0.12298 0.0
C358 C 0.26313 0.11269 0.10228 0.0
C359 C 0.17191 0.02929 0.12349 0.0
C360 C 0.15175 0.02086 0.16491 0.0
C361 C 0.24025 0.10508 0.14246 0.0
C362 C 0.19786 0.09086 0.22452 0.0
C363 C 0.26556 0.16634 0.24355 0.0
H364 H 0.03083 0.26281 0.14406 0.0
H365 H 0.96351 0.36652 0.21018 0.0
H366 H 0.08655 0.50316 0.2547 0.0
H367 H 0.2115 0.5919 0.27184 0.0
H368 H 0.27431 0.48678 0.19557 0.0
H369 H 0.15493 0.35132 0.15845 0.0
C370 C 0.04347 0.31556 0.16845 0.0
C371 C 0.98895 0.30539 0.17429 0.0
C372 C 0.11336 0.39321 0.1923 0.0
C373 C 0.00495 0.37342 0.20506 0.0
C374 C 0.07518 0.45134 0.23069 0.0
C375 C 0.19923 0.53933 0.24797 0.0
C376 C 0.25126 0.54852 0.23723 0.0
C377 C 0.12962 0.4618 0.22441 0.0
C378 C 0.23475 0.48037 0.20474 0.0
C379 C 0.16666 0.40328 0.18337 0.0
H380 H 0.72193 0.65589 0.97453 0.0
H381 H 0.70602 0.63775 0.11653 0.0
H382 H 0.60894 0.6247 0.09747 0.0
H383 H 0.54715 0.64552 0.0524 0.0
H384 H 0.55484 0.64882 0.90405 0.0
H385 H 0.63356 0.63523 0.91109 0.0
C386 C 0.69525 0.64509 0.99965 0.0
C387 C 0.72338 0.65061 0.04831 0.0
C388 C 0.63764 0.63462 0.98704 0.0
C389 C 0.68781 0.63735 0.08047 0.0
C390 C 0.63175 0.62914 0.06925 0.0
C391 C 0.56285 0.63872 0.01968 0.0
C392 C 0.54571 0.64839 0.9779 0.0
C393 C 0.60874 0.6316 0.02441 0.0
C394 C 0.56698 0.64075 0.93616 0.0
C395 C 0.61301 0.63436 0.94086 0.0
H396 H 0.17468 0.16353 0.68139 0.0
H397 H 0.96555 0.06984 0.60533 0.0
H398 H 0.03027 0.20899 0.65373 0.0
H399 H 0.14643 0.35357 0.70458 0.0
H400 H 0.35489 0.4464 0.78379 0.0
H401 H 0.28972 0.31199 0.75254 0.0
C402 C 0.14303 0.17341 0.67655 0.0
C403 C 0.06535 0.10603 0.63944 0.0
C404 C 0.18033 0.25354 0.70627 0.0
C405 C 0.0254 0.12038 0.63326 0.0
C406 C 0.06232 0.20001 0.66138 0.0
C407 C 0.17794 0.34543 0.71718 0.0
C408 C 0.25532 0.40881 0.743 0.0
C409 C 0.13991 0.26684 0.69664 0.0
C410 C 0.29512 0.39805 0.76171 0.0
C411 C 0.25777 0.32052 0.74273 0.0
H412 H 0.65184 0.11715 0.18282 0.0
H413 H 0.52997 0.00782 0.99911 0.0
H414 H 0.52298 0.10007 0.02931 0.0
H415 H 0.56516 0.22235 0.10897 0.0
H416 H 0.69403 0.33609 0.29317 0.0
H417 H 0.68652 0.2327 0.2619 0.0
C418 C 0.62113 0.11153 0.14942 0.0
C419 C 0.58974 0.05488 0.08891 0.0
C420 C 0.62145 0.16767 0.1674 0.0
C421 C 0.55233 0.04941 0.04578 0.0
C422 C 0.54991 0.10333 0.06321 0.0
C423 C 0.59216 0.225 0.14233 0.0
C424 C 0.63138 0.28791 0.20341 0.0
C425 C 0.58691 0.1648 0.12404 0.0
C426 C 0.66444 0.28913 0.24595 0.0
C427 C 0.65961 0.22963 0.22813 0.0
H428 H 0.17114 0.85564 0.25272 0.0
H429 H 0.0541 0.66234 0.06669 0.0
H430 H 0.14488 0.66665 0.08858 0.0
H431 H 0.25744 0.72557 0.15991 0.0
H432 H 0.3746 0.91805 0.34624 0.0
H433 H 0.2846 0.91509 0.32444 0.0
C434 C 0.16479 0.81356 0.21706 0.0
C435 C 0.1054 0.75821 0.15817 0.0
C436 C 0.21805 0.81742 0.22976 0.0
C437 C 0.09893 0.70518 0.11242 0.0
C438 C 0.15113 0.70801 0.12483 0.0
C439 C 0.26419 0.76792 0.19578 0.0
C440 C 0.32322 0.82246 0.25464 0.0
C441 C 0.21129 0.76444 0.18318 0.0
C442 C 0.33007 0.87582 0.3005 0.0
C443 C 0.27825 0.87369 0.28813 0.0
loop_
_geom_bond_atom_site_label_1
_geom_bond_atom_site_label_2
_geom_bond_distance
_geom_bond_site_symmetry_2
_ccdc_geom_bond_type
Co0 O3 1.970 . S
Co0 N17 1.989 . S
Co0 O25 1.967 . S
Co0 O32 1.920 . S
Co1 O4 1.966 . S
Co1 N10 2.022 . S
Co1 N18 1.993 . S
Co1 O26 1.941 . S
C2 O3 1.258 . S
C2 O4 1.263 . S
O3 Co0 1.970 . S
O3 C2 1.258 . S
O4 Co1 1.966 . S
O4 C2 1.263 . S
C5 O6 1.235 . S
C5 O32 1.289 . S
O6 C5 1.235 . S
C7 C9 1.414 . S
C7 N10 1.351 . S
C7 C12 1.501 . S
C8 C9 1.383 . S
C8 N11 1.341 . S
C9 C7 1.414 . S
C9 C8 1.383 . S
N10 Co1 2.022 . S
N10 C7 1.351 . S
N10 N11 1.365 . S
N11 C8 1.341 . S
N11 N10 1.365 . S
N11 H31 0.862 . S
C12 C7 1.501 . S
C12 H13 0.961 . S
C12 H14 0.961 . S
C12 H15 0.960 1_455 S
H13 C12 0.961 . S
H14 C12 0.961 . S
H15 C12 0.960 1_655 S
C16 N17 1.342 . S
C16 C20 1.401 . S
C16 C21 1.499 . S
N17 Co0 1.989 . S
N17 C16 1.342 . S
N17 N18 1.388 . S
N18 Co1 1.993 . S
N18 N17 1.388 . S
N18 C19 1.346 . S
C19 N18 1.346 . S
C19 C20 1.396 . S
C19 C29 1.510 . S
C20 C16 1.401 . S
C20 C19 1.396 . S
C21 C16 1.499 . S
C21 H22 0.959 . S
C21 H23 0.960 . S
C21 H24 0.961 . S
H22 C21 0.959 . S
H23 C21 0.960 . S
H24 C21 0.961 . S
O25 Co0 1.967 . S
O25 C33 1.258 . S
O26 Co1 1.941 . S
O26 C33 1.266 . S
H27 C29 0.959 . S
H28 C29 0.961 . S
C29 C19 1.510 . S
C29 H27 0.959 . S
C29 H28 0.961 . S
C29 H30 0.960 . S
H30 C29 0.960 . S
H31 N11 0.862 . S
O32 Co0 1.920 . S
O32 C5 1.289 . S
C33 O25 1.258 . S
C33 O26 1.266 . S
Co34 O37 1.970 . S
Co34 N51 1.989 1_545 S
Co34 O59 1.967 . S
Co34 O66 1.920 . S
Co35 O38 1.966 1_665 S
Co35 N44 2.022 . S
Co35 N52 1.993 1_655 S
Co35 O60 1.941 1_655 S
C36 O37 1.258 . S
C36 O38 1.263 . S
O37 Co34 1.970 . S
O37 C36 1.258 . S
O38 Co35 1.966 1_445 S
O38 C36 1.263 . S
C39 O40 1.235 . S
C39 O66 1.289 . S
O40 C39 1.235 . S
C41 C43 1.400 . S
C41 N44 1.351 . S
C41 C46 1.501 1_565 S
C42 C43 1.387 . S
C42 N45 1.341 . S
C43 C41 1.400 . S
C43 C42 1.387 . S
N44 Co35 2.022 . S
N44 C41 1.351 . S
N44 N45 1.365 . S
N45 C42 1.341 . S
N45 N44 1.365 . S
N45 H65 0.862 . S
C46 C41 1.501 1_545 S
C46 H47 0.961 . S
C46 H48 0.961 . S
C46 H49 0.960 . S
H47 C46 0.961 . S
H48 C46 0.961 . S
H49 C46 0.960 . S
C50 N51 1.342 . S
C50 C54 1.401 . S
C50 C55 1.499 . S
N51 Co34 1.989 1_565 S
N51 C50 1.342 . S
N51 N52 1.388 . S
N52 Co35 1.993 1_455 S
N52 N51 1.388 . S
N52 C53 1.346 1_455 S
C53 N52 1.346 1_655 S
C53 C54 1.396 1_655 S
C53 C63 1.510 . S
C54 C50 1.401 . S
C54 C53 1.396 1_455 S
C55 C50 1.499 . S
C55 H56 0.959 . S
C55 H57 0.960 . S
C55 H58 0.961 . S
H56 C55 0.959 . S
H57 C55 0.960 . S
H58 C55 0.961 . S
O59 Co34 1.967 . S
O59 C67 1.258 . S
O60 Co35 1.941 1_455 S
O60 C67 1.266 1_565 S
H61 C63 0.959 . S
H62 C63 0.961 . S
C63 C53 1.510 . S
C63 H61 0.959 . S
C63 H62 0.961 . S
C63 H64 0.960 . S
H64 C63 0.960 . S
H65 N45 0.862 . S
O66 Co34 1.920 . S
O66 C39 1.289 . S
C67 O59 1.258 . S
C67 O60 1.266 1_545 S
Co68 O71 1.970 . S
Co68 N85 1.989 . S
Co68 O93 1.967 . S
Co68 O100 1.920 . S
Co69 O72 1.966 . S
Co69 N78 2.022 . S
Co69 N86 1.993 . S
Co69 O94 1.941 . S
C70 O71 1.258 . S
C70 O72 1.263 . S
O71 Co68 1.970 . S
O71 C70 1.258 . S
O72 Co69 1.966 . S
O72 C70 1.263 . S
C73 O74 1.235 . S
C73 O100 1.289 . S
O74 C73 1.235 . S
C75 C77 1.400 . S
C75 N78 1.351 . S
C75 C80 1.501 . S
C76 C77 1.387 . S
C76 N79 1.341 . S
C77 C75 1.400 . S
C77 C76 1.387 . S
N78 Co69 2.022 . S
N78 C75 1.351 . S
N78 N79 1.365 . S
N79 C76 1.341 . S
N79 N78 1.365 . S
N79 H99 0.862 . S
C80 C75 1.501 . S
C80 H81 0.961 . S
C80 H82 0.961 . S
C80 H83 0.960 . S
H81 C80 0.961 . S
H82 C80 0.961 . S
H83 C80 0.960 . S
C84 N85 1.342 . S
C84 C88 1.401 . S
C84 C89 1.499 . S
N85 Co68 1.989 . S
N85 C84 1.342 . S
N85 N86 1.388 . S
N86 Co69 1.993 . S
N86 N85 1.388 . S
N86 C87 1.346 . S
C87 N86 1.346 . S
C87 C88 1.396 . S
C87 C97 1.510 . S
C88 C84 1.401 . S
C88 C87 1.396 . S
C89 C84 1.499 . S
C89 H90 0.959 . S
C89 H91 0.960 . S
C89 H92 0.961 . S
H90 C89 0.959 . S
H91 C89 0.960 . S
H92 C89 0.961 . S
O93 Co68 1.967 . S
O93 C101 1.258 . S
O94 Co69 1.941 . S
O94 C101 1.266 . S
H95 C97 0.959 . S
H96 C97 0.961 . S
C97 C87 1.510 . S
C97 H95 0.959 . S
C97 H96 0.961 . S
C97 H98 0.960 . S
H98 C97 0.960 . S
H99 N79 0.862 . S
O100 Co68 1.920 . S
O100 C73 1.289 . S
C101 O93 1.258 . S
C101 O94 1.266 . S
Co102 O105 1.970 . S
Co102 N119 1.989 . S
Co102 O127 1.967 . S
Co102 O134 1.920 . S
Co103 O106 1.966 . S
Co103 N112 2.022 . S
Co103 N120 1.993 . S
Co103 O128 1.941 . S
C104 O105 1.258 . S
C104 O106 1.263 . S
O105 Co102 1.970 . S
O105 C104 1.258 . S
O106 Co103 1.966 . S
O106 C104 1.263 . S
C107 O108 1.235 . S
C107 O134 1.289 . S
O108 C107 1.235 . S
C109 C111 1.400 . S
C109 N112 1.351 . S
C109 C114 1.501 . S
C110 C111 1.387 . S
C110 N113 1.341 . S
C111 C109 1.400 . S
C111 C110 1.387 . S
N112 Co103 2.022 . S
N112 C109 1.351 . S
N112 N113 1.365 . S
N113 C110 1.341 . S
N113 N112 1.365 . S
N113 H133 0.862 . S
C114 C109 1.501 . S
C114 H115 0.961 . S
C114 H116 0.961 . S
C114 H117 0.960 . S
H115 C114 0.961 . S
H116 C114 0.961 . S
H117 C114 0.960 . S
C118 N119 1.342 . S
C118 C122 1.401 . S
C118 C123 1.499 . S
N119 Co102 1.989 . S
N119 C118 1.342 . S
N119 N120 1.388 . S
N120 Co103 1.993 . S
N120 N119 1.388 . S
N120 C121 1.346 . S
C121 N120 1.346 . S
C121 C122 1.396 . S
C121 C131 1.510 . S
C122 C118 1.401 . S
C122 C121 1.396 . S
C123 C118 1.499 . S
C123 H124 0.959 . S
C123 H125 0.960 . S
C123 H126 0.961 . S
H124 C123 0.959 . S
H125 C123 0.960 . S
H126 C123 0.961 . S
O127 Co102 1.967 . S
O127 C135 1.258 . S
O128 Co103 1.941 . S
O128 C135 1.266 . S
H129 C131 0.959 . S
H130 C131 0.961 . S
C131 C121 1.510 . S
C131 H129 0.959 . S
C131 H130 0.961 . S
C131 H132 0.960 . S
H132 C131 0.960 . S
H133 N113 0.862 . S
O134 Co102 1.920 . S
O134 C107 1.289 . S
C135 O127 1.258 . S
C135 O128 1.266 . S
Co136 O139 1.970 . S
Co136 N153 1.989 1_554 S
Co136 O161 1.967 . S
Co136 O168 1.920 . S
Co137 O140 1.966 1_565 S
Co137 N146 2.022 . S
Co137 N154 1.993 1_554 S
Co137 O162 1.941 . S
C138 O139 1.258 . S
C138 O140 1.263 . S
O139 Co136 1.970 . S
O139 C138 1.258 . S
O140 Co137 1.966 1_545 S
O140 C138 1.263 . S
C141 O142 1.235 . S
C141 O168 1.289 . S
O142 C141 1.235 . S
C143 C145 1.400 1_554 S
C143 N146 1.351 . S
C143 C148 1.501 . S
C144 C145 1.387 . S
C144 N147 1.341 . S
C145 C143 1.400 1_556 S
C145 C144 1.387 . S
N146 Co137 2.022 . S
N146 C143 1.351 . S
N146 N147 1.365 1_554 S
N147 C144 1.341 . S
N147 N146 1.365 1_556 S
N147 H167 0.862 . S
C148 C143 1.501 . S
C148 H149 0.961 . S
C148 H150 0.961 . S
C148 H151 0.960 . S
H149 C148 0.961 . S
H150 C148 0.961 . S
H151 C148 0.960 . S
C152 N153 1.342 . S
C152 C156 1.401 1_545 S
C152 C157 1.499 . S
N153 Co136 1.989 1_556 S
N153 C152 1.342 . S
N153 N154 1.388 1_545 S
N154 Co137 1.993 1_556 S
N154 N153 1.388 1_565 S
N154 C155 1.346 . S
C155 N154 1.346 . S
C155 C156 1.396 . S
C155 C165 1.510 . S
C156 C152 1.401 1_565 S
C156 C155 1.396 . S
C157 C152 1.499 . S
C157 H158 0.959 . S
C157 H159 0.960 . S
C157 H160 0.961 . S
H158 C157 0.959 . S
H159 C157 0.960 . S
H160 C157 0.961 . S
O161 Co136 1.967 . S
O161 C169 1.258 . S
O162 Co137 1.941 . S
O162 C169 1.266 1_565 S
H163 C165 0.959 . S
H164 C165 0.961 . S
C165 C155 1.510 . S
C165 H163 0.959 . S
C165 H164 0.961 . S
C165 H166 0.960 . S
H166 C165 0.960 . S
H167 N147 0.862 . S
O168 Co136 1.920 . S
O168 C141 1.289 . S
C169 O161 1.258 . S
C169 O162 1.266 1_545 S
Co170 O173 1.970 . S
Co170 N187 1.989 1_455 S
Co170 O195 1.967 . S
Co170 O202 1.920 . S
Co171 O174 1.966 1_655 S
Co171 N180 2.022 1_554 S
Co171 N188 1.993 . S
Co171 O196 1.941 . S
C172 O173 1.258 . S
C172 O174 1.263 . S
O173 Co170 1.970 . S
O173 C172 1.258 . S
O174 Co171 1.966 1_455 S
O174 C172 1.263 . S
C175 O176 1.235 . S
C175 O202 1.289 . S
O176 C175 1.235 . S
C177 C179 1.400 . S
C177 N180 1.351 . S
C177 C182 1.501 1_655 S
C178 C179 1.387 . S
C178 N181 1.341 . S
C179 C177 1.400 . S
C179 C178 1.387 . S
N180 Co171 2.022 1_556 S
N180 C177 1.351 . S
N180 N181 1.365 . S
N181 C178 1.341 . S
N181 N180 1.365 . S
N181 H201 0.862 . S
C182 C177 1.501 1_455 S
C182 H183 0.961 1_556 S
C182 H184 0.961 . S
C182 H185 0.960 . S
H183 C182 0.961 1_554 S
H184 C182 0.961 . S
H185 C182 0.960 . S
C186 N187 1.342 . S
C186 C190 1.401 . S
C186 C191 1.499 . S
N187 Co170 1.989 1_655 S
N187 C186 1.342 . S
N187 N188 1.388 . S
N188 Co171 1.993 . S
N188 N187 1.388 . S
N188 C189 1.346 . S
C189 N188 1.346 . S
C189 C190 1.396 . S
C189 C199 1.510 1_554 S
C190 C186 1.401 . S
C190 C189 1.396 . S
C191 C186 1.499 . S
C191 H192 0.959 . S
C191 H193 0.960 . S
C191 H194 0.961 . S
H192 C191 0.959 . S
H193 C191 0.960 . S
H194 C191 0.961 . S
O195 Co170 1.967 . S
O195 C203 1.258 . S
O196 Co171 1.941 . S
O196 C203 1.266 1_655 S
H197 C199 0.959 . S
H198 C199 0.961 . S
C199 C189 1.510 1_556 S
C199 H197 0.959 . S
C199 H198 0.961 . S
C199 H200 0.960 . S
H200 C199 0.960 . S
H201 N181 0.862 . S
O202 Co170 1.920 . S
O202 C175 1.289 . S
C203 O195 1.258 . S
C203 O196 1.266 1_455 S
H204 C210 0.930 . S
H205 C213 0.930 . S
H206 C214 0.930 . S
H207 C215 0.930 . S
H208 C218 0.930 . S
H209 C219 0.930 . S
C210 H204 0.930 . S
C210 C211 1.355 . S
C210 C212 1.415 . S
C211 C210 1.355 . S
C211 C213 1.419 . S
C212 C210 1.415 . S
C212 C217 1.425 . S
C212 C219 1.409 . S
C213 H205 0.930 . S
C213 C211 1.419 . S
C213 C214 1.362 . S
C214 H206 0.930 . S
C214 C213 1.362 . S
C214 C217 1.409 . S
C215 H207 0.930 . S
C215 C216 1.355 . S
C215 C217 1.415 . S
C216 C215 1.355 . S
C216 C218 1.419 . S
C217 C212 1.425 . S
C217 C214 1.409 . S
C217 C215 1.415 . S
C218 H208 0.930 . S
C218 C216 1.419 . S
C218 C219 1.362 . S
C219 H209 0.930 . S
C219 C212 1.409 . S
C219 C218 1.362 . S
H220 C226 0.930 . S
H221 C229 0.930 . S
H222 C230 0.930 . S
H223 C231 0.930 . S
H224 C234 0.930 . S
H225 C235 0.930 . S
C226 H220 0.930 . S
C226 C227 1.355 . S
C226 C228 1.415 . S
C227 C226 1.355 . S
C227 C229 1.419 . S
C228 C226 1.415 . S
C228 C233 1.425 . S
C228 C235 1.409 . S
C229 H221 0.930 . S
C229 C227 1.419 . S
C229 C230 1.362 . S
C230 H222 0.930 . S
C230 C229 1.362 . S
C230 C233 1.409 . S
C231 H223 0.930 . S
C231 C232 1.355 . S
C231 C233 1.415 . S
C232 C231 1.355 . S
C232 C234 1.419 . S
C233 C228 1.425 . S
C233 C230 1.409 . S
C233 C231 1.415 . S
C234 H224 0.930 . S
C234 C232 1.419 . S
C234 C235 1.362 . S
C235 H225 0.930 . S
C235 C228 1.409 . S
C235 C234 1.362 . S
H236 C242 0.930 . S
H237 C245 0.930 . S
H238 C246 0.930 . S
H239 C247 0.930 1_565 S
H240 C250 0.930 1_565 S
H241 C251 0.930 . S
C242 H236 0.930 . S
C242 C243 1.355 . S
C242 C244 1.415 . S
C243 C242 1.355 . S
C243 C245 1.419 . S
C244 C242 1.415 . S
C244 C249 1.425 . S
C244 C251 1.409 . S
C245 H237 0.930 . S
C245 C243 1.419 . S
C245 C246 1.362 . S
C246 H238 0.930 . S
C246 C245 1.362 . S
C246 C249 1.409 . S
C247 H239 0.930 1_545 S
C247 C248 1.355 1_545 S
C247 C249 1.415 . S
C248 C247 1.355 1_565 S
C248 C250 1.419 1_565 S
C249 C244 1.425 . S
C249 C246 1.409 . S
C249 C247 1.415 . S
C250 H240 0.930 1_545 S
C250 C248 1.419 1_545 S
C250 C251 1.362 . S
C251 H241 0.930 . S
C251 C244 1.409 . S
C251 C250 1.362 . S
H252 C258 0.930 . S
H253 C261 0.930 . S
H254 C262 0.930 . S
H255 C263 0.930 . S
H256 C266 0.930 . S
H257 C267 0.930 . S
C258 H252 0.930 . S
C258 C259 1.355 . S
C258 C260 1.415 . S
C259 C258 1.355 . S
C259 C261 1.419 . S
C260 C258 1.415 . S
C260 C265 1.425 . S
C260 C267 1.409 . S
C261 H253 0.930 . S
C261 C259 1.419 . S
C261 C262 1.362 . S
C262 H254 0.930 . S
C262 C261 1.362 . S
C262 C265 1.409 . S
C263 H255 0.930 . S
C263 C264 1.355 . S
C263 C265 1.415 . S
C264 C263 1.355 . S
C264 C266 1.419 . S
C265 C260 1.425 . S
C265 C262 1.409 . S
C265 C263 1.415 . S
C266 H256 0.930 . S
C266 C264 1.419 . S
C266 C267 1.362 . S
C267 H257 0.930 . S
C267 C260 1.409 . S
C267 C266 1.362 . S
H268 C274 0.930 . S
H269 C277 0.930 . S
H270 C278 0.930 . S
H271 C279 0.930 . S
H272 C282 0.930 . S
H273 C283 0.930 . S
C274 H268 0.930 . S
C274 C275 1.355 . S
C274 C276 1.415 . S
C275 C274 1.355 . S
C275 C277 1.419 1_655 S
C276 C274 1.415 . S
C276 C281 1.425 1_655 S
C276 C283 1.409 . S
C277 H269 0.930 . S
C277 C275 1.419 1_455 S
C277 C278 1.362 . S
C278 H270 0.930 . S
C278 C277 1.362 . S
C278 C281 1.409 . S
C279 H271 0.930 . S
C279 C280 1.355 1_455 S
C279 C281 1.415 . S
C280 C279 1.355 1_655 S
C280 C282 1.419 . S
C281 C276 1.425 1_455 S
C281 C278 1.409 . S
C281 C279 1.415 . S
C282 H272 0.930 . S
C282 C280 1.419 . S
C282 C283 1.362 . S
C283 H273 0.930 . S
C283 C276 1.409 . S
C283 C282 1.362 . S
H284 C290 0.930 . S
H285 C293 0.930 . S
H286 C294 0.921 1_556 S
H287 C295 0.930 . S
H288 C298 0.930 . S
H289 C299 0.930 . S
C290 H284 0.930 . S
C290 C291 1.355 . S
C290 C292 1.415 1_554 S
C291 C290 1.355 . S
C291 C293 1.419 . S
C292 C290 1.415 1_556 S
C292 C297 1.425 . S
C292 C299 1.409 . S
C293 H285 0.930 . S
C293 C291 1.419 . S
C293 C294 1.378 . S
C294 H286 0.921 1_554 S
C294 C293 1.378 . S
C294 C297 1.402 1_554 S
C295 H287 0.930 . S
C295 C296 1.355 . S
C295 C297 1.415 . S
C296 C295 1.355 . S
C296 C298 1.419 . S
C297 C292 1.425 . S
C297 C294 1.402 1_556 S
C297 C295 1.415 . S
C298 H288 0.930 . S
C298 C296 1.419 . S
C298 C299 1.362 . S
C299 H289 0.930 . S
C299 C292 1.409 . S
C299 C298 1.362 . S
H300 C306 0.930 . S
H301 C309 0.930 . S
H302 C310 0.930 . S
H303 C311 0.930 . S
H304 C314 0.930 . S
H305 C315 0.930 . S
C306 H300 0.930 . S
C306 C307 1.355 . S
C306 C308 1.415 . S
C307 C306 1.355 . S
C307 C309 1.419 . S
C308 C306 1.415 . S
C308 C313 1.425 . S
C308 C315 1.409 . S
C309 H301 0.930 . S
C309 C307 1.419 . S
C309 C310 1.362 . S
C310 H302 0.930 . S
C310 C309 1.362 . S
C310 C313 1.409 . S
C311 H303 0.930 . S
C311 C312 1.355 . S
C311 C313 1.415 . S
C312 C311 1.355 . S
C312 C314 1.419 . S
C313 C308 1.425 . S
C313 C310 1.409 . S
C313 C311 1.415 . S
C314 H304 0.930 . S
C314 C312 1.419 . S
C314 C315 1.362 . S
C315 H305 0.930 . S
C315 C308 1.409 . S
C315 C314 1.362 . S
H316 C322 0.930 . S
H317 C325 0.930 . S
H318 C326 0.930 . S
H319 C327 0.930 . S
H320 C330 0.930 . S
H321 C331 0.930 . S
C322 H316 0.930 . S
C322 C323 1.355 . S
C322 C324 1.415 . S
C323 C322 1.355 . S
C323 C325 1.419 . S
C324 C322 1.415 . S
C324 C329 1.425 . S
C324 C331 1.409 . S
C325 H317 0.930 . S
C325 C323 1.419 . S
C325 C326 1.362 . S
C326 H318 0.930 . S
C326 C325 1.362 . S
C326 C329 1.409 . S
C327 H319 0.930 . S
C327 C328 1.355 . S
C327 C329 1.415 . S
C328 C327 1.355 . S
C328 C330 1.419 . S
C329 C324 1.425 . S
C329 C326 1.409 . S
C329 C327 1.415 . S
C330 H320 0.930 . S
C330 C328 1.419 . S
C330 C331 1.362 . S
C331 H321 0.930 . S
C331 C324 1.409 . S
C331 C330 1.362 . S
H332 C338 0.930 . S
H333 C341 0.930 . S
H334 C342 0.930 . S
H335 C343 0.930 . S
H336 C346 0.930 . S
H337 C347 0.930 . S
C338 H332 0.930 . S
C338 C339 1.355 . S
C338 C340 1.415 . S
C339 C338 1.355 . S
C339 C341 1.419 . S
C340 C338 1.415 . S
C340 C345 1.425 . S
C340 C347 1.409 . S
C341 H333 0.930 . S
C341 C339 1.419 . S
C341 C342 1.362 . S
C342 H334 0.930 . S
C342 C341 1.362 . S
C342 C345 1.409 . S
C343 H335 0.930 . S
C343 C344 1.355 . S
C343 C345 1.415 . S
C344 C343 1.355 . S
C344 C346 1.419 . S
C345 C340 1.425 . S
C345 C342 1.409 . S
C345 C343 1.415 . S
C346 H336 0.930 . S
C346 C344 1.419 . S
C346 C347 1.362 . S
C347 H337 0.930 . S
C347 C340 1.409 . S
C347 C346 1.362 . S
H348 C354 0.930 . S
H349 C357 0.930 . S
H350 C358 0.930 . S
H351 C359 0.930 1_565 S
H352 C362 0.930 . S
H353 C363 0.930 . S
C354 H348 0.930 . S
C354 C355 1.355 . S
C354 C356 1.415 . S
C355 C354 1.355 . S
C355 C357 1.419 . S
C356 C354 1.415 . S
C356 C361 1.425 . S
C356 C363 1.409 . S
C357 H349 0.930 . S
C357 C355 1.419 . S
C357 C358 1.362 . S
C358 H350 0.930 . S
C358 C357 1.362 . S
C358 C361 1.409 . S
C359 H351 0.930 1_545 S
C359 C360 1.355 1_545 S
C359 C361 1.415 . S
C360 C359 1.355 1_565 S
C360 C362 1.419 1_565 S
C361 C356 1.425 . S
C361 C358 1.409 . S
C361 C359 1.415 . S
C362 H352 0.930 . S
C362 C360 1.419 1_545 S
C362 C363 1.362 . S
C363 H353 0.930 . S
C363 C356 1.409 . S
C363 C362 1.362 . S
H364 C370 0.930 . S
H365 C373 0.930 . S
H366 C374 0.930 1_455 S
H367 C375 0.930 . S
H368 C378 0.930 . S
H369 C379 0.930 . S
C370 H364 0.930 . S
C370 C371 1.355 . S
C370 C372 1.415 1_655 S
C371 C370 1.355 . S
C371 C373 1.419 . S
C372 C370 1.415 1_455 S
C372 C377 1.425 . S
C372 C379 1.409 . S
C373 H365 0.930 . S
C373 C371 1.419 . S
C373 C374 1.362 . S
C374 H366 0.930 1_655 S
C374 C373 1.362 . S
C374 C377 1.409 1_655 S
C375 H367 0.930 . S
C375 C376 1.355 . S
C375 C377 1.415 . S
C376 C375 1.355 . S
C376 C378 1.419 . S
C377 C372 1.425 . S
C377 C374 1.409 1_455 S
C377 C375 1.415 . S
C378 H368 0.930 . S
C378 C376 1.419 . S
C378 C379 1.362 . S
C379 H369 0.930 . S
C379 C372 1.409 . S
C379 C378 1.362 . S
H380 C386 0.930 . S
H381 C389 0.930 . S
H382 C390 0.930 . S
H383 C391 0.930 . S
H384 C394 0.930 . S
H385 C395 0.930 . S
C386 H380 0.930 . S
C386 C387 1.355 . S
C386 C388 1.415 . S
C387 C386 1.355 . S
C387 C389 1.419 . S
C388 C386 1.415 . S
C388 C393 1.425 . S
C388 C395 1.409 . S
C389 H381 0.930 . S
C389 C387 1.419 . S
C389 C390 1.362 . S
C390 H382 0.930 . S
C390 C389 1.362 . S
C390 C393 1.409 . S
C391 H383 0.930 . S
C391 C392 1.355 . S
C391 C393 1.415 . S
C392 C391 1.355 . S
C392 C394 1.419 . S
C393 C388 1.425 . S
C393 C390 1.409 . S
C393 C391 1.415 . S
C394 H384 0.930 . S
C394 C392 1.419 . S
C394 C395 1.362 . S
C395 H385 0.930 . S
C395 C388 1.409 . S
C395 C394 1.362 . S
H396 C402 0.930 . S
H397 C405 0.930 . S
H398 C406 0.930 . S
H399 C407 0.930 . S
H400 C410 0.930 . S
H401 C411 0.930 . S
C402 H396 0.930 . S
C402 C403 1.355 . S
C402 C404 1.415 . S
C403 C402 1.355 . S
C403 C405 1.419 . S
C404 C402 1.415 . S
C404 C409 1.425 . S
C404 C411 1.409 . S
C405 H397 0.930 . S
C405 C403 1.419 . S
C405 C406 1.362 . S
C406 H398 0.930 . S
C406 C405 1.362 . S
C406 C409 1.409 . S
C407 H399 0.930 . S
C407 C408 1.355 . S
C407 C409 1.415 . S
C408 C407 1.355 . S
C408 C410 1.419 . S
C409 C404 1.425 . S
C409 C406 1.409 . S
C409 C407 1.415 . S
C410 H400 0.930 . S
C410 C408 1.419 . S
C410 C411 1.362 . S
C411 H401 0.930 . S
C411 C404 1.409 . S
C411 C410 1.362 . S
H412 C418 0.930 . S
H413 C421 0.930 . S
H414 C422 0.930 . S
H415 C423 0.930 . S
H416 C426 0.930 . S
H417 C427 0.930 . S
C418 H412 0.930 . S
C418 C419 1.355 . S
C418 C420 1.415 . S
C419 C418 1.355 . S
C419 C421 1.419 . S
C420 C418 1.415 . S
C420 C425 1.425 . S
C420 C427 1.409 . S
C421 H413 0.930 . S
C421 C419 1.419 . S
C421 C422 1.362 . S
C422 H414 0.930 . S
C422 C421 1.362 . S
C422 C425 1.409 . S
C423 H415 0.930 . S
C423 C424 1.355 . S
C423 C425 1.415 . S
C424 C423 1.355 . S
C424 C426 1.419 . S
C425 C420 1.425 . S
C425 C422 1.409 . S
C425 C423 1.415 . S
C426 H416 0.930 . S
C426 C424 1.419 . S
C426 C427 1.362 . S
C427 H417 0.930 . S
C427 C420 1.409 . S
C427 C426 1.362 . S
H428 C434 0.930 . S
H429 C437 0.930 . S
H430 C438 0.930 . S
H431 C439 0.930 . S
H432 C442 0.930 . S
H433 C443 0.930 . S
C434 H428 0.930 . S
C434 C435 1.355 . S
C434 C436 1.415 . S
C435 C434 1.355 . S
C435 C437 1.419 . S
C436 C434 1.415 . S
C436 C441 1.425 . S
C436 C443 1.409 . S
C437 H429 0.930 . S
C437 C435 1.419 . S
C437 C438 1.362 . S
C438 H430 0.930 . S
C438 C437 1.362 . S
C438 C441 1.409 . S
C439 H431 0.930 . S
C439 C440 1.355 . S
C439 C441 1.415 . S
C440 C439 1.355 . S
C440 C442 1.419 . S
C441 C436 1.425 . S
C441 C438 1.409 . S
C441 C439 1.415 . S
C442 H432 0.930 . S
C442 C440 1.419 . S
C442 C443 1.362 . S
C443 H433 0.930 . S
C443 C436 1.409 . S
C443 C442 1.362 . S
C211 C107 1.576 . S
C216 C20 1.556 . S
C227 C138 1.631 . S
C232 C9 1.602 1_655 S
C243 C2 1.580 . S
C248 C175 1.389 . S
C259 C77 1.493 . S
C264 C5 1.427 . S
C275 C179 1.382 . S
C280 C54 1.281 1_655 S
C291 C73 1.242 . S
C296 C39 1.093 . S
C307 C36 1.306 . S
C312 C111 1.302 1_556 S
C323 C156 1.549 . S
C328 C43 1.548 . S
C339 C88 1.571 . S
C344 C122 1.661 . S
C355 C70 1.732 . S
C360 C172 1.720 . S
C371 C141 1.233 . S
C376 C104 1.366 . S
C387 C190 1.856 . S
C392 C145 1.738 1_554 S
C403 C67 1.878 . S
C408 C33 1.883 . S
C419 C169 1.854 . S
C424 C101 1.843 . S
C435 C203 1.484 . S
C440 C135 1.492 . S
