# Generated by pormake.
# Topology wmt, (6)-cn, num edge types: 1
# Building blocks:
#     Node 0, Type 0, BuildingBlock: MIDCAF_clean_sbu_0, # of connection points: 6
#     Node 1, Type 0, BuildingBlock: MIDCAF_clean_sbu_0, # of connection points: 6
#     Node 2, Type 0, BuildingBlock: MIDCAF_clean_sbu_0, # of connection points: 6
#     Node 3, Type 0, BuildingBlock: MIDCAF_clean_sbu_0, # of connection points: 6
#     Node 4, Type 0, BuildingBlock: MIDCAF_clean_sbu_0, # of connection points: 6
#     Node 5, Type 0, BuildingBlock: MIDCAF_clean_sbu_0, # of connection points: 6
#     Node 6, Type 0, BuildingBlock: MIDCAF_clean_sbu_0, # of connection points: 6
#     Node 7, Type 0, BuildingBlock: MIDCAF_clean_sbu_0, # of connection points: 6
#     Node 8, Type 0, BuildingBlock: MIDCAF_clean_sbu_0, # of connection points: 6
#     Node 9, Type 0, BuildingBlock: MIDCAF_clean_sbu_0, # of connection points: 6
#     Node 10, Type 0, BuildingBlock: MIDCAF_clean_sbu_0, # of connection points: 6
#     Node 11, Type 0, BuildingBlock: MIDCAF_clean_sbu_0, # of connection points: 6
#     Node 12, Type 0, BuildingBlock: MIDCAF_clean_sbu_0, # of connection points: 6
#     Node 13, Type 0, BuildingBlock: MIDCAF_clean_sbu_0, # of connection points: 6
#     Node 14, Type 0, BuildingBlock: MIDCAF_clean_sbu_0, # of connection points: 6
#     Node 15, Type 0, BuildingBlock: MIDCAF_clean_sbu_0, # of connection points: 6
#     Node 16, Type 0, BuildingBlock: MIDCAF_clean_sbu_0, # of connection points: 6
#     Node 17, Type 0, BuildingBlock: MIDCAF_clean_sbu_0, # of connection points: 6
#     Node 18, Type 0, BuildingBlock: MIDCAF_clean_sbu_0, # of connection points: 6
#     Node 19, Type 0, BuildingBlock: MIDCAF_clean_sbu_0, # of connection points: 6
#     Node 20, Type 0, BuildingBlock: MIDCAF_clean_sbu_0, # of connection points: 6
#     Node 21, Type 0, BuildingBlock: MIDCAF_clean_sbu_0, # of connection points: 6
#     Node 22, Type 0, BuildingBlock: MIDCAF_clean_sbu_0, # of connection points: 6
#     Node 23, Type 0, BuildingBlock: MIDCAF_clean_sbu_0, # of connection points: 6
#     Node 24, Type 0, BuildingBlock: MIDCAF_clean_sbu_0, # of connection points: 6
#     Node 25, Type 0, BuildingBlock: MIDCAF_clean_sbu_0, # of connection points: 6
#     Node 26, Type 0, BuildingBlock: MIDCAF_clean_sbu_0, # of connection points: 6
#     Node 27, Type 0, BuildingBlock: MIDCAF_clean_sbu_0, # of connection points: 6
#     Node 28, Type 0, BuildingBlock: MIDCAF_clean_sbu_0, # of connection points: 6
#     Node 29, Type 0, BuildingBlock: MIDCAF_clean_sbu_0, # of connection points: 6
#     Node 30, Type 0, BuildingBlock: MIDCAF_clean_sbu_0, # of connection points: 6
#     Node 31, Type 0, BuildingBlock: MIDCAF_clean_sbu_0, # of connection points: 6
#     Node 32, Type 0, BuildingBlock: MIDCAF_clean_sbu_0, # of connection points: 6
#     Node 33, Type 0, BuildingBlock: MIDCAF_clean_sbu_0, # of connection points: 6
#     Node 34, Type 0, BuildingBlock: MIDCAF_clean_sbu_0, # of connection points: 6
#     Node 35, Type 0, BuildingBlock: MIDCAF_clean_sbu_0, # of connection points: 6
#     Edge 36, Type (0, 0), None
#     Edge 37, Type (0, 0), None
#     Edge 38, Type (0, 0), None
#     Edge 39, Type (0, 0), None
#     Edge 40, Type (0, 0), None
#     Edge 41, Type (0, 0), None
#     Edge 42, Type (0, 0), None
#     Edge 43, Type (0, 0), None
#     Edge 44, Type (0, 0), None
#     Edge 45, Type (0, 0), None
#     Edge 46, Type (0, 0), None
#     Edge 47, Type (0, 0), None
#     Edge 48, Type (0, 0), None
#     Edge 49, Type (0, 0), None
#     Edge 50, Type (0, 0), None
#     Edge 51, Type (0, 0), None
#     Edge 52, Type (0, 0), None
#     Edge 53, Type (0, 0), None
#     Edge 54, Type (0, 0), None
#     Edge 55, Type (0, 0), None
#     Edge 56, Type (0, 0), None
#     Edge 57, Type (0, 0), None
#     Edge 58, Type (0, 0), None
#     Edge 59, Type (0, 0), None
#     Edge 60, Type (0, 0), None
#     Edge 61, Type (0, 0), None
#     Edge 62, Type (0, 0), None
#     Edge 63, Type (0, 0), None
#     Edge 64, Type (0, 0), None
#     Edge 65, Type (0, 0), None
#     Edge 66, Type (0, 0), None
#     Edge 67, Type (0, 0), None
#     Edge 68, Type (0, 0), None
#     Edge 69, Type (0, 0), None
#     Edge 70, Type (0, 0), None
#     Edge 71, Type (0, 0), None
#     Edge 72, Type (0, 0), None
#     Edge 73, Type (0, 0), None
#     Edge 74, Type (0, 0), None
#     Edge 75, Type (0, 0), None
#     Edge 76, Type (0, 0), None
#     Edge 77, Type (0, 0), None
#     Edge 78, Type (0, 0), None
#     Edge 79, Type (0, 0), None
#     Edge 80, Type (0, 0), None
#     Edge 81, Type (0, 0), None
#     Edge 82, Type (0, 0), None
#     Edge 83, Type (0, 0), None
#     Edge 84, Type (0, 0), None
#     Edge 85, Type (0, 0), None
#     Edge 86, Type (0, 0), None
#     Edge 87, Type (0, 0), None
#     Edge 88, Type (0, 0), None
#     Edge 89, Type (0, 0), None
#     Edge 90, Type (0, 0), None
#     Edge 91, Type (0, 0), None
#     Edge 92, Type (0, 0), None
#     Edge 93, Type (0, 0), None
#     Edge 94, Type (0, 0), None
#     Edge 95, Type (0, 0), None
#     Edge 96, Type (0, 0), None
#     Edge 97, Type (0, 0), None
#     Edge 98, Type (0, 0), None
#     Edge 99, Type (0, 0), None
#     Edge 100, Type (0, 0), None
#     Edge 101, Type (0, 0), None
#     Edge 102, Type (0, 0), None
#     Edge 103, Type (0, 0), None
#     Edge 104, Type (0, 0), None
#     Edge 105, Type (0, 0), None
#     Edge 106, Type (0, 0), None
#     Edge 107, Type (0, 0), None
#     Edge 108, Type (0, 0), None
#     Edge 109, Type (0, 0), None
#     Edge 110, Type (0, 0), None
#     Edge 111, Type (0, 0), None
#     Edge 112, Type (0, 0), None
#     Edge 113, Type (0, 0), None
#     Edge 114, Type (0, 0), None
#     Edge 115, Type (0, 0), None
#     Edge 116, Type (0, 0), None
#     Edge 117, Type (0, 0), None
#     Edge 118, Type (0, 0), None
#     Edge 119, Type (0, 0), None
#     Edge 120, Type (0, 0), None
#     Edge 121, Type (0, 0), None
#     Edge 122, Type (0, 0), None
#     Edge 123, Type (0, 0), None
#     Edge 124, Type (0, 0), None
#     Edge 125, Type (0, 0), None
#     Edge 126, Type (0, 0), None
#     Edge 127, Type (0, 0), None
#     Edge 128, Type (0, 0), None
#     Edge 129, Type (0, 0), None
#     Edge 130, Type (0, 0), None
#     Edge 131, Type (0, 0), None
#     Edge 132, Type (0, 0), None
#     Edge 133, Type (0, 0), None
#     Edge 134, Type (0, 0), None
#     Edge 135, Type (0, 0), None
#     Edge 136, Type (0, 0), None
#     Edge 137, Type (0, 0), None
#     Edge 138, Type (0, 0), None
#     Edge 139, Type (0, 0), None
#     Edge 140, Type (0, 0), None
#     Edge 141, Type (0, 0), None
#     Edge 142, Type (0, 0), None
#     Edge 143, Type (0, 0), None
# Relax obj value: 0.745
# Max RMSD: 0.321
# Mean RMSD: 0.321
data_MOF--net-wmt--node1-MIDCAF_clean_sbu_0--edge1-none
_symmetry_space_group_name_H-M    P1
_symmetry_Int_Tables_number       1
_symmetry_cell_setting            triclinic
loop_
_symmetry_equiv_pos_as_xyz
'x, y, z'
_cell_length_a     46.378013
_cell_length_b     46.375422
_cell_length_c     10.095723
_cell_angle_alpha  89.999905
_cell_angle_beta   90.000992
_cell_angle_gamma 119.99195
loop_
_atom_site_label
_atom_site_type_symbol
_atom_site_fract_x
_atom_site_fract_y
_atom_site_fract_z
_atom_type_partial_charge
Zn0 Zn 0.8565 0.35563 0.03422 0.0
Zn1 Zn 0.02643 0.46093 0.07628 0.0
Zn2 Zn -0.03117 0.41902 0.03835 0.0
C3 C 0.0046 0.46632 0.28911 0.0
C4 C 0.0037 0.48634 0.88899 0.0
O5 O -0.08066 0.37841 0.96161 0.0
O6 O 0.87286 0.34418 0.85923 0.0
C7 C 0.90438 0.36474 0.22434 0.0
O8 O -0.02012 0.45006 0.21208 0.0
O9 O 0.03198 0.46769 0.26681 0.0
O10 O 0.02653 0.49712 0.97444 0.0
O11 O -0.01865 0.45559 0.88669 0.0
O12 O 0.87289 0.34684 0.21759 0.0
O13 O -0.08029 0.37997 0.11645 0.0
O14 O -0.08105 0.40674 0.03166 0.0
O15 O 0.87242 0.40688 0.02459 0.0
C16 C 0.90379 0.42356 0.03316 0.0
O17 O -0.00451 0.3924 0.99976 0.0
O18 O 0.045 0.43723 0.99318 0.0
C19 C 0.90434 0.36213 0.85444 0.0
C20 C 0.02667 0.40636 0.97721 0.0
Zn21 Zn 0.49886 0.4717 0.03397 0.0
Zn22 Zn 0.39352 0.53631 0.07602 0.0
Zn23 Zn 0.43544 0.52064 0.03808 0.0
C24 C 0.38811 0.50907 0.28879 0.0
C25 C 0.36814 0.48819 0.88867 0.0
O26 O 0.47606 0.51176 0.96133 0.0
O27 O 0.51028 0.4995 0.85895 0.0
C28 C 0.48973 0.51047 0.22406 0.0
O29 O 0.40439 0.50062 0.21178 0.0
O30 O 0.38673 0.53507 0.26652 0.0
O31 O 0.35735 0.50024 0.9741 0.0
O32 O 0.39889 0.49659 0.88639 0.0
O33 O 0.50764 0.49689 0.21733 0.0
O34 O 0.47451 0.51057 0.11617 0.0
O35 O 0.44773 0.48304 0.03141 0.0
O36 O 0.44762 0.43637 0.02439 0.0
C37 C 0.43093 0.45106 0.03292 0.0
O38 O 0.46203 0.57393 0.99956 0.0
O39 O 0.41719 0.5786 0.99307 0.0
C40 C 0.49233 0.51303 0.85416 0.0
C41 C 0.44807 0.59115 0.9771 0.0
Zn42 Zn 0.38279 -0.00192 0.03416 0.0
Zn43 Zn 0.31812 0.82814 0.07625 0.0
Zn44 Zn 0.33381 0.88573 0.03829 0.0
C45 C 0.34534 0.84996 0.28905 0.0
C46 C 0.36625 0.85086 0.88897 0.0
O47 O 0.34271 0.93524 0.96154 0.0
O48 O 0.35499 -0.01828 0.85915 0.0
C49 C 0.34401 -0.0498 0.22427 0.0
O50 O 0.35381 0.87468 0.21201 0.0
O51 O 0.31933 0.82259 0.26678 0.0
O52 O 0.35419 0.82802 0.97443 0.0
O53 O 0.35785 0.8732 0.88665 0.0
O54 O 0.35761 -0.01831 0.21754 0.0
O55 O 0.3439 0.93487 0.11637 0.0
O56 O 0.37143 0.93561 0.03159 0.0
O57 O 0.4181 -0.01786 0.02454 0.0
C58 C 0.40341 -0.04924 0.0331 0.0
O59 O 0.28053 0.85909 0.99963 0.0
O60 O 0.27585 0.80957 0.99314 0.0
C61 C 0.34144 -0.04976 0.85436 0.0
C62 C 0.26331 0.8279 0.97711 0.0
Zn63 Zn 0.43179 0.05544 0.5029 0.0
Zn64 Zn 0.32649 0.88551 0.54493 0.0
Zn65 Zn 0.38989 -0.00215 0.54079 0.0
C66 C 0.39442 0.9328 0.546 0.0
C67 C 0.33562 0.93339 0.35481 0.0
O68 O 0.36325 0.0245 0.57918 0.0
O69 O 0.40808 0.07402 0.58591 0.0
C70 C 0.45719 0.03271 0.6902 0.0
O71 O 0.37761 -0.05203 0.54748 0.0
O72 O 0.37774 0.90143 0.55456 0.0
O73 O 0.3177 0.9019 0.36154 0.0
O74 O 0.35084 -0.05128 0.46269 0.0
O75 O 0.46797 0.05555 0.60477 0.0
O76 O 0.42645 0.01037 0.69248 0.0
O77 O 0.42093 0.00888 0.36709 0.0
O78 O 0.43856 0.06098 0.31237 0.0
C79 C 0.43719 0.03361 0.29007 0.0
O80 O 0.34928 -0.05164 0.61756 0.0
O81 O 0.31505 0.90187 0.71993 0.0
C82 C 0.3772 0.05568 0.60173 0.0
C83 C 0.33301 0.93335 0.72472 0.0
Zn84 Zn 0.79915 0.3473 0.50293 0.0
Zn85 Zn -0.03093 0.4119 0.54501 0.0
Zn86 Zn 0.85672 0.36295 0.54088 0.0
C87 C -0.07824 0.43254 0.54605 0.0
C88 C -0.07882 0.37314 0.35488 0.0
O89 O 0.83003 0.30967 0.57953 0.0
O90 O 0.78055 0.30505 0.58618 0.0
C91 C 0.82186 0.39543 0.69018 0.0
O92 O 0.9066 0.40056 0.54757 0.0
O93 O -0.04687 0.44722 0.55461 0.0
O94 O -0.04733 0.38672 0.36163 0.0
O95 O 0.90585 0.37303 0.46277 0.0
O96 O 0.79905 0.3834 0.60466 0.0
O97 O 0.84419 0.387 0.69253 0.0
O98 O 0.84568 0.38296 0.36714 0.0
O99 O 0.79359 0.34848 0.31239 0.0
C100 C 0.82096 0.37449 0.2901 0.0
O101 O 0.90622 0.37184 0.61763 0.0
O102 O -0.04729 0.3841 0.72001 0.0
C103 C 0.79885 0.29248 0.60215 0.0
C104 C -0.07877 0.37057 0.72479 0.0
Zn105 Zn 0.44254 0.52797 0.5447 0.0
Zn106 Zn 0.50722 0.42269 0.50268 0.0
Zn107 Zn 0.49153 0.46459 0.54059 0.0
C108 C 0.47998 0.41726 0.28989 0.0
C109 C 0.45911 0.39728 0.69001 0.0
O110 O 0.48262 0.50519 0.61735 0.0
O111 O 0.47034 0.53941 0.71971 0.0
C112 C 0.48132 0.51886 0.35461 0.0
O113 O 0.47152 0.43353 0.36688 0.0
O114 O 0.50599 0.4159 0.31217 0.0
O115 O 0.47117 0.38651 0.60456 0.0
O116 O 0.4675 0.42803 0.69229 0.0
O117 O 0.46772 0.53676 0.36134 0.0
O118 O 0.48143 0.50364 0.46248 0.0
O119 O 0.45391 0.47686 0.54726 0.0
O120 O 0.40724 0.47671 0.55429 0.0
C121 C 0.42193 0.46003 0.54576 0.0
O122 O 0.54481 0.49122 0.57911 0.0
O123 O 0.5495 0.44639 0.5857 0.0
C124 C 0.48387 0.52146 0.72451 0.0
C125 C 0.56204 0.47727 0.60163 0.0
Zn126 Zn -0.03095 0.52801 0.04499 0.0
Zn127 Zn 0.79913 0.4227 1.00295 0.0
Zn128 Zn 0.85671 0.46462 0.04085 0.0
C129 C 0.82096 0.41733 0.79009 0.0
C130 C 0.82186 0.3973 0.1902 0.0
O131 O 0.9062 0.50523 0.11761 0.0
O132 O -0.04732 0.53945 0.21999 0.0
C133 C -0.07884 0.51889 0.85487 0.0
O134 O 0.84568 0.43358 0.86712 0.0
O135 O 0.79358 0.41596 0.8124 0.0
O136 O 0.79903 0.38651 0.10472 0.0
O137 O 0.84419 0.42805 0.19253 0.0
O138 O -0.04735 0.53679 0.86161 0.0
O139 O 0.90583 0.50367 0.96276 0.0
O140 O 0.90659 0.4769 0.04754 0.0
O141 O -0.04687 0.47676 0.05461 0.0
C142 C -0.07824 0.46008 0.04604 0.0
O143 O 0.83003 0.49124 0.07929 0.0
O144 O 0.78054 0.44638 0.08609 0.0
C145 C -0.0788 0.5215 0.22478 0.0
C146 C 0.79885 0.47727 0.10191 0.0
Zn147 Zn 0.43178 0.34721 1.00268 0.0
Zn148 Zn 0.32647 0.41186 0.0447 0.0
Zn149 Zn 0.38988 0.36292 0.04058 0.0
C150 C 0.39441 0.43251 0.04575 0.0
C151 C 0.3356 0.37309 0.8546 0.0
O152 O 0.36324 0.30963 0.07905 0.0
O153 O 0.40806 0.30492 0.08561 0.0
C154 C 0.45718 0.39535 0.19001 0.0
O155 O 0.3776 0.40053 0.04725 0.0
O156 O 0.37771 0.44719 0.0543 0.0
O157 O 0.31769 0.38668 0.86132 0.0
O158 O 0.35082 0.37299 0.96249 0.0
O159 O 0.46795 0.38327 0.10463 0.0
O160 O 0.42643 0.38696 0.19227 0.0
O161 O 0.42094 0.38293 0.86691 0.0
O162 O 0.43858 0.34847 0.81217 0.0
C163 C 0.4372 0.37447 0.7899 0.0
O164 O 0.34927 0.3718 0.11733 0.0
O165 O 0.31505 0.38406 0.21973 0.0
C166 C 0.37718 0.29239 0.10153 0.0
C167 C 0.333 0.37053 0.22451 0.0
Zn168 Zn 0.44258 0.88547 0.04495 0.0
Zn169 Zn 0.5072 0.0554 1.00288 0.0
Zn170 Zn 0.49153 -0.00218 0.04082 0.0
C171 C 0.48 0.0336 0.79007 0.0
C172 C 0.45908 0.03269 0.19015 0.0
O173 O 0.48264 -0.05168 0.11758 0.0
O174 O 0.47038 0.90183 0.21996 0.0
C175 C 0.48135 0.93336 0.85485 0.0
O176 O 0.47153 0.00887 0.86709 0.0
O177 O 0.50601 0.06097 0.81235 0.0
O178 O 0.47112 0.05551 0.10465 0.0
O179 O 0.4675 0.01035 0.19248 0.0
O180 O 0.46776 0.90187 0.86158 0.0
O181 O 0.48146 -0.05131 0.96274 0.0
O182 O 0.45393 -0.05206 0.04751 0.0
O183 O 0.40726 0.90141 0.05456 0.0
C184 C 0.42195 0.93278 0.04599 0.0
O185 O 0.54481 0.02449 0.07948 0.0
O186 O 0.54946 0.07399 0.08608 0.0
C187 C 0.48391 0.93332 0.22475 0.0
C188 C 0.56202 0.05567 0.10207 0.0
Zn189 Zn 0.39354 0.82812 0.57628 0.0
Zn190 Zn 0.49888 -0.00195 0.5342 0.0
Zn191 Zn 0.43545 0.88571 0.53834 0.0
C192 C 0.43094 -0.04923 0.53314 0.0
C193 C 0.48975 -0.04984 0.72431 0.0
O194 O 0.46206 0.85904 0.4998 0.0
O195 O 0.41722 0.80953 0.49321 0.0
C196 C 0.36814 0.85085 0.38895 0.0
O197 O 0.44775 0.9356 0.53164 0.0
O198 O 0.44763 -0.01786 0.52458 0.0
O199 O 0.50766 -0.01835 0.71757 0.0
O200 O 0.47452 0.93484 0.61643 0.0
O201 O 0.35736 0.82803 0.47443 0.0
O202 O 0.39889 0.87319 0.38665 0.0
O203 O 0.40442 0.87467 0.71208 0.0
O204 O 0.38678 0.82257 0.76679 0.0
C205 C 0.38816 0.84995 0.7891 0.0
O206 O 0.47607 0.9352 0.46156 0.0
O207 O 0.51031 -0.01832 0.3592 0.0
C208 C 0.4481 0.82786 0.47727 0.0
C209 C 0.49235 -0.0498 0.35441 0.0
Zn210 Zn 0.85648 0.47172 0.5342 0.0
Zn211 Zn 0.02642 0.53636 0.57629 0.0
Zn212 Zn -0.03118 0.52067 0.53834 0.0
C213 C 0.00459 0.50915 0.78911 0.0
C214 C 0.00369 0.48823 0.38901 0.0
O215 O -0.08068 0.51178 0.46158 0.0
O216 O 0.87283 0.49952 0.35921 0.0
C217 C 0.90436 0.51048 0.72432 0.0
O218 O -0.02013 0.50068 0.71207 0.0
O219 O 0.03197 0.53515 0.76682 0.0
O220 O 0.02653 0.50028 0.47446 0.0
O221 O -0.01865 0.49663 0.3867 0.0
O222 O 0.87287 0.4969 0.71758 0.0
O223 O -0.08031 0.51059 0.61644 0.0
O224 O -0.08106 0.48306 0.53164 0.0
O225 O 0.87242 0.4364 0.52458 0.0
C226 C 0.90379 0.45109 0.53315 0.0
O227 O -0.00453 0.57395 0.49966 0.0
O228 O 0.04498 0.57863 0.49316 0.0
C229 C 0.90431 0.51305 0.35443 0.0
C230 C 0.02664 0.59117 0.47712 0.0
Zn231 Zn 0.3181 0.46084 0.57601 0.0
Zn232 Zn 0.38279 0.35558 0.53396 0.0
Zn233 Zn 0.33381 0.41896 0.53809 0.0
C234 C 0.4034 0.42351 0.53291 0.0
C235 C 0.34401 0.36469 0.72406 0.0
O236 O 0.28052 0.3923 0.49963 0.0
O237 O 0.27582 0.43713 0.493 0.0
C238 C 0.36621 0.48626 0.38869 0.0
O239 O 0.37142 0.40669 0.53141 0.0
O240 O 0.4181 0.40683 0.52436 0.0
O241 O 0.3576 0.34679 0.71734 0.0
O242 O 0.3439 0.37991 0.61617 0.0
O243 O 0.35415 0.49703 0.47414 0.0
O244 O 0.35783 0.45551 0.38639 0.0
O245 O 0.35381 0.45001 0.71179 0.0
O246 O 0.31932 0.46763 0.76652 0.0
C247 C 0.34533 0.46627 0.7888 0.0
O248 O 0.34271 0.37836 0.46132 0.0
O249 O 0.35499 0.34414 0.35893 0.0
C250 C 0.26329 0.40625 0.4771 0.0
C251 C 0.34145 0.36209 0.35415 0.0
Zn252 Zn 0.5229 0.68889 0.36685 0.0
Zn253 Zn 0.6928 0.79412 0.40892 0.0
Zn254 Zn 0.63524 0.75224 0.37106 0.0
C255 C 0.671 0.79958 0.62169 0.0
C256 C 0.67011 0.81953 0.22156 0.0
O257 O 0.58574 0.71164 0.29426 0.0
O258 O 0.53926 0.67744 0.19186 0.0
C259 C 0.57078 0.69799 0.55699 0.0
O260 O 0.64627 0.78331 0.5447 0.0
O261 O 0.69836 0.80092 0.59942 0.0
O262 O 0.69294 0.83031 0.30703 0.0
O263 O 0.64777 0.78878 0.21929 0.0
O264 O 0.53929 0.6801 0.55026 0.0
O265 O 0.5861 0.7132 0.4491 0.0
O266 O 0.58537 0.73998 0.36432 0.0
O267 O 0.53884 0.74014 0.35719 0.0
C268 C 0.57022 0.75681 0.36577 0.0
O269 O 0.66191 0.72559 0.33286 0.0
O270 O 0.7114 0.77043 0.32598 0.0
C271 C 0.57075 0.69538 0.18708 0.0
C272 C 0.69309 0.73955 0.3103 0.0
Zn273 Zn 0.16557 0.805 0.36677 0.0
Zn274 Zn 0.06025 0.86962 0.40878 0.0
Zn275 Zn 0.10215 0.85394 0.37096 0.0
C276 C 0.05481 0.84236 0.62156 0.0
C277 C 0.03487 0.82151 0.22143 0.0
O278 O 0.14277 0.84506 0.29415 0.0
O279 O 0.17699 0.8328 0.19175 0.0
C280 C 0.15644 0.84377 0.55688 0.0
O281 O 0.07109 0.8339 0.54458 0.0
O282 O 0.05345 0.86837 0.59927 0.0
O283 O 0.02408 0.83356 0.30686 0.0
O284 O 0.06562 0.82992 0.21918 0.0
O285 O 0.17435 0.83018 0.55016 0.0
O286 O 0.14122 0.84387 0.44899 0.0
O287 O 0.11445 0.81634 0.36425 0.0
O288 O 0.11432 0.76967 0.35715 0.0
C289 C 0.09763 0.78436 0.36571 0.0
O290 O 0.12879 0.90724 0.33282 0.0
O291 O 0.08396 0.91191 0.32588 0.0
C292 C 0.15903 0.84633 0.18697 0.0
C293 C 0.11484 0.92447 0.31025 0.0
Zn294 Zn 0.0495 0.33147 0.36695 0.0
Zn295 Zn -0.01519 0.16156 0.40898 0.0
Zn296 Zn 0.00049 0.21912 0.37117 0.0
C297 C 0.01205 0.18334 0.62177 0.0
C298 C 0.03289 0.18421 0.22166 0.0
O299 O 0.00941 0.26862 0.29433 0.0
O300 O 0.02169 0.31511 0.19193 0.0
C301 C 0.01071 0.2836 0.55706 0.0
O302 O 0.02052 0.20808 0.5448 0.0
O303 O -0.01397 0.15598 0.59947 0.0
O304 O 0.02084 0.16139 0.30715 0.0
O305 O 0.02449 0.20657 0.21938 0.0
O306 O 0.02431 0.31509 0.55034 0.0
O307 O 0.0106 0.26827 0.44917 0.0
O308 O 0.03812 0.269 0.36444 0.0
O309 O 0.0848 0.31551 0.35733 0.0
C310 C 0.07009 0.28413 0.3659 0.0
O311 O -0.05282 0.19248 0.33316 0.0
O312 O -0.05747 0.14298 0.326 0.0
C313 C 0.00815 0.28363 0.18715 0.0
C314 C -0.07004 0.16131 0.31051 0.0
Zn315 Zn -0.00684 0.21889 0.87768 0.0
Zn316 Zn 0.09852 0.38882 0.83568 0.0
Zn317 Zn 0.0566 0.33123 0.8736 0.0
C318 C 0.10391 0.36698 0.62287 0.0
C319 C 0.1239 0.36606 0.02298 0.0
O320 O 0.01598 0.28174 0.95034 0.0
O321 O -0.01826 0.23526 0.05271 0.0
C322 C 0.00231 0.26679 0.68759 0.0
O323 O 0.08764 0.34226 0.69989 0.0
O324 O 0.10529 0.39436 0.64515 0.0
O325 O 0.13469 0.3889 0.93755 0.0
O326 O 0.09316 0.34373 0.02526 0.0
O327 O -0.01562 0.2353 0.69432 0.0
O328 O 0.01753 0.28211 0.79548 0.0
O329 O 0.0443 0.28133 0.88025 0.0
O330 O 0.0444 0.23478 0.88726 0.0
C331 C 0.0611 0.26616 0.87874 0.0
O332 O 0.02999 0.35789 0.91216 0.0
O333 O 0.07482 0.40741 0.91872 0.0
C334 C -0.0003 0.26674 0.0575 0.0
C335 C 0.04395 0.38907 0.93469 0.0
Zn336 Zn 0.46551 0.68052 0.83564 0.0
Zn337 Zn 0.63547 0.74516 0.87763 0.0
Zn338 Zn 0.52313 0.69622 0.87355 0.0
C339 C 0.58817 0.76581 0.8787 0.0
C340 C 0.58758 0.7064 0.68753 0.0
O341 O 0.4965 0.64295 0.91209 0.0
O342 O 0.44698 0.63825 0.91873 0.0
C343 C 0.48826 0.72868 0.02288 0.0
O344 O 0.57301 0.73383 0.88021 0.0
O345 O 0.61954 0.78049 0.8872 0.0
O346 O 0.61907 0.71998 0.69426 0.0
O347 O 0.57225 0.7063 0.79542 0.0
O348 O 0.46541 0.71661 0.9375 0.0
O349 O 0.5106 0.72028 0.02515 0.0
O350 O 0.51208 0.71621 0.69983 0.0
O351 O 0.45999 0.68176 0.64509 0.0
C352 C 0.48736 0.70775 0.62279 0.0
O353 O 0.57263 0.70511 0.95028 0.0
O354 O 0.61911 0.71736 0.05264 0.0
C355 C 0.46533 0.62571 0.93464 0.0
C356 C 0.58763 0.70384 0.05743 0.0
Zn357 Zn 0.10925 0.86127 0.87749 0.0
Zn358 Zn 0.17396 0.75602 0.83548 0.0
Zn359 Zn 0.15823 0.7979 0.87343 0.0
C360 C 0.1467 0.75058 0.6227 0.0
C361 C 0.12582 0.7306 0.02281 0.0
O362 O 0.14932 0.8385 0.95016 0.0
O363 O 0.13704 0.87271 0.05254 0.0
C364 C 0.14802 0.85216 0.68741 0.0
O365 O 0.13824 0.76684 0.69972 0.0
O366 O 0.17272 0.74922 0.64497 0.0
O367 O 0.13791 0.71983 0.93741 0.0
O368 O 0.1342 0.76134 0.02509 0.0
O369 O 0.13443 0.87007 0.69413 0.0
O370 O 0.14813 0.83694 0.7953 0.0
O371 O 0.12061 0.81016 0.88007 0.0
O372 O 0.07394 0.81002 0.88706 0.0
C373 C 0.08863 0.79334 0.87855 0.0
O374 O 0.21151 0.82456 0.91206 0.0
O375 O 0.21624 0.77974 0.91846 0.0
C376 C 0.15058 0.85476 0.05732 0.0
C377 C 0.22876 0.81062 0.93451 0.0
Zn378 Zn 0.6355 0.86126 0.37759 0.0
Zn379 Zn 0.46557 0.75598 0.33563 0.0
Zn380 Zn 0.52316 0.79788 0.3735 0.0
C381 C 0.48737 0.7506 0.12274 0.0
C382 C 0.48828 0.73056 0.52284 0.0
O383 O 0.57266 0.83849 0.45025 0.0
O384 O 0.61914 0.8727 0.55262 0.0
C385 C 0.58761 0.85217 0.18752 0.0
O386 O 0.5121 0.76685 0.19975 0.0
O387 O 0.46 0.74925 0.14508 0.0
O388 O 0.46546 0.71978 0.43735 0.0
O389 O 0.51062 0.76131 0.52517 0.0
O390 O 0.6191 0.87007 0.19424 0.0
O391 O 0.57229 0.83694 0.29541 0.0
O392 O 0.57304 0.81016 0.38014 0.0
O393 O 0.61957 0.81001 0.38714 0.0
C394 C 0.5882 0.79334 0.37861 0.0
O395 O 0.49654 0.82452 0.41206 0.0
O396 O 0.44703 0.77969 0.41892 0.0
C397 C 0.58765 0.85476 0.55741 0.0
C398 C 0.46537 0.81057 0.43477 0.0
Zn399 Zn -0.00682 0.74517 0.37748 0.0
Zn400 Zn 0.09851 0.68053 0.33547 0.0
Zn401 Zn 0.0566 0.69623 0.37341 0.0
C402 C 0.10392 0.70778 0.12268 0.0
C403 C 0.1239 0.72867 0.52282 0.0
O404 O 0.01598 0.70511 0.45013 0.0
O405 O -0.01825 0.71737 0.55251 0.0
C406 C 0.0023 0.70639 0.1874 0.0
O407 O 0.08765 0.71623 0.19969 0.0
O408 O 0.1053 0.68178 0.14496 0.0
O409 O 0.13467 0.7166 0.43742 0.0
O410 O 0.09315 0.72028 0.52509 0.0
O411 O -0.0156 0.71997 0.19412 0.0
O412 O 0.01753 0.70629 0.29529 0.0
O413 O 0.0443 0.73383 0.38005 0.0
O414 O 0.04442 0.7805 0.38704 0.0
C415 C 0.06111 0.76581 0.37853 0.0
O416 O 0.02997 0.64296 0.41205 0.0
O417 O 0.07479 0.63825 0.41845 0.0
C418 C -0.00029 0.70384 0.5573 0.0
C419 C 0.04392 0.62572 0.43451 0.0
Zn420 Zn 0.17392 0.38875 0.33567 0.0
Zn421 Zn 0.10922 0.21881 0.3777 0.0
Zn422 Zn 0.15822 0.33116 0.37359 0.0
C423 C 0.08862 0.26614 0.37873 0.0
C424 C 0.14802 0.26669 0.18762 0.0
O425 O 0.2115 0.35779 0.41209 0.0
O426 O 0.21618 0.4073 0.41879 0.0
C427 C 0.1258 0.36606 0.52296 0.0
O428 O 0.1206 0.28128 0.38025 0.0
O429 O 0.07392 0.23476 0.38725 0.0
O430 O 0.13441 0.2352 0.19434 0.0
O431 O 0.14812 0.28202 0.29551 0.0
O432 O 0.13785 0.38888 0.43747 0.0
O433 O 0.1342 0.34371 0.52527 0.0
O434 O 0.13823 0.34222 0.19987 0.0
O435 O 0.17272 0.39431 0.14515 0.0
C436 C 0.14671 0.36694 0.12285 0.0
O437 O 0.14931 0.28165 0.45035 0.0
O438 O 0.13702 0.23516 0.55274 0.0
C439 C 0.22872 0.38897 0.43467 0.0
C440 C 0.15057 0.26664 0.55753 0.0
Zn441 Zn 0.06022 0.16147 0.90899 0.0
Zn442 Zn 0.16556 0.33139 0.86697 0.0
Zn443 Zn 0.10213 0.21905 0.87116 0.0
C444 C 0.09762 0.28412 0.86592 0.0
C445 C 0.15642 0.2835 0.05709 0.0
O446 O 0.12876 0.19239 0.83296 0.0
O447 O 0.08392 0.14288 0.82609 0.0
C448 C 0.03484 0.18421 0.72165 0.0
O449 O 0.11443 0.26894 0.86445 0.0
O450 O 0.11432 0.31549 0.85735 0.0
O451 O 0.17434 0.31499 0.05036 0.0
O452 O 0.1412 0.26818 0.9492 0.0
O453 O 0.02405 0.16137 0.80706 0.0
O454 O 0.06559 0.20655 0.71941 0.0
O455 O 0.07106 0.20803 0.0448 0.0
O456 O 0.05341 0.15592 0.09949 0.0
C457 C 0.05479 0.1833 0.12177 0.0
O458 O 0.14275 0.26853 0.79434 0.0
O459 O 0.17698 0.31501 0.69195 0.0
C460 C 0.11481 0.16121 0.81041 0.0
C461 C 0.15901 0.28353 0.68717 0.0
Zn462 Zn 0.69281 0.86959 0.9089 0.0
Zn463 Zn 0.52292 0.80502 0.86687 0.0
Zn464 Zn 0.63525 0.85394 0.8711 0.0
C465 C 0.5702 0.78436 0.86586 0.0
C466 C 0.5708 0.84377 0.05699 0.0
O467 O 0.66192 0.90725 0.8331 0.0
O468 O 0.71141 0.91188 0.82598 0.0
C469 C 0.67011 0.82149 0.72158 0.0
O470 O 0.58537 0.81634 0.86438 0.0
O471 O 0.53883 0.76968 0.85728 0.0
O472 O 0.53931 0.83021 0.05026 0.0
O473 O 0.58612 0.84388 0.9491 0.0
O474 O 0.69294 0.83353 0.80703 0.0
O475 O 0.64777 0.82991 0.7193 0.0
O476 O 0.64628 0.83389 0.04472 0.0
O477 O 0.69838 0.86835 0.09939 0.0
C478 C 0.67101 0.84234 0.12169 0.0
O479 O 0.58577 0.84506 0.79424 0.0
O480 O 0.53929 0.83282 0.69183 0.0
C481 C 0.6931 0.92446 0.81048 0.0
C482 C 0.57077 0.84633 0.68706 0.0
Zn483 Zn -0.01519 0.79415 0.90878 0.0
Zn484 Zn 0.04949 0.68888 0.86676 0.0
Zn485 Zn 0.0005 0.75226 0.87095 0.0
C486 C 0.0701 0.75682 0.86573 0.0
C487 C 0.01071 0.69799 0.05687 0.0
O488 O -0.0528 0.72561 0.8328 0.0
O489 O -0.05747 0.77045 0.82582 0.0
C490 C 0.03291 0.81955 0.72145 0.0
O491 O 0.03812 0.73999 0.86424 0.0
O492 O 0.0848 0.74014 0.85717 0.0
O493 O 0.0243 0.68009 0.05014 0.0
O494 O 0.0106 0.71321 0.94898 0.0
O495 O 0.02086 0.83034 0.8069 0.0
O496 O 0.02451 0.7888 0.71918 0.0
O497 O 0.02053 0.78333 0.04459 0.0
O498 O -0.01395 0.80095 0.09927 0.0
C499 C 0.01206 0.79959 0.12156 0.0
O500 O 0.00941 0.71166 0.79412 0.0
O501 O 0.02169 0.67745 0.69173 0.0
C502 C -0.07003 0.73956 0.8102 0.0
C503 C 0.00816 0.6954 0.68695 0.0
Zn504 Zn 0.18974 0.02225 0.70086 0.0
Zn505 Zn 0.35965 0.12755 0.74289 0.0
Zn506 Zn 0.30207 0.08565 0.70499 0.0
C507 C 0.33783 0.13296 0.95569 0.0
C508 C 0.33693 0.15295 0.55557 0.0
O509 O 0.25258 0.04503 0.62822 0.0
O510 O 0.2061 0.01082 0.52583 0.0
C511 C 0.23763 0.03136 0.89095 0.0
O512 O 0.31311 0.1167 0.87868 0.0
O513 O 0.3652 0.13433 0.9334 0.0
O514 O 0.35976 0.16373 0.64102 0.0
O515 O 0.31459 0.1222 0.55328 0.0
O516 O 0.20614 0.01346 0.88423 0.0
O517 O 0.25295 0.04659 0.78306 0.0
O518 O 0.25219 0.07336 0.69831 0.0
O519 O 0.20565 0.0735 0.69126 0.0
C520 C 0.23702 0.09018 0.6998 0.0
O521 O 0.32873 0.05902 0.66659 0.0
O522 O 0.37824 0.10385 0.65988 0.0
C523 C 0.23758 0.02876 0.52105 0.0
C524 C 0.35991 0.07297 0.64405 0.0
Zn525 Zn 0.83214 0.13838 0.70158 0.0
Zn526 Zn 0.72689 0.20312 0.74356 0.0
Zn527 Zn 0.76877 0.18736 0.70563 0.0
C528 C 0.72142 0.17581 0.95629 0.0
C529 C 0.70148 0.15498 0.55615 0.0
O530 O 0.80936 0.17845 0.62891 0.0
O531 O 0.84357 0.16617 0.52652 0.0
C532 C 0.82303 0.17717 0.89165 0.0
O533 O 0.73769 0.16736 0.87929 0.0
O534 O 0.72005 0.20183 0.93404 0.0
O535 O 0.69073 0.16709 0.64147 0.0
O536 O 0.73222 0.16333 0.55393 0.0
O537 O 0.84093 0.16357 0.88494 0.0
O538 O 0.80781 0.17727 0.78375 0.0
O539 O 0.78103 0.14974 0.69901 0.0
O540 O 0.78089 0.10307 0.69203 0.0
C541 C 0.76421 0.11776 0.70051 0.0
O542 O 0.79545 0.24064 0.66706 0.0
O543 O 0.75067 0.24543 0.66079 0.0
C544 C 0.82563 0.17972 0.52174 0.0
C545 C 0.78154 0.25792 0.64471 0.0
Zn546 Zn 0.71607 0.66469 0.70094 0.0
Zn547 Zn 0.65143 0.49475 0.74293 0.0
Zn548 Zn 0.66713 0.55235 0.70503 0.0
C549 C 0.6787 0.51657 0.95569 0.0
C550 C 0.69955 0.51747 0.55557 0.0
O551 O 0.67602 0.60185 0.62829 0.0
O552 O 0.68828 0.64833 0.52589 0.0
C553 C 0.67729 0.6168 0.89102 0.0
O554 O 0.68715 0.54129 0.8787 0.0
O555 O 0.65269 0.48919 0.93343 0.0
O556 O 0.68748 0.49463 0.64097 0.0
O557 O 0.69116 0.53983 0.55331 0.0
O558 O 0.69088 0.64829 0.8843 0.0
O559 O 0.6772 0.60148 0.78312 0.0
O560 O 0.70473 0.60223 0.69839 0.0
O561 O 0.7514 0.64876 0.6914 0.0
C562 C 0.73671 0.61739 0.6999 0.0
O563 O 0.61384 0.52572 0.66655 0.0
O564 O 0.60914 0.47619 0.66002 0.0
C565 C 0.67474 0.61684 0.52111 0.0
C566 C 0.5966 0.49454 0.64408 0.0
Zn567 Zn 0.65979 0.55211 0.21164 0.0
Zn568 Zn 0.76503 0.72204 0.16967 0.0
Zn569 Zn 0.72315 0.66445 0.2075 0.0
C570 C 0.77051 0.70023 0.95693 0.0
C571 C 0.79043 0.69933 0.35705 0.0
O572 O 0.68257 0.61495 0.28429 0.0
O573 O 0.64836 0.56847 0.38669 0.0
C574 C 0.6689 0.59999 0.02154 0.0
O575 O 0.75423 0.6755 0.03389 0.0
O576 O 0.77186 0.7276 0.97919 0.0
O577 O 0.8012 0.72218 0.27167 0.0
O578 O 0.75969 0.67697 0.35927 0.0
O579 O 0.65099 0.5685 0.02826 0.0
O580 O 0.68411 0.61532 0.12944 0.0
O581 O 0.71089 0.61457 0.21417 0.0
O582 O 0.71104 0.56804 0.22121 0.0
C583 C 0.72772 0.59941 0.2127 0.0
O584 O 0.69647 0.69108 0.24569 0.0
O585 O 0.74128 0.74061 0.25248 0.0
C586 C 0.66631 0.59995 0.39146 0.0
C587 C 0.7104 0.72226 0.26818 0.0
Zn588 Zn 0.30231 0.07854 0.2116 0.0
Zn589 Zn 0.1324 0.01391 0.16957 0.0
Zn590 Zn 0.18997 0.02958 0.20741 0.0
C591 C 0.1542 0.04114 0.95676 0.0
C592 C 0.15509 0.06201 0.35686 0.0
O593 O 0.23946 0.03848 0.28423 0.0
O594 O 0.28595 0.05074 0.38662 0.0
C595 C 0.25443 0.03978 0.02149 0.0
O596 O 0.17893 0.04961 0.03376 0.0
O597 O 0.12684 0.01513 0.97906 0.0
O598 O 0.13226 0.04997 0.27139 0.0
O599 O 0.17743 0.0536 0.35915 0.0
O600 O 0.28592 0.05336 0.02822 0.0
O601 O 0.2391 0.03967 0.12937 0.0
O602 O 0.23985 0.06719 0.21412 0.0
O603 O 0.28637 0.11386 0.22121 0.0
C604 C 0.255 0.09917 0.21265 0.0
O605 O 0.16332 -0.02372 0.24558 0.0
O606 O 0.11382 -0.02837 0.25259 0.0
C607 C 0.25447 0.03721 0.3914 0.0
C608 C 0.13214 -0.04094 0.2682 0.0
Zn609 Zn 0.77586 0.1947 0.21227 0.0
Zn610 Zn 0.84049 0.08941 0.17029 0.0
Zn611 Zn 0.82481 0.1313 0.20808 0.0
C612 C 0.81322 0.08394 0.95753 0.0
C613 C 0.79241 0.06402 0.35765 0.0
O614 O 0.81592 0.1719 0.28492 0.0
O615 O 0.80366 0.20613 0.38732 0.0
C616 C 0.81463 0.18558 0.02217 0.0
O617 O 0.80476 0.10022 0.03448 0.0
O618 O 0.83923 0.08258 0.97981 0.0
O619 O 0.80445 0.05323 0.27221 0.0
O620 O 0.80081 0.09477 0.35989 0.0
O621 O 0.80105 0.20349 0.02889 0.0
O622 O 0.81473 0.17036 0.13006 0.0
O623 O 0.78721 0.14358 0.21478 0.0
O624 O 0.74054 0.14345 0.22185 0.0
C625 C 0.75523 0.12677 0.21331 0.0
O626 O 0.87812 0.15796 0.24605 0.0
O627 O 0.88278 0.11311 0.25313 0.0
C628 C 0.81718 0.18816 0.39209 0.0
C629 C 0.89535 0.14401 0.26864 0.0
Zn630 Zn 0.30228 0.19464 0.71159 0.0
Zn631 Zn 0.13237 0.08933 0.66957 0.0
Zn632 Zn 0.18995 0.13124 0.7074 0.0
C633 C 0.15419 0.08392 0.45675 0.0
C634 C 0.15509 0.06394 0.85686 0.0
O635 O 0.23943 0.17185 0.78422 0.0
O636 O 0.28591 0.20607 0.88661 0.0
C637 C 0.2544 0.18553 0.52149 0.0
O638 O 0.17892 0.10018 0.53374 0.0
O639 O 0.12682 0.08255 0.47905 0.0
O640 O 0.13226 0.05315 0.7714 0.0
O641 O 0.17742 0.09469 0.85914 0.0
O642 O 0.28588 0.20343 0.52822 0.0
O643 O 0.23907 0.1703 0.62937 0.0
O644 O 0.23983 0.14352 0.71411 0.0
O645 O 0.28636 0.14339 0.72119 0.0
C646 C 0.25499 0.1267 0.71263 0.0
O647 O 0.16328 0.15787 0.74565 0.0
O648 O 0.11378 0.11302 0.7526 0.0
C649 C 0.25443 0.18812 0.89139 0.0
C650 C 0.1321 0.14391 0.76827 0.0
Zn651 Zn 0.65976 0.0786 0.71226 0.0
Zn652 Zn 0.76502 0.01393 0.67028 0.0
Zn653 Zn 0.72314 0.02963 0.70807 0.0
C654 C 0.77049 0.04121 0.45752 0.0
C655 C 0.79041 0.06203 0.85765 0.0
O656 O 0.68254 0.03853 0.7849 0.0
O657 O 0.64834 0.05081 0.88731 0.0
C658 C 0.66886 0.03982 0.52216 0.0
O659 O 0.75422 0.04967 0.53447 0.0
O660 O 0.77185 0.0152 0.47981 0.0
O661 O 0.8012 0.04997 0.77223 0.0
O662 O 0.75967 0.05363 0.85988 0.0
O663 O 0.65097 0.05342 0.52888 0.0
O664 O 0.68408 0.03972 0.63006 0.0
O665 O 0.71086 0.06725 0.71476 0.0
O666 O 0.71101 0.11392 0.72182 0.0
C667 C 0.72769 0.09923 0.71329 0.0
O668 O 0.69647 -0.02368 0.74604 0.0
O669 O 0.74131 -0.02837 0.7531 0.0
C670 C 0.66628 0.03727 0.89208 0.0
C671 C 0.71041 -0.04093 0.76861 0.0
Zn672 Zn 0.77589 0.55211 0.71166 0.0
Zn673 Zn 0.84052 0.72203 0.66967 0.0
Zn674 Zn 0.82484 0.66445 0.70749 0.0
C675 C 0.81325 0.70022 0.45691 0.0
C676 C 0.79242 0.69933 0.85705 0.0
O677 O 0.81595 0.61496 0.7843 0.0
O678 O 0.80369 0.56848 0.8867 0.0
C679 C 0.81467 0.59999 0.52157 0.0
O680 O 0.80479 0.67549 0.53387 0.0
O681 O 0.83925 0.7276 0.47919 0.0
O682 O 0.80448 0.72217 0.77164 0.0
O683 O 0.80082 0.67697 0.85928 0.0
O684 O 0.80108 0.5685 0.52828 0.0
O685 O 0.81476 0.61531 0.62946 0.0
O686 O 0.78723 0.61457 0.71417 0.0
O687 O 0.74057 0.56804 0.72123 0.0
C688 C 0.75526 0.59941 0.71269 0.0
O689 O 0.87814 0.69109 0.74562 0.0
O690 O 0.88282 0.74061 0.7525 0.0
C691 C 0.81722 0.59996 0.89148 0.0
C692 C 0.89538 0.72227 0.76815 0.0
Zn693 Zn 0.83217 0.66469 0.20096 0.0
Zn694 Zn 0.72692 0.49474 0.24294 0.0
Zn695 Zn 0.7688 0.55235 0.20505 0.0
C696 C 0.72146 0.51657 0.4557 0.0
C697 C 0.70151 0.51747 0.05556 0.0
O698 O 0.80939 0.60184 0.12829 0.0
O699 O 0.8436 0.64833 0.02591 0.0
C700 C 0.82306 0.6168 0.39104 0.0
O701 O 0.73773 0.54129 0.37871 0.0
O702 O 0.72009 0.48919 0.43343 0.0
O703 O 0.69075 0.49461 0.14092 0.0
O704 O 0.73225 0.53983 0.05333 0.0
O705 O 0.84097 0.64829 0.38432 0.0
O706 O 0.80784 0.60148 0.28315 0.0
O707 O 0.78106 0.60223 0.19841 0.0
O708 O 0.78092 0.64876 0.19141 0.0
C709 C 0.76424 0.61739 0.19991 0.0
O710 O 0.79546 0.52572 0.16667 0.0
O711 O 0.75067 0.47618 0.16012 0.0
C712 C 0.82565 0.61685 0.02113 0.0
C713 C 0.78154 0.49453 0.14424 0.0
Zn714 Zn 0.35964 0.20299 0.24289 0.0
Zn715 Zn 0.18971 0.13835 0.20086 0.0
Zn716 Zn 0.30205 0.18731 0.20498 0.0
C717 C 0.23702 0.11772 0.19982 0.0
C718 C 0.23759 0.17712 0.39095 0.0
O719 O 0.32871 0.2406 0.16649 0.0
O720 O 0.37822 0.24527 0.15984 0.0
C721 C 0.33692 0.15487 0.05559 0.0
O722 O 0.25217 0.1497 0.19831 0.0
O723 O 0.20565 0.10303 0.19128 0.0
O724 O 0.2061 0.16354 0.38422 0.0
O725 O 0.25292 0.17723 0.28306 0.0
O726 O 0.35976 0.16692 0.14104 0.0
O727 O 0.31458 0.16327 0.05329 0.0
O728 O 0.3131 0.1673 0.37868 0.0
O729 O 0.36519 0.20177 0.43341 0.0
C730 C 0.33782 0.17576 0.45569 0.0
O731 O 0.25255 0.17841 0.12821 0.0
O732 O 0.20606 0.16614 0.02583 0.0
C733 C 0.35989 0.25782 0.14394 0.0
C734 C 0.23754 0.17967 0.02104 0.0
Zn735 Zn 0.71606 0.02231 0.20157 0.0
Zn736 Zn 0.65137 0.1276 0.24357 0.0
Zn737 Zn 0.6671 0.08571 0.20563 0.0
C738 C 0.67866 0.13306 0.4563 0.0
C739 C 0.69951 0.153 0.05616 0.0
O740 O 0.676 0.0451 0.1289 0.0
O741 O 0.68827 0.01088 0.02652 0.0
C742 C 0.67728 0.03142 0.39164 0.0
O743 O 0.68711 0.11678 0.37931 0.0
O744 O 0.65266 0.13444 0.43405 0.0
O745 O 0.68741 0.16376 0.1415 0.0
O746 O 0.69114 0.12226 0.05393 0.0
O747 O 0.69086 0.01351 0.38492 0.0
O748 O 0.67718 0.04665 0.28375 0.0
O749 O 0.70471 0.07343 0.19902 0.0
O750 O 0.75138 0.07356 0.19204 0.0
C751 C 0.73669 0.09024 0.20053 0.0
O752 O 0.61383 0.05905 0.16704 0.0
O753 O 0.60907 0.10384 0.16073 0.0
C754 C 0.67474 0.02883 0.02173 0.0
C755 C 0.59657 0.07297 0.14466 0.0
loop_
_geom_bond_atom_site_label_1
_geom_bond_atom_site_label_2
_geom_bond_distance
_geom_bond_site_symmetry_2
_ccdc_geom_bond_type
Zn0 O6 1.920 1_554 S
Zn0 O12 1.898 . S
Zn0 O15 1.905 1_554 S
Zn1 O9 1.905 . S
Zn1 O10 1.898 1_554 S
Zn1 O18 1.920 1_554 S
Zn2 O5 2.080 1_554 S
Zn2 O8 2.114 . S
Zn2 O11 2.120 1_554 S
Zn2 O13 2.120 . S
Zn2 O14 2.114 . S
Zn2 O17 2.080 . S
C3 O8 1.166 . S
C3 O9 1.182 . S
C4 O10 1.167 . S
C4 O11 1.299 . S
O5 Zn2 2.080 1_556 S
O5 C19 1.298 1_455 S
O6 Zn0 1.920 1_556 S
O6 C19 1.256 . S
C7 O12 1.170 1_455 S
C7 O13 1.296 . S
O8 Zn2 2.114 . S
O8 C3 1.166 . S
O9 Zn1 1.905 . S
O9 C3 1.182 . S
O10 Zn1 1.898 1_556 S
O10 C4 1.167 . S
O11 Zn2 2.120 1_556 S
O11 C4 1.299 . S
O12 Zn0 1.898 . S
O12 C7 1.170 1_655 S
O13 Zn2 2.120 . S
O13 C7 1.296 . S
O14 Zn2 2.114 . S
O14 C16 1.166 1_454 S
O15 Zn0 1.905 1_556 S
O15 C16 1.182 . S
C16 O14 1.166 1_656 S
C16 O15 1.182 . S
O17 Zn2 2.080 . S
O17 C20 1.305 1_554 S
O18 Zn1 1.920 1_556 S
O18 C20 1.234 . S
C19 O5 1.298 1_655 S
C19 O6 1.256 . S
C20 O17 1.305 1_556 S
C20 O18 1.234 . S
Zn21 O27 1.920 1_554 S
Zn21 O33 1.898 . S
Zn21 O36 1.905 1_554 S
Zn22 O30 1.905 . S
Zn22 O31 1.898 1_554 S
Zn22 O39 1.920 1_554 S
Zn23 O26 2.080 1_554 S
Zn23 O29 2.114 . S
Zn23 O32 2.120 1_554 S
Zn23 O34 2.120 . S
Zn23 O35 2.114 . S
Zn23 O38 2.080 . S
C24 O29 1.166 . S
C24 O30 1.182 . S
C25 O31 1.167 . S
C25 O32 1.299 . S
O26 Zn23 2.080 1_556 S
O26 C40 1.305 . S
O27 Zn21 1.920 1_556 S
O27 C40 1.234 . S
C28 O33 1.167 . S
C28 O34 1.299 . S
O29 Zn23 2.114 . S
O29 C24 1.166 . S
O30 Zn22 1.905 . S
O30 C24 1.182 . S
O31 Zn22 1.898 1_556 S
O31 C25 1.167 . S
O32 Zn23 2.120 1_556 S
O32 C25 1.299 . S
O33 Zn21 1.898 . S
O33 C28 1.167 . S
O34 Zn23 2.120 . S
O34 C28 1.299 . S
O35 Zn23 2.114 . S
O35 C37 1.166 1_554 S
O36 Zn21 1.905 1_556 S
O36 C37 1.182 . S
C37 O35 1.166 1_556 S
C37 O36 1.182 . S
O38 Zn23 2.080 . S
O38 C41 1.305 1_554 S
O39 Zn22 1.920 1_556 S
O39 C41 1.234 . S
C40 O26 1.305 . S
C40 O27 1.234 . S
C41 O38 1.305 1_556 S
C41 O39 1.234 . S
Zn42 O48 1.920 1_554 S
Zn42 O54 1.898 . S
Zn42 O57 1.905 1_554 S
Zn43 O51 1.905 . S
Zn43 O52 1.898 1_554 S
Zn43 O60 1.920 1_554 S
Zn44 O47 2.080 1_554 S
Zn44 O50 2.114 . S
Zn44 O53 2.120 1_554 S
Zn44 O55 2.120 . S
Zn44 O56 2.114 . S
Zn44 O59 2.080 . S
C45 O50 1.166 . S
C45 O51 1.182 . S
C46 O52 1.167 . S
C46 O53 1.299 . S
O47 Zn44 2.080 1_556 S
O47 C61 1.277 1_565 S
O48 Zn42 1.920 1_556 S
O48 C61 1.257 . S
C49 O54 1.170 1_565 S
C49 O55 1.296 . S
O50 Zn44 2.114 . S
O50 C45 1.166 . S
O51 Zn43 1.905 . S
O51 C45 1.182 . S
O52 Zn43 1.898 1_556 S
O52 C46 1.167 . S
O53 Zn44 2.120 1_556 S
O53 C46 1.299 . S
O54 Zn42 1.898 . S
O54 C49 1.170 1_545 S
O55 Zn44 2.120 . S
O55 C49 1.296 . S
O56 Zn44 2.114 . S
O56 C58 1.166 1_564 S
O57 Zn42 1.905 1_556 S
O57 C58 1.182 . S
C58 O56 1.166 1_546 S
C58 O57 1.182 . S
O59 Zn44 2.080 . S
O59 C62 1.305 1_554 S
O60 Zn43 1.920 1_556 S
O60 C62 1.234 . S
C61 O47 1.277 1_545 S
C61 O48 1.257 . S
C62 O59 1.305 1_556 S
C62 O60 1.234 . S
Zn63 O69 1.920 . S
Zn63 O75 1.898 . S
Zn63 O78 1.905 . S
Zn64 O72 1.905 . S
Zn64 O73 1.898 . S
Zn64 O81 1.920 . S
Zn65 O68 2.080 . S
Zn65 O71 2.114 . S
Zn65 O74 2.120 . S
Zn65 O76 2.120 . S
Zn65 O77 2.114 . S
Zn65 O80 2.080 . S
C66 O71 1.166 1_565 S
C66 O72 1.182 . S
C67 O73 1.170 1_545 S
C67 O74 1.297 . S
O68 Zn65 2.080 . S
O68 C82 1.305 . S
O69 Zn63 1.920 . S
O69 C82 1.234 . S
C70 O75 1.167 . S
C70 O76 1.299 . S
O71 Zn65 2.114 . S
O71 C66 1.166 1_545 S
O72 Zn64 1.905 . S
O72 C66 1.182 . S
O73 Zn64 1.898 . S
O73 C67 1.170 1_565 S
O74 Zn65 2.120 . S
O74 C67 1.297 . S
O75 Zn63 1.898 . S
O75 C70 1.167 . S
O76 Zn65 2.120 . S
O76 C70 1.299 . S
O77 Zn65 2.114 . S
O77 C79 1.166 . S
O78 Zn63 1.905 . S
O78 C79 1.182 . S
C79 O77 1.166 . S
C79 O78 1.182 . S
O80 Zn65 2.080 . S
O80 C83 1.298 1_545 S
O81 Zn64 1.920 . S
O81 C83 1.256 . S
C82 O68 1.305 . S
C82 O69 1.234 . S
C83 O80 1.298 1_565 S
C83 O81 1.256 . S
Zn84 O90 1.920 . S
Zn84 O96 1.898 . S
Zn84 O99 1.905 . S
Zn85 O93 1.905 . S
Zn85 O94 1.898 . S
Zn85 O102 1.920 . S
Zn86 O89 2.080 . S
Zn86 O92 2.114 . S
Zn86 O95 2.120 . S
Zn86 O97 2.120 . S
Zn86 O98 2.114 . S
Zn86 O101 2.080 . S
C87 O92 1.166 1_455 S
C87 O93 1.182 . S
C88 O94 1.170 1_655 S
C88 O95 1.297 . S
O89 Zn86 2.080 . S
O89 C103 1.305 . S
O90 Zn84 1.920 . S
O90 C103 1.234 . S
C91 O96 1.167 . S
C91 O97 1.299 . S
O92 Zn86 2.114 . S
O92 C87 1.166 1_655 S
O93 Zn85 1.905 . S
O93 C87 1.182 . S
O94 Zn85 1.898 . S
O94 C88 1.170 1_455 S
O95 Zn86 2.120 . S
O95 C88 1.297 . S
O96 Zn84 1.898 . S
O96 C91 1.167 . S
O97 Zn86 2.120 . S
O97 C91 1.299 . S
O98 Zn86 2.114 . S
O98 C100 1.166 . S
O99 Zn84 1.905 . S
O99 C100 1.182 . S
C100 O98 1.166 . S
C100 O99 1.182 . S
O101 Zn86 2.080 . S
O101 C104 1.277 1_655 S
O102 Zn85 1.920 . S
O102 C104 1.257 . S
C103 O89 1.305 . S
C103 O90 1.234 . S
C104 O101 1.277 1_455 S
C104 O102 1.257 . S
Zn105 O111 1.920 . S
Zn105 O117 1.898 . S
Zn105 O120 1.905 . S
Zn106 O114 1.905 . S
Zn106 O115 1.898 . S
Zn106 O123 1.920 . S
Zn107 O110 2.080 . S
Zn107 O113 2.114 . S
Zn107 O116 2.120 . S
Zn107 O118 2.120 . S
Zn107 O119 2.114 . S
Zn107 O122 2.080 . S
C108 O113 1.166 . S
C108 O114 1.182 . S
C109 O115 1.167 . S
C109 O116 1.299 . S
O110 Zn107 2.080 . S
O110 C124 1.305 . S
O111 Zn105 1.920 . S
O111 C124 1.234 . S
C112 O117 1.167 . S
C112 O118 1.299 . S
O113 Zn107 2.114 . S
O113 C108 1.166 . S
O114 Zn106 1.905 . S
O114 C108 1.182 . S
O115 Zn106 1.898 . S
O115 C109 1.167 . S
O116 Zn107 2.120 . S
O116 C109 1.299 . S
O117 Zn105 1.898 . S
O117 C112 1.167 . S
O118 Zn107 2.120 . S
O118 C112 1.299 . S
O119 Zn107 2.114 . S
O119 C121 1.166 . S
O120 Zn105 1.905 . S
O120 C121 1.182 . S
C121 O119 1.166 . S
C121 O120 1.182 . S
O122 Zn107 2.080 . S
O122 C125 1.305 . S
O123 Zn106 1.920 . S
O123 C125 1.234 . S
C124 O110 1.305 . S
C124 O111 1.234 . S
C125 O122 1.305 . S
C125 O123 1.234 . S
Zn126 O132 1.920 . S
Zn126 O138 1.898 1_554 S
Zn126 O141 1.905 . S
Zn127 O135 1.905 1_554 S
Zn127 O136 1.898 . S
Zn127 O144 1.920 . S
Zn128 O131 2.080 . S
Zn128 O134 2.114 1_554 S
Zn128 O137 2.120 . S
Zn128 O139 2.120 1_554 S
Zn128 O140 2.114 . S
Zn128 O143 2.080 . S
C129 O134 1.166 . S
C129 O135 1.182 . S
C130 O136 1.167 . S
C130 O137 1.299 . S
O131 Zn128 2.080 . S
O131 C145 1.298 1_655 S
O132 Zn126 1.920 . S
O132 C145 1.256 . S
C133 O138 1.170 1_655 S
C133 O139 1.296 . S
O134 Zn128 2.114 1_556 S
O134 C129 1.166 . S
O135 Zn127 1.905 1_556 S
O135 C129 1.182 . S
O136 Zn127 1.898 . S
O136 C130 1.167 . S
O137 Zn128 2.120 . S
O137 C130 1.299 . S
O138 Zn126 1.898 1_556 S
O138 C133 1.170 1_455 S
O139 Zn128 2.120 1_556 S
O139 C133 1.296 . S
O140 Zn128 2.114 . S
O140 C142 1.166 1_655 S
O141 Zn126 1.905 . S
O141 C142 1.182 . S
C142 O140 1.166 1_455 S
C142 O141 1.182 . S
O143 Zn128 2.080 . S
O143 C146 1.305 . S
O144 Zn127 1.920 . S
O144 C146 1.234 . S
C145 O131 1.298 1_455 S
C145 O132 1.256 . S
C146 O143 1.305 . S
C146 O144 1.234 . S
Zn147 O153 1.920 . S
Zn147 O159 1.898 . S
Zn147 O162 1.905 1_554 S
Zn148 O156 1.905 . S
Zn148 O157 1.898 1_554 S
Zn148 O165 1.920 . S
Zn149 O152 2.080 . S
Zn149 O155 2.114 . S
Zn149 O158 2.120 1_554 S
Zn149 O160 2.120 . S
Zn149 O161 2.114 1_554 S
Zn149 O164 2.080 . S
C150 O155 1.166 . S
C150 O156 1.182 . S
C151 O157 1.167 . S
C151 O158 1.299 . S
O152 Zn149 2.080 . S
O152 C166 1.305 . S
O153 Zn147 1.920 . S
O153 C166 1.234 . S
C154 O159 1.167 . S
C154 O160 1.299 . S
O155 Zn149 2.114 . S
O155 C150 1.166 . S
O156 Zn148 1.905 . S
O156 C150 1.182 . S
O157 Zn148 1.898 1_556 S
O157 C151 1.167 . S
O158 Zn149 2.120 1_556 S
O158 C151 1.299 . S
O159 Zn147 1.898 . S
O159 C154 1.167 . S
O160 Zn149 2.120 . S
O160 C154 1.299 . S
O161 Zn149 2.114 1_556 S
O161 C163 1.166 . S
O162 Zn147 1.905 1_556 S
O162 C163 1.182 . S
C163 O161 1.166 . S
C163 O162 1.182 . S
O164 Zn149 2.080 . S
O164 C167 1.305 . S
O165 Zn148 1.920 . S
O165 C167 1.234 . S
C166 O152 1.305 . S
C166 O153 1.234 . S
C167 O164 1.305 . S
C167 O165 1.234 . S
Zn168 O174 1.920 . S
Zn168 O180 1.898 1_554 S
Zn168 O183 1.905 . S
Zn169 O177 1.905 1_554 S
Zn169 O178 1.898 . S
Zn169 O186 1.920 . S
Zn170 O173 2.080 . S
Zn170 O176 2.114 1_554 S
Zn170 O179 2.120 . S
Zn170 O181 2.120 1_554 S
Zn170 O182 2.114 . S
Zn170 O185 2.080 . S
C171 O176 1.166 . S
C171 O177 1.182 . S
C172 O178 1.167 . S
C172 O179 1.299 . S
O173 Zn170 2.080 . S
O173 C187 1.277 1_545 S
O174 Zn168 1.920 . S
O174 C187 1.257 . S
C175 O180 1.170 1_545 S
C175 O181 1.296 . S
O176 Zn170 2.114 1_556 S
O176 C171 1.166 . S
O177 Zn169 1.905 1_556 S
O177 C171 1.182 . S
O178 Zn169 1.898 . S
O178 C172 1.167 . S
O179 Zn170 2.120 . S
O179 C172 1.299 . S
O180 Zn168 1.898 1_556 S
O180 C175 1.170 1_565 S
O181 Zn170 2.120 1_556 S
O181 C175 1.296 . S
O182 Zn170 2.114 . S
O182 C184 1.166 1_545 S
O183 Zn168 1.905 . S
O183 C184 1.182 . S
C184 O182 1.166 1_565 S
C184 O183 1.182 . S
O185 Zn170 2.080 . S
O185 C188 1.305 . S
O186 Zn169 1.920 . S
O186 C188 1.234 . S
C187 O173 1.277 1_565 S
C187 O174 1.257 . S
C188 O185 1.305 . S
C188 O186 1.234 . S
Zn189 O195 1.920 . S
Zn189 O201 1.898 . S
Zn189 O204 1.905 . S
Zn190 O198 1.905 . S
Zn190 O199 1.898 . S
Zn190 O207 1.920 . S
Zn191 O194 2.080 . S
Zn191 O197 2.114 . S
Zn191 O200 2.120 . S
Zn191 O202 2.120 . S
Zn191 O203 2.114 . S
Zn191 O206 2.080 . S
C192 O197 1.166 1_545 S
C192 O198 1.182 . S
C193 O199 1.170 1_565 S
C193 O200 1.296 . S
O194 Zn191 2.080 . S
O194 C208 1.305 . S
O195 Zn189 1.920 . S
O195 C208 1.234 . S
C196 O201 1.167 . S
C196 O202 1.299 . S
O197 Zn191 2.114 . S
O197 C192 1.166 1_565 S
O198 Zn190 1.905 . S
O198 C192 1.182 . S
O199 Zn190 1.898 . S
O199 C193 1.170 1_545 S
O200 Zn191 2.120 . S
O200 C193 1.296 . S
O201 Zn189 1.898 . S
O201 C196 1.167 . S
O202 Zn191 2.120 . S
O202 C196 1.299 . S
O203 Zn191 2.114 . S
O203 C205 1.166 . S
O204 Zn189 1.905 . S
O204 C205 1.182 . S
C205 O203 1.166 . S
C205 O204 1.182 . S
O206 Zn191 2.080 . S
O206 C209 1.298 1_565 S
O207 Zn190 1.920 . S
O207 C209 1.256 . S
C208 O194 1.305 . S
C208 O195 1.234 . S
C209 O206 1.298 1_545 S
C209 O207 1.256 . S
Zn210 O216 1.920 . S
Zn210 O222 1.898 . S
Zn210 O225 1.905 . S
Zn211 O219 1.905 . S
Zn211 O220 1.898 . S
Zn211 O228 1.920 . S
Zn212 O215 2.080 . S
Zn212 O218 2.114 . S
Zn212 O221 2.120 . S
Zn212 O223 2.120 . S
Zn212 O224 2.114 . S
Zn212 O227 2.080 . S
C213 O218 1.166 . S
C213 O219 1.182 . S
C214 O220 1.167 . S
C214 O221 1.299 . S
O215 Zn212 2.080 . S
O215 C229 1.277 1_455 S
O216 Zn210 1.920 . S
O216 C229 1.257 . S
C217 O222 1.170 1_455 S
C217 O223 1.297 . S
O218 Zn212 2.114 . S
O218 C213 1.166 . S
O219 Zn211 1.905 . S
O219 C213 1.182 . S
O220 Zn211 1.898 . S
O220 C214 1.167 . S
O221 Zn212 2.120 . S
O221 C214 1.299 . S
O222 Zn210 1.898 . S
O222 C217 1.170 1_655 S
O223 Zn212 2.120 . S
O223 C217 1.297 . S
O224 Zn212 2.114 . S
O224 C226 1.166 1_455 S
O225 Zn210 1.905 . S
O225 C226 1.182 . S
C226 O224 1.166 1_655 S
C226 O225 1.182 . S
O227 Zn212 2.080 . S
O227 C230 1.305 . S
O228 Zn211 1.920 . S
O228 C230 1.234 . S
C229 O215 1.277 1_655 S
C229 O216 1.257 . S
C230 O227 1.305 . S
C230 O228 1.234 . S
Zn231 O237 1.920 . S
Zn231 O243 1.898 . S
Zn231 O246 1.905 . S
Zn232 O240 1.905 . S
Zn232 O241 1.898 . S
Zn232 O249 1.920 . S
Zn233 O236 2.080 . S
Zn233 O239 2.114 . S
Zn233 O242 2.120 . S
Zn233 O244 2.120 . S
Zn233 O245 2.114 . S
Zn233 O248 2.080 . S
C234 O239 1.166 . S
C234 O240 1.182 . S
C235 O241 1.167 . S
C235 O242 1.299 . S
O236 Zn233 2.080 . S
O236 C250 1.305 . S
O237 Zn231 1.920 . S
O237 C250 1.234 . S
C238 O243 1.167 . S
C238 O244 1.299 . S
O239 Zn233 2.114 . S
O239 C234 1.166 . S
O240 Zn232 1.905 . S
O240 C234 1.182 . S
O241 Zn232 1.898 . S
O241 C235 1.167 . S
O242 Zn233 2.120 . S
O242 C235 1.299 . S
O243 Zn231 1.898 . S
O243 C238 1.167 . S
O244 Zn233 2.120 . S
O244 C238 1.299 . S
O245 Zn233 2.114 . S
O245 C247 1.166 . S
O246 Zn231 1.905 . S
O246 C247 1.182 . S
C247 O245 1.166 . S
C247 O246 1.182 . S
O248 Zn233 2.080 . S
O248 C251 1.305 . S
O249 Zn232 1.920 . S
O249 C251 1.234 . S
C250 O236 1.305 . S
C250 O237 1.234 . S
C251 O248 1.305 . S
C251 O249 1.234 . S
Zn252 O258 1.920 . S
Zn252 O264 1.898 . S
Zn252 O267 1.905 . S
Zn253 O261 1.905 . S
Zn253 O262 1.898 . S
Zn253 O270 1.920 . S
Zn254 O257 2.080 . S
Zn254 O260 2.114 . S
Zn254 O263 2.120 . S
Zn254 O265 2.120 . S
Zn254 O266 2.114 . S
Zn254 O269 2.080 . S
C255 O260 1.166 . S
C255 O261 1.182 . S
C256 O262 1.167 . S
C256 O263 1.299 . S
O257 Zn254 2.080 . S
O257 C271 1.305 . S
O258 Zn252 1.920 . S
O258 C271 1.234 . S
C259 O264 1.167 . S
C259 O265 1.299 . S
O260 Zn254 2.114 . S
O260 C255 1.166 . S
O261 Zn253 1.905 . S
O261 C255 1.182 . S
O262 Zn253 1.898 . S
O262 C256 1.167 . S
O263 Zn254 2.120 . S
O263 C256 1.299 . S
O264 Zn252 1.898 . S
O264 C259 1.167 . S
O265 Zn254 2.120 . S
O265 C259 1.299 . S
O266 Zn254 2.114 . S
O266 C268 1.166 . S
O267 Zn252 1.905 . S
O267 C268 1.182 . S
C268 O266 1.166 . S
C268 O267 1.182 . S
O269 Zn254 2.080 . S
O269 C272 1.305 . S
O270 Zn253 1.920 . S
O270 C272 1.234 . S
C271 O257 1.305 . S
C271 O258 1.234 . S
C272 O269 1.305 . S
C272 O270 1.234 . S
Zn273 O279 1.920 . S
Zn273 O285 1.898 . S
Zn273 O288 1.905 . S
Zn274 O282 1.905 . S
Zn274 O283 1.898 . S
Zn274 O291 1.920 . S
Zn275 O278 2.080 . S
Zn275 O281 2.114 . S
Zn275 O284 2.120 . S
Zn275 O286 2.120 . S
Zn275 O287 2.114 . S
Zn275 O290 2.080 . S
C276 O281 1.166 . S
C276 O282 1.182 . S
C277 O283 1.167 . S
C277 O284 1.299 . S
O278 Zn275 2.080 . S
O278 C292 1.305 . S
O279 Zn273 1.920 . S
O279 C292 1.234 . S
C280 O285 1.167 . S
C280 O286 1.299 . S
O281 Zn275 2.114 . S
O281 C276 1.166 . S
O282 Zn274 1.905 . S
O282 C276 1.182 . S
O283 Zn274 1.898 . S
O283 C277 1.167 . S
O284 Zn275 2.120 . S
O284 C277 1.299 . S
O285 Zn273 1.898 . S
O285 C280 1.167 . S
O286 Zn275 2.120 . S
O286 C280 1.299 . S
O287 Zn275 2.114 . S
O287 C289 1.166 . S
O288 Zn273 1.905 . S
O288 C289 1.182 . S
C289 O287 1.166 . S
C289 O288 1.182 . S
O290 Zn275 2.080 . S
O290 C293 1.305 . S
O291 Zn274 1.920 . S
O291 C293 1.234 . S
C292 O278 1.305 . S
C292 O279 1.234 . S
C293 O290 1.305 . S
C293 O291 1.234 . S
Zn294 O300 1.920 . S
Zn294 O306 1.898 . S
Zn294 O309 1.905 . S
Zn295 O303 1.905 . S
Zn295 O304 1.898 . S
Zn295 O312 1.920 . S
Zn296 O299 2.080 . S
Zn296 O302 2.114 . S
Zn296 O305 2.120 . S
Zn296 O307 2.120 . S
Zn296 O308 2.114 . S
Zn296 O311 2.080 . S
C297 O302 1.166 . S
C297 O303 1.182 . S
C298 O304 1.167 . S
C298 O305 1.299 . S
O299 Zn296 2.080 . S
O299 C313 1.305 . S
O300 Zn294 1.920 . S
O300 C313 1.234 . S
C301 O306 1.167 . S
C301 O307 1.299 . S
O302 Zn296 2.114 . S
O302 C297 1.166 . S
O303 Zn295 1.905 . S
O303 C297 1.182 . S
O304 Zn295 1.898 . S
O304 C298 1.167 . S
O305 Zn296 2.120 . S
O305 C298 1.299 . S
O306 Zn294 1.898 . S
O306 C301 1.167 . S
O307 Zn296 2.120 . S
O307 C301 1.299 . S
O308 Zn296 2.114 . S
O308 C310 1.166 . S
O309 Zn294 1.905 . S
O309 C310 1.182 . S
C310 O308 1.166 . S
C310 O309 1.182 . S
O311 Zn296 2.080 . S
O311 C314 1.305 . S
O312 Zn295 1.920 . S
O312 C314 1.234 . S
C313 O299 1.305 . S
C313 O300 1.234 . S
C314 O311 1.305 . S
C314 O312 1.234 . S
Zn315 O321 1.920 . S
Zn315 O327 1.898 . S
Zn315 O330 1.905 . S
Zn316 O324 1.905 . S
Zn316 O325 1.898 . S
Zn316 O333 1.920 . S
Zn317 O320 2.080 . S
Zn317 O323 2.114 . S
Zn317 O326 2.120 1_556 S
Zn317 O328 2.120 . S
Zn317 O329 2.114 . S
Zn317 O332 2.080 . S
C318 O323 1.166 . S
C318 O324 1.182 . S
C319 O325 1.167 1_554 S
C319 O326 1.299 . S
O320 Zn317 2.080 . S
O320 C334 1.305 1_556 S
O321 Zn315 1.920 . S
O321 C334 1.234 1_556 S
C322 O327 1.167 . S
C322 O328 1.299 . S
O323 Zn317 2.114 . S
O323 C318 1.166 . S
O324 Zn316 1.905 . S
O324 C318 1.182 . S
O325 Zn316 1.898 . S
O325 C319 1.167 1_556 S
O326 Zn317 2.120 1_554 S
O326 C319 1.299 . S
O327 Zn315 1.898 . S
O327 C322 1.167 . S
O328 Zn317 2.120 . S
O328 C322 1.299 . S
O329 Zn317 2.114 . S
O329 C331 1.166 . S
O330 Zn315 1.905 . S
O330 C331 1.182 . S
C331 O329 1.166 . S
C331 O330 1.182 . S
O332 Zn317 2.080 . S
O332 C335 1.305 . S
O333 Zn316 1.920 . S
O333 C335 1.234 . S
C334 O320 1.305 1_554 S
C334 O321 1.234 1_554 S
C335 O332 1.305 . S
C335 O333 1.234 . S
Zn336 O342 1.920 . S
Zn336 O348 1.898 . S
Zn336 O351 1.905 . S
Zn337 O345 1.905 . S
Zn337 O346 1.898 . S
Zn337 O354 1.920 . S
Zn338 O341 2.080 . S
Zn338 O344 2.114 . S
Zn338 O347 2.120 . S
Zn338 O349 2.120 1_556 S
Zn338 O350 2.114 . S
Zn338 O353 2.080 . S
C339 O344 1.166 . S
C339 O345 1.182 . S
C340 O346 1.167 . S
C340 O347 1.299 . S
O341 Zn338 2.080 . S
O341 C355 1.305 . S
O342 Zn336 1.920 . S
O342 C355 1.234 . S
C343 O348 1.167 1_554 S
C343 O349 1.299 . S
O344 Zn338 2.114 . S
O344 C339 1.166 . S
O345 Zn337 1.905 . S
O345 C339 1.182 . S
O346 Zn337 1.898 . S
O346 C340 1.167 . S
O347 Zn338 2.120 . S
O347 C340 1.299 . S
O348 Zn336 1.898 . S
O348 C343 1.167 1_556 S
O349 Zn338 2.120 1_554 S
O349 C343 1.299 . S
O350 Zn338 2.114 . S
O350 C352 1.166 . S
O351 Zn336 1.905 . S
O351 C352 1.182 . S
C352 O350 1.166 . S
C352 O351 1.182 . S
O353 Zn338 2.080 . S
O353 C356 1.305 1_556 S
O354 Zn337 1.920 . S
O354 C356 1.234 1_556 S
C355 O341 1.305 . S
C355 O342 1.234 . S
C356 O353 1.305 1_554 S
C356 O354 1.234 1_554 S
Zn357 O363 1.920 . S
Zn357 O369 1.898 . S
Zn357 O372 1.905 . S
Zn358 O366 1.905 . S
Zn358 O367 1.898 . S
Zn358 O375 1.920 . S
Zn359 O362 2.080 . S
Zn359 O365 2.114 . S
Zn359 O368 2.120 1_556 S
Zn359 O370 2.120 . S
Zn359 O371 2.114 . S
Zn359 O374 2.080 . S
C360 O365 1.166 . S
C360 O366 1.182 . S
C361 O367 1.167 1_554 S
C361 O368 1.299 . S
O362 Zn359 2.080 . S
O362 C376 1.305 1_556 S
O363 Zn357 1.920 . S
O363 C376 1.234 1_556 S
C364 O369 1.167 . S
C364 O370 1.299 . S
O365 Zn359 2.114 . S
O365 C360 1.166 . S
O366 Zn358 1.905 . S
O366 C360 1.182 . S
O367 Zn358 1.898 . S
O367 C361 1.167 1_556 S
O368 Zn359 2.120 1_554 S
O368 C361 1.299 . S
O369 Zn357 1.898 . S
O369 C364 1.167 . S
O370 Zn359 2.120 . S
O370 C364 1.299 . S
O371 Zn359 2.114 . S
O371 C373 1.166 . S
O372 Zn357 1.905 . S
O372 C373 1.182 . S
C373 O371 1.166 . S
C373 O372 1.182 . S
O374 Zn359 2.080 . S
O374 C377 1.305 . S
O375 Zn358 1.920 . S
O375 C377 1.234 . S
C376 O362 1.305 1_554 S
C376 O363 1.234 1_554 S
C377 O374 1.305 . S
C377 O375 1.234 . S
Zn378 O384 1.920 . S
Zn378 O390 1.898 . S
Zn378 O393 1.905 . S
Zn379 O387 1.905 . S
Zn379 O388 1.898 . S
Zn379 O396 1.920 . S
Zn380 O383 2.080 . S
Zn380 O386 2.114 . S
Zn380 O389 2.120 . S
Zn380 O391 2.120 . S
Zn380 O392 2.114 . S
Zn380 O395 2.080 . S
C381 O386 1.166 . S
C381 O387 1.182 . S
C382 O388 1.167 . S
C382 O389 1.299 . S
O383 Zn380 2.080 . S
O383 C397 1.305 . S
O384 Zn378 1.920 . S
O384 C397 1.234 . S
C385 O390 1.167 . S
C385 O391 1.299 . S
O386 Zn380 2.114 . S
O386 C381 1.166 . S
O387 Zn379 1.905 . S
O387 C381 1.182 . S
O388 Zn379 1.898 . S
O388 C382 1.167 . S
O389 Zn380 2.120 . S
O389 C382 1.299 . S
O390 Zn378 1.898 . S
O390 C385 1.167 . S
O391 Zn380 2.120 . S
O391 C385 1.299 . S
O392 Zn380 2.114 . S
O392 C394 1.166 . S
O393 Zn378 1.905 . S
O393 C394 1.182 . S
C394 O392 1.166 . S
C394 O393 1.182 . S
O395 Zn380 2.080 . S
O395 C398 1.305 . S
O396 Zn379 1.920 . S
O396 C398 1.234 . S
C397 O383 1.305 . S
C397 O384 1.234 . S
C398 O395 1.305 . S
C398 O396 1.234 . S
Zn399 O405 1.920 . S
Zn399 O411 1.898 . S
Zn399 O414 1.905 . S
Zn400 O408 1.905 . S
Zn400 O409 1.898 . S
Zn400 O417 1.920 . S
Zn401 O404 2.080 . S
Zn401 O407 2.114 . S
Zn401 O410 2.120 . S
Zn401 O412 2.120 . S
Zn401 O413 2.114 . S
Zn401 O416 2.080 . S
C402 O407 1.166 . S
C402 O408 1.182 . S
C403 O409 1.167 . S
C403 O410 1.299 . S
O404 Zn401 2.080 . S
O404 C418 1.305 . S
O405 Zn399 1.920 . S
O405 C418 1.234 . S
C406 O411 1.167 . S
C406 O412 1.299 . S
O407 Zn401 2.114 . S
O407 C402 1.166 . S
O408 Zn400 1.905 . S
O408 C402 1.182 . S
O409 Zn400 1.898 . S
O409 C403 1.167 . S
O410 Zn401 2.120 . S
O410 C403 1.299 . S
O411 Zn399 1.898 . S
O411 C406 1.167 . S
O412 Zn401 2.120 . S
O412 C406 1.299 . S
O413 Zn401 2.114 . S
O413 C415 1.166 . S
O414 Zn399 1.905 . S
O414 C415 1.182 . S
C415 O413 1.166 . S
C415 O414 1.182 . S
O416 Zn401 2.080 . S
O416 C419 1.305 . S
O417 Zn400 1.920 . S
O417 C419 1.234 . S
C418 O404 1.305 . S
C418 O405 1.234 . S
C419 O416 1.305 . S
C419 O417 1.234 . S
Zn420 O426 1.920 . S
Zn420 O432 1.898 . S
Zn420 O435 1.905 . S
Zn421 O429 1.905 . S
Zn421 O430 1.898 . S
Zn421 O438 1.920 . S
Zn422 O425 2.080 . S
Zn422 O428 2.114 . S
Zn422 O431 2.120 . S
Zn422 O433 2.120 . S
Zn422 O434 2.114 . S
Zn422 O437 2.080 . S
C423 O428 1.166 . S
C423 O429 1.182 . S
C424 O430 1.167 . S
C424 O431 1.299 . S
O425 Zn422 2.080 . S
O425 C439 1.305 . S
O426 Zn420 1.920 . S
O426 C439 1.234 . S
C427 O432 1.167 . S
C427 O433 1.299 . S
O428 Zn422 2.114 . S
O428 C423 1.166 . S
O429 Zn421 1.905 . S
O429 C423 1.182 . S
O430 Zn421 1.898 . S
O430 C424 1.167 . S
O431 Zn422 2.120 . S
O431 C424 1.299 . S
O432 Zn420 1.898 . S
O432 C427 1.167 . S
O433 Zn422 2.120 . S
O433 C427 1.299 . S
O434 Zn422 2.114 . S
O434 C436 1.166 . S
O435 Zn420 1.905 . S
O435 C436 1.182 . S
C436 O434 1.166 . S
C436 O435 1.182 . S
O437 Zn422 2.080 . S
O437 C440 1.305 . S
O438 Zn421 1.920 . S
O438 C440 1.234 . S
C439 O425 1.305 . S
C439 O426 1.234 . S
C440 O437 1.305 . S
C440 O438 1.234 . S
Zn441 O447 1.920 . S
Zn441 O453 1.898 . S
Zn441 O456 1.905 1_556 S
Zn442 O450 1.905 . S
Zn442 O451 1.898 1_556 S
Zn442 O459 1.920 . S
Zn443 O446 2.080 . S
Zn443 O449 2.114 . S
Zn443 O452 2.120 . S
Zn443 O454 2.120 . S
Zn443 O455 2.114 . S
Zn443 O458 2.080 . S
C444 O449 1.166 . S
C444 O450 1.182 . S
C445 O451 1.167 . S
C445 O452 1.299 1_554 S
O446 Zn443 2.080 . S
O446 C460 1.305 . S
O447 Zn441 1.920 . S
O447 C460 1.234 . S
C448 O453 1.167 . S
C448 O454 1.299 . S
O449 Zn443 2.114 . S
O449 C444 1.166 . S
O450 Zn442 1.905 . S
O450 C444 1.182 . S
O451 Zn442 1.898 1_554 S
O451 C445 1.167 . S
O452 Zn443 2.120 . S
O452 C445 1.299 1_556 S
O453 Zn441 1.898 . S
O453 C448 1.167 . S
O454 Zn443 2.120 . S
O454 C448 1.299 . S
O455 Zn443 2.114 . S
O455 C457 1.166 1_556 S
O456 Zn441 1.905 1_554 S
O456 C457 1.182 . S
C457 O455 1.166 1_554 S
C457 O456 1.182 . S
O458 Zn443 2.080 . S
O458 C461 1.305 . S
O459 Zn442 1.920 . S
O459 C461 1.234 . S
C460 O446 1.305 . S
C460 O447 1.234 . S
C461 O458 1.305 . S
C461 O459 1.234 . S
Zn462 O468 1.920 . S
Zn462 O474 1.898 . S
Zn462 O477 1.905 1_556 S
Zn463 O471 1.905 . S
Zn463 O472 1.898 1_556 S
Zn463 O480 1.920 . S
Zn464 O467 2.080 . S
Zn464 O470 2.114 . S
Zn464 O473 2.120 . S
Zn464 O475 2.120 . S
Zn464 O476 2.114 . S
Zn464 O479 2.080 . S
C465 O470 1.166 . S
C465 O471 1.182 . S
C466 O472 1.167 . S
C466 O473 1.299 1_554 S
O467 Zn464 2.080 . S
O467 C481 1.305 . S
O468 Zn462 1.920 . S
O468 C481 1.234 . S
C469 O474 1.167 . S
C469 O475 1.299 . S
O470 Zn464 2.114 . S
O470 C465 1.166 . S
O471 Zn463 1.905 . S
O471 C465 1.182 . S
O472 Zn463 1.898 1_554 S
O472 C466 1.167 . S
O473 Zn464 2.120 . S
O473 C466 1.299 1_556 S
O474 Zn462 1.898 . S
O474 C469 1.167 . S
O475 Zn464 2.120 . S
O475 C469 1.299 . S
O476 Zn464 2.114 . S
O476 C478 1.166 1_556 S
O477 Zn462 1.905 1_554 S
O477 C478 1.182 . S
C478 O476 1.166 1_554 S
C478 O477 1.182 . S
O479 Zn464 2.080 . S
O479 C482 1.305 . S
O480 Zn463 1.920 . S
O480 C482 1.234 . S
C481 O467 1.305 . S
C481 O468 1.234 . S
C482 O479 1.305 . S
C482 O480 1.234 . S
Zn483 O489 1.920 . S
Zn483 O495 1.898 . S
Zn483 O498 1.905 1_556 S
Zn484 O492 1.905 . S
Zn484 O493 1.898 1_556 S
Zn484 O501 1.920 . S
Zn485 O488 2.080 . S
Zn485 O491 2.114 . S
Zn485 O494 2.120 . S
Zn485 O496 2.120 . S
Zn485 O497 2.114 . S
Zn485 O500 2.080 . S
C486 O491 1.166 . S
C486 O492 1.182 . S
C487 O493 1.167 . S
C487 O494 1.299 1_554 S
O488 Zn485 2.080 . S
O488 C502 1.305 . S
O489 Zn483 1.920 . S
O489 C502 1.234 . S
C490 O495 1.167 . S
C490 O496 1.299 . S
O491 Zn485 2.114 . S
O491 C486 1.166 . S
O492 Zn484 1.905 . S
O492 C486 1.182 . S
O493 Zn484 1.898 1_554 S
O493 C487 1.167 . S
O494 Zn485 2.120 . S
O494 C487 1.299 1_556 S
O495 Zn483 1.898 . S
O495 C490 1.167 . S
O496 Zn485 2.120 . S
O496 C490 1.299 . S
O497 Zn485 2.114 . S
O497 C499 1.166 1_556 S
O498 Zn483 1.905 1_554 S
O498 C499 1.182 . S
C499 O497 1.166 1_554 S
C499 O498 1.182 . S
O500 Zn485 2.080 . S
O500 C503 1.305 . S
O501 Zn484 1.920 . S
O501 C503 1.234 . S
C502 O488 1.305 . S
C502 O489 1.234 . S
C503 O500 1.305 . S
C503 O501 1.234 . S
Zn504 O510 1.920 . S
Zn504 O516 1.898 . S
Zn504 O519 1.905 . S
Zn505 O513 1.905 . S
Zn505 O514 1.898 . S
Zn505 O522 1.920 . S
Zn506 O509 2.080 . S
Zn506 O512 2.114 . S
Zn506 O515 2.120 . S
Zn506 O517 2.120 . S
Zn506 O518 2.114 . S
Zn506 O521 2.080 . S
C507 O512 1.166 . S
C507 O513 1.182 . S
C508 O514 1.167 . S
C508 O515 1.299 . S
O509 Zn506 2.080 . S
O509 C523 1.305 . S
O510 Zn504 1.920 . S
O510 C523 1.234 . S
C511 O516 1.167 . S
C511 O517 1.299 . S
O512 Zn506 2.114 . S
O512 C507 1.166 . S
O513 Zn505 1.905 . S
O513 C507 1.182 . S
O514 Zn505 1.898 . S
O514 C508 1.167 . S
O515 Zn506 2.120 . S
O515 C508 1.299 . S
O516 Zn504 1.898 . S
O516 C511 1.167 . S
O517 Zn506 2.120 . S
O517 C511 1.299 . S
O518 Zn506 2.114 . S
O518 C520 1.166 . S
O519 Zn504 1.905 . S
O519 C520 1.182 . S
C520 O518 1.166 . S
C520 O519 1.182 . S
O521 Zn506 2.080 . S
O521 C524 1.305 . S
O522 Zn505 1.920 . S
O522 C524 1.234 . S
C523 O509 1.305 . S
C523 O510 1.234 . S
C524 O521 1.305 . S
C524 O522 1.234 . S
Zn525 O531 1.920 . S
Zn525 O537 1.898 . S
Zn525 O540 1.905 . S
Zn526 O534 1.905 . S
Zn526 O535 1.898 . S
Zn526 O543 1.920 . S
Zn527 O530 2.080 . S
Zn527 O533 2.114 . S
Zn527 O536 2.120 . S
Zn527 O538 2.120 . S
Zn527 O539 2.114 . S
Zn527 O542 2.080 . S
C528 O533 1.166 . S
C528 O534 1.182 . S
C529 O535 1.167 . S
C529 O536 1.299 . S
O530 Zn527 2.080 . S
O530 C544 1.305 . S
O531 Zn525 1.920 . S
O531 C544 1.234 . S
C532 O537 1.167 . S
C532 O538 1.299 . S
O533 Zn527 2.114 . S
O533 C528 1.166 . S
O534 Zn526 1.905 . S
O534 C528 1.182 . S
O535 Zn526 1.898 . S
O535 C529 1.167 . S
O536 Zn527 2.120 . S
O536 C529 1.299 . S
O537 Zn525 1.898 . S
O537 C532 1.167 . S
O538 Zn527 2.120 . S
O538 C532 1.299 . S
O539 Zn527 2.114 . S
O539 C541 1.166 . S
O540 Zn525 1.905 . S
O540 C541 1.182 . S
C541 O539 1.166 . S
C541 O540 1.182 . S
O542 Zn527 2.080 . S
O542 C545 1.305 . S
O543 Zn526 1.920 . S
O543 C545 1.234 . S
C544 O530 1.305 . S
C544 O531 1.234 . S
C545 O542 1.305 . S
C545 O543 1.234 . S
Zn546 O552 1.920 . S
Zn546 O558 1.898 . S
Zn546 O561 1.905 . S
Zn547 O555 1.905 . S
Zn547 O556 1.898 . S
Zn547 O564 1.920 . S
Zn548 O551 2.080 . S
Zn548 O554 2.114 . S
Zn548 O557 2.120 . S
Zn548 O559 2.120 . S
Zn548 O560 2.114 . S
Zn548 O563 2.080 . S
C549 O554 1.166 . S
C549 O555 1.182 . S
C550 O556 1.167 . S
C550 O557 1.299 . S
O551 Zn548 2.080 . S
O551 C565 1.305 . S
O552 Zn546 1.920 . S
O552 C565 1.234 . S
C553 O558 1.167 . S
C553 O559 1.299 . S
O554 Zn548 2.114 . S
O554 C549 1.166 . S
O555 Zn547 1.905 . S
O555 C549 1.182 . S
O556 Zn547 1.898 . S
O556 C550 1.167 . S
O557 Zn548 2.120 . S
O557 C550 1.299 . S
O558 Zn546 1.898 . S
O558 C553 1.167 . S
O559 Zn548 2.120 . S
O559 C553 1.299 . S
O560 Zn548 2.114 . S
O560 C562 1.166 . S
O561 Zn546 1.905 . S
O561 C562 1.182 . S
C562 O560 1.166 . S
C562 O561 1.182 . S
O563 Zn548 2.080 . S
O563 C566 1.305 . S
O564 Zn547 1.920 . S
O564 C566 1.234 . S
C565 O551 1.305 . S
C565 O552 1.234 . S
C566 O563 1.305 . S
C566 O564 1.234 . S
Zn567 O573 1.920 . S
Zn567 O579 1.898 . S
Zn567 O582 1.905 . S
Zn568 O576 1.905 . S
Zn568 O577 1.898 . S
Zn568 O585 1.920 . S
Zn569 O572 2.080 . S
Zn569 O575 2.114 . S
Zn569 O578 2.120 . S
Zn569 O580 2.120 . S
Zn569 O581 2.114 . S
Zn569 O584 2.080 . S
C570 O575 1.166 1_556 S
C570 O576 1.182 1_556 S
C571 O577 1.167 . S
C571 O578 1.299 . S
O572 Zn569 2.080 . S
O572 C586 1.305 . S
O573 Zn567 1.920 . S
O573 C586 1.234 . S
C574 O579 1.167 1_556 S
C574 O580 1.299 1_556 S
O575 Zn569 2.114 . S
O575 C570 1.166 1_554 S
O576 Zn568 1.905 . S
O576 C570 1.182 1_554 S
O577 Zn568 1.898 . S
O577 C571 1.167 . S
O578 Zn569 2.120 . S
O578 C571 1.299 . S
O579 Zn567 1.898 . S
O579 C574 1.167 1_554 S
O580 Zn569 2.120 . S
O580 C574 1.299 1_554 S
O581 Zn569 2.114 . S
O581 C583 1.166 . S
O582 Zn567 1.905 . S
O582 C583 1.182 . S
C583 O581 1.166 . S
C583 O582 1.182 . S
O584 Zn569 2.080 . S
O584 C587 1.305 . S
O585 Zn568 1.920 . S
O585 C587 1.234 . S
C586 O572 1.305 . S
C586 O573 1.234 . S
C587 O584 1.305 . S
C587 O585 1.234 . S
Zn588 O594 1.920 . S
Zn588 O600 1.898 . S
Zn588 O603 1.905 . S
Zn589 O597 1.905 . S
Zn589 O598 1.898 . S
Zn589 O606 1.920 . S
Zn590 O593 2.080 . S
Zn590 O596 2.114 . S
Zn590 O599 2.120 . S
Zn590 O601 2.120 . S
Zn590 O602 2.114 . S
Zn590 O605 2.080 . S
C591 O596 1.166 1_556 S
C591 O597 1.182 1_556 S
C592 O598 1.167 . S
C592 O599 1.299 . S
O593 Zn590 2.080 . S
O593 C607 1.305 . S
O594 Zn588 1.920 . S
O594 C607 1.234 . S
C595 O600 1.167 1_556 S
C595 O601 1.299 1_556 S
O596 Zn590 2.114 . S
O596 C591 1.166 1_554 S
O597 Zn589 1.905 . S
O597 C591 1.182 1_554 S
O598 Zn589 1.898 . S
O598 C592 1.167 . S
O599 Zn590 2.120 . S
O599 C592 1.299 . S
O600 Zn588 1.898 . S
O600 C595 1.167 1_554 S
O601 Zn590 2.120 . S
O601 C595 1.299 1_554 S
O602 Zn590 2.114 . S
O602 C604 1.166 . S
O603 Zn588 1.905 . S
O603 C604 1.182 . S
C604 O602 1.166 . S
C604 O603 1.182 . S
O605 Zn590 2.080 . S
O605 C608 1.305 . S
O606 Zn589 1.920 . S
O606 C608 1.234 . S
C607 O593 1.305 . S
C607 O594 1.234 . S
C608 O605 1.305 . S
C608 O606 1.234 . S
Zn609 O615 1.920 . S
Zn609 O621 1.898 . S
Zn609 O624 1.905 . S
Zn610 O618 1.905 . S
Zn610 O619 1.898 . S
Zn610 O627 1.920 . S
Zn611 O614 2.080 . S
Zn611 O617 2.114 . S
Zn611 O620 2.120 . S
Zn611 O622 2.120 . S
Zn611 O623 2.114 . S
Zn611 O626 2.080 . S
C612 O617 1.166 1_556 S
C612 O618 1.182 1_556 S
C613 O619 1.167 . S
C613 O620 1.299 . S
O614 Zn611 2.080 . S
O614 C628 1.305 . S
O615 Zn609 1.920 . S
O615 C628 1.234 . S
C616 O621 1.167 1_556 S
C616 O622 1.299 1_556 S
O617 Zn611 2.114 . S
O617 C612 1.166 1_554 S
O618 Zn610 1.905 . S
O618 C612 1.182 1_554 S
O619 Zn610 1.898 . S
O619 C613 1.167 . S
O620 Zn611 2.120 . S
O620 C613 1.299 . S
O621 Zn609 1.898 . S
O621 C616 1.167 1_554 S
O622 Zn611 2.120 . S
O622 C616 1.299 1_554 S
O623 Zn611 2.114 . S
O623 C625 1.166 . S
O624 Zn609 1.905 . S
O624 C625 1.182 . S
C625 O623 1.166 . S
C625 O624 1.182 . S
O626 Zn611 2.080 . S
O626 C629 1.305 . S
O627 Zn610 1.920 . S
O627 C629 1.234 . S
C628 O614 1.305 . S
C628 O615 1.234 . S
C629 O626 1.305 . S
C629 O627 1.234 . S
Zn630 O636 1.920 . S
Zn630 O642 1.898 . S
Zn630 O645 1.905 . S
Zn631 O639 1.905 . S
Zn631 O640 1.898 . S
Zn631 O648 1.920 . S
Zn632 O635 2.080 . S
Zn632 O638 2.114 . S
Zn632 O641 2.120 . S
Zn632 O643 2.120 . S
Zn632 O644 2.114 . S
Zn632 O647 2.080 . S
C633 O638 1.166 . S
C633 O639 1.182 . S
C634 O640 1.167 . S
C634 O641 1.299 . S
O635 Zn632 2.080 . S
O635 C649 1.305 . S
O636 Zn630 1.920 . S
O636 C649 1.234 . S
C637 O642 1.167 . S
C637 O643 1.299 . S
O638 Zn632 2.114 . S
O638 C633 1.166 . S
O639 Zn631 1.905 . S
O639 C633 1.182 . S
O640 Zn631 1.898 . S
O640 C634 1.167 . S
O641 Zn632 2.120 . S
O641 C634 1.299 . S
O642 Zn630 1.898 . S
O642 C637 1.167 . S
O643 Zn632 2.120 . S
O643 C637 1.299 . S
O644 Zn632 2.114 . S
O644 C646 1.166 . S
O645 Zn630 1.905 . S
O645 C646 1.182 . S
C646 O644 1.166 . S
C646 O645 1.182 . S
O647 Zn632 2.080 . S
O647 C650 1.305 . S
O648 Zn631 1.920 . S
O648 C650 1.234 . S
C649 O635 1.305 . S
C649 O636 1.234 . S
C650 O647 1.305 . S
C650 O648 1.234 . S
Zn651 O657 1.920 . S
Zn651 O663 1.898 . S
Zn651 O666 1.905 . S
Zn652 O660 1.905 . S
Zn652 O661 1.898 . S
Zn652 O669 1.920 . S
Zn653 O656 2.080 . S
Zn653 O659 2.114 . S
Zn653 O662 2.120 . S
Zn653 O664 2.120 . S
Zn653 O665 2.114 . S
Zn653 O668 2.080 . S
C654 O659 1.166 . S
C654 O660 1.182 . S
C655 O661 1.167 . S
C655 O662 1.299 . S
O656 Zn653 2.080 . S
O656 C670 1.305 . S
O657 Zn651 1.920 . S
O657 C670 1.234 . S
C658 O663 1.167 . S
C658 O664 1.299 . S
O659 Zn653 2.114 . S
O659 C654 1.166 . S
O660 Zn652 1.905 . S
O660 C654 1.182 . S
O661 Zn652 1.898 . S
O661 C655 1.167 . S
O662 Zn653 2.120 . S
O662 C655 1.299 . S
O663 Zn651 1.898 . S
O663 C658 1.167 . S
O664 Zn653 2.120 . S
O664 C658 1.299 . S
O665 Zn653 2.114 . S
O665 C667 1.166 . S
O666 Zn651 1.905 . S
O666 C667 1.182 . S
C667 O665 1.166 . S
C667 O666 1.182 . S
O668 Zn653 2.080 . S
O668 C671 1.305 . S
O669 Zn652 1.920 . S
O669 C671 1.234 . S
C670 O656 1.305 . S
C670 O657 1.234 . S
C671 O668 1.305 . S
C671 O669 1.234 . S
Zn672 O678 1.920 . S
Zn672 O684 1.898 . S
Zn672 O687 1.905 . S
Zn673 O681 1.905 . S
Zn673 O682 1.898 . S
Zn673 O690 1.920 . S
Zn674 O677 2.080 . S
Zn674 O680 2.114 . S
Zn674 O683 2.120 . S
Zn674 O685 2.120 . S
Zn674 O686 2.114 . S
Zn674 O689 2.080 . S
C675 O680 1.166 . S
C675 O681 1.182 . S
C676 O682 1.167 . S
C676 O683 1.299 . S
O677 Zn674 2.080 . S
O677 C691 1.305 . S
O678 Zn672 1.920 . S
O678 C691 1.234 . S
C679 O684 1.167 . S
C679 O685 1.299 . S
O680 Zn674 2.114 . S
O680 C675 1.166 . S
O681 Zn673 1.905 . S
O681 C675 1.182 . S
O682 Zn673 1.898 . S
O682 C676 1.167 . S
O683 Zn674 2.120 . S
O683 C676 1.299 . S
O684 Zn672 1.898 . S
O684 C679 1.167 . S
O685 Zn674 2.120 . S
O685 C679 1.299 . S
O686 Zn674 2.114 . S
O686 C688 1.166 . S
O687 Zn672 1.905 . S
O687 C688 1.182 . S
C688 O686 1.166 . S
C688 O687 1.182 . S
O689 Zn674 2.080 . S
O689 C692 1.305 . S
O690 Zn673 1.920 . S
O690 C692 1.234 . S
C691 O677 1.305 . S
C691 O678 1.234 . S
C692 O689 1.305 . S
C692 O690 1.234 . S
Zn693 O699 1.920 . S
Zn693 O705 1.898 . S
Zn693 O708 1.905 . S
Zn694 O702 1.905 . S
Zn694 O703 1.898 . S
Zn694 O711 1.920 . S
Zn695 O698 2.080 . S
Zn695 O701 2.114 . S
Zn695 O704 2.120 . S
Zn695 O706 2.120 . S
Zn695 O707 2.114 . S
Zn695 O710 2.080 . S
C696 O701 1.166 . S
C696 O702 1.182 . S
C697 O703 1.167 . S
C697 O704 1.299 . S
O698 Zn695 2.080 . S
O698 C712 1.305 . S
O699 Zn693 1.920 . S
O699 C712 1.234 . S
C700 O705 1.167 . S
C700 O706 1.299 . S
O701 Zn695 2.114 . S
O701 C696 1.166 . S
O702 Zn694 1.905 . S
O702 C696 1.182 . S
O703 Zn694 1.898 . S
O703 C697 1.167 . S
O704 Zn695 2.120 . S
O704 C697 1.299 . S
O705 Zn693 1.898 . S
O705 C700 1.167 . S
O706 Zn695 2.120 . S
O706 C700 1.299 . S
O707 Zn695 2.114 . S
O707 C709 1.166 . S
O708 Zn693 1.905 . S
O708 C709 1.182 . S
C709 O707 1.166 . S
C709 O708 1.182 . S
O710 Zn695 2.080 . S
O710 C713 1.305 . S
O711 Zn694 1.920 . S
O711 C713 1.234 . S
C712 O698 1.305 . S
C712 O699 1.234 . S
C713 O710 1.305 . S
C713 O711 1.234 . S
Zn714 O720 1.920 . S
Zn714 O726 1.898 . S
Zn714 O729 1.905 . S
Zn715 O723 1.905 . S
Zn715 O724 1.898 . S
Zn715 O732 1.920 . S
Zn716 O719 2.080 . S
Zn716 O722 2.114 . S
Zn716 O725 2.120 . S
Zn716 O727 2.120 . S
Zn716 O728 2.114 . S
Zn716 O731 2.080 . S
C717 O722 1.166 . S
C717 O723 1.182 . S
C718 O724 1.167 . S
C718 O725 1.299 . S
O719 Zn716 2.080 . S
O719 C733 1.305 . S
O720 Zn714 1.920 . S
O720 C733 1.234 . S
C721 O726 1.167 . S
C721 O727 1.299 . S
O722 Zn716 2.114 . S
O722 C717 1.166 . S
O723 Zn715 1.905 . S
O723 C717 1.182 . S
O724 Zn715 1.898 . S
O724 C718 1.167 . S
O725 Zn716 2.120 . S
O725 C718 1.299 . S
O726 Zn714 1.898 . S
O726 C721 1.167 . S
O727 Zn716 2.120 . S
O727 C721 1.299 . S
O728 Zn716 2.114 . S
O728 C730 1.166 . S
O729 Zn714 1.905 . S
O729 C730 1.182 . S
C730 O728 1.166 . S
C730 O729 1.182 . S
O731 Zn716 2.080 . S
O731 C734 1.305 . S
O732 Zn715 1.920 . S
O732 C734 1.234 . S
C733 O719 1.305 . S
C733 O720 1.234 . S
C734 O731 1.305 . S
C734 O732 1.234 . S
Zn735 O741 1.920 . S
Zn735 O747 1.898 . S
Zn735 O750 1.905 . S
Zn736 O744 1.905 . S
Zn736 O745 1.898 . S
Zn736 O753 1.920 . S
Zn737 O740 2.080 . S
Zn737 O743 2.114 . S
Zn737 O746 2.120 . S
Zn737 O748 2.120 . S
Zn737 O749 2.114 . S
Zn737 O752 2.080 . S
C738 O743 1.166 . S
C738 O744 1.182 . S
C739 O745 1.167 . S
C739 O746 1.299 . S
O740 Zn737 2.080 . S
O740 C754 1.305 . S
O741 Zn735 1.920 . S
O741 C754 1.234 . S
C742 O747 1.167 . S
C742 O748 1.299 . S
O743 Zn737 2.114 . S
O743 C738 1.166 . S
O744 Zn736 1.905 . S
O744 C738 1.182 . S
O745 Zn736 1.898 . S
O745 C739 1.167 . S
O746 Zn737 2.120 . S
O746 C739 1.299 . S
O747 Zn735 1.898 . S
O747 C742 1.167 . S
O748 Zn737 2.120 . S
O748 C742 1.299 . S
O749 Zn737 2.114 . S
O749 C751 1.166 . S
O750 Zn735 1.905 . S
O750 C751 1.182 . S
C751 O749 1.166 . S
C751 O750 1.182 . S
O752 Zn737 2.080 . S
O752 C755 1.305 . S
O753 Zn736 1.920 . S
O753 C755 1.234 . S
C754 O740 1.305 . S
C754 O741 1.234 . S
C755 O752 1.305 . S
C755 O753 1.234 . S
C335 C20 0.701 . S
C355 C41 0.702 . S
C62 C377 0.702 . S
C82 C524 0.701 . S
C103 C545 0.703 . S
C125 C566 0.702 . S
C713 C146 0.701 . S
C733 C166 0.702 . S
C188 C755 0.702 . S
C398 C208 0.701 . S
C230 C419 0.703 . S
C250 C439 0.702 . S
C587 C272 0.701 . S
C293 C608 0.702 1_565 S
C629 C314 0.701 1_655 S
C650 C460 0.701 . S
C671 C481 0.702 1_545 S
C502 C692 0.701 1_455 S
C19 C104 1.887 1_655 S
C40 C124 1.887 . S
C61 C83 1.887 1_545 S
C145 C229 1.887 1_455 S
C167 C251 1.888 . S
C187 C209 1.887 1_565 S
C271 C356 1.888 . S
C376 C292 1.888 . S
C313 C334 1.888 . S
C397 C482 1.888 . S
C418 C503 1.888 . S
C461 C440 1.888 . S
C523 C607 1.888 . S
C628 C544 1.888 . S
C565 C586 1.888 . S
C649 C734 1.888 1_556 S
C670 C754 1.888 1_556 S
C691 C712 1.888 1_556 S
C213 C4 1.948 . S
C25 C247 1.948 . S
C46 C205 1.948 . S
C70 C171 1.948 . S
C91 C129 1.948 . S
C163 C109 1.948 . S
C130 C100 1.948 . S
C108 C154 1.948 . S
C172 C79 1.948 . S
C196 C45 1.948 . S
C3 C214 1.948 . S
C24 C238 1.948 . S
C478 C256 1.948 . S
C499 C277 1.948 . S
C457 C298 1.948 . S
C436 C319 1.948 . S
C343 C381 1.948 . S
C402 C361 1.948 . S
C352 C382 1.948 . S
C403 C360 1.948 . S
C427 C318 1.948 . S
C297 C448 1.948 . S
C469 C255 1.948 . S
C490 C276 1.948 . S
C508 C730 1.948 . S
C529 C738 1.948 . S
C696 C550 1.948 . S
C675 C571 1.948 . S
C592 C633 1.948 . S
C654 C613 1.948 . S
C634 C591 1.948 . S
C612 C655 1.948 . S
C676 C570 1.948 . S
C697 C549 1.948 1_554 S
C507 C721 1.948 1_556 S
C528 C739 1.948 1_556 S
C7 C88 0.717 1_455 S
C112 C28 0.717 . S
C49 C67 0.717 1_565 S
C133 C217 0.716 1_655 S
C235 C151 0.717 . S
C175 C193 0.716 1_545 S
C340 C259 0.716 . S
C364 C280 0.717 . S
C322 C301 0.716 . S
C466 C385 0.716 . S
C406 C487 0.716 . S
C445 C424 0.716 . S
C595 C511 0.716 . S
C532 C616 0.717 . S
C553 C574 0.716 . S
C718 C637 0.716 . S
C658 C742 0.716 . S
C679 C700 0.716 . S
C16 C142 0.857 1_656 S
C37 C150 0.857 1_556 S
C184 C58 0.857 1_564 S
C192 C66 0.857 1_545 S
C87 C226 0.857 1_455 S
C121 C234 0.857 . S
C394 C268 0.857 . S
C289 C415 0.857 . S
C423 C310 0.857 . S
C444 C331 0.857 . S
C465 C339 0.857 . S
C486 C373 0.857 . S
C646 C520 0.857 . S
C541 C667 0.857 . S
C688 C562 0.857 . S
C709 C583 0.857 . S
C717 C604 0.857 . S
C625 C751 0.857 . S
