# Generated by pormake.
# Topology noz, (5)-cn, num edge types: 1
# Building blocks:
#     Node 0, Type 0, BuildingBlock: XOMCOT_clean_sbu_1, # of connection points: 5
#     Node 1, Type 0, BuildingBlock: XOMCOT_clean_sbu_1, # of connection points: 5
#     Node 2, Type 0, BuildingBlock: XOMCOT_clean_sbu_1, # of connection points: 5
#     Node 3, Type 0, BuildingBlock: XOMCOT_clean_sbu_1, # of connection points: 5
#     Node 4, Type 0, BuildingBlock: XOMCOT_clean_sbu_1, # of connection points: 5
#     Node 5, Type 0, BuildingBlock: XOMCOT_clean_sbu_1, # of connection points: 5
#     Node 6, Type 0, BuildingBlock: XOMCOT_clean_sbu_1, # of connection points: 5
#     Node 7, Type 0, BuildingBlock: XOMCOT_clean_sbu_1, # of connection points: 5
#     Edge 8, Type (0, 0), BuildingBlock: XIVTED_clean_linker_0, # of connection points: 2
#     Edge 9, Type (0, 0), BuildingBlock: XIVTED_clean_linker_0, # of connection points: 2
#     Edge 10, Type (0, 0), BuildingBlock: XIVTED_clean_linker_0, # of connection points: 2
#     Edge 11, Type (0, 0), BuildingBlock: XIVTED_clean_linker_0, # of connection points: 2
#     Edge 12, Type (0, 0), BuildingBlock: XIVTED_clean_linker_0, # of connection points: 2
#     Edge 13, Type (0, 0), BuildingBlock: XIVTED_clean_linker_0, # of connection points: 2
#     Edge 14, Type (0, 0), BuildingBlock: XIVTED_clean_linker_0, # of connection points: 2
#     Edge 15, Type (0, 0), BuildingBlock: XIVTED_clean_linker_0, # of connection points: 2
#     Edge 16, Type (0, 0), BuildingBlock: XIVTED_clean_linker_0, # of connection points: 2
#     Edge 17, Type (0, 0), BuildingBlock: XIVTED_clean_linker_0, # of connection points: 2
#     Edge 18, Type (0, 0), BuildingBlock: XIVTED_clean_linker_0, # of connection points: 2
#     Edge 19, Type (0, 0), BuildingBlock: XIVTED_clean_linker_0, # of connection points: 2
#     Edge 20, Type (0, 0), BuildingBlock: XIVTED_clean_linker_0, # of connection points: 2
#     Edge 21, Type (0, 0), BuildingBlock: XIVTED_clean_linker_0, # of connection points: 2
#     Edge 22, Type (0, 0), BuildingBlock: XIVTED_clean_linker_0, # of connection points: 2
#     Edge 23, Type (0, 0), BuildingBlock: XIVTED_clean_linker_0, # of connection points: 2
#     Edge 24, Type (0, 0), BuildingBlock: XIVTED_clean_linker_0, # of connection points: 2
#     Edge 25, Type (0, 0), BuildingBlock: XIVTED_clean_linker_0, # of connection points: 2
#     Edge 26, Type (0, 0), BuildingBlock: XIVTED_clean_linker_0, # of connection points: 2
#     Edge 27, Type (0, 0), BuildingBlock: XIVTED_clean_linker_0, # of connection points: 2
# Relax obj value: 0.078
# Max RMSD: 0.163
# Mean RMSD: 0.163
data_MOF--net-noz--node1-XOMCOT_clean_sbu_1--edge1-XIVTED_clean_linker_0
_symmetry_space_group_name_H-M    P1
_symmetry_Int_Tables_number       1
_symmetry_cell_setting            triclinic
loop_
_symmetry_equiv_pos_as_xyz
'x, y, z'
_cell_length_a     23.905249
_cell_length_b     51.010597
_cell_length_c     36.179363
_cell_angle_alpha  90.005074
_cell_angle_beta   90.030721
_cell_angle_gamma 90.028803
loop_
_atom_site_label
_atom_site_type_symbol
_atom_site_fract_x
_atom_site_fract_y
_atom_site_fract_z
_atom_type_partial_charge
C0 C 0.14209 0.35631 0.3496 0.0
C1 C 0.09957 0.35926 0.32441 0.0
N2 N 0.05435 0.34637 0.33712 0.0
N3 N 0.12378 0.34181 0.37825 0.0
C4 C 0.07006 0.33584 0.36983 0.0
H5 H 0.18353 0.36472 0.34769 0.0
Co6 Co 0.16856 0.33589 0.41928 0.0
C7 C 0.10168 0.30536 0.4733 0.0
O8 O 0.12816 0.31748 0.50013 0.0
N9 N 0.21683 0.33026 0.46067 0.0
C10 C 0.27312 0.33581 0.5093 0.0
C11 C 0.23435 0.34754 0.48664 0.0
C12 C 0.24574 0.30808 0.46861 0.0
N13 N 0.28069 0.31103 0.4977 0.0
O14 O 0.20517 0.30823 0.39247 0.0
H15 H 0.22126 0.36768 0.48899 0.0
H16 H 0.24208 0.29013 0.45288 0.0
O17 O 0.11313 0.311 0.43961 0.0
C18 C 0.25416 0.31485 0.38203 0.0
O19 O 0.27428 0.33759 0.39276 0.0
N20 N 0.1354 0.36511 0.44198 0.0
C21 C 0.10052 0.41399 0.46773 0.0
C22 C 0.06796 0.39154 0.47408 0.0
C23 C 0.08542 0.36728 0.46006 0.0
C24 C 0.16579 0.38697 0.43394 0.0
C25 C 0.14948 0.41154 0.44678 0.0
H26 H 0.058 0.35069 0.46327 0.0
H27 H 0.2039 0.38512 0.41804 0.0
H28 H 0.04235 0.32497 0.38785 0.0
H29 H 0.10148 0.37026 0.29885 0.0
H30 H 0.29604 0.34525 0.53142 0.0
H31 H 0.02891 0.39283 0.48914 0.0
H32 H 0.17577 0.42836 0.44109 0.0
C33 C 0.59494 0.64659 0.84929 0.0
C34 C 0.63772 0.64363 0.82433 0.0
N35 N 0.68268 0.65668 0.83713 0.0
N36 N 0.61281 0.66125 0.87791 0.0
C37 C 0.66656 0.66732 0.86969 0.0
H38 H 0.55361 0.63807 0.84724 0.0
Co39 Co 0.56727 0.66716 0.91858 0.0
C40 C 0.63259 0.69811 0.97304 0.0
O41 O 0.60552 0.68605 0.99964 0.0
N42 N 0.51818 0.67275 0.95952 0.0
C43 C 0.46117 0.6672 1.00773 0.0
C44 C 0.50013 0.65544 0.98526 0.0
C45 C 0.48931 0.69496 0.96733 0.0
N46 N 0.454 0.69203 0.99622 0.0
O47 O 0.53053 0.6946 0.89128 0.0
H48 H 0.51301 0.63527 0.9876 0.0
H49 H 0.49338 0.71293 0.9517 0.0
O50 O 0.62207 0.69231 0.93925 0.0
C51 C 0.48183 0.68769 0.88056 0.0
O52 O 0.46214 0.66487 0.89128 0.0
N53 N 0.60052 0.63814 0.94176 0.0
C54 C 0.63539 0.58954 0.96856 0.0
C55 C 0.66742 0.61213 0.97508 0.0
C56 C 0.65001 0.63625 0.96053 0.0
C57 C 0.57074 0.61612 0.93354 0.0
C58 C 0.58706 0.59169 0.94689 0.0
H59 H 0.67707 0.65294 0.96393 0.0
H60 H 0.53305 0.61775 0.91714 0.0
H61 H 0.69397 0.67834 0.88774 0.0
H62 H 0.63614 0.63252 0.79884 0.0
H63 H 0.43793 0.65777 0.02969 0.0
H64 H 0.70602 0.61107 0.9907 0.0
H65 H 0.56121 0.57474 0.94104 0.0
C66 C 0.14084 0.64844 0.69906 0.0
C67 C 0.09808 0.64557 0.72406 0.0
N68 N 0.05303 0.65846 0.71111 0.0
N69 N 0.12289 0.66291 0.67028 0.0
C70 C 0.06911 0.66892 0.67843 0.0
H71 H 0.18225 0.64004 0.70123 0.0
Co72 Co 0.16832 0.66886 0.62955 0.0
C73 C 0.10304 0.70039 0.5756 0.0
O74 O 0.13031 0.68882 0.54867 0.0
N75 N 0.21722 0.67448 0.58854 0.0
C76 C 0.27375 0.66887 0.5401 0.0
C77 C 0.23475 0.65718 0.56263 0.0
C78 C 0.24647 0.6966 0.58079 0.0
N79 N 0.28149 0.69363 0.55175 0.0
O80 O 0.20544 0.69615 0.65695 0.0
H81 H 0.22146 0.63706 0.56024 0.0
H82 H 0.24286 0.71454 0.59655 0.0
O83 O 0.11358 0.69414 0.60922 0.0
C84 C 0.25409 0.6891 0.66753 0.0
O85 O 0.27351 0.66629 0.65655 0.0
N86 N 0.13474 0.63996 0.60624 0.0
C87 C 0.09976 0.59141 0.57925 0.0
C88 C 0.06831 0.6141 0.57224 0.0
C89 C 0.08576 0.63819 0.58687 0.0
C90 C 0.16402 0.61787 0.61479 0.0
C91 C 0.14761 0.59346 0.60141 0.0
H92 H 0.05915 0.65498 0.58299 0.0
H93 H 0.2014 0.61943 0.63153 0.0
H94 H 0.04166 0.67983 0.66028 0.0
H95 H 0.09979 0.63467 0.74972 0.0
H96 H 0.29661 0.65943 0.51799 0.0
H97 H 0.03013 0.61311 0.55616 0.0
H98 H 0.17301 0.57644 0.6076 0.0
C99 C 0.59461 0.35516 0.20144 0.0
C100 C 0.63774 0.3579 0.22623 0.0
N101 N 0.68255 0.34503 0.2129 0.0
N102 N 0.61211 0.3408 0.17244 0.0
C103 C 0.66598 0.33471 0.18023 0.0
H104 H 0.55329 0.3636 0.20389 0.0
Co105 Co 0.56626 0.33517 0.13185 0.0
C106 C 0.63079 0.30413 0.07714 0.0
O107 O 0.60368 0.31624 0.0506 0.0
N108 N 0.51688 0.32986 0.09097 0.0
C109 C 0.45947 0.33579 0.04303 0.0
C110 C 0.49881 0.34734 0.06546 0.0
C111 C 0.48765 0.30776 0.08304 0.0
N112 N 0.45208 0.31093 0.05433 0.0
O113 O 0.5294 0.30771 0.15896 0.0
H114 H 0.5119 0.3675 0.06331 0.0
H115 H 0.49163 0.2897 0.09848 0.0
O116 O 0.62056 0.30995 0.11094 0.0
C117 C 0.48078 0.3146 0.16975 0.0
O118 O 0.46117 0.33749 0.15928 0.0
N119 N 0.59977 0.36418 0.10882 0.0
C120 C 0.63505 0.41278 0.08218 0.0
C121 C 0.66663 0.39011 0.07534 0.0
C122 C 0.64902 0.36599 0.08979 0.0
C123 C 0.57047 0.38627 0.11737 0.0
C124 C 0.587 0.4107 0.10411 0.0
H125 H 0.67573 0.34922 0.08609 0.0
H126 H 0.53297 0.38469 0.13395 0.0
H127 H 0.69315 0.32389 0.16181 0.0
H128 H 0.63649 0.36873 0.25196 0.0
H129 H 0.43613 0.34539 1.02126 0.0
H130 H 0.70501 0.39111 0.0595 0.0
H131 H 0.56149 0.4277 0.1102 0.0
C132 C 0.64034 0.85743 0.34784 0.0
C133 C 0.59746 0.86011 0.32285 0.0
N134 N 0.55267 0.84701 0.33582 0.0
N135 N 0.62273 0.84288 0.37663 0.0
C136 C 0.56904 0.83663 0.3685 0.0
H137 H 0.68161 0.86599 0.34563 0.0
Co138 Co 0.66832 0.83706 0.41736 0.0
C139 C 0.60295 0.80583 0.47161 0.0
O140 O 0.63029 0.81748 0.49847 0.0
N141 N 0.71733 0.83154 0.45839 0.0
C142 C 0.77398 0.83726 0.50679 0.0
C143 C 0.73499 0.84891 0.48419 0.0
C144 C 0.74648 0.80942 0.46628 0.0
N145 N 0.78157 0.81246 0.49529 0.0
O146 O 0.70508 0.80959 0.39017 0.0
H147 H 0.72179 0.86904 0.48648 0.0
H148 H 0.74275 0.79144 0.45063 0.0
O149 O 0.61351 0.81195 0.43795 0.0
C150 C 0.75375 0.81651 0.37945 0.0
O151 O 0.77342 0.83934 0.39015 0.0
N152 N 0.63508 0.8661 0.44045 0.0
C153 C 0.60063 0.91482 0.46703 0.0
C154 C 0.56896 0.89222 0.47423 0.0
C155 C 0.58615 0.86803 0.45981 0.0
C156 C 0.66458 0.8881 0.43172 0.0
C157 C 0.64843 0.91259 0.44491 0.0
H158 H 0.5594 0.8513 0.46382 0.0
H159 H 0.70192 0.88641 0.41501 0.0
H160 H 0.54185 0.82558 0.38664 0.0
H161 H 0.5989 0.87101 0.29719 0.0
H162 H 0.79693 0.84676 0.52884 0.0
H163 H 0.53081 0.89334 0.4903 0.0
H164 H 0.67401 0.92954 0.43858 0.0
C165 C 0.08964 0.15442 0.84625 0.0
C166 C 0.13221 0.15375 0.82077 0.0
N167 N 0.17892 0.16339 0.83669 0.0
N168 N 0.10907 0.16447 0.87815 0.0
C169 C 0.1637 0.16966 0.87166 0.0
H170 H 0.04709 0.14789 0.84192 0.0
Co171 Co 0.06399 0.16878 0.91942 0.0
C172 C 0.12945 0.19924 0.97466 0.0
O173 O 0.10281 0.18705 1.00134 0.0
N174 N 1.01565 0.17292 0.96098 0.0
C175 C 0.95917 0.16583 1.00905 0.0
C176 C 0.99806 0.15482 0.98574 0.0
C177 C 0.9867 0.19482 0.97023 0.0
N178 N 0.95166 0.19095 0.99902 0.0
O179 O 0.0262 0.19677 0.89395 0.0
H180 H 1.01108 0.1346 0.98666 0.0
H181 H 0.99045 0.21324 0.95564 0.0
O182 O 0.11839 0.19365 0.9409 0.0
C183 C 0.97716 0.19038 0.88329 0.0
O184 O 0.95685 0.16754 0.89341 0.0
N185 N 0.09835 0.13938 0.94075 0.0
C186 C 0.13406 0.0903 0.96521 0.0
C187 C 0.16511 0.11292 0.97344 0.0
C188 C 0.14726 0.13731 0.96013 0.0
C189 C 0.06959 0.11741 0.93085 0.0
C190 C 0.08635 0.09273 0.94299 0.0
H191 H 0.17345 0.1541 0.96507 0.0
H192 H 0.03228 0.11927 0.91411 0.0
H193 H 0.19158 0.17803 0.89205 0.0
H194 H 0.12906 0.14625 0.79287 0.0
H195 H 0.93611 0.1557 0.03048 0.0
H196 H 0.20319 0.11169 0.98959 0.0
H197 H 0.06121 0.07579 0.93588 0.0
C198 C 0.64209 0.15338 0.70465 0.0
C199 C 0.5994 0.15257 0.73002 0.0
N200 N 0.55306 0.16276 0.71433 0.0
N201 N 0.62312 0.16406 0.67304 0.0
C202 C 0.56862 0.16949 0.6796 0.0
H203 H 0.68445 0.14656 0.70886 0.0
Co204 Co 0.66876 0.16889 0.63215 0.0
C205 C 0.60393 0.19984 0.57712 0.0
O206 O 0.63125 0.18811 0.55033 0.0
N207 N 0.71769 0.17355 0.59104 0.0
C208 C 0.77558 0.16701 0.54358 0.0
C209 C 0.73646 0.15565 0.56639 0.0
C210 C 0.74618 0.19568 0.58225 0.0
N211 N 0.78205 0.19217 0.55381 0.0
O212 O 0.70591 0.19673 0.6584 0.0
H213 H 0.72419 0.13532 0.56528 0.0
H214 H 0.74146 0.21402 0.59693 0.0
O215 O 0.61444 0.19383 0.61081 0.0
C216 C 0.75488 0.19038 0.6692 0.0
O217 O 0.7755 0.16765 0.65885 0.0
N218 N 0.635 0.13961 0.60999 0.0
C219 C 0.60028 0.09071 0.58412 0.0
C220 C 0.56936 0.11336 0.57593 0.0
C221 C 0.58668 0.13765 0.58995 0.0
C222 C 0.6636 0.11759 0.61981 0.0
C223 C 0.64732 0.093 0.607 0.0
H224 H 0.56055 0.15444 0.58498 0.0
H225 H 0.70043 0.11935 0.63703 0.0
H226 H 0.54111 0.1784 0.65946 0.0
H227 H 0.6022 0.14463 0.75769 0.0
H228 H 0.79948 0.15711 0.52236 0.0
H229 H 0.53177 0.11223 0.55928 0.0
H230 H 0.67234 0.07603 0.6141 0.0
C231 C 0.09345 0.85603 0.19853 0.0
C232 C 0.13621 0.85913 0.22352 0.0
N233 N 0.18161 0.8466 0.21043 0.0
N234 N 0.11178 0.8418 0.16962 0.0
C235 C 0.16579 0.83615 0.17768 0.0
H236 H 0.05183 0.86418 0.20075 0.0
Co237 Co 0.06666 0.83594 0.12866 0.0
C238 C 0.13238 0.80446 0.07489 0.0
O239 O 0.10518 0.81593 0.04783 0.0
N240 N 1.0181 0.83043 0.08739 0.0
C241 C 0.96248 0.83625 0.03851 0.0
C242 C 1.00128 0.8478 0.06136 0.0
C243 C 0.9886 0.80842 0.07941 0.0
N244 N 0.95415 0.81152 0.05008 0.0
O245 O 0.02943 0.80855 0.15574 0.0
H246 H 1.01497 0.86787 0.05906 0.0
H247 H 0.99164 0.79046 0.09518 0.0
O248 O 0.12163 0.81076 0.10845 0.0
C249 C 0.9807 0.81553 0.16623 0.0
O250 O 0.96122 0.83833 0.15528 0.0
N251 N 0.10032 0.86492 0.10569 0.0
C252 C 0.13519 0.91365 0.07938 0.0
C253 C 0.16653 0.89102 0.07191 0.0
C254 C 0.14914 0.86681 0.0862 0.0
C255 C 0.07105 0.88695 0.11458 0.0
C256 C 0.08744 0.91145 0.10156 0.0
H257 H 0.17565 0.85004 0.08196 0.0
H258 H 0.03374 0.88527 0.13132 0.0
H259 H 0.19359 0.82558 0.15938 0.0
H260 H 0.13433 0.87 0.24919 0.0
H261 H 0.94017 0.84577 1.0162 0.0
H262 H 0.20459 0.89212 0.05575 0.0
H263 H 0.0621 0.92843 0.10806 0.0
H264 H 0.36543 0.30505 0.38264 0.0
H265 H 0.36939 0.3051 0.16915 0.0
H266 H 0.21621 0.29188 0.31848 0.0
H267 H 0.51843 0.2915 0.23326 0.0
H268 H 0.31248 0.29244 0.2223 0.0
H269 H 0.42217 0.29226 0.32948 0.0
C270 C 0.34467 0.29864 0.35758 0.0
C271 C 0.28624 0.29965 0.3547 0.0
C272 C 0.3576 0.29143 0.22459 0.0
C273 C 0.35076 0.28593 0.2933 0.0
C274 C 0.39006 0.29861 0.1942 0.0
C275 C 0.4485 0.29946 0.19706 0.0
C276 C 0.38381 0.2859 0.25846 0.0
C277 C 0.47341 0.291 0.23002 0.0
C278 C 0.37704 0.29138 0.32718 0.0
C279 C 0.26123 0.29126 0.32173 0.0
N280 N 0.44087 0.28522 0.25983 0.0
N281 N 0.29369 0.28541 0.29193 0.0
H282 H 0.37039 0.69704 0.88103 0.0
H283 H 0.36558 0.69838 0.66719 0.0
H284 H 0.51934 0.71071 0.81693 0.0
H285 H 0.21676 0.71147 0.73165 0.0
H286 H 0.42269 0.71035 0.72063 0.0
H287 H 0.3134 0.70974 0.82789 0.0
C288 C 0.39103 0.70353 0.85598 0.0
C289 C 0.44948 0.70273 0.85314 0.0
C290 C 0.37758 0.71139 0.72294 0.0
C291 C 0.38467 0.71636 0.79176 0.0
C292 C 0.345 0.70461 0.69239 0.0
C293 C 0.28655 0.70385 0.69522 0.0
C294 C 0.35149 0.71662 0.75693 0.0
C295 C 0.26178 0.71194 0.7284 0.0
C296 C 0.35852 0.71074 0.8256 0.0
C297 C 0.47433 0.7112 0.82017 0.0
N298 N 0.29443 0.71735 0.75832 0.0
N299 N 0.44174 0.71702 0.79039 0.0
H300 H 0.98176 0.69983 0.7159 0.0
H301 H 0.73606 0.61609 0.8053 0.0
H302 H 1.0005 0.61845 0.7452 0.0
H303 H 0.75289 0.69832 0.83 0.0
H304 H 0.82658 0.61714 0.77376 0.0
H305 H 0.89071 0.70041 0.74815 0.0
C306 C 0.96643 0.6821 0.72888 0.0
C307 C 0.99853 0.65908 0.72808 0.0
C308 C 0.81062 0.63496 0.78614 0.0
C309 C 0.89511 0.6595 0.76444 0.0
C310 C 0.75899 0.63438 0.804 0.0
C311 C 0.73721 0.65714 0.82024 0.0
C312 C 0.84036 0.65863 0.78374 0.0
C313 C 0.76866 0.68034 0.81803 0.0
C314 C 0.91495 0.68249 0.74746 0.0
C315 C 0.97721 0.63664 0.74551 0.0
N316 N 0.81856 0.68059 0.79973 0.0
N317 N 0.92675 0.63735 0.7627 0.0
H318 H 0.7535 0.30355 0.21734 0.0
H319 H 1.00182 0.38687 0.30436 0.0
H320 H 0.73601 0.38503 0.24639 0.0
H321 H 0.98341 0.30497 0.33069 0.0
H322 H 0.91101 0.38593 0.2731 0.0
H323 H 0.84515 0.30287 0.24891 0.0
C324 C 0.76923 0.32128 0.23012 0.0
C325 C 0.73733 0.34436 0.22946 0.0
C326 C 0.92673 0.36816 0.28575 0.0
C327 C 0.84141 0.34383 0.265 0.0
C328 C 0.97852 0.36867 0.30345 0.0
C329 C 0.9999 0.34597 0.32009 0.0
C330 C 0.89644 0.34462 0.28393 0.0
C331 C 0.96796 0.32289 0.31839 0.0
C332 C 0.82105 0.32084 0.24831 0.0
C333 C 0.75916 0.36681 0.2466 0.0
N334 N 0.91791 0.32271 0.30026 0.0
N335 N 0.80995 0.36605 0.2634 0.0
H336 H 0.8652 0.80717 0.37977 0.0
H337 H 0.86915 0.80636 0.16599 0.0
H338 H 0.71598 0.79357 0.3158 0.0
H339 H 0.01821 0.79294 0.23017 0.0
H340 H 0.81224 0.79427 0.21941 0.0
H341 H 0.92197 0.79457 0.32652 0.0
C342 C 0.84446 0.80071 0.35473 0.0
C343 C 0.786 0.8015 0.35196 0.0
C344 C 0.85735 0.79318 0.22167 0.0
C345 C 0.85056 0.788 0.29045 0.0
C346 C 0.88983 0.80004 0.19112 0.0
C347 C 0.9483 0.80074 0.19387 0.0
C348 C 0.88358 0.78782 0.25558 0.0
C349 C 0.97318 0.79251 0.22697 0.0
C350 C 0.87685 0.79356 0.32428 0.0
C351 C 0.76101 0.79308 0.31899 0.0
N352 N 0.94064 0.78704 0.2569 0.0
N353 N 0.79348 0.78732 0.28914 0.0
H354 H 0.71351 0.21424 0.7311 0.0
H355 H 1.0181 0.2147 0.82161 0.0
H356 H 0.86655 0.19938 0.67184 0.0
H357 H 0.86535 0.199 0.8808 0.0
H358 H 0.96252 0.22719 0.76722 0.0
H359 H 0.76885 0.22674 0.78561 0.0
C360 C 0.75873 0.21464 0.72913 0.0
C361 C 0.78571 0.20557 0.69723 0.0
C362 C 0.94122 0.2218 0.79252 0.0
C363 C 0.84894 0.21952 0.75916 0.0
C364 C 0.97288 0.21492 0.8236 0.0
C365 C 0.94607 0.20561 0.85545 0.0
C366 C 0.88258 0.21953 0.79363 0.0
C367 C 0.88743 0.20586 0.85652 0.0
C368 C 0.79026 0.22153 0.76028 0.0
C369 C 0.84434 0.20605 0.69617 0.0
N370 N 0.85759 0.21234 0.82589 0.0
N371 N 0.87406 0.21254 0.72686 0.0
H372 H 0.28054 0.1651 0.87088 0.0
H373 H 0.45155 0.16571 0.68016 0.0
H374 H 0.20246 0.16736 0.76333 0.0
H375 H 0.52959 0.1659 0.78777 0.0
H376 H 0.35999 0.16814 0.71007 0.0
H377 H 0.37215 0.16721 0.84101 0.0
C378 C 0.28249 0.16624 0.84104 0.0
C379 C 0.23342 0.16583 0.81968 0.0
C380 C 0.3972 0.16772 0.72713 0.0
C381 C 0.33852 0.168 0.78516 0.0
C382 C 0.44961 0.16646 0.71002 0.0
C383 C 0.49863 0.16537 0.73138 0.0
C384 C 0.39359 0.16791 0.76593 0.0
C385 C 0.49314 0.16617 0.77008 0.0
C386 C 0.33493 0.16731 0.82395 0.0
C387 C 0.23892 0.16711 0.78101 0.0
N388 N 0.44173 0.1673 0.78604 0.0
N389 N 0.29036 0.16804 0.76505 0.0
H390 H 0.23391 0.88748 0.24242 0.0
H391 H 0.48225 0.80529 0.33123 0.0
H392 H 0.25313 0.80547 0.21715 0.0
H393 H 0.49923 0.88669 0.30157 0.0
H394 H 0.39108 0.8042 0.2991 0.0
H395 H 0.32473 0.887 0.27373 0.0
C396 C 0.25743 0.86936 0.24354 0.0
C397 C 0.23625 0.8465 0.22721 0.0
C398 C 0.41497 0.82224 0.29968 0.0
C399 C 0.33969 0.84565 0.26347 0.0
C400 C 0.46652 0.82291 0.31819 0.0
C401 C 0.49816 0.84609 0.31887 0.0
C402 C 0.39457 0.84509 0.28266 0.0
C403 C 0.47631 0.8684 0.30137 0.0
C404 C 0.30921 0.8691 0.26127 0.0
C405 C 0.26843 0.82352 0.22921 0.0
N406 N 0.42577 0.8674 0.28426 0.0
N407 N 0.31845 0.82357 0.24739 0.0
H408 H 0.07234 0.58063 0.50742 0.0
H409 H 0.06815 0.4251 0.53853 0.0
H410 H 0.09328 0.54382 0.61384 0.0
H411 H 0.09864 0.46164 0.43294 0.0
H412 H 0.05511 0.46863 0.56598 0.0
H413 H 0.0598 0.5372 0.47947 0.0
C414 C 0.07326 0.56343 0.52497 0.0
C415 C 0.08438 0.56574 0.5629 0.0
C416 C 0.06403 0.46708 0.53671 0.0
C417 C 0.07033 0.51615 0.53121 0.0
C418 C 0.07108 0.44227 0.52102 0.0
C419 C 0.08503 0.43982 0.48352 0.0
C420 C 0.07045 0.48955 0.51466 0.0
C421 C 0.08874 0.46271 0.4621 0.0
C422 C 0.06649 0.53868 0.509 0.0
C423 C 0.08556 0.54283 0.58438 0.0
N424 N 0.08181 0.48663 0.478 0.0
N425 N 0.07894 0.51898 0.56822 0.0
H426 H 0.66521 0.57901 0.04004 0.0
H427 H 0.66439 0.42331 1.01063 0.0
H428 H 0.63943 0.5417 0.93441 0.0
H429 H 0.63982 0.4606 0.11637 0.0
H430 H 0.67725 0.4666 0.98243 0.0
H431 H 0.67788 0.5357 0.06825 0.0
C432 C 0.66324 0.56172 1.0227 0.0
C433 C 0.65072 0.56388 0.98494 0.0
C434 C 0.66967 0.46527 1.01188 0.0
C435 C 0.6649 0.5144 1.01694 0.0
C436 C 0.66272 0.44059 0.028 0.0
C437 C 0.65049 0.43843 0.0658 0.0
C438 C 0.66486 0.4879 0.03379 0.0
C439 C 0.64837 0.46146 0.08702 0.0
C440 C 0.67008 0.53703 0.03882 0.0
C441 C 0.64822 0.54085 0.96374 0.0
N442 N 0.65516 0.48524 0.0707 0.0
N443 N 0.65493 0.51706 0.98006 0.0
H444 H 0.59407 0.04325 0.61923 0.0
H445 H 0.59493 0.96227 0.43205 0.0
H446 H 0.57381 0.07938 0.5123 0.0
H447 H 0.5732 0.926 0.53874 0.0
H448 H 0.58272 0.00531 0.4607 0.0
H449 H 0.58201 1.00016 0.5906 0.0
C450 C 0.58652 0.04209 0.58975 0.0
C451 C 0.5854 0.06488 0.56803 0.0
C452 C 0.57984 0.98795 0.47781 0.0
C453 C 0.57201 0.01565 0.53501 0.0
C454 C 0.58699 0.9634 0.46149 0.0
C455 C 0.58552 0.94059 0.48315 0.0
C456 C 0.57203 0.98977 0.5162 0.0
C457 C 0.5745 0.94311 0.52106 0.0
C458 C 0.57942 0.01751 0.57344 0.0
C459 C 0.57482 0.0623 0.53005 0.0
N460 N 0.56899 0.96729 0.5365 0.0
N461 N 0.56933 0.03811 0.51466 0.0
H462 H 0.1426 0.96077 0.11502 0.0
H463 H 0.13916 0.04313 0.92922 0.0
H464 H 0.1614 0.92524 1.00761 0.0
H465 H 0.16292 0.07839 0.03643 0.0
H466 H 0.15195 0.99981 0.95698 0.0
H467 H 0.15484 0.00399 0.08692 0.0
C468 C 0.14994 0.96211 0.08554 0.0
C469 C 0.15055 0.93946 0.06352 0.0
C470 C 0.15517 0.01702 0.97438 0.0
C471 C 0.16399 0.98884 0.03107 0.0
C472 C 0.14766 0.04173 0.95857 0.0
C473 C 0.1495 0.06434 0.98064 0.0
C474 C 0.16374 0.01486 1.01267 0.0
C475 C 0.16131 0.06146 1.01841 0.0
C476 C 0.15709 0.98676 0.06951 0.0
C477 C 0.16076 0.94223 0.02554 0.0
N478 N 0.16717 0.03715 0.03334 0.0
N479 N 0.16625 0.96651 1.01041 0.0
H480 H 0.33581 0.27453 0.45714 0.0
H481 H 0.53287 0.22706 0.62357 0.0
H482 H 0.32376 0.30688 0.567 0.0
H483 H 0.56409 0.21083 0.50827 0.0
H484 H 0.45093 0.25321 0.60546 0.0
H485 H 0.41304 0.24691 0.47775 0.0
C486 C 0.34885 0.27556 0.48576 0.0
C487 C 0.32322 0.29308 0.51037 0.0
C488 C 0.47594 0.24393 0.58422 0.0
C489 C 0.4125 0.26171 0.53413 0.0
C490 C 0.52272 0.22905 0.59453 0.0
C491 C 0.5556 0.21675 0.56743 0.0
C492 C 0.46173 0.24626 0.54663 0.0
C493 C 0.54024 0.21994 0.53021 0.0
C494 C 0.39341 0.25996 0.49745 0.0
C495 C 0.34272 0.29385 0.54703 0.0
N496 N 0.49449 0.23425 0.52099 0.0
N497 N 0.38622 0.27841 0.55782 0.0
H498 H 0.40003 0.72899 0.9558 0.0
H499 H 0.20292 0.77712 0.12174 0.0
H500 H 0.41046 0.69606 0.0654 0.0
H501 H 0.17261 0.79327 1.00629 0.0
H502 H 0.28456 0.75062 0.10391 0.0
H503 H 0.32338 0.75695 0.97639 0.0
C504 C 0.38675 0.72789 0.98436 0.0
C505 C 0.41175 0.71012 1.00889 0.0
C506 C 0.25981 0.75998 0.0826 0.0
C507 C 0.32312 0.74188 0.03263 0.0
C508 C 0.21321 0.77505 0.09274 0.0
C509 C 0.18067 0.78743 0.06552 0.0
C510 C 0.27415 0.75753 0.04504 0.0
C511 C 0.19617 0.78413 0.02834 0.0
C512 C 0.34253 0.74369 0.99604 0.0
C513 C 0.39196 0.70929 0.04548 0.0
N514 N 0.24172 0.76964 1.01929 0.0
N515 N 0.34879 0.72492 0.05627 0.0
H516 H 0.33643 0.73037 0.59207 0.0
H517 H 0.53201 0.77834 0.42518 0.0
H518 H 0.3243 0.6977 0.48239 0.0
H519 H 0.56337 0.79478 0.54044 0.0
H520 H 0.45051 0.75187 0.44344 0.0
H521 H 0.41314 0.75823 0.5712 0.0
C522 C 0.34936 0.72931 0.56344 0.0
C523 C 0.32385 0.71164 0.53896 0.0
C524 C 0.47545 0.76128 0.46462 0.0
C525 C 0.41253 0.74329 0.51488 0.0
C526 C 0.52197 0.77634 0.45423 0.0
C527 C 0.55477 0.78879 0.48127 0.0
C528 C 0.46144 0.75892 0.50224 0.0
C529 C 0.53959 0.78557 0.51852 0.0
C530 C 0.39361 0.74505 0.55159 0.0
C531 C 0.34319 0.71085 0.50227 0.0
N532 N 0.49411 0.77109 0.52781 0.0
N533 N 0.38639 0.72642 0.49132 0.0
H534 H 0.19907 0.22745 0.92841 0.0
H535 H 0.39805 0.27386 0.09454 0.0
H536 H 0.17043 0.20944 0.04348 0.0
H537 H 0.40782 0.30739 0.98529 0.0
H538 H 0.32092 0.24613 0.07388 0.0
H539 H 0.28076 0.25379 0.94658 0.0
C540 C 0.20974 0.22909 0.95742 0.0
C541 C 0.17765 0.21624 0.98442 0.0
C542 C 0.34003 0.25948 0.05432 0.0
C543 C 0.27124 0.24597 1.00529 0.0
C544 C 0.38452 0.27513 0.06604 0.0
C545 C 0.40949 0.293 0.04162 0.0
C546 C 0.32034 0.26152 1.01781 0.0
C547 C 0.38938 0.29408 1.00512 0.0
C548 C 0.25638 0.24407 0.96775 0.0
C549 C 0.19365 0.21898 1.02161 0.0
N550 N 0.34597 0.27858 0.9943 0.0
N551 N 0.23925 0.23342 0.03085 0.0
H552 H 0.03198 0.72772 0.6221 0.0
H553 H 0.83627 0.77561 0.45515 0.0
H554 H 0.0636 0.71165 0.5068 0.0
H555 H 0.82456 0.80857 0.56467 0.0
H556 H 0.91296 0.74779 0.47612 0.0
H557 H 0.95045 0.75418 0.60385 0.0
C558 C 0.02201 0.7298 0.59304 0.0
C559 C 0.05487 0.71745 0.56599 0.0
C560 C 0.89353 0.76103 0.49568 0.0
C561 C 0.96152 0.74729 0.54503 0.0
C562 C 0.84929 0.77674 0.48377 0.0
C563 C 0.82391 0.79448 0.50817 0.0
C564 C 0.91257 0.76288 0.53237 0.0
C565 C 0.84335 0.79536 0.54485 0.0
C566 C 0.97547 0.74485 0.58266 0.0
C567 C 0.03977 0.72076 0.52873 0.0
N568 N 0.88655 0.77981 0.55586 0.0
N569 N 0.99427 0.73522 0.51945 0.0
H570 H 0.66895 0.29336 1.00794 0.0
H571 H 0.90838 0.19323 0.06845 0.0
H572 H 0.70157 0.27574 0.1227 0.0
H573 H 0.89664 0.22849 0.96038 0.0
H574 H 0.83054 0.22095 0.08928 0.0
H575 H 0.74889 0.26688 0.99039 0.0
C576 C 0.6928 0.28385 0.02958 0.0
C577 C 0.67832 0.28687 0.06695 0.0
C578 C 0.84538 0.22273 0.06112 0.0
C579 C 0.77079 0.25628 0.04675 0.0
C580 C 0.88963 0.20688 0.04919 0.0
C581 C 0.90913 0.20855 1.01261 0.0
C582 C 0.81997 0.24011 0.03615 0.0
C583 C 0.8836 0.22673 0.9889 0.0
C584 C 0.73879 0.26877 1.01945 0.0
C585 C 0.71114 0.27396 0.09356 0.0
N586 N 0.84019 0.2416 1.00099 0.0
N587 N 0.75584 0.25914 0.08294 0.0
H588 H 0.03372 0.27616 0.42697 0.0
H589 H 0.83359 0.23067 0.59279 0.0
H590 H 0.05943 0.29581 0.54184 0.0
H591 H 0.82786 0.1945 0.48507 0.0
H592 H 0.90958 0.25876 0.57163 0.0
H593 H 0.95267 0.24931 0.44511 0.0
C594 C 0.02252 0.2748 0.45591 0.0
C595 C 0.05362 0.28824 0.48289 0.0
C596 C 0.89163 0.24475 0.55249 0.0
C597 C 0.96084 0.25794 0.50368 0.0
C598 C 0.84776 0.22887 0.56449 0.0
C599 C 0.82421 0.21017 0.54068 0.0
C600 C 0.91222 0.24211 0.5163 0.0
C601 C 0.8452 0.20846 0.50444 0.0
C602 C 0.97628 0.25951 0.46623 0.0
C603 C 0.03701 0.28581 0.51998 0.0
N604 N 0.88803 0.22421 0.49333 0.0
N605 N 0.99185 0.2711 0.52918 0.0
H606 H 0.67023 0.70942 0.04226 0.0
H607 H 0.91305 0.80744 0.98026 0.0
H608 H 0.70439 0.72581 0.92736 0.0
H609 H 0.89727 0.77522 0.08997 0.0
H610 H 0.83517 0.7796 0.95986 0.0
H611 H 0.75048 0.73578 0.05974 0.0
C612 C 0.69449 0.71863 1.02057 0.0
C613 C 0.68033 0.71531 0.98318 0.0
C614 C 0.84909 0.7785 0.9883 0.0
C615 C 0.77317 0.74576 1.00331 0.0
C616 C 0.89338 0.79442 1.0 0.0
C617 C 0.91173 0.79367 0.0369 0.0
C618 C 0.82247 0.76194 1.01382 0.0
C619 C 0.88508 0.77626 0.06121 0.0
C620 C 0.74066 0.73365 0.03067 0.0
C621 C 0.71368 0.72784 0.95651 0.0
N622 N 0.84163 0.76128 0.04931 0.0
N623 N 0.75855 0.74258 0.9671 0.0
loop_
_geom_bond_atom_site_label_1
_geom_bond_atom_site_label_2
_geom_bond_distance
_geom_bond_site_symmetry_2
_ccdc_geom_bond_type
C0 C1 1.351 . S
C0 N3 1.368 . S
C0 H5 0.931 . S
C1 C0 1.351 . S
C1 N2 1.373 . S
C1 H29 0.930 . S
N2 C1 1.373 . S
N2 C4 1.340 . S
N3 C0 1.368 . S
N3 C4 1.321 . S
N3 Co6 2.135 . S
C4 N2 1.340 . S
C4 N3 1.321 . S
C4 H28 0.930 . S
H5 C0 0.931 . S
Co6 N3 2.135 . S
Co6 N9 2.121 . S
Co6 O14 2.055 . S
Co6 O17 2.039 . S
Co6 N20 2.140 . S
C7 O8 1.227 . S
C7 O17 1.265 . S
O8 C7 1.227 . S
N9 Co6 2.121 . S
N9 C11 1.375 . S
N9 C12 1.313 . S
C10 C11 1.338 . S
C10 N13 1.377 . S
C10 H30 0.930 . S
C11 N9 1.375 . S
C11 C10 1.338 . S
C11 H15 0.931 . S
C12 N9 1.313 . S
C12 N13 1.344 . S
C12 H16 0.930 . S
N13 C10 1.377 . S
N13 C12 1.344 . S
O14 Co6 2.055 . S
O14 C18 1.253 . S
H15 C11 0.931 . S
H16 C12 0.930 . S
O17 Co6 2.039 . S
O17 C7 1.265 . S
C18 O14 1.253 . S
C18 O19 1.227 . S
O19 C18 1.227 . S
N20 Co6 2.140 . S
N20 C23 1.346 . S
N20 C24 1.345 . S
C21 C22 1.387 . S
C21 C25 1.391 . S
C22 C21 1.387 . S
C22 C23 1.369 . S
C22 H31 0.929 . S
C23 N20 1.346 . S
C23 C22 1.369 . S
C23 H26 0.928 . S
C24 N20 1.345 . S
C24 C25 1.371 . S
C24 H27 0.931 . S
C25 C21 1.391 . S
C25 C24 1.371 . S
C25 H32 0.930 . S
H26 C23 0.928 . S
H27 C24 0.931 . S
H28 C4 0.930 . S
H29 C1 0.930 . S
H30 C10 0.930 . S
H31 C22 0.929 . S
H32 C25 0.930 . S
C33 C34 1.351 . S
C33 N36 1.368 . S
C33 H38 0.931 . S
C34 C33 1.351 . S
C34 N35 1.373 . S
C34 H62 0.930 . S
N35 C34 1.373 . S
N35 C37 1.340 . S
N36 C33 1.368 . S
N36 C37 1.321 . S
N36 Co39 2.135 . S
C37 N35 1.340 . S
C37 N36 1.321 . S
C37 H61 0.930 . S
H38 C33 0.931 . S
Co39 N36 2.135 . S
Co39 N42 2.121 . S
Co39 O47 2.055 . S
Co39 O50 2.039 . S
Co39 N53 2.140 . S
C40 O41 1.227 . S
C40 O50 1.265 . S
O41 C40 1.227 . S
N42 Co39 2.121 . S
N42 C44 1.375 . S
N42 C45 1.313 . S
C43 C44 1.338 . S
C43 N46 1.377 . S
C43 H63 0.930 1_556 S
C44 N42 1.375 . S
C44 C43 1.338 . S
C44 H48 0.931 . S
C45 N42 1.313 . S
C45 N46 1.344 . S
C45 H49 0.930 . S
N46 C43 1.377 . S
N46 C45 1.344 . S
O47 Co39 2.055 . S
O47 C51 1.253 . S
H48 C44 0.931 . S
H49 C45 0.930 . S
O50 Co39 2.039 . S
O50 C40 1.265 . S
C51 O47 1.253 . S
C51 O52 1.227 . S
O52 C51 1.227 . S
N53 Co39 2.140 . S
N53 C56 1.346 . S
N53 C57 1.345 . S
C54 C55 1.387 . S
C54 C58 1.391 . S
C55 C54 1.387 . S
C55 C56 1.369 . S
C55 H64 0.929 . S
C56 N53 1.346 . S
C56 C55 1.369 . S
C56 H59 0.928 . S
C57 N53 1.345 . S
C57 C58 1.371 . S
C57 H60 0.931 . S
C58 C54 1.391 . S
C58 C57 1.371 . S
C58 H65 0.930 . S
H59 C56 0.928 . S
H60 C57 0.931 . S
H61 C37 0.930 . S
H62 C34 0.930 . S
H63 C43 0.930 1_554 S
H64 C55 0.929 . S
H65 C58 0.930 . S
C66 C67 1.351 . S
C66 N69 1.368 . S
C66 H71 0.931 . S
C67 C66 1.351 . S
C67 N68 1.373 . S
C67 H95 0.930 . S
N68 C67 1.373 . S
N68 C70 1.340 . S
N69 C66 1.368 . S
N69 C70 1.321 . S
N69 Co72 2.135 . S
C70 N68 1.340 . S
C70 N69 1.321 . S
C70 H94 0.930 . S
H71 C66 0.931 . S
Co72 N69 2.135 . S
Co72 N75 2.121 . S
Co72 O80 2.055 . S
Co72 O83 2.039 . S
Co72 N86 2.140 . S
C73 O74 1.227 . S
C73 O83 1.265 . S
O74 C73 1.227 . S
N75 Co72 2.121 . S
N75 C77 1.375 . S
N75 C78 1.313 . S
C76 C77 1.338 . S
C76 N79 1.377 . S
C76 H96 0.930 . S
C77 N75 1.375 . S
C77 C76 1.338 . S
C77 H81 0.931 . S
C78 N75 1.313 . S
C78 N79 1.344 . S
C78 H82 0.930 . S
N79 C76 1.377 . S
N79 C78 1.344 . S
O80 Co72 2.055 . S
O80 C84 1.253 . S
H81 C77 0.931 . S
H82 C78 0.930 . S
O83 Co72 2.039 . S
O83 C73 1.265 . S
C84 O80 1.253 . S
C84 O85 1.227 . S
O85 C84 1.227 . S
N86 Co72 2.140 . S
N86 C89 1.346 . S
N86 C90 1.345 . S
C87 C88 1.387 . S
C87 C91 1.391 . S
C88 C87 1.387 . S
C88 C89 1.369 . S
C88 H97 0.929 . S
C89 N86 1.346 . S
C89 C88 1.369 . S
C89 H92 0.928 . S
C90 N86 1.345 . S
C90 C91 1.371 . S
C90 H93 0.931 . S
C91 C87 1.391 . S
C91 C90 1.371 . S
C91 H98 0.930 . S
H92 C89 0.928 . S
H93 C90 0.931 . S
H94 C70 0.930 . S
H95 C67 0.930 . S
H96 C76 0.930 . S
H97 C88 0.929 . S
H98 C91 0.930 . S
C99 C100 1.351 . S
C99 N102 1.368 . S
C99 H104 0.931 . S
C100 C99 1.351 . S
C100 N101 1.373 . S
C100 H128 0.930 . S
N101 C100 1.373 . S
N101 C103 1.340 . S
N102 C99 1.368 . S
N102 C103 1.321 . S
N102 Co105 2.135 . S
C103 N101 1.340 . S
C103 N102 1.321 . S
C103 H127 0.930 . S
H104 C99 0.931 . S
Co105 N102 2.135 . S
Co105 N108 2.121 . S
Co105 O113 2.055 . S
Co105 O116 2.039 . S
Co105 N119 2.140 . S
C106 O107 1.227 . S
C106 O116 1.265 . S
O107 C106 1.227 . S
N108 Co105 2.121 . S
N108 C110 1.375 . S
N108 C111 1.313 . S
C109 C110 1.338 . S
C109 N112 1.377 . S
C109 H129 0.930 1_554 S
C110 N108 1.375 . S
C110 C109 1.338 . S
C110 H114 0.931 . S
C111 N108 1.313 . S
C111 N112 1.344 . S
C111 H115 0.930 . S
N112 C109 1.377 . S
N112 C111 1.344 . S
O113 Co105 2.055 . S
O113 C117 1.253 . S
H114 C110 0.931 . S
H115 C111 0.930 . S
O116 Co105 2.039 . S
O116 C106 1.265 . S
C117 O113 1.253 . S
C117 O118 1.227 . S
O118 C117 1.227 . S
N119 Co105 2.140 . S
N119 C122 1.346 . S
N119 C123 1.345 . S
C120 C121 1.387 . S
C120 C124 1.391 . S
C121 C120 1.387 . S
C121 C122 1.369 . S
C121 H130 0.929 . S
C122 N119 1.346 . S
C122 C121 1.369 . S
C122 H125 0.928 . S
C123 N119 1.345 . S
C123 C124 1.371 . S
C123 H126 0.931 . S
C124 C120 1.391 . S
C124 C123 1.371 . S
C124 H131 0.930 . S
H125 C122 0.928 . S
H126 C123 0.931 . S
H127 C103 0.930 . S
H128 C100 0.930 . S
H129 C109 0.930 1_556 S
H130 C121 0.929 . S
H131 C124 0.930 . S
C132 C133 1.351 . S
C132 N135 1.368 . S
C132 H137 0.931 . S
C133 C132 1.351 . S
C133 N134 1.373 . S
C133 H161 0.930 . S
N134 C133 1.373 . S
N134 C136 1.340 . S
N135 C132 1.368 . S
N135 C136 1.321 . S
N135 Co138 2.135 . S
C136 N134 1.340 . S
C136 N135 1.321 . S
C136 H160 0.930 . S
H137 C132 0.931 . S
Co138 N135 2.135 . S
Co138 N141 2.121 . S
Co138 O146 2.055 . S
Co138 O149 2.039 . S
Co138 N152 2.140 . S
C139 O140 1.227 . S
C139 O149 1.265 . S
O140 C139 1.227 . S
N141 Co138 2.121 . S
N141 C143 1.375 . S
N141 C144 1.313 . S
C142 C143 1.338 . S
C142 N145 1.377 . S
C142 H162 0.930 . S
C143 N141 1.375 . S
C143 C142 1.338 . S
C143 H147 0.931 . S
C144 N141 1.313 . S
C144 N145 1.344 . S
C144 H148 0.930 . S
N145 C142 1.377 . S
N145 C144 1.344 . S
O146 Co138 2.055 . S
O146 C150 1.253 . S
H147 C143 0.931 . S
H148 C144 0.930 . S
O149 Co138 2.039 . S
O149 C139 1.265 . S
C150 O146 1.253 . S
C150 O151 1.227 . S
O151 C150 1.227 . S
N152 Co138 2.140 . S
N152 C155 1.346 . S
N152 C156 1.345 . S
C153 C154 1.387 . S
C153 C157 1.391 . S
C154 C153 1.387 . S
C154 C155 1.369 . S
C154 H163 0.929 . S
C155 N152 1.346 . S
C155 C154 1.369 . S
C155 H158 0.928 . S
C156 N152 1.345 . S
C156 C157 1.371 . S
C156 H159 0.931 . S
C157 C153 1.391 . S
C157 C156 1.371 . S
C157 H164 0.930 . S
H158 C155 0.928 . S
H159 C156 0.931 . S
H160 C136 0.930 . S
H161 C133 0.930 . S
H162 C142 0.930 . S
H163 C154 0.929 . S
H164 C157 0.930 . S
C165 C166 1.351 . S
C165 N168 1.368 . S
C165 H170 0.931 . S
C166 C165 1.351 . S
C166 N167 1.373 . S
C166 H194 0.930 . S
N167 C166 1.373 . S
N167 C169 1.340 . S
N168 C165 1.368 . S
N168 C169 1.321 . S
N168 Co171 2.135 . S
C169 N167 1.340 . S
C169 N168 1.321 . S
C169 H193 0.930 . S
H170 C165 0.931 . S
Co171 N168 2.135 . S
Co171 N174 2.128 . S
Co171 O179 2.055 . S
Co171 O182 2.039 . S
Co171 N185 2.140 . S
C172 O173 1.227 . S
C172 O182 1.265 . S
O173 C172 1.227 . S
N174 Co171 2.128 . S
N174 C176 1.378 . S
N174 C177 1.303 1_455 S
C175 C176 1.338 1_655 S
C175 N178 1.377 . S
C175 H195 0.930 1_556 S
C176 N174 1.378 . S
C176 C175 1.338 1_455 S
C176 H180 0.931 . S
C177 N174 1.303 1_655 S
C177 N178 1.344 . S
C177 H181 0.930 . S
N178 C175 1.377 . S
N178 C177 1.344 . S
O179 Co171 2.055 . S
O179 C183 1.253 1_455 S
H180 C176 0.931 . S
H181 C177 0.930 . S
O182 Co171 2.039 . S
O182 C172 1.265 . S
C183 O179 1.253 1_655 S
C183 O184 1.227 . S
O184 C183 1.227 . S
N185 Co171 2.140 . S
N185 C188 1.346 . S
N185 C189 1.345 . S
C186 C187 1.387 . S
C186 C190 1.391 . S
C187 C186 1.387 . S
C187 C188 1.369 . S
C187 H196 0.929 . S
C188 N185 1.346 . S
C188 C187 1.369 . S
C188 H191 0.928 . S
C189 N185 1.345 . S
C189 C190 1.371 . S
C189 H192 0.931 1_455 S
C190 C186 1.391 . S
C190 C189 1.371 . S
C190 H197 0.930 1_455 S
H191 C188 0.928 . S
H192 C189 0.931 1_655 S
H193 C169 0.930 . S
H194 C166 0.930 . S
H195 C175 0.930 1_554 S
H196 C187 0.929 . S
H197 C190 0.930 1_655 S
C198 C199 1.351 . S
C198 N201 1.368 . S
C198 H203 0.931 . S
C199 C198 1.351 . S
C199 N200 1.373 . S
C199 H227 0.930 . S
N200 C199 1.373 . S
N200 C202 1.340 . S
N201 C198 1.368 . S
N201 C202 1.321 . S
N201 Co204 2.135 . S
C202 N200 1.340 . S
C202 N201 1.321 . S
C202 H226 0.930 . S
H203 C198 0.931 . S
Co204 N201 2.135 . S
Co204 N207 2.121 . S
Co204 O212 2.055 . S
Co204 O215 2.039 . S
Co204 N218 2.140 . S
C205 O206 1.227 . S
C205 O215 1.265 . S
O206 C205 1.227 . S
N207 Co204 2.121 . S
N207 C209 1.375 . S
N207 C210 1.313 . S
C208 C209 1.338 . S
C208 N211 1.377 . S
C208 H228 0.930 . S
C209 N207 1.375 . S
C209 C208 1.338 . S
C209 H213 0.931 . S
C210 N207 1.313 . S
C210 N211 1.344 . S
C210 H214 0.930 . S
N211 C208 1.377 . S
N211 C210 1.344 . S
O212 Co204 2.055 . S
O212 C216 1.253 . S
H213 C209 0.931 . S
H214 C210 0.930 . S
O215 Co204 2.039 . S
O215 C205 1.265 . S
C216 O212 1.253 . S
C216 O217 1.227 . S
O217 C216 1.227 . S
N218 Co204 2.140 . S
N218 C221 1.346 . S
N218 C222 1.345 . S
C219 C220 1.387 . S
C219 C223 1.391 . S
C220 C219 1.387 . S
C220 C221 1.369 . S
C220 H229 0.929 . S
C221 N218 1.346 . S
C221 C220 1.369 . S
C221 H224 0.928 . S
C222 N218 1.345 . S
C222 C223 1.371 . S
C222 H225 0.931 . S
C223 C219 1.391 . S
C223 C222 1.371 . S
C223 H230 0.930 . S
H224 C221 0.928 . S
H225 C222 0.931 . S
H226 C202 0.930 . S
H227 C199 0.930 . S
H228 C208 0.930 . S
H229 C220 0.929 . S
H230 C223 0.930 . S
C231 C232 1.351 . S
C231 N234 1.368 . S
C231 H236 0.931 . S
C232 C231 1.351 . S
C232 N233 1.373 . S
C232 H260 0.930 . S
N233 C232 1.373 . S
N233 C235 1.340 . S
N234 C231 1.368 . S
N234 C235 1.321 . S
N234 Co237 2.135 . S
C235 N233 1.340 . S
C235 N234 1.321 . S
C235 H259 0.930 . S
H236 C231 0.931 . S
Co237 N234 2.135 . S
Co237 N240 2.128 . S
Co237 O245 2.055 . S
Co237 O248 2.039 . S
Co237 N251 2.140 . S
C238 O239 1.227 . S
C238 O248 1.265 . S
O239 C238 1.227 . S
N240 Co237 2.128 . S
N240 C242 1.378 . S
N240 C243 1.303 1_455 S
C241 C242 1.338 1_655 S
C241 N244 1.377 . S
C241 H261 0.930 1_554 S
C242 N240 1.378 . S
C242 C241 1.338 1_455 S
C242 H246 0.931 . S
C243 N240 1.303 1_655 S
C243 N244 1.344 . S
C243 H247 0.930 . S
N244 C241 1.377 . S
N244 C243 1.344 . S
O245 Co237 2.055 . S
O245 C249 1.253 1_455 S
H246 C242 0.931 . S
H247 C243 0.930 . S
O248 Co237 2.039 . S
O248 C238 1.265 . S
C249 O245 1.253 1_655 S
C249 O250 1.227 . S
O250 C249 1.227 . S
N251 Co237 2.140 . S
N251 C254 1.346 . S
N251 C255 1.345 . S
C252 C253 1.387 . S
C252 C256 1.391 . S
C253 C252 1.387 . S
C253 C254 1.369 . S
C253 H262 0.929 . S
C254 N251 1.346 . S
C254 C253 1.369 . S
C254 H257 0.928 . S
C255 N251 1.345 . S
C255 C256 1.371 . S
C255 H258 0.931 1_455 S
C256 C252 1.391 . S
C256 C255 1.371 . S
C256 H263 0.930 1_455 S
H257 C254 0.928 . S
H258 C255 0.931 1_655 S
H259 C235 0.930 . S
H260 C232 0.930 . S
H261 C241 0.930 1_556 S
H262 C253 0.929 . S
H263 C256 0.930 1_655 S
H264 C270 0.930 . S
H265 C274 0.930 . S
H266 C279 0.929 . S
H267 C277 0.929 . S
H268 C272 0.929 . S
H269 C278 0.929 . S
C270 H264 0.930 . S
C270 C271 1.367 . S
C270 C278 1.378 . S
C271 C270 1.367 . S
C271 C279 1.433 . S
C272 H268 0.929 . S
C272 C274 1.378 . S
C272 C276 1.350 . S
C273 C276 1.463 . S
C273 C278 1.350 . S
C273 N281 1.427 . S
C274 H265 0.930 . S
C274 C272 1.378 . S
C274 C275 1.367 . S
C275 C274 1.367 . S
C275 C277 1.433 . S
C276 C272 1.350 . S
C276 C273 1.463 . S
C276 N280 1.427 . S
C277 H267 0.929 . S
C277 C275 1.433 . S
C277 N280 1.384 . S
C278 H269 0.929 . S
C278 C270 1.378 . S
C278 C273 1.350 . S
C279 H266 0.929 . S
C279 C271 1.433 . S
C279 N281 1.384 . S
N280 C276 1.427 . S
N280 C277 1.384 . S
N281 C273 1.427 . S
N281 C279 1.384 . S
H282 C288 0.930 . S
H283 C292 0.930 . S
H284 C297 0.929 . S
H285 C295 0.929 . S
H286 C290 0.929 . S
H287 C296 0.929 . S
C288 H282 0.930 . S
C288 C289 1.367 . S
C288 C296 1.378 . S
C289 C288 1.367 . S
C289 C297 1.433 . S
C290 H286 0.929 . S
C290 C292 1.378 . S
C290 C294 1.350 . S
C291 C294 1.463 . S
C291 C296 1.350 . S
C291 N299 1.427 . S
C292 H283 0.930 . S
C292 C290 1.378 . S
C292 C293 1.367 . S
C293 C292 1.367 . S
C293 C295 1.433 . S
C294 C290 1.350 . S
C294 C291 1.463 . S
C294 N298 1.427 . S
C295 H285 0.929 . S
C295 C293 1.433 . S
C295 N298 1.384 . S
C296 H287 0.929 . S
C296 C288 1.378 . S
C296 C291 1.350 . S
C297 H284 0.929 . S
C297 C289 1.433 . S
C297 N299 1.384 . S
N298 C294 1.427 . S
N298 C295 1.384 . S
N299 C291 1.427 . S
N299 C297 1.384 . S
H300 C306 0.930 . S
H301 C310 0.930 . S
H302 C315 0.929 . S
H303 C313 0.929 . S
H304 C308 0.929 . S
H305 C314 0.929 . S
C306 H300 0.930 . S
C306 C307 1.367 . S
C306 C314 1.378 . S
C307 C306 1.367 . S
C307 C315 1.433 . S
C308 H304 0.929 . S
C308 C310 1.378 . S
C308 C312 1.350 . S
C309 C312 1.463 . S
C309 C314 1.350 . S
C309 N317 1.427 . S
C310 H301 0.930 . S
C310 C308 1.378 . S
C310 C311 1.367 . S
C311 C310 1.367 . S
C311 C313 1.433 . S
C312 C308 1.350 . S
C312 C309 1.463 . S
C312 N316 1.427 . S
C313 H303 0.929 . S
C313 C311 1.433 . S
C313 N316 1.384 . S
C314 H305 0.929 . S
C314 C306 1.378 . S
C314 C309 1.350 . S
C315 H302 0.929 . S
C315 C307 1.433 . S
C315 N317 1.384 . S
N316 C312 1.427 . S
N316 C313 1.384 . S
N317 C309 1.427 . S
N317 C315 1.384 . S
H318 C324 0.930 . S
H319 C328 0.930 . S
H320 C333 0.929 . S
H321 C331 0.929 . S
H322 C326 0.929 . S
H323 C332 0.929 . S
C324 H318 0.930 . S
C324 C325 1.367 . S
C324 C332 1.378 . S
C325 C324 1.367 . S
C325 C333 1.433 . S
C326 H322 0.929 . S
C326 C328 1.378 . S
C326 C330 1.350 . S
C327 C330 1.463 . S
C327 C332 1.350 . S
C327 N335 1.427 . S
C328 H319 0.930 . S
C328 C326 1.378 . S
C328 C329 1.367 . S
C329 C328 1.367 . S
C329 C331 1.433 . S
C330 C326 1.350 . S
C330 C327 1.463 . S
C330 N334 1.427 . S
C331 H321 0.929 . S
C331 C329 1.433 . S
C331 N334 1.384 . S
C332 H323 0.929 . S
C332 C324 1.378 . S
C332 C327 1.350 . S
C333 H320 0.929 . S
C333 C325 1.433 . S
C333 N335 1.384 . S
N334 C330 1.427 . S
N334 C331 1.384 . S
N335 C327 1.427 . S
N335 C333 1.384 . S
H336 C342 0.930 . S
H337 C346 0.930 . S
H338 C351 0.929 . S
H339 C349 0.929 . S
H340 C344 0.929 . S
H341 C350 0.929 . S
C342 H336 0.930 . S
C342 C343 1.367 . S
C342 C350 1.378 . S
C343 C342 1.367 . S
C343 C351 1.433 . S
C344 H340 0.929 . S
C344 C346 1.378 . S
C344 C348 1.350 . S
C345 C348 1.463 . S
C345 C350 1.350 . S
C345 N353 1.427 . S
C346 H337 0.930 . S
C346 C344 1.378 . S
C346 C347 1.367 . S
C347 C346 1.367 . S
C347 C349 1.433 . S
C348 C344 1.350 . S
C348 C345 1.463 . S
C348 N352 1.427 . S
C349 H339 0.929 . S
C349 C347 1.433 . S
C349 N352 1.384 . S
C350 H341 0.929 . S
C350 C342 1.378 . S
C350 C345 1.350 . S
C351 H338 0.929 . S
C351 C343 1.433 . S
C351 N353 1.384 . S
N352 C348 1.427 . S
N352 C349 1.384 . S
N353 C345 1.427 . S
N353 C351 1.384 . S
H354 C360 0.930 . S
H355 C364 0.930 . S
H356 C369 0.929 . S
H357 C367 0.929 . S
H358 C362 0.929 . S
H359 C368 0.929 . S
C360 H354 0.930 . S
C360 C361 1.367 . S
C360 C368 1.378 . S
C361 C360 1.367 . S
C361 C369 1.433 . S
C362 H358 0.929 . S
C362 C364 1.378 . S
C362 C366 1.350 . S
C363 C366 1.463 . S
C363 C368 1.350 . S
C363 N371 1.427 . S
C364 H355 0.930 . S
C364 C362 1.378 . S
C364 C365 1.367 . S
C365 C364 1.367 . S
C365 C367 1.433 . S
C366 C362 1.350 . S
C366 C363 1.463 . S
C366 N370 1.427 . S
C367 H357 0.929 . S
C367 C365 1.433 . S
C367 N370 1.384 . S
C368 H359 0.929 . S
C368 C360 1.378 . S
C368 C363 1.350 . S
C369 H356 0.929 . S
C369 C361 1.433 . S
C369 N371 1.384 . S
N370 C366 1.427 . S
N370 C367 1.384 . S
N371 C363 1.427 . S
N371 C369 1.384 . S
H372 C378 0.930 . S
H373 C382 0.930 . S
H374 C387 0.929 . S
H375 C385 0.929 . S
H376 C380 0.929 . S
H377 C386 0.929 . S
C378 H372 0.930 . S
C378 C379 1.367 . S
C378 C386 1.378 . S
C379 C378 1.367 . S
C379 C387 1.433 . S
C380 H376 0.929 . S
C380 C382 1.378 . S
C380 C384 1.350 . S
C381 C384 1.463 . S
C381 C386 1.350 . S
C381 N389 1.427 . S
C382 H373 0.930 . S
C382 C380 1.378 . S
C382 C383 1.367 . S
C383 C382 1.367 . S
C383 C385 1.433 . S
C384 C380 1.350 . S
C384 C381 1.463 . S
C384 N388 1.427 . S
C385 H375 0.929 . S
C385 C383 1.433 . S
C385 N388 1.384 . S
C386 H377 0.929 . S
C386 C378 1.378 . S
C386 C381 1.350 . S
C387 H374 0.929 . S
C387 C379 1.433 . S
C387 N389 1.384 . S
N388 C384 1.427 . S
N388 C385 1.384 . S
N389 C381 1.427 . S
N389 C387 1.384 . S
H390 C396 0.930 . S
H391 C400 0.930 . S
H392 C405 0.929 . S
H393 C403 0.929 . S
H394 C398 0.929 . S
H395 C404 0.929 . S
C396 H390 0.930 . S
C396 C397 1.367 . S
C396 C404 1.378 . S
C397 C396 1.367 . S
C397 C405 1.433 . S
C398 H394 0.929 . S
C398 C400 1.378 . S
C398 C402 1.350 . S
C399 C402 1.463 . S
C399 C404 1.350 . S
C399 N407 1.427 . S
C400 H391 0.930 . S
C400 C398 1.378 . S
C400 C401 1.367 . S
C401 C400 1.367 . S
C401 C403 1.433 . S
C402 C398 1.350 . S
C402 C399 1.463 . S
C402 N406 1.427 . S
C403 H393 0.929 . S
C403 C401 1.433 . S
C403 N406 1.384 . S
C404 H395 0.929 . S
C404 C396 1.378 . S
C404 C399 1.350 . S
C405 H392 0.929 . S
C405 C397 1.433 . S
C405 N407 1.384 . S
N406 C402 1.427 . S
N406 C403 1.384 . S
N407 C399 1.427 . S
N407 C405 1.384 . S
H408 C414 0.930 . S
H409 C418 0.930 . S
H410 C423 0.929 . S
H411 C421 0.929 . S
H412 C416 0.929 . S
H413 C422 0.929 . S
C414 H408 0.930 . S
C414 C415 1.367 . S
C414 C422 1.378 . S
C415 C414 1.367 . S
C415 C423 1.433 . S
C416 H412 0.929 . S
C416 C418 1.378 . S
C416 C420 1.350 . S
C417 C420 1.463 . S
C417 C422 1.350 . S
C417 N425 1.427 . S
C418 H409 0.930 . S
C418 C416 1.378 . S
C418 C419 1.367 . S
C419 C418 1.367 . S
C419 C421 1.433 . S
C420 C416 1.350 . S
C420 C417 1.463 . S
C420 N424 1.427 . S
C421 H411 0.929 . S
C421 C419 1.433 . S
C421 N424 1.384 . S
C422 H413 0.929 . S
C422 C414 1.378 . S
C422 C417 1.350 . S
C423 H410 0.929 . S
C423 C415 1.433 . S
C423 N425 1.384 . S
N424 C420 1.427 . S
N424 C421 1.384 . S
N425 C417 1.427 . S
N425 C423 1.384 . S
H426 C432 0.930 . S
H427 C436 0.930 . S
H428 C441 0.929 . S
H429 C439 0.929 . S
H430 C434 0.929 . S
H431 C440 0.929 . S
C432 H426 0.930 . S
C432 C433 1.367 . S
C432 C440 1.378 1_556 S
C433 C432 1.367 . S
C433 C441 1.433 . S
C434 H430 0.929 . S
C434 C436 1.378 1_556 S
C434 C438 1.350 1_556 S
C435 C438 1.463 1_556 S
C435 C440 1.350 1_556 S
C435 N443 1.427 . S
C436 H427 0.930 . S
C436 C434 1.378 1_554 S
C436 C437 1.367 . S
C437 C436 1.367 . S
C437 C439 1.433 . S
C438 C434 1.350 1_554 S
C438 C435 1.463 1_554 S
C438 N442 1.427 . S
C439 H429 0.929 . S
C439 C437 1.433 . S
C439 N442 1.384 . S
C440 H431 0.929 . S
C440 C432 1.378 1_554 S
C440 C435 1.350 1_554 S
C441 H428 0.929 . S
C441 C433 1.433 . S
C441 N443 1.384 . S
N442 C438 1.427 . S
N442 C439 1.384 . S
N443 C435 1.427 . S
N443 C441 1.384 . S
H444 C450 0.930 . S
H445 C454 0.930 . S
H446 C459 0.929 . S
H447 C457 0.929 . S
H448 C452 0.929 . S
H449 C458 0.929 . S
C450 H444 0.930 . S
C450 C451 1.367 . S
C450 C458 1.378 . S
C451 C450 1.367 . S
C451 C459 1.433 . S
C452 H448 0.929 . S
C452 C454 1.378 . S
C452 C456 1.350 . S
C453 C456 1.463 1_545 S
C453 C458 1.350 . S
C453 N461 1.427 . S
C454 H445 0.930 . S
C454 C452 1.378 . S
C454 C455 1.367 . S
C455 C454 1.367 . S
C455 C457 1.433 . S
C456 C452 1.350 . S
C456 C453 1.463 1_565 S
C456 N460 1.427 . S
C457 H447 0.929 . S
C457 C455 1.433 . S
C457 N460 1.384 . S
C458 H449 0.929 . S
C458 C450 1.378 . S
C458 C453 1.350 . S
C459 H446 0.929 . S
C459 C451 1.433 . S
C459 N461 1.384 . S
N460 C456 1.427 . S
N460 C457 1.384 . S
N461 C453 1.427 . S
N461 C459 1.384 . S
H462 C468 0.930 . S
H463 C472 0.930 . S
H464 C477 0.922 1_556 S
H465 C475 0.922 1_554 S
H466 C470 0.929 . S
H467 C476 0.929 . S
C468 H462 0.930 . S
C468 C469 1.367 . S
C468 C476 1.378 . S
C469 C468 1.367 . S
C469 C477 1.447 . S
C470 H466 0.929 . S
C470 C472 1.378 . S
C470 C474 1.350 . S
C471 C474 1.463 1_564 S
C471 C476 1.350 . S
C471 N479 1.427 1_554 S
C472 H463 0.930 . S
C472 C470 1.378 . S
C472 C473 1.367 . S
C473 C472 1.367 . S
C473 C475 1.447 . S
C474 C470 1.350 . S
C474 C471 1.463 1_546 S
C474 N478 1.427 1_556 S
C475 H465 0.922 1_556 S
C475 C473 1.447 . S
C475 N478 1.378 1_556 S
C476 H467 0.929 . S
C476 C468 1.378 . S
C476 C471 1.350 . S
C477 H464 0.922 1_554 S
C477 C469 1.447 . S
C477 N479 1.378 1_554 S
N478 C474 1.427 1_554 S
N478 C475 1.378 1_554 S
N479 C471 1.427 1_556 S
N479 C477 1.378 1_556 S
H480 C486 0.930 . S
H481 C490 0.930 . S
H482 C495 0.929 . S
H483 C493 0.929 . S
H484 C488 0.929 . S
H485 C494 0.929 . S
C486 H480 0.930 . S
C486 C487 1.367 . S
C486 C494 1.378 . S
C487 C486 1.367 . S
C487 C495 1.433 . S
C488 H484 0.929 . S
C488 C490 1.378 . S
C488 C492 1.350 . S
C489 C492 1.463 . S
C489 C494 1.350 . S
C489 N497 1.427 . S
C490 H481 0.930 . S
C490 C488 1.378 . S
C490 C491 1.367 . S
C491 C490 1.367 . S
C491 C493 1.433 . S
C492 C488 1.350 . S
C492 C489 1.463 . S
C492 N496 1.427 . S
C493 H483 0.929 . S
C493 C491 1.433 . S
C493 N496 1.384 . S
C494 H485 0.929 . S
C494 C486 1.378 . S
C494 C489 1.350 . S
C495 H482 0.929 . S
C495 C487 1.433 . S
C495 N497 1.384 . S
N496 C492 1.427 . S
N496 C493 1.384 . S
N497 C489 1.427 . S
N497 C495 1.384 . S
H498 C504 0.930 . S
H499 C508 0.930 . S
H500 C513 0.929 . S
H501 C511 0.929 . S
H502 C506 0.929 . S
H503 C512 0.929 . S
C504 H498 0.930 . S
C504 C505 1.367 . S
C504 C512 1.378 . S
C505 C504 1.367 . S
C505 C513 1.433 1_556 S
C506 H502 0.929 . S
C506 C508 1.378 . S
C506 C510 1.350 . S
C507 C510 1.463 . S
C507 C512 1.350 1_554 S
C507 N515 1.427 . S
C508 H499 0.930 . S
C508 C506 1.378 . S
C508 C509 1.367 . S
C509 C508 1.367 . S
C509 C511 1.433 . S
C510 C506 1.350 . S
C510 C507 1.463 . S
C510 N514 1.427 . S
C511 H501 0.929 . S
C511 C509 1.433 . S
C511 N514 1.384 . S
C512 H503 0.929 . S
C512 C504 1.378 . S
C512 C507 1.350 1_556 S
C513 H500 0.929 . S
C513 C505 1.433 1_554 S
C513 N515 1.384 . S
N514 C510 1.427 . S
N514 C511 1.384 . S
N515 C507 1.427 . S
N515 C513 1.384 . S
H516 C522 0.930 . S
H517 C526 0.930 . S
H518 C531 0.929 . S
H519 C529 0.929 . S
H520 C524 0.929 . S
H521 C530 0.929 . S
C522 H516 0.930 . S
C522 C523 1.367 . S
C522 C530 1.378 . S
C523 C522 1.367 . S
C523 C531 1.433 . S
C524 H520 0.929 . S
C524 C526 1.378 . S
C524 C528 1.350 . S
C525 C528 1.463 . S
C525 C530 1.350 . S
C525 N533 1.427 . S
C526 H517 0.930 . S
C526 C524 1.378 . S
C526 C527 1.367 . S
C527 C526 1.367 . S
C527 C529 1.433 . S
C528 C524 1.350 . S
C528 C525 1.463 . S
C528 N532 1.427 . S
C529 H519 0.929 . S
C529 C527 1.433 . S
C529 N532 1.384 . S
C530 H521 0.929 . S
C530 C522 1.378 . S
C530 C525 1.350 . S
C531 H518 0.929 . S
C531 C523 1.433 . S
C531 N533 1.384 . S
N532 C528 1.427 . S
N532 C529 1.384 . S
N533 C525 1.427 . S
N533 C531 1.384 . S
H534 C540 0.930 . S
H535 C544 0.930 . S
H536 C549 0.929 . S
H537 C547 0.929 . S
H538 C542 0.929 . S
H539 C548 0.929 . S
C540 H534 0.930 . S
C540 C541 1.367 . S
C540 C548 1.378 . S
C541 C540 1.367 . S
C541 C549 1.433 . S
C542 H538 0.929 . S
C542 C544 1.378 . S
C542 C546 1.350 1_554 S
C543 C546 1.463 . S
C543 C548 1.350 . S
C543 N551 1.427 . S
C544 H535 0.930 . S
C544 C542 1.378 . S
C544 C545 1.367 . S
C545 C544 1.367 . S
C545 C547 1.433 1_554 S
C546 C542 1.350 1_556 S
C546 C543 1.463 . S
C546 N550 1.427 . S
C547 H537 0.929 . S
C547 C545 1.433 1_556 S
C547 N550 1.384 . S
C548 H539 0.929 . S
C548 C540 1.378 . S
C548 C543 1.350 . S
C549 H536 0.929 . S
C549 C541 1.433 . S
C549 N551 1.384 . S
N550 C546 1.427 . S
N550 C547 1.384 . S
N551 C543 1.427 . S
N551 C549 1.384 . S
H552 C558 0.930 . S
H553 C562 0.930 . S
H554 C567 0.929 . S
H555 C565 0.929 . S
H556 C560 0.929 . S
H557 C566 0.929 . S
C558 H552 0.930 . S
C558 C559 1.367 1_655 S
C558 C566 1.378 . S
C559 C558 1.367 1_455 S
C559 C567 1.433 . S
C560 H556 0.929 . S
C560 C562 1.378 . S
C560 C564 1.350 . S
C561 C564 1.463 . S
C561 C566 1.350 . S
C561 N569 1.427 . S
C562 H553 0.930 . S
C562 C560 1.378 . S
C562 C563 1.367 . S
C563 C562 1.367 . S
C563 C565 1.433 . S
C564 C560 1.350 . S
C564 C561 1.463 . S
C564 N568 1.427 . S
C565 H555 0.929 . S
C565 C563 1.433 . S
C565 N568 1.384 . S
C566 H557 0.929 . S
C566 C558 1.378 . S
C566 C561 1.350 . S
C567 H554 0.929 . S
C567 C559 1.433 . S
C567 N569 1.384 1_455 S
N568 C564 1.427 . S
N568 C565 1.384 . S
N569 C561 1.427 . S
N569 C567 1.384 1_655 S
H570 C576 0.930 . S
H571 C580 0.930 . S
H572 C585 0.929 . S
H573 C583 0.929 . S
H574 C578 0.929 . S
H575 C584 0.929 1_556 S
C576 H570 0.930 . S
C576 C577 1.367 . S
C576 C584 1.378 . S
C577 C576 1.367 . S
C577 C585 1.433 . S
C578 H574 0.929 . S
C578 C580 1.378 . S
C578 C582 1.350 . S
C579 C582 1.463 . S
C579 C584 1.350 . S
C579 N587 1.427 . S
C580 H571 0.930 . S
C580 C578 1.378 . S
C580 C581 1.367 1_554 S
C581 C580 1.367 1_556 S
C581 C583 1.433 . S
C582 C578 1.350 . S
C582 C579 1.463 . S
C582 N586 1.427 1_554 S
C583 H573 0.929 . S
C583 C581 1.433 . S
C583 N586 1.384 . S
C584 H575 0.929 1_554 S
C584 C576 1.378 . S
C584 C579 1.350 . S
C585 H572 0.929 . S
C585 C577 1.433 . S
C585 N587 1.384 . S
N586 C582 1.427 1_556 S
N586 C583 1.384 . S
N587 C579 1.427 . S
N587 C585 1.384 . S
H588 C594 0.930 1_455 S
H589 C598 0.930 . S
H590 C603 0.929 . S
H591 C601 0.929 . S
H592 C596 0.929 . S
H593 C602 0.929 . S
C594 H588 0.930 1_655 S
C594 C595 1.367 1_655 S
C594 C602 1.378 . S
C595 C594 1.367 1_455 S
C595 C603 1.433 . S
C596 H592 0.929 . S
C596 C598 1.378 . S
C596 C600 1.350 . S
C597 C600 1.463 . S
C597 C602 1.350 . S
C597 N605 1.427 . S
C598 H589 0.930 . S
C598 C596 1.378 . S
C598 C599 1.367 . S
C599 C598 1.367 . S
C599 C601 1.433 . S
C600 C596 1.350 . S
C600 C597 1.463 . S
C600 N604 1.427 . S
C601 H591 0.929 . S
C601 C599 1.433 . S
C601 N604 1.384 . S
C602 H593 0.929 . S
C602 C594 1.378 . S
C602 C597 1.350 . S
C603 H590 0.929 . S
C603 C595 1.433 . S
C603 N605 1.384 1_455 S
N604 C600 1.427 . S
N604 C601 1.384 . S
N605 C597 1.427 . S
N605 C603 1.384 1_655 S
H606 C612 0.930 . S
H607 C616 0.930 . S
H608 C621 0.929 . S
H609 C619 0.929 . S
H610 C614 0.929 . S
H611 C620 0.929 1_554 S
C612 H606 0.930 . S
C612 C613 1.367 . S
C612 C620 1.378 . S
C613 C612 1.367 . S
C613 C621 1.433 . S
C614 H610 0.929 . S
C614 C616 1.378 . S
C614 C618 1.350 . S
C615 C618 1.463 . S
C615 C620 1.350 . S
C615 N623 1.427 . S
C616 H607 0.930 . S
C616 C614 1.378 . S
C616 C617 1.367 1_556 S
C617 C616 1.367 1_554 S
C617 C619 1.433 . S
C618 C614 1.350 . S
C618 C615 1.463 . S
C618 N622 1.427 1_556 S
C619 H609 0.929 . S
C619 C617 1.433 . S
C619 N622 1.384 . S
C620 H611 0.929 1_556 S
C620 C612 1.378 . S
C620 C615 1.350 . S
C621 H608 0.929 . S
C621 C613 1.433 . S
C621 N623 1.384 . S
N622 C618 1.427 1_554 S
N622 C619 1.384 . S
N623 C615 1.427 . S
N623 C621 1.384 . S
C271 C18 1.323 . S
C275 C117 1.329 . S
C289 C51 1.324 . S
C293 C84 1.326 . S
C307 N68 1.573 1_655 S
C311 N35 1.577 . S
C325 N101 1.574 . S
C329 N2 1.578 1_655 S
C343 C150 1.323 . S
C347 C249 1.328 . S
C361 C216 1.330 . S
C365 C183 1.323 . S
C379 N167 1.578 . S
C383 N200 1.580 . S
C397 N233 1.579 . S
C401 N134 1.575 . S
C415 C87 1.500 . S
C419 C21 1.501 . S
C433 C54 1.500 . S
C437 C120 1.501 . S
C451 C219 1.500 . S
C455 C153 1.500 . S
C469 C252 1.500 . S
C473 C186 1.499 . S
C487 N13 1.454 . S
C491 C205 1.479 . S
C505 N46 1.453 . S
C509 C238 1.480 . S
C523 N79 1.455 . S
C527 C139 1.479 . S
C541 C172 1.484 . S
C545 N112 1.446 . S
C559 C73 1.480 . S
C563 N145 1.453 . S
C577 C106 1.479 . S
C581 N178 1.447 . S
C595 C7 1.483 . S
C599 N211 1.448 . S
C613 C40 1.483 . S
C617 N244 1.442 . S
