# Generated by pormake.
# Topology cbo, (4)-cn, num edge types: 1
# Building blocks:
#     Node 0, Type 0, BuildingBlock: CEKHIL_clean_sbu_0, # of connection points: 4
#     Node 1, Type 0, BuildingBlock: CEKHIL_clean_sbu_0, # of connection points: 4
#     Node 2, Type 0, BuildingBlock: CEKHIL_clean_sbu_0, # of connection points: 4
#     Node 3, Type 0, BuildingBlock: CEKHIL_clean_sbu_0, # of connection points: 4
#     Node 4, Type 0, BuildingBlock: CEKHIL_clean_sbu_0, # of connection points: 4
#     Node 5, Type 0, BuildingBlock: CEKHIL_clean_sbu_0, # of connection points: 4
#     Node 6, Type 0, BuildingBlock: CEKHIL_clean_sbu_0, # of connection points: 4
#     Node 7, Type 0, BuildingBlock: CEKHIL_clean_sbu_0, # of connection points: 4
#     Node 8, Type 0, BuildingBlock: CEKHIL_clean_sbu_0, # of connection points: 4
#     Node 9, Type 0, BuildingBlock: CEKHIL_clean_sbu_0, # of connection points: 4
#     Node 10, Type 0, BuildingBlock: CEKHIL_clean_sbu_0, # of connection points: 4
#     Node 11, Type 0, BuildingBlock: CEKHIL_clean_sbu_0, # of connection points: 4
#     Node 12, Type 0, BuildingBlock: CEKHIL_clean_sbu_0, # of connection points: 4
#     Node 13, Type 0, BuildingBlock: CEKHIL_clean_sbu_0, # of connection points: 4
#     Node 14, Type 0, BuildingBlock: CEKHIL_clean_sbu_0, # of connection points: 4
#     Node 15, Type 0, BuildingBlock: CEKHIL_clean_sbu_0, # of connection points: 4
#     Node 16, Type 0, BuildingBlock: CEKHIL_clean_sbu_0, # of connection points: 4
#     Node 17, Type 0, BuildingBlock: CEKHIL_clean_sbu_0, # of connection points: 4
#     Node 18, Type 0, BuildingBlock: CEKHIL_clean_sbu_0, # of connection points: 4
#     Node 19, Type 0, BuildingBlock: CEKHIL_clean_sbu_0, # of connection points: 4
#     Node 20, Type 0, BuildingBlock: CEKHIL_clean_sbu_0, # of connection points: 4
#     Node 21, Type 0, BuildingBlock: CEKHIL_clean_sbu_0, # of connection points: 4
#     Node 22, Type 0, BuildingBlock: CEKHIL_clean_sbu_0, # of connection points: 4
#     Node 23, Type 0, BuildingBlock: CEKHIL_clean_sbu_0, # of connection points: 4
#     Edge 24, Type (0, 0), BuildingBlock: EZIPEK_clean_linker_0, # of connection points: 2
#     Edge 25, Type (0, 0), BuildingBlock: EZIPEK_clean_linker_0, # of connection points: 2
#     Edge 26, Type (0, 0), BuildingBlock: EZIPEK_clean_linker_0, # of connection points: 2
#     Edge 27, Type (0, 0), BuildingBlock: EZIPEK_clean_linker_0, # of connection points: 2
#     Edge 28, Type (0, 0), BuildingBlock: EZIPEK_clean_linker_0, # of connection points: 2
#     Edge 29, Type (0, 0), BuildingBlock: EZIPEK_clean_linker_0, # of connection points: 2
#     Edge 30, Type (0, 0), BuildingBlock: EZIPEK_clean_linker_0, # of connection points: 2
#     Edge 31, Type (0, 0), BuildingBlock: EZIPEK_clean_linker_0, # of connection points: 2
#     Edge 32, Type (0, 0), BuildingBlock: EZIPEK_clean_linker_0, # of connection points: 2
#     Edge 33, Type (0, 0), BuildingBlock: EZIPEK_clean_linker_0, # of connection points: 2
#     Edge 34, Type (0, 0), BuildingBlock: EZIPEK_clean_linker_0, # of connection points: 2
#     Edge 35, Type (0, 0), BuildingBlock: EZIPEK_clean_linker_0, # of connection points: 2
#     Edge 36, Type (0, 0), BuildingBlock: EZIPEK_clean_linker_0, # of connection points: 2
#     Edge 37, Type (0, 0), BuildingBlock: EZIPEK_clean_linker_0, # of connection points: 2
#     Edge 38, Type (0, 0), BuildingBlock: EZIPEK_clean_linker_0, # of connection points: 2
#     Edge 39, Type (0, 0), BuildingBlock: EZIPEK_clean_linker_0, # of connection points: 2
#     Edge 40, Type (0, 0), BuildingBlock: EZIPEK_clean_linker_0, # of connection points: 2
#     Edge 41, Type (0, 0), BuildingBlock: EZIPEK_clean_linker_0, # of connection points: 2
#     Edge 42, Type (0, 0), BuildingBlock: EZIPEK_clean_linker_0, # of connection points: 2
#     Edge 43, Type (0, 0), BuildingBlock: EZIPEK_clean_linker_0, # of connection points: 2
#     Edge 44, Type (0, 0), BuildingBlock: EZIPEK_clean_linker_0, # of connection points: 2
#     Edge 45, Type (0, 0), BuildingBlock: EZIPEK_clean_linker_0, # of connection points: 2
#     Edge 46, Type (0, 0), BuildingBlock: EZIPEK_clean_linker_0, # of connection points: 2
#     Edge 47, Type (0, 0), BuildingBlock: EZIPEK_clean_linker_0, # of connection points: 2
#     Edge 48, Type (0, 0), BuildingBlock: EZIPEK_clean_linker_0, # of connection points: 2
#     Edge 49, Type (0, 0), BuildingBlock: EZIPEK_clean_linker_0, # of connection points: 2
#     Edge 50, Type (0, 0), BuildingBlock: EZIPEK_clean_linker_0, # of connection points: 2
#     Edge 51, Type (0, 0), BuildingBlock: EZIPEK_clean_linker_0, # of connection points: 2
#     Edge 52, Type (0, 0), BuildingBlock: EZIPEK_clean_linker_0, # of connection points: 2
#     Edge 53, Type (0, 0), BuildingBlock: EZIPEK_clean_linker_0, # of connection points: 2
#     Edge 54, Type (0, 0), BuildingBlock: EZIPEK_clean_linker_0, # of connection points: 2
#     Edge 55, Type (0, 0), BuildingBlock: EZIPEK_clean_linker_0, # of connection points: 2
#     Edge 56, Type (0, 0), BuildingBlock: EZIPEK_clean_linker_0, # of connection points: 2
#     Edge 57, Type (0, 0), BuildingBlock: EZIPEK_clean_linker_0, # of connection points: 2
#     Edge 58, Type (0, 0), BuildingBlock: EZIPEK_clean_linker_0, # of connection points: 2
#     Edge 59, Type (0, 0), BuildingBlock: EZIPEK_clean_linker_0, # of connection points: 2
#     Edge 60, Type (0, 0), BuildingBlock: EZIPEK_clean_linker_0, # of connection points: 2
#     Edge 61, Type (0, 0), BuildingBlock: EZIPEK_clean_linker_0, # of connection points: 2
#     Edge 62, Type (0, 0), BuildingBlock: EZIPEK_clean_linker_0, # of connection points: 2
#     Edge 63, Type (0, 0), BuildingBlock: EZIPEK_clean_linker_0, # of connection points: 2
#     Edge 64, Type (0, 0), BuildingBlock: EZIPEK_clean_linker_0, # of connection points: 2
#     Edge 65, Type (0, 0), BuildingBlock: EZIPEK_clean_linker_0, # of connection points: 2
#     Edge 66, Type (0, 0), BuildingBlock: EZIPEK_clean_linker_0, # of connection points: 2
#     Edge 67, Type (0, 0), BuildingBlock: EZIPEK_clean_linker_0, # of connection points: 2
#     Edge 68, Type (0, 0), BuildingBlock: EZIPEK_clean_linker_0, # of connection points: 2
#     Edge 69, Type (0, 0), BuildingBlock: EZIPEK_clean_linker_0, # of connection points: 2
#     Edge 70, Type (0, 0), BuildingBlock: EZIPEK_clean_linker_0, # of connection points: 2
#     Edge 71, Type (0, 0), BuildingBlock: EZIPEK_clean_linker_0, # of connection points: 2
# Relax obj value: 0.196
# Max RMSD: 0.205
# Mean RMSD: 0.197
data_MOF--net-cbo--node1-CEKHIL_clean_sbu_0--edge1-EZIPEK_clean_linker_0
_symmetry_space_group_name_H-M    P1
_symmetry_Int_Tables_number       1
_symmetry_cell_setting            triclinic
loop_
_symmetry_equiv_pos_as_xyz
'x, y, z'
_cell_length_a     38.068307
_cell_length_b     37.562883
_cell_length_c     36.982879
_cell_angle_alpha  90.065214
_cell_angle_beta   90.016697
_cell_angle_gamma 89.987728
loop_
_atom_site_label
_atom_site_type_symbol
_atom_site_fract_x
_atom_site_fract_y
_atom_site_fract_z
_atom_type_partial_charge
Co0 Co 0.08876 0.18398 0.32345 0.0
O1 O 0.03911 0.18475 0.33319 0.0
O2 O 0.06985 0.13671 0.31791 0.0
C3 C 0.08849 0.23317 0.28791 0.0
O4 O 0.13921 0.17224 0.30902 0.0
Co5 Co 0.1391 0.24452 0.34612 0.0
O6 O 0.17712 0.21386 0.32756 0.0
C7 C 0.10899 0.19704 0.40126 0.0
C8 C 0.03977 0.15089 0.32607 0.0
C9 C 0.17069 0.18434 0.31208 0.0
O10 O 0.09796 0.17556 0.37661 0.0
O11 O 0.12336 0.22701 0.39425 0.0
O12 O 0.0804 0.20203 0.27487 0.0
O13 O 0.09506 0.23347 0.3221 0.0
Co14 Co 0.4084 0.82935 0.81898 0.0
O15 O 0.45663 0.8196 0.83127 0.0
O16 O 0.43427 0.87332 0.82086 0.0
C17 C 0.40202 0.78644 0.77675 0.0
O18 O 0.3612 0.85049 0.80426 0.0
Co19 Co 0.34867 0.7741 0.83165 0.0
O20 O 0.31966 0.80805 0.80347 0.0
C21 C 0.37908 0.81304 0.89336 0.0
C22 C 0.46132 0.85376 0.8287 0.0
C23 C 0.32985 0.83978 0.79733 0.0
O24 O 0.39613 0.83356 0.87179 0.0
O25 O 0.36092 0.78627 0.8829 0.0
O26 O 0.41764 0.81616 0.76873 0.0
O27 O 0.39455 0.78213 0.81052 0.0
Co28 Co 0.60585 0.29212 0.67104 0.0
O29 O 0.55757 0.28285 0.65907 0.0
O30 O 0.57774 0.33446 0.67907 0.0
C31 C 0.61461 0.24094 0.70239 0.0
O32 O 0.65344 0.31131 0.68835 0.0
Co33 Co 0.66515 0.24362 0.64226 0.0
O34 O 0.6971 0.27765 0.66615 0.0
C35 C 0.62883 0.29091 0.59262 0.0
C36 C 0.5511 0.31559 0.66818 0.0
C37 C 0.68639 0.30412 0.68464 0.0
O38 O 0.61502 0.30756 0.61951 0.0
O39 O 0.64667 0.26234 0.59574 0.0
O40 O 0.59988 0.26838 0.71764 0.0
O41 O 0.62099 0.24464 0.66836 0.0
Co42 Co 0.8975 0.68249 0.16388 0.0
O43 O 0.94512 0.69844 0.15779 0.0
O44 O 0.92842 0.64194 0.15909 0.0
C45 C 0.88304 0.71909 0.20987 0.0
O46 O 0.85142 0.65569 0.17163 0.0
Co47 Co 0.83415 0.73296 0.15038 0.0
O48 O 0.80709 0.695 0.17473 0.0
C49 C 0.87115 0.70115 0.08827 0.0
C50 C 0.95373 0.665 0.1562 0.0
C51 C 0.81907 0.6635 0.17801 0.0
O52 O 0.89054 0.683 0.1099 0.0
O53 O 0.84827 0.72379 0.09902 0.0
O54 O 0.90102 0.69028 0.21594 0.0
O55 O 0.87814 0.72682 0.17618 0.0
Co56 Co 0.32023 0.10753 0.19146 0.0
O57 O 0.33459 0.0591 0.19947 0.0
O58 O 0.31716 0.08119 0.14673 0.0
C59 C 0.28456 0.1121 0.2407 0.0
O60 O 0.30124 0.15488 0.17296 0.0
Co61 Co 0.339 0.16732 0.24521 0.0
O62 O 0.30679 0.19703 0.21595 0.0
C63 C 0.39398 0.13545 0.20098 0.0
C64 C 0.32777 0.05399 0.16544 0.0
C65 C 0.29556 0.18637 0.18541 0.0
O66 O 0.37042 0.12173 0.18026 0.0
O67 O 0.38668 0.14995 0.23134 0.0
O68 O 0.27372 0.097 0.2111 0.0
O69 O 0.3174 0.12083 0.24044 0.0
Co70 Co 0.17629 0.89205 0.66703 0.0
O71 O 0.16102 0.94016 0.67183 0.0
O72 O 0.17114 0.91339 0.61945 0.0
C73 C 0.21909 0.89362 0.70911 0.0
O74 O 0.1946 0.84252 0.65328 0.0
Co75 Co 0.16458 0.84253 0.73382 0.0
O76 O 0.18689 0.80706 0.70173 0.0
C77 C 0.10455 0.86279 0.68929 0.0
C78 C 0.16223 0.94215 0.63686 0.0
C79 C 0.19787 0.81229 0.6696 0.0
O80 O 0.12565 0.87574 0.66554 0.0
O81 O 0.11459 0.85138 0.72017 0.0
O82 O 0.22429 0.90684 0.67716 0.0
O83 O 0.18681 0.88524 0.71578 0.0
Co84 Co 0.8301 0.39173 0.80881 0.0
O85 O 0.8394 0.4412 0.79933 0.0
O86 O 0.82512 0.41873 0.85288 0.0
C87 C 0.79441 0.38251 0.7602 0.0
O88 O 0.81581 0.34352 0.82943 0.0
Co89 Co 0.85317 0.33146 0.7578 0.0
O90 O 0.82086 0.30145 0.78647 0.0
C91 C 0.90626 0.36821 0.80113 0.0
C92 C 0.83279 0.44638 0.83341 0.0
C93 C 0.81037 0.31191 0.8173 0.0
O94 O 0.88175 0.3836 0.81934 0.0
O95 O 0.90041 0.34875 0.77342 0.0
O96 O 0.78263 0.39706 0.7897 0.0
O97 O 0.82794 0.37655 0.76017 0.0
Co98 Co 0.67313 0.60363 0.31526 0.0
O99 O 0.66336 0.55477 0.30388 0.0
O100 O 0.67125 0.57629 0.35929 0.0
C101 C 0.71576 0.60982 0.27258 0.0
O102 O 0.68583 0.65126 0.33777 0.0
Co103 Co 0.6616 0.66441 0.26023 0.0
O104 O 0.69058 0.69275 0.2943 0.0
C105 C 0.60077 0.63362 0.29889 0.0
C106 C 0.66623 0.54898 0.33836 0.0
C107 C 0.69491 0.68236 0.32675 0.0
O108 O 0.62148 0.61464 0.31842 0.0
O109 O 0.61128 0.65325 0.27273 0.0
O110 O 0.72199 0.59546 0.30364 0.0
O111 O 0.68307 0.61808 0.26746 0.0
Co112 Co 0.16865 0.33692 0.10597 0.0
O113 O 0.18049 0.34068 0.05558 0.0
O114 O 0.12633 0.34131 0.07796 0.0
C115 C 0.20485 0.29074 0.11855 0.0
O116 O 0.14514 0.33192 0.15491 0.0
Co117 Co 0.22178 0.34837 0.16815 0.0
O118 O 0.18675 0.32006 0.19579 0.0
C119 C 0.19148 0.41059 0.13043 0.0
C120 C 0.14678 0.34132 0.04989 0.0
C121 C 0.15473 0.31979 0.18572 0.0
O122 O 0.17124 0.39012 0.11192 0.0
O123 O 0.21458 0.3992 0.1528 0.0
O124 O 0.17464 0.2853 0.10319 0.0
O125 O 0.21354 0.3238 0.12276 0.0
Co126 Co 0.68182 0.16533 0.89666 0.0
O127 O 0.68289 0.16298 0.94835 0.0
O128 O 0.63439 0.16303 0.91477 0.0
C129 C 0.72028 0.2099 0.88839 0.0
O130 O 0.67056 0.16938 0.84326 0.0
Co131 Co 0.748 0.14599 0.85191 0.0
O132 O 0.71693 0.154 0.80962 0.0
C133 C 0.70763 0.08928 0.88584 0.0
C134 C 0.6488 0.16265 0.94662 0.0
C135 C 0.68542 0.16485 0.81236 0.0
O136 O 0.68338 0.11175 0.89368 0.0
O137 O 0.73719 0.09801 0.87215 0.0
O138 O 0.68824 0.21675 0.89823 0.0
O139 O 0.72935 0.1767 0.88958 0.0
Co140 Co 0.81338 0.83104 0.39691 0.0
O141 O 0.81119 0.84513 0.44676 0.0
O142 O 0.86029 0.83433 0.41627 0.0
C143 C 0.77051 0.78922 0.40114 0.0
O144 O 0.82654 0.81371 0.34663 0.0
Co145 Co 0.75011 0.83916 0.34441 0.0
O146 O 0.77779 0.80687 0.31286 0.0
C147 C 0.79137 0.90213 0.36639 0.0
C148 C 0.84517 0.84196 0.44679 0.0
C149 C 0.81056 0.80262 0.31816 0.0
O150 O 0.81458 0.8822 0.38144 0.0
O151 O 0.76282 0.89047 0.35244 0.0
O152 O 0.80267 0.78224 0.4106 0.0
O153 O 0.76534 0.8218 0.3913 0.0
Co154 Co 0.32266 0.65742 0.60415 0.0
O155 O 0.31217 0.64424 0.55477 0.0
O156 O 0.36408 0.66221 0.57504 0.0
C157 C 0.27464 0.69261 0.61236 0.0
O158 O 0.34445 0.6769 0.65051 0.0
Co159 Co 0.27816 0.63804 0.66981 0.0
O160 O 0.3069 0.67269 0.69702 0.0
C161 C 0.32027 0.58253 0.63567 0.0
C162 C 0.34446 0.65336 0.54783 0.0
C163 C 0.33515 0.68416 0.68309 0.0
O164 O 0.33555 0.60638 0.61625 0.0
O165 O 0.29486 0.58935 0.6571 0.0
O166 O 0.30217 0.70403 0.59526 0.0
O167 O 0.27568 0.6593 0.62165 0.0
Co168 Co 0.8989 0.82438 0.67037 0.0
O169 O 0.94592 0.80878 0.65922 0.0
O170 O 0.93141 0.86295 0.6778 0.0
C171 C 0.88522 0.7757 0.70402 0.0
O172 O 0.85532 0.85078 0.68773 0.0
Co173 Co 0.83285 0.78646 0.6463 0.0
O174 O 0.80892 0.81456 0.68424 0.0
C175 C 0.87318 0.8262 0.59298 0.0
C176 C 0.95586 0.84048 0.66887 0.0
C177 C 0.82397 0.84203 0.69677 0.0
O178 O 0.89189 0.83953 0.6185 0.0
O179 O 0.84994 0.80226 0.59804 0.0
O180 O 0.90231 0.80244 0.71759 0.0
O181 O 0.87819 0.77799 0.66973 0.0
Co182 Co 0.59582 0.18289 0.16973 0.0
O183 O 0.54789 0.1938 0.15954 0.0
O184 O 0.56676 0.14074 0.17665 0.0
C185 C 0.60707 0.22864 0.20679 0.0
O186 O 0.6448 0.16466 0.18414 0.0
Co187 Co 0.65081 0.23624 0.14012 0.0
O188 O 0.68494 0.20207 0.16034 0.0
C189 C 0.61526 0.1889 0.09014 0.0
C190 C 0.54035 0.16159 0.16914 0.0
C191 C 0.67681 0.17586 0.18042 0.0
O192 O 0.60324 0.17104 0.11702 0.0
O193 O 0.63137 0.2185 0.09356 0.0
O194 O 0.59069 0.20084 0.21859 0.0
O195 O 0.61073 0.23047 0.17196 0.0
Co196 Co 0.39922 0.67976 0.32241 0.0
O197 O 0.44813 0.68912 0.33111 0.0
O198 O 0.42612 0.63631 0.31681 0.0
C199 C 0.39274 0.72759 0.28518 0.0
O200 O 0.35121 0.65956 0.30928 0.0
Co201 Co 0.34127 0.73012 0.34388 0.0
O202 O 0.31038 0.70182 0.3123 0.0
C203 C 0.37252 0.68508 0.39956 0.0
C204 C 0.45357 0.65594 0.32327 0.0
C205 C 0.31967 0.67037 0.30396 0.0
O206 O 0.39139 0.66953 0.37543 0.0
O207 O 0.35255 0.71155 0.39288 0.0
O208 O 0.40381 0.69706 0.27337 0.0
O209 O 0.38663 0.72891 0.31965 0.0
Co210 Co 0.10332 0.31681 0.82258 0.0
O211 O 0.05376 0.3122 0.83021 0.0
O212 O 0.0806 0.36254 0.81563 0.0
C213 C 0.10927 0.26861 0.78677 0.0
O214 O 0.15385 0.33048 0.81053 0.0
Co215 Co 0.15294 0.26049 0.85292 0.0
O216 O 0.19048 0.29521 0.84122 0.0
C217 C 0.12115 0.31021 0.90264 0.0
C218 C 0.05142 0.34574 0.82249 0.0
C219 C 0.18511 0.32103 0.81987 0.0
O220 O 0.11008 0.32831 0.87551 0.0
O221 O 0.13545 0.27967 0.89963 0.0
O222 O 0.09858 0.29874 0.77367 0.0
O223 O 0.11233 0.26719 0.82165 0.0
Co224 Co 0.66407 0.86945 0.85136 0.0
O225 O 0.61935 0.8697 0.8756 0.0
O226 O 0.62798 0.88542 0.81889 0.0
C227 C 0.6857 0.81621 0.86626 0.0
O228 O 0.70591 0.87098 0.81705 0.0
Co229 Co 0.7315 0.87183 0.89844 0.0
O230 O 0.75459 0.8776 0.85077 0.0
C231 C 0.69256 0.93704 0.88887 0.0
C232 C 0.60616 0.88198 0.84565 0.0
C233 C 0.73945 0.87426 0.82023 0.0
O234 O 0.67257 0.9205 0.8664 0.0
O235 O 0.71605 0.92162 0.90782 0.0
O236 O 0.66064 0.81841 0.84262 0.0
O237 O 0.69 0.84445 0.886 0.0
Co238 Co 0.84152 0.12117 0.33316 0.0
O239 O 0.88394 0.11593 0.36076 0.0
O240 O 0.87975 0.10697 0.30206 0.0
C241 C 0.82537 0.17429 0.35734 0.0
O242 O 0.80286 0.12523 0.29517 0.0
Co243 Co 0.76881 0.12305 0.37151 0.0
O244 O 0.7511 0.13577 0.3228 0.0
C245 C 0.80502 0.0546 0.36082 0.0
C246 C 0.89943 0.10705 0.33081 0.0
C247 C 0.7698 0.13246 0.29444 0.0
O248 O 0.82911 0.07002 0.34227 0.0
O249 O 0.78019 0.07118 0.37698 0.0
O250 O 0.84823 0.17255 0.33141 0.0
O251 O 0.81546 0.14366 0.36962 0.0
Co252 Co 0.16207 0.63637 0.14767 0.0
O253 O 0.12195 0.64188 0.11629 0.0
O254 O 0.11943 0.62964 0.17481 0.0
C255 C 0.19239 0.68538 0.13121 0.0
O256 O 0.19695 0.62954 0.18884 0.0
Co257 Co 0.23727 0.62469 0.11593 0.0
O258 O 0.25147 0.63526 0.16642 0.0
C259 C 0.1888 0.56372 0.12251 0.0
C260 C 0.10285 0.63675 0.14495 0.0
C261 C 0.23035 0.6324 0.19304 0.0
O262 O 0.16496 0.58382 0.13648 0.0
O263 O 0.21829 0.5752 0.1107 0.0
O264 O 0.16577 0.68807 0.15292 0.0
O265 O 0.19608 0.65461 0.11597 0.0
Co266 Co 0.34411 0.3571 0.66663 0.0
O267 O 0.38335 0.34951 0.63447 0.0
O268 O 0.38751 0.3592 0.69325 0.0
C269 C 0.30971 0.31117 0.64853 0.0
O270 O 0.31093 0.36516 0.70901 0.0
Co271 Co 0.26978 0.37681 0.63818 0.0
O272 O 0.25553 0.37171 0.68946 0.0
C273 C 0.3248 0.43191 0.64114 0.0
C274 C 0.40329 0.35239 0.66289 0.0
C275 C 0.27793 0.36931 0.71496 0.0
O276 O 0.346 0.40997 0.65659 0.0
O277 O 0.29445 0.42306 0.62929 0.0
O278 O 0.33602 0.30579 0.67018 0.0
O279 O 0.30796 0.34282 0.63484 0.0
Co280 Co 0.84379 0.65248 0.86641 0.0
O281 O 0.86802 0.60756 0.86703 0.0
O282 O 0.81179 0.61536 0.8808 0.0
C283 C 0.86463 0.66925 0.81134 0.0
O284 O 0.80916 0.69336 0.86686 0.0
Co285 Co 0.88455 0.72428 0.86326 0.0
O286 O 0.83698 0.74557 0.85808 0.0
C287 C 0.87732 0.68623 0.93259 0.0
C288 C 0.83769 0.59363 0.87459 0.0
C289 C 0.80916 0.72727 0.86277 0.0
O290 O 0.85652 0.6632 0.91815 0.0
O291 O 0.89449 0.70941 0.91438 0.0
O292 O 0.8379 0.64813 0.81432 0.0
O293 O 0.87908 0.67767 0.8418 0.0
Co294 Co 0.34955 0.84918 0.12025 0.0
O295 O 0.37238 0.89485 0.12316 0.0
O296 O 0.31565 0.88642 0.11228 0.0
C297 C 0.3751 0.82802 0.17145 0.0
O298 O 0.31568 0.80744 0.1176 0.0
Co299 Co 0.39017 0.77804 0.11303 0.0
O300 O 0.34433 0.75542 0.12381 0.0
C301 C 0.37724 0.82263 0.04829 0.0
C302 C 0.34128 0.90837 0.11875 0.0
C303 C 0.31614 0.77347 0.12141 0.0
O304 O 0.35966 0.84533 0.06706 0.0
O305 O 0.39289 0.79556 0.06183 0.0
O306 O 0.34707 0.84766 0.17256 0.0
O307 O 0.38728 0.82268 0.13927 0.0
Co308 Co 0.14848 0.14946 0.62014 0.0
O309 O 0.11918 0.10824 0.61556 0.0
O310 O 0.1764 0.1088 0.60542 0.0
C311 C 0.12797 0.16576 0.67539 0.0
O312 O 0.18663 0.18756 0.6232 0.0
Co313 Co 0.11187 0.22336 0.62414 0.0
O314 O 0.16058 0.24089 0.63237 0.0
C315 C 0.1133 0.18324 0.55615 0.0
C316 C 0.14752 0.09045 0.60866 0.0
C317 C 0.18784 0.22141 0.62897 0.0
O318 O 0.13781 0.16326 0.5688 0.0
O319 O 0.09522 0.20418 0.57618 0.0
O320 O 0.15239 0.14198 0.67216 0.0
O321 O 0.11506 0.17647 0.64498 0.0
Co322 Co 0.67331 0.34197 0.37346 0.0
O323 O 0.64419 0.38312 0.36703 0.0
O324 O 0.69949 0.38369 0.38656 0.0
C325 C 0.6597 0.31759 0.31981 0.0
O326 O 0.71236 0.30564 0.38182 0.0
Co327 Co 0.64214 0.26617 0.37641 0.0
O328 O 0.69156 0.2502 0.37395 0.0
C329 C 0.64062 0.31144 0.4417 0.0
C330 C 0.6716 0.40124 0.37682 0.0
C331 C 0.71685 0.27182 0.37894 0.0
O332 O 0.65628 0.33654 0.42456 0.0
O333 O 0.6313 0.2821 0.42692 0.0
O334 O 0.68385 0.34181 0.32185 0.0
O335 O 0.64299 0.31042 0.34937 0.0
C336 C 0.10185 0.28094 0.2006 0.0
C337 C 0.12788 0.30614 0.21144 0.0
C338 C 0.11399 0.29474 0.27517 0.0
C339 C 0.09395 0.26477 0.26397 0.0
N340 N 0.05248 0.24469 0.21953 0.0
N341 N 0.14748 0.34707 0.25728 0.0
C342 C 0.08262 0.26274 0.22768 0.0
C343 C 0.13047 0.3162 0.24838 0.0
N344 N 0.09651 0.27268 0.16502 0.0
N345 N 0.11644 0.30317 0.31099 0.0
H346 H 0.1575 0.36433 0.23773 0.0
H347 H 0.14928 0.3573 0.28334 0.0
H348 H 0.09843 0.29391 0.32997 0.0
H349 H 0.13484 0.32073 0.32168 0.0
H350 H 0.0817 0.25083 0.1567 0.0
H351 H 0.10813 0.28588 0.14349 0.0
H352 H 0.04096 0.24476 0.19398 0.0
H353 H 0.03654 0.23374 0.23961 0.0
C354 C 0.39603 0.72374 0.75434 0.0
C355 C 0.38964 0.76063 0.74897 0.0
C356 C 0.35369 0.74662 0.69568 0.0
C357 C 0.35626 0.70991 0.70411 0.0
N358 N 0.37808 0.66286 0.74214 0.0
N359 N 0.35997 0.80722 0.71575 0.0
C360 C 0.37701 0.69824 0.73361 0.0
C361 C 0.36836 0.77212 0.71959 0.0
N362 N 0.42129 0.71322 0.77834 0.0
N363 N 0.33681 0.75731 0.6649 0.0
H364 H 0.37114 0.82727 0.7311 0.0
H365 H 0.34008 0.81637 0.69886 0.0
H366 H 0.32314 0.73997 0.64815 0.0
H367 H 0.33829 0.78303 0.65452 0.0
H368 H 0.42959 0.68696 0.78119 0.0
H369 H 0.43656 0.73127 0.79295 0.0
H370 H 0.38925 0.65302 0.76581 0.0
H371 H 0.36591 0.64333 0.72642 0.0
C372 C 0.66045 0.19496 0.71643 0.0
C373 C 0.62736 0.21004 0.72401 0.0
C374 C 0.62794 0.17742 0.78103 0.0
C375 C 0.66532 0.17515 0.7791 0.0
N376 N 0.71759 0.18662 0.74171 0.0
N377 N 0.57597 0.20957 0.76204 0.0
C378 C 0.68196 0.18474 0.74576 0.0
C379 C 0.60988 0.19948 0.75599 0.0
N380 N 0.67081 0.18897 0.68173 0.0
N381 N 0.60964 0.15708 0.80513 0.0
H382 H 0.56076 0.22204 0.74228 0.0
H383 H 0.56347 0.20601 0.78686 0.0
H384 H 0.62165 0.13736 0.82067 0.0
H385 H 0.58229 0.15627 0.8059 0.0
H386 H 0.69444 0.17634 0.6754 0.0
H387 H 0.65313 0.19074 0.66028 0.0
H388 H 0.72917 0.19463 0.7175 0.0
H389 H 0.73571 0.18519 0.7626 0.0
C390 C 0.86921 0.77814 0.23862 0.0
C391 C 0.8667 0.74037 0.23941 0.0
C392 C 0.83221 0.74419 0.29538 0.0
C393 C 0.83077 0.78163 0.29159 0.0
N394 N 0.84481 0.83469 0.25814 0.0
N395 N 0.84124 0.68757 0.26638 0.0
C396 C 0.84838 0.79877 0.26275 0.0
C397 C 0.84725 0.72337 0.26737 0.0
N398 N 0.89282 0.79425 0.2161 0.0
N399 N 0.81964 0.72847 0.32609 0.0
H400 H 0.85161 0.67074 0.24688 0.0
H401 H 0.82325 0.67496 0.28323 0.0
H402 H 0.80785 0.74282 0.34691 0.0
H403 H 0.82373 0.70178 0.33243 0.0
H404 H 0.89825 0.82141 0.2168 0.0
H405 H 0.9098 0.78003 0.19932 0.0
H406 H 0.85372 0.84815 0.23531 0.0
H407 H 0.83061 0.85069 0.27599 0.0
C408 C 0.22678 0.10738 0.27472 0.0
C409 C 0.25897 0.12535 0.26829 0.0
C410 C 0.23293 0.18069 0.28815 0.0
C411 C 0.20091 0.16328 0.29719 0.0
N412 N 0.17443 0.10609 0.31175 0.0
N413 N 0.29512 0.17208 0.29312 0.0
C414 C 0.19959 0.12532 0.29412 0.0
C415 C 0.26311 0.15984 0.28259 0.0
N416 N 0.22261 0.07295 0.26378 0.0
N417 N 0.23482 0.21656 0.28273 0.0
H418 H 0.31646 0.15488 0.29584 0.0
H419 H 0.29837 0.19723 0.3047 0.0
H420 H 0.2127 0.23277 0.28066 0.0
H421 H 0.25818 0.22887 0.27485 0.0
H422 H 0.19834 0.0601 0.26394 0.0
H423 H 0.2434 0.05769 0.25388 0.0
H424 H 0.17415 0.07835 0.31207 0.0
H425 H 0.15698 0.11728 0.33021 0.0
C426 C 0.31144 0.8782 0.74552 0.0
C427 C 0.30425 0.8644 0.78019 0.0
C428 C 0.24292 0.88253 0.77218 0.0
C429 C 0.24868 0.8854 0.73422 0.0
N430 N 0.29011 0.87599 0.68474 0.0
N431 N 0.26244 0.85568 0.82828 0.0
C432 C 0.28346 0.88095 0.7207 0.0
C433 C 0.26965 0.86722 0.79411 0.0
N434 N 0.34449 0.88833 0.73589 0.0
N435 N 0.21312 0.8959 0.78764 0.0
H436 H 0.2821 0.84733 0.84603 0.0
H437 H 0.23695 0.85325 0.83825 0.0
H438 H 0.19464 0.91067 0.77328 0.0
H439 H 0.20911 0.89648 0.8155 0.0
H440 H 0.34981 0.9004 0.71108 0.0
H441 H 0.36542 0.88853 0.75402 0.0
H442 H 0.31539 0.87153 0.67485 0.0
H443 H 0.27068 0.87049 0.66576 0.0
C444 C 0.73636 0.3838 0.72608 0.0
C445 C 0.76956 0.36764 0.7326 0.0
C446 C 0.74643 0.31109 0.71227 0.0
C447 C 0.7138 0.32682 0.70255 0.0
N448 N 0.68319 0.38221 0.69005 0.0
N449 N 0.80833 0.32224 0.70937 0.0
C450 C 0.71004 0.36446 0.70661 0.0
C451 C 0.77553 0.33327 0.71866 0.0
N452 N 0.73036 0.41793 0.73714 0.0
N453 N 0.74972 0.27528 0.71721 0.0
H454 H 0.82904 0.34024 0.70703 0.0
H455 H 0.81298 0.29717 0.69813 0.0
H456 H 0.72808 0.25831 0.71779 0.0
H457 H 0.77322 0.26377 0.72588 0.0
H458 H 0.70544 0.42944 0.73722 0.0
H459 H 0.75034 0.43435 0.74689 0.0
H460 H 0.68117 0.40987 0.68997 0.0
H461 H 0.6654 0.36999 0.67264 0.0
C462 C 0.80518 0.61692 0.22418 0.0
C463 C 0.79482 0.63633 0.19339 0.0
C464 C 0.73391 0.6213 0.20773 0.0
C465 C 0.74378 0.61472 0.24436 0.0
N466 N 0.79307 0.60843 0.287 0.0
N467 N 0.7485 0.65193 0.15209 0.0
C468 C 0.7806 0.61246 0.25257 0.0
C469 C 0.75881 0.63688 0.18393 0.0
N470 N 0.83821 0.60303 0.22668 0.0
N471 N 0.70195 0.61062 0.19489 0.0
H472 H 0.76656 0.66026 0.13261 0.0
H473 H 0.72226 0.65694 0.14579 0.0
H474 H 0.68509 0.59432 0.20962 0.0
H475 H 0.69465 0.61315 0.16785 0.0
H476 H 0.84591 0.58653 0.24791 0.0
H477 H 0.85592 0.60361 0.20524 0.0
H478 H 0.81981 0.60942 0.29304 0.0
H479 H 0.77805 0.6086 0.3103 0.0
C480 C 0.23553 0.20709 0.16878 0.0
C481 C 0.27236 0.21052 0.16487 0.0
C482 C 0.26397 0.26152 0.12451 0.0
C483 C 0.2274 0.26122 0.13236 0.0
N484 N 0.17877 0.23519 0.1653 0.0
N485 N 0.32249 0.24214 0.14163 0.0
C486 C 0.21318 0.23413 0.15501 0.0
C487 C 0.28685 0.23806 0.14345 0.0
N488 N 0.22179 0.17788 0.18574 0.0
N489 N 0.2766 0.28306 0.09772 0.0
H490 H 0.34001 0.22446 0.15381 0.0
H491 H 0.33463 0.2642 0.13005 0.0
H492 H 0.26045 0.29938 0.08211 0.0
H493 H 0.30237 0.28204 0.08836 0.0
H494 H 0.19515 0.17162 0.18567 0.0
H495 H 0.23725 0.15816 0.19747 0.0
H496 H 0.16832 0.21962 0.18595 0.0
H497 H 0.16096 0.25344 0.15521 0.0
C498 C 0.75098 0.28754 0.83008 0.0
C499 C 0.78733 0.28786 0.83807 0.0
C500 C 0.77862 0.24098 0.88317 0.0
C501 C 0.74306 0.23756 0.87186 0.0
N502 N 0.69713 0.25415 0.82941 0.0
N503 N 0.83706 0.26314 0.86941 0.0
C504 C 0.72959 0.26002 0.84409 0.0
C505 C 0.80158 0.26406 0.86385 0.0
N506 N 0.73662 0.31402 0.80951 0.0
N507 N 0.79006 0.22342 0.91333 0.0
H508 H 0.85438 0.28061 0.85663 0.0
H509 H 0.84953 0.24364 0.88476 0.0
H510 H 0.77376 0.20725 0.92892 0.0
H511 H 0.81465 0.22753 0.92493 0.0
H512 H 0.70966 0.31749 0.80613 0.0
H513 H 0.75141 0.33467 0.7987 0.0
H514 H 0.68858 0.26626 0.80565 0.0
H515 H 0.6796 0.23511 0.83865 0.0
C516 C 0.71093 0.76822 0.37871 0.0
C517 C 0.74422 0.76035 0.39414 0.0
C518 C 0.74049 0.69903 0.373 0.0
C519 C 0.70975 0.70786 0.35321 0.0
N520 N 0.65967 0.74646 0.34596 0.0
N521 N 0.77732 0.7143 0.42396 0.0
C522 C 0.69301 0.74125 0.35874 0.0
C523 C 0.75478 0.7244 0.39716 0.0
N524 N 0.6962 0.80093 0.38418 0.0
N525 N 0.75735 0.66742 0.36735 0.0
H526 H 0.78501 0.73179 0.44442 0.0
H527 H 0.78399 0.68783 0.42885 0.0
H528 H 0.74829 0.6481 0.34946 0.0
H529 H 0.78198 0.66172 0.37823 0.0
H530 H 0.67453 0.81054 0.37013 0.0
H531 H 0.70523 0.81817 0.40426 0.0
H532 H 0.64494 0.76936 0.35033 0.0
H533 H 0.64545 0.72654 0.33281 0.0
C534 C 0.23344 0.75639 0.67473 0.0
C535 C 0.2164 0.78161 0.65204 0.0
C536 C 0.23414 0.74486 0.60002 0.0
C537 C 0.24686 0.71826 0.62404 0.0
N538 N 0.23697 0.69339 0.68309 0.0
N539 N 0.19244 0.79307 0.59227 0.0
C540 C 0.23999 0.72216 0.66113 0.0
C541 C 0.21439 0.77415 0.61423 0.0
N542 N 0.24468 0.76497 0.70868 0.0
N543 N 0.24 0.74172 0.56378 0.0
H544 H 0.17536 0.81259 0.60175 0.0
H545 H 0.18822 0.78645 0.56524 0.0
H546 H 0.25136 0.71905 0.55237 0.0
H547 H 0.23467 0.76216 0.54553 0.0
H548 H 0.25834 0.74677 0.72473 0.0
H549 H 0.24477 0.79106 0.71841 0.0
H550 H 0.2311 0.69585 0.71056 0.0
H551 H 0.23375 0.66803 0.67224 0.0
C552 C 0.90738 0.70441 0.77299 0.0
C553 C 0.87445 0.68705 0.77658 0.0
C554 C 0.85092 0.72145 0.72615 0.0
C555 C 0.88246 0.74169 0.72481 0.0
N556 N 0.94492 0.74177 0.73603 0.0
N557 N 0.82506 0.66497 0.74211 0.0
C558 C 0.91209 0.72997 0.74501 0.0
C559 C 0.84925 0.69103 0.74869 0.0
N560 N 0.9344 0.69576 0.79562 0.0
N561 N 0.822 0.73148 0.70709 0.0
H562 H 0.82646 0.63994 0.75408 0.0
H563 H 0.80754 0.66591 0.72047 0.0
H564 H 0.82234 0.75199 0.68857 0.0
H565 H 0.7972 0.72047 0.71136 0.0
H566 H 0.95711 0.71098 0.79828 0.0
H567 H 0.934 0.67297 0.81171 0.0
H568 H 0.96793 0.73225 0.74775 0.0
H569 H 0.94956 0.75818 0.71381 0.0
C570 C 0.64853 0.24066 0.2581 0.0
C571 C 0.62368 0.25363 0.23249 0.0
C572 C 0.62526 0.31206 0.26216 0.0
C573 C 0.65155 0.299 0.28576 0.0
N574 N 0.69793 0.25703 0.29524 0.0
N575 N 0.59185 0.30331 0.20691 0.0
C576 C 0.66627 0.26521 0.28024 0.0
C577 C 0.61347 0.29006 0.23314 0.0
N578 N 0.65488 0.20512 0.26241 0.0
N579 N 0.61087 0.34484 0.26827 0.0
H580 H 0.58095 0.28756 0.18658 0.0
H581 H 0.58636 0.33031 0.20402 0.0
H582 H 0.62014 0.36193 0.2884 0.0
H583 H 0.58886 0.35438 0.25466 0.0
H584 H 0.67034 0.19514 0.28336 0.0
H585 H 0.64267 0.18522 0.24759 0.0
H586 H 0.71094 0.23297 0.29098 0.0
H587 H 0.71301 0.27656 0.30774 0.0
C588 C 0.42054 0.7608 0.23369 0.0
C589 C 0.39455 0.75988 0.26139 0.0
C590 C 0.37218 0.81653 0.23812 0.0
C591 C 0.3889 0.80988 0.20464 0.0
N592 N 0.43773 0.78128 0.17435 0.0
N593 N 0.34655 0.79114 0.29129 0.0
C594 C 0.41583 0.7837 0.20343 0.0
C595 C 0.37091 0.78917 0.2644 0.0
N596 N 0.45104 0.74198 0.23778 0.0
N597 N 0.35952 0.84972 0.24581 0.0
H598 H 0.34575 0.77403 0.31304 0.0
H599 H 0.32603 0.80954 0.29107 0.0
H600 H 0.36413 0.87146 0.22893 0.0
H601 H 0.3495 0.85673 0.27107 0.0
H602 H 0.47213 0.74362 0.21993 0.0
H603 H 0.45721 0.72841 0.26155 0.0
H604 H 0.45328 0.75901 0.16921 0.0
H605 H 0.4413 0.80204 0.15609 0.0
C606 C 0.1443 0.18652 0.73822 0.0
C607 C 0.11869 0.18299 0.71059 0.0
C608 C 0.08182 0.2265 0.7425 0.0
C609 C 0.11148 0.23659 0.76344 0.0
N610 N 0.17237 0.22745 0.77918 0.0
N611 N 0.05903 0.19313 0.69137 0.0
C612 C 0.14301 0.21669 0.76111 0.0
C613 C 0.08606 0.20099 0.71433 0.0
N614 N 0.16884 0.16061 0.74391 0.0
N615 N 0.0495 0.24035 0.75051 0.0
H616 H 0.05931 0.17072 0.67469 0.0
H617 H 0.03645 0.20857 0.6889 0.0
H618 H 0.04537 0.25795 0.77192 0.0
H619 H 0.02626 0.23214 0.73828 0.0
H620 H 0.18672 0.1615 0.76524 0.0
H621 H 0.16763 0.13577 0.73151 0.0
H622 H 0.197 0.21598 0.77516 0.0
H623 H 0.1727 0.24995 0.79547 0.0
C624 C 0.75158 0.88381 0.75308 0.0
C625 C 0.76236 0.87089 0.78763 0.0
C626 C 0.81974 0.85645 0.76187 0.0
C627 C 0.80624 0.86111 0.72665 0.0
N628 N 0.75853 0.87879 0.68799 0.0
N629 N 0.80482 0.8345 0.82054 0.0
C630 C 0.77184 0.87472 0.72201 0.0
C631 C 0.79603 0.85452 0.79101 0.0
N632 N 0.72311 0.9057 0.74982 0.0
N633 N 0.85496 0.85295 0.76778 0.0
H634 H 0.78737 0.82791 0.84109 0.0
H635 H 0.82809 0.81989 0.82194 0.0
H636 H 0.87357 0.85673 0.74759 0.0
H637 H 0.86568 0.85155 0.7937 0.0
H638 H 0.71622 0.91804 0.72562 0.0
H639 H 0.70864 0.91478 0.77181 0.0
H640 H 0.73221 0.88458 0.68295 0.0
H641 H 0.77373 0.87473 0.66486 0.0
C642 C 0.7297 0.18666 0.22089 0.0
C643 C 0.70495 0.16231 0.20517 0.0
C644 C 0.72719 0.11543 0.24534 0.0
C645 C 0.75244 0.13954 0.25938 0.0
N646 N 0.78523 0.19381 0.25185 0.0
N647 N 0.68811 0.10107 0.19558 0.0
C648 C 0.75656 0.17344 0.24369 0.0
C649 C 0.70613 0.12584 0.21527 0.0
N650 N 0.7258 0.22277 0.21765 0.0
N651 N 0.72298 0.08285 0.26109 0.0
H652 H 0.6741 0.10756 0.17226 0.0
H653 H 0.69028 0.07377 0.19998 0.0
H654 H 0.73917 0.07386 0.28195 0.0
H655 H 0.70236 0.0657 0.25476 0.0
H656 H 0.74194 0.24102 0.23085 0.0
H657 H 0.70381 0.23522 0.20686 0.0
H658 H 0.79121 0.21731 0.23821 0.0
H659 H 0.80499 0.18538 0.26935 0.0
C660 C 0.30281 0.62039 0.26009 0.0
C661 C 0.29316 0.64693 0.2857 0.0
C662 C 0.23415 0.65042 0.25958 0.0
C663 C 0.24641 0.6301 0.22968 0.0
N664 N 0.28366 0.58181 0.21106 0.0
N665 N 0.24518 0.66893 0.32148 0.0
C666 C 0.27809 0.61052 0.23309 0.0
C667 C 0.25718 0.65597 0.28926 0.0
N668 N 0.33523 0.60491 0.26103 0.0
N669 N 0.2016 0.66565 0.25939 0.0
H670 H 0.26156 0.67097 0.34406 0.0
H671 H 0.21873 0.67345 0.32702 0.0
H672 H 0.18237 0.65985 0.24036 0.0
H673 H 0.19388 0.68498 0.27798 0.0
H674 H 0.34586 0.59076 0.23941 0.0
H675 H 0.35092 0.60468 0.28405 0.0
H676 H 0.30484 0.56448 0.21369 0.0
H677 H 0.26483 0.57323 0.19245 0.0
C678 C 0.23408 0.38748 0.76227 0.0
C679 C 0.26413 0.36746 0.7526 0.0
C680 C 0.24811 0.32082 0.79471 0.0
C681 C 0.21585 0.33908 0.80249 0.0
N682 N 0.18823 0.39694 0.8067 0.0
N683 N 0.30879 0.32894 0.77714 0.0
C684 C 0.21205 0.3749 0.79052 0.0
C685 C 0.27442 0.339 0.775 0.0
N686 N 0.22655 0.41816 0.74414 0.0
N687 N 0.25333 0.28568 0.80277 0.0
H688 H 0.32889 0.34352 0.7651 0.0
H689 H 0.31754 0.3095 0.79513 0.0
H690 H 0.23464 0.26855 0.81329 0.0
H691 H 0.27579 0.27192 0.79471 0.0
H692 H 0.20285 0.43178 0.74692 0.0
H693 H 0.24406 0.42926 0.72557 0.0
H694 H 0.18599 0.4239 0.80054 0.0
H695 H 0.17377 0.3892 0.82934 0.0
C696 C 0.76114 0.75889 0.83017 0.0
C697 C 0.77502 0.74596 0.86308 0.0
C698 C 0.72665 0.77352 0.897 0.0
C699 C 0.71338 0.78804 0.86419 0.0
N700 N 0.71412 0.78773 0.79804 0.0
N701 N 0.76954 0.73561 0.92707 0.0
C702 C 0.72915 0.77845 0.83032 0.0
C703 C 0.75717 0.7515 0.89628 0.0
N704 N 0.77965 0.75402 0.79876 0.0
N705 N 0.70995 0.78104 0.92888 0.0
H706 H 0.79252 0.72053 0.92776 0.0
H707 H 0.75652 0.73568 0.95176 0.0
H708 H 0.68554 0.79361 0.93003 0.0
H709 H 0.72004 0.77535 0.95434 0.0
H710 H 0.77456 0.76771 0.77487 0.0
H711 H 0.80192 0.73793 0.797 0.0
H712 H 0.7213 0.77636 0.77345 0.0
H713 H 0.6932 0.80502 0.79478 0.0
C714 C 0.2353 0.72896 0.16035 0.0
C715 C 0.22046 0.71302 0.12871 0.0
C716 C 0.26806 0.7383 0.09198 0.0
C717 C 0.28227 0.75445 0.12337 0.0
N718 N 0.27572 0.77234 0.18553 0.0
N719 N 0.2172 0.71128 0.06363 0.0
C720 C 0.26456 0.7522 0.15688 0.0
C721 C 0.23525 0.72034 0.09425 0.0
N722 N 0.22327 0.7204 0.19403 0.0
N723 N 0.28622 0.73959 0.06012 0.0
H724 H 0.19239 0.6995 0.06432 0.0
H725 H 0.22494 0.71881 0.03774 0.0
H726 H 0.30972 0.7536 0.05715 0.0
H727 H 0.27929 0.72488 0.03733 0.0
H728 H 0.2366 0.72684 0.21774 0.0
H729 H 0.2014 0.70476 0.19887 0.0
H730 H 0.26137 0.77534 0.20931 0.0
H731 H 0.29797 0.78851 0.18453 0.0
C732 C 0.2689 0.27713 0.60746 0.0
C733 C 0.28131 0.28421 0.64302 0.0
C734 C 0.23819 0.2415 0.66709 0.0
C735 C 0.22243 0.23916 0.63257 0.0
N736 N 0.2212 0.25561 0.56968 0.0
N737 N 0.27453 0.27569 0.70762 0.0
C738 C 0.23744 0.25712 0.60262 0.0
C739 C 0.26547 0.26669 0.67309 0.0
N740 N 0.28796 0.2883 0.57828 0.0
N741 N 0.227 0.21961 0.69426 0.0
H742 H 0.29389 0.29407 0.71401 0.0
H743 H 0.26051 0.26721 0.73016 0.0
H744 H 0.20671 0.20127 0.69082 0.0
H745 H 0.23996 0.21715 0.71894 0.0
H746 H 0.28214 0.28106 0.55177 0.0
H747 H 0.31178 0.30181 0.58077 0.0
H748 H 0.22836 0.2715 0.54784 0.0
H749 H 0.19914 0.23982 0.5648 0.0
C750 C 0.77758 0.26355 0.35316 0.0
C751 C 0.75269 0.25641 0.3808 0.0
C752 C 0.78974 0.20784 0.40274 0.0
C753 C 0.80806 0.20813 0.36941 0.0
N754 N 0.82685 0.24268 0.3176 0.0
N755 N 0.73769 0.22576 0.4358 0.0
C756 C 0.80473 0.23828 0.34629 0.0
C757 C 0.75989 0.23003 0.40711 0.0
N758 N 0.77567 0.29458 0.33397 0.0
N759 N 0.8018 0.18719 0.43047 0.0
H760 H 0.71717 0.24344 0.44117 0.0
H761 H 0.73894 0.20421 0.45345 0.0
H762 H 0.82523 0.17286 0.42849 0.0
H763 H 0.7912 0.18763 0.45642 0.0
H764 H 0.79473 0.30291 0.31569 0.0
H765 H 0.75654 0.31385 0.33849 0.0
H766 H 0.82143 0.25932 0.29581 0.0
H767 H 0.85144 0.23074 0.31615 0.0
C768 C 0.11085 0.15325 0.49471 0.0
C769 C 0.10771 0.18454 0.51629 0.0
C770 C 0.09141 0.21761 0.46217 0.0
C771 C 0.10302 0.18917 0.44009 0.0
N772 N 0.12758 0.12984 0.43618 0.0
N773 N 0.10438 0.24927 0.51679 0.0
C774 C 0.11351 0.15668 0.45644 0.0
C775 C 0.10019 0.21755 0.49916 0.0
N776 N 0.11031 0.12036 0.51039 0.0
N777 N 0.0725 0.24502 0.44771 0.0
H778 H 0.1157 0.25157 0.54233 0.0
H779 H 0.10136 0.27373 0.50383 0.0
H780 H 0.06441 0.24516 0.42073 0.0
H781 H 0.06154 0.26513 0.46359 0.0
H782 H 0.10987 0.09684 0.49542 0.0
H783 H 0.10598 0.11664 0.53796 0.0
H784 H 0.13891 0.10726 0.44768 0.0
H785 H 0.13067 0.13134 0.40825 0.0
C786 C 0.34588 0.82614 0.98859 0.0
C787 C 0.37783 0.82626 0.00848 0.0
C788 C 0.4112 0.81889 0.95239 0.0
C789 C 0.37944 0.82096 0.93247 0.0
N790 N 0.31789 0.836 0.93069 0.0
N791 N 0.44092 0.83207 0.00874 0.0
C792 C 0.3472 0.82772 0.95032 0.0
C793 C 0.41054 0.82567 0.99014 0.0
N794 N 0.31436 0.82203 0.00582 0.0
N795 N 0.44156 0.80833 0.93584 0.0
H796 H 0.44121 0.83785 0.03634 0.0
H797 H 0.46519 0.83525 0.99614 0.0
H798 H 0.44305 0.80237 0.90834 0.0
H799 H 0.46459 0.80269 0.94994 0.0
H800 H 0.29085 0.81765 0.99209 0.0
H801 H 0.31185 0.81955 0.03375 0.0
H802 H 0.29449 0.84453 0.94247 0.0
H803 H 0.31809 0.83788 0.90254 0.0
C804 C 0.66202 0.32542 0.50493 0.0
C805 C 0.63433 0.31538 0.48106 0.0
C806 C 0.59936 0.29505 0.53245 0.0
C807 C 0.6265 0.30602 0.55608 0.0
N808 N 0.67832 0.34119 0.56629 0.0
N809 N 0.57266 0.30235 0.47356 0.0
C810 C 0.6558 0.32494 0.54273 0.0
C811 C 0.60155 0.30422 0.49538 0.0
N812 N 0.69512 0.33202 0.49223 0.0
N813 N 0.57273 0.27398 0.54481 0.0
H814 H 0.57328 0.31009 0.44647 0.0
H815 H 0.54755 0.29694 0.48335 0.0
H816 H 0.57085 0.26598 0.57174 0.0
H817 H 0.55423 0.26222 0.5278 0.0
H818 H 0.71669 0.33567 0.50919 0.0
H819 H 0.70223 0.33022 0.46515 0.0
H820 H 0.69851 0.35801 0.55791 0.0
H821 H 0.67444 0.34072 0.59424 0.0
C822 C 0.87625 0.66204 0.03264 0.0
C823 C 0.87584 0.69648 0.04871 0.0
C824 C 0.87311 0.72341 0.98881 0.0
C825 C 0.87801 0.68943 0.97258 0.0
N826 N 0.89224 0.62724 0.97995 0.0
N827 N 0.88517 0.7597 0.04113 0.0
C828 C 0.88206 0.65892 0.99476 0.0
C829 C 0.87787 0.72711 0.0265 0.0
N830 N 0.8692 0.63247 0.05285 0.0
N831 N 0.86167 0.75182 0.96894 0.0
H832 H 0.89079 0.76333 0.0685 0.0
H833 H 0.88976 0.7822 0.02532 0.0
H834 H 0.85468 0.75005 0.94175 0.0
H835 H 0.8549 0.77613 0.98067 0.0
H836 H 0.8659 0.60728 0.0415 0.0
H837 H 0.86296 0.6335 0.08025 0.0
H838 H 0.89858 0.605 0.99547 0.0
H839 H 0.89794 0.62433 0.95252 0.0
C840 C 0.44492 0.17512 0.1917 0.0
C841 C 0.43039 0.14073 0.1877 0.0
C842 C 0.48782 0.11925 0.16645 0.0
C843 C 0.50307 0.15234 0.17676 0.0
N844 N 0.496 0.20691 0.21125 0.0
N845 N 0.43906 0.07829 0.17486 0.0
C846 C 0.4816 0.17894 0.1928 0.0
C847 C 0.45204 0.11214 0.17588 0.0
N848 N 0.4237 0.20438 0.19415 0.0
N849 N 0.50682 0.09524 0.14681 0.0
H850 H 0.41318 0.07218 0.18166 0.0
H851 H 0.45469 0.05604 0.16992 0.0
H852 H 0.53264 0.0999 0.13876 0.0
H853 H 0.4959 0.07224 0.13577 0.0
H854 H 0.4336 0.23028 0.19439 0.0
H855 H 0.39644 0.20293 0.19152 0.0
H856 H 0.48081 0.22525 0.22556 0.0
H857 H 0.52278 0.20903 0.21657 0.0
C858 C 0.01717 0.84078 0.64375 0.0
C859 C 0.99361 0.84962 0.67211 0.0
C860 C 0.04236 0.87545 0.70635 0.0
C861 C 0.06648 0.861 0.6811 0.0
N862 N 0.07681 0.82494 0.62792 0.0
N863 N 0.9855 0.86884 0.73416 0.0
C864 C 0.05395 0.84252 0.65015 0.0
C865 C 0.00654 0.86547 0.70439 0.0
N866 N 0.00449 0.8316 0.61045 0.0
N867 N 0.05355 0.89919 0.73191 0.0
H868 H 0.95968 0.85974 0.73518 0.0
H869 H 0.99498 0.877 0.75928 0.0
H870 H 0.0795 0.90802 0.73345 0.0
H871 H 0.03636 0.91297 0.74882 0.0
H872 H 0.02057 0.82812 0.58792 0.0
H873 H 0.97772 0.83124 0.60439 0.0
H874 H 0.06857 0.80796 0.6073 0.0
H875 H 0.10389 0.82453 0.63207 0.0
C876 C 0.00361 0.3784 0.78875 0.0
C877 C 0.0163 0.36279 0.82117 0.0
C878 C 0.95626 0.35861 0.84478 0.0
C879 C 0.94351 0.3729 0.81182 0.0
N880 N 0.95489 0.40732 0.75828 0.0
N881 N 0.00659 0.34958 0.88402 0.0
C882 C 0.96728 0.38661 0.78584 0.0
C883 C 0.99313 0.35692 0.8506 0.0
N884 N 0.02541 0.38291 0.75977 0.0
N885 N 0.93347 0.34441 0.8694 0.0
H886 H 0.03359 0.34883 0.88897 0.0
H887 H 0.99128 0.34796 0.90729 0.0
H888 H 0.90628 0.34521 0.8663 0.0
H889 H 0.9416 0.32977 0.89178 0.0
H890 H 0.01647 0.38991 0.73412 0.0
H891 H 0.05221 0.37747 0.76048 0.0
H892 H 0.97117 0.42079 0.74027 0.0
H893 H 0.92835 0.41394 0.75586 0.0
C894 C 0.5022 0.6308 0.28486 0.0
C895 C 0.48998 0.64265 0.31912 0.0
C896 C 0.55054 0.64623 0.34128 0.0
C897 C 0.56271 0.6335 0.30733 0.0
N898 N 0.54997 0.60457 0.25064 0.0
N899 N 0.50125 0.65244 0.38238 0.0
C900 C 0.53843 0.62281 0.28035 0.0
C901 C 0.51383 0.6473 0.34816 0.0
N902 N 0.47986 0.6294 0.25593 0.0
N903 N 0.5738 0.65939 0.36611 0.0
H904 H 0.47442 0.65285 0.38822 0.0
H905 H 0.51721 0.65264 0.40526 0.0
H906 H 0.60088 0.65983 0.36201 0.0
H907 H 0.56607 0.67267 0.38953 0.0
H908 H 0.48835 0.6252 0.2295 0.0
H909 H 0.45316 0.63519 0.25765 0.0
H910 H 0.5331 0.59297 0.23183 0.0
H911 H 0.57632 0.59795 0.24673 0.0
C912 C 0.17779 0.46952 0.15844 0.0
C913 C 0.18681 0.44958 0.12723 0.0
C914 C 0.18759 0.50443 0.09143 0.0
C915 C 0.18404 0.52461 0.12366 0.0
N916 N 0.18206 0.52608 0.18913 0.0
N917 N 0.20495 0.44821 0.06472 0.0
C918 C 0.18049 0.50715 0.15755 0.0
C919 C 0.19266 0.467 0.09374 0.0
N920 N 0.16602 0.45254 0.18879 0.0
N921 N 0.18564 0.52104 0.05864 0.0
H922 H 0.20985 0.42091 0.06561 0.0
H923 H 0.21316 0.46014 0.04076 0.0
H924 H 0.18143 0.54839 0.05614 0.0
H925 H 0.18472 0.50734 0.03415 0.0
H926 H 0.15574 0.46602 0.21104 0.0
H927 H 0.16315 0.42495 0.19033 0.0
H928 H 0.18371 0.51405 0.21445 0.0
H929 H 0.18517 0.55361 0.19023 0.0
C930 C 0.69814 0.99447 0.85521 0.0
C931 C 0.6924 0.97641 0.88843 0.0
C932 C 0.69659 0.0331 0.92101 0.0
C933 C 0.69938 0.05103 0.88744 0.0
N934 N 0.69305 0.04984 0.82253 0.0
N935 N 0.67907 0.97913 0.95213 0.0
C936 C 0.69683 0.03202 0.85452 0.0
C937 C 0.6894 0.99593 0.92118 0.0
N938 N 0.70764 0.97611 0.82481 0.0
N939 N 0.70243 0.05114 0.95252 0.0
H940 H 0.67305 0.95204 0.9529 0.0
H941 H 0.67332 0.99261 0.97604 0.0
H942 H 0.70803 0.07833 0.9532 0.0
H943 H 0.7043 0.03871 0.97761 0.0
H944 H 0.71544 0.98854 0.80095 0.0
H945 H 0.71189 0.94876 0.82454 0.0
H946 H 0.68765 0.03699 0.79816 0.0
H947 H 0.69168 0.07754 0.82095 0.0
C948 C 0.80597 0.99781 0.39599 0.0
C949 C 0.80475 0.01534 0.36209 0.0
C950 C 0.80139 0.9578 0.33112 0.0
C951 C 0.79781 0.94079 0.36509 0.0
N952 N 0.79116 0.94486 0.4299 0.0
N953 N 0.79589 0.01257 0.29735 0.0
C954 C 0.7988 0.9608 0.39763 0.0
C955 C 0.80125 0.99551 0.32954 0.0
N956 N 0.81488 0.01636 0.42646 0.0
N957 N 0.80569 0.9379 0.30046 0.0
H958 H 0.79502 0.04018 0.29483 0.0
H959 H 0.78915 -0.00067 0.27358 0.0
H960 H 0.8061 0.91013 0.30065 0.0
H961 H 0.81214 0.94885 0.27547 0.0
H962 H 0.81967 0.00423 0.4513 0.0
H963 H 0.82089 0.04346 0.42613 0.0
H964 H 0.78777 0.95896 0.45391 0.0
H965 H 0.78526 0.91785 0.43224 0.0
C966 C 0.33087 0.4869 0.60393 0.0
C967 C 0.3345 0.47007 0.63803 0.0
C968 C 0.34362 0.52846 0.66613 0.0
C969 C 0.33201 0.54499 0.63387 0.0
N970 N 0.3124 0.53989 0.57202 0.0
N971 N 0.34243 0.47532 0.70285 0.0
C972 C 0.32575 0.52432 0.60243 0.0
C973 C 0.34121 0.49086 0.66946 0.0
N974 N 0.33209 0.46693 0.57306 0.0
N975 N 0.35652 0.54889 0.69367 0.0
H976 H 0.34015 0.44803 0.70708 0.0
H977 H 0.34299 0.48985 0.72685 0.0
H978 H 0.35862 0.57654 0.6917 0.0
H979 H 0.36837 0.53825 0.71665 0.0
H980 H 0.33257 0.478 0.54725 0.0
H981 H 0.33637 0.43948 0.57353 0.0
H982 H 0.30362 0.52546 0.54971 0.0
H983 H 0.30757 0.56713 0.5701 0.0
C984 C 0.88269 0.81291 0.49433 0.0
C985 C 0.8647 0.84351 0.48131 0.0
C986 C 0.86382 0.86913 0.54216 0.0
C987 C 0.87911 0.83736 0.55532 0.0
N988 N 0.91482 0.78594 0.54398 0.0
N989 N 0.84958 0.90509 0.48957 0.0
C990 C 0.89282 0.81176 0.53119 0.0
C991 C 0.85925 0.87323 0.50426 0.0
N992 N 0.88736 0.78374 0.4727 0.0
N993 N 0.8519 0.89423 0.56591 0.0
H994 H 0.84722 0.90852 0.46167 0.0
H995 H 0.84744 0.92857 0.50439 0.0
H996 H 0.85603 0.89229 0.59373 0.0
H997 H 0.83686 0.91612 0.55825 0.0
H998 H 0.89614 0.75928 0.48237 0.0
H999 H 0.88046 0.78293 0.44551 0.0
H1000 H 0.92821 0.76815 0.52731 0.0
H1001 H 0.92239 0.7849 0.57111 0.0
C1002 C 0.63381 0.13554 0.00552 0.0
C1003 C 0.62792 0.16298 0.98017 0.0
C1004 C 0.5974 0.19752 0.02638 0.0
C1005 C 0.61181 0.17477 0.05305 0.0
N1006 N 0.64321 0.12076 0.06835 0.0
N1007 N 0.60224 0.2199 0.96525 0.0
C1008 C 0.62903 0.14277 0.04283 0.0
C1009 C 0.60827 0.19355 0.98992 0.0
N1010 N 0.64413 0.10276 0.99365 0.0
N1011 N 0.57383 0.22316 0.03628 0.0
H1012 H 0.60924 0.21774 0.93811 0.0
H1013 H 0.59191 0.24468 0.97208 0.0
H1014 H 0.56538 0.22608 0.06299 0.0
H1015 H 0.56018 0.23884 0.0178 0.0
H1016 H 0.64633 0.08063 0.01046 0.0
H1017 H 0.64657 0.09707 0.96612 0.0
H1018 H 0.65968 0.0995 0.06201 0.0
H1019 H 0.64033 0.12477 0.09604 0.0
C1020 C 0.35805 0.63944 0.44698 0.0
C1021 C 0.37332 0.67255 0.43734 0.0
C1022 C 0.3708 0.69245 0.50005 0.0
C1023 C 0.35683 0.6588 0.51028 0.0
N1024 N 0.34565 0.59744 0.49507 0.0
N1025 N 0.40392 0.72561 0.45555 0.0
C1026 C 0.35313 0.63132 0.4842 0.0
C1027 C 0.38312 0.69726 0.46431 0.0
N1028 N 0.34651 0.61662 0.42074 0.0
N1029 N 0.36973 0.72079 0.52328 0.0
H1030 H 0.41354 0.72957 0.42942 0.0
H1031 H 0.41457 0.74278 0.47481 0.0
H1032 H 0.35876 0.71969 0.54904 0.0
H1033 H 0.37622 0.74662 0.51552 0.0
H1034 H 0.3314 0.59415 0.42623 0.0
H1035 H 0.35002 0.62137 0.39321 0.0
H1036 H 0.34567 0.57566 0.47761 0.0
H1037 H 0.34299 0.59061 0.52224 0.0
C1038 C 0.1106 0.30993 0.00277 0.0
C1039 C 0.13261 0.3389 0.01278 0.0
C1040 C 0.14068 0.35469 0.94918 0.0
C1041 C 0.11913 0.32542 0.93934 0.0
N1042 N 0.07454 0.28328 0.95597 0.0
N1043 N 0.159 0.39496 0.9969 0.0
C1044 C 0.10087 0.30593 0.96602 0.0
C1045 C 0.14445 0.36338 0.98635 0.0
N1046 N 0.1013 0.28458 0.0275 0.0
N1047 N 0.15928 0.37272 0.92345 0.0
H1048 H 0.16106 0.40222 0.02406 0.0
H1049 H 0.16544 0.41528 0.97895 0.0
H1050 H 0.15706 0.3675 0.89587 0.0
H1051 H 0.1786 0.3914 0.92962 0.0
H1052 H 0.08874 0.26094 0.02044 0.0
H1053 H 0.10867 0.28535 0.05459 0.0
H1054 H 0.05807 0.27065 0.97443 0.0
H1055 H 0.06689 0.28021 0.92902 0.0
C1056 C 0.55189 0.88971 0.80675 0.0
C1057 C 0.56746 0.88794 0.84153 0.0
C1058 C 0.50974 0.87623 0.86835 0.0
C1059 C 0.49646 0.86963 0.83316 0.0
N1060 N 0.50368 0.87123 0.76836 0.0
N1061 N 0.55797 0.89877 0.90486 0.0
C1062 C 0.517 0.87722 0.80215 0.0
C1063 C 0.54538 0.88691 0.87241 0.0
N1064 N 0.56924 0.90582 0.77891 0.0
N1065 N 0.48842 0.87154 0.89768 0.0
H1066 H 0.58257 0.91083 0.90717 0.0
H1067 H 0.54299 0.90075 0.92828 0.0
H1068 H 0.46158 0.86653 0.8952 0.0
H1069 H 0.49726 0.8716 0.9243 0.0
H1070 H 0.55817 0.90993 0.75351 0.0
H1071 H 0.59233 0.9202 0.78285 0.0
H1072 H 0.51892 0.872 0.74499 0.0
H1073 H 0.4778 0.86326 0.76383 0.0
C1074 C 0.95826 0.105 0.36164 0.0
C1075 C 0.93852 0.10308 0.32923 0.0
C1076 C 0.99029 0.12012 0.29425 0.0
C1077 C 0.00731 0.12954 0.32705 0.0
N1078 N 0.00988 0.12811 0.39217 0.0
N1079 N 0.94198 0.08837 0.26602 0.0
C1080 C 0.99224 0.12056 0.36088 0.0
C1081 C 0.95641 0.10429 0.2957 0.0
N1082 N 0.94514 0.09002 0.39243 0.0
N1083 N 0.0056 0.1281 0.26183 0.0
H1084 H 0.91937 0.07279 0.26776 0.0
H1085 H 0.95474 0.08622 0.24122 0.0
H1086 H 0.03076 0.1389 0.25973 0.0
H1087 H 0.99266 0.1259 0.23712 0.0
H1088 H 0.95904 0.08825 0.4166 0.0
H1089 H 0.92191 0.07526 0.39228 0.0
H1090 H 0.99864 0.12624 0.41775 0.0
H1091 H 0.03557 0.13779 0.39244 0.0
C1092 C 0.04841 0.67048 0.12603 0.0
C1093 C 0.06401 0.64127 0.14447 0.0
C1094 C 0.00683 0.62703 0.17139 0.0
C1095 C 0.99088 0.65421 0.1503 0.0
N1096 N 0.9954 0.6931 0.09852 0.0
N1097 N 0.05539 0.58569 0.17608 0.0
C1098 C 0.01131 0.67314 0.1247 0.0
C1099 C 0.04238 0.61759 0.16446 0.0
N1100 N 0.06856 0.69716 0.11188 0.0
N1101 N 0.98908 0.61155 0.19935 0.0
H1102 H 0.08075 0.57704 0.16998 0.0
H1103 H 0.03973 0.56622 0.18802 0.0
H1104 H 0.96366 0.61872 0.20679 0.0
H1105 H 0.00101 0.59418 0.21757 0.0
H1106 H 0.05776 0.7204 0.10122 0.0
H1107 H 0.09574 0.6984 0.11464 0.0
H1108 H 0.00931 0.7049 0.07742 0.0
H1109 H 0.96819 0.69419 0.09536 0.0
C1110 C 0.46458 0.36506 0.68599 0.0
C1111 C 0.44211 0.34667 0.66146 0.0
C1112 C 0.49419 0.31926 0.63475 0.0
C1113 C 0.51489 0.33034 0.66453 0.0
N1114 N 0.51708 0.36065 0.72239 0.0
N1115 N 0.43693 0.29868 0.61747 0.0
C1116 C 0.49952 0.35262 0.69125 0.0
C1117 C 0.4572 0.32179 0.63695 0.0
N1118 N 0.45324 0.39506 0.70331 0.0
N1119 N 0.50981 0.30717 0.60392 0.0
H1120 H 0.40994 0.29601 0.62092 0.0
H1121 H 0.4478 0.27867 0.6014 0.0
H1122 H 0.53694 0.30831 0.60037 0.0
H1123 H 0.49565 0.301 0.58059 0.0
H1124 H 0.46974 0.41065 0.71932 0.0
H1125 H 0.42902 0.40688 0.69789 0.0
H1126 H 0.50524 0.3741 0.74385 0.0
H1127 H 0.54198 0.35089 0.72847 0.0
C1128 C 0.80822 0.54324 0.84188 0.0
C1129 C 0.83192 0.55502 0.86917 0.0
C1130 C 0.85523 0.49439 0.87499 0.0
C1131 C 0.83088 0.48276 0.84845 0.0
N1132 N 0.77762 0.49342 0.81494 0.0
N1133 N 0.87206 0.54085 0.91734 0.0
C1134 C 0.80524 0.50635 0.83461 0.0
C1135 C 0.85357 0.5302 0.88756 0.0
N1136 N 0.79035 0.56716 0.82092 0.0
N1137 N 0.88086 0.47178 0.88691 0.0
H1138 H 0.87077 0.5668 0.92737 0.0
H1139 H 0.88587 0.52342 0.93397 0.0
H1140 H 0.88269 0.44534 0.87844 0.0
H1141 H 0.90171 0.47981 0.90322 0.0
H1142 H 0.77637 0.55985 0.79786 0.0
H1143 H 0.79179 0.59462 0.82421 0.0
H1144 H 0.75611 0.50893 0.80747 0.0
H1145 H 0.77433 0.4664 0.80937 0.0
C1146 C 0.31165 0.95534 0.15598 0.0
C1147 C 0.33467 0.94632 0.12713 0.0
C1148 C 0.35304 0.00876 0.12235 0.0
C1149 C 0.32865 0.01776 0.14988 0.0
N1150 N 0.27815 0.00158 0.18561 0.0
N1151 N 0.37201 0.96496 0.0781 0.0
C1152 C 0.30587 0.99165 0.16436 0.0
C1153 C 0.35379 0.97325 0.10881 0.0
N1154 N 0.29705 0.92942 0.17715 0.0
N1155 N 0.37643 0.03366 0.11029 0.0
H1156 H 0.37265 0.93927 0.06735 0.0
H1157 H 0.38376 0.98395 0.06156 0.0
H1158 H 0.37639 0.05996 0.1194 0.0
H1159 H 0.3974 0.02771 0.09327 0.0
H1160 H 0.2836 0.93489 0.20105 0.0
H1161 H 0.3011 0.9023 0.17316 0.0
H1162 H 0.25851 0.98399 0.19372 0.0
H1163 H 0.27269 0.02805 0.19198 0.0
C1164 C 0.17561 0.99392 0.59461 0.0
C1165 C 0.15283 0.97634 0.61925 0.0
C1166 C 0.12574 0.03273 0.63533 0.0
C1167 C 0.14738 0.05081 0.60982 0.0
N1168 N 0.18452 0.04611 0.55709 0.0
N1169 N 0.09721 0.97721 0.65008 0.0
C1170 C 0.16966 0.03061 0.58674 0.0
C1171 C 0.12452 0.99522 0.63466 0.0
N1172 N 0.20386 0.9766 0.58024 0.0
N1173 N 0.10918 0.0505 0.66275 0.0
H1174 H 0.09562 0.94945 0.64947 0.0
H1175 H 0.07467 0.98998 0.65954 0.0
H1176 H 0.11313 0.07731 0.66853 0.0
H1177 H 0.09546 0.0374 0.68318 0.0
H1178 H 0.22342 0.9896 0.56562 0.0
H1179 H 0.20893 0.94973 0.58463 0.0
H1180 H 0.19863 0.03178 0.5378 0.0
H1181 H 0.17935 0.07238 0.54967 0.0
C1182 C 0.64779 0.46234 0.38825 0.0
C1183 C 0.67265 0.43992 0.37095 0.0
C1184 C 0.69735 0.49089 0.33923 0.0
C1185 C 0.66937 0.51231 0.35212 0.0
N1186 N 0.61635 0.5186 0.38716 0.0
N1187 N 0.717 0.4317 0.3247 0.0
C1188 C 0.64424 0.49823 0.37649 0.0
C1189 C 0.69651 0.45384 0.3452 0.0
N1190 N 0.62816 0.44944 0.41625 0.0
N1191 N 0.72545 0.50602 0.3222 0.0
H1192 H 0.71721 0.40413 0.32736 0.0
H1193 H 0.73143 0.44049 0.3025 0.0
H1194 H 0.72777 0.53329 0.31835 0.0
H1195 H 0.74824 0.49202 0.3157 0.0
H1196 H 0.61192 0.46528 0.43221 0.0
H1197 H 0.6305 0.42332 0.42557 0.0
H1198 H 0.59517 0.50867 0.4018 0.0
H1199 H 0.61319 0.54505 0.37921 0.0
loop_
_geom_bond_atom_site_label_1
_geom_bond_atom_site_label_2
_geom_bond_distance
_geom_bond_site_symmetry_2
_ccdc_geom_bond_type
Co0 O1 2.216 . S
Co0 O2 2.091 . S
Co0 O4 2.004 . S
Co0 O10 2.021 . S
Co0 O12 2.137 . S
Co0 O13 2.244 . S
O1 Co0 2.216 . S
O1 C8 1.247 . S
O2 Co0 2.091 . S
O2 C8 1.261 . S
C3 O12 1.247 . S
C3 O13 1.272 . S
O4 Co0 2.004 . S
O4 C9 1.259 . S
Co5 O6 2.061 . S
Co5 O11 2.052 . S
Co5 O13 2.135 . S
O6 Co5 2.061 . S
O6 C9 1.235 . S
C7 O10 1.238 . S
C7 O11 1.241 . S
C8 O1 1.247 . S
C8 O2 1.261 . S
C9 O4 1.259 . S
C9 O6 1.235 . S
O10 Co0 2.021 . S
O10 C7 1.238 . S
O11 Co5 2.052 . S
O11 C7 1.241 . S
O12 Co0 2.137 . S
O12 C3 1.247 . S
O13 Co0 2.244 . S
O13 C3 1.272 . S
O13 Co5 2.135 . S
Co14 O15 2.216 . S
Co14 O16 2.091 . S
Co14 O18 2.004 . S
Co14 O24 2.021 . S
Co14 O26 2.137 . S
Co14 O27 2.244 . S
O15 Co14 2.216 . S
O15 C22 1.247 . S
O16 Co14 2.091 . S
O16 C22 1.261 . S
C17 O26 1.247 . S
C17 O27 1.272 . S
O18 Co14 2.004 . S
O18 C23 1.259 . S
Co19 O20 2.061 . S
Co19 O25 2.052 . S
Co19 O27 2.135 . S
O20 Co19 2.061 . S
O20 C23 1.235 . S
C21 O24 1.238 . S
C21 O25 1.241 . S
C22 O15 1.247 . S
C22 O16 1.261 . S
C23 O18 1.259 . S
C23 O20 1.235 . S
O24 Co14 2.021 . S
O24 C21 1.238 . S
O25 Co19 2.052 . S
O25 C21 1.241 . S
O26 Co14 2.137 . S
O26 C17 1.247 . S
O27 Co14 2.244 . S
O27 C17 1.272 . S
O27 Co19 2.135 . S
Co28 O29 2.216 . S
Co28 O30 2.091 . S
Co28 O32 2.004 . S
Co28 O38 2.021 . S
Co28 O40 2.137 . S
Co28 O41 2.244 . S
O29 Co28 2.216 . S
O29 C36 1.247 . S
O30 Co28 2.091 . S
O30 C36 1.261 . S
C31 O40 1.247 . S
C31 O41 1.272 . S
O32 Co28 2.004 . S
O32 C37 1.259 . S
Co33 O34 2.061 . S
Co33 O39 2.052 . S
Co33 O41 2.135 . S
O34 Co33 2.061 . S
O34 C37 1.235 . S
C35 O38 1.238 . S
C35 O39 1.241 . S
C36 O29 1.247 . S
C36 O30 1.261 . S
C37 O32 1.259 . S
C37 O34 1.235 . S
O38 Co28 2.021 . S
O38 C35 1.238 . S
O39 Co33 2.052 . S
O39 C35 1.241 . S
O40 Co28 2.137 . S
O40 C31 1.247 . S
O41 Co28 2.244 . S
O41 C31 1.272 . S
O41 Co33 2.135 . S
Co42 O43 2.216 . S
Co42 O44 2.091 . S
Co42 O46 2.004 . S
Co42 O52 2.021 . S
Co42 O54 2.137 . S
Co42 O55 2.244 . S
O43 Co42 2.216 . S
O43 C50 1.247 . S
O44 Co42 2.091 . S
O44 C50 1.261 . S
C45 O54 1.247 . S
C45 O55 1.272 . S
O46 Co42 2.004 . S
O46 C51 1.259 . S
Co47 O48 2.061 . S
Co47 O53 2.052 . S
Co47 O55 2.135 . S
O48 Co47 2.061 . S
O48 C51 1.235 . S
C49 O52 1.238 . S
C49 O53 1.241 . S
C50 O43 1.247 . S
C50 O44 1.261 . S
C51 O46 1.259 . S
C51 O48 1.235 . S
O52 Co42 2.021 . S
O52 C49 1.238 . S
O53 Co47 2.052 . S
O53 C49 1.241 . S
O54 Co42 2.137 . S
O54 C45 1.247 . S
O55 Co42 2.244 . S
O55 C45 1.272 . S
O55 Co47 2.135 . S
Co56 O57 2.216 . S
Co56 O58 2.091 . S
Co56 O60 2.004 . S
Co56 O66 2.021 . S
Co56 O68 2.137 . S
Co56 O69 2.244 . S
O57 Co56 2.216 . S
O57 C64 1.247 . S
O58 Co56 2.091 . S
O58 C64 1.261 . S
C59 O68 1.247 . S
C59 O69 1.272 . S
O60 Co56 2.004 . S
O60 C65 1.259 . S
Co61 O62 2.061 . S
Co61 O67 2.052 . S
Co61 O69 2.135 . S
O62 Co61 2.061 . S
O62 C65 1.235 . S
C63 O66 1.238 . S
C63 O67 1.241 . S
C64 O57 1.247 . S
C64 O58 1.261 . S
C65 O60 1.259 . S
C65 O62 1.235 . S
O66 Co56 2.021 . S
O66 C63 1.238 . S
O67 Co61 2.052 . S
O67 C63 1.241 . S
O68 Co56 2.137 . S
O68 C59 1.247 . S
O69 Co56 2.244 . S
O69 C59 1.272 . S
O69 Co61 2.135 . S
Co70 O71 2.216 . S
Co70 O72 2.091 . S
Co70 O74 2.004 . S
Co70 O80 2.021 . S
Co70 O82 2.137 . S
Co70 O83 2.244 . S
O71 Co70 2.216 . S
O71 C78 1.247 . S
O72 Co70 2.091 . S
O72 C78 1.261 . S
C73 O82 1.247 . S
C73 O83 1.272 . S
O74 Co70 2.004 . S
O74 C79 1.259 . S
Co75 O76 2.061 . S
Co75 O81 2.052 . S
Co75 O83 2.135 . S
O76 Co75 2.061 . S
O76 C79 1.235 . S
C77 O80 1.238 . S
C77 O81 1.241 . S
C78 O71 1.247 . S
C78 O72 1.261 . S
C79 O74 1.259 . S
C79 O76 1.235 . S
O80 Co70 2.021 . S
O80 C77 1.238 . S
O81 Co75 2.052 . S
O81 C77 1.241 . S
O82 Co70 2.137 . S
O82 C73 1.247 . S
O83 Co70 2.244 . S
O83 C73 1.272 . S
O83 Co75 2.135 . S
Co84 O85 2.216 . S
Co84 O86 2.091 . S
Co84 O88 2.004 . S
Co84 O94 2.021 . S
Co84 O96 2.137 . S
Co84 O97 2.244 . S
O85 Co84 2.216 . S
O85 C92 1.247 . S
O86 Co84 2.091 . S
O86 C92 1.261 . S
C87 O96 1.247 . S
C87 O97 1.272 . S
O88 Co84 2.004 . S
O88 C93 1.259 . S
Co89 O90 2.061 . S
Co89 O95 2.052 . S
Co89 O97 2.135 . S
O90 Co89 2.061 . S
O90 C93 1.235 . S
C91 O94 1.238 . S
C91 O95 1.241 . S
C92 O85 1.247 . S
C92 O86 1.261 . S
C93 O88 1.259 . S
C93 O90 1.235 . S
O94 Co84 2.021 . S
O94 C91 1.238 . S
O95 Co89 2.052 . S
O95 C91 1.241 . S
O96 Co84 2.137 . S
O96 C87 1.247 . S
O97 Co84 2.244 . S
O97 C87 1.272 . S
O97 Co89 2.135 . S
Co98 O99 2.216 . S
Co98 O100 2.091 . S
Co98 O102 2.004 . S
Co98 O108 2.021 . S
Co98 O110 2.137 . S
Co98 O111 2.244 . S
O99 Co98 2.216 . S
O99 C106 1.247 . S
O100 Co98 2.091 . S
O100 C106 1.261 . S
C101 O110 1.247 . S
C101 O111 1.272 . S
O102 Co98 2.004 . S
O102 C107 1.259 . S
Co103 O104 2.061 . S
Co103 O109 2.052 . S
Co103 O111 2.135 . S
O104 Co103 2.061 . S
O104 C107 1.235 . S
C105 O108 1.238 . S
C105 O109 1.241 . S
C106 O99 1.247 . S
C106 O100 1.261 . S
C107 O102 1.259 . S
C107 O104 1.235 . S
O108 Co98 2.021 . S
O108 C105 1.238 . S
O109 Co103 2.052 . S
O109 C105 1.241 . S
O110 Co98 2.137 . S
O110 C101 1.247 . S
O111 Co98 2.244 . S
O111 C101 1.272 . S
O111 Co103 2.135 . S
Co112 O113 2.216 . S
Co112 O114 2.091 . S
Co112 O116 2.004 . S
Co112 O122 2.021 . S
Co112 O124 2.137 . S
Co112 O125 2.244 . S
O113 Co112 2.216 . S
O113 C120 1.247 . S
O114 Co112 2.091 . S
O114 C120 1.261 . S
C115 O124 1.247 . S
C115 O125 1.272 . S
O116 Co112 2.004 . S
O116 C121 1.259 . S
Co117 O118 2.061 . S
Co117 O123 2.052 . S
Co117 O125 2.135 . S
O118 Co117 2.061 . S
O118 C121 1.235 . S
C119 O122 1.238 . S
C119 O123 1.241 . S
C120 O113 1.247 . S
C120 O114 1.261 . S
C121 O116 1.259 . S
C121 O118 1.235 . S
O122 Co112 2.021 . S
O122 C119 1.238 . S
O123 Co117 2.052 . S
O123 C119 1.241 . S
O124 Co112 2.137 . S
O124 C115 1.247 . S
O125 Co112 2.244 . S
O125 C115 1.272 . S
O125 Co117 2.135 . S
Co126 O127 2.216 . S
Co126 O128 2.091 . S
Co126 O130 2.004 . S
Co126 O136 2.021 . S
Co126 O138 2.137 . S
Co126 O139 2.244 . S
O127 Co126 2.216 . S
O127 C134 1.247 . S
O128 Co126 2.091 . S
O128 C134 1.261 . S
C129 O138 1.247 . S
C129 O139 1.272 . S
O130 Co126 2.004 . S
O130 C135 1.259 . S
Co131 O132 2.061 . S
Co131 O137 2.052 . S
Co131 O139 2.135 . S
O132 Co131 2.061 . S
O132 C135 1.235 . S
C133 O136 1.238 . S
C133 O137 1.241 . S
C134 O127 1.247 . S
C134 O128 1.261 . S
C135 O130 1.259 . S
C135 O132 1.235 . S
O136 Co126 2.021 . S
O136 C133 1.238 . S
O137 Co131 2.052 . S
O137 C133 1.241 . S
O138 Co126 2.137 . S
O138 C129 1.247 . S
O139 Co126 2.244 . S
O139 C129 1.272 . S
O139 Co131 2.135 . S
Co140 O141 2.216 . S
Co140 O142 2.091 . S
Co140 O144 2.004 . S
Co140 O150 2.021 . S
Co140 O152 2.137 . S
Co140 O153 2.244 . S
O141 Co140 2.216 . S
O141 C148 1.247 . S
O142 Co140 2.091 . S
O142 C148 1.261 . S
C143 O152 1.247 . S
C143 O153 1.272 . S
O144 Co140 2.004 . S
O144 C149 1.259 . S
Co145 O146 2.061 . S
Co145 O151 2.052 . S
Co145 O153 2.135 . S
O146 Co145 2.061 . S
O146 C149 1.235 . S
C147 O150 1.238 . S
C147 O151 1.241 . S
C148 O141 1.247 . S
C148 O142 1.261 . S
C149 O144 1.259 . S
C149 O146 1.235 . S
O150 Co140 2.021 . S
O150 C147 1.238 . S
O151 Co145 2.052 . S
O151 C147 1.241 . S
O152 Co140 2.137 . S
O152 C143 1.247 . S
O153 Co140 2.244 . S
O153 C143 1.272 . S
O153 Co145 2.135 . S
Co154 O155 2.216 . S
Co154 O156 2.091 . S
Co154 O158 2.004 . S
Co154 O164 2.021 . S
Co154 O166 2.137 . S
Co154 O167 2.244 . S
O155 Co154 2.216 . S
O155 C162 1.247 . S
O156 Co154 2.091 . S
O156 C162 1.261 . S
C157 O166 1.247 . S
C157 O167 1.272 . S
O158 Co154 2.004 . S
O158 C163 1.259 . S
Co159 O160 2.061 . S
Co159 O165 2.052 . S
Co159 O167 2.135 . S
O160 Co159 2.061 . S
O160 C163 1.235 . S
C161 O164 1.238 . S
C161 O165 1.241 . S
C162 O155 1.247 . S
C162 O156 1.261 . S
C163 O158 1.259 . S
C163 O160 1.235 . S
O164 Co154 2.021 . S
O164 C161 1.238 . S
O165 Co159 2.052 . S
O165 C161 1.241 . S
O166 Co154 2.137 . S
O166 C157 1.247 . S
O167 Co154 2.244 . S
O167 C157 1.272 . S
O167 Co159 2.135 . S
Co168 O169 2.216 . S
Co168 O170 2.091 . S
Co168 O172 2.004 . S
Co168 O178 2.021 . S
Co168 O180 2.137 . S
Co168 O181 2.244 . S
O169 Co168 2.216 . S
O169 C176 1.247 . S
O170 Co168 2.091 . S
O170 C176 1.261 . S
C171 O180 1.247 . S
C171 O181 1.272 . S
O172 Co168 2.004 . S
O172 C177 1.259 . S
Co173 O174 2.061 . S
Co173 O179 2.052 . S
Co173 O181 2.135 . S
O174 Co173 2.061 . S
O174 C177 1.235 . S
C175 O178 1.238 . S
C175 O179 1.241 . S
C176 O169 1.247 . S
C176 O170 1.261 . S
C177 O172 1.259 . S
C177 O174 1.235 . S
O178 Co168 2.021 . S
O178 C175 1.238 . S
O179 Co173 2.052 . S
O179 C175 1.241 . S
O180 Co168 2.137 . S
O180 C171 1.247 . S
O181 Co168 2.244 . S
O181 C171 1.272 . S
O181 Co173 2.135 . S
Co182 O183 2.216 . S
Co182 O184 2.091 . S
Co182 O186 2.004 . S
Co182 O192 2.021 . S
Co182 O194 2.137 . S
Co182 O195 2.244 . S
O183 Co182 2.216 . S
O183 C190 1.247 . S
O184 Co182 2.091 . S
O184 C190 1.261 . S
C185 O194 1.247 . S
C185 O195 1.272 . S
O186 Co182 2.004 . S
O186 C191 1.259 . S
Co187 O188 2.061 . S
Co187 O193 2.052 . S
Co187 O195 2.135 . S
O188 Co187 2.061 . S
O188 C191 1.235 . S
C189 O192 1.238 . S
C189 O193 1.241 . S
C190 O183 1.247 . S
C190 O184 1.261 . S
C191 O186 1.259 . S
C191 O188 1.235 . S
O192 Co182 2.021 . S
O192 C189 1.238 . S
O193 Co187 2.052 . S
O193 C189 1.241 . S
O194 Co182 2.137 . S
O194 C185 1.247 . S
O195 Co182 2.244 . S
O195 C185 1.272 . S
O195 Co187 2.135 . S
Co196 O197 2.216 . S
Co196 O198 2.091 . S
Co196 O200 2.004 . S
Co196 O206 2.021 . S
Co196 O208 2.137 . S
Co196 O209 2.244 . S
O197 Co196 2.216 . S
O197 C204 1.247 . S
O198 Co196 2.091 . S
O198 C204 1.261 . S
C199 O208 1.247 . S
C199 O209 1.272 . S
O200 Co196 2.004 . S
O200 C205 1.259 . S
Co201 O202 2.061 . S
Co201 O207 2.052 . S
Co201 O209 2.135 . S
O202 Co201 2.061 . S
O202 C205 1.235 . S
C203 O206 1.238 . S
C203 O207 1.241 . S
C204 O197 1.247 . S
C204 O198 1.261 . S
C205 O200 1.259 . S
C205 O202 1.235 . S
O206 Co196 2.021 . S
O206 C203 1.238 . S
O207 Co201 2.052 . S
O207 C203 1.241 . S
O208 Co196 2.137 . S
O208 C199 1.247 . S
O209 Co196 2.244 . S
O209 C199 1.272 . S
O209 Co201 2.135 . S
Co210 O211 2.216 . S
Co210 O212 2.091 . S
Co210 O214 2.004 . S
Co210 O220 2.021 . S
Co210 O222 2.137 . S
Co210 O223 2.244 . S
O211 Co210 2.216 . S
O211 C218 1.247 . S
O212 Co210 2.091 . S
O212 C218 1.261 . S
C213 O222 1.247 . S
C213 O223 1.272 . S
O214 Co210 2.004 . S
O214 C219 1.259 . S
Co215 O216 2.061 . S
Co215 O221 2.052 . S
Co215 O223 2.135 . S
O216 Co215 2.061 . S
O216 C219 1.235 . S
C217 O220 1.238 . S
C217 O221 1.241 . S
C218 O211 1.247 . S
C218 O212 1.261 . S
C219 O214 1.259 . S
C219 O216 1.235 . S
O220 Co210 2.021 . S
O220 C217 1.238 . S
O221 Co215 2.052 . S
O221 C217 1.241 . S
O222 Co210 2.137 . S
O222 C213 1.247 . S
O223 Co210 2.244 . S
O223 C213 1.272 . S
O223 Co215 2.135 . S
Co224 O225 2.216 . S
Co224 O226 2.091 . S
Co224 O228 2.004 . S
Co224 O234 2.021 . S
Co224 O236 2.137 . S
Co224 O237 2.244 . S
O225 Co224 2.216 . S
O225 C232 1.247 . S
O226 Co224 2.091 . S
O226 C232 1.261 . S
C227 O236 1.247 . S
C227 O237 1.272 . S
O228 Co224 2.004 . S
O228 C233 1.259 . S
Co229 O230 2.061 . S
Co229 O235 2.052 . S
Co229 O237 2.135 . S
O230 Co229 2.061 . S
O230 C233 1.235 . S
C231 O234 1.238 . S
C231 O235 1.241 . S
C232 O225 1.247 . S
C232 O226 1.261 . S
C233 O228 1.259 . S
C233 O230 1.235 . S
O234 Co224 2.021 . S
O234 C231 1.238 . S
O235 Co229 2.052 . S
O235 C231 1.241 . S
O236 Co224 2.137 . S
O236 C227 1.247 . S
O237 Co224 2.244 . S
O237 C227 1.272 . S
O237 Co229 2.135 . S
Co238 O239 2.216 . S
Co238 O240 2.091 . S
Co238 O242 2.004 . S
Co238 O248 2.021 . S
Co238 O250 2.137 . S
Co238 O251 2.244 . S
O239 Co238 2.216 . S
O239 C246 1.247 . S
O240 Co238 2.091 . S
O240 C246 1.261 . S
C241 O250 1.247 . S
C241 O251 1.272 . S
O242 Co238 2.004 . S
O242 C247 1.259 . S
Co243 O244 2.061 . S
Co243 O249 2.052 . S
Co243 O251 2.135 . S
O244 Co243 2.061 . S
O244 C247 1.235 . S
C245 O248 1.238 . S
C245 O249 1.241 . S
C246 O239 1.247 . S
C246 O240 1.261 . S
C247 O242 1.259 . S
C247 O244 1.235 . S
O248 Co238 2.021 . S
O248 C245 1.238 . S
O249 Co243 2.052 . S
O249 C245 1.241 . S
O250 Co238 2.137 . S
O250 C241 1.247 . S
O251 Co238 2.244 . S
O251 C241 1.272 . S
O251 Co243 2.135 . S
Co252 O253 2.216 . S
Co252 O254 2.091 . S
Co252 O256 2.004 . S
Co252 O262 2.021 . S
Co252 O264 2.137 . S
Co252 O265 2.244 . S
O253 Co252 2.216 . S
O253 C260 1.247 . S
O254 Co252 2.091 . S
O254 C260 1.261 . S
C255 O264 1.247 . S
C255 O265 1.272 . S
O256 Co252 2.004 . S
O256 C261 1.259 . S
Co257 O258 2.061 . S
Co257 O263 2.052 . S
Co257 O265 2.135 . S
O258 Co257 2.061 . S
O258 C261 1.235 . S
C259 O262 1.238 . S
C259 O263 1.241 . S
C260 O253 1.247 . S
C260 O254 1.261 . S
C261 O256 1.259 . S
C261 O258 1.235 . S
O262 Co252 2.021 . S
O262 C259 1.238 . S
O263 Co257 2.052 . S
O263 C259 1.241 . S
O264 Co252 2.137 . S
O264 C255 1.247 . S
O265 Co252 2.244 . S
O265 C255 1.272 . S
O265 Co257 2.135 . S
Co266 O267 2.216 . S
Co266 O268 2.091 . S
Co266 O270 2.004 . S
Co266 O276 2.021 . S
Co266 O278 2.137 . S
Co266 O279 2.244 . S
O267 Co266 2.216 . S
O267 C274 1.247 . S
O268 Co266 2.091 . S
O268 C274 1.261 . S
C269 O278 1.247 . S
C269 O279 1.272 . S
O270 Co266 2.004 . S
O270 C275 1.259 . S
Co271 O272 2.061 . S
Co271 O277 2.052 . S
Co271 O279 2.135 . S
O272 Co271 2.061 . S
O272 C275 1.235 . S
C273 O276 1.238 . S
C273 O277 1.241 . S
C274 O267 1.247 . S
C274 O268 1.261 . S
C275 O270 1.259 . S
C275 O272 1.235 . S
O276 Co266 2.021 . S
O276 C273 1.238 . S
O277 Co271 2.052 . S
O277 C273 1.241 . S
O278 Co266 2.137 . S
O278 C269 1.247 . S
O279 Co266 2.244 . S
O279 C269 1.272 . S
O279 Co271 2.135 . S
Co280 O281 2.216 . S
Co280 O282 2.091 . S
Co280 O284 2.004 . S
Co280 O290 2.021 . S
Co280 O292 2.137 . S
Co280 O293 2.244 . S
O281 Co280 2.216 . S
O281 C288 1.247 . S
O282 Co280 2.091 . S
O282 C288 1.261 . S
C283 O292 1.247 . S
C283 O293 1.272 . S
O284 Co280 2.004 . S
O284 C289 1.259 . S
Co285 O286 2.061 . S
Co285 O291 2.052 . S
Co285 O293 2.135 . S
O286 Co285 2.061 . S
O286 C289 1.235 . S
C287 O290 1.238 . S
C287 O291 1.241 . S
C288 O281 1.247 . S
C288 O282 1.261 . S
C289 O284 1.259 . S
C289 O286 1.235 . S
O290 Co280 2.021 . S
O290 C287 1.238 . S
O291 Co285 2.052 . S
O291 C287 1.241 . S
O292 Co280 2.137 . S
O292 C283 1.247 . S
O293 Co280 2.244 . S
O293 C283 1.272 . S
O293 Co285 2.135 . S
Co294 O295 2.216 . S
Co294 O296 2.091 . S
Co294 O298 2.004 . S
Co294 O304 2.021 . S
Co294 O306 2.137 . S
Co294 O307 2.244 . S
O295 Co294 2.216 . S
O295 C302 1.247 . S
O296 Co294 2.091 . S
O296 C302 1.261 . S
C297 O306 1.247 . S
C297 O307 1.272 . S
O298 Co294 2.004 . S
O298 C303 1.259 . S
Co299 O300 2.061 . S
Co299 O305 2.052 . S
Co299 O307 2.135 . S
O300 Co299 2.061 . S
O300 C303 1.235 . S
C301 O304 1.238 . S
C301 O305 1.241 . S
C302 O295 1.247 . S
C302 O296 1.261 . S
C303 O298 1.259 . S
C303 O300 1.235 . S
O304 Co294 2.021 . S
O304 C301 1.238 . S
O305 Co299 2.052 . S
O305 C301 1.241 . S
O306 Co294 2.137 . S
O306 C297 1.247 . S
O307 Co294 2.244 . S
O307 C297 1.272 . S
O307 Co299 2.135 . S
Co308 O309 2.216 . S
Co308 O310 2.091 . S
Co308 O312 2.004 . S
Co308 O318 2.021 . S
Co308 O320 2.137 . S
Co308 O321 2.244 . S
O309 Co308 2.216 . S
O309 C316 1.247 . S
O310 Co308 2.091 . S
O310 C316 1.261 . S
C311 O320 1.247 . S
C311 O321 1.272 . S
O312 Co308 2.004 . S
O312 C317 1.259 . S
Co313 O314 2.061 . S
Co313 O319 2.052 . S
Co313 O321 2.135 . S
O314 Co313 2.061 . S
O314 C317 1.235 . S
C315 O318 1.238 . S
C315 O319 1.241 . S
C316 O309 1.247 . S
C316 O310 1.261 . S
C317 O312 1.259 . S
C317 O314 1.235 . S
O318 Co308 2.021 . S
O318 C315 1.238 . S
O319 Co313 2.052 . S
O319 C315 1.241 . S
O320 Co308 2.137 . S
O320 C311 1.247 . S
O321 Co308 2.244 . S
O321 C311 1.272 . S
O321 Co313 2.135 . S
Co322 O323 2.216 . S
Co322 O324 2.091 . S
Co322 O326 2.004 . S
Co322 O332 2.021 . S
Co322 O334 2.137 . S
Co322 O335 2.244 . S
O323 Co322 2.216 . S
O323 C330 1.247 . S
O324 Co322 2.091 . S
O324 C330 1.261 . S
C325 O334 1.247 . S
C325 O335 1.272 . S
O326 Co322 2.004 . S
O326 C331 1.259 . S
Co327 O328 2.061 . S
Co327 O333 2.052 . S
Co327 O335 2.135 . S
O328 Co327 2.061 . S
O328 C331 1.235 . S
C329 O332 1.238 . S
C329 O333 1.241 . S
C330 O323 1.247 . S
C330 O324 1.261 . S
C331 O326 1.259 . S
C331 O328 1.235 . S
O332 Co322 2.021 . S
O332 C329 1.238 . S
O333 Co327 2.052 . S
O333 C329 1.241 . S
O334 Co322 2.137 . S
O334 C325 1.247 . S
O335 Co322 2.244 . S
O335 C325 1.272 . S
O335 Co327 2.135 . S
C336 C337 1.363 . S
C336 C342 1.379 . S
C336 N344 1.356 . S
C337 C336 1.363 . S
C337 C343 1.363 . S
C338 C339 1.363 . S
C338 C343 1.379 . S
C338 N345 1.356 . S
C339 C338 1.363 . S
C339 C342 1.363 . S
N340 C342 1.356 . S
N340 H352 0.984 . S
N340 H353 0.985 . S
N341 C343 1.356 . S
N341 H346 0.984 . S
N341 H347 0.985 . S
C342 C336 1.379 . S
C342 C339 1.363 . S
C342 N340 1.356 . S
C343 C337 1.363 . S
C343 C338 1.379 . S
C343 N341 1.356 . S
N344 C336 1.356 . S
N344 H350 0.984 . S
N344 H351 0.984 . S
N345 C338 1.356 . S
N345 H348 0.984 . S
N345 H349 0.985 . S
H346 N341 0.984 . S
H347 N341 0.985 . S
H348 N345 0.984 . S
H349 N345 0.985 . S
H350 N344 0.984 . S
H351 N344 0.984 . S
H352 N340 0.984 . S
H353 N340 0.985 . S
C354 C355 1.363 . S
C354 C360 1.379 . S
C354 N362 1.356 . S
C355 C354 1.363 . S
C355 C361 1.363 . S
C356 C357 1.363 . S
C356 C361 1.379 . S
C356 N363 1.356 . S
C357 C356 1.363 . S
C357 C360 1.363 . S
N358 C360 1.356 . S
N358 H370 0.984 . S
N358 H371 0.985 . S
N359 C361 1.356 . S
N359 H364 0.984 . S
N359 H365 0.985 . S
C360 C354 1.379 . S
C360 C357 1.363 . S
C360 N358 1.356 . S
C361 C355 1.363 . S
C361 C356 1.379 . S
C361 N359 1.356 . S
N362 C354 1.356 . S
N362 H368 0.984 . S
N362 H369 0.984 . S
N363 C356 1.356 . S
N363 H366 0.984 . S
N363 H367 0.985 . S
H364 N359 0.984 . S
H365 N359 0.985 . S
H366 N363 0.984 . S
H367 N363 0.985 . S
H368 N362 0.984 . S
H369 N362 0.984 . S
H370 N358 0.984 . S
H371 N358 0.985 . S
C372 C373 1.363 . S
C372 C378 1.379 . S
C372 N380 1.356 . S
C373 C372 1.363 . S
C373 C379 1.363 . S
C374 C375 1.363 . S
C374 C379 1.379 . S
C374 N381 1.356 . S
C375 C374 1.363 . S
C375 C378 1.363 . S
N376 C378 1.356 . S
N376 H388 0.984 . S
N376 H389 0.985 . S
N377 C379 1.356 . S
N377 H382 0.984 . S
N377 H383 0.985 . S
C378 C372 1.379 . S
C378 C375 1.363 . S
C378 N376 1.356 . S
C379 C373 1.363 . S
C379 C374 1.379 . S
C379 N377 1.356 . S
N380 C372 1.356 . S
N380 H386 0.984 . S
N380 H387 0.984 . S
N381 C374 1.356 . S
N381 H384 0.984 . S
N381 H385 0.985 . S
H382 N377 0.984 . S
H383 N377 0.985 . S
H384 N381 0.984 . S
H385 N381 0.985 . S
H386 N380 0.984 . S
H387 N380 0.984 . S
H388 N376 0.984 . S
H389 N376 0.985 . S
C390 C391 1.363 . S
C390 C396 1.379 . S
C390 N398 1.356 . S
C391 C390 1.363 . S
C391 C397 1.363 . S
C392 C393 1.363 . S
C392 C397 1.379 . S
C392 N399 1.356 . S
C393 C392 1.363 . S
C393 C396 1.363 . S
N394 C396 1.356 . S
N394 H406 0.984 . S
N394 H407 0.985 . S
N395 C397 1.356 . S
N395 H400 0.984 . S
N395 H401 0.985 . S
C396 C390 1.379 . S
C396 C393 1.363 . S
C396 N394 1.356 . S
C397 C391 1.363 . S
C397 C392 1.379 . S
C397 N395 1.356 . S
N398 C390 1.356 . S
N398 H404 0.984 . S
N398 H405 0.984 . S
N399 C392 1.356 . S
N399 H402 0.984 . S
N399 H403 0.985 . S
H400 N395 0.984 . S
H401 N395 0.985 . S
H402 N399 0.984 . S
H403 N399 0.985 . S
H404 N398 0.984 . S
H405 N398 0.984 . S
H406 N394 0.984 . S
H407 N394 0.985 . S
C408 C409 1.363 . S
C408 C414 1.379 . S
C408 N416 1.356 . S
C409 C408 1.363 . S
C409 C415 1.363 . S
C410 C411 1.363 . S
C410 C415 1.379 . S
C410 N417 1.356 . S
C411 C410 1.363 . S
C411 C414 1.363 . S
N412 C414 1.356 . S
N412 H424 0.984 . S
N412 H425 0.985 . S
N413 C415 1.356 . S
N413 H418 0.984 . S
N413 H419 0.985 . S
C414 C408 1.379 . S
C414 C411 1.363 . S
C414 N412 1.356 . S
C415 C409 1.363 . S
C415 C410 1.379 . S
C415 N413 1.356 . S
N416 C408 1.356 . S
N416 H422 0.984 . S
N416 H423 0.984 . S
N417 C410 1.356 . S
N417 H420 0.984 . S
N417 H421 0.985 . S
H418 N413 0.984 . S
H419 N413 0.985 . S
H420 N417 0.984 . S
H421 N417 0.985 . S
H422 N416 0.984 . S
H423 N416 0.984 . S
H424 N412 0.984 . S
H425 N412 0.985 . S
C426 C427 1.363 . S
C426 C432 1.379 . S
C426 N434 1.356 . S
C427 C426 1.363 . S
C427 C433 1.363 . S
C428 C429 1.363 . S
C428 C433 1.379 . S
C428 N435 1.356 . S
C429 C428 1.363 . S
C429 C432 1.363 . S
N430 C432 1.356 . S
N430 H442 0.984 . S
N430 H443 0.985 . S
N431 C433 1.356 . S
N431 H436 0.984 . S
N431 H437 0.985 . S
C432 C426 1.379 . S
C432 C429 1.363 . S
C432 N430 1.356 . S
C433 C427 1.363 . S
C433 C428 1.379 . S
C433 N431 1.356 . S
N434 C426 1.356 . S
N434 H440 0.984 . S
N434 H441 0.984 . S
N435 C428 1.356 . S
N435 H438 0.984 . S
N435 H439 0.985 . S
H436 N431 0.984 . S
H437 N431 0.985 . S
H438 N435 0.984 . S
H439 N435 0.985 . S
H440 N434 0.984 . S
H441 N434 0.984 . S
H442 N430 0.984 . S
H443 N430 0.985 . S
C444 C445 1.363 . S
C444 C450 1.379 . S
C444 N452 1.356 . S
C445 C444 1.363 . S
C445 C451 1.363 . S
C446 C447 1.363 . S
C446 C451 1.379 . S
C446 N453 1.356 . S
C447 C446 1.363 . S
C447 C450 1.363 . S
N448 C450 1.356 . S
N448 H460 0.984 . S
N448 H461 0.985 . S
N449 C451 1.356 . S
N449 H454 0.984 . S
N449 H455 0.985 . S
C450 C444 1.379 . S
C450 C447 1.363 . S
C450 N448 1.356 . S
C451 C445 1.363 . S
C451 C446 1.379 . S
C451 N449 1.356 . S
N452 C444 1.356 . S
N452 H458 0.984 . S
N452 H459 0.984 . S
N453 C446 1.356 . S
N453 H456 0.984 . S
N453 H457 0.985 . S
H454 N449 0.984 . S
H455 N449 0.985 . S
H456 N453 0.984 . S
H457 N453 0.985 . S
H458 N452 0.984 . S
H459 N452 0.984 . S
H460 N448 0.984 . S
H461 N448 0.985 . S
C462 C463 1.363 . S
C462 C468 1.379 . S
C462 N470 1.356 . S
C463 C462 1.363 . S
C463 C469 1.363 . S
C464 C465 1.363 . S
C464 C469 1.379 . S
C464 N471 1.356 . S
C465 C464 1.363 . S
C465 C468 1.363 . S
N466 C468 1.356 . S
N466 H478 0.984 . S
N466 H479 0.985 . S
N467 C469 1.356 . S
N467 H472 0.984 . S
N467 H473 0.985 . S
C468 C462 1.379 . S
C468 C465 1.363 . S
C468 N466 1.356 . S
C469 C463 1.363 . S
C469 C464 1.379 . S
C469 N467 1.356 . S
N470 C462 1.356 . S
N470 H476 0.984 . S
N470 H477 0.984 . S
N471 C464 1.356 . S
N471 H474 0.984 . S
N471 H475 0.985 . S
H472 N467 0.984 . S
H473 N467 0.985 . S
H474 N471 0.984 . S
H475 N471 0.985 . S
H476 N470 0.984 . S
H477 N470 0.984 . S
H478 N466 0.984 . S
H479 N466 0.985 . S
C480 C481 1.363 . S
C480 C486 1.379 . S
C480 N488 1.356 . S
C481 C480 1.363 . S
C481 C487 1.363 . S
C482 C483 1.363 . S
C482 C487 1.379 . S
C482 N489 1.356 . S
C483 C482 1.363 . S
C483 C486 1.363 . S
N484 C486 1.356 . S
N484 H496 0.984 . S
N484 H497 0.985 . S
N485 C487 1.356 . S
N485 H490 0.984 . S
N485 H491 0.985 . S
C486 C480 1.379 . S
C486 C483 1.363 . S
C486 N484 1.356 . S
C487 C481 1.363 . S
C487 C482 1.379 . S
C487 N485 1.356 . S
N488 C480 1.356 . S
N488 H494 0.984 . S
N488 H495 0.984 . S
N489 C482 1.356 . S
N489 H492 0.984 . S
N489 H493 0.985 . S
H490 N485 0.984 . S
H491 N485 0.985 . S
H492 N489 0.984 . S
H493 N489 0.985 . S
H494 N488 0.984 . S
H495 N488 0.984 . S
H496 N484 0.984 . S
H497 N484 0.985 . S
C498 C499 1.363 . S
C498 C504 1.379 . S
C498 N506 1.356 . S
C499 C498 1.363 . S
C499 C505 1.363 . S
C500 C501 1.363 . S
C500 C505 1.379 . S
C500 N507 1.356 . S
C501 C500 1.363 . S
C501 C504 1.363 . S
N502 C504 1.356 . S
N502 H514 0.984 . S
N502 H515 0.985 . S
N503 C505 1.356 . S
N503 H508 0.984 . S
N503 H509 0.985 . S
C504 C498 1.379 . S
C504 C501 1.363 . S
C504 N502 1.356 . S
C505 C499 1.363 . S
C505 C500 1.379 . S
C505 N503 1.356 . S
N506 C498 1.356 . S
N506 H512 0.984 . S
N506 H513 0.984 . S
N507 C500 1.356 . S
N507 H510 0.984 . S
N507 H511 0.985 . S
H508 N503 0.984 . S
H509 N503 0.985 . S
H510 N507 0.984 . S
H511 N507 0.985 . S
H512 N506 0.984 . S
H513 N506 0.984 . S
H514 N502 0.984 . S
H515 N502 0.985 . S
C516 C517 1.363 . S
C516 C522 1.379 . S
C516 N524 1.356 . S
C517 C516 1.363 . S
C517 C523 1.363 . S
C518 C519 1.363 . S
C518 C523 1.379 . S
C518 N525 1.356 . S
C519 C518 1.363 . S
C519 C522 1.363 . S
N520 C522 1.356 . S
N520 H532 0.984 . S
N520 H533 0.985 . S
N521 C523 1.356 . S
N521 H526 0.984 . S
N521 H527 0.985 . S
C522 C516 1.379 . S
C522 C519 1.363 . S
C522 N520 1.356 . S
C523 C517 1.363 . S
C523 C518 1.379 . S
C523 N521 1.356 . S
N524 C516 1.356 . S
N524 H530 0.984 . S
N524 H531 0.984 . S
N525 C518 1.356 . S
N525 H528 0.984 . S
N525 H529 0.985 . S
H526 N521 0.984 . S
H527 N521 0.985 . S
H528 N525 0.984 . S
H529 N525 0.985 . S
H530 N524 0.984 . S
H531 N524 0.984 . S
H532 N520 0.984 . S
H533 N520 0.985 . S
C534 C535 1.363 . S
C534 C540 1.379 . S
C534 N542 1.356 . S
C535 C534 1.363 . S
C535 C541 1.363 . S
C536 C537 1.363 . S
C536 C541 1.379 . S
C536 N543 1.356 . S
C537 C536 1.363 . S
C537 C540 1.363 . S
N538 C540 1.356 . S
N538 H550 0.984 . S
N538 H551 0.985 . S
N539 C541 1.356 . S
N539 H544 0.984 . S
N539 H545 0.985 . S
C540 C534 1.379 . S
C540 C537 1.363 . S
C540 N538 1.356 . S
C541 C535 1.363 . S
C541 C536 1.379 . S
C541 N539 1.356 . S
N542 C534 1.356 . S
N542 H548 0.984 . S
N542 H549 0.984 . S
N543 C536 1.356 . S
N543 H546 0.984 . S
N543 H547 0.985 . S
H544 N539 0.984 . S
H545 N539 0.985 . S
H546 N543 0.984 . S
H547 N543 0.985 . S
H548 N542 0.984 . S
H549 N542 0.984 . S
H550 N538 0.984 . S
H551 N538 0.985 . S
C552 C553 1.363 . S
C552 C558 1.379 . S
C552 N560 1.356 . S
C553 C552 1.363 . S
C553 C559 1.363 . S
C554 C555 1.363 . S
C554 C559 1.379 . S
C554 N561 1.356 . S
C555 C554 1.363 . S
C555 C558 1.363 . S
N556 C558 1.356 . S
N556 H568 0.984 . S
N556 H569 0.985 . S
N557 C559 1.356 . S
N557 H562 0.984 . S
N557 H563 0.985 . S
C558 C552 1.379 . S
C558 C555 1.363 . S
C558 N556 1.356 . S
C559 C553 1.363 . S
C559 C554 1.379 . S
C559 N557 1.356 . S
N560 C552 1.356 . S
N560 H566 0.984 . S
N560 H567 0.984 . S
N561 C554 1.356 . S
N561 H564 0.984 . S
N561 H565 0.985 . S
H562 N557 0.984 . S
H563 N557 0.985 . S
H564 N561 0.984 . S
H565 N561 0.985 . S
H566 N560 0.984 . S
H567 N560 0.984 . S
H568 N556 0.984 . S
H569 N556 0.985 . S
C570 C571 1.363 . S
C570 C576 1.379 . S
C570 N578 1.356 . S
C571 C570 1.363 . S
C571 C577 1.363 . S
C572 C573 1.363 . S
C572 C577 1.379 . S
C572 N579 1.356 . S
C573 C572 1.363 . S
C573 C576 1.363 . S
N574 C576 1.356 . S
N574 H586 0.984 . S
N574 H587 0.985 . S
N575 C577 1.356 . S
N575 H580 0.984 . S
N575 H581 0.985 . S
C576 C570 1.379 . S
C576 C573 1.363 . S
C576 N574 1.356 . S
C577 C571 1.363 . S
C577 C572 1.379 . S
C577 N575 1.356 . S
N578 C570 1.356 . S
N578 H584 0.984 . S
N578 H585 0.984 . S
N579 C572 1.356 . S
N579 H582 0.984 . S
N579 H583 0.985 . S
H580 N575 0.984 . S
H581 N575 0.985 . S
H582 N579 0.984 . S
H583 N579 0.985 . S
H584 N578 0.984 . S
H585 N578 0.984 . S
H586 N574 0.984 . S
H587 N574 0.985 . S
C588 C589 1.363 . S
C588 C594 1.379 . S
C588 N596 1.356 . S
C589 C588 1.363 . S
C589 C595 1.363 . S
C590 C591 1.363 . S
C590 C595 1.379 . S
C590 N597 1.356 . S
C591 C590 1.363 . S
C591 C594 1.363 . S
N592 C594 1.356 . S
N592 H604 0.984 . S
N592 H605 0.985 . S
N593 C595 1.356 . S
N593 H598 0.984 . S
N593 H599 0.985 . S
C594 C588 1.379 . S
C594 C591 1.363 . S
C594 N592 1.356 . S
C595 C589 1.363 . S
C595 C590 1.379 . S
C595 N593 1.356 . S
N596 C588 1.356 . S
N596 H602 0.984 . S
N596 H603 0.984 . S
N597 C590 1.356 . S
N597 H600 0.984 . S
N597 H601 0.985 . S
H598 N593 0.984 . S
H599 N593 0.985 . S
H600 N597 0.984 . S
H601 N597 0.985 . S
H602 N596 0.984 . S
H603 N596 0.984 . S
H604 N592 0.984 . S
H605 N592 0.985 . S
C606 C607 1.363 . S
C606 C612 1.379 . S
C606 N614 1.356 . S
C607 C606 1.363 . S
C607 C613 1.363 . S
C608 C609 1.363 . S
C608 C613 1.379 . S
C608 N615 1.356 . S
C609 C608 1.363 . S
C609 C612 1.363 . S
N610 C612 1.356 . S
N610 H622 0.984 . S
N610 H623 0.985 . S
N611 C613 1.356 . S
N611 H616 0.984 . S
N611 H617 0.985 . S
C612 C606 1.379 . S
C612 C609 1.363 . S
C612 N610 1.356 . S
C613 C607 1.363 . S
C613 C608 1.379 . S
C613 N611 1.356 . S
N614 C606 1.356 . S
N614 H620 0.984 . S
N614 H621 0.984 . S
N615 C608 1.356 . S
N615 H618 0.984 . S
N615 H619 0.985 . S
H616 N611 0.984 . S
H617 N611 0.985 . S
H618 N615 0.984 . S
H619 N615 0.985 . S
H620 N614 0.984 . S
H621 N614 0.984 . S
H622 N610 0.984 . S
H623 N610 0.985 . S
C624 C625 1.363 . S
C624 C630 1.379 . S
C624 N632 1.356 . S
C625 C624 1.363 . S
C625 C631 1.363 . S
C626 C627 1.363 . S
C626 C631 1.379 . S
C626 N633 1.356 . S
C627 C626 1.363 . S
C627 C630 1.363 . S
N628 C630 1.356 . S
N628 H640 0.984 . S
N628 H641 0.985 . S
N629 C631 1.356 . S
N629 H634 0.984 . S
N629 H635 0.985 . S
C630 C624 1.379 . S
C630 C627 1.363 . S
C630 N628 1.356 . S
C631 C625 1.363 . S
C631 C626 1.379 . S
C631 N629 1.356 . S
N632 C624 1.356 . S
N632 H638 0.984 . S
N632 H639 0.984 . S
N633 C626 1.356 . S
N633 H636 0.984 . S
N633 H637 0.985 . S
H634 N629 0.984 . S
H635 N629 0.985 . S
H636 N633 0.984 . S
H637 N633 0.985 . S
H638 N632 0.984 . S
H639 N632 0.984 . S
H640 N628 0.984 . S
H641 N628 0.985 . S
C642 C643 1.363 . S
C642 C648 1.379 . S
C642 N650 1.356 . S
C643 C642 1.363 . S
C643 C649 1.363 . S
C644 C645 1.363 . S
C644 C649 1.379 . S
C644 N651 1.356 . S
C645 C644 1.363 . S
C645 C648 1.363 . S
N646 C648 1.356 . S
N646 H658 0.984 . S
N646 H659 0.985 . S
N647 C649 1.356 . S
N647 H652 0.984 . S
N647 H653 0.985 . S
C648 C642 1.379 . S
C648 C645 1.363 . S
C648 N646 1.356 . S
C649 C643 1.363 . S
C649 C644 1.379 . S
C649 N647 1.356 . S
N650 C642 1.356 . S
N650 H656 0.984 . S
N650 H657 0.984 . S
N651 C644 1.356 . S
N651 H654 0.984 . S
N651 H655 0.985 . S
H652 N647 0.984 . S
H653 N647 0.985 . S
H654 N651 0.984 . S
H655 N651 0.985 . S
H656 N650 0.984 . S
H657 N650 0.984 . S
H658 N646 0.984 . S
H659 N646 0.985 . S
C660 C661 1.363 . S
C660 C666 1.379 . S
C660 N668 1.356 . S
C661 C660 1.363 . S
C661 C667 1.363 . S
C662 C663 1.363 . S
C662 C667 1.379 . S
C662 N669 1.356 . S
C663 C662 1.363 . S
C663 C666 1.363 . S
N664 C666 1.356 . S
N664 H676 0.984 . S
N664 H677 0.985 . S
N665 C667 1.356 . S
N665 H670 0.984 . S
N665 H671 0.985 . S
C666 C660 1.379 . S
C666 C663 1.363 . S
C666 N664 1.356 . S
C667 C661 1.363 . S
C667 C662 1.379 . S
C667 N665 1.356 . S
N668 C660 1.356 . S
N668 H674 0.984 . S
N668 H675 0.984 . S
N669 C662 1.356 . S
N669 H672 0.984 . S
N669 H673 0.985 . S
H670 N665 0.984 . S
H671 N665 0.985 . S
H672 N669 0.984 . S
H673 N669 0.985 . S
H674 N668 0.984 . S
H675 N668 0.984 . S
H676 N664 0.984 . S
H677 N664 0.985 . S
C678 C679 1.363 . S
C678 C684 1.379 . S
C678 N686 1.356 . S
C679 C678 1.363 . S
C679 C685 1.363 . S
C680 C681 1.363 . S
C680 C685 1.379 . S
C680 N687 1.356 . S
C681 C680 1.363 . S
C681 C684 1.363 . S
N682 C684 1.356 . S
N682 H694 0.984 . S
N682 H695 0.985 . S
N683 C685 1.356 . S
N683 H688 0.984 . S
N683 H689 0.985 . S
C684 C678 1.379 . S
C684 C681 1.363 . S
C684 N682 1.356 . S
C685 C679 1.363 . S
C685 C680 1.379 . S
C685 N683 1.356 . S
N686 C678 1.356 . S
N686 H692 0.984 . S
N686 H693 0.984 . S
N687 C680 1.356 . S
N687 H690 0.984 . S
N687 H691 0.985 . S
H688 N683 0.984 . S
H689 N683 0.985 . S
H690 N687 0.984 . S
H691 N687 0.985 . S
H692 N686 0.984 . S
H693 N686 0.984 . S
H694 N682 0.984 . S
H695 N682 0.985 . S
C696 C697 1.363 . S
C696 C702 1.379 . S
C696 N704 1.356 . S
C697 C696 1.363 . S
C697 C703 1.363 . S
C698 C699 1.363 . S
C698 C703 1.379 . S
C698 N705 1.356 . S
C699 C698 1.363 . S
C699 C702 1.363 . S
N700 C702 1.356 . S
N700 H712 0.984 . S
N700 H713 0.985 . S
N701 C703 1.356 . S
N701 H706 0.984 . S
N701 H707 0.985 . S
C702 C696 1.379 . S
C702 C699 1.363 . S
C702 N700 1.356 . S
C703 C697 1.363 . S
C703 C698 1.379 . S
C703 N701 1.356 . S
N704 C696 1.356 . S
N704 H710 0.984 . S
N704 H711 0.984 . S
N705 C698 1.356 . S
N705 H708 0.984 . S
N705 H709 0.985 . S
H706 N701 0.984 . S
H707 N701 0.985 . S
H708 N705 0.984 . S
H709 N705 0.985 . S
H710 N704 0.984 . S
H711 N704 0.984 . S
H712 N700 0.984 . S
H713 N700 0.985 . S
C714 C715 1.363 . S
C714 C720 1.379 . S
C714 N722 1.356 . S
C715 C714 1.363 . S
C715 C721 1.363 . S
C716 C717 1.363 . S
C716 C721 1.379 . S
C716 N723 1.356 . S
C717 C716 1.363 . S
C717 C720 1.363 . S
N718 C720 1.356 . S
N718 H730 0.984 . S
N718 H731 0.985 . S
N719 C721 1.356 . S
N719 H724 0.984 . S
N719 H725 0.985 . S
C720 C714 1.379 . S
C720 C717 1.363 . S
C720 N718 1.356 . S
C721 C715 1.363 . S
C721 C716 1.379 . S
C721 N719 1.356 . S
N722 C714 1.356 . S
N722 H728 0.984 . S
N722 H729 0.984 . S
N723 C716 1.356 . S
N723 H726 0.984 . S
N723 H727 0.985 . S
H724 N719 0.984 . S
H725 N719 0.985 . S
H726 N723 0.984 . S
H727 N723 0.985 . S
H728 N722 0.984 . S
H729 N722 0.984 . S
H730 N718 0.984 . S
H731 N718 0.985 . S
C732 C733 1.363 . S
C732 C738 1.379 . S
C732 N740 1.356 . S
C733 C732 1.363 . S
C733 C739 1.363 . S
C734 C735 1.363 . S
C734 C739 1.379 . S
C734 N741 1.356 . S
C735 C734 1.363 . S
C735 C738 1.363 . S
N736 C738 1.356 . S
N736 H748 0.984 . S
N736 H749 0.985 . S
N737 C739 1.356 . S
N737 H742 0.984 . S
N737 H743 0.985 . S
C738 C732 1.379 . S
C738 C735 1.363 . S
C738 N736 1.356 . S
C739 C733 1.363 . S
C739 C734 1.379 . S
C739 N737 1.356 . S
N740 C732 1.356 . S
N740 H746 0.984 . S
N740 H747 0.984 . S
N741 C734 1.356 . S
N741 H744 0.984 . S
N741 H745 0.985 . S
H742 N737 0.984 . S
H743 N737 0.985 . S
H744 N741 0.984 . S
H745 N741 0.985 . S
H746 N740 0.984 . S
H747 N740 0.984 . S
H748 N736 0.984 . S
H749 N736 0.985 . S
C750 C751 1.363 . S
C750 C756 1.379 . S
C750 N758 1.356 . S
C751 C750 1.363 . S
C751 C757 1.363 . S
C752 C753 1.363 . S
C752 C757 1.379 . S
C752 N759 1.356 . S
C753 C752 1.363 . S
C753 C756 1.363 . S
N754 C756 1.356 . S
N754 H766 0.984 . S
N754 H767 0.985 . S
N755 C757 1.356 . S
N755 H760 0.984 . S
N755 H761 0.985 . S
C756 C750 1.379 . S
C756 C753 1.363 . S
C756 N754 1.356 . S
C757 C751 1.363 . S
C757 C752 1.379 . S
C757 N755 1.356 . S
N758 C750 1.356 . S
N758 H764 0.984 . S
N758 H765 0.984 . S
N759 C752 1.356 . S
N759 H762 0.984 . S
N759 H763 0.985 . S
H760 N755 0.984 . S
H761 N755 0.985 . S
H762 N759 0.984 . S
H763 N759 0.985 . S
H764 N758 0.984 . S
H765 N758 0.984 . S
H766 N754 0.984 . S
H767 N754 0.985 . S
C768 C769 1.363 . S
C768 C774 1.379 . S
C768 N776 1.356 . S
C769 C768 1.363 . S
C769 C775 1.363 . S
C770 C771 1.363 . S
C770 C775 1.379 . S
C770 N777 1.356 . S
C771 C770 1.363 . S
C771 C774 1.363 . S
N772 C774 1.356 . S
N772 H784 0.984 . S
N772 H785 0.985 . S
N773 C775 1.356 . S
N773 H778 0.984 . S
N773 H779 0.985 . S
C774 C768 1.379 . S
C774 C771 1.363 . S
C774 N772 1.356 . S
C775 C769 1.363 . S
C775 C770 1.379 . S
C775 N773 1.356 . S
N776 C768 1.356 . S
N776 H782 0.984 . S
N776 H783 0.984 . S
N777 C770 1.356 . S
N777 H780 0.984 . S
N777 H781 0.985 . S
H778 N773 0.984 . S
H779 N773 0.985 . S
H780 N777 0.984 . S
H781 N777 0.985 . S
H782 N776 0.984 . S
H783 N776 0.984 . S
H784 N772 0.984 . S
H785 N772 0.985 . S
C786 C787 1.363 1_556 S
C786 C792 1.379 . S
C786 N794 1.356 1_556 S
C787 C786 1.363 1_554 S
C787 C793 1.373 . S
C788 C789 1.363 . S
C788 C793 1.350 1_556 S
C788 N795 1.356 . S
C789 C788 1.363 . S
C789 C792 1.363 . S
N790 C792 1.356 . S
N790 H802 0.984 . S
N790 H803 0.985 . S
N791 C793 1.383 . S
N791 H796 0.984 . S
N791 H797 0.985 . S
C792 C786 1.379 . S
C792 C789 1.363 . S
C792 N790 1.356 . S
C793 C787 1.373 . S
C793 C788 1.350 1_554 S
C793 N791 1.383 . S
N794 C786 1.356 1_554 S
N794 H800 0.984 1_554 S
N794 H801 0.984 . S
N795 C788 1.356 . S
N795 H798 0.984 . S
N795 H799 0.985 . S
H796 N791 0.984 . S
H797 N791 0.985 . S
H798 N795 0.984 . S
H799 N795 0.985 . S
H800 N794 0.984 1_556 S
H801 N794 0.984 . S
H802 N790 0.984 . S
H803 N790 0.985 . S
C804 C805 1.363 . S
C804 C810 1.379 . S
C804 N812 1.356 . S
C805 C804 1.363 . S
C805 C811 1.363 . S
C806 C807 1.363 . S
C806 C811 1.379 . S
C806 N813 1.356 . S
C807 C806 1.363 . S
C807 C810 1.363 . S
N808 C810 1.356 . S
N808 H820 0.984 . S
N808 H821 0.985 . S
N809 C811 1.356 . S
N809 H814 0.984 . S
N809 H815 0.985 . S
C810 C804 1.379 . S
C810 C807 1.363 . S
C810 N808 1.356 . S
C811 C805 1.363 . S
C811 C806 1.379 . S
C811 N809 1.356 . S
N812 C804 1.356 . S
N812 H818 0.984 . S
N812 H819 0.984 . S
N813 C806 1.356 . S
N813 H816 0.984 . S
N813 H817 0.985 . S
H814 N809 0.984 . S
H815 N809 0.985 . S
H816 N813 0.984 . S
H817 N813 0.985 . S
H818 N812 0.984 . S
H819 N812 0.984 . S
H820 N808 0.984 . S
H821 N808 0.985 . S
C822 C823 1.363 . S
C822 C828 1.379 . S
C822 N830 1.356 . S
C823 C822 1.363 . S
C823 C829 1.363 . S
C824 C825 1.363 1_554 S
C824 C829 1.379 . S
C824 N831 1.356 1_554 S
C825 C824 1.363 1_556 S
C825 C828 1.363 1_556 S
N826 C828 1.356 1_556 S
N826 H838 0.984 . S
N826 H839 0.985 . S
N827 C829 1.356 . S
N827 H832 0.984 . S
N827 H833 0.985 . S
C828 C822 1.379 . S
C828 C825 1.363 1_554 S
C828 N826 1.356 1_554 S
C829 C823 1.363 . S
C829 C824 1.379 . S
C829 N827 1.356 . S
N830 C822 1.356 . S
N830 H836 0.984 . S
N830 H837 0.984 . S
N831 C824 1.356 1_556 S
N831 H834 0.984 . S
N831 H835 0.985 . S
H832 N827 0.984 . S
H833 N827 0.985 . S
H834 N831 0.984 . S
H835 N831 0.985 . S
H836 N830 0.984 . S
H837 N830 0.984 . S
H838 N826 0.984 . S
H839 N826 0.985 . S
C840 C841 1.363 . S
C840 C846 1.379 . S
C840 N848 1.356 . S
C841 C840 1.363 . S
C841 C847 1.363 . S
C842 C843 1.363 . S
C842 C847 1.379 . S
C842 N849 1.356 . S
C843 C842 1.363 . S
C843 C846 1.363 . S
N844 C846 1.356 . S
N844 H856 0.984 . S
N844 H857 0.985 . S
N845 C847 1.356 . S
N845 H850 0.984 . S
N845 H851 0.985 . S
C846 C840 1.379 . S
C846 C843 1.363 . S
C846 N844 1.356 . S
C847 C841 1.363 . S
C847 C842 1.379 . S
C847 N845 1.356 . S
N848 C840 1.356 . S
N848 H854 0.984 . S
N848 H855 0.984 . S
N849 C842 1.356 . S
N849 H852 0.984 . S
N849 H853 0.985 . S
H850 N845 0.984 . S
H851 N845 0.985 . S
H852 N849 0.984 . S
H853 N849 0.985 . S
H854 N848 0.984 . S
H855 N848 0.984 . S
H856 N844 0.984 . S
H857 N844 0.985 . S
C858 C859 1.363 1_455 S
C858 C864 1.379 . S
C858 N866 1.356 1_455 S
C859 C858 1.363 1_655 S
C859 C865 1.363 1_655 S
C860 C861 1.363 . S
C860 C865 1.379 . S
C860 N867 1.356 . S
C861 C860 1.363 . S
C861 C864 1.363 . S
N862 C864 1.356 . S
N862 H874 0.984 . S
N862 H875 0.985 . S
N863 C865 1.356 1_655 S
N863 H868 0.984 . S
N863 H869 0.985 . S
C864 C858 1.379 . S
C864 C861 1.363 . S
C864 N862 1.356 . S
C865 C859 1.363 1_455 S
C865 C860 1.379 . S
C865 N863 1.356 1_455 S
N866 C858 1.356 1_655 S
N866 H872 0.984 1_655 S
N866 H873 0.984 . S
N867 C860 1.356 . S
N867 H870 0.984 . S
N867 H871 0.985 . S
H868 N863 0.984 . S
H869 N863 0.985 . S
H870 N867 0.984 . S
H871 N867 0.985 . S
H872 N866 0.984 1_455 S
H873 N866 0.984 . S
H874 N862 0.984 . S
H875 N862 0.985 . S
C876 C877 1.363 1_655 S
C876 C882 1.379 . S
C876 N884 1.356 1_655 S
C877 C876 1.363 1_455 S
C877 C883 1.363 1_455 S
C878 C879 1.363 . S
C878 C883 1.379 . S
C878 N885 1.356 . S
C879 C878 1.363 . S
C879 C882 1.363 . S
N880 C882 1.356 . S
N880 H892 0.984 . S
N880 H893 0.985 . S
N881 C883 1.356 1_455 S
N881 H886 0.984 . S
N881 H887 0.985 . S
C882 C876 1.379 . S
C882 C879 1.363 . S
C882 N880 1.356 . S
C883 C877 1.363 1_655 S
C883 C878 1.379 . S
C883 N881 1.356 1_655 S
N884 C876 1.356 1_455 S
N884 H890 0.984 . S
N884 H891 0.984 . S
N885 C878 1.356 . S
N885 H888 0.984 . S
N885 H889 0.985 . S
H886 N881 0.984 . S
H887 N881 0.985 . S
H888 N885 0.984 . S
H889 N885 0.985 . S
H890 N884 0.984 . S
H891 N884 0.984 . S
H892 N880 0.984 . S
H893 N880 0.985 . S
C894 C895 1.363 . S
C894 C900 1.379 . S
C894 N902 1.356 . S
C895 C894 1.363 . S
C895 C901 1.363 . S
C896 C897 1.363 . S
C896 C901 1.379 . S
C896 N903 1.356 . S
C897 C896 1.363 . S
C897 C900 1.363 . S
N898 C900 1.356 . S
N898 H910 0.984 . S
N898 H911 0.985 . S
N899 C901 1.356 . S
N899 H904 0.984 . S
N899 H905 0.985 . S
C900 C894 1.379 . S
C900 C897 1.363 . S
C900 N898 1.356 . S
C901 C895 1.363 . S
C901 C896 1.379 . S
C901 N899 1.356 . S
N902 C894 1.356 . S
N902 H908 0.984 . S
N902 H909 0.984 . S
N903 C896 1.356 . S
N903 H906 0.984 . S
N903 H907 0.985 . S
H904 N899 0.984 . S
H905 N899 0.985 . S
H906 N903 0.984 . S
H907 N903 0.985 . S
H908 N902 0.984 . S
H909 N902 0.984 . S
H910 N898 0.984 . S
H911 N898 0.985 . S
C912 C913 1.363 . S
C912 C918 1.379 . S
C912 N920 1.356 . S
C913 C912 1.363 . S
C913 C919 1.363 . S
C914 C915 1.363 . S
C914 C919 1.379 . S
C914 N921 1.356 . S
C915 C914 1.363 . S
C915 C918 1.363 . S
N916 C918 1.356 . S
N916 H928 0.984 . S
N916 H929 0.985 . S
N917 C919 1.356 . S
N917 H922 0.984 . S
N917 H923 0.985 . S
C918 C912 1.379 . S
C918 C915 1.363 . S
C918 N916 1.356 . S
C919 C913 1.363 . S
C919 C914 1.379 . S
C919 N917 1.356 . S
N920 C912 1.356 . S
N920 H926 0.984 . S
N920 H927 0.984 . S
N921 C914 1.356 . S
N921 H924 0.984 . S
N921 H925 0.985 . S
H922 N917 0.984 . S
H923 N917 0.985 . S
H924 N921 0.984 . S
H925 N921 0.985 . S
H926 N920 0.984 . S
H927 N920 0.984 . S
H928 N916 0.984 . S
H929 N916 0.985 . S
C930 C931 1.363 1_545 S
C930 C936 1.379 . S
C930 N938 1.356 1_545 S
C931 C930 1.363 1_565 S
C931 C937 1.363 1_565 S
C932 C933 1.363 . S
C932 C937 1.379 . S
C932 N939 1.356 . S
C933 C932 1.363 . S
C933 C936 1.363 . S
N934 C936 1.356 . S
N934 H946 0.984 . S
N934 H947 0.985 . S
N935 C937 1.356 1_565 S
N935 H940 0.984 . S
N935 H941 0.985 . S
C936 C930 1.379 . S
C936 C933 1.363 . S
C936 N934 1.356 . S
C937 C931 1.363 1_545 S
C937 C932 1.379 . S
C937 N935 1.356 1_545 S
N938 C930 1.356 1_565 S
N938 H944 0.984 . S
N938 H945 0.984 . S
N939 C932 1.356 . S
N939 H942 0.984 . S
N939 H943 0.985 . S
H940 N935 0.984 . S
H941 N935 0.985 . S
H942 N939 0.984 . S
H943 N939 0.985 . S
H944 N938 0.984 . S
H945 N938 0.984 . S
H946 N934 0.984 . S
H947 N934 0.985 . S
C948 C949 1.363 1_565 S
C948 C954 1.379 . S
C948 N956 1.356 1_565 S
C949 C948 1.363 1_545 S
C949 C955 1.363 1_545 S
C950 C951 1.363 . S
C950 C955 1.379 . S
C950 N957 1.356 . S
C951 C950 1.363 . S
C951 C954 1.363 . S
N952 C954 1.356 . S
N952 H964 0.984 . S
N952 H965 0.985 . S
N953 C955 1.356 1_545 S
N953 H958 0.984 . S
N953 H959 0.985 . S
C954 C948 1.379 . S
C954 C951 1.363 . S
C954 N952 1.356 . S
C955 C949 1.363 1_565 S
C955 C950 1.379 . S
C955 N953 1.356 1_565 S
N956 C948 1.356 1_545 S
N956 H962 0.984 . S
N956 H963 0.984 . S
N957 C950 1.356 . S
N957 H960 0.984 . S
N957 H961 0.985 . S
H958 N953 0.984 . S
H959 N953 0.985 . S
H960 N957 0.984 . S
H961 N957 0.985 . S
H962 N956 0.984 . S
H963 N956 0.984 . S
H964 N952 0.984 . S
H965 N952 0.985 . S
C966 C967 1.363 . S
C966 C972 1.379 . S
C966 N974 1.356 . S
C967 C966 1.363 . S
C967 C973 1.363 . S
C968 C969 1.363 . S
C968 C973 1.379 . S
C968 N975 1.356 . S
C969 C968 1.363 . S
C969 C972 1.363 . S
N970 C972 1.356 . S
N970 H982 0.984 . S
N970 H983 0.985 . S
N971 C973 1.356 . S
N971 H976 0.984 . S
N971 H977 0.985 . S
C972 C966 1.379 . S
C972 C969 1.363 . S
C972 N970 1.356 . S
C973 C967 1.363 . S
C973 C968 1.379 . S
C973 N971 1.356 . S
N974 C966 1.356 . S
N974 H980 0.984 . S
N974 H981 0.984 . S
N975 C968 1.356 . S
N975 H978 0.984 . S
N975 H979 0.985 . S
H976 N971 0.984 . S
H977 N971 0.985 . S
H978 N975 0.984 . S
H979 N975 0.985 . S
H980 N974 0.984 . S
H981 N974 0.984 . S
H982 N970 0.984 . S
H983 N970 0.985 . S
C984 C985 1.363 . S
C984 C990 1.379 . S
C984 N992 1.356 . S
C985 C984 1.363 . S
C985 C991 1.363 . S
C986 C987 1.363 . S
C986 C991 1.379 . S
C986 N993 1.356 . S
C987 C986 1.363 . S
C987 C990 1.363 . S
N988 C990 1.356 . S
N988 H1000 0.984 . S
N988 H1001 0.985 . S
N989 C991 1.356 . S
N989 H994 0.984 . S
N989 H995 0.985 . S
C990 C984 1.379 . S
C990 C987 1.363 . S
C990 N988 1.356 . S
C991 C985 1.363 . S
C991 C986 1.379 . S
C991 N989 1.356 . S
N992 C984 1.356 . S
N992 H998 0.984 . S
N992 H999 0.984 . S
N993 C986 1.356 . S
N993 H996 0.984 . S
N993 H997 0.985 . S
H994 N989 0.984 . S
H995 N989 0.985 . S
H996 N993 0.984 . S
H997 N993 0.985 . S
H998 N992 0.984 . S
H999 N992 0.984 . S
H1000 N988 0.984 . S
H1001 N988 0.985 . S
C1002 C1003 1.363 1_554 S
C1002 C1008 1.379 . S
C1002 N1010 1.356 1_554 S
C1003 C1002 1.363 1_556 S
C1003 C1009 1.363 1_556 S
C1004 C1005 1.363 . S
C1004 C1009 1.379 . S
C1004 N1011 1.356 . S
C1005 C1004 1.363 . S
C1005 C1008 1.363 . S
N1006 C1008 1.356 . S
N1006 H1018 0.984 . S
N1006 H1019 0.985 . S
N1007 C1009 1.356 1_556 S
N1007 H1012 0.984 . S
N1007 H1013 0.985 . S
C1008 C1002 1.379 . S
C1008 C1005 1.363 . S
C1008 N1006 1.356 . S
C1009 C1003 1.363 1_554 S
C1009 C1004 1.379 . S
C1009 N1007 1.356 1_554 S
N1010 C1002 1.356 1_556 S
N1010 H1016 0.984 . S
N1010 H1017 0.984 . S
N1011 C1004 1.356 . S
N1011 H1014 0.984 . S
N1011 H1015 0.985 . S
H1012 N1007 0.984 . S
H1013 N1007 0.985 . S
H1014 N1011 0.984 . S
H1015 N1011 0.985 . S
H1016 N1010 0.984 . S
H1017 N1010 0.984 . S
H1018 N1006 0.984 . S
H1019 N1006 0.985 . S
C1020 C1021 1.363 . S
C1020 C1026 1.379 . S
C1020 N1028 1.356 . S
C1021 C1020 1.363 . S
C1021 C1027 1.363 . S
C1022 C1023 1.363 . S
C1022 C1027 1.379 . S
C1022 N1029 1.356 . S
C1023 C1022 1.363 . S
C1023 C1026 1.363 . S
N1024 C1026 1.356 . S
N1024 H1036 0.984 . S
N1024 H1037 0.985 . S
N1025 C1027 1.356 . S
N1025 H1030 0.984 . S
N1025 H1031 0.985 . S
C1026 C1020 1.379 . S
C1026 C1023 1.363 . S
C1026 N1024 1.356 . S
C1027 C1021 1.363 . S
C1027 C1022 1.379 . S
C1027 N1025 1.356 . S
N1028 C1020 1.356 . S
N1028 H1034 0.984 . S
N1028 H1035 0.984 . S
N1029 C1022 1.356 . S
N1029 H1032 0.984 . S
N1029 H1033 0.985 . S
H1030 N1025 0.984 . S
H1031 N1025 0.985 . S
H1032 N1029 0.984 . S
H1033 N1029 0.985 . S
H1034 N1028 0.984 . S
H1035 N1028 0.984 . S
H1036 N1024 0.984 . S
H1037 N1024 0.985 . S
C1038 C1039 1.363 1_556 S
C1038 C1044 1.379 . S
C1038 N1046 1.356 1_556 S
C1039 C1038 1.363 1_554 S
C1039 C1045 1.363 1_554 S
C1040 C1041 1.363 . S
C1040 C1045 1.379 . S
C1040 N1047 1.356 . S
C1041 C1040 1.363 . S
C1041 C1044 1.363 . S
N1042 C1044 1.356 . S
N1042 H1054 0.984 . S
N1042 H1055 0.985 . S
N1043 C1045 1.356 1_554 S
N1043 H1048 0.984 . S
N1043 H1049 0.985 . S
C1044 C1038 1.379 . S
C1044 C1041 1.363 . S
C1044 N1042 1.356 . S
C1045 C1039 1.363 1_556 S
C1045 C1040 1.379 . S
C1045 N1043 1.356 1_556 S
N1046 C1038 1.356 1_554 S
N1046 H1052 0.983 1_554 S
N1046 H1053 0.984 . S
N1047 C1040 1.356 . S
N1047 H1050 0.984 . S
N1047 H1051 0.985 . S
H1048 N1043 0.984 . S
H1049 N1043 0.985 . S
H1050 N1047 0.984 . S
H1051 N1047 0.985 . S
H1052 N1046 0.983 1_556 S
H1053 N1046 0.984 . S
H1054 N1042 0.984 . S
H1055 N1042 0.985 . S
C1056 C1057 1.363 . S
C1056 C1062 1.379 . S
C1056 N1064 1.356 . S
C1057 C1056 1.363 . S
C1057 C1063 1.363 . S
C1058 C1059 1.363 . S
C1058 C1063 1.379 . S
C1058 N1065 1.356 . S
C1059 C1058 1.363 . S
C1059 C1062 1.363 . S
N1060 C1062 1.356 . S
N1060 H1072 0.984 . S
N1060 H1073 0.985 . S
N1061 C1063 1.356 . S
N1061 H1066 0.984 . S
N1061 H1067 0.985 . S
C1062 C1056 1.379 . S
C1062 C1059 1.363 . S
C1062 N1060 1.356 . S
C1063 C1057 1.363 . S
C1063 C1058 1.379 . S
C1063 N1061 1.356 . S
N1064 C1056 1.356 . S
N1064 H1070 0.984 . S
N1064 H1071 0.984 . S
N1065 C1058 1.356 . S
N1065 H1068 0.984 . S
N1065 H1069 0.985 . S
H1066 N1061 0.984 . S
H1067 N1061 0.985 . S
H1068 N1065 0.984 . S
H1069 N1065 0.985 . S
H1070 N1064 0.984 . S
H1071 N1064 0.984 . S
H1072 N1060 0.984 . S
H1073 N1060 0.985 . S
C1074 C1075 1.363 . S
C1074 C1080 1.379 . S
C1074 N1082 1.356 . S
C1075 C1074 1.363 . S
C1075 C1081 1.363 . S
C1076 C1077 1.363 1_655 S
C1076 C1081 1.379 . S
C1076 N1083 1.356 1_655 S
C1077 C1076 1.363 1_455 S
C1077 C1080 1.363 1_455 S
N1078 C1080 1.356 1_455 S
N1078 H1090 0.983 . S
N1078 H1091 0.985 . S
N1079 C1081 1.356 . S
N1079 H1084 0.984 . S
N1079 H1085 0.985 . S
C1080 C1074 1.379 . S
C1080 C1077 1.363 1_655 S
C1080 N1078 1.356 1_655 S
C1081 C1075 1.363 . S
C1081 C1076 1.379 . S
C1081 N1079 1.356 . S
N1082 C1074 1.356 . S
N1082 H1088 0.984 . S
N1082 H1089 0.984 . S
N1083 C1076 1.356 1_455 S
N1083 H1086 0.984 . S
N1083 H1087 0.985 . S
H1084 N1079 0.984 . S
H1085 N1079 0.985 . S
H1086 N1083 0.984 . S
H1087 N1083 0.985 . S
H1088 N1082 0.984 . S
H1089 N1082 0.984 . S
H1090 N1078 0.983 . S
H1091 N1078 0.985 . S
C1092 C1093 1.363 . S
C1092 C1098 1.379 . S
C1092 N1100 1.356 . S
C1093 C1092 1.363 . S
C1093 C1099 1.363 . S
C1094 C1095 1.363 . S
C1094 C1099 1.379 1_655 S
C1094 N1101 1.356 . S
C1095 C1094 1.363 . S
C1095 C1098 1.363 1_655 S
N1096 C1098 1.356 1_655 S
N1096 H1108 0.984 1_655 S
N1096 H1109 0.985 . S
N1097 C1099 1.356 . S
N1097 H1102 0.984 . S
N1097 H1103 0.985 . S
C1098 C1092 1.379 . S
C1098 C1095 1.363 1_455 S
C1098 N1096 1.356 1_455 S
C1099 C1093 1.363 . S
C1099 C1094 1.379 1_455 S
C1099 N1097 1.356 . S
N1100 C1092 1.356 . S
N1100 H1106 0.984 . S
N1100 H1107 0.984 . S
N1101 C1094 1.356 . S
N1101 H1104 0.984 . S
N1101 H1105 0.985 . S
H1102 N1097 0.984 . S
H1103 N1097 0.985 . S
H1104 N1101 0.984 . S
H1105 N1101 0.985 . S
H1106 N1100 0.984 . S
H1107 N1100 0.984 . S
H1108 N1096 0.984 1_455 S
H1109 N1096 0.985 . S
C1110 C1111 1.363 . S
C1110 C1116 1.379 . S
C1110 N1118 1.356 . S
C1111 C1110 1.363 . S
C1111 C1117 1.363 . S
C1112 C1113 1.363 . S
C1112 C1117 1.379 . S
C1112 N1119 1.356 . S
C1113 C1112 1.363 . S
C1113 C1116 1.363 . S
N1114 C1116 1.356 . S
N1114 H1126 0.984 . S
N1114 H1127 0.985 . S
N1115 C1117 1.356 . S
N1115 H1120 0.984 . S
N1115 H1121 0.985 . S
C1116 C1110 1.379 . S
C1116 C1113 1.363 . S
C1116 N1114 1.356 . S
C1117 C1111 1.363 . S
C1117 C1112 1.379 . S
C1117 N1115 1.356 . S
N1118 C1110 1.356 . S
N1118 H1124 0.984 . S
N1118 H1125 0.984 . S
N1119 C1112 1.356 . S
N1119 H1122 0.984 . S
N1119 H1123 0.985 . S
H1120 N1115 0.984 . S
H1121 N1115 0.985 . S
H1122 N1119 0.984 . S
H1123 N1119 0.985 . S
H1124 N1118 0.984 . S
H1125 N1118 0.984 . S
H1126 N1114 0.984 . S
H1127 N1114 0.985 . S
C1128 C1129 1.363 . S
C1128 C1134 1.379 . S
C1128 N1136 1.356 . S
C1129 C1128 1.363 . S
C1129 C1135 1.363 . S
C1130 C1131 1.363 . S
C1130 C1135 1.379 . S
C1130 N1137 1.356 . S
C1131 C1130 1.363 . S
C1131 C1134 1.363 . S
N1132 C1134 1.356 . S
N1132 H1144 0.984 . S
N1132 H1145 0.985 . S
N1133 C1135 1.356 . S
N1133 H1138 0.984 . S
N1133 H1139 0.985 . S
C1134 C1128 1.379 . S
C1134 C1131 1.363 . S
C1134 N1132 1.356 . S
C1135 C1129 1.363 . S
C1135 C1130 1.379 . S
C1135 N1133 1.356 . S
N1136 C1128 1.356 . S
N1136 H1142 0.984 . S
N1136 H1143 0.984 . S
N1137 C1130 1.356 . S
N1137 H1140 0.984 . S
N1137 H1141 0.985 . S
H1138 N1133 0.984 . S
H1139 N1133 0.985 . S
H1140 N1137 0.984 . S
H1141 N1137 0.985 . S
H1142 N1136 0.984 . S
H1143 N1136 0.984 . S
H1144 N1132 0.984 . S
H1145 N1132 0.985 . S
C1146 C1147 1.363 . S
C1146 C1152 1.379 . S
C1146 N1154 1.356 . S
C1147 C1146 1.363 . S
C1147 C1153 1.363 . S
C1148 C1149 1.363 1_565 S
C1148 C1153 1.379 . S
C1148 N1155 1.356 1_565 S
C1149 C1148 1.363 1_545 S
C1149 C1152 1.363 1_545 S
N1150 C1152 1.356 1_545 S
N1150 H1162 0.980 1_545 S
N1150 H1163 0.985 . S
N1151 C1153 1.356 . S
N1151 H1156 0.984 . S
N1151 H1157 0.985 . S
C1152 C1146 1.379 . S
C1152 C1149 1.363 1_565 S
C1152 N1150 1.356 1_565 S
C1153 C1147 1.363 . S
C1153 C1148 1.379 . S
C1153 N1151 1.356 . S
N1154 C1146 1.356 . S
N1154 H1160 0.984 . S
N1154 H1161 0.984 . S
N1155 C1148 1.356 1_545 S
N1155 H1158 0.984 . S
N1155 H1159 0.985 . S
H1156 N1151 0.984 . S
H1157 N1151 0.985 . S
H1158 N1155 0.984 . S
H1159 N1155 0.985 . S
H1160 N1154 0.984 . S
H1161 N1154 0.984 . S
H1162 N1150 0.980 1_565 S
H1163 N1150 0.985 . S
C1164 C1165 1.366 . S
C1164 C1170 1.367 1_565 S
C1164 N1172 1.367 . S
C1165 C1164 1.366 . S
C1165 C1171 1.363 1_565 S
C1166 C1167 1.363 . S
C1166 C1171 1.379 . S
C1166 N1173 1.356 . S
C1167 C1166 1.363 . S
C1167 C1170 1.363 . S
N1168 C1170 1.356 . S
N1168 H1180 0.984 . S
N1168 H1181 0.985 . S
N1169 C1171 1.356 1_565 S
N1169 H1174 0.984 . S
N1169 H1175 0.985 1_565 S
C1170 C1164 1.367 1_545 S
C1170 C1167 1.363 . S
C1170 N1168 1.356 . S
C1171 C1165 1.363 1_545 S
C1171 C1166 1.379 . S
C1171 N1169 1.356 1_545 S
N1172 C1164 1.367 . S
N1172 H1178 0.984 . S
N1172 H1179 0.984 . S
N1173 C1166 1.356 . S
N1173 H1176 0.984 . S
N1173 H1177 0.985 . S
H1174 N1169 0.984 . S
H1175 N1169 0.985 1_545 S
H1176 N1173 0.984 . S
H1177 N1173 0.985 . S
H1178 N1172 0.984 . S
H1179 N1172 0.984 . S
H1180 N1168 0.984 . S
H1181 N1168 0.985 . S
C1182 C1183 1.363 . S
C1182 C1188 1.379 . S
C1182 N1190 1.356 . S
C1183 C1182 1.363 . S
C1183 C1189 1.363 . S
C1184 C1185 1.363 . S
C1184 C1189 1.379 . S
C1184 N1191 1.356 . S
C1185 C1184 1.363 . S
C1185 C1188 1.363 . S
N1186 C1188 1.356 . S
N1186 H1198 0.984 . S
N1186 H1199 0.985 . S
N1187 C1189 1.356 . S
N1187 H1192 0.984 . S
N1187 H1193 0.985 . S
C1188 C1182 1.379 . S
C1188 C1185 1.363 . S
C1188 N1186 1.356 . S
C1189 C1183 1.363 . S
C1189 C1184 1.379 . S
C1189 N1187 1.356 . S
N1190 C1182 1.356 . S
N1190 H1196 0.984 . S
N1190 H1197 0.984 . S
N1191 C1184 1.356 . S
N1191 H1194 0.984 . S
N1191 H1195 0.985 . S
H1192 N1187 0.984 . S
H1193 N1187 0.985 . S
H1194 N1191 0.984 . S
H1195 N1191 0.985 . S
H1196 N1190 0.984 . S
H1197 N1190 0.984 . S
H1198 N1186 0.984 . S
H1199 N1186 0.985 . S
C337 C121 1.204 . S
C339 C3 1.221 . S
C355 C17 1.221 . S
C357 C163 1.204 . S
C373 C31 1.221 . S
C375 C135 1.204 . S
C391 C45 1.221 . S
C393 C149 1.204 . S
C409 C59 1.199 . S
C411 C9 1.178 . S
C427 C23 1.178 . S
C429 C73 1.199 . S
C445 C87 1.199 . S
C447 C37 1.178 . S
C463 C51 1.178 . S
C465 C101 1.199 . S
C481 C65 1.203 . S
C483 C115 1.223 . S
C499 C93 1.203 . S
C501 C129 1.223 . S
C517 C143 1.223 . S
C519 C107 1.203 . S
C535 C79 1.203 . S
C537 C157 1.223 . S
C553 C283 1.224 . S
C555 C171 1.210 . S
C571 C185 1.210 . S
C573 C325 1.224 . S
C589 C199 1.210 . S
C591 C297 1.224 . S
C607 C311 1.224 . S
C609 C213 1.210 . S
C625 C233 1.158 . S
C627 C177 1.176 . S
C643 C191 1.176 . S
C645 C247 1.158 . S
C661 C205 1.176 . S
C663 C261 1.158 . S
C679 C275 1.158 . S
C681 C219 1.176 . S
C697 C289 1.168 . S
C699 C227 1.196 . S
C715 C255 1.196 . S
C717 C303 1.168 . S
C733 C269 1.196 . S
C735 C317 1.168 . S
C751 C331 1.168 . S
C753 C241 1.196 . S
C769 C315 1.376 . S
C771 C7 1.393 . S
C787 C301 1.376 . S
C789 C21 1.393 . S
C805 C329 1.376 . S
C807 C35 1.393 . S
C823 C49 1.393 . S
C825 C287 1.376 . S
C841 C63 1.399 . S
C843 C190 1.413 . S
C859 C176 1.413 . S
C861 C77 1.399 . S
C877 C218 1.413 . S
C879 C91 1.399 . S
C895 C204 1.413 . S
C897 C105 1.399 . S
C913 C119 1.411 . S
C915 C259 1.387 . S
C931 C231 1.387 . S
C933 C133 1.411 . S
C949 C245 1.387 . S
C951 C147 1.411 . S
C967 C273 1.387 . S
C969 C161 1.411 . S
C985 C148 1.457 . S
C987 C175 1.434 . S
C1003 C134 1.457 . S
C1005 C189 1.434 . S
C1021 C203 1.434 . S
C1023 C162 1.457 . S
C1039 C120 1.457 . S
C1041 C217 1.434 . S
C1057 C232 1.469 . S
C1059 C22 1.466 . S
C1075 C246 1.469 . S
C1077 C8 1.466 . S
C1093 C260 1.469 . S
C1095 C50 1.466 . S
C1111 C274 1.469 . S
C1113 C36 1.466 . S
C1129 C288 1.444 . S
C1131 C92 1.440 . S
C1147 C302 1.444 . S
C1149 C64 1.440 . S
C1165 C78 1.440 . S
C1167 C316 1.444 . S
C1183 C330 1.444 . S
C1185 C106 1.440 . S
