# Generated by pormake.
# Topology lcy-a, (4)-cn, num edge types: 1
# Building blocks:
#     Node 0, Type 0, BuildingBlock: AZAVOO_clean_sbu_0, # of connection points: 4
#     Node 1, Type 0, BuildingBlock: AZAVOO_clean_sbu_0, # of connection points: 4
#     Node 2, Type 0, BuildingBlock: AZAVOO_clean_sbu_0, # of connection points: 4
#     Node 3, Type 0, BuildingBlock: AZAVOO_clean_sbu_0, # of connection points: 4
#     Node 4, Type 0, BuildingBlock: AZAVOO_clean_sbu_0, # of connection points: 4
#     Node 5, Type 0, BuildingBlock: AZAVOO_clean_sbu_0, # of connection points: 4
#     Node 6, Type 0, BuildingBlock: AZAVOO_clean_sbu_0, # of connection points: 4
#     Node 7, Type 0, BuildingBlock: AZAVOO_clean_sbu_0, # of connection points: 4
#     Node 8, Type 0, BuildingBlock: AZAVOO_clean_sbu_0, # of connection points: 4
#     Node 9, Type 0, BuildingBlock: AZAVOO_clean_sbu_0, # of connection points: 4
#     Node 10, Type 0, BuildingBlock: AZAVOO_clean_sbu_0, # of connection points: 4
#     Node 11, Type 0, BuildingBlock: AZAVOO_clean_sbu_0, # of connection points: 4
#     Node 12, Type 0, BuildingBlock: AZAVOO_clean_sbu_0, # of connection points: 4
#     Node 13, Type 0, BuildingBlock: AZAVOO_clean_sbu_0, # of connection points: 4
#     Node 14, Type 0, BuildingBlock: AZAVOO_clean_sbu_0, # of connection points: 4
#     Node 15, Type 0, BuildingBlock: AZAVOO_clean_sbu_0, # of connection points: 4
#     Node 16, Type 0, BuildingBlock: AZAVOO_clean_sbu_0, # of connection points: 4
#     Node 17, Type 0, BuildingBlock: AZAVOO_clean_sbu_0, # of connection points: 4
#     Node 18, Type 0, BuildingBlock: AZAVOO_clean_sbu_0, # of connection points: 4
#     Node 19, Type 0, BuildingBlock: AZAVOO_clean_sbu_0, # of connection points: 4
#     Node 20, Type 0, BuildingBlock: AZAVOO_clean_sbu_0, # of connection points: 4
#     Node 21, Type 0, BuildingBlock: AZAVOO_clean_sbu_0, # of connection points: 4
#     Node 22, Type 0, BuildingBlock: AZAVOO_clean_sbu_0, # of connection points: 4
#     Node 23, Type 0, BuildingBlock: AZAVOO_clean_sbu_0, # of connection points: 4
#     Edge 24, Type (0, 0), BuildingBlock: KIFKEQ_clean_linker_1, # of connection points: 2
#     Edge 25, Type (0, 0), BuildingBlock: KIFKEQ_clean_linker_1, # of connection points: 2
#     Edge 26, Type (0, 0), BuildingBlock: KIFKEQ_clean_linker_1, # of connection points: 2
#     Edge 27, Type (0, 0), BuildingBlock: KIFKEQ_clean_linker_1, # of connection points: 2
#     Edge 28, Type (0, 0), BuildingBlock: KIFKEQ_clean_linker_1, # of connection points: 2
#     Edge 29, Type (0, 0), BuildingBlock: KIFKEQ_clean_linker_1, # of connection points: 2
#     Edge 30, Type (0, 0), BuildingBlock: KIFKEQ_clean_linker_1, # of connection points: 2
#     Edge 31, Type (0, 0), BuildingBlock: KIFKEQ_clean_linker_1, # of connection points: 2
#     Edge 32, Type (0, 0), BuildingBlock: KIFKEQ_clean_linker_1, # of connection points: 2
#     Edge 33, Type (0, 0), BuildingBlock: KIFKEQ_clean_linker_1, # of connection points: 2
#     Edge 34, Type (0, 0), BuildingBlock: KIFKEQ_clean_linker_1, # of connection points: 2
#     Edge 35, Type (0, 0), BuildingBlock: KIFKEQ_clean_linker_1, # of connection points: 2
#     Edge 36, Type (0, 0), BuildingBlock: KIFKEQ_clean_linker_1, # of connection points: 2
#     Edge 37, Type (0, 0), BuildingBlock: KIFKEQ_clean_linker_1, # of connection points: 2
#     Edge 38, Type (0, 0), BuildingBlock: KIFKEQ_clean_linker_1, # of connection points: 2
#     Edge 39, Type (0, 0), BuildingBlock: KIFKEQ_clean_linker_1, # of connection points: 2
#     Edge 40, Type (0, 0), BuildingBlock: KIFKEQ_clean_linker_1, # of connection points: 2
#     Edge 41, Type (0, 0), BuildingBlock: KIFKEQ_clean_linker_1, # of connection points: 2
#     Edge 42, Type (0, 0), BuildingBlock: KIFKEQ_clean_linker_1, # of connection points: 2
#     Edge 43, Type (0, 0), BuildingBlock: KIFKEQ_clean_linker_1, # of connection points: 2
#     Edge 44, Type (0, 0), BuildingBlock: KIFKEQ_clean_linker_1, # of connection points: 2
#     Edge 45, Type (0, 0), BuildingBlock: KIFKEQ_clean_linker_1, # of connection points: 2
#     Edge 46, Type (0, 0), BuildingBlock: KIFKEQ_clean_linker_1, # of connection points: 2
#     Edge 47, Type (0, 0), BuildingBlock: KIFKEQ_clean_linker_1, # of connection points: 2
#     Edge 48, Type (0, 0), BuildingBlock: KIFKEQ_clean_linker_1, # of connection points: 2
#     Edge 49, Type (0, 0), BuildingBlock: KIFKEQ_clean_linker_1, # of connection points: 2
#     Edge 50, Type (0, 0), BuildingBlock: KIFKEQ_clean_linker_1, # of connection points: 2
#     Edge 51, Type (0, 0), BuildingBlock: KIFKEQ_clean_linker_1, # of connection points: 2
#     Edge 52, Type (0, 0), BuildingBlock: KIFKEQ_clean_linker_1, # of connection points: 2
#     Edge 53, Type (0, 0), BuildingBlock: KIFKEQ_clean_linker_1, # of connection points: 2
#     Edge 54, Type (0, 0), BuildingBlock: KIFKEQ_clean_linker_1, # of connection points: 2
#     Edge 55, Type (0, 0), BuildingBlock: KIFKEQ_clean_linker_1, # of connection points: 2
#     Edge 56, Type (0, 0), BuildingBlock: KIFKEQ_clean_linker_1, # of connection points: 2
#     Edge 57, Type (0, 0), BuildingBlock: KIFKEQ_clean_linker_1, # of connection points: 2
#     Edge 58, Type (0, 0), BuildingBlock: KIFKEQ_clean_linker_1, # of connection points: 2
#     Edge 59, Type (0, 0), BuildingBlock: KIFKEQ_clean_linker_1, # of connection points: 2
#     Edge 60, Type (0, 0), BuildingBlock: KIFKEQ_clean_linker_1, # of connection points: 2
#     Edge 61, Type (0, 0), BuildingBlock: KIFKEQ_clean_linker_1, # of connection points: 2
#     Edge 62, Type (0, 0), BuildingBlock: KIFKEQ_clean_linker_1, # of connection points: 2
#     Edge 63, Type (0, 0), BuildingBlock: KIFKEQ_clean_linker_1, # of connection points: 2
#     Edge 64, Type (0, 0), BuildingBlock: KIFKEQ_clean_linker_1, # of connection points: 2
#     Edge 65, Type (0, 0), BuildingBlock: KIFKEQ_clean_linker_1, # of connection points: 2
#     Edge 66, Type (0, 0), BuildingBlock: KIFKEQ_clean_linker_1, # of connection points: 2
#     Edge 67, Type (0, 0), BuildingBlock: KIFKEQ_clean_linker_1, # of connection points: 2
#     Edge 68, Type (0, 0), BuildingBlock: KIFKEQ_clean_linker_1, # of connection points: 2
#     Edge 69, Type (0, 0), BuildingBlock: KIFKEQ_clean_linker_1, # of connection points: 2
#     Edge 70, Type (0, 0), BuildingBlock: KIFKEQ_clean_linker_1, # of connection points: 2
#     Edge 71, Type (0, 0), BuildingBlock: KIFKEQ_clean_linker_1, # of connection points: 2
# Relax obj value: 0.406
# Max RMSD: 0.240
# Mean RMSD: 0.240
data_MOF--net-lcy-a--node1-AZAVOO_clean_sbu_0--edge1-KIFKEQ_clean_linker_1
_symmetry_space_group_name_H-M    P1
_symmetry_Int_Tables_number       1
_symmetry_cell_setting            triclinic
loop_
_symmetry_equiv_pos_as_xyz
'x, y, z'
_cell_length_a     56.451779
_cell_length_b     56.44772
_cell_length_c     56.448661
_cell_angle_alpha  89.988184
_cell_angle_beta   90.013624
_cell_angle_gamma 90.010867
loop_
_atom_site_label
_atom_site_type_symbol
_atom_site_fract_x
_atom_site_fract_y
_atom_site_fract_z
_atom_type_partial_charge
Mg0 Mg 0.17302 0.32505 0.38926 0.0
O1 O 0.2049 0.30304 0.37763 0.0
O2 O 0.22946 0.32574 0.35648 0.0
Mg3 Mg 0.21469 0.36366 0.35797 0.0
C4 C 0.2235 0.30565 0.36506 0.0
C5 C 0.14505 0.28099 0.40987 0.0
O6 O 0.13235 0.28394 0.39059 0.0
O7 O 0.1949 0.34173 0.41901 0.0
O8 O 0.21922 0.36518 0.39831 0.0
O9 O 0.15803 0.31674 0.35338 0.0
O10 O 0.17894 0.34881 0.36165 0.0
C11 C 0.2116 0.35697 0.41796 0.0
C12 C 0.16949 0.33523 0.34604 0.0
O13 O 0.16236 0.29481 0.41385 0.0
Mg14 Mg 0.92556 0.92296 0.6309 0.0
O15 O 0.94902 0.954 0.61929 0.0
O16 O 0.92827 0.97732 0.59496 0.0
Mg17 Mg 0.89018 0.96316 0.59425 0.0
C18 C 0.94757 0.97182 0.60543 0.0
C19 C 0.97324 0.90334 0.653 0.0
O20 O 0.97805 0.89885 0.63068 0.0
O21 O 0.90688 0.94659 0.65824 0.0
O22 O 0.88614 0.96993 0.63393 0.0
O23 O 0.93614 0.90595 0.59639 0.0
O24 O 0.90395 0.92761 0.60135 0.0
C25 C 0.89229 0.96355 0.65475 0.0
C26 C 0.91829 0.91708 0.58723 0.0
O27 O 0.95354 0.91286 0.65829 0.0
Mg28 Mg 0.32702 0.67622 0.87973 0.0
O29 O 0.29547 0.69863 0.86755 0.0
O30 O 0.27256 0.6771 0.84354 0.0
Mg31 Mg 0.28771 0.63935 0.84361 0.0
C32 C 0.27768 0.69664 0.85374 0.0
C33 C 0.35546 0.71684 0.90513 0.0
O34 O 0.37056 0.712 0.8881 0.0
O35 O 0.30372 0.65753 0.90736 0.0
O36 O 0.2809 0.63588 0.88335 0.0
O37 O 0.34392 0.68662 0.84519 0.0
O38 O 0.32302 0.65398 0.85056 0.0
C39 C 0.28708 0.64252 0.90407 0.0
C40 C 0.33325 0.66838 0.83626 0.0
O41 O 0.33619 0.70526 0.90629 0.0
Mg42 Mg 0.57015 0.06948 0.13715 0.0
O43 O 0.5473 0.03838 0.1249 0.0
O44 O 0.56978 0.01287 0.10472 0.0
Mg45 Mg 0.60815 0.02635 0.10726 0.0
C46 C 0.54964 0.01962 0.11251 0.0
C47 C 0.53438 0.10288 0.16397 0.0
O48 O 0.54635 0.1193 0.15262 0.0
O49 O 0.58528 0.04732 0.16751 0.0
O50 O 0.60863 0.02221 0.14768 0.0
O51 O 0.56346 0.08463 0.10103 0.0
O52 O 0.59452 0.06266 0.11039 0.0
C53 C 0.60013 0.03026 0.16704 0.0
C54 C 0.58181 0.07258 0.09435 0.0
O55 O 0.5397 0.08125 0.16081 0.0
Mg56 Mg 0.67426 0.18133 0.61593 0.0
O57 O 0.70527 0.20489 0.62752 0.0
O58 O 0.72899 0.18385 0.6512 0.0
Mg59 Mg 0.71501 0.14567 0.65174 0.0
C60 C 0.72324 0.20331 0.64118 0.0
C61 C 0.65602 0.23006 0.59576 0.0
O62 O 0.65496 0.23501 0.61847 0.0
O63 O 0.69748 0.16284 0.58794 0.0
O64 O 0.72073 0.1416 0.61193 0.0
O65 O 0.65763 0.19145 0.65076 0.0
O66 O 0.67935 0.1594 0.6452 0.0
C67 C 0.71416 0.14785 0.59121 0.0
C68 C 0.66894 0.17355 0.65959 0.0
O69 O 0.66328 0.20974 0.58929 0.0
Mg70 Mg 0.06834 0.4241 0.86891 0.0
O71 O 0.04779 0.45765 0.87862 0.0
O72 O 0.07024 0.48037 0.90196 0.0
Mg73 Mg 0.10695 0.46291 0.90377 0.0
C74 C 0.05063 0.47597 0.89156 0.0
C75 C 0.02848 0.39557 0.8426 0.0
O76 O 0.03392 0.38003 0.85906 0.0
O77 O 0.08928 0.44439 0.84051 0.0
O78 O 0.11207 0.46685 0.86381 0.0
O79 O 0.05583 0.41011 0.90404 0.0
O80 O 0.09001 0.42837 0.89854 0.0
C81 C 0.10551 0.45993 0.8433 0.0
C82 C 0.07444 0.42016 0.91293 0.0
O83 O 0.03942 0.41524 0.84209 0.0
Mg84 Mg 0.82394 0.82262 0.11542 0.0
O85 O 0.79255 0.79888 0.12509 0.0
O86 O 0.76591 0.82053 0.14476 0.0
Mg87 Mg 0.77879 0.85915 0.14425 0.0
C88 C 0.77319 0.8007 0.13662 0.0
C89 C 0.84825 0.77474 0.09833 0.0
O90 O 0.85184 0.77166 0.12112 0.0
O91 O 0.80321 0.83855 0.08442 0.0
O92 O 0.77682 0.86093 0.1037 0.0
O93 O 0.83723 0.81499 0.15217 0.0
O94 O 0.81527 0.84597 0.14263 0.0
C95 C 0.78596 0.8532 0.0845 0.0
C96 C 0.82459 0.83296 0.15878 0.0
O97 O 0.83774 0.79334 0.09122 0.0
Mg98 Mg 0.43219 0.57916 0.36786 0.0
O99 O 0.45351 0.5459 0.37703 0.0
O100 O 0.43111 0.52202 0.39927 0.0
Mg101 Mg 0.39388 0.53834 0.40086 0.0
C102 C 0.45082 0.52716 0.38942 0.0
C103 C 0.47794 0.60406 0.34766 0.0
O104 O 0.47847 0.61267 0.36928 0.0
O105 O 0.41245 0.55907 0.33839 0.0
O106 O 0.38976 0.53555 0.36076 0.0
O107 O 0.4433 0.59241 0.40385 0.0
O108 O 0.40988 0.57339 0.39677 0.0
C109 C 0.39651 0.54311 0.34054 0.0
C110 C 0.42467 0.5817 0.41187 0.0
O111 O 0.46137 0.58993 0.3419 0.0
Mg112 Mg 0.38184 0.17785 0.32097 0.0
O113 O 0.37207 0.21047 0.29911 0.0
O114 O 0.35382 0.23672 0.32242 0.0
Mg115 Mg 0.35566 0.22215 0.36041 0.0
C116 C 0.36111 0.23001 0.30207 0.0
C117 C 0.41951 0.14908 0.29286 0.0
O118 O 0.42236 0.14006 0.31413 0.0
O119 O 0.41407 0.19717 0.33623 0.0
O120 O 0.39626 0.22308 0.36034 0.0
O121 O 0.34458 0.16583 0.31427 0.0
O122 O 0.35584 0.18618 0.34579 0.0
C123 C 0.41493 0.21387 0.35148 0.0
C124 C 0.33898 0.17793 0.33294 0.0
O125 O 0.40377 0.16485 0.28972 0.0
Mg126 Mg 0.06711 0.13453 0.57085 0.0
O127 O 0.03749 0.12146 0.54634 0.0
O128 O 0.01234 0.09892 0.56696 0.0
Mg129 Mg 0.02342 0.10187 0.60589 0.0
C130 C 0.01945 0.10786 0.54742 0.0
C131 C 0.10069 0.15987 0.53393 0.0
O132 O 0.11671 0.14645 0.54418 0.0
O133 O 0.04303 0.16387 0.58534 0.0
O134 O 0.01673 0.14182 0.60502 0.0
O135 O 0.08393 0.09906 0.56443 0.0
O136 O 0.0602 0.10707 0.59453 0.0
C137 C 0.02428 0.16191 0.59786 0.0
C138 C 0.07134 0.09162 0.58212 0.0
O139 O 0.07933 0.15878 0.54096 0.0
Mg140 Mg 0.11733 0.82483 0.8163 0.0
O141 O 0.12631 0.79169 0.79494 0.0
O142 O 0.14523 0.76591 0.81826 0.0
Mg143 Mg 0.14448 0.78123 0.85598 0.0
C144 C 0.13733 0.77221 0.798 0.0
C145 C 0.08587 0.85796 0.78459 0.0
O146 O 0.09024 0.87265 0.80212 0.0
O147 O 0.08544 0.80599 0.83291 0.0
O148 O 0.1039 0.78051 0.85701 0.0
O149 O 0.15445 0.83644 0.80824 0.0
O150 O 0.1441 0.81686 0.84054 0.0
C151 C 0.085 0.7896 0.84853 0.0
C152 C 0.16059 0.82463 0.82693 0.0
O153 O 0.09466 0.83725 0.78525 0.0
Mg154 Mg 0.42489 0.86287 0.07072 0.0
O155 O 0.45768 0.87335 0.04939 0.0
O156 O 0.48151 0.89548 0.07191 0.0
Mg157 Mg 0.4656 0.89542 0.10938 0.0
C158 C 0.4762 0.88603 0.05205 0.0
C159 C 0.39441 0.83768 0.03136 0.0
O160 O 0.37839 0.85272 0.03904 0.0
O161 O 0.44573 0.83329 0.08927 0.0
O162 O 0.46949 0.85523 0.1121 0.0
O163 O 0.41082 0.89873 0.06061 0.0
O164 O 0.43032 0.89124 0.09372 0.0
C165 C 0.46209 0.83513 0.10482 0.0
C166 C 0.42165 0.90651 0.07929 0.0
O167 O 0.41486 0.8377 0.04077 0.0
Mg168 Mg 0.88244 0.32593 0.67687 0.0
O169 O 0.87131 0.29435 0.69964 0.0
O170 O 0.84823 0.27028 0.67837 0.0
Mg171 Mg 0.84813 0.2847 0.64031 0.0
C172 C 0.85809 0.2761 0.6979 0.0
C173 C 0.90776 0.35655 0.71616 0.0
O174 O 0.89186 0.37215 0.7094 0.0
O175 O 0.91118 0.30352 0.65872 0.0
O176 O 0.88813 0.27964 0.63716 0.0
O177 O 0.84704 0.34142 0.68673 0.0
O178 O 0.85363 0.32044 0.65438 0.0
C179 C 0.90857 0.28668 0.6438 0.0
C180 C 0.83876 0.33016 0.66853 0.0
O181 O 0.90826 0.33638 0.70617 0.0
Mg182 Mg 0.92781 0.64161 0.92657 0.0
O183 O 0.95891 0.63163 0.95054 0.0
O184 O 0.98561 0.61199 0.92893 0.0
Mg185 Mg 0.97323 0.61297 0.89017 0.0
C186 C 0.97818 0.61996 0.94877 0.0
C187 C 0.90838 0.65782 0.97666 0.0
O188 O 0.91104 0.63523 0.98159 0.0
O189 O 0.9488 0.6728 0.91123 0.0
O190 O 0.97518 0.6535 0.88885 0.0
O191 O 0.9144 0.6048 0.93367 0.0
O192 O 0.93668 0.61462 0.90302 0.0
C193 C 0.96612 0.67269 0.89666 0.0
C194 C 0.92724 0.59835 0.91578 0.0
O195 O 0.91351 0.66528 0.95604 0.0
Mg196 Mg 0.61475 0.67676 0.17546 0.0
O197 O 0.62682 0.70641 0.20061 0.0
O198 O 0.64865 0.7324 0.18024 0.0
Mg199 Mg 0.64635 0.72189 0.14114 0.0
C200 C 0.63991 0.72484 0.1997 0.0
C201 C 0.59726 0.6585 0.22559 0.0
O202 O 0.61951 0.66233 0.23124 0.0
O203 O 0.58481 0.70034 0.1613 0.0
O204 O 0.60626 0.72735 0.14191 0.0
O205 O 0.65076 0.6608 0.18163 0.0
O206 O 0.64204 0.68494 0.15207 0.0
C207 C 0.58635 0.71925 0.14894 0.0
C208 C 0.6578 0.6739 0.16415 0.0
O209 O 0.59041 0.66253 0.20451 0.0
Mg210 Mg 0.57405 0.36216 0.42407 0.0
O211 O 0.54287 0.37249 0.44785 0.0
O212 O 0.5163 0.39194 0.42587 0.0
Mg213 Mg 0.52883 0.39056 0.38719 0.0
C214 C 0.52361 0.38416 0.44584 0.0
C215 C 0.59694 0.34644 0.47295 0.0
O216 O 0.59813 0.36943 0.47634 0.0
O217 O 0.55297 0.33094 0.40901 0.0
O218 O 0.52665 0.35003 0.38637 0.0
O219 O 0.58759 0.39896 0.43088 0.0
O220 O 0.56532 0.38899 0.40026 0.0
C221 C 0.53565 0.33091 0.39446 0.0
C222 C 0.57476 0.40533 0.41295 0.0
O223 O 0.58822 0.33858 0.45373 0.0
Mg224 Mg 0.31889 0.39227 0.18345 0.0
O225 O 0.29466 0.37889 0.21326 0.0
O226 O 0.31586 0.35697 0.23848 0.0
Mg227 Mg 0.35467 0.36065 0.22732 0.0
C228 C 0.29611 0.36543 0.23139 0.0
C229 C 0.28015 0.41467 0.15006 0.0
O230 O 0.28898 0.39918 0.1351 0.0
O231 O 0.33289 0.42207 0.20724 0.0
O232 O 0.35289 0.40059 0.23382 0.0
O233 O 0.31319 0.35657 0.16686 0.0
O234 O 0.34313 0.36541 0.19053 0.0
C235 C 0.34535 0.42046 0.22607 0.0
C236 C 0.3311 0.34963 0.17943 0.0
O237 O 0.28863 0.41588 0.17088 0.0
Mg238 Mg 0.82161 0.11472 0.81604 0.0
O239 O 0.79629 0.12922 0.78769 0.0
O240 O 0.81661 0.15219 0.76269 0.0
Mg241 Mg 0.85579 0.14851 0.77256 0.0
C242 C 0.79711 0.14341 0.77009 0.0
C243 C 0.78633 0.08754 0.84993 0.0
O244 O 0.7971 0.10036 0.86611 0.0
O245 O 0.83513 0.0862 0.79051 0.0
O246 O 0.85441 0.10885 0.76442 0.0
O247 O 0.81605 0.14959 0.83437 0.0
O248 O 0.84532 0.14212 0.80945 0.0
C249 C 0.84719 0.08862 0.77152 0.0
C250 C 0.83345 0.15729 0.82152 0.0
O251 O 0.79222 0.08991 0.82834 0.0
Mg252 Mg 0.13591 0.57493 0.06691 0.0
O253 O 0.12037 0.54958 0.03913 0.0
O254 O 0.0979 0.57014 0.01387 0.0
Mg255 Mg 0.10274 0.60935 0.0231 0.0
C256 C 0.10615 0.55052 0.02155 0.0
C257 C 0.15692 0.53395 0.09898 0.0
O258 O 0.1391 0.53977 0.11277 0.0
O259 O 0.16458 0.58714 0.04086 0.0
O260 O 0.14225 0.60666 0.01464 0.0
O261 O 0.101 0.57099 0.0857 0.0
O262 O 0.10928 0.59945 0.06012 0.0
C263 C 0.16232 0.59896 0.02168 0.0
C264 C 0.09385 0.5885 0.0727 0.0
O265 O 0.15985 0.54495 0.07956 0.0
Mg266 Mg 0.67619 0.88214 0.32601 0.0
O267 O 0.69973 0.87173 0.29465 0.0
O268 O 0.67781 0.85135 0.26873 0.0
Mg269 Mg 0.63935 0.85196 0.28196 0.0
C270 C 0.69769 0.85973 0.27558 0.0
C271 C 0.72621 0.90008 0.3445 0.0
O272 O 0.73187 0.87762 0.34217 0.0
O273 O 0.66019 0.91249 0.3044 0.0
O274 O 0.6376 0.89242 0.27875 0.0
O275 O 0.68405 0.84587 0.34034 0.0
O276 O 0.65295 0.85461 0.31822 0.0
C277 C 0.64545 0.91187 0.28723 0.0
C278 C 0.6661 0.83879 0.32791 0.0
O279 O 0.70532 0.90676 0.33939 0.0
Mg280 Mg 0.36707 0.42974 0.57183 0.0
O281 O 0.3787 0.45382 0.54135 0.0
O282 O 0.39776 0.43188 0.51452 0.0
Mg283 Mg 0.39524 0.39302 0.52642 0.0
C284 C 0.39053 0.45192 0.52218 0.0
C285 C 0.35086 0.47714 0.59806 0.0
O286 O 0.37345 0.47892 0.6034 0.0
O287 O 0.3359 0.41577 0.54998 0.0
O288 O 0.35473 0.393 0.52358 0.0
O289 O 0.40384 0.43521 0.58619 0.0
O290 O 0.39329 0.40532 0.5632 0.0
C291 C 0.33571 0.40144 0.53247 0.0
C292 C 0.40983 0.41721 0.57328 0.0
O293 O 0.34375 0.4596 0.58586 0.0
Mg294 Mg 0.1796 0.60845 0.68138 0.0
O295 O 0.20596 0.62317 0.70877 0.0
O296 O 0.18613 0.64509 0.73506 0.0
Mg297 Mg 0.14667 0.64022 0.72734 0.0
C298 C 0.20552 0.63706 0.72662 0.0
C299 C 0.22937 0.59282 0.66073 0.0
O300 O 0.23409 0.61547 0.6633 0.0
O301 O 0.16842 0.57889 0.70695 0.0
O302 O 0.1501 0.60053 0.73461 0.0
O303 O 0.18275 0.64387 0.66347 0.0
O304 O 0.15532 0.63477 0.68991 0.0
C305 C 0.15752 0.58068 0.72671 0.0
C306 C 0.16573 0.65057 0.67733 0.0
O307 O 0.20897 0.5851 0.66636 0.0
Mg308 Mg 0.63683 0.92798 0.92663 0.0
O309 O 0.62594 0.95021 0.95859 0.0
O310 O 0.60721 0.92716 0.98473 0.0
Mg311 Mg 0.60968 0.88896 0.97082 0.0
C312 C 0.61449 0.94747 0.97788 0.0
C313 C 0.67495 0.95618 0.89835 0.0
O314 O 0.67841 0.93479 0.88983 0.0
O315 O 0.66866 0.91331 0.94713 0.0
O316 O 0.65021 0.88935 0.97276 0.0
O317 O 0.59983 0.93412 0.91351 0.0
O318 O 0.6108 0.90303 0.93465 0.0
C319 C 0.66909 0.89823 0.96401 0.0
C320 C 0.59406 0.91559 0.92577 0.0
O321 O 0.65877 0.95931 0.91367 0.0
Mg322 Mg 0.8608 0.06863 0.42904 0.0
O323 O 0.87535 0.04295 0.45716 0.0
O324 O 0.89849 0.06318 0.4821 0.0
Mg325 Mg 0.89507 0.10243 0.47254 0.0
C326 C 0.88963 0.04372 0.47471 0.0
C327 C 0.84361 0.02116 0.40506 0.0
O328 O 0.86643 0.01894 0.40108 0.0
O329 O 0.83236 0.08213 0.45487 0.0
O330 O 0.85546 0.10119 0.48076 0.0
O331 O 0.89559 0.0633 0.41039 0.0
O332 O 0.88831 0.09225 0.43571 0.0
C333 C 0.8351 0.09415 0.47386 0.0
C334 C 0.90336 0.08059 0.42331 0.0
O335 O 0.8361 0.03937 0.41599 0.0
H336 H 0.07161 0.18906 0.50846 0.0
H337 H 0.14494 0.16836 0.51596 0.0
H338 H 0.0827 0.21734 0.47782 0.0
H339 H 0.15597 0.19645 0.48499 0.0
H340 H 0.16857 0.26951 0.45063 0.0
H341 H 0.15804 0.23942 0.47971 0.0
H342 H 0.09766 0.21936 0.43718 0.0
H343 H 0.10796 0.24975 0.4082 0.0
C344 C 0.09009 0.19043 0.50348 0.0
C345 C 0.1074 0.1765 0.51475 0.0
C346 C 0.09642 0.20655 0.48579 0.0
C347 C 0.12022 0.20917 0.47896 0.0
C348 C 0.13751 0.19506 0.49005 0.0
C349 C 0.13117 0.17888 0.50772 0.0
C350 C 0.15307 0.25866 0.44742 0.0
C351 C 0.13905 0.26212 0.42711 0.0
C352 C 0.14713 0.24129 0.46403 0.0
C353 C 0.127 0.227 0.46078 0.0
C354 C 0.11312 0.23028 0.44035 0.0
C355 C 0.1191 0.24761 0.42368 0.0
H356 H 0.96986 0.91287 0.70035 0.0
H357 H 0.01552 0.87997 0.64846 0.0
H358 H 0.99769 0.90227 0.73158 0.0
H359 H 0.04354 0.86966 0.67974 0.0
H360 H 0.07283 0.83164 0.74602 0.0
H361 H 0.04619 0.84304 0.71398 0.0
H362 H 0.0374 0.91206 0.7458 0.0
H363 H 0.06374 0.90058 0.77806 0.0
C364 C 0.98588 0.90345 0.69557 0.0
C365 C 0.99043 0.89723 0.67189 0.0
C366 C 0.00191 0.89752 0.71348 0.0
C367 C 0.02286 0.88514 0.70816 0.0
C368 C 0.02745 0.87898 0.68446 0.0
C369 C 0.01144 0.885 0.66652 0.0
C370 C 0.06528 0.84928 0.74616 0.0
C371 C 0.07035 0.86517 0.76467 0.0
C372 C 0.05011 0.85585 0.72771 0.0
C373 C 0.03963 0.87844 0.72735 0.0
C374 C 0.04493 0.89442 0.74572 0.0
C375 C 0.06013 0.88787 0.76415 0.0
H376 H 0.3279 0.73133 0.94225 0.0
H377 H 0.39542 0.74407 0.9085 0.0
H378 H 0.33731 0.76093 0.97223 0.0
H379 H 0.40463 0.77399 0.93827 0.0
H380 H 0.42367 0.80478 0.0112 0.0
H381 H 0.41407 0.77615 0.98038 0.0
H382 H 0.34271 0.80357 0.97704 0.0
H383 H 0.35218 0.83199 0.0082 0.0
C384 C 0.3447 0.74053 0.94114 0.0
C385 C 0.36094 0.73527 0.923 0.0
C386 C 0.35003 0.75762 0.95825 0.0
C387 C 0.37173 0.76983 0.95766 0.0
C388 C 0.38789 0.76469 0.93941 0.0
C389 C 0.38255 0.74762 0.92227 0.0
C390 C 0.40593 0.80474 0.00389 0.0
C391 C 0.38867 0.82065 0.01223 0.0
C392 C 0.40048 0.78842 0.9861 0.0
C393 C 0.37763 0.78757 0.97623 0.0
C394 C 0.3604 0.80357 0.98447 0.0
C395 C 0.36587 0.81994 0.00224 0.0
H396 H 0.51862 0.1473 0.17545 0.0
H397 H 0.50832 0.07325 0.19204 0.0
H398 H 0.48986 0.15804 0.20587 0.0
H399 H 0.4794 0.08402 0.2222 0.0
H400 H 0.45345 0.11459 0.29322 0.0
H401 H 0.48005 0.10333 0.26116 0.0
H402 H 0.44731 0.15535 0.21557 0.0
H403 H 0.42084 0.16687 0.24775 0.0
C404 C 0.51009 0.13331 0.18543 0.0
C405 C 0.51587 0.10943 0.18139 0.0
C406 C 0.49352 0.13947 0.20278 0.0
C407 C 0.48244 0.12188 0.21652 0.0
C408 C 0.48789 0.09799 0.21215 0.0
C409 C 0.50437 0.09183 0.19476 0.0
C410 C 0.45184 0.12358 0.27635 0.0
C411 C 0.43504 0.14165 0.27307 0.0
C412 C 0.46701 0.11703 0.25792 0.0
C413 C 0.46578 0.12844 0.23581 0.0
C414 C 0.44886 0.14639 0.23247 0.0
C415 C 0.4336 0.15289 0.25087 0.0
H416 H 0.63583 0.27345 0.60354 0.0
H417 H 0.65853 0.22651 0.54751 0.0
H418 H 0.62165 0.3017 0.5741 0.0
H419 H 0.64495 0.255 0.51812 0.0
H420 H 0.59418 0.29811 0.47265 0.0
H421 H 0.60864 0.27055 0.50245 0.0
H422 H 0.63475 0.32921 0.54414 0.0
H423 H 0.61968 0.35689 0.51455 0.0
C424 C 0.63797 0.26923 0.58495 0.0
C425 C 0.64821 0.24766 0.57789 0.0
C426 C 0.62995 0.2855 0.56805 0.0
C427 C 0.63207 0.28062 0.54371 0.0
C428 C 0.64265 0.25918 0.5367 0.0
C429 C 0.65058 0.24288 0.55357 0.0
C430 C 0.60299 0.30517 0.48817 0.0
C431 C 0.60579 0.32973 0.49119 0.0
C432 C 0.61144 0.28932 0.50521 0.0
C433 C 0.62299 0.29762 0.52567 0.0
C434 C 0.62571 0.32221 0.52873 0.0
C435 C 0.61718 0.33808 0.5117 0.0
H436 H 0.94207 0.32791 0.73486 0.0
H437 H 0.9125 0.39831 0.74036 0.0
H438 H 0.97076 0.33755 0.76563 0.0
H439 H 0.94099 0.4078 0.77145 0.0
H440 H 0.0129 0.42388 0.80645 0.0
H441 H 0.98348 0.41448 0.77626 0.0
H442 H 0.97286 0.34566 0.80801 0.0
H443 H 0.00257 0.35487 0.83798 0.0
C444 C 0.94162 0.34542 0.74269 0.0
C445 C 0.925 0.36235 0.7351 0.0
C446 C 0.95798 0.35089 0.76045 0.0
C447 C 0.95817 0.37344 0.77103 0.0
C448 C 0.94151 0.39036 0.76348 0.0
C449 C 0.92509 0.38487 0.74574 0.0
C450 C 0.00428 0.40675 0.80703 0.0
C451 C 0.01016 0.39009 0.8246 0.0
C452 C 0.9873 0.40142 0.78979 0.0
C453 C 0.97583 0.37931 0.7897 0.0
C454 C 0.98159 0.36273 0.80739 0.0
C455 C 0.99854 0.36807 0.82465 0.0
H456 H 0.84019 0.77408 0.05064 0.0
H457 H 0.87508 0.73509 0.10654 0.0
H458 H 0.85421 0.74536 0.02178 0.0
H459 H 0.8897 0.70662 0.07747 0.0
H460 H 0.89232 0.64766 0.02135 0.0
H461 H 0.8773 0.67536 0.05095 0.0
H462 H 0.89028 0.73357 0.00294 0.0
H463 H 0.90463 0.70592 0.97322 0.0
C464 C 0.85095 0.75942 0.05678 0.0
C465 C 0.85659 0.75695 0.08091 0.0
C466 C 0.85912 0.74301 0.04018 0.0
C467 C 0.87324 0.72374 0.04724 0.0
C468 C 0.87866 0.7211 0.07143 0.0
C469 C 0.87039 0.73751 0.08809 0.0
C470 C 0.89193 0.66638 0.01712 0.0
C471 C 0.89957 0.67455 0.99487 0.0
C472 C 0.88345 0.68228 0.03415 0.0
C473 C 0.88248 0.70672 0.02933 0.0
C474 C 0.89035 0.71485 0.00713 0.0
C475 C 0.89872 0.69898 0.99011 0.0
H476 H 0.55001 0.64957 0.21977 0.0
H477 H 0.60579 0.64795 0.27219 0.0
H478 H 0.52174 0.63604 0.24939 0.0
H479 H 0.57754 0.63393 0.30175 0.0
H480 H 0.51465 0.63515 0.35365 0.0
H481 H 0.54367 0.64784 0.32431 0.0
H482 H 0.51163 0.60142 0.27257 0.0
H483 H 0.4823 0.5891 0.30175 0.0
C484 C 0.55629 0.6462 0.23758 0.0
C485 C 0.58019 0.64986 0.24359 0.0
C486 C 0.54009 0.63829 0.25455 0.0
C487 C 0.54736 0.63384 0.27796 0.0
C488 C 0.57128 0.63745 0.28396 0.0
C489 C 0.58751 0.64536 0.26696 0.0
C490 C 0.51381 0.62761 0.33603 0.0
C491 C 0.49607 0.61118 0.33004 0.0
C492 C 0.53056 0.63478 0.31924 0.0
C493 C 0.52997 0.6257 0.29605 0.0
C494 C 0.51238 0.60905 0.29015 0.0
C495 C 0.49564 0.60188 0.30694 0.0
H496 H 0.25916 0.41812 0.10647 0.0
H497 H 0.2577 0.44819 0.17687 0.0
H498 H 0.22828 0.44571 0.09409 0.0
H499 H 0.22716 0.47599 0.16436 0.0
H500 H 0.15705 0.50792 0.13994 0.0
H501 H 0.18571 0.47793 0.15213 0.0
H502 H 0.2241 0.48807 0.08672 0.0
H503 H 0.1953 0.51769 0.07435 0.0
C504 C 0.25226 0.43059 0.11931 0.0
C505 C 0.26096 0.43098 0.14264 0.0
C506 C 0.23464 0.44649 0.11217 0.0
C507 C 0.22529 0.4631 0.12821 0.0
C508 C 0.23377 0.46325 0.15163 0.0
C509 C 0.2514 0.44739 0.15876 0.0
C510 C 0.17154 0.50367 0.12811 0.0
C511 C 0.1739 0.51526 0.1062 0.0
C512 C 0.18804 0.48657 0.13516 0.0
C513 C 0.20723 0.48063 0.12042 0.0
C514 C 0.20938 0.492 0.09837 0.0
C515 C 0.19293 0.50911 0.09135 0.0
H516 H 0.67451 0.00189 0.91463 0.0
H517 H 0.70991 0.9557 0.8649 0.0
H518 H 0.70022 0.03451 0.90259 0.0
H519 H 0.73576 0.9882 0.85314 0.0
H520 H 0.76236 0.05704 0.82095 0.0
H521 H 0.73439 0.0262 0.83229 0.0
H522 H 0.74213 0.04611 0.90577 0.0
H523 H 0.7699 0.07725 0.89442 0.0
C524 C 0.68775 0.99869 0.90112 0.0
C525 C 0.69016 0.97617 0.89072 0.0
C526 C 0.70256 0.01736 0.89432 0.0
C527 C 0.72003 0.01396 0.87691 0.0
C528 C 0.72228 0.99149 0.86638 0.0
C529 C 0.70754 0.97282 0.87323 0.0
C530 C 0.75802 0.05496 0.83952 0.0
C531 C 0.76846 0.06957 0.85679 0.0
C532 C 0.74208 0.03717 0.84603 0.0
C533 C 0.73614 0.0336 0.86994 0.0
C534 C 0.74618 0.04854 0.88717 0.0
C535 C 0.76219 0.06631 0.88067 0.0
H536 H 0.72087 0.948 0.34845 0.0
H537 H 0.77142 0.89171 0.36014 0.0
H538 H 0.74949 0.97677 0.3629 0.0
H539 H 0.79992 0.92052 0.37522 0.0
H540 H 0.85304 0.98225 0.37769 0.0
H541 H 0.825 0.9529 0.36286 0.0
H542 H 0.76809 0.98909 0.39904 0.0
H543 H 0.79596 0.01873 0.4133 0.0
C544 C 0.73806 0.94173 0.35422 0.0
C545 C 0.74382 0.91752 0.35318 0.0
C546 C 0.75445 0.95824 0.36266 0.0
C547 C 0.77699 0.95098 0.37038 0.0
C548 C 0.78282 0.92677 0.36919 0.0
C549 C 0.76642 0.91023 0.36066 0.0
C550 C 0.83454 0.98393 0.38249 0.0
C551 C 0.82673 0.00291 0.3966 0.0
C552 C 0.81848 0.96701 0.3741 0.0
C553 C 0.79425 0.96865 0.37967 0.0
C554 C 0.78653 0.98749 0.39403 0.0
C555 C 0.80256 0.00443 0.40234 0.0
H556 H 0.27449 0.60323 0.64609 0.0
H557 H 0.22551 0.54499 0.65451 0.0
H558 H 0.30416 0.57594 0.63044 0.0
H559 H 0.25525 0.51775 0.63941 0.0
H560 H 0.3036 0.47954 0.58809 0.0
H561 H 0.27483 0.50802 0.60274 0.0
H562 H 0.32989 0.54339 0.64244 0.0
H563 H 0.35892 0.51509 0.62732 0.0
C564 C 0.27007 0.58462 0.64469 0.0
C565 C 0.24758 0.57633 0.65146 0.0
C566 C 0.28713 0.56895 0.63584 0.0
C567 C 0.28207 0.54465 0.63357 0.0
C568 C 0.25962 0.53639 0.64052 0.0
C569 C 0.24259 0.55202 0.64933 0.0
C570 C 0.30964 0.49341 0.5999 0.0
C571 C 0.33358 0.49496 0.60661 0.0
C572 C 0.29308 0.50968 0.60842 0.0
C573 C 0.29999 0.5279 0.62392 0.0
C574 C 0.32401 0.5297 0.63036 0.0
C575 C 0.34062 0.5134 0.62179 0.0
H576 H 0.32546 0.35942 0.51164 0.0
H577 H 0.29498 0.42756 0.52839 0.0
H578 H 0.29019 0.34906 0.48901 0.0
H579 H 0.25963 0.41726 0.50519 0.0
H580 H 0.23219 0.39964 0.42622 0.0
H581 H 0.25766 0.41055 0.45936 0.0
H582 H 0.24452 0.34262 0.49194 0.0
H583 H 0.21856 0.33176 0.45881 0.0
C584 C 0.31103 0.37205 0.51075 0.0
C585 C 0.31301 0.39438 0.52156 0.0
C586 C 0.29076 0.36602 0.49798 0.0
C587 C 0.27221 0.38236 0.49539 0.0
C588 C 0.27372 0.40436 0.50698 0.0
C589 C 0.29387 0.41022 0.52024 0.0
C590 C 0.23431 0.38723 0.44071 0.0
C591 C 0.22361 0.36476 0.43986 0.0
C592 C 0.24873 0.39356 0.45976 0.0
C593 C 0.25308 0.3774 0.47814 0.0
C594 C 0.24142 0.35538 0.47794 0.0
C595 C 0.22657 0.3492 0.45905 0.0
H596 H 0.85479 0.99362 0.65406 0.0
H597 H 0.90795 0.96477 0.70109 0.0
H598 H 0.84245 0.02109 0.68471 0.0
H599 H 0.89524 0.99263 0.73208 0.0
H600 H 0.84597 0.04118 0.78352 0.0
H601 H 0.85539 0.00732 0.75765 0.0
H602 H 0.87007 0.05556 0.7002 0.0
H603 H 0.86106 0.08899 0.72556 0.0
C604 C 0.86368 0.99289 0.67105 0.0
C605 C 0.88272 0.97731 0.67495 0.0
C606 C 0.85651 0.00861 0.68862 0.0
C607 C 0.8681 0.00912 0.71056 0.0
C608 C 0.88602 0.99248 0.71525 0.0
C609 C 0.89332 0.97665 0.69752 0.0
C610 C 0.85122 0.04447 0.76536 0.0
C611 C 0.85272 0.06778 0.75659 0.0
C612 C 0.85671 0.02515 0.75068 0.0
C613 C 0.86327 0.02894 0.72697 0.0
C614 C 0.86483 0.05218 0.71836 0.0
C615 C 0.85974 0.07133 0.73297 0.0
H616 H 0.2577 0.60444 0.90396 0.0
H617 H 0.28542 0.65894 0.95013 0.0
H618 H 0.23037 0.59213 0.93475 0.0
H619 H 0.25769 0.64627 0.98124 0.0
H620 H 0.20972 0.5985 0.0338 0.0
H621 H 0.24356 0.60735 0.00768 0.0
H622 H 0.19534 0.61883 0.94947 0.0
H623 H 0.16195 0.61037 0.9751 0.0
C624 C 0.25821 0.61364 0.92079 0.0
C625 C 0.27344 0.63303 0.9244 0.0
C626 C 0.24257 0.60648 0.93844 0.0
C627 C 0.24177 0.61845 0.96017 0.0
C628 C 0.25807 0.63675 0.96458 0.0
C629 C 0.27383 0.64402 0.94677 0.0
C630 C 0.20645 0.60287 0.0154 0.0
C631 C 0.18316 0.60372 0.00651 0.0
C632 C 0.22575 0.60804 0.00058 0.0
C633 C 0.22196 0.6136 0.97661 0.0
C634 C 0.19874 0.61436 0.96784 0.0
C635 C 0.1796 0.60961 0.98259 0.0
H636 H 0.57443 0.02475 0.20784 0.0
H637 H 0.64242 0.00942 0.17631 0.0
H638 H 0.5851 0.00041 0.24228 0.0
H639 H 0.65314 0.98563 0.21072 0.0
H640 H 0.67067 0.95291 0.2815 0.0
H641 H 0.65977 0.98685 0.25658 0.0
H642 H 0.59194 0.95455 0.24231 0.0
H643 H 0.6029 0.92062 0.2667 0.0
C644 C 0.59182 0.01667 0.20854 0.0
C645 C 0.60751 0.01872 0.18933 0.0
C646 C 0.59789 0.00276 0.22818 0.0
C647 C 0.61994 0.99121 0.22912 0.0
C648 C 0.63615 0.99454 0.21057 0.0
C649 C 0.62991 0.00798 0.19079 0.0
C650 C 0.65325 0.95338 0.27346 0.0
C651 C 0.63771 0.93408 0.2758 0.0
C652 C 0.64705 0.97272 0.2592 0.0
C653 C 0.62503 0.97326 0.24756 0.0
C654 C 0.60892 0.9547 0.25126 0.0
C655 C 0.61528 0.93521 0.26506 0.0
H656 H 0.74012 0.1075 0.59136 0.0
H657 H 0.7172 0.16407 0.54508 0.0
H658 H 0.76616 0.09269 0.56058 0.0
H659 H 0.74371 0.14893 0.51394 0.0
H660 H 0.78784 0.09746 0.46146 0.0
H661 H 0.75469 0.10908 0.48744 0.0
H662 H 0.80333 0.11588 0.54603 0.0
H663 H 0.836 0.10465 0.52058 0.0
C664 C 0.74042 0.11667 0.5745 0.0
C665 C 0.72696 0.13731 0.57086 0.0
C666 C 0.7553 0.10807 0.55684 0.0
C667 C 0.75714 0.11986 0.53507 0.0
C668 C 0.74251 0.13952 0.53063 0.0
C669 C 0.72746 0.14821 0.54844 0.0
C670 C 0.79131 0.10134 0.47993 0.0
C671 C 0.81452 0.10013 0.48898 0.0
C672 C 0.77243 0.10812 0.49467 0.0
C673 C 0.77652 0.11324 0.5187 0.0
C674 C 0.79966 0.11182 0.52762 0.0
C675 C 0.8184 0.10547 0.51297 0.0
H676 H 0.15405 0.57944 0.77435 0.0
H677 H 0.15108 0.53435 0.71259 0.0
H678 H 0.14425 0.54598 0.79946 0.0
H679 H 0.14087 0.50041 0.73814 0.0
H680 H 0.08799 0.46473 0.79796 0.0
H681 H 0.10384 0.49064 0.76677 0.0
H682 H 0.1641 0.50682 0.81096 0.0
H683 H 0.14844 0.48136 0.84192 0.0
C684 C 0.15142 0.56229 0.76614 0.0
C685 C 0.15329 0.55951 0.74151 0.0
C686 C 0.14594 0.54309 0.78056 0.0
C687 C 0.14193 0.5206 0.77074 0.0
C688 C 0.14391 0.5176 0.74609 0.0
C689 C 0.14986 0.53691 0.73156 0.0
C690 C 0.1049 0.47337 0.80071 0.0
C691 C 0.1167 0.47145 0.82258 0.0
C692 C 0.11399 0.4881 0.78285 0.0
C693 C 0.13498 0.50096 0.78668 0.0
C694 C 0.14769 0.49738 0.80773 0.0
C695 C 0.13865 0.48284 0.82547 0.0
H696 H 0.68036 0.85511 0.98172 0.0
H697 H 0.70871 0.92536 0.97108 0.0
H698 H 0.7146 0.84478 0.00587 0.0
H699 H 0.74303 0.91507 0.99578 0.0
H700 H 0.76442 0.89527 0.07576 0.0
H701 H 0.74167 0.90647 0.04083 0.0
H702 H 0.76015 0.84021 0.00742 0.0
H703 H 0.78336 0.82905 0.04246 0.0
C704 C 0.69421 0.86818 0.98417 0.0
C705 C 0.69182 0.8911 0.97476 0.0
C706 C 0.7139 0.8622 0.99784 0.0
C707 C 0.73141 0.87915 0.00274 0.0
C708 C 0.72972 0.9017 0.99225 0.0
C709 C 0.71018 0.90755 0.9781 0.0
C710 C 0.76404 0.88328 0.06077 0.0
C711 C 0.77541 0.86117 0.06191 0.0
C712 C 0.75121 0.88981 0.04069 0.0
C713 C 0.74914 0.8742 0.02145 0.0
C714 C 0.76149 0.85256 0.02205 0.0
C715 C 0.77476 0.8462 0.04204 0.0
H716 H 0.35516 0.42212 0.27288 0.0
H717 H 0.34841 0.46696 0.21115 0.0
H718 H 0.36533 0.45635 0.29678 0.0
H719 H 0.35914 0.50164 0.23552 0.0
H720 H 0.41538 0.53835 0.29572 0.0
H721 H 0.40063 0.51194 0.26431 0.0
H722 H 0.33921 0.49581 0.30679 0.0
H723 H 0.35362 0.5219 0.33786 0.0
C724 C 0.35591 0.43931 0.26437 0.0
C725 C 0.35097 0.44184 0.24011 0.0
C726 C 0.36166 0.45891 0.27811 0.0
C727 C 0.36292 0.48153 0.26795 0.0
C728 C 0.35826 0.48428 0.24366 0.0
C729 C 0.35202 0.46454 0.22984 0.0
C730 C 0.3984 0.52971 0.29798 0.0
C731 C 0.3859 0.53177 0.31944 0.0
C732 C 0.38996 0.51471 0.28002 0.0
C733 C 0.36896 0.50176 0.28338 0.0
C734 C 0.35554 0.5055 0.30392 0.0
C735 C 0.36389 0.52034 0.32173 0.0
H736 H 0.5151 0.32118 0.35217 0.0
H737 H 0.53114 0.28995 0.42014 0.0
H738 H 0.49124 0.28675 0.34182 0.0
H739 H 0.50679 0.25541 0.40984 0.0
H740 H 0.4262 0.23274 0.39417 0.0
H741 H 0.46136 0.25562 0.40432 0.0
H742 H 0.49063 0.2415 0.33509 0.0
H743 H 0.45536 0.21814 0.32498 0.0
C744 C 0.51387 0.30671 0.36472 0.0
C745 C 0.52473 0.30832 0.38705 0.0
C746 C 0.50039 0.2869 0.35869 0.0
C747 C 0.49714 0.26845 0.37504 0.0
C748 C 0.50904 0.26943 0.39693 0.0
C749 C 0.52297 0.28912 0.40279 0.0
C750 C 0.44039 0.23405 0.3813 0.0
C751 C 0.43797 0.22392 0.3587 0.0
C752 C 0.4606 0.24697 0.3872 0.0
C753 C 0.47867 0.25038 0.37047 0.0
C754 C 0.4769 0.23913 0.34829 0.0
C755 C 0.4568 0.22576 0.34254 0.0
H756 H 0.97869 0.16264 0.6128 0.0
H757 H 0.03746 0.20908 0.59663 0.0
H758 H 0.95426 0.19667 0.6222 0.0
H759 H 0.01253 0.24356 0.60652 0.0
H760 H 0.95396 0.28427 0.66191 0.0
H761 H 0.98545 0.2569 0.64922 0.0
H762 H 0.94124 0.2328 0.59176 0.0
H763 H 0.91011 0.25982 0.60405 0.0
C764 C 0.9865 0.18011 0.61139 0.0
C765 C 0.01005 0.18311 0.60388 0.0
C766 C 0.97244 0.19959 0.61674 0.0
C767 C 0.98156 0.22261 0.61499 0.0
C768 C 0.00521 0.22588 0.60801 0.0
C769 C 0.01935 0.20622 0.60226 0.0
C770 C 0.95126 0.27356 0.64623 0.0
C771 C 0.92937 0.27384 0.63429 0.0
C772 C 0.96927 0.25802 0.63895 0.0
C773 C 0.96553 0.24272 0.61969 0.0
C774 C 0.9444 0.24435 0.60677 0.0
C775 C 0.92656 0.25975 0.61394 0.0
H776 H 0.98567 0.68185 0.85383 0.0
H777 H 0.97106 0.71405 0.92164 0.0
H778 H 0.00902 0.71626 0.84235 0.0
H779 H 0.99493 0.74859 0.9102 0.0
H780 H 0.07493 0.7717 0.89195 0.0
H781 H 0.04021 0.74882 0.9035 0.0
H782 H 0.00901 0.76133 0.83479 0.0
H783 H 0.04385 0.78467 0.82326 0.0
C784 C 0.98712 0.69653 0.86611 0.0
C785 C 0.97679 0.69521 0.88872 0.0
C786 C 0.0003 0.71633 0.85944 0.0
C787 C 0.0038 0.73507 0.87539 0.0
C788 C 0.99248 0.73434 0.89759 0.0
C789 C 0.97882 0.71466 0.9041 0.0
C790 C 0.06041 0.77005 0.87949 0.0
C791 C 0.06217 0.7797 0.85661 0.0
C792 C 0.04044 0.75713 0.88619 0.0
C793 C 0.02198 0.75324 0.87001 0.0
C794 C 0.02306 0.76406 0.84757 0.0
C795 C 0.04292 0.77743 0.84101 0.0
H796 H 0.53931 0.70591 0.1525 0.0
H797 H 0.58473 0.76411 0.13183 0.0
H798 H 0.50433 0.73037 0.14313 0.0
H799 H 0.5502 0.78802 0.12296 0.0
H800 H 0.48714 0.83163 0.14565 0.0
H801 H 0.51365 0.79981 0.15747 0.0
H802 H 0.49143 0.75839 0.09728 0.0
H803 H 0.46461 0.79052 0.08507 0.0
C804 C 0.54185 0.72376 0.14595 0.0
C805 C 0.56483 0.73305 0.14297 0.0
C806 C 0.5219 0.73762 0.14051 0.0
C807 C 0.52479 0.76095 0.13241 0.0
C808 C 0.54764 0.77005 0.12922 0.0
C809 C 0.56739 0.75628 0.13431 0.0
C810 C 0.48744 0.81559 0.13512 0.0
C811 C 0.47413 0.81378 0.11414 0.0
C812 C 0.5025 0.79734 0.14203 0.0
C813 C 0.50451 0.77684 0.12822 0.0
C814 C 0.48991 0.77404 0.10827 0.0
C815 C 0.4747 0.79243 0.10128 0.0
H816 H 0.1863 0.29963 0.31819 0.0
H817 H 0.17512 0.37518 0.32039 0.0
H818 H 0.21447 0.30479 0.28564 0.0
H819 H 0.20308 0.38043 0.28799 0.0
H820 H 0.25151 0.38352 0.22511 0.0
H821 H 0.21554 0.37343 0.24683 0.0
H822 H 0.25477 0.32225 0.28803 0.0
H823 H 0.29065 0.33204 0.26617 0.0
C824 C 0.18895 0.31719 0.3109 0.0
C825 C 0.17849 0.33703 0.32165 0.0
C826 C 0.20537 0.3202 0.29256 0.0
C827 C 0.21128 0.34305 0.2845 0.0
C828 C 0.19887 0.36259 0.29366 0.0
C829 C 0.18275 0.3596 0.31215 0.0
C830 C 0.25245 0.36999 0.23868 0.0
C831 C 0.27408 0.35885 0.24412 0.0
C832 C 0.23181 0.3642 0.2511 0.0
C833 C 0.23227 0.34701 0.26911 0.0
C834 C 0.25372 0.33532 0.27402 0.0
C835 C 0.27438 0.34119 0.2617 0.0
H836 H 0.92252 0.03755 0.50982 0.0
H837 H 0.87314 0.99885 0.46587 0.0
H838 H 0.93277 0.00113 0.53037 0.0
H839 H 0.88379 0.96224 0.48625 0.0
H840 H 0.88019 0.91983 0.55859 0.0
H841 H 0.8759 0.9476 0.52597 0.0
H842 H 0.95108 0.96182 0.52829 0.0
H843 H 0.95521 0.93391 0.56119 0.0
C844 C 0.91397 0.02125 0.50438 0.0
C845 C 0.89668 0.02126 0.48645 0.0
C846 C 0.92013 0.00025 0.51597 0.0
C847 C 0.90916 0.97871 0.50992 0.0
C848 C 0.89246 0.97856 0.49144 0.0
C849 C 0.88632 0.99957 0.4798 0.0
C850 C 0.89597 0.92795 0.55126 0.0
C851 C 0.918 0.92472 0.56232 0.0
C852 C 0.89353 0.94401 0.53263 0.0
C853 C 0.91308 0.95731 0.52483 0.0
C854 C 0.93562 0.9521 0.53417 0.0
C855 C 0.93809 0.93579 0.55271 0.0
H856 H 0.25031 0.62097 0.71673 0.0
H857 H 0.21226 0.67063 0.76091 0.0
H858 H 0.28732 0.63227 0.73604 0.0
H859 H 0.24909 0.68155 0.78035 0.0
H860 H 0.33063 0.62984 0.80816 0.0
H861 H 0.30269 0.62496 0.77577 0.0
H862 H 0.28824 0.70012 0.77701 0.0
H863 H 0.31631 0.70485 0.80966 0.0
C864 C 0.24982 0.63438 0.73045 0.0
C865 C 0.22822 0.64459 0.73754 0.0
C866 C 0.27106 0.64087 0.74147 0.0
C867 C 0.2712 0.65783 0.75971 0.0
C868 C 0.24972 0.6687 0.76612 0.0
C869 C 0.2285 0.66216 0.75519 0.0
C870 C 0.32243 0.64548 0.80063 0.0
C871 C 0.32559 0.66768 0.81136 0.0
C872 C 0.30628 0.6427 0.78212 0.0
C873 C 0.29284 0.66208 0.77414 0.0
C874 C 0.29807 0.68479 0.78305 0.0
C875 C 0.31446 0.68759 0.80146 0.0
H876 H 0.62237 0.06746 0.06965 0.0
H877 H 0.54706 0.05516 0.0659 0.0
H878 H 0.6287 0.03942 0.03749 0.0
H879 H 0.55332 0.02679 0.03369 0.0
H880 H 0.58224 0.95121 0.01396 0.0
H881 H 0.57205 0.98651 0.03672 0.0
H882 H 0.62193 0.02754 0.99571 0.0
H883 H 0.63235 0.99226 0.97307 0.0
C884 C 0.60709 0.05957 0.06112 0.0
C885 C 0.58425 0.06359 0.07004 0.0
C886 C 0.61069 0.04338 0.0428 0.0
C887 C 0.59153 0.03063 0.03332 0.0
C888 C 0.56844 0.03619 0.04086 0.0
C889 C 0.5648 0.05273 0.05898 0.0
C890 C 0.59108 0.96773 0.00981 0.0
C891 C 0.60836 0.96881 0.9919 0.0
C892 C 0.58497 0.98804 0.02261 0.0
C893 C 0.59609 0.00984 0.01788 0.0
C894 C 0.61312 0.01098 0.99978 0.0
C895 C 0.6191 0.99074 0.98686 0.0
H896 H 0.68652 0.21021 0.68546 0.0
H897 H 0.67179 0.1353 0.68801 0.0
H898 H 0.71511 0.20566 0.71772 0.0
H899 H 0.70019 0.13061 0.72003 0.0
H900 H 0.75225 0.12727 0.77934 0.0
H901 H 0.71551 0.13832 0.75951 0.0
H902 H 0.75425 0.18688 0.71482 0.0
H903 H 0.79089 0.17623 0.73487 0.0
C904 C 0.68841 0.19303 0.69383 0.0
C905 C 0.67695 0.17309 0.68437 0.0
C906 C 0.70511 0.19032 0.71198 0.0
C907 C 0.71029 0.16769 0.72111 0.0
C908 C 0.69663 0.1483 0.71352 0.0
C909 C 0.6802 0.15098 0.69525 0.0
C910 C 0.75294 0.14043 0.7654 0.0
C911 C 0.77464 0.15057 0.75846 0.0
C912 C 0.73184 0.14679 0.75408 0.0
C913 C 0.7319 0.1635 0.73561 0.0
C914 C 0.75347 0.17423 0.72923 0.0
C915 C 0.77457 0.16785 0.74051 0.0
H916 H 0.12088 0.50536 0.03169 0.0
H917 H 0.07364 0.54468 0.98597 0.0
H918 H 0.10924 0.46868 0.0121 0.0
H919 H 0.06243 0.5081 0.96615 0.0
H920 H 0.03796 0.44036 0.9372 0.0
H921 H 0.04271 0.46965 0.96877 0.0
H922 H 0.11715 0.4524 0.97328 0.0
H923 H 0.11224 0.42322 0.94201 0.0
C924 C 0.10797 0.50621 0.01752 0.0
C925 C 0.09849 0.52807 0.01017 0.0
C926 C 0.10128 0.48515 0.00631 0.0
C927 C 0.08491 0.4854 0.98754 0.0
C928 C 0.07482 0.50716 0.98077 0.0
C929 C 0.08151 0.52823 0.99194 0.0
C930 C 0.05501 0.44196 0.94587 0.0
C931 C 0.07475 0.42953 0.93726 0.0
C932 C 0.05785 0.45905 0.96364 0.0
C933 C 0.08041 0.46372 0.97322 0.0
C934 C 0.09951 0.44927 0.96641 0.0
C935 C 0.09671 0.43241 0.94856 0.0
H936 H 0.74188 0.87916 0.28059 0.0
H937 H 0.70271 0.82777 0.23944 0.0
H938 H 0.77744 0.87038 0.25763 0.0
H939 H 0.73822 0.81921 0.21644 0.0
H940 H 0.81714 0.87307 0.18365 0.0
H941 H 0.78883 0.87798 0.21585 0.0
H942 H 0.77912 0.80213 0.21882 0.0
H943 H 0.80771 0.79731 0.18654 0.0
C944 C 0.74083 0.86597 0.26669 0.0
C945 C 0.71933 0.85441 0.26166 0.0
C946 C 0.76124 0.86093 0.25359 0.0
C947 C 0.76067 0.84403 0.23531 0.0
C948 C 0.73933 0.83206 0.23065 0.0
C949 C 0.71888 0.83722 0.24362 0.0
C950 C 0.80977 0.85741 0.19195 0.0
C951 C 0.81474 0.83483 0.18283 0.0
C952 C 0.79346 0.8602 0.21031 0.0
C953 C 0.78151 0.84046 0.21965 0.0
C954 C 0.7879 0.81767 0.21178 0.0
C955 C 0.80455 0.81487 0.1936 0.0
H956 H 0.37588 0.49736 0.5309 0.0
H957 H 0.42123 0.45631 0.48482 0.0
H958 H 0.3876 0.53344 0.51024 0.0
H959 H 0.4326 0.49236 0.46399 0.0
H960 H 0.46008 0.5602 0.43651 0.0
H961 H 0.45394 0.53048 0.46748 0.0
H962 H 0.37989 0.54951 0.47076 0.0
H963 H 0.38614 0.579 0.43994 0.0
C964 C 0.38832 0.49599 0.51636 0.0
C965 C 0.39735 0.47384 0.50933 0.0
C966 C 0.39507 0.51671 0.50456 0.0
C967 C 0.41112 0.51582 0.48555 0.0
C968 C 0.42051 0.49374 0.47883 0.0
C969 C 0.41369 0.473 0.49055 0.0
C970 C 0.44282 0.55886 0.44479 0.0
C971 C 0.42359 0.57195 0.43601 0.0
C972 C 0.43918 0.54154 0.46219 0.0
C973 C 0.41633 0.53734 0.47127 0.0
C974 C 0.39771 0.55231 0.46425 0.0
C975 C 0.4013 0.56935 0.4467 0.0
H976 H 0.21983 0.26136 0.38436 0.0
H977 H 0.25897 0.30148 0.33214 0.0
H978 H 0.24273 0.22613 0.37447 0.0
H979 H 0.28203 0.26622 0.32249 0.0
H980 H 0.31584 0.18559 0.37404 0.0
H981 H 0.28452 0.21456 0.38048 0.0
H982 H 0.27912 0.22553 0.30493 0.0
H983 H 0.31055 0.1963 0.29856 0.0
C984 C 0.23331 0.2627 0.37077 0.0
C985 C 0.23774 0.28436 0.35924 0.0
C986 C 0.24639 0.24248 0.3651 0.0
C987 C 0.2641 0.24336 0.34765 0.0
C988 C 0.26825 0.26488 0.33578 0.0
C989 C 0.25526 0.28517 0.34155 0.0
C990 C 0.3072 0.19344 0.35879 0.0
C991 C 0.31539 0.18858 0.33583 0.0
C992 C 0.28935 0.21013 0.36245 0.0
C993 C 0.27957 0.22255 0.34323 0.0
C994 C 0.28653 0.21639 0.32009 0.0
C995 C 0.3042 0.19938 0.31641 0.0
H996 H 0.99091 0.96821 0.62702 0.0
H997 H 0.9536 0.00692 0.57244 0.0
H998 H 0.02643 0.99154 0.61922 0.0
H999 H 0.98904 0.03035 0.5649 0.0
H1000 H 0.06408 0.06649 0.62211 0.0
H1001 H 0.03689 0.03327 0.62622 0.0
H1002 H 0.03049 0.02915 0.55007 0.0
H1003 H 0.0579 0.06253 0.54607 0.0
C1004 C 0.99026 0.98164 0.61333 0.0
C1005 C 0.96926 0.98587 0.60057 0.0
C1006 C 0.01066 0.99496 0.60884 0.0
C1007 C 0.01061 0.01271 0.59138 0.0
C1008 C 0.9898 0.01654 0.57821 0.0
C1009 C 0.96936 0.00331 0.58277 0.0
C1010 C 0.05776 0.05771 0.60625 0.0
C1011 C 0.06317 0.06693 0.5838 0.0
C1012 C 0.04206 0.03876 0.60858 0.0
C1013 C 0.03123 0.02883 0.58848 0.0
C1014 C 0.03835 0.03665 0.56589 0.0
C1015 C 0.05436 0.05547 0.56356 0.0
H1016 H 0.24191 0.70153 0.82121 0.0
H1017 H 0.28112 0.74045 0.87428 0.0
H1018 H 0.2183 0.73675 0.81292 0.0
H1019 H 0.25766 0.77566 0.86575 0.0
H1020 H 0.18832 0.8069 0.7916 0.0
H1021 H 0.22005 0.77776 0.79665 0.0
H1022 H 0.21612 0.78684 0.87254 0.0
H1023 H 0.18455 0.8158 0.8674 0.0
C1024 C 0.24557 0.71758 0.83105 0.0
C1025 C 0.26327 0.71803 0.84859 0.0
C1026 C 0.23223 0.73786 0.82609 0.0
C1027 C 0.2362 0.75904 0.83861 0.0
C1028 C 0.2541 0.75959 0.85589 0.0
C1029 C 0.26752 0.73936 0.86078 0.0
C1030 C 0.19501 0.80341 0.80925 0.0
C1031 C 0.18418 0.8137 0.82913 0.0
C1032 C 0.21288 0.78644 0.81218 0.0
C1033 C 0.22038 0.77978 0.83501 0.0
C1034 C 0.21088 0.79166 0.85472 0.0
C1035 C 0.19286 0.80833 0.8518 0.0
H1036 H 0.50433 0.02656 0.12831 0.0
H1037 H 0.54573 0.98278 0.08104 0.0
H1038 H 0.46868 0.00504 0.11701 0.0
H1039 H 0.51006 0.96102 0.07009 0.0
H1040 H 0.42506 0.93379 0.11833 0.0
H1041 H 0.45409 0.96505 0.12442 0.0
H1042 H 0.47122 0.96362 0.04984 0.0
H1043 H 0.44195 0.93218 0.04386 0.0
C1044 C 0.50588 0.01234 0.11553 0.0
C1045 C 0.52802 0.00621 0.10584 0.0
C1046 C 0.48539 1.00004 0.10903 0.0
C1047 C 0.48648 0.98138 0.0926 0.0
C1048 C 0.50852 0.97556 0.08252 0.0
C1049 C 0.52905 0.98781 0.08907 0.0
C1050 C 0.43418 0.94101 0.10306 0.0
C1051 C 0.43117 0.93074 0.08063 0.0
C1052 C 0.45097 0.95882 0.10655 0.0
C1053 C 0.46527 0.96654 0.08768 0.0
C1054 C 0.46068 0.95779 0.06478 0.0
C1055 C 0.4436 0.94013 0.06125 0.0
H1056 H 0.7598 0.20841 0.67273 0.0
H1057 H 0.71711 0.24787 0.62283 0.0
H1058 H 0.78199 0.24421 0.68199 0.0
H1059 H 0.73912 0.28376 0.63245 0.0
H1060 H 0.81247 0.31235 0.70484 0.0
H1061 H 0.78019 0.2838 0.70015 0.0
H1062 H 0.77922 0.2976 0.62486 0.0
H1063 H 0.81126 0.326 0.62969 0.0
C1064 C 0.75507 0.22471 0.66377 0.0
C1065 C 0.73686 0.22512 0.64676 0.0
C1066 C 0.76759 0.24535 0.66936 0.0
C1067 C 0.76224 0.26692 0.65807 0.0
C1068 C 0.74377 0.26742 0.64137 0.0
C1069 C 0.7312 0.2468 0.63582 0.0
C1070 C 0.80445 0.31018 0.68754 0.0
C1071 C 0.81421 0.32144 0.66762 0.0
C1072 C 0.78629 0.29349 0.68475 0.0
C1073 C 0.77744 0.28809 0.66206 0.0
C1074 C 0.78551 0.30135 0.64259 0.0
C1075 C 0.80379 0.31778 0.64535 0.0
H1076 H 0.00726 0.47456 0.86991 0.0
H1077 H 0.04688 0.51243 0.92342 0.0
H1078 H 0.9729 0.4995 0.87771 0.0
H1079 H 0.01252 0.5375 0.931 0.0
H1080 H 0.93564 0.57416 0.87547 0.0
H1081 H 0.96345 0.54152 0.87073 0.0
H1082 H 0.97115 0.53707 0.94675 0.0
H1083 H 0.94311 0.56988 0.95139 0.0
C1084 C 0.00869 0.48821 0.88332 0.0
C1085 C 0.02996 0.49162 0.89588 0.0
C1086 C 0.98895 0.50247 0.8878 0.0
C1087 C 0.98993 0.52037 0.90505 0.0
C1088 C 0.01107 0.52359 0.91786 0.0
C1089 C 0.03087 0.50942 0.91329 0.0
C1090 C 0.9425 0.5655 0.89117 0.0
C1091 C 0.93707 0.5743 0.91377 0.0
C1092 C 0.95853 0.54688 0.88849 0.0
C1093 C 0.96973 0.53691 0.90836 0.0
C1094 C 0.96297 0.5446 0.9311 0.0
C1095 C 0.94662 0.56306 0.93379 0.0
H1096 H 0.68611 0.68973 0.19976 0.0
H1097 H 0.68304 0.67993 0.12407 0.0
H1098 H 0.71834 0.71832 0.19472 0.0
H1099 H 0.71525 0.70818 0.11894 0.0
H1100 H 0.73711 0.79509 0.16855 0.0
H1101 H 0.71494 0.75909 0.17739 0.0
H1102 H 0.75681 0.72057 0.12628 0.0
H1103 H 0.77893 0.75661 0.11723 0.0
C1104 C 0.69321 0.69271 0.18218 0.0
C1105 C 0.68229 0.68254 0.16229 0.0
C1106 C 0.71135 0.70939 0.17924 0.0
C1107 C 0.71907 0.71577 0.1564 0.0
C1108 C 0.70981 0.7036 0.13676 0.0
C1109 C 0.69147 0.68727 0.13968 0.0
C1110 C 0.74159 0.77897 0.15915 0.0
C1111 C 0.75959 0.77885 0.14193 0.0
C1112 C 0.72912 0.75825 0.16449 0.0
C1113 C 0.73425 0.73694 0.15264 0.0
C1114 C 0.75244 0.73672 0.13566 0.0
C1115 C 0.76505 0.7574 0.13045 0.0
H1116 H 0.49399 0.5289 0.36739 0.0
H1117 H 0.45522 0.491 0.4215 0.0
H1118 H 0.52859 0.50413 0.3749 0.0
H1119 H 0.48978 0.46612 0.42877 0.0
H1120 H 0.56579 0.42925 0.37254 0.0
H1121 H 0.53797 0.46192 0.36795 0.0
H1122 H 0.5314 0.46691 0.44403 0.0
H1123 H 0.55945 0.43411 0.44853 0.0
C1124 C 0.49281 0.51529 0.38088 0.0
C1125 C 0.4717 0.51177 0.39365 0.0
C1126 C 0.51267 0.50114 0.38518 0.0
C1127 C 0.51197 0.48327 0.4025 0.0
C1128 C 0.49101 0.47999 0.41556 0.0
C1129 C 0.47109 0.49404 0.41115 0.0
C1130 C 0.55917 0.43803 0.38827 0.0
C1131 C 0.56491 0.42937 0.41086 0.0
C1132 C 0.54314 0.45667 0.38567 0.0
C1133 C 0.53226 0.46679 0.40563 0.0
C1134 C 0.53934 0.45927 0.42833 0.0
C1135 C 0.55569 0.44079 0.43093 0.0
H1136 H 0.38015 0.22629 0.25767 0.0
H1137 H 0.32898 0.26616 0.29836 0.0
H1138 H 0.37062 0.24981 0.22267 0.0
H1139 H 0.31963 0.28974 0.26334 0.0
H1140 H 0.37171 0.32511 0.18486 0.0
H1141 H 0.37754 0.29215 0.21212 0.0
H1142 H 0.30187 0.28732 0.22238 0.0
H1143 H 0.29612 0.32028 0.19476 0.0
C1144 C 0.36685 0.24004 0.25916 0.0
C1145 C 0.35554 0.24454 0.28092 0.0
C1146 C 0.36137 0.25345 0.23908 0.0
C1147 C 0.34428 0.27149 0.24021 0.0
C1148 C 0.33262 0.27569 0.26182 0.0
C1149 C 0.33824 0.26243 0.28197 0.0
C1150 C 0.35629 0.31618 0.19202 0.0
C1151 C 0.33349 0.32503 0.18759 0.0
C1152 C 0.35961 0.29742 0.20777 0.0
C1153 C 0.34018 0.28741 0.21967 0.0
C1154 C 0.31718 0.29489 0.21363 0.0
C1155 C 0.31385 0.31345 0.19751 0.0
H1156 H 0.87343 0.18266 0.81544 0.0
H1157 H 0.79748 0.1865 0.80833 0.0
H1158 H 0.87783 0.21577 0.78818 0.0
H1159 H 0.80176 0.21972 0.78079 0.0
H1160 H 0.82525 0.2408 0.70376 0.0
H1161 H 0.81723 0.21782 0.73945 0.0
H1162 H 0.87083 0.25735 0.77712 0.0
H1163 H 0.87913 0.28015 0.7414 0.0
C1164 C 0.85764 0.19144 0.80896 0.0
C1165 C 0.83515 0.18218 0.81406 0.0
C1166 C 0.86012 0.21031 0.79318 0.0
C1167 C 0.84015 0.22008 0.78199 0.0
C1168 C 0.81748 0.21232 0.78892 0.0
C1169 C 0.81499 0.19361 0.80503 0.0
C1170 C 0.83534 0.24461 0.71963 0.0
C1171 C 0.85308 0.26211 0.71958 0.0
C1172 C 0.83049 0.23167 0.7402 0.0
C1173 C 0.84331 0.23587 0.76117 0.0
C1174 C 0.86072 0.25365 0.76123 0.0
C1175 C 0.8655 0.26667 0.74071 0.0
H1176 H 0.01303 0.5868 0.95455 0.0
H1177 H 0.97288 0.63959 0.99283 0.0
H1178 H 0.0347 0.57718 0.99063 0.0
H1179 H 0.9946 0.62981 0.02898 0.0
H1180 H 0.06321 0.55395 0.0592 0.0
H1181 H 0.03028 0.56009 0.03168 0.0
H1182 H 0.03691 0.63576 0.04086 0.0
H1183 H 0.06987 0.62953 0.068 0.0
C1184 C 0.00881 0.59636 0.97064 0.0
C1185 C 0.99146 0.61422 0.97069 0.0
C1186 C 0.02098 0.59057 0.99142 0.0
C1187 C 0.0162 0.60261 0.01269 0.0
C1188 C 0.99864 0.62024 0.01285 0.0
C1189 C 0.98629 0.62588 0.99211 0.0
C1190 C 0.05673 0.57179 0.05633 0.0
C1191 C 0.06893 0.5913 0.06575 0.0
C1192 C 0.03817 0.57533 0.04026 0.0
C1193 C 0.03132 0.59842 0.0338 0.0
C1194 C 0.04171 0.61777 0.04551 0.0
C1195 C 0.06048 0.61423 0.06121 0.0
H1196 H 0.62625 0.81345 0.32055 0.0
H1197 H 0.70213 0.81094 0.31206 0.0
H1198 H 0.62185 0.78114 0.29233 0.0
H1199 H 0.69782 0.7785 0.28361 0.0
H1200 H 0.67292 0.75971 0.2064 0.0
H1201 H 0.68153 0.78138 0.24269 0.0
H1202 H 0.62937 0.73974 0.28011 0.0
H1203 H 0.62049 0.71813 0.2437 0.0
C1204 C 0.64205 0.80517 0.31345 0.0
C1205 C 0.66451 0.81453 0.31855 0.0
C1206 C 0.63955 0.78673 0.29719 0.0
C1207 C 0.65947 0.7775 0.28547 0.0
C1208 C 0.68214 0.78545 0.29219 0.0
C1209 C 0.68465 0.80374 0.30875 0.0
C1210 C 0.66331 0.75509 0.22236 0.0
C1211 C 0.64574 0.73742 0.22202 0.0
C1212 C 0.6685 0.7673 0.24326 0.0
C1213 C 0.65619 0.7622 0.26431 0.0
C1214 C 0.63907 0.74412 0.26414 0.0
C1215 C 0.63398 0.73178 0.24326 0.0
H1216 H 0.43335 0.37612 0.56703 0.0
H1217 H 0.43898 0.45152 0.55613 0.0
H1218 H 0.46507 0.36947 0.53855 0.0
H1219 H 0.47073 0.44496 0.52732 0.0
H1220 H 0.5289 0.36526 0.49022 0.0
H1221 H 0.50702 0.37543 0.52612 0.0
H1222 H 0.46646 0.42701 0.48678 0.0
H1223 H 0.48835 0.41703 0.45093 0.0
C1224 C 0.44221 0.39132 0.55934 0.0
C1225 C 0.43395 0.41431 0.56391 0.0
C1226 C 0.46028 0.38753 0.54291 0.0
C1227 C 0.47015 0.40668 0.53044 0.0
C1228 C 0.46326 0.42986 0.53651 0.0
C1229 C 0.4454 0.43366 0.55329 0.0
C1230 C 0.51535 0.37881 0.48922 0.0
C1231 C 0.51016 0.39009 0.4676 0.0
C1232 C 0.50289 0.38466 0.50981 0.0
C1233 C 0.48515 0.40212 0.50932 0.0
C1234 C 0.4803 0.41375 0.48783 0.0
C1235 C 0.4926 0.40776 0.46719 0.0
H1236 H 0.12462 0.67394 0.68377 0.0
H1237 H 0.20037 0.68143 0.69013 0.0
H1238 H 0.11892 0.70744 0.71038 0.0
H1239 H 0.19477 0.71491 0.71715 0.0
H1240 H 0.11642 0.77447 0.75436 0.0
H1241 H 0.12514 0.75041 0.71951 0.0
H1242 H 0.17866 0.71261 0.75899 0.0
H1243 H 0.17009 0.73669 0.79385 0.0
C1244 C 0.14004 0.68356 0.68997 0.0
C1245 C 0.1629 0.67534 0.68476 0.0
C1246 C 0.13681 0.70263 0.70536 0.0
C1247 C 0.15641 0.71355 0.71613 0.0
C1248 C 0.17935 0.70665 0.70926 0.0
C1249 C 0.18258 0.68779 0.69348 0.0
C1250 C 0.1301 0.76107 0.75562 0.0
C1251 C 0.14235 0.75729 0.777 0.0
C1252 C 0.13511 0.74736 0.73562 0.0
C1253 C 0.15269 0.72978 0.73646 0.0
C1254 C 0.16528 0.7263 0.75769 0.0
C1255 C 0.1601 0.73985 0.77777 0.0
H1256 H 0.47383 0.86513 0.00839 0.0
H1257 H 0.51164 0.91895 0.04765 0.0
H1258 H 0.4974 0.87415 0.97336 0.0
H1259 H 0.53538 0.92772 0.01261 0.0
H1260 H 0.57107 0.87447 0.9339 0.0
H1261 H 0.53933 0.8684 0.96249 0.0
H1262 H 0.53306 0.94414 0.97151 0.0
H1263 H 0.56493 0.95012 0.9427 0.0
C1264 C 0.48718 0.87887 0.00959 0.0
C1265 C 0.49101 0.89114 0.03095 0.0
C1266 C 0.50064 0.88404 0.98947 0.0
C1267 C 0.51814 0.90172 0.99017 0.0
C1268 C 0.52176 0.91425 0.0114 0.0
C1269 C 0.50838 0.90898 0.03158 0.0
C1270 C 0.56217 0.88982 0.94122 0.0
C1271 C 0.57025 0.91273 0.93597 0.0
C1272 C 0.54407 0.88637 0.9577 0.0
C1273 C 0.53391 0.90578 0.9695 0.0
C1274 C 0.54076 0.92883 0.96288 0.0
C1275 C 0.55869 0.93229 0.94609 0.0
H1276 H 0.92871 0.12067 0.42883 0.0
H1277 H 0.93285 0.04475 0.43615 0.0
H1278 H 0.96207 0.12526 0.45574 0.0
H1279 H 0.9663 0.04923 0.46337 0.0
H1280 H 0.02536 0.12758 0.50348 0.0
H1281 H 0.00375 0.11838 0.4672 0.0
H1282 H 0.96369 0.06499 0.50461 0.0
H1283 H 0.98541 0.07393 0.54081 0.0
C1284 C 0.93762 0.10493 0.43525 0.0
C1285 C 0.92835 0.08239 0.43036 0.0
C1286 C 0.95665 0.10752 0.45081 0.0
C1287 C 0.96654 0.08761 0.46201 0.0
C1288 C 0.95882 0.0649 0.45521 0.0
C1289 C 0.93996 0.0623 0.4393 0.0
C1290 C 0.01208 0.11374 0.50395 0.0
C1291 C 0.00687 0.10174 0.52518 0.0
C1292 C 0.99975 0.10845 0.48313 0.0
C1293 C 0.98208 0.09092 0.483 0.0
C1294 C 0.97746 0.07834 0.50401 0.0
C1295 C 0.98968 0.08372 0.52487 0.0
loop_
_geom_bond_atom_site_label_1
_geom_bond_atom_site_label_2
_geom_bond_distance
_geom_bond_site_symmetry_2
_ccdc_geom_bond_type
Mg0 O1 2.028 . S
Mg0 O7 1.986 . S
Mg0 O9 2.114 . S
Mg0 O10 2.251 . S
Mg0 O13 2.010 . S
O1 Mg0 2.028 . S
O1 C4 1.250 . S
O2 Mg3 2.028 . S
O2 C4 1.248 . S
Mg3 O2 2.028 . S
Mg3 O8 2.032 . S
Mg3 O10 2.079 . S
C4 O1 1.250 . S
C4 O2 1.248 . S
C5 O6 1.264 . S
C5 O13 1.249 . S
O6 C5 1.264 . S
O7 Mg0 1.986 . S
O7 C11 1.246 . S
O8 Mg3 2.032 . S
O8 C11 1.259 . S
O9 Mg0 2.114 . S
O9 C12 1.252 . S
O10 Mg0 2.251 . S
O10 Mg3 2.079 . S
O10 C12 1.273 . S
C11 O7 1.246 . S
C11 O8 1.259 . S
C12 O9 1.252 . S
C12 O10 1.273 . S
O13 Mg0 2.010 . S
O13 C5 1.249 . S
Mg14 O15 2.028 . S
Mg14 O21 1.986 . S
Mg14 O23 2.114 . S
Mg14 O24 2.251 . S
Mg14 O27 2.010 . S
O15 Mg14 2.028 . S
O15 C18 1.250 . S
O16 Mg17 2.028 . S
O16 C18 1.248 . S
Mg17 O16 2.028 . S
Mg17 O22 2.032 . S
Mg17 O24 2.079 . S
C18 O15 1.250 . S
C18 O16 1.248 . S
C19 O20 1.264 . S
C19 O27 1.249 . S
O20 C19 1.264 . S
O21 Mg14 1.986 . S
O21 C25 1.246 . S
O22 Mg17 2.032 . S
O22 C25 1.259 . S
O23 Mg14 2.114 . S
O23 C26 1.252 . S
O24 Mg14 2.251 . S
O24 Mg17 2.079 . S
O24 C26 1.273 . S
C25 O21 1.246 . S
C25 O22 1.259 . S
C26 O23 1.252 . S
C26 O24 1.273 . S
O27 Mg14 2.010 . S
O27 C19 1.249 . S
Mg28 O29 2.028 . S
Mg28 O35 1.986 . S
Mg28 O37 2.114 . S
Mg28 O38 2.251 . S
Mg28 O41 2.010 . S
O29 Mg28 2.028 . S
O29 C32 1.250 . S
O30 Mg31 2.028 . S
O30 C32 1.248 . S
Mg31 O30 2.028 . S
Mg31 O36 2.032 . S
Mg31 O38 2.079 . S
C32 O29 1.250 . S
C32 O30 1.248 . S
C33 O34 1.264 . S
C33 O41 1.249 . S
O34 C33 1.264 . S
O35 Mg28 1.986 . S
O35 C39 1.246 . S
O36 Mg31 2.032 . S
O36 C39 1.259 . S
O37 Mg28 2.114 . S
O37 C40 1.252 . S
O38 Mg28 2.251 . S
O38 Mg31 2.079 . S
O38 C40 1.273 . S
C39 O35 1.246 . S
C39 O36 1.259 . S
C40 O37 1.252 . S
C40 O38 1.273 . S
O41 Mg28 2.010 . S
O41 C33 1.249 . S
Mg42 O43 2.028 . S
Mg42 O49 1.986 . S
Mg42 O51 2.114 . S
Mg42 O52 2.251 . S
Mg42 O55 2.010 . S
O43 Mg42 2.028 . S
O43 C46 1.250 . S
O44 Mg45 2.028 . S
O44 C46 1.248 . S
Mg45 O44 2.028 . S
Mg45 O50 2.032 . S
Mg45 O52 2.079 . S
C46 O43 1.250 . S
C46 O44 1.248 . S
C47 O48 1.264 . S
C47 O55 1.249 . S
O48 C47 1.264 . S
O49 Mg42 1.986 . S
O49 C53 1.246 . S
O50 Mg45 2.032 . S
O50 C53 1.259 . S
O51 Mg42 2.114 . S
O51 C54 1.252 . S
O52 Mg42 2.251 . S
O52 Mg45 2.079 . S
O52 C54 1.273 . S
C53 O49 1.246 . S
C53 O50 1.259 . S
C54 O51 1.252 . S
C54 O52 1.273 . S
O55 Mg42 2.010 . S
O55 C47 1.249 . S
Mg56 O57 2.028 . S
Mg56 O63 1.986 . S
Mg56 O65 2.114 . S
Mg56 O66 2.251 . S
Mg56 O69 2.010 . S
O57 Mg56 2.028 . S
O57 C60 1.250 . S
O58 Mg59 2.028 . S
O58 C60 1.248 . S
Mg59 O58 2.028 . S
Mg59 O64 2.032 . S
Mg59 O66 2.079 . S
C60 O57 1.250 . S
C60 O58 1.248 . S
C61 O62 1.264 . S
C61 O69 1.249 . S
O62 C61 1.264 . S
O63 Mg56 1.986 . S
O63 C67 1.246 . S
O64 Mg59 2.032 . S
O64 C67 1.259 . S
O65 Mg56 2.114 . S
O65 C68 1.252 . S
O66 Mg56 2.251 . S
O66 Mg59 2.079 . S
O66 C68 1.273 . S
C67 O63 1.246 . S
C67 O64 1.259 . S
C68 O65 1.252 . S
C68 O66 1.273 . S
O69 Mg56 2.010 . S
O69 C61 1.249 . S
Mg70 O71 2.028 . S
Mg70 O77 1.986 . S
Mg70 O79 2.114 . S
Mg70 O80 2.251 . S
Mg70 O83 2.010 . S
O71 Mg70 2.028 . S
O71 C74 1.250 . S
O72 Mg73 2.028 . S
O72 C74 1.248 . S
Mg73 O72 2.028 . S
Mg73 O78 2.032 . S
Mg73 O80 2.079 . S
C74 O71 1.250 . S
C74 O72 1.248 . S
C75 O76 1.264 . S
C75 O83 1.249 . S
O76 C75 1.264 . S
O77 Mg70 1.986 . S
O77 C81 1.246 . S
O78 Mg73 2.032 . S
O78 C81 1.259 . S
O79 Mg70 2.114 . S
O79 C82 1.252 . S
O80 Mg70 2.251 . S
O80 Mg73 2.079 . S
O80 C82 1.273 . S
C81 O77 1.246 . S
C81 O78 1.259 . S
C82 O79 1.252 . S
C82 O80 1.273 . S
O83 Mg70 2.010 . S
O83 C75 1.249 . S
Mg84 O85 2.028 . S
Mg84 O91 1.986 . S
Mg84 O93 2.114 . S
Mg84 O94 2.251 . S
Mg84 O97 2.010 . S
O85 Mg84 2.028 . S
O85 C88 1.250 . S
O86 Mg87 2.028 . S
O86 C88 1.248 . S
Mg87 O86 2.028 . S
Mg87 O92 2.032 . S
Mg87 O94 2.079 . S
C88 O85 1.250 . S
C88 O86 1.248 . S
C89 O90 1.264 . S
C89 O97 1.249 . S
O90 C89 1.264 . S
O91 Mg84 1.986 . S
O91 C95 1.246 . S
O92 Mg87 2.032 . S
O92 C95 1.259 . S
O93 Mg84 2.114 . S
O93 C96 1.252 . S
O94 Mg84 2.251 . S
O94 Mg87 2.079 . S
O94 C96 1.273 . S
C95 O91 1.246 . S
C95 O92 1.259 . S
C96 O93 1.252 . S
C96 O94 1.273 . S
O97 Mg84 2.010 . S
O97 C89 1.249 . S
Mg98 O99 2.028 . S
Mg98 O105 1.986 . S
Mg98 O107 2.114 . S
Mg98 O108 2.251 . S
Mg98 O111 2.010 . S
O99 Mg98 2.028 . S
O99 C102 1.250 . S
O100 Mg101 2.028 . S
O100 C102 1.248 . S
Mg101 O100 2.028 . S
Mg101 O106 2.032 . S
Mg101 O108 2.079 . S
C102 O99 1.250 . S
C102 O100 1.248 . S
C103 O104 1.264 . S
C103 O111 1.249 . S
O104 C103 1.264 . S
O105 Mg98 1.986 . S
O105 C109 1.246 . S
O106 Mg101 2.032 . S
O106 C109 1.259 . S
O107 Mg98 2.114 . S
O107 C110 1.252 . S
O108 Mg98 2.251 . S
O108 Mg101 2.079 . S
O108 C110 1.273 . S
C109 O105 1.246 . S
C109 O106 1.259 . S
C110 O107 1.252 . S
C110 O108 1.273 . S
O111 Mg98 2.010 . S
O111 C103 1.249 . S
Mg112 O113 2.028 . S
Mg112 O119 1.986 . S
Mg112 O121 2.114 . S
Mg112 O122 2.251 . S
Mg112 O125 2.010 . S
O113 Mg112 2.028 . S
O113 C116 1.250 . S
O114 Mg115 2.028 . S
O114 C116 1.248 . S
Mg115 O114 2.028 . S
Mg115 O120 2.032 . S
Mg115 O122 2.079 . S
C116 O113 1.250 . S
C116 O114 1.248 . S
C117 O118 1.264 . S
C117 O125 1.249 . S
O118 C117 1.264 . S
O119 Mg112 1.986 . S
O119 C123 1.246 . S
O120 Mg115 2.032 . S
O120 C123 1.259 . S
O121 Mg112 2.114 . S
O121 C124 1.252 . S
O122 Mg112 2.251 . S
O122 Mg115 2.079 . S
O122 C124 1.273 . S
C123 O119 1.246 . S
C123 O120 1.259 . S
C124 O121 1.252 . S
C124 O122 1.273 . S
O125 Mg112 2.010 . S
O125 C117 1.249 . S
Mg126 O127 2.028 . S
Mg126 O133 1.986 . S
Mg126 O135 2.114 . S
Mg126 O136 2.251 . S
Mg126 O139 2.010 . S
O127 Mg126 2.028 . S
O127 C130 1.250 . S
O128 Mg129 2.028 . S
O128 C130 1.248 . S
Mg129 O128 2.028 . S
Mg129 O134 2.032 . S
Mg129 O136 2.079 . S
C130 O127 1.250 . S
C130 O128 1.248 . S
C131 O132 1.264 . S
C131 O139 1.249 . S
O132 C131 1.264 . S
O133 Mg126 1.986 . S
O133 C137 1.246 . S
O134 Mg129 2.032 . S
O134 C137 1.259 . S
O135 Mg126 2.114 . S
O135 C138 1.252 . S
O136 Mg126 2.251 . S
O136 Mg129 2.079 . S
O136 C138 1.273 . S
C137 O133 1.246 . S
C137 O134 1.259 . S
C138 O135 1.252 . S
C138 O136 1.273 . S
O139 Mg126 2.010 . S
O139 C131 1.249 . S
Mg140 O141 2.028 . S
Mg140 O147 1.986 . S
Mg140 O149 2.114 . S
Mg140 O150 2.251 . S
Mg140 O153 2.010 . S
O141 Mg140 2.028 . S
O141 C144 1.250 . S
O142 Mg143 2.028 . S
O142 C144 1.248 . S
Mg143 O142 2.028 . S
Mg143 O148 2.032 . S
Mg143 O150 2.079 . S
C144 O141 1.250 . S
C144 O142 1.248 . S
C145 O146 1.264 . S
C145 O153 1.249 . S
O146 C145 1.264 . S
O147 Mg140 1.986 . S
O147 C151 1.246 . S
O148 Mg143 2.032 . S
O148 C151 1.259 . S
O149 Mg140 2.114 . S
O149 C152 1.252 . S
O150 Mg140 2.251 . S
O150 Mg143 2.079 . S
O150 C152 1.273 . S
C151 O147 1.246 . S
C151 O148 1.259 . S
C152 O149 1.252 . S
C152 O150 1.273 . S
O153 Mg140 2.010 . S
O153 C145 1.249 . S
Mg154 O155 2.028 . S
Mg154 O161 1.986 . S
Mg154 O163 2.114 . S
Mg154 O164 2.251 . S
Mg154 O167 2.010 . S
O155 Mg154 2.028 . S
O155 C158 1.250 . S
O156 Mg157 2.028 . S
O156 C158 1.248 . S
Mg157 O156 2.028 . S
Mg157 O162 2.032 . S
Mg157 O164 2.079 . S
C158 O155 1.250 . S
C158 O156 1.248 . S
C159 O160 1.264 . S
C159 O167 1.249 . S
O160 C159 1.264 . S
O161 Mg154 1.986 . S
O161 C165 1.246 . S
O162 Mg157 2.032 . S
O162 C165 1.259 . S
O163 Mg154 2.114 . S
O163 C166 1.252 . S
O164 Mg154 2.251 . S
O164 Mg157 2.079 . S
O164 C166 1.273 . S
C165 O161 1.246 . S
C165 O162 1.259 . S
C166 O163 1.252 . S
C166 O164 1.273 . S
O167 Mg154 2.010 . S
O167 C159 1.249 . S
Mg168 O169 2.028 . S
Mg168 O175 1.986 . S
Mg168 O177 2.114 . S
Mg168 O178 2.251 . S
Mg168 O181 2.010 . S
O169 Mg168 2.028 . S
O169 C172 1.250 . S
O170 Mg171 2.028 . S
O170 C172 1.248 . S
Mg171 O170 2.028 . S
Mg171 O176 2.032 . S
Mg171 O178 2.079 . S
C172 O169 1.250 . S
C172 O170 1.248 . S
C173 O174 1.264 . S
C173 O181 1.249 . S
O174 C173 1.264 . S
O175 Mg168 1.986 . S
O175 C179 1.246 . S
O176 Mg171 2.032 . S
O176 C179 1.259 . S
O177 Mg168 2.114 . S
O177 C180 1.252 . S
O178 Mg168 2.251 . S
O178 Mg171 2.079 . S
O178 C180 1.273 . S
C179 O175 1.246 . S
C179 O176 1.259 . S
C180 O177 1.252 . S
C180 O178 1.273 . S
O181 Mg168 2.010 . S
O181 C173 1.249 . S
Mg182 O183 2.028 . S
Mg182 O189 1.986 . S
Mg182 O191 2.114 . S
Mg182 O192 2.251 . S
Mg182 O195 2.010 . S
O183 Mg182 2.028 . S
O183 C186 1.250 . S
O184 Mg185 2.028 . S
O184 C186 1.248 . S
Mg185 O184 2.028 . S
Mg185 O190 2.032 . S
Mg185 O192 2.079 . S
C186 O183 1.250 . S
C186 O184 1.248 . S
C187 O188 1.264 . S
C187 O195 1.249 . S
O188 C187 1.264 . S
O189 Mg182 1.986 . S
O189 C193 1.246 . S
O190 Mg185 2.032 . S
O190 C193 1.259 . S
O191 Mg182 2.114 . S
O191 C194 1.252 . S
O192 Mg182 2.251 . S
O192 Mg185 2.079 . S
O192 C194 1.273 . S
C193 O189 1.246 . S
C193 O190 1.259 . S
C194 O191 1.252 . S
C194 O192 1.273 . S
O195 Mg182 2.010 . S
O195 C187 1.249 . S
Mg196 O197 2.028 . S
Mg196 O203 1.986 . S
Mg196 O205 2.114 . S
Mg196 O206 2.251 . S
Mg196 O209 2.010 . S
O197 Mg196 2.028 . S
O197 C200 1.250 . S
O198 Mg199 2.028 . S
O198 C200 1.248 . S
Mg199 O198 2.028 . S
Mg199 O204 2.032 . S
Mg199 O206 2.079 . S
C200 O197 1.250 . S
C200 O198 1.248 . S
C201 O202 1.264 . S
C201 O209 1.249 . S
O202 C201 1.264 . S
O203 Mg196 1.986 . S
O203 C207 1.246 . S
O204 Mg199 2.032 . S
O204 C207 1.259 . S
O205 Mg196 2.114 . S
O205 C208 1.252 . S
O206 Mg196 2.251 . S
O206 Mg199 2.079 . S
O206 C208 1.273 . S
C207 O203 1.246 . S
C207 O204 1.259 . S
C208 O205 1.252 . S
C208 O206 1.273 . S
O209 Mg196 2.010 . S
O209 C201 1.249 . S
Mg210 O211 2.028 . S
Mg210 O217 1.986 . S
Mg210 O219 2.114 . S
Mg210 O220 2.251 . S
Mg210 O223 2.010 . S
O211 Mg210 2.028 . S
O211 C214 1.250 . S
O212 Mg213 2.028 . S
O212 C214 1.248 . S
Mg213 O212 2.028 . S
Mg213 O218 2.032 . S
Mg213 O220 2.079 . S
C214 O211 1.250 . S
C214 O212 1.248 . S
C215 O216 1.264 . S
C215 O223 1.249 . S
O216 C215 1.264 . S
O217 Mg210 1.986 . S
O217 C221 1.246 . S
O218 Mg213 2.032 . S
O218 C221 1.259 . S
O219 Mg210 2.114 . S
O219 C222 1.252 . S
O220 Mg210 2.251 . S
O220 Mg213 2.079 . S
O220 C222 1.273 . S
C221 O217 1.246 . S
C221 O218 1.259 . S
C222 O219 1.252 . S
C222 O220 1.273 . S
O223 Mg210 2.010 . S
O223 C215 1.249 . S
Mg224 O225 2.028 . S
Mg224 O231 1.986 . S
Mg224 O233 2.114 . S
Mg224 O234 2.251 . S
Mg224 O237 2.010 . S
O225 Mg224 2.028 . S
O225 C228 1.250 . S
O226 Mg227 2.028 . S
O226 C228 1.248 . S
Mg227 O226 2.028 . S
Mg227 O232 2.032 . S
Mg227 O234 2.079 . S
C228 O225 1.250 . S
C228 O226 1.248 . S
C229 O230 1.264 . S
C229 O237 1.249 . S
O230 C229 1.264 . S
O231 Mg224 1.986 . S
O231 C235 1.246 . S
O232 Mg227 2.032 . S
O232 C235 1.259 . S
O233 Mg224 2.114 . S
O233 C236 1.252 . S
O234 Mg224 2.251 . S
O234 Mg227 2.079 . S
O234 C236 1.273 . S
C235 O231 1.246 . S
C235 O232 1.259 . S
C236 O233 1.252 . S
C236 O234 1.273 . S
O237 Mg224 2.010 . S
O237 C229 1.249 . S
Mg238 O239 2.028 . S
Mg238 O245 1.986 . S
Mg238 O247 2.114 . S
Mg238 O248 2.251 . S
Mg238 O251 2.010 . S
O239 Mg238 2.028 . S
O239 C242 1.250 . S
O240 Mg241 2.028 . S
O240 C242 1.248 . S
Mg241 O240 2.028 . S
Mg241 O246 2.032 . S
Mg241 O248 2.079 . S
C242 O239 1.250 . S
C242 O240 1.248 . S
C243 O244 1.264 . S
C243 O251 1.249 . S
O244 C243 1.264 . S
O245 Mg238 1.986 . S
O245 C249 1.246 . S
O246 Mg241 2.032 . S
O246 C249 1.259 . S
O247 Mg238 2.114 . S
O247 C250 1.252 . S
O248 Mg238 2.251 . S
O248 Mg241 2.079 . S
O248 C250 1.273 . S
C249 O245 1.246 . S
C249 O246 1.259 . S
C250 O247 1.252 . S
C250 O248 1.273 . S
O251 Mg238 2.010 . S
O251 C243 1.249 . S
Mg252 O253 2.028 . S
Mg252 O259 1.986 . S
Mg252 O261 2.114 . S
Mg252 O262 2.251 . S
Mg252 O265 2.010 . S
O253 Mg252 2.028 . S
O253 C256 1.250 . S
O254 Mg255 2.028 . S
O254 C256 1.248 . S
Mg255 O254 2.028 . S
Mg255 O260 2.032 . S
Mg255 O262 2.079 . S
C256 O253 1.250 . S
C256 O254 1.248 . S
C257 O258 1.264 . S
C257 O265 1.249 . S
O258 C257 1.264 . S
O259 Mg252 1.986 . S
O259 C263 1.246 . S
O260 Mg255 2.032 . S
O260 C263 1.259 . S
O261 Mg252 2.114 . S
O261 C264 1.252 . S
O262 Mg252 2.251 . S
O262 Mg255 2.079 . S
O262 C264 1.273 . S
C263 O259 1.246 . S
C263 O260 1.259 . S
C264 O261 1.252 . S
C264 O262 1.273 . S
O265 Mg252 2.010 . S
O265 C257 1.249 . S
Mg266 O267 2.028 . S
Mg266 O273 1.986 . S
Mg266 O275 2.114 . S
Mg266 O276 2.251 . S
Mg266 O279 2.010 . S
O267 Mg266 2.028 . S
O267 C270 1.250 . S
O268 Mg269 2.028 . S
O268 C270 1.248 . S
Mg269 O268 2.028 . S
Mg269 O274 2.032 . S
Mg269 O276 2.079 . S
C270 O267 1.250 . S
C270 O268 1.248 . S
C271 O272 1.264 . S
C271 O279 1.249 . S
O272 C271 1.264 . S
O273 Mg266 1.986 . S
O273 C277 1.246 . S
O274 Mg269 2.032 . S
O274 C277 1.259 . S
O275 Mg266 2.114 . S
O275 C278 1.252 . S
O276 Mg266 2.251 . S
O276 Mg269 2.079 . S
O276 C278 1.273 . S
C277 O273 1.246 . S
C277 O274 1.259 . S
C278 O275 1.252 . S
C278 O276 1.273 . S
O279 Mg266 2.010 . S
O279 C271 1.249 . S
Mg280 O281 2.028 . S
Mg280 O287 1.986 . S
Mg280 O289 2.114 . S
Mg280 O290 2.251 . S
Mg280 O293 2.010 . S
O281 Mg280 2.028 . S
O281 C284 1.250 . S
O282 Mg283 2.028 . S
O282 C284 1.248 . S
Mg283 O282 2.028 . S
Mg283 O288 2.032 . S
Mg283 O290 2.079 . S
C284 O281 1.250 . S
C284 O282 1.248 . S
C285 O286 1.264 . S
C285 O293 1.249 . S
O286 C285 1.264 . S
O287 Mg280 1.986 . S
O287 C291 1.246 . S
O288 Mg283 2.032 . S
O288 C291 1.259 . S
O289 Mg280 2.114 . S
O289 C292 1.252 . S
O290 Mg280 2.251 . S
O290 Mg283 2.079 . S
O290 C292 1.273 . S
C291 O287 1.246 . S
C291 O288 1.259 . S
C292 O289 1.252 . S
C292 O290 1.273 . S
O293 Mg280 2.010 . S
O293 C285 1.249 . S
Mg294 O295 2.028 . S
Mg294 O301 1.986 . S
Mg294 O303 2.114 . S
Mg294 O304 2.251 . S
Mg294 O307 2.010 . S
O295 Mg294 2.028 . S
O295 C298 1.250 . S
O296 Mg297 2.028 . S
O296 C298 1.248 . S
Mg297 O296 2.028 . S
Mg297 O302 2.032 . S
Mg297 O304 2.079 . S
C298 O295 1.250 . S
C298 O296 1.248 . S
C299 O300 1.264 . S
C299 O307 1.249 . S
O300 C299 1.264 . S
O301 Mg294 1.986 . S
O301 C305 1.246 . S
O302 Mg297 2.032 . S
O302 C305 1.259 . S
O303 Mg294 2.114 . S
O303 C306 1.252 . S
O304 Mg294 2.251 . S
O304 Mg297 2.079 . S
O304 C306 1.273 . S
C305 O301 1.246 . S
C305 O302 1.259 . S
C306 O303 1.252 . S
C306 O304 1.273 . S
O307 Mg294 2.010 . S
O307 C299 1.249 . S
Mg308 O309 2.028 . S
Mg308 O315 1.986 . S
Mg308 O317 2.114 . S
Mg308 O318 2.251 . S
Mg308 O321 2.010 . S
O309 Mg308 2.028 . S
O309 C312 1.250 . S
O310 Mg311 2.028 . S
O310 C312 1.248 . S
Mg311 O310 2.028 . S
Mg311 O316 2.032 . S
Mg311 O318 2.079 . S
C312 O309 1.250 . S
C312 O310 1.248 . S
C313 O314 1.264 . S
C313 O321 1.249 . S
O314 C313 1.264 . S
O315 Mg308 1.986 . S
O315 C319 1.246 . S
O316 Mg311 2.032 . S
O316 C319 1.259 . S
O317 Mg308 2.114 . S
O317 C320 1.252 . S
O318 Mg308 2.251 . S
O318 Mg311 2.079 . S
O318 C320 1.273 . S
C319 O315 1.246 . S
C319 O316 1.259 . S
C320 O317 1.252 . S
C320 O318 1.273 . S
O321 Mg308 2.010 . S
O321 C313 1.249 . S
Mg322 O323 2.028 . S
Mg322 O329 1.986 . S
Mg322 O331 2.114 . S
Mg322 O332 2.251 . S
Mg322 O335 2.010 . S
O323 Mg322 2.028 . S
O323 C326 1.250 . S
O324 Mg325 2.028 . S
O324 C326 1.248 . S
Mg325 O324 2.028 . S
Mg325 O330 2.032 . S
Mg325 O332 2.079 . S
C326 O323 1.250 . S
C326 O324 1.248 . S
C327 O328 1.264 . S
C327 O335 1.249 . S
O328 C327 1.264 . S
O329 Mg322 1.986 . S
O329 C333 1.246 . S
O330 Mg325 2.032 . S
O330 C333 1.259 . S
O331 Mg322 2.114 . S
O331 C334 1.252 . S
O332 Mg322 2.251 . S
O332 Mg325 2.079 . S
O332 C334 1.273 . S
C333 O329 1.246 . S
C333 O330 1.259 . S
C334 O331 1.252 . S
C334 O332 1.273 . S
O335 Mg322 2.010 . S
O335 C327 1.249 . S
H336 C344 0.950 . S
H337 C349 0.950 . S
H338 C346 0.950 . S
H339 C348 0.950 . S
H340 C350 0.950 . S
H341 C352 0.950 . S
H342 C354 0.950 . S
H343 C355 0.950 . S
C344 H336 0.950 . S
C344 C345 1.386 . S
C344 C346 1.391 . S
C345 C344 1.386 . S
C345 C349 1.393 . S
C346 H338 0.950 . S
C346 C344 1.391 . S
C346 C347 1.400 . S
C347 C346 1.400 . S
C347 C348 1.398 . S
C347 C353 1.491 . S
C348 H339 0.950 . S
C348 C347 1.398 . S
C348 C349 1.391 . S
C349 H337 0.950 . S
C349 C345 1.393 . S
C349 C348 1.391 . S
C350 H340 0.950 . S
C350 C351 1.386 . S
C350 C352 1.391 . S
C351 C350 1.386 . S
C351 C355 1.393 . S
C352 H341 0.950 . S
C352 C350 1.391 . S
C352 C353 1.400 . S
C353 C347 1.491 . S
C353 C352 1.400 . S
C353 C354 1.398 . S
C354 H342 0.950 . S
C354 C353 1.398 . S
C354 C355 1.391 . S
C355 H343 0.950 . S
C355 C351 1.393 . S
C355 C354 1.391 . S
H356 C364 0.950 1_655 S
H357 C369 0.950 . S
H358 C366 0.950 . S
H359 C368 0.950 . S
H360 C370 0.950 . S
H361 C372 0.950 . S
H362 C374 0.950 . S
H363 C375 0.950 . S
C364 H356 0.950 1_455 S
C364 C365 1.386 1_455 S
C364 C366 1.391 . S
C365 C364 1.386 1_655 S
C365 C369 1.393 1_655 S
C366 H358 0.950 . S
C366 C364 1.391 . S
C366 C367 1.400 . S
C367 C366 1.400 . S
C367 C368 1.398 . S
C367 C373 1.491 . S
C368 H359 0.950 . S
C368 C367 1.398 . S
C368 C369 1.391 . S
C369 H357 0.950 . S
C369 C365 1.393 1_455 S
C369 C368 1.391 . S
C370 H360 0.950 . S
C370 C371 1.386 . S
C370 C372 1.391 . S
C371 C370 1.386 . S
C371 C375 1.393 . S
C372 H361 0.950 . S
C372 C370 1.391 . S
C372 C373 1.400 . S
C373 C367 1.491 . S
C373 C372 1.400 . S
C373 C374 1.398 . S
C374 H362 0.950 . S
C374 C373 1.398 . S
C374 C375 1.391 . S
C375 H363 0.950 . S
C375 C371 1.393 . S
C375 C374 1.391 . S
H376 C384 0.950 . S
H377 C389 0.950 . S
H378 C386 0.950 . S
H379 C388 0.950 . S
H380 C390 0.950 . S
H381 C392 0.950 . S
H382 C394 0.950 . S
H383 C395 0.960 . S
C384 H376 0.950 . S
C384 C385 1.386 . S
C384 C386 1.391 . S
C385 C384 1.386 . S
C385 C389 1.393 . S
C386 H378 0.950 . S
C386 C384 1.391 . S
C386 C387 1.400 . S
C387 C386 1.400 . S
C387 C388 1.398 . S
C387 C393 1.491 . S
C388 H379 0.950 . S
C388 C387 1.398 . S
C388 C389 1.391 . S
C389 H377 0.950 . S
C389 C385 1.393 . S
C389 C388 1.391 . S
C390 H380 0.950 . S
C390 C391 1.374 1_556 S
C390 C392 1.391 . S
C391 C390 1.374 1_554 S
C391 C395 1.393 . S
C392 H381 0.950 . S
C392 C390 1.391 . S
C392 C393 1.400 . S
C393 C387 1.491 . S
C393 C392 1.400 . S
C393 C394 1.398 . S
C394 H382 0.950 . S
C394 C393 1.398 . S
C394 C395 1.380 1_556 S
C395 H383 0.960 . S
C395 C391 1.393 . S
C395 C394 1.380 1_554 S
H396 C404 0.950 . S
H397 C409 0.950 . S
H398 C406 0.950 . S
H399 C408 0.950 . S
H400 C410 0.950 . S
H401 C412 0.950 . S
H402 C414 0.950 . S
H403 C415 0.950 . S
C404 H396 0.950 . S
C404 C405 1.386 . S
C404 C406 1.391 . S
C405 C404 1.386 . S
C405 C409 1.393 . S
C406 H398 0.950 . S
C406 C404 1.391 . S
C406 C407 1.400 . S
C407 C406 1.400 . S
C407 C408 1.398 . S
C407 C413 1.491 . S
C408 H399 0.950 . S
C408 C407 1.398 . S
C408 C409 1.391 . S
C409 H397 0.950 . S
C409 C405 1.393 . S
C409 C408 1.391 . S
C410 H400 0.950 . S
C410 C411 1.386 . S
C410 C412 1.391 . S
C411 C410 1.386 . S
C411 C415 1.393 . S
C412 H401 0.950 . S
C412 C410 1.391 . S
C412 C413 1.400 . S
C413 C407 1.491 . S
C413 C412 1.400 . S
C413 C414 1.398 . S
C414 H402 0.950 . S
C414 C413 1.398 . S
C414 C415 1.391 . S
C415 H403 0.950 . S
C415 C411 1.393 . S
C415 C414 1.391 . S
H416 C424 0.950 . S
H417 C429 0.950 . S
H418 C426 0.950 . S
H419 C428 0.950 . S
H420 C430 0.950 . S
H421 C432 0.950 . S
H422 C434 0.950 . S
H423 C435 0.950 . S
C424 H416 0.950 . S
C424 C425 1.386 . S
C424 C426 1.391 . S
C425 C424 1.386 . S
C425 C429 1.393 . S
C426 H418 0.950 . S
C426 C424 1.391 . S
C426 C427 1.400 . S
C427 C426 1.400 . S
C427 C428 1.398 . S
C427 C433 1.491 . S
C428 H419 0.950 . S
C428 C427 1.398 . S
C428 C429 1.391 . S
C429 H417 0.950 . S
C429 C425 1.393 . S
C429 C428 1.391 . S
C430 H420 0.950 . S
C430 C431 1.386 . S
C430 C432 1.391 . S
C431 C430 1.386 . S
C431 C435 1.393 . S
C432 H421 0.950 . S
C432 C430 1.391 . S
C432 C433 1.400 . S
C433 C427 1.491 . S
C433 C432 1.400 . S
C433 C434 1.398 . S
C434 H422 0.950 . S
C434 C433 1.398 . S
C434 C435 1.391 . S
C435 H423 0.950 . S
C435 C431 1.393 . S
C435 C434 1.391 . S
H436 C444 0.950 . S
H437 C449 0.950 . S
H438 C446 0.950 . S
H439 C448 0.950 . S
H440 C450 0.950 . S
H441 C452 0.950 . S
H442 C454 0.950 . S
H443 C455 0.950 1_455 S
C444 H436 0.950 . S
C444 C445 1.386 . S
C444 C446 1.391 . S
C445 C444 1.386 . S
C445 C449 1.393 . S
C446 H438 0.950 . S
C446 C444 1.391 . S
C446 C447 1.400 . S
C447 C446 1.400 . S
C447 C448 1.398 . S
C447 C453 1.491 . S
C448 H439 0.950 . S
C448 C447 1.398 . S
C448 C449 1.391 . S
C449 H437 0.950 . S
C449 C445 1.393 . S
C449 C448 1.391 . S
C450 H440 0.950 . S
C450 C451 1.376 1_655 S
C450 C452 1.391 . S
C451 C450 1.376 1_455 S
C451 C455 1.392 1_455 S
C452 H441 0.950 . S
C452 C450 1.391 . S
C452 C453 1.400 . S
C453 C447 1.491 . S
C453 C452 1.400 . S
C453 C454 1.398 . S
C454 H442 0.950 . S
C454 C453 1.398 . S
C454 C455 1.391 . S
C455 H443 0.950 1_655 S
C455 C451 1.392 1_655 S
C455 C454 1.391 . S
H456 C464 0.950 . S
H457 C469 0.950 . S
H458 C466 0.950 . S
H459 C468 0.950 . S
H460 C470 0.950 . S
H461 C472 0.950 . S
H462 C474 0.950 . S
H463 C475 0.950 . S
C464 H456 0.950 . S
C464 C465 1.386 . S
C464 C466 1.391 . S
C465 C464 1.386 . S
C465 C469 1.393 . S
C466 H458 0.950 . S
C466 C464 1.391 . S
C466 C467 1.400 . S
C467 C466 1.400 . S
C467 C468 1.398 . S
C467 C473 1.491 . S
C468 H459 0.950 . S
C468 C467 1.398 . S
C468 C469 1.391 . S
C469 H457 0.950 . S
C469 C465 1.393 . S
C469 C468 1.391 . S
C470 H460 0.950 . S
C470 C471 1.386 1_554 S
C470 C472 1.391 . S
C471 C470 1.386 1_556 S
C471 C475 1.393 . S
C472 H461 0.950 . S
C472 C470 1.391 . S
C472 C473 1.400 . S
C473 C467 1.491 . S
C473 C472 1.400 . S
C473 C474 1.398 . S
C474 H462 0.950 . S
C474 C473 1.398 . S
C474 C475 1.391 1_554 S
C475 H463 0.950 . S
C475 C471 1.393 . S
C475 C474 1.391 1_556 S
H476 C484 0.950 . S
H477 C489 0.950 . S
H478 C486 0.950 . S
H479 C488 0.950 . S
H480 C490 0.950 . S
H481 C492 0.950 . S
H482 C494 0.950 . S
H483 C495 0.950 . S
C484 H476 0.950 . S
C484 C485 1.386 . S
C484 C486 1.391 . S
C485 C484 1.386 . S
C485 C489 1.393 . S
C486 H478 0.950 . S
C486 C484 1.391 . S
C486 C487 1.400 . S
C487 C486 1.400 . S
C487 C488 1.398 . S
C487 C493 1.491 . S
C488 H479 0.950 . S
C488 C487 1.398 . S
C488 C489 1.391 . S
C489 H477 0.950 . S
C489 C485 1.393 . S
C489 C488 1.391 . S
C490 H480 0.950 . S
C490 C491 1.386 . S
C490 C492 1.391 . S
C491 C490 1.386 . S
C491 C495 1.393 . S
C492 H481 0.950 . S
C492 C490 1.391 . S
C492 C493 1.400 . S
C493 C487 1.491 . S
C493 C492 1.400 . S
C493 C494 1.398 . S
C494 H482 0.950 . S
C494 C493 1.398 . S
C494 C495 1.391 . S
C495 H483 0.950 . S
C495 C491 1.393 . S
C495 C494 1.391 . S
H496 C504 0.950 . S
H497 C509 0.950 . S
H498 C506 0.950 . S
H499 C508 0.950 . S
H500 C510 0.950 . S
H501 C512 0.950 . S
H502 C514 0.950 . S
H503 C515 0.950 . S
C504 H496 0.950 . S
C504 C505 1.386 . S
C504 C506 1.391 . S
C505 C504 1.386 . S
C505 C509 1.393 . S
C506 H498 0.950 . S
C506 C504 1.391 . S
C506 C507 1.400 . S
C507 C506 1.400 . S
C507 C508 1.398 . S
C507 C513 1.491 . S
C508 H499 0.950 . S
C508 C507 1.398 . S
C508 C509 1.391 . S
C509 H497 0.950 . S
C509 C505 1.393 . S
C509 C508 1.391 . S
C510 H500 0.950 . S
C510 C511 1.386 . S
C510 C512 1.391 . S
C511 C510 1.386 . S
C511 C515 1.393 . S
C512 H501 0.950 . S
C512 C510 1.391 . S
C512 C513 1.400 . S
C513 C507 1.491 . S
C513 C512 1.400 . S
C513 C514 1.398 . S
C514 H502 0.950 . S
C514 C513 1.398 . S
C514 C515 1.391 . S
C515 H503 0.950 . S
C515 C511 1.393 . S
C515 C514 1.391 . S
H516 C524 0.950 . S
H517 C529 0.950 . S
H518 C526 0.950 . S
H519 C528 0.950 . S
H520 C530 0.950 . S
H521 C532 0.950 . S
H522 C534 0.950 . S
H523 C535 0.950 . S
C524 H516 0.950 . S
C524 C525 1.386 1_545 S
C524 C526 1.391 . S
C525 C524 1.386 1_565 S
C525 C529 1.393 . S
C526 H518 0.950 . S
C526 C524 1.391 . S
C526 C527 1.400 . S
C527 C526 1.400 . S
C527 C528 1.398 . S
C527 C533 1.491 . S
C528 H519 0.950 . S
C528 C527 1.398 . S
C528 C529 1.391 1_545 S
C529 H517 0.950 . S
C529 C525 1.393 . S
C529 C528 1.391 1_565 S
C530 H520 0.950 . S
C530 C531 1.386 . S
C530 C532 1.391 . S
C531 C530 1.386 . S
C531 C535 1.393 . S
C532 H521 0.950 . S
C532 C530 1.391 . S
C532 C533 1.400 . S
C533 C527 1.491 . S
C533 C532 1.400 . S
C533 C534 1.398 . S
C534 H522 0.950 . S
C534 C533 1.398 . S
C534 C535 1.391 . S
C535 H523 0.950 . S
C535 C531 1.393 . S
C535 C534 1.391 . S
H536 C544 0.950 . S
H537 C549 0.950 . S
H538 C546 0.950 . S
H539 C548 0.950 . S
H540 C550 0.950 . S
H541 C552 0.950 . S
H542 C554 0.950 . S
H543 C555 0.950 . S
C544 H536 0.950 . S
C544 C545 1.386 . S
C544 C546 1.391 . S
C545 C544 1.386 . S
C545 C549 1.393 . S
C546 H538 0.950 . S
C546 C544 1.391 . S
C546 C547 1.400 . S
C547 C546 1.400 . S
C547 C548 1.398 . S
C547 C553 1.491 . S
C548 H539 0.950 . S
C548 C547 1.398 . S
C548 C549 1.391 . S
C549 H537 0.950 . S
C549 C545 1.393 . S
C549 C548 1.391 . S
C550 H540 0.950 . S
C550 C551 1.386 1_565 S
C550 C552 1.391 . S
C551 C550 1.386 1_545 S
C551 C555 1.393 . S
C552 H541 0.950 . S
C552 C550 1.391 . S
C552 C553 1.400 . S
C553 C547 1.491 . S
C553 C552 1.400 . S
C553 C554 1.398 . S
C554 H542 0.950 . S
C554 C553 1.398 . S
C554 C555 1.391 1_565 S
C555 H543 0.950 . S
C555 C551 1.393 . S
C555 C554 1.391 1_545 S
H556 C564 0.950 . S
H557 C569 0.950 . S
H558 C566 0.950 . S
H559 C568 0.950 . S
H560 C570 0.950 . S
H561 C572 0.950 . S
H562 C574 0.950 . S
H563 C575 0.950 . S
C564 H556 0.950 . S
C564 C565 1.386 . S
C564 C566 1.391 . S
C565 C564 1.386 . S
C565 C569 1.393 . S
C566 H558 0.950 . S
C566 C564 1.391 . S
C566 C567 1.400 . S
C567 C566 1.400 . S
C567 C568 1.398 . S
C567 C573 1.491 . S
C568 H559 0.950 . S
C568 C567 1.398 . S
C568 C569 1.391 . S
C569 H557 0.950 . S
C569 C565 1.393 . S
C569 C568 1.391 . S
C570 H560 0.950 . S
C570 C571 1.386 . S
C570 C572 1.391 . S
C571 C570 1.386 . S
C571 C575 1.393 . S
C572 H561 0.950 . S
C572 C570 1.391 . S
C572 C573 1.400 . S
C573 C567 1.491 . S
C573 C572 1.400 . S
C573 C574 1.398 . S
C574 H562 0.950 . S
C574 C573 1.398 . S
C574 C575 1.391 . S
C575 H563 0.950 . S
C575 C571 1.393 . S
C575 C574 1.391 . S
H576 C584 0.950 . S
H577 C589 0.950 . S
H578 C586 0.950 . S
H579 C588 0.950 . S
H580 C590 0.950 . S
H581 C592 0.950 . S
H582 C594 0.950 . S
H583 C595 0.950 . S
C584 H576 0.950 . S
C584 C585 1.386 . S
C584 C586 1.391 . S
C585 C584 1.386 . S
C585 C589 1.393 . S
C586 H578 0.950 . S
C586 C584 1.391 . S
C586 C587 1.400 . S
C587 C586 1.400 . S
C587 C588 1.398 . S
C587 C593 1.491 . S
C588 H579 0.950 . S
C588 C587 1.398 . S
C588 C589 1.391 . S
C589 H577 0.950 . S
C589 C585 1.393 . S
C589 C588 1.391 . S
C590 H580 0.950 . S
C590 C591 1.386 . S
C590 C592 1.391 . S
C591 C590 1.386 . S
C591 C595 1.393 . S
C592 H581 0.950 . S
C592 C590 1.391 . S
C592 C593 1.400 . S
C593 C587 1.491 . S
C593 C592 1.400 . S
C593 C594 1.398 . S
C594 H582 0.950 . S
C594 C593 1.398 . S
C594 C595 1.391 . S
C595 H583 0.950 . S
C595 C591 1.393 . S
C595 C594 1.391 . S
H596 C604 0.947 1_565 S
H597 C609 0.950 . S
H598 C606 0.950 . S
H599 C608 0.950 . S
H600 C610 0.950 . S
H601 C612 0.950 . S
H602 C614 0.950 . S
H603 C615 0.950 . S
C604 H596 0.947 1_545 S
C604 C605 1.374 1_545 S
C604 C606 1.404 . S
C605 C604 1.374 1_565 S
C605 C609 1.393 . S
C606 H598 0.950 . S
C606 C604 1.404 . S
C606 C607 1.400 . S
C607 C606 1.400 . S
C607 C608 1.398 . S
C607 C613 1.491 . S
C608 H599 0.950 . S
C608 C607 1.398 . S
C608 C609 1.391 1_545 S
C609 H597 0.950 . S
C609 C605 1.393 . S
C609 C608 1.391 1_565 S
C610 H600 0.950 . S
C610 C611 1.386 . S
C610 C612 1.391 . S
C611 C610 1.386 . S
C611 C615 1.393 . S
C612 H601 0.950 . S
C612 C610 1.391 . S
C612 C613 1.400 . S
C613 C607 1.491 . S
C613 C612 1.400 . S
C613 C614 1.398 . S
C614 H602 0.950 . S
C614 C613 1.398 . S
C614 C615 1.391 . S
C615 H603 0.950 . S
C615 C611 1.393 . S
C615 C614 1.391 . S
H616 C624 0.950 . S
H617 C629 0.950 . S
H618 C626 0.950 . S
H619 C628 0.950 . S
H620 C630 0.950 . S
H621 C632 0.950 . S
H622 C634 0.950 . S
H623 C635 0.950 . S
C624 H616 0.950 . S
C624 C625 1.386 . S
C624 C626 1.391 . S
C625 C624 1.386 . S
C625 C629 1.393 . S
C626 H618 0.950 . S
C626 C624 1.391 . S
C626 C627 1.400 . S
C627 C626 1.400 . S
C627 C628 1.398 . S
C627 C633 1.491 . S
C628 H619 0.950 . S
C628 C627 1.398 . S
C628 C629 1.391 . S
C629 H617 0.950 . S
C629 C625 1.393 . S
C629 C628 1.391 . S
C630 H620 0.950 . S
C630 C631 1.386 . S
C630 C632 1.391 . S
C631 C630 1.386 . S
C631 C635 1.393 1_554 S
C632 H621 0.950 . S
C632 C630 1.391 . S
C632 C633 1.400 1_554 S
C633 C627 1.491 . S
C633 C632 1.400 1_556 S
C633 C634 1.398 . S
C634 H622 0.950 . S
C634 C633 1.398 . S
C634 C635 1.391 . S
C635 H623 0.950 . S
C635 C631 1.393 1_556 S
C635 C634 1.391 . S
H636 C644 0.950 . S
H637 C649 0.950 . S
H638 C646 0.950 . S
H639 C648 0.950 . S
H640 C650 0.950 . S
H641 C652 0.950 . S
H642 C654 0.950 . S
H643 C655 0.950 . S
C644 H636 0.950 . S
C644 C645 1.386 . S
C644 C646 1.391 . S
C645 C644 1.386 . S
C645 C649 1.393 1_545 S
C646 H638 0.950 . S
C646 C644 1.391 . S
C646 C647 1.400 1_545 S
C647 C646 1.400 1_565 S
C647 C648 1.398 . S
C647 C653 1.491 . S
C648 H639 0.950 . S
C648 C647 1.398 . S
C648 C649 1.391 . S
C649 H637 0.950 . S
C649 C645 1.393 1_565 S
C649 C648 1.391 . S
C650 H640 0.950 . S
C650 C651 1.386 . S
C650 C652 1.391 . S
C651 C650 1.386 . S
C651 C655 1.393 . S
C652 H641 0.950 . S
C652 C650 1.391 . S
C652 C653 1.400 . S
C653 C647 1.491 . S
C653 C652 1.400 . S
C653 C654 1.398 . S
C654 H642 0.950 . S
C654 C653 1.398 . S
C654 C655 1.391 . S
C655 H643 0.950 . S
C655 C651 1.393 . S
C655 C654 1.391 . S
H656 C664 0.950 . S
H657 C669 0.950 . S
H658 C666 0.950 . S
H659 C668 0.950 . S
H660 C670 0.950 . S
H661 C672 0.950 . S
H662 C674 0.950 . S
H663 C675 0.950 . S
C664 H656 0.950 . S
C664 C665 1.386 . S
C664 C666 1.391 . S
C665 C664 1.386 . S
C665 C669 1.393 . S
C666 H658 0.950 . S
C666 C664 1.391 . S
C666 C667 1.400 . S
C667 C666 1.400 . S
C667 C668 1.398 . S
C667 C673 1.491 . S
C668 H659 0.950 . S
C668 C667 1.398 . S
C668 C669 1.391 . S
C669 H657 0.950 . S
C669 C665 1.393 . S
C669 C668 1.391 . S
C670 H660 0.950 . S
C670 C671 1.386 . S
C670 C672 1.391 . S
C671 C670 1.386 . S
C671 C675 1.393 . S
C672 H661 0.950 . S
C672 C670 1.391 . S
C672 C673 1.400 . S
C673 C667 1.491 . S
C673 C672 1.400 . S
C673 C674 1.398 . S
C674 H662 0.950 . S
C674 C673 1.398 . S
C674 C675 1.391 . S
C675 H663 0.950 . S
C675 C671 1.393 . S
C675 C674 1.391 . S
H676 C684 0.950 . S
H677 C689 0.950 . S
H678 C686 0.950 . S
H679 C688 0.950 . S
H680 C690 0.950 . S
H681 C692 0.950 . S
H682 C694 0.950 . S
H683 C695 0.950 . S
C684 H676 0.950 . S
C684 C685 1.386 . S
C684 C686 1.391 . S
C685 C684 1.386 . S
C685 C689 1.393 . S
C686 H678 0.950 . S
C686 C684 1.391 . S
C686 C687 1.400 . S
C687 C686 1.400 . S
C687 C688 1.398 . S
C687 C693 1.491 . S
C688 H679 0.950 . S
C688 C687 1.398 . S
C688 C689 1.391 . S
C689 H677 0.950 . S
C689 C685 1.393 . S
C689 C688 1.391 . S
C690 H680 0.950 . S
C690 C691 1.386 . S
C690 C692 1.391 . S
C691 C690 1.386 . S
C691 C695 1.393 . S
C692 H681 0.950 . S
C692 C690 1.391 . S
C692 C693 1.400 . S
C693 C687 1.491 . S
C693 C692 1.400 . S
C693 C694 1.398 . S
C694 H682 0.950 . S
C694 C693 1.398 . S
C694 C695 1.391 . S
C695 H683 0.950 . S
C695 C691 1.393 . S
C695 C694 1.391 . S
H696 C704 0.950 . S
H697 C709 0.950 . S
H698 C706 0.950 . S
H699 C708 0.950 . S
H700 C710 0.950 . S
H701 C712 0.950 . S
H702 C714 0.950 . S
H703 C715 0.950 . S
C704 H696 0.950 . S
C704 C705 1.386 . S
C704 C706 1.391 . S
C705 C704 1.386 . S
C705 C709 1.393 1_556 S
C706 H698 0.950 . S
C706 C704 1.391 . S
C706 C707 1.400 1_556 S
C707 C706 1.400 1_554 S
C707 C708 1.398 . S
C707 C713 1.491 . S
C708 H699 0.950 . S
C708 C707 1.398 . S
C708 C709 1.391 . S
C709 H697 0.950 . S
C709 C705 1.393 1_554 S
C709 C708 1.391 . S
C710 H700 0.950 . S
C710 C711 1.386 . S
C710 C712 1.391 . S
C711 C710 1.386 . S
C711 C715 1.393 . S
C712 H701 0.950 . S
C712 C710 1.391 . S
C712 C713 1.400 . S
C713 C707 1.491 . S
C713 C712 1.400 . S
C713 C714 1.398 . S
C714 H702 0.950 . S
C714 C713 1.398 . S
C714 C715 1.391 . S
C715 H703 0.950 . S
C715 C711 1.393 . S
C715 C714 1.391 . S
H716 C724 0.950 . S
H717 C729 0.950 . S
H718 C726 0.950 . S
H719 C728 0.950 . S
H720 C730 0.950 . S
H721 C732 0.950 . S
H722 C734 0.950 . S
H723 C735 0.950 . S
C724 H716 0.950 . S
C724 C725 1.386 . S
C724 C726 1.391 . S
C725 C724 1.386 . S
C725 C729 1.393 . S
C726 H718 0.950 . S
C726 C724 1.391 . S
C726 C727 1.400 . S
C727 C726 1.400 . S
C727 C728 1.398 . S
C727 C733 1.491 . S
C728 H719 0.950 . S
C728 C727 1.398 . S
C728 C729 1.391 . S
C729 H717 0.950 . S
C729 C725 1.393 . S
C729 C728 1.391 . S
C730 H720 0.950 . S
C730 C731 1.386 . S
C730 C732 1.391 . S
C731 C730 1.386 . S
C731 C735 1.393 . S
C732 H721 0.950 . S
C732 C730 1.391 . S
C732 C733 1.400 . S
C733 C727 1.491 . S
C733 C732 1.400 . S
C733 C734 1.398 . S
C734 H722 0.950 . S
C734 C733 1.398 . S
C734 C735 1.391 . S
C735 H723 0.950 . S
C735 C731 1.393 . S
C735 C734 1.391 . S
H736 C744 0.950 . S
H737 C749 0.950 . S
H738 C746 0.950 . S
H739 C748 0.950 . S
H740 C750 0.950 . S
H741 C752 0.950 . S
H742 C754 0.950 . S
H743 C755 0.950 . S
C744 H736 0.950 . S
C744 C745 1.386 . S
C744 C746 1.391 . S
C745 C744 1.386 . S
C745 C749 1.393 . S
C746 H738 0.950 . S
C746 C744 1.391 . S
C746 C747 1.400 . S
C747 C746 1.400 . S
C747 C748 1.398 . S
C747 C753 1.491 . S
C748 H739 0.950 . S
C748 C747 1.398 . S
C748 C749 1.391 . S
C749 H737 0.950 . S
C749 C745 1.393 . S
C749 C748 1.391 . S
C750 H740 0.950 . S
C750 C751 1.386 . S
C750 C752 1.391 . S
C751 C750 1.386 . S
C751 C755 1.393 . S
C752 H741 0.950 . S
C752 C750 1.391 . S
C752 C753 1.400 . S
C753 C747 1.491 . S
C753 C752 1.400 . S
C753 C754 1.398 . S
C754 H742 0.950 . S
C754 C753 1.398 . S
C754 C755 1.391 . S
C755 H743 0.950 . S
C755 C751 1.393 . S
C755 C754 1.391 . S
H756 C764 0.950 . S
H757 C769 0.950 . S
H758 C766 0.950 . S
H759 C768 0.951 . S
H760 C770 0.950 . S
H761 C772 0.950 . S
H762 C774 0.950 . S
H763 C775 0.950 . S
C764 H756 0.950 . S
C764 C765 1.386 1_655 S
C764 C766 1.391 . S
C765 C764 1.386 1_455 S
C765 C769 1.393 . S
C766 H758 0.950 . S
C766 C764 1.391 . S
C766 C767 1.400 . S
C767 C766 1.400 . S
C767 C768 1.398 . S
C767 C773 1.491 . S
C768 H759 0.951 . S
C768 C767 1.398 . S
C768 C769 1.391 1_655 S
C769 H757 0.950 . S
C769 C765 1.393 . S
C769 C768 1.391 1_455 S
C770 H760 0.950 . S
C770 C771 1.386 . S
C770 C772 1.391 . S
C771 C770 1.386 . S
C771 C775 1.393 . S
C772 H761 0.950 . S
C772 C770 1.391 . S
C772 C773 1.400 . S
C773 C767 1.491 . S
C773 C772 1.400 . S
C773 C774 1.398 . S
C774 H762 0.950 . S
C774 C773 1.398 . S
C774 C775 1.391 . S
C775 H763 0.950 . S
C775 C771 1.393 . S
C775 C774 1.391 . S
H776 C784 0.950 . S
H777 C789 0.950 . S
H778 C786 0.950 . S
H779 C788 0.950 . S
H780 C790 0.950 . S
H781 C792 0.950 . S
H782 C794 0.950 . S
H783 C795 0.950 . S
C784 H776 0.950 . S
C784 C785 1.386 . S
C784 C786 1.391 . S
C785 C784 1.386 . S
C785 C789 1.393 1_655 S
C786 H778 0.950 . S
C786 C784 1.391 . S
C786 C787 1.400 1_655 S
C787 C786 1.400 1_455 S
C787 C788 1.398 . S
C787 C793 1.491 . S
C788 H779 0.950 . S
C788 C787 1.398 . S
C788 C789 1.391 . S
C789 H777 0.950 . S
C789 C785 1.393 1_455 S
C789 C788 1.391 . S
C790 H780 0.950 . S
C790 C791 1.386 . S
C790 C792 1.391 . S
C791 C790 1.386 . S
C791 C795 1.393 . S
C792 H781 0.950 . S
C792 C790 1.391 . S
C792 C793 1.400 . S
C793 C787 1.491 . S
C793 C792 1.400 . S
C793 C794 1.398 . S
C794 H782 0.950 . S
C794 C793 1.398 . S
C794 C795 1.391 . S
C795 H783 0.950 . S
C795 C791 1.393 . S
C795 C794 1.391 . S
H796 C804 0.950 . S
H797 C809 0.950 . S
H798 C806 0.950 . S
H799 C808 0.950 . S
H800 C810 0.950 . S
H801 C812 0.950 . S
H802 C814 0.950 . S
H803 C815 0.950 . S
C804 H796 0.950 . S
C804 C805 1.386 . S
C804 C806 1.391 . S
C805 C804 1.386 . S
C805 C809 1.393 . S
C806 H798 0.950 . S
C806 C804 1.391 . S
C806 C807 1.400 . S
C807 C806 1.400 . S
C807 C808 1.398 . S
C807 C813 1.491 . S
C808 H799 0.950 . S
C808 C807 1.398 . S
C808 C809 1.391 . S
C809 H797 0.950 . S
C809 C805 1.393 . S
C809 C808 1.391 . S
C810 H800 0.950 . S
C810 C811 1.386 . S
C810 C812 1.391 . S
C811 C810 1.386 . S
C811 C815 1.393 . S
C812 H801 0.950 . S
C812 C810 1.391 . S
C812 C813 1.400 . S
C813 C807 1.491 . S
C813 C812 1.400 . S
C813 C814 1.398 . S
C814 H802 0.950 . S
C814 C813 1.398 . S
C814 C815 1.391 . S
C815 H803 0.950 . S
C815 C811 1.393 . S
C815 C814 1.391 . S
H816 C824 0.950 . S
H817 C829 0.950 . S
H818 C826 0.950 . S
H819 C828 0.950 . S
H820 C830 0.950 . S
H821 C832 0.950 . S
H822 C834 0.950 . S
H823 C835 0.950 . S
C824 H816 0.950 . S
C824 C825 1.386 . S
C824 C826 1.391 . S
C825 C824 1.386 . S
C825 C829 1.393 . S
C826 H818 0.950 . S
C826 C824 1.391 . S
C826 C827 1.400 . S
C827 C826 1.400 . S
C827 C828 1.398 . S
C827 C833 1.491 . S
C828 H819 0.950 . S
C828 C827 1.398 . S
C828 C829 1.391 . S
C829 H817 0.950 . S
C829 C825 1.393 . S
C829 C828 1.391 . S
C830 H820 0.950 . S
C830 C831 1.386 . S
C830 C832 1.391 . S
C831 C830 1.386 . S
C831 C835 1.393 . S
C832 H821 0.950 . S
C832 C830 1.391 . S
C832 C833 1.400 . S
C833 C827 1.491 . S
C833 C832 1.400 . S
C833 C834 1.398 . S
C834 H822 0.950 . S
C834 C833 1.398 . S
C834 C835 1.391 . S
C835 H823 0.950 . S
C835 C831 1.393 . S
C835 C834 1.391 . S
H836 C844 0.950 . S
H837 C849 0.950 . S
H838 C846 0.950 . S
H839 C848 0.950 . S
H840 C850 0.950 . S
H841 C852 0.950 . S
H842 C854 0.950 . S
H843 C855 0.950 . S
C844 H836 0.950 . S
C844 C845 1.386 . S
C844 C846 1.391 . S
C845 C844 1.386 . S
C845 C849 1.393 1_545 S
C846 H838 0.950 . S
C846 C844 1.391 . S
C846 C847 1.400 1_545 S
C847 C846 1.400 1_565 S
C847 C848 1.398 . S
C847 C853 1.491 . S
C848 H839 0.950 . S
C848 C847 1.398 . S
C848 C849 1.391 . S
C849 H837 0.950 . S
C849 C845 1.393 1_565 S
C849 C848 1.391 . S
C850 H840 0.950 . S
C850 C851 1.386 . S
C850 C852 1.391 . S
C851 C850 1.386 . S
C851 C855 1.393 . S
C852 H841 0.950 . S
C852 C850 1.391 . S
C852 C853 1.400 . S
C853 C847 1.491 . S
C853 C852 1.400 . S
C853 C854 1.398 . S
C854 H842 0.950 . S
C854 C853 1.398 . S
C854 C855 1.391 . S
C855 H843 0.950 . S
C855 C851 1.393 . S
C855 C854 1.391 . S
H856 C864 0.950 . S
H857 C869 0.950 . S
H858 C866 0.950 . S
H859 C868 0.950 . S
H860 C870 0.950 . S
H861 C872 0.950 . S
H862 C874 0.950 . S
H863 C875 0.950 . S
C864 H856 0.950 . S
C864 C865 1.386 . S
C864 C866 1.391 . S
C865 C864 1.386 . S
C865 C869 1.393 . S
C866 H858 0.950 . S
C866 C864 1.391 . S
C866 C867 1.400 . S
C867 C866 1.400 . S
C867 C868 1.398 . S
C867 C873 1.491 . S
C868 H859 0.950 . S
C868 C867 1.398 . S
C868 C869 1.391 . S
C869 H857 0.950 . S
C869 C865 1.393 . S
C869 C868 1.391 . S
C870 H860 0.950 . S
C870 C871 1.386 . S
C870 C872 1.391 . S
C871 C870 1.386 . S
C871 C875 1.393 . S
C872 H861 0.950 . S
C872 C870 1.391 . S
C872 C873 1.400 . S
C873 C867 1.491 . S
C873 C872 1.400 . S
C873 C874 1.398 . S
C874 H862 0.950 . S
C874 C873 1.398 . S
C874 C875 1.391 . S
C875 H863 0.950 . S
C875 C871 1.393 . S
C875 C874 1.391 . S
H876 C884 0.950 . S
H877 C889 0.950 . S
H878 C886 0.950 . S
H879 C888 0.950 . S
H880 C890 0.950 . S
H881 C892 0.950 . S
H882 C894 0.950 . S
H883 C895 0.950 . S
C884 H876 0.950 . S
C884 C885 1.386 . S
C884 C886 1.391 . S
C885 C884 1.386 . S
C885 C889 1.393 . S
C886 H878 0.950 . S
C886 C884 1.391 . S
C886 C887 1.400 . S
C887 C886 1.400 . S
C887 C888 1.398 . S
C887 C893 1.491 . S
C888 H879 0.950 . S
C888 C887 1.398 . S
C888 C889 1.391 . S
C889 H877 0.950 . S
C889 C885 1.393 . S
C889 C888 1.391 . S
C890 H880 0.950 . S
C890 C891 1.386 1_554 S
C890 C892 1.391 . S
C891 C890 1.386 1_556 S
C891 C895 1.393 1_565 S
C892 H881 0.950 . S
C892 C890 1.391 . S
C892 C893 1.400 1_565 S
C893 C887 1.491 . S
C893 C892 1.400 1_545 S
C893 C894 1.398 . S
C894 H882 0.950 . S
C894 C893 1.398 . S
C894 C895 1.391 1_554 S
C895 H883 0.950 . S
C895 C891 1.393 1_545 S
C895 C894 1.391 1_556 S
H896 C904 0.950 . S
H897 C909 0.950 . S
H898 C906 0.950 . S
H899 C908 0.950 . S
H900 C910 0.950 . S
H901 C912 0.950 . S
H902 C914 0.950 . S
H903 C915 0.950 . S
C904 H896 0.950 . S
C904 C905 1.386 . S
C904 C906 1.391 . S
C905 C904 1.386 . S
C905 C909 1.393 . S
C906 H898 0.950 . S
C906 C904 1.391 . S
C906 C907 1.400 . S
C907 C906 1.400 . S
C907 C908 1.398 . S
C907 C913 1.491 . S
C908 H899 0.950 . S
C908 C907 1.398 . S
C908 C909 1.391 . S
C909 H897 0.950 . S
C909 C905 1.393 . S
C909 C908 1.391 . S
C910 H900 0.950 . S
C910 C911 1.386 . S
C910 C912 1.391 . S
C911 C910 1.386 . S
C911 C915 1.393 . S
C912 H901 0.950 . S
C912 C910 1.391 . S
C912 C913 1.400 . S
C913 C907 1.491 . S
C913 C912 1.400 . S
C913 C914 1.398 . S
C914 H902 0.950 . S
C914 C913 1.398 . S
C914 C915 1.391 . S
C915 H903 0.950 . S
C915 C911 1.393 . S
C915 C914 1.391 . S
H916 C924 0.950 . S
H917 C929 0.950 1_554 S
H918 C926 0.950 . S
H919 C928 0.950 . S
H920 C930 0.950 . S
H921 C932 0.950 . S
H922 C934 0.950 . S
H923 C935 0.950 . S
C924 H916 0.950 . S
C924 C925 1.386 . S
C924 C926 1.391 1_554 S
C925 C924 1.386 . S
C925 C929 1.393 1_554 S
C926 H918 0.950 . S
C926 C924 1.391 1_556 S
C926 C927 1.400 . S
C927 C926 1.400 . S
C927 C928 1.398 . S
C927 C933 1.491 . S
C928 H919 0.950 . S
C928 C927 1.398 . S
C928 C929 1.391 . S
C929 H917 0.950 1_556 S
C929 C925 1.393 1_556 S
C929 C928 1.391 . S
C930 H920 0.950 . S
C930 C931 1.386 . S
C930 C932 1.391 . S
C931 C930 1.386 . S
C931 C935 1.393 . S
C932 H921 0.950 . S
C932 C930 1.391 . S
C932 C933 1.400 . S
C933 C927 1.491 . S
C933 C932 1.400 . S
C933 C934 1.398 . S
C934 H922 0.950 . S
C934 C933 1.398 . S
C934 C935 1.391 . S
C935 H923 0.950 . S
C935 C931 1.393 . S
C935 C934 1.391 . S
H936 C944 0.950 . S
H937 C949 0.950 . S
H938 C946 0.950 . S
H939 C948 0.950 . S
H940 C950 0.950 . S
H941 C952 0.950 . S
H942 C954 0.950 . S
H943 C955 0.950 . S
C944 H936 0.950 . S
C944 C945 1.386 . S
C944 C946 1.391 . S
C945 C944 1.386 . S
C945 C949 1.393 . S
C946 H938 0.950 . S
C946 C944 1.391 . S
C946 C947 1.400 . S
C947 C946 1.400 . S
C947 C948 1.398 . S
C947 C953 1.491 . S
C948 H939 0.950 . S
C948 C947 1.398 . S
C948 C949 1.391 . S
C949 H937 0.950 . S
C949 C945 1.393 . S
C949 C948 1.391 . S
C950 H940 0.950 . S
C950 C951 1.386 . S
C950 C952 1.391 . S
C951 C950 1.386 . S
C951 C955 1.393 . S
C952 H941 0.950 . S
C952 C950 1.391 . S
C952 C953 1.400 . S
C953 C947 1.491 . S
C953 C952 1.400 . S
C953 C954 1.398 . S
C954 H942 0.950 . S
C954 C953 1.398 . S
C954 C955 1.391 . S
C955 H943 0.950 . S
C955 C951 1.393 . S
C955 C954 1.391 . S
H956 C964 0.950 . S
H957 C969 0.950 . S
H958 C966 0.950 . S
H959 C968 0.950 . S
H960 C970 0.950 . S
H961 C972 0.950 . S
H962 C974 0.950 . S
H963 C975 0.950 . S
C964 H956 0.950 . S
C964 C965 1.386 . S
C964 C966 1.391 . S
C965 C964 1.386 . S
C965 C969 1.393 . S
C966 H958 0.950 . S
C966 C964 1.391 . S
C966 C967 1.400 . S
C967 C966 1.400 . S
C967 C968 1.398 . S
C967 C973 1.491 . S
C968 H959 0.950 . S
C968 C967 1.398 . S
C968 C969 1.391 . S
C969 H957 0.950 . S
C969 C965 1.393 . S
C969 C968 1.391 . S
C970 H960 0.950 . S
C970 C971 1.386 . S
C970 C972 1.391 . S
C971 C970 1.386 . S
C971 C975 1.393 . S
C972 H961 0.950 . S
C972 C970 1.391 . S
C972 C973 1.400 . S
C973 C967 1.491 . S
C973 C972 1.400 . S
C973 C974 1.398 . S
C974 H962 0.950 . S
C974 C973 1.398 . S
C974 C975 1.391 . S
C975 H963 0.950 . S
C975 C971 1.393 . S
C975 C974 1.391 . S
H976 C984 0.950 . S
H977 C989 0.950 . S
H978 C986 0.950 . S
H979 C988 0.950 . S
H980 C990 0.950 . S
H981 C992 0.950 . S
H982 C994 0.950 . S
H983 C995 0.950 . S
C984 H976 0.950 . S
C984 C985 1.386 . S
C984 C986 1.391 . S
C985 C984 1.386 . S
C985 C989 1.393 . S
C986 H978 0.950 . S
C986 C984 1.391 . S
C986 C987 1.400 . S
C987 C986 1.400 . S
C987 C988 1.398 . S
C987 C993 1.491 . S
C988 H979 0.950 . S
C988 C987 1.398 . S
C988 C989 1.391 . S
C989 H977 0.950 . S
C989 C985 1.393 . S
C989 C988 1.391 . S
C990 H980 0.950 . S
C990 C991 1.386 . S
C990 C992 1.391 . S
C991 C990 1.386 . S
C991 C995 1.393 . S
C992 H981 0.950 . S
C992 C990 1.391 . S
C992 C993 1.400 . S
C993 C987 1.491 . S
C993 C992 1.400 . S
C993 C994 1.398 . S
C994 H982 0.950 . S
C994 C993 1.398 . S
C994 C995 1.391 . S
C995 H983 0.950 . S
C995 C991 1.393 . S
C995 C994 1.391 . S
H996 C1004 0.950 . S
H997 C1009 0.954 . S
H998 C1006 0.950 . S
H999 C1008 0.950 . S
H1000 C1010 0.950 . S
H1001 C1012 0.950 . S
H1002 C1014 0.950 . S
H1003 C1015 0.950 . S
C1004 H996 0.950 . S
C1004 C1005 1.386 . S
C1004 C1006 1.391 1_665 S
C1005 C1004 1.386 . S
C1005 C1009 1.393 1_665 S
C1006 H998 0.950 . S
C1006 C1004 1.391 1_445 S
C1006 C1007 1.400 . S
C1007 C1006 1.400 . S
C1007 C1008 1.398 . S
C1007 C1013 1.491 . S
C1008 H999 0.950 . S
C1008 C1007 1.398 . S
C1008 C1009 1.391 . S
C1009 H997 0.954 . S
C1009 C1005 1.393 1_445 S
C1009 C1008 1.391 . S
C1010 H1000 0.950 . S
C1010 C1011 1.386 . S
C1010 C1012 1.391 . S
C1011 C1010 1.386 . S
C1011 C1015 1.393 . S
C1012 H1001 0.950 . S
C1012 C1010 1.391 . S
C1012 C1013 1.400 . S
C1013 C1007 1.491 . S
C1013 C1012 1.400 . S
C1013 C1014 1.398 . S
C1014 H1002 0.950 . S
C1014 C1013 1.398 . S
C1014 C1015 1.391 . S
C1015 H1003 0.950 . S
C1015 C1011 1.393 . S
C1015 C1014 1.391 . S
H1016 C1024 0.950 . S
H1017 C1029 0.950 . S
H1018 C1026 0.950 . S
H1019 C1028 0.950 . S
H1020 C1030 0.950 . S
H1021 C1032 0.950 . S
H1022 C1034 0.950 . S
H1023 C1035 0.950 . S
C1024 H1016 0.950 . S
C1024 C1025 1.386 . S
C1024 C1026 1.391 . S
C1025 C1024 1.386 . S
C1025 C1029 1.393 . S
C1026 H1018 0.950 . S
C1026 C1024 1.391 . S
C1026 C1027 1.400 . S
C1027 C1026 1.400 . S
C1027 C1028 1.398 . S
C1027 C1033 1.491 . S
C1028 H1019 0.950 . S
C1028 C1027 1.398 . S
C1028 C1029 1.391 . S
C1029 H1017 0.950 . S
C1029 C1025 1.393 . S
C1029 C1028 1.391 . S
C1030 H1020 0.950 . S
C1030 C1031 1.386 . S
C1030 C1032 1.391 . S
C1031 C1030 1.386 . S
C1031 C1035 1.393 . S
C1032 H1021 0.950 . S
C1032 C1030 1.391 . S
C1032 C1033 1.400 . S
C1033 C1027 1.491 . S
C1033 C1032 1.400 . S
C1033 C1034 1.398 . S
C1034 H1022 0.950 . S
C1034 C1033 1.398 . S
C1034 C1035 1.391 . S
C1035 H1023 0.950 . S
C1035 C1031 1.393 . S
C1035 C1034 1.391 . S
H1036 C1044 0.950 . S
H1037 C1049 0.950 . S
H1038 C1046 0.950 1_545 S
H1039 C1048 0.950 . S
H1040 C1050 0.950 . S
H1041 C1052 0.950 . S
H1042 C1054 0.950 . S
H1043 C1055 0.950 . S
C1044 H1036 0.950 . S
C1044 C1045 1.386 . S
C1044 C1046 1.391 1_545 S
C1045 C1044 1.386 . S
C1045 C1049 1.393 1_545 S
C1046 H1038 0.950 1_565 S
C1046 C1044 1.391 1_565 S
C1046 C1047 1.400 . S
C1047 C1046 1.400 . S
C1047 C1048 1.398 . S
C1047 C1053 1.491 . S
C1048 H1039 0.950 . S
C1048 C1047 1.398 . S
C1048 C1049 1.391 . S
C1049 H1037 0.950 . S
C1049 C1045 1.393 1_565 S
C1049 C1048 1.391 . S
C1050 H1040 0.950 . S
C1050 C1051 1.386 . S
C1050 C1052 1.391 . S
C1051 C1050 1.386 . S
C1051 C1055 1.393 . S
C1052 H1041 0.950 . S
C1052 C1050 1.391 . S
C1052 C1053 1.400 . S
C1053 C1047 1.491 . S
C1053 C1052 1.400 . S
C1053 C1054 1.398 . S
C1054 H1042 0.950 . S
C1054 C1053 1.398 . S
C1054 C1055 1.391 . S
C1055 H1043 0.950 . S
C1055 C1051 1.393 . S
C1055 C1054 1.391 . S
H1056 C1064 0.950 . S
H1057 C1069 0.950 . S
H1058 C1066 0.950 . S
H1059 C1068 0.950 . S
H1060 C1070 0.950 . S
H1061 C1072 0.950 . S
H1062 C1074 0.950 . S
H1063 C1075 0.950 . S
C1064 H1056 0.950 . S
C1064 C1065 1.386 . S
C1064 C1066 1.391 . S
C1065 C1064 1.386 . S
C1065 C1069 1.393 . S
C1066 H1058 0.950 . S
C1066 C1064 1.391 . S
C1066 C1067 1.400 . S
C1067 C1066 1.400 . S
C1067 C1068 1.398 . S
C1067 C1073 1.491 . S
C1068 H1059 0.950 . S
C1068 C1067 1.398 . S
C1068 C1069 1.391 . S
C1069 H1057 0.950 . S
C1069 C1065 1.393 . S
C1069 C1068 1.391 . S
C1070 H1060 0.950 . S
C1070 C1071 1.386 . S
C1070 C1072 1.391 . S
C1071 C1070 1.386 . S
C1071 C1075 1.393 . S
C1072 H1061 0.950 . S
C1072 C1070 1.391 . S
C1072 C1073 1.400 . S
C1073 C1067 1.491 . S
C1073 C1072 1.400 . S
C1073 C1074 1.398 . S
C1074 H1062 0.950 . S
C1074 C1073 1.398 . S
C1074 C1075 1.391 . S
C1075 H1063 0.950 . S
C1075 C1071 1.393 . S
C1075 C1074 1.391 . S
H1076 C1084 0.950 . S
H1077 C1089 0.950 . S
H1078 C1086 0.950 . S
H1079 C1088 0.950 . S
H1080 C1090 0.950 . S
H1081 C1092 0.950 . S
H1082 C1094 0.950 . S
H1083 C1095 0.950 . S
C1084 H1076 0.950 . S
C1084 C1085 1.386 1_655 S
C1084 C1086 1.391 . S
C1085 C1084 1.386 1_455 S
C1085 C1089 1.393 . S
C1086 H1078 0.950 . S
C1086 C1084 1.391 . S
C1086 C1087 1.400 . S
C1087 C1086 1.400 . S
C1087 C1088 1.398 1_655 S
C1087 C1093 1.491 . S
C1088 H1079 0.950 . S
C1088 C1087 1.398 1_455 S
C1088 C1089 1.391 . S
C1089 H1077 0.950 . S
C1089 C1085 1.393 . S
C1089 C1088 1.391 . S
C1090 H1080 0.950 . S
C1090 C1091 1.386 . S
C1090 C1092 1.391 . S
C1091 C1090 1.386 . S
C1091 C1095 1.393 . S
C1092 H1081 0.950 . S
C1092 C1090 1.391 . S
C1092 C1093 1.400 . S
C1093 C1087 1.491 . S
C1093 C1092 1.400 . S
C1093 C1094 1.398 . S
C1094 H1082 0.950 . S
C1094 C1093 1.398 . S
C1094 C1095 1.391 . S
C1095 H1083 0.950 . S
C1095 C1091 1.393 . S
C1095 C1094 1.391 . S
H1096 C1104 0.950 . S
H1097 C1109 0.950 . S
H1098 C1106 0.950 . S
H1099 C1108 0.950 . S
H1100 C1110 0.950 . S
H1101 C1112 0.950 . S
H1102 C1114 0.950 . S
H1103 C1115 0.950 . S
C1104 H1096 0.950 . S
C1104 C1105 1.386 . S
C1104 C1106 1.391 . S
C1105 C1104 1.386 . S
C1105 C1109 1.393 . S
C1106 H1098 0.950 . S
C1106 C1104 1.391 . S
C1106 C1107 1.400 . S
C1107 C1106 1.400 . S
C1107 C1108 1.398 . S
C1107 C1113 1.491 . S
C1108 H1099 0.950 . S
C1108 C1107 1.398 . S
C1108 C1109 1.391 . S
C1109 H1097 0.950 . S
C1109 C1105 1.393 . S
C1109 C1108 1.391 . S
C1110 H1100 0.950 . S
C1110 C1111 1.386 . S
C1110 C1112 1.391 . S
C1111 C1110 1.386 . S
C1111 C1115 1.393 . S
C1112 H1101 0.950 . S
C1112 C1110 1.391 . S
C1112 C1113 1.400 . S
C1113 C1107 1.491 . S
C1113 C1112 1.400 . S
C1113 C1114 1.398 . S
C1114 H1102 0.950 . S
C1114 C1113 1.398 . S
C1114 C1115 1.391 . S
C1115 H1103 0.950 . S
C1115 C1111 1.393 . S
C1115 C1114 1.391 . S
H1116 C1124 0.950 . S
H1117 C1129 0.950 . S
H1118 C1126 0.950 . S
H1119 C1128 0.950 . S
H1120 C1130 0.950 . S
H1121 C1132 0.950 . S
H1122 C1134 0.950 . S
H1123 C1135 0.950 . S
C1124 H1116 0.950 . S
C1124 C1125 1.386 . S
C1124 C1126 1.391 . S
C1125 C1124 1.386 . S
C1125 C1129 1.393 . S
C1126 H1118 0.950 . S
C1126 C1124 1.391 . S
C1126 C1127 1.400 . S
C1127 C1126 1.400 . S
C1127 C1128 1.398 . S
C1127 C1133 1.491 . S
C1128 H1119 0.950 . S
C1128 C1127 1.398 . S
C1128 C1129 1.391 . S
C1129 H1117 0.950 . S
C1129 C1125 1.393 . S
C1129 C1128 1.391 . S
C1130 H1120 0.950 . S
C1130 C1131 1.386 . S
C1130 C1132 1.391 . S
C1131 C1130 1.386 . S
C1131 C1135 1.393 . S
C1132 H1121 0.950 . S
C1132 C1130 1.391 . S
C1132 C1133 1.400 . S
C1133 C1127 1.491 . S
C1133 C1132 1.400 . S
C1133 C1134 1.398 . S
C1134 H1122 0.950 . S
C1134 C1133 1.398 . S
C1134 C1135 1.391 . S
C1135 H1123 0.950 . S
C1135 C1131 1.393 . S
C1135 C1134 1.391 . S
H1136 C1144 0.950 . S
H1137 C1149 0.950 . S
H1138 C1146 0.950 . S
H1139 C1148 0.950 . S
H1140 C1150 0.950 . S
H1141 C1152 0.950 . S
H1142 C1154 0.950 . S
H1143 C1155 0.950 . S
C1144 H1136 0.950 . S
C1144 C1145 1.386 . S
C1144 C1146 1.391 . S
C1145 C1144 1.386 . S
C1145 C1149 1.393 . S
C1146 H1138 0.950 . S
C1146 C1144 1.391 . S
C1146 C1147 1.400 . S
C1147 C1146 1.400 . S
C1147 C1148 1.398 . S
C1147 C1153 1.491 . S
C1148 H1139 0.950 . S
C1148 C1147 1.398 . S
C1148 C1149 1.391 . S
C1149 H1137 0.950 . S
C1149 C1145 1.393 . S
C1149 C1148 1.391 . S
C1150 H1140 0.950 . S
C1150 C1151 1.386 . S
C1150 C1152 1.391 . S
C1151 C1150 1.386 . S
C1151 C1155 1.393 . S
C1152 H1141 0.950 . S
C1152 C1150 1.391 . S
C1152 C1153 1.400 . S
C1153 C1147 1.491 . S
C1153 C1152 1.400 . S
C1153 C1154 1.398 . S
C1154 H1142 0.950 . S
C1154 C1153 1.398 . S
C1154 C1155 1.391 . S
C1155 H1143 0.950 . S
C1155 C1151 1.393 . S
C1155 C1154 1.391 . S
H1156 C1164 0.950 . S
H1157 C1169 0.950 . S
H1158 C1166 0.950 . S
H1159 C1168 0.950 . S
H1160 C1170 0.950 . S
H1161 C1172 0.950 . S
H1162 C1174 0.950 . S
H1163 C1175 0.950 . S
C1164 H1156 0.950 . S
C1164 C1165 1.386 . S
C1164 C1166 1.391 . S
C1165 C1164 1.386 . S
C1165 C1169 1.393 . S
C1166 H1158 0.950 . S
C1166 C1164 1.391 . S
C1166 C1167 1.400 . S
C1167 C1166 1.400 . S
C1167 C1168 1.398 . S
C1167 C1173 1.491 . S
C1168 H1159 0.950 . S
C1168 C1167 1.398 . S
C1168 C1169 1.391 . S
C1169 H1157 0.950 . S
C1169 C1165 1.393 . S
C1169 C1168 1.391 . S
C1170 H1160 0.950 . S
C1170 C1171 1.386 . S
C1170 C1172 1.391 . S
C1171 C1170 1.386 . S
C1171 C1175 1.393 . S
C1172 H1161 0.950 . S
C1172 C1170 1.391 . S
C1172 C1173 1.400 . S
C1173 C1167 1.491 . S
C1173 C1172 1.400 . S
C1173 C1174 1.398 . S
C1174 H1162 0.950 . S
C1174 C1173 1.398 . S
C1174 C1175 1.391 . S
C1175 H1163 0.950 . S
C1175 C1171 1.393 . S
C1175 C1174 1.391 . S
H1176 C1184 0.950 . S
H1177 C1189 0.950 . S
H1178 C1186 0.950 . S
H1179 C1188 0.943 1_556 S
H1180 C1190 0.950 . S
H1181 C1192 0.950 . S
H1182 C1194 0.950 . S
H1183 C1195 0.950 . S
C1184 H1176 0.950 . S
C1184 C1185 1.386 1_554 S
C1184 C1186 1.391 1_655 S
C1185 C1184 1.386 1_556 S
C1185 C1189 1.393 . S
C1186 H1178 0.950 . S
C1186 C1184 1.391 1_455 S
C1186 C1187 1.400 . S
C1187 C1186 1.400 . S
C1187 C1188 1.398 . S
C1187 C1193 1.491 . S
C1188 H1179 0.943 1_554 S
C1188 C1187 1.398 . S
C1188 C1189 1.391 1_454 S
C1189 H1177 0.950 . S
C1189 C1185 1.393 . S
C1189 C1188 1.391 1_656 S
C1190 H1180 0.950 . S
C1190 C1191 1.386 . S
C1190 C1192 1.391 . S
C1191 C1190 1.386 . S
C1191 C1195 1.393 . S
C1192 H1181 0.950 . S
C1192 C1190 1.391 . S
C1192 C1193 1.400 . S
C1193 C1187 1.491 . S
C1193 C1192 1.400 . S
C1193 C1194 1.398 . S
C1194 H1182 0.950 . S
C1194 C1193 1.398 . S
C1194 C1195 1.391 . S
C1195 H1183 0.950 . S
C1195 C1191 1.393 . S
C1195 C1194 1.391 . S
H1196 C1204 0.950 . S
H1197 C1209 0.950 . S
H1198 C1206 0.950 . S
H1199 C1208 0.950 . S
H1200 C1210 0.950 . S
H1201 C1212 0.950 . S
H1202 C1214 0.950 . S
H1203 C1215 0.950 . S
C1204 H1196 0.950 . S
C1204 C1205 1.386 . S
C1204 C1206 1.391 . S
C1205 C1204 1.386 . S
C1205 C1209 1.393 . S
C1206 H1198 0.950 . S
C1206 C1204 1.391 . S
C1206 C1207 1.400 . S
C1207 C1206 1.400 . S
C1207 C1208 1.398 . S
C1207 C1213 1.491 . S
C1208 H1199 0.950 . S
C1208 C1207 1.398 . S
C1208 C1209 1.391 . S
C1209 H1197 0.950 . S
C1209 C1205 1.393 . S
C1209 C1208 1.391 . S
C1210 H1200 0.950 . S
C1210 C1211 1.386 . S
C1210 C1212 1.391 . S
C1211 C1210 1.386 . S
C1211 C1215 1.393 . S
C1212 H1201 0.950 . S
C1212 C1210 1.391 . S
C1212 C1213 1.400 . S
C1213 C1207 1.491 . S
C1213 C1212 1.400 . S
C1213 C1214 1.398 . S
C1214 H1202 0.950 . S
C1214 C1213 1.398 . S
C1214 C1215 1.391 . S
C1215 H1203 0.950 . S
C1215 C1211 1.393 . S
C1215 C1214 1.391 . S
H1216 C1224 0.950 . S
H1217 C1229 0.950 . S
H1218 C1226 0.950 . S
H1219 C1228 0.950 . S
H1220 C1230 0.950 . S
H1221 C1232 0.950 . S
H1222 C1234 0.950 . S
H1223 C1235 0.950 . S
C1224 H1216 0.950 . S
C1224 C1225 1.386 . S
C1224 C1226 1.391 . S
C1225 C1224 1.386 . S
C1225 C1229 1.393 . S
C1226 H1218 0.950 . S
C1226 C1224 1.391 . S
C1226 C1227 1.400 . S
C1227 C1226 1.400 . S
C1227 C1228 1.398 . S
C1227 C1233 1.491 . S
C1228 H1219 0.950 . S
C1228 C1227 1.398 . S
C1228 C1229 1.391 . S
C1229 H1217 0.950 . S
C1229 C1225 1.393 . S
C1229 C1228 1.391 . S
C1230 H1220 0.950 . S
C1230 C1231 1.386 . S
C1230 C1232 1.391 . S
C1231 C1230 1.386 . S
C1231 C1235 1.393 . S
C1232 H1221 0.950 . S
C1232 C1230 1.391 . S
C1232 C1233 1.400 . S
C1233 C1227 1.491 . S
C1233 C1232 1.400 . S
C1233 C1234 1.398 . S
C1234 H1222 0.950 . S
C1234 C1233 1.398 . S
C1234 C1235 1.391 . S
C1235 H1223 0.950 . S
C1235 C1231 1.393 . S
C1235 C1234 1.391 . S
H1236 C1244 0.950 . S
H1237 C1249 0.950 . S
H1238 C1246 0.950 . S
H1239 C1248 0.950 . S
H1240 C1250 0.950 . S
H1241 C1252 0.950 . S
H1242 C1254 0.950 . S
H1243 C1255 0.950 . S
C1244 H1236 0.950 . S
C1244 C1245 1.386 . S
C1244 C1246 1.391 . S
C1245 C1244 1.386 . S
C1245 C1249 1.393 . S
C1246 H1238 0.950 . S
C1246 C1244 1.391 . S
C1246 C1247 1.400 . S
C1247 C1246 1.400 . S
C1247 C1248 1.398 . S
C1247 C1253 1.491 . S
C1248 H1239 0.950 . S
C1248 C1247 1.398 . S
C1248 C1249 1.391 . S
C1249 H1237 0.950 . S
C1249 C1245 1.393 . S
C1249 C1248 1.391 . S
C1250 H1240 0.950 . S
C1250 C1251 1.386 . S
C1250 C1252 1.391 . S
C1251 C1250 1.386 . S
C1251 C1255 1.393 . S
C1252 H1241 0.950 . S
C1252 C1250 1.391 . S
C1252 C1253 1.400 . S
C1253 C1247 1.491 . S
C1253 C1252 1.400 . S
C1253 C1254 1.398 . S
C1254 H1242 0.950 . S
C1254 C1253 1.398 . S
C1254 C1255 1.391 . S
C1255 H1243 0.950 . S
C1255 C1251 1.393 . S
C1255 C1254 1.391 . S
H1256 C1264 0.950 . S
H1257 C1269 0.950 . S
H1258 C1266 0.950 1_554 S
H1259 C1268 0.950 . S
H1260 C1270 0.950 . S
H1261 C1272 0.950 . S
H1262 C1274 0.950 . S
H1263 C1275 0.950 . S
C1264 H1256 0.950 . S
C1264 C1265 1.386 . S
C1264 C1266 1.391 1_554 S
C1265 C1264 1.386 . S
C1265 C1269 1.393 1_554 S
C1266 H1258 0.950 1_556 S
C1266 C1264 1.391 1_556 S
C1266 C1267 1.400 . S
C1267 C1266 1.400 . S
C1267 C1268 1.398 . S
C1267 C1273 1.491 . S
C1268 H1259 0.950 . S
C1268 C1267 1.398 . S
C1268 C1269 1.391 . S
C1269 H1257 0.950 . S
C1269 C1265 1.393 1_556 S
C1269 C1268 1.391 . S
C1270 H1260 0.950 . S
C1270 C1271 1.386 . S
C1270 C1272 1.391 . S
C1271 C1270 1.386 . S
C1271 C1275 1.393 . S
C1272 H1261 0.950 . S
C1272 C1270 1.391 . S
C1272 C1273 1.400 . S
C1273 C1267 1.491 . S
C1273 C1272 1.400 . S
C1273 C1274 1.398 . S
C1274 H1262 0.950 . S
C1274 C1273 1.398 . S
C1274 C1275 1.391 . S
C1275 H1263 0.950 . S
C1275 C1271 1.393 . S
C1275 C1274 1.391 . S
H1276 C1284 0.950 . S
H1277 C1289 0.950 . S
H1278 C1286 0.950 . S
H1279 C1288 0.950 . S
H1280 C1290 0.950 . S
H1281 C1292 0.950 . S
H1282 C1294 0.950 . S
H1283 C1295 0.949 . S
C1284 H1276 0.950 . S
C1284 C1285 1.386 . S
C1284 C1286 1.391 . S
C1285 C1284 1.386 . S
C1285 C1289 1.393 . S
C1286 H1278 0.950 . S
C1286 C1284 1.391 . S
C1286 C1287 1.400 . S
C1287 C1286 1.400 . S
C1287 C1288 1.398 . S
C1287 C1293 1.491 . S
C1288 H1279 0.950 . S
C1288 C1287 1.398 . S
C1288 C1289 1.391 . S
C1289 H1277 0.950 . S
C1289 C1285 1.393 . S
C1289 C1288 1.391 . S
C1290 H1280 0.950 . S
C1290 C1291 1.386 . S
C1290 C1292 1.391 1_455 S
C1291 C1290 1.386 . S
C1291 C1295 1.393 1_455 S
C1292 H1281 0.950 . S
C1292 C1290 1.391 1_655 S
C1292 C1293 1.400 . S
C1293 C1287 1.491 . S
C1293 C1292 1.400 . S
C1293 C1294 1.398 . S
C1294 H1282 0.950 . S
C1294 C1293 1.398 . S
C1294 C1295 1.391 . S
C1295 H1283 0.949 . S
C1295 C1291 1.393 1_655 S
C1295 C1294 1.391 . S
C345 C131 1.128 . S
C351 C5 1.171 . S
C365 C19 1.126 . S
C371 C145 1.156 . S
C385 C33 1.125 . S
C391 C159 1.184 . S
C405 C47 1.174 . S
C411 C117 1.145 . S
C425 C61 1.159 . S
C431 C215 1.167 . S
C445 C173 1.126 . S
C451 C75 1.184 . S
C465 C89 1.133 . S
C471 C187 1.143 . S
C485 C201 1.155 . S
C491 C103 1.126 . S
C505 C229 1.172 . S
C511 C257 1.129 . S
C525 C313 1.138 . S
C531 C243 1.175 . S
C545 C271 1.152 . S
C551 C327 1.128 . S
C565 C299 1.146 . S
C571 C285 1.174 . S
C585 C291 1.544 . S
C591 C11 1.535 . S
C605 C25 1.548 . S
C611 C249 1.531 . S
C625 C39 1.549 . S
C631 C263 1.530 . S
C645 C53 1.535 . S
C651 C277 1.544 . S
C665 C67 1.551 . S
C671 C333 1.528 . S
C685 C305 1.530 . S
C691 C81 1.549 . S
C705 C319 1.542 . S
C711 C95 1.537 . S
C725 C235 1.528 . S
C731 C109 1.550 . S
C745 C221 1.546 . S
C751 C123 1.532 . S
C765 C137 1.528 . S
C771 C179 1.551 . S
C785 C193 1.545 . S
C791 C151 1.534 . S
C805 C207 1.549 . S
C811 C165 1.530 . S
C825 C12 0.826 . S
C831 C228 0.841 . S
C845 C326 0.850 . S
C851 C26 0.815 . S
C865 C298 0.813 . S
C871 C40 0.858 . S
C885 C54 0.826 . S
C891 C312 0.844 . S
C905 C68 0.839 . S
C911 C242 0.829 . S
C925 C256 0.844 . S
C931 C82 0.826 . S
C945 C270 0.819 . S
C951 C96 0.853 . S
C965 C284 0.830 . S
C971 C110 0.842 . S
C985 C4 0.816 . S
C991 C124 0.857 . S
C1005 C18 0.814 . S
C1011 C138 0.857 . S
C1025 C32 0.862 . S
C1031 C152 0.802 . S
C1045 C46 0.816 . S
C1051 C166 0.857 . S
C1065 C60 0.861 . S
C1071 C180 0.802 . S
C1085 C74 0.823 . S
C1091 C194 0.850 . S
C1105 C208 0.860 . S
C1111 C88 0.812 . S
C1125 C102 0.820 . S
C1131 C222 0.853 . S
C1145 C116 0.821 . S
C1151 C236 0.852 . S
C1165 C250 0.821 . S
C1171 C172 0.848 . S
C1185 C186 0.854 . S
C1191 C264 0.814 . S
C1205 C278 0.834 . S
C1211 C200 0.837 . S
C1225 C292 0.810 . S
C1231 C214 0.854 . S
C1245 C306 0.816 . S
C1251 C144 0.849 . S
C1265 C158 0.821 . S
C1271 C320 0.849 . S
C1285 C334 0.802 . S
C1291 C130 0.863 . S
