# Generated by pormake.
# Topology lcx, (8)-cn, num edge types: 1
# Building blocks:
#     Node 0, Type 0, BuildingBlock: OLANAS_clean_sbu_2, # of connection points: 8
#     Node 1, Type 0, BuildingBlock: OLANAS_clean_sbu_2, # of connection points: 8
#     Node 2, Type 0, BuildingBlock: OLANAS_clean_sbu_2, # of connection points: 8
#     Node 3, Type 0, BuildingBlock: OLANAS_clean_sbu_2, # of connection points: 8
#     Node 4, Type 0, BuildingBlock: OLANAS_clean_sbu_2, # of connection points: 8
#     Node 5, Type 0, BuildingBlock: OLANAS_clean_sbu_2, # of connection points: 8
#     Edge 6, Type (0, 0), BuildingBlock: MIFKUJ_clean_linker_0, # of connection points: 2
#     Edge 7, Type (0, 0), BuildingBlock: MIFKUJ_clean_linker_0, # of connection points: 2
#     Edge 8, Type (0, 0), BuildingBlock: MIFKUJ_clean_linker_0, # of connection points: 2
#     Edge 9, Type (0, 0), BuildingBlock: MIFKUJ_clean_linker_0, # of connection points: 2
#     Edge 10, Type (0, 0), BuildingBlock: MIFKUJ_clean_linker_0, # of connection points: 2
#     Edge 11, Type (0, 0), BuildingBlock: MIFKUJ_clean_linker_0, # of connection points: 2
#     Edge 12, Type (0, 0), BuildingBlock: MIFKUJ_clean_linker_0, # of connection points: 2
#     Edge 13, Type (0, 0), BuildingBlock: MIFKUJ_clean_linker_0, # of connection points: 2
#     Edge 14, Type (0, 0), BuildingBlock: MIFKUJ_clean_linker_0, # of connection points: 2
#     Edge 15, Type (0, 0), BuildingBlock: MIFKUJ_clean_linker_0, # of connection points: 2
#     Edge 16, Type (0, 0), BuildingBlock: MIFKUJ_clean_linker_0, # of connection points: 2
#     Edge 17, Type (0, 0), BuildingBlock: MIFKUJ_clean_linker_0, # of connection points: 2
#     Edge 18, Type (0, 0), BuildingBlock: MIFKUJ_clean_linker_0, # of connection points: 2
#     Edge 19, Type (0, 0), BuildingBlock: MIFKUJ_clean_linker_0, # of connection points: 2
#     Edge 20, Type (0, 0), BuildingBlock: MIFKUJ_clean_linker_0, # of connection points: 2
#     Edge 21, Type (0, 0), BuildingBlock: MIFKUJ_clean_linker_0, # of connection points: 2
#     Edge 22, Type (0, 0), BuildingBlock: MIFKUJ_clean_linker_0, # of connection points: 2
#     Edge 23, Type (0, 0), BuildingBlock: MIFKUJ_clean_linker_0, # of connection points: 2
#     Edge 24, Type (0, 0), BuildingBlock: MIFKUJ_clean_linker_0, # of connection points: 2
#     Edge 25, Type (0, 0), BuildingBlock: MIFKUJ_clean_linker_0, # of connection points: 2
#     Edge 26, Type (0, 0), BuildingBlock: MIFKUJ_clean_linker_0, # of connection points: 2
#     Edge 27, Type (0, 0), BuildingBlock: MIFKUJ_clean_linker_0, # of connection points: 2
#     Edge 28, Type (0, 0), BuildingBlock: MIFKUJ_clean_linker_0, # of connection points: 2
#     Edge 29, Type (0, 0), BuildingBlock: MIFKUJ_clean_linker_0, # of connection points: 2
# Relax obj value: 0.048
# Max RMSD: 0.137
# Mean RMSD: 0.137
data_MOF--net-lcx--node1-OLANAS_clean_sbu_2--edge1-MIFKUJ_clean_linker_0
_symmetry_space_group_name_H-M    P1
_symmetry_Int_Tables_number       1
_symmetry_cell_setting            triclinic
loop_
_symmetry_equiv_pos_as_xyz
'x, y, z'
_cell_length_a     38.430598
_cell_length_b     38.452473
_cell_length_c     38.446701
_cell_angle_alpha  90.206615
_cell_angle_beta   89.929474
_cell_angle_gamma 89.98613
loop_
_atom_site_label
_atom_site_type_symbol
_atom_site_fract_x
_atom_site_fract_y
_atom_site_fract_z
_atom_type_partial_charge
C0 C 0.95397 0.28841 0.51178 0.0
O1 O 0.92148 0.29907 0.51294 0.0
C2 C 0.98356 0.31224 0.51657 0.0
C3 C 0.9835 0.34786 0.52408 0.0
C4 C 0.01606 0.36479 0.52764 0.0
C5 C 0.0476 0.34609 0.52366 0.0
C6 C 0.0455 0.31056 0.51602 0.0
N7 N 0.01409 0.29622 0.513 0.0
N8 N 0.01345 0.25432 0.45441 0.0
Co9 Co 0.01273 0.24931 0.50439 0.0
N10 N 0.01138 0.20237 0.49584 0.0
C11 C 0.01085 0.1569 0.45502 0.0
C12 C 0.0098 0.13337 0.48328 0.0
C13 C 0.00958 0.14567 0.51806 0.0
C14 C 0.01045 0.18165 0.52351 0.0
C15 C 0.01165 0.19249 0.4626 0.0
N16 N 0.01195 0.23673 0.55316 0.0
N17 N 0.96263 0.25453 0.50481 0.0
N18 N 0.06299 0.2516 0.50514 0.0
C19 C 0.01292 0.22228 0.43874 0.0
O20 O 0.01344 0.21847 0.40474 0.0
C21 C 0.07366 0.285 0.51141 0.0
O22 O 0.10669 0.29329 0.51464 0.0
C23 C 0.0865 0.22285 0.50388 0.0
C24 C 0.12747 0.18706 0.47142 0.0
C25 C 0.10114 0.21236 0.47205 0.0
C26 C 0.09895 0.2089 0.53506 0.0
C27 C 0.1255 0.18411 0.53466 0.0
C28 C 0.13873 0.17238 0.50277 0.0
C29 C 0.01059 0.20129 0.55643 0.0
O30 O 0.00923 0.18594 0.5869 0.0
C31 C 0.01019 0.2596 0.58256 0.0
C32 C 0.04103 0.27148 0.59823 0.0
C33 C 0.03987 0.28762 0.63094 0.0
C34 C 0.00767 0.29318 0.64707 0.0
C35 C 0.97683 0.28199 0.63142 0.0
C36 C 0.97806 0.26515 0.59915 0.0
C37 C 0.93712 0.22873 0.49647 0.0
C38 C 0.92017 0.21099 0.52345 0.0
C39 C 0.88997 0.1918 0.51654 0.0
C40 C 0.87777 0.18913 0.48238 0.0
C41 C 0.89428 0.20691 0.45537 0.0
C42 C 0.92411 0.22653 0.46239 0.0
C43 C 0.01559 0.28593 0.43511 0.0
C44 C 0.01743 0.33853 0.3852 0.0
C45 C 0.98545 0.32814 0.39923 0.0
C46 C 0.98482 0.30267 0.42511 0.0
C47 C 0.04729 0.29528 0.4196 0.0
C48 C 0.04819 0.32146 0.39443 0.0
H49 H 0.95939 0.36209 0.52721 0.0
H50 H 0.01685 0.39231 0.53357 0.0
H51 H 0.07248 0.35893 0.52661 0.0
H52 H 0.01106 0.14755 0.42844 0.0
H53 H 0.00918 0.10568 0.47824 0.0
H54 H 0.00882 0.12774 0.53967 0.0
H55 H 0.09319 0.22492 0.44818 0.0
H56 H 0.08939 0.2187 0.55965 0.0
H57 H 0.16062 0.15453 0.50257 0.0
H58 H 0.06588 0.26644 0.58605 0.0
H59 H 0.00664 0.30567 0.67238 0.0
H60 H 0.95438 0.25522 0.58765 0.0
H61 H 0.92885 0.21435 0.55001 0.0
H62 H 0.85379 0.17522 0.47721 0.0
H63 H 0.9359 0.24147 0.44179 0.0
H64 H 0.01788 0.35677 0.36372 0.0
H65 H 0.9601 0.29377 0.43504 0.0
H66 H 0.07054 0.28037 0.42512 0.0
C67 C 0.31126 0.49951 0.9393 0.0
O68 O 0.31897 0.49981 0.90598 0.0
C69 C 0.33794 0.49589 0.96657 0.0
C70 C 0.37407 0.49291 0.9633 0.0
C71 C 0.3939 0.48929 0.99414 0.0
C72 C 0.37751 0.48866 0.02718 0.0
C73 C 0.34125 0.49169 0.02833 0.0
N74 N 0.32416 0.49503 0.99838 0.0
N75 N 0.2688 0.44909 0.99856 0.0
Co76 Co 0.27672 0.49878 0.00124 0.0
N77 N 0.22924 0.50255 0.0042 0.0
C78 C 0.17502 0.47471 0.00679 0.0
C79 C 0.15958 0.50801 0.01024 0.0
C80 C 0.18032 0.53847 0.01067 0.0
C81 C 0.21638 0.53456 0.00756 0.0
C82 C 0.21125 0.47294 0.00372 0.0
N83 N 0.27712 0.54904 0.00442 0.0
N84 N 0.27769 0.50141 0.9511 0.0
N85 N 0.28316 0.49556 0.05096 0.0
C86 C 0.2339 0.44219 0.00051 0.0
O87 O 0.22158 0.4103 0.00016 0.0
C88 C 0.31773 0.49197 0.05865 0.0
O89 O 0.32907 0.48955 0.09079 0.0
C90 C 0.25638 0.49774 0.07669 0.0
C91 C 0.2155 0.46907 0.11535 0.0
C92 C 0.2409 0.46725 0.08933 0.0
C93 C 0.2471 0.53015 0.09084 0.0
C94 C 0.2215 0.53201 0.11672 0.0
C95 C 0.20535 0.50159 0.12826 0.0
C96 C 0.24378 0.56132 0.00739 0.0
O97 O 0.23669 0.59476 0.00862 0.0
C98 C 0.30628 0.57142 0.99857 0.0
C99 C 0.32749 0.58151 0.02652 0.0
C100 C 0.35256 0.60783 0.02214 0.0
C101 C 0.3566 0.62297 0.98916 0.0
C102 C 0.3348 0.61376 0.96153 0.0
C103 C 0.30999 0.58772 0.96624 0.0
C104 C 0.24808 0.50188 0.92866 0.0
C105 C 0.23272 0.53366 0.91971 0.0
C106 C 0.20586 0.53471 0.89526 0.0
C107 C 0.19343 0.50357 0.88098 0.0
C108 C 0.2093 0.47176 0.88882 0.0
C109 C 0.23671 0.471 0.91281 0.0
C110 C 0.29469 0.42234 0.99791 0.0
C111 C 0.33985 0.36539 0.99587 0.0
C112 C 0.33231 0.38335 0.96504 0.0
C113 C 0.30966 0.41196 0.96625 0.0
C114 C 0.30189 0.40369 0.0283 0.0
C115 C 0.32421 0.37495 0.02743 0.0
H116 H 0.38655 0.4933 0.93806 0.0
H117 H 0.42191 0.48695 0.99244 0.0
H118 H 0.39263 0.48593 0.05074 0.0
H119 H 0.15923 0.45141 0.00665 0.0
H120 H 0.13161 0.5102 0.01269 0.0
H121 H 0.16858 0.56391 0.01343 0.0
H122 H 0.24904 0.44221 0.07956 0.0
H123 H 0.26038 0.55351 0.08243 0.0
H124 H 0.18658 0.50312 0.14932 0.0
H125 H 0.32303 0.57031 0.05194 0.0
H126 H 0.37418 0.64473 0.98581 0.0
H127 H 0.29238 0.58157 0.94529 0.0
H128 H 0.24252 0.55765 0.93048 0.0
H129 H 0.17361 0.50451 0.86097 0.0
H130 H 0.24973 0.4467 0.91843 0.0
H131 H 0.35589 0.3422 0.99482 0.0
H132 H 0.30284 0.42534 0.94252 0.0
H133 H 0.2894 0.4109 0.05242 0.0
C134 C 0.07602 0.70848 0.49674 0.0
O135 O 0.10832 0.69731 0.49499 0.0
C136 C 0.04612 0.68462 0.49734 0.0
C137 C 0.04569 0.64827 0.49571 0.0
C138 C 0.01294 0.63139 0.49593 0.0
C139 C 0.98168 0.65086 0.49763 0.0
C140 C 0.98428 0.68712 0.49912 0.0
N141 N 0.01585 0.7014 0.49906 0.0
N142 N 0.01567 0.75374 0.44999 0.0
Co143 Co 0.01776 0.74909 0.50002 0.0
N144 N 0.01963 0.79675 0.50088 0.0
C145 C 0.01952 0.84914 0.46984 0.0
C146 C 0.02135 0.86682 0.50218 0.0
C147 C 0.02214 0.84813 0.53386 0.0
C148 C 0.02115 0.8118 0.53211 0.0
C149 C 0.01865 0.81278 0.47024 0.0
N150 N 0.01989 0.75213 0.55012 0.0
N151 N 0.06793 0.74316 0.49785 0.0
N152 N 0.96743 0.7472 0.50197 0.0
C153 C 0.01639 0.78813 0.44094 0.0
O154 O 0.01498 0.79835 0.40838 0.0
C155 C 0.95645 0.71333 0.50079 0.0
O156 O 0.92335 0.70482 0.50243 0.0
C157 C 0.94372 0.77552 0.50651 0.0
C158 C 0.89503 0.80834 0.48305 0.0
C159 C 0.92422 0.78702 0.47793 0.0
C160 C 0.93424 0.78588 0.54028 0.0
C161 C 0.90555 0.80759 0.54547 0.0
C162 C 0.88677 0.81954 0.5168 0.0
C163 C 0.02135 0.78621 0.56048 0.0
O164 O 0.02261 0.79535 0.59344 0.0
C165 C 0.01952 0.72389 0.57411 0.0
C166 C 0.98763 0.71156 0.58691 0.0
C167 C 0.98686 0.68871 0.61512 0.0
C168 C 0.01824 0.67715 0.62947 0.0
C169 C 0.05007 0.69004 0.61747 0.0
C170 C 0.05075 0.71325 0.58957 0.0
C171 C 0.094 0.76971 0.49611 0.0
C172 C 0.10533 0.78622 0.52673 0.0
C173 C 0.134 0.80879 0.52587 0.0
C174 C 0.1514 0.81433 0.4943 0.0
C175 C 0.14158 0.79644 0.4642 0.0
C176 C 0.11253 0.77459 0.46498 0.0
C177 C 0.01289 0.72629 0.42499 0.0
C178 C 0.00849 0.67966 0.36927 0.0
C179 C 0.04114 0.68897 0.38242 0.0
C180 C 0.04321 0.71211 0.41049 0.0
C181 C 0.98027 0.71752 0.41109 0.0
C182 C 0.9781 0.69439 0.38296 0.0
H183 H 0.06959 0.63345 0.49417 0.0
H184 H 0.01177 0.6033 0.49467 0.0
H185 H 0.95663 0.63803 0.49767 0.0
H186 H 0.01876 0.8634 0.44563 0.0
H187 H 0.02205 0.89495 0.5027 0.0
H188 H 0.02341 0.86159 0.55859 0.0
H189 H 0.93012 0.77706 0.45222 0.0
H190 H 0.94753 0.77529 0.56256 0.0
H191 H 0.86385 0.83542 0.52115 0.0
H192 H 0.96346 0.72125 0.57645 0.0
H193 H 0.01783 0.66091 0.6525 0.0
H194 H 0.07514 0.72478 0.58141 0.0
H195 H 0.09304 0.78027 0.55132 0.0
H196 H 0.17449 0.83049 0.49373 0.0
H197 H 0.10558 0.76001 0.44195 0.0
H198 H 0.00684 0.66308 0.34641 0.0
H199 H 0.06837 0.72032 0.41988 0.0
H200 H 0.957 0.73009 0.42085 0.0
C201 C 0.7252 0.49802 0.939 0.0
O202 O 0.71531 0.49764 0.90628 0.0
C203 C 0.70085 0.49176 0.9679 0.0
C204 C 0.66503 0.48535 0.96694 0.0
C205 C 0.64766 0.47954 0.99892 0.0
C206 C 0.66612 0.48016 0.03079 0.0
C207 C 0.7019 0.48669 0.02961 0.0
N208 N 0.71667 0.49202 0.99871 0.0
N209 N 0.75954 0.54981 0.00244 0.0
Co210 Co 0.76375 0.49968 0.99846 0.0
N211 N 0.81087 0.50735 0.9981 0.0
C212 C 0.85694 0.54738 0.99805 0.0
C213 C 0.88001 0.51882 0.99475 0.0
C214 C 0.86717 0.48433 0.9929 0.0
C215 C 0.83114 0.47945 0.9946 0.0
C216 C 0.82125 0.54038 0.99956 0.0
N217 N 0.7756 0.45073 0.99398 0.0
N218 N 0.75916 0.50307 0.9485 0.0
N219 N 0.76084 0.49512 0.04851 0.0
C220 C 0.79188 0.5648 0.00214 0.0
O221 O 0.79635 0.59857 0.00515 0.0
C222 C 0.7272 0.48853 0.05829 0.0
O223 O 0.71818 0.48426 0.09099 0.0
C224 C 0.78873 0.49774 0.07296 0.0
C225 C 0.82147 0.53257 0.11444 0.0
C226 C 0.79778 0.53034 0.08683 0.0
C227 C 0.80281 0.46736 0.08734 0.0
C228 C 0.82597 0.46946 0.11522 0.0
C229 C 0.83598 0.50203 0.12797 0.0
C230 C 0.81102 0.44697 0.99243 0.0
O231 O 0.82603 0.41633 0.98994 0.0
C232 C 0.75265 0.42135 0.99453 0.0
C233 C 0.74191 0.4077 0.02655 0.0
C234 C 0.72588 0.37518 0.02806 0.0
C235 C 0.72044 0.35617 0.99752 0.0
C236 C 0.73127 0.36922 0.96531 0.0
C237 C 0.74679 0.40217 0.96386 0.0
C238 C 0.78687 0.50569 0.92379 0.0
C239 C 0.7987 0.47562 0.90677 0.0
C240 C 0.82177 0.47789 0.87867 0.0
C241 C 0.83433 0.51065 0.869 0.0
C242 C 0.82196 0.54092 0.88515 0.0
C243 C 0.79826 0.53847 0.91273 0.0
C244 C 0.72829 0.56963 0.00668 0.0
C245 C 0.67283 0.61522 0.01777 0.0
C246 C 0.69059 0.61591 0.98614 0.0
C247 C 0.71751 0.59209 0.97995 0.0
C248 C 0.71347 0.57296 0.03995 0.0
C249 C 0.68623 0.59651 0.04576 0.0
H250 H 0.65099 0.48474 0.94256 0.0
H251 H 0.61996 0.47449 0.999 0.0
H252 H 0.65291 0.47561 0.05523 0.0
H253 H 0.86667 0.57376 0.99914 0.0
H254 H 0.90775 0.52342 0.99342 0.0
H255 H 0.88474 0.46251 0.99004 0.0
H256 H 0.78532 0.55366 0.07729 0.0
H257 H 0.7944 0.44214 0.07818 0.0
H258 H 0.85285 0.50342 0.15054 0.0
H259 H 0.7476 0.4213 0.05043 0.0
H260 H 0.70857 0.33061 0.99902 0.0
H261 H 0.75609 0.41174 0.93926 0.0
H262 H 0.78802 0.45076 0.91382 0.0
H263 H 0.85191 0.51294 0.84702 0.0
H264 H 0.78716 0.5618 0.92408 0.0
H265 H 0.65302 0.63485 0.02259 0.0
H266 H 0.73201 0.59303 0.95579 0.0
H267 H 0.72537 0.56014 0.0619 0.0
C268 C 0.51481 0.06741 0.28501 0.0
O269 O 0.5114 0.1004 0.29348 0.0
C270 C 0.519 0.03991 0.31119 0.0
C271 C 0.52056 0.0427 0.34744 0.0
C272 C 0.52512 0.01177 0.36682 0.0
C273 C 0.52809 0.97913 0.34987 0.0
C274 C 0.5262 0.97846 0.31354 0.0
N275 N 0.52168 0.00844 0.29686 0.0
N276 N 0.5702 0.01316 0.24372 0.0
Co277 Co 0.52044 0.00632 0.24923 0.0
N278 N 0.51926 0.00409 0.20154 0.0
C279 C 0.54977 0.00563 0.14867 0.0
C280 C 0.51767 -1e-05 0.13151 0.0
C281 C 0.4864 0.99642 0.1507 0.0
C282 C 0.48832 0.99863 0.18697 0.0
C283 C 0.54952 0.00759 0.18502 0.0
N284 N 0.47042 0.99939 0.24688 0.0
N285 N 0.51389 0.05615 0.25119 0.0
N286 N 0.52743 0.95669 0.25494 0.0
C287 C 0.57871 0.01291 0.2091 0.0
O288 O 0.61092 0.01672 0.19817 0.0
C289 C 0.52929 0.94869 0.28956 0.0
O290 O 0.534 0.91669 0.30054 0.0
C291 C 0.53036 0.93097 0.22809 0.0
C292 C 0.56584 0.8894 0.19597 0.0
C293 C 0.56325 0.91748 0.21916 0.0
C294 C 0.50014 0.91521 0.2149 0.0
C295 C 0.50281 0.88737 0.19147 0.0
C296 C 0.53564 0.87547 0.18129 0.0
C297 C 0.4603 0.99598 0.21286 0.0
O298 O 0.42749 0.99225 0.2039 0.0
C299 C 0.44545 0.00121 0.27451 0.0
C300 C 0.42847 0.97057 0.28485 0.0
C301 C 0.39767 0.97227 0.30444 0.0
C302 C 0.38503 0.00487 0.31497 0.0
C303 C 0.4014 0.03555 0.30446 0.0
C304 C 0.43182 0.03371 0.2845 0.0
C305 C 0.51036 0.07935 0.22245 0.0
C306 C 0.47744 0.08564 0.20823 0.0
C307 C 0.47274 0.11265 0.18436 0.0
C308 C 0.50149 0.13265 0.1741 0.0
C309 C 0.53428 0.12768 0.18939 0.0
C310 C 0.53853 0.10036 0.21302 0.0
C311 C 0.59606 0.01773 0.27014 0.0
C312 C 0.65912 0.02455 0.30573 0.0
C313 C 0.64308 0.0542 0.29215 0.0
C314 C 0.61112 0.05077 0.27499 0.0
C315 C 0.61253 0.98828 0.28391 0.0
C316 C 0.64439 0.99161 0.30116 0.0
H317 H 0.51844 0.06768 0.36034 0.0
H318 H 0.52649 0.01311 0.3949 0.0
H319 H 0.53186 0.95551 0.36462 0.0
H320 H 0.57371 0.00829 0.13407 0.0
H321 H 0.51703 0.99835 0.10341 0.0
H322 H 0.46185 0.99208 0.13764 0.0
H323 H 0.58645 0.92765 0.23141 0.0
H324 H 0.47482 0.92338 0.22421 0.0
H325 H 0.53759 0.85273 0.16456 0.0
H326 H 0.43766 0.94574 0.27509 0.0
H327 H 0.3611 0.00656 0.32989 0.0
H328 H 0.44322 0.05741 0.27471 0.0
H329 H 0.45517 0.07101 0.2172 0.0
H330 H 0.49763 0.15395 0.15612 0.0
H331 H 0.56308 0.09692 0.22604 0.0
H332 H 0.68427 0.02685 0.31835 0.0
H333 H 0.59963 0.07326 0.26293 0.0
H334 H 0.60231 0.96266 0.27843 0.0
C335 C 0.50977 0.93636 0.71769 0.0
O336 O 0.50497 0.90369 0.70876 0.0
C337 C 0.51865 0.96357 0.69228 0.0
C338 C 0.52385 0.96076 0.65636 0.0
C339 C 0.53151 0.99154 0.63768 0.0
C340 C 0.5336 0.02411 0.65493 0.0
C341 C 0.52796 0.02483 0.69087 0.0
N342 N 0.52119 0.99493 0.70693 0.0
N343 N 0.5618 0.9896 0.76607 0.0
Co344 Co 0.51348 0.99737 0.75392 0.0
N345 N 0.50574 -0.00028 0.80095 0.0
C346 C 0.52817 0.9953 0.85746 0.0
C347 C 0.49392 0.00078 0.87004 0.0
C348 C 0.46579 0.00557 0.84675 0.0
C349 C 0.47296 0.00478 0.81108 0.0
C350 C 0.53326 0.99488 0.82143 0.0
N351 N 0.46411 0.00533 0.74927 0.0
N352 N 0.5058 0.94777 0.75121 0.0
N353 N 0.52194 0.04664 0.74918 0.0
C354 C 0.56552 0.98917 0.80147 0.0
O355 O 0.59586 0.98452 0.81652 0.0
C356 C 0.52829 0.05463 0.71507 0.0
O357 O 0.53479 0.08656 0.70483 0.0
C358 C 0.52193 0.07204 0.77642 0.0
C359 C 0.55478 0.11093 0.81393 0.0
C360 C 0.55353 0.08229 0.79137 0.0
C361 C 0.49136 0.09038 0.78428 0.0
C362 C 0.4923 0.11889 0.80699 0.0
C363 C 0.52388 0.12851 0.82233 0.0
C364 C 0.449 0.00827 0.78143 0.0
O365 O 0.41555 0.01428 0.78545 0.0
C366 C 0.44531 0.01012 0.7176 0.0
C367 C 0.43811 0.04396 0.70622 0.0
C368 C 0.41442 0.04948 0.67929 0.0
C369 C 0.3989 0.02089 0.66297 0.0
C370 C 0.40387 0.98717 0.67572 0.0
C371 C 0.42826 0.98172 0.70223 0.0
C372 C 0.49489 0.926 0.77922 0.0
C373 C 0.45935 0.91948 0.7847 0.0
C374 C 0.44885 0.89809 0.81215 0.0
C375 C 0.47408 0.88319 0.83372 0.0
C376 C 0.50968 0.88724 0.8268 0.0
C377 C 0.51995 0.90954 0.79986 0.0
C378 C 0.5905 0.98595 0.74258 0.0
C379 C 0.64926 0.97944 0.70021 0.0
C380 C 0.63412 0.94967 0.71458 0.0
C381 C 0.60466 0.95287 0.73589 0.0
C382 C 0.60653 0.0157 0.7288 0.0
C383 C 0.63596 0.01244 0.70762 0.0
H384 H 0.52199 0.93592 0.64317 0.0
H385 H 0.53568 0.99018 0.60987 0.0
H386 H 0.53933 0.04764 0.64067 0.0
H387 H 0.54963 0.99139 0.87522 0.0
H388 H 0.48917 0.00116 0.89779 0.0
H389 H 0.43959 0.00952 0.85632 0.0
H390 H 0.57734 0.06919 0.78406 0.0
H391 H 0.4672 0.0835 0.77178 0.0
H392 H 0.5249 0.1519 0.83817 0.0
H393 H 0.44876 0.06605 0.71993 0.0
H394 H 0.37915 0.02539 0.64342 0.0
H395 H 0.43151 0.95602 0.71312 0.0
H396 H 0.4401 0.93049 0.76746 0.0
H397 H 0.46578 0.86619 0.8546 0.0
H398 H 0.54724 0.91298 0.79376 0.0
H399 H 0.67253 0.97703 0.68433 0.0
H400 H 0.59316 0.93001 0.74761 0.0
H401 H 0.59673 0.04128 0.73505 0.0
H402 H 0.05999 0.28451 0.33641 0.0
H403 H 0.0991 0.29982 0.2889 0.0
H404 H 0.1421 0.38283 0.35149 0.0
H405 H 0.10126 0.36838 0.39848 0.0
H406 H 0.12379 0.40785 0.29432 0.0
H407 H 0.19066 0.30792 0.32226 0.0
H408 H 0.20223 0.24652 0.3363 0.0
H409 H 0.16281 0.21523 0.23657 0.0
H410 H 0.15039 0.27639 0.22211 0.0
H411 H 0.25478 0.42116 0.14891 0.0
H412 H 0.23431 0.38378 0.19618 0.0
H413 H 0.12814 0.41018 0.17123 0.0
H414 H 0.14861 0.44825 0.12466 0.0
H415 H 0.18818 0.33049 0.21307 0.0
H416 H 0.09098 0.4417 0.24225 0.0
H417 H 0.08454 0.50417 0.22923 0.0
H418 H 0.19551 0.51446 0.22102 0.0
H419 H 0.2026 0.45218 0.23442 0.0
C420 C 0.07874 0.3052 0.34035 0.0
C421 C 0.07818 0.32508 0.37099 0.0
C422 C 0.10119 0.31391 0.31324 0.0
C423 C 0.12392 0.34231 0.31658 0.0
C424 C 0.12485 0.36078 0.34828 0.0
C425 C 0.10186 0.35241 0.37522 0.0
C426 C 0.14266 0.35565 0.28552 0.0
C427 C 0.13819 0.39084 0.27694 0.0
C428 C 0.16175 0.3337 0.26265 0.0
C429 C 0.16935 0.29682 0.2712 0.0
C430 C 0.18421 0.28795 0.3034 0.0
C431 C 0.19095 0.25316 0.31143 0.0
C432 C 0.18314 0.22698 0.28738 0.0
C433 C 0.16878 0.23554 0.25518 0.0
C434 C 0.16192 0.27028 0.24705 0.0
C435 C 0.22704 0.41768 0.15257 0.0
C436 C 0.20318 0.43776 0.13361 0.0
C437 C 0.21539 0.39642 0.17962 0.0
C438 C 0.17981 0.39504 0.1877 0.0
C439 C 0.15577 0.41146 0.16571 0.0
C440 C 0.1674 0.43301 0.13904 0.0
C441 C 0.16826 0.38201 0.222 0.0
C442 C 0.17409 0.34721 0.23099 0.0
C443 C 0.15128 0.40441 0.24588 0.0
C444 C 0.14727 0.44222 0.23911 0.0
C445 C 0.114 0.45736 0.23795 0.0
C446 C 0.11024 0.49273 0.23043 0.0
C447 C 0.13961 0.51326 0.2242 0.0
C448 C 0.17279 0.49853 0.22577 0.0
C449 C 0.17668 0.46319 0.23329 0.0
H450 H 0.1367 0.54056 0.21816 0.0
H451 H 0.18816 0.20004 0.29365 0.0
H452 H 0.14061 0.5613 0.88768 0.0
H453 H 0.12292 0.60095 0.84132 0.0
H454 H 0.23069 0.61877 0.81539 0.0
H455 H 0.24841 0.58021 0.8626 0.0
H456 H 0.19067 0.67428 0.79644 0.0
H457 H 0.19065 0.5499 0.77923 0.0
H458 H 0.17553 0.48914 0.79332 0.0
H459 H 0.06684 0.51376 0.78547 0.0
H460 H 0.08132 0.57463 0.77145 0.0
H461 H 0.09908 0.63899 0.61311 0.0
H462 H 0.13945 0.62235 0.65968 0.0
H463 H 0.10555 0.71097 0.72025 0.0
H464 H 0.06707 0.72831 0.67313 0.0
H465 H 0.11859 0.60121 0.7179 0.0
H466 H 0.15712 0.73269 0.78287 0.0
H467 H 0.17336 0.79154 0.76331 0.0
H468 H 0.21397 0.74911 0.66812 0.0
H469 H 0.19799 0.69009 0.68706 0.0
C470 C 0.16044 0.57515 0.87324 0.0
C471 C 0.19577 0.56753 0.8783 0.0
C472 C 0.15039 0.59754 0.84661 0.0
C473 C 0.17553 0.61175 0.82422 0.0
C474 C 0.2109 0.60778 0.83217 0.0
C475 C 0.22099 0.58585 0.85924 0.0
C476 C 0.16507 0.62487 0.78961 0.0
C477 C 0.17489 0.65843 0.7792 0.0
C478 C 0.1458 0.60357 0.76648 0.0
C479 C 0.13707 0.56686 0.77457 0.0
C480 C 0.16354 0.54235 0.78062 0.0
C481 C 0.15508 0.50789 0.78852 0.0
C482 C 0.12025 0.49767 0.79046 0.0
C483 C 0.0938 0.52175 0.78408 0.0
C484 C 0.10211 0.55619 0.77604 0.0
C485 C 0.10175 0.65565 0.63573 0.0
C486 C 0.08065 0.68507 0.63966 0.0
C487 C 0.12446 0.64606 0.66243 0.0
C488 C 0.12574 0.66548 0.69352 0.0
C489 C 0.10595 0.69605 0.69632 0.0
C490 C 0.08384 0.70593 0.66945 0.0
C491 C 0.14311 0.6512 0.72484 0.0
C492 C 0.13468 0.61718 0.73475 0.0
C493 C 0.16443 0.67176 0.74683 0.0
C494 C 0.17611 0.70698 0.73631 0.0
C495 C 0.16978 0.73589 0.7579 0.0
C496 C 0.17873 0.76931 0.74681 0.0
C497 C 0.19432 0.7741 0.7143 0.0
C498 C 0.20152 0.74544 0.69309 0.0
C499 C 0.19248 0.71201 0.70397 0.0
H500 H 0.20102 0.79999 0.70562 0.0
H501 H 0.1137 0.47111 0.79695 0.0
H502 H 0.88302 0.56444 0.12739 0.0
H503 H 0.89439 0.60432 0.17569 0.0
H504 H 0.78425 0.61192 0.19597 0.0
H505 H 0.77274 0.57239 0.14701 0.0
H506 H 0.82479 0.67403 0.21559 0.0
H507 H 0.81842 0.55191 0.23637 0.0
H508 H 0.82998 0.49022 0.22278 0.0
H509 H 0.93977 0.5079 0.23338 0.0
H510 H 0.92886 0.56981 0.24649 0.0
H511 H 0.92529 0.64896 0.39627 0.0
H512 H 0.87971 0.63129 0.35498 0.0
H513 H 0.9154 0.70952 0.28294 0.0
H514 H 0.95989 0.72751 0.32443 0.0
H515 H 0.8945 0.6024 0.29708 0.0
H516 H 0.85618 0.73085 0.22331 0.0
H517 H 0.84128 0.79136 0.23862 0.0
H518 H 0.81129 0.75922 0.34115 0.0
H519 H 0.82528 0.69838 0.32632 0.0
C520 C 0.86121 0.576 0.14108 0.0
C521 C 0.8271 0.56529 0.1338 0.0
C522 C 0.86767 0.59864 0.1687 0.0
C523 C 0.84017 0.6104 0.18977 0.0
C524 C 0.80577 0.60305 0.18002 0.0
C525 C 0.79925 0.58057 0.15204 0.0
C526 C 0.8481 0.62407 0.22491 0.0
C527 C 0.83984 0.65854 0.23366 0.0
C528 C 0.86612 0.60307 0.24908 0.0
C529 C 0.87282 0.56556 0.24229 0.0
C530 C 0.84503 0.54266 0.2357 0.0
C531 C 0.85145 0.50765 0.22811 0.0
C532 C 0.88558 0.49515 0.22722 0.0
C533 C 0.91334 0.51761 0.23411 0.0
C534 C 0.90705 0.55266 0.24169 0.0
C535 C 0.92219 0.6632 0.37221 0.0
C536 C 0.94558 0.6897 0.3634 0.0
C537 C 0.89639 0.65305 0.34857 0.0
C538 C 0.89392 0.66917 0.31584 0.0
C539 C 0.91607 0.69717 0.30821 0.0
C540 C 0.9416 0.70739 0.33184 0.0
C541 C 0.87294 0.6533 0.28748 0.0
C542 C 0.87873 0.61806 0.27977 0.0
C543 C 0.85174 0.67343 0.26502 0.0
C544 C 0.84212 0.70994 0.27373 0.0
C545 C 0.84614 0.73657 0.24904 0.0
C546 C 0.83794 0.77098 0.25767 0.0
C547 C 0.82566 0.77916 0.29093 0.0
C548 C 0.82109 0.75288 0.31549 0.0
C549 C 0.82916 0.71841 0.30697 0.0
H550 H 0.81943 0.80582 0.2976 0.0
H551 H 0.89048 0.46809 0.22116 0.0
H552 H 0.82107 0.47555 0.80807 0.0
H553 H 0.8337 0.42651 0.77025 0.0
H554 H 0.84854 0.36076 0.85975 0.0
H555 H 0.83699 0.41071 0.89828 0.0
H556 H 0.90007 0.35251 0.81424 0.0
H557 H 0.77927 0.35076 0.80839 0.0
H558 H 0.71881 0.3709 0.80293 0.0
H559 H 0.7382 0.40186 0.69751 0.0
H560 H 0.79899 0.38222 0.70233 0.0
H561 H 0.95126 0.23947 0.68112 0.0
H562 H 0.90876 0.25581 0.72598 0.0
H563 H 0.88919 0.35213 0.67217 0.0
H564 H 0.93136 0.33552 0.62722 0.0
H565 H 0.83018 0.32694 0.70871 0.0
H566 H 0.95593 0.34651 0.7275 0.0
H567 H 0.01592 0.32454 0.7333 0.0
H568 H 0.9841 0.25832 0.81712 0.0
H569 H 0.92364 0.27936 0.81134 0.0
C570 C 0.82738 0.4508 0.81987 0.0
C571 C 0.82876 0.44719 0.85621 0.0
C572 C 0.83396 0.42257 0.79814 0.0
C573 C 0.84157 0.38982 0.81213 0.0
C574 C 0.84251 0.3858 0.84844 0.0
C575 C 0.83591 0.41427 0.87037 0.0
C576 C 0.85117 0.36099 0.78825 0.0
C577 C 0.88428 0.34612 0.79173 0.0
C578 C 0.83054 0.35257 0.75886 0.0
C579 C 0.79388 0.36474 0.7557 0.0
C580 C 0.77078 0.36186 0.784 0.0
C581 C 0.73638 0.37324 0.78104 0.0
C582 C 0.72464 0.3876 0.74988 0.0
C583 C 0.7473 0.39062 0.72161 0.0
C584 C 0.78175 0.37925 0.72442 0.0
C585 C 0.93656 0.26332 0.67816 0.0
C586 C 0.94418 0.28628 0.6509 0.0
C587 C 0.91248 0.2727 0.70379 0.0
C588 C 0.89624 0.30538 0.70263 0.0
C589 C 0.90135 0.32674 0.67348 0.0
C590 C 0.92537 0.31731 0.64782 0.0
C591 C 0.87954 0.32035 0.73404 0.0
C592 C 0.84522 0.33254 0.73191 0.0
C593 C 0.89885 0.32619 0.76487 0.0
C594 C 0.93527 0.31418 0.76875 0.0
C595 C 0.96171 0.32715 0.74706 0.0
C596 C 0.99578 0.31488 0.75034 0.0
C597 C 0.00384 0.29006 0.77551 0.0
C598 C 0.97782 0.2775 0.79757 0.0
C599 C 0.94364 0.28954 0.79429 0.0
H600 H 0.03026 0.2806 0.77795 0.0
H601 H 0.69799 0.39642 0.74764 0.0
H602 H 0.3468 0.05975 0.268 0.0
H603 H 0.30424 0.10238 0.28818 0.0
H604 H 0.37052 0.12734 0.37538 0.0
H605 H 0.41272 0.08364 0.35544 0.0
H606 H 0.31241 0.10612 0.39801 0.0
H607 H 0.34072 0.19315 0.31474 0.0
H608 H 0.353 0.22108 0.25835 0.0
H609 H 0.25394 0.1873 0.21936 0.0
H610 H 0.24099 0.1593 0.27549 0.0
H611 H 0.16438 0.23397 0.43384 0.0
H612 H 0.2145 0.22045 0.3967 0.0
H613 H 0.18939 0.11128 0.40235 0.0
H614 H 0.14 0.12468 0.44037 0.0
H615 H 0.23258 0.18646 0.33677 0.0
H616 H 0.26312 0.0668 0.42256 0.0
H617 H 0.24945 0.04506 0.48126 0.0
H618 H 0.23456 0.1497 0.51766 0.0
H619 H 0.24901 0.17217 0.45937 0.0
C620 C 0.35287 0.0755 0.29062 0.0
C621 C 0.38284 0.06862 0.31027 0.0
C622 C 0.3286 0.10003 0.30211 0.0
C623 C 0.33398 0.11818 0.33342 0.0
C624 C 0.36571 0.11366 0.35118 0.0
C625 C 0.38992 0.08888 0.33977 0.0
C626 C 0.304 0.13542 0.35099 0.0
C627 C 0.2953 0.12406 0.3846 0.0
C628 C 0.28144 0.1589 0.33378 0.0
C629 C 0.28998 0.17397 0.29932 0.0
C630 C 0.32171 0.19136 0.29403 0.0
C631 C 0.32869 0.2074 0.26218 0.0
C632 C 0.30427 0.20593 0.2353 0.0
C633 C 0.27283 0.18842 0.2402 0.0
C634 C 0.2656 0.1726 0.27207 0.0
C635 C 0.16876 0.20726 0.42589 0.0
C636 C 0.14855 0.18029 0.43997 0.0
C637 C 0.19749 0.19954 0.40484 0.0
C638 C 0.20616 0.16481 0.39756 0.0
C639 C 0.18355 0.13822 0.4083 0.0
C640 C 0.15517 0.14586 0.42969 0.0
C641 C 0.24072 0.15594 0.38272 0.0
C642 C 0.2501 0.16885 0.34997 0.0
C643 C 0.26422 0.13418 0.4008 0.0
C644 C 0.25678 0.12114 0.43642 0.0
C645 C 0.2572 0.08521 0.44313 0.0
C646 C 0.2493 0.07275 0.47632 0.0
C647 C 0.24092 0.09596 0.50307 0.0
C648 C 0.2409 0.13174 0.49684 0.0
C649 C 0.24899 0.14436 0.46372 0.0
H650 H 0.2345 0.08614 0.52861 0.0
H651 H 0.30961 0.21847 0.21074 0.0
H652 H 0.4136 0.85835 0.76592 0.0
H653 H 0.37229 0.81347 0.78344 0.0
H654 H 0.36352 0.86126 0.88469 0.0
H655 H 0.40521 0.90589 0.86729 0.0
H656 H 0.40005 0.79995 0.88429 0.0
H657 H 0.28255 0.83388 0.85146 0.0
H658 H 0.23793 0.85775 0.81204 0.0
H659 H 0.26876 0.78528 0.73252 0.0
H660 H 0.3126 0.76009 0.77208 0.0
H661 H 0.28155 0.65566 0.94322 0.0
H662 H 0.2858 0.70714 0.90627 0.0
H663 H 0.38894 0.67576 0.87456 0.0
H664 H 0.38539 0.62528 0.91317 0.0
H665 H 0.29941 0.73116 0.84174 0.0
H666 H 0.44276 0.74388 0.88193 0.0
H667 H 0.48317 0.71901 0.92504 0.0
H668 H 0.39857 0.704 0.99632 0.0
H669 H 0.3577 0.72957 0.95406 0.0
C670 C 0.40107 0.86059 0.79109 0.0
C671 C 0.41287 0.88512 0.81551 0.0
C672 C 0.37747 0.83481 0.80116 0.0
C673 C 0.36537 0.83366 0.8356 0.0
C674 C 0.37268 0.86163 0.85803 0.0
C675 C 0.39637 0.88724 0.84804 0.0
C676 C 0.35523 0.79972 0.85062 0.0
C677 C 0.3778 0.78511 0.87521 0.0
C678 C 0.32657 0.78018 0.83859 0.0
C679 C 0.30083 0.79532 0.81454 0.0
C680 C 0.27972 0.82306 0.82556 0.0
C681 C 0.25438 0.83657 0.80336 0.0
C682 C 0.25051 0.82303 0.76982 0.0
C683 C 0.27167 0.79563 0.75857 0.0
C684 C 0.29653 0.78151 0.78097 0.0
C685 C 0.30458 0.65915 0.92731 0.0
C686 C 0.3333 0.6369 0.93109 0.0
C687 C 0.30698 0.68854 0.90619 0.0
C688 C 0.33803 0.69577 0.88841 0.0
C689 C 0.36501 0.67103 0.88869 0.0
C690 C 0.36296 0.64214 0.91052 0.0
C691 C 0.34446 0.7314 0.87518 0.0
C692 C 0.32149 0.74616 0.85092 0.0
C693 C 0.37261 0.75152 0.88797 0.0
C694 C 0.39714 0.73823 0.91463 0.0
C695 C 0.43283 0.7356 0.90696 0.0
C696 C 0.45579 0.72138 0.93125 0.0
C697 C 0.44334 0.70978 0.96332 0.0
C698 C 0.40807 0.71301 0.97147 0.0
C699 C 0.38501 0.7274 0.94738 0.0
H700 H 0.46099 0.69815 0.98182 0.0
H701 H 0.23126 0.83397 0.75252 0.0
H702 H 0.70402 0.97328 0.26955 0.0
H703 H 0.74624 0.92996 0.28898 0.0
H704 H 0.67618 0.89893 0.37103 0.0
H705 H 0.6335 0.94235 0.35116 0.0
H706 H 0.77471 0.93568 0.35353 0.0
H707 H 0.70119 0.80831 0.39147 0.0
H708 H 0.64923 0.77552 0.37323 0.0
H709 H 0.65438 0.82238 0.27226 0.0
H710 H 0.70693 0.85435 0.2892 0.0
H711 H 0.82483 0.80089 0.48477 0.0
H712 H 0.7828 0.82013 0.44162 0.0
H713 H 0.86666 0.84889 0.37274 0.0
H714 H 0.90921 0.83053 0.4167 0.0
H715 H 0.76431 0.809 0.37504 0.0
H716 H 0.84676 0.92908 0.34054 0.0
H717 H 0.89454 0.96427 0.36521 0.0
H718 H 0.86322 0.93559 0.46844 0.0
H719 H 0.81492 0.90082 0.44444 0.0
C720 C 0.69737 0.95654 0.29118 0.0
C721 C 0.66586 0.961 0.30912 0.0
C722 C 0.72144 0.93195 0.30227 0.0
C723 C 0.71438 0.91142 0.33148 0.0
C724 C 0.68194 0.91438 0.34823 0.0
C725 C 0.65766 0.93905 0.33697 0.0
C726 C 0.74262 0.89023 0.34666 0.0
C727 C 0.77269 0.90782 0.35752 0.0
C728 C 0.73936 0.8541 0.35282 0.0
C729 C 0.70799 0.8342 0.34186 0.0
C730 C 0.69145 0.81145 0.36524 0.0
C731 C 0.66183 0.79292 0.35508 0.0
C732 C 0.64837 0.79693 0.3216 0.0
C733 C 0.66459 0.81941 0.29822 0.0
C734 C 0.69434 0.83778 0.30812 0.0
C735 C 0.83437 0.81118 0.46035 0.0
C736 C 0.87026 0.81535 0.45446 0.0
C737 C 0.81029 0.82162 0.43549 0.0
C738 C 0.82159 0.83639 0.40422 0.0
C739 C 0.85745 0.83789 0.39696 0.0
C740 C 0.88169 0.82747 0.422 0.0
C741 C 0.79596 0.85467 0.38213 0.0
C742 C 0.76642 0.8367 0.37022 0.0
C743 C 0.79894 0.89076 0.37588 0.0
C744 C 0.82761 0.91196 0.39063 0.0
C745 C 0.85006 0.93038 0.3685 0.0
C746 C 0.87718 0.95028 0.38238 0.0
C747 C 0.88197 0.95207 0.41837 0.0
C748 C 0.85953 0.93412 0.44058 0.0
C749 C 0.83229 0.91431 0.42685 0.0
H750 H 0.90302 0.96743 0.42905 0.0
H751 H 0.62545 0.78258 0.31376 0.0
H752 H 0.75429 0.30309 0.95799 0.0
H753 H 0.73846 0.2617 0.91279 0.0
H754 H 0.68572 0.34314 0.85656 0.0
H755 H 0.70125 0.38482 0.90263 0.0
H756 H 0.64273 0.29416 0.86858 0.0
H757 H 0.751 0.29321 0.81474 0.0
H758 H 0.81479 0.29423 0.80698 0.0
H759 H 0.82321 0.19579 0.85845 0.0
H760 H 0.75963 0.19434 0.86692 0.0
H761 H 0.6082 0.12694 0.77035 0.0
H762 H 0.65248 0.17118 0.7812 0.0
H763 H 0.62027 0.17765 0.88845 0.0
H764 H 0.57573 0.13354 0.87776 0.0
H765 H 0.70759 0.19008 0.8276 0.0
H766 H 0.59506 0.26016 0.90185 0.0
H767 H 0.53087 0.25892 0.90191 0.0
H768 H 0.53089 0.22415 0.79569 0.0
H769 H 0.59502 0.22609 0.79466 0.0
C770 C 0.74005 0.31234 0.93553 0.0
C771 C 0.72827 0.34686 0.93406 0.0
C772 C 0.73142 0.28874 0.90937 0.0
C773 C 0.71089 0.29919 0.8811 0.0
C774 C 0.70162 0.33448 0.8781 0.0
C775 C 0.71044 0.35825 0.90436 0.0
C776 C 0.69362 0.27205 0.85962 0.0
C777 C 0.65708 0.27181 0.85898 0.0
C778 C 0.71211 0.2431 0.84603 0.0
C779 C 0.75052 0.24386 0.84167 0.0
C780 C 0.76653 0.27199 0.82474 0.0
C781 C 0.80262 0.2726 0.82012 0.0
C782 C 0.82303 0.24518 0.83228 0.0
C783 C 0.80737 0.21704 0.84904 0.0
C784 C 0.77128 0.21627 0.85368 0.0
C785 C 0.61164 0.13664 0.79662 0.0
C786 C 0.58825 0.12735 0.82317 0.0
C787 C 0.63691 0.16202 0.8027 0.0
C788 C 0.63895 0.17826 0.8353 0.0
C789 C 0.61862 0.16574 0.86292 0.0
C790 C 0.59328 0.14055 0.85686 0.0
C791 C 0.65735 0.21175 0.83938 0.0
C792 C 0.69365 0.21298 0.83647 0.0
C793 C 0.63868 0.24219 0.84846 0.0
C794 C 0.59995 0.24302 0.8483 0.0
C795 C 0.5814 0.25264 0.87838 0.0
C796 C 0.54499 0.25177 0.87859 0.0
C797 C 0.52682 0.24134 0.84886 0.0
C798 C 0.545 0.23216 0.81872 0.0
C799 C 0.58137 0.23318 0.81831 0.0
H800 H 0.49867 0.24038 0.84918 0.0
H801 H 0.85096 0.24571 0.82866 0.0
H802 H 0.14809 0.87613 0.54148 0.0
H803 H 0.19315 0.89595 0.58173 0.0
H804 H 0.20424 0.79166 0.62084 0.0
H805 H 0.15871 0.7717 0.58073 0.0
H806 H 0.21869 0.85712 0.67103 0.0
H807 H 0.25243 0.79902 0.56195 0.0
H808 H 0.24121 0.79016 0.49935 0.0
H809 H 0.25895 0.89872 0.48058 0.0
H810 H 0.26971 0.90832 0.54315 0.0
H811 H 0.41436 0.91874 0.65655 0.0
H812 H 0.36899 0.87533 0.64275 0.0
H813 H 0.28965 0.9521 0.66331 0.0
H814 H 0.33408 0.99481 0.6772 0.0
H815 H 0.31624 0.88242 0.58998 0.0
H816 H 0.22296 0.91412 0.7045 0.0
H817 H 0.22871 0.93482 0.76495 0.0
H818 H 0.32924 0.88687 0.77229 0.0
H819 H 0.32377 0.8649 0.71225 0.0
C820 C 0.15888 0.85783 0.55991 0.0
C821 C 0.15021 0.82243 0.55795 0.0
C822 C 0.18461 0.86912 0.58285 0.0
C823 C 0.20223 0.84512 0.60386 0.0
C824 C 0.19076 0.81052 0.60495 0.0
C825 C 0.16475 0.79919 0.58207 0.0
C826 C 0.23665 0.8548 0.61805 0.0
C827 C 0.24032 0.86205 0.65361 0.0
C828 C 0.26491 0.86076 0.59516 0.0
C829 C 0.26167 0.85439 0.55722 0.0
C830 C 0.25406 0.82095 0.54444 0.0
C831 C 0.24776 0.81582 0.50899 0.0
C832 C 0.24918 0.84392 0.48609 0.0
C833 C 0.25775 0.87703 0.49841 0.0
C834 C 0.26404 0.88231 0.53384 0.0
C835 C 0.38719 0.92608 0.65814 0.0
C836 C 0.3777 0.9602 0.66728 0.0
C837 C 0.36142 0.90141 0.65032 0.0
C838 C 0.32605 0.91051 0.65243 0.0
C839 C 0.31676 0.94443 0.66198 0.0
C840 C 0.34223 0.96892 0.66948 0.0
C841 C 0.29815 0.88578 0.6429 0.0
C842 C 0.29544 0.87593 0.60793 0.0
C843 C 0.27085 0.87774 0.66638 0.0
C844 C 0.27299 0.88801 0.70366 0.0
C845 C 0.24609 0.9075 0.71912 0.0
C846 C 0.24938 0.9196 0.7533 0.0
C847 C 0.27949 0.91244 0.77231 0.0
C848 C 0.3061 0.89263 0.75741 0.0
C849 C 0.30285 0.88024 0.72335 0.0
H850 H 0.28204 0.92194 0.79872 0.0
H851 H 0.24316 0.84017 0.45891 0.0
H852 H 0.59061 0.8412 0.23994 0.0
H853 H 0.62558 0.79114 0.22257 0.0
H854 H 0.64684 0.83994 0.12391 0.0
H855 H 0.61016 0.88929 0.1408 0.0
H856 H 0.61388 0.78356 0.1146 0.0
H857 H 0.71412 0.81076 0.18072 0.0
H858 H 0.75158 0.82632 0.23044 0.0
H859 H 0.71585 0.73659 0.28609 0.0
H860 H 0.67781 0.72067 0.23696 0.0
H861 H 0.73431 0.63182 0.08174 0.0
H862 H 0.7206 0.68381 0.11518 0.0
H863 H 0.6132 0.65197 0.1208 0.0
H864 H 0.62626 0.6016 0.08404 0.0
H865 H 0.69304 0.70208 0.17465 0.0
H866 H 0.57167 0.69264 0.12275 0.0
H867 H 0.51321 0.68964 0.08718 0.0
H868 H 0.54748 0.7572 0.98919 0.0
H869 H 0.63993 0.75855 0.04187 0.0
C870 C 0.60441 0.84205 0.21535 0.0
C871 C 0.59808 0.8691 0.19177 0.0
C872 C 0.62446 0.81337 0.20539 0.0
C873 C 0.63895 0.81162 0.17189 0.0
C874 C 0.63598 0.84068 0.14992 0.0
C875 C 0.61532 0.86905 0.15963 0.0
C876 C 0.64933 0.77728 0.15724 0.0
C877 C 0.6319 0.76597 0.12722 0.0
C878 C 0.67173 0.75392 0.17462 0.0
C879 C 0.69293 0.76461 0.20512 0.0
C880 C 0.7139 0.79455 0.2037 0.0
C881 C 0.73545 0.80329 0.23168 0.0
C882 C 0.73629 0.78227 0.26122 0.0
C883 C 0.71537 0.75265 0.26303 0.0
C884 C 0.6938 0.74378 0.23514 0.0
C885 C 0.70796 0.63518 0.09129 0.0
C886 C 0.68121 0.61304 0.07994 0.0
C887 C 0.69998 0.66535 0.10982 0.0
C888 C 0.6653 0.67322 0.11827 0.0
C889 C 0.63953 0.64809 0.11203 0.0
C890 C 0.64729 0.61839 0.09245 0.0
C891 C 0.65694 0.70821 0.13229 0.0
C892 C 0.67528 0.7198 0.1618 0.0
C893 C 0.63501 0.73192 0.11457 0.0
C894 C 0.61141 0.72268 0.08548 0.0
C895 C 0.57308 0.70327 0.0968 0.0
C896 C 0.53459 0.70286 0.07458 0.0
C897 C 0.52525 0.72199 0.03598 0.0
C898 C 0.55577 0.7452 0.01357 0.0
C899 C 0.61515 0.74555 0.04708 0.0
H900 H 0.4992 0.71993 0.02568 0.0
H901 H 0.7527 0.78924 0.28298 0.0
H902 H 0.68331 0.05093 0.74286 0.0
H903 H 0.72675 0.08992 0.71714 0.0
H904 H 0.67606 0.0798 0.61746 0.0
H905 H 0.63335 0.04011 0.64311 0.0
H906 H 0.74091 0.06229 0.61177 0.0
H907 H 0.68023 0.15864 0.66445 0.0
H908 H 0.65473 0.19628 0.70988 0.0
H909 H 0.75365 0.20256 0.76127 0.0
H910 H 0.77971 0.16462 0.71635 0.0
H911 H 0.82649 0.21647 0.53283 0.0
H912 H 0.78482 0.19234 0.57443 0.0
H913 H 0.86028 0.11521 0.6049 0.0
H914 H 0.90243 0.13975 0.56325 0.0
H915 H 0.78653 0.1773 0.64866 0.0
H916 H 0.82422 0.04756 0.60035 0.0
H917 H 0.84886 0.01929 0.54789 0.0
H918 H 0.78894 0.08703 0.48275 0.0
H919 H 0.76479 0.11632 0.53481 0.0
C920 C 0.68087 0.05819 0.71577 0.0
C921 C 0.6551 0.04296 0.69485 0.0
C922 C 0.70566 0.08039 0.70107 0.0
C923 C 0.70479 0.08771 0.66531 0.0
C924 C 0.67735 0.0744 0.64506 0.0
C925 C 0.65282 0.05201 0.65968 0.0
C926 C 0.73468 0.10501 0.648 0.0
C927 C 0.75074 0.08742 0.62013 0.0
C928 C 0.74807 0.13764 0.65889 0.0
C929 C 0.73185 0.15848 0.68716 0.0
C930 C 0.69644 0.1676 0.68569 0.0
C931 C 0.68195 0.18918 0.71124 0.0
C932 C 0.70262 0.20194 0.7383 0.0
C933 C 0.73772 0.19276 0.7402 0.0
C934 C 0.75235 0.17122 0.71471 0.0
C935 C 0.83434 0.19479 0.54897 0.0
C936 C 0.86738 0.1797 0.54497 0.0
C937 C 0.81066 0.18118 0.57273 0.0
C938 C 0.8195 0.15202 0.59255 0.0
C939 C 0.85309 0.13778 0.58973 0.0
C940 C 0.87705 0.15171 0.56611 0.0
C941 C 0.79211 0.13448 0.61299 0.0
C942 C 0.77674 0.1519 0.64118 0.0
C943 C 0.77894 0.10196 0.60238 0.0
C944 C 0.7927 0.0839 0.57128 0.0
C945 C 0.81626 0.05625 0.5748 0.0
C946 C 0.83022 0.04019 0.5452 0.0
C947 C 0.82032 0.05124 0.51207 0.0
C948 C 0.7966 0.07854 0.50844 0.0
C949 C 0.78291 0.09497 0.53793 0.0
H950 H 0.83107 0.03869 0.48921 0.0
H951 H 0.69142 0.21894 0.75783 0.0
H952 H 0.42144 0.13023 0.22961 0.0
H953 H 0.37355 0.17017 0.2175 0.0
H954 H 0.39798 0.16583 0.10807 0.0
H955 H 0.44616 0.1262 0.12013 0.0
H956 H 0.39303 0.2333 0.19082 0.0
H957 H 0.3269 0.18547 0.06171 0.0
H958 H 0.30113 0.13134 0.03885 0.0
H959 H 0.28368 0.09519 0.14295 0.0
H960 H 0.30885 0.1493 0.1665 0.0
H961 H 0.38444 0.35017 0.05499 0.0
H962 H 0.39056 0.30402 0.09804 0.0
H963 H 0.27907 0.30089 0.11113 0.0
H964 H 0.27285 0.34727 0.06785 0.0
H965 H 0.30591 0.23715 0.09586 0.0
H966 H 0.32624 0.32345 0.18 0.0
H967 H 0.34994 0.37751 0.20516 0.0
H968 H 0.45361 0.33669 0.19651 0.0
H969 H 0.43063 0.28259 0.17079 0.0
C970 C 0.41552 0.13651 0.20281 0.0
C971 C 0.43758 0.12547 0.17575 0.0
C972 C 0.38826 0.15951 0.19598 0.0
C973 C 0.38236 0.17119 0.16198 0.0
C974 C 0.40188 0.15695 0.13449 0.0
C975 C 0.42943 0.13435 0.14135 0.0
C976 C 0.36166 0.20299 0.15558 0.0
C977 C 0.3735 0.23418 0.17051 0.0
C978 C 0.33535 0.20395 0.13001 0.0
C979 C 0.3199 0.17147 0.11587 0.0
C980 C 0.31735 0.16611 0.07976 0.0
C981 C 0.3029 0.13538 0.06667 0.0
C982 C 0.29082 0.10982 0.08943 0.0
C983 C 0.29313 0.11496 0.12534 0.0
C984 C 0.30755 0.14563 0.13858 0.0
C985 C 0.36133 0.3402 0.06768 0.0
C986 C 0.32822 0.35214 0.05809 0.0
C987 C 0.36481 0.31398 0.09239 0.0
C988 C 0.33525 0.29911 0.10788 0.0
C989 C 0.30218 0.31213 0.09957 0.0
C990 C 0.29871 0.33871 0.07505 0.0
C991 C 0.3393 0.2674 0.12927 0.0
C992 C 0.32449 0.23629 0.11705 0.0
C993 C 0.36252 0.26649 0.15774 0.0
C994 C 0.37665 0.29891 0.1734 0.0
C995 C 0.35411 0.32605 0.18327 0.0
C996 C 0.36743 0.35671 0.19766 0.0
C997 C 0.40326 0.36053 0.20243 0.0
C998 C 0.42585 0.33367 0.19285 0.0
C999 C 0.41268 0.30296 0.17843 0.0
H1000 H 0.41352 0.3843 0.21356 0.0
H1001 H 0.27965 0.08605 0.07924 0.0
H1002 H 0.94492 0.73759 0.64425 0.0
H1003 H 0.90713 0.72816 0.69476 0.0
H1004 H 0.91976 0.61729 0.68272 0.0
H1005 H 0.95825 0.62669 0.63298 0.0
H1006 H 0.84906 0.69116 0.7193 0.0
H1007 H 0.95305 0.58642 0.75526 0.0
H1008 H 0.01513 0.57506 0.74318 0.0
H1009 H 0.032 0.68383 0.72483 0.0
H1010 H 0.97024 0.69589 0.73719 0.0
H1011 H 0.7887 0.56408 0.82899 0.0
H1012 H 0.81009 0.60688 0.78802 0.0
H1013 H 0.8923 0.63471 0.8595 0.0
H1014 H 0.87173 0.5896 0.89984 0.0
H1015 H 0.91987 0.6224 0.80236 0.0
H1016 H 0.82763 0.69587 0.8305 0.0
H1017 H 0.76715 0.708 0.84809 0.0
H1018 H 0.73084 0.6746 0.74787 0.0
H1019 H 0.79107 0.66166 0.72978 0.0
C1020 C 0.93826 0.7112 0.65146 0.0
C1021 C 0.95465 0.68278 0.63512 0.0
C1022 C 0.9168 0.70588 0.68039 0.0
C1023 C 0.91152 0.6721 0.69295 0.0
C1024 C 0.9241 0.64361 0.67371 0.0
C1025 C 0.94585 0.64891 0.6452 0.0
C1026 C 0.89841 0.6664 0.7287 0.0
C1027 C 0.86446 0.6764 0.73769 0.0
C1028 C 0.9194 0.6491 0.75346 0.0
C1029 C 0.9569 0.64201 0.74696 0.0
C1030 C 0.97006 0.60794 0.74889 0.0
C1031 C 0.0052 0.60137 0.7419 0.0
C1032 C 0.02748 0.62869 0.73311 0.0
C1033 C 0.01473 0.66266 0.7315 0.0
C1034 C 0.97965 0.66937 0.73844 0.0
C1035 C 0.81048 0.58038 0.83649 0.0
C1036 C 0.82847 0.57405 0.86747 0.0
C1037 C 0.82268 0.60505 0.81312 0.0
C1038 C 0.85266 0.62457 0.82066 0.0
C1039 C 0.86909 0.62008 0.85308 0.0
C1040 C 0.8572 0.59468 0.87627 0.0
C1041 C 0.86942 0.64493 0.7924 0.0
C1042 C 0.90444 0.63797 0.78468 0.0
C1043 C 0.84987 0.66642 0.76972 0.0
C1044 C 0.81395 0.67754 0.77887 0.0
C1045 C 0.80678 0.69121 0.81213 0.0
C1046 C 0.77253 0.69807 0.82226 0.0
C1047 C 0.74519 0.69159 0.79928 0.0
C1048 C 0.75209 0.67927 0.76574 0.0
C1049 C 0.78632 0.67232 0.75546 0.0
H1050 H 0.71865 0.69623 0.80749 0.0
H1051 H 0.05462 0.62357 0.72758 0.0
H1052 H 0.94367 0.28243 0.36609 0.0
H1053 H 0.90819 0.29567 0.31526 0.0
H1054 H 0.92073 0.40545 0.3356 0.0
H1055 H 0.95808 0.3921 0.38534 0.0
H1056 H 0.85561 0.32624 0.28947 0.0
H1057 H 0.94482 0.4474 0.26497 0.0
H1058 H 0.00442 0.46659 0.27926 0.0
H1059 H 0.03557 0.36046 0.2943 0.0
H1060 H 0.97636 0.34063 0.27957 0.0
H1061 H 0.78774 0.44155 0.1666 0.0
H1062 H 0.80847 0.40228 0.21178 0.0
H1063 H 0.90526 0.38935 0.15588 0.0
H1064 H 0.88481 0.43021 0.11151 0.0
H1065 H 0.92061 0.40834 0.2144 0.0
H1066 H 0.85028 0.31884 0.17707 0.0
H1067 H 0.80145 0.28266 0.15672 0.0
H1068 H 0.74632 0.30249 0.25188 0.0
H1069 H 0.7945 0.33943 0.27265 0.0
C1070 C 0.93761 0.30937 0.36054 0.0
C1071 C 0.95381 0.33634 0.37924 0.0
C1072 C 0.91744 0.31692 0.33135 0.0
C1073 C 0.9129 0.35154 0.32089 0.0
C1074 C 0.92486 0.3785 0.34262 0.0
C1075 C 0.94579 0.37096 0.37127 0.0
C1076 C 0.90051 0.35937 0.28522 0.0
C1077 C 0.86948 0.34442 0.27302 0.0
C1078 C 0.92022 0.38079 0.26271 0.0
C1079 C 0.95602 0.39259 0.27145 0.0
C1080 C 0.96442 0.42817 0.27116 0.0
C1081 C 0.99814 0.43915 0.27937 0.0
C1082 C 0.02373 0.41476 0.28781 0.0
C1083 C 0.0157 0.37933 0.28788 0.0
C1084 C 0.98206 0.36822 0.27963 0.0
C1085 C 0.81292 0.42921 0.16346 0.0
C1086 C 0.83478 0.43856 0.13581 0.0
C1087 C 0.82474 0.40662 0.18919 0.0
C1088 C 0.85854 0.39278 0.18744 0.0
C1089 C 0.87918 0.39984 0.15799 0.0
C1090 C 0.86752 0.42294 0.13253 0.0
C1091 C 0.87427 0.3769 0.21895 0.0
C1092 C 0.90631 0.39017 0.2305 0.0
C1093 C 0.85654 0.35212 0.23967 0.0
C1094 C 0.82609 0.3322 0.22637 0.0
C1095 C 0.82754 0.31602 0.19349 0.0
C1096 C 0.80004 0.29517 0.18195 0.0
C1097 C 0.77095 0.29008 0.2031 0.0
C1098 C 0.76903 0.30626 0.23564 0.0
C1099 C 0.79642 0.32722 0.24729 0.0
H1100 H 0.74973 0.27387 0.19414 0.0
H1101 H 0.04978 0.4233 0.29424 0.0
H1102 H 0.05979 0.26245 0.69327 0.0
H1103 H 0.10401 0.28662 0.73191 0.0
H1104 H 0.13538 0.35816 0.65153 0.0
H1105 H 0.0908 0.33371 0.61256 0.0
H1106 H 0.17412 0.30145 0.73608 0.0
H1107 H 0.13821 0.43906 0.69243 0.0
H1108 H 0.09181 0.47004 0.66068 0.0
H1109 H 0.01757 0.39286 0.69243 0.0
H1110 H 0.06351 0.36199 0.72483 0.0
H1111 H 0.25319 0.43174 0.84999 0.0
H1112 H 0.23639 0.39273 0.80229 0.0
H1113 H 0.12838 0.40524 0.83064 0.0
H1114 H 0.14508 0.44467 0.87769 0.0
H1115 H 0.13871 0.42209 0.76484 0.0
H1116 H 0.17087 0.32495 0.83933 0.0
H1117 H 0.2111 0.29139 0.8763 0.0
H1118 H 0.28422 0.28466 0.79201 0.0
H1119 H 0.24455 0.31865 0.7547 0.0
C1120 C 0.07692 0.28258 0.68352 0.0
C1121 C 0.07181 0.29661 0.65025 0.0
C1122 C 0.10231 0.29622 0.7055 0.0
C1123 C 0.1227 0.32445 0.69475 0.0
C1124 C 0.11976 0.33646 0.66034 0.0
C1125 C 0.09441 0.32254 0.63813 0.0
C1126 C 0.1418 0.3447 0.72148 0.0
C1127 C 0.1668 0.32796 0.74216 0.0
C1128 C 0.132 0.37926 0.72961 0.0
C1129 C 0.10432 0.39786 0.71038 0.0
C1130 C 0.11197 0.42876 0.69256 0.0
C1131 C 0.08577 0.44633 0.67453 0.0
C1132 C 0.0518 0.43332 0.67434 0.0
C1133 C 0.04391 0.40284 0.6924 0.0
C1134 C 0.06999 0.3853 0.71057 0.0
C1135 C 0.22599 0.42507 0.84674 0.0
C1136 C 0.20034 0.44114 0.86736 0.0
C1137 C 0.21641 0.40295 0.8194 0.0
C1138 C 0.18111 0.39638 0.8127 0.0
C1139 C 0.15576 0.41025 0.83515 0.0
C1140 C 0.16527 0.43251 0.86216 0.0
C1141 C 0.16992 0.37831 0.7805 0.0
C1142 C 0.14669 0.39577 0.75851 0.0
C1143 C 0.18078 0.34425 0.77181 0.0
C1144 C 0.20482 0.32431 0.79428 0.0
C1145 C 0.19562 0.31647 0.82877 0.0
C1146 C 0.21829 0.29738 0.84976 0.0
C1147 C 0.25014 0.28584 0.83647 0.0
C1148 C 0.25949 0.29354 0.80222 0.0
C1149 C 0.23692 0.31269 0.78114 0.0
H1150 H 0.26755 0.27093 0.85272 0.0
H1151 H 0.03158 0.44693 0.66032 0.0
H1152 H 0.08592 0.73255 0.35005 0.0
H1153 H 0.12529 0.71696 0.30237 0.0
H1154 H 0.10539 0.60822 0.32131 0.0
H1155 H 0.0647 0.62389 0.36786 0.0
H1156 H 0.1822 0.6783 0.28674 0.0
H1157 H 0.08451 0.56958 0.24747 0.0
H1158 H 0.02224 0.55644 0.25602 0.0
H1159 H 0.00024 0.66532 0.26805 0.0
H1160 H 0.06221 0.67912 0.25872 0.0
H1161 H 0.25265 0.55304 0.17551 0.0
H1162 H 0.22888 0.59393 0.21787 0.0
H1163 H 0.14869 0.62287 0.14483 0.0
H1164 H 0.17199 0.58051 0.10288 0.0
H1165 H 0.11954 0.60546 0.20038 0.0
H1166 H 0.20992 0.68274 0.17742 0.0
H1167 H 0.26916 0.70407 0.16573 0.0
H1168 H 0.30076 0.67495 0.26864 0.0
H1169 H 0.24188 0.65261 0.28076 0.0
C1170 C 0.09102 0.70532 0.34478 0.0
C1171 C 0.07231 0.67932 0.36227 0.0
C1172 C 0.1135 0.69645 0.31757 0.0
C1173 C 0.1177 0.6615 0.30788 0.0
C1174 C 0.10197 0.6354 0.328 0.0
C1175 C 0.07897 0.64427 0.35468 0.0
C1176 C 0.13422 0.6524 0.27423 0.0
C1177 C 0.16863 0.66258 0.26764 0.0
C1178 C 0.11574 0.63335 0.24868 0.0
C1179 C 0.07809 0.62532 0.25256 0.0
C1180 C 0.06633 0.59072 0.25151 0.0
C1181 C 0.03109 0.58316 0.25657 0.0
C1182 C 0.00732 0.61003 0.26265 0.0
C1183 C 0.01868 0.64453 0.26336 0.0
C1184 C 0.05386 0.65222 0.25815 0.0
C1185 C 0.23091 0.56934 0.16804 0.0
C1186 C 0.21433 0.56425 0.13599 0.0
C1187 C 0.21727 0.59273 0.19225 0.0
C1188 C 0.18701 0.61173 0.1846 0.0
C1189 C 0.17204 0.60853 0.15135 0.0
C1190 C 0.18549 0.58471 0.12726 0.0
C1191 C 0.16835 0.63024 0.21305 0.0
C1192 C 0.13325 0.62184 0.21885 0.0
C1193 C 0.18577 0.6524 0.23691 0.0
C1194 C 0.22141 0.66572 0.22991 0.0
C1195 C 0.22955 0.68056 0.19749 0.0
C1196 C 0.26309 0.69289 0.19079 0.0
C1197 C 0.28874 0.69086 0.2164 0.0
C1198 C 0.28087 0.6765 0.24881 0.0
C1199 C 0.24738 0.664 0.25562 0.0
H1200 H 0.31469 0.70044 0.21114 0.0
H1201 H 0.98011 0.60415 0.26684 0.0
H1202 H 0.63219 0.90989 0.65657 0.0
H1203 H 0.6787 0.87049 0.63796 0.0
H1204 H 0.72566 0.87833 0.73953 0.0
H1205 H 0.67875 0.91738 0.75824 0.0
H1206 H 0.74169 0.90201 0.6371 0.0
H1207 H 0.77942 0.81096 0.74957 0.0
H1208 H 0.75051 0.77183 0.79145 0.0
H1209 H 0.66741 0.75442 0.71889 0.0
H1210 H 0.69549 0.79391 0.67694 0.0
H1211 H 0.90861 0.86342 0.58932 0.0
H1212 H 0.86495 0.87718 0.63389 0.0
H1213 H 0.81889 0.77576 0.61937 0.0
H1214 H 0.86393 0.76135 0.57691 0.0
H1215 H 0.80217 0.79694 0.68088 0.0
H1216 H 0.79822 0.84897 0.56496 0.0
H1217 H 0.81983 0.88511 0.51651 0.0
H1218 H 0.82628 0.97339 0.58498 0.0
H1219 H 0.80473 0.93788 0.63358 0.0
C1220 C 0.65135 0.90152 0.67543 0.0
C1221 C 0.65198 0.91631 0.7088 0.0
C1222 C 0.67803 0.87927 0.66477 0.0
C1223 C 0.70579 0.87177 0.68727 0.0
C1224 C 0.70437 0.88353 0.72185 0.0
C1225 C 0.67753 0.90571 0.73258 0.0
C1226 C 0.7391 0.85893 0.67264 0.0
C1227 C 0.75483 0.87895 0.64664 0.0
C1228 C 0.75628 0.82902 0.6851 0.0
C1229 C 0.73939 0.80552 0.71034 0.0
C1230 C 0.755 0.79873 0.74262 0.0
C1231 C 0.73875 0.77654 0.76635 0.0
C1232 C 0.70718 0.76063 0.75777 0.0
C1233 C 0.69187 0.76674 0.72545 0.0
C1234 C 0.70775 0.78927 0.70186 0.0
C1235 C 0.8903 0.84354 0.59723 0.0
C1236 C 0.88934 0.81144 0.57991 0.0
C1237 C 0.8651 0.85147 0.6223 0.0
C1238 C 0.83777 0.82801 0.62892 0.0
C1239 C 0.83941 0.79444 0.61454 0.0
C1240 C 0.86519 0.78617 0.5903 0.0
C1241 C 0.80476 0.84006 0.64516 0.0
C1242 C 0.78914 0.82012 0.67155 0.0
C1243 C 0.78693 0.8696 0.63227 0.0
C1244 C 0.80019 0.89074 0.60293 0.0
C1245 C 0.8044 0.87607 0.56963 0.0
C1246 C 0.81661 0.89646 0.54212 0.0
C1247 C 0.82454 0.93152 0.54764 0.0
C1248 C 0.82019 0.94628 0.58063 0.0
C1249 C 0.80793 0.92607 0.60815 0.0
H1250 H 0.83394 0.94731 0.52637 0.0
H1251 H 0.69423 0.74398 0.77631 0.0
H1252 H 0.66571 0.37976 0.06448 0.0
H1253 H 0.64682 0.34007 0.11054 0.0
H1254 H 0.7485 0.29234 0.11087 0.0
H1255 H 0.76722 0.33203 0.06464 0.0
H1256 H 0.69711 0.24728 0.09476 0.0
H1257 H 0.71796 0.33233 0.18041 0.0
H1258 H 0.71644 0.38867 0.21064 0.0
H1259 H 0.60562 0.38036 0.22203 0.0
H1260 H 0.60637 0.32394 0.19161 0.0
H1261 H 0.60506 0.11639 0.18514 0.0
H1262 H 0.65073 0.1598 0.17602 0.0
H1263 H 0.5729 0.24061 0.17182 0.0
H1264 H 0.52775 0.19819 0.18354 0.0
H1265 H 0.62812 0.26513 0.20237 0.0
H1266 H 0.60531 0.19767 0.09739 0.0
H1267 H 0.60213 0.14351 0.06294 0.0
H1268 H 0.71053 0.12433 0.082 0.0
H1269 H 0.71419 0.17825 0.11681 0.0
C1270 C 0.68429 0.3617 0.0755 0.0
C1271 C 0.71778 0.35872 0.06145 0.0
C1272 C 0.67361 0.33912 0.10179 0.0
C1273 C 0.69633 0.3133 0.11412 0.0
C1274 C 0.73069 0.31217 0.1018 0.0
C1275 C 0.74137 0.3348 0.07557 0.0
C1276 C 0.68219 0.28401 0.13456 0.0
C1277 C 0.68284 0.25101 0.11887 0.0
C1278 C 0.663 0.28918 0.16557 0.0
C1279 C 0.66233 0.32344 0.18384 0.0
C1280 C 0.69324 0.34231 0.18937 0.0
C1281 C 0.6925 0.3744 0.20652 0.0
C1282 C 0.66095 0.38807 0.21834 0.0
C1283 C 0.63008 0.36967 0.21298 0.0
C1284 C 0.63068 0.33753 0.19585 0.0
C1285 C 0.59774 0.14347 0.1828 0.0
C1286 C 0.56254 0.15358 0.18406 0.0
C1287 C 0.62388 0.16824 0.17747 0.0
C1288 C 0.61519 0.2034 0.17258 0.0
C1289 C 0.58029 0.21365 0.17536 0.0
C1290 C 0.55434 0.18913 0.18128 0.0
C1291 C 0.64143 0.22931 0.1613 0.0
C1292 C 0.64323 0.26143 0.1788 0.0
C1293 C 0.66205 0.2239 0.13126 0.0
C1294 C 0.6599 0.19163 0.11017 0.0
C1295 C 0.62839 0.18175 0.09443 0.0
C1296 C 0.62651 0.15113 0.0748 0.0
C1297 C 0.65607 0.1304 0.07042 0.0
C1298 C 0.68761 0.14033 0.08553 0.0
C1299 C 0.68961 0.1709 0.10522 0.0
H1300 H 0.65457 0.10671 0.05522 0.0
H1301 H 0.66041 0.41295 0.23159 0.0
H1302 H 0.37135 0.07869 0.72571 0.0
H1303 H 0.3216 0.11434 0.71006 0.0
H1304 H 0.36681 0.13223 0.60877 0.0
H1305 H 0.41515 0.09347 0.62355 0.0
H1306 H 0.29443 0.16848 0.68897 0.0
H1307 H 0.31018 0.12477 0.54631 0.0
H1308 H 0.33714 0.07874 0.51041 0.0
H1309 H 0.33599 0.00943 0.59772 0.0
H1310 H 0.30925 0.0552 0.63423 0.0
H1311 H 0.15887 0.22972 0.57659 0.0
H1312 H 0.20765 0.21581 0.61472 0.0
H1313 H 0.18599 0.10633 0.60177 0.0
H1314 H 0.13827 0.12035 0.56222 0.0
H1315 H 0.24641 0.11883 0.5801 0.0
H1316 H 0.18608 0.14797 0.68298 0.0
H1317 H 0.15038 0.1823 0.72383 0.0
H1318 H 0.22789 0.26266 0.72492 0.0
H1319 H 0.26385 0.22909 0.68371 0.0
C1320 C 0.3714 0.09155 0.70067 0.0
C1321 C 0.39663 0.08311 0.6756 0.0
C1322 C 0.3428 0.11187 0.69161 0.0
C1323 C 0.33957 0.12463 0.65759 0.0
C1324 C 0.36799 0.12133 0.63467 0.0
C1325 C 0.39597 0.09979 0.64326 0.0
C1326 C 0.30472 0.13536 0.64471 0.0
C1327 C 0.28398 0.15782 0.66501 0.0
C1328 C 0.29036 0.12055 0.6141 0.0
C1329 C 0.30827 0.09355 0.59307 0.0
C1330 C 0.31601 0.09981 0.5579 0.0
C1331 C 0.33124 0.07378 0.53748 0.0
C1332 C 0.33857 0.04129 0.55189 0.0
C1333 C 0.33064 0.03474 0.58674 0.0
C1334 C 0.31557 0.06075 0.60735 0.0
C1335 C 0.16364 0.20276 0.58319 0.0
C1336 C 0.14516 0.176 0.56647 0.0
C1337 C 0.19153 0.19482 0.60501 0.0
C1338 C 0.20078 0.16001 0.61081 0.0
C1339 C 0.17953 0.13339 0.59736 0.0
C1340 C 0.15217 0.14131 0.57498 0.0
C1341 C 0.23576 0.15131 0.62452 0.0
C1342 C 0.25672 0.12958 0.60404 0.0
C1343 C 0.24937 0.16539 0.6557 0.0
C1344 C 0.22753 0.18613 0.67994 0.0
C1345 C 0.19535 0.17316 0.6916 0.0
C1346 C 0.1751 0.19245 0.71493 0.0
C1347 C 0.18684 0.22466 0.727 0.0
C1348 C 0.21881 0.23771 0.71564 0.0
C1349 C 0.23916 0.21855 0.69228 0.0
H1350 H 0.1712 0.23938 0.74527 0.0
H1351 H 0.35022 0.02111 0.536 0.0
H1352 H 0.32343 0.62475 0.08496 0.0
H1353 H 0.34543 0.66781 0.1262 0.0
H1354 H 0.44091 0.67522 0.06756 0.0
H1355 H 0.41977 0.63093 0.02718 0.0
H1356 H 0.45301 0.68852 0.13485 0.0
H1357 H 0.37238 0.72697 0.04678 0.0
H1358 H 0.31685 0.72424 0.01468 0.0
H1359 H 0.26088 0.74623 0.10903 0.0
H1360 H 0.31621 0.74843 0.14164 0.0
H1361 H 0.47116 0.88065 0.12872 0.0
H1362 H 0.43782 0.82963 0.10972 0.0
H1363 H 0.43806 0.79059 0.21474 0.0
H1364 H 0.47048 0.84212 0.2339 0.0
H1365 H 0.37554 0.79182 0.12992 0.0
H1366 H 0.47421 0.70222 0.20042 0.0
H1367 H 0.53359 0.70455 0.22467 0.0
H1368 H 0.55919 0.78855 0.15606 0.0
H1369 H 0.50051 0.78593 0.13057 0.0
C1370 C 0.34976 0.63425 0.08172 0.0
C1371 C 0.36964 0.62486 0.0524 0.0
C1372 C 0.36215 0.65921 0.10515 0.0
C1373 C 0.39436 0.67546 0.09935 0.0
C1374 C 0.41584 0.66327 0.0724 0.0
C1375 C 0.40364 0.63806 0.04921 0.0
C1376 C 0.4035 0.70823 0.11768 0.0
C1377 C 0.43585 0.71092 0.13435 0.0
C1378 C 0.38149 0.73778 0.11615 0.0
C1379 C 0.34829 0.73742 0.0966 0.0
C1380 C 0.34818 0.73099 0.0606 0.0
C1381 C 0.31678 0.72955 0.04235 0.0
C1382 C 0.28533 0.73496 0.05983 0.0
C1383 C 0.28526 0.74197 0.09554 0.0
C1384 C 0.31663 0.74331 0.11391 0.0
C1385 C 0.46235 0.86209 0.14795 0.0
C1386 C 0.47282 0.8653 0.18274 0.0
C1387 C 0.44357 0.8329 0.13712 0.0
C1388 C 0.436 0.80624 0.1608 0.0
C1389 C 0.4438 0.8109 0.19614 0.0
C1390 C 0.46196 0.84042 0.20708 0.0
C1391 C 0.42473 0.77189 0.14763 0.0
C1392 C 0.39219 0.76908 0.13154 0.0
C1393 C 0.44699 0.74251 0.14902 0.0
C1394 C 0.48258 0.74434 0.16407 0.0
C1395 C 0.49252 0.72117 0.19046 0.0
C1396 C 0.52614 0.72244 0.20433 0.0
C1397 C 0.55012 0.74678 0.192 0.0
C1398 C 0.54055 0.76984 0.16573 0.0
C1399 C 0.50708 0.76847 0.15157 0.0
H1400 H 0.57614 0.74766 0.20269 0.0
H1401 H 0.26101 0.73382 0.04569 0.0
H1402 H 0.85359 0.25997 0.43456 0.0
H1403 H 0.80721 0.25612 0.3909 0.0
H1404 H 0.84529 0.15537 0.35924 0.0
H1405 H 0.89097 0.15875 0.40364 0.0
H1406 H 0.81128 0.20545 0.30306 0.0
H1407 H 0.7953 0.14843 0.41993 0.0
H1408 H 0.79389 0.15323 0.48398 0.0
H1409 H 0.7207 0.23721 0.47709 0.0
H1410 H 0.72204 0.23322 0.41296 0.0
H1411 H 0.70804 0.06513 0.26763 0.0
H1412 H 0.7455 0.11466 0.27921 0.0
H1413 H 0.65976 0.16832 0.32849 0.0
H1414 H 0.62214 0.11771 0.31744 0.0
H1415 H 0.70931 0.16542 0.37133 0.0
H1416 H 0.70641 0.20615 0.25828 0.0
H1417 H 0.70613 0.20948 0.19436 0.0
H1418 H 0.8098 0.16823 0.19065 0.0
H1419 H 0.81064 0.16395 0.25454 0.0
C1420 C 0.85297 0.23781 0.41707 0.0
C1421 C 0.87577 0.20973 0.42203 0.0
C1422 C 0.8265 0.23562 0.39227 0.0
C1423 C 0.82293 0.20548 0.37196 0.0
C1424 C 0.84795 0.17899 0.37445 0.0
C1425 C 0.87401 0.1809 0.39971 0.0
C1426 C 0.78979 0.19796 0.35404 0.0
C1427 C 0.78878 0.19672 0.31765 0.0
C1428 C 0.75991 0.18869 0.37331 0.0
C1429 C 0.75905 0.19079 0.41176 0.0
C1430 C 0.77911 0.16806 0.4321 0.0
C1431 C 0.77826 0.17057 0.46838 0.0
C1432 C 0.75726 0.19549 0.48457 0.0
C1433 C 0.737 0.21795 0.46451 0.0
C1434 C 0.73778 0.21558 0.42822 0.0
C1435 C 0.69696 0.08787 0.28018 0.0
C1436 C 0.66251 0.08743 0.29237 0.0
C1437 C 0.71829 0.11649 0.28637 0.0
C1438 C 0.70561 0.14548 0.30473 0.0
C1439 C 0.6702 0.14628 0.31429 0.0
C1440 C 0.64872 0.11745 0.30801 0.0
C1441 C 0.73099 0.17063 0.31972 0.0
C1442 C 0.73089 0.17518 0.35599 0.0
C1443 C 0.75932 0.18384 0.30007 0.0
C1444 C 0.75854 0.18468 0.2614 0.0
C1445 C 0.72902 0.19734 0.24389 0.0
C1446 C 0.72877 0.19946 0.2076 0.0
C1447 C 0.75792 0.18913 0.18846 0.0
C1448 C 0.78727 0.17632 0.20554 0.0
C1449 C 0.78766 0.17407 0.24181 0.0
H1450 H 0.75785 0.19116 0.16041 0.0
H1451 H 0.75662 0.19735 0.51265 0.0
H1452 H 0.39827 0.36374 0.94863 0.0
H1453 H 0.41566 0.32548 0.90108 0.0
H1454 H 0.3119 0.33077 0.85853 0.0
H1455 H 0.29414 0.36857 0.90689 0.0
H1456 H 0.32956 0.26594 0.86916 0.0
H1457 H 0.3828 0.35867 0.81 0.0
H1458 H 0.41776 0.41178 0.80194 0.0
H1459 H 0.50942 0.35744 0.8352 0.0
H1460 H 0.47497 0.30418 0.84404 0.0
H1461 H 0.46097 0.15538 0.75556 0.0
H1462 H 0.42155 0.20522 0.76293 0.0
H1463 H 0.41837 0.1866 0.87345 0.0
H1464 H 0.45845 0.13752 0.86624 0.0
H1465 H 0.44213 0.26267 0.80606 0.0
H1466 H 0.33516 0.20828 0.89968 0.0
H1467 H 0.29902 0.15559 0.90493 0.0
H1468 H 0.31122 0.13528 0.79569 0.0
H1469 H 0.34696 0.1881 0.78964 0.0
C1470 C 0.37947 0.35758 0.92855 0.0
C1471 C 0.34483 0.36878 0.93159 0.0
C1472 C 0.38946 0.3359 0.90118 0.0
C1473 C 0.36509 0.3252 0.87613 0.0
C1474 C 0.33112 0.33866 0.87757 0.0
C1475 C 0.32108 0.36046 0.90504 0.0
C1476 C 0.37394 0.29587 0.85251 0.0
C1477 C 0.35376 0.26548 0.85467 0.0
C1478 C 0.40519 0.29537 0.83298 0.0
C1479 C 0.42622 0.32735 0.82767 0.0
C1480 C 0.41038 0.35807 0.81579 0.0
C1481 C 0.43012 0.38822 0.81107 0.0
C1482 C 0.46579 0.38798 0.81804 0.0
C1483 C 0.4818 0.35758 0.82974 0.0
C1484 C 0.46218 0.32736 0.83453 0.0
C1485 C 0.45086 0.16134 0.78121 0.0
C1486 C 0.46236 0.14265 0.81037 0.0
C1487 C 0.4286 0.18984 0.78539 0.0
C1488 C 0.417 0.19941 0.81867 0.0
C1489 C 0.42673 0.17932 0.8475 0.0
C1490 C 0.44951 0.15133 0.84343 0.0
C1491 C 0.39862 0.23271 0.82452 0.0
C1492 C 0.41719 0.26365 0.81929 0.0
C1493 C 0.36567 0.23386 0.84074 0.0
C1494 C 0.34395 0.20212 0.84426 0.0
C1495 C 0.32998 0.19272 0.87672 0.0
C1496 C 0.30958 0.16278 0.87985 0.0
C1497 C 0.30288 0.14207 0.85068 0.0
C1498 C 0.31651 0.15127 0.8183 0.0
C1499 C 0.3369 0.18118 0.81502 0.0
H1500 H 0.2871 0.1189 0.85317 0.0
H1501 H 0.48102 0.41136 0.81438 0.0
H1502 H 0.14223 0.84176 0.41007 0.0
H1503 H 0.19035 0.85083 0.36917 0.0
H1504 H 0.24423 0.76252 0.41238 0.0
H1505 H 0.19588 0.75342 0.45308 0.0
H1506 H 0.28197 0.82064 0.41723 0.0
H1507 H 0.22815 0.76045 0.32535 0.0
H1508 H 0.18192 0.74101 0.28545 0.0
H1509 H 0.16876 0.84548 0.24887 0.0
H1510 H 0.21509 0.86564 0.28844 0.0
H1511 H 0.41804 0.90758 0.3273 0.0
H1512 H 0.37993 0.85835 0.34198 0.0
H1513 H 0.2905 0.91798 0.30969 0.0
H1514 H 0.32819 0.96609 0.29389 0.0
H1515 H 0.2808 0.85292 0.29259 0.0
H1516 H 0.31903 0.91527 0.39636 0.0
H1517 H 0.36209 0.93744 0.4385 0.0
H1518 H 0.39874 0.83349 0.45621 0.0
H1519 H 0.35608 0.81077 0.41386 0.0
C1520 C 0.16372 0.82353 0.40971 0.0
C1521 C 0.16545 0.79675 0.43422 0.0
C1522 C 0.19116 0.82858 0.38634 0.0
C1523 C 0.22082 0.80714 0.3875 0.0
C1524 C 0.22149 0.77909 0.41075 0.0
C1525 C 0.19392 0.77388 0.43387 0.0
C1526 C 0.25302 0.81824 0.36932 0.0
C1527 C 0.28189 0.82709 0.38983 0.0
C1528 C 0.2533 0.82628 0.33351 0.0
C1529 C 0.22501 0.81457 0.31001 0.0
C1530 C 0.21523 0.77934 0.30899 0.0
C1531 C 0.18906 0.76817 0.28637 0.0
C1532 C 0.17227 0.79198 0.26477 0.0
C1533 C 0.18177 0.82704 0.26563 0.0
C1534 C 0.20811 0.83834 0.28804 0.0
C1535 C 0.3903 0.90979 0.32285 0.0
C1536 C 0.37595 0.94096 0.31037 0.0
C1537 C 0.36856 0.88177 0.33132 0.0
C1538 C 0.33225 0.88468 0.32749 0.0
C1539 C 0.31834 0.91505 0.313 0.0
C1540 C 0.33991 0.94278 0.30444 0.0
C1541 C 0.30797 0.85806 0.34135 0.0
C1542 C 0.28092 0.84595 0.3199 0.0
C1543 C 0.3088 0.84778 0.37664 0.0
C1544 C 0.33486 0.86142 0.40154 0.0
C1545 C 0.33654 0.89721 0.40899 0.0
C1546 C 0.36079 0.90986 0.43296 0.0
C1547 C 0.38325 0.88691 0.4499 0.0
C1548 C 0.38143 0.85125 0.44296 0.0
C1549 C 0.35724 0.83847 0.41897 0.0
H1550 H 0.40199 0.89674 0.46849 0.0
H1551 H 0.15197 0.78324 0.24732 0.0
H1552 H 0.71165 0.67973 0.00511 0.0
H1553 H 0.69074 0.7351 0.98167 0.0
H1554 H 0.63889 0.67965 0.89886 0.0
H1555 H 0.65899 0.62403 0.923 0.0
H1556 H 0.67411 0.74225 0.87856 0.0
H1557 H 0.61104 0.69025 0.97975 0.0
H1558 H 0.57965 0.67337 0.04087 0.0
H1559 H 0.57083 0.81906 0.0561 0.0
H1560 H 0.60482 0.81523 0.99562 0.0
H1561 H 0.50205 0.81915 0.84454 0.0
H1562 H 0.54282 0.78203 0.87512 0.0
H1563 H 0.61739 0.86566 0.87894 0.0
H1564 H 0.5757 0.90419 0.84947 0.0
H1565 H 0.57783 0.79827 0.94343 0.0
H1566 H 0.68712 0.82481 0.85666 0.0
H1567 H 0.69458 0.84986 0.79798 0.0
H1568 H 0.60704 0.791 0.76115 0.0
H1569 H 0.59919 0.76565 0.81957 0.0
C1570 C 0.69668 0.67959 0.98123 0.0
C1571 C 0.68687 0.64788 0.96559 0.0
C1572 C 0.68455 0.71111 0.96818 0.0
C1573 C 0.66282 0.71127 0.93907 0.0
C1574 C 0.65551 0.67984 0.92161 0.0
C1575 C 0.66719 0.64818 0.93504 0.0
C1576 C 0.64602 0.74358 0.92742 0.0
C1577 C 0.65393 0.75519 0.89355 0.0
C1578 C 0.62003 0.76108 0.94737 0.0
C1579 C 0.61061 0.75367 0.98463 0.0
C1580 C 0.60426 0.71133 0.99703 0.0
C1581 C 0.58313 0.70098 0.03501 0.0
C1582 C 0.56413 0.75764 0.06783 0.0
C1583 C 0.57677 0.79363 0.04557 0.0
C1584 C 0.59849 0.79049 0.00734 0.0
C1585 C 0.5267 0.83018 0.85258 0.0
C1586 C 0.53528 0.86499 0.84519 0.0
C1587 C 0.55006 0.80874 0.86984 0.0
C1588 C 0.58279 0.82129 0.87946 0.0
C1589 C 0.59201 0.85573 0.87177 0.0
C1590 C 0.56832 0.87755 0.8548 0.0
C1591 C 0.6073 0.79733 0.89656 0.0
C1592 C 0.60017 0.78679 0.93053 0.0
C1593 C 0.63507 0.78222 0.87821 0.0
C1594 C 0.64282 0.79319 0.84223 0.0
C1595 C 0.66991 0.8168 0.83583 0.0
C1596 C 0.67394 0.83134 0.80277 0.0
C1597 C 0.65103 0.82232 0.776 0.0
C1598 C 0.62457 0.79815 0.78199 0.0
C1599 C 0.62043 0.78359 0.81498 0.0
H1600 H 0.65399 0.83368 0.75048 0.0
H1601 H 0.55005 0.76192 0.09212 0.0
loop_
_geom_bond_atom_site_label_1
_geom_bond_atom_site_label_2
_geom_bond_distance
_geom_bond_site_symmetry_2
_ccdc_geom_bond_type
C0 O1 1.201 . S
C0 C2 1.493 . S
C0 N17 1.318 . S
O1 C0 1.201 . S
C2 C0 1.493 . S
C2 C3 1.381 . S
C2 N7 1.335 1_655 S
C3 C2 1.381 . S
C3 C4 1.411 1_655 S
C3 H49 0.931 . S
C4 C3 1.411 1_455 S
C4 C5 1.384 . S
C4 H50 0.930 . S
C5 C4 1.384 . S
C5 C6 1.376 . S
C5 H51 0.929 . S
C6 C5 1.376 . S
C6 N7 1.330 . S
C6 C21 1.484 . S
N7 C2 1.335 1_455 S
N7 C6 1.330 . S
N7 Co9 1.859 . S
N8 Co9 1.962 . S
N8 C19 1.318 . S
N8 C43 1.421 . S
Co9 N7 1.859 . S
Co9 N8 1.962 . S
Co9 N10 1.859 . S
Co9 N16 1.958 . S
Co9 N17 1.962 1_455 S
Co9 N18 1.958 . S
N10 Co9 1.859 . S
N10 C14 1.330 . S
N10 C15 1.335 . S
C11 C12 1.411 . S
C11 C15 1.381 . S
C11 H52 0.931 . S
C12 C11 1.411 . S
C12 C13 1.384 . S
C12 H53 0.930 . S
C13 C12 1.384 . S
C13 C14 1.376 . S
C13 H54 0.929 . S
C14 N10 1.330 . S
C14 C13 1.376 . S
C14 C29 1.484 . S
C15 N10 1.335 . S
C15 C11 1.381 . S
C15 C19 1.493 . S
N16 Co9 1.958 . S
N16 C29 1.344 . S
N16 C31 1.425 . S
N17 C0 1.318 . S
N17 Co9 1.962 1_655 S
N17 C37 1.421 . S
N18 Co9 1.958 . S
N18 C21 1.344 . S
N18 C23 1.425 . S
C19 N8 1.318 . S
C19 C15 1.493 . S
C19 O20 1.201 . S
O20 C19 1.201 . S
C21 C6 1.484 . S
C21 N18 1.344 . S
C21 O22 1.268 . S
O22 C21 1.268 . S
C23 N18 1.425 . S
C23 C25 1.392 . S
C23 C26 1.368 . S
C24 C25 1.382 . S
C24 C28 1.386 . S
C25 C23 1.392 . S
C25 C24 1.382 . S
C25 H55 0.928 . S
C26 C23 1.368 . S
C26 C27 1.367 . S
C26 H56 0.930 . S
C27 C26 1.367 . S
C27 C28 1.369 . S
C28 C24 1.386 . S
C28 C27 1.369 . S
C28 H57 0.930 . S
C29 C14 1.484 . S
C29 N16 1.344 . S
C29 O30 1.268 . S
O30 C29 1.268 . S
C31 N16 1.425 . S
C31 C32 1.368 . S
C31 C36 1.392 1_455 S
C32 C31 1.368 . S
C32 C33 1.367 . S
C32 H58 0.930 . S
C33 C32 1.367 . S
C33 C34 1.369 . S
C34 C33 1.369 . S
C34 C35 1.386 1_455 S
C34 H59 0.930 . S
C35 C34 1.386 1_655 S
C35 C36 1.382 . S
C36 C31 1.392 1_655 S
C36 C35 1.382 . S
C36 H60 0.928 . S
C37 N17 1.421 . S
C37 C38 1.371 . S
C37 C42 1.385 . S
C38 C37 1.371 . S
C38 C39 1.367 . S
C38 H61 0.931 . S
C39 C38 1.367 . S
C39 C40 1.401 . S
C40 C39 1.401 . S
C40 C41 1.385 . S
C40 H62 0.930 . S
C41 C40 1.385 . S
C41 C42 1.402 . S
C42 C37 1.385 . S
C42 C41 1.402 . S
C42 H63 0.929 . S
C43 N8 1.421 . S
C43 C46 1.385 1_455 S
C43 C47 1.371 . S
C44 C45 1.385 1_455 S
C44 C48 1.401 . S
C44 H64 0.930 . S
C45 C44 1.385 1_655 S
C45 C46 1.402 . S
C46 C43 1.385 1_655 S
C46 C45 1.402 . S
C46 H65 0.929 . S
C47 C43 1.371 . S
C47 C48 1.367 . S
C47 H66 0.931 . S
C48 C44 1.401 . S
C48 C47 1.367 . S
H49 C3 0.931 . S
H50 C4 0.930 . S
H51 C5 0.929 . S
H52 C11 0.931 . S
H53 C12 0.930 . S
H54 C13 0.929 . S
H55 C25 0.928 . S
H56 C26 0.930 . S
H57 C28 0.930 . S
H58 C32 0.930 . S
H59 C34 0.930 . S
H60 C36 0.928 . S
H61 C38 0.931 . S
H62 C40 0.930 . S
H63 C42 0.929 . S
H64 C44 0.930 . S
H65 C46 0.929 . S
H66 C47 0.931 . S
C67 O68 1.201 . S
C67 C69 1.493 . S
C67 N84 1.318 . S
O68 C67 1.201 . S
C69 C67 1.493 . S
C69 C70 1.381 . S
C69 N74 1.335 1_556 S
C70 C69 1.381 . S
C70 C71 1.411 1_556 S
C70 H116 0.931 . S
C71 C70 1.411 1_554 S
C71 C72 1.384 . S
C71 H117 0.930 . S
C72 C71 1.384 . S
C72 C73 1.376 . S
C72 H118 0.929 . S
C73 C72 1.376 . S
C73 N74 1.330 . S
C73 C88 1.484 . S
N74 C69 1.335 1_554 S
N74 C73 1.330 . S
N74 Co76 1.859 . S
N75 Co76 1.962 . S
N75 C86 1.318 . S
N75 C110 1.421 . S
Co76 N74 1.859 . S
Co76 N75 1.962 . S
Co76 N77 1.859 . S
Co76 N83 1.958 . S
Co76 N84 1.962 1_554 S
Co76 N85 1.958 . S
N77 Co76 1.859 . S
N77 C81 1.330 . S
N77 C82 1.335 . S
C78 C79 1.411 . S
C78 C82 1.381 . S
C78 H119 0.931 . S
C79 C78 1.411 . S
C79 C80 1.384 . S
C79 H120 0.930 . S
C80 C79 1.384 . S
C80 C81 1.376 . S
C80 H121 0.929 . S
C81 N77 1.330 . S
C81 C80 1.376 . S
C81 C96 1.484 . S
C82 N77 1.335 . S
C82 C78 1.381 . S
C82 C86 1.493 . S
N83 Co76 1.958 . S
N83 C96 1.344 . S
N83 C98 1.425 . S
N84 C67 1.318 . S
N84 Co76 1.962 1_556 S
N84 C104 1.421 . S
N85 Co76 1.958 . S
N85 C88 1.344 . S
N85 C90 1.425 . S
C86 N75 1.318 . S
C86 C82 1.493 . S
C86 O87 1.201 . S
O87 C86 1.201 . S
C88 C73 1.484 . S
C88 N85 1.344 . S
C88 O89 1.268 . S
O89 C88 1.268 . S
C90 N85 1.425 . S
C90 C92 1.392 . S
C90 C93 1.368 . S
C91 C92 1.382 . S
C91 C95 1.386 . S
C92 C90 1.392 . S
C92 C91 1.382 . S
C92 H122 0.928 . S
C93 C90 1.368 . S
C93 C94 1.367 . S
C93 H123 0.930 . S
C94 C93 1.367 . S
C94 C95 1.369 . S
C95 C91 1.386 . S
C95 C94 1.369 . S
C95 H124 0.930 . S
C96 C81 1.484 . S
C96 N83 1.344 . S
C96 O97 1.268 . S
O97 C96 1.268 . S
C98 N83 1.425 . S
C98 C99 1.368 . S
C98 C103 1.392 1_554 S
C99 C98 1.368 . S
C99 C100 1.367 . S
C99 H125 0.930 . S
C100 C99 1.367 . S
C100 C101 1.369 1_554 S
C101 C100 1.369 1_556 S
C101 C102 1.386 . S
C101 H126 0.930 . S
C102 C101 1.386 . S
C102 C103 1.382 . S
C103 C98 1.392 1_556 S
C103 C102 1.382 . S
C103 H127 0.928 . S
C104 N84 1.421 . S
C104 C105 1.371 . S
C104 C109 1.385 . S
C105 C104 1.371 . S
C105 C106 1.367 . S
C105 H128 0.931 . S
C106 C105 1.367 . S
C106 C107 1.401 . S
C107 C106 1.401 . S
C107 C108 1.385 . S
C107 H129 0.930 . S
C108 C107 1.385 . S
C108 C109 1.402 . S
C109 C104 1.385 . S
C109 C108 1.402 . S
C109 H130 0.929 . S
C110 N75 1.421 . S
C110 C113 1.385 1_554 S
C110 C114 1.371 . S
C111 C112 1.385 1_554 S
C111 C115 1.401 . S
C111 H131 0.930 . S
C112 C111 1.385 1_556 S
C112 C113 1.402 . S
C113 C110 1.385 1_556 S
C113 C112 1.402 . S
C113 H132 0.929 . S
C114 C110 1.371 . S
C114 C115 1.367 . S
C114 H133 0.931 . S
C115 C111 1.401 . S
C115 C114 1.367 . S
H116 C70 0.931 . S
H117 C71 0.930 . S
H118 C72 0.929 . S
H119 C78 0.931 . S
H120 C79 0.930 . S
H121 C80 0.929 . S
H122 C92 0.928 . S
H123 C93 0.930 . S
H124 C95 0.930 . S
H125 C99 0.930 . S
H126 C101 0.930 . S
H127 C103 0.928 . S
H128 C105 0.931 . S
H129 C107 0.930 . S
H130 C109 0.929 . S
H131 C111 0.930 . S
H132 C113 0.929 . S
H133 C114 0.931 . S
C134 O135 1.201 . S
C134 C136 1.493 . S
C134 N151 1.318 . S
O135 C134 1.201 . S
C136 C134 1.493 . S
C136 C137 1.381 . S
C136 N141 1.335 . S
C137 C136 1.381 . S
C137 C138 1.411 . S
C137 H183 0.931 . S
C138 C137 1.411 . S
C138 C139 1.384 1_455 S
C138 H184 0.930 . S
C139 C138 1.384 1_655 S
C139 C140 1.376 . S
C139 H185 0.929 . S
C140 C139 1.376 . S
C140 N141 1.330 1_655 S
C140 C155 1.484 . S
N141 C136 1.335 . S
N141 C140 1.330 1_455 S
N141 Co143 1.859 . S
N142 Co143 1.962 . S
N142 C153 1.318 . S
N142 C177 1.421 . S
Co143 N141 1.859 . S
Co143 N142 1.962 . S
Co143 N144 1.859 . S
Co143 N150 1.958 . S
Co143 N151 1.962 . S
Co143 N152 1.958 1_455 S
N144 Co143 1.859 . S
N144 C148 1.332 . S
N144 C149 1.334 1_455 S
C145 C146 1.411 . S
C145 C149 1.384 . S
C145 H186 0.931 . S
C146 C145 1.411 . S
C146 C147 1.384 . S
C146 H187 0.930 . S
C147 C146 1.384 . S
C147 C148 1.372 1_655 S
C147 H188 0.929 . S
C148 N144 1.332 . S
C148 C147 1.372 1_455 S
C148 C163 1.487 . S
C149 N144 1.334 1_655 S
C149 C145 1.384 . S
C149 C153 1.492 1_655 S
N150 Co143 1.958 . S
N150 C163 1.344 . S
N150 C165 1.425 . S
N151 C134 1.318 . S
N151 Co143 1.962 . S
N151 C171 1.421 . S
N152 Co143 1.958 1_655 S
N152 C155 1.344 . S
N152 C157 1.425 . S
C153 N142 1.318 . S
C153 C149 1.492 1_455 S
C153 O154 1.199 1_455 S
O154 C153 1.199 1_655 S
C155 C140 1.484 . S
C155 N152 1.344 . S
C155 O156 1.268 . S
O156 C155 1.268 . S
C157 N152 1.425 . S
C157 C159 1.392 . S
C157 C160 1.368 . S
C158 C159 1.382 . S
C158 C162 1.386 . S
C159 C157 1.392 . S
C159 C158 1.382 . S
C159 H189 0.928 . S
C160 C157 1.368 . S
C160 C161 1.367 . S
C160 H190 0.930 . S
C161 C160 1.367 . S
C161 C162 1.369 . S
C162 C158 1.386 . S
C162 C161 1.369 . S
C162 H191 0.930 . S
C163 C148 1.487 . S
C163 N150 1.344 . S
C163 O164 1.268 . S
O164 C163 1.268 . S
C165 N150 1.425 . S
C165 C166 1.368 1_455 S
C165 C170 1.392 . S
C166 C165 1.368 1_655 S
C166 C167 1.367 . S
C166 H192 0.930 . S
C167 C166 1.367 . S
C167 C168 1.369 1_655 S
C168 C167 1.369 1_455 S
C168 C169 1.386 . S
C168 H193 0.930 . S
C169 C168 1.386 . S
C169 C170 1.382 . S
C170 C165 1.392 . S
C170 C169 1.382 . S
C170 H194 0.928 . S
C171 N151 1.421 . S
C171 C172 1.371 . S
C171 C176 1.385 . S
C172 C171 1.371 . S
C172 C173 1.367 . S
C172 H195 0.931 . S
C173 C172 1.367 . S
C173 C174 1.401 . S
C174 C173 1.401 . S
C174 C175 1.385 . S
C174 H196 0.930 . S
C175 C174 1.385 . S
C175 C176 1.402 . S
C176 C171 1.385 . S
C176 C175 1.402 . S
C176 H197 0.929 . S
C177 N142 1.421 . S
C177 C180 1.385 . S
C177 C181 1.371 1_455 S
C178 C179 1.385 . S
C178 C182 1.401 1_455 S
C178 H198 0.930 . S
C179 C178 1.385 . S
C179 C180 1.402 . S
C180 C177 1.385 . S
C180 C179 1.402 . S
C180 H199 0.929 . S
C181 C177 1.371 1_655 S
C181 C182 1.367 . S
C181 H200 0.931 . S
C182 C178 1.401 1_655 S
C182 C181 1.367 . S
H183 C137 0.931 . S
H184 C138 0.930 . S
H185 C139 0.929 . S
H186 C145 0.931 . S
H187 C146 0.930 . S
H188 C147 0.929 . S
H189 C159 0.928 . S
H190 C160 0.930 . S
H191 C162 0.930 . S
H192 C166 0.930 . S
H193 C168 0.930 . S
H194 C170 0.928 . S
H195 C172 0.931 . S
H196 C174 0.930 . S
H197 C176 0.929 . S
H198 C178 0.930 . S
H199 C180 0.929 . S
H200 C181 0.931 . S
C201 O202 1.201 . S
C201 C203 1.493 . S
C201 N218 1.318 . S
O202 C201 1.201 . S
C203 C201 1.493 . S
C203 C204 1.381 . S
C203 N208 1.335 1_556 S
C204 C203 1.381 . S
C204 C205 1.411 1_556 S
C204 H250 0.931 . S
C205 C204 1.411 1_554 S
C205 C206 1.384 . S
C205 H251 0.930 . S
C206 C205 1.384 . S
C206 C207 1.376 . S
C206 H252 0.929 . S
C207 C206 1.376 . S
C207 N208 1.330 . S
C207 C222 1.484 . S
N208 C203 1.335 1_554 S
N208 C207 1.330 . S
N208 Co210 1.859 . S
N209 Co210 1.962 . S
N209 C220 1.318 . S
N209 C244 1.421 . S
Co210 N208 1.859 . S
Co210 N209 1.962 . S
Co210 N211 1.859 . S
Co210 N217 1.958 . S
Co210 N218 1.962 1_554 S
Co210 N219 1.958 . S
N211 Co210 1.859 . S
N211 C215 1.330 . S
N211 C216 1.335 . S
C212 C213 1.411 . S
C212 C216 1.381 . S
C212 H253 0.931 . S
C213 C212 1.411 . S
C213 C214 1.384 . S
C213 H254 0.930 . S
C214 C213 1.384 . S
C214 C215 1.376 . S
C214 H255 0.929 . S
C215 N211 1.330 . S
C215 C214 1.376 . S
C215 C230 1.484 . S
C216 N211 1.335 . S
C216 C212 1.381 . S
C216 C220 1.493 . S
N217 Co210 1.958 . S
N217 C230 1.344 . S
N217 C232 1.425 . S
N218 C201 1.318 . S
N218 Co210 1.962 1_556 S
N218 C238 1.421 . S
N219 Co210 1.958 . S
N219 C222 1.344 . S
N219 C224 1.425 . S
C220 N209 1.318 . S
C220 C216 1.493 . S
C220 O221 1.201 . S
O221 C220 1.201 . S
C222 C207 1.484 . S
C222 N219 1.344 . S
C222 O223 1.268 . S
O223 C222 1.268 . S
C224 N219 1.425 . S
C224 C226 1.392 . S
C224 C227 1.368 . S
C225 C226 1.382 . S
C225 C229 1.386 . S
C226 C224 1.392 . S
C226 C225 1.382 . S
C226 H256 0.928 . S
C227 C224 1.368 . S
C227 C228 1.367 . S
C227 H257 0.930 . S
C228 C227 1.367 . S
C228 C229 1.369 . S
C229 C225 1.386 . S
C229 C228 1.369 . S
C229 H258 0.930 . S
C230 C215 1.484 . S
C230 N217 1.344 . S
C230 O231 1.268 . S
O231 C230 1.268 . S
C232 N217 1.425 . S
C232 C233 1.368 . S
C232 C237 1.392 1_554 S
C233 C232 1.368 . S
C233 C234 1.367 . S
C233 H259 0.930 . S
C234 C233 1.367 . S
C234 C235 1.369 1_554 S
C235 C234 1.369 1_556 S
C235 C236 1.386 . S
C235 H260 0.930 . S
C236 C235 1.386 . S
C236 C237 1.382 . S
C237 C232 1.392 1_556 S
C237 C236 1.382 . S
C237 H261 0.928 . S
C238 N218 1.421 . S
C238 C239 1.371 . S
C238 C243 1.385 . S
C239 C238 1.371 . S
C239 C240 1.367 . S
C239 H262 0.931 . S
C240 C239 1.367 . S
C240 C241 1.401 . S
C241 C240 1.401 . S
C241 C242 1.385 . S
C241 H263 0.930 . S
C242 C241 1.385 . S
C242 C243 1.402 . S
C243 C238 1.385 . S
C243 C242 1.402 . S
C243 H264 0.929 . S
C244 N209 1.421 . S
C244 C247 1.385 1_554 S
C244 C248 1.371 . S
C245 C246 1.385 1_554 S
C245 C249 1.401 . S
C245 H265 0.930 . S
C246 C245 1.385 1_556 S
C246 C247 1.402 . S
C247 C244 1.385 1_556 S
C247 C246 1.402 . S
C247 H266 0.929 . S
C248 C244 1.371 . S
C248 C249 1.367 . S
C248 H267 0.931 . S
C249 C245 1.401 . S
C249 C248 1.367 . S
H250 C204 0.931 . S
H251 C205 0.930 . S
H252 C206 0.929 . S
H253 C212 0.931 . S
H254 C213 0.930 . S
H255 C214 0.929 . S
H256 C226 0.928 . S
H257 C227 0.930 . S
H258 C229 0.930 . S
H259 C233 0.930 . S
H260 C235 0.930 . S
H261 C237 0.928 . S
H262 C239 0.931 . S
H263 C241 0.930 . S
H264 C243 0.929 . S
H265 C245 0.930 . S
H266 C247 0.929 . S
H267 C248 0.931 . S
C268 O269 1.201 . S
C268 C270 1.493 . S
C268 N285 1.318 . S
O269 C268 1.201 . S
C270 C268 1.493 . S
C270 C271 1.381 . S
C270 N275 1.335 1_545 S
C271 C270 1.381 . S
C271 C272 1.411 1_545 S
C271 H317 0.931 . S
C272 C271 1.411 1_565 S
C272 C273 1.384 . S
C272 H318 0.930 . S
C273 C272 1.384 . S
C273 C274 1.376 . S
C273 H319 0.929 . S
C274 C273 1.376 . S
C274 N275 1.330 . S
C274 C289 1.484 . S
N275 C270 1.335 1_565 S
N275 C274 1.330 . S
N275 Co277 1.859 . S
N276 Co277 1.962 . S
N276 C287 1.318 . S
N276 C311 1.421 . S
Co277 N275 1.859 . S
Co277 N276 1.962 . S
Co277 N278 1.859 . S
Co277 N284 1.958 . S
Co277 N285 1.962 1_565 S
Co277 N286 1.958 . S
N278 Co277 1.859 . S
N278 C282 1.330 . S
N278 C283 1.335 . S
C279 C280 1.411 . S
C279 C283 1.381 . S
C279 H320 0.931 . S
C280 C279 1.411 . S
C280 C281 1.384 . S
C280 H321 0.930 . S
C281 C280 1.384 . S
C281 C282 1.376 . S
C281 H322 0.929 . S
C282 N278 1.330 . S
C282 C281 1.376 . S
C282 C297 1.484 . S
C283 N278 1.335 . S
C283 C279 1.381 . S
C283 C287 1.493 . S
N284 Co277 1.958 . S
N284 C297 1.344 . S
N284 C299 1.425 . S
N285 C268 1.318 . S
N285 Co277 1.962 1_545 S
N285 C305 1.421 . S
N286 Co277 1.958 . S
N286 C289 1.344 . S
N286 C291 1.425 . S
C287 N276 1.318 . S
C287 C283 1.493 . S
C287 O288 1.201 . S
O288 C287 1.201 . S
C289 C274 1.484 . S
C289 N286 1.344 . S
C289 O290 1.268 . S
O290 C289 1.268 . S
C291 N286 1.425 . S
C291 C293 1.392 . S
C291 C294 1.368 . S
C292 C293 1.382 . S
C292 C296 1.386 . S
C293 C291 1.392 . S
C293 C292 1.382 . S
C293 H323 0.928 . S
C294 C291 1.368 . S
C294 C295 1.367 . S
C294 H324 0.930 . S
C295 C294 1.367 . S
C295 C296 1.369 . S
C296 C292 1.386 . S
C296 C295 1.369 . S
C296 H325 0.930 . S
C297 C282 1.484 . S
C297 N284 1.344 . S
C297 O298 1.268 . S
O298 C297 1.268 . S
C299 N284 1.425 . S
C299 C300 1.377 . S
C299 C304 1.382 1_565 S
C300 C299 1.377 . S
C300 C301 1.367 . S
C300 H326 0.930 . S
C301 C300 1.367 . S
C301 C302 1.369 1_565 S
C302 C301 1.369 1_545 S
C302 C303 1.386 . S
C302 H327 0.930 . S
C303 C302 1.386 . S
C303 C304 1.382 . S
C304 C299 1.382 1_545 S
C304 C303 1.382 . S
C304 H328 0.928 . S
C305 N285 1.421 . S
C305 C306 1.371 . S
C305 C310 1.385 . S
C306 C305 1.371 . S
C306 C307 1.367 . S
C306 H329 0.931 . S
C307 C306 1.367 . S
C307 C308 1.401 . S
C308 C307 1.401 . S
C308 C309 1.385 . S
C308 H330 0.930 . S
C309 C308 1.385 . S
C309 C310 1.402 . S
C310 C305 1.385 . S
C310 C309 1.402 . S
C310 H331 0.929 . S
C311 N276 1.421 . S
C311 C314 1.385 1_565 S
C311 C315 1.371 . S
C312 C313 1.361 1_565 S
C312 C316 1.425 . S
C312 H332 0.930 . S
C313 C312 1.361 1_545 S
C313 C314 1.402 . S
C314 C311 1.385 1_545 S
C314 C313 1.402 . S
C314 H333 0.929 . S
C315 C311 1.371 . S
C315 C316 1.367 . S
C315 H334 0.931 . S
C316 C312 1.425 . S
C316 C315 1.367 . S
H317 C271 0.931 . S
H318 C272 0.930 . S
H319 C273 0.929 . S
H320 C279 0.931 . S
H321 C280 0.930 . S
H322 C281 0.929 . S
H323 C293 0.928 . S
H324 C294 0.930 . S
H325 C296 0.930 . S
H326 C300 0.930 . S
H327 C302 0.930 . S
H328 C304 0.928 . S
H329 C306 0.931 . S
H330 C308 0.930 . S
H331 C310 0.929 . S
H332 C312 0.930 . S
H333 C314 0.929 . S
H334 C315 0.931 . S
C335 O336 1.201 . S
C335 C337 1.493 . S
C335 N352 1.318 . S
O336 C335 1.201 . S
C337 C335 1.493 . S
C337 C338 1.381 . S
C337 N342 1.335 1_565 S
C338 C337 1.381 . S
C338 C339 1.411 1_565 S
C338 H384 0.931 . S
C339 C338 1.411 1_545 S
C339 C340 1.384 . S
C339 H385 0.930 . S
C340 C339 1.384 . S
C340 C341 1.376 . S
C340 H386 0.929 . S
C341 C340 1.376 . S
C341 N342 1.330 . S
C341 C356 1.484 . S
N342 C337 1.335 1_545 S
N342 C341 1.330 . S
N342 Co344 1.859 . S
N343 Co344 1.962 . S
N343 C354 1.318 . S
N343 C378 1.421 . S
Co344 N342 1.859 . S
Co344 N343 1.962 . S
Co344 N345 1.859 . S
Co344 N351 1.958 . S
Co344 N352 1.962 1_545 S
Co344 N353 1.958 . S
N345 Co344 1.859 . S
N345 C349 1.330 . S
N345 C350 1.335 . S
C346 C347 1.411 . S
C346 C350 1.381 . S
C346 H387 0.931 . S
C347 C346 1.411 . S
C347 C348 1.384 . S
C347 H388 0.930 . S
C348 C347 1.384 . S
C348 C349 1.376 . S
C348 H389 0.929 . S
C349 N345 1.330 . S
C349 C348 1.376 . S
C349 C364 1.484 . S
C350 N345 1.335 . S
C350 C346 1.381 . S
C350 C354 1.493 . S
N351 Co344 1.958 . S
N351 C364 1.344 . S
N351 C366 1.425 . S
N352 C335 1.318 . S
N352 Co344 1.962 1_565 S
N352 C372 1.421 . S
N353 Co344 1.958 . S
N353 C356 1.344 . S
N353 C358 1.425 . S
C354 N343 1.318 . S
C354 C350 1.493 . S
C354 O355 1.201 . S
O355 C354 1.201 . S
C356 C341 1.484 . S
C356 N353 1.344 . S
C356 O357 1.268 . S
O357 C356 1.268 . S
C358 N353 1.425 . S
C358 C360 1.392 . S
C358 C361 1.368 . S
C359 C360 1.382 . S
C359 C363 1.386 . S
C360 C358 1.392 . S
C360 C359 1.382 . S
C360 H390 0.928 . S
C361 C358 1.368 . S
C361 C362 1.367 . S
C361 H391 0.930 . S
C362 C361 1.367 . S
C362 C363 1.369 . S
C363 C359 1.386 . S
C363 C362 1.369 . S
C363 H392 0.930 . S
C364 C349 1.484 . S
C364 N351 1.344 . S
C364 O365 1.268 . S
O365 C364 1.268 . S
C366 N351 1.425 . S
C366 C367 1.368 . S
C366 C371 1.392 1_545 S
C367 C366 1.368 . S
C367 C368 1.367 . S
C367 H393 0.930 . S
C368 C367 1.367 . S
C368 C369 1.371 . S
C369 C368 1.371 . S
C369 C370 1.384 1_545 S
C369 H394 0.930 1_545 S
C370 C369 1.384 1_565 S
C370 C371 1.382 . S
C371 C366 1.392 1_565 S
C371 C370 1.382 . S
C371 H395 0.928 . S
C372 N352 1.421 . S
C372 C373 1.371 . S
C372 C377 1.385 . S
C373 C372 1.371 . S
C373 C374 1.367 . S
C373 H396 0.931 . S
C374 C373 1.367 . S
C374 C375 1.401 . S
C375 C374 1.401 . S
C375 C376 1.385 . S
C375 H397 0.930 . S
C376 C375 1.385 . S
C376 C377 1.402 . S
C377 C372 1.385 . S
C377 C376 1.402 . S
C377 H398 0.929 . S
C378 N343 1.421 . S
C378 C381 1.385 1_545 S
C378 C382 1.371 . S
C379 C380 1.385 1_545 S
C379 C383 1.401 . S
C379 H399 0.930 . S
C380 C379 1.385 1_565 S
C380 C381 1.402 . S
C381 C378 1.385 1_565 S
C381 C380 1.402 . S
C381 H400 0.929 . S
C382 C378 1.371 . S
C382 C383 1.367 . S
C382 H401 0.931 . S
C383 C379 1.401 . S
C383 C382 1.367 . S
H384 C338 0.931 . S
H385 C339 0.930 . S
H386 C340 0.929 . S
H387 C346 0.931 . S
H388 C347 0.930 . S
H389 C348 0.929 . S
H390 C360 0.928 . S
H391 C361 0.930 . S
H392 C363 0.930 . S
H393 C367 0.930 . S
H394 C369 0.930 1_565 S
H395 C371 0.928 . S
H396 C373 0.931 . S
H397 C375 0.930 . S
H398 C377 0.929 . S
H399 C379 0.930 . S
H400 C381 0.929 . S
H401 C382 0.931 . S
H402 C420 0.951 . S
H403 C422 0.951 . S
H404 C424 0.950 . S
H405 C425 0.950 . S
H406 C427 0.950 . S
H407 C430 0.950 . S
H408 C431 0.950 . S
H409 C433 0.950 . S
H410 C434 0.950 . S
H411 C435 0.951 . S
H412 C437 0.951 . S
H413 C439 0.950 . S
H414 C440 0.950 . S
H415 C442 0.950 . S
H416 C445 0.950 . S
H417 C446 0.950 . S
H418 C448 0.950 . S
H419 C449 0.950 . S
C420 H402 0.951 . S
C420 C421 1.366 . S
C420 C422 1.388 . S
C421 C420 1.366 . S
C421 C425 1.385 . S
C422 H403 0.951 . S
C422 C420 1.388 . S
C422 C423 1.366 . S
C423 C422 1.366 . S
C423 C424 1.414 . S
C423 C426 1.499 . S
C424 H404 0.950 . S
C424 C423 1.414 . S
C424 C425 1.374 . S
C425 H405 0.950 . S
C425 C421 1.385 . S
C425 C424 1.374 . S
C426 C423 1.499 . S
C426 C427 1.373 . S
C426 C428 1.389 . S
C427 H406 0.950 . S
C427 C426 1.373 . S
C427 C443 1.377 . S
C428 C426 1.389 . S
C428 C429 1.524 . S
C428 C442 1.377 . S
C429 C428 1.524 . S
C429 C430 1.397 . S
C429 C434 1.363 . S
C430 H407 0.950 . S
C430 C429 1.397 . S
C430 C431 1.334 . S
C431 H408 0.950 . S
C431 C430 1.334 . S
C431 C432 1.287 . S
C432 C431 1.287 . S
C432 C433 1.524 . S
C432 H451 0.913 . S
C433 H409 0.950 . S
C433 C432 1.524 . S
C433 C434 1.415 . S
C434 H410 0.950 . S
C434 C429 1.363 . S
C434 C433 1.415 . S
C435 H411 0.951 . S
C435 C436 1.366 . S
C435 C437 1.388 . S
C436 C435 1.366 . S
C436 C440 1.385 . S
C437 H412 0.951 . S
C437 C435 1.388 . S
C437 C438 1.366 . S
C438 C437 1.366 . S
C438 C439 1.414 . S
C438 C441 1.499 . S
C439 H413 0.950 . S
C439 C438 1.414 . S
C439 C440 1.374 . S
C440 H414 0.950 . S
C440 C436 1.385 . S
C440 C439 1.374 . S
C441 C438 1.499 . S
C441 C442 1.373 . S
C441 C443 1.389 . S
C442 H415 0.950 . S
C442 C428 1.377 . S
C442 C441 1.373 . S
C443 C427 1.377 . S
C443 C441 1.389 . S
C443 C444 1.524 . S
C444 C443 1.524 . S
C444 C445 1.397 . S
C444 C449 1.363 . S
C445 H416 0.950 . S
C445 C444 1.397 . S
C445 C446 1.334 . S
C446 H417 0.950 . S
C446 C445 1.334 . S
C446 C447 1.287 . S
C447 C446 1.287 . S
C447 C448 1.524 . S
C447 H450 0.999 . S
C448 H418 0.950 . S
C448 C447 1.524 . S
C448 C449 1.415 . S
C449 H419 0.950 . S
C449 C444 1.363 . S
C449 C448 1.415 . S
H450 C447 0.999 . S
H451 C432 0.913 . S
H452 C470 0.951 . S
H453 C472 0.951 . S
H454 C474 0.950 . S
H455 C475 0.950 . S
H456 C477 0.950 . S
H457 C480 0.950 . S
H458 C481 0.950 . S
H459 C483 0.950 . S
H460 C484 0.950 . S
H461 C485 0.951 . S
H462 C487 0.951 . S
H463 C489 0.950 . S
H464 C490 0.950 . S
H465 C492 0.950 . S
H466 C495 0.950 . S
H467 C496 0.950 . S
H468 C498 0.950 . S
H469 C499 0.950 . S
C470 H452 0.951 . S
C470 C471 1.366 . S
C470 C472 1.388 . S
C471 C470 1.366 . S
C471 C475 1.385 . S
C472 H453 0.951 . S
C472 C470 1.388 . S
C472 C473 1.366 . S
C473 C472 1.366 . S
C473 C474 1.414 . S
C473 C476 1.499 . S
C474 H454 0.950 . S
C474 C473 1.414 . S
C474 C475 1.374 . S
C475 H455 0.950 . S
C475 C471 1.385 . S
C475 C474 1.374 . S
C476 C473 1.499 . S
C476 C477 1.373 . S
C476 C478 1.389 . S
C477 H456 0.950 . S
C477 C476 1.373 . S
C477 C493 1.377 . S
C478 C476 1.389 . S
C478 C479 1.524 . S
C478 C492 1.377 . S
C479 C478 1.524 . S
C479 C480 1.397 . S
C479 C484 1.363 . S
C480 H457 0.950 . S
C480 C479 1.397 . S
C480 C481 1.334 . S
C481 H458 0.950 . S
C481 C480 1.334 . S
C481 C482 1.287 . S
C482 C481 1.287 . S
C482 C483 1.524 . S
C482 H501 0.913 . S
C483 H459 0.950 . S
C483 C482 1.524 . S
C483 C484 1.415 . S
C484 H460 0.950 . S
C484 C479 1.363 . S
C484 C483 1.415 . S
C485 H461 0.951 . S
C485 C486 1.366 . S
C485 C487 1.388 . S
C486 C485 1.366 . S
C486 C490 1.385 . S
C487 H462 0.951 . S
C487 C485 1.388 . S
C487 C488 1.366 . S
C488 C487 1.366 . S
C488 C489 1.414 . S
C488 C491 1.499 . S
C489 H463 0.950 . S
C489 C488 1.414 . S
C489 C490 1.374 . S
C490 H464 0.950 . S
C490 C486 1.385 . S
C490 C489 1.374 . S
C491 C488 1.499 . S
C491 C492 1.373 . S
C491 C493 1.389 . S
C492 H465 0.950 . S
C492 C478 1.377 . S
C492 C491 1.373 . S
C493 C477 1.377 . S
C493 C491 1.389 . S
C493 C494 1.524 . S
C494 C493 1.524 . S
C494 C495 1.397 . S
C494 C499 1.363 . S
C495 H466 0.950 . S
C495 C494 1.397 . S
C495 C496 1.334 . S
C496 H467 0.950 . S
C496 C495 1.334 . S
C496 C497 1.287 . S
C497 C496 1.287 . S
C497 C498 1.524 . S
C497 H500 0.999 . S
C498 H468 0.950 . S
C498 C497 1.524 . S
C498 C499 1.415 . S
C499 H469 0.950 . S
C499 C494 1.363 . S
C499 C498 1.415 . S
H500 C497 0.999 . S
H501 C482 0.913 . S
H502 C520 0.951 . S
H503 C522 0.951 . S
H504 C524 0.950 . S
H505 C525 0.950 . S
H506 C527 0.950 . S
H507 C530 0.950 . S
H508 C531 0.950 . S
H509 C533 0.950 1_455 S
H510 C534 0.950 . S
H511 C535 0.951 . S
H512 C537 0.951 . S
H513 C539 0.950 . S
H514 C540 0.928 1_455 S
H515 C542 0.950 . S
H516 C545 0.950 . S
H517 C546 0.950 . S
H518 C548 0.950 . S
H519 C549 0.950 . S
C520 H502 0.951 . S
C520 C521 1.366 . S
C520 C522 1.388 . S
C521 C520 1.366 . S
C521 C525 1.385 . S
C522 H503 0.951 . S
C522 C520 1.388 . S
C522 C523 1.366 . S
C523 C522 1.366 . S
C523 C524 1.414 . S
C523 C526 1.499 . S
C524 H504 0.950 . S
C524 C523 1.414 . S
C524 C525 1.374 . S
C525 H505 0.950 . S
C525 C521 1.385 . S
C525 C524 1.374 . S
C526 C523 1.499 . S
C526 C527 1.373 . S
C526 C528 1.389 . S
C527 H506 0.950 . S
C527 C526 1.373 . S
C527 C543 1.377 . S
C528 C526 1.389 . S
C528 C529 1.524 . S
C528 C542 1.377 . S
C529 C528 1.524 . S
C529 C530 1.397 . S
C529 C534 1.363 . S
C530 H507 0.950 . S
C530 C529 1.397 . S
C530 C531 1.334 . S
C531 H508 0.950 . S
C531 C530 1.334 . S
C531 C532 1.287 . S
C532 C531 1.287 . S
C532 C533 1.524 . S
C532 H551 0.913 . S
C533 H509 0.950 1_655 S
C533 C532 1.524 . S
C533 C534 1.415 . S
C534 H510 0.950 . S
C534 C529 1.363 . S
C534 C533 1.415 . S
C535 H511 0.951 . S
C535 C536 1.366 . S
C535 C537 1.388 . S
C536 C535 1.366 . S
C536 C540 1.385 . S
C537 H512 0.951 . S
C537 C535 1.388 . S
C537 C538 1.366 . S
C538 C537 1.366 . S
C538 C539 1.414 . S
C538 C541 1.499 . S
C539 H513 0.950 . S
C539 C538 1.414 . S
C539 C540 1.374 . S
C540 H514 0.928 1_655 S
C540 C536 1.385 . S
C540 C539 1.374 . S
C541 C538 1.499 . S
C541 C542 1.373 . S
C541 C543 1.389 . S
C542 H515 0.950 . S
C542 C528 1.377 . S
C542 C541 1.373 . S
C543 C527 1.377 . S
C543 C541 1.389 . S
C543 C544 1.524 . S
C544 C543 1.524 . S
C544 C545 1.397 . S
C544 C549 1.363 . S
C545 H516 0.950 . S
C545 C544 1.397 . S
C545 C546 1.334 . S
C546 H517 0.950 . S
C546 C545 1.334 . S
C546 C547 1.287 . S
C547 C546 1.287 . S
C547 C548 1.524 . S
C547 H550 0.999 . S
C548 H518 0.950 . S
C548 C547 1.524 . S
C548 C549 1.415 . S
C549 H519 0.950 . S
C549 C544 1.363 . S
C549 C548 1.415 . S
H550 C547 0.999 . S
H551 C532 0.913 . S
H552 C570 0.951 . S
H553 C572 0.951 . S
H554 C574 0.950 . S
H555 C575 0.950 . S
H556 C577 0.950 . S
H557 C580 0.950 . S
H558 C581 0.950 . S
H559 C583 0.950 . S
H560 C584 0.950 . S
H561 C585 0.951 . S
H562 C587 0.951 . S
H563 C589 0.950 . S
H564 C590 0.950 . S
H565 C592 0.950 . S
H566 C595 0.950 . S
H567 C596 0.950 . S
H568 C598 0.950 . S
H569 C599 0.950 . S
C570 H552 0.951 . S
C570 C571 1.366 . S
C570 C572 1.388 . S
C571 C570 1.366 . S
C571 C575 1.385 . S
C572 H553 0.951 . S
C572 C570 1.388 . S
C572 C573 1.366 . S
C573 C572 1.366 . S
C573 C574 1.414 . S
C573 C576 1.499 . S
C574 H554 0.950 . S
C574 C573 1.414 . S
C574 C575 1.374 . S
C575 H555 0.950 . S
C575 C571 1.385 . S
C575 C574 1.374 . S
C576 C573 1.499 . S
C576 C577 1.373 . S
C576 C578 1.389 . S
C577 H556 0.950 . S
C577 C576 1.373 . S
C577 C593 1.377 . S
C578 C576 1.389 . S
C578 C579 1.524 . S
C578 C592 1.377 . S
C579 C578 1.524 . S
C579 C580 1.397 . S
C579 C584 1.363 . S
C580 H557 0.950 . S
C580 C579 1.397 . S
C580 C581 1.334 . S
C581 H558 0.950 . S
C581 C580 1.334 . S
C581 C582 1.287 . S
C582 C581 1.287 . S
C582 C583 1.524 . S
C582 H601 0.913 . S
C583 H559 0.950 . S
C583 C582 1.524 . S
C583 C584 1.415 . S
C584 H560 0.950 . S
C584 C579 1.363 . S
C584 C583 1.415 . S
C585 H561 0.951 . S
C585 C586 1.366 . S
C585 C587 1.388 . S
C586 C585 1.366 . S
C586 C590 1.385 . S
C587 H562 0.951 . S
C587 C585 1.388 . S
C587 C588 1.366 . S
C588 C587 1.366 . S
C588 C589 1.414 . S
C588 C591 1.499 . S
C589 H563 0.950 . S
C589 C588 1.414 . S
C589 C590 1.374 . S
C590 H564 0.950 . S
C590 C586 1.385 . S
C590 C589 1.374 . S
C591 C588 1.499 . S
C591 C592 1.373 . S
C591 C593 1.389 . S
C592 H565 0.950 . S
C592 C578 1.377 . S
C592 C591 1.373 . S
C593 C577 1.377 . S
C593 C591 1.389 . S
C593 C594 1.524 . S
C594 C593 1.524 . S
C594 C595 1.397 . S
C594 C599 1.363 . S
C595 H566 0.950 . S
C595 C594 1.397 . S
C595 C596 1.334 1_655 S
C596 H567 0.950 . S
C596 C595 1.334 1_455 S
C596 C597 1.287 . S
C597 C596 1.287 . S
C597 C598 1.524 . S
C597 H600 0.999 . S
C598 H568 0.950 . S
C598 C597 1.524 . S
C598 C599 1.415 1_455 S
C599 H569 0.950 . S
C599 C594 1.363 . S
C599 C598 1.415 1_655 S
H600 C597 0.999 . S
H601 C582 0.913 . S
H602 C620 0.951 . S
H603 C622 0.951 . S
H604 C624 0.950 . S
H605 C625 0.950 . S
H606 C627 0.950 . S
H607 C630 0.950 . S
H608 C631 0.950 . S
H609 C633 0.950 . S
H610 C634 0.950 . S
H611 C635 0.951 . S
H612 C637 0.951 . S
H613 C639 0.950 . S
H614 C640 0.950 . S
H615 C642 0.950 . S
H616 C645 0.950 . S
H617 C646 0.950 . S
H618 C648 0.950 . S
H619 C649 0.950 . S
C620 H602 0.951 . S
C620 C621 1.366 . S
C620 C622 1.388 . S
C621 C620 1.366 . S
C621 C625 1.385 . S
C622 H603 0.951 . S
C622 C620 1.388 . S
C622 C623 1.366 . S
C623 C622 1.366 . S
C623 C624 1.414 . S
C623 C626 1.499 . S
C624 H604 0.950 . S
C624 C623 1.414 . S
C624 C625 1.374 . S
C625 H605 0.950 . S
C625 C621 1.385 . S
C625 C624 1.374 . S
C626 C623 1.499 . S
C626 C627 1.373 . S
C626 C628 1.389 . S
C627 H606 0.950 . S
C627 C626 1.373 . S
C627 C643 1.377 . S
C628 C626 1.389 . S
C628 C629 1.524 . S
C628 C642 1.377 . S
C629 C628 1.524 . S
C629 C630 1.397 . S
C629 C634 1.363 . S
C630 H607 0.950 . S
C630 C629 1.397 . S
C630 C631 1.334 . S
C631 H608 0.950 . S
C631 C630 1.334 . S
C631 C632 1.287 . S
C632 C631 1.287 . S
C632 C633 1.524 . S
C632 H651 0.913 . S
C633 H609 0.950 . S
C633 C632 1.524 . S
C633 C634 1.415 . S
C634 H610 0.950 . S
C634 C629 1.363 . S
C634 C633 1.415 . S
C635 H611 0.951 . S
C635 C636 1.366 . S
C635 C637 1.388 . S
C636 C635 1.366 . S
C636 C640 1.385 . S
C637 H612 0.951 . S
C637 C635 1.388 . S
C637 C638 1.366 . S
C638 C637 1.366 . S
C638 C639 1.414 . S
C638 C641 1.499 . S
C639 H613 0.950 . S
C639 C638 1.414 . S
C639 C640 1.374 . S
C640 H614 0.950 . S
C640 C636 1.385 . S
C640 C639 1.374 . S
C641 C638 1.499 . S
C641 C642 1.373 . S
C641 C643 1.389 . S
C642 H615 0.950 . S
C642 C628 1.377 . S
C642 C641 1.373 . S
C643 C627 1.377 . S
C643 C641 1.389 . S
C643 C644 1.524 . S
C644 C643 1.524 . S
C644 C645 1.397 . S
C644 C649 1.363 . S
C645 H616 0.950 . S
C645 C644 1.397 . S
C645 C646 1.334 . S
C646 H617 0.950 . S
C646 C645 1.334 . S
C646 C647 1.287 . S
C647 C646 1.287 . S
C647 C648 1.524 . S
C647 H650 0.999 . S
C648 H618 0.950 . S
C648 C647 1.524 . S
C648 C649 1.415 . S
C649 H619 0.950 . S
C649 C644 1.363 . S
C649 C648 1.415 . S
H650 C647 0.999 . S
H651 C632 0.913 . S
H652 C670 0.951 . S
H653 C672 0.951 . S
H654 C674 0.950 . S
H655 C675 0.950 . S
H656 C677 0.950 . S
H657 C680 0.950 . S
H658 C681 0.950 . S
H659 C683 0.950 . S
H660 C684 0.950 . S
H661 C685 0.951 . S
H662 C687 0.951 . S
H663 C689 0.950 . S
H664 C690 0.950 . S
H665 C692 0.950 . S
H666 C695 0.950 . S
H667 C696 0.950 . S
H668 C698 0.950 . S
H669 C699 0.950 . S
C670 H652 0.951 . S
C670 C671 1.366 . S
C670 C672 1.388 . S
C671 C670 1.366 . S
C671 C675 1.385 . S
C672 H653 0.951 . S
C672 C670 1.388 . S
C672 C673 1.366 . S
C673 C672 1.366 . S
C673 C674 1.414 . S
C673 C676 1.499 . S
C674 H654 0.950 . S
C674 C673 1.414 . S
C674 C675 1.374 . S
C675 H655 0.950 . S
C675 C671 1.385 . S
C675 C674 1.374 . S
C676 C673 1.499 . S
C676 C677 1.373 . S
C676 C678 1.389 . S
C677 H656 0.950 . S
C677 C676 1.373 . S
C677 C693 1.377 . S
C678 C676 1.389 . S
C678 C679 1.524 . S
C678 C692 1.377 . S
C679 C678 1.524 . S
C679 C680 1.397 . S
C679 C684 1.363 . S
C680 H657 0.950 . S
C680 C679 1.397 . S
C680 C681 1.334 . S
C681 H658 0.950 . S
C681 C680 1.334 . S
C681 C682 1.287 . S
C682 C681 1.287 . S
C682 C683 1.524 . S
C682 H701 0.913 . S
C683 H659 0.950 . S
C683 C682 1.524 . S
C683 C684 1.415 . S
C684 H660 0.950 . S
C684 C679 1.363 . S
C684 C683 1.415 . S
C685 H661 0.951 . S
C685 C686 1.366 . S
C685 C687 1.388 . S
C686 C685 1.366 . S
C686 C690 1.385 . S
C687 H662 0.951 . S
C687 C685 1.388 . S
C687 C688 1.366 . S
C688 C687 1.366 . S
C688 C689 1.414 . S
C688 C691 1.499 . S
C689 H663 0.950 . S
C689 C688 1.414 . S
C689 C690 1.374 . S
C690 H664 0.950 . S
C690 C686 1.385 . S
C690 C689 1.374 . S
C691 C688 1.499 . S
C691 C692 1.373 . S
C691 C693 1.389 . S
C692 H665 0.950 . S
C692 C678 1.377 . S
C692 C691 1.373 . S
C693 C677 1.377 . S
C693 C691 1.389 . S
C693 C694 1.524 . S
C694 C693 1.524 . S
C694 C695 1.397 . S
C694 C699 1.363 . S
C695 H666 0.950 . S
C695 C694 1.397 . S
C695 C696 1.334 . S
C696 H667 0.950 . S
C696 C695 1.334 . S
C696 C697 1.287 . S
C697 C696 1.287 . S
C697 C698 1.524 . S
C697 H700 0.999 . S
C698 H668 0.950 . S
C698 C697 1.524 . S
C698 C699 1.415 . S
C699 H669 0.950 . S
C699 C694 1.363 . S
C699 C698 1.415 . S
H700 C697 0.999 . S
H701 C682 0.913 . S
H702 C720 0.951 . S
H703 C722 0.951 . S
H704 C724 0.950 . S
H705 C725 0.950 . S
H706 C727 0.950 . S
H707 C730 0.950 . S
H708 C731 0.950 . S
H709 C733 0.950 . S
H710 C734 0.950 . S
H711 C735 0.951 . S
H712 C737 0.951 . S
H713 C739 0.950 . S
H714 C740 0.950 . S
H715 C742 0.950 . S
H716 C745 0.950 . S
H717 C746 0.950 . S
H718 C748 0.950 . S
H719 C749 0.950 . S
C720 H702 0.951 . S
C720 C721 1.366 . S
C720 C722 1.388 . S
C721 C720 1.366 . S
C721 C725 1.385 . S
C722 H703 0.951 . S
C722 C720 1.388 . S
C722 C723 1.366 . S
C723 C722 1.366 . S
C723 C724 1.414 . S
C723 C726 1.499 . S
C724 H704 0.950 . S
C724 C723 1.414 . S
C724 C725 1.374 . S
C725 H705 0.950 . S
C725 C721 1.385 . S
C725 C724 1.374 . S
C726 C723 1.499 . S
C726 C727 1.373 . S
C726 C728 1.389 . S
C727 H706 0.950 . S
C727 C726 1.373 . S
C727 C743 1.377 . S
C728 C726 1.389 . S
C728 C729 1.524 . S
C728 C742 1.377 . S
C729 C728 1.524 . S
C729 C730 1.397 . S
C729 C734 1.363 . S
C730 H707 0.950 . S
C730 C729 1.397 . S
C730 C731 1.334 . S
C731 H708 0.950 . S
C731 C730 1.334 . S
C731 C732 1.287 . S
C732 C731 1.287 . S
C732 C733 1.524 . S
C732 H751 0.913 . S
C733 H709 0.950 . S
C733 C732 1.524 . S
C733 C734 1.415 . S
C734 H710 0.950 . S
C734 C729 1.363 . S
C734 C733 1.415 . S
C735 H711 0.951 . S
C735 C736 1.366 . S
C735 C737 1.388 . S
C736 C735 1.366 . S
C736 C740 1.385 . S
C737 H712 0.951 . S
C737 C735 1.388 . S
C737 C738 1.366 . S
C738 C737 1.366 . S
C738 C739 1.414 . S
C738 C741 1.499 . S
C739 H713 0.950 . S
C739 C738 1.414 . S
C739 C740 1.374 . S
C740 H714 0.950 . S
C740 C736 1.385 . S
C740 C739 1.374 . S
C741 C738 1.499 . S
C741 C742 1.373 . S
C741 C743 1.389 . S
C742 H715 0.950 . S
C742 C728 1.377 . S
C742 C741 1.373 . S
C743 C727 1.377 . S
C743 C741 1.389 . S
C743 C744 1.524 . S
C744 C743 1.524 . S
C744 C745 1.397 . S
C744 C749 1.363 . S
C745 H716 0.950 . S
C745 C744 1.397 . S
C745 C746 1.334 . S
C746 H717 0.950 . S
C746 C745 1.334 . S
C746 C747 1.287 . S
C747 C746 1.287 . S
C747 C748 1.524 . S
C747 H750 0.999 . S
C748 H718 0.950 . S
C748 C747 1.524 . S
C748 C749 1.415 . S
C749 H719 0.950 . S
C749 C744 1.363 . S
C749 C748 1.415 . S
H750 C747 0.999 . S
H751 C732 0.913 . S
H752 C770 0.951 . S
H753 C772 0.951 . S
H754 C774 0.950 . S
H755 C775 0.950 . S
H756 C777 0.950 . S
H757 C780 0.950 . S
H758 C781 0.950 . S
H759 C783 0.950 . S
H760 C784 0.950 . S
H761 C785 0.951 . S
H762 C787 0.951 . S
H763 C789 0.950 . S
H764 C790 0.950 . S
H765 C792 0.950 . S
H766 C795 0.950 . S
H767 C796 0.950 . S
H768 C798 0.950 . S
H769 C799 0.950 . S
C770 H752 0.951 . S
C770 C771 1.366 . S
C770 C772 1.388 . S
C771 C770 1.366 . S
C771 C775 1.385 . S
C772 H753 0.951 . S
C772 C770 1.388 . S
C772 C773 1.366 . S
C773 C772 1.366 . S
C773 C774 1.414 . S
C773 C776 1.499 . S
C774 H754 0.950 . S
C774 C773 1.414 . S
C774 C775 1.374 . S
C775 H755 0.950 . S
C775 C771 1.385 . S
C775 C774 1.374 . S
C776 C773 1.499 . S
C776 C777 1.373 . S
C776 C778 1.389 . S
C777 H756 0.950 . S
C777 C776 1.373 . S
C777 C793 1.377 . S
C778 C776 1.389 . S
C778 C779 1.524 . S
C778 C792 1.377 . S
C779 C778 1.524 . S
C779 C780 1.397 . S
C779 C784 1.363 . S
C780 H757 0.950 . S
C780 C779 1.397 . S
C780 C781 1.334 . S
C781 H758 0.950 . S
C781 C780 1.334 . S
C781 C782 1.287 . S
C782 C781 1.287 . S
C782 C783 1.524 . S
C782 H801 0.913 . S
C783 H759 0.950 . S
C783 C782 1.524 . S
C783 C784 1.415 . S
C784 H760 0.950 . S
C784 C779 1.363 . S
C784 C783 1.415 . S
C785 H761 0.951 . S
C785 C786 1.366 . S
C785 C787 1.388 . S
C786 C785 1.366 . S
C786 C790 1.385 . S
C787 H762 0.951 . S
C787 C785 1.388 . S
C787 C788 1.366 . S
C788 C787 1.366 . S
C788 C789 1.414 . S
C788 C791 1.499 . S
C789 H763 0.950 . S
C789 C788 1.414 . S
C789 C790 1.374 . S
C790 H764 0.950 . S
C790 C786 1.385 . S
C790 C789 1.374 . S
C791 C788 1.499 . S
C791 C792 1.373 . S
C791 C793 1.389 . S
C792 H765 0.950 . S
C792 C778 1.377 . S
C792 C791 1.373 . S
C793 C777 1.377 . S
C793 C791 1.389 . S
C793 C794 1.524 . S
C794 C793 1.524 . S
C794 C795 1.397 . S
C794 C799 1.363 . S
C795 H766 0.950 . S
C795 C794 1.397 . S
C795 C796 1.334 . S
C796 H767 0.950 . S
C796 C795 1.334 . S
C796 C797 1.287 . S
C797 C796 1.287 . S
C797 C798 1.524 . S
C797 H800 0.999 . S
C798 H768 0.950 . S
C798 C797 1.524 . S
C798 C799 1.415 . S
C799 H769 0.950 . S
C799 C794 1.363 . S
C799 C798 1.415 . S
H800 C797 0.999 . S
H801 C782 0.913 . S
H802 C820 0.951 . S
H803 C822 0.951 . S
H804 C824 0.950 . S
H805 C825 0.950 . S
H806 C827 0.950 . S
H807 C830 0.950 . S
H808 C831 0.950 . S
H809 C833 0.950 . S
H810 C834 0.950 . S
H811 C835 0.951 . S
H812 C837 0.951 . S
H813 C839 0.950 . S
H814 C840 0.950 . S
H815 C842 0.950 . S
H816 C845 0.950 . S
H817 C846 0.950 . S
H818 C848 0.950 . S
H819 C849 0.950 . S
C820 H802 0.951 . S
C820 C821 1.366 . S
C820 C822 1.388 . S
C821 C820 1.366 . S
C821 C825 1.385 . S
C822 H803 0.951 . S
C822 C820 1.388 . S
C822 C823 1.366 . S
C823 C822 1.366 . S
C823 C824 1.414 . S
C823 C826 1.499 . S
C824 H804 0.950 . S
C824 C823 1.414 . S
C824 C825 1.374 . S
C825 H805 0.950 . S
C825 C821 1.385 . S
C825 C824 1.374 . S
C826 C823 1.499 . S
C826 C827 1.373 . S
C826 C828 1.389 . S
C827 H806 0.950 . S
C827 C826 1.373 . S
C827 C843 1.377 . S
C828 C826 1.389 . S
C828 C829 1.524 . S
C828 C842 1.377 . S
C829 C828 1.524 . S
C829 C830 1.397 . S
C829 C834 1.363 . S
C830 H807 0.950 . S
C830 C829 1.397 . S
C830 C831 1.334 . S
C831 H808 0.950 . S
C831 C830 1.334 . S
C831 C832 1.287 . S
C832 C831 1.287 . S
C832 C833 1.524 . S
C832 H851 0.913 . S
C833 H809 0.950 . S
C833 C832 1.524 . S
C833 C834 1.415 . S
C834 H810 0.950 . S
C834 C829 1.363 . S
C834 C833 1.415 . S
C835 H811 0.951 . S
C835 C836 1.366 . S
C835 C837 1.388 . S
C836 C835 1.366 . S
C836 C840 1.385 . S
C837 H812 0.951 . S
C837 C835 1.388 . S
C837 C838 1.366 . S
C838 C837 1.366 . S
C838 C839 1.414 . S
C838 C841 1.499 . S
C839 H813 0.950 . S
C839 C838 1.414 . S
C839 C840 1.374 . S
C840 H814 0.950 . S
C840 C836 1.385 . S
C840 C839 1.374 . S
C841 C838 1.499 . S
C841 C842 1.373 . S
C841 C843 1.389 . S
C842 H815 0.950 . S
C842 C828 1.377 . S
C842 C841 1.373 . S
C843 C827 1.377 . S
C843 C841 1.389 . S
C843 C844 1.524 . S
C844 C843 1.524 . S
C844 C845 1.397 . S
C844 C849 1.363 . S
C845 H816 0.950 . S
C845 C844 1.397 . S
C845 C846 1.334 . S
C846 H817 0.950 . S
C846 C845 1.334 . S
C846 C847 1.287 . S
C847 C846 1.287 . S
C847 C848 1.524 . S
C847 H850 0.999 . S
C848 H818 0.950 . S
C848 C847 1.524 . S
C848 C849 1.415 . S
C849 H819 0.950 . S
C849 C844 1.363 . S
C849 C848 1.415 . S
H850 C847 0.999 . S
H851 C832 0.913 . S
H852 C870 0.951 . S
H853 C872 0.951 . S
H854 C874 0.950 . S
H855 C875 0.950 . S
H856 C877 0.950 . S
H857 C880 0.950 . S
H858 C881 0.950 . S
H859 C883 0.950 . S
H860 C884 0.950 . S
H861 C885 0.951 . S
H862 C887 0.951 . S
H863 C889 0.950 . S
H864 C890 0.950 . S
H865 C892 0.950 . S
H866 C895 0.950 . S
H867 C896 0.947 1_556 S
H868 C898 0.950 . S
H869 C899 0.950 . S
C870 H852 0.951 . S
C870 C871 1.366 . S
C870 C872 1.388 . S
C871 C870 1.366 . S
C871 C875 1.385 . S
C872 H853 0.951 . S
C872 C870 1.388 . S
C872 C873 1.366 . S
C873 C872 1.366 . S
C873 C874 1.414 . S
C873 C876 1.499 . S
C874 H854 0.950 . S
C874 C873 1.414 . S
C874 C875 1.374 . S
C875 H855 0.950 . S
C875 C871 1.385 . S
C875 C874 1.374 . S
C876 C873 1.499 . S
C876 C877 1.373 . S
C876 C878 1.389 . S
C877 H856 0.950 . S
C877 C876 1.373 . S
C877 C893 1.377 . S
C878 C876 1.389 . S
C878 C879 1.524 . S
C878 C892 1.377 . S
C879 C878 1.524 . S
C879 C880 1.397 . S
C879 C884 1.363 . S
C880 H857 0.950 . S
C880 C879 1.397 . S
C880 C881 1.334 . S
C881 H858 0.950 . S
C881 C880 1.334 . S
C881 C882 1.287 . S
C882 C881 1.287 . S
C882 C883 1.524 . S
C882 H901 0.913 . S
C883 H859 0.950 . S
C883 C882 1.524 . S
C883 C884 1.415 . S
C884 H860 0.950 . S
C884 C879 1.363 . S
C884 C883 1.415 . S
C885 H861 0.951 . S
C885 C886 1.366 . S
C885 C887 1.388 . S
C886 C885 1.366 . S
C886 C890 1.385 . S
C887 H862 0.951 . S
C887 C885 1.388 . S
C887 C888 1.366 . S
C888 C887 1.366 . S
C888 C889 1.414 . S
C888 C891 1.499 . S
C889 H863 0.950 . S
C889 C888 1.414 . S
C889 C890 1.374 . S
C890 H864 0.950 . S
C890 C886 1.385 . S
C890 C889 1.374 . S
C891 C888 1.499 . S
C891 C892 1.373 . S
C891 C893 1.389 . S
C892 H865 0.950 . S
C892 C878 1.377 . S
C892 C891 1.373 . S
C893 C877 1.377 . S
C893 C891 1.389 . S
C893 C894 1.524 . S
C894 C893 1.524 . S
C894 C895 1.397 . S
C894 C899 1.363 . S
C895 H866 0.950 . S
C895 C894 1.397 . S
C895 C896 1.346 . S
C896 H867 0.947 1_554 S
C896 C895 1.346 . S
C896 C897 1.279 1_554 S
C897 C896 1.279 1_556 S
C897 C898 1.524 . S
C897 H900 0.999 . S
C898 H868 0.950 . S
C898 C897 1.524 . S
C898 C899 1.415 1_556 S
C899 H869 0.950 . S
C899 C894 1.363 . S
C899 C898 1.415 1_554 S
H900 C897 0.999 . S
H901 C882 0.913 . S
H902 C920 0.951 . S
H903 C922 0.951 . S
H904 C924 0.950 . S
H905 C925 0.950 . S
H906 C927 0.950 . S
H907 C930 0.950 . S
H908 C931 0.950 . S
H909 C933 0.950 . S
H910 C934 0.950 . S
H911 C935 0.951 . S
H912 C937 0.951 . S
H913 C939 0.950 . S
H914 C940 0.950 . S
H915 C942 0.950 . S
H916 C945 0.950 . S
H917 C946 0.950 . S
H918 C948 0.950 . S
H919 C949 0.950 . S
C920 H902 0.951 . S
C920 C921 1.366 . S
C920 C922 1.388 . S
C921 C920 1.366 . S
C921 C925 1.385 . S
C922 H903 0.951 . S
C922 C920 1.388 . S
C922 C923 1.366 . S
C923 C922 1.366 . S
C923 C924 1.414 . S
C923 C926 1.499 . S
C924 H904 0.950 . S
C924 C923 1.414 . S
C924 C925 1.374 . S
C925 H905 0.950 . S
C925 C921 1.385 . S
C925 C924 1.374 . S
C926 C923 1.499 . S
C926 C927 1.373 . S
C926 C928 1.389 . S
C927 H906 0.950 . S
C927 C926 1.373 . S
C927 C943 1.377 . S
C928 C926 1.389 . S
C928 C929 1.524 . S
C928 C942 1.377 . S
C929 C928 1.524 . S
C929 C930 1.397 . S
C929 C934 1.363 . S
C930 H907 0.950 . S
C930 C929 1.397 . S
C930 C931 1.334 . S
C931 H908 0.950 . S
C931 C930 1.334 . S
C931 C932 1.287 . S
C932 C931 1.287 . S
C932 C933 1.524 . S
C932 H951 0.913 . S
C933 H909 0.950 . S
C933 C932 1.524 . S
C933 C934 1.415 . S
C934 H910 0.950 . S
C934 C929 1.363 . S
C934 C933 1.415 . S
C935 H911 0.951 . S
C935 C936 1.366 . S
C935 C937 1.388 . S
C936 C935 1.366 . S
C936 C940 1.385 . S
C937 H912 0.951 . S
C937 C935 1.388 . S
C937 C938 1.366 . S
C938 C937 1.366 . S
C938 C939 1.414 . S
C938 C941 1.499 . S
C939 H913 0.950 . S
C939 C938 1.414 . S
C939 C940 1.374 . S
C940 H914 0.950 . S
C940 C936 1.385 . S
C940 C939 1.374 . S
C941 C938 1.499 . S
C941 C942 1.373 . S
C941 C943 1.389 . S
C942 H915 0.950 . S
C942 C928 1.377 . S
C942 C941 1.373 . S
C943 C927 1.377 . S
C943 C941 1.389 . S
C943 C944 1.524 . S
C944 C943 1.524 . S
C944 C945 1.397 . S
C944 C949 1.363 . S
C945 H916 0.950 . S
C945 C944 1.397 . S
C945 C946 1.334 . S
C946 H917 0.950 . S
C946 C945 1.334 . S
C946 C947 1.287 . S
C947 C946 1.287 . S
C947 C948 1.524 . S
C947 H950 0.999 . S
C948 H918 0.950 . S
C948 C947 1.524 . S
C948 C949 1.415 . S
C949 H919 0.950 . S
C949 C944 1.363 . S
C949 C948 1.415 . S
H950 C947 0.999 . S
H951 C932 0.913 . S
H952 C970 0.951 . S
H953 C972 0.951 . S
H954 C974 0.950 . S
H955 C975 0.950 . S
H956 C977 0.950 . S
H957 C980 0.950 . S
H958 C981 0.950 . S
H959 C983 0.950 . S
H960 C984 0.950 . S
H961 C985 0.951 . S
H962 C987 0.951 . S
H963 C989 0.950 . S
H964 C990 0.950 . S
H965 C992 0.950 . S
H966 C995 0.950 . S
H967 C996 0.950 . S
H968 C998 0.950 . S
H969 C999 0.950 . S
C970 H952 0.951 . S
C970 C971 1.366 . S
C970 C972 1.388 . S
C971 C970 1.366 . S
C971 C975 1.385 . S
C972 H953 0.951 . S
C972 C970 1.388 . S
C972 C973 1.366 . S
C973 C972 1.366 . S
C973 C974 1.414 . S
C973 C976 1.499 . S
C974 H954 0.950 . S
C974 C973 1.414 . S
C974 C975 1.374 . S
C975 H955 0.950 . S
C975 C971 1.385 . S
C975 C974 1.374 . S
C976 C973 1.499 . S
C976 C977 1.373 . S
C976 C978 1.389 . S
C977 H956 0.950 . S
C977 C976 1.373 . S
C977 C993 1.377 . S
C978 C976 1.389 . S
C978 C979 1.524 . S
C978 C992 1.377 . S
C979 C978 1.524 . S
C979 C980 1.397 . S
C979 C984 1.363 . S
C980 H957 0.950 . S
C980 C979 1.397 . S
C980 C981 1.334 . S
C981 H958 0.950 . S
C981 C980 1.334 . S
C981 C982 1.287 . S
C982 C981 1.287 . S
C982 C983 1.524 . S
C982 H1001 0.913 . S
C983 H959 0.950 . S
C983 C982 1.524 . S
C983 C984 1.415 . S
C984 H960 0.950 . S
C984 C979 1.363 . S
C984 C983 1.415 . S
C985 H961 0.951 . S
C985 C986 1.366 . S
C985 C987 1.388 . S
C986 C985 1.366 . S
C986 C990 1.385 . S
C987 H962 0.951 . S
C987 C985 1.388 . S
C987 C988 1.366 . S
C988 C987 1.366 . S
C988 C989 1.414 . S
C988 C991 1.499 . S
C989 H963 0.950 . S
C989 C988 1.414 . S
C989 C990 1.374 . S
C990 H964 0.950 . S
C990 C986 1.385 . S
C990 C989 1.374 . S
C991 C988 1.499 . S
C991 C992 1.373 . S
C991 C993 1.389 . S
C992 H965 0.950 . S
C992 C978 1.377 . S
C992 C991 1.373 . S
C993 C977 1.377 . S
C993 C991 1.389 . S
C993 C994 1.524 . S
C994 C993 1.524 . S
C994 C995 1.397 . S
C994 C999 1.363 . S
C995 H966 0.950 . S
C995 C994 1.397 . S
C995 C996 1.334 . S
C996 H967 0.950 . S
C996 C995 1.334 . S
C996 C997 1.287 . S
C997 C996 1.287 . S
C997 C998 1.524 . S
C997 H1000 0.999 . S
C998 H968 0.950 . S
C998 C997 1.524 . S
C998 C999 1.415 . S
C999 H969 0.950 . S
C999 C994 1.363 . S
C999 C998 1.415 . S
H1000 C997 0.999 . S
H1001 C982 0.913 . S
H1002 C1020 0.976 . S
H1003 C1022 0.951 . S
H1004 C1024 0.950 . S
H1005 C1025 0.950 . S
H1006 C1027 0.950 . S
H1007 C1030 0.950 . S
H1008 C1031 0.950 . S
H1009 C1033 0.950 . S
H1010 C1034 0.950 . S
H1011 C1035 0.951 . S
H1012 C1037 0.951 . S
H1013 C1039 0.950 . S
H1014 C1040 0.950 . S
H1015 C1042 0.950 . S
H1016 C1045 0.950 . S
H1017 C1046 0.950 . S
H1018 C1048 0.950 . S
H1019 C1049 0.950 . S
C1020 H1002 0.976 . S
C1020 C1021 1.366 . S
C1020 C1022 1.388 . S
C1021 C1020 1.366 . S
C1021 C1025 1.385 . S
C1022 H1003 0.951 . S
C1022 C1020 1.388 . S
C1022 C1023 1.366 . S
C1023 C1022 1.366 . S
C1023 C1024 1.414 . S
C1023 C1026 1.499 . S
C1024 H1004 0.950 . S
C1024 C1023 1.414 . S
C1024 C1025 1.374 . S
C1025 H1005 0.950 . S
C1025 C1021 1.385 . S
C1025 C1024 1.374 . S
C1026 C1023 1.499 . S
C1026 C1027 1.373 . S
C1026 C1028 1.389 . S
C1027 H1006 0.950 . S
C1027 C1026 1.373 . S
C1027 C1043 1.377 . S
C1028 C1026 1.389 . S
C1028 C1029 1.524 . S
C1028 C1042 1.377 . S
C1029 C1028 1.524 . S
C1029 C1030 1.397 . S
C1029 C1034 1.363 . S
C1030 H1007 0.950 . S
C1030 C1029 1.397 . S
C1030 C1031 1.334 . S
C1031 H1008 0.950 . S
C1031 C1030 1.334 . S
C1031 C1032 1.287 1_655 S
C1032 C1031 1.287 1_455 S
C1032 C1033 1.524 . S
C1032 H1051 0.913 . S
C1033 H1009 0.950 . S
C1033 C1032 1.524 . S
C1033 C1034 1.415 1_455 S
C1034 H1010 0.950 . S
C1034 C1029 1.363 . S
C1034 C1033 1.415 1_655 S
C1035 H1011 0.951 . S
C1035 C1036 1.366 . S
C1035 C1037 1.388 . S
C1036 C1035 1.366 . S
C1036 C1040 1.385 . S
C1037 H1012 0.951 . S
C1037 C1035 1.388 . S
C1037 C1038 1.366 . S
C1038 C1037 1.366 . S
C1038 C1039 1.414 . S
C1038 C1041 1.499 . S
C1039 H1013 0.950 . S
C1039 C1038 1.414 . S
C1039 C1040 1.374 . S
C1040 H1014 0.950 . S
C1040 C1036 1.385 . S
C1040 C1039 1.374 . S
C1041 C1038 1.499 . S
C1041 C1042 1.373 . S
C1041 C1043 1.389 . S
C1042 H1015 0.950 . S
C1042 C1028 1.377 . S
C1042 C1041 1.373 . S
C1043 C1027 1.377 . S
C1043 C1041 1.389 . S
C1043 C1044 1.524 . S
C1044 C1043 1.524 . S
C1044 C1045 1.397 . S
C1044 C1049 1.363 . S
C1045 H1016 0.950 . S
C1045 C1044 1.397 . S
C1045 C1046 1.334 . S
C1046 H1017 0.950 . S
C1046 C1045 1.334 . S
C1046 C1047 1.287 . S
C1047 C1046 1.287 . S
C1047 C1048 1.524 . S
C1047 H1050 0.999 . S
C1048 H1018 0.950 . S
C1048 C1047 1.524 . S
C1048 C1049 1.415 . S
C1049 H1019 0.950 . S
C1049 C1044 1.363 . S
C1049 C1048 1.415 . S
H1050 C1047 0.999 . S
H1051 C1032 0.913 . S
H1052 C1070 0.951 1_455 S
H1053 C1072 0.951 . S
H1054 C1074 0.950 . S
H1055 C1075 0.950 . S
H1056 C1077 0.950 . S
H1057 C1080 0.950 . S
H1058 C1081 0.950 . S
H1059 C1083 0.950 . S
H1060 C1084 0.950 . S
H1061 C1085 0.951 . S
H1062 C1087 0.951 . S
H1063 C1089 0.950 . S
H1064 C1090 0.950 . S
H1065 C1092 0.950 . S
H1066 C1095 0.950 . S
H1067 C1096 0.950 . S
H1068 C1098 0.950 . S
H1069 C1099 0.950 . S
C1070 H1052 0.951 1_655 S
C1070 C1071 1.366 . S
C1070 C1072 1.388 . S
C1071 C1070 1.366 . S
C1071 C1075 1.385 . S
C1072 H1053 0.951 . S
C1072 C1070 1.388 . S
C1072 C1073 1.366 . S
C1073 C1072 1.366 . S
C1073 C1074 1.414 . S
C1073 C1076 1.499 . S
C1074 H1054 0.950 . S
C1074 C1073 1.414 . S
C1074 C1075 1.374 . S
C1075 H1055 0.950 . S
C1075 C1071 1.385 . S
C1075 C1074 1.374 . S
C1076 C1073 1.499 . S
C1076 C1077 1.373 . S
C1076 C1078 1.389 . S
C1077 H1056 0.950 . S
C1077 C1076 1.373 . S
C1077 C1093 1.377 . S
C1078 C1076 1.389 . S
C1078 C1079 1.524 . S
C1078 C1092 1.377 . S
C1079 C1078 1.524 . S
C1079 C1080 1.397 . S
C1079 C1084 1.363 1_655 S
C1080 H1057 0.950 . S
C1080 C1079 1.397 . S
C1080 C1081 1.334 1_655 S
C1081 H1058 0.950 . S
C1081 C1080 1.334 1_455 S
C1081 C1082 1.287 . S
C1082 C1081 1.287 . S
C1082 C1083 1.524 . S
C1082 H1101 0.913 . S
C1083 H1059 0.950 . S
C1083 C1082 1.524 . S
C1083 C1084 1.415 . S
C1084 H1060 0.950 . S
C1084 C1079 1.363 1_455 S
C1084 C1083 1.415 . S
C1085 H1061 0.951 . S
C1085 C1086 1.366 . S
C1085 C1087 1.388 . S
C1086 C1085 1.366 . S
C1086 C1090 1.385 . S
C1087 H1062 0.951 . S
C1087 C1085 1.388 . S
C1087 C1088 1.366 . S
C1088 C1087 1.366 . S
C1088 C1089 1.414 . S
C1088 C1091 1.499 . S
C1089 H1063 0.950 . S
C1089 C1088 1.414 . S
C1089 C1090 1.374 . S
C1090 H1064 0.950 . S
C1090 C1086 1.385 . S
C1090 C1089 1.374 . S
C1091 C1088 1.499 . S
C1091 C1092 1.373 . S
C1091 C1093 1.389 . S
C1092 H1065 0.950 . S
C1092 C1078 1.377 . S
C1092 C1091 1.373 . S
C1093 C1077 1.377 . S
C1093 C1091 1.389 . S
C1093 C1094 1.524 . S
C1094 C1093 1.524 . S
C1094 C1095 1.397 . S
C1094 C1099 1.363 . S
C1095 H1066 0.950 . S
C1095 C1094 1.397 . S
C1095 C1096 1.334 . S
C1096 H1067 0.950 . S
C1096 C1095 1.334 . S
C1096 C1097 1.287 . S
C1097 C1096 1.287 . S
C1097 C1098 1.524 . S
C1097 H1100 0.999 . S
C1098 H1068 0.950 . S
C1098 C1097 1.524 . S
C1098 C1099 1.415 . S
C1099 H1069 0.950 . S
C1099 C1094 1.363 . S
C1099 C1098 1.415 . S
H1100 C1097 0.999 . S
H1101 C1082 0.913 . S
H1102 C1120 0.951 . S
H1103 C1122 0.951 . S
H1104 C1124 0.950 . S
H1105 C1125 0.950 . S
H1106 C1127 0.950 . S
H1107 C1130 0.950 . S
H1108 C1131 0.950 . S
H1109 C1133 0.950 . S
H1110 C1134 0.950 . S
H1111 C1135 0.951 . S
H1112 C1137 0.951 . S
H1113 C1139 0.950 . S
H1114 C1140 0.950 . S
H1115 C1142 0.950 . S
H1116 C1145 0.950 . S
H1117 C1146 0.950 . S
H1118 C1148 0.950 . S
H1119 C1149 0.950 . S
C1120 H1102 0.951 . S
C1120 C1121 1.366 . S
C1120 C1122 1.388 . S
C1121 C1120 1.366 . S
C1121 C1125 1.385 . S
C1122 H1103 0.951 . S
C1122 C1120 1.388 . S
C1122 C1123 1.366 . S
C1123 C1122 1.366 . S
C1123 C1124 1.414 . S
C1123 C1126 1.499 . S
C1124 H1104 0.950 . S
C1124 C1123 1.414 . S
C1124 C1125 1.374 . S
C1125 H1105 0.950 . S
C1125 C1121 1.385 . S
C1125 C1124 1.374 . S
C1126 C1123 1.499 . S
C1126 C1127 1.373 . S
C1126 C1128 1.389 . S
C1127 H1106 0.950 . S
C1127 C1126 1.373 . S
C1127 C1143 1.377 . S
C1128 C1126 1.389 . S
C1128 C1129 1.524 . S
C1128 C1142 1.377 . S
C1129 C1128 1.524 . S
C1129 C1130 1.397 . S
C1129 C1134 1.363 . S
C1130 H1107 0.950 . S
C1130 C1129 1.397 . S
C1130 C1131 1.334 . S
C1131 H1108 0.950 . S
C1131 C1130 1.334 . S
C1131 C1132 1.287 . S
C1132 C1131 1.287 . S
C1132 C1133 1.524 . S
C1132 H1151 0.913 . S
C1133 H1109 0.950 . S
C1133 C1132 1.524 . S
C1133 C1134 1.415 . S
C1134 H1110 0.950 . S
C1134 C1129 1.363 . S
C1134 C1133 1.415 . S
C1135 H1111 0.951 . S
C1135 C1136 1.366 . S
C1135 C1137 1.388 . S
C1136 C1135 1.366 . S
C1136 C1140 1.385 . S
C1137 H1112 0.951 . S
C1137 C1135 1.388 . S
C1137 C1138 1.366 . S
C1138 C1137 1.366 . S
C1138 C1139 1.414 . S
C1138 C1141 1.499 . S
C1139 H1113 0.950 . S
C1139 C1138 1.414 . S
C1139 C1140 1.374 . S
C1140 H1114 0.950 . S
C1140 C1136 1.385 . S
C1140 C1139 1.374 . S
C1141 C1138 1.499 . S
C1141 C1142 1.373 . S
C1141 C1143 1.389 . S
C1142 H1115 0.950 . S
C1142 C1128 1.377 . S
C1142 C1141 1.373 . S
C1143 C1127 1.377 . S
C1143 C1141 1.389 . S
C1143 C1144 1.524 . S
C1144 C1143 1.524 . S
C1144 C1145 1.397 . S
C1144 C1149 1.363 . S
C1145 H1116 0.950 . S
C1145 C1144 1.397 . S
C1145 C1146 1.334 . S
C1146 H1117 0.950 . S
C1146 C1145 1.334 . S
C1146 C1147 1.287 . S
C1147 C1146 1.287 . S
C1147 C1148 1.524 . S
C1147 H1150 0.999 . S
C1148 H1118 0.950 . S
C1148 C1147 1.524 . S
C1148 C1149 1.415 . S
C1149 H1119 0.950 . S
C1149 C1144 1.363 . S
C1149 C1148 1.415 . S
H1150 C1147 0.999 . S
H1151 C1132 0.913 . S
H1152 C1170 0.951 . S
H1153 C1172 0.951 . S
H1154 C1174 0.950 . S
H1155 C1175 0.950 . S
H1156 C1177 0.950 . S
H1157 C1180 0.950 . S
H1158 C1181 0.950 . S
H1159 C1183 0.950 . S
H1160 C1184 0.950 . S
H1161 C1185 0.951 . S
H1162 C1187 0.951 . S
H1163 C1189 0.950 . S
H1164 C1190 0.950 . S
H1165 C1192 0.950 . S
H1166 C1195 0.950 . S
H1167 C1196 0.950 . S
H1168 C1198 0.950 . S
H1169 C1199 0.950 . S
C1170 H1152 0.951 . S
C1170 C1171 1.366 . S
C1170 C1172 1.388 . S
C1171 C1170 1.366 . S
C1171 C1175 1.385 . S
C1172 H1153 0.951 . S
C1172 C1170 1.388 . S
C1172 C1173 1.366 . S
C1173 C1172 1.366 . S
C1173 C1174 1.414 . S
C1173 C1176 1.499 . S
C1174 H1154 0.950 . S
C1174 C1173 1.414 . S
C1174 C1175 1.374 . S
C1175 H1155 0.950 . S
C1175 C1171 1.385 . S
C1175 C1174 1.374 . S
C1176 C1173 1.499 . S
C1176 C1177 1.373 . S
C1176 C1178 1.389 . S
C1177 H1156 0.950 . S
C1177 C1176 1.373 . S
C1177 C1193 1.377 . S
C1178 C1176 1.389 . S
C1178 C1179 1.524 . S
C1178 C1192 1.377 . S
C1179 C1178 1.524 . S
C1179 C1180 1.397 . S
C1179 C1184 1.363 . S
C1180 H1157 0.950 . S
C1180 C1179 1.397 . S
C1180 C1181 1.334 1_455 S
C1181 H1158 0.950 . S
C1181 C1180 1.334 1_655 S
C1181 C1182 1.287 . S
C1182 C1181 1.287 . S
C1182 C1183 1.524 . S
C1182 H1201 0.913 . S
C1183 H1159 0.950 . S
C1183 C1182 1.524 . S
C1183 C1184 1.415 1_655 S
C1184 H1160 0.950 . S
C1184 C1179 1.363 . S
C1184 C1183 1.415 1_455 S
C1185 H1161 0.951 . S
C1185 C1186 1.366 . S
C1185 C1187 1.388 . S
C1186 C1185 1.366 . S
C1186 C1190 1.385 . S
C1187 H1162 0.951 . S
C1187 C1185 1.388 . S
C1187 C1188 1.366 . S
C1188 C1187 1.366 . S
C1188 C1189 1.414 . S
C1188 C1191 1.499 . S
C1189 H1163 0.950 . S
C1189 C1188 1.414 . S
C1189 C1190 1.374 . S
C1190 H1164 0.950 . S
C1190 C1186 1.385 . S
C1190 C1189 1.374 . S
C1191 C1188 1.499 . S
C1191 C1192 1.373 . S
C1191 C1193 1.389 . S
C1192 H1165 0.950 . S
C1192 C1178 1.377 . S
C1192 C1191 1.373 . S
C1193 C1177 1.377 . S
C1193 C1191 1.389 . S
C1193 C1194 1.524 . S
C1194 C1193 1.524 . S
C1194 C1195 1.397 . S
C1194 C1199 1.363 . S
C1195 H1166 0.950 . S
C1195 C1194 1.397 . S
C1195 C1196 1.334 . S
C1196 H1167 0.950 . S
C1196 C1195 1.334 . S
C1196 C1197 1.287 . S
C1197 C1196 1.287 . S
C1197 C1198 1.524 . S
C1197 H1200 0.999 . S
C1198 H1168 0.950 . S
C1198 C1197 1.524 . S
C1198 C1199 1.415 . S
C1199 H1169 0.950 . S
C1199 C1194 1.363 . S
C1199 C1198 1.415 . S
H1200 C1197 0.999 . S
H1201 C1182 0.913 . S
H1202 C1220 0.951 . S
H1203 C1222 0.951 . S
H1204 C1224 0.950 . S
H1205 C1225 0.950 . S
H1206 C1227 0.950 . S
H1207 C1230 0.950 . S
H1208 C1231 0.950 . S
H1209 C1233 0.950 . S
H1210 C1234 0.950 . S
H1211 C1235 0.951 . S
H1212 C1237 0.951 . S
H1213 C1239 0.950 . S
H1214 C1240 0.950 . S
H1215 C1242 0.950 . S
H1216 C1245 0.950 . S
H1217 C1246 0.950 . S
H1218 C1248 0.950 1_545 S
H1219 C1249 0.950 . S
C1220 H1202 0.951 . S
C1220 C1221 1.366 . S
C1220 C1222 1.388 . S
C1221 C1220 1.366 . S
C1221 C1225 1.385 . S
C1222 H1203 0.951 . S
C1222 C1220 1.388 . S
C1222 C1223 1.366 . S
C1223 C1222 1.366 . S
C1223 C1224 1.414 . S
C1223 C1226 1.499 . S
C1224 H1204 0.950 . S
C1224 C1223 1.414 . S
C1224 C1225 1.374 . S
C1225 H1205 0.950 . S
C1225 C1221 1.385 . S
C1225 C1224 1.374 . S
C1226 C1223 1.499 . S
C1226 C1227 1.373 . S
C1226 C1228 1.389 . S
C1227 H1206 0.950 . S
C1227 C1226 1.373 . S
C1227 C1243 1.377 . S
C1228 C1226 1.389 . S
C1228 C1229 1.524 . S
C1228 C1242 1.377 . S
C1229 C1228 1.524 . S
C1229 C1230 1.397 . S
C1229 C1234 1.363 . S
C1230 H1207 0.950 . S
C1230 C1229 1.397 . S
C1230 C1231 1.334 . S
C1231 H1208 0.950 . S
C1231 C1230 1.334 . S
C1231 C1232 1.287 . S
C1232 C1231 1.287 . S
C1232 C1233 1.524 . S
C1232 H1251 0.913 . S
C1233 H1209 0.950 . S
C1233 C1232 1.524 . S
C1233 C1234 1.415 . S
C1234 H1210 0.950 . S
C1234 C1229 1.363 . S
C1234 C1233 1.415 . S
C1235 H1211 0.951 . S
C1235 C1236 1.366 . S
C1235 C1237 1.388 . S
C1236 C1235 1.366 . S
C1236 C1240 1.385 . S
C1237 H1212 0.951 . S
C1237 C1235 1.388 . S
C1237 C1238 1.366 . S
C1238 C1237 1.366 . S
C1238 C1239 1.414 . S
C1238 C1241 1.499 . S
C1239 H1213 0.950 . S
C1239 C1238 1.414 . S
C1239 C1240 1.374 . S
C1240 H1214 0.950 . S
C1240 C1236 1.385 . S
C1240 C1239 1.374 . S
C1241 C1238 1.499 . S
C1241 C1242 1.373 . S
C1241 C1243 1.389 . S
C1242 H1215 0.950 . S
C1242 C1228 1.377 . S
C1242 C1241 1.373 . S
C1243 C1227 1.377 . S
C1243 C1241 1.389 . S
C1243 C1244 1.524 . S
C1244 C1243 1.524 . S
C1244 C1245 1.397 . S
C1244 C1249 1.363 . S
C1245 H1216 0.950 . S
C1245 C1244 1.397 . S
C1245 C1246 1.334 . S
C1246 H1217 0.950 . S
C1246 C1245 1.334 . S
C1246 C1247 1.287 . S
C1247 C1246 1.287 . S
C1247 C1248 1.524 . S
C1247 H1250 0.999 1_565 S
C1248 H1218 0.950 1_565 S
C1248 C1247 1.524 . S
C1248 C1249 1.415 . S
C1249 H1219 0.950 . S
C1249 C1244 1.363 . S
C1249 C1248 1.415 . S
H1250 C1247 0.999 1_545 S
H1251 C1232 0.913 . S
H1252 C1270 0.951 . S
H1253 C1272 0.951 . S
H1254 C1274 0.950 . S
H1255 C1275 0.950 . S
H1256 C1277 0.950 . S
H1257 C1280 0.950 . S
H1258 C1281 0.950 . S
H1259 C1283 0.950 . S
H1260 C1284 0.950 . S
H1261 C1285 0.951 . S
H1262 C1287 0.951 . S
H1263 C1289 0.950 . S
H1264 C1290 0.950 . S
H1265 C1292 0.950 . S
H1266 C1295 0.950 . S
H1267 C1296 0.950 . S
H1268 C1298 0.950 . S
H1269 C1299 0.950 . S
C1270 H1252 0.951 . S
C1270 C1271 1.366 . S
C1270 C1272 1.388 . S
C1271 C1270 1.366 . S
C1271 C1275 1.385 . S
C1272 H1253 0.951 . S
C1272 C1270 1.388 . S
C1272 C1273 1.366 . S
C1273 C1272 1.366 . S
C1273 C1274 1.414 . S
C1273 C1276 1.499 . S
C1274 H1254 0.950 . S
C1274 C1273 1.414 . S
C1274 C1275 1.374 . S
C1275 H1255 0.950 . S
C1275 C1271 1.385 . S
C1275 C1274 1.374 . S
C1276 C1273 1.499 . S
C1276 C1277 1.373 . S
C1276 C1278 1.389 . S
C1277 H1256 0.950 . S
C1277 C1276 1.373 . S
C1277 C1293 1.377 . S
C1278 C1276 1.389 . S
C1278 C1279 1.524 . S
C1278 C1292 1.377 . S
C1279 C1278 1.524 . S
C1279 C1280 1.397 . S
C1279 C1284 1.363 . S
C1280 H1257 0.950 . S
C1280 C1279 1.397 . S
C1280 C1281 1.334 . S
C1281 H1258 0.950 . S
C1281 C1280 1.334 . S
C1281 C1282 1.287 . S
C1282 C1281 1.287 . S
C1282 C1283 1.524 . S
C1282 H1301 0.913 . S
C1283 H1259 0.950 . S
C1283 C1282 1.524 . S
C1283 C1284 1.415 . S
C1284 H1260 0.950 . S
C1284 C1279 1.363 . S
C1284 C1283 1.415 . S
C1285 H1261 0.951 . S
C1285 C1286 1.366 . S
C1285 C1287 1.388 . S
C1286 C1285 1.366 . S
C1286 C1290 1.385 . S
C1287 H1262 0.951 . S
C1287 C1285 1.388 . S
C1287 C1288 1.366 . S
C1288 C1287 1.366 . S
C1288 C1289 1.414 . S
C1288 C1291 1.499 . S
C1289 H1263 0.950 . S
C1289 C1288 1.414 . S
C1289 C1290 1.374 . S
C1290 H1264 0.950 . S
C1290 C1286 1.385 . S
C1290 C1289 1.374 . S
C1291 C1288 1.499 . S
C1291 C1292 1.373 . S
C1291 C1293 1.389 . S
C1292 H1265 0.950 . S
C1292 C1278 1.377 . S
C1292 C1291 1.373 . S
C1293 C1277 1.377 . S
C1293 C1291 1.389 . S
C1293 C1294 1.524 . S
C1294 C1293 1.524 . S
C1294 C1295 1.397 . S
C1294 C1299 1.363 . S
C1295 H1266 0.950 . S
C1295 C1294 1.397 . S
C1295 C1296 1.334 . S
C1296 H1267 0.950 . S
C1296 C1295 1.334 . S
C1296 C1297 1.287 . S
C1297 C1296 1.287 . S
C1297 C1298 1.524 . S
C1297 H1300 0.999 . S
C1298 H1268 0.950 . S
C1298 C1297 1.524 . S
C1298 C1299 1.415 . S
C1299 H1269 0.950 . S
C1299 C1294 1.363 . S
C1299 C1298 1.415 . S
H1300 C1297 0.999 . S
H1301 C1282 0.913 . S
H1302 C1320 0.951 . S
H1303 C1322 0.951 . S
H1304 C1324 0.950 . S
H1305 C1325 0.950 . S
H1306 C1327 0.950 . S
H1307 C1330 0.950 . S
H1308 C1331 0.950 . S
H1309 C1333 0.950 . S
H1310 C1334 0.950 . S
H1311 C1335 0.951 . S
H1312 C1337 0.951 . S
H1313 C1339 0.950 . S
H1314 C1340 0.950 . S
H1315 C1342 0.950 . S
H1316 C1345 0.950 . S
H1317 C1346 0.950 . S
H1318 C1348 0.950 . S
H1319 C1349 0.950 . S
C1320 H1302 0.951 . S
C1320 C1321 1.366 . S
C1320 C1322 1.388 . S
C1321 C1320 1.366 . S
C1321 C1325 1.385 . S
C1322 H1303 0.951 . S
C1322 C1320 1.388 . S
C1322 C1323 1.366 . S
C1323 C1322 1.366 . S
C1323 C1324 1.414 . S
C1323 C1326 1.499 . S
C1324 H1304 0.950 . S
C1324 C1323 1.414 . S
C1324 C1325 1.374 . S
C1325 H1305 0.950 . S
C1325 C1321 1.385 . S
C1325 C1324 1.374 . S
C1326 C1323 1.499 . S
C1326 C1327 1.373 . S
C1326 C1328 1.389 . S
C1327 H1306 0.950 . S
C1327 C1326 1.373 . S
C1327 C1343 1.377 . S
C1328 C1326 1.389 . S
C1328 C1329 1.524 . S
C1328 C1342 1.377 . S
C1329 C1328 1.524 . S
C1329 C1330 1.397 . S
C1329 C1334 1.363 . S
C1330 H1307 0.950 . S
C1330 C1329 1.397 . S
C1330 C1331 1.334 . S
C1331 H1308 0.950 . S
C1331 C1330 1.334 . S
C1331 C1332 1.287 . S
C1332 C1331 1.287 . S
C1332 C1333 1.524 . S
C1332 H1351 0.913 . S
C1333 H1309 0.950 . S
C1333 C1332 1.524 . S
C1333 C1334 1.415 . S
C1334 H1310 0.950 . S
C1334 C1329 1.363 . S
C1334 C1333 1.415 . S
C1335 H1311 0.951 . S
C1335 C1336 1.366 . S
C1335 C1337 1.388 . S
C1336 C1335 1.366 . S
C1336 C1340 1.385 . S
C1337 H1312 0.951 . S
C1337 C1335 1.388 . S
C1337 C1338 1.366 . S
C1338 C1337 1.366 . S
C1338 C1339 1.414 . S
C1338 C1341 1.499 . S
C1339 H1313 0.950 . S
C1339 C1338 1.414 . S
C1339 C1340 1.374 . S
C1340 H1314 0.950 . S
C1340 C1336 1.385 . S
C1340 C1339 1.374 . S
C1341 C1338 1.499 . S
C1341 C1342 1.373 . S
C1341 C1343 1.389 . S
C1342 H1315 0.950 . S
C1342 C1328 1.377 . S
C1342 C1341 1.373 . S
C1343 C1327 1.377 . S
C1343 C1341 1.389 . S
C1343 C1344 1.524 . S
C1344 C1343 1.524 . S
C1344 C1345 1.397 . S
C1344 C1349 1.363 . S
C1345 H1316 0.950 . S
C1345 C1344 1.397 . S
C1345 C1346 1.334 . S
C1346 H1317 0.950 . S
C1346 C1345 1.334 . S
C1346 C1347 1.287 . S
C1347 C1346 1.287 . S
C1347 C1348 1.524 . S
C1347 H1350 0.999 . S
C1348 H1318 0.950 . S
C1348 C1347 1.524 . S
C1348 C1349 1.415 . S
C1349 H1319 0.950 . S
C1349 C1344 1.363 . S
C1349 C1348 1.415 . S
H1350 C1347 0.999 . S
H1351 C1332 0.913 . S
H1352 C1370 0.951 . S
H1353 C1372 0.951 . S
H1354 C1374 0.950 . S
H1355 C1375 0.950 . S
H1356 C1377 0.950 . S
H1357 C1380 0.950 . S
H1358 C1381 0.950 . S
H1359 C1383 0.950 . S
H1360 C1384 0.950 . S
H1361 C1385 0.951 . S
H1362 C1387 0.951 . S
H1363 C1389 0.950 . S
H1364 C1390 0.950 . S
H1365 C1392 0.950 . S
H1366 C1395 0.950 . S
H1367 C1396 0.950 . S
H1368 C1398 0.950 . S
H1369 C1399 0.950 . S
C1370 H1352 0.951 . S
C1370 C1371 1.366 . S
C1370 C1372 1.388 . S
C1371 C1370 1.366 . S
C1371 C1375 1.385 . S
C1372 H1353 0.951 . S
C1372 C1370 1.388 . S
C1372 C1373 1.366 . S
C1373 C1372 1.366 . S
C1373 C1374 1.414 . S
C1373 C1376 1.499 . S
C1374 H1354 0.950 . S
C1374 C1373 1.414 . S
C1374 C1375 1.374 . S
C1375 H1355 0.950 . S
C1375 C1371 1.385 . S
C1375 C1374 1.374 . S
C1376 C1373 1.499 . S
C1376 C1377 1.373 . S
C1376 C1378 1.389 . S
C1377 H1356 0.950 . S
C1377 C1376 1.373 . S
C1377 C1393 1.377 . S
C1378 C1376 1.389 . S
C1378 C1379 1.524 . S
C1378 C1392 1.377 . S
C1379 C1378 1.524 . S
C1379 C1380 1.397 . S
C1379 C1384 1.363 . S
C1380 H1357 0.950 . S
C1380 C1379 1.397 . S
C1380 C1381 1.334 . S
C1381 H1358 0.950 . S
C1381 C1380 1.334 . S
C1381 C1382 1.287 . S
C1382 C1381 1.287 . S
C1382 C1383 1.524 . S
C1382 H1401 0.913 . S
C1383 H1359 0.950 . S
C1383 C1382 1.524 . S
C1383 C1384 1.415 . S
C1384 H1360 0.950 . S
C1384 C1379 1.363 . S
C1384 C1383 1.415 . S
C1385 H1361 0.951 . S
C1385 C1386 1.366 . S
C1385 C1387 1.388 . S
C1386 C1385 1.366 . S
C1386 C1390 1.385 . S
C1387 H1362 0.951 . S
C1387 C1385 1.388 . S
C1387 C1388 1.366 . S
C1388 C1387 1.366 . S
C1388 C1389 1.414 . S
C1388 C1391 1.499 . S
C1389 H1363 0.950 . S
C1389 C1388 1.414 . S
C1389 C1390 1.374 . S
C1390 H1364 0.950 . S
C1390 C1386 1.385 . S
C1390 C1389 1.374 . S
C1391 C1388 1.499 . S
C1391 C1392 1.373 . S
C1391 C1393 1.389 . S
C1392 H1365 0.950 . S
C1392 C1378 1.377 . S
C1392 C1391 1.373 . S
C1393 C1377 1.377 . S
C1393 C1391 1.389 . S
C1393 C1394 1.524 . S
C1394 C1393 1.524 . S
C1394 C1395 1.397 . S
C1394 C1399 1.363 . S
C1395 H1366 0.950 . S
C1395 C1394 1.397 . S
C1395 C1396 1.334 . S
C1396 H1367 0.950 . S
C1396 C1395 1.334 . S
C1396 C1397 1.287 . S
C1397 C1396 1.287 . S
C1397 C1398 1.524 . S
C1397 H1400 0.999 . S
C1398 H1368 0.950 . S
C1398 C1397 1.524 . S
C1398 C1399 1.415 . S
C1399 H1369 0.950 . S
C1399 C1394 1.363 . S
C1399 C1398 1.415 . S
H1400 C1397 0.999 . S
H1401 C1382 0.913 . S
H1402 C1420 0.951 . S
H1403 C1422 0.951 . S
H1404 C1424 0.950 . S
H1405 C1425 0.950 . S
H1406 C1427 0.950 . S
H1407 C1430 0.950 . S
H1408 C1431 0.950 . S
H1409 C1433 0.950 . S
H1410 C1434 0.950 . S
H1411 C1435 0.951 . S
H1412 C1437 0.951 . S
H1413 C1439 0.950 . S
H1414 C1440 0.950 . S
H1415 C1442 0.950 . S
H1416 C1445 0.950 . S
H1417 C1446 0.950 . S
H1418 C1448 0.950 . S
H1419 C1449 0.950 . S
C1420 H1402 0.951 . S
C1420 C1421 1.366 . S
C1420 C1422 1.388 . S
C1421 C1420 1.366 . S
C1421 C1425 1.385 . S
C1422 H1403 0.951 . S
C1422 C1420 1.388 . S
C1422 C1423 1.366 . S
C1423 C1422 1.366 . S
C1423 C1424 1.414 . S
C1423 C1426 1.499 . S
C1424 H1404 0.950 . S
C1424 C1423 1.414 . S
C1424 C1425 1.374 . S
C1425 H1405 0.950 . S
C1425 C1421 1.385 . S
C1425 C1424 1.374 . S
C1426 C1423 1.499 . S
C1426 C1427 1.373 . S
C1426 C1428 1.389 . S
C1427 H1406 0.950 . S
C1427 C1426 1.373 . S
C1427 C1443 1.377 . S
C1428 C1426 1.389 . S
C1428 C1429 1.524 . S
C1428 C1442 1.377 . S
C1429 C1428 1.524 . S
C1429 C1430 1.397 . S
C1429 C1434 1.363 . S
C1430 H1407 0.950 . S
C1430 C1429 1.397 . S
C1430 C1431 1.334 . S
C1431 H1408 0.950 . S
C1431 C1430 1.334 . S
C1431 C1432 1.287 . S
C1432 C1431 1.287 . S
C1432 C1433 1.524 . S
C1432 H1451 0.913 . S
C1433 H1409 0.950 . S
C1433 C1432 1.524 . S
C1433 C1434 1.415 . S
C1434 H1410 0.950 . S
C1434 C1429 1.363 . S
C1434 C1433 1.415 . S
C1435 H1411 0.951 . S
C1435 C1436 1.366 . S
C1435 C1437 1.388 . S
C1436 C1435 1.366 . S
C1436 C1440 1.385 . S
C1437 H1412 0.951 . S
C1437 C1435 1.388 . S
C1437 C1438 1.366 . S
C1438 C1437 1.366 . S
C1438 C1439 1.414 . S
C1438 C1441 1.499 . S
C1439 H1413 0.950 . S
C1439 C1438 1.414 . S
C1439 C1440 1.374 . S
C1440 H1414 0.950 . S
C1440 C1436 1.385 . S
C1440 C1439 1.374 . S
C1441 C1438 1.499 . S
C1441 C1442 1.373 . S
C1441 C1443 1.389 . S
C1442 H1415 0.950 . S
C1442 C1428 1.377 . S
C1442 C1441 1.373 . S
C1443 C1427 1.377 . S
C1443 C1441 1.389 . S
C1443 C1444 1.524 . S
C1444 C1443 1.524 . S
C1444 C1445 1.397 . S
C1444 C1449 1.363 . S
C1445 H1416 0.950 . S
C1445 C1444 1.397 . S
C1445 C1446 1.334 . S
C1446 H1417 0.950 . S
C1446 C1445 1.334 . S
C1446 C1447 1.287 . S
C1447 C1446 1.287 . S
C1447 C1448 1.524 . S
C1447 H1450 0.999 . S
C1448 H1418 0.950 . S
C1448 C1447 1.524 . S
C1448 C1449 1.415 . S
C1449 H1419 0.950 . S
C1449 C1444 1.363 . S
C1449 C1448 1.415 . S
H1450 C1447 0.999 . S
H1451 C1432 0.913 . S
H1452 C1470 0.951 . S
H1453 C1472 0.951 . S
H1454 C1474 0.950 . S
H1455 C1475 0.950 . S
H1456 C1477 0.950 . S
H1457 C1480 0.950 . S
H1458 C1481 0.950 . S
H1459 C1483 0.950 . S
H1460 C1484 0.950 . S
H1461 C1485 0.951 . S
H1462 C1487 0.951 . S
H1463 C1489 0.950 . S
H1464 C1490 0.950 . S
H1465 C1492 0.950 . S
H1466 C1495 0.950 . S
H1467 C1496 0.950 . S
H1468 C1498 0.950 . S
H1469 C1499 0.950 . S
C1470 H1452 0.951 . S
C1470 C1471 1.366 . S
C1470 C1472 1.388 . S
C1471 C1470 1.366 . S
C1471 C1475 1.385 . S
C1472 H1453 0.951 . S
C1472 C1470 1.388 . S
C1472 C1473 1.366 . S
C1473 C1472 1.366 . S
C1473 C1474 1.414 . S
C1473 C1476 1.499 . S
C1474 H1454 0.950 . S
C1474 C1473 1.414 . S
C1474 C1475 1.374 . S
C1475 H1455 0.950 . S
C1475 C1471 1.385 . S
C1475 C1474 1.374 . S
C1476 C1473 1.499 . S
C1476 C1477 1.373 . S
C1476 C1478 1.389 . S
C1477 H1456 0.950 . S
C1477 C1476 1.373 . S
C1477 C1493 1.377 . S
C1478 C1476 1.389 . S
C1478 C1479 1.524 . S
C1478 C1492 1.377 . S
C1479 C1478 1.524 . S
C1479 C1480 1.397 . S
C1479 C1484 1.363 . S
C1480 H1457 0.950 . S
C1480 C1479 1.397 . S
C1480 C1481 1.334 . S
C1481 H1458 0.950 . S
C1481 C1480 1.334 . S
C1481 C1482 1.287 . S
C1482 C1481 1.287 . S
C1482 C1483 1.524 . S
C1482 H1501 0.913 . S
C1483 H1459 0.950 . S
C1483 C1482 1.524 . S
C1483 C1484 1.415 . S
C1484 H1460 0.950 . S
C1484 C1479 1.363 . S
C1484 C1483 1.415 . S
C1485 H1461 0.951 . S
C1485 C1486 1.366 . S
C1485 C1487 1.388 . S
C1486 C1485 1.366 . S
C1486 C1490 1.385 . S
C1487 H1462 0.951 . S
C1487 C1485 1.388 . S
C1487 C1488 1.366 . S
C1488 C1487 1.366 . S
C1488 C1489 1.414 . S
C1488 C1491 1.499 . S
C1489 H1463 0.950 . S
C1489 C1488 1.414 . S
C1489 C1490 1.374 . S
C1490 H1464 0.950 . S
C1490 C1486 1.385 . S
C1490 C1489 1.374 . S
C1491 C1488 1.499 . S
C1491 C1492 1.373 . S
C1491 C1493 1.389 . S
C1492 H1465 0.950 . S
C1492 C1478 1.377 . S
C1492 C1491 1.373 . S
C1493 C1477 1.377 . S
C1493 C1491 1.389 . S
C1493 C1494 1.524 . S
C1494 C1493 1.524 . S
C1494 C1495 1.397 . S
C1494 C1499 1.363 . S
C1495 H1466 0.950 . S
C1495 C1494 1.397 . S
C1495 C1496 1.334 . S
C1496 H1467 0.950 . S
C1496 C1495 1.334 . S
C1496 C1497 1.287 . S
C1497 C1496 1.287 . S
C1497 C1498 1.524 . S
C1497 H1500 0.999 . S
C1498 H1468 0.950 . S
C1498 C1497 1.524 . S
C1498 C1499 1.415 . S
C1499 H1469 0.950 . S
C1499 C1494 1.363 . S
C1499 C1498 1.415 . S
H1500 C1497 0.999 . S
H1501 C1482 0.913 . S
H1502 C1520 0.951 . S
H1503 C1522 0.951 . S
H1504 C1524 0.950 . S
H1505 C1525 0.950 . S
H1506 C1527 0.950 . S
H1507 C1530 0.950 . S
H1508 C1531 0.950 . S
H1509 C1533 0.950 . S
H1510 C1534 0.950 . S
H1511 C1535 0.951 . S
H1512 C1537 0.951 . S
H1513 C1539 0.950 . S
H1514 C1540 0.950 . S
H1515 C1542 0.950 . S
H1516 C1545 0.950 . S
H1517 C1546 0.950 . S
H1518 C1548 0.950 . S
H1519 C1549 0.950 . S
C1520 H1502 0.951 . S
C1520 C1521 1.366 . S
C1520 C1522 1.388 . S
C1521 C1520 1.366 . S
C1521 C1525 1.385 . S
C1522 H1503 0.951 . S
C1522 C1520 1.388 . S
C1522 C1523 1.366 . S
C1523 C1522 1.366 . S
C1523 C1524 1.414 . S
C1523 C1526 1.499 . S
C1524 H1504 0.950 . S
C1524 C1523 1.414 . S
C1524 C1525 1.374 . S
C1525 H1505 0.950 . S
C1525 C1521 1.385 . S
C1525 C1524 1.374 . S
C1526 C1523 1.499 . S
C1526 C1527 1.373 . S
C1526 C1528 1.389 . S
C1527 H1506 0.950 . S
C1527 C1526 1.373 . S
C1527 C1543 1.377 . S
C1528 C1526 1.389 . S
C1528 C1529 1.524 . S
C1528 C1542 1.377 . S
C1529 C1528 1.524 . S
C1529 C1530 1.397 . S
C1529 C1534 1.363 . S
C1530 H1507 0.950 . S
C1530 C1529 1.397 . S
C1530 C1531 1.334 . S
C1531 H1508 0.950 . S
C1531 C1530 1.334 . S
C1531 C1532 1.287 . S
C1532 C1531 1.287 . S
C1532 C1533 1.524 . S
C1532 H1551 0.913 . S
C1533 H1509 0.950 . S
C1533 C1532 1.524 . S
C1533 C1534 1.415 . S
C1534 H1510 0.950 . S
C1534 C1529 1.363 . S
C1534 C1533 1.415 . S
C1535 H1511 0.951 . S
C1535 C1536 1.366 . S
C1535 C1537 1.388 . S
C1536 C1535 1.366 . S
C1536 C1540 1.385 . S
C1537 H1512 0.951 . S
C1537 C1535 1.388 . S
C1537 C1538 1.366 . S
C1538 C1537 1.366 . S
C1538 C1539 1.414 . S
C1538 C1541 1.499 . S
C1539 H1513 0.950 . S
C1539 C1538 1.414 . S
C1539 C1540 1.374 . S
C1540 H1514 0.950 . S
C1540 C1536 1.385 . S
C1540 C1539 1.374 . S
C1541 C1538 1.499 . S
C1541 C1542 1.373 . S
C1541 C1543 1.389 . S
C1542 H1515 0.950 . S
C1542 C1528 1.377 . S
C1542 C1541 1.373 . S
C1543 C1527 1.377 . S
C1543 C1541 1.389 . S
C1543 C1544 1.524 . S
C1544 C1543 1.524 . S
C1544 C1545 1.397 . S
C1544 C1549 1.363 . S
C1545 H1516 0.950 . S
C1545 C1544 1.397 . S
C1545 C1546 1.334 . S
C1546 H1517 0.950 . S
C1546 C1545 1.334 . S
C1546 C1547 1.287 . S
C1547 C1546 1.287 . S
C1547 C1548 1.524 . S
C1547 H1550 0.999 . S
C1548 H1518 0.950 . S
C1548 C1547 1.524 . S
C1548 C1549 1.415 . S
C1549 H1519 0.950 . S
C1549 C1544 1.363 . S
C1549 C1548 1.415 . S
H1550 C1547 0.999 . S
H1551 C1532 0.913 . S
H1552 C1570 0.951 . S
H1553 C1572 0.951 . S
H1554 C1574 0.950 . S
H1555 C1575 0.950 . S
H1556 C1577 0.950 . S
H1557 C1580 0.950 . S
H1558 C1581 0.950 . S
H1559 C1583 0.950 . S
H1560 C1584 0.950 . S
H1561 C1585 0.951 . S
H1562 C1587 0.951 . S
H1563 C1589 0.950 . S
H1564 C1590 0.950 . S
H1565 C1592 0.950 . S
H1566 C1595 0.950 . S
H1567 C1596 0.950 . S
H1568 C1598 0.950 . S
H1569 C1599 0.950 . S
C1570 H1552 0.951 . S
C1570 C1571 1.366 . S
C1570 C1572 1.388 . S
C1571 C1570 1.366 . S
C1571 C1575 1.385 . S
C1572 H1553 0.951 . S
C1572 C1570 1.388 . S
C1572 C1573 1.366 . S
C1573 C1572 1.366 . S
C1573 C1574 1.414 . S
C1573 C1576 1.499 . S
C1574 H1554 0.950 . S
C1574 C1573 1.414 . S
C1574 C1575 1.374 . S
C1575 H1555 0.950 . S
C1575 C1571 1.385 . S
C1575 C1574 1.374 . S
C1576 C1573 1.499 . S
C1576 C1577 1.373 . S
C1576 C1578 1.389 . S
C1577 H1556 0.950 . S
C1577 C1576 1.373 . S
C1577 C1593 1.377 . S
C1578 C1576 1.389 . S
C1578 C1579 1.524 . S
C1578 C1592 1.377 . S
C1579 C1578 1.524 . S
C1579 C1580 1.397 . S
C1579 C1584 1.363 . S
C1580 H1557 0.950 . S
C1580 C1579 1.397 . S
C1580 C1581 1.334 1_556 S
C1581 H1558 0.950 . S
C1581 C1580 1.334 1_554 S
C1581 C1582 1.287 . S
C1582 C1581 1.287 . S
C1582 C1583 1.524 . S
C1582 H1601 0.913 . S
C1583 H1559 0.950 . S
C1583 C1582 1.524 . S
C1583 C1584 1.415 1_554 S
C1584 H1560 0.950 . S
C1584 C1579 1.363 . S
C1584 C1583 1.415 1_556 S
C1585 H1561 0.951 . S
C1585 C1586 1.366 . S
C1585 C1587 1.388 . S
C1586 C1585 1.366 . S
C1586 C1590 1.385 . S
C1587 H1562 0.951 . S
C1587 C1585 1.388 . S
C1587 C1588 1.366 . S
C1588 C1587 1.366 . S
C1588 C1589 1.414 . S
C1588 C1591 1.499 . S
C1589 H1563 0.950 . S
C1589 C1588 1.414 . S
C1589 C1590 1.374 . S
C1590 H1564 0.950 . S
C1590 C1586 1.385 . S
C1590 C1589 1.374 . S
C1591 C1588 1.499 . S
C1591 C1592 1.373 . S
C1591 C1593 1.389 . S
C1592 H1565 0.950 . S
C1592 C1578 1.377 . S
C1592 C1591 1.373 . S
C1593 C1577 1.377 . S
C1593 C1591 1.389 . S
C1593 C1594 1.524 . S
C1594 C1593 1.524 . S
C1594 C1595 1.397 . S
C1594 C1599 1.363 . S
C1595 H1566 0.950 . S
C1595 C1594 1.397 . S
C1595 C1596 1.334 . S
C1596 H1567 0.950 . S
C1596 C1595 1.334 . S
C1596 C1597 1.287 . S
C1597 C1596 1.287 . S
C1597 C1598 1.524 . S
C1597 H1600 0.999 . S
C1598 H1568 0.950 . S
C1598 C1597 1.524 . S
C1598 C1599 1.415 . S
C1599 H1569 0.950 . S
C1599 C1594 1.363 . S
C1599 C1598 1.415 . S
H1600 C1597 0.999 . S
H1601 C1582 0.913 . S
C421 C48 1.161 . S
C436 C91 1.188 . S
C471 C106 1.160 . S
C486 C169 1.186 . S
C521 C225 1.326 . S
C536 C182 1.292 . S
C571 C240 1.294 . S
C586 C35 1.327 . S
C621 C303 0.971 . S
C636 C24 0.971 . S
C671 C374 1.162 . S
C686 C102 1.187 . S
C721 C316 1.188 . S
C736 C158 1.214 . S
C771 C236 0.999 . S
C786 C359 1.001 . S
C821 C173 1.269 . S
C836 C370 1.299 . S
C871 C292 1.325 . S
C886 C249 1.296 . S
C921 C383 1.514 . S
C936 C39 1.514 . S
C971 C307 1.489 . S
C986 C115 1.488 . S
C1021 C167 1.228 . S
C1036 C242 1.247 . S
C1071 C45 1.251 . S
C1086 C228 1.229 . S
C1121 C33 1.342 . S
C1136 C108 1.369 . S
C1171 C179 1.368 . S
C1186 C94 1.341 . S
C1221 C380 1.200 . S
C1236 C161 1.184 . S
C1271 C234 1.237 . S
C1286 C309 1.252 . S
C1321 C368 1.184 . S
C1336 C27 1.186 . S
C1371 C100 1.141 . S
C1386 C295 1.141 . S
C1421 C41 1.412 . S
C1436 C313 1.416 . S
C1471 C112 1.370 . S
C1486 C362 1.350 . S
C1521 C175 1.417 . S
C1536 C301 1.394 . S
C1571 C246 1.465 . S
C1586 C376 1.465 . S
