# Generated by pormake.
# Topology dei, (4)-cn, num edge types: 1
# Building blocks:
#     Node 0, Type 0, BuildingBlock: CEKHIL_clean_sbu_0, # of connection points: 4
#     Node 1, Type 0, BuildingBlock: CEKHIL_clean_sbu_0, # of connection points: 4
#     Node 2, Type 0, BuildingBlock: CEKHIL_clean_sbu_0, # of connection points: 4
#     Node 3, Type 0, BuildingBlock: CEKHIL_clean_sbu_0, # of connection points: 4
#     Node 4, Type 0, BuildingBlock: CEKHIL_clean_sbu_0, # of connection points: 4
#     Node 5, Type 0, BuildingBlock: CEKHIL_clean_sbu_0, # of connection points: 4
#     Node 6, Type 0, BuildingBlock: CEKHIL_clean_sbu_0, # of connection points: 4
#     Node 7, Type 0, BuildingBlock: CEKHIL_clean_sbu_0, # of connection points: 4
#     Node 8, Type 0, BuildingBlock: CEKHIL_clean_sbu_0, # of connection points: 4
#     Node 9, Type 0, BuildingBlock: CEKHIL_clean_sbu_0, # of connection points: 4
#     Node 10, Type 0, BuildingBlock: CEKHIL_clean_sbu_0, # of connection points: 4
#     Node 11, Type 0, BuildingBlock: CEKHIL_clean_sbu_0, # of connection points: 4
#     Node 12, Type 0, BuildingBlock: CEKHIL_clean_sbu_0, # of connection points: 4
#     Node 13, Type 0, BuildingBlock: CEKHIL_clean_sbu_0, # of connection points: 4
#     Node 14, Type 0, BuildingBlock: CEKHIL_clean_sbu_0, # of connection points: 4
#     Node 15, Type 0, BuildingBlock: CEKHIL_clean_sbu_0, # of connection points: 4
#     Node 16, Type 0, BuildingBlock: CEKHIL_clean_sbu_0, # of connection points: 4
#     Node 17, Type 0, BuildingBlock: CEKHIL_clean_sbu_0, # of connection points: 4
#     Node 18, Type 0, BuildingBlock: CEKHIL_clean_sbu_0, # of connection points: 4
#     Node 19, Type 0, BuildingBlock: CEKHIL_clean_sbu_0, # of connection points: 4
#     Node 20, Type 0, BuildingBlock: CEKHIL_clean_sbu_0, # of connection points: 4
#     Node 21, Type 0, BuildingBlock: CEKHIL_clean_sbu_0, # of connection points: 4
#     Node 22, Type 0, BuildingBlock: CEKHIL_clean_sbu_0, # of connection points: 4
#     Node 23, Type 0, BuildingBlock: CEKHIL_clean_sbu_0, # of connection points: 4
#     Node 24, Type 0, BuildingBlock: CEKHIL_clean_sbu_0, # of connection points: 4
#     Node 25, Type 0, BuildingBlock: CEKHIL_clean_sbu_0, # of connection points: 4
#     Node 26, Type 0, BuildingBlock: CEKHIL_clean_sbu_0, # of connection points: 4
#     Node 27, Type 0, BuildingBlock: CEKHIL_clean_sbu_0, # of connection points: 4
#     Node 28, Type 0, BuildingBlock: CEKHIL_clean_sbu_0, # of connection points: 4
#     Node 29, Type 0, BuildingBlock: CEKHIL_clean_sbu_0, # of connection points: 4
#     Node 30, Type 0, BuildingBlock: CEKHIL_clean_sbu_0, # of connection points: 4
#     Node 31, Type 0, BuildingBlock: CEKHIL_clean_sbu_0, # of connection points: 4
#     Edge 32, Type (0, 0), BuildingBlock: XIVTED_clean_linker_0, # of connection points: 2
#     Edge 33, Type (0, 0), BuildingBlock: XIVTED_clean_linker_0, # of connection points: 2
#     Edge 34, Type (0, 0), BuildingBlock: XIVTED_clean_linker_0, # of connection points: 2
#     Edge 35, Type (0, 0), BuildingBlock: XIVTED_clean_linker_0, # of connection points: 2
#     Edge 36, Type (0, 0), BuildingBlock: XIVTED_clean_linker_0, # of connection points: 2
#     Edge 37, Type (0, 0), BuildingBlock: XIVTED_clean_linker_0, # of connection points: 2
#     Edge 38, Type (0, 0), BuildingBlock: XIVTED_clean_linker_0, # of connection points: 2
#     Edge 39, Type (0, 0), BuildingBlock: XIVTED_clean_linker_0, # of connection points: 2
#     Edge 40, Type (0, 0), BuildingBlock: XIVTED_clean_linker_0, # of connection points: 2
#     Edge 41, Type (0, 0), BuildingBlock: XIVTED_clean_linker_0, # of connection points: 2
#     Edge 42, Type (0, 0), BuildingBlock: XIVTED_clean_linker_0, # of connection points: 2
#     Edge 43, Type (0, 0), BuildingBlock: XIVTED_clean_linker_0, # of connection points: 2
#     Edge 44, Type (0, 0), BuildingBlock: XIVTED_clean_linker_0, # of connection points: 2
#     Edge 45, Type (0, 0), BuildingBlock: XIVTED_clean_linker_0, # of connection points: 2
#     Edge 46, Type (0, 0), BuildingBlock: XIVTED_clean_linker_0, # of connection points: 2
#     Edge 47, Type (0, 0), BuildingBlock: XIVTED_clean_linker_0, # of connection points: 2
#     Edge 48, Type (0, 0), BuildingBlock: XIVTED_clean_linker_0, # of connection points: 2
#     Edge 49, Type (0, 0), BuildingBlock: XIVTED_clean_linker_0, # of connection points: 2
#     Edge 50, Type (0, 0), BuildingBlock: XIVTED_clean_linker_0, # of connection points: 2
#     Edge 51, Type (0, 0), BuildingBlock: XIVTED_clean_linker_0, # of connection points: 2
#     Edge 52, Type (0, 0), BuildingBlock: XIVTED_clean_linker_0, # of connection points: 2
#     Edge 53, Type (0, 0), BuildingBlock: XIVTED_clean_linker_0, # of connection points: 2
#     Edge 54, Type (0, 0), BuildingBlock: XIVTED_clean_linker_0, # of connection points: 2
#     Edge 55, Type (0, 0), BuildingBlock: XIVTED_clean_linker_0, # of connection points: 2
#     Edge 56, Type (0, 0), BuildingBlock: XIVTED_clean_linker_0, # of connection points: 2
#     Edge 57, Type (0, 0), BuildingBlock: XIVTED_clean_linker_0, # of connection points: 2
#     Edge 58, Type (0, 0), BuildingBlock: XIVTED_clean_linker_0, # of connection points: 2
#     Edge 59, Type (0, 0), BuildingBlock: XIVTED_clean_linker_0, # of connection points: 2
#     Edge 60, Type (0, 0), BuildingBlock: XIVTED_clean_linker_0, # of connection points: 2
#     Edge 61, Type (0, 0), BuildingBlock: XIVTED_clean_linker_0, # of connection points: 2
#     Edge 62, Type (0, 0), BuildingBlock: XIVTED_clean_linker_0, # of connection points: 2
#     Edge 63, Type (0, 0), BuildingBlock: XIVTED_clean_linker_0, # of connection points: 2
#     Edge 64, Type (0, 0), BuildingBlock: XIVTED_clean_linker_0, # of connection points: 2
#     Edge 65, Type (0, 0), BuildingBlock: XIVTED_clean_linker_0, # of connection points: 2
#     Edge 66, Type (0, 0), BuildingBlock: XIVTED_clean_linker_0, # of connection points: 2
#     Edge 67, Type (0, 0), BuildingBlock: XIVTED_clean_linker_0, # of connection points: 2
#     Edge 68, Type (0, 0), BuildingBlock: XIVTED_clean_linker_0, # of connection points: 2
#     Edge 69, Type (0, 0), BuildingBlock: XIVTED_clean_linker_0, # of connection points: 2
#     Edge 70, Type (0, 0), BuildingBlock: XIVTED_clean_linker_0, # of connection points: 2
#     Edge 71, Type (0, 0), BuildingBlock: XIVTED_clean_linker_0, # of connection points: 2
#     Edge 72, Type (0, 0), BuildingBlock: XIVTED_clean_linker_0, # of connection points: 2
#     Edge 73, Type (0, 0), BuildingBlock: XIVTED_clean_linker_0, # of connection points: 2
#     Edge 74, Type (0, 0), BuildingBlock: XIVTED_clean_linker_0, # of connection points: 2
#     Edge 75, Type (0, 0), BuildingBlock: XIVTED_clean_linker_0, # of connection points: 2
#     Edge 76, Type (0, 0), BuildingBlock: XIVTED_clean_linker_0, # of connection points: 2
#     Edge 77, Type (0, 0), BuildingBlock: XIVTED_clean_linker_0, # of connection points: 2
#     Edge 78, Type (0, 0), BuildingBlock: XIVTED_clean_linker_0, # of connection points: 2
#     Edge 79, Type (0, 0), BuildingBlock: XIVTED_clean_linker_0, # of connection points: 2
#     Edge 80, Type (0, 0), BuildingBlock: XIVTED_clean_linker_0, # of connection points: 2
#     Edge 81, Type (0, 0), BuildingBlock: XIVTED_clean_linker_0, # of connection points: 2
#     Edge 82, Type (0, 0), BuildingBlock: XIVTED_clean_linker_0, # of connection points: 2
#     Edge 83, Type (0, 0), BuildingBlock: XIVTED_clean_linker_0, # of connection points: 2
#     Edge 84, Type (0, 0), BuildingBlock: XIVTED_clean_linker_0, # of connection points: 2
#     Edge 85, Type (0, 0), BuildingBlock: XIVTED_clean_linker_0, # of connection points: 2
#     Edge 86, Type (0, 0), BuildingBlock: XIVTED_clean_linker_0, # of connection points: 2
#     Edge 87, Type (0, 0), BuildingBlock: XIVTED_clean_linker_0, # of connection points: 2
#     Edge 88, Type (0, 0), BuildingBlock: XIVTED_clean_linker_0, # of connection points: 2
#     Edge 89, Type (0, 0), BuildingBlock: XIVTED_clean_linker_0, # of connection points: 2
#     Edge 90, Type (0, 0), BuildingBlock: XIVTED_clean_linker_0, # of connection points: 2
#     Edge 91, Type (0, 0), BuildingBlock: XIVTED_clean_linker_0, # of connection points: 2
#     Edge 92, Type (0, 0), BuildingBlock: XIVTED_clean_linker_0, # of connection points: 2
#     Edge 93, Type (0, 0), BuildingBlock: XIVTED_clean_linker_0, # of connection points: 2
#     Edge 94, Type (0, 0), BuildingBlock: XIVTED_clean_linker_0, # of connection points: 2
#     Edge 95, Type (0, 0), BuildingBlock: XIVTED_clean_linker_0, # of connection points: 2
# Relax obj value: 0.244
# Max RMSD: 0.066
# Mean RMSD: 0.066
data_MOF--net-dei--node1-CEKHIL_clean_sbu_0--edge1-XIVTED_clean_linker_0
_symmetry_space_group_name_H-M    P1
_symmetry_Int_Tables_number       1
_symmetry_cell_setting            triclinic
loop_
_symmetry_equiv_pos_as_xyz
'x, y, z'
_cell_length_a     58.16542
_cell_length_b     58.177366
_cell_length_c     74.822417
_cell_angle_alpha  89.998382
_cell_angle_beta   89.997461
_cell_angle_gamma 89.995575
loop_
_atom_site_label
_atom_site_type_symbol
_atom_site_fract_x
_atom_site_fract_y
_atom_site_fract_z
_atom_type_partial_charge
Co0 Co 0.12492 0.62019 0.0266 0.0
O1 O 0.11953 0.58778 0.02865 0.0
O2 O 0.14259 0.60343 0.00857 0.0
C3 C 0.12957 0.62433 0.05632 0.0
O4 O 0.13533 0.6535 0.02142 0.0
Co5 Co 0.0929 0.65495 0.04564 0.0
O6 O 0.11919 0.67599 0.04245 0.0
C7 C 0.07835 0.63329 0.01159 0.0
C8 C 0.13383 0.5849 0.01563 0.0
C9 C 0.13362 0.67278 0.02993 0.0
O10 O 0.09785 0.62309 0.00982 0.0
O11 O 0.07293 0.64565 0.0251 0.0
O12 O 0.14688 0.61843 0.04636 0.0
O13 O 0.11018 0.62685 0.04822 0.0
Co14 Co 0.63402 0.8735 0.27474 0.0
O15 O 0.66535 0.86347 0.27629 0.0
O16 O 0.65292 0.88935 0.25695 0.0
C17 C 0.63049 0.87817 0.30456 0.0
O18 O 0.60209 0.88796 0.26993 0.0
Co19 Co 0.59568 0.84529 0.29373 0.0
O20 O 0.57816 0.87409 0.29101 0.0
C21 C 0.61546 0.82898 0.25943 0.0
C22 C 0.67004 0.87748 0.26339 0.0
C23 C 0.58274 0.88816 0.27849 0.0
O24 O 0.62752 0.84738 0.2577 0.0
O25 O 0.60275 0.82468 0.273 0.0
O26 O 0.63907 0.89451 0.29479 0.0
O27 O 0.62543 0.85947 0.2962 0.0
Co28 Co 0.38085 0.38535 0.52581 0.0
O29 O 0.38811 0.41732 0.52865 0.0
O30 O 0.36457 0.40376 0.50801 0.0
C31 C 0.37529 0.38002 0.55535 0.0
O32 O 0.36867 0.35284 0.5198 0.0
Co33 Co 0.41084 0.34804 0.54432 0.0
O34 O 0.38339 0.32881 0.54046 0.0
C35 C 0.42691 0.37016 0.51085 0.0
C36 C 0.37423 0.4215 0.51556 0.0
C37 C 0.36932 0.3332 0.52791 0.0
O38 O 0.40802 0.38149 0.50925 0.0
O39 O 0.43148 0.35693 0.52406 0.0
O40 O 0.35873 0.38789 0.54543 0.0
O41 O 0.39462 0.37667 0.54734 0.0
Co42 Co 0.87263 0.1308 0.77569 0.0
O43 O 0.84138 0.14076 0.77812 0.0
O44 O 0.85303 0.11533 0.75815 0.0
C45 C 0.87736 0.12548 0.80535 0.0
O46 O 0.90429 0.11637 0.76994 0.0
Co47 Co 0.91167 0.15871 0.79404 0.0
O48 O 0.92927 0.13015 0.79032 0.0
C49 C 0.89053 0.17565 0.76045 0.0
C50 C 0.83617 0.12704 0.76515 0.0
C51 C 0.92405 0.11618 0.77789 0.0
O52 O 0.87844 0.15725 0.75881 0.0
O53 O 0.90375 0.17974 0.77376 0.0
O54 O 0.86839 0.10936 0.79557 0.0
O55 O 0.88207 0.14437 0.79712 0.0
Co56 Co 0.12576 0.38492 0.96846 0.0
O57 O 0.11917 0.41709 0.96595 0.0
O58 O 0.14277 0.40269 0.98622 0.0
C59 C 0.13072 0.37985 0.93883 0.0
O60 O 0.13734 0.35211 0.97414 0.0
Co61 Co 0.09472 0.34847 0.94996 0.0
O62 O 0.12168 0.32846 0.95364 0.0
C63 C 0.07955 0.37068 0.98364 0.0
C64 C 0.13341 0.42076 0.97891 0.0
C65 C 0.13607 0.3325 0.96604 0.0
O66 O 0.09876 0.38143 0.98527 0.0
O67 O 0.07446 0.35783 0.97033 0.0
O68 O 0.1476 0.38722 0.94865 0.0
O69 O 0.11146 0.37681 0.947 0.0
Co70 Co 0.87345 0.87424 0.21901 0.0
O71 O 0.84238 0.86381 0.21639 0.0
O72 O 0.85346 0.88933 0.23649 0.0
C73 C 0.8784 0.87974 0.1894 0.0
O74 O 0.90487 0.88908 0.22496 0.0
Co75 Co 0.91304 0.8469 0.2008 0.0
O76 O 0.93025 0.87563 0.20474 0.0
C77 C 0.89171 0.82946 0.23417 0.0
C78 C 0.83685 0.87738 0.22938 0.0
C79 C 0.92473 0.88952 0.21714 0.0
O80 O 0.8795 0.84778 0.23584 0.0
O81 O 0.90507 0.8256 0.2209 0.0
O82 O 0.86908 0.89569 0.19915 0.0
O83 O 0.8833 0.86089 0.19761 0.0
Co84 Co 0.38163 0.62266 0.46903 0.0
O85 O 0.38864 0.59068 0.46572 0.0
O86 O 0.36547 0.604 0.48672 0.0
C87 C 0.3757 0.6288 0.43963 0.0
O88 O 0.36969 0.65506 0.47561 0.0
Co89 Co 0.41162 0.66025 0.45083 0.0
O90 O 0.38446 0.67966 0.45537 0.0
C91 C 0.42808 0.6371 0.48374 0.0
C92 C 0.37491 0.58634 0.47889 0.0
C93 C 0.37045 0.67495 0.46789 0.0
O94 O 0.40908 0.62596 0.48541 0.0
O95 O 0.43256 0.65056 0.47067 0.0
O96 O 0.35925 0.62071 0.44955 0.0
O97 O 0.39516 0.63181 0.44753 0.0
Co98 Co 0.63309 0.13008 0.72043 0.0
O99 O 0.66427 0.14043 0.71848 0.0
O100 O 0.65241 0.1148 0.73825 0.0
C101 C 0.62916 0.1248 0.69072 0.0
O102 O 0.60142 0.11537 0.72573 0.0
Co103 Co 0.59414 0.1575 0.70155 0.0
O104 O 0.57704 0.12852 0.70469 0.0
C105 C 0.61443 0.17477 0.73538 0.0
C106 C 0.66928 0.12676 0.73153 0.0
C107 C 0.58196 0.11476 0.71734 0.0
O108 O 0.62659 0.15645 0.73722 0.0
O109 O 0.60146 0.17868 0.72188 0.0
O110 O 0.63806 0.10873 0.70059 0.0
O111 O 0.62401 0.1436 0.69891 0.0
Co112 Co 0.88052 0.38468 0.97009 0.0
O113 O 0.88783 0.41669 0.9674 0.0
O114 O 0.86446 0.40295 0.98808 0.0
C115 C 0.87468 0.37963 0.94054 0.0
O116 O 0.86828 0.35215 0.97601 0.0
Co117 Co 0.91011 0.34736 0.95118 0.0
O118 O 0.88265 0.32818 0.95515 0.0
C119 C 0.92677 0.36929 0.98456 0.0
C120 C 0.87407 0.42076 0.98059 0.0
C121 C 0.86874 0.33255 0.96782 0.0
O122 O 0.9079 0.3806 0.98643 0.0
O123 O 0.9311 0.35618 0.97123 0.0
O124 O 0.85823 0.38747 0.95059 0.0
O125 O 0.89405 0.37613 0.94844 0.0
Co126 Co 0.37182 0.12762 0.71976 0.0
O127 O 0.33992 0.13507 0.71664 0.0
O128 O 0.35304 0.11134 0.73733 0.0
C129 C 0.37756 0.12225 0.69024 0.0
O130 O 0.40414 0.1152 0.72607 0.0
Co131 Co 0.40962 0.15747 0.70177 0.0
O132 O 0.42875 0.13 0.70586 0.0
C133 C 0.38679 0.17361 0.73491 0.0
C134 C 0.33546 0.12113 0.72965 0.0
C135 C 0.42399 0.11584 0.71827 0.0
O136 O 0.37551 0.15469 0.73645 0.0
O137 O 0.40019 0.17821 0.72182 0.0
O138 O 0.36947 0.10566 0.70003 0.0
O139 O 0.38092 0.14148 0.69837 0.0
Co140 Co 0.62735 0.62145 0.46886 0.0
O141 O 0.621 0.58927 0.46597 0.0
O142 O 0.64436 0.60347 0.48648 0.0
C143 C 0.63243 0.62723 0.43931 0.0
O144 O 0.63867 0.65421 0.47496 0.0
Co145 Co 0.59599 0.65799 0.45068 0.0
O146 O 0.62254 0.67833 0.45498 0.0
C147 C 0.58082 0.6348 0.48395 0.0
C148 C 0.63514 0.58547 0.47898 0.0
C149 C 0.63705 0.67406 0.46726 0.0
O150 O 0.60024 0.62441 0.48561 0.0
O151 O 0.57563 0.64774 0.47072 0.0
O152 O 0.64931 0.61968 0.44906 0.0
O153 O 0.61311 0.62993 0.44747 0.0
Co154 Co 0.13417 0.87613 0.22026 0.0
O155 O 0.16601 0.86805 0.21772 0.0
O156 O 0.15273 0.89188 0.23826 0.0
C157 C 0.12953 0.8819 0.19066 0.0
O158 O 0.10186 0.88907 0.22602 0.0
Co159 Co 0.09626 0.84747 0.20124 0.0
O160 O 0.07807 0.87574 0.20467 0.0
C161 C 0.11708 0.83067 0.23503 0.0
C162 C 0.17035 0.88183 0.23084 0.0
C163 C 0.08246 0.88933 0.21754 0.0
O164 O 0.12924 0.84903 0.23671 0.0
O165 O 0.10386 0.82665 0.22171 0.0
O166 O 0.13763 0.89822 0.2007 0.0
O167 O 0.12548 0.86267 0.19861 0.0
Co168 Co 0.87998 0.62233 0.02624 0.0
O169 O 0.88733 0.59035 0.029 0.0
O170 O 0.86385 0.60396 0.00834 0.0
C171 C 0.87429 0.6275 0.05579 0.0
O172 O 0.86769 0.65482 0.02024 0.0
Co173 Co 0.90965 0.65975 0.04487 0.0
O174 O 0.88217 0.67893 0.04095 0.0
C175 C 0.92612 0.63766 0.01151 0.0
C176 C 0.87354 0.5862 0.01584 0.0
C177 C 0.8682 0.67448 0.02834 0.0
O178 O 0.90725 0.62633 0.00979 0.0
O179 O 0.93053 0.65088 0.02476 0.0
O180 O 0.8578 0.61963 0.0458 0.0
O181 O 0.89363 0.63099 0.04783 0.0
Co182 Co 0.13405 0.12965 0.77554 0.0
O183 O 0.166 0.13701 0.77846 0.0
O184 O 0.1526 0.11338 0.75782 0.0
C185 C 0.12867 0.1241 0.80508 0.0
O186 O 0.10162 0.11736 0.76943 0.0
Co187 Co 0.09647 0.15935 0.79392 0.0
O188 O 0.07761 0.13157 0.7903 0.0
C189 C 0.11871 0.17561 0.76055 0.0
C190 C 0.17029 0.12306 0.76543 0.0
C191 C 0.08203 0.11766 0.77764 0.0
O192 O 0.13017 0.1568 0.75896 0.0
O193 O 0.10537 0.18008 0.77371 0.0
O194 O 0.13659 0.10757 0.79517 0.0
O195 O 0.12524 0.14341 0.79706 0.0
Co196 Co 0.625 0.38614 0.52653 0.0
O197 O 0.6199 0.4186 0.52854 0.0
O198 O 0.64303 0.40272 0.50862 0.0
C199 C 0.62924 0.38196 0.55628 0.0
O200 O 0.6351 0.35272 0.52142 0.0
Co201 Co 0.5925 0.35164 0.54534 0.0
O202 O 0.61892 0.33063 0.54266 0.0
C203 C 0.57858 0.37333 0.51113 0.0
C204 C 0.63436 0.42134 0.51561 0.0
C205 C 0.63336 0.33358 0.53011 0.0
O206 O 0.59811 0.3835 0.50956 0.0
O207 O 0.57292 0.36093 0.52456 0.0
O208 O 0.64673 0.38769 0.54646 0.0
O209 O 0.60993 0.37961 0.54804 0.0
Co210 Co 0.3723 0.87469 0.27597 0.0
O211 O 0.3404 0.86674 0.27838 0.0
O212 O 0.35388 0.89079 0.25807 0.0
C213 C 0.37685 0.88002 0.30562 0.0
O214 O 0.40467 0.8876 0.27036 0.0
Co215 Co 0.41004 0.84561 0.29483 0.0
O216 O 0.42862 0.8736 0.29137 0.0
C217 C 0.3891 0.82926 0.26094 0.0
C218 C 0.33618 0.88073 0.26536 0.0
C219 C 0.42418 0.88748 0.2787 0.0
O220 O 0.37713 0.84776 0.25931 0.0
O221 O 0.40222 0.82503 0.27429 0.0
O222 O 0.36886 0.89652 0.29571 0.0
O223 O 0.38086 0.8609 0.29752 0.0
Co224 Co 0.62379 0.12121 0.52763 0.0
O225 O 0.61681 0.08913 0.53014 0.0
O226 O 0.64034 0.10323 0.50971 0.0
C227 C 0.62912 0.12622 0.55723 0.0
O228 O 0.63565 0.15392 0.52192 0.0
Co229 Co 0.59335 0.15799 0.54642 0.0
O230 O 0.62066 0.17751 0.54278 0.0
C231 C 0.57777 0.13639 0.51259 0.0
C232 C 0.63079 0.08528 0.51705 0.0
C233 C 0.63477 0.17345 0.53018 0.0
O234 O 0.59669 0.12511 0.51099 0.0
O235 O 0.57303 0.14937 0.52591 0.0
O236 O 0.64581 0.11859 0.54733 0.0
O237 O 0.60983 0.12948 0.54917 0.0
Co238 Co 0.13364 0.3745 0.77592 0.0
O239 O 0.16558 0.36705 0.77883 0.0
O240 O 0.15222 0.39064 0.75814 0.0
C241 C 0.12821 0.38013 0.80544 0.0
O242 O 0.10124 0.38686 0.76979 0.0
Co243 Co 0.09601 0.34484 0.79441 0.0
O244 O 0.07696 0.37237 0.79038 0.0
C245 C 0.11819 0.3285 0.76102 0.0
C246 C 0.16989 0.38091 0.76574 0.0
C247 C 0.08152 0.38635 0.7778 0.0
O248 O 0.12967 0.3473 0.75939 0.0
O249 O 0.10489 0.32409 0.77422 0.0
O250 O 0.13626 0.39662 0.79553 0.0
O251 O 0.12476 0.36083 0.79743 0.0
Co252 Co 0.8824 0.88409 0.02608 0.0
O253 O 0.89261 0.91534 0.02788 0.0
O254 O 0.86699 0.90325 0.00821 0.0
C255 C 0.87724 0.88027 0.05583 0.0
O256 O 0.86783 0.85231 0.02092 0.0
Co257 Co 0.91009 0.84539 0.04508 0.0
O258 O 0.88122 0.82808 0.04198 0.0
C259 C 0.92708 0.86545 0.01107 0.0
C260 C 0.87891 0.92021 0.01483 0.0
C261 C 0.86739 0.83287 0.02934 0.0
O262 O 0.90875 0.8776 0.00926 0.0
O263 O 0.93109 0.85257 0.0246 0.0
O264 O 0.86109 0.88906 0.04596 0.0
O265 O 0.89604 0.87519 0.04761 0.0
Co266 Co 0.37203 0.63224 0.2764 0.0
O267 O 0.34074 0.64221 0.27824 0.0
O268 O 0.35285 0.61637 0.25876 0.0
C269 C 0.37589 0.62756 0.30619 0.0
O270 O 0.40393 0.61784 0.27136 0.0
Co271 Co 0.41048 0.66059 0.29508 0.0
O272 O 0.428 0.6318 0.2923 0.0
C273 C 0.39035 0.67676 0.26087 0.0
C274 C 0.33583 0.62822 0.26539 0.0
C275 C 0.42335 0.6177 0.27982 0.0
O276 O 0.37826 0.65836 0.25929 0.0
O277 O 0.40323 0.68112 0.27433 0.0
O278 O 0.36729 0.6112 0.29646 0.0
O279 O 0.38082 0.64629 0.29781 0.0
Co280 Co 0.62559 0.88523 0.4675 0.0
O281 O 0.61851 0.91726 0.46464 0.0
O282 O 0.64149 0.90349 0.48559 0.0
C283 C 0.63179 0.87989 0.43803 0.0
O284 O 0.63745 0.85266 0.47368 0.0
Co285 Co 0.59607 0.84793 0.44851 0.0
O286 O 0.6237 0.82893 0.45245 0.0
C287 C 0.57925 0.8699 0.48184 0.0
C288 C 0.63206 0.92131 0.47797 0.0
C289 C 0.63725 0.83314 0.46538 0.0
O290 O 0.59801 0.88138 0.48366 0.0
O291 O 0.57505 0.85662 0.46859 0.0
O292 O 0.64815 0.88774 0.44816 0.0
O293 O 0.61229 0.8766 0.4458 0.0
Co294 Co 0.3706 0.37256 0.71828 0.0
O295 O 0.33852 0.36569 0.71553 0.0
O296 O 0.35246 0.38896 0.7362 0.0
C297 C 0.37585 0.37824 0.68875 0.0
O298 O 0.40331 0.38425 0.72423 0.0
Co299 Co 0.40749 0.34232 0.69946 0.0
O300 O 0.42679 0.3698 0.7031 0.0
C301 C 0.38555 0.32632 0.73304 0.0
C302 C 0.33456 0.37957 0.72866 0.0
C303 C 0.42278 0.38365 0.71587 0.0
O304 O 0.37428 0.34524 0.73473 0.0
O305 O 0.39868 0.32175 0.71978 0.0
O306 O 0.36818 0.39482 0.69874 0.0
O307 O 0.37901 0.35883 0.69668 0.0
Co308 Co 0.88267 0.1229 0.96863 0.0
O309 O 0.89267 0.09161 0.96649 0.0
O310 O 0.86705 0.1035 0.98623 0.0
C311 C 0.87769 0.12728 0.93891 0.0
O312 O 0.86824 0.15465 0.9741 0.0
Co313 Co 0.91063 0.16181 0.95016 0.0
O314 O 0.8818 0.17918 0.95332 0.0
C315 C 0.92733 0.14108 0.98401 0.0
C316 C 0.87884 0.08655 0.97942 0.0
C317 C 0.8679 0.17423 0.96586 0.0
O318 O 0.90897 0.12893 0.98561 0.0
O319 O 0.93145 0.15422 0.97065 0.0
O320 O 0.86145 0.11842 0.94863 0.0
O321 O 0.89647 0.13212 0.94723 0.0
Co322 Co 0.13348 0.63282 0.21913 0.0
O323 O 0.16495 0.64226 0.21765 0.0
O324 O 0.15195 0.61706 0.2373 0.0
C325 C 0.13062 0.62765 0.18937 0.0
O326 O 0.10128 0.61902 0.22392 0.0
Co327 Co 0.09596 0.66083 0.19946 0.0
O328 O 0.07801 0.6323 0.20223 0.0
C329 C 0.11516 0.67777 0.23377 0.0
C330 C 0.16929 0.62858 0.23081 0.0
C331 C 0.08215 0.61863 0.2151 0.0
O332 O 0.12725 0.65943 0.23575 0.0
O333 O 0.10254 0.68177 0.22009 0.0
O334 O 0.13819 0.61115 0.19947 0.0
O335 O 0.12579 0.64667 0.19735 0.0
Co336 Co 0.37976 0.88587 0.46856 0.0
O337 O 0.38656 0.91795 0.4657 0.0
O338 O 0.36343 0.90401 0.48648 0.0
C339 C 0.37401 0.8805 0.43904 0.0
O340 O 0.36815 0.85321 0.47468 0.0
Co341 Co 0.40987 0.84885 0.4498 0.0
O342 O 0.38246 0.82951 0.45366 0.0
C343 C 0.42612 0.87115 0.48316 0.0
C344 C 0.37276 0.9219 0.4789 0.0
C345 C 0.3687 0.83365 0.46647 0.0
O346 O 0.40716 0.88232 0.48493 0.0
O347 O 0.43065 0.85798 0.46991 0.0
O348 O 0.35743 0.88815 0.44904 0.0
O349 O 0.39343 0.87736 0.44696 0.0
Co350 Co 0.8712 0.63115 0.2189 0.0
O351 O 0.83922 0.63874 0.21644 0.0
O352 O 0.8529 0.61467 0.23666 0.0
C353 C 0.87609 0.62615 0.18923 0.0
O354 O 0.90369 0.61858 0.22451 0.0
Co355 Co 0.90858 0.6611 0.20034 0.0
O356 O 0.92771 0.6335 0.20393 0.0
C357 C 0.88709 0.67675 0.23419 0.0
C358 C 0.83512 0.62461 0.2294 0.0
C359 C 0.92331 0.61926 0.21636 0.0
O360 O 0.8756 0.65795 0.23575 0.0
O361 O 0.90009 0.68144 0.22087 0.0
O362 O 0.86816 0.60947 0.199 0.0
O363 O 0.87974 0.64525 0.19746 0.0
Co364 Co 0.12481 0.12108 0.96819 0.0
O365 O 0.11755 0.08905 0.96577 0.0
O366 O 0.14161 0.10297 0.98589 0.0
C367 C 0.12959 0.12594 0.93851 0.0
O368 O 0.137 0.15372 0.97373 0.0
Co369 Co 0.09444 0.15812 0.94969 0.0
O370 O 0.1222 0.17719 0.95275 0.0
C371 C 0.07932 0.1368 0.98377 0.0
C372 C 0.13182 0.08509 0.97865 0.0
C373 C 0.13634 0.17315 0.96533 0.0
O374 O 0.0981 0.12524 0.98515 0.0
O375 O 0.07446 0.14982 0.9705 0.0
O376 O 0.14642 0.11825 0.94824 0.0
O377 O 0.11048 0.12941 0.94679 0.0
Co378 Co 0.63491 0.3729 0.71911 0.0
O379 O 0.66715 0.36666 0.7169 0.0
O380 O 0.6523 0.39006 0.73709 0.0
C381 C 0.63075 0.37779 0.68941 0.0
O382 O 0.60188 0.38409 0.72447 0.0
Co383 Co 0.59919 0.34198 0.70006 0.0
O384 O 0.57894 0.36886 0.70334 0.0
C385 C 0.62014 0.32693 0.73427 0.0
C386 C 0.67054 0.38087 0.7299 0.0
C387 C 0.58253 0.38299 0.716 0.0
O388 O 0.63133 0.34589 0.73586 0.0
O389 O 0.60742 0.32197 0.72086 0.0
O390 O 0.63714 0.39489 0.69941 0.0
O391 O 0.62775 0.35844 0.69745 0.0
Co392 Co 0.38004 0.12206 0.52725 0.0
O393 O 0.38704 0.09 0.52989 0.0
O394 O 0.3632 0.10393 0.5096 0.0
C395 C 0.37524 0.1272 0.5569 0.0
O396 O 0.3681 0.15471 0.52143 0.0
Co397 Co 0.41055 0.15913 0.54546 0.0
O398 O 0.38294 0.17838 0.54225 0.0
C399 C 0.42582 0.13701 0.51175 0.0
C400 C 0.37284 0.08605 0.51695 0.0
C401 C 0.36881 0.17424 0.52968 0.0
O402 O 0.40687 0.12575 0.51035 0.0
O403 O 0.43072 0.15019 0.52491 0.0
O404 O 0.35836 0.1196 0.54717 0.0
O405 O 0.39438 0.1305 0.54862 0.0
Co406 Co 0.63398 0.63104 0.27619 0.0
O407 O 0.66596 0.63884 0.27826 0.0
O408 O 0.65202 0.61484 0.2581 0.0
C409 C 0.62994 0.62574 0.3059 0.0
O410 O 0.60146 0.61828 0.27094 0.0
Co411 Co 0.59673 0.66031 0.29543 0.0
O412 O 0.57796 0.6324 0.29219 0.0
C413 C 0.61709 0.67649 0.26128 0.0
C414 C 0.66989 0.62481 0.26521 0.0
C415 C 0.58211 0.61849 0.27949 0.0
O416 O 0.62898 0.65797 0.25957 0.0
O417 O 0.60421 0.68081 0.27475 0.0
O418 O 0.63766 0.6092 0.29589 0.0
O419 O 0.62588 0.64489 0.29784 0.0
Co420 Co 0.12475 0.88518 0.02752 0.0
O421 O 0.11778 0.91728 0.02978 0.0
O422 O 0.14161 0.90298 0.00965 0.0
C423 C 0.12965 0.88058 0.05722 0.0
O424 O 0.13657 0.85235 0.02216 0.0
Co425 Co 0.09402 0.84871 0.04638 0.0
O426 O 0.12156 0.82931 0.04335 0.0
C427 C 0.07907 0.86967 0.01213 0.0
C428 C 0.132 0.92101 0.01683 0.0
C429 C 0.13569 0.83302 0.0307 0.0
O430 O 0.09793 0.88107 0.01065 0.0
O431 O 0.07412 0.85687 0.0255 0.0
O432 O 0.14649 0.88802 0.04739 0.0
O433 O 0.11047 0.87723 0.04901 0.0
Co434 Co 0.87111 0.374 0.77753 0.0
O435 O 0.8392 0.3663 0.78023 0.0
O436 O 0.85258 0.39018 0.75976 0.0
C437 C 0.87611 0.37943 0.80712 0.0
O438 O 0.90349 0.38658 0.77159 0.0
Co439 Co 0.90895 0.34484 0.79617 0.0
O440 O 0.9274 0.37293 0.79273 0.0
C441 C 0.88759 0.32851 0.76242 0.0
C442 C 0.8349 0.38032 0.76724 0.0
C443 C 0.92299 0.38659 0.77991 0.0
O444 O 0.87554 0.34697 0.7609 0.0
O445 O 0.90093 0.32431 0.77563 0.0
O446 O 0.86811 0.39595 0.79723 0.0
O447 O 0.87987 0.36023 0.79904 0.0
H448 H 0.14321 0.66143 0.16659 0.0
H449 H 0.09705 0.60855 0.07897 0.0
H450 H 0.1198 0.59111 0.16787 0.0
H451 H 0.16449 0.63935 0.07798 0.0
H452 H 0.09866 0.60759 0.11171 0.0
H453 H 0.14495 0.6595 0.13387 0.0
C454 C 0.13831 0.64563 0.15993 0.0
C455 C 0.13124 0.62639 0.16979 0.0
C456 C 0.11308 0.61447 0.10427 0.0
C457 C 0.13289 0.6243 0.13267 0.0
C458 C 0.11214 0.61522 0.0857 0.0
C459 C 0.13066 0.62415 0.07591 0.0
C460 C 0.13234 0.62339 0.11306 0.0
C461 C 0.14992 0.63235 0.08515 0.0
C462 C 0.13952 0.64452 0.14137 0.0
C463 C 0.12532 0.60625 0.16064 0.0
N464 N 0.15013 0.63215 0.10334 0.0
N465 N 0.1259 0.60582 0.14246 0.0
H466 H 0.66414 0.89926 0.41603 0.0
H467 H 0.60693 0.84986 0.3269 0.0
H468 H 0.60381 0.85611 0.41565 0.0
H469 H 0.65221 0.90861 0.32683 0.0
H470 H 0.60852 0.84915 0.35948 0.0
H471 H 0.66375 0.89937 0.3832 0.0
C472 C 0.65105 0.88954 0.40904 0.0
C473 C 0.63395 0.87769 0.4185 0.0
C474 C 0.618 0.8623 0.35237 0.0
C475 C 0.63328 0.87791 0.38119 0.0
C476 C 0.61705 0.86275 0.33378 0.0
C477 C 0.62941 0.87936 0.3242 0.0
C478 C 0.63165 0.87839 0.36146 0.0
C479 C 0.64231 0.89562 0.33376 0.0
C480 C 0.6507 0.8898 0.39035 0.0
C481 C 0.61726 0.86554 0.40885 0.0
N482 N 0.64325 0.89463 0.35191 0.0
N483 N 0.61733 0.86597 0.39073 0.0
H484 H 0.40005 0.35036 0.66656 0.0
H485 H 0.34318 0.39951 0.57745 0.0
H486 H 0.35545 0.40962 0.66654 0.0
H487 H 0.40404 0.3571 0.57773 0.0
H488 H 0.34402 0.40017 0.61025 0.0
H489 H 0.39921 0.35014 0.63396 0.0
C490 C 0.39028 0.36349 0.65966 0.0
C491 C 0.37783 0.38006 0.6692 0.0
C492 C 0.35711 0.39067 0.60309 0.0
C493 C 0.37638 0.37961 0.63194 0.0
C494 C 0.3565 0.39008 0.58442 0.0
C495 C 0.37358 0.37823 0.57493 0.0
C496 C 0.37475 0.37909 0.61222 0.0
C497 C 0.39058 0.36648 0.58456 0.0
C498 C 0.38975 0.36332 0.64106 0.0
C499 C 0.36541 0.39666 0.65963 0.0
N500 N 0.39073 0.36719 0.60268 0.0
N501 N 0.3648 0.39588 0.64146 0.0
H502 H 0.90575 0.15142 0.91672 0.0
H503 H 0.85704 0.09398 0.82751 0.0
H504 H 0.84717 0.10593 0.9165 0.0
H505 H 0.90075 0.15391 0.82776 0.0
H506 H 0.85628 0.09492 0.86029 0.0
H507 H 0.90645 0.1502 0.88412 0.0
C508 C 0.89288 0.14135 0.90978 0.0
C509 C 0.87635 0.12878 0.91928 0.0
C510 C 0.86609 0.10779 0.85314 0.0
C511 C 0.87733 0.12695 0.882 0.0
C512 C 0.86672 0.10713 0.83447 0.0
C513 C 0.87895 0.12392 0.82496 0.0
C514 C 0.878 0.12521 0.86227 0.0
C515 C 0.89105 0.14068 0.83459 0.0
C516 C 0.89333 0.14061 0.89118 0.0
C517 C 0.86011 0.11598 0.90964 0.0
N518 N 0.89026 0.14091 0.85272 0.0
N519 N 0.86112 0.11521 0.89149 0.0
H520 H 0.16288 0.39898 0.91659 0.0
H521 H 0.10356 0.35256 0.82757 0.0
H522 H 0.10109 0.35794 0.91653 0.0
H523 H 0.14946 0.41081 0.82775 0.0
H524 H 0.10481 0.35184 0.86016 0.0
H525 H 0.1615 0.40021 0.88381 0.0
C526 C 0.14924 0.38996 0.90966 0.0
C527 C 0.13206 0.37834 0.91922 0.0
C528 C 0.11446 0.36491 0.8531 0.0
C529 C 0.13026 0.37986 0.88195 0.0
C530 C 0.11369 0.36538 0.83451 0.0
C531 C 0.12639 0.3818 0.82501 0.0
C532 C 0.12832 0.38076 0.86225 0.0
C533 C 0.13929 0.39798 0.83463 0.0
C534 C 0.14832 0.39088 0.89101 0.0
C535 C 0.11464 0.36713 0.90965 0.0
N536 N 0.14013 0.39691 0.85278 0.0
N537 N 0.11419 0.36816 0.89154 0.0
H538 H 0.8458 0.90088 0.07792 0.0
H539 H 0.90325 0.85232 0.16721 0.0
H540 H 0.90572 0.85715 0.07834 0.0
H541 H 0.85692 0.91025 0.16705 0.0
H542 H 0.90232 0.85188 0.13461 0.0
H543 H 0.84672 0.9018 0.11071 0.0
C544 C 0.85895 0.89125 0.08492 0.0
C545 C 0.87572 0.87894 0.07545 0.0
C546 C 0.89248 0.86481 0.14167 0.0
C547 C 0.877 0.88007 0.11276 0.0
C548 C 0.89306 0.86511 0.16028 0.0
C549 C 0.88015 0.88135 0.1698 0.0
C550 C 0.87865 0.88069 0.1325 0.0
C551 C 0.86722 0.89751 0.16017 0.0
C552 C 0.8596 0.89196 0.10359 0.0
C553 C 0.8925 0.86691 0.08513 0.0
N554 N 0.86662 0.89665 0.14201 0.0
N555 N 0.89271 0.86777 0.10325 0.0
H556 H 0.40339 0.6535 0.41761 0.0
H557 H 0.35505 0.59641 0.32835 0.0
H558 H 0.3443 0.60868 0.41729 0.0
H559 H 0.39842 0.65659 0.32866 0.0
H560 H 0.35358 0.5978 0.3611 0.0
H561 H 0.4037 0.65292 0.385 0.0
C562 C 0.3903 0.64375 0.41064 0.0
C563 C 0.37379 0.63113 0.4201 0.0
C564 C 0.36344 0.61065 0.35397 0.0
C565 C 0.37434 0.62997 0.38283 0.0
C566 C 0.36448 0.60973 0.33532 0.0
C567 C 0.37689 0.62641 0.32584 0.0
C568 C 0.37511 0.62822 0.36311 0.0
C569 C 0.38863 0.64342 0.33548 0.0
C570 C 0.39053 0.64337 0.39204 0.0
C571 C 0.35724 0.61876 0.41044 0.0
N572 N 0.38748 0.64387 0.35359 0.0
N573 N 0.35808 0.61828 0.39228 0.0
H574 H 0.65064 0.09394 0.66865 0.0
H575 H 0.6006 0.14977 0.57937 0.0
H576 H 0.60545 0.15277 0.6682 0.0
H577 H 0.66068 0.10627 0.57957 0.0
H578 H 0.60011 0.14879 0.61195 0.0
H579 H 0.65177 0.09503 0.63587 0.0
C580 C 0.64073 0.10687 0.66164 0.0
C581 C 0.62794 0.1233 0.6711 0.0
C582 C 0.61353 0.1396 0.6049 0.0
C583 C 0.62932 0.12477 0.63381 0.0
C584 C 0.61385 0.1402 0.58631 0.0
C585 C 0.63073 0.1281 0.57681 0.0
C586 C 0.63 0.12651 0.61408 0.0
C587 C 0.64747 0.11596 0.58644 0.0
C588 C 0.64157 0.10763 0.64299 0.0
C589 C 0.61557 0.13981 0.66141 0.0
N590 N 0.64656 0.11527 0.60461 0.0
N591 N 0.61656 0.14012 0.6433 0.0
H592 H 0.90029 0.35149 0.82927 0.0
H593 H 0.84265 0.39952 0.91856 0.0
H594 H 0.85499 0.41021 0.82946 0.0
H595 H 0.9031 0.35654 0.91805 0.0
H596 H 0.8435 0.40047 0.88575 0.0
H597 H 0.89901 0.35074 0.86184 0.0
C598 C 0.89026 0.36439 0.83621 0.0
C599 C 0.87776 0.38097 0.82671 0.0
C600 C 0.85649 0.39077 0.89287 0.0
C601 C 0.87582 0.37993 0.86396 0.0
C602 C 0.85586 0.39002 0.91154 0.0
C603 C 0.87285 0.37795 0.92097 0.0
C604 C 0.87406 0.37914 0.88368 0.0
C605 C 0.88973 0.36611 0.91127 0.0
C606 C 0.88948 0.36391 0.85479 0.0
C607 C 0.865 0.39726 0.83634 0.0
N608 N 0.88991 0.367 0.89316 0.0
N609 N 0.86417 0.39621 0.85449 0.0
H610 H 0.35724 0.09092 0.66792 0.0
H611 H 0.40415 0.15034 0.57898 0.0
H612 H 0.40076 0.15098 0.66802 0.0
H613 H 0.34455 0.1062 0.57937 0.0
H614 H 0.40568 0.14817 0.61154 0.0
H615 H 0.35577 0.09271 0.63516 0.0
C616 C 0.36677 0.10424 0.66103 0.0
C617 C 0.37912 0.12085 0.67063 0.0
C618 C 0.39214 0.1391 0.60453 0.0
C619 C 0.37733 0.12313 0.63339 0.0
C620 C 0.39122 0.1404 0.58597 0.0
C621 C 0.37416 0.12848 0.57653 0.0
C622 C 0.37611 0.1255 0.61372 0.0
C623 C 0.35787 0.11579 0.5862 0.0
C624 C 0.36572 0.1054 0.64239 0.0
C625 C 0.39098 0.13788 0.66111 0.0
N626 N 0.35936 0.11444 0.60431 0.0
N627 N 0.38979 0.13859 0.64301 0.0
H628 H 0.60389 0.6513 0.41755 0.0
H629 H 0.65072 0.59417 0.32778 0.0
H630 H 0.66345 0.60712 0.41663 0.0
H631 H 0.60757 0.6545 0.32861 0.0
H632 H 0.65258 0.5954 0.36055 0.0
H633 H 0.60277 0.65035 0.38496 0.0
C634 C 0.6169 0.64161 0.41044 0.0
C635 C 0.6338 0.6293 0.41974 0.0
C636 C 0.64266 0.6083 0.35352 0.0
C637 C 0.63233 0.6277 0.38249 0.0
C638 C 0.64139 0.60746 0.33487 0.0
C639 C 0.62896 0.62426 0.32553 0.0
C640 C 0.63119 0.62589 0.36278 0.0
C641 C 0.61737 0.64124 0.33531 0.0
C642 C 0.61622 0.64102 0.39186 0.0
C643 C 0.65024 0.61698 0.40992 0.0
N644 N 0.61875 0.64161 0.3534 0.0
N645 N 0.64896 0.61628 0.39177 0.0
H646 H 0.15021 0.91344 0.1687 0.0
H647 H 0.10081 0.85734 0.0793 0.0
H648 H 0.10595 0.85393 0.16813 0.0
H649 H 0.16094 0.90076 0.07964 0.0
H650 H 0.10003 0.85856 0.11188 0.0
H651 H 0.15118 0.91259 0.13589 0.0
C652 C 0.14044 0.90043 0.16166 0.0
C653 C 0.12799 0.88372 0.17108 0.0
C654 C 0.11351 0.86769 0.10486 0.0
C655 C 0.12919 0.88252 0.13379 0.0
C656 C 0.114 0.86695 0.08627 0.0
C657 C 0.131 0.87893 0.07682 0.0
C658 C 0.12993 0.8808 0.11407 0.0
C659 C 0.14765 0.89116 0.08648 0.0
C660 C 0.1412 0.89981 0.143 0.0
C661 C 0.11581 0.8671 0.16136 0.0
N662 N 0.14659 0.89197 0.10464 0.0
N663 N 0.11671 0.86692 0.14325 0.0
H664 H 0.84234 0.60746 0.07775 0.0
H665 H 0.90019 0.65443 0.16728 0.0
H666 H 0.90293 0.65025 0.07836 0.0
H667 H 0.8551 0.59555 0.16667 0.0
H668 H 0.89891 0.65555 0.1347 0.0
H669 H 0.84337 0.60612 0.11054 0.0
C670 C 0.85563 0.61685 0.0848 0.0
C671 C 0.87259 0.62898 0.07539 0.0
C672 C 0.88943 0.64226 0.14166 0.0
C673 C 0.874 0.62734 0.11267 0.0
C674 C 0.89021 0.64157 0.16025 0.0
C675 C 0.87776 0.62484 0.16963 0.0
C676 C 0.87582 0.62631 0.13238 0.0
C677 C 0.86507 0.60862 0.15989 0.0
C678 C 0.85635 0.61587 0.10345 0.0
C679 C 0.88956 0.64065 0.08512 0.0
N680 N 0.86423 0.60988 0.14174 0.0
N681 N 0.88984 0.63954 0.10322 0.0
H682 H 0.14853 0.09217 0.82712 0.0
H683 H 0.10089 0.14958 0.91656 0.0
H684 H 0.1058 0.15281 0.82755 0.0
H685 H 0.16044 0.10536 0.91594 0.0
H686 H 0.09982 0.14831 0.88396 0.0
H687 H 0.14966 0.0932 0.8599 0.0
C688 C 0.13912 0.10547 0.83413 0.0
C689 C 0.12707 0.12245 0.82468 0.0
C690 C 0.11324 0.13902 0.89093 0.0
C691 C 0.12846 0.12384 0.86195 0.0
C692 C 0.1139 0.13979 0.90952 0.0
C693 C 0.13081 0.12759 0.9189 0.0
C694 C 0.1294 0.12566 0.88166 0.0
C695 C 0.14722 0.11514 0.90916 0.0
C696 C 0.13997 0.1062 0.85278 0.0
C697 C 0.11534 0.13943 0.83435 0.0
N698 N 0.14598 0.11429 0.89102 0.0
N699 N 0.11633 0.1397 0.85246 0.0
H700 H 0.59618 0.3967 0.57893 0.0
H701 H 0.64444 0.34456 0.66651 0.0
H702 H 0.66426 0.36733 0.57801 0.0
H703 H 0.61781 0.41373 0.66797 0.0
H704 H 0.64575 0.34657 0.63379 0.0
H705 H 0.59754 0.39729 0.61168 0.0
C706 C 0.61135 0.39025 0.58567 0.0
C707 C 0.63014 0.38186 0.57589 0.0
C708 C 0.63968 0.36127 0.64133 0.0
C709 C 0.63154 0.38219 0.61306 0.0
C710 C 0.63872 0.36011 0.65989 0.0
C711 C 0.6309 0.37901 0.66981 0.0
C712 C 0.63207 0.38119 0.63267 0.0
C713 C 0.62393 0.39885 0.6607 0.0
C714 C 0.61215 0.39079 0.60425 0.0
C715 C 0.64949 0.37392 0.58516 0.0
N716 N 0.62433 0.39933 0.64252 0.0
N717 N 0.64958 0.37393 0.60335 0.0
H718 H 0.40062 0.85196 0.32795 0.0
H719 H 0.342 0.90011 0.41687 0.0
H720 H 0.35534 0.91071 0.32783 0.0
H721 H 0.40253 0.85724 0.41675 0.0
H722 H 0.34307 0.90086 0.38405 0.0
H723 H 0.39883 0.85113 0.36051 0.0
C724 C 0.39049 0.86485 0.33482 0.0
C725 C 0.37816 0.88147 0.32524 0.0
C726 C 0.35602 0.89122 0.39125 0.0
C727 C 0.37565 0.88033 0.36247 0.0
C728 C 0.35527 0.89058 0.40992 0.0
C729 C 0.37223 0.87862 0.41947 0.0
C730 C 0.37368 0.87958 0.38218 0.0
C731 C 0.38918 0.86673 0.40988 0.0
C732 C 0.38942 0.86432 0.3534 0.0
C733 C 0.36524 0.89773 0.33477 0.0
N734 N 0.38948 0.86752 0.39177 0.0
N735 N 0.36414 0.89664 0.35292 0.0
H736 H 0.05929 0.66542 0.99012 0.0
H737 H 0.94454 0.59692 0.00052 0.0
H738 H 0.05521 0.59382 0.00426 0.0
H739 H 0.95117 0.67025 0.99453 0.0
H740 H 0.98382 0.59225 0.98908 0.0
H741 H 0.02025 0.66349 0.97823 0.0
C742 C 0.05044 0.64903 0.98999 0.0
C743 C 0.0602 0.62981 -0.00172 0.0
C744 C 0.97637 0.6093 0.98962 0.0
C745 C 0.01519 0.62772 0.98573 0.0
C746 C 0.95392 0.61193 0.99602 0.0
C747 C 0.94495 0.63402 -0.00127 0.0
C748 C 0.98971 0.62893 0.986 0.0
C749 C 0.95773 0.65296 0.99286 0.0
C750 C 0.02808 0.64794 0.98336 0.0
C751 C 0.0481 0.609 -0.00203 0.0
N752 N 0.97963 0.65002 0.98709 0.0
N753 N 0.02587 0.60865 0.99231 0.0
H754 H 0.65644 0.69694 0.24937 0.0
H755 H 0.58152 0.80709 0.24139 0.0
H756 H 0.58272 0.69886 0.24423 0.0
H757 H 0.65489 0.80769 0.24902 0.0
H758 H 0.58411 0.76801 0.22978 0.0
H759 H 0.65843 0.7361 0.23728 0.0
C760 C 0.64078 0.70524 0.24492 0.0
C761 C 0.61935 0.69502 0.24806 0.0
C762 C 0.59981 0.77682 0.23346 0.0
C763 C 0.62137 0.73969 0.23468 0.0
C764 C 0.5983 0.79921 0.23996 0.0
C765 C 0.61797 0.81032 0.24637 0.0
C766 C 0.621 0.7652 0.23415 0.0
C767 C 0.63932 0.7995 0.24427 0.0
C768 C 0.64188 0.72765 0.23815 0.0
C769 C 0.59954 0.70643 0.24224 0.0
N770 N 0.64022 0.77718 0.23888 0.0
N771 N 0.60098 0.72833 0.23616 0.0
H772 H 0.44552 0.41085 0.49997 0.0
H773 H 0.55941 0.34136 0.48957 0.0
H774 H 0.45142 0.33753 0.49346 0.0
H775 H 0.55599 0.41304 0.50356 0.0
H776 H 0.52054 0.3437 0.47742 0.0
H777 H 0.48475 0.41528 0.48838 0.0
C778 C 0.45472 0.3958 0.49532 0.0
C779 C 0.44558 0.37376 0.49794 0.0
C780 C 0.52848 0.35918 0.48257 0.0
C781 C 0.49029 0.37857 0.48506 0.0
C782 C 0.55075 0.35785 0.48936 0.0
C783 C 0.56063 0.37697 0.49769 0.0
C784 C 0.51578 0.37953 0.48485 0.0
C785 C 0.54878 0.39792 0.49725 0.0
C786 C 0.47715 0.39829 0.48884 0.0
C787 C 0.45812 0.35478 0.49187 0.0
N788 N 0.52661 0.39851 0.49146 0.0
N789 N 0.48001 0.35757 0.48603 0.0
H790 H 0.84803 0.30757 0.75147 0.0
H791 H 0.9238 0.19816 0.74211 0.0
H792 H 0.92153 0.30652 0.7446 0.0
H793 H 0.85064 0.19674 0.75085 0.0
H794 H 0.92051 0.23727 0.73067 0.0
H795 H 0.84605 0.26833 0.73954 0.0
C796 C 0.86361 0.29943 0.74667 0.0
C797 C 0.88502 0.30993 0.74928 0.0
C798 C 0.90499 0.22828 0.73457 0.0
C799 C 0.88304 0.26517 0.73608 0.0
C800 C 0.9069 0.20588 0.74098 0.0
C801 C 0.88751 0.19452 0.74763 0.0
C802 C 0.8837 0.23966 0.73559 0.0
C803 C 0.866 0.20513 0.74591 0.0
C804 C 0.86253 0.27698 0.74 0.0
C805 C 0.90474 0.29874 0.74302 0.0
N806 N 0.86473 0.22746 0.74058 0.0
N807 N 0.90334 0.27678 0.73704 0.0
H808 H 0.94635 0.40976 0.99487 0.0
H809 H 0.05936 0.33849 0.00447 0.0
H810 H 0.95091 0.33645 0.00198 0.0
H811 H 0.0572 0.41052 0.99139 0.0
H812 H 0.02045 0.3412 0.01649 0.0
H813 H 0.98591 0.41357 0.00591 0.0
C814 C 0.95534 0.3946 -0.00045 0.0
C815 C 0.94569 0.37273 0.99728 0.0
C816 C 0.02865 0.35665 0.01153 0.0
C817 C 0.99079 0.37681 0.00949 0.0
C818 C 0.05093 0.3551 0.00481 0.0
C819 C 0.06121 0.37425 0.99681 0.0
C820 C 0.01631 0.37727 0.00952 0.0
C821 C 0.04968 0.39537 0.99744 0.0
C822 C 0.97797 0.39673 0.00571 0.0
C823 C 0.95799 0.35358 0.00334 0.0
N824 N 0.02749 0.3962 0.00317 0.0
N825 N 0.98006 0.35601 0.00885 0.0
H826 H 0.85149 0.81094 0.24621 0.0
H827 H 0.92025 0.69599 0.25463 0.0
H828 H 0.92508 0.80412 0.25003 0.0
H829 H 0.84802 0.70013 0.24249 0.0
H830 H 0.91893 0.73506 0.26645 0.0
H831 H 0.8473 0.77162 0.25763 0.0
C832 C 0.86671 0.80151 0.25022 0.0
C833 C 0.88868 0.81044 0.24689 0.0
C834 C 0.90314 0.72726 0.26176 0.0
C835 C 0.88409 0.76564 0.25963 0.0
C836 C 0.90389 0.70488 0.25516 0.0
C837 C 0.88428 0.69512 0.24743 0.0
C838 C 0.88285 0.74017 0.25994 0.0
C839 C 0.86351 0.70724 0.24831 0.0
C840 C 0.86433 0.77902 0.25661 0.0
C841 C 0.90786 0.79759 0.25216 0.0
N842 N 0.86345 0.7295 0.25392 0.0
N843 N 0.90514 0.77568 0.25796 0.0
H844 H 0.44727 0.59615 0.49334 0.0
H845 H 0.56078 0.66612 0.50563 0.0
H846 H 0.45242 0.66918 0.50184 0.0
H847 H 0.55817 0.5948 0.49044 0.0
H848 H 0.52167 0.66319 0.51724 0.0
H849 H 0.48666 0.59164 0.5046 0.0
C850 C 0.45635 0.61108 0.49836 0.0
C851 C 0.44692 0.63311 0.49644 0.0
C852 C 0.52982 0.64791 0.51191 0.0
C853 C 0.49182 0.62823 0.50892 0.0
C854 C 0.55222 0.64957 0.50544 0.0
C855 C 0.56244 0.63073 0.49697 0.0
C856 C 0.51732 0.62752 0.50919 0.0
C857 C 0.55071 0.6097 0.49688 0.0
C858 C 0.47888 0.60855 0.50465 0.0
C859 C 0.45932 0.65195 0.50292 0.0
N860 N 0.52843 0.60881 0.50239 0.0
N861 N 0.4813 0.64914 0.50857 0.0
H862 H 0.65445 0.19278 0.7482 0.0
H863 H 0.58674 0.30854 0.7549 0.0
H864 H 0.58085 0.20059 0.75052 0.0
H865 H 0.65894 0.30327 0.74292 0.0
H866 H 0.58755 0.2697 0.76722 0.0
H867 H 0.65878 0.23214 0.75952 0.0
C868 C 0.63923 0.20244 0.75187 0.0
C869 C 0.61726 0.19378 0.74812 0.0
C870 C 0.60345 0.27723 0.76247 0.0
C871 C 0.62202 0.2386 0.76075 0.0
C872 C 0.60299 0.29947 0.75558 0.0
C873 C 0.62273 0.30882 0.74775 0.0
C874 C 0.62359 0.26404 0.76084 0.0
C875 C 0.64335 0.29647 0.74881 0.0
C876 C 0.64169 0.22494 0.7582 0.0
C877 C 0.59808 0.20691 0.75296 0.0
N878 N 0.64313 0.27435 0.75472 0.0
N879 N 0.60089 0.22883 0.75871 0.0
H880 H 0.34529 0.30619 0.74325 0.0
H881 H 0.41871 0.19517 0.75519 0.0
H882 H 0.41856 0.30347 0.75126 0.0
H883 H 0.34652 0.19532 0.74247 0.0
H884 H 0.41522 0.23433 0.76653 0.0
H885 H 0.34212 0.26695 0.75505 0.0
C886 C 0.36055 0.29769 0.74828 0.0
C887 C 0.38226 0.30773 0.74606 0.0
C888 C 0.39991 0.22566 0.76179 0.0
C889 C 0.37892 0.26299 0.75913 0.0
C890 C 0.40191 0.20323 0.75546 0.0
C891 C 0.38294 0.1923 0.74773 0.0
C892 C 0.379 0.23748 0.75965 0.0
C893 C 0.36155 0.20336 0.74829 0.0
C894 C 0.35879 0.27524 0.75487 0.0
C895 C 0.40156 0.29606 0.75257 0.0
N896 N 0.36027 0.22569 0.75361 0.0
N897 N 0.3995 0.27414 0.75849 0.0
H898 H 0.15454 0.6969 0.24684 0.0
H899 H 0.08317 0.81025 0.254 0.0
H900 H 0.08072 0.70209 0.24915 0.0
H901 H 0.15611 0.80779 0.24439 0.0
H902 H 0.08465 0.77109 0.26562 0.0
H903 H 0.15748 0.73615 0.25864 0.0
C904 C 0.13899 0.70595 0.2506 0.0
C905 C 0.11734 0.69661 0.24674 0.0
C906 C 0.10052 0.77927 0.26151 0.0
C907 C 0.1205 0.74133 0.25987 0.0
C908 C 0.09966 0.80168 0.25501 0.0
C909 C 0.11949 0.81195 0.24804 0.0
C910 C 0.12118 0.76681 0.26034 0.0
C911 C 0.14045 0.80027 0.24958 0.0
C912 C 0.14065 0.7284 0.2572 0.0
C913 C 0.09771 0.70896 0.2517 0.0
N914 N 0.14066 0.77796 0.25506 0.0
N915 N 0.09974 0.73086 0.25769 0.0
H916 H 0.08625 0.19665 0.74046 0.0
H917 H 0.15856 0.30865 0.75075 0.0
H918 H 0.1586 0.19778 0.75257 0.0
H919 H 0.08526 0.30506 0.74314 0.0
H920 H 0.16203 0.26925 0.73935 0.0
H921 H 0.08914 0.23568 0.72876 0.0
C922 C 0.10295 0.2049 0.73999 0.0
C923 C 0.12216 0.19427 0.74764 0.0
C924 C 0.14528 0.27737 0.73952 0.0
C925 C 0.12542 0.23932 0.73528 0.0
C926 C 0.14335 0.29992 0.74589 0.0
C927 C 0.12155 0.30977 0.74813 0.0
C928 C 0.12524 0.26484 0.73552 0.0
C929 C 0.10233 0.29781 0.74182 0.0
C930 C 0.10461 0.22725 0.73344 0.0
C931 C 0.1434 0.20557 0.74681 0.0
N932 N 0.10456 0.2758 0.73613 0.0
N933 N 0.14436 0.22783 0.74128 0.0
H934 H 0.42419 0.6984 0.24254 0.0
H935 H 0.34951 0.80871 0.24965 0.0
H936 H 0.35087 0.698 0.2505 0.0
H937 H 0.42311 0.80672 0.2436 0.0
H938 H 0.34729 0.76933 0.23807 0.0
H939 H 0.42153 0.73724 0.23045 0.0
C940 C 0.4074 0.70628 0.2411 0.0
C941 C 0.38777 0.6953 0.24773 0.0
C942 C 0.36386 0.77779 0.23862 0.0
C943 C 0.38467 0.74015 0.23493 0.0
C944 C 0.36508 0.80034 0.24509 0.0
C945 C 0.38657 0.81062 0.24785 0.0
C946 C 0.3843 0.76568 0.23507 0.0
C947 C 0.40626 0.79911 0.2419 0.0
C948 C 0.40586 0.72852 0.23432 0.0
C949 C 0.36641 0.70609 0.2456 0.0
N950 N 0.40471 0.77708 0.23613 0.0
N951 N 0.36548 0.72829 0.23991 0.0
H952 H 0.44678 0.16932 0.49146 0.0
H953 H 0.55798 0.09619 0.5019 0.0
H954 H 0.4474 0.09694 0.50343 0.0
H955 H 0.5549 0.16954 0.49453 0.0
H956 H 0.51876 0.093 0.49006 0.0
H957 H 0.48569 0.16612 0.47953 0.0
C958 C 0.45488 0.15255 0.4909 0.0
C959 C 0.44418 0.13343 0.4986 0.0
C960 C 0.52697 0.10971 0.49038 0.0
C961 C 0.48908 0.12981 0.48602 0.0
C962 C 0.54941 0.11148 0.497 0.0
C963 C 0.55932 0.1332 0.49944 0.0
C964 C 0.5146 0.12984 0.48634 0.0
C965 C 0.54758 0.15253 0.49307 0.0
C966 C 0.47716 0.15071 0.48423 0.0
C967 C 0.45527 0.11209 0.49765 0.0
N968 N 0.52566 0.15045 0.48713 0.0
N969 N 0.47748 0.11095 0.49202 0.0
H970 H 0.94547 0.9053 -0.00174 0.0
H971 H 0.06026 0.83622 0.99177 0.0
H972 H 0.9523 0.83164 0.99566 0.0
H973 H 0.05595 0.90864 0.0031 0.0
H974 H 0.02149 0.8374 0.97932 0.0
H975 H 0.98483 0.90918 0.98683 0.0
C976 C 0.95491 0.88998 0.9945 0.0
C977 C 0.94599 0.86811 -0.00179 0.0
C978 C 0.02921 0.85325 0.98397 0.0
C979 C 0.99082 0.87235 0.98548 0.0
C980 C 0.0514 0.85257 0.99094 0.0
C981 C 0.061 0.87229 -0.00138 0.0
C982 C 0.01629 0.87358 0.9854 0.0
C983 C 0.04895 0.89306 0.99733 0.0
C984 C 0.97741 0.89219 0.98811 0.0
C985 C 0.95883 0.84879 0.99325 0.0
N986 N 0.02684 0.89306 0.99138 0.0
N987 N 0.98077 0.85135 0.98746 0.0
H988 H 0.44691 0.83883 0.50351 0.0
H989 H 0.55967 0.91026 0.49249 0.0
H990 H 0.44866 0.91095 0.49069 0.0
H991 H 0.55525 0.83686 0.49915 0.0
H992 H 0.52035 0.91394 0.50409 0.0
H993 H 0.48614 0.84149 0.51488 0.0
C994 C 0.45533 0.85544 0.50377 0.0
C995 C 0.44483 0.87464 0.49601 0.0
C996 C 0.52829 0.89711 0.50364 0.0
C997 C 0.49006 0.8776 0.50798 0.0
C998 C 0.55076 0.89505 0.49716 0.0
C999 C 0.56036 0.87319 0.49461 0.0
C1000 C 0.51556 0.87714 0.5075 0.0
C1001 C 0.54819 0.85398 0.50069 0.0
C1002 C 0.47779 0.85696 0.51012 0.0
C1003 C 0.45636 0.89577 0.49654 0.0
N1004 N 0.52626 0.85635 0.50654 0.0
N1005 N 0.4787 0.89657 0.50189 0.0
H1006 H 0.0603 0.17003 0.00426 0.0
H1007 H 0.94566 0.10101 0.99647 0.0
H1008 H 0.05619 0.09772 0.99247 0.0
H1009 H 0.95236 0.17462 -6e-05 0.0
H1010 H 0.9849 0.09696 0.00809 0.0
H1011 H 0.02141 0.16868 0.01647 0.0
C1012 C 0.05146 0.15365 0.00494 0.0
C1013 C 0.06115 0.13403 0.99719 0.0
C1014 C 0.97748 0.11397 0.00696 0.0
C1015 C 0.01631 0.13256 0.01013 0.0
C1016 C 0.95504 0.11627 0.00046 0.0
C1017 C 0.94613 0.1382 0.99694 0.0
C1018 C 0.99084 0.13377 0.0099 0.0
C1019 C 0.95889 0.15743 0.0022 0.0
C1020 C 0.0292 0.15288 0.01177 0.0
C1021 C 0.04912 0.11323 -0.00171 0.0
N1022 N 0.98078 0.15479 0.00809 0.0
N1023 N 0.02695 0.11315 0.0041 0.0
H1024 H 0.14881 0.43667 0.01151 0.0
H1025 H 0.14581 0.56947 0.98201 0.0
H1026 H 0.12997 0.45921 0.95859 0.0
H1027 H 0.13468 0.54663 0.03615 0.0
H1028 H 0.15021 0.52902 0.97278 0.0
H1029 H 0.15373 0.47717 0.02033 0.0
C1030 C 0.14601 0.45009 0.00172 0.0
C1031 C 0.13869 0.44463 0.98439 0.0
C1032 C 0.14709 0.53298 0.98671 0.0
C1033 C 0.14457 0.49073 0.99422 0.0
C1034 C 0.14471 0.556 0.99196 0.0
C1035 C 0.13964 0.56131 0.0098 0.0
C1036 C 0.14484 0.51533 -0.00052 0.0
C1037 C 0.13829 0.54322 0.0222 0.0
C1038 C 0.14875 0.47315 0.00674 0.0
C1039 C 0.13531 0.46269 0.97218 0.0
N1040 N 0.14082 0.52107 0.01682 0.0
N1041 N 0.13824 0.48489 0.97732 0.0
H1042 H 0.80614 0.84275 0.22837 0.0
H1043 H 0.69375 0.9153 0.25045 0.0
H1044 H 0.81229 0.91401 0.24349 0.0
H1045 H 0.70085 0.84299 0.26183 0.0
H1046 H 0.73514 0.91668 0.24274 0.0
H1047 H 0.76538 0.84395 0.23566 0.0
C1048 C 0.79889 0.85868 0.23333 0.0
C1049 C 0.81264 0.87827 0.23544 0.0
C1050 C 0.72748 0.90057 0.24689 0.0
C1051 C 0.76566 0.87989 0.24352 0.0
C1052 C 0.70392 0.89972 0.25106 0.0
C1053 C 0.69393 0.87898 0.25671 0.0
C1054 C 0.74078 0.88042 0.24801 0.0
C1055 C 0.70786 0.85934 0.25756 0.0
C1056 C 0.7756 0.85934 0.23749 0.0
C1057 C 0.80228 0.89846 0.24189 0.0
N1058 N 0.73045 0.86052 0.25318 0.0
N1059 N 0.77926 0.89884 0.24557 0.0
H1060 H 0.37656 0.45923 0.53668 0.0
H1061 H 0.37802 0.54859 0.45776 0.0
H1062 H 0.36176 0.43863 0.48253 0.0
H1063 H 0.36152 0.56911 0.51164 0.0
H1064 H 0.37361 0.50834 0.46642 0.0
H1065 H 0.37255 0.49946 0.52789 0.0
C1066 C 0.37232 0.4632 0.52292 0.0
C1067 C 0.36964 0.44558 0.51026 0.0
C1068 C 0.37069 0.52162 0.47632 0.0
C1069 C 0.36533 0.49171 0.50008 0.0
C1070 C 0.37333 0.54461 0.47143 0.0
C1071 C 0.37029 0.56221 0.48406 0.0
C1072 C 0.36548 0.51607 0.49409 0.0
C1073 C 0.36403 0.55606 0.50151 0.0
C1074 C 0.36992 0.48618 0.51796 0.0
C1075 C 0.36396 0.4517 0.49268 0.0
N1076 N 0.36218 0.53345 0.5061 0.0
N1077 N 0.36235 0.47432 0.48803 0.0
H1078 H 0.81291 0.09023 0.75006 0.0
H1079 H 0.69871 0.16228 0.73393 0.0
H1080 H 0.80428 0.16059 0.76693 0.0
H1081 H 0.69445 0.0893 0.74336 0.0
H1082 H 0.73941 0.16129 0.74156 0.0
H1083 H 0.77141 0.08872 0.74282 0.0
C1084 C 0.80238 0.10536 0.75204 0.0
C1085 C 0.812 0.12558 0.75906 0.0
C1086 C 0.72962 0.14547 0.7421 0.0
C1087 C 0.76499 0.124 0.75087 0.0
C1088 C 0.70637 0.14603 0.73777 0.0
C1089 C 0.6932 0.12588 0.73816 0.0
C1090 C 0.74008 0.12451 0.74651 0.0
C1091 C 0.70402 0.10526 0.74314 0.0
C1092 C 0.77875 0.10442 0.74811 0.0
C1093 C 0.79759 0.14463 0.76159 0.0
N1094 N 0.727 0.10502 0.74696 0.0
N1095 N 0.77494 0.14341 0.75741 0.0
H1096 H 0.86043 0.56955 0.98285 0.0
H1097 H 0.86091 0.43731 0.01361 0.0
H1098 H 0.87666 0.54808 0.03655 0.0
H1099 H 0.87699 0.45892 0.95991 0.0
H1100 H 0.85701 0.47801 0.02226 0.0
H1101 H 0.85681 0.52882 0.9742 0.0
C1102 C 0.86293 0.55631 0.99283 0.0
C1103 C 0.86909 0.56214 0.01037 0.0
C1104 C 0.86119 0.47373 0.00856 0.0
C1105 C 0.86468 0.5158 0.00073 0.0
C1106 C 0.86333 0.45057 0.00363 0.0
C1107 C 0.86952 0.44479 0.98609 0.0
C1108 C 0.86478 0.49109 0.99574 0.0
C1109 C 0.87248 0.46265 0.97364 0.0
C1110 C 0.86096 0.53313 0.98791 0.0
C1111 C 0.87217 0.54431 0.02282 0.0
N1112 N 0.87007 0.48495 0.97869 0.0
N1113 N 0.86993 0.52198 0.01778 0.0
H1114 H 0.20793 0.12628 0.78661 0.0
H1115 H 0.29798 0.12366 0.70824 0.0
H1116 H 0.18763 0.10927 0.73278 0.0
H1117 H 0.31787 0.10883 0.76255 0.0
H1118 H 0.25761 0.11996 0.71677 0.0
H1119 H 0.2482 0.12157 0.77813 0.0
C1120 C 0.21197 0.12143 0.77299 0.0
C1121 C 0.19442 0.11832 0.76032 0.0
C1122 C 0.27077 0.11725 0.72679 0.0
C1123 C 0.2406 0.11315 0.7505 0.0
C1124 C 0.29383 0.11947 0.72198 0.0
C1125 C 0.31129 0.11669 0.73476 0.0
C1126 C 0.26502 0.11275 0.74464 0.0
C1127 C 0.30493 0.11109 0.7523 0.0
C1128 C 0.23497 0.11861 0.76821 0.0
C1129 C 0.20064 0.11184 0.74293 0.0
N1130 N 0.28226 0.10968 0.75681 0.0
N1131 N 0.22328 0.10982 0.73844 0.0
H1132 H 0.64662 0.43665 0.48201 0.0
H1133 H 0.65034 0.56941 0.51157 0.0
H1134 H 0.63547 0.4596 0.53612 0.0
H1135 H 0.63167 0.54709 0.45855 0.0
H1136 H 0.65501 0.52887 0.52036 0.0
H1137 H 0.65135 0.47707 0.47278 0.0
C1138 C 0.64558 0.45013 0.49196 0.0
C1139 C 0.64042 0.44487 0.50979 0.0
C1140 C 0.65012 0.53295 0.50675 0.0
C1141 C 0.64598 0.49081 0.49946 0.0
C1142 C 0.64753 0.55602 0.50175 0.0
C1143 C 0.64034 0.56156 0.4844 0.0
C1144 C 0.64591 0.51541 0.4942 0.0
C1145 C 0.63693 0.54354 0.47216 0.0
C1146 C 0.64815 0.47314 0.4867 0.0
C1147 C 0.63916 0.46297 0.52218 0.0
N1148 N 0.63971 0.52131 0.47728 0.0
N1149 N 0.64187 0.4851 0.5168 0.0
H1150 H 0.18732 0.89478 0.2638 0.0
H1151 H 0.31935 0.89412 0.23247 0.0
H1152 H 0.20833 0.87826 0.21003 0.0
H1153 H 0.29817 0.87741 0.28616 0.0
H1154 H 0.27856 0.89801 0.22403 0.0
H1155 H 0.22815 0.89812 0.27227 0.0
C1156 C 0.20048 0.89215 0.25376 0.0
C1157 C 0.19449 0.886 0.23626 0.0
C1158 C 0.28295 0.89369 0.23769 0.0
C1159 C 0.24093 0.89012 0.2457 0.0
C1160 C 0.30616 0.89156 0.2425 0.0
C1161 C 0.31209 0.88519 0.25997 0.0
C1162 C 0.26569 0.88995 0.25056 0.0
C1163 C 0.29432 0.88205 0.27247 0.0
C1164 C 0.22372 0.89397 0.25859 0.0
C1165 C 0.21222 0.88275 0.22374 0.0
N1166 N 0.27197 0.88448 0.26755 0.0
N1167 N 0.2346 0.88487 0.22868 0.0
H1168 H 0.62809 0.047 0.53758 0.0
H1169 H 0.62933 0.95955 0.45736 0.0
H1170 H 0.6441 0.06897 0.48396 0.0
H1171 H 0.64452 0.93781 0.51118 0.0
H1172 H 0.63321 0.9996 0.46668 0.0
H1173 H 0.63256 0.00701 0.52828 0.0
C1174 C 0.63269 0.04339 0.52383 0.0
C1175 C 0.63558 0.06133 0.51147 0.0
C1176 C 0.63596 0.9861 0.47642 0.0
C1177 C 0.64044 0.01547 0.5007 0.0
C1178 C 0.63363 0.96322 0.47115 0.0
C1179 C 0.63646 0.94533 0.48357 0.0
C1180 C 0.64064 0.99125 0.49435 0.0
C1181 C 0.6422 0.95109 0.5012 0.0
C1182 C 0.63536 0.02055 0.51858 0.0
C1183 C 0.64172 0.05565 0.4939 0.0
N1184 N 0.64374 0.9736 0.50615 0.0
N1185 N 0.6436 0.03316 0.48895 0.0
H1186 H 0.20769 0.3778 0.78678 0.0
H1187 H 0.29671 0.37762 0.70763 0.0
H1188 H 0.18706 0.39398 0.73287 0.0
H1189 H 0.3177 0.39247 0.76169 0.0
H1190 H 0.25656 0.38225 0.71649 0.0
H1191 H 0.24793 0.3818 0.778 0.0
C1192 C 0.21165 0.38233 0.77308 0.0
C1193 C 0.19401 0.38539 0.76048 0.0
C1194 C 0.26992 0.38476 0.72638 0.0
C1195 C 0.24016 0.38972 0.75031 0.0
C1196 C 0.29285 0.382 0.72139 0.0
C1197 C 0.31055 0.3845 0.734 0.0
C1198 C 0.26451 0.38954 0.74425 0.0
C1199 C 0.30457 0.39039 0.75157 0.0
C1200 C 0.23464 0.38473 0.76812 0.0
C1201 C 0.20014 0.39146 0.74298 0.0
N1202 N 0.28198 0.39234 0.75626 0.0
N1203 N 0.22275 0.39306 0.73833 0.0
H1204 H 0.91427 0.94989 0.01257 0.0
H1205 H 0.84197 0.06344 0.99459 0.0
H1206 H 0.84146 0.94503 0.00247 0.0
H1207 H 0.91248 0.05471 0.97811 0.0
H1208 H 0.84054 0.02208 0.0023 0.0
H1209 H 0.91317 0.99044 0.0045 0.0
C1210 C 0.89803 0.95738 0.00851 0.0
C1211 C 0.87796 0.94407 0.00805 0.0
C1212 C 0.85625 0.02936 0.997 0.0
C1213 C 0.87647 0.9908 -0.00083 0.0
C1214 C 0.85715 0.05291 0.99279 0.0
C1215 C 0.87739 0.06247 0.98574 0.0
C1216 C 0.8759 0.01562 0.99449 0.0
C1217 C 0.89651 0.04807 0.98346 0.0
C1218 C 0.89741 0.98054 0.00392 0.0
C1219 C 0.85736 0.95469 0.00276 0.0
N1220 N 0.89533 0.02551 0.98791 0.0
N1221 N 0.85706 0.9776 -0.00132 0.0
H1222 H 0.31239 0.59092 0.25108 0.0
H1223 H 0.1987 0.66388 0.23402 0.0
H1224 H 0.30434 0.66212 0.26585 0.0
H1225 H 0.19409 0.59076 0.24267 0.0
H1226 H 0.23927 0.66264 0.24178 0.0
H1227 H 0.27089 0.58947 0.24373 0.0
C1228 C 0.302 0.60624 0.25255 0.0
C1229 C 0.31178 0.62669 0.25903 0.0
C1230 C 0.22945 0.64683 0.24216 0.0
C1231 C 0.26477 0.62515 0.25077 0.0
C1232 C 0.20625 0.64754 0.23776 0.0
C1233 C 0.193 0.62743 0.23786 0.0
C1234 C 0.23983 0.62576 0.2464 0.0
C1235 C 0.2037 0.60669 0.2427 0.0
C1236 C 0.27836 0.60534 0.24857 0.0
C1237 C 0.29753 0.64598 0.26094 0.0
N1238 N 0.22667 0.60631 0.24662 0.0
N1239 N 0.2749 0.64476 0.25676 0.0
H1240 H 0.37549 0.04803 0.53776 0.0
H1241 H 0.375 0.95994 0.45807 0.0
H1242 H 0.35941 0.06942 0.48402 0.0
H1243 H 0.35988 0.93851 0.51197 0.0
H1244 H 0.37061 1.00002 0.46716 0.0
H1245 H 0.37108 0.00794 0.52871 0.0
C1246 C 0.37087 0.04426 0.52404 0.0
C1247 C 0.36797 0.06206 0.51156 0.0
C1248 C 0.36798 0.98658 0.47697 0.0
C1249 C 0.36319 0.0161 0.50108 0.0
C1250 C 0.3706 0.96369 0.47183 0.0
C1251 C 0.36796 0.94588 0.48434 0.0
C1252 C 0.36319 0.99183 0.49486 0.0
C1253 C 0.36207 0.95173 0.50193 0.0
C1254 C 0.36824 0.02136 0.51893 0.0
C1255 C 0.3618 0.05621 0.49403 0.0
N1256 N 0.36025 0.97426 0.50676 0.0
N1257 N 0.35999 0.03366 0.48922 0.0
H1258 H 0.68616 0.61177 0.23206 0.0
H1259 H 0.81863 0.61081 0.26227 0.0
H1260 H 0.70819 0.62759 0.28571 0.0
H1261 H 0.79688 0.62816 0.20884 0.0
H1262 H 0.77794 0.60704 0.271 0.0
H1263 H 0.72682 0.6079 0.22321 0.0
C1264 C 0.69951 0.61412 0.24199 0.0
C1265 C 0.69386 0.62025 0.25957 0.0
C1266 C 0.78218 0.61146 0.25733 0.0
C1267 C 0.7401 0.61552 0.2497 0.0
C1268 C 0.80534 0.61352 0.25236 0.0
C1269 C 0.81108 0.62006 0.23489 0.0
C1270 C 0.76478 0.61546 0.24462 0.0
C1271 C 0.79318 0.62339 0.22253 0.0
C1272 C 0.72264 0.612 0.23695 0.0
C1273 C 0.71182 0.62314 0.27194 0.0
N1274 N 0.77087 0.62105 0.22761 0.0
N1275 N 0.73409 0.62073 0.26679 0.0
H1276 H 0.13037 0.95904 0.03763 0.0
H1277 H 0.12876 0.04702 0.95792 0.0
H1278 H 0.14472 0.93747 0.98364 0.0
H1279 H 0.14575 0.06846 0.01148 0.0
H1280 H 0.13334 0.00694 0.96694 0.0
H1281 H 0.13479 0.99909 0.02848 0.0
C1282 C 0.13462 0.96276 0.02383 0.0
C1283 C 0.13702 0.94492 0.01132 0.0
C1284 C 0.13634 0.02037 0.97669 0.0
C1285 C 0.1418 0.99085 0.00072 0.0
C1286 C 0.1336 0.04327 0.9716 0.0
C1287 C 0.13671 0.06109 0.98403 0.0
C1288 C 0.1417 0.01512 0.99448 0.0
C1289 C 0.14318 0.05524 0.0015 0.0
C1290 C 0.13726 0.98564 0.01866 0.0
C1291 C 0.14273 0.95072 0.99368 0.0
N1292 N 0.14509 0.0327 0.0063 0.0
N1293 N 0.14454 0.97325 0.98882 0.0
H1294 H 0.79696 0.37567 0.78799 0.0
H1295 H 0.70826 0.38157 0.70881 0.0
H1296 H 0.81783 0.39545 0.73486 0.0
H1297 H 0.68708 0.39192 0.76343 0.0
H1298 H 0.74836 0.3858 0.71788 0.0
H1299 H 0.75678 0.3805 0.77934 0.0
C1300 C 0.79308 0.38114 0.77448 0.0
C1301 C 0.81077 0.38497 0.76206 0.0
C1302 C 0.73498 0.38746 0.72787 0.0
C1303 C 0.76467 0.39033 0.75204 0.0
C1304 C 0.71208 0.38495 0.72273 0.0
C1305 C 0.69435 0.38626 0.73543 0.0
C1306 C 0.74033 0.39075 0.74595 0.0
C1307 C 0.70025 0.39083 0.75324 0.0
C1308 C 0.77011 0.38403 0.76961 0.0
C1309 C 0.80472 0.39227 0.74483 0.0
N1310 N 0.72282 0.39251 0.75805 0.0
N1311 N 0.78213 0.39437 0.74023 0.0
H1312 H 0.13256 0.81097 -0.00144 0.0
H1313 H 0.16548 0.69601 0.04908 0.0
H1314 H 0.16571 0.80747 0.04992 0.0
H1315 H 0.12907 0.69736 -0.00098 0.0
H1316 H 0.17591 0.73634 0.04492 0.0
H1317 H 0.1411 0.77003 0.99392 0.0
C1318 C 0.14266 0.80186 0.00846 0.0
C1319 C 0.14859 0.81261 0.0246 0.0
C1320 C 0.1662 0.72776 0.03453 0.0
C1321 C 0.15771 0.76566 0.01972 0.0
C1322 C 0.16048 0.70462 0.03683 0.0
C1323 C 0.14662 0.69333 0.02429 0.0
C1324 C 0.15739 0.73997 0.01982 0.0
C1325 C 0.14009 0.70541 0.00886 0.0
C1326 C 0.14724 0.77839 0.00594 0.0
C1327 C 0.161 0.79984 0.03724 0.0
N1328 N 0.1451 0.72823 0.00723 0.0
N1329 N 0.16482 0.77703 0.03466 0.0
H1330 H 0.56106 0.8862 0.24618 0.0
H1331 H 0.44687 0.92066 0.29691 0.0
H1332 H 0.55808 0.91903 0.29767 0.0
H1333 H 0.44779 0.88312 0.24736 0.0
H1334 H 0.48708 0.93122 0.29229 0.0
H1335 H 0.52034 0.89566 0.24148 0.0
C1336 C 0.55216 0.89646 0.25609 0.0
C1337 C 0.56296 0.90198 0.2723 0.0
C1338 C 0.4784 0.92127 0.28209 0.0
C1339 C 0.51621 0.91214 0.26734 0.0
C1340 C 0.45531 0.91552 0.28463 0.0
C1341 C 0.44395 0.9012 0.27242 0.0
C1342 C 0.49051 0.91209 0.26746 0.0
C1343 C 0.45586 0.89448 0.25696 0.0
C1344 C 0.52879 0.90155 0.25353 0.0
C1345 C 0.55042 0.91463 0.28493 0.0
N1346 N 0.47865 0.89951 0.25511 0.0
N1347 N 0.52768 0.91893 0.28233 0.0
H1348 H 0.37161 0.19554 0.49722 0.0
H1349 H 0.33545 0.31102 0.5457 0.0
H1350 H 0.33848 0.19988 0.54855 0.0
H1351 H 0.37486 0.30888 0.49705 0.0
H1352 H 0.32529 0.27062 0.54155 0.0
H1353 H 0.36223 0.23616 0.49186 0.0
C1354 C 0.36135 0.20474 0.50697 0.0
C1355 C 0.35566 0.19436 0.5233 0.0
C1356 C 0.33556 0.27907 0.53142 0.0
C1357 C 0.34552 0.24093 0.51758 0.0
C1358 C 0.34108 0.30226 0.53368 0.0
C1359 C 0.35579 0.31333 0.5216 0.0
C1360 C 0.34537 0.26661 0.51723 0.0
C1361 C 0.36317 0.30103 0.50652 0.0
C1362 C 0.35628 0.22803 0.50403 0.0
C1363 C 0.34302 0.20723 0.53573 0.0
N1364 N 0.35833 0.27818 0.50496 0.0
N1365 N 0.33869 0.22987 0.53273 0.0
H1366 H 0.9467 0.08228 0.79537 0.0
H1367 H 0.06007 0.12062 0.74545 0.0
H1368 H 0.94691 0.12094 0.74635 0.0
H1369 H 0.05769 0.08611 0.7963 0.0
H1370 H 0.01961 0.11029 0.74044 0.0
H1371 H 0.98704 0.07239 0.79051 0.0
C1372 C 0.955 0.08776 0.78312 0.0
C1373 C 0.94342 0.10226 0.77117 0.0
C1374 C 0.02815 0.10424 0.75241 0.0
C1375 C 0.99011 0.09222 0.76599 0.0
C1376 C 0.05135 0.10987 0.75514 0.0
C1377 C 0.06222 0.10406 0.77126 0.0
C1378 C 0.0158 0.09286 0.76596 0.0
C1379 C 0.04995 0.09076 0.78364 0.0
C1380 C 0.97817 0.08242 0.78046 0.0
C1381 C 0.95515 0.10943 0.75575 0.0
N1382 N 0.02736 0.08593 0.78087 0.0
N1383 N 0.97802 0.10484 0.75381 0.0
H1384 H 0.13361 0.19496 0.99758 0.0
H1385 H 0.16904 0.30964 0.94775 0.0
H1386 H 0.16677 0.19837 0.94622 0.0
H1387 H 0.13095 0.30837 0.99705 0.0
H1388 H 0.17915 0.26926 0.95208 0.0
H1389 H 0.14294 0.23568 0.00249 0.0
C1390 C 0.14387 0.20398 0.98774 0.0
C1391 C 0.14957 0.1933 0.97152 0.0
C1392 C 0.16917 0.27789 0.96229 0.0
C1393 C 0.15963 0.24 0.97671 0.0
C1394 C 0.16367 0.30107 0.95991 0.0
C1395 C 0.14937 0.31238 0.97215 0.0
C1396 C 0.15974 0.26568 0.97677 0.0
C1397 C 0.14232 0.30032 0.98745 0.0
C1398 C 0.14891 0.22733 0.99041 0.0
C1399 C 0.16222 0.20595 0.95896 0.0
N1400 N 0.14713 0.27747 0.98913 0.0
N1401 N 0.1665 0.22866 0.96169 0.0
H1402 H 0.94697 0.92389 0.1999 0.0
H1403 H 0.06063 0.88632 0.24978 0.0
H1404 H 0.94753 0.88479 0.24871 0.0
H1405 H 0.05795 0.92087 0.19896 0.0
H1406 H 0.0201 0.89634 0.25481 0.0
H1407 H 0.98719 0.93417 0.20485 0.0
C1408 C 0.95529 0.9184 0.21213 0.0
C1409 C 0.94386 0.90366 0.22399 0.0
C1410 C 0.02858 0.90247 0.24285 0.0
C1411 C 0.99043 0.91416 0.22927 0.0
C1412 C 0.05183 0.89702 0.2401 0.0
C1413 C 0.06264 0.9029 0.22397 0.0
C1414 C 0.01613 0.91376 0.2293 0.0
C1415 C 0.05026 0.91615 0.21162 0.0
C1416 C 0.97841 0.92396 0.21484 0.0
C1417 C 0.95565 0.89648 0.23939 0.0
N1418 N 0.02763 0.9208 0.2144 0.0
N1419 N 0.97846 0.90131 0.24136 0.0
H1420 H 0.33565 0.69683 0.45097 0.0
H1421 H 0.37273 0.81237 0.49885 0.0
H1422 H 0.37695 0.69918 0.49865 0.0
H1423 H 0.33773 0.80797 0.44828 0.0
H1424 H 0.36374 0.7717 0.50437 0.0
H1425 H 0.32521 0.73711 0.45548 0.0
C1426 C 0.34165 0.70559 0.46287 0.0
C1427 C 0.35695 0.69464 0.47456 0.0
C1428 C 0.3573 0.77983 0.49235 0.0
C1429 C 0.34621 0.74122 0.47932 0.0
C1430 C 0.36215 0.80314 0.48933 0.0
C1431 C 0.35582 0.81352 0.47313 0.0
C1432 C 0.34613 0.76689 0.47903 0.0
C1433 C 0.34277 0.80061 0.46099 0.0
C1434 C 0.33597 0.72872 0.46533 0.0
C1435 C 0.3648 0.70695 0.48949 0.0
N1436 N 0.33867 0.77795 0.46405 0.0
N1437 N 0.35978 0.72974 0.49124 0.0
H1438 H 0.44603 0.08167 0.7007 0.0
H1439 H 0.56095 0.11722 0.74988 0.0
H1440 H 0.44793 0.12111 0.74933 0.0
H1441 H 0.55715 0.08333 0.69883 0.0
H1442 H 0.52036 0.10778 0.75513 0.0
H1443 H 0.48622 0.0709 0.70528 0.0
C1444 C 0.45467 0.08718 0.7128 0.0
C1445 C 0.44361 0.10208 0.72475 0.0
C1446 C 0.5286 0.10165 0.74307 0.0
C1447 C 0.49011 0.09095 0.72962 0.0
C1448 C 0.55191 0.10673 0.7402 0.0
C1449 C 0.56242 0.10093 0.72393 0.0
C1450 C 0.5158 0.09079 0.72951 0.0
C1451 C 0.5497 0.08798 0.7116 0.0
C1452 C 0.47774 0.08131 0.71531 0.0
C1453 C 0.45577 0.10929 0.73995 0.0
N1454 N 0.52702 0.0837 0.71449 0.0
N1455 N 0.47852 0.1041 0.74175 0.0
H1456 H 0.83478 0.3105 0.95003 0.0
H1457 H 0.87042 0.19502 -0.00151 0.0
H1458 H 0.87414 0.30817 -0.00131 0.0
H1459 H 0.83666 0.19936 0.94741 0.0
H1460 H 0.86107 0.2356 0.00394 0.0
H1461 H 0.82422 0.27022 0.95427 0.0
C1462 C 0.84033 0.30174 0.96206 0.0
C1463 C 0.85513 0.31272 0.97412 0.0
C1464 C 0.85495 0.22747 0.99182 0.0
C1465 C 0.84423 0.2661 0.97861 0.0
C1466 C 0.85997 0.20418 0.98884 0.0
C1467 C 0.85417 0.19381 0.97252 0.0
C1468 C 0.84413 0.24041 0.97833 0.0
C1469 C 0.84129 0.20668 0.96022 0.0
C1470 C 0.83457 0.2786 0.96437 0.0
C1471 C 0.86239 0.3004 0.98923 0.0
N1472 N 0.83705 0.22934 0.96324 0.0
N1473 N 0.85731 0.27759 0.99084 0.0
H1474 H 0.63332 0.81179 0.49776 0.0
H1475 H 0.67106 0.6965 0.44981 0.0
H1476 H 0.66846 0.80772 0.44723 0.0
H1477 H 0.63058 0.69849 0.49793 0.0
H1478 H 0.68104 0.73693 0.45413 0.0
H1479 H 0.6426 0.77118 0.50325 0.0
C1480 C 0.64398 0.80266 0.48824 0.0
C1481 C 0.65027 0.81311 0.47206 0.0
C1482 C 0.67056 0.72844 0.46411 0.0
C1483 C 0.66028 0.76654 0.47792 0.0
C1484 C 0.66514 0.70523 0.46175 0.0
C1485 C 0.65022 0.69411 0.47364 0.0
C1486 C 0.66043 0.74085 0.47819 0.0
C1487 C 0.64245 0.70639 0.48862 0.0
C1488 C 0.649 0.77937 0.49125 0.0
C1489 C 0.66344 0.80031 0.45992 0.0
N1490 N 0.64721 0.72925 0.49027 0.0
N1491 N 0.66769 0.77767 0.46296 0.0
H1492 H 0.8344 0.69678 0.04615 0.0
H1493 H 0.86987 0.81171 0.99685 0.0
H1494 H 0.87343 0.69854 0.99731 0.0
H1495 H 0.83615 0.80796 0.04798 0.0
H1496 H 0.86052 0.77108 0.99169 0.0
H1497 H 0.82385 0.73703 0.04169 0.0
C1498 C 0.83988 0.70541 0.03404 0.0
C1499 C 0.85459 0.69428 0.02199 0.0
C1500 C 0.85441 0.77934 0.00376 0.0
C1501 C 0.8437 0.74086 0.01724 0.0
C1502 C 0.85943 0.80267 0.00657 0.0
C1503 C 0.85365 0.81322 0.02283 0.0
C1504 C 0.8436 0.76656 0.01735 0.0
C1505 C 0.84078 0.80049 0.03521 0.0
C1506 C 0.83413 0.72853 0.0316 0.0
C1507 C 0.86175 0.70643 0.00677 0.0
N1508 N 0.83654 0.7778 0.03236 0.0
N1509 N 0.85669 0.72923 0.00503 0.0
H1510 H 0.63142 0.31112 0.49801 0.0
H1511 H 0.66765 0.19663 0.54831 0.0
H1512 H 0.66208 0.30781 0.55031 0.0
H1513 H 0.62937 0.19736 0.4991 0.0
H1514 H 0.67695 0.23722 0.54406 0.0
H1515 H 0.64114 0.27039 0.49339 0.0
C1516 C 0.64114 0.30209 0.50817 0.0
C1517 C 0.64609 0.3128 0.52453 0.0
C1518 C 0.66711 0.22843 0.53385 0.0
C1519 C 0.6567 0.26618 0.51959 0.0
C1520 C 0.66209 0.20513 0.53617 0.0
C1521 C 0.64794 0.1936 0.52395 0.0
C1522 C 0.65736 0.24051 0.51944 0.0
C1523 C 0.64064 0.20558 0.50868 0.0
C1524 C 0.64643 0.27877 0.50564 0.0
C1525 C 0.65809 0.30018 0.53747 0.0
N1526 N 0.64498 0.22853 0.50705 0.0
N1527 N 0.66271 0.27753 0.53483 0.0
H1528 H 0.94402 0.3834 0.74737 0.0
H1529 H 0.05949 0.42066 0.79521 0.0
H1530 H 0.94843 0.41763 0.79825 0.0
H1531 H 0.05727 0.38043 0.74698 0.0
H1532 H 0.0191 0.43085 0.79094 0.0
H1533 H 0.98455 0.39292 0.74175 0.0
C1534 C 0.9532 0.39392 0.75695 0.0
C1535 C 0.94288 0.39986 0.77326 0.0
C1536 C 0.02754 0.42039 0.78093 0.0
C1537 C 0.98937 0.41016 0.76724 0.0
C1538 C 0.05073 0.41486 0.78325 0.0
C1539 C 0.06176 0.3999 0.77133 0.0
C1540 C 0.01505 0.41035 0.76685 0.0
C1541 C 0.04944 0.39231 0.75632 0.0
C1542 C 0.97644 0.39908 0.75386 0.0
C1543 C 0.95574 0.41287 0.78546 0.0
N1544 N 0.02659 0.39716 0.75471 0.0
N1545 N 0.97834 0.41727 0.78234 0.0
H1546 H 0.44494 0.61973 0.24748 0.0
H1547 H 0.55932 0.58574 0.29808 0.0
H1548 H 0.44806 0.58681 0.29893 0.0
H1549 H 0.55826 0.62258 0.24822 0.0
H1550 H 0.51908 0.57517 0.29365 0.0
H1551 H 0.48567 0.61037 0.24273 0.0
C1552 C 0.45388 0.60946 0.25736 0.0
C1553 C 0.44311 0.6039 0.27358 0.0
C1554 C 0.52773 0.58498 0.28335 0.0
C1555 C 0.48988 0.59386 0.26858 0.0
C1556 C 0.55084 0.59074 0.28579 0.0
C1557 C 0.56217 0.60484 0.27342 0.0
C1558 C 0.51558 0.59395 0.26866 0.0
C1559 C 0.55021 0.61138 0.25794 0.0
C1560 C 0.47725 0.60443 0.25478 0.0
C1561 C 0.45569 0.59125 0.28619 0.0
N1562 N 0.52741 0.60635 0.25619 0.0
N1563 N 0.47844 0.58701 0.28356 0.0
H1564 H 0.44501 0.37973 0.74788 0.0
H1565 H 0.55908 0.41538 0.69751 0.0
H1566 H 0.44769 0.41483 0.69729 0.0
H1567 H 0.55853 0.3779 0.7471 0.0
H1568 H 0.51874 0.42549 0.7021 0.0
H1569 H 0.48584 0.38876 0.7526 0.0
C1570 C 0.4539 0.39034 0.7382 0.0
C1571 C 0.44298 0.39669 0.72223 0.0
C1572 C 0.52751 0.41562 0.7123 0.0
C1573 C 0.48981 0.40637 0.72717 0.0
C1574 C 0.55066 0.4101 0.70976 0.0
C1575 C 0.56217 0.396 0.72203 0.0
C1576 C 0.51551 0.40637 0.72696 0.0
C1577 C 0.55032 0.3891 0.73747 0.0
C1578 C 0.47731 0.39521 0.74076 0.0
C1579 C 0.45546 0.40978 0.70984 0.0
N1580 N 0.52748 0.3939 0.73931 0.0
N1581 N 0.47824 0.41386 0.71243 0.0
H1582 H 0.94562 0.58581 0.19817 0.0
H1583 H 0.06078 0.62066 0.24758 0.0
H1584 H 0.94747 0.62404 0.24738 0.0
H1585 H 0.05679 0.5883 0.19594 0.0
H1586 H 0.02014 0.61119 0.2527 0.0
H1587 H 0.98595 0.57538 0.2024 0.0
C1588 C 0.95429 0.59113 0.21031 0.0
C1589 C 0.94316 0.60559 0.22254 0.0
C1590 C 0.02835 0.60543 0.24051 0.0
C1591 C 0.98982 0.59487 0.22701 0.0
C1592 C 0.05167 0.61054 0.23771 0.0
C1593 C 0.06215 0.60516 0.22134 0.0
C1594 C 0.01552 0.59492 0.22681 0.0
C1595 C 0.04936 0.59265 0.20878 0.0
C1596 C 0.97745 0.58546 0.21261 0.0
C1597 C 0.95536 0.61256 0.23779 0.0
N1598 N 0.02669 0.58829 0.21164 0.0
N1599 N 0.97819 0.60759 0.2394 0.0
loop_
_geom_bond_atom_site_label_1
_geom_bond_atom_site_label_2
_geom_bond_distance
_geom_bond_site_symmetry_2
_ccdc_geom_bond_type
Co0 O1 2.216 . S
Co0 O2 2.091 . S
Co0 O4 2.004 . S
Co0 O10 2.021 . S
Co0 O12 2.137 . S
Co0 O13 2.244 . S
O1 Co0 2.216 . S
O1 C8 1.247 . S
O2 Co0 2.091 . S
O2 C8 1.261 . S
C3 O12 1.247 . S
C3 O13 1.272 . S
O4 Co0 2.004 . S
O4 C9 1.259 . S
Co5 O6 2.061 . S
Co5 O11 2.052 . S
Co5 O13 2.135 . S
O6 Co5 2.061 . S
O6 C9 1.235 . S
C7 O10 1.238 . S
C7 O11 1.241 . S
C8 O1 1.247 . S
C8 O2 1.261 . S
C9 O4 1.259 . S
C9 O6 1.235 . S
O10 Co0 2.021 . S
O10 C7 1.238 . S
O11 Co5 2.052 . S
O11 C7 1.241 . S
O12 Co0 2.137 . S
O12 C3 1.247 . S
O13 Co0 2.244 . S
O13 C3 1.272 . S
O13 Co5 2.135 . S
Co14 O15 2.216 . S
Co14 O16 2.091 . S
Co14 O18 2.004 . S
Co14 O24 2.021 . S
Co14 O26 2.137 . S
Co14 O27 2.244 . S
O15 Co14 2.216 . S
O15 C22 1.247 . S
O16 Co14 2.091 . S
O16 C22 1.261 . S
C17 O26 1.247 . S
C17 O27 1.272 . S
O18 Co14 2.004 . S
O18 C23 1.259 . S
Co19 O20 2.061 . S
Co19 O25 2.052 . S
Co19 O27 2.135 . S
O20 Co19 2.061 . S
O20 C23 1.235 . S
C21 O24 1.238 . S
C21 O25 1.241 . S
C22 O15 1.247 . S
C22 O16 1.261 . S
C23 O18 1.259 . S
C23 O20 1.235 . S
O24 Co14 2.021 . S
O24 C21 1.238 . S
O25 Co19 2.052 . S
O25 C21 1.241 . S
O26 Co14 2.137 . S
O26 C17 1.247 . S
O27 Co14 2.244 . S
O27 C17 1.272 . S
O27 Co19 2.135 . S
Co28 O29 2.216 . S
Co28 O30 2.091 . S
Co28 O32 2.004 . S
Co28 O38 2.021 . S
Co28 O40 2.137 . S
Co28 O41 2.244 . S
O29 Co28 2.216 . S
O29 C36 1.247 . S
O30 Co28 2.091 . S
O30 C36 1.261 . S
C31 O40 1.247 . S
C31 O41 1.272 . S
O32 Co28 2.004 . S
O32 C37 1.259 . S
Co33 O34 2.061 . S
Co33 O39 2.052 . S
Co33 O41 2.135 . S
O34 Co33 2.061 . S
O34 C37 1.235 . S
C35 O38 1.238 . S
C35 O39 1.241 . S
C36 O29 1.247 . S
C36 O30 1.261 . S
C37 O32 1.259 . S
C37 O34 1.235 . S
O38 Co28 2.021 . S
O38 C35 1.238 . S
O39 Co33 2.052 . S
O39 C35 1.241 . S
O40 Co28 2.137 . S
O40 C31 1.247 . S
O41 Co28 2.244 . S
O41 C31 1.272 . S
O41 Co33 2.135 . S
Co42 O43 2.216 . S
Co42 O44 2.091 . S
Co42 O46 2.004 . S
Co42 O52 2.021 . S
Co42 O54 2.137 . S
Co42 O55 2.244 . S
O43 Co42 2.216 . S
O43 C50 1.247 . S
O44 Co42 2.091 . S
O44 C50 1.261 . S
C45 O54 1.247 . S
C45 O55 1.272 . S
O46 Co42 2.004 . S
O46 C51 1.259 . S
Co47 O48 2.061 . S
Co47 O53 2.052 . S
Co47 O55 2.135 . S
O48 Co47 2.061 . S
O48 C51 1.235 . S
C49 O52 1.238 . S
C49 O53 1.241 . S
C50 O43 1.247 . S
C50 O44 1.261 . S
C51 O46 1.259 . S
C51 O48 1.235 . S
O52 Co42 2.021 . S
O52 C49 1.238 . S
O53 Co47 2.052 . S
O53 C49 1.241 . S
O54 Co42 2.137 . S
O54 C45 1.247 . S
O55 Co42 2.244 . S
O55 C45 1.272 . S
O55 Co47 2.135 . S
Co56 O57 2.216 . S
Co56 O58 2.091 . S
Co56 O60 2.004 . S
Co56 O66 2.021 . S
Co56 O68 2.137 . S
Co56 O69 2.244 . S
O57 Co56 2.216 . S
O57 C64 1.247 . S
O58 Co56 2.091 . S
O58 C64 1.261 . S
C59 O68 1.247 . S
C59 O69 1.272 . S
O60 Co56 2.004 . S
O60 C65 1.259 . S
Co61 O62 2.061 . S
Co61 O67 2.052 . S
Co61 O69 2.135 . S
O62 Co61 2.061 . S
O62 C65 1.235 . S
C63 O66 1.238 . S
C63 O67 1.241 . S
C64 O57 1.247 . S
C64 O58 1.261 . S
C65 O60 1.259 . S
C65 O62 1.235 . S
O66 Co56 2.021 . S
O66 C63 1.238 . S
O67 Co61 2.052 . S
O67 C63 1.241 . S
O68 Co56 2.137 . S
O68 C59 1.247 . S
O69 Co56 2.244 . S
O69 C59 1.272 . S
O69 Co61 2.135 . S
Co70 O71 2.216 . S
Co70 O72 2.091 . S
Co70 O74 2.004 . S
Co70 O80 2.021 . S
Co70 O82 2.137 . S
Co70 O83 2.244 . S
O71 Co70 2.216 . S
O71 C78 1.247 . S
O72 Co70 2.091 . S
O72 C78 1.261 . S
C73 O82 1.247 . S
C73 O83 1.272 . S
O74 Co70 2.004 . S
O74 C79 1.259 . S
Co75 O76 2.061 . S
Co75 O81 2.052 . S
Co75 O83 2.135 . S
O76 Co75 2.061 . S
O76 C79 1.235 . S
C77 O80 1.238 . S
C77 O81 1.241 . S
C78 O71 1.247 . S
C78 O72 1.261 . S
C79 O74 1.259 . S
C79 O76 1.235 . S
O80 Co70 2.021 . S
O80 C77 1.238 . S
O81 Co75 2.052 . S
O81 C77 1.241 . S
O82 Co70 2.137 . S
O82 C73 1.247 . S
O83 Co70 2.244 . S
O83 C73 1.272 . S
O83 Co75 2.135 . S
Co84 O85 2.216 . S
Co84 O86 2.091 . S
Co84 O88 2.004 . S
Co84 O94 2.021 . S
Co84 O96 2.137 . S
Co84 O97 2.244 . S
O85 Co84 2.216 . S
O85 C92 1.247 . S
O86 Co84 2.091 . S
O86 C92 1.261 . S
C87 O96 1.247 . S
C87 O97 1.272 . S
O88 Co84 2.004 . S
O88 C93 1.259 . S
Co89 O90 2.061 . S
Co89 O95 2.052 . S
Co89 O97 2.135 . S
O90 Co89 2.061 . S
O90 C93 1.235 . S
C91 O94 1.238 . S
C91 O95 1.241 . S
C92 O85 1.247 . S
C92 O86 1.261 . S
C93 O88 1.259 . S
C93 O90 1.235 . S
O94 Co84 2.021 . S
O94 C91 1.238 . S
O95 Co89 2.052 . S
O95 C91 1.241 . S
O96 Co84 2.137 . S
O96 C87 1.247 . S
O97 Co84 2.244 . S
O97 C87 1.272 . S
O97 Co89 2.135 . S
Co98 O99 2.216 . S
Co98 O100 2.091 . S
Co98 O102 2.004 . S
Co98 O108 2.021 . S
Co98 O110 2.137 . S
Co98 O111 2.244 . S
O99 Co98 2.216 . S
O99 C106 1.247 . S
O100 Co98 2.091 . S
O100 C106 1.261 . S
C101 O110 1.247 . S
C101 O111 1.272 . S
O102 Co98 2.004 . S
O102 C107 1.259 . S
Co103 O104 2.061 . S
Co103 O109 2.052 . S
Co103 O111 2.135 . S
O104 Co103 2.061 . S
O104 C107 1.235 . S
C105 O108 1.238 . S
C105 O109 1.241 . S
C106 O99 1.247 . S
C106 O100 1.261 . S
C107 O102 1.259 . S
C107 O104 1.235 . S
O108 Co98 2.021 . S
O108 C105 1.238 . S
O109 Co103 2.052 . S
O109 C105 1.241 . S
O110 Co98 2.137 . S
O110 C101 1.247 . S
O111 Co98 2.244 . S
O111 C101 1.272 . S
O111 Co103 2.135 . S
Co112 O113 2.216 . S
Co112 O114 2.091 . S
Co112 O116 2.004 . S
Co112 O122 2.021 . S
Co112 O124 2.137 . S
Co112 O125 2.244 . S
O113 Co112 2.216 . S
O113 C120 1.247 . S
O114 Co112 2.091 . S
O114 C120 1.261 . S
C115 O124 1.247 . S
C115 O125 1.272 . S
O116 Co112 2.004 . S
O116 C121 1.259 . S
Co117 O118 2.061 . S
Co117 O123 2.052 . S
Co117 O125 2.135 . S
O118 Co117 2.061 . S
O118 C121 1.235 . S
C119 O122 1.238 . S
C119 O123 1.241 . S
C120 O113 1.247 . S
C120 O114 1.261 . S
C121 O116 1.259 . S
C121 O118 1.235 . S
O122 Co112 2.021 . S
O122 C119 1.238 . S
O123 Co117 2.052 . S
O123 C119 1.241 . S
O124 Co112 2.137 . S
O124 C115 1.247 . S
O125 Co112 2.244 . S
O125 C115 1.272 . S
O125 Co117 2.135 . S
Co126 O127 2.216 . S
Co126 O128 2.091 . S
Co126 O130 2.004 . S
Co126 O136 2.021 . S
Co126 O138 2.137 . S
Co126 O139 2.244 . S
O127 Co126 2.216 . S
O127 C134 1.247 . S
O128 Co126 2.091 . S
O128 C134 1.261 . S
C129 O138 1.247 . S
C129 O139 1.272 . S
O130 Co126 2.004 . S
O130 C135 1.259 . S
Co131 O132 2.061 . S
Co131 O137 2.052 . S
Co131 O139 2.135 . S
O132 Co131 2.061 . S
O132 C135 1.235 . S
C133 O136 1.238 . S
C133 O137 1.241 . S
C134 O127 1.247 . S
C134 O128 1.261 . S
C135 O130 1.259 . S
C135 O132 1.235 . S
O136 Co126 2.021 . S
O136 C133 1.238 . S
O137 Co131 2.052 . S
O137 C133 1.241 . S
O138 Co126 2.137 . S
O138 C129 1.247 . S
O139 Co126 2.244 . S
O139 C129 1.272 . S
O139 Co131 2.135 . S
Co140 O141 2.216 . S
Co140 O142 2.091 . S
Co140 O144 2.004 . S
Co140 O150 2.021 . S
Co140 O152 2.137 . S
Co140 O153 2.244 . S
O141 Co140 2.216 . S
O141 C148 1.247 . S
O142 Co140 2.091 . S
O142 C148 1.261 . S
C143 O152 1.247 . S
C143 O153 1.272 . S
O144 Co140 2.004 . S
O144 C149 1.259 . S
Co145 O146 2.061 . S
Co145 O151 2.052 . S
Co145 O153 2.135 . S
O146 Co145 2.061 . S
O146 C149 1.235 . S
C147 O150 1.238 . S
C147 O151 1.241 . S
C148 O141 1.247 . S
C148 O142 1.261 . S
C149 O144 1.259 . S
C149 O146 1.235 . S
O150 Co140 2.021 . S
O150 C147 1.238 . S
O151 Co145 2.052 . S
O151 C147 1.241 . S
O152 Co140 2.137 . S
O152 C143 1.247 . S
O153 Co140 2.244 . S
O153 C143 1.272 . S
O153 Co145 2.135 . S
Co154 O155 2.216 . S
Co154 O156 2.091 . S
Co154 O158 2.004 . S
Co154 O164 2.021 . S
Co154 O166 2.137 . S
Co154 O167 2.244 . S
O155 Co154 2.216 . S
O155 C162 1.247 . S
O156 Co154 2.091 . S
O156 C162 1.261 . S
C157 O166 1.247 . S
C157 O167 1.272 . S
O158 Co154 2.004 . S
O158 C163 1.259 . S
Co159 O160 2.061 . S
Co159 O165 2.052 . S
Co159 O167 2.135 . S
O160 Co159 2.061 . S
O160 C163 1.235 . S
C161 O164 1.238 . S
C161 O165 1.241 . S
C162 O155 1.247 . S
C162 O156 1.261 . S
C163 O158 1.259 . S
C163 O160 1.235 . S
O164 Co154 2.021 . S
O164 C161 1.238 . S
O165 Co159 2.052 . S
O165 C161 1.241 . S
O166 Co154 2.137 . S
O166 C157 1.247 . S
O167 Co154 2.244 . S
O167 C157 1.272 . S
O167 Co159 2.135 . S
Co168 O169 2.216 . S
Co168 O170 2.091 . S
Co168 O172 2.004 . S
Co168 O178 2.021 . S
Co168 O180 2.137 . S
Co168 O181 2.244 . S
O169 Co168 2.216 . S
O169 C176 1.247 . S
O170 Co168 2.091 . S
O170 C176 1.261 . S
C171 O180 1.247 . S
C171 O181 1.272 . S
O172 Co168 2.004 . S
O172 C177 1.259 . S
Co173 O174 2.061 . S
Co173 O179 2.052 . S
Co173 O181 2.135 . S
O174 Co173 2.061 . S
O174 C177 1.235 . S
C175 O178 1.238 . S
C175 O179 1.241 . S
C176 O169 1.247 . S
C176 O170 1.261 . S
C177 O172 1.259 . S
C177 O174 1.235 . S
O178 Co168 2.021 . S
O178 C175 1.238 . S
O179 Co173 2.052 . S
O179 C175 1.241 . S
O180 Co168 2.137 . S
O180 C171 1.247 . S
O181 Co168 2.244 . S
O181 C171 1.272 . S
O181 Co173 2.135 . S
Co182 O183 2.216 . S
Co182 O184 2.091 . S
Co182 O186 2.004 . S
Co182 O192 2.021 . S
Co182 O194 2.137 . S
Co182 O195 2.244 . S
O183 Co182 2.216 . S
O183 C190 1.247 . S
O184 Co182 2.091 . S
O184 C190 1.261 . S
C185 O194 1.247 . S
C185 O195 1.272 . S
O186 Co182 2.004 . S
O186 C191 1.259 . S
Co187 O188 2.061 . S
Co187 O193 2.052 . S
Co187 O195 2.135 . S
O188 Co187 2.061 . S
O188 C191 1.235 . S
C189 O192 1.238 . S
C189 O193 1.241 . S
C190 O183 1.247 . S
C190 O184 1.261 . S
C191 O186 1.259 . S
C191 O188 1.235 . S
O192 Co182 2.021 . S
O192 C189 1.238 . S
O193 Co187 2.052 . S
O193 C189 1.241 . S
O194 Co182 2.137 . S
O194 C185 1.247 . S
O195 Co182 2.244 . S
O195 C185 1.272 . S
O195 Co187 2.135 . S
Co196 O197 2.216 . S
Co196 O198 2.091 . S
Co196 O200 2.004 . S
Co196 O206 2.021 . S
Co196 O208 2.137 . S
Co196 O209 2.244 . S
O197 Co196 2.216 . S
O197 C204 1.247 . S
O198 Co196 2.091 . S
O198 C204 1.261 . S
C199 O208 1.247 . S
C199 O209 1.272 . S
O200 Co196 2.004 . S
O200 C205 1.259 . S
Co201 O202 2.061 . S
Co201 O207 2.052 . S
Co201 O209 2.135 . S
O202 Co201 2.061 . S
O202 C205 1.235 . S
C203 O206 1.238 . S
C203 O207 1.241 . S
C204 O197 1.247 . S
C204 O198 1.261 . S
C205 O200 1.259 . S
C205 O202 1.235 . S
O206 Co196 2.021 . S
O206 C203 1.238 . S
O207 Co201 2.052 . S
O207 C203 1.241 . S
O208 Co196 2.137 . S
O208 C199 1.247 . S
O209 Co196 2.244 . S
O209 C199 1.272 . S
O209 Co201 2.135 . S
Co210 O211 2.216 . S
Co210 O212 2.091 . S
Co210 O214 2.004 . S
Co210 O220 2.021 . S
Co210 O222 2.137 . S
Co210 O223 2.244 . S
O211 Co210 2.216 . S
O211 C218 1.247 . S
O212 Co210 2.091 . S
O212 C218 1.261 . S
C213 O222 1.247 . S
C213 O223 1.272 . S
O214 Co210 2.004 . S
O214 C219 1.259 . S
Co215 O216 2.061 . S
Co215 O221 2.052 . S
Co215 O223 2.135 . S
O216 Co215 2.061 . S
O216 C219 1.235 . S
C217 O220 1.238 . S
C217 O221 1.241 . S
C218 O211 1.247 . S
C218 O212 1.261 . S
C219 O214 1.259 . S
C219 O216 1.235 . S
O220 Co210 2.021 . S
O220 C217 1.238 . S
O221 Co215 2.052 . S
O221 C217 1.241 . S
O222 Co210 2.137 . S
O222 C213 1.247 . S
O223 Co210 2.244 . S
O223 C213 1.272 . S
O223 Co215 2.135 . S
Co224 O225 2.216 . S
Co224 O226 2.091 . S
Co224 O228 2.004 . S
Co224 O234 2.021 . S
Co224 O236 2.137 . S
Co224 O237 2.244 . S
O225 Co224 2.216 . S
O225 C232 1.247 . S
O226 Co224 2.091 . S
O226 C232 1.261 . S
C227 O236 1.247 . S
C227 O237 1.272 . S
O228 Co224 2.004 . S
O228 C233 1.259 . S
Co229 O230 2.061 . S
Co229 O235 2.052 . S
Co229 O237 2.135 . S
O230 Co229 2.061 . S
O230 C233 1.235 . S
C231 O234 1.238 . S
C231 O235 1.241 . S
C232 O225 1.247 . S
C232 O226 1.261 . S
C233 O228 1.259 . S
C233 O230 1.235 . S
O234 Co224 2.021 . S
O234 C231 1.238 . S
O235 Co229 2.052 . S
O235 C231 1.241 . S
O236 Co224 2.137 . S
O236 C227 1.247 . S
O237 Co224 2.244 . S
O237 C227 1.272 . S
O237 Co229 2.135 . S
Co238 O239 2.216 . S
Co238 O240 2.091 . S
Co238 O242 2.004 . S
Co238 O248 2.021 . S
Co238 O250 2.137 . S
Co238 O251 2.244 . S
O239 Co238 2.216 . S
O239 C246 1.247 . S
O240 Co238 2.091 . S
O240 C246 1.261 . S
C241 O250 1.247 . S
C241 O251 1.272 . S
O242 Co238 2.004 . S
O242 C247 1.259 . S
Co243 O244 2.061 . S
Co243 O249 2.052 . S
Co243 O251 2.135 . S
O244 Co243 2.061 . S
O244 C247 1.235 . S
C245 O248 1.238 . S
C245 O249 1.241 . S
C246 O239 1.247 . S
C246 O240 1.261 . S
C247 O242 1.259 . S
C247 O244 1.235 . S
O248 Co238 2.021 . S
O248 C245 1.238 . S
O249 Co243 2.052 . S
O249 C245 1.241 . S
O250 Co238 2.137 . S
O250 C241 1.247 . S
O251 Co238 2.244 . S
O251 C241 1.272 . S
O251 Co243 2.135 . S
Co252 O253 2.216 . S
Co252 O254 2.091 . S
Co252 O256 2.004 . S
Co252 O262 2.021 . S
Co252 O264 2.137 . S
Co252 O265 2.244 . S
O253 Co252 2.216 . S
O253 C260 1.247 . S
O254 Co252 2.091 . S
O254 C260 1.261 . S
C255 O264 1.247 . S
C255 O265 1.272 . S
O256 Co252 2.004 . S
O256 C261 1.259 . S
Co257 O258 2.061 . S
Co257 O263 2.052 . S
Co257 O265 2.135 . S
O258 Co257 2.061 . S
O258 C261 1.235 . S
C259 O262 1.238 . S
C259 O263 1.241 . S
C260 O253 1.247 . S
C260 O254 1.261 . S
C261 O256 1.259 . S
C261 O258 1.235 . S
O262 Co252 2.021 . S
O262 C259 1.238 . S
O263 Co257 2.052 . S
O263 C259 1.241 . S
O264 Co252 2.137 . S
O264 C255 1.247 . S
O265 Co252 2.244 . S
O265 C255 1.272 . S
O265 Co257 2.135 . S
Co266 O267 2.216 . S
Co266 O268 2.091 . S
Co266 O270 2.004 . S
Co266 O276 2.021 . S
Co266 O278 2.137 . S
Co266 O279 2.244 . S
O267 Co266 2.216 . S
O267 C274 1.247 . S
O268 Co266 2.091 . S
O268 C274 1.261 . S
C269 O278 1.247 . S
C269 O279 1.272 . S
O270 Co266 2.004 . S
O270 C275 1.259 . S
Co271 O272 2.061 . S
Co271 O277 2.052 . S
Co271 O279 2.135 . S
O272 Co271 2.061 . S
O272 C275 1.235 . S
C273 O276 1.238 . S
C273 O277 1.241 . S
C274 O267 1.247 . S
C274 O268 1.261 . S
C275 O270 1.259 . S
C275 O272 1.235 . S
O276 Co266 2.021 . S
O276 C273 1.238 . S
O277 Co271 2.052 . S
O277 C273 1.241 . S
O278 Co266 2.137 . S
O278 C269 1.247 . S
O279 Co266 2.244 . S
O279 C269 1.272 . S
O279 Co271 2.135 . S
Co280 O281 2.216 . S
Co280 O282 2.091 . S
Co280 O284 2.004 . S
Co280 O290 2.021 . S
Co280 O292 2.137 . S
Co280 O293 2.244 . S
O281 Co280 2.216 . S
O281 C288 1.247 . S
O282 Co280 2.091 . S
O282 C288 1.261 . S
C283 O292 1.247 . S
C283 O293 1.272 . S
O284 Co280 2.004 . S
O284 C289 1.259 . S
Co285 O286 2.061 . S
Co285 O291 2.052 . S
Co285 O293 2.135 . S
O286 Co285 2.061 . S
O286 C289 1.235 . S
C287 O290 1.238 . S
C287 O291 1.241 . S
C288 O281 1.247 . S
C288 O282 1.261 . S
C289 O284 1.259 . S
C289 O286 1.235 . S
O290 Co280 2.021 . S
O290 C287 1.238 . S
O291 Co285 2.052 . S
O291 C287 1.241 . S
O292 Co280 2.137 . S
O292 C283 1.247 . S
O293 Co280 2.244 . S
O293 C283 1.272 . S
O293 Co285 2.135 . S
Co294 O295 2.216 . S
Co294 O296 2.091 . S
Co294 O298 2.004 . S
Co294 O304 2.021 . S
Co294 O306 2.137 . S
Co294 O307 2.244 . S
O295 Co294 2.216 . S
O295 C302 1.247 . S
O296 Co294 2.091 . S
O296 C302 1.261 . S
C297 O306 1.247 . S
C297 O307 1.272 . S
O298 Co294 2.004 . S
O298 C303 1.259 . S
Co299 O300 2.061 . S
Co299 O305 2.052 . S
Co299 O307 2.135 . S
O300 Co299 2.061 . S
O300 C303 1.235 . S
C301 O304 1.238 . S
C301 O305 1.241 . S
C302 O295 1.247 . S
C302 O296 1.261 . S
C303 O298 1.259 . S
C303 O300 1.235 . S
O304 Co294 2.021 . S
O304 C301 1.238 . S
O305 Co299 2.052 . S
O305 C301 1.241 . S
O306 Co294 2.137 . S
O306 C297 1.247 . S
O307 Co294 2.244 . S
O307 C297 1.272 . S
O307 Co299 2.135 . S
Co308 O309 2.216 . S
Co308 O310 2.091 . S
Co308 O312 2.004 . S
Co308 O318 2.021 . S
Co308 O320 2.137 . S
Co308 O321 2.244 . S
O309 Co308 2.216 . S
O309 C316 1.247 . S
O310 Co308 2.091 . S
O310 C316 1.261 . S
C311 O320 1.247 . S
C311 O321 1.272 . S
O312 Co308 2.004 . S
O312 C317 1.259 . S
Co313 O314 2.061 . S
Co313 O319 2.052 . S
Co313 O321 2.135 . S
O314 Co313 2.061 . S
O314 C317 1.235 . S
C315 O318 1.238 . S
C315 O319 1.241 . S
C316 O309 1.247 . S
C316 O310 1.261 . S
C317 O312 1.259 . S
C317 O314 1.235 . S
O318 Co308 2.021 . S
O318 C315 1.238 . S
O319 Co313 2.052 . S
O319 C315 1.241 . S
O320 Co308 2.137 . S
O320 C311 1.247 . S
O321 Co308 2.244 . S
O321 C311 1.272 . S
O321 Co313 2.135 . S
Co322 O323 2.216 . S
Co322 O324 2.091 . S
Co322 O326 2.004 . S
Co322 O332 2.021 . S
Co322 O334 2.137 . S
Co322 O335 2.244 . S
O323 Co322 2.216 . S
O323 C330 1.247 . S
O324 Co322 2.091 . S
O324 C330 1.261 . S
C325 O334 1.247 . S
C325 O335 1.272 . S
O326 Co322 2.004 . S
O326 C331 1.259 . S
Co327 O328 2.061 . S
Co327 O333 2.052 . S
Co327 O335 2.135 . S
O328 Co327 2.061 . S
O328 C331 1.235 . S
C329 O332 1.238 . S
C329 O333 1.241 . S
C330 O323 1.247 . S
C330 O324 1.261 . S
C331 O326 1.259 . S
C331 O328 1.235 . S
O332 Co322 2.021 . S
O332 C329 1.238 . S
O333 Co327 2.052 . S
O333 C329 1.241 . S
O334 Co322 2.137 . S
O334 C325 1.247 . S
O335 Co322 2.244 . S
O335 C325 1.272 . S
O335 Co327 2.135 . S
Co336 O337 2.216 . S
Co336 O338 2.091 . S
Co336 O340 2.004 . S
Co336 O346 2.021 . S
Co336 O348 2.137 . S
Co336 O349 2.244 . S
O337 Co336 2.216 . S
O337 C344 1.247 . S
O338 Co336 2.091 . S
O338 C344 1.261 . S
C339 O348 1.247 . S
C339 O349 1.272 . S
O340 Co336 2.004 . S
O340 C345 1.259 . S
Co341 O342 2.061 . S
Co341 O347 2.052 . S
Co341 O349 2.135 . S
O342 Co341 2.061 . S
O342 C345 1.235 . S
C343 O346 1.238 . S
C343 O347 1.241 . S
C344 O337 1.247 . S
C344 O338 1.261 . S
C345 O340 1.259 . S
C345 O342 1.235 . S
O346 Co336 2.021 . S
O346 C343 1.238 . S
O347 Co341 2.052 . S
O347 C343 1.241 . S
O348 Co336 2.137 . S
O348 C339 1.247 . S
O349 Co336 2.244 . S
O349 C339 1.272 . S
O349 Co341 2.135 . S
Co350 O351 2.216 . S
Co350 O352 2.091 . S
Co350 O354 2.004 . S
Co350 O360 2.021 . S
Co350 O362 2.137 . S
Co350 O363 2.244 . S
O351 Co350 2.216 . S
O351 C358 1.247 . S
O352 Co350 2.091 . S
O352 C358 1.261 . S
C353 O362 1.247 . S
C353 O363 1.272 . S
O354 Co350 2.004 . S
O354 C359 1.259 . S
Co355 O356 2.061 . S
Co355 O361 2.052 . S
Co355 O363 2.135 . S
O356 Co355 2.061 . S
O356 C359 1.235 . S
C357 O360 1.238 . S
C357 O361 1.241 . S
C358 O351 1.247 . S
C358 O352 1.261 . S
C359 O354 1.259 . S
C359 O356 1.235 . S
O360 Co350 2.021 . S
O360 C357 1.238 . S
O361 Co355 2.052 . S
O361 C357 1.241 . S
O362 Co350 2.137 . S
O362 C353 1.247 . S
O363 Co350 2.244 . S
O363 C353 1.272 . S
O363 Co355 2.135 . S
Co364 O365 2.216 . S
Co364 O366 2.091 . S
Co364 O368 2.004 . S
Co364 O374 2.021 . S
Co364 O376 2.137 . S
Co364 O377 2.244 . S
O365 Co364 2.216 . S
O365 C372 1.247 . S
O366 Co364 2.091 . S
O366 C372 1.261 . S
C367 O376 1.247 . S
C367 O377 1.272 . S
O368 Co364 2.004 . S
O368 C373 1.259 . S
Co369 O370 2.061 . S
Co369 O375 2.052 . S
Co369 O377 2.135 . S
O370 Co369 2.061 . S
O370 C373 1.235 . S
C371 O374 1.238 . S
C371 O375 1.241 . S
C372 O365 1.247 . S
C372 O366 1.261 . S
C373 O368 1.259 . S
C373 O370 1.235 . S
O374 Co364 2.021 . S
O374 C371 1.238 . S
O375 Co369 2.052 . S
O375 C371 1.241 . S
O376 Co364 2.137 . S
O376 C367 1.247 . S
O377 Co364 2.244 . S
O377 C367 1.272 . S
O377 Co369 2.135 . S
Co378 O379 2.216 . S
Co378 O380 2.091 . S
Co378 O382 2.004 . S
Co378 O388 2.021 . S
Co378 O390 2.137 . S
Co378 O391 2.244 . S
O379 Co378 2.216 . S
O379 C386 1.247 . S
O380 Co378 2.091 . S
O380 C386 1.261 . S
C381 O390 1.247 . S
C381 O391 1.272 . S
O382 Co378 2.004 . S
O382 C387 1.259 . S
Co383 O384 2.061 . S
Co383 O389 2.052 . S
Co383 O391 2.135 . S
O384 Co383 2.061 . S
O384 C387 1.235 . S
C385 O388 1.238 . S
C385 O389 1.241 . S
C386 O379 1.247 . S
C386 O380 1.261 . S
C387 O382 1.259 . S
C387 O384 1.235 . S
O388 Co378 2.021 . S
O388 C385 1.238 . S
O389 Co383 2.052 . S
O389 C385 1.241 . S
O390 Co378 2.137 . S
O390 C381 1.247 . S
O391 Co378 2.244 . S
O391 C381 1.272 . S
O391 Co383 2.135 . S
Co392 O393 2.216 . S
Co392 O394 2.091 . S
Co392 O396 2.004 . S
Co392 O402 2.021 . S
Co392 O404 2.137 . S
Co392 O405 2.244 . S
O393 Co392 2.216 . S
O393 C400 1.247 . S
O394 Co392 2.091 . S
O394 C400 1.261 . S
C395 O404 1.247 . S
C395 O405 1.272 . S
O396 Co392 2.004 . S
O396 C401 1.259 . S
Co397 O398 2.061 . S
Co397 O403 2.052 . S
Co397 O405 2.135 . S
O398 Co397 2.061 . S
O398 C401 1.235 . S
C399 O402 1.238 . S
C399 O403 1.241 . S
C400 O393 1.247 . S
C400 O394 1.261 . S
C401 O396 1.259 . S
C401 O398 1.235 . S
O402 Co392 2.021 . S
O402 C399 1.238 . S
O403 Co397 2.052 . S
O403 C399 1.241 . S
O404 Co392 2.137 . S
O404 C395 1.247 . S
O405 Co392 2.244 . S
O405 C395 1.272 . S
O405 Co397 2.135 . S
Co406 O407 2.216 . S
Co406 O408 2.091 . S
Co406 O410 2.004 . S
Co406 O416 2.021 . S
Co406 O418 2.137 . S
Co406 O419 2.244 . S
O407 Co406 2.216 . S
O407 C414 1.247 . S
O408 Co406 2.091 . S
O408 C414 1.261 . S
C409 O418 1.247 . S
C409 O419 1.272 . S
O410 Co406 2.004 . S
O410 C415 1.259 . S
Co411 O412 2.061 . S
Co411 O417 2.052 . S
Co411 O419 2.135 . S
O412 Co411 2.061 . S
O412 C415 1.235 . S
C413 O416 1.238 . S
C413 O417 1.241 . S
C414 O407 1.247 . S
C414 O408 1.261 . S
C415 O410 1.259 . S
C415 O412 1.235 . S
O416 Co406 2.021 . S
O416 C413 1.238 . S
O417 Co411 2.052 . S
O417 C413 1.241 . S
O418 Co406 2.137 . S
O418 C409 1.247 . S
O419 Co406 2.244 . S
O419 C409 1.272 . S
O419 Co411 2.135 . S
Co420 O421 2.216 . S
Co420 O422 2.091 . S
Co420 O424 2.004 . S
Co420 O430 2.021 . S
Co420 O432 2.137 . S
Co420 O433 2.244 . S
O421 Co420 2.216 . S
O421 C428 1.247 . S
O422 Co420 2.091 . S
O422 C428 1.261 . S
C423 O432 1.247 . S
C423 O433 1.272 . S
O424 Co420 2.004 . S
O424 C429 1.259 . S
Co425 O426 2.061 . S
Co425 O431 2.052 . S
Co425 O433 2.135 . S
O426 Co425 2.061 . S
O426 C429 1.235 . S
C427 O430 1.238 . S
C427 O431 1.241 . S
C428 O421 1.247 . S
C428 O422 1.261 . S
C429 O424 1.259 . S
C429 O426 1.235 . S
O430 Co420 2.021 . S
O430 C427 1.238 . S
O431 Co425 2.052 . S
O431 C427 1.241 . S
O432 Co420 2.137 . S
O432 C423 1.247 . S
O433 Co420 2.244 . S
O433 C423 1.272 . S
O433 Co425 2.135 . S
Co434 O435 2.216 . S
Co434 O436 2.091 . S
Co434 O438 2.004 . S
Co434 O444 2.021 . S
Co434 O446 2.137 . S
Co434 O447 2.244 . S
O435 Co434 2.216 . S
O435 C442 1.247 . S
O436 Co434 2.091 . S
O436 C442 1.261 . S
C437 O446 1.247 . S
C437 O447 1.272 . S
O438 Co434 2.004 . S
O438 C443 1.259 . S
Co439 O440 2.061 . S
Co439 O445 2.052 . S
Co439 O447 2.135 . S
O440 Co439 2.061 . S
O440 C443 1.235 . S
C441 O444 1.238 . S
C441 O445 1.241 . S
C442 O435 1.247 . S
C442 O436 1.261 . S
C443 O438 1.259 . S
C443 O440 1.235 . S
O444 Co434 2.021 . S
O444 C441 1.238 . S
O445 Co439 2.052 . S
O445 C441 1.241 . S
O446 Co434 2.137 . S
O446 C437 1.247 . S
O447 Co434 2.244 . S
O447 C437 1.272 . S
O447 Co439 2.135 . S
H448 C454 0.930 . S
H449 C458 0.930 . S
H450 C463 0.929 . S
H451 C461 0.929 . S
H452 C456 0.929 . S
H453 C462 0.929 . S
C454 H448 0.930 . S
C454 C455 1.367 . S
C454 C462 1.378 . S
C455 C454 1.367 . S
C455 C463 1.433 . S
C456 H452 0.929 . S
C456 C458 1.378 . S
C456 C460 1.350 . S
C457 C460 1.463 . S
C457 C462 1.350 . S
C457 N465 1.427 . S
C458 H449 0.930 . S
C458 C456 1.378 . S
C458 C459 1.367 . S
C459 C458 1.367 . S
C459 C461 1.433 . S
C460 C456 1.350 . S
C460 C457 1.463 . S
C460 N464 1.427 . S
C461 H451 0.929 . S
C461 C459 1.433 . S
C461 N464 1.384 . S
C462 H453 0.929 . S
C462 C454 1.378 . S
C462 C457 1.350 . S
C463 H450 0.929 . S
C463 C455 1.433 . S
C463 N465 1.384 . S
N464 C460 1.427 . S
N464 C461 1.384 . S
N465 C457 1.427 . S
N465 C463 1.384 . S
H466 C472 0.930 . S
H467 C476 0.930 . S
H468 C481 0.929 . S
H469 C479 0.929 . S
H470 C474 0.929 . S
H471 C480 0.929 . S
C472 H466 0.930 . S
C472 C473 1.367 . S
C472 C480 1.378 . S
C473 C472 1.367 . S
C473 C481 1.433 . S
C474 H470 0.929 . S
C474 C476 1.378 . S
C474 C478 1.350 . S
C475 C478 1.463 . S
C475 C480 1.350 . S
C475 N483 1.427 . S
C476 H467 0.930 . S
C476 C474 1.378 . S
C476 C477 1.367 . S
C477 C476 1.367 . S
C477 C479 1.433 . S
C478 C474 1.350 . S
C478 C475 1.463 . S
C478 N482 1.427 . S
C479 H469 0.929 . S
C479 C477 1.433 . S
C479 N482 1.384 . S
C480 H471 0.929 . S
C480 C472 1.378 . S
C480 C475 1.350 . S
C481 H468 0.929 . S
C481 C473 1.433 . S
C481 N483 1.384 . S
N482 C478 1.427 . S
N482 C479 1.384 . S
N483 C475 1.427 . S
N483 C481 1.384 . S
H484 C490 0.930 . S
H485 C494 0.930 . S
H486 C499 0.929 . S
H487 C497 0.929 . S
H488 C492 0.929 . S
H489 C498 0.929 . S
C490 H484 0.930 . S
C490 C491 1.367 . S
C490 C498 1.378 . S
C491 C490 1.367 . S
C491 C499 1.433 . S
C492 H488 0.929 . S
C492 C494 1.378 . S
C492 C496 1.350 . S
C493 C496 1.463 . S
C493 C498 1.350 . S
C493 N501 1.427 . S
C494 H485 0.930 . S
C494 C492 1.378 . S
C494 C495 1.367 . S
C495 C494 1.367 . S
C495 C497 1.433 . S
C496 C492 1.350 . S
C496 C493 1.463 . S
C496 N500 1.427 . S
C497 H487 0.929 . S
C497 C495 1.433 . S
C497 N500 1.384 . S
C498 H489 0.929 . S
C498 C490 1.378 . S
C498 C493 1.350 . S
C499 H486 0.929 . S
C499 C491 1.433 . S
C499 N501 1.384 . S
N500 C496 1.427 . S
N500 C497 1.384 . S
N501 C493 1.427 . S
N501 C499 1.384 . S
H502 C508 0.930 . S
H503 C512 0.930 . S
H504 C517 0.929 . S
H505 C515 0.929 . S
H506 C510 0.929 . S
H507 C516 0.929 . S
C508 H502 0.930 . S
C508 C509 1.367 . S
C508 C516 1.378 . S
C509 C508 1.367 . S
C509 C517 1.433 . S
C510 H506 0.929 . S
C510 C512 1.378 . S
C510 C514 1.350 . S
C511 C514 1.463 . S
C511 C516 1.350 . S
C511 N519 1.427 . S
C512 H503 0.930 . S
C512 C510 1.378 . S
C512 C513 1.367 . S
C513 C512 1.367 . S
C513 C515 1.433 . S
C514 C510 1.350 . S
C514 C511 1.463 . S
C514 N518 1.427 . S
C515 H505 0.929 . S
C515 C513 1.433 . S
C515 N518 1.384 . S
C516 H507 0.929 . S
C516 C508 1.378 . S
C516 C511 1.350 . S
C517 H504 0.929 . S
C517 C509 1.433 . S
C517 N519 1.384 . S
N518 C514 1.427 . S
N518 C515 1.384 . S
N519 C511 1.427 . S
N519 C517 1.384 . S
H520 C526 0.930 . S
H521 C530 0.930 . S
H522 C535 0.929 . S
H523 C533 0.929 . S
H524 C528 0.929 . S
H525 C534 0.929 . S
C526 H520 0.930 . S
C526 C527 1.367 . S
C526 C534 1.378 . S
C527 C526 1.367 . S
C527 C535 1.433 . S
C528 H524 0.929 . S
C528 C530 1.378 . S
C528 C532 1.350 . S
C529 C532 1.463 . S
C529 C534 1.350 . S
C529 N537 1.427 . S
C530 H521 0.930 . S
C530 C528 1.378 . S
C530 C531 1.367 . S
C531 C530 1.367 . S
C531 C533 1.433 . S
C532 C528 1.350 . S
C532 C529 1.463 . S
C532 N536 1.427 . S
C533 H523 0.929 . S
C533 C531 1.433 . S
C533 N536 1.384 . S
C534 H525 0.929 . S
C534 C526 1.378 . S
C534 C529 1.350 . S
C535 H522 0.929 . S
C535 C527 1.433 . S
C535 N537 1.384 . S
N536 C532 1.427 . S
N536 C533 1.384 . S
N537 C529 1.427 . S
N537 C535 1.384 . S
H538 C544 0.930 . S
H539 C548 0.930 . S
H540 C553 0.929 . S
H541 C551 0.929 . S
H542 C546 0.929 . S
H543 C552 0.929 . S
C544 H538 0.930 . S
C544 C545 1.367 . S
C544 C552 1.378 . S
C545 C544 1.367 . S
C545 C553 1.433 . S
C546 H542 0.929 . S
C546 C548 1.378 . S
C546 C550 1.350 . S
C547 C550 1.463 . S
C547 C552 1.350 . S
C547 N555 1.427 . S
C548 H539 0.930 . S
C548 C546 1.378 . S
C548 C549 1.367 . S
C549 C548 1.367 . S
C549 C551 1.433 . S
C550 C546 1.350 . S
C550 C547 1.463 . S
C550 N554 1.427 . S
C551 H541 0.929 . S
C551 C549 1.433 . S
C551 N554 1.384 . S
C552 H543 0.929 . S
C552 C544 1.378 . S
C552 C547 1.350 . S
C553 H540 0.929 . S
C553 C545 1.433 . S
C553 N555 1.384 . S
N554 C550 1.427 . S
N554 C551 1.384 . S
N555 C547 1.427 . S
N555 C553 1.384 . S
H556 C562 0.930 . S
H557 C566 0.930 . S
H558 C571 0.929 . S
H559 C569 0.929 . S
H560 C564 0.929 . S
H561 C570 0.929 . S
C562 H556 0.930 . S
C562 C563 1.367 . S
C562 C570 1.378 . S
C563 C562 1.367 . S
C563 C571 1.433 . S
C564 H560 0.929 . S
C564 C566 1.378 . S
C564 C568 1.350 . S
C565 C568 1.463 . S
C565 C570 1.350 . S
C565 N573 1.427 . S
C566 H557 0.930 . S
C566 C564 1.378 . S
C566 C567 1.367 . S
C567 C566 1.367 . S
C567 C569 1.433 . S
C568 C564 1.350 . S
C568 C565 1.463 . S
C568 N572 1.427 . S
C569 H559 0.929 . S
C569 C567 1.433 . S
C569 N572 1.384 . S
C570 H561 0.929 . S
C570 C562 1.378 . S
C570 C565 1.350 . S
C571 H558 0.929 . S
C571 C563 1.433 . S
C571 N573 1.384 . S
N572 C568 1.427 . S
N572 C569 1.384 . S
N573 C565 1.427 . S
N573 C571 1.384 . S
H574 C580 0.930 . S
H575 C584 0.930 . S
H576 C589 0.929 . S
H577 C587 0.929 . S
H578 C582 0.929 . S
H579 C588 0.929 . S
C580 H574 0.930 . S
C580 C581 1.367 . S
C580 C588 1.378 . S
C581 C580 1.367 . S
C581 C589 1.433 . S
C582 H578 0.929 . S
C582 C584 1.378 . S
C582 C586 1.350 . S
C583 C586 1.463 . S
C583 C588 1.350 . S
C583 N591 1.427 . S
C584 H575 0.930 . S
C584 C582 1.378 . S
C584 C585 1.367 . S
C585 C584 1.367 . S
C585 C587 1.433 . S
C586 C582 1.350 . S
C586 C583 1.463 . S
C586 N590 1.427 . S
C587 H577 0.929 . S
C587 C585 1.433 . S
C587 N590 1.384 . S
C588 H579 0.929 . S
C588 C580 1.378 . S
C588 C583 1.350 . S
C589 H576 0.929 . S
C589 C581 1.433 . S
C589 N591 1.384 . S
N590 C586 1.427 . S
N590 C587 1.384 . S
N591 C583 1.427 . S
N591 C589 1.384 . S
H592 C598 0.930 . S
H593 C602 0.930 . S
H594 C607 0.929 . S
H595 C605 0.929 . S
H596 C600 0.929 . S
H597 C606 0.929 . S
C598 H592 0.930 . S
C598 C599 1.367 . S
C598 C606 1.378 . S
C599 C598 1.367 . S
C599 C607 1.433 . S
C600 H596 0.929 . S
C600 C602 1.378 . S
C600 C604 1.350 . S
C601 C604 1.463 . S
C601 C606 1.350 . S
C601 N609 1.427 . S
C602 H593 0.930 . S
C602 C600 1.378 . S
C602 C603 1.367 . S
C603 C602 1.367 . S
C603 C605 1.433 . S
C604 C600 1.350 . S
C604 C601 1.463 . S
C604 N608 1.427 . S
C605 H595 0.929 . S
C605 C603 1.433 . S
C605 N608 1.384 . S
C606 H597 0.929 . S
C606 C598 1.378 . S
C606 C601 1.350 . S
C607 H594 0.929 . S
C607 C599 1.433 . S
C607 N609 1.384 . S
N608 C604 1.427 . S
N608 C605 1.384 . S
N609 C601 1.427 . S
N609 C607 1.384 . S
H610 C616 0.930 . S
H611 C620 0.930 . S
H612 C625 0.929 . S
H613 C623 0.929 . S
H614 C618 0.929 . S
H615 C624 0.929 . S
C616 H610 0.930 . S
C616 C617 1.367 . S
C616 C624 1.378 . S
C617 C616 1.367 . S
C617 C625 1.433 . S
C618 H614 0.929 . S
C618 C620 1.378 . S
C618 C622 1.350 . S
C619 C622 1.463 . S
C619 C624 1.350 . S
C619 N627 1.427 . S
C620 H611 0.930 . S
C620 C618 1.378 . S
C620 C621 1.367 . S
C621 C620 1.367 . S
C621 C623 1.433 . S
C622 C618 1.350 . S
C622 C619 1.463 . S
C622 N626 1.427 . S
C623 H613 0.929 . S
C623 C621 1.433 . S
C623 N626 1.384 . S
C624 H615 0.929 . S
C624 C616 1.378 . S
C624 C619 1.350 . S
C625 H612 0.929 . S
C625 C617 1.433 . S
C625 N627 1.384 . S
N626 C622 1.427 . S
N626 C623 1.384 . S
N627 C619 1.427 . S
N627 C625 1.384 . S
H628 C634 0.930 . S
H629 C638 0.930 . S
H630 C643 0.929 . S
H631 C641 0.929 . S
H632 C636 0.929 . S
H633 C642 0.929 . S
C634 H628 0.930 . S
C634 C635 1.367 . S
C634 C642 1.378 . S
C635 C634 1.367 . S
C635 C643 1.433 . S
C636 H632 0.929 . S
C636 C638 1.378 . S
C636 C640 1.350 . S
C637 C640 1.463 . S
C637 C642 1.350 . S
C637 N645 1.427 . S
C638 H629 0.930 . S
C638 C636 1.378 . S
C638 C639 1.367 . S
C639 C638 1.367 . S
C639 C641 1.433 . S
C640 C636 1.350 . S
C640 C637 1.463 . S
C640 N644 1.427 . S
C641 H631 0.929 . S
C641 C639 1.433 . S
C641 N644 1.384 . S
C642 H633 0.929 . S
C642 C634 1.378 . S
C642 C637 1.350 . S
C643 H630 0.929 . S
C643 C635 1.433 . S
C643 N645 1.384 . S
N644 C640 1.427 . S
N644 C641 1.384 . S
N645 C637 1.427 . S
N645 C643 1.384 . S
H646 C652 0.930 . S
H647 C656 0.930 . S
H648 C661 0.929 . S
H649 C659 0.929 . S
H650 C654 0.929 . S
H651 C660 0.929 . S
C652 H646 0.930 . S
C652 C653 1.367 . S
C652 C660 1.378 . S
C653 C652 1.367 . S
C653 C661 1.433 . S
C654 H650 0.929 . S
C654 C656 1.378 . S
C654 C658 1.350 . S
C655 C658 1.463 . S
C655 C660 1.350 . S
C655 N663 1.427 . S
C656 H647 0.930 . S
C656 C654 1.378 . S
C656 C657 1.367 . S
C657 C656 1.367 . S
C657 C659 1.433 . S
C658 C654 1.350 . S
C658 C655 1.463 . S
C658 N662 1.427 . S
C659 H649 0.929 . S
C659 C657 1.433 . S
C659 N662 1.384 . S
C660 H651 0.929 . S
C660 C652 1.378 . S
C660 C655 1.350 . S
C661 H648 0.929 . S
C661 C653 1.433 . S
C661 N663 1.384 . S
N662 C658 1.427 . S
N662 C659 1.384 . S
N663 C655 1.427 . S
N663 C661 1.384 . S
H664 C670 0.930 . S
H665 C674 0.930 . S
H666 C679 0.929 . S
H667 C677 0.929 . S
H668 C672 0.929 . S
H669 C678 0.929 . S
C670 H664 0.930 . S
C670 C671 1.367 . S
C670 C678 1.378 . S
C671 C670 1.367 . S
C671 C679 1.433 . S
C672 H668 0.929 . S
C672 C674 1.378 . S
C672 C676 1.350 . S
C673 C676 1.463 . S
C673 C678 1.350 . S
C673 N681 1.427 . S
C674 H665 0.930 . S
C674 C672 1.378 . S
C674 C675 1.367 . S
C675 C674 1.367 . S
C675 C677 1.433 . S
C676 C672 1.350 . S
C676 C673 1.463 . S
C676 N680 1.427 . S
C677 H667 0.929 . S
C677 C675 1.433 . S
C677 N680 1.384 . S
C678 H669 0.929 . S
C678 C670 1.378 . S
C678 C673 1.350 . S
C679 H666 0.929 . S
C679 C671 1.433 . S
C679 N681 1.384 . S
N680 C676 1.427 . S
N680 C677 1.384 . S
N681 C673 1.427 . S
N681 C679 1.384 . S
H682 C688 0.930 . S
H683 C692 0.930 . S
H684 C697 0.929 . S
H685 C695 0.929 . S
H686 C690 0.929 . S
H687 C696 0.929 . S
C688 H682 0.930 . S
C688 C689 1.367 . S
C688 C696 1.378 . S
C689 C688 1.367 . S
C689 C697 1.433 . S
C690 H686 0.929 . S
C690 C692 1.378 . S
C690 C694 1.350 . S
C691 C694 1.463 . S
C691 C696 1.350 . S
C691 N699 1.427 . S
C692 H683 0.930 . S
C692 C690 1.378 . S
C692 C693 1.367 . S
C693 C692 1.367 . S
C693 C695 1.433 . S
C694 C690 1.350 . S
C694 C691 1.463 . S
C694 N698 1.427 . S
C695 H685 0.929 . S
C695 C693 1.433 . S
C695 N698 1.384 . S
C696 H687 0.929 . S
C696 C688 1.378 . S
C696 C691 1.350 . S
C697 H684 0.929 . S
C697 C689 1.433 . S
C697 N699 1.384 . S
N698 C694 1.427 . S
N698 C695 1.384 . S
N699 C691 1.427 . S
N699 C697 1.384 . S
H700 C706 0.930 . S
H701 C710 0.930 . S
H702 C715 0.929 . S
H703 C713 0.929 . S
H704 C708 0.929 . S
H705 C714 0.929 . S
C706 H700 0.930 . S
C706 C707 1.367 . S
C706 C714 1.378 . S
C707 C706 1.367 . S
C707 C715 1.433 . S
C708 H704 0.929 . S
C708 C710 1.378 . S
C708 C712 1.350 . S
C709 C712 1.463 . S
C709 C714 1.350 . S
C709 N717 1.427 . S
C710 H701 0.930 . S
C710 C708 1.378 . S
C710 C711 1.367 . S
C711 C710 1.367 . S
C711 C713 1.433 . S
C712 C708 1.350 . S
C712 C709 1.463 . S
C712 N716 1.427 . S
C713 H703 0.929 . S
C713 C711 1.433 . S
C713 N716 1.384 . S
C714 H705 0.929 . S
C714 C706 1.378 . S
C714 C709 1.350 . S
C715 H702 0.929 . S
C715 C707 1.433 . S
C715 N717 1.384 . S
N716 C712 1.427 . S
N716 C713 1.384 . S
N717 C709 1.427 . S
N717 C715 1.384 . S
H718 C724 0.930 . S
H719 C728 0.930 . S
H720 C733 0.929 . S
H721 C731 0.929 . S
H722 C726 0.929 . S
H723 C732 0.929 . S
C724 H718 0.930 . S
C724 C725 1.367 . S
C724 C732 1.378 . S
C725 C724 1.367 . S
C725 C733 1.433 . S
C726 H722 0.929 . S
C726 C728 1.378 . S
C726 C730 1.350 . S
C727 C730 1.463 . S
C727 C732 1.350 . S
C727 N735 1.427 . S
C728 H719 0.930 . S
C728 C726 1.378 . S
C728 C729 1.367 . S
C729 C728 1.367 . S
C729 C731 1.433 . S
C730 C726 1.350 . S
C730 C727 1.463 . S
C730 N734 1.427 . S
C731 H721 0.929 . S
C731 C729 1.433 . S
C731 N734 1.384 . S
C732 H723 0.929 . S
C732 C724 1.378 . S
C732 C727 1.350 . S
C733 H720 0.929 . S
C733 C725 1.433 . S
C733 N735 1.384 . S
N734 C730 1.427 . S
N734 C731 1.384 . S
N735 C727 1.427 . S
N735 C733 1.384 . S
H736 C742 0.930 . S
H737 C746 0.930 1_556 S
H738 C751 0.929 1_556 S
H739 C749 0.929 . S
H740 C744 0.929 1_556 S
H741 C750 0.929 . S
C742 H736 0.930 . S
C742 C743 1.367 . S
C742 C750 1.378 . S
C743 C742 1.367 . S
C743 C751 1.433 . S
C744 H740 0.929 1_554 S
C744 C746 1.378 . S
C744 C748 1.350 . S
C745 C748 1.463 1_455 S
C745 C750 1.350 . S
C745 N753 1.427 . S
C746 H737 0.930 1_554 S
C746 C744 1.378 . S
C746 C747 1.367 . S
C747 C746 1.367 . S
C747 C749 1.433 . S
C748 C744 1.350 . S
C748 C745 1.463 1_655 S
C748 N752 1.427 . S
C749 H739 0.929 . S
C749 C747 1.433 . S
C749 N752 1.384 . S
C750 H741 0.929 . S
C750 C742 1.378 . S
C750 C745 1.350 . S
C751 H738 0.929 1_554 S
C751 C743 1.433 . S
C751 N753 1.384 . S
N752 C748 1.427 . S
N752 C749 1.384 . S
N753 C745 1.427 . S
N753 C751 1.384 . S
H754 C760 0.930 . S
H755 C764 0.930 . S
H756 C769 0.929 . S
H757 C767 0.929 . S
H758 C762 0.929 . S
H759 C768 0.929 . S
C760 H754 0.930 . S
C760 C761 1.367 . S
C760 C768 1.378 . S
C761 C760 1.367 . S
C761 C769 1.433 . S
C762 H758 0.929 . S
C762 C764 1.378 . S
C762 C766 1.350 . S
C763 C766 1.463 . S
C763 C768 1.350 . S
C763 N771 1.427 . S
C764 H755 0.930 . S
C764 C762 1.378 . S
C764 C765 1.367 . S
C765 C764 1.367 . S
C765 C767 1.433 . S
C766 C762 1.350 . S
C766 C763 1.463 . S
C766 N770 1.427 . S
C767 H757 0.929 . S
C767 C765 1.433 . S
C767 N770 1.384 . S
C768 H759 0.929 . S
C768 C760 1.378 . S
C768 C763 1.350 . S
C769 H756 0.929 . S
C769 C761 1.433 . S
C769 N771 1.384 . S
N770 C766 1.427 . S
N770 C767 1.384 . S
N771 C763 1.427 . S
N771 C769 1.384 . S
H772 C778 0.930 . S
H773 C782 0.930 . S
H774 C787 0.929 . S
H775 C785 0.929 . S
H776 C780 0.929 . S
H777 C786 0.929 . S
C778 H772 0.930 . S
C778 C779 1.367 . S
C778 C786 1.378 . S
C779 C778 1.367 . S
C779 C787 1.433 . S
C780 H776 0.929 . S
C780 C782 1.378 . S
C780 C784 1.350 . S
C781 C784 1.463 . S
C781 C786 1.350 . S
C781 N789 1.427 . S
C782 H773 0.930 . S
C782 C780 1.378 . S
C782 C783 1.367 . S
C783 C782 1.367 . S
C783 C785 1.433 . S
C784 C780 1.350 . S
C784 C781 1.463 . S
C784 N788 1.427 . S
C785 H775 0.929 . S
C785 C783 1.433 . S
C785 N788 1.384 . S
C786 H777 0.929 . S
C786 C778 1.378 . S
C786 C781 1.350 . S
C787 H774 0.929 . S
C787 C779 1.433 . S
C787 N789 1.384 . S
N788 C784 1.427 . S
N788 C785 1.384 . S
N789 C781 1.427 . S
N789 C787 1.384 . S
H790 C796 0.930 . S
H791 C800 0.930 . S
H792 C805 0.929 . S
H793 C803 0.929 . S
H794 C798 0.929 . S
H795 C804 0.929 . S
C796 H790 0.930 . S
C796 C797 1.367 . S
C796 C804 1.378 . S
C797 C796 1.367 . S
C797 C805 1.433 . S
C798 H794 0.929 . S
C798 C800 1.378 . S
C798 C802 1.350 . S
C799 C802 1.463 . S
C799 C804 1.350 . S
C799 N807 1.427 . S
C800 H791 0.930 . S
C800 C798 1.378 . S
C800 C801 1.367 . S
C801 C800 1.367 . S
C801 C803 1.433 . S
C802 C798 1.350 . S
C802 C799 1.463 . S
C802 N806 1.427 . S
C803 H793 0.929 . S
C803 C801 1.433 . S
C803 N806 1.384 . S
C804 H795 0.929 . S
C804 C796 1.378 . S
C804 C799 1.350 . S
C805 H792 0.929 . S
C805 C797 1.433 . S
C805 N807 1.384 . S
N806 C802 1.427 . S
N806 C803 1.384 . S
N807 C799 1.427 . S
N807 C805 1.384 . S
H808 C814 0.930 . S
H809 C818 0.930 . S
H810 C823 0.929 . S
H811 C821 0.929 . S
H812 C816 0.929 . S
H813 C822 0.929 . S
C814 H808 0.930 . S
C814 C815 1.367 . S
C814 C822 1.378 . S
C815 C814 1.367 . S
C815 C823 1.433 . S
C816 H812 0.929 . S
C816 C818 1.378 . S
C816 C820 1.350 . S
C817 C820 1.463 1_655 S
C817 C822 1.350 . S
C817 N825 1.427 . S
C818 H809 0.930 . S
C818 C816 1.378 . S
C818 C819 1.367 . S
C819 C818 1.367 . S
C819 C821 1.433 . S
C820 C816 1.350 . S
C820 C817 1.463 1_455 S
C820 N824 1.427 . S
C821 H811 0.929 . S
C821 C819 1.433 . S
C821 N824 1.384 . S
C822 H813 0.929 . S
C822 C814 1.378 . S
C822 C817 1.350 . S
C823 H810 0.929 . S
C823 C815 1.433 . S
C823 N825 1.384 . S
N824 C820 1.427 . S
N824 C821 1.384 . S
N825 C817 1.427 . S
N825 C823 1.384 . S
H826 C832 0.930 . S
H827 C836 0.930 . S
H828 C841 0.929 . S
H829 C839 0.929 . S
H830 C834 0.929 . S
H831 C840 0.929 . S
C832 H826 0.930 . S
C832 C833 1.367 . S
C832 C840 1.378 . S
C833 C832 1.367 . S
C833 C841 1.433 . S
C834 H830 0.929 . S
C834 C836 1.378 . S
C834 C838 1.350 . S
C835 C838 1.463 . S
C835 C840 1.350 . S
C835 N843 1.427 . S
C836 H827 0.930 . S
C836 C834 1.378 . S
C836 C837 1.367 . S
C837 C836 1.367 . S
C837 C839 1.433 . S
C838 C834 1.350 . S
C838 C835 1.463 . S
C838 N842 1.427 . S
C839 H829 0.929 . S
C839 C837 1.433 . S
C839 N842 1.384 . S
C840 H831 0.929 . S
C840 C832 1.378 . S
C840 C835 1.350 . S
C841 H828 0.929 . S
C841 C833 1.433 . S
C841 N843 1.384 . S
N842 C838 1.427 . S
N842 C839 1.384 . S
N843 C835 1.427 . S
N843 C841 1.384 . S
H844 C850 0.930 . S
H845 C854 0.930 . S
H846 C859 0.929 . S
H847 C857 0.929 . S
H848 C852 0.929 . S
H849 C858 0.929 . S
C850 H844 0.930 . S
C850 C851 1.367 . S
C850 C858 1.378 . S
C851 C850 1.367 . S
C851 C859 1.433 . S
C852 H848 0.929 . S
C852 C854 1.378 . S
C852 C856 1.350 . S
C853 C856 1.463 . S
C853 C858 1.350 . S
C853 N861 1.427 . S
C854 H845 0.930 . S
C854 C852 1.378 . S
C854 C855 1.367 . S
C855 C854 1.367 . S
C855 C857 1.433 . S
C856 C852 1.350 . S
C856 C853 1.463 . S
C856 N860 1.427 . S
C857 H847 0.929 . S
C857 C855 1.433 . S
C857 N860 1.384 . S
C858 H849 0.929 . S
C858 C850 1.378 . S
C858 C853 1.350 . S
C859 H846 0.929 . S
C859 C851 1.433 . S
C859 N861 1.384 . S
N860 C856 1.427 . S
N860 C857 1.384 . S
N861 C853 1.427 . S
N861 C859 1.384 . S
H862 C868 0.930 . S
H863 C872 0.930 . S
H864 C877 0.929 . S
H865 C875 0.929 . S
H866 C870 0.929 . S
H867 C876 0.929 . S
C868 H862 0.930 . S
C868 C869 1.367 . S
C868 C876 1.378 . S
C869 C868 1.367 . S
C869 C877 1.433 . S
C870 H866 0.929 . S
C870 C872 1.378 . S
C870 C874 1.350 . S
C871 C874 1.463 . S
C871 C876 1.350 . S
C871 N879 1.427 . S
C872 H863 0.930 . S
C872 C870 1.378 . S
C872 C873 1.367 . S
C873 C872 1.367 . S
C873 C875 1.433 . S
C874 C870 1.350 . S
C874 C871 1.463 . S
C874 N878 1.427 . S
C875 H865 0.929 . S
C875 C873 1.433 . S
C875 N878 1.384 . S
C876 H867 0.929 . S
C876 C868 1.378 . S
C876 C871 1.350 . S
C877 H864 0.929 . S
C877 C869 1.433 . S
C877 N879 1.384 . S
N878 C874 1.427 . S
N878 C875 1.384 . S
N879 C871 1.427 . S
N879 C877 1.384 . S
H880 C886 0.930 . S
H881 C890 0.930 . S
H882 C895 0.929 . S
H883 C893 0.929 . S
H884 C888 0.929 . S
H885 C894 0.929 . S
C886 H880 0.930 . S
C886 C887 1.367 . S
C886 C894 1.378 . S
C887 C886 1.367 . S
C887 C895 1.433 . S
C888 H884 0.929 . S
C888 C890 1.378 . S
C888 C892 1.350 . S
C889 C892 1.463 . S
C889 C894 1.350 . S
C889 N897 1.427 . S
C890 H881 0.930 . S
C890 C888 1.378 . S
C890 C891 1.367 . S
C891 C890 1.367 . S
C891 C893 1.433 . S
C892 C888 1.350 . S
C892 C889 1.463 . S
C892 N896 1.427 . S
C893 H883 0.929 . S
C893 C891 1.433 . S
C893 N896 1.384 . S
C894 H885 0.929 . S
C894 C886 1.378 . S
C894 C889 1.350 . S
C895 H882 0.929 . S
C895 C887 1.433 . S
C895 N897 1.384 . S
N896 C892 1.427 . S
N896 C893 1.384 . S
N897 C889 1.427 . S
N897 C895 1.384 . S
H898 C904 0.930 . S
H899 C908 0.930 . S
H900 C913 0.929 . S
H901 C911 0.929 . S
H902 C906 0.929 . S
H903 C912 0.929 . S
C904 H898 0.930 . S
C904 C905 1.367 . S
C904 C912 1.378 . S
C905 C904 1.367 . S
C905 C913 1.433 . S
C906 H902 0.929 . S
C906 C908 1.378 . S
C906 C910 1.350 . S
C907 C910 1.463 . S
C907 C912 1.350 . S
C907 N915 1.427 . S
C908 H899 0.930 . S
C908 C906 1.378 . S
C908 C909 1.367 . S
C909 C908 1.367 . S
C909 C911 1.433 . S
C910 C906 1.350 . S
C910 C907 1.463 . S
C910 N914 1.427 . S
C911 H901 0.929 . S
C911 C909 1.433 . S
C911 N914 1.384 . S
C912 H903 0.929 . S
C912 C904 1.378 . S
C912 C907 1.350 . S
C913 H900 0.929 . S
C913 C905 1.433 . S
C913 N915 1.384 . S
N914 C910 1.427 . S
N914 C911 1.384 . S
N915 C907 1.427 . S
N915 C913 1.384 . S
H916 C922 0.930 . S
H917 C926 0.930 . S
H918 C931 0.929 . S
H919 C929 0.929 . S
H920 C924 0.929 . S
H921 C930 0.929 . S
C922 H916 0.930 . S
C922 C923 1.367 . S
C922 C930 1.378 . S
C923 C922 1.367 . S
C923 C931 1.433 . S
C924 H920 0.929 . S
C924 C926 1.378 . S
C924 C928 1.350 . S
C925 C928 1.463 . S
C925 C930 1.350 . S
C925 N933 1.427 . S
C926 H917 0.930 . S
C926 C924 1.378 . S
C926 C927 1.367 . S
C927 C926 1.367 . S
C927 C929 1.433 . S
C928 C924 1.350 . S
C928 C925 1.463 . S
C928 N932 1.427 . S
C929 H919 0.929 . S
C929 C927 1.433 . S
C929 N932 1.384 . S
C930 H921 0.929 . S
C930 C922 1.378 . S
C930 C925 1.350 . S
C931 H918 0.929 . S
C931 C923 1.433 . S
C931 N933 1.384 . S
N932 C928 1.427 . S
N932 C929 1.384 . S
N933 C925 1.427 . S
N933 C931 1.384 . S
H934 C940 0.930 . S
H935 C944 0.930 . S
H936 C949 0.929 . S
H937 C947 0.929 . S
H938 C942 0.929 . S
H939 C948 0.929 . S
C940 H934 0.930 . S
C940 C941 1.367 . S
C940 C948 1.378 . S
C941 C940 1.367 . S
C941 C949 1.433 . S
C942 H938 0.929 . S
C942 C944 1.378 . S
C942 C946 1.350 . S
C943 C946 1.463 . S
C943 C948 1.350 . S
C943 N951 1.427 . S
C944 H935 0.930 . S
C944 C942 1.378 . S
C944 C945 1.367 . S
C945 C944 1.367 . S
C945 C947 1.433 . S
C946 C942 1.350 . S
C946 C943 1.463 . S
C946 N950 1.427 . S
C947 H937 0.929 . S
C947 C945 1.433 . S
C947 N950 1.384 . S
C948 H939 0.929 . S
C948 C940 1.378 . S
C948 C943 1.350 . S
C949 H936 0.929 . S
C949 C941 1.433 . S
C949 N951 1.384 . S
N950 C946 1.427 . S
N950 C947 1.384 . S
N951 C943 1.427 . S
N951 C949 1.384 . S
H952 C958 0.930 . S
H953 C962 0.930 . S
H954 C967 0.929 . S
H955 C965 0.929 . S
H956 C960 0.929 . S
H957 C966 0.929 . S
C958 H952 0.930 . S
C958 C959 1.367 . S
C958 C966 1.378 . S
C959 C958 1.367 . S
C959 C967 1.433 . S
C960 H956 0.929 . S
C960 C962 1.378 . S
C960 C964 1.350 . S
C961 C964 1.463 . S
C961 C966 1.350 . S
C961 N969 1.427 . S
C962 H953 0.930 . S
C962 C960 1.378 . S
C962 C963 1.367 . S
C963 C962 1.367 . S
C963 C965 1.433 . S
C964 C960 1.350 . S
C964 C961 1.463 . S
C964 N968 1.427 . S
C965 H955 0.929 . S
C965 C963 1.433 . S
C965 N968 1.384 . S
C966 H957 0.929 . S
C966 C958 1.378 . S
C966 C961 1.350 . S
C967 H954 0.929 . S
C967 C959 1.433 . S
C967 N969 1.384 . S
N968 C964 1.427 . S
N968 C965 1.384 . S
N969 C961 1.427 . S
N969 C967 1.384 . S
H970 C976 0.930 1_556 S
H971 C980 0.930 . S
H972 C985 0.929 . S
H973 C983 0.929 1_556 S
H974 C978 0.929 . S
H975 C984 0.929 1_556 S
C976 H970 0.930 1_554 S
C976 C977 1.367 . S
C976 C984 1.378 . S
C977 C976 1.367 . S
C977 C985 1.433 . S
C978 H974 0.929 . S
C978 C980 1.378 . S
C978 C982 1.350 . S
C979 C982 1.463 1_655 S
C979 C984 1.350 . S
C979 N987 1.427 . S
C980 H971 0.930 . S
C980 C978 1.378 . S
C980 C981 1.367 . S
C981 C980 1.367 . S
C981 C983 1.433 . S
C982 C978 1.350 . S
C982 C979 1.463 1_455 S
C982 N986 1.427 . S
C983 H973 0.929 1_554 S
C983 C981 1.433 . S
C983 N986 1.384 . S
C984 H975 0.929 1_554 S
C984 C976 1.378 . S
C984 C979 1.350 . S
C985 H972 0.929 . S
C985 C977 1.433 . S
C985 N987 1.384 . S
N986 C982 1.427 . S
N986 C983 1.384 . S
N987 C979 1.427 . S
N987 C985 1.384 . S
H988 C994 0.930 . S
H989 C998 0.930 . S
H990 C1003 0.929 . S
H991 C1001 0.929 . S
H992 C996 0.929 . S
H993 C1002 0.929 . S
C994 H988 0.930 . S
C994 C995 1.367 . S
C994 C1002 1.378 . S
C995 C994 1.367 . S
C995 C1003 1.433 . S
C996 H992 0.929 . S
C996 C998 1.378 . S
C996 C1000 1.350 . S
C997 C1000 1.463 . S
C997 C1002 1.350 . S
C997 N1005 1.427 . S
C998 H989 0.930 . S
C998 C996 1.378 . S
C998 C999 1.367 . S
C999 C998 1.367 . S
C999 C1001 1.433 . S
C1000 C996 1.350 . S
C1000 C997 1.463 . S
C1000 N1004 1.427 . S
C1001 H991 0.929 . S
C1001 C999 1.433 . S
C1001 N1004 1.384 . S
C1002 H993 0.929 . S
C1002 C994 1.378 . S
C1002 C997 1.350 . S
C1003 H990 0.929 . S
C1003 C995 1.433 . S
C1003 N1005 1.384 . S
N1004 C1000 1.427 . S
N1004 C1001 1.384 . S
N1005 C997 1.427 . S
N1005 C1003 1.384 . S
H1006 C1012 0.930 . S
H1007 C1016 0.930 1_554 S
H1008 C1021 0.929 1_554 S
H1009 C1019 0.929 . S
H1010 C1014 0.929 1_554 S
H1011 C1020 0.929 . S
C1012 H1006 0.930 . S
C1012 C1013 1.367 . S
C1012 C1020 1.378 . S
C1013 C1012 1.367 . S
C1013 C1021 1.433 . S
C1014 H1010 0.929 1_556 S
C1014 C1016 1.378 . S
C1014 C1018 1.350 . S
C1015 C1018 1.463 1_455 S
C1015 C1020 1.350 . S
C1015 N1023 1.427 . S
C1016 H1007 0.930 1_556 S
C1016 C1014 1.378 . S
C1016 C1017 1.367 . S
C1017 C1016 1.367 . S
C1017 C1019 1.433 . S
C1018 C1014 1.350 . S
C1018 C1015 1.463 1_655 S
C1018 N1022 1.427 . S
C1019 H1009 0.929 . S
C1019 C1017 1.433 . S
C1019 N1022 1.384 . S
C1020 H1011 0.929 . S
C1020 C1012 1.378 . S
C1020 C1015 1.350 . S
C1021 H1008 0.929 1_556 S
C1021 C1013 1.433 . S
C1021 N1023 1.384 . S
N1022 C1018 1.427 . S
N1022 C1019 1.384 . S
N1023 C1015 1.427 . S
N1023 C1021 1.384 . S
H1024 C1030 0.930 . S
H1025 C1034 0.930 . S
H1026 C1039 0.929 . S
H1027 C1037 0.929 . S
H1028 C1032 0.929 . S
H1029 C1038 0.929 . S
C1030 H1024 0.930 . S
C1030 C1031 1.367 1_554 S
C1030 C1038 1.378 . S
C1031 C1030 1.367 1_556 S
C1031 C1039 1.433 . S
C1032 H1028 0.929 . S
C1032 C1034 1.378 . S
C1032 C1036 1.307 1_556 S
C1033 C1036 1.457 1_556 S
C1033 C1038 1.307 1_556 S
C1033 N1041 1.479 . S
C1034 H1025 0.930 . S
C1034 C1032 1.378 . S
C1034 C1035 1.367 1_556 S
C1035 C1034 1.367 1_554 S
C1035 C1037 1.433 . S
C1036 C1032 1.307 1_554 S
C1036 C1033 1.457 1_554 S
C1036 N1040 1.479 . S
C1037 H1027 0.929 . S
C1037 C1035 1.433 . S
C1037 N1040 1.384 . S
C1038 H1029 0.929 . S
C1038 C1030 1.378 . S
C1038 C1033 1.307 1_554 S
C1039 H1026 0.929 . S
C1039 C1031 1.433 . S
C1039 N1041 1.384 . S
N1040 C1036 1.479 . S
N1040 C1037 1.384 . S
N1041 C1033 1.479 . S
N1041 C1039 1.384 . S
H1042 C1048 0.930 . S
H1043 C1052 0.930 . S
H1044 C1057 0.929 . S
H1045 C1055 0.929 . S
H1046 C1050 0.929 . S
H1047 C1056 0.929 . S
C1048 H1042 0.930 . S
C1048 C1049 1.367 . S
C1048 C1056 1.378 . S
C1049 C1048 1.367 . S
C1049 C1057 1.433 . S
C1050 H1046 0.929 . S
C1050 C1052 1.378 . S
C1050 C1054 1.350 . S
C1051 C1054 1.463 . S
C1051 C1056 1.350 . S
C1051 N1059 1.427 . S
C1052 H1043 0.930 . S
C1052 C1050 1.378 . S
C1052 C1053 1.367 . S
C1053 C1052 1.367 . S
C1053 C1055 1.433 . S
C1054 C1050 1.350 . S
C1054 C1051 1.463 . S
C1054 N1058 1.427 . S
C1055 H1045 0.929 . S
C1055 C1053 1.433 . S
C1055 N1058 1.384 . S
C1056 H1047 0.929 . S
C1056 C1048 1.378 . S
C1056 C1051 1.350 . S
C1057 H1044 0.929 . S
C1057 C1049 1.433 . S
C1057 N1059 1.384 . S
N1058 C1054 1.427 . S
N1058 C1055 1.384 . S
N1059 C1051 1.427 . S
N1059 C1057 1.384 . S
H1060 C1066 0.930 . S
H1061 C1070 0.930 . S
H1062 C1075 0.929 . S
H1063 C1073 0.929 . S
H1064 C1068 0.929 . S
H1065 C1074 0.929 . S
C1066 H1060 0.930 . S
C1066 C1067 1.367 . S
C1066 C1074 1.378 . S
C1067 C1066 1.367 . S
C1067 C1075 1.433 . S
C1068 H1064 0.929 . S
C1068 C1070 1.378 . S
C1068 C1072 1.350 . S
C1069 C1072 1.463 . S
C1069 C1074 1.350 . S
C1069 N1077 1.427 . S
C1070 H1061 0.930 . S
C1070 C1068 1.378 . S
C1070 C1071 1.367 . S
C1071 C1070 1.367 . S
C1071 C1073 1.433 . S
C1072 C1068 1.350 . S
C1072 C1069 1.463 . S
C1072 N1076 1.427 . S
C1073 H1063 0.929 . S
C1073 C1071 1.433 . S
C1073 N1076 1.384 . S
C1074 H1065 0.929 . S
C1074 C1066 1.378 . S
C1074 C1069 1.350 . S
C1075 H1062 0.929 . S
C1075 C1067 1.433 . S
C1075 N1077 1.384 . S
N1076 C1072 1.427 . S
N1076 C1073 1.384 . S
N1077 C1069 1.427 . S
N1077 C1075 1.384 . S
H1078 C1084 0.930 . S
H1079 C1088 0.930 . S
H1080 C1093 0.929 . S
H1081 C1091 0.929 . S
H1082 C1086 0.929 . S
H1083 C1092 0.929 . S
C1084 H1078 0.930 . S
C1084 C1085 1.367 . S
C1084 C1092 1.378 . S
C1085 C1084 1.367 . S
C1085 C1093 1.433 . S
C1086 H1082 0.929 . S
C1086 C1088 1.378 . S
C1086 C1090 1.350 . S
C1087 C1090 1.463 . S
C1087 C1092 1.350 . S
C1087 N1095 1.427 . S
C1088 H1079 0.930 . S
C1088 C1086 1.378 . S
C1088 C1089 1.367 . S
C1089 C1088 1.367 . S
C1089 C1091 1.433 . S
C1090 C1086 1.350 . S
C1090 C1087 1.463 . S
C1090 N1094 1.427 . S
C1091 H1081 0.929 . S
C1091 C1089 1.433 . S
C1091 N1094 1.384 . S
C1092 H1083 0.929 . S
C1092 C1084 1.378 . S
C1092 C1087 1.350 . S
C1093 H1080 0.929 . S
C1093 C1085 1.433 . S
C1093 N1095 1.384 . S
N1094 C1090 1.427 . S
N1094 C1091 1.384 . S
N1095 C1087 1.427 . S
N1095 C1093 1.384 . S
H1096 C1102 0.930 . S
H1097 C1106 0.930 . S
H1098 C1111 0.929 . S
H1099 C1109 0.929 . S
H1100 C1104 0.929 . S
H1101 C1110 0.929 . S
C1102 H1096 0.930 . S
C1102 C1103 1.367 1_556 S
C1102 C1110 1.378 . S
C1103 C1102 1.367 1_554 S
C1103 C1111 1.433 . S
C1104 H1100 0.929 . S
C1104 C1106 1.378 . S
C1104 C1108 1.309 1_554 S
C1105 C1108 1.457 1_554 S
C1105 C1110 1.309 1_554 S
C1105 N1113 1.478 . S
C1106 H1097 0.930 . S
C1106 C1104 1.378 . S
C1106 C1107 1.367 1_554 S
C1107 C1106 1.367 1_556 S
C1107 C1109 1.433 . S
C1108 C1104 1.309 1_556 S
C1108 C1105 1.457 1_556 S
C1108 N1112 1.478 . S
C1109 H1099 0.929 . S
C1109 C1107 1.433 . S
C1109 N1112 1.384 . S
C1110 H1101 0.929 . S
C1110 C1102 1.378 . S
C1110 C1105 1.309 1_556 S
C1111 H1098 0.929 . S
C1111 C1103 1.433 . S
C1111 N1113 1.384 . S
N1112 C1108 1.478 . S
N1112 C1109 1.384 . S
N1113 C1105 1.478 . S
N1113 C1111 1.384 . S
H1114 C1120 0.930 . S
H1115 C1124 0.930 . S
H1116 C1129 0.929 . S
H1117 C1127 0.929 . S
H1118 C1122 0.929 . S
H1119 C1128 0.929 . S
C1120 H1114 0.930 . S
C1120 C1121 1.367 . S
C1120 C1128 1.378 . S
C1121 C1120 1.367 . S
C1121 C1129 1.433 . S
C1122 H1118 0.929 . S
C1122 C1124 1.378 . S
C1122 C1126 1.350 . S
C1123 C1126 1.463 . S
C1123 C1128 1.350 . S
C1123 N1131 1.427 . S
C1124 H1115 0.930 . S
C1124 C1122 1.378 . S
C1124 C1125 1.367 . S
C1125 C1124 1.367 . S
C1125 C1127 1.433 . S
C1126 C1122 1.350 . S
C1126 C1123 1.463 . S
C1126 N1130 1.427 . S
C1127 H1117 0.929 . S
C1127 C1125 1.433 . S
C1127 N1130 1.384 . S
C1128 H1119 0.929 . S
C1128 C1120 1.378 . S
C1128 C1123 1.350 . S
C1129 H1116 0.929 . S
C1129 C1121 1.433 . S
C1129 N1131 1.384 . S
N1130 C1126 1.427 . S
N1130 C1127 1.384 . S
N1131 C1123 1.427 . S
N1131 C1129 1.384 . S
H1132 C1138 0.930 . S
H1133 C1142 0.930 . S
H1134 C1147 0.929 . S
H1135 C1145 0.929 . S
H1136 C1140 0.929 . S
H1137 C1146 0.929 . S
C1138 H1132 0.930 . S
C1138 C1139 1.367 . S
C1138 C1146 1.378 . S
C1139 C1138 1.367 . S
C1139 C1147 1.433 . S
C1140 H1136 0.929 . S
C1140 C1142 1.378 . S
C1140 C1144 1.350 . S
C1141 C1144 1.463 . S
C1141 C1146 1.350 . S
C1141 N1149 1.427 . S
C1142 H1133 0.930 . S
C1142 C1140 1.378 . S
C1142 C1143 1.367 . S
C1143 C1142 1.367 . S
C1143 C1145 1.433 . S
C1144 C1140 1.350 . S
C1144 C1141 1.463 . S
C1144 N1148 1.427 . S
C1145 H1135 0.929 . S
C1145 C1143 1.433 . S
C1145 N1148 1.384 . S
C1146 H1137 0.929 . S
C1146 C1138 1.378 . S
C1146 C1141 1.350 . S
C1147 H1134 0.929 . S
C1147 C1139 1.433 . S
C1147 N1149 1.384 . S
N1148 C1144 1.427 . S
N1148 C1145 1.384 . S
N1149 C1141 1.427 . S
N1149 C1147 1.384 . S
H1150 C1156 0.930 . S
H1151 C1160 0.930 . S
H1152 C1165 0.929 . S
H1153 C1163 0.929 . S
H1154 C1158 0.929 . S
H1155 C1164 0.929 . S
C1156 H1150 0.930 . S
C1156 C1157 1.367 . S
C1156 C1164 1.378 . S
C1157 C1156 1.367 . S
C1157 C1165 1.433 . S
C1158 H1154 0.929 . S
C1158 C1160 1.378 . S
C1158 C1162 1.350 . S
C1159 C1162 1.463 . S
C1159 C1164 1.350 . S
C1159 N1167 1.427 . S
C1160 H1151 0.930 . S
C1160 C1158 1.378 . S
C1160 C1161 1.367 . S
C1161 C1160 1.367 . S
C1161 C1163 1.433 . S
C1162 C1158 1.350 . S
C1162 C1159 1.463 . S
C1162 N1166 1.427 . S
C1163 H1153 0.929 . S
C1163 C1161 1.433 . S
C1163 N1166 1.384 . S
C1164 H1155 0.929 . S
C1164 C1156 1.378 . S
C1164 C1159 1.350 . S
C1165 H1152 0.929 . S
C1165 C1157 1.433 . S
C1165 N1167 1.384 . S
N1166 C1162 1.427 . S
N1166 C1163 1.384 . S
N1167 C1159 1.427 . S
N1167 C1165 1.384 . S
H1168 C1174 0.930 . S
H1169 C1178 0.930 . S
H1170 C1183 0.929 . S
H1171 C1181 0.929 . S
H1172 C1176 0.929 . S
H1173 C1182 0.929 . S
C1174 H1168 0.930 . S
C1174 C1175 1.367 . S
C1174 C1182 1.378 . S
C1175 C1174 1.367 . S
C1175 C1183 1.433 . S
C1176 H1172 0.929 . S
C1176 C1178 1.378 . S
C1176 C1180 1.350 . S
C1177 C1180 1.463 1_545 S
C1177 C1182 1.350 . S
C1177 N1185 1.427 . S
C1178 H1169 0.930 . S
C1178 C1176 1.378 . S
C1178 C1179 1.367 . S
C1179 C1178 1.367 . S
C1179 C1181 1.433 . S
C1180 C1176 1.350 . S
C1180 C1177 1.463 1_565 S
C1180 N1184 1.427 . S
C1181 H1171 0.929 . S
C1181 C1179 1.433 . S
C1181 N1184 1.384 . S
C1182 H1173 0.929 . S
C1182 C1174 1.378 . S
C1182 C1177 1.350 . S
C1183 H1170 0.929 . S
C1183 C1175 1.433 . S
C1183 N1185 1.384 . S
N1184 C1180 1.427 . S
N1184 C1181 1.384 . S
N1185 C1177 1.427 . S
N1185 C1183 1.384 . S
H1186 C1192 0.930 . S
H1187 C1196 0.930 . S
H1188 C1201 0.929 . S
H1189 C1199 0.929 . S
H1190 C1194 0.929 . S
H1191 C1200 0.929 . S
C1192 H1186 0.930 . S
C1192 C1193 1.367 . S
C1192 C1200 1.378 . S
C1193 C1192 1.367 . S
C1193 C1201 1.433 . S
C1194 H1190 0.929 . S
C1194 C1196 1.378 . S
C1194 C1198 1.350 . S
C1195 C1198 1.463 . S
C1195 C1200 1.350 . S
C1195 N1203 1.427 . S
C1196 H1187 0.930 . S
C1196 C1194 1.378 . S
C1196 C1197 1.367 . S
C1197 C1196 1.367 . S
C1197 C1199 1.433 . S
C1198 C1194 1.350 . S
C1198 C1195 1.463 . S
C1198 N1202 1.427 . S
C1199 H1189 0.929 . S
C1199 C1197 1.433 . S
C1199 N1202 1.384 . S
C1200 H1191 0.929 . S
C1200 C1192 1.378 . S
C1200 C1195 1.350 . S
C1201 H1188 0.929 . S
C1201 C1193 1.433 . S
C1201 N1203 1.384 . S
N1202 C1198 1.427 . S
N1202 C1199 1.384 . S
N1203 C1195 1.427 . S
N1203 C1201 1.384 . S
H1204 C1210 0.930 . S
H1205 C1214 0.930 . S
H1206 C1219 0.929 . S
H1207 C1217 0.929 . S
H1208 C1212 0.929 . S
H1209 C1218 0.929 . S
C1210 H1204 0.930 . S
C1210 C1211 1.367 . S
C1210 C1218 1.378 . S
C1211 C1210 1.367 . S
C1211 C1219 1.433 . S
C1212 H1208 0.929 . S
C1212 C1214 1.378 . S
C1212 C1216 1.350 . S
C1213 C1216 1.463 1_564 S
C1213 C1218 1.350 . S
C1213 N1221 1.429 . S
C1214 H1205 0.930 . S
C1214 C1212 1.378 . S
C1214 C1215 1.367 . S
C1215 C1214 1.367 . S
C1215 C1217 1.433 . S
C1216 C1212 1.350 . S
C1216 C1213 1.463 1_546 S
C1216 N1220 1.429 . S
C1217 H1207 0.929 . S
C1217 C1215 1.433 . S
C1217 N1220 1.387 . S
C1218 H1209 0.929 . S
C1218 C1210 1.378 . S
C1218 C1213 1.350 . S
C1219 H1206 0.929 . S
C1219 C1211 1.433 . S
C1219 N1221 1.387 . S
N1220 C1216 1.429 . S
N1220 C1217 1.387 . S
N1221 C1213 1.429 . S
N1221 C1219 1.387 . S
H1222 C1228 0.930 . S
H1223 C1232 0.930 . S
H1224 C1237 0.929 . S
H1225 C1235 0.929 . S
H1226 C1230 0.929 . S
H1227 C1236 0.929 . S
C1228 H1222 0.930 . S
C1228 C1229 1.367 . S
C1228 C1236 1.378 . S
C1229 C1228 1.367 . S
C1229 C1237 1.433 . S
C1230 H1226 0.929 . S
C1230 C1232 1.378 . S
C1230 C1234 1.350 . S
C1231 C1234 1.463 . S
C1231 C1236 1.350 . S
C1231 N1239 1.427 . S
C1232 H1223 0.930 . S
C1232 C1230 1.378 . S
C1232 C1233 1.367 . S
C1233 C1232 1.367 . S
C1233 C1235 1.433 . S
C1234 C1230 1.350 . S
C1234 C1231 1.463 . S
C1234 N1238 1.427 . S
C1235 H1225 0.929 . S
C1235 C1233 1.433 . S
C1235 N1238 1.384 . S
C1236 H1227 0.929 . S
C1236 C1228 1.378 . S
C1236 C1231 1.350 . S
C1237 H1224 0.929 . S
C1237 C1229 1.433 . S
C1237 N1239 1.384 . S
N1238 C1234 1.427 . S
N1238 C1235 1.384 . S
N1239 C1231 1.427 . S
N1239 C1237 1.384 . S
H1240 C1246 0.930 . S
H1241 C1250 0.930 . S
H1242 C1255 0.929 . S
H1243 C1253 0.929 . S
H1244 C1248 0.929 . S
H1245 C1254 0.929 . S
C1246 H1240 0.930 . S
C1246 C1247 1.367 . S
C1246 C1254 1.378 . S
C1247 C1246 1.367 . S
C1247 C1255 1.433 . S
C1248 H1244 0.929 . S
C1248 C1250 1.378 . S
C1248 C1252 1.350 . S
C1249 C1252 1.463 1_545 S
C1249 C1254 1.350 . S
C1249 N1257 1.427 . S
C1250 H1241 0.930 . S
C1250 C1248 1.378 . S
C1250 C1251 1.367 . S
C1251 C1250 1.367 . S
C1251 C1253 1.433 . S
C1252 C1248 1.350 . S
C1252 C1249 1.463 1_565 S
C1252 N1256 1.427 . S
C1253 H1243 0.929 . S
C1253 C1251 1.433 . S
C1253 N1256 1.384 . S
C1254 H1245 0.929 . S
C1254 C1246 1.378 . S
C1254 C1249 1.350 . S
C1255 H1242 0.929 . S
C1255 C1247 1.433 . S
C1255 N1257 1.384 . S
N1256 C1252 1.427 . S
N1256 C1253 1.384 . S
N1257 C1249 1.427 . S
N1257 C1255 1.384 . S
H1258 C1264 0.930 . S
H1259 C1268 0.930 . S
H1260 C1273 0.929 . S
H1261 C1271 0.929 . S
H1262 C1266 0.929 . S
H1263 C1272 0.929 . S
C1264 H1258 0.930 . S
C1264 C1265 1.367 . S
C1264 C1272 1.378 . S
C1265 C1264 1.367 . S
C1265 C1273 1.433 . S
C1266 H1262 0.929 . S
C1266 C1268 1.378 . S
C1266 C1270 1.350 . S
C1267 C1270 1.463 . S
C1267 C1272 1.350 . S
C1267 N1275 1.427 . S
C1268 H1259 0.930 . S
C1268 C1266 1.378 . S
C1268 C1269 1.367 . S
C1269 C1268 1.367 . S
C1269 C1271 1.433 . S
C1270 C1266 1.350 . S
C1270 C1267 1.463 . S
C1270 N1274 1.427 . S
C1271 H1261 0.929 . S
C1271 C1269 1.433 . S
C1271 N1274 1.384 . S
C1272 H1263 0.929 . S
C1272 C1264 1.378 . S
C1272 C1267 1.350 . S
C1273 H1260 0.929 . S
C1273 C1265 1.433 . S
C1273 N1275 1.384 . S
N1274 C1270 1.427 . S
N1274 C1271 1.384 . S
N1275 C1267 1.427 . S
N1275 C1273 1.384 . S
H1276 C1282 0.930 . S
H1277 C1286 0.930 . S
H1278 C1291 0.929 . S
H1279 C1289 0.929 . S
H1280 C1284 0.929 . S
H1281 C1290 0.929 . S
C1282 H1276 0.930 . S
C1282 C1283 1.367 . S
C1282 C1290 1.378 . S
C1283 C1282 1.367 . S
C1283 C1291 1.433 1_554 S
C1284 H1280 0.929 . S
C1284 C1286 1.378 . S
C1284 C1288 1.350 . S
C1285 C1288 1.463 1_564 S
C1285 C1290 1.350 . S
C1285 N1293 1.427 1_554 S
C1286 H1277 0.930 . S
C1286 C1284 1.378 . S
C1286 C1287 1.367 . S
C1287 C1286 1.367 . S
C1287 C1289 1.433 1_556 S
C1288 C1284 1.350 . S
C1288 C1285 1.463 1_546 S
C1288 N1292 1.427 1_556 S
C1289 H1279 0.929 . S
C1289 C1287 1.433 1_554 S
C1289 N1292 1.384 . S
C1290 H1281 0.929 . S
C1290 C1282 1.378 . S
C1290 C1285 1.350 . S
C1291 H1278 0.929 . S
C1291 C1283 1.433 1_556 S
C1291 N1293 1.384 . S
N1292 C1288 1.427 1_554 S
N1292 C1289 1.384 . S
N1293 C1285 1.427 1_556 S
N1293 C1291 1.384 . S
H1294 C1300 0.930 . S
H1295 C1304 0.930 . S
H1296 C1309 0.929 . S
H1297 C1307 0.929 . S
H1298 C1302 0.929 . S
H1299 C1308 0.929 . S
C1300 H1294 0.930 . S
C1300 C1301 1.367 . S
C1300 C1308 1.378 . S
C1301 C1300 1.367 . S
C1301 C1309 1.433 . S
C1302 H1298 0.929 . S
C1302 C1304 1.378 . S
C1302 C1306 1.350 . S
C1303 C1306 1.463 . S
C1303 C1308 1.350 . S
C1303 N1311 1.427 . S
C1304 H1295 0.930 . S
C1304 C1302 1.378 . S
C1304 C1305 1.367 . S
C1305 C1304 1.367 . S
C1305 C1307 1.433 . S
C1306 C1302 1.350 . S
C1306 C1303 1.463 . S
C1306 N1310 1.427 . S
C1307 H1297 0.929 . S
C1307 C1305 1.433 . S
C1307 N1310 1.384 . S
C1308 H1299 0.929 . S
C1308 C1300 1.378 . S
C1308 C1303 1.350 . S
C1309 H1296 0.929 . S
C1309 C1301 1.433 . S
C1309 N1311 1.384 . S
N1310 C1306 1.427 . S
N1310 C1307 1.384 . S
N1311 C1303 1.427 . S
N1311 C1309 1.384 . S
H1312 C1318 0.921 1_556 S
H1313 C1322 0.930 . S
H1314 C1327 0.929 . S
H1315 C1325 0.926 . S
H1316 C1320 0.929 . S
H1317 C1326 0.920 1_556 S
C1318 H1312 0.921 1_554 S
C1318 C1319 1.376 . S
C1318 C1326 1.378 . S
C1319 C1318 1.376 . S
C1319 C1327 1.433 . S
C1320 H1316 0.929 . S
C1320 C1322 1.378 . S
C1320 C1324 1.350 . S
C1321 C1324 1.463 . S
C1321 C1326 1.359 . S
C1321 N1329 1.427 . S
C1322 H1313 0.930 . S
C1322 C1320 1.378 . S
C1322 C1323 1.367 . S
C1323 C1322 1.367 . S
C1323 C1325 1.436 1_554 S
C1324 C1320 1.350 . S
C1324 C1321 1.463 . S
C1324 N1328 1.432 . S
C1325 H1315 0.926 . S
C1325 C1323 1.436 1_556 S
C1325 N1328 1.384 1_556 S
C1326 H1317 0.920 1_554 S
C1326 C1318 1.378 . S
C1326 C1321 1.359 . S
C1327 H1314 0.929 . S
C1327 C1319 1.433 . S
C1327 N1329 1.384 . S
N1328 C1324 1.432 . S
N1328 C1325 1.384 1_554 S
N1329 C1321 1.427 . S
N1329 C1327 1.384 . S
H1330 C1336 0.930 . S
H1331 C1340 0.930 . S
H1332 C1345 0.929 . S
H1333 C1343 0.929 . S
H1334 C1338 0.929 . S
H1335 C1344 0.929 . S
C1336 H1330 0.930 . S
C1336 C1337 1.367 . S
C1336 C1344 1.378 . S
C1337 C1336 1.367 . S
C1337 C1345 1.433 . S
C1338 H1334 0.929 . S
C1338 C1340 1.378 . S
C1338 C1342 1.350 . S
C1339 C1342 1.463 . S
C1339 C1344 1.350 . S
C1339 N1347 1.427 . S
C1340 H1331 0.930 . S
C1340 C1338 1.378 . S
C1340 C1341 1.367 . S
C1341 C1340 1.367 . S
C1341 C1343 1.433 . S
C1342 C1338 1.350 . S
C1342 C1339 1.463 . S
C1342 N1346 1.427 . S
C1343 H1333 0.929 . S
C1343 C1341 1.433 . S
C1343 N1346 1.384 . S
C1344 H1335 0.929 . S
C1344 C1336 1.378 . S
C1344 C1339 1.350 . S
C1345 H1332 0.929 . S
C1345 C1337 1.433 . S
C1345 N1347 1.384 . S
N1346 C1342 1.427 . S
N1346 C1343 1.384 . S
N1347 C1339 1.427 . S
N1347 C1345 1.384 . S
H1348 C1354 0.930 . S
H1349 C1358 0.930 . S
H1350 C1363 0.929 . S
H1351 C1361 0.929 . S
H1352 C1356 0.929 . S
H1353 C1362 0.929 . S
C1354 H1348 0.930 . S
C1354 C1355 1.367 . S
C1354 C1362 1.378 . S
C1355 C1354 1.367 . S
C1355 C1363 1.433 . S
C1356 H1352 0.929 . S
C1356 C1358 1.378 . S
C1356 C1360 1.350 . S
C1357 C1360 1.463 . S
C1357 C1362 1.350 . S
C1357 N1365 1.427 . S
C1358 H1349 0.930 . S
C1358 C1356 1.378 . S
C1358 C1359 1.367 . S
C1359 C1358 1.367 . S
C1359 C1361 1.433 . S
C1360 C1356 1.350 . S
C1360 C1357 1.463 . S
C1360 N1364 1.427 . S
C1361 H1351 0.929 . S
C1361 C1359 1.433 . S
C1361 N1364 1.384 . S
C1362 H1353 0.929 . S
C1362 C1354 1.378 . S
C1362 C1357 1.350 . S
C1363 H1350 0.929 . S
C1363 C1355 1.433 . S
C1363 N1365 1.384 . S
N1364 C1360 1.427 . S
N1364 C1361 1.384 . S
N1365 C1357 1.427 . S
N1365 C1363 1.384 . S
H1366 C1372 0.930 . S
H1367 C1376 0.930 . S
H1368 C1381 0.929 . S
H1369 C1379 0.929 . S
H1370 C1374 0.929 . S
H1371 C1380 0.929 . S
C1372 H1366 0.930 . S
C1372 C1373 1.367 . S
C1372 C1380 1.378 . S
C1373 C1372 1.367 . S
C1373 C1381 1.433 . S
C1374 H1370 0.929 . S
C1374 C1376 1.378 . S
C1374 C1378 1.350 . S
C1375 C1378 1.463 1_655 S
C1375 C1380 1.350 . S
C1375 N1383 1.427 . S
C1376 H1367 0.930 . S
C1376 C1374 1.378 . S
C1376 C1377 1.367 . S
C1377 C1376 1.367 . S
C1377 C1379 1.433 . S
C1378 C1374 1.350 . S
C1378 C1375 1.463 1_455 S
C1378 N1382 1.427 . S
C1379 H1369 0.929 . S
C1379 C1377 1.433 . S
C1379 N1382 1.384 . S
C1380 H1371 0.929 . S
C1380 C1372 1.378 . S
C1380 C1375 1.350 . S
C1381 H1368 0.929 . S
C1381 C1373 1.433 . S
C1381 N1383 1.384 . S
N1382 C1378 1.427 . S
N1382 C1379 1.384 . S
N1383 C1375 1.427 . S
N1383 C1381 1.384 . S
H1384 C1390 0.930 1_554 S
H1385 C1394 0.930 . S
H1386 C1399 0.929 . S
H1387 C1397 0.929 1_554 S
H1388 C1392 0.929 . S
H1389 C1398 0.929 1_554 S
C1390 H1384 0.930 1_556 S
C1390 C1391 1.367 . S
C1390 C1398 1.378 . S
C1391 C1390 1.367 . S
C1391 C1399 1.433 . S
C1392 H1388 0.929 . S
C1392 C1394 1.378 . S
C1392 C1396 1.350 . S
C1393 C1396 1.463 . S
C1393 C1398 1.350 . S
C1393 N1401 1.427 . S
C1394 H1385 0.930 . S
C1394 C1392 1.378 . S
C1394 C1395 1.367 . S
C1395 C1394 1.367 . S
C1395 C1397 1.433 . S
C1396 C1392 1.350 . S
C1396 C1393 1.463 . S
C1396 N1400 1.427 . S
C1397 H1387 0.929 1_556 S
C1397 C1395 1.433 . S
C1397 N1400 1.384 . S
C1398 H1389 0.929 1_556 S
C1398 C1390 1.378 . S
C1398 C1393 1.350 . S
C1399 H1386 0.929 . S
C1399 C1391 1.433 . S
C1399 N1401 1.384 . S
N1400 C1396 1.427 . S
N1400 C1397 1.384 . S
N1401 C1393 1.427 . S
N1401 C1399 1.384 . S
H1402 C1408 0.930 . S
H1403 C1412 0.930 . S
H1404 C1417 0.929 . S
H1405 C1415 0.929 . S
H1406 C1410 0.929 . S
H1407 C1416 0.929 . S
C1408 H1402 0.930 . S
C1408 C1409 1.367 . S
C1408 C1416 1.378 . S
C1409 C1408 1.367 . S
C1409 C1417 1.433 . S
C1410 H1406 0.929 . S
C1410 C1412 1.378 . S
C1410 C1414 1.350 . S
C1411 C1414 1.463 1_655 S
C1411 C1416 1.350 . S
C1411 N1419 1.427 . S
C1412 H1403 0.930 . S
C1412 C1410 1.378 . S
C1412 C1413 1.367 . S
C1413 C1412 1.367 . S
C1413 C1415 1.433 . S
C1414 C1410 1.350 . S
C1414 C1411 1.463 1_455 S
C1414 N1418 1.427 . S
C1415 H1405 0.929 . S
C1415 C1413 1.433 . S
C1415 N1418 1.384 . S
C1416 H1407 0.929 . S
C1416 C1408 1.378 . S
C1416 C1411 1.350 . S
C1417 H1404 0.929 . S
C1417 C1409 1.433 . S
C1417 N1419 1.384 . S
N1418 C1414 1.427 . S
N1418 C1415 1.384 . S
N1419 C1411 1.427 . S
N1419 C1417 1.384 . S
H1420 C1426 0.930 . S
H1421 C1430 0.930 . S
H1422 C1435 0.929 . S
H1423 C1433 0.929 . S
H1424 C1428 0.929 . S
H1425 C1434 0.929 . S
C1426 H1420 0.930 . S
C1426 C1427 1.367 . S
C1426 C1434 1.378 . S
C1427 C1426 1.367 . S
C1427 C1435 1.433 . S
C1428 H1424 0.929 . S
C1428 C1430 1.378 . S
C1428 C1432 1.350 . S
C1429 C1432 1.463 . S
C1429 C1434 1.350 . S
C1429 N1437 1.427 . S
C1430 H1421 0.930 . S
C1430 C1428 1.378 . S
C1430 C1431 1.367 . S
C1431 C1430 1.367 . S
C1431 C1433 1.433 . S
C1432 C1428 1.350 . S
C1432 C1429 1.463 . S
C1432 N1436 1.427 . S
C1433 H1423 0.929 . S
C1433 C1431 1.433 . S
C1433 N1436 1.384 . S
C1434 H1425 0.929 . S
C1434 C1426 1.378 . S
C1434 C1429 1.350 . S
C1435 H1422 0.929 . S
C1435 C1427 1.433 . S
C1435 N1437 1.384 . S
N1436 C1432 1.427 . S
N1436 C1433 1.384 . S
N1437 C1429 1.427 . S
N1437 C1435 1.384 . S
H1438 C1444 0.930 . S
H1439 C1448 0.930 . S
H1440 C1453 0.929 . S
H1441 C1451 0.929 . S
H1442 C1446 0.929 . S
H1443 C1452 0.929 . S
C1444 H1438 0.930 . S
C1444 C1445 1.367 . S
C1444 C1452 1.378 . S
C1445 C1444 1.367 . S
C1445 C1453 1.433 . S
C1446 H1442 0.929 . S
C1446 C1448 1.378 . S
C1446 C1450 1.350 . S
C1447 C1450 1.463 . S
C1447 C1452 1.350 . S
C1447 N1455 1.427 . S
C1448 H1439 0.930 . S
C1448 C1446 1.378 . S
C1448 C1449 1.367 . S
C1449 C1448 1.367 . S
C1449 C1451 1.433 . S
C1450 C1446 1.350 . S
C1450 C1447 1.463 . S
C1450 N1454 1.427 . S
C1451 H1441 0.929 . S
C1451 C1449 1.433 . S
C1451 N1454 1.384 . S
C1452 H1443 0.929 . S
C1452 C1444 1.378 . S
C1452 C1447 1.350 . S
C1453 H1440 0.929 . S
C1453 C1445 1.433 . S
C1453 N1455 1.384 . S
N1454 C1450 1.427 . S
N1454 C1451 1.384 . S
N1455 C1447 1.427 . S
N1455 C1453 1.384 . S
H1456 C1462 0.930 1_554 S
H1457 C1466 0.930 . S
H1458 C1471 0.929 . S
H1459 C1469 0.929 1_554 S
H1460 C1464 0.929 . S
H1461 C1470 0.929 1_554 S
C1462 H1456 0.930 1_556 S
C1462 C1463 1.367 . S
C1462 C1470 1.378 . S
C1463 C1462 1.367 . S
C1463 C1471 1.433 . S
C1464 H1460 0.929 . S
C1464 C1466 1.378 . S
C1464 C1468 1.350 . S
C1465 C1468 1.463 . S
C1465 C1470 1.350 . S
C1465 N1473 1.427 . S
C1466 H1457 0.930 . S
C1466 C1464 1.378 . S
C1466 C1467 1.367 . S
C1467 C1466 1.367 . S
C1467 C1469 1.433 . S
C1468 C1464 1.350 . S
C1468 C1465 1.463 . S
C1468 N1472 1.427 . S
C1469 H1459 0.929 1_556 S
C1469 C1467 1.433 . S
C1469 N1472 1.384 . S
C1470 H1461 0.929 1_556 S
C1470 C1462 1.378 . S
C1470 C1465 1.350 . S
C1471 H1458 0.929 . S
C1471 C1463 1.433 . S
C1471 N1473 1.384 . S
N1472 C1468 1.427 . S
N1472 C1469 1.384 . S
N1473 C1465 1.427 . S
N1473 C1471 1.384 . S
H1474 C1480 0.930 . S
H1475 C1484 0.930 . S
H1476 C1489 0.929 . S
H1477 C1487 0.929 . S
H1478 C1482 0.929 . S
H1479 C1488 0.929 . S
C1480 H1474 0.930 . S
C1480 C1481 1.367 . S
C1480 C1488 1.378 . S
C1481 C1480 1.367 . S
C1481 C1489 1.433 . S
C1482 H1478 0.929 . S
C1482 C1484 1.378 . S
C1482 C1486 1.350 . S
C1483 C1486 1.463 . S
C1483 C1488 1.350 . S
C1483 N1491 1.427 . S
C1484 H1475 0.930 . S
C1484 C1482 1.378 . S
C1484 C1485 1.367 . S
C1485 C1484 1.367 . S
C1485 C1487 1.433 . S
C1486 C1482 1.350 . S
C1486 C1483 1.463 . S
C1486 N1490 1.427 . S
C1487 H1477 0.929 . S
C1487 C1485 1.433 . S
C1487 N1490 1.384 . S
C1488 H1479 0.929 . S
C1488 C1480 1.378 . S
C1488 C1483 1.350 . S
C1489 H1476 0.929 . S
C1489 C1481 1.433 . S
C1489 N1491 1.384 . S
N1490 C1486 1.427 . S
N1490 C1487 1.384 . S
N1491 C1483 1.427 . S
N1491 C1489 1.384 . S
H1492 C1498 0.930 1_556 S
H1493 C1502 0.930 . S
H1494 C1507 0.929 . S
H1495 C1505 0.929 1_556 S
H1496 C1500 0.929 . S
H1497 C1506 0.929 1_556 S
C1498 H1492 0.930 1_554 S
C1498 C1499 1.367 . S
C1498 C1506 1.378 . S
C1499 C1498 1.367 . S
C1499 C1507 1.433 . S
C1500 H1496 0.929 . S
C1500 C1502 1.378 . S
C1500 C1504 1.350 . S
C1501 C1504 1.463 . S
C1501 C1506 1.350 . S
C1501 N1509 1.427 . S
C1502 H1493 0.930 . S
C1502 C1500 1.378 . S
C1502 C1503 1.367 . S
C1503 C1502 1.367 . S
C1503 C1505 1.433 . S
C1504 C1500 1.350 . S
C1504 C1501 1.463 . S
C1504 N1508 1.427 . S
C1505 H1495 0.929 1_554 S
C1505 C1503 1.433 . S
C1505 N1508 1.384 . S
C1506 H1497 0.929 1_554 S
C1506 C1498 1.378 . S
C1506 C1501 1.350 . S
C1507 H1494 0.929 . S
C1507 C1499 1.433 . S
C1507 N1509 1.384 . S
N1508 C1504 1.427 . S
N1508 C1505 1.384 . S
N1509 C1501 1.427 . S
N1509 C1507 1.384 . S
H1510 C1516 0.930 . S
H1511 C1520 0.930 . S
H1512 C1525 0.929 . S
H1513 C1523 0.929 . S
H1514 C1518 0.929 . S
H1515 C1524 0.929 . S
C1516 H1510 0.930 . S
C1516 C1517 1.367 . S
C1516 C1524 1.378 . S
C1517 C1516 1.367 . S
C1517 C1525 1.433 . S
C1518 H1514 0.929 . S
C1518 C1520 1.378 . S
C1518 C1522 1.350 . S
C1519 C1522 1.463 . S
C1519 C1524 1.350 . S
C1519 N1527 1.427 . S
C1520 H1511 0.930 . S
C1520 C1518 1.378 . S
C1520 C1521 1.367 . S
C1521 C1520 1.367 . S
C1521 C1523 1.433 . S
C1522 C1518 1.350 . S
C1522 C1519 1.463 . S
C1522 N1526 1.427 . S
C1523 H1513 0.929 . S
C1523 C1521 1.433 . S
C1523 N1526 1.384 . S
C1524 H1515 0.929 . S
C1524 C1516 1.378 . S
C1524 C1519 1.350 . S
C1525 H1512 0.929 . S
C1525 C1517 1.433 . S
C1525 N1527 1.384 . S
N1526 C1522 1.427 . S
N1526 C1523 1.384 . S
N1527 C1519 1.427 . S
N1527 C1525 1.384 . S
H1528 C1534 0.930 . S
H1529 C1538 0.930 . S
H1530 C1543 0.929 . S
H1531 C1541 0.929 . S
H1532 C1536 0.929 . S
H1533 C1542 0.929 . S
C1534 H1528 0.930 . S
C1534 C1535 1.367 . S
C1534 C1542 1.378 . S
C1535 C1534 1.367 . S
C1535 C1543 1.433 . S
C1536 H1532 0.929 . S
C1536 C1538 1.378 . S
C1536 C1540 1.350 . S
C1537 C1540 1.463 1_655 S
C1537 C1542 1.350 . S
C1537 N1545 1.427 . S
C1538 H1529 0.930 . S
C1538 C1536 1.378 . S
C1538 C1539 1.367 . S
C1539 C1538 1.367 . S
C1539 C1541 1.433 . S
C1540 C1536 1.350 . S
C1540 C1537 1.463 1_455 S
C1540 N1544 1.427 . S
C1541 H1531 0.929 . S
C1541 C1539 1.433 . S
C1541 N1544 1.384 . S
C1542 H1533 0.929 . S
C1542 C1534 1.378 . S
C1542 C1537 1.350 . S
C1543 H1530 0.929 . S
C1543 C1535 1.433 . S
C1543 N1545 1.384 . S
N1544 C1540 1.427 . S
N1544 C1541 1.384 . S
N1545 C1537 1.427 . S
N1545 C1543 1.384 . S
H1546 C1552 0.930 . S
H1547 C1556 0.930 . S
H1548 C1561 0.929 . S
H1549 C1559 0.929 . S
H1550 C1554 0.929 . S
H1551 C1560 0.929 . S
C1552 H1546 0.930 . S
C1552 C1553 1.367 . S
C1552 C1560 1.378 . S
C1553 C1552 1.367 . S
C1553 C1561 1.433 . S
C1554 H1550 0.929 . S
C1554 C1556 1.378 . S
C1554 C1558 1.350 . S
C1555 C1558 1.463 . S
C1555 C1560 1.350 . S
C1555 N1563 1.427 . S
C1556 H1547 0.930 . S
C1556 C1554 1.378 . S
C1556 C1557 1.367 . S
C1557 C1556 1.367 . S
C1557 C1559 1.433 . S
C1558 C1554 1.350 . S
C1558 C1555 1.463 . S
C1558 N1562 1.427 . S
C1559 H1549 0.929 . S
C1559 C1557 1.433 . S
C1559 N1562 1.384 . S
C1560 H1551 0.929 . S
C1560 C1552 1.378 . S
C1560 C1555 1.350 . S
C1561 H1548 0.929 . S
C1561 C1553 1.433 . S
C1561 N1563 1.384 . S
N1562 C1558 1.427 . S
N1562 C1559 1.384 . S
N1563 C1555 1.427 . S
N1563 C1561 1.384 . S
H1564 C1570 0.930 . S
H1565 C1574 0.930 . S
H1566 C1579 0.929 . S
H1567 C1577 0.929 . S
H1568 C1572 0.929 . S
H1569 C1578 0.929 . S
C1570 H1564 0.930 . S
C1570 C1571 1.367 . S
C1570 C1578 1.378 . S
C1571 C1570 1.367 . S
C1571 C1579 1.433 . S
C1572 H1568 0.929 . S
C1572 C1574 1.378 . S
C1572 C1576 1.350 . S
C1573 C1576 1.463 . S
C1573 C1578 1.350 . S
C1573 N1581 1.427 . S
C1574 H1565 0.930 . S
C1574 C1572 1.378 . S
C1574 C1575 1.367 . S
C1575 C1574 1.367 . S
C1575 C1577 1.433 . S
C1576 C1572 1.350 . S
C1576 C1573 1.463 . S
C1576 N1580 1.427 . S
C1577 H1567 0.929 . S
C1577 C1575 1.433 . S
C1577 N1580 1.384 . S
C1578 H1569 0.929 . S
C1578 C1570 1.378 . S
C1578 C1573 1.350 . S
C1579 H1566 0.929 . S
C1579 C1571 1.433 . S
C1579 N1581 1.384 . S
N1580 C1576 1.427 . S
N1580 C1577 1.384 . S
N1581 C1573 1.427 . S
N1581 C1579 1.384 . S
H1582 C1588 0.930 . S
H1583 C1592 0.930 . S
H1584 C1597 0.929 . S
H1585 C1595 0.929 . S
H1586 C1590 0.929 . S
H1587 C1596 0.929 . S
C1588 H1582 0.930 . S
C1588 C1589 1.367 . S
C1588 C1596 1.378 . S
C1589 C1588 1.367 . S
C1589 C1597 1.433 . S
C1590 H1586 0.929 . S
C1590 C1592 1.378 . S
C1590 C1594 1.350 . S
C1591 C1594 1.463 1_655 S
C1591 C1596 1.350 . S
C1591 N1599 1.427 . S
C1592 H1583 0.930 . S
C1592 C1590 1.378 . S
C1592 C1593 1.367 . S
C1593 C1592 1.367 . S
C1593 C1595 1.433 . S
C1594 C1590 1.350 . S
C1594 C1591 1.463 1_455 S
C1594 N1598 1.427 . S
C1595 H1585 0.929 . S
C1595 C1593 1.433 . S
C1595 N1598 1.384 . S
C1596 H1587 0.929 . S
C1596 C1588 1.378 . S
C1596 C1591 1.350 . S
C1597 H1584 0.929 . S
C1597 C1589 1.433 . S
C1597 N1599 1.384 . S
N1598 C1594 1.427 . S
N1598 C1595 1.384 . S
N1599 C1591 1.427 . S
N1599 C1597 1.384 . S
C455 C325 1.698 . S
C459 C3 1.698 . S
C473 C283 1.706 . S
C477 C17 1.702 . S
C491 C297 1.703 . S
C495 C31 1.706 . S
C509 C311 1.698 . S
C513 C45 1.702 . S
C527 C59 1.705 . S
C531 C241 1.701 . S
C545 C255 1.703 . S
C549 C73 1.698 . S
C563 C87 1.698 . S
C567 C269 1.702 . S
C581 C101 1.703 . S
C585 C227 1.698 . S
C599 C437 1.699 . S
C603 C115 1.704 . S
C617 C129 1.705 . S
C621 C395 1.700 . S
C635 C143 1.704 . S
C639 C409 1.706 . S
C653 C157 1.706 . S
C657 C423 1.702 . S
C671 C171 1.705 . S
C675 C353 1.700 . S
C689 C185 1.706 . S
C693 C367 1.701 . S
C707 C199 1.699 . S
C711 C381 1.698 . S
C725 C213 1.698 . S
C729 C339 1.700 . S
C743 C7 1.265 . S
C747 C175 1.282 . S
C761 C413 1.271 . S
C765 C21 1.276 . S
C779 C35 1.269 . S
C783 C203 1.279 . S
C797 C441 1.274 . S
C801 C49 1.274 . S
C815 C119 1.280 . S
C819 C63 1.267 . S
C833 C77 1.265 . S
C837 C357 1.283 . S
C851 C91 1.272 . S
C855 C147 1.275 . S
C869 C105 1.283 . S
C873 C385 1.264 . S
C887 C301 1.265 . S
C891 C133 1.283 . S
C905 C329 1.283 . S
C909 C161 1.265 . S
C923 C189 1.278 . S
C927 C245 1.270 . S
C941 C273 1.279 . S
C945 C217 1.268 . S
C959 C399 1.264 . S
C963 C231 1.283 . S
C977 C259 1.283 . S
C981 C427 1.265 . S
C995 C343 1.266 . S
C999 C287 1.281 . S
C1013 C371 1.265 . S
C1017 C315 1.282 . S
C1031 C64 1.246 . S
C1035 C8 1.245 . S
C1049 C78 1.237 . S
C1053 C22 1.244 . S
C1067 C36 1.236 . S
C1071 C92 1.239 . S
C1085 C50 1.244 . S
C1089 C106 1.237 . S
C1103 C176 1.247 . S
C1107 C120 1.244 . S
C1121 C190 1.237 . S
C1125 C134 1.243 . S
C1139 C204 1.246 . S
C1143 C148 1.241 . S
C1157 C162 1.246 . S
C1161 C218 1.240 . S
C1175 C232 1.236 . S
C1179 C288 1.240 . S
C1193 C246 1.242 . S
C1197 C302 1.236 . S
C1211 C260 1.237 . S
C1215 C316 1.244 . S
C1229 C274 1.243 . S
C1233 C330 1.237 . S
C1247 C400 1.239 . S
C1251 C344 1.236 . S
C1265 C414 1.241 . S
C1269 C358 1.247 . S
C1283 C428 1.238 . S
C1287 C372 1.236 . S
C1301 C442 1.238 . S
C1305 C386 1.236 . S
C1319 C429 1.525 . S
C1323 C9 1.511 . S
C1337 C23 1.525 . S
C1341 C219 1.511 . S
C1355 C401 1.526 . S
C1359 C37 1.510 . S
C1373 C51 1.521 . S
C1377 C191 1.515 . S
C1391 C373 1.526 . S
C1395 C65 1.510 . S
C1409 C79 1.525 . S
C1413 C163 1.512 . S
C1427 C93 1.521 . S
C1431 C345 1.515 . S
C1445 C135 1.516 . S
C1449 C107 1.521 . S
C1463 C121 1.526 . S
C1467 C317 1.510 . S
C1481 C289 1.516 . S
C1485 C149 1.520 . S
C1499 C177 1.526 . S
C1503 C261 1.510 . S
C1517 C205 1.526 . S
C1521 C233 1.510 . S
C1535 C443 1.526 . S
C1539 C247 1.511 . S
C1553 C275 1.526 . S
C1557 C415 1.510 . S
C1571 C303 1.515 . S
C1575 C387 1.522 . S
C1589 C359 1.511 . S
C1593 C331 1.526 . S
