# Generated by pormake.
# Topology sxe, (6)-cn, num edge types: 1
# Building blocks:
#     Node 0, Type 0, BuildingBlock: OJICUG_clean_sbu_0, # of connection points: 6
#     Node 1, Type 0, BuildingBlock: OJICUG_clean_sbu_0, # of connection points: 6
#     Node 2, Type 0, BuildingBlock: OJICUG_clean_sbu_0, # of connection points: 6
#     Node 3, Type 0, BuildingBlock: OJICUG_clean_sbu_0, # of connection points: 6
#     Node 4, Type 0, BuildingBlock: OJICUG_clean_sbu_0, # of connection points: 6
#     Node 5, Type 0, BuildingBlock: OJICUG_clean_sbu_0, # of connection points: 6
#     Node 6, Type 0, BuildingBlock: OJICUG_clean_sbu_0, # of connection points: 6
#     Node 7, Type 0, BuildingBlock: OJICUG_clean_sbu_0, # of connection points: 6
#     Node 8, Type 0, BuildingBlock: OJICUG_clean_sbu_0, # of connection points: 6
#     Node 9, Type 0, BuildingBlock: OJICUG_clean_sbu_0, # of connection points: 6
#     Node 10, Type 0, BuildingBlock: OJICUG_clean_sbu_0, # of connection points: 6
#     Node 11, Type 0, BuildingBlock: OJICUG_clean_sbu_0, # of connection points: 6
#     Node 12, Type 0, BuildingBlock: OJICUG_clean_sbu_0, # of connection points: 6
#     Node 13, Type 0, BuildingBlock: OJICUG_clean_sbu_0, # of connection points: 6
#     Node 14, Type 0, BuildingBlock: OJICUG_clean_sbu_0, # of connection points: 6
#     Node 15, Type 0, BuildingBlock: OJICUG_clean_sbu_0, # of connection points: 6
#     Node 16, Type 0, BuildingBlock: OJICUG_clean_sbu_0, # of connection points: 6
#     Node 17, Type 0, BuildingBlock: OJICUG_clean_sbu_0, # of connection points: 6
#     Node 18, Type 0, BuildingBlock: OJICUG_clean_sbu_0, # of connection points: 6
#     Node 19, Type 0, BuildingBlock: OJICUG_clean_sbu_0, # of connection points: 6
#     Node 20, Type 0, BuildingBlock: OJICUG_clean_sbu_0, # of connection points: 6
#     Node 21, Type 0, BuildingBlock: OJICUG_clean_sbu_0, # of connection points: 6
#     Node 22, Type 0, BuildingBlock: OJICUG_clean_sbu_0, # of connection points: 6
#     Node 23, Type 0, BuildingBlock: OJICUG_clean_sbu_0, # of connection points: 6
#     Edge 24, Type (0, 0), BuildingBlock: UVAHIK_clean_linker_0, # of connection points: 2
#     Edge 25, Type (0, 0), BuildingBlock: UVAHIK_clean_linker_0, # of connection points: 2
#     Edge 26, Type (0, 0), BuildingBlock: UVAHIK_clean_linker_0, # of connection points: 2
#     Edge 27, Type (0, 0), BuildingBlock: UVAHIK_clean_linker_0, # of connection points: 2
#     Edge 28, Type (0, 0), BuildingBlock: UVAHIK_clean_linker_0, # of connection points: 2
#     Edge 29, Type (0, 0), BuildingBlock: UVAHIK_clean_linker_0, # of connection points: 2
#     Edge 30, Type (0, 0), BuildingBlock: UVAHIK_clean_linker_0, # of connection points: 2
#     Edge 31, Type (0, 0), BuildingBlock: UVAHIK_clean_linker_0, # of connection points: 2
#     Edge 32, Type (0, 0), BuildingBlock: UVAHIK_clean_linker_0, # of connection points: 2
#     Edge 33, Type (0, 0), BuildingBlock: UVAHIK_clean_linker_0, # of connection points: 2
#     Edge 34, Type (0, 0), BuildingBlock: UVAHIK_clean_linker_0, # of connection points: 2
#     Edge 35, Type (0, 0), BuildingBlock: UVAHIK_clean_linker_0, # of connection points: 2
#     Edge 36, Type (0, 0), BuildingBlock: UVAHIK_clean_linker_0, # of connection points: 2
#     Edge 37, Type (0, 0), BuildingBlock: UVAHIK_clean_linker_0, # of connection points: 2
#     Edge 38, Type (0, 0), BuildingBlock: UVAHIK_clean_linker_0, # of connection points: 2
#     Edge 39, Type (0, 0), BuildingBlock: UVAHIK_clean_linker_0, # of connection points: 2
#     Edge 40, Type (0, 0), BuildingBlock: UVAHIK_clean_linker_0, # of connection points: 2
#     Edge 41, Type (0, 0), BuildingBlock: UVAHIK_clean_linker_0, # of connection points: 2
#     Edge 42, Type (0, 0), BuildingBlock: UVAHIK_clean_linker_0, # of connection points: 2
#     Edge 43, Type (0, 0), BuildingBlock: UVAHIK_clean_linker_0, # of connection points: 2
#     Edge 44, Type (0, 0), BuildingBlock: UVAHIK_clean_linker_0, # of connection points: 2
#     Edge 45, Type (0, 0), BuildingBlock: UVAHIK_clean_linker_0, # of connection points: 2
#     Edge 46, Type (0, 0), BuildingBlock: UVAHIK_clean_linker_0, # of connection points: 2
#     Edge 47, Type (0, 0), BuildingBlock: UVAHIK_clean_linker_0, # of connection points: 2
#     Edge 48, Type (0, 0), BuildingBlock: UVAHIK_clean_linker_0, # of connection points: 2
#     Edge 49, Type (0, 0), BuildingBlock: UVAHIK_clean_linker_0, # of connection points: 2
#     Edge 50, Type (0, 0), BuildingBlock: UVAHIK_clean_linker_0, # of connection points: 2
#     Edge 51, Type (0, 0), BuildingBlock: UVAHIK_clean_linker_0, # of connection points: 2
#     Edge 52, Type (0, 0), BuildingBlock: UVAHIK_clean_linker_0, # of connection points: 2
#     Edge 53, Type (0, 0), BuildingBlock: UVAHIK_clean_linker_0, # of connection points: 2
#     Edge 54, Type (0, 0), BuildingBlock: UVAHIK_clean_linker_0, # of connection points: 2
#     Edge 55, Type (0, 0), BuildingBlock: UVAHIK_clean_linker_0, # of connection points: 2
#     Edge 56, Type (0, 0), BuildingBlock: UVAHIK_clean_linker_0, # of connection points: 2
#     Edge 57, Type (0, 0), BuildingBlock: UVAHIK_clean_linker_0, # of connection points: 2
#     Edge 58, Type (0, 0), BuildingBlock: UVAHIK_clean_linker_0, # of connection points: 2
#     Edge 59, Type (0, 0), BuildingBlock: UVAHIK_clean_linker_0, # of connection points: 2
#     Edge 60, Type (0, 0), BuildingBlock: UVAHIK_clean_linker_0, # of connection points: 2
#     Edge 61, Type (0, 0), BuildingBlock: UVAHIK_clean_linker_0, # of connection points: 2
#     Edge 62, Type (0, 0), BuildingBlock: UVAHIK_clean_linker_0, # of connection points: 2
#     Edge 63, Type (0, 0), BuildingBlock: UVAHIK_clean_linker_0, # of connection points: 2
#     Edge 64, Type (0, 0), BuildingBlock: UVAHIK_clean_linker_0, # of connection points: 2
#     Edge 65, Type (0, 0), BuildingBlock: UVAHIK_clean_linker_0, # of connection points: 2
#     Edge 66, Type (0, 0), BuildingBlock: UVAHIK_clean_linker_0, # of connection points: 2
#     Edge 67, Type (0, 0), BuildingBlock: UVAHIK_clean_linker_0, # of connection points: 2
#     Edge 68, Type (0, 0), BuildingBlock: UVAHIK_clean_linker_0, # of connection points: 2
#     Edge 69, Type (0, 0), BuildingBlock: UVAHIK_clean_linker_0, # of connection points: 2
#     Edge 70, Type (0, 0), BuildingBlock: UVAHIK_clean_linker_0, # of connection points: 2
#     Edge 71, Type (0, 0), BuildingBlock: UVAHIK_clean_linker_0, # of connection points: 2
#     Edge 72, Type (0, 0), BuildingBlock: UVAHIK_clean_linker_0, # of connection points: 2
#     Edge 73, Type (0, 0), BuildingBlock: UVAHIK_clean_linker_0, # of connection points: 2
#     Edge 74, Type (0, 0), BuildingBlock: UVAHIK_clean_linker_0, # of connection points: 2
#     Edge 75, Type (0, 0), BuildingBlock: UVAHIK_clean_linker_0, # of connection points: 2
#     Edge 76, Type (0, 0), BuildingBlock: UVAHIK_clean_linker_0, # of connection points: 2
#     Edge 77, Type (0, 0), BuildingBlock: UVAHIK_clean_linker_0, # of connection points: 2
#     Edge 78, Type (0, 0), BuildingBlock: UVAHIK_clean_linker_0, # of connection points: 2
#     Edge 79, Type (0, 0), BuildingBlock: UVAHIK_clean_linker_0, # of connection points: 2
#     Edge 80, Type (0, 0), BuildingBlock: UVAHIK_clean_linker_0, # of connection points: 2
#     Edge 81, Type (0, 0), BuildingBlock: UVAHIK_clean_linker_0, # of connection points: 2
#     Edge 82, Type (0, 0), BuildingBlock: UVAHIK_clean_linker_0, # of connection points: 2
#     Edge 83, Type (0, 0), BuildingBlock: UVAHIK_clean_linker_0, # of connection points: 2
#     Edge 84, Type (0, 0), BuildingBlock: UVAHIK_clean_linker_0, # of connection points: 2
#     Edge 85, Type (0, 0), BuildingBlock: UVAHIK_clean_linker_0, # of connection points: 2
#     Edge 86, Type (0, 0), BuildingBlock: UVAHIK_clean_linker_0, # of connection points: 2
#     Edge 87, Type (0, 0), BuildingBlock: UVAHIK_clean_linker_0, # of connection points: 2
#     Edge 88, Type (0, 0), BuildingBlock: UVAHIK_clean_linker_0, # of connection points: 2
#     Edge 89, Type (0, 0), BuildingBlock: UVAHIK_clean_linker_0, # of connection points: 2
#     Edge 90, Type (0, 0), BuildingBlock: UVAHIK_clean_linker_0, # of connection points: 2
#     Edge 91, Type (0, 0), BuildingBlock: UVAHIK_clean_linker_0, # of connection points: 2
#     Edge 92, Type (0, 0), BuildingBlock: UVAHIK_clean_linker_0, # of connection points: 2
#     Edge 93, Type (0, 0), BuildingBlock: UVAHIK_clean_linker_0, # of connection points: 2
#     Edge 94, Type (0, 0), BuildingBlock: UVAHIK_clean_linker_0, # of connection points: 2
#     Edge 95, Type (0, 0), BuildingBlock: UVAHIK_clean_linker_0, # of connection points: 2
# Relax obj value: 0.419
# Max RMSD: 0.272
# Mean RMSD: 0.272
data_MOF--net-sxe--node1-OJICUG_clean_sbu_0--edge1-UVAHIK_clean_linker_0
_symmetry_space_group_name_H-M    P1
_symmetry_Int_Tables_number       1
_symmetry_cell_setting            triclinic
loop_
_symmetry_equiv_pos_as_xyz
'x, y, z'
_cell_length_a     60.563352
_cell_length_b     60.559008
_cell_length_c     60.557076
_cell_angle_alpha  90.016205
_cell_angle_beta   90.012173
_cell_angle_gamma 89.959545
loop_
_atom_site_label
_atom_site_type_symbol
_atom_site_fract_x
_atom_site_fract_y
_atom_site_fract_z
_atom_type_partial_charge
Sc0 Sc 0.16359 0.40152 0.22041 0.0
Sc1 Sc 0.18904 0.4529 0.23015 0.0
Sc2 Sc 0.14366 0.43593 0.26259 0.0
O3 O 0.16546 0.43013 0.23771 0.0
C4 C 0.1127 0.41232 0.2271 0.0
C5 C 0.17523 0.4355 0.18224 0.0
C6 C 0.1457 0.48207 0.23737 0.0
C7 C 0.21583 0.4082 0.22598 0.0
C8 C 0.15605 0.38535 0.26999 0.0
C9 C 0.1877 0.45619 0.2828 0.0
O10 O 0.12828 0.40267 0.21693 0.0
O11 O 0.18469 0.44924 0.19498 0.0
O12 O 0.13629 0.46838 0.25022 0.0
O13 O 0.1987 0.3968 0.22184 0.0
O14 O 0.1492 0.40388 0.27715 0.0
O15 O 0.197 0.45937 0.26428 0.0
O16 O 0.16134 0.38212 0.24994 0.0
O17 O 0.21519 0.42881 0.22995 0.0
O18 O 0.16852 0.44801 0.28455 0.0
O19 O 0.16603 0.41799 0.1892 0.0
O20 O 0.11589 0.42453 0.24382 0.0
O21 O 0.16476 0.47882 0.22914 0.0
Sc22 Sc 0.33309 0.58243 0.71391 0.0
Sc23 Sc 0.30223 0.5336 0.71316 0.0
Sc24 Sc 0.34056 0.54313 0.75607 0.0
O25 O 0.32527 0.55309 0.72777 0.0
C26 C 0.38033 0.56661 0.73119 0.0
C27 C 0.32802 0.55294 0.6713 0.0
C28 C 0.34068 0.50015 0.72595 0.0
C29 C 0.28064 0.58041 0.70637 0.0
C30 C 0.33037 0.59397 0.76518 0.0
C31 C 0.29148 0.52628 0.7642 0.0
O32 O 0.36793 0.57863 0.71932 0.0
O33 O 0.31427 0.54003 0.68045 0.0
O34 O 0.34761 0.51095 0.74257 0.0
O35 O 0.29924 0.59013 0.70645 0.0
O36 O 0.33524 0.57465 0.77188 0.0
O37 O 0.28659 0.52501 0.74387 0.0
O38 O 0.3288 0.59907 0.74487 0.0
O39 O 0.27854 0.55986 0.7101 0.0
O40 O 0.31029 0.53251 0.77095 0.0
O41 O 0.33768 0.5684 0.68168 0.0
O42 O 0.37281 0.55277 0.74498 0.0
O43 O 0.32453 0.50621 0.71402 0.0
Sc44 Sc 0.66583 0.08795 0.77769 0.0
Sc45 Sc 0.68905 0.03574 0.76735 0.0
Sc46 Sc 0.64409 0.05477 0.73532 0.0
O47 O 0.66631 0.05947 0.76012 0.0
C48 C 0.61445 0.0795 0.7712 0.0
C49 C 0.6762 0.05309 0.81547 0.0
C50 C 0.64471 0.00823 0.75986 0.0
C51 C 0.71769 0.07918 0.77176 0.0
C52 C 0.65833 0.10501 0.72843 0.0
C53 C 0.68736 0.03321 0.71468 0.0
O54 O 0.63059 0.08842 0.78113 0.0
O55 O 0.68511 0.03918 0.80254 0.0
O56 O 0.63569 0.02226 0.74707 0.0
O57 O 0.70105 0.0912 0.77617 0.0
O58 O 0.65053 0.08689 0.72118 0.0
O59 O 0.69646 0.02942 0.73318 0.0
O60 O 0.66422 0.10773 0.74839 0.0
O61 O 0.71622 0.05867 0.76759 0.0
O62 O 0.6685 0.04218 0.71295 0.0
O63 O 0.66763 0.07103 0.80876 0.0
O64 O 0.61679 0.06697 0.75455 0.0
O65 O 0.66379 0.01088 0.76824 0.0
Sc66 Sc 0.83753 0.94904 0.23347 0.0
Sc67 Sc 0.79791 0.95445 0.276 0.0
Sc68 Sc 0.82885 0.9057 0.27107 0.0
O69 O 0.82143 0.9364 0.26018 0.0
C70 C 0.82694 0.89984 0.21864 0.0
C71 C 0.78821 0.96647 0.22598 0.0
C72 C 0.77648 0.90671 0.27816 0.0
C73 C 0.83622 0.98955 0.26672 0.0
C74 C 0.87654 0.92231 0.25652 0.0
C75 C 0.82368 0.93201 0.31611 0.0
O76 O 0.83102 0.91994 0.21411 0.0
O77 O 0.78199 0.96402 0.24583 0.0
O78 O 0.79486 0.89682 0.27603 0.0
O79 O 0.84529 0.979 0.25097 0.0
O80 O 0.86375 0.91029 0.2679 0.0
O81 O 0.81084 0.94657 0.30812 0.0
O82 O 0.86951 0.93675 0.24306 0.0
O83 O 0.81869 0.98307 0.27626 0.0
O84 O 0.83188 0.91646 0.30465 0.0
O85 O 0.80784 0.96268 0.21969 0.0
O86 O 0.82615 0.89242 0.23829 0.0
O87 O 0.77476 0.9276 0.27794 0.0
Sc88 Sc 0.26355 0.13612 0.43681 0.0
Sc89 Sc 0.22642 0.17871 0.45147 0.0
Sc90 Sc 0.22028 0.15061 0.40102 0.0
O91 O 0.23674 0.15519 0.42977 0.0
C92 C 0.27086 0.1468 0.38603 0.0
C93 C 0.27869 0.18303 0.45524 0.0
C94 C 0.22019 0.20319 0.40539 0.0
C95 C 0.2377 0.13742 0.48248 0.0
C96 C 0.23135 0.10111 0.41409 0.0
C97 C 0.18045 0.15993 0.43412 0.0
O98 O 0.27838 0.14233 0.40512 0.0
O99 O 0.25933 0.19093 0.45681 0.0
O100 O 0.21922 0.18539 0.3943 0.0
O101 O 0.25092 0.12827 0.46898 0.0
O102 O 0.21924 0.11539 0.40469 0.0
O103 O 0.19213 0.16996 0.44838 0.0
O104 O 0.24827 0.10624 0.42535 0.0
O105 O 0.22839 0.15589 0.47869 0.0
O106 O 0.18847 0.15188 0.41649 0.0
O107 O 0.28248 0.16338 0.44907 0.0
O108 O 0.25037 0.1493 0.38217 0.0
O109 O 0.2228 0.20356 0.42623 0.0
Sc110 Sc 0.27482 0.82685 0.90797 0.0
Sc111 Sc 0.26582 0.79537 0.95574 0.0
Sc112 Sc 0.22681 0.8355 0.93931 0.0
O113 O 0.25576 0.81919 0.93431 0.0
C114 C 0.25673 0.8745 0.92085 0.0
C115 C 0.31115 0.82008 0.94472 0.0
C116 C 0.24893 0.83438 0.98698 0.0
C117 C 0.27997 0.77418 0.91047 0.0
C118 C 0.22621 0.82553 0.88759 0.0
C119 C 0.21393 0.78685 0.95441 0.0
O120 O 0.27035 0.86178 0.91133 0.0
O121 O 0.29976 0.80611 0.95547 0.0
O122 O 0.23535 0.84238 0.97307 0.0
O123 O 0.28252 0.79285 0.90125 0.0
O124 O 0.21655 0.82999 0.90573 0.0
O125 O 0.23359 0.78087 0.95845 0.0
O126 O 0.24711 0.82396 0.88581 0.0
O127 O 0.27237 0.77192 0.92988 0.0
O128 O 0.20908 0.80608 0.94774 0.0
O129 O 0.30382 0.83024 0.92791 0.0
O130 O 0.24015 0.86737 0.93145 0.0
O131 O 0.26054 0.81726 0.98317 0.0
Sc132 Sc 0.76423 0.35861 0.56191 0.0
Sc133 Sc 0.73179 0.312 0.54928 0.0
Sc134 Sc 0.72358 0.34065 0.59902 0.0
O135 O 0.73982 0.33706 0.57009 0.0
C136 C 0.77421 0.34814 0.61222 0.0
C137 C 0.78369 0.31268 0.54464 0.0
C138 C 0.72629 0.28817 0.59583 0.0
C139 C 0.73873 0.35332 0.51689 0.0
C140 C 0.73038 0.39092 0.58622 0.0
C141 C 0.6847 0.32865 0.56554 0.0
O142 O 0.78069 0.35321 0.59289 0.0
O143 O 0.76569 0.302 0.54574 0.0
O144 O 0.72492 0.3061 0.60658 0.0
O145 O 0.74925 0.36524 0.53058 0.0
O146 O 0.71959 0.37559 0.59547 0.0
O147 O 0.69705 0.31928 0.55135 0.0
O148 O 0.74733 0.38724 0.57448 0.0
O149 O 0.73317 0.33345 0.52089 0.0
O150 O 0.69199 0.33687 0.58345 0.0
O151 O 0.78497 0.33331 0.54817 0.0
O152 O 0.75407 0.34432 0.61693 0.0
O153 O 0.72868 0.28759 0.575 0.0
Sc154 Sc 0.72909 0.65862 0.0434 0.0
Sc155 Sc 0.77011 0.69806 0.03018 0.0
Sc156 Sc 0.76948 0.673 0.08241 0.0
O157 O 0.75617 0.67664 0.05203 0.0
C158 C 0.71772 0.67163 0.09275 0.0
C159 C 0.71877 0.70544 0.02171 0.0
C160 C 0.77247 0.72511 0.07507 0.0
C161 C 0.75996 0.65535 0.00126 0.0
C162 C 0.75724 0.62345 0.07078 0.0
C163 C 0.81264 0.6773 0.05269 0.0
O164 O 0.71164 0.66693 0.07322 0.0
O165 O 0.73872 0.7118 0.0211 0.0
O166 O 0.77128 0.70806 0.08726 0.0
O167 O 0.74437 0.6481 0.01322 0.0
O168 O 0.76915 0.6377 0.08048 0.0
O169 O 0.80322 0.6872 0.03682 0.0
O170 O 0.74161 0.62863 0.05777 0.0
O171 O 0.76991 0.67345 0.00479 0.0
O172 O 0.80252 0.67163 0.07012 0.0
O173 O 0.71311 0.68642 0.02844 0.0
O174 O 0.73785 0.67365 0.09827 0.0
O175 O 0.77254 0.72422 0.0541 0.0
Sc176 Sc 0.4022 0.22037 0.15156 0.0
Sc177 Sc 0.45312 0.21589 0.1789 0.0
Sc178 Sc 0.44243 0.26172 0.14456 0.0
O179 O 0.43255 0.2327 0.1584 0.0
C180 C 0.41616 0.23962 0.10469 0.0
C181 C 0.43076 0.17657 0.15181 0.0
C182 C 0.4842 0.2305 0.1391 0.0
C183 C 0.40727 0.21017 0.20333 0.0
C184 C 0.39277 0.27186 0.15837 0.0
C185 C 0.4633 0.26568 0.19261 0.0
O186 O 0.40475 0.2269 0.1168 0.0
O187 O 0.44519 0.18448 0.16476 0.0
O188 O 0.47334 0.24773 0.13406 0.0
O189 O 0.39621 0.21219 0.18558 0.0
O190 O 0.41225 0.27813 0.15368 0.0
O191 O 0.46383 0.24504 0.1961 0.0
O192 O 0.38683 0.25172 0.15792 0.0
O193 O 0.4282 0.21192 0.204 0.0
O194 O 0.45607 0.27396 0.17479 0.0
O195 O 0.41443 0.18773 0.14483 0.0
O196 O 0.43005 0.25322 0.11248 0.0
O197 O 0.47906 0.21764 0.15485 0.0
Sc198 Sc 0.94861 0.2227 0.84497 0.0
Sc199 Sc 0.96114 0.26649 0.80849 0.0
Sc200 Sc 0.90967 0.26445 0.83517 0.0
O201 O 0.93982 0.25125 0.82951 0.0
C202 C 0.8991 0.21271 0.83185 0.0
C203 C 0.96912 0.21587 0.79697 0.0
C204 C 0.91525 0.27157 0.78332 0.0
C205 C 0.99164 0.25229 0.84921 0.0
C206 C 0.92275 0.24823 0.88311 0.0
C207 C 0.93922 0.30796 0.83204 0.0
O208 O 0.91871 0.20627 0.83552 0.0
O209 O 0.96938 0.2362 0.79197 0.0
O210 O 0.90362 0.26885 0.80058 0.0
O211 O 0.97913 0.23683 0.85584 0.0
O212 O 0.91306 0.26171 0.87032 0.0
O213 O 0.95505 0.29886 0.82173 0.0
O214 O 0.93491 0.23261 0.87618 0.0
O215 O 0.98776 0.26358 0.83191 0.0
O216 O 0.92203 0.29751 0.8379 0.0
O217 O 0.96305 0.20889 0.81576 0.0
O218 O 0.89345 0.23293 0.8324 0.0
O219 O 0.93625 0.27143 0.78351 0.0
Sc220 Sc 0.5453 0.75541 0.34467 0.0
Sc221 Sc 0.53248 0.71725 0.30249 0.0
Sc222 Sc 0.58263 0.71289 0.33134 0.0
O223 O 0.5535 0.72855 0.32614 0.0
C224 C 0.59616 0.76382 0.33415 0.0
C225 C 0.52752 0.76928 0.29702 0.0
C226 C 0.57868 0.7111 0.27869 0.0
C227 C 0.50053 0.72812 0.34297 0.0
C228 C 0.56894 0.72492 0.38057 0.0
C229 C 0.55012 0.67236 0.32367 0.0
O230 O 0.57694 0.77077 0.33906 0.0
O231 O 0.52642 0.7497 0.28963 0.0
O232 O 0.58947 0.71018 0.29666 0.0
O233 O 0.51321 0.74212 0.35212 0.0
O234 O 0.57949 0.71346 0.36657 0.0
O235 O 0.53631 0.68334 0.31232 0.0
O236 O 0.55629 0.74071 0.37509 0.0
O237 O 0.50506 0.71873 0.32476 0.0
O238 O 0.56746 0.68088 0.33186 0.0
O239 O 0.53334 0.77369 0.31668 0.0
O240 O 0.60058 0.74348 0.33124 0.0
O241 O 0.55792 0.71401 0.27801 0.0
Sc242 Sc 0.09093 0.77138 0.64772 0.0
Sc243 Sc 0.04394 0.76379 0.68091 0.0
Sc244 Sc 0.05258 0.72993 0.63438 0.0
O245 O 0.0625 0.75505 0.65437 0.0
C246 C 0.0727 0.76381 0.59931 0.0
C247 C 0.05938 0.81072 0.66311 0.0
C248 C 0.00817 0.75613 0.6427 0.0
C249 C 0.0927 0.76817 0.70026 0.0
C250 C 0.10382 0.72074 0.63917 0.0
C251 C 0.03894 0.71171 0.6819 0.0
O252 O 0.08328 0.77523 0.61332 0.0
O253 O 0.04602 0.79844 0.67361 0.0
O254 O 0.02045 0.74422 0.63055 0.0
O255 O 0.10187 0.76984 0.68146 0.0
O256 O 0.08411 0.71392 0.63683 0.0
O257 O 0.04011 0.73019 0.69168 0.0
O258 O 0.10866 0.741 0.642 0.0
O259 O 0.07196 0.76601 0.70266 0.0
O260 O 0.04172 0.70952 0.66125 0.0
O261 O 0.07626 0.80325 0.65312 0.0
O262 O 0.06202 0.74656 0.6045 0.0
O263 O 0.01404 0.76316 0.66163 0.0
Sc264 Sc 0.85033 0.55231 0.73797 0.0
Sc265 Sc 0.81274 0.53827 0.78039 0.0
Sc266 Sc 0.83811 0.59035 0.78019 0.0
O267 O 0.83371 0.56031 0.76615 0.0
C268 C 0.88695 0.57976 0.76391 0.0
C269 C 0.85445 0.50891 0.76714 0.0
C270 C 0.83669 0.55925 0.82232 0.0
C271 C 0.80307 0.53087 0.72919 0.0
C272 C 0.83483 0.60189 0.72894 0.0
C273 C 0.78612 0.58285 0.7869 0.0
O274 O 0.88118 0.56567 0.7495 0.0
O275 O 0.83725 0.51284 0.77847 0.0
O276 O 0.84318 0.57651 0.81234 0.0
O277 O 0.82165 0.53813 0.7228 0.0
O278 O 0.8333 0.60681 0.74929 0.0
O279 O 0.78655 0.562 0.78451 0.0
O280 O 0.84104 0.58297 0.72216 0.0
O281 O 0.79772 0.5296 0.74941 0.0
O282 O 0.80341 0.59471 0.7862 0.0
O283 O 0.86109 0.52112 0.75142 0.0
O284 O 0.87322 0.59002 0.77593 0.0
O285 O 0.82493 0.54454 0.81311 0.0
Sc286 Sc 0.67322 0.40224 0.25962 0.0
Sc287 Sc 0.68486 0.45854 0.26666 0.0
Sc288 Sc 0.64604 0.44138 0.22657 0.0
O289 O 0.66802 0.43406 0.25098 0.0
C290 C 0.6692 0.39851 0.20716 0.0
C291 C 0.72184 0.42127 0.26258 0.0
C292 C 0.68681 0.47311 0.21628 0.0
C293 C 0.67345 0.42687 0.30647 0.0
C294 C 0.62109 0.40349 0.25329 0.0
C295 C 0.63682 0.47977 0.26099 0.0
O296 O 0.67503 0.3912 0.22594 0.0
O297 O 0.71581 0.44088 0.26693 0.0
O298 O 0.66881 0.46372 0.21094 0.0
O299 O 0.67245 0.40975 0.29434 0.0
O300 O 0.62127 0.41954 0.23975 0.0
O301 O 0.65606 0.47918 0.26932 0.0
O302 O 0.63854 0.39555 0.2618 0.0
O303 O 0.67696 0.44608 0.29883 0.0
O304 O 0.63076 0.46704 0.24552 0.0
O305 O 0.70837 0.40577 0.25846 0.0
O306 O 0.65858 0.41641 0.20473 0.0
O307 O 0.69468 0.47265 0.23573 0.0
Sc308 Sc 0.33351 0.90304 0.21738 0.0
Sc309 Sc 0.30721 0.95466 0.21998 0.0
Sc310 Sc 0.3493 0.94128 0.25804 0.0
O311 O 0.32999 0.93298 0.23178 0.0
C312 C 0.33746 0.89155 0.26887 0.0
C313 C 0.28123 0.90912 0.2168 0.0
C314 C 0.30253 0.96133 0.27175 0.0
C315 C 0.32539 0.934 0.17543 0.0
C316 C 0.38343 0.91496 0.22749 0.0
C317 C 0.34939 0.98492 0.22909 0.0
O318 O 0.33499 0.88628 0.24869 0.0
O319 O 0.2818 0.93008 0.2173 0.0
O320 O 0.3223 0.95582 0.27606 0.0
O321 O 0.33214 0.91635 0.18457 0.0
O322 O 0.37876 0.92733 0.24379 0.0
O323 O 0.33043 0.98139 0.22081 0.0
O324 O 0.36877 0.90569 0.21572 0.0
O325 O 0.31643 0.94965 0.18613 0.0
O326 O 0.35852 0.9719 0.24279 0.0
O327 O 0.29851 0.8972 0.2173 0.0
O328 O 0.34194 0.91107 0.27512 0.0
O329 O 0.29477 0.96153 0.25231 0.0
Sc330 Sc 0.16654 0.08647 0.72734 0.0
Sc331 Sc 0.18682 0.03234 0.73095 0.0
Sc332 Sc 0.14511 0.05071 0.76758 0.0
O333 O 0.16616 0.05647 0.74194 0.0
C334 C 0.16158 0.09927 0.77836 0.0
C335 C 0.21761 0.07485 0.72868 0.0
C336 C 0.1892 0.02648 0.78314 0.0
C337 C 0.17251 0.05436 0.68579 0.0
C338 C 0.11527 0.07899 0.73445 0.0
C339 C 0.14172 0.00631 0.73988 0.0
O340 O 0.16545 0.10378 0.75825 0.0
O341 O 0.21482 0.05406 0.72829 0.0
O342 O 0.17003 0.0342 0.78678 0.0
O343 O 0.16804 0.07281 0.69471 0.0
O344 O 0.11775 0.06667 0.75127 0.0
O345 O 0.16095 0.00807 0.73163 0.0
O346 O 0.1314 0.08705 0.7238 0.0
O347 O 0.17892 0.03765 0.69672 0.0
O348 O 0.13363 0.02044 0.75311 0.0
O349 O 0.20179 0.08861 0.72929 0.0
O350 O 0.15454 0.08052 0.7846 0.0
O351 O 0.19748 0.02497 0.76393 0.0
Sc352 Sc 0.7173 0.84126 0.55012 0.0
Sc353 Sc 0.75519 0.79737 0.54341 0.0
Sc354 Sc 0.75524 0.82892 0.59221 0.0
O355 O 0.74257 0.82249 0.56193 0.0
C356 C 0.74577 0.87778 0.57494 0.0
C357 C 0.74886 0.83616 0.50842 0.0
C358 C 0.79859 0.81848 0.56473 0.0
C359 C 0.70373 0.79305 0.53387 0.0
C360 C 0.70343 0.83364 0.60017 0.0
C361 C 0.75634 0.77597 0.59112 0.0
O362 O 0.73156 0.87195 0.5607 0.0
O363 O 0.75735 0.8181 0.51489 0.0
O364 O 0.78847 0.82824 0.58029 0.0
O365 O 0.69954 0.81303 0.53852 0.0
O366 O 0.72304 0.83016 0.60683 0.0
O367 O 0.75498 0.77431 0.57026 0.0
O368 O 0.69865 0.83797 0.5802 0.0
O369 O 0.72309 0.78501 0.53437 0.0
O370 O 0.75684 0.79447 0.60105 0.0
O371 O 0.7339 0.84629 0.51912 0.0
O372 O 0.75554 0.86406 0.58742 0.0
O373 O 0.7889 0.80633 0.55061 0.0
Sc374 Sc 0.76056 0.14881 0.05835 0.0
Sc375 Sc 0.7245 0.18724 0.03327 0.0
Sc376 Sc 0.71584 0.17061 0.0881 0.0
O377 O 0.73369 0.16894 0.05991 0.0
C378 C 0.72757 0.11929 0.08637 0.0
C379 C 0.73707 0.14083 0.01185 0.0
C380 C 0.67807 0.1708 0.05203 0.0
C381 C 0.77704 0.19097 0.03194 0.0
C382 C 0.7651 0.17066 0.10626 0.0
C383 C 0.71501 0.22096 0.07176 0.0
O384 O 0.74362 0.12134 0.07304 0.0
O385 O 0.7264 0.15891 0.01217 0.0
O386 O 0.68555 0.16532 0.07084 0.0
O387 O 0.78062 0.17407 0.04379 0.0
O388 O 0.74487 0.17612 0.10781 0.0
O389 O 0.72131 0.21723 0.05211 0.0
O390 O 0.77284 0.16005 0.08984 0.0
O391 O 0.75784 0.19699 0.02604 0.0
O392 O 0.71176 0.20576 0.08584 0.0
O393 O 0.75086 0.13541 0.02675 0.0
O394 O 0.71686 0.13569 0.09379 0.0
O395 O 0.68983 0.18003 0.03731 0.0
Sc396 Sc 0.26385 0.66222 0.40701 0.0
Sc397 Sc 0.26149 0.69284 0.45619 0.0
Sc398 Sc 0.21931 0.6546 0.44319 0.0
O399 O 0.24818 0.66993 0.43545 0.0
C400 C 0.21354 0.6648 0.3919 0.0
C401 C 0.2711 0.71467 0.4099 0.0
C402 C 0.21016 0.70367 0.45958 0.0
C403 C 0.30435 0.66686 0.43957 0.0
C404 C 0.24588 0.61487 0.42144 0.0
C405 C 0.24617 0.65437 0.48852 0.0
O406 O 0.23414 0.66631 0.38816 0.0
O407 O 0.2664 0.71661 0.43026 0.0
O408 O 0.20378 0.68506 0.45245 0.0
O409 O 0.29485 0.65758 0.42334 0.0
O410 O 0.23107 0.62225 0.4343 0.0
O411 O 0.25834 0.67073 0.48356 0.0
O412 O 0.25844 0.62741 0.41034 0.0
O413 O 0.29469 0.68073 0.45201 0.0
O414 O 0.23068 0.64742 0.47613 0.0
O415 O 0.27153 0.69615 0.40002 0.0
O416 O 0.20567 0.66008 0.41079 0.0
O417 O 0.23029 0.70841 0.46286 0.0
Sc418 Sc 0.26149 0.35629 0.93066 0.0
Sc419 Sc 0.22907 0.31281 0.95234 0.0
Sc420 Sc 0.21755 0.33447 0.89973 0.0
O421 O 0.23603 0.33451 0.9276 0.0
C422 C 0.2252 0.38594 0.90643 0.0
C423 C 0.23913 0.35786 0.97816 0.0
C424 C 0.18095 0.327 0.93678 0.0
C425 C 0.28169 0.31277 0.95231 0.0
C426 C 0.26649 0.34009 0.88086 0.0
C427 C 0.22177 0.28282 0.9099 0.0
O428 O 0.24276 0.38358 0.91767 0.0
O429 O 0.23091 0.33858 0.97673 0.0
O430 O 0.18715 0.33356 0.91785 0.0
O431 O 0.28352 0.33179 0.94372 0.0
O432 O 0.24621 0.33507 0.87879 0.0
O433 O 0.22588 0.2849 0.93038 0.0
O434 O 0.2745 0.348 0.89859 0.0
O435 O 0.26315 0.30391 0.95645 0.0
O436 O 0.21847 0.29918 0.89719 0.0
O437 O 0.25078 0.36649 0.96298 0.0
O438 O 0.2143 0.36969 0.89897 0.0
O439 O 0.19412 0.3188 0.9509 0.0
Sc440 Sc 0.58418 0.76721 0.83193 0.0
Sc441 Sc 0.53199 0.75939 0.80813 0.0
Sc442 Sc 0.54929 0.72619 0.85318 0.0
O443 O 0.55516 0.75086 0.83101 0.0
C444 C 0.59928 0.71723 0.83933 0.0
C445 C 0.57565 0.76287 0.77985 0.0
C446 C 0.52756 0.70681 0.80944 0.0
C447 C 0.55109 0.80652 0.82183 0.0
C448 C 0.57447 0.76124 0.88317 0.0
C449 C 0.5042 0.75327 0.85245 0.0
O450 O 0.60274 0.73709 0.83351 0.0
O451 O 0.55504 0.75914 0.78115 0.0
O452 O 0.53603 0.70465 0.82846 0.0
O453 O 0.56853 0.79875 0.83045 0.0
O454 O 0.56196 0.7446 0.8808 0.0
O455 O 0.50721 0.76127 0.83328 0.0
O456 O 0.58379 0.77077 0.86706 0.0
O457 O 0.53674 0.79455 0.81229 0.0
O458 O 0.51739 0.73963 0.86148 0.0
O459 O 0.58772 0.76626 0.79669 0.0
O460 O 0.58085 0.71066 0.84698 0.0
O461 O 0.52457 0.7255 0.80038 0.0
Sc462 Sc 0.05279 0.76402 0.13542 0.0
Sc463 Sc 0.03841 0.72696 0.17831 0.0
Sc464 Sc 0.09042 0.72354 0.15322 0.0
O465 O 0.06054 0.73823 0.15572 0.0
C466 C 0.07905 0.73188 0.1028 0.0
C467 C 0.00997 0.73384 0.13457 0.0
C468 C 0.06046 0.68169 0.16288 0.0
C469 C 0.02976 0.77903 0.18015 0.0
C470 C 0.10227 0.77481 0.1486 0.0
C471 C 0.08305 0.72594 0.20554 0.0
O472 O 0.0666 0.74834 0.10659 0.0
O473 O 0.01368 0.7245 0.15301 0.0
O474 O 0.07736 0.69073 0.15449 0.0
O475 O 0.03793 0.78309 0.16131 0.0
O476 O 0.10715 0.75469 0.15198 0.0
O477 O 0.06211 0.72763 0.20488 0.0
O478 O 0.08311 0.78107 0.14273 0.0
O479 O 0.02854 0.75966 0.18805 0.0
O480 O 0.09496 0.72411 0.18833 0.0
O481 O 0.02193 0.74907 0.12651 0.0
O482 O 0.08859 0.72111 0.11802 0.0
O483 O 0.04533 0.69263 0.17238 0.0
Sc484 Sc 0.44491 0.21874 0.64264 0.0
Sc485 Sc 0.4532 0.25983 0.68305 0.0
Sc486 Sc 0.40339 0.25741 0.65356 0.0
O487 O 0.43383 0.24534 0.65983 0.0
C488 C 0.41911 0.24577 0.60535 0.0
C489 C 0.48662 0.24986 0.64319 0.0
C490 C 0.43127 0.30167 0.6609 0.0
C491 C 0.46348 0.2093 0.69113 0.0
C492 C 0.39577 0.20513 0.65227 0.0
C493 C 0.40544 0.26197 0.70568 0.0
O494 O 0.43104 0.22967 0.61162 0.0
O495 O 0.4819 0.25844 0.66182 0.0
O496 O 0.41426 0.29107 0.65476 0.0
O497 O 0.46024 0.20404 0.67109 0.0
O498 O 0.38885 0.22497 0.65183 0.0
O499 O 0.42639 0.26364 0.70636 0.0
O500 O 0.41602 0.19998 0.65058 0.0
O501 O 0.4605 0.2287 0.69847 0.0
O502 O 0.39489 0.25828 0.68792 0.0
O503 O 0.47444 0.2357 0.63368 0.0
O504 O 0.40907 0.25833 0.61876 0.0
O505 O 0.44752 0.29252 0.6705 0.0
Sc506 Sc 0.89984 0.23563 0.34053 0.0
Sc507 Sc 0.95039 0.23209 0.31208 0.0
Sc508 Sc 0.94237 0.27302 0.35298 0.0
O509 O 0.93087 0.2469 0.33517 0.0
C510 C 0.89316 0.28786 0.34223 0.0
C511 C 0.90367 0.23187 0.28799 0.0
C512 C 0.96134 0.28297 0.30487 0.0
C513 C 0.9264 0.19075 0.33394 0.0
C514 C 0.91533 0.2466 0.38956 0.0
C515 C 0.98364 0.2404 0.35219 0.0
O516 O 0.88603 0.26828 0.33972 0.0
O517 O 0.92466 0.23155 0.28745 0.0
O518 O 0.95563 0.28881 0.32418 0.0
O519 O 0.91041 0.20186 0.34176 0.0
O520 O 0.93006 0.26042 0.38393 0.0
O521 O 0.97785 0.23052 0.33458 0.0
O522 O 0.90325 0.2366 0.37568 0.0
O523 O 0.94183 0.19933 0.32264 0.0
O524 O 0.97274 0.25631 0.36047 0.0
O525 O 0.89276 0.2332 0.30586 0.0
O526 O 0.91308 0.29226 0.34711 0.0
O527 O 0.96091 0.26306 0.29834 0.0
C528 C 0.19003 0.45797 0.32404 0.0
C529 C 0.19919 0.46297 0.30327 0.0
C530 C 0.1994 0.46641 0.34331 0.0
C531 C 0.20926 0.5038 0.37467 0.0
H532 H 0.27138 0.51643 0.38342 0.0
C533 C 0.26105 0.58252 0.40078 0.0
C534 C 0.24722 0.59079 0.4175 0.0
C535 C 0.25932 0.56062 0.39395 0.0
C536 C 0.25397 0.51292 0.38133 0.0
H537 H 0.22635 0.47939 0.28666 0.0
H538 H 0.2424 0.49451 0.32026 0.0
H539 H 0.2603 0.48838 0.3566 0.0
H540 H 0.22266 0.5818 0.44199 0.0
H541 H 0.2199 0.54339 0.43026 0.0
H542 H 0.20266 0.52929 0.39795 0.0
C543 C 0.2281 0.48386 0.32165 0.0
C544 C 0.24766 0.49687 0.36599 0.0
C545 C 0.21876 0.47538 0.30235 0.0
C546 C 0.23322 0.57609 0.42873 0.0
C547 C 0.23162 0.55407 0.42199 0.0
C548 C 0.21554 0.51991 0.38984 0.0
C549 C 0.2181 0.48005 0.34225 0.0
C550 C 0.22519 0.49287 0.36184 0.0
C551 C 0.24385 0.5464 0.40379 0.0
C552 C 0.23792 0.52541 0.39257 0.0
H553 H 0.17518 0.4481 0.32541 0.0
H554 H 0.19151 0.46296 0.35899 0.0
H555 H 0.1918 0.50126 0.37174 0.0
H556 H 0.27226 0.59328 0.39194 0.0
H557 H 0.26893 0.55543 0.37979 0.0
C558 C 0.1996 0.41162 0.8865 0.0
C559 C 0.21851 0.40843 0.89963 0.0
C560 C 0.19609 0.43173 0.8758 0.0
C561 C 0.21036 0.46144 0.83884 0.0
H562 H 0.23541 0.5178 0.85585 0.0
C563 C 0.27994 0.52018 0.80337 0.0
C564 C 0.27456 0.52038 0.7808 0.0
C565 C 0.26447 0.51346 0.819 0.0
C566 C 0.22813 0.50225 0.85084 0.0
H567 H 0.24688 0.42477 0.9142 0.0
H568 H 0.24113 0.45946 0.89517 0.0
H569 H 0.2215 0.49281 0.88426 0.0
H570 H 0.24815 0.51514 0.75711 0.0
H571 H 0.22111 0.50334 0.78452 0.0
H572 H 0.21855 0.4699 0.80571 0.0
C573 C 0.2289 0.44658 0.89313 0.0
C574 C 0.22012 0.48799 0.86709 0.0
C575 C 0.23236 0.42652 0.90389 0.0
C576 C 0.25296 0.5148 0.77434 0.0
C577 C 0.23743 0.50813 0.79003 0.0
C578 C 0.2184 0.47564 0.82264 0.0
C579 C 0.21146 0.44895 0.87796 0.0
C580 C 0.21246 0.46687 0.86132 0.0
C581 C 0.2432 0.50685 0.81248 0.0
C582 C 0.22865 0.49556 0.8286 0.0
H583 H 0.18826 0.39816 0.88329 0.0
H584 H 0.18225 0.43324 0.86456 0.0
H585 H 0.20467 0.44527 0.83375 0.0
H586 H 0.29635 0.52456 0.80899 0.0
H587 H 0.26965 0.5123 0.83608 0.0
C588 C 0.73735 0.91748 0.56673 0.0
C589 C 0.74911 0.90165 0.57901 0.0
C590 C 0.73653 0.93944 0.57376 0.0
C591 C 0.75679 0.97842 0.6173 0.0
H592 H 0.69436 0.99122 0.62323 0.0
C593 C 0.71849 0.01394 0.69541 0.0
C594 C 0.69899 0.02649 0.69426 0.0
C595 C 0.7284 0.00597 0.67621 0.0
C596 C 0.71192 0.98843 0.62134 0.0
H597 H 0.77146 0.89705 0.60667 0.0
H598 H 0.76956 0.93496 0.61918 0.0
H599 H 0.70639 0.96401 0.59665 0.0
H600 H 0.67559 0.04193 0.67188 0.0
H601 H 0.69299 0.02804 0.63836 0.0
H602 H 0.76201 0.00194 0.6432 0.0
C603 C 0.76104 0.93061 0.60408 0.0
C604 C 0.71888 0.97278 0.60598 0.0
C605 C 0.76194 0.90871 0.59701 0.0
C606 C 0.69038 0.03197 0.67339 0.0
C607 C 0.70036 0.02407 0.65417 0.0
C608 C 0.74981 0.99411 0.63272 0.0
C609 C 0.74737 0.94593 0.59322 0.0
C610 C 0.74126 0.96677 0.60457 0.0
C611 C 0.71912 0.01046 0.6554 0.0
C612 C 0.72719 -0.00156 0.63564 0.0
H613 H 0.72764 0.91271 0.55248 0.0
H614 H 0.72625 0.95099 0.56477 0.0
H615 H 0.77421 0.97445 0.61629 0.0
H616 H 0.72567 0.00953 0.71119 0.0
H617 H 0.74266 0.99528 0.67779 0.0
C618 C 0.77816 0.97597 0.18711 0.0
C619 C 0.77202 0.97421 0.20942 0.0
C620 C 0.76359 0.98479 0.17166 0.0
C621 C 0.72036 0.02571 0.1699 0.0
H622 H 0.72328 0.01274 0.10725 0.0
C623 C 0.70364 0.09407 0.10872 0.0
C624 C 0.72195 0.09707 0.09474 0.0
C625 C 0.70031 0.07394 0.1194 0.0
C626 C 0.72202 0.01644 0.1247 0.0
H627 H 0.74512 0.97888 0.23268 0.0
H628 H 0.71968 0.99447 0.20558 0.0
H629 H 0.73506 0.98491 0.13397 0.0
H630 H 0.74981 0.08062 0.07931 0.0
H631 H 0.74439 0.04582 0.09834 0.0
H632 H 0.70889 0.05769 0.1608 0.0
C633 C 0.73589 0.98917 0.20017 0.0
C634 C 0.72876 0.00054 0.13998 0.0
C635 C 0.7505 0.98031 0.21568 0.0
C636 C 0.73571 0.07896 0.09018 0.0
C637 C 0.73243 0.05888 0.10093 0.0
C638 C 0.71361 0.04157 0.15466 0.0
C639 C 0.74251 0.99204 0.17812 0.0
C640 C 0.72923 0.00555 0.16265 0.0
C641 C 0.71526 0.05646 0.11637 0.0
C642 C 0.71562 0.03756 0.13189 0.0
H643 H 0.7945 0.97119 0.18163 0.0
H644 H 0.76937 0.98708 0.1549 0.0
H645 H 0.72058 0.03016 0.18722 0.0
H646 H 0.69242 0.10756 0.11222 0.0
H647 H 0.68673 0.07243 0.13094 0.0
C648 C 0.40479 0.26838 0.57396 0.0
C649 C 0.4148 0.24885 0.58154 0.0
C650 C 0.39628 0.26957 0.55259 0.0
C651 C 0.38899 0.23798 0.50008 0.0
H652 H 0.3274 0.25251 0.50973 0.0
C653 C 0.31869 0.18773 0.46424 0.0
C654 C 0.29769 0.19713 0.46124 0.0
C655 C 0.33625 0.20056 0.47171 0.0
C656 C 0.34457 0.24894 0.50626 0.0
H657 H 0.42606 0.21623 0.57191 0.0
H658 H 0.41066 0.21802 0.53492 0.0
H659 H 0.35472 0.26458 0.53605 0.0
H660 H 0.27911 0.22778 0.46194 0.0
H661 H 0.30993 0.25028 0.47474 0.0
H662 H 0.37842 0.22117 0.47082 0.0
C663 C 0.40954 0.23254 0.54531 0.0
C664 C 0.36035 0.25592 0.52144 0.0
C665 C 0.41822 0.23142 0.56663 0.0
C666 C 0.29498 0.21995 0.46453 0.0
C667 C 0.31265 0.23285 0.47181 0.0
C668 C 0.37317 0.23108 0.48476 0.0
C669 C 0.39743 0.25118 0.53851 0.0
C670 C 0.38254 0.24949 0.51916 0.0
C671 C 0.33331 0.22316 0.47617 0.0
C672 C 0.35063 0.23545 0.48838 0.0
H673 H 0.40239 0.28232 0.58491 0.0
H674 H 0.38745 0.28432 0.54763 0.0
H675 H 0.40605 0.23314 0.49769 0.0
H676 H 0.3214 0.17022 0.46173 0.0
H677 H 0.35179 0.19241 0.4752 0.0
C678 C 0.09462 0.70573 0.07487 0.0
C679 C 0.08389 0.72576 0.07969 0.0
C680 C 0.10268 0.70163 0.05368 0.0
C681 C 0.1074 0.72563 -0.00308 0.0
H682 H 0.16974 0.71569 0.00734 0.0
C683 C 0.17389 0.77848 0.95961 0.0
C684 C 0.19582 0.77104 0.95849 0.0
C685 C 0.15711 0.76426 0.96635 0.0
C686 C 0.15238 0.71783 0.00365 0.0
H687 H 0.07106 0.75608 0.06556 0.0
H688 H 0.08576 0.74934 0.02891 0.0
H689 H 0.14341 0.70508 0.03509 0.0
H690 H 0.21701 0.74223 0.96111 0.0
H691 H 0.18761 0.71729 0.97261 0.0
H692 H 0.1168 0.73988 0.96598 0.0
C693 C 0.08773 0.7366 0.04131 0.0
C694 C 0.13715 0.7117 0.01971 0.0
C695 C 0.07951 0.74062 0.06245 0.0
C696 C 0.20033 0.7486 0.96236 0.0
C697 C 0.18348 0.73429 0.96887 0.0
C698 C 0.12269 0.7317 0.98075 0.0
C699 C 0.10036 0.71757 0.037 0.0
C700 C 0.11467 0.71688 0.01715 0.0
C701 C 0.16186 0.74221 0.97191 0.0
C702 C 0.14546 0.72923 0.98465 0.0
H703 H 0.09775 0.69367 0.0877 0.0
H704 H 0.11197 0.68662 0.05074 0.0
H705 H 0.0901 0.72933 0.99429 0.0
H706 H 0.1698 0.79562 0.95651 0.0
H707 H 0.14075 0.77107 0.96872 0.0
C708 C 0.92521 0.25087 0.42966 0.0
C709 C 0.91062 0.2433 0.41328 0.0
C710 C 0.91896 0.25056 0.4519 0.0
C711 C 0.89389 0.26811 0.49099 0.0
H712 H 0.84202 0.23531 0.50883 0.0
C713 C 0.82084 0.31216 0.52724 0.0
C714 C 0.80403 0.30088 0.53842 0.0
C715 C 0.83953 0.30095 0.51995 0.0
C716 C 0.85678 0.24448 0.50473 0.0
H717 H 0.87882 0.22782 0.40754 0.0
H718 H 0.8675 0.22842 0.44551 0.0
H719 H 0.86688 0.2196 0.48193 0.0
H720 H 0.79421 0.2694 0.55225 0.0
H721 H 0.82742 0.24985 0.54039 0.0
H722 H 0.88428 0.2926 0.51441 0.0
C723 C 0.88403 0.23403 0.44175 0.0
C724 C 0.87092 0.23557 0.48887 0.0
C725 C 0.89043 0.23395 0.4197 0.0
C726 C 0.80679 0.27838 0.54327 0.0
C727 C 0.82583 0.26721 0.53643 0.0
C728 C 0.88022 0.27663 0.50746 0.0
C729 C 0.89782 0.24312 0.45812 0.0
C730 C 0.88846 0.24818 0.48034 0.0
C731 C 0.84221 0.27821 0.52411 0.0
C732 C 0.86042 0.26586 0.51306 0.0
H733 H 0.94111 0.25774 0.42524 0.0
H734 H 0.93032 0.25711 0.46404 0.0
H735 H 0.90744 0.27828 0.48535 0.0
H736 H 0.81912 0.32952 0.52323 0.0
H737 H 0.85129 0.31006 0.51006 0.0
C738 C 0.57665 0.75484 0.92386 0.0
C739 C 0.58007 0.76877 0.90567 0.0
C740 C 0.5865 0.75963 0.94411 0.0
C741 C 0.61136 0.77071 0.98555 0.0
H742 H 0.6723 0.77753 0.96726 0.0
C743 C 0.67909 0.71426 0.01469 0.0
C744 C 0.70122 0.72116 0.01536 0.0
C745 C 0.66247 0.72894 0.00859 0.0
C746 C 0.65545 0.77624 0.97307 0.0
H747 H 0.5935 0.80033 0.89525 0.0
H748 H 0.61056 0.80874 0.93069 0.0
H749 H 0.64314 0.78973 0.9431 0.0
H750 H 0.72308 0.7493 0.01135 0.0
H751 H 0.69395 0.77492 0.00053 0.0
H752 H 0.62397 0.75551 0.01487 0.0
C753 C 0.60082 0.79382 0.92915 0.0
C754 C 0.63858 0.78332 0.95915 0.0
C755 C 0.59113 0.78893 0.90883 0.0
C756 C 0.70624 0.74333 0.01061 0.0
C757 C 0.68956 0.75807 0.00456 0.0
C758 C 0.62828 0.76363 -0.00047 0.0
C759 C 0.59983 0.77851 0.94653 0.0
C760 C 0.61639 0.77915 0.96454 0.0
C761 C 0.66754 0.75091 0.00309 0.0
C762 C 0.65042 0.7649 0.99265 0.0
H763 H 0.56792 0.73934 0.92204 0.0
H764 H 0.58541 0.7474 0.9571 0.0
H765 H 0.59438 0.7678 0.99036 0.0
H766 H 0.67458 0.69737 0.01841 0.0
H767 H 0.64577 0.72271 0.00716 0.0
C768 C 0.4811 0.27254 0.2294 0.0
C769 C 0.4721 0.28079 0.20965 0.0
C770 C 0.49149 0.28674 0.24431 0.0
C771 C 0.5034 0.34621 0.25584 0.0
H772 H 0.5626 0.32423 0.26622 0.0
C773 C 0.58054 0.39847 0.24706 0.0
C774 C 0.59978 0.39297 0.2588 0.0
C775 C 0.56111 0.38659 0.25038 0.0
C776 C 0.54601 0.33059 0.26414 0.0
H777 H 0.46539 0.31067 0.19095 0.0
H778 H 0.48397 0.33516 0.21647 0.0
H779 H 0.53389 0.2988 0.25526 0.0
H780 H 0.61311 0.37211 0.28478 0.0
H781 H 0.57913 0.35144 0.29054 0.0
H782 H 0.51616 0.37835 0.26322 0.0
C783 C 0.48281 0.31782 0.2207 0.0
C784 C 0.52946 0.31593 0.25784 0.0
C785 C 0.4724 0.30368 0.20586 0.0
C786 C 0.59871 0.37647 0.27511 0.0
C787 C 0.57923 0.36466 0.27849 0.0
C788 C 0.52001 0.36092 0.2621 0.0
C789 C 0.49311 0.30943 0.23973 0.0
C790 C 0.5083 0.32376 0.25247 0.0
C791 C 0.56048 0.36905 0.26558 0.0
C792 C 0.54174 0.35338 0.26517 0.0
H793 H 0.48083 0.25503 0.23302 0.0
H794 H 0.49904 0.27984 0.25899 0.0
H795 H 0.48708 0.35263 0.25227 0.0
H796 H 0.58073 0.41122 0.23452 0.0
H797 H 0.54702 0.39024 0.23997 0.0
C798 C 0.9769 0.17698 0.78562 0.0
C799 C 0.97575 0.19949 0.78013 0.0
C800 C 0.98407 0.16155 0.77015 0.0
C801 C -0.00349 0.12997 0.73413 0.0
H802 H 0.05294 0.14932 0.71116 0.0
C803 C 0.08933 0.09803 0.7085 0.0
C804 C 0.09273 0.08558 0.72782 0.0
C805 C 0.06886 0.10773 0.70433 0.0
C806 C 0.03695 0.14357 0.7167 0.0
H807 H 0.97974 0.22322 0.75355 0.0
H808 H 0.99237 0.19615 0.72651 0.0
H809 H 0.02672 0.17641 0.72398 0.0
H810 H 0.07663 0.07138 0.75649 0.0
H811 H 0.04125 0.08879 0.74963 0.0
H812 H 0.00778 0.09691 0.72854 0.0
C813 C 0.98795 0.19055 0.74291 0.0
C814 C 0.02182 0.15922 0.72412 0.0
C815 C 0.98084 0.20606 0.75844 0.0
C816 C 0.07467 0.08116 0.74165 0.0
C817 C 0.05424 0.09095 0.73753 0.0
C818 C 0.01171 0.11427 0.72676 0.0
C819 C 0.99018 0.16821 0.74878 0.0
C820 C 0.00212 0.1525 0.73431 0.0
C821 C 0.05147 0.10527 0.71945 0.0
C822 C 0.03267 0.12092 0.7194 0.0
H823 H 0.97291 0.17128 0.80209 0.0
H824 H 0.98597 0.14456 0.77542 0.0
H825 H 0.98113 0.12436 0.74133 0.0
H826 H 0.10278 0.10128 0.69717 0.0
H827 H 0.06707 0.11837 0.69006 0.0
C828 C 0.51768 0.78387 0.25956 0.0
C829 C 0.52156 0.78771 0.28214 0.0
C830 C 0.51057 0.80098 0.24584 0.0
C831 C 0.47687 0.83331 0.2287 0.0
H832 H 0.49005 0.89519 0.23852 0.0
C833 C 0.42271 0.91309 0.24003 0.0
C834 C 0.40677 0.90883 0.22372 0.0
C835 C 0.44325 0.9027 0.23921 0.0
C836 C 0.48633 0.87798 0.23538 0.0
H837 H 0.52225 0.81285 0.3077 0.0
H838 H 0.50921 0.84244 0.28399 0.0
H839 H 0.5151 0.86692 0.25274 0.0
H840 H 0.40102 0.89293 0.1921 0.0
H841 H 0.43703 0.87507 0.19052 0.0
H842 H 0.44747 0.84404 0.21273 0.0
C843 C 0.51204 0.82633 0.27674 0.0
C844 C 0.50063 0.86181 0.24356 0.0
C845 C 0.51926 0.80926 0.29043 0.0
C846 C 0.41275 0.89612 0.20523 0.0
C847 C 0.43338 0.88588 0.20431 0.0
C848 C 0.46262 0.84942 0.22057 0.0
C849 C 0.50707 0.82226 0.25443 0.0
C850 C 0.49544 0.8393 0.24124 0.0
C851 C 0.44831 0.88799 0.22196 0.0
C852 C 0.46658 0.8719 0.22479 0.0
H853 H 0.51968 0.76755 0.25253 0.0
H854 H 0.50717 0.7974 0.22865 0.0
H855 H 0.47224 0.81615 0.22674 0.0
H856 H 0.41876 0.92302 0.25438 0.0
H857 H 0.45428 0.9047 0.25314 0.0
C858 C 0.91615 0.60725 0.77268 0.0
C859 C 0.91043 0.58606 0.76531 0.0
C860 C 0.93772 0.61488 0.77053 0.0
C861 C 0.98576 0.60469 0.73457 0.0
H862 H 0.00367 0.65909 0.76298 0.0
C863 C 0.02169 0.67457 0.68482 0.0
C864 C 0.03315 0.69197 0.69487 0.0
C865 C 0.0143 0.65675 0.69731 0.0
C866 C -0.00047 0.64364 0.75502 0.0
H867 H 0.92321 0.5553 0.75222 0.0
H868 H 0.96125 0.56819 0.74949 0.0
H869 H 0.97758 0.63513 0.78121 0.0
H870 H 0.04746 0.70367 0.72551 0.0
H871 H 0.03548 0.67198 0.74729 0.0
H872 H 0.00834 0.61276 0.7088 0.0
C873 C 0.9489 0.57937 0.75595 0.0
C874 C 0.98411 0.63002 0.76538 0.0
C875 C 0.92711 0.5719 0.75761 0.0
C876 C 0.03828 0.69061 0.71744 0.0
C877 C 0.03134 0.67246 0.72991 0.0
C878 C 0.00175 0.61791 0.7246 0.0
C879 C 0.95429 0.60134 0.7614 0.0
C880 C 0.97569 0.61132 0.75445 0.0
C881 C 0.01864 0.65559 0.72015 0.0
C882 C 0.0075 0.63844 0.73383 0.0
H883 H 0.90367 0.61857 0.77872 0.0
H884 H 0.94084 0.63198 0.77464 0.0
H885 H 0.9801 0.59032 0.72561 0.0
H886 H 0.01745 0.67522 0.66744 0.0
H887 H 0.00416 0.64454 0.68912 0.0
C888 C 0.73979 0.43108 0.58737 0.0
C889 C 0.72481 0.41399 0.59201 0.0
C890 C 0.73787 0.45139 0.59806 0.0
C891 C 0.72109 0.46711 0.65274 0.0
H892 H 0.75006 0.52171 0.63629 0.0
C893 C 0.76496 0.51899 0.71813 0.0
C894 C 0.78681 0.52416 0.71224 0.0
C895 C 0.7498 0.51228 0.70209 0.0
C896 C 0.74176 0.50664 0.64114 0.0
H897 H 0.69404 0.406 0.60858 0.0
H898 H 0.69064 0.44155 0.62706 0.0
H899 H 0.73454 0.49795 0.60761 0.0
H900 H 0.80959 0.5272 0.68472 0.0
H901 H 0.7835 0.51483 0.65701 0.0
H902 H 0.72968 0.47476 0.68599 0.0
C903 C 0.70423 0.43901 0.61571 0.0
C904 C 0.73281 0.4931 0.62473 0.0
C905 C 0.70622 0.41863 0.60513 0.0
C906 C 0.79294 0.52321 0.68988 0.0
C907 C 0.77784 0.51641 0.6739 0.0
C908 C 0.73005 0.48058 0.66908 0.0
C909 C 0.72086 0.45501 0.61346 0.0
C910 C 0.72352 0.47259 0.6303 0.0
C911 C 0.7562 0.51051 0.67985 0.0
C912 C 0.74159 0.49984 0.66335 0.0
H913 H 0.75411 0.4282 0.57706 0.0
H914 H 0.751 0.46332 0.59589 0.0
H915 H 0.71423 0.45136 0.65769 0.0
H916 H 0.75957 0.5199 0.73516 0.0
H917 H 0.73319 0.50803 0.70717 0.0
C918 C 0.6911 0.48698 0.1776 0.0
C919 C 0.70006 0.4836 0.19873 0.0
C920 C 0.70397 0.49602 0.16079 0.0
C921 C 0.75164 0.53192 0.1533 0.0
H922 H 0.74254 0.51746 0.09157 0.0
C923 C 0.77836 0.59346 0.0897 0.0
C924 C 0.7601 0.60006 0.07697 0.0
C925 C 0.77845 0.57293 0.10011 0.0
C926 C 0.74547 0.52151 0.10874 0.0
H927 H 0.72984 0.48638 0.21856 0.0
H928 H 0.75226 0.50206 0.18919 0.0
H929 H 0.72751 0.4933 0.12018 0.0
H930 H 0.72904 0.58921 0.06276 0.0
H931 H 0.72887 0.5538 0.0814 0.0
H932 H 0.76843 0.56068 0.14215 0.0
C933 C 0.73519 0.49801 0.18572 0.0
C934 C 0.73679 0.50777 0.1251 0.0
C935 C 0.72228 0.48913 0.20258 0.0
C936 C 0.7432 0.58475 0.07274 0.0
C937 C 0.74322 0.5643 0.08329 0.0
C938 C 0.76032 0.54559 0.13702 0.0
C939 C 0.72612 0.50173 0.16471 0.0
C940 C 0.73897 0.51341 0.14752 0.0
C941 C 0.7602 0.55876 0.09812 0.0
C942 C 0.75648 0.54108 0.11457 0.0
H943 H 0.67407 0.48282 0.17406 0.0
H944 H 0.69635 0.49911 0.1449 0.0
H945 H 0.75349 0.53686 0.1704 0.0
H946 H 0.79193 0.60469 0.09281 0.0
H947 H 0.79202 0.56885 0.11103 0.0
C948 C 0.20804 0.07097 0.39805 0.0
C949 C 0.22712 0.07752 0.40954 0.0
C950 C 0.20663 0.04981 0.389 0.0
C951 C 0.23888 -0.00261 0.38098 0.0
H952 H 0.22836 0.01113 0.31937 0.0
C953 C 0.29585 0.97007 0.31163 0.0
C954 C 0.28757 0.96699 0.29018 0.0
C955 C 0.28172 0.97599 0.32884 0.0
C956 C 0.23087 0.00656 0.33648 0.0
H957 H 0.25821 0.06607 0.42325 0.0
H958 H 0.25621 0.02977 0.40685 0.0
H959 H 0.21321 0.0348 0.34751 0.0
H960 H 0.25771 0.96626 0.27031 0.0
H961 H 0.23312 0.97658 0.30036 0.0
H962 H 0.25812 0.97 0.36951 0.0
C963 C 0.24217 0.04067 0.40488 0.0
C964 C 0.22205 0.02016 0.35276 0.0
C965 C 0.24346 0.0617 0.41412 0.0
C966 C 0.26472 0.96897 0.28654 0.0
C967 C 0.25058 0.97475 0.30377 0.0
C968 C 0.24781 0.98378 0.36463 0.0
C969 C 0.22441 0.035 0.39102 0.0
C970 C 0.22708 0.01653 0.37514 0.0
C971 C 0.25899 0.97883 0.32499 0.0
C972 C 0.24491 0.98901 0.3422 0.0
H973 H 0.19485 0.0826 0.39477 0.0
H974 H 0.19243 0.0457 0.37894 0.0
H975 H 0.24261 0.99386 0.39812 0.0
H976 H 0.31334 0.9685 0.31504 0.0
H977 H 0.2888 0.97938 0.34491 0.0
C978 C 0.27817 0.90718 0.90756 0.0
C979 C 0.259 0.89853 0.91737 0.0
C980 C 0.27843 0.92881 0.89965 0.0
C981 C 0.24397 0.97976 0.89322 0.0
H982 H 0.25932 0.97186 0.83159 0.0
C983 C 0.19281 0.01495 0.82264 0.0
C984 C 0.2027 0.01933 0.80213 0.0
C985 C 0.20548 0.00716 0.84024 0.0
C986 C 0.25545 0.97484 0.84879 0.0
H987 H 0.22611 0.90662 0.9291 0.0
H988 H 0.22627 0.94394 0.91469 0.0
H989 H 0.27285 0.94595 0.85858 0.0
H990 H 0.23386 0.02064 0.78447 0.0
H991 H 0.25599 0.00733 0.81528 0.0
H992 H 0.22535 0.00803 0.88293 0.0
C993 C 0.24122 0.93422 0.91323 0.0
C994 C 0.2633 0.95991 0.86439 0.0
C995 C 0.24103 0.91267 0.92133 0.0
C996 C 0.22567 0.01691 0.79993 0.0
C997 C 0.23837 0.00938 0.81761 0.0
C998 C 0.23613 0.99479 0.87756 0.0
C999 C 0.25945 0.94207 0.90119 0.0
C1000 C 0.25671 0.96152 0.88658 0.0
C1001 C 0.22833 0.00381 0.83777 0.0
C1002 C 0.24087 0.99178 0.85502 0.0
H1003 H 0.29252 0.89685 0.90478 0.0
H1004 H 0.29291 0.9346 0.8909 0.0
H1005 H 0.23895 0.98164 0.91029 0.0
H1006 H 0.17516 0.01678 0.82489 0.0
H1007 H 0.19712 0.00271 0.8554 0.0
C1008 C 0.66349 0.78447 0.53421 0.0
C1009 C 0.68503 0.7787 0.52777 0.0
C1010 C 0.64545 0.77223 0.52687 0.0
C1011 C 0.61345 0.7586 0.49172 0.0
H1012 H 0.6142 0.6967 0.47545 0.0
C1013 C 0.59216 0.70919 0.41079 0.0
C1014 C 0.57344 0.72125 0.40427 0.0
C1015 C 0.59935 0.70979 0.43265 0.0
C1016 C 0.61361 0.71398 0.48004 0.0
H1017 H 0.70473 0.75471 0.50994 0.0
H1018 H 0.67313 0.73379 0.49633 0.0
H1019 H 0.64068 0.71053 0.5026 0.0
H1020 H 0.54579 0.74076 0.41608 0.0
H1021 H 0.55808 0.74137 0.4544 0.0
H1022 H 0.58772 0.76265 0.46821 0.0
C1023 C 0.67018 0.74751 0.50742 0.0
C1024 C 0.62878 0.72187 0.49555 0.0
C1025 C 0.68829 0.75963 0.515 0.0
C1026 C 0.56062 0.73177 0.4205 0.0
C1027 C 0.56766 0.73212 0.44246 0.0
C1028 C 0.59843 0.75077 0.47621 0.0
C1029 C 0.64854 0.75414 0.5127 0.0
C1030 C 0.62949 0.74448 0.50074 0.0
C1031 C 0.58783 0.72228 0.44848 0.0
C1032 C 0.59906 0.7286 0.46934 0.0
H1033 H 0.6605 0.79877 0.54454 0.0
H1034 H 0.62901 0.77748 0.53157 0.0
H1035 H 0.61363 0.77615 0.49515 0.0
H1036 H 0.60228 0.70067 0.39875 0.0
H1037 H 0.61499 0.70206 0.43657 0.0
C1038 C 0.91158 0.26971 0.91654 0.0
C1039 C 0.91812 0.24965 0.90693 0.0
C1040 C 0.9037 0.27021 0.9382 0.0
C1041 C 0.86815 0.26258 0.97163 0.0
H1042 H 0.87555 0.21267 0.01091 0.0
C1043 C 0.7945 0.21742 0.00575 0.0
C1044 C 0.79607 0.20429 0.02474 0.0
C1045 C 0.81277 0.22915 -0.00177 0.0
C1046 C 0.87338 0.22712 0.00062 0.0
H1047 H 0.92331 0.21475 0.91286 0.0
H1048 H 0.90841 0.21521 0.9498 0.0
H1049 H 0.90548 0.22317 0.98662 0.0
H1050 H 0.81749 0.19423 0.05164 0.0
H1051 H 0.84932 0.2153 0.03885 0.0
H1052 H 0.83623 0.26679 0.98592 0.0
C1053 C 0.90989 0.23082 0.94124 0.0
C1054 C 0.8905 0.23293 0.98635 0.0
C1055 C 0.91827 0.23044 0.91983 0.0
C1056 C 0.81597 0.20392 0.03668 0.0
C1057 C 0.83419 0.21601 0.02936 0.0
C1058 C 0.85131 0.25718 0.98633 0.0
C1059 C 0.90159 0.25054 0.9504 0.0
C1060 C 0.88739 0.24959 0.97046 0.0
C1061 C 0.83297 0.22838 0.00975 0.0
C1062 C 0.85304 0.23832 -0.00027 0.0
H1063 H 0.91181 0.28487 0.90704 0.0
H1064 H 0.89816 0.28584 0.9449 0.0
H1065 H 0.86503 0.27571 0.95992 0.0
H1066 H 0.77938 0.21799 -0.00379 0.0
H1067 H 0.81123 0.23798 0.98277 0.0
C1068 C 0.07237 0.7526 0.55979 0.0
C1069 C 0.0753 0.76919 0.57568 0.0
C1070 C 0.08006 0.75559 0.53834 0.0
C1071 C 0.12553 0.78664 0.51293 0.0
H1072 H 0.11514 0.74092 0.46953 0.0
C1073 C 0.17455 0.72242 0.45087 0.0
C1074 C 0.19335 0.72053 0.46429 0.0
C1075 C 0.15789 0.73747 0.45617 0.0
C1076 C 0.11835 0.75428 0.48094 0.0
H1077 H 0.08531 0.80317 0.58078 0.0
H1078 H 0.09777 0.80886 0.54296 0.0
H1079 H 0.08512 0.75324 0.49255 0.0
H1080 H 0.21011 0.73336 0.4931 0.0
H1081 H 0.18061 0.75824 0.50346 0.0
H1082 H 0.15851 0.78832 0.50075 0.0
C1083 C 0.09068 0.79304 0.5473 0.0
C1084 C 0.10105 0.76111 0.49454 0.0
C1085 C 0.08343 0.78985 0.56899 0.0
C1086 C 0.1957 0.73451 0.48254 0.0
C1087 C 0.1788 0.74906 0.48824 0.0
C1088 C 0.14258 0.78046 0.49874 0.0
C1089 C 0.09054 0.77542 0.53212 0.0
C1090 C 0.10504 0.77568 0.51219 0.0
C1091 C 0.15936 0.75042 0.47544 0.0
C1092 C 0.1398 0.76267 0.48408 0.0
H1093 H 0.06592 0.73655 0.56433 0.0
H1094 H 0.07955 0.74144 0.52745 0.0
H1095 H 0.12938 0.79837 0.52584 0.0
H1096 H 0.17265 0.7121 0.43637 0.0
H1097 H 0.14358 0.73839 0.44551 0.0
C1098 C 0.30076 0.28007 0.96888 0.0
C1099 C 0.30203 0.30049 0.95795 0.0
C1100 C 0.3199 0.26932 0.97579 0.0
C1101 C 0.36308 0.24677 0.98598 0.0
H1102 H 0.39798 0.2876 0.02072 0.0
C1103 C 0.42513 0.25265 0.06647 0.0
C1104 C 0.41209 0.23967 0.08063 0.0
C1105 C 0.41913 0.25546 0.0444 0.0
C1106 C 0.38901 0.27586 0.01065 0.0
H1107 H 0.32454 0.32478 0.94417 0.0
H1108 H 0.35797 0.30596 0.95635 0.0
H1109 H 0.37265 0.30179 0.99338 0.0
H1110 H 0.38382 0.21769 0.08215 0.0
H1111 H 0.373 0.22313 0.04403 0.0
H1112 H 0.37849 0.22088 0.0045 0.0
C1113 C 0.34211 0.29846 0.9598 0.0
C1114 C 0.37439 0.28406 0.99491 0.0
C1115 C 0.32294 0.30926 0.95292 0.0
C1116 C 0.39408 0.22804 0.07179 0.0
C1117 C 0.38802 0.23096 0.04978 0.0
C1118 C 0.37777 0.23854 0.00175 0.0
C1119 C 0.34075 0.2787 0.97187 0.0
C1120 C 0.36037 0.26967 0.98333 0.0
C1121 C 0.39991 0.24546 0.03611 0.0
C1122 C 0.38992 0.25311 0.01512 0.0
H1123 H 0.28495 0.27272 0.97284 0.0
H1124 H 0.31823 0.25429 0.98534 0.0
H1125 H 0.35281 0.23527 0.9769 0.0
H1126 H 0.43942 0.26146 0.07264 0.0
H1127 H 0.42884 0.26643 0.03414 0.0
C1128 C 0.52577 0.66562 0.80601 0.0
C1129 C 0.52111 0.68664 0.79727 0.0
C1130 C 0.51888 0.64658 0.79502 0.0
C1131 C 0.49513 0.6258 0.74227 0.0
H1132 H 0.46069 0.58845 0.78111 0.0
C1133 C 0.41285 0.58886 0.71899 0.0
C1134 C 0.40439 0.57079 0.73083 0.0
C1135 C 0.43437 0.59611 0.72266 0.0
C1136 C 0.47073 0.59813 0.76994 0.0
H1137 H 0.5065 0.70404 0.76953 0.0
H1138 H 0.494 0.67088 0.75069 0.0
H1139 H 0.4856 0.61535 0.7968 0.0
H1140 H 0.41289 0.54428 0.75343 0.0
H1141 H 0.4506 0.55683 0.7596 0.0
H1142 H 0.47915 0.6093 0.71539 0.0
C1143 C 0.5033 0.6691 0.76587 0.0
C1144 C 0.48503 0.61368 0.779 0.0
C1145 C 0.51022 0.68814 0.77683 0.0
C1146 C 0.41872 0.55859 0.74444 0.0
C1147 C 0.44034 0.56577 0.74799 0.0
C1148 C 0.48085 0.61013 0.73317 0.0
C1149 C 0.50717 0.64814 0.77507 0.0
C1150 C 0.49653 0.62841 0.76529 0.0
C1151 C 0.44794 0.58535 0.73813 0.0
C1152 C 0.46763 0.59694 0.74696 0.0
H1153 H 0.53445 0.66382 0.82155 0.0
H1154 H 0.52227 0.63064 0.80239 0.0
H1155 H 0.50418 0.63664 0.73131 0.0
H1156 H 0.40238 0.59846 0.70811 0.0
H1157 H 0.43959 0.61129 0.7148 0.0
C1158 C 0.01673 0.7949 0.21604 0.0
C1159 C 0.02119 0.79765 0.19343 0.0
C1160 C 0.00761 0.81214 0.22833 0.0
C1161 C 0.97197 0.84301 0.24387 0.0
H1162 H 0.98121 0.90511 0.23126 0.0
C1163 C 0.91363 0.92149 0.23847 0.0
C1164 C 0.90034 0.91702 0.25694 0.0
C1165 C 0.93424 0.91137 0.23629 0.0
C1166 C 0.97858 0.88784 0.23509 0.0
H1167 H 0.02041 0.82094 0.16622 0.0
H1168 H 0.00376 0.85069 0.18743 0.0
H1169 H 0.0069 0.87764 0.2165 0.0
H1170 H 0.89942 0.90108 0.289 0.0
H1171 H 0.93559 0.88383 0.28539 0.0
H1172 H 0.94322 0.85287 0.26152 0.0
C1173 C 0.00776 0.83542 0.19583 0.0
C1174 C 0.99321 0.87211 0.22659 0.0
C1175 C 0.0171 0.81826 0.18359 0.0
C1176 C 0.90911 0.90443 0.27434 0.0
C1177 C 0.9298 0.89452 0.27227 0.0
C1178 C 0.95745 0.85867 0.25239 0.0
C1179 C 0.00251 0.83242 0.21824 0.0
C1180 C 0.98961 0.84946 0.23028 0.0
C1181 C 0.94197 0.8968 0.25264 0.0
C1182 C 0.96014 0.88119 0.2475 0.0
H1183 H 0.02007 0.77935 0.22423 0.0
H1184 H 0.00413 0.80941 0.24566 0.0
H1185 H 0.96845 0.82573 0.24679 0.0
H1186 H 0.90737 0.93123 0.22483 0.0
H1187 H 0.94316 0.91347 0.22093 0.0
C1188 C 0.46747 0.19373 0.72932 0.0
C1189 C 0.47104 0.19193 0.70645 0.0
C1190 C 0.47487 0.17719 0.74365 0.0
C1191 C 0.49994 0.12042 0.74348 0.0
H1192 H 0.52971 0.14159 0.79592 0.0
C1193 C 0.58826 0.10812 0.78448 0.0
C1194 C 0.59193 0.08643 0.77725 0.0
C1195 C 0.56696 0.1168 0.78481 0.0
C1196 C 0.52159 0.13534 0.78128 0.0
H1197 H 0.48494 0.17138 0.68064 0.0
H1198 H 0.49882 0.14336 0.70539 0.0
H1199 H 0.50448 0.16577 0.77651 0.0
H1200 H 0.57617 0.05576 0.76786 0.0
H1201 H 0.53872 0.07036 0.76994 0.0
H1202 H 0.51895 0.09115 0.74638 0.0
C1203 C 0.48954 0.15692 0.71244 0.0
C1204 C 0.50671 0.14915 0.77031 0.0
C1205 C 0.48184 0.17319 0.69817 0.0
C1206 C 0.57375 0.07273 0.773 0.0
C1207 C 0.55231 0.08122 0.77402 0.0
C1208 C 0.51534 0.10691 0.75397 0.0
C1209 C 0.48629 0.15869 0.73541 0.0
C1210 C 0.49683 0.14233 0.75044 0.0
C1211 C 0.54873 0.10381 0.7784 0.0
C1212 C 0.52752 0.11476 0.77216 0.0
H1213 H 0.45889 0.20789 0.73613 0.0
H1214 H 0.47182 0.17902 0.76116 0.0
H1215 H 0.49177 0.11419 0.72884 0.0
H1216 H 0.60199 0.11905 0.78794 0.0
H1217 H 0.56528 0.13425 0.78819 0.0
C1218 C 0.07243 0.42093 0.2281 0.0
C1219 C 0.08968 0.40706 0.22117 0.0
C1220 C 0.05068 0.41336 0.22792 0.0
C1221 C 0.01562 0.36364 0.21629 0.0
H1222 H -0.00102 0.37246 0.27745 0.0
C1223 C 0.98147 0.295 0.27087 0.0
C1224 C 0.96829 0.30026 0.2892 0.0
C1225 C 0.98905 0.31164 0.25685 0.0
C1226 C 0.00278 0.37011 0.26014 0.0
H1227 H 0.09751 0.37561 0.20593 0.0
H1228 H 0.05985 0.36206 0.20646 0.0
H1229 H 0.02509 0.39716 0.2606 0.0
H1230 H 0.95109 0.32675 0.30615 0.0
H1231 H 0.96397 0.35572 0.28146 0.0
H1232 H 0.99413 0.33555 0.21654 0.0
C1233 C 0.06285 0.37887 0.21175 0.0
C1234 C 0.01783 0.38442 0.25036 0.0
C1235 C 0.08456 0.38658 0.2116 0.0
C1236 C 0.96172 0.32228 0.29247 0.0
C1237 C 0.96902 0.33886 0.27827 0.0
C1238 C 0.00046 0.34927 0.22611 0.0
C1239 C 0.04592 0.39164 0.22125 0.0
C1240 C 0.02531 0.3807 0.2287 0.0
C1241 C 0.98334 0.33384 0.26071 0.0
C1242 C 0.99476 0.35173 0.24849 0.0
H1243 H 0.07588 0.43705 0.23505 0.0
H1244 H 0.03788 0.42384 0.23475 0.0
H1245 H 0.02075 0.36059 0.19943 0.0
H1246 H 0.98666 0.27815 0.26786 0.0
H1247 H 0.00031 0.30719 0.24369 0.0
C1248 C 0.21526 0.36528 0.01091 0.0
C1249 C 0.23314 0.37152 -0.0025 0.0
C1250 C 0.20814 0.37894 0.02799 0.0
C1251 C 0.22619 0.42008 0.06694 0.0
H1252 H 0.16327 0.42901 0.07516 0.0
C1253 C 0.19324 0.45264 0.14914 0.0
C1254 C 0.17718 0.43845 0.15808 0.0
C1255 C 0.19831 0.4518 0.12663 0.0
C1256 C 0.1809 0.4268 0.07304 0.0
H1257 H 0.25787 0.39684 0.99186 0.0
H1258 H 0.24565 0.42051 0.02234 0.0
H1259 H 0.1768 0.41224 0.04108 0.0
H1260 H 0.1523 0.41396 0.15007 0.0
H1261 H 0.16123 0.41231 0.11114 0.0
H1262 H 0.23027 0.43321 0.09944 0.0
C1263 C 0.23707 0.40512 0.01927 0.0
C1264 C 0.18861 0.41722 0.05357 0.0
C1265 C 0.24405 0.39156 0.00191 0.0
C1266 C 0.16495 0.42492 0.14377 0.0
C1267 C 0.16995 0.42412 0.12134 0.0
C1268 C 0.21846 0.4295 0.08653 0.0
C1269 C 0.21884 0.39904 0.03222 0.0
C1270 C 0.21124 0.41299 0.05074 0.0
C1271 C 0.1873 0.43687 0.11268 0.0
C1272 C 0.19565 0.4321 0.09015 0.0
H1273 H 0.20638 0.35005 0.00795 0.0
H1274 H 0.1943 0.37368 0.03803 0.0
H1275 H 0.24371 0.41694 0.06515 0.0
H1276 H 0.20287 0.46339 0.15971 0.0
H1277 H 0.21153 0.46206 0.12035 0.0
C1278 C 0.2705 0.64759 0.52105 0.0
C1279 C 0.25295 0.64066 0.50753 0.0
C1280 C 0.28052 0.63287 0.5356 0.0
C1281 C 0.30823 0.59456 0.5513 0.0
H1282 H 0.27516 0.55982 0.59357 0.0
C1283 C 0.31688 0.53733 0.63477 0.0
C1284 C 0.32944 0.55263 0.64694 0.0
C1285 C 0.31179 0.54147 0.61269 0.0
C1286 C 0.2847 0.56884 0.58144 0.0
H1287 H 0.23113 0.61321 0.49993 0.0
H1288 H 0.24851 0.58762 0.52575 0.0
H1289 H 0.25548 0.58162 0.5662 0.0
H1290 H 0.34965 0.58213 0.6445 0.0
H1291 H 0.34054 0.58947 0.60631 0.0
H1292 H 0.33745 0.58248 0.5671 0.0
C1293 C 0.25461 0.6044 0.52477 0.0
C1294 C 0.27336 0.58148 0.56588 0.0
C1295 C 0.24459 0.61913 0.5101 0.0
C1296 C 0.33955 0.57024 0.63575 0.0
C1297 C 0.3344 0.5744 0.61371 0.0
C1298 C 0.31958 0.58184 0.5668 0.0
C1299 C 0.27314 0.61096 0.53705 0.0
C1300 C 0.28502 0.59511 0.55128 0.0
C1301 C 0.31921 0.56091 0.60248 0.0
C1302 C 0.30791 0.56955 0.5826 0.0
H1303 H 0.27723 0.6641 0.51969 0.0
H1304 H 0.29437 0.63852 0.5454 0.0
H1305 H 0.3176 0.60455 0.5398 0.0
H1306 H 0.30931 0.52324 0.64276 0.0
H1307 H 0.30055 0.53045 0.60421 0.0
C1308 C 0.7125 0.12776 0.98153 0.0
C1309 C 0.73159 0.12467 0.99437 0.0
C1310 C 0.70608 0.11196 0.96615 0.0
C1311 C 0.72703 0.07036 0.92945 0.0
H1312 H 0.66477 0.05669 0.923 0.0
C1313 C 0.69457 0.03572 0.8482 0.0
C1314 C 0.67816 0.0497 0.83955 0.0
C1315 C 0.69971 0.03632 0.8707 0.0
C1316 C 0.68224 0.06011 0.92471 0.0
H1317 H 0.75909 0.10259 0.00085 0.0
H1318 H 0.74804 0.07508 0.97324 0.0
H1319 H 0.67783 0.07514 0.95639 0.0
H1320 H 0.65267 0.07343 0.84798 0.0
H1321 H 0.66162 0.07455 0.88698 0.0
H1322 H 0.73127 0.05683 0.89714 0.0
C1323 C 0.738 0.08972 0.97549 0.0
C1324 C 0.6897 0.07065 0.94377 0.0
C1325 C 0.74432 0.10547 0.99119 0.0
C1326 C 0.66559 0.06267 0.8541 0.0
C1327 C 0.6706 0.06314 0.87654 0.0
C1328 C 0.71956 0.05988 0.91031 0.0
C1329 C 0.71866 0.09275 0.96304 0.0
C1330 C 0.71195 0.07685 0.94579 0.0
C1331 C 0.68835 0.05072 0.88492 0.0
C1332 C 0.69691 0.05568 0.9073 0.0
H1333 H 0.7022 0.14225 0.98357 0.0
H1334 H 0.69136 0.11495 0.95642 0.0
H1335 H 0.74427 0.07499 0.9306 0.0
H1336 H 0.70448 0.02543 0.83743 0.0
H1337 H 0.7133 0.02639 0.87677 0.0
C1338 C 0.75089 0.86758 0.48156 0.0
C1339 C 0.75887 0.84712 0.48908 0.0
C1340 C 0.76224 0.87921 0.46521 0.0
C1341 C 0.80287 0.87157 0.42077 0.0
H1342 H 0.80791 0.93536 0.42411 0.0
C1343 C 0.84149 0.91595 0.3496 0.0
C1344 C 0.82637 0.9309 0.3403 0.0
C1345 C 0.83946 0.90968 0.37164 0.0
C1346 C 0.80679 0.91754 0.42311 0.0
H1347 H 0.78485 0.82265 0.48496 0.0
H1348 H 0.8046 0.84298 0.45678 0.0
H1349 H 0.79012 0.91511 0.4542 0.0
H1350 H 0.79951 0.95353 0.34756 0.0
H1351 H 0.79566 0.94221 0.38578 0.0
H1352 H 0.81884 0.87387 0.38955 0.0
C1353 C 0.78947 0.84995 0.4633 0.0
C1354 C 0.79644 0.90598 0.44018 0.0
C1355 C 0.77809 0.83828 0.47948 0.0
C1356 C 0.8112 0.9417 0.35415 0.0
C1357 C 0.80906 0.9353 0.37616 0.0
C1358 C 0.81325 0.88306 0.40384 0.0
C1359 C 0.78181 0.87063 0.45615 0.0
C1360 C 0.79401 0.88292 0.43893 0.0
C1361 C 0.82219 0.91815 0.38462 0.0
C1362 C 0.81495 0.90619 0.4046 0.0
H1363 H 0.73615 0.87486 0.4886 0.0
H1364 H 0.75569 0.89491 0.45968 0.0
H1365 H 0.80097 0.85386 0.41914 0.0
H1366 H 0.85375 0.90776 0.33946 0.0
H1367 H 0.85018 0.89684 0.37799 0.0
C1368 C 0.14613 0.17526 0.45133 0.0
C1369 C 0.15614 0.16071 0.43624 0.0
C1370 C 0.12383 0.18073 0.44915 0.0
C1371 C 0.07261 0.16875 0.41707 0.0
H1372 H 0.0695 0.23258 0.4126 0.0
C1373 C 0.01373 0.21253 0.35745 0.0
C1374 C 0.00268 0.23161 0.36474 0.0
C1375 C 0.03011 0.20283 0.37042 0.0
C1376 C 0.06989 0.21476 0.41414 0.0
H1377 H 0.14994 0.13821 0.40902 0.0
H1378 H 0.11133 0.14792 0.40507 0.0
H1379 H 0.10111 0.21547 0.43044 0.0
H1380 H 0.00059 0.25571 0.39126 0.0
H1381 H 0.02934 0.23879 0.41377 0.0
H1382 H 0.04178 0.16814 0.39978 0.0
C1383 C 0.12058 0.15523 0.41852 0.0
C1384 C 0.08795 0.20493 0.42449 0.0
C1385 C 0.14284 0.14977 0.42068 0.0
C1386 C 0.00881 0.24107 0.38507 0.0
C1387 C 0.02525 0.23137 0.39801 0.0
C1388 C 0.05455 0.1786 0.40667 0.0
C1389 C 0.11118 0.17168 0.43193 0.0
C1390 C 0.08986 0.18179 0.42544 0.0
C1391 C 0.03586 0.21201 0.39093 0.0
C1392 C 0.05338 0.20168 0.40449 0.0
H1393 H 0.15582 0.18375 0.46373 0.0
H1394 H 0.11686 0.19311 0.46003 0.0
H1395 H 0.07349 0.1509 0.41782 0.0
H1396 H 0.00948 0.20478 0.3419 0.0
H1397 H 0.03836 0.18818 0.36432 0.0
C1398 C 0.34635 0.80332 0.95787 0.0
C1399 C 0.33503 0.82163 0.94914 0.0
C1400 C 0.36903 0.80108 0.95446 0.0
C1401 C 0.40272 0.81455 0.90819 0.0
H1402 H 0.44831 0.78111 0.93822 0.0
C1403 C 0.47808 0.75153 0.88458 0.0
C1404 C 0.48611 0.76257 0.86583 0.0
C1405 C 0.46212 0.76148 0.89799 0.0
C1406 C 0.43563 0.79034 0.92961 0.0
H1407 H 0.33898 0.85377 0.93389 0.0
H1408 H 0.37863 0.85001 0.92833 0.0
H1409 H 0.41724 0.79615 0.95938 0.0
H1410 H 0.48438 0.79298 0.84692 0.0
H1411 H 0.4573 0.81045 0.87048 0.0
H1412 H 0.41984 0.8077 0.87833 0.0
C1413 C 0.36991 0.83708 0.9371 0.0
C1414 C 0.41804 0.79912 0.94176 0.0
C1415 C 0.34723 0.83923 0.94027 0.0
C1416 C 0.47813 0.78378 0.86093 0.0
C1417 C 0.46258 0.79384 0.8745 0.0
C1418 C 0.42002 0.8056 0.89609 0.0
C1419 C 0.38061 0.81721 0.9425 0.0
C1420 C 0.4013 0.81111 0.93108 0.0
C1421 C 0.45421 0.78278 0.89309 0.0
C1422 C 0.43658 0.79318 0.90655 0.0
H1423 H 0.33741 0.78959 0.96502 0.0
H1424 H 0.37688 0.78563 0.95894 0.0
H1425 H 0.38974 0.82311 0.89933 0.0
H1426 H 0.48408 0.73522 0.88883 0.0
H1427 H 0.45578 0.75235 0.912 0.0
C1428 C 0.51215 0.2486 0.61074 0.0
C1429 C 0.50596 0.25828 0.63095 0.0
C1430 C 0.52874 0.25803 0.59787 0.0
C1431 C 0.55815 0.3104 0.58867 0.0
H1432 H 0.60529 0.27304 0.56677 0.0
C1433 C 0.64658 0.33866 0.57744 0.0
C1434 C 0.66052 0.32746 0.56266 0.0
C1435 C 0.62426 0.33335 0.57864 0.0
C1436 C 0.59197 0.28371 0.57214 0.0
H1437 H 0.51271 0.28521 0.65365 0.0
H1438 H 0.54191 0.30141 0.6313 0.0
H1439 H 0.57333 0.25631 0.58424 0.0
H1440 H 0.66143 0.304 0.53554 0.0
H1441 H 0.62229 0.29484 0.53758 0.0
H1442 H 0.57725 0.33786 0.57733 0.0
C1443 C 0.53361 0.28675 0.62529 0.0
C1444 C 0.57372 0.27409 0.5823 0.0
C1445 C 0.51709 0.27729 0.63822 0.0
C1446 C 0.65119 0.31269 0.54736 0.0
C1447 C 0.6288 0.30736 0.54858 0.0
C1448 C 0.57638 0.32003 0.57841 0.0
C1449 C 0.5394 0.27736 0.60488 0.0
C1450 C 0.55704 0.28738 0.59137 0.0
C1451 C 0.61542 0.31677 0.56504 0.0
C1452 C 0.59386 0.30681 0.5708 0.0
H1453 H 0.5039 0.23397 0.60461 0.0
H1454 H 0.53292 0.25045 0.58221 0.0
H1455 H 0.54523 0.32098 0.5951 0.0
H1456 H 0.65318 0.35043 0.58919 0.0
H1457 H 0.61444 0.34091 0.59155 0.0
C1458 C 0.97747 0.73718 0.10968 0.0
C1459 C 0.9933 0.72405 0.12017 0.0
C1460 C 0.96236 0.72758 0.09518 0.0
C1461 C 0.93864 0.67279 0.08122 0.0
H1462 H 0.90653 0.70929 0.03966 0.0
C1463 C 0.84763 0.66452 0.07005 0.0
C1464 C 0.83671 0.67359 0.05173 0.0
C1465 C 0.87054 0.66441 0.07104 0.0
C1466 C 0.91562 0.69848 0.05063 0.0
H1467 H 0.00714 0.6912 0.12291 0.0
H1468 H 0.98175 0.67458 0.09665 0.0
H1469 H 0.94099 0.72253 0.0549 0.0
H1470 H 0.84127 0.68725 0.0189 0.0
H1471 H 0.88152 0.68666 0.02047 0.0
H1472 H 0.91359 0.64852 0.07647 0.0
C1473 C 0.97996 0.69197 0.10034 0.0
C1474 C 0.9352 0.70635 0.05982 0.0
C1475 C 0.99452 0.70145 0.11539 0.0
C1476 C 0.84922 0.68059 0.03347 0.0
C1477 C 0.87228 0.68028 0.03438 0.0
C1478 C 0.91946 0.66466 0.07151 0.0
C1479 C 0.96338 0.7048 0.0903 0.0
C1480 C 0.9461 0.69426 0.0764 0.0
C1481 C 0.88316 0.67313 0.05362 0.0
C1482 C 0.90685 0.67809 0.05742 0.0
H1483 H 0.97653 0.75473 0.11304 0.0
H1484 H 0.94958 0.738 0.08829 0.0
H1485 H 0.94652 0.66276 0.09373 0.0
H1486 H 0.83854 0.65866 0.08429 0.0
H1487 H 0.87815 0.659 0.08628 0.0
C1488 C 0.38531 0.00481 0.22419 0.0
C1489 C 0.36254 0.00326 0.21986 0.0
C1490 C 0.3984 0.01976 0.2125 0.0
C1491 C 0.39883 0.05221 0.1609 0.0
H1492 H 0.43787 0.09151 0.19284 0.0
C1493 C 0.41246 0.14172 0.13961 0.0
C1494 C 0.43135 0.15258 0.14752 0.0
C1495 C 0.4105 0.1189 0.14182 0.0
C1496 C 0.42762 0.08027 0.18344 0.0
H1497 H 0.33551 0.01699 0.20064 0.0
H1498 H 0.35825 0.04327 0.18072 0.0
H1499 H 0.42099 0.06067 0.21201 0.0
H1500 H 0.46447 0.14776 0.16045 0.0
H1501 H 0.46101 0.10788 0.16418 0.0
H1502 H 0.40453 0.07261 0.13261 0.0
C1503 C 0.36608 0.03249 0.19266 0.0
C1504 C 0.41784 0.06266 0.19452 0.0
C1505 C 0.35301 0.01763 0.20432 0.0
C1506 C 0.44943 0.13991 0.15477 0.0
C1507 C 0.44749 0.11707 0.15691 0.0
C1508 C 0.40865 0.06982 0.14979 0.0
C1509 C 0.38895 0.03337 0.19629 0.0
C1510 C 0.40256 0.04912 0.18361 0.0
C1511 C 0.42745 0.10659 0.15186 0.0
C1512 C 0.42232 0.08463 0.16124 0.0
H1513 H 0.39322 0.99391 0.23596 0.0
H1514 H 0.41599 0.02023 0.21571 0.0
H1515 H 0.38751 0.04162 0.15198 0.0
H1516 H 0.39836 0.15096 0.13361 0.0
H1517 H 0.39483 0.11134 0.13772 0.0
C1518 C 0.95589 0.34513 0.82458 0.0
C1519 C 0.93913 0.33229 0.83425 0.0
C1520 C 0.95298 0.36786 0.82174 0.0
C1521 C 0.93281 0.4076 0.79934 0.0
H1522 H 0.89327 0.44265 0.83536 0.0
C1523 C 0.87646 0.47434 0.76186 0.0
C1524 C 0.86924 0.49165 0.77536 0.0
C1525 C 0.88978 0.45763 0.77069 0.0
C1526 C 0.90472 0.43348 0.82515 0.0
H1527 H 0.90734 0.33368 0.85078 0.0
H1528 H 0.90203 0.37275 0.84532 0.0
H1529 H 0.9101 0.40994 0.85081 0.0
H1530 H 0.8713 0.50635 0.80788 0.0
H1531 H 0.89553 0.47815 0.82295 0.0
H1532 H 0.9278 0.43144 0.77381 0.0
C1533 C 0.91751 0.36557 0.84 0.0
C1534 C 0.91416 0.41445 0.83399 0.0
C1535 C 0.92049 0.34297 0.843 0.0
C1536 C 0.87636 0.49277 0.79735 0.0
C1537 C 0.89014 0.47654 0.80598 0.0
C1538 C 0.92372 0.42693 0.79061 0.0
C1539 C 0.93325 0.37811 0.82843 0.0
C1540 C 0.92753 0.40076 0.8209 0.0
C1541 C 0.89657 0.45839 0.79299 0.0
C1542 C 0.90887 0.43967 0.80312 0.0
H1543 H 0.97064 0.33749 0.81795 0.0
H1544 H 0.96569 0.37715 0.81328 0.0
H1545 H 0.94294 0.39744 0.78867 0.0
H1546 H 0.87118 0.47334 0.74479 0.0
H1547 H 0.89409 0.44381 0.76021 0.0
C1548 C 0.59905 0.49678 0.26152 0.0
C1549 C 0.62042 0.49516 0.2705 0.0
C1550 C 0.58348 0.511 0.27085 0.0
C1551 C 0.57161 0.54442 0.3208 0.0
H1552 H 0.54632 0.58587 0.27912 0.0
C1553 C 0.56251 0.6355 0.33741 0.0
C1554 C 0.54722 0.64819 0.32544 0.0
C1555 C 0.56287 0.61261 0.33523 0.0
C1556 C 0.55257 0.57412 0.29107 0.0
H1557 H 0.64197 0.50689 0.29668 0.0
H1558 H 0.61499 0.53193 0.3126 0.0
H1559 H 0.56415 0.5527 0.26557 0.0
H1560 H 0.5185 0.64659 0.304 0.0
H1561 H 0.51917 0.60653 0.30024 0.0
H1562 H 0.56113 0.56661 0.34625 0.0
C1563 C 0.61015 0.52193 0.29857 0.0
C1564 C 0.5629 0.5551 0.28325 0.0
C1565 C 0.62573 0.5078 0.28923 0.0
C1566 C 0.53078 0.63733 0.31313 0.0
C1567 C 0.53115 0.61438 0.31095 0.0
C1568 C 0.5612 0.56344 0.32864 0.0
C1569 C 0.58893 0.52379 0.2894 0.0
C1570 C 0.5735 0.54068 0.29798 0.0
C1571 C 0.54792 0.60192 0.32106 0.0
C1572 C 0.55263 0.57905 0.31377 0.0
H1573 H 0.59433 0.48714 0.24721 0.0
H1574 H 0.56722 0.51212 0.26346 0.0
H1575 H 0.57924 0.53327 0.33252 0.0
H1576 H 0.57517 0.6433 0.34736 0.0
H1577 H 0.57609 0.60357 0.34319 0.0
C1578 C 0.13385 0.97562 0.71353 0.0
C1579 C 0.12744 0.98818 0.73197 0.0
C1580 C 0.11961 0.96 0.70451 0.0
C1581 C 0.07496 0.92301 0.71792 0.0
H1582 H 0.07037 0.91808 0.65419 0.0
C1583 C 0.04149 0.84412 0.67979 0.0
C1584 C 0.0568 0.83494 0.6649 0.0
C1585 C 0.04253 0.8665 0.68525 0.0
C1586 C 0.07132 0.91933 0.67201 0.0
H1587 H 0.10114 0.99375 0.75572 0.0
H1588 H 0.0764 0.96587 0.74013 0.0
H1589 H 0.08801 0.95044 0.67052 0.0
H1590 H 0.08344 0.84256 0.64217 0.0
H1591 H 0.08546 0.88128 0.65191 0.0
H1592 H 0.05968 0.89131 0.71949 0.0
C1593 C 0.09241 0.96847 0.73259 0.0
C1594 C 0.08142 0.9378 0.68133 0.0
C1595 C 0.1066 0.98434 0.74152 0.0
C1596 C 0.07161 0.84901 0.65395 0.0
C1597 C 0.07263 0.87133 0.6594 0.0
C1598 C 0.06498 0.90445 0.7086 0.0
C1599 C 0.0987 0.95642 0.71382 0.0
C1600 C 0.08415 0.93933 0.70431 0.0
C1601 C 0.05881 0.88009 0.67587 0.0
C1602 C 0.06394 0.90198 0.68551 0.0
H1603 H 0.14972 0.97816 0.70568 0.0
H1604 H 0.12505 0.95056 0.69032 0.0
H1605 H 0.0769 0.92379 0.73569 0.0
H1606 H 0.02964 0.83381 0.68831 0.0
H1607 H 0.03139 0.8729 0.69771 0.0
C1608 C 0.8502 0.57558 0.85755 0.0
C1609 C 0.84036 0.55783 0.84637 0.0
C1610 C 0.84807 0.57751 0.88033 0.0
C1611 C 0.80522 0.56293 0.9196 0.0
H1612 H 0.83763 0.60632 0.95352 0.0
C1613 C 0.79265 0.63311 0.99257 0.0
C1614 C 0.77111 0.63946 0.98697 0.0
C1615 C 0.80341 0.61666 0.9807 0.0
C1616 C 0.82835 0.59381 0.94478 0.0
H1617 H 0.82401 0.52621 0.85065 0.0
H1618 H 0.82077 0.52936 0.89061 0.0
H1619 H 0.85651 0.58541 0.92532 0.0
H1620 H 0.74349 0.63361 0.96518 0.0
H1621 H 0.76293 0.60615 0.94283 0.0
H1622 H 0.77716 0.57101 0.93932 0.0
C1623 C 0.82928 0.54227 0.88164 0.0
C1624 C 0.83923 0.58194 0.92834 0.0
C1625 C 0.8312 0.54045 0.85874 0.0
C1626 C 0.76027 0.62909 0.96944 0.0
C1627 C 0.77133 0.61308 0.95699 0.0
C1628 C 0.79448 0.57435 0.93647 0.0
C1629 C 0.83627 0.56159 0.89245 0.0
C1630 C 0.82741 0.56758 0.9145 0.0
C1631 C 0.7931 0.60668 0.96247 0.0
C1632 C 0.80554 0.59097 0.94827 0.0
H1633 H 0.85785 0.58903 0.84859 0.0
H1634 H 0.85378 0.59265 0.88791 0.0
H1635 H 0.79549 0.55192 0.90944 0.0
H1636 H 0.801 0.64052 0.00658 0.0
H1637 H 0.81981 0.61183 0.98589 0.0
C1638 C 0.71903 0.35091 0.48069 0.0
C1639 C 0.73099 0.36349 0.4961 0.0
C1640 C 0.70989 0.36089 0.46208 0.0
C1641 C 0.71487 0.4091 0.42606 0.0
H1642 H 0.65656 0.39097 0.40665 0.0
C1643 C 0.67906 0.4411 0.34487 0.0
C1644 C 0.67259 0.42391 0.33065 0.0
C1645 C 0.68202 0.4371 0.36737 0.0
C1646 C 0.67281 0.39625 0.41195 0.0
H1647 H 0.74309 0.39638 0.50376 0.0
H1648 H 0.7271 0.41374 0.47118 0.0
H1649 H 0.67125 0.377 0.44151 0.0
H1650 H 0.66222 0.38962 0.32921 0.0
H1651 H 0.66756 0.38266 0.36833 0.0
H1652 H 0.71676 0.42778 0.39621 0.0
C1653 C 0.72489 0.39615 0.47354 0.0
C1654 C 0.68125 0.3882 0.4318 0.0
C1655 C 0.73405 0.38617 0.49219 0.0
C1656 C 0.66747 0.40316 0.33966 0.0
C1657 C 0.67035 0.3992 0.36214 0.0
C1658 C 0.70642 0.41718 0.40623 0.0
C1659 C 0.71249 0.38364 0.45846 0.0
C1660 C 0.7026 0.39408 0.43873 0.0
C1661 C 0.67842 0.41591 0.37605 0.0
C1662 C 0.68555 0.41037 0.39871 0.0
H1663 H 0.71641 0.33339 0.48311 0.0
H1664 H 0.70084 0.35074 0.45046 0.0
H1665 H 0.73144 0.41379 0.43091 0.0
H1666 H 0.68295 0.45735 0.3385 0.0
H1667 H 0.68797 0.45034 0.37782 0.0
C1668 C 0.33541 0.91809 0.13884 0.0
C1669 C 0.32464 0.93458 0.15107 0.0
C1670 C 0.32965 0.9143 0.1169 0.0
C1671 C 0.315 0.90856 0.06982 0.0
H1672 H 0.25116 0.90291 0.06923 0.0
C1673 C 0.24423 0.86835 0.0102 0.0
C1674 C 0.25429 0.84765 0.00677 0.0
C1675 C 0.25269 0.88299 0.02589 0.0
C1676 C 0.26895 0.90471 0.06896 0.0
H1677 H 0.30167 0.96208 0.14905 0.0
H1678 H 0.29172 0.95547 0.11062 0.0
H1679 H 0.26893 0.92459 0.09807 0.0
H1680 H 0.2801 0.82555 0.01837 0.0
H1681 H 0.2946 0.85102 0.04575 0.0
H1682 H 0.31497 0.88756 0.0414 0.0
C1683 C 0.30423 0.94517 0.11818 0.0
C1684 C 0.27916 0.91728 0.08536 0.0
C1685 C 0.31005 0.949 0.14016 0.0
C1686 C 0.27201 0.84138 0.0204 0.0
C1687 C 0.28052 0.85606 0.03591 0.0
C1688 C 0.30479 0.89589 0.05354 0.0
C1689 C 0.31302 0.92697 0.10679 0.0
C1690 C 0.30234 0.91862 0.08645 0.0
C1691 C 0.27139 0.87723 0.03828 0.0
C1692 C 0.28176 0.89319 0.0535 0.0
H1693 H 0.34702 0.90694 0.14666 0.0
H1694 H 0.33677 0.90013 0.10862 0.0
H1695 H 0.33285 0.90958 0.07004 0.0
H1696 H 0.23052 0.87371 3e-05 0.0
H1697 H 0.24525 0.89917 0.0276 0.0
C1698 C 0.16179 0.06982 0.64924 0.0
C1699 C 0.17273 0.05342 0.66144 0.0
C1700 C 0.16596 0.07232 0.62677 0.0
C1701 C 0.21237 0.06522 0.5899 0.0
H1702 H 0.17188 0.09064 0.5473 0.0
C1703 C 0.24079 0.10437 0.50727 0.0
C1704 C 0.23116 0.12498 0.50245 0.0
C1705 C 0.23285 0.09152 0.52468 0.0
C1706 C 0.18336 0.08353 0.55903 0.0
H1707 H 0.19491 0.02534 0.65928 0.0
H1708 H 0.20218 0.02972 0.61985 0.0
H1709 H 0.15735 0.07279 0.58038 0.0
H1710 H 0.20598 0.14844 0.51263 0.0
H1711 H 0.19238 0.12613 0.54309 0.0
H1712 H 0.23839 0.07668 0.56895 0.0
C1713 C 0.19061 0.04082 0.6278 0.0
C1714 C 0.17505 0.07325 0.57789 0.0
C1715 C 0.18633 0.03823 0.65033 0.0
C1716 C 0.21381 0.13267 0.51582 0.0
C1717 C 0.20581 0.11978 0.53312 0.0
C1718 C 0.22067 0.07544 0.571 0.0
C1719 C 0.18119 0.05848 0.61604 0.0
C1720 C 0.1895 0.0647 0.5939 0.0
C1721 C 0.21504 0.09896 0.53752 0.0
C1722 C 0.20626 0.08538 0.55581 0.0
H1723 H 0.151 0.08161 0.6573 0.0
H1724 H 0.15851 0.08617 0.61825 0.0
H1725 H 0.22395 0.05905 0.60205 0.0
H1726 H 0.25416 0.09791 0.4973 0.0
H1727 H 0.24028 0.07554 0.52777 0.0
C1728 C 0.97808 0.75413 0.61444 0.0
C1729 C 0.98693 0.76384 0.63357 0.0
C1730 C 0.95906 0.76278 0.6047 0.0
C1731 C 0.92632 0.79183 0.58037 0.0
H1732 H 0.87844 0.8114 0.61808 0.0
C1733 C 0.83393 0.83422 0.57878 0.0
C1734 C 0.82294 0.81909 0.56503 0.0
C1735 C 0.85625 0.83146 0.58356 0.0
C1736 C 0.89184 0.80643 0.60731 0.0
H1737 H 0.98277 0.79024 0.65749 0.0
H1738 H 0.94991 0.80549 0.64034 0.0
H1739 H 0.91203 0.79723 0.63465 0.0
H1740 H 0.8273 0.79078 0.54345 0.0
H1741 H 0.8663 0.78585 0.55205 0.0
H1742 H 0.90546 0.80028 0.55301 0.0
C1743 C 0.95737 0.79094 0.63307 0.0
C1744 C 0.91109 0.79825 0.61682 0.0
C1745 C 0.97623 0.78218 0.64292 0.0
C1746 C 0.83526 0.8026 0.55427 0.0
C1747 C 0.85762 0.79981 0.55912 0.0
C1748 C 0.90691 0.79987 0.57083 0.0
C1749 C 0.94863 0.78141 0.6138 0.0
C1750 C 0.9285 0.79071 0.60349 0.0
C1751 C 0.86796 0.81352 0.5747 0.0
C1752 C 0.88947 0.80713 0.58425 0.0
H1753 H 0.98592 0.73995 0.60686 0.0
H1754 H 0.95249 0.7548 0.59011 0.0
H1755 H 0.9396 0.78646 0.56966 0.0
H1756 H 0.82499 0.84739 0.58696 0.0
H1757 H 0.86401 0.84255 0.59526 0.0
C1758 C 0.49711 0.20222 0.11293 0.0
C1759 C 0.50061 0.22261 0.12327 0.0
C1760 C 0.51164 0.19469 0.09679 0.0
C1761 C 0.56082 0.21178 0.06318 0.0
H1762 H 0.57333 0.14906 0.06554 0.0
C1763 C 0.6433 0.18105 0.03202 0.0
C1764 C 0.65405 0.16871 0.04848 0.0
C1765 C 0.62033 0.18341 0.03242 0.0
C1766 C 0.57001 0.16661 0.06456 0.0
H1767 H 0.52143 0.25151 0.12486 0.0
H1768 H 0.54818 0.23762 0.09805 0.0
H1769 H 0.54178 0.1635 0.08511 0.0
H1770 H 0.64906 0.14671 0.07632 0.0
H1771 H 0.60961 0.1513 0.07751 0.0
H1772 H 0.59061 0.21513 0.04478 0.0
C1773 C 0.53373 0.22772 0.10152 0.0
C1774 C 0.55164 0.17495 0.07561 0.0
C1775 C 0.51869 0.23559 0.11717 0.0
C1776 C 0.64132 0.15674 0.06368 0.0
C1777 C 0.6185 0.15918 0.06416 0.0
C1778 C 0.57956 0.2035 0.05264 0.0
C1779 C 0.53044 0.20709 0.09116 0.0
C1780 C 0.54737 0.19781 0.07594 0.0
C1781 C 0.60784 0.17351 0.04931 0.0
C1782 C 0.585 0.18096 0.05423 0.0
H1783 H 0.48281 0.19227 0.11704 0.0
H1784 H 0.50808 0.17909 0.08882 0.0
H1785 H 0.5576 0.22934 0.06226 0.0
H1786 H 0.65266 0.1902 0.01984 0.0
H1787 H 0.61256 0.1941 0.02037 0.0
C1788 C 0.33922 0.6474 0.42968 0.0
C1789 C 0.32851 0.66438 0.44131 0.0
C1790 C 0.3616 0.64914 0.42471 0.0
C1791 C 0.4118 0.68399 0.42994 0.0
H1792 H 0.41025 0.68096 0.36597 0.0
C1793 C 0.47093 0.70025 0.34895 0.0
C1794 C 0.48105 0.72016 0.35526 0.0
C1795 C 0.45434 0.691 0.36184 0.0
C1796 C 0.41126 0.68152 0.38382 0.0
H1797 H 0.33349 0.69464 0.45988 0.0
H1798 H 0.37243 0.69788 0.45078 0.0
H1799 H 0.37999 0.66586 0.3871 0.0
H1800 H 0.48133 0.7462 0.37988 0.0
H1801 H 0.45149 0.73046 0.40195 0.0
H1802 H 0.4431 0.70009 0.42644 0.0
C1803 C 0.36361 0.68326 0.44548 0.0
C1804 C 0.39391 0.67275 0.39597 0.0
C1805 C 0.34122 0.68143 0.45063 0.0
C1806 C 0.47381 0.73088 0.37454 0.0
C1807 C 0.45693 0.72171 0.38733 0.0
C1808 C 0.42939 0.69262 0.41772 0.0
C1809 C 0.37352 0.66796 0.43114 0.0
C1810 C 0.39383 0.67412 0.41912 0.0
C1811 C 0.44715 0.70157 0.38119 0.0
C1812 C 0.42913 0.69172 0.39449 0.0
H1813 H 0.32993 0.63377 0.42275 0.0
H1814 H 0.36907 0.63683 0.41408 0.0
H1815 H 0.41205 0.68534 0.44777 0.0
H1816 H 0.47631 0.69132 0.33442 0.0
H1817 H 0.44746 0.67528 0.35681 0.0
C1818 C 0.14241 0.33784 0.92748 0.0
C1819 C 0.15702 0.32613 0.94115 0.0
C1820 C 0.12006 0.33255 0.92718 0.0
C1821 C 0.07268 0.31804 0.92776 0.0
H1822 H 0.07269 0.25494 0.91661 0.0
C1823 C 0.01435 0.2478 0.88352 0.0
C1824 C 0.00982 0.25937 0.86387 0.0
C1825 C 0.02922 0.25631 0.89895 0.0
C1826 C 0.07217 0.27248 0.9201 0.0
H1827 H 0.15926 0.30185 0.96743 0.0
H1828 H 0.12008 0.29257 0.96684 0.0
H1829 H 0.10324 0.27149 0.93664 0.0
H1830 H 0.01797 0.28862 0.84477 0.0
H1831 H 0.04409 0.30317 0.8715 0.0
H1832 H 0.04226 0.31909 0.90981 0.0
C1833 C 0.12602 0.30558 0.95611 0.0
C1834 C 0.08961 0.28199 0.93173 0.0
C1835 C 0.14844 0.31096 0.95648 0.0
C1836 C 0.02103 0.27924 0.85969 0.0
C1837 C 0.03576 0.28777 0.87515 0.0
C1838 C 0.05529 0.30853 0.91605 0.0
C1839 C 0.11191 0.3154 0.94052 0.0
C1840 C 0.09058 0.30501 0.9347 0.0
C1841 C 0.0397 0.27659 0.89508 0.0
C1842 C 0.05547 0.28584 0.91122 0.0
H1843 H 0.14849 0.34993 0.91577 0.0
H1844 H 0.10968 0.34044 0.91494 0.0
H1845 H 0.07283 0.33577 0.93013 0.0
H1846 H 0.00597 0.23246 0.8873 0.0
H1847 H 0.03211 0.2473 0.91413 0.0
C1848 C 0.61334 0.98165 0.75452 0.0
C1849 C 0.63186 0.98867 0.76664 0.0
C1850 C 0.6009 0.96354 0.76165 0.0
C1851 C 0.57094 0.93144 0.78655 0.0
H1852 H 0.60333 0.88281 0.81273 0.0
C1853 C 0.56032 0.84371 0.83624 0.0
C1854 C 0.54951 0.83073 0.82037 0.0
C1855 C 0.56528 0.86569 0.83177 0.0
C1856 C 0.59401 0.8964 0.80576 0.0
H1857 H 0.65138 0.98269 0.79611 0.0
H1858 H 0.62951 0.95175 0.80877 0.0
H1859 H 0.62327 0.91473 0.79934 0.0
H1860 H 0.53299 0.83113 0.7886 0.0
H1861 H 0.54191 0.86974 0.78069 0.0
H1862 H 0.54167 0.91216 0.79227 0.0
C1863 C 0.62493 0.95964 0.79339 0.0
C1864 C 0.60544 0.91474 0.79809 0.0
C1865 C 0.63749 0.97745 0.78613 0.0
C1866 C 0.54136 0.8408 0.8011 0.0
C1867 C 0.54646 0.86287 0.79657 0.0
C1868 C 0.55946 0.9128 0.79402 0.0
C1869 C 0.60662 0.9523 0.78115 0.0
C1870 C 0.59408 0.93261 0.78861 0.0
C1871 C 0.55962 0.875 0.81132 0.0
C1872 C 0.57094 0.89528 0.80393 0.0
H1873 H 0.60856 0.99003 0.73946 0.0
H1874 H 0.58705 0.95816 0.75171 0.0
H1875 H 0.56169 0.945 0.77945 0.0
H1876 H 0.56648 0.8364 0.85137 0.0
H1877 H 0.5751 0.87489 0.84356 0.0
C1878 C 0.14097 0.51465 0.21249 0.0
C1879 C 0.13301 0.50156 0.22992 0.0
C1880 C 0.12799 0.53147 0.20365 0.0
C1881 C 0.0829 0.56907 0.21612 0.0
H1882 H 0.08111 0.57605 0.15244 0.0
C1883 C 0.07645 0.64483 0.15363 0.0
C1884 C 0.06 0.65732 0.16421 0.0
C1885 C 0.07937 0.62262 0.15884 0.0
C1886 C 0.08136 0.57426 0.17024 0.0
H1887 H 0.10535 0.49639 0.25216 0.0
H1888 H 0.08282 0.52611 0.23683 0.0
H1889 H 0.09914 0.54376 0.16849 0.0
H1890 H 0.03214 0.65566 0.18673 0.0
H1891 H 0.03718 0.61673 0.19566 0.0
H1892 H 0.06619 0.60007 0.21801 0.0
C1893 C 0.09907 0.52313 0.22998 0.0
C1894 C 0.09171 0.55584 0.17941 0.0
C1895 C 0.11201 0.50616 0.23876 0.0
C1896 C 0.04515 0.64658 0.17847 0.0
C1897 C 0.0481 0.62431 0.1837 0.0
C1898 C 0.07265 0.58757 0.20696 0.0
C1899 C 0.10682 0.53567 0.2121 0.0
C1900 C 0.0932 0.55346 0.20243 0.0
C1901 C 0.06586 0.6124 0.17469 0.0
C1902 C 0.07242 0.59071 0.18394 0.0
H1903 H 0.15704 0.5116 0.20525 0.0
H1904 H 0.13454 0.54122 0.19016 0.0
H1905 H 0.08388 0.56766 0.23392 0.0
H1906 H 0.088 0.65251 0.14234 0.0
H1907 H 0.09328 0.61398 0.15165 0.0
C1908 C 0.44682 0.33904 0.66972 0.0
C1909 C 0.43067 0.326 0.6593 0.0
C1910 C 0.44344 0.3617 0.67251 0.0
C1911 C 0.40402 0.40747 0.65895 0.0
H1912 H 0.41482 0.42429 0.71975 0.0
C1913 C 0.36169 0.48365 0.69533 0.0
C1914 C 0.35463 0.48239 0.71733 0.0
C1915 C 0.37599 0.46785 0.68677 0.0
C1916 C 0.41147 0.41978 0.70278 0.0
H1917 H 0.39957 0.32694 0.64146 0.0
H1918 H 0.39337 0.36582 0.64691 0.0
H1919 H 0.43177 0.39108 0.70514 0.0
H1920 H 0.35703 0.46417 0.74791 0.0
H1921 H 0.38061 0.4352 0.73252 0.0
H1922 H 0.38195 0.43468 0.65712 0.0
C1923 C 0.40876 0.3589 0.65282 0.0
C1924 C 0.42164 0.40095 0.6942 0.0
C1925 C 0.41221 0.3364 0.64987 0.0
C1926 C 0.36216 0.4652 0.73081 0.0
C1927 C 0.37594 0.44887 0.72201 0.0
C1928 C 0.39342 0.42592 0.66766 0.0
C1929 C 0.42383 0.37166 0.66502 0.0
C1930 C 0.41737 0.39412 0.67241 0.0
C1931 C 0.38299 0.44997 0.69981 0.0
C1932 C 0.39647 0.43196 0.6899 0.0
H1933 H 0.46142 0.33159 0.67688 0.0
H1934 H 0.45565 0.37118 0.68149 0.0
H1935 H 0.40078 0.40302 0.64193 0.0
H1936 H 0.35653 0.49722 0.68485 0.0
H1937 H 0.38154 0.46977 0.6699 0.0
C1938 C 0.9103 0.15654 0.35022 0.0
C1939 C 0.92514 0.16648 0.33544 0.0
C1940 C 0.90463 0.13439 0.34776 0.0
C1941 C 0.8797 0.09999 0.32265 0.0
H1942 H 0.91466 0.05092 0.30095 0.0
C1943 C 0.86684 0.01747 0.26614 0.0
C1944 C 0.84738 0.00927 0.27576 0.0
C1945 C 0.8781 0.03511 0.27587 0.0
C1946 C 0.90473 0.06457 0.30686 0.0
H1947 H 0.94772 0.16041 0.30826 0.0
H1948 H 0.93741 0.1219 0.30367 0.0
H1949 H 0.93317 0.08341 0.31635 0.0
H1950 H 0.82455 0.01317 0.30321 0.0
H1951 H 0.84422 0.04358 0.3201 0.0
H1952 H 0.85134 0.08178 0.31255 0.0
C1953 C 0.93023 0.13113 0.31721 0.0
C1954 C 0.9153 0.08305 0.3158 0.0
C1955 C 0.93607 0.15326 0.31979 0.0
C1956 C 0.83936 0.01916 0.29518 0.0
C1957 C 0.85064 0.03664 0.3049 0.0
C1958 C 0.86919 0.08166 0.31371 0.0
C1959 C 0.91354 0.12188 0.33037 0.0
C1960 C 0.90285 0.10101 0.32359 0.0
C1961 C 0.87011 0.04481 0.29538 0.0
C1962 C 0.88156 0.06384 0.30553 0.0
H1963 H 0.90198 0.16621 0.36277 0.0
H1964 H 0.89213 0.12747 0.35852 0.0
H1965 H 0.86963 0.11381 0.32794 0.0
H1966 H 0.8735 0.01018 0.25122 0.0
H1967 H 0.8929 0.04129 0.26798 0.0
C1968 C 0.16666 0.34633 0.2781 0.0
C1969 C 0.16007 0.3672 0.28586 0.0
C1970 C 0.1735 0.33003 0.2928 0.0
C1971 C 0.17223 0.31182 0.3505 0.0
H1972 H 0.22564 0.28073 0.33351 0.0
C1973 C 0.21169 0.24379 0.40494 0.0
C1974 C 0.21686 0.22425 0.39348 0.0
C1975 C 0.20639 0.26307 0.39338 0.0
C1976 C 0.21069 0.28922 0.33845 0.0
H1977 H 0.15442 0.38686 0.31532 0.0
H1978 H 0.16637 0.35815 0.34106 0.0
H1979 H 0.2117 0.31048 0.31033 0.0
H1980 H 0.22141 0.20991 0.36091 0.0
H1981 H 0.21217 0.24337 0.3409 0.0
H1982 H 0.17104 0.29016 0.37845 0.0
C1983 C 0.16624 0.35456 0.32354 0.0
C1984 C 0.20267 0.3062 0.32517 0.0
C1985 C 0.15939 0.37097 0.30879 0.0
C1986 C 0.21742 0.22463 0.37028 0.0
C1987 C 0.21227 0.24387 0.35878 0.0
C1988 C 0.18025 0.29474 0.36382 0.0
C1989 C 0.17391 0.33415 0.3156 0.0
C1990 C 0.18311 0.31734 0.33078 0.0
C1991 C 0.20638 0.2632 0.37018 0.0
C1992 C 0.19931 0.28297 0.35765 0.0
H1993 H 0.16717 0.34273 0.26059 0.0
H1994 H 0.17883 0.31424 0.28625 0.0
H1995 H 0.15709 0.32012 0.35519 0.0
H1996 H 0.21109 0.24404 0.42281 0.0
H1997 H 0.2021 0.27781 0.40257 0.0
C1998 C 0.27643 0.73393 0.90156 0.0
C1999 C 0.28666 0.75441 0.89798 0.0
C2000 C 0.28217 0.71565 0.88864 0.0
C2001 C 0.30798 0.70275 0.83481 0.0
H2002 H 0.30779 0.64267 0.85689 0.0
C2003 C 0.33352 0.60973 0.80338 0.0
C2004 C 0.32561 0.61131 0.78162 0.0
C2005 C 0.32916 0.62655 0.81861 0.0
C2006 C 0.30816 0.65937 0.85054 0.0
H2007 H 0.31182 0.7716 0.8792 0.0
H2008 H 0.32242 0.73971 0.85737 0.0
H2009 H 0.30068 0.67322 0.88221 0.0
H2010 H 0.30614 0.63118 0.75902 0.0
H2011 H 0.298 0.65997 0.78559 0.0
H2012 H 0.31625 0.68919 0.80342 0.0
C2013 C 0.30934 0.73782 0.86942 0.0
C2014 C 0.30379 0.67686 0.86498 0.0
C2015 C 0.30334 0.7561 0.88199 0.0
C2016 C 0.31283 0.62968 0.77555 0.0
C2017 C 0.30823 0.64625 0.79078 0.0
C2018 C 0.31259 0.68537 0.8205 0.0
C2019 C 0.29849 0.7175 0.8722 0.0
C2020 C 0.30357 0.69875 0.85724 0.0
C2021 C 0.3166 0.64509 0.8124 0.0
C2022 C 0.3125 0.66346 0.82809 0.0
H2023 H 0.26352 0.73222 0.91381 0.0
H2024 H 0.27334 0.70031 0.8911 0.0
H2025 H 0.30758 0.71933 0.82813 0.0
H2026 H 0.34342 0.59574 0.80851 0.0
H2027 H 0.33601 0.62523 0.83507 0.0
C2028 C 0.71765 0.2476 0.59666 0.0
C2029 C 0.72261 0.26729 0.60798 0.0
C2030 C 0.71061 0.22891 0.60825 0.0
C2031 C 0.68279 0.215 0.66014 0.0
H2032 H 0.70189 0.15497 0.64859 0.0
C2033 C 0.66747 0.14452 0.72103 0.0
C2034 C 0.66207 0.12347 0.71287 0.0
C2035 C 0.67313 0.16154 0.70666 0.0
C2036 C 0.69614 0.17162 0.65174 0.0
H2037 H 0.72567 0.28218 0.64047 0.0
H2038 H 0.71368 0.24961 0.66054 0.0
H2039 H 0.71692 0.18533 0.62656 0.0
H2040 H 0.65783 0.104 0.68307 0.0
H2041 H 0.66767 0.13398 0.65785 0.0
H2042 H 0.66218 0.20148 0.68537 0.0
C2043 C 0.71468 0.2488 0.6427 0.0
C2044 C 0.7048 0.18897 0.6392 0.0
C2045 C 0.72169 0.26742 0.63118 0.0
C2046 C 0.66185 0.12003 0.6899 0.0
C2047 C 0.66766 0.13712 0.67546 0.0
C2048 C 0.67413 0.19772 0.6726 0.0
C2049 C 0.7084 0.22958 0.63133 0.0
C2050 C 0.69853 0.21087 0.6436 0.0
C2051 C 0.67357 0.15798 0.68375 0.0
C2052 C 0.68102 0.1759 0.66884 0.0
H2053 H 0.71819 0.24692 0.57879 0.0
H2054 H 0.70591 0.21429 0.59907 0.0
H2055 H 0.67721 0.23166 0.66353 0.0
H2056 H 0.66779 0.14778 0.73862 0.0
H2057 H 0.67786 0.17734 0.71358 0.0
C2058 C 0.78104 0.76565 0.07408 0.0
C2059 C 0.77431 0.74686 0.08595 0.0
C2060 C 0.78411 0.78581 0.08491 0.0
C2061 C 0.7709 0.81532 0.13666 0.0
H2062 H 0.82793 0.84344 0.12896 0.0
C2063 C 0.81206 0.86386 0.2053 0.0
C2064 C 0.82117 0.88463 0.20045 0.0
C2065 C 0.80472 0.85013 0.18842 0.0
C2066 C 0.81178 0.83602 0.13097 0.0
H2067 H 0.76471 0.73469 0.11828 0.0
H2068 H 0.77015 0.76963 0.13705 0.0
H2069 H 0.81669 0.81383 0.10386 0.0
H2070 H 0.83032 0.90698 0.17393 0.0
H2071 H 0.81774 0.88251 0.14426 0.0
H2072 H 0.76645 0.8367 0.1644 0.0
C2073 C 0.77293 0.7689 0.11939 0.0
C2074 C 0.80532 0.81915 0.11661 0.0
C2075 C 0.77002 0.7488 0.10866 0.0
C2076 C 0.82335 0.89108 0.17822 0.0
C2077 C 0.81617 0.87715 0.16125 0.0
C2078 C 0.77738 0.83206 0.15101 0.0
C2079 C 0.78024 0.78753 0.10771 0.0
C2080 C 0.78517 0.80811 0.11988 0.0
C2081 C 0.80644 0.85674 0.1663 0.0
C2082 C 0.7982 0.84197 0.14878 0.0
H2083 H 0.78445 0.76469 0.05655 0.0
H2084 H 0.78969 0.79997 0.07553 0.0
H2085 H 0.75509 0.80737 0.13926 0.0
H2086 H 0.81011 0.85831 0.22219 0.0
H2087 H 0.79767 0.83425 0.1927 0.0
C2088 C 0.40623 0.19947 0.24348 0.0
C2089 C 0.39505 0.20505 0.22388 0.0
C2090 C 0.39439 0.19371 0.26247 0.0
C2091 C 0.33908 0.19858 0.28772 0.0
H2092 H 0.35568 0.14622 0.32069 0.0
C2093 C 0.27873 0.15686 0.34676 0.0
C2094 C 0.28662 0.15096 0.3678 0.0
C2095 C 0.29333 0.1632 0.33016 0.0
C2096 C 0.35101 0.16101 0.31178 0.0
H2097 H 0.36263 0.20929 0.20907 0.0
H2098 H 0.34221 0.19917 0.24193 0.0
H2099 H 0.37908 0.15897 0.29031 0.0
H2100 H 0.31622 0.14622 0.3875 0.0
H2101 H 0.34174 0.15729 0.3583 0.0
H2102 H 0.31088 0.20046 0.30882 0.0
C2103 C 0.36007 0.19943 0.24274 0.0
C2104 C 0.36442 0.16834 0.29446 0.0
C2105 C 0.37184 0.20509 0.22382 0.0
C2106 C 0.30956 0.15068 0.37151 0.0
C2107 C 0.32421 0.15698 0.3548 0.0
C2108 C 0.32571 0.19124 0.30492 0.0
C2109 C 0.37118 0.19359 0.26224 0.0
C2110 C 0.35834 0.18697 0.28199 0.0
C2111 C 0.31616 0.16377 0.33413 0.0
C2112 C 0.3313 0.17215 0.31685 0.0
H2113 H 0.4241 0.19927 0.24409 0.0
H2114 H 0.40337 0.18944 0.27733 0.0
H2115 H 0.33421 0.21325 0.27872 0.0
H2116 H 0.26121 0.15713 0.34321 0.0
H2117 H 0.2867 0.16791 0.31422 0.0
C2118 C 0.18932 0.81936 0.86992 0.0
C2119 C 0.21243 0.8207 0.86799 0.0
C2120 C 0.17641 0.81317 0.85188 0.0
C2121 C 0.17982 0.78373 0.79869 0.0
H2122 H 0.12347 0.81207 0.78757 0.0
C2123 C 0.12972 0.77213 0.71832 0.0
C2124 C 0.10663 0.7705 0.72021 0.0
C2125 C 0.14268 0.77672 0.73682 0.0
C2126 C 0.13904 0.80381 0.79064 0.0
H2127 H 0.23998 0.81717 0.8453 0.0
H2128 H 0.21735 0.80677 0.81373 0.0
H2129 H 0.14612 0.82436 0.81847 0.0
H2130 H 0.07918 0.77147 0.74328 0.0
H2131 H 0.10187 0.7794 0.77553 0.0
H2132 H 0.17278 0.76337 0.77064 0.0
C2133 C 0.2093 0.81009 0.82936 0.0
C2134 C 0.15203 0.81086 0.80832 0.0
C2135 C 0.22225 0.81621 0.84743 0.0
C2136 C 0.09689 0.77271 0.74118 0.0
C2137 C 0.10986 0.7774 0.75965 0.0
C2138 C 0.16685 0.77673 0.78095 0.0
C2139 C 0.18626 0.80826 0.83145 0.0
C2140 C 0.17257 0.80091 0.81253 0.0
C2141 C 0.13282 0.77985 0.75758 0.0
C2142 C 0.14634 0.78671 0.77676 0.0
H2143 H 0.18118 0.82259 0.88552 0.0
H2144 H 0.15873 0.81168 0.85411 0.0
H2145 H 0.19539 0.77547 0.80173 0.0
H2146 H 0.13779 0.77044 0.70245 0.0
H2147 H 0.16033 0.77863 0.73471 0.0
C2148 C 0.81368 0.3458 0.62467 0.0
C2149 C 0.79101 0.34384 0.62942 0.0
C2150 C 0.82947 0.33811 0.63966 0.0
C2151 C 0.83495 0.2962 0.68218 0.0
H2152 H 0.88604 0.3288 0.70279 0.0
C2153 C 0.88061 0.27353 0.76116 0.0
C2154 C 0.9036 0.27631 0.76242 0.0
C2155 C 0.86907 0.28008 0.74241 0.0
C2156 C 0.8721 0.31932 0.69682 0.0
H2157 H 0.76726 0.33366 0.65432 0.0
H2158 H 0.79478 0.32032 0.68028 0.0
H2159 H 0.86147 0.34539 0.67528 0.0
H2160 H 0.93265 0.28733 0.74456 0.0
H2161 H 0.91234 0.29871 0.71156 0.0
H2162 H 0.84528 0.27024 0.7037 0.0
C2163 C 0.80027 0.32747 0.66483 0.0
C2164 C 0.85802 0.32887 0.68121 0.0
C2165 C 0.78454 0.33527 0.64999 0.0
C2166 C 0.91493 0.285 0.74411 0.0
C2167 C 0.90331 0.29166 0.72529 0.0
C2168 C 0.84905 0.28662 0.6976 0.0
C2169 C 0.8228 0.32822 0.65951 0.0
C2170 C 0.839 0.31761 0.67429 0.0
C2171 C 0.88023 0.28955 0.72442 0.0
C2172 C 0.8674 0.29833 0.70557 0.0
H2173 H 0.81925 0.35239 0.60901 0.0
H2174 H 0.84679 0.33893 0.63528 0.0
H2175 H 0.82064 0.28699 0.67667 0.0
H2176 H 0.87136 0.26678 0.77491 0.0
H2177 H 0.85126 0.2785 0.74238 0.0
C2178 C 0.57957 0.70693 0.23743 0.0
C2179 C 0.59078 0.70761 0.25779 0.0
C2180 C 0.59099 0.70211 0.21796 0.0
C2181 C 0.64138 0.67436 0.19905 0.0
H2182 H 0.63489 0.70923 0.14571 0.0
C2183 C 0.7073 0.67594 0.13233 0.0
C2184 C 0.70082 0.67457 0.11009 0.0
C2185 C 0.69163 0.67848 0.1489 0.0
C2186 C 0.63656 0.69914 0.16038 0.0
H2187 H 0.62292 0.70454 0.27347 0.0
H2188 H 0.64268 0.69632 0.23961 0.0
H2189 H 0.6114 0.71705 0.17772 0.0
H2190 H 0.67272 0.67506 0.0878 0.0
H2191 H 0.64519 0.6797 0.11708 0.0
H2192 H 0.66685 0.65683 0.18206 0.0
C2193 C 0.62503 0.69911 0.23877 0.0
C2194 C 0.62318 0.70362 0.17866 0.0
C2195 C 0.61369 0.70397 0.25815 0.0
C2196 C 0.67823 0.67598 0.10479 0.0
C2197 C 0.6625 0.67872 0.12148 0.0
C2198 C 0.6547 0.66992 0.18087 0.0
C2199 C 0.61375 0.69778 0.21856 0.0
C2200 C 0.62594 0.69165 0.19834 0.0
C2201 C 0.6691 0.67981 0.14368 0.0
C2202 C 0.65284 0.68265 0.16161 0.0
H2203 H 0.56192 0.70972 0.23656 0.0
H2204 H 0.58193 0.70118 0.20256 0.0
H2205 H 0.64347 0.66454 0.21385 0.0
H2206 H 0.72453 0.67493 0.13704 0.0
H2207 H 0.6972 0.67966 0.16587 0.0
C2208 C 0.35593 0.28165 0.17417 0.0
C2209 C 0.37666 0.28845 0.16627 0.0
C2210 C 0.34138 0.29687 0.18343 0.0
C2211 C 0.32665 0.3552 0.18473 0.0
H2212 H 0.2951 0.33793 0.23773 0.0
C2213 C 0.25701 0.40885 0.22157 0.0
C2214 C 0.23741 0.39691 0.22502 0.0
C2215 C 0.27695 0.39773 0.21801 0.0
C2216 C 0.30384 0.34301 0.22298 0.0
H2217 H 0.39808 0.3168 0.16141 0.0
H2218 H 0.37239 0.34347 0.17748 0.0
H2219 H 0.32439 0.31429 0.22338 0.0
H2220 H 0.22356 0.36407 0.22881 0.0
H2221 H 0.25813 0.34482 0.22259 0.0
H2222 H 0.3055 0.38352 0.18386 0.0
C2223 C 0.36757 0.32627 0.17652 0.0
C2224 C 0.32054 0.32948 0.21474 0.0
C2225 C 0.38224 0.31099 0.16733 0.0
C2226 C 0.23834 0.37375 0.22601 0.0
C2227 C 0.25821 0.36271 0.22264 0.0
C2228 C 0.30988 0.36875 0.19295 0.0
C2229 C 0.34715 0.31926 0.18495 0.0
C2230 C 0.33162 0.3351 0.19517 0.0
C2231 C 0.27762 0.37454 0.21814 0.0
C2232 C 0.29787 0.36241 0.21177 0.0
H2233 H 0.35102 0.26446 0.17361 0.0
H2234 H 0.32554 0.29109 0.18939 0.0
H2235 H 0.33491 0.35988 0.16957 0.0
H2236 H 0.25682 0.42671 0.22074 0.0
H2237 H 0.29173 0.40724 0.21472 0.0
C2238 C 0.88761 0.17353 0.82455 0.0
C2239 C 0.88247 0.19621 0.82495 0.0
C2240 C 0.87247 0.15825 0.81621 0.0
C2241 C 0.82484 0.15471 0.77886 0.0
H2242 H 0.80891 0.10228 0.81196 0.0
C2243 C 0.74129 0.11278 0.77066 0.0
C2244 C 0.73964 0.08971 0.7723 0.0
C2245 C 0.76156 0.12323 0.77337 0.0
C2246 C 0.81354 0.11657 0.80226 0.0
H2247 H 0.85714 0.22046 0.81732 0.0
H2248 H 0.83085 0.19383 0.80295 0.0
H2249 H 0.83913 0.12565 0.82496 0.0
H2250 H 0.7581 0.05939 0.77716 0.0
H2251 H 0.79376 0.07784 0.78208 0.0
H2252 H 0.79888 0.14608 0.75655 0.0
C2253 C 0.84669 0.18794 0.80881 0.0
C2254 C 0.83076 0.12997 0.80975 0.0
C2255 C 0.8617 0.20316 0.81727 0.0
C2256 C 0.75889 0.0772 0.77582 0.0
C2257 C 0.77924 0.08774 0.77875 0.0
C2258 C 0.80772 0.14131 0.77136 0.0
C2259 C 0.85203 0.16539 0.80793 0.0
C2260 C 0.83604 0.14954 0.7985 0.0
C2261 C 0.78066 0.11088 0.77787 0.0
C2262 C 0.8014 0.12254 0.78339 0.0
H2263 H 0.90347 0.16761 0.83034 0.0
H2264 H 0.87695 0.14093 0.81573 0.0
H2265 H 0.82894 0.16946 0.76962 0.0
H2266 H 0.7268 0.12288 0.76778 0.0
H2267 H 0.76206 0.14111 0.77287 0.0
C2268 C 0.7581 0.8701 0.28337 0.0
C2269 C 0.75654 0.89325 0.28249 0.0
C2270 C 0.73993 0.85739 0.2895 0.0
C2271 C 0.67951 0.85752 0.29476 0.0
H2272 H 0.69078 0.81015 0.33639 0.0
C2273 C 0.60979 0.80288 0.33079 0.0
C2274 C 0.61413 0.78005 0.33079 0.0
C2275 C 0.62665 0.81799 0.32629 0.0
C2276 C 0.68739 0.82322 0.32466 0.0
H2277 H 0.7343 0.92111 0.28656 0.0
H2278 H 0.70252 0.89878 0.2973 0.0
H2279 H 0.72098 0.83399 0.32479 0.0
H2280 H 0.63975 0.75529 0.32644 0.0
H2281 H 0.66891 0.78154 0.3185 0.0
H2282 H 0.64592 0.84648 0.29443 0.0
C2283 C 0.71788 0.89055 0.2932 0.0
C2284 C 0.70468 0.83685 0.318 0.0
C2285 C 0.73611 0.90332 0.2871 0.0
C2286 C 0.63576 0.77273 0.32662 0.0
C2287 C 0.65256 0.7878 0.32219 0.0
C2288 C 0.66217 0.84382 0.30142 0.0
C2289 C 0.71976 0.86749 0.29487 0.0
C2290 C 0.70101 0.8539 0.30271 0.0
C2291 C 0.64818 0.81057 0.32182 0.0
C2292 C 0.66603 0.82632 0.31617 0.0
H2293 H 0.77349 0.86173 0.27975 0.0
H2294 H 0.74173 0.83961 0.2902 0.0
H2295 H 0.67624 0.87048 0.28288 0.0
H2296 H 0.59331 0.80909 0.33393 0.0
H2297 H 0.62284 0.83547 0.32631 0.0
C2298 C 0.26289 0.61624 0.69621 0.0
C2299 C 0.26096 0.59341 0.69998 0.0
C2300 C 0.24515 0.62825 0.68785 0.0
C2301 C 0.18506 0.62827 0.68101 0.0
H2302 H 0.19806 0.67067 0.63477 0.0
C2303 C 0.11694 0.68152 0.64144 0.0
C2304 C 0.12179 0.70423 0.64059 0.0
C2305 C 0.13359 0.66615 0.64575 0.0
C2306 C 0.1942 0.65894 0.64769 0.0
H2307 H 0.23851 0.56549 0.69871 0.0
H2308 H 0.20742 0.58664 0.6841 0.0
H2309 H 0.22752 0.64739 0.64933 0.0
H2310 H 0.14818 0.72842 0.64242 0.0
H2311 H 0.17708 0.70167 0.65002 0.0
H2312 H 0.15182 0.64018 0.6797 0.0
C2313 C 0.22275 0.59514 0.68764 0.0
C2314 C 0.21104 0.64566 0.65606 0.0
C2315 C 0.24056 0.58305 0.696 0.0
C2316 C 0.14382 0.71109 0.64303 0.0
C2317 C 0.16044 0.69573 0.64726 0.0
C2318 C 0.16819 0.64159 0.67264 0.0
C2319 C 0.22504 0.61776 0.68307 0.0
C2320 C 0.20674 0.63052 0.67311 0.0
C2321 C 0.15542 0.67316 0.64917 0.0
C2322 C 0.17269 0.65735 0.65619 0.0
H2323 H 0.27826 0.62483 0.69928 0.0
H2324 H 0.24722 0.64578 0.68498 0.0
H2325 H 0.18131 0.61683 0.69423 0.0
H2326 H 0.10016 0.67563 0.63956 0.0
H2327 H 0.12931 0.64882 0.64684 0.0
C2328 C 0.82151 0.63986 0.71997 0.0
C2329 C 0.82741 0.6186 0.71271 0.0
C2330 C 0.81218 0.65502 0.70543 0.0
C2331 C 0.80584 0.66935 0.64711 0.0
H2332 H 0.75586 0.70304 0.66895 0.0
C2333 C 0.76239 0.73509 0.59372 0.0
C2334 C 0.75933 0.75558 0.60425 0.0
C2335 C 0.76801 0.71636 0.60594 0.0
C2336 C 0.76983 0.6938 0.66265 0.0
H2337 H 0.82885 0.59692 0.68418 0.0
H2338 H 0.81255 0.62366 0.65866 0.0
H2339 H 0.77207 0.67423 0.69193 0.0
H2340 H 0.75866 0.77214 0.63606 0.0
H2341 H 0.76853 0.73955 0.65728 0.0
H2342 H 0.80391 0.68931 0.61801 0.0
C2343 C 0.81518 0.62844 0.67569 0.0
C2344 C 0.77912 0.67735 0.67579 0.0
C2345 C 0.82453 0.61316 0.69031 0.0
C2346 C 0.76096 0.75667 0.62738 0.0
C2347 C 0.7665 0.73794 0.63958 0.0
C2348 C 0.79654 0.68586 0.63394 0.0
C2349 C 0.80852 0.64935 0.68326 0.0
C2350 C 0.79752 0.6653 0.66836 0.0
C2351 C 0.77054 0.7177 0.62895 0.0
C2352 C 0.77873 0.69855 0.64178 0.0
H2353 H 0.82367 0.64474 0.73704 0.0
H2354 H 0.80769 0.6712 0.71161 0.0
H2355 H 0.82008 0.66039 0.64103 0.0
H2356 H 0.76118 0.73361 0.57593 0.0
H2357 H 0.77074 0.7009 0.59735 0.0
C2358 C 0.69415 0.24765 0.09482 0.0
C2359 C 0.71021 0.24382 0.07855 0.0
C2360 C 0.68965 0.269 0.10196 0.0
C2361 C 0.71597 0.32054 0.11202 0.0
H2362 H 0.65609 0.3397 0.12444 0.0
C2363 C 0.69179 0.36937 0.18867 0.0
C2364 C 0.67543 0.38577 0.1873 0.0
C2365 C 0.69742 0.35692 0.17016 0.0
C2366 C 0.67292 0.33492 0.1207 0.0
H2367 H 0.73393 0.2593 0.05667 0.0
H2368 H 0.72653 0.29699 0.06993 0.0
H2369 H 0.66235 0.30836 0.09989 0.0
H2370 H 0.65257 0.40239 0.16524 0.0
H2371 H 0.66216 0.38016 0.13289 0.0
H2372 H 0.72647 0.34623 0.13396 0.0
C2373 C 0.71726 0.28332 0.07678 0.0
C2374 C 0.67648 0.31694 0.10675 0.0
C2375 C 0.72147 0.26185 0.06925 0.0
C2376 C 0.66518 0.3898 0.16685 0.0
C2377 C 0.67065 0.37713 0.14834 0.0
C2378 C 0.71241 0.33842 0.12615 0.0
C2379 C 0.70133 0.287 0.09324 0.0
C2380 C 0.69797 0.30905 0.10306 0.0
C2381 C 0.6867 0.36045 0.1499 0.0
C2382 C 0.6908 0.34516 0.13131 0.0
H2383 H 0.68505 0.23409 0.10212 0.0
H2384 H 0.67754 0.27136 0.11492 0.0
H2385 H 0.73269 0.31469 0.10948 0.0
H2386 H 0.70017 0.36598 0.20412 0.0
H2387 H 0.7096 0.34392 0.17193 0.0
C2388 C 0.28034 0.75508 0.40768 0.0
C2389 C 0.27757 0.73451 0.39722 0.0
C2390 C 0.28824 0.77324 0.39582 0.0
C2391 C 0.32055 0.78628 0.34612 0.0
H2392 H 0.29327 0.84411 0.34983 0.0
C2393 C 0.33172 0.85208 0.2794 0.0
C2394 C 0.33404 0.87427 0.28577 0.0
C2395 C 0.32707 0.83587 0.29503 0.0
C2396 C 0.3013 0.82815 0.34892 0.0
H2397 H 0.28013 0.71721 0.36587 0.0
H2398 H 0.29365 0.74879 0.34534 0.0
H2399 H 0.28 0.81423 0.3735 0.0
H2400 H 0.3337 0.89676 0.31372 0.0
H2401 H 0.32556 0.86827 0.34108 0.0
H2402 H 0.34152 0.79997 0.32127 0.0
C2403 C 0.29015 0.75077 0.36278 0.0
C2404 C 0.29368 0.81107 0.36243 0.0
C2405 C 0.28224 0.7327 0.37455 0.0
C2406 C 0.33204 0.87981 0.30825 0.0
C2407 C 0.32725 0.86355 0.32391 0.0
C2408 C 0.32814 0.80331 0.33266 0.0
C2409 C 0.29358 0.77111 0.37334 0.0
C2410 C 0.3029 0.78984 0.36075 0.0
C2411 C 0.32457 0.84146 0.3174 0.0
C2412 C 0.31826 0.82426 0.33355 0.0
H2413 H 0.27689 0.75704 0.42512 0.0
H2414 H 0.29075 0.78876 0.40435 0.0
H2415 H 0.3283 0.7702 0.34485 0.0
H2416 H 0.33316 0.8472 0.26225 0.0
H2417 H 0.3248 0.81902 0.28948 0.0
C2418 C 0.22254 0.25771 0.87736 0.0
C2419 C 0.21994 0.26051 0.90023 0.0
C2420 C 0.21886 0.23723 0.8676 0.0
C2421 C 0.18646 0.18734 0.87422 0.0
H2422 H 0.22244 0.16734 0.82515 0.0
C2423 C 0.16513 0.1118 0.81789 0.0
C2424 C 0.16725 0.11615 0.79514 0.0
C2425 C 0.17263 0.12713 0.83351 0.0
C2426 C 0.21225 0.1727 0.83885 0.0
H2427 H 0.21204 0.24387 0.93094 0.0
H2428 H 0.20534 0.20783 0.91367 0.0
H2429 H 0.23528 0.19778 0.84814 0.0
H2430 H 0.1782 0.14045 0.77111 0.0
H2431 H 0.19107 0.16692 0.7982 0.0
H2432 H 0.16308 0.16262 0.86434 0.0
C2433 C 0.21027 0.22162 0.90341 0.0
C2434 C 0.21961 0.19007 0.85201 0.0
C2435 C 0.21423 0.24216 0.91327 0.0
C2436 C 0.1764 0.1364 0.78843 0.0
C2437 C 0.18397 0.15155 0.80397 0.0
C2438 C 0.17908 0.16987 0.86101 0.0
C2439 C 0.21235 0.21905 0.88044 0.0
C2440 C 0.20645 0.19808 0.86934 0.0
C2441 C 0.18254 0.14693 0.82663 0.0
C2442 C 0.19158 0.16295 0.84273 0.0
H2443 H 0.22704 0.27148 0.86687 0.0
H2444 H 0.22033 0.23585 0.84982 0.0
H2445 H 0.17593 0.19326 0.88741 0.0
H2446 H 0.15816 0.09638 0.82364 0.0
H2447 H 0.17127 0.12323 0.85091 0.0
C2448 C 0.69018 0.83166 0.63899 0.0
C2449 C 0.68541 0.8311 0.61632 0.0
C2450 C 0.67393 0.82666 0.65441 0.0
C2451 C 0.62454 0.79344 0.66058 0.0
H2452 H 0.62333 0.82201 0.71789 0.0
C2453 C 0.57242 0.76813 0.73883 0.0
C2454 C 0.58566 0.76631 0.75787 0.0
C2455 C 0.58146 0.77592 0.71905 0.0
C2456 C 0.6234 0.81398 0.70189 0.0
H2457 H 0.65963 0.82572 0.592 0.0
H2458 H 0.63106 0.81687 0.6192 0.0
H2459 H 0.64361 0.83909 0.68763 0.0
H2460 H 0.61916 0.76921 0.77046 0.0
H2461 H 0.63467 0.7829 0.73613 0.0
H2462 H 0.60464 0.76803 0.6753 0.0
C2463 C 0.64747 0.82114 0.6249 0.0
C2464 C 0.63497 0.82372 0.68462 0.0
C2465 C 0.66376 0.82633 0.60939 0.0
C2466 C 0.60838 0.77074 0.75626 0.0
C2467 C 0.61729 0.77865 0.73665 0.0
C2468 C 0.61275 0.78376 0.67791 0.0
C2469 C 0.65254 0.82093 0.64752 0.0
C2470 C 0.63642 0.8131 0.66407 0.0
C2471 C 0.60376 0.78206 0.71819 0.0
C2472 C 0.61288 0.79358 0.69887 0.0
H2473 H 0.70667 0.83536 0.64486 0.0
H2474 H 0.67844 0.82633 0.67171 0.0
H2475 H 0.62548 0.78484 0.64492 0.0
H2476 H 0.55488 0.76474 0.73949 0.0
H2477 H 0.57083 0.77831 0.70487 0.0
C2478 C 0.90178 0.22235 0.24766 0.0
C2479 C 0.8912 0.22939 0.2671 0.0
C2480 C 0.88951 0.21797 0.2286 0.0
C2481 C 0.85713 0.19435 0.19808 0.0
H2482 H 0.8081 0.23139 0.17998 0.0
C2483 C 0.77245 0.18819 0.14304 0.0
C2484 C 0.78047 0.17764 0.12397 0.0
C2485 C 0.78698 0.19552 0.15937 0.0
C2486 C 0.82162 0.22078 0.18495 0.0
H2487 H 0.85954 0.2383 0.28142 0.0
H2488 H 0.83827 0.23066 0.24826 0.0
H2489 H 0.83205 0.24335 0.21007 0.0
H2490 H 0.81016 0.16653 0.10718 0.0
H2491 H 0.83547 0.17949 0.13561 0.0
H2492 H 0.84644 0.17154 0.17332 0.0
C2493 C 0.85602 0.22856 0.24772 0.0
C2494 C 0.83537 0.22767 0.20212 0.0
C2495 C 0.86823 0.23279 0.26678 0.0
C2496 C 0.80337 0.17446 0.12171 0.0
C2497 C 0.81791 0.18184 0.13803 0.0
C2498 C 0.84333 0.18742 0.18095 0.0
C2499 C 0.86647 0.22074 0.22855 0.0
C2500 C 0.85309 0.2144 0.20905 0.0
C2501 C 0.80988 0.19254 0.157 0.0
C2502 C 0.82525 0.20042 0.17439 0.0
H2503 H 0.91945 0.21959 0.24733 0.0
H2504 H 0.89801 0.21218 0.21396 0.0
H2505 H 0.87048 0.18363 0.20327 0.0
H2506 H 0.75493 0.19086 0.1454 0.0
H2507 H 0.78023 0.20334 0.17397 0.0
C2508 C 0.17515 0.67006 0.37709 0.0
C2509 C 0.19813 0.66975 0.37362 0.0
C2510 C 0.16082 0.67595 0.35997 0.0
C2511 C 0.15846 0.68082 0.29934 0.0
H2512 H 0.11098 0.72253 0.31008 0.0
C2513 C 0.11734 0.7255 0.22822 0.0
C2514 C 0.09421 0.72406 0.22714 0.0
C2515 C 0.12847 0.71999 0.24754 0.0
C2516 C 0.12406 0.71074 0.30695 0.0
H2517 H 0.22399 0.67523 0.34937 0.0
H2518 H 0.19912 0.68561 0.31981 0.0
H2519 H 0.13329 0.7091 0.34109 0.0
H2520 H 0.0645 0.71737 0.24604 0.0
H2521 H 0.08416 0.70772 0.28003 0.0
H2522 H 0.14963 0.68274 0.26526 0.0
C2523 C 0.19212 0.68103 0.33562 0.0
C2524 C 0.13675 0.70299 0.32464 0.0
C2525 C 0.20641 0.67517 0.35264 0.0
C2526 C 0.08234 0.71856 0.24633 0.0
C2527 C 0.09355 0.71304 0.26577 0.0
C2528 C 0.14593 0.68863 0.28175 0.0
C2529 C 0.1692 0.68154 0.33909 0.0
C2530 C 0.15434 0.68827 0.3209 0.0
C2531 C 0.11673 0.71295 0.26621 0.0
C2532 C 0.12891 0.70397 0.28532 0.0
H2533 H 0.16822 0.66602 0.39307 0.0
H2534 H 0.1432 0.67603 0.36305 0.0
H2535 H 0.17156 0.66909 0.29601 0.0
H2536 H 0.12698 0.73008 0.21386 0.0
H2537 H 0.14635 0.72054 0.24766 0.0
C2538 C 0.27335 0.32565 0.84273 0.0
C2539 C 0.28164 0.33484 0.86238 0.0
C2540 C 0.28767 0.31855 0.82615 0.0
C2541 C 0.32079 0.31446 0.78912 0.0
H2542 H 0.37241 0.2806 0.80633 0.0
C2543 C 0.40262 0.27596 0.74464 0.0
C2544 C 0.39248 0.26676 0.72587 0.0
C2545 C 0.38983 0.28365 0.76227 0.0
C2546 C 0.35816 0.29019 0.8013 0.0
H2547 H 0.3116 0.34439 0.87964 0.0
H2548 H 0.33658 0.33222 0.85047 0.0
H2549 H 0.34882 0.29693 0.83473 0.0
H2550 H 0.36102 0.25702 0.71165 0.0
H2551 H 0.33888 0.2702 0.74242 0.0
H2552 H 0.32995 0.30759 0.75575 0.0
C2553 C 0.31896 0.33024 0.84811 0.0
C2554 C 0.34471 0.29961 0.81754 0.0
C2555 C 0.30462 0.33737 0.86474 0.0
C2556 C 0.36939 0.26426 0.7257 0.0
C2557 C 0.35666 0.27194 0.74327 0.0
C2558 C 0.33417 0.30502 0.77294 0.0
C2559 C 0.31064 0.32049 0.82877 0.0
C2560 C 0.32575 0.31166 0.81161 0.0
C2561 C 0.36668 0.28229 0.76145 0.0
C2562 C 0.35286 0.29258 0.77884 0.0
H2563 H 0.25578 0.32337 0.84032 0.0
H2564 H 0.28073 0.31088 0.81156 0.0
H2565 H 0.30654 0.32399 0.78401 0.0
H2566 H 0.42035 0.27814 0.74534 0.0
H2567 H 0.398 0.29157 0.77607 0.0
C2568 C 0.76327 0.6171 0.78915 0.0
C2569 C 0.76473 0.594 0.79086 0.0
C2570 C 0.74344 0.62793 0.79341 0.0
C2571 C 0.69174 0.62321 0.82388 0.0
H2572 H 0.6745 0.6722 0.78639 0.0
C2573 C 0.61365 0.67819 0.83824 0.0
C2574 C 0.61724 0.70101 0.83565 0.0
C2575 C 0.63019 0.66301 0.83263 0.0
C2576 C 0.67914 0.65861 0.79706 0.0
H2577 H 0.74637 0.56414 0.7983 0.0
H2578 H 0.71154 0.58327 0.80589 0.0
H2579 H 0.70573 0.64914 0.77587 0.0
H2580 H 0.64143 0.72571 0.82611 0.0
H2581 H 0.67004 0.69939 0.81658 0.0
H2582 H 0.66532 0.63312 0.84533 0.0
C2583 C 0.72589 0.59287 0.80126 0.0
C2584 C 0.69698 0.6454 0.79102 0.0
C2585 C 0.74578 0.58195 0.79679 0.0
C2586 C 0.63794 0.70829 0.82811 0.0
C2587 C 0.65434 0.69319 0.82249 0.0
C2588 C 0.6738 0.63649 0.82996 0.0
C2589 C 0.72456 0.61597 0.79957 0.0
C2590 C 0.70385 0.62795 0.80465 0.0
C2591 C 0.65052 0.6704 0.82425 0.0
C2592 C 0.66776 0.65469 0.81688 0.0
H2593 H 0.7775 0.62691 0.78457 0.0
H2594 H 0.74301 0.64577 0.79228 0.0
H2595 H 0.69674 0.6099 0.83474 0.0
H2596 H 0.5979 0.67201 0.84401 0.0
H2597 H 0.62684 0.64551 0.83418 0.0
C2598 C 0.24066 0.91035 0.20867 0.0
C2599 C 0.25964 0.8981 0.21416 0.0
C2600 C 0.22081 0.89962 0.2039 0.0
C2601 C 0.19216 0.84604 0.20922 0.0
H2602 H 0.164 0.86212 0.15393 0.0
C2603 C 0.14017 0.78479 0.16118 0.0
C2604 C 0.11918 0.79159 0.15393 0.0
C2605 C 0.15521 0.8001 0.16931 0.0
C2606 C 0.17149 0.8577 0.16956 0.0
H2607 H 0.27236 0.86508 0.21997 0.0
H2608 H 0.23789 0.84647 0.21157 0.0
H2609 H 0.19375 0.88513 0.16867 0.0
H2610 H 0.09804 0.82006 0.14843 0.0
H2611 H 0.12475 0.84697 0.16247 0.0
H2612 H 0.17053 0.81817 0.20969 0.0
C2613 C 0.23828 0.86434 0.21105 0.0
C2614 C 0.18843 0.87086 0.17804 0.0
C2615 C 0.2581 0.87502 0.21571 0.0
C2616 C 0.11405 0.81427 0.15392 0.0
C2617 C 0.12927 0.82967 0.16197 0.0
C2618 C 0.17534 0.83289 0.20072 0.0
C2619 C 0.21955 0.8765 0.20473 0.0
C2620 C 0.19936 0.86475 0.19762 0.0
C2621 C 0.14971 0.82257 0.17029 0.0
C2622 C 0.16534 0.83823 0.18049 0.0
H2623 H 0.24127 0.92818 0.20737 0.0
H2624 H 0.20656 0.90938 0.19925 0.0
H2625 H 0.19999 0.8412 0.22457 0.0
H2626 H 0.14481 0.76752 0.16125 0.0
H2627 H 0.1711 0.79429 0.17515 0.0
C2628 C 0.25488 0.07346 0.71148 0.0
C2629 C 0.24001 0.0837 0.72601 0.0
C2630 C 0.27426 0.08427 0.70525 0.0
C2631 C 0.31723 0.1087 0.69714 0.0
H2632 H 0.30805 0.17152 0.68899 0.0
C2633 C 0.38603 0.16898 0.66935 0.0
C2634 C 0.37967 0.18762 0.65711 0.0
C2635 C 0.37012 0.15427 0.6772 0.0
C2636 C 0.31082 0.15395 0.69082 0.0
H2637 H 0.23453 0.11196 0.74721 0.0
H2638 H 0.26892 0.1303 0.73738 0.0
H2639 H 0.27933 0.14957 0.7057 0.0
H2640 H 0.35211 0.20458 0.64184 0.0
H2641 H 0.32446 0.17839 0.65457 0.0
H2642 H 0.3484 0.11311 0.68108 0.0
C2643 C 0.26524 0.11448 0.72991 0.0
C2644 C 0.29449 0.14138 0.70092 0.0
C2645 C 0.24565 0.10393 0.73572 0.0
C2646 C 0.35739 0.19049 0.65152 0.0
C2647 C 0.34156 0.17558 0.65899 0.0
C2648 C 0.33352 0.12128 0.68672 0.0
C2649 C 0.27923 0.10529 0.71379 0.0
C2650 C 0.29745 0.1186 0.70424 0.0
C2651 C 0.34763 0.15778 0.67264 0.0
C2652 C 0.33042 0.14405 0.68334 0.0
H2653 H 0.25079 0.05788 0.7037 0.0
H2654 H 0.28454 0.07674 0.69271 0.0
H2655 H 0.32012 0.09122 0.69957 0.0
H2656 H 0.40312 0.16646 0.67399 0.0
H2657 H 0.37538 0.14083 0.68776 0.0
C2658 C 0.75428 0.39854 0.25192 0.0
C2659 C 0.7452 0.41523 0.26514 0.0
C2660 C 0.77436 0.38885 0.25766 0.0
C2661 C 0.80122 0.35796 0.28488 0.0
H2662 H 0.84899 0.38357 0.31894 0.0
C2663 C 0.8551 0.30289 0.33815 0.0
C2664 C 0.878 0.30619 0.33707 0.0
C2665 C 0.84066 0.31875 0.32986 0.0
C2666 C 0.83585 0.37621 0.3093 0.0
H2667 H 0.75059 0.43622 0.2936 0.0
H2668 H 0.78518 0.41866 0.30427 0.0
H2669 H 0.82278 0.40776 0.29994 0.0
H2670 H 0.90377 0.32918 0.32758 0.0
H2671 H 0.87846 0.35676 0.31257 0.0
H2672 H 0.8143 0.32654 0.29375 0.0
C2673 C 0.77722 0.41334 0.28917 0.0
C2674 C 0.82077 0.39005 0.29853 0.0
C2675 C 0.75735 0.42339 0.2831 0.0
C2676 C 0.88616 0.32624 0.3287 0.0
C2677 C 0.87167 0.34204 0.32011 0.0
C2678 C 0.81629 0.34423 0.29544 0.0
C2679 C 0.78536 0.39521 0.27711 0.0
C2680 C 0.80309 0.38104 0.28643 0.0
C2681 C 0.84881 0.3381 0.31995 0.0
C2682 C 0.8335 0.35314 0.30815 0.0
H2683 H 0.74529 0.39219 0.23781 0.0
H2684 H 0.78055 0.37544 0.24757 0.0
H2685 H 0.78763 0.35033 0.27613 0.0
H2686 H 0.84835 0.28772 0.3448 0.0
H2687 H 0.82309 0.31553 0.3306 0.0
loop_
_geom_bond_atom_site_label_1
_geom_bond_atom_site_label_2
_geom_bond_distance
_geom_bond_site_symmetry_2
_ccdc_geom_bond_type
Sc0 O3 2.025 . S
Sc0 O10 2.105 . S
Sc0 O13 2.105 . S
Sc0 O16 2.105 . S
Sc0 O19 2.105 . S
Sc1 O3 2.025 . S
Sc1 O11 2.105 . S
Sc1 O15 2.105 . S
Sc1 O17 2.105 . S
Sc1 O21 2.105 . S
Sc2 O3 2.025 . S
Sc2 O12 2.105 . S
Sc2 O14 2.105 . S
Sc2 O18 2.105 . S
Sc2 O20 2.105 . S
O3 Sc0 2.025 . S
O3 Sc1 2.025 . S
O3 Sc2 2.025 . S
C4 O10 1.268 . S
C4 O20 1.268 . S
C5 O11 1.268 . S
C5 O19 1.268 . S
C6 O12 1.268 . S
C6 O21 1.268 . S
C7 O13 1.268 . S
C7 O17 1.268 . S
C8 O14 1.268 . S
C8 O16 1.268 . S
C9 O15 1.268 . S
C9 O18 1.268 . S
O10 Sc0 2.105 . S
O10 C4 1.268 . S
O11 Sc1 2.105 . S
O11 C5 1.268 . S
O12 Sc2 2.105 . S
O12 C6 1.268 . S
O13 Sc0 2.105 . S
O13 C7 1.268 . S
O14 Sc2 2.105 . S
O14 C8 1.268 . S
O15 Sc1 2.105 . S
O15 C9 1.268 . S
O16 Sc0 2.105 . S
O16 C8 1.268 . S
O17 Sc1 2.105 . S
O17 C7 1.268 . S
O18 Sc2 2.105 . S
O18 C9 1.268 . S
O19 Sc0 2.105 . S
O19 C5 1.268 . S
O20 Sc2 2.105 . S
O20 C4 1.268 . S
O21 Sc1 2.105 . S
O21 C6 1.268 . S
Sc22 O25 2.025 . S
Sc22 O32 2.105 . S
Sc22 O35 2.105 . S
Sc22 O38 2.105 . S
Sc22 O41 2.105 . S
Sc23 O25 2.025 . S
Sc23 O33 2.105 . S
Sc23 O37 2.105 . S
Sc23 O39 2.105 . S
Sc23 O43 2.105 . S
Sc24 O25 2.025 . S
Sc24 O34 2.105 . S
Sc24 O36 2.105 . S
Sc24 O40 2.105 . S
Sc24 O42 2.105 . S
O25 Sc22 2.025 . S
O25 Sc23 2.025 . S
O25 Sc24 2.025 . S
C26 O32 1.268 . S
C26 O42 1.268 . S
C27 O33 1.268 . S
C27 O41 1.268 . S
C28 O34 1.268 . S
C28 O43 1.268 . S
C29 O35 1.268 . S
C29 O39 1.268 . S
C30 O36 1.268 . S
C30 O38 1.268 . S
C31 O37 1.268 . S
C31 O40 1.268 . S
O32 Sc22 2.105 . S
O32 C26 1.268 . S
O33 Sc23 2.105 . S
O33 C27 1.268 . S
O34 Sc24 2.105 . S
O34 C28 1.268 . S
O35 Sc22 2.105 . S
O35 C29 1.268 . S
O36 Sc24 2.105 . S
O36 C30 1.268 . S
O37 Sc23 2.105 . S
O37 C31 1.268 . S
O38 Sc22 2.105 . S
O38 C30 1.268 . S
O39 Sc23 2.105 . S
O39 C29 1.268 . S
O40 Sc24 2.105 . S
O40 C31 1.268 . S
O41 Sc22 2.105 . S
O41 C27 1.268 . S
O42 Sc24 2.105 . S
O42 C26 1.268 . S
O43 Sc23 2.105 . S
O43 C28 1.268 . S
Sc44 O47 2.025 . S
Sc44 O54 2.105 . S
Sc44 O57 2.105 . S
Sc44 O60 2.105 . S
Sc44 O63 2.105 . S
Sc45 O47 2.025 . S
Sc45 O55 2.105 . S
Sc45 O59 2.105 . S
Sc45 O61 2.105 . S
Sc45 O65 2.105 . S
Sc46 O47 2.025 . S
Sc46 O56 2.105 . S
Sc46 O58 2.105 . S
Sc46 O62 2.105 . S
Sc46 O64 2.105 . S
O47 Sc44 2.025 . S
O47 Sc45 2.025 . S
O47 Sc46 2.025 . S
C48 O54 1.268 . S
C48 O64 1.268 . S
C49 O55 1.268 . S
C49 O63 1.268 . S
C50 O56 1.268 . S
C50 O65 1.268 . S
C51 O57 1.268 . S
C51 O61 1.268 . S
C52 O58 1.268 . S
C52 O60 1.268 . S
C53 O59 1.268 . S
C53 O62 1.268 . S
O54 Sc44 2.105 . S
O54 C48 1.268 . S
O55 Sc45 2.105 . S
O55 C49 1.268 . S
O56 Sc46 2.105 . S
O56 C50 1.268 . S
O57 Sc44 2.105 . S
O57 C51 1.268 . S
O58 Sc46 2.105 . S
O58 C52 1.268 . S
O59 Sc45 2.105 . S
O59 C53 1.268 . S
O60 Sc44 2.105 . S
O60 C52 1.268 . S
O61 Sc45 2.105 . S
O61 C51 1.268 . S
O62 Sc46 2.105 . S
O62 C53 1.268 . S
O63 Sc44 2.105 . S
O63 C49 1.268 . S
O64 Sc46 2.105 . S
O64 C48 1.268 . S
O65 Sc45 2.105 . S
O65 C50 1.268 . S
Sc66 O69 2.025 . S
Sc66 O76 2.105 . S
Sc66 O79 2.105 . S
Sc66 O82 2.105 . S
Sc66 O85 2.105 . S
Sc67 O69 2.025 . S
Sc67 O77 2.105 . S
Sc67 O81 2.105 . S
Sc67 O83 2.105 . S
Sc67 O87 2.105 . S
Sc68 O69 2.025 . S
Sc68 O78 2.105 . S
Sc68 O80 2.105 . S
Sc68 O84 2.105 . S
Sc68 O86 2.105 . S
O69 Sc66 2.025 . S
O69 Sc67 2.025 . S
O69 Sc68 2.025 . S
C70 O76 1.268 . S
C70 O86 1.268 . S
C71 O77 1.268 . S
C71 O85 1.268 . S
C72 O78 1.268 . S
C72 O87 1.268 . S
C73 O79 1.268 . S
C73 O83 1.268 . S
C74 O80 1.268 . S
C74 O82 1.268 . S
C75 O81 1.268 . S
C75 O84 1.268 . S
O76 Sc66 2.105 . S
O76 C70 1.268 . S
O77 Sc67 2.105 . S
O77 C71 1.268 . S
O78 Sc68 2.105 . S
O78 C72 1.268 . S
O79 Sc66 2.105 . S
O79 C73 1.268 . S
O80 Sc68 2.105 . S
O80 C74 1.268 . S
O81 Sc67 2.105 . S
O81 C75 1.268 . S
O82 Sc66 2.105 . S
O82 C74 1.268 . S
O83 Sc67 2.105 . S
O83 C73 1.268 . S
O84 Sc68 2.105 . S
O84 C75 1.268 . S
O85 Sc66 2.105 . S
O85 C71 1.268 . S
O86 Sc68 2.105 . S
O86 C70 1.268 . S
O87 Sc67 2.105 . S
O87 C72 1.268 . S
Sc88 O91 2.025 . S
Sc88 O98 2.105 . S
Sc88 O101 2.105 . S
Sc88 O104 2.105 . S
Sc88 O107 2.105 . S
Sc89 O91 2.025 . S
Sc89 O99 2.105 . S
Sc89 O103 2.105 . S
Sc89 O105 2.105 . S
Sc89 O109 2.105 . S
Sc90 O91 2.025 . S
Sc90 O100 2.105 . S
Sc90 O102 2.105 . S
Sc90 O106 2.105 . S
Sc90 O108 2.105 . S
O91 Sc88 2.025 . S
O91 Sc89 2.025 . S
O91 Sc90 2.025 . S
C92 O98 1.268 . S
C92 O108 1.268 . S
C93 O99 1.268 . S
C93 O107 1.268 . S
C94 O100 1.268 . S
C94 O109 1.268 . S
C95 O101 1.268 . S
C95 O105 1.268 . S
C96 O102 1.268 . S
C96 O104 1.268 . S
C97 O103 1.268 . S
C97 O106 1.268 . S
O98 Sc88 2.105 . S
O98 C92 1.268 . S
O99 Sc89 2.105 . S
O99 C93 1.268 . S
O100 Sc90 2.105 . S
O100 C94 1.268 . S
O101 Sc88 2.105 . S
O101 C95 1.268 . S
O102 Sc90 2.105 . S
O102 C96 1.268 . S
O103 Sc89 2.105 . S
O103 C97 1.268 . S
O104 Sc88 2.105 . S
O104 C96 1.268 . S
O105 Sc89 2.105 . S
O105 C95 1.268 . S
O106 Sc90 2.105 . S
O106 C97 1.268 . S
O107 Sc88 2.105 . S
O107 C93 1.268 . S
O108 Sc90 2.105 . S
O108 C92 1.268 . S
O109 Sc89 2.105 . S
O109 C94 1.268 . S
Sc110 O113 2.025 . S
Sc110 O120 2.105 . S
Sc110 O123 2.105 . S
Sc110 O126 2.105 . S
Sc110 O129 2.105 . S
Sc111 O113 2.025 . S
Sc111 O121 2.105 . S
Sc111 O125 2.105 . S
Sc111 O127 2.105 . S
Sc111 O131 2.105 . S
Sc112 O113 2.025 . S
Sc112 O122 2.105 . S
Sc112 O124 2.105 . S
Sc112 O128 2.105 . S
Sc112 O130 2.105 . S
O113 Sc110 2.025 . S
O113 Sc111 2.025 . S
O113 Sc112 2.025 . S
C114 O120 1.268 . S
C114 O130 1.268 . S
C115 O121 1.268 . S
C115 O129 1.268 . S
C116 O122 1.268 . S
C116 O131 1.268 . S
C117 O123 1.268 . S
C117 O127 1.268 . S
C118 O124 1.268 . S
C118 O126 1.268 . S
C119 O125 1.268 . S
C119 O128 1.268 . S
O120 Sc110 2.105 . S
O120 C114 1.268 . S
O121 Sc111 2.105 . S
O121 C115 1.268 . S
O122 Sc112 2.105 . S
O122 C116 1.268 . S
O123 Sc110 2.105 . S
O123 C117 1.268 . S
O124 Sc112 2.105 . S
O124 C118 1.268 . S
O125 Sc111 2.105 . S
O125 C119 1.268 . S
O126 Sc110 2.105 . S
O126 C118 1.268 . S
O127 Sc111 2.105 . S
O127 C117 1.268 . S
O128 Sc112 2.105 . S
O128 C119 1.268 . S
O129 Sc110 2.105 . S
O129 C115 1.268 . S
O130 Sc112 2.105 . S
O130 C114 1.268 . S
O131 Sc111 2.105 . S
O131 C116 1.268 . S
Sc132 O135 2.025 . S
Sc132 O142 2.105 . S
Sc132 O145 2.105 . S
Sc132 O148 2.105 . S
Sc132 O151 2.105 . S
Sc133 O135 2.025 . S
Sc133 O143 2.105 . S
Sc133 O147 2.105 . S
Sc133 O149 2.105 . S
Sc133 O153 2.105 . S
Sc134 O135 2.025 . S
Sc134 O144 2.105 . S
Sc134 O146 2.105 . S
Sc134 O150 2.105 . S
Sc134 O152 2.105 . S
O135 Sc132 2.025 . S
O135 Sc133 2.025 . S
O135 Sc134 2.025 . S
C136 O142 1.268 . S
C136 O152 1.268 . S
C137 O143 1.268 . S
C137 O151 1.268 . S
C138 O144 1.268 . S
C138 O153 1.268 . S
C139 O145 1.268 . S
C139 O149 1.268 . S
C140 O146 1.268 . S
C140 O148 1.268 . S
C141 O147 1.268 . S
C141 O150 1.268 . S
O142 Sc132 2.105 . S
O142 C136 1.268 . S
O143 Sc133 2.105 . S
O143 C137 1.268 . S
O144 Sc134 2.105 . S
O144 C138 1.268 . S
O145 Sc132 2.105 . S
O145 C139 1.268 . S
O146 Sc134 2.105 . S
O146 C140 1.268 . S
O147 Sc133 2.105 . S
O147 C141 1.268 . S
O148 Sc132 2.105 . S
O148 C140 1.268 . S
O149 Sc133 2.105 . S
O149 C139 1.268 . S
O150 Sc134 2.105 . S
O150 C141 1.268 . S
O151 Sc132 2.105 . S
O151 C137 1.268 . S
O152 Sc134 2.105 . S
O152 C136 1.268 . S
O153 Sc133 2.105 . S
O153 C138 1.268 . S
Sc154 O157 2.025 . S
Sc154 O164 2.105 . S
Sc154 O167 2.105 . S
Sc154 O170 2.105 . S
Sc154 O173 2.105 . S
Sc155 O157 2.025 . S
Sc155 O165 2.105 . S
Sc155 O169 2.105 . S
Sc155 O171 2.105 . S
Sc155 O175 2.105 . S
Sc156 O157 2.025 . S
Sc156 O166 2.105 . S
Sc156 O168 2.105 . S
Sc156 O172 2.105 . S
Sc156 O174 2.105 . S
O157 Sc154 2.025 . S
O157 Sc155 2.025 . S
O157 Sc156 2.025 . S
C158 O164 1.268 . S
C158 O174 1.268 . S
C159 O165 1.268 . S
C159 O173 1.268 . S
C160 O166 1.268 . S
C160 O175 1.268 . S
C161 O167 1.268 . S
C161 O171 1.268 . S
C162 O168 1.268 . S
C162 O170 1.268 . S
C163 O169 1.268 . S
C163 O172 1.268 . S
O164 Sc154 2.105 . S
O164 C158 1.268 . S
O165 Sc155 2.105 . S
O165 C159 1.268 . S
O166 Sc156 2.105 . S
O166 C160 1.268 . S
O167 Sc154 2.105 . S
O167 C161 1.268 . S
O168 Sc156 2.105 . S
O168 C162 1.268 . S
O169 Sc155 2.105 . S
O169 C163 1.268 . S
O170 Sc154 2.105 . S
O170 C162 1.268 . S
O171 Sc155 2.105 . S
O171 C161 1.268 . S
O172 Sc156 2.105 . S
O172 C163 1.268 . S
O173 Sc154 2.105 . S
O173 C159 1.268 . S
O174 Sc156 2.105 . S
O174 C158 1.268 . S
O175 Sc155 2.105 . S
O175 C160 1.268 . S
Sc176 O179 2.025 . S
Sc176 O186 2.105 . S
Sc176 O189 2.105 . S
Sc176 O192 2.105 . S
Sc176 O195 2.105 . S
Sc177 O179 2.025 . S
Sc177 O187 2.105 . S
Sc177 O191 2.105 . S
Sc177 O193 2.105 . S
Sc177 O197 2.105 . S
Sc178 O179 2.025 . S
Sc178 O188 2.105 . S
Sc178 O190 2.105 . S
Sc178 O194 2.105 . S
Sc178 O196 2.105 . S
O179 Sc176 2.025 . S
O179 Sc177 2.025 . S
O179 Sc178 2.025 . S
C180 O186 1.268 . S
C180 O196 1.268 . S
C181 O187 1.268 . S
C181 O195 1.268 . S
C182 O188 1.268 . S
C182 O197 1.268 . S
C183 O189 1.268 . S
C183 O193 1.268 . S
C184 O190 1.268 . S
C184 O192 1.268 . S
C185 O191 1.268 . S
C185 O194 1.268 . S
O186 Sc176 2.105 . S
O186 C180 1.268 . S
O187 Sc177 2.105 . S
O187 C181 1.268 . S
O188 Sc178 2.105 . S
O188 C182 1.268 . S
O189 Sc176 2.105 . S
O189 C183 1.268 . S
O190 Sc178 2.105 . S
O190 C184 1.268 . S
O191 Sc177 2.105 . S
O191 C185 1.268 . S
O192 Sc176 2.105 . S
O192 C184 1.268 . S
O193 Sc177 2.105 . S
O193 C183 1.268 . S
O194 Sc178 2.105 . S
O194 C185 1.268 . S
O195 Sc176 2.105 . S
O195 C181 1.268 . S
O196 Sc178 2.105 . S
O196 C180 1.268 . S
O197 Sc177 2.105 . S
O197 C182 1.268 . S
Sc198 O201 2.025 . S
Sc198 O208 2.105 . S
Sc198 O211 2.105 . S
Sc198 O214 2.105 . S
Sc198 O217 2.105 . S
Sc199 O201 2.025 . S
Sc199 O209 2.105 . S
Sc199 O213 2.105 . S
Sc199 O215 2.105 . S
Sc199 O219 2.105 . S
Sc200 O201 2.025 . S
Sc200 O210 2.105 . S
Sc200 O212 2.105 . S
Sc200 O216 2.105 . S
Sc200 O218 2.105 . S
O201 Sc198 2.025 . S
O201 Sc199 2.025 . S
O201 Sc200 2.025 . S
C202 O208 1.268 . S
C202 O218 1.268 . S
C203 O209 1.268 . S
C203 O217 1.268 . S
C204 O210 1.268 . S
C204 O219 1.268 . S
C205 O211 1.268 . S
C205 O215 1.268 . S
C206 O212 1.268 . S
C206 O214 1.268 . S
C207 O213 1.268 . S
C207 O216 1.268 . S
O208 Sc198 2.105 . S
O208 C202 1.268 . S
O209 Sc199 2.105 . S
O209 C203 1.268 . S
O210 Sc200 2.105 . S
O210 C204 1.268 . S
O211 Sc198 2.105 . S
O211 C205 1.268 . S
O212 Sc200 2.105 . S
O212 C206 1.268 . S
O213 Sc199 2.105 . S
O213 C207 1.268 . S
O214 Sc198 2.105 . S
O214 C206 1.268 . S
O215 Sc199 2.105 . S
O215 C205 1.268 . S
O216 Sc200 2.105 . S
O216 C207 1.268 . S
O217 Sc198 2.105 . S
O217 C203 1.268 . S
O218 Sc200 2.105 . S
O218 C202 1.268 . S
O219 Sc199 2.105 . S
O219 C204 1.268 . S
Sc220 O223 2.025 . S
Sc220 O230 2.105 . S
Sc220 O233 2.105 . S
Sc220 O236 2.105 . S
Sc220 O239 2.105 . S
Sc221 O223 2.025 . S
Sc221 O231 2.105 . S
Sc221 O235 2.105 . S
Sc221 O237 2.105 . S
Sc221 O241 2.105 . S
Sc222 O223 2.025 . S
Sc222 O232 2.105 . S
Sc222 O234 2.105 . S
Sc222 O238 2.105 . S
Sc222 O240 2.105 . S
O223 Sc220 2.025 . S
O223 Sc221 2.025 . S
O223 Sc222 2.025 . S
C224 O230 1.268 . S
C224 O240 1.268 . S
C225 O231 1.268 . S
C225 O239 1.268 . S
C226 O232 1.268 . S
C226 O241 1.268 . S
C227 O233 1.268 . S
C227 O237 1.268 . S
C228 O234 1.268 . S
C228 O236 1.268 . S
C229 O235 1.268 . S
C229 O238 1.268 . S
O230 Sc220 2.105 . S
O230 C224 1.268 . S
O231 Sc221 2.105 . S
O231 C225 1.268 . S
O232 Sc222 2.105 . S
O232 C226 1.268 . S
O233 Sc220 2.105 . S
O233 C227 1.268 . S
O234 Sc222 2.105 . S
O234 C228 1.268 . S
O235 Sc221 2.105 . S
O235 C229 1.268 . S
O236 Sc220 2.105 . S
O236 C228 1.268 . S
O237 Sc221 2.105 . S
O237 C227 1.268 . S
O238 Sc222 2.105 . S
O238 C229 1.268 . S
O239 Sc220 2.105 . S
O239 C225 1.268 . S
O240 Sc222 2.105 . S
O240 C224 1.268 . S
O241 Sc221 2.105 . S
O241 C226 1.268 . S
Sc242 O245 2.025 . S
Sc242 O252 2.105 . S
Sc242 O255 2.105 . S
Sc242 O258 2.105 . S
Sc242 O261 2.105 . S
Sc243 O245 2.025 . S
Sc243 O253 2.105 . S
Sc243 O257 2.105 . S
Sc243 O259 2.105 . S
Sc243 O263 2.105 . S
Sc244 O245 2.025 . S
Sc244 O254 2.105 . S
Sc244 O256 2.105 . S
Sc244 O260 2.105 . S
Sc244 O262 2.105 . S
O245 Sc242 2.025 . S
O245 Sc243 2.025 . S
O245 Sc244 2.025 . S
C246 O252 1.268 . S
C246 O262 1.268 . S
C247 O253 1.268 . S
C247 O261 1.268 . S
C248 O254 1.268 . S
C248 O263 1.268 . S
C249 O255 1.268 . S
C249 O259 1.268 . S
C250 O256 1.268 . S
C250 O258 1.268 . S
C251 O257 1.268 . S
C251 O260 1.268 . S
O252 Sc242 2.105 . S
O252 C246 1.268 . S
O253 Sc243 2.105 . S
O253 C247 1.268 . S
O254 Sc244 2.105 . S
O254 C248 1.268 . S
O255 Sc242 2.105 . S
O255 C249 1.268 . S
O256 Sc244 2.105 . S
O256 C250 1.268 . S
O257 Sc243 2.105 . S
O257 C251 1.268 . S
O258 Sc242 2.105 . S
O258 C250 1.268 . S
O259 Sc243 2.105 . S
O259 C249 1.268 . S
O260 Sc244 2.105 . S
O260 C251 1.268 . S
O261 Sc242 2.105 . S
O261 C247 1.268 . S
O262 Sc244 2.105 . S
O262 C246 1.268 . S
O263 Sc243 2.105 . S
O263 C248 1.268 . S
Sc264 O267 2.025 . S
Sc264 O274 2.105 . S
Sc264 O277 2.105 . S
Sc264 O280 2.105 . S
Sc264 O283 2.105 . S
Sc265 O267 2.025 . S
Sc265 O275 2.105 . S
Sc265 O279 2.105 . S
Sc265 O281 2.105 . S
Sc265 O285 2.105 . S
Sc266 O267 2.025 . S
Sc266 O276 2.105 . S
Sc266 O278 2.105 . S
Sc266 O282 2.105 . S
Sc266 O284 2.105 . S
O267 Sc264 2.025 . S
O267 Sc265 2.025 . S
O267 Sc266 2.025 . S
C268 O274 1.268 . S
C268 O284 1.268 . S
C269 O275 1.268 . S
C269 O283 1.268 . S
C270 O276 1.268 . S
C270 O285 1.268 . S
C271 O277 1.268 . S
C271 O281 1.268 . S
C272 O278 1.268 . S
C272 O280 1.268 . S
C273 O279 1.268 . S
C273 O282 1.268 . S
O274 Sc264 2.105 . S
O274 C268 1.268 . S
O275 Sc265 2.105 . S
O275 C269 1.268 . S
O276 Sc266 2.105 . S
O276 C270 1.268 . S
O277 Sc264 2.105 . S
O277 C271 1.268 . S
O278 Sc266 2.105 . S
O278 C272 1.268 . S
O279 Sc265 2.105 . S
O279 C273 1.268 . S
O280 Sc264 2.105 . S
O280 C272 1.268 . S
O281 Sc265 2.105 . S
O281 C271 1.268 . S
O282 Sc266 2.105 . S
O282 C273 1.268 . S
O283 Sc264 2.105 . S
O283 C269 1.268 . S
O284 Sc266 2.105 . S
O284 C268 1.268 . S
O285 Sc265 2.105 . S
O285 C270 1.268 . S
Sc286 O289 2.025 . S
Sc286 O296 2.105 . S
Sc286 O299 2.105 . S
Sc286 O302 2.105 . S
Sc286 O305 2.105 . S
Sc287 O289 2.025 . S
Sc287 O297 2.105 . S
Sc287 O301 2.105 . S
Sc287 O303 2.105 . S
Sc287 O307 2.105 . S
Sc288 O289 2.025 . S
Sc288 O298 2.105 . S
Sc288 O300 2.105 . S
Sc288 O304 2.105 . S
Sc288 O306 2.105 . S
O289 Sc286 2.025 . S
O289 Sc287 2.025 . S
O289 Sc288 2.025 . S
C290 O296 1.268 . S
C290 O306 1.268 . S
C291 O297 1.268 . S
C291 O305 1.268 . S
C292 O298 1.268 . S
C292 O307 1.268 . S
C293 O299 1.268 . S
C293 O303 1.268 . S
C294 O300 1.268 . S
C294 O302 1.268 . S
C295 O301 1.268 . S
C295 O304 1.268 . S
O296 Sc286 2.105 . S
O296 C290 1.268 . S
O297 Sc287 2.105 . S
O297 C291 1.268 . S
O298 Sc288 2.105 . S
O298 C292 1.268 . S
O299 Sc286 2.105 . S
O299 C293 1.268 . S
O300 Sc288 2.105 . S
O300 C294 1.268 . S
O301 Sc287 2.105 . S
O301 C295 1.268 . S
O302 Sc286 2.105 . S
O302 C294 1.268 . S
O303 Sc287 2.105 . S
O303 C293 1.268 . S
O304 Sc288 2.105 . S
O304 C295 1.268 . S
O305 Sc286 2.105 . S
O305 C291 1.268 . S
O306 Sc288 2.105 . S
O306 C290 1.268 . S
O307 Sc287 2.105 . S
O307 C292 1.268 . S
Sc308 O311 2.025 . S
Sc308 O318 2.105 . S
Sc308 O321 2.105 . S
Sc308 O324 2.105 . S
Sc308 O327 2.105 . S
Sc309 O311 2.025 . S
Sc309 O319 2.105 . S
Sc309 O323 2.105 . S
Sc309 O325 2.105 . S
Sc309 O329 2.105 . S
Sc310 O311 2.025 . S
Sc310 O320 2.105 . S
Sc310 O322 2.105 . S
Sc310 O326 2.105 . S
Sc310 O328 2.105 . S
O311 Sc308 2.025 . S
O311 Sc309 2.025 . S
O311 Sc310 2.025 . S
C312 O318 1.268 . S
C312 O328 1.268 . S
C313 O319 1.268 . S
C313 O327 1.268 . S
C314 O320 1.268 . S
C314 O329 1.268 . S
C315 O321 1.268 . S
C315 O325 1.268 . S
C316 O322 1.268 . S
C316 O324 1.268 . S
C317 O323 1.268 . S
C317 O326 1.268 . S
O318 Sc308 2.105 . S
O318 C312 1.268 . S
O319 Sc309 2.105 . S
O319 C313 1.268 . S
O320 Sc310 2.105 . S
O320 C314 1.268 . S
O321 Sc308 2.105 . S
O321 C315 1.268 . S
O322 Sc310 2.105 . S
O322 C316 1.268 . S
O323 Sc309 2.105 . S
O323 C317 1.268 . S
O324 Sc308 2.105 . S
O324 C316 1.268 . S
O325 Sc309 2.105 . S
O325 C315 1.268 . S
O326 Sc310 2.105 . S
O326 C317 1.268 . S
O327 Sc308 2.105 . S
O327 C313 1.268 . S
O328 Sc310 2.105 . S
O328 C312 1.268 . S
O329 Sc309 2.105 . S
O329 C314 1.268 . S
Sc330 O333 2.025 . S
Sc330 O340 2.105 . S
Sc330 O343 2.105 . S
Sc330 O346 2.105 . S
Sc330 O349 2.105 . S
Sc331 O333 2.025 . S
Sc331 O341 2.105 . S
Sc331 O345 2.105 . S
Sc331 O347 2.105 . S
Sc331 O351 2.105 . S
Sc332 O333 2.025 . S
Sc332 O342 2.105 . S
Sc332 O344 2.105 . S
Sc332 O348 2.105 . S
Sc332 O350 2.105 . S
O333 Sc330 2.025 . S
O333 Sc331 2.025 . S
O333 Sc332 2.025 . S
C334 O340 1.268 . S
C334 O350 1.268 . S
C335 O341 1.268 . S
C335 O349 1.268 . S
C336 O342 1.268 . S
C336 O351 1.268 . S
C337 O343 1.268 . S
C337 O347 1.268 . S
C338 O344 1.268 . S
C338 O346 1.268 . S
C339 O345 1.268 . S
C339 O348 1.268 . S
O340 Sc330 2.105 . S
O340 C334 1.268 . S
O341 Sc331 2.105 . S
O341 C335 1.268 . S
O342 Sc332 2.105 . S
O342 C336 1.268 . S
O343 Sc330 2.105 . S
O343 C337 1.268 . S
O344 Sc332 2.105 . S
O344 C338 1.268 . S
O345 Sc331 2.105 . S
O345 C339 1.268 . S
O346 Sc330 2.105 . S
O346 C338 1.268 . S
O347 Sc331 2.105 . S
O347 C337 1.268 . S
O348 Sc332 2.105 . S
O348 C339 1.268 . S
O349 Sc330 2.105 . S
O349 C335 1.268 . S
O350 Sc332 2.105 . S
O350 C334 1.268 . S
O351 Sc331 2.105 . S
O351 C336 1.268 . S
Sc352 O355 2.025 . S
Sc352 O362 2.105 . S
Sc352 O365 2.105 . S
Sc352 O368 2.105 . S
Sc352 O371 2.105 . S
Sc353 O355 2.025 . S
Sc353 O363 2.105 . S
Sc353 O367 2.105 . S
Sc353 O369 2.105 . S
Sc353 O373 2.105 . S
Sc354 O355 2.025 . S
Sc354 O364 2.105 . S
Sc354 O366 2.105 . S
Sc354 O370 2.105 . S
Sc354 O372 2.105 . S
O355 Sc352 2.025 . S
O355 Sc353 2.025 . S
O355 Sc354 2.025 . S
C356 O362 1.268 . S
C356 O372 1.268 . S
C357 O363 1.268 . S
C357 O371 1.268 . S
C358 O364 1.268 . S
C358 O373 1.268 . S
C359 O365 1.268 . S
C359 O369 1.268 . S
C360 O366 1.268 . S
C360 O368 1.268 . S
C361 O367 1.268 . S
C361 O370 1.268 . S
O362 Sc352 2.105 . S
O362 C356 1.268 . S
O363 Sc353 2.105 . S
O363 C357 1.268 . S
O364 Sc354 2.105 . S
O364 C358 1.268 . S
O365 Sc352 2.105 . S
O365 C359 1.268 . S
O366 Sc354 2.105 . S
O366 C360 1.268 . S
O367 Sc353 2.105 . S
O367 C361 1.268 . S
O368 Sc352 2.105 . S
O368 C360 1.268 . S
O369 Sc353 2.105 . S
O369 C359 1.268 . S
O370 Sc354 2.105 . S
O370 C361 1.268 . S
O371 Sc352 2.105 . S
O371 C357 1.268 . S
O372 Sc354 2.105 . S
O372 C356 1.268 . S
O373 Sc353 2.105 . S
O373 C358 1.268 . S
Sc374 O377 2.025 . S
Sc374 O384 2.105 . S
Sc374 O387 2.105 . S
Sc374 O390 2.105 . S
Sc374 O393 2.105 . S
Sc375 O377 2.025 . S
Sc375 O385 2.105 . S
Sc375 O389 2.105 . S
Sc375 O391 2.105 . S
Sc375 O395 2.105 . S
Sc376 O377 2.025 . S
Sc376 O386 2.105 . S
Sc376 O388 2.105 . S
Sc376 O392 2.105 . S
Sc376 O394 2.105 . S
O377 Sc374 2.025 . S
O377 Sc375 2.025 . S
O377 Sc376 2.025 . S
C378 O384 1.268 . S
C378 O394 1.268 . S
C379 O385 1.268 . S
C379 O393 1.268 . S
C380 O386 1.268 . S
C380 O395 1.268 . S
C381 O387 1.268 . S
C381 O391 1.268 . S
C382 O388 1.268 . S
C382 O390 1.268 . S
C383 O389 1.268 . S
C383 O392 1.268 . S
O384 Sc374 2.105 . S
O384 C378 1.268 . S
O385 Sc375 2.105 . S
O385 C379 1.268 . S
O386 Sc376 2.105 . S
O386 C380 1.268 . S
O387 Sc374 2.105 . S
O387 C381 1.268 . S
O388 Sc376 2.105 . S
O388 C382 1.268 . S
O389 Sc375 2.105 . S
O389 C383 1.268 . S
O390 Sc374 2.105 . S
O390 C382 1.268 . S
O391 Sc375 2.105 . S
O391 C381 1.268 . S
O392 Sc376 2.105 . S
O392 C383 1.268 . S
O393 Sc374 2.105 . S
O393 C379 1.268 . S
O394 Sc376 2.105 . S
O394 C378 1.268 . S
O395 Sc375 2.105 . S
O395 C380 1.268 . S
Sc396 O399 2.025 . S
Sc396 O406 2.105 . S
Sc396 O409 2.105 . S
Sc396 O412 2.105 . S
Sc396 O415 2.105 . S
Sc397 O399 2.025 . S
Sc397 O407 2.105 . S
Sc397 O411 2.105 . S
Sc397 O413 2.105 . S
Sc397 O417 2.105 . S
Sc398 O399 2.025 . S
Sc398 O408 2.105 . S
Sc398 O410 2.105 . S
Sc398 O414 2.105 . S
Sc398 O416 2.105 . S
O399 Sc396 2.025 . S
O399 Sc397 2.025 . S
O399 Sc398 2.025 . S
C400 O406 1.268 . S
C400 O416 1.268 . S
C401 O407 1.268 . S
C401 O415 1.268 . S
C402 O408 1.268 . S
C402 O417 1.268 . S
C403 O409 1.268 . S
C403 O413 1.268 . S
C404 O410 1.268 . S
C404 O412 1.268 . S
C405 O411 1.268 . S
C405 O414 1.268 . S
O406 Sc396 2.105 . S
O406 C400 1.268 . S
O407 Sc397 2.105 . S
O407 C401 1.268 . S
O408 Sc398 2.105 . S
O408 C402 1.268 . S
O409 Sc396 2.105 . S
O409 C403 1.268 . S
O410 Sc398 2.105 . S
O410 C404 1.268 . S
O411 Sc397 2.105 . S
O411 C405 1.268 . S
O412 Sc396 2.105 . S
O412 C404 1.268 . S
O413 Sc397 2.105 . S
O413 C403 1.268 . S
O414 Sc398 2.105 . S
O414 C405 1.268 . S
O415 Sc396 2.105 . S
O415 C401 1.268 . S
O416 Sc398 2.105 . S
O416 C400 1.268 . S
O417 Sc397 2.105 . S
O417 C402 1.268 . S
Sc418 O421 2.025 . S
Sc418 O428 2.105 . S
Sc418 O431 2.105 . S
Sc418 O434 2.105 . S
Sc418 O437 2.105 . S
Sc419 O421 2.025 . S
Sc419 O429 2.105 . S
Sc419 O433 2.105 . S
Sc419 O435 2.105 . S
Sc419 O439 2.105 . S
Sc420 O421 2.025 . S
Sc420 O430 2.105 . S
Sc420 O432 2.105 . S
Sc420 O436 2.105 . S
Sc420 O438 2.105 . S
O421 Sc418 2.025 . S
O421 Sc419 2.025 . S
O421 Sc420 2.025 . S
C422 O428 1.268 . S
C422 O438 1.268 . S
C423 O429 1.268 . S
C423 O437 1.268 . S
C424 O430 1.268 . S
C424 O439 1.268 . S
C425 O431 1.268 . S
C425 O435 1.268 . S
C426 O432 1.268 . S
C426 O434 1.268 . S
C427 O433 1.268 . S
C427 O436 1.268 . S
O428 Sc418 2.105 . S
O428 C422 1.268 . S
O429 Sc419 2.105 . S
O429 C423 1.268 . S
O430 Sc420 2.105 . S
O430 C424 1.268 . S
O431 Sc418 2.105 . S
O431 C425 1.268 . S
O432 Sc420 2.105 . S
O432 C426 1.268 . S
O433 Sc419 2.105 . S
O433 C427 1.268 . S
O434 Sc418 2.105 . S
O434 C426 1.268 . S
O435 Sc419 2.105 . S
O435 C425 1.268 . S
O436 Sc420 2.105 . S
O436 C427 1.268 . S
O437 Sc418 2.105 . S
O437 C423 1.268 . S
O438 Sc420 2.105 . S
O438 C422 1.268 . S
O439 Sc419 2.105 . S
O439 C424 1.268 . S
Sc440 O443 2.025 . S
Sc440 O450 2.105 . S
Sc440 O453 2.105 . S
Sc440 O456 2.105 . S
Sc440 O459 2.105 . S
Sc441 O443 2.025 . S
Sc441 O451 2.105 . S
Sc441 O455 2.105 . S
Sc441 O457 2.105 . S
Sc441 O461 2.105 . S
Sc442 O443 2.025 . S
Sc442 O452 2.105 . S
Sc442 O454 2.105 . S
Sc442 O458 2.105 . S
Sc442 O460 2.105 . S
O443 Sc440 2.025 . S
O443 Sc441 2.025 . S
O443 Sc442 2.025 . S
C444 O450 1.268 . S
C444 O460 1.268 . S
C445 O451 1.268 . S
C445 O459 1.268 . S
C446 O452 1.268 . S
C446 O461 1.268 . S
C447 O453 1.268 . S
C447 O457 1.268 . S
C448 O454 1.268 . S
C448 O456 1.268 . S
C449 O455 1.268 . S
C449 O458 1.268 . S
O450 Sc440 2.105 . S
O450 C444 1.268 . S
O451 Sc441 2.105 . S
O451 C445 1.268 . S
O452 Sc442 2.105 . S
O452 C446 1.268 . S
O453 Sc440 2.105 . S
O453 C447 1.268 . S
O454 Sc442 2.105 . S
O454 C448 1.268 . S
O455 Sc441 2.105 . S
O455 C449 1.268 . S
O456 Sc440 2.105 . S
O456 C448 1.268 . S
O457 Sc441 2.105 . S
O457 C447 1.268 . S
O458 Sc442 2.105 . S
O458 C449 1.268 . S
O459 Sc440 2.105 . S
O459 C445 1.268 . S
O460 Sc442 2.105 . S
O460 C444 1.268 . S
O461 Sc441 2.105 . S
O461 C446 1.268 . S
Sc462 O465 2.025 . S
Sc462 O472 2.105 . S
Sc462 O475 2.105 . S
Sc462 O478 2.105 . S
Sc462 O481 2.105 . S
Sc463 O465 2.025 . S
Sc463 O473 2.105 . S
Sc463 O477 2.105 . S
Sc463 O479 2.105 . S
Sc463 O483 2.105 . S
Sc464 O465 2.025 . S
Sc464 O474 2.105 . S
Sc464 O476 2.105 . S
Sc464 O480 2.105 . S
Sc464 O482 2.105 . S
O465 Sc462 2.025 . S
O465 Sc463 2.025 . S
O465 Sc464 2.025 . S
C466 O472 1.268 . S
C466 O482 1.268 . S
C467 O473 1.268 . S
C467 O481 1.268 . S
C468 O474 1.268 . S
C468 O483 1.268 . S
C469 O475 1.268 . S
C469 O479 1.268 . S
C470 O476 1.268 . S
C470 O478 1.268 . S
C471 O477 1.268 . S
C471 O480 1.268 . S
O472 Sc462 2.105 . S
O472 C466 1.268 . S
O473 Sc463 2.105 . S
O473 C467 1.268 . S
O474 Sc464 2.105 . S
O474 C468 1.268 . S
O475 Sc462 2.105 . S
O475 C469 1.268 . S
O476 Sc464 2.105 . S
O476 C470 1.268 . S
O477 Sc463 2.105 . S
O477 C471 1.268 . S
O478 Sc462 2.105 . S
O478 C470 1.268 . S
O479 Sc463 2.105 . S
O479 C469 1.268 . S
O480 Sc464 2.105 . S
O480 C471 1.268 . S
O481 Sc462 2.105 . S
O481 C467 1.268 . S
O482 Sc464 2.105 . S
O482 C466 1.268 . S
O483 Sc463 2.105 . S
O483 C468 1.268 . S
Sc484 O487 2.025 . S
Sc484 O494 2.105 . S
Sc484 O497 2.105 . S
Sc484 O500 2.105 . S
Sc484 O503 2.105 . S
Sc485 O487 2.025 . S
Sc485 O495 2.105 . S
Sc485 O499 2.105 . S
Sc485 O501 2.105 . S
Sc485 O505 2.105 . S
Sc486 O487 2.025 . S
Sc486 O496 2.105 . S
Sc486 O498 2.105 . S
Sc486 O502 2.105 . S
Sc486 O504 2.105 . S
O487 Sc484 2.025 . S
O487 Sc485 2.025 . S
O487 Sc486 2.025 . S
C488 O494 1.268 . S
C488 O504 1.268 . S
C489 O495 1.268 . S
C489 O503 1.268 . S
C490 O496 1.268 . S
C490 O505 1.268 . S
C491 O497 1.268 . S
C491 O501 1.268 . S
C492 O498 1.268 . S
C492 O500 1.268 . S
C493 O499 1.268 . S
C493 O502 1.268 . S
O494 Sc484 2.105 . S
O494 C488 1.268 . S
O495 Sc485 2.105 . S
O495 C489 1.268 . S
O496 Sc486 2.105 . S
O496 C490 1.268 . S
O497 Sc484 2.105 . S
O497 C491 1.268 . S
O498 Sc486 2.105 . S
O498 C492 1.268 . S
O499 Sc485 2.105 . S
O499 C493 1.268 . S
O500 Sc484 2.105 . S
O500 C492 1.268 . S
O501 Sc485 2.105 . S
O501 C491 1.268 . S
O502 Sc486 2.105 . S
O502 C493 1.268 . S
O503 Sc484 2.105 . S
O503 C489 1.268 . S
O504 Sc486 2.105 . S
O504 C488 1.268 . S
O505 Sc485 2.105 . S
O505 C490 1.268 . S
Sc506 O509 2.025 . S
Sc506 O516 2.105 . S
Sc506 O519 2.105 . S
Sc506 O522 2.105 . S
Sc506 O525 2.105 . S
Sc507 O509 2.025 . S
Sc507 O517 2.105 . S
Sc507 O521 2.105 . S
Sc507 O523 2.105 . S
Sc507 O527 2.105 . S
Sc508 O509 2.025 . S
Sc508 O518 2.105 . S
Sc508 O520 2.105 . S
Sc508 O524 2.105 . S
Sc508 O526 2.105 . S
O509 Sc506 2.025 . S
O509 Sc507 2.025 . S
O509 Sc508 2.025 . S
C510 O516 1.268 . S
C510 O526 1.268 . S
C511 O517 1.268 . S
C511 O525 1.268 . S
C512 O518 1.268 . S
C512 O527 1.268 . S
C513 O519 1.268 . S
C513 O523 1.268 . S
C514 O520 1.268 . S
C514 O522 1.268 . S
C515 O521 1.268 . S
C515 O524 1.268 . S
O516 Sc506 2.105 . S
O516 C510 1.268 . S
O517 Sc507 2.105 . S
O517 C511 1.268 . S
O518 Sc508 2.105 . S
O518 C512 1.268 . S
O519 Sc506 2.105 . S
O519 C513 1.268 . S
O520 Sc508 2.105 . S
O520 C514 1.268 . S
O521 Sc507 2.105 . S
O521 C515 1.268 . S
O522 Sc506 2.105 . S
O522 C514 1.268 . S
O523 Sc507 2.105 . S
O523 C513 1.268 . S
O524 Sc508 2.105 . S
O524 C515 1.268 . S
O525 Sc506 2.105 . S
O525 C511 1.268 . S
O526 Sc508 2.105 . S
O526 C510 1.268 . S
O527 Sc507 2.105 . S
O527 C512 1.268 . S
C528 C529 1.349 . S
C528 C530 1.327 . S
C528 H553 0.950 . S
C529 C528 1.349 . S
C529 C545 1.349 . S
C530 C528 1.327 . S
C530 C549 1.429 . S
C530 H554 0.950 . S
C531 C548 1.574 . S
C531 C550 1.368 . S
C531 H555 0.949 . S
H532 C536 0.949 . S
C533 C534 1.349 . S
C533 C535 1.327 . S
C533 H556 0.950 . S
C534 C533 1.349 . S
C534 C546 1.349 . S
C535 C533 1.327 . S
C535 C551 1.429 . S
C535 H557 0.950 . S
C536 H532 0.949 . S
C536 C544 1.574 . S
C536 C552 1.368 . S
H537 C545 0.950 . S
H538 C543 0.950 . S
H539 C544 0.949 . S
H540 C546 0.950 . S
H541 C547 0.950 . S
H542 C548 0.949 . S
C543 H538 0.950 . S
C543 C545 1.327 . S
C543 C549 1.429 . S
C544 C536 1.574 . S
C544 H539 0.949 . S
C544 C550 1.368 . S
C545 C529 1.349 . S
C545 H537 0.950 . S
C545 C543 1.327 . S
C546 C534 1.349 . S
C546 H540 0.950 . S
C546 C547 1.327 . S
C547 H541 0.950 . S
C547 C546 1.327 . S
C547 C551 1.429 . S
C548 C531 1.574 . S
C548 H542 0.949 . S
C548 C552 1.368 . S
C549 C530 1.429 . S
C549 C543 1.429 . S
C549 C550 1.523 . S
C550 C531 1.368 . S
C550 C544 1.368 . S
C550 C549 1.523 . S
C551 C535 1.429 . S
C551 C547 1.429 . S
C551 C552 1.523 . S
C552 C536 1.368 . S
C552 C548 1.368 . S
C552 C551 1.523 . S
H553 C528 0.950 . S
H554 C530 0.950 . S
H555 C531 0.949 . S
H556 C533 0.950 . S
H557 C535 0.950 . S
C558 C559 1.349 . S
C558 C560 1.327 . S
C558 H583 0.950 . S
C559 C558 1.349 . S
C559 C575 1.349 . S
C560 C558 1.327 . S
C560 C579 1.429 . S
C560 H584 0.950 . S
C561 C578 1.574 . S
C561 C580 1.368 . S
C561 H585 0.949 . S
H562 C566 0.949 . S
C563 C564 1.349 . S
C563 C565 1.327 . S
C563 H586 0.950 . S
C564 C563 1.349 . S
C564 C576 1.349 . S
C565 C563 1.327 . S
C565 C581 1.429 . S
C565 H587 0.950 . S
C566 H562 0.949 . S
C566 C574 1.574 . S
C566 C582 1.368 . S
H567 C575 0.950 . S
H568 C573 0.950 . S
H569 C574 0.949 . S
H570 C576 0.950 . S
H571 C577 0.950 . S
H572 C578 0.949 . S
C573 H568 0.950 . S
C573 C575 1.327 . S
C573 C579 1.429 . S
C574 C566 1.574 . S
C574 H569 0.949 . S
C574 C580 1.368 . S
C575 C559 1.349 . S
C575 H567 0.950 . S
C575 C573 1.327 . S
C576 C564 1.349 . S
C576 H570 0.950 . S
C576 C577 1.327 . S
C577 H571 0.950 . S
C577 C576 1.327 . S
C577 C581 1.429 . S
C578 C561 1.574 . S
C578 H572 0.949 . S
C578 C582 1.368 . S
C579 C560 1.429 . S
C579 C573 1.429 . S
C579 C580 1.523 . S
C580 C561 1.368 . S
C580 C574 1.368 . S
C580 C579 1.523 . S
C581 C565 1.429 . S
C581 C577 1.429 . S
C581 C582 1.523 . S
C582 C566 1.368 . S
C582 C578 1.368 . S
C582 C581 1.523 . S
H583 C558 0.950 . S
H584 C560 0.950 . S
H585 C561 0.949 . S
H586 C563 0.950 . S
H587 C565 0.950 . S
C588 C589 1.349 . S
C588 C590 1.327 . S
C588 H613 0.950 . S
C589 C588 1.349 . S
C589 C605 1.349 . S
C590 C588 1.327 . S
C590 C609 1.429 . S
C590 H614 0.950 . S
C591 C608 1.574 . S
C591 C610 1.368 . S
C591 H615 0.949 . S
H592 C596 0.949 . S
C593 C594 1.349 . S
C593 C595 1.301 1_545 S
C593 H616 0.950 . S
C594 C593 1.349 . S
C594 C606 1.349 . S
C595 C593 1.301 1_565 S
C595 C611 1.435 . S
C595 H617 0.971 . S
C596 H592 0.949 . S
C596 C604 1.574 . S
C596 C612 1.368 . S
H597 C605 0.950 . S
H598 C603 0.950 . S
H599 C604 0.949 . S
H600 C606 0.950 . S
H601 C607 0.950 . S
H602 C608 0.949 . S
C603 H598 0.950 . S
C603 C605 1.327 . S
C603 C609 1.429 . S
C604 C596 1.574 . S
C604 H599 0.949 . S
C604 C610 1.368 . S
C605 C589 1.349 . S
C605 H597 0.950 . S
C605 C603 1.327 . S
C606 C594 1.349 . S
C606 H600 0.950 . S
C606 C607 1.327 . S
C607 H601 0.950 . S
C607 C606 1.327 . S
C607 C611 1.429 1_545 S
C608 C591 1.574 . S
C608 H602 0.949 . S
C608 C612 1.368 . S
C609 C590 1.429 . S
C609 C603 1.429 . S
C609 C610 1.523 . S
C610 C591 1.368 . S
C610 C604 1.368 . S
C610 C609 1.523 . S
C611 C595 1.435 . S
C611 C607 1.429 1_565 S
C611 C612 1.523 . S
C612 C596 1.368 . S
C612 C608 1.368 . S
C612 C611 1.523 . S
H613 C588 0.950 . S
H614 C590 0.950 . S
H615 C591 0.949 . S
H616 C593 0.950 . S
H617 C595 0.971 . S
C618 C619 1.349 . S
C618 C620 1.327 . S
C618 H643 0.950 . S
C619 C618 1.349 . S
C619 C635 1.349 . S
C620 C618 1.327 . S
C620 C639 1.429 1_565 S
C620 H644 0.950 . S
C621 C638 1.574 . S
C621 C640 1.368 . S
C621 H645 0.949 . S
H622 C626 0.949 . S
C623 C624 1.349 . S
C623 C625 1.327 . S
C623 H646 0.950 . S
C624 C623 1.349 . S
C624 C636 1.349 . S
C625 C623 1.327 . S
C625 C641 1.429 . S
C625 H647 0.950 . S
C626 H622 0.949 . S
C626 C634 1.574 . S
C626 C642 1.368 . S
H627 C635 0.950 . S
H628 C633 0.950 . S
H629 C634 0.945 . S
H630 C636 0.950 . S
H631 C637 0.950 . S
H632 C638 0.949 . S
C633 H628 0.950 . S
C633 C635 1.327 1_545 S
C633 C639 1.429 . S
C634 C626 1.574 . S
C634 H629 0.945 . S
C634 C640 1.368 . S
C635 C619 1.349 . S
C635 H627 0.950 . S
C635 C633 1.327 1_565 S
C636 C624 1.349 . S
C636 H630 0.950 . S
C636 C637 1.327 . S
C637 H631 0.950 . S
C637 C636 1.327 . S
C637 C641 1.429 . S
C638 C621 1.574 . S
C638 H632 0.949 . S
C638 C642 1.368 . S
C639 C620 1.429 1_545 S
C639 C633 1.429 . S
C639 C640 1.523 . S
C640 C621 1.368 . S
C640 C634 1.368 . S
C640 C639 1.523 . S
C641 C625 1.429 . S
C641 C637 1.429 . S
C641 C642 1.523 . S
C642 C626 1.368 . S
C642 C638 1.368 . S
C642 C641 1.523 . S
H643 C618 0.950 . S
H644 C620 0.950 . S
H645 C621 0.949 . S
H646 C623 0.950 . S
H647 C625 0.950 . S
C648 C649 1.349 . S
C648 C650 1.327 . S
C648 H673 0.950 . S
C649 C648 1.349 . S
C649 C665 1.349 . S
C650 C648 1.327 . S
C650 C669 1.429 . S
C650 H674 0.950 . S
C651 C668 1.574 . S
C651 C670 1.368 . S
C651 H675 0.949 . S
H652 C656 0.949 . S
C653 C654 1.349 . S
C653 C655 1.327 . S
C653 H676 0.950 . S
C654 C653 1.349 . S
C654 C666 1.349 . S
C655 C653 1.327 . S
C655 C671 1.429 . S
C655 H677 0.950 . S
C656 H652 0.949 . S
C656 C664 1.574 . S
C656 C672 1.368 . S
H657 C665 0.950 . S
H658 C663 0.950 . S
H659 C664 0.949 . S
H660 C666 0.950 . S
H661 C667 0.950 . S
H662 C668 0.949 . S
C663 H658 0.950 . S
C663 C665 1.327 . S
C663 C669 1.429 . S
C664 C656 1.574 . S
C664 H659 0.949 . S
C664 C670 1.368 . S
C665 C649 1.349 . S
C665 H657 0.950 . S
C665 C663 1.327 . S
C666 C654 1.349 . S
C666 H660 0.950 . S
C666 C667 1.327 . S
C667 H661 0.950 . S
C667 C666 1.327 . S
C667 C671 1.429 . S
C668 C651 1.574 . S
C668 H662 0.949 . S
C668 C672 1.368 . S
C669 C650 1.429 . S
C669 C663 1.429 . S
C669 C670 1.523 . S
C670 C651 1.368 . S
C670 C664 1.368 . S
C670 C669 1.523 . S
C671 C655 1.429 . S
C671 C667 1.429 . S
C671 C672 1.523 . S
C672 C656 1.368 . S
C672 C668 1.368 . S
C672 C671 1.523 . S
H673 C648 0.950 . S
H674 C650 0.950 . S
H675 C651 0.949 . S
H676 C653 0.950 . S
H677 C655 0.950 . S
C678 C679 1.349 . S
C678 C680 1.327 . S
C678 H703 0.950 . S
C679 C678 1.349 . S
C679 C695 1.349 . S
C680 C678 1.327 . S
C680 C699 1.429 . S
C680 H704 0.950 . S
C681 C698 1.574 . S
C681 C700 1.368 . S
C681 H705 0.949 . S
H682 C686 0.949 . S
C683 C684 1.349 . S
C683 C685 1.327 . S
C683 H706 0.950 . S
C684 C683 1.349 . S
C684 C696 1.349 . S
C685 C683 1.327 . S
C685 C701 1.429 1_556 S
C685 H707 0.950 . S
C686 H682 0.949 . S
C686 C694 1.574 . S
C686 C702 1.368 . S
H687 C695 0.950 . S
H688 C693 0.950 . S
H689 C694 0.949 . S
H690 C696 0.950 . S
H691 C697 0.950 . S
H692 C698 0.965 . S
C693 H688 0.950 . S
C693 C695 1.327 . S
C693 C699 1.429 . S
C694 C686 1.574 . S
C694 H689 0.949 . S
C694 C700 1.368 . S
C695 C679 1.349 . S
C695 H687 0.950 . S
C695 C693 1.327 . S
C696 C684 1.349 . S
C696 H690 0.950 . S
C696 C697 1.327 1_556 S
C697 H691 0.950 . S
C697 C696 1.327 1_554 S
C697 C701 1.429 . S
C698 C681 1.574 . S
C698 H692 0.965 . S
C698 C702 1.368 . S
C699 C680 1.429 . S
C699 C693 1.429 . S
C699 C700 1.523 . S
C700 C681 1.368 . S
C700 C694 1.368 . S
C700 C699 1.523 . S
C701 C685 1.429 1_554 S
C701 C697 1.429 . S
C701 C702 1.523 . S
C702 C686 1.368 . S
C702 C698 1.368 . S
C702 C701 1.523 . S
H703 C678 0.950 . S
H704 C680 0.950 . S
H705 C681 0.949 . S
H706 C683 0.950 . S
H707 C685 0.950 . S
C708 C709 1.349 . S
C708 C710 1.327 . S
C708 H733 0.950 . S
C709 C708 1.349 . S
C709 C725 1.349 . S
C710 C708 1.327 . S
C710 C729 1.429 . S
C710 H734 0.950 . S
C711 C728 1.574 . S
C711 C730 1.368 . S
C711 H735 0.949 . S
H712 C716 0.949 . S
C713 C714 1.349 . S
C713 C715 1.327 . S
C713 H736 0.950 . S
C714 C713 1.349 . S
C714 C726 1.349 . S
C715 C713 1.327 . S
C715 C731 1.429 . S
C715 H737 0.950 . S
C716 H712 0.949 . S
C716 C724 1.574 . S
C716 C732 1.368 . S
H717 C725 0.950 . S
H718 C723 0.950 . S
H719 C724 0.949 . S
H720 C726 0.950 . S
H721 C727 0.950 . S
H722 C728 0.949 . S
C723 H718 0.950 . S
C723 C725 1.327 . S
C723 C729 1.429 . S
C724 C716 1.574 . S
C724 H719 0.949 . S
C724 C730 1.368 . S
C725 C709 1.349 . S
C725 H717 0.950 . S
C725 C723 1.327 . S
C726 C714 1.349 . S
C726 H720 0.950 . S
C726 C727 1.327 . S
C727 H721 0.950 . S
C727 C726 1.327 . S
C727 C731 1.429 . S
C728 C711 1.574 . S
C728 H722 0.949 . S
C728 C732 1.368 . S
C729 C710 1.429 . S
C729 C723 1.429 . S
C729 C730 1.523 . S
C730 C711 1.368 . S
C730 C724 1.368 . S
C730 C729 1.523 . S
C731 C715 1.429 . S
C731 C727 1.429 . S
C731 C732 1.523 . S
C732 C716 1.368 . S
C732 C728 1.368 . S
C732 C731 1.523 . S
H733 C708 0.950 . S
H734 C710 0.950 . S
H735 C711 0.949 . S
H736 C713 0.950 . S
H737 C715 0.950 . S
C738 C739 1.349 . S
C738 C740 1.327 . S
C738 H763 0.950 . S
C739 C738 1.349 . S
C739 C755 1.349 . S
C740 C738 1.327 . S
C740 C759 1.429 . S
C740 H764 0.950 . S
C741 C758 1.574 . S
C741 C760 1.368 . S
C741 H765 0.949 . S
H742 C746 0.949 . S
C743 C744 1.349 . S
C743 C745 1.327 . S
C743 H766 0.950 . S
C744 C743 1.349 . S
C744 C756 1.349 . S
C745 C743 1.327 . S
C745 C761 1.429 1_554 S
C745 H767 0.950 . S
C746 H742 0.949 . S
C746 C754 1.574 . S
C746 C762 1.368 . S
H747 C755 0.950 . S
H748 C753 0.950 . S
H749 C754 0.949 . S
H750 C756 0.950 . S
H751 C757 0.950 . S
H752 C758 0.949 . S
C753 H748 0.950 . S
C753 C755 1.327 . S
C753 C759 1.429 . S
C754 C746 1.574 . S
C754 H749 0.949 . S
C754 C760 1.368 . S
C755 C739 1.349 . S
C755 H747 0.950 . S
C755 C753 1.327 . S
C756 C744 1.349 . S
C756 H750 0.950 . S
C756 C757 1.327 1_554 S
C757 H751 0.950 . S
C757 C756 1.327 1_556 S
C757 C761 1.429 . S
C758 C741 1.574 . S
C758 H752 0.949 . S
C758 C762 1.368 . S
C759 C740 1.429 . S
C759 C753 1.429 . S
C759 C760 1.523 . S
C760 C741 1.368 . S
C760 C754 1.368 . S
C760 C759 1.523 . S
C761 C745 1.429 1_556 S
C761 C757 1.429 . S
C761 C762 1.523 . S
C762 C746 1.368 . S
C762 C758 1.368 . S
C762 C761 1.523 . S
H763 C738 0.950 . S
H764 C740 0.950 . S
H765 C741 0.949 . S
H766 C743 0.950 . S
H767 C745 0.950 . S
C768 C769 1.349 . S
C768 C770 1.327 . S
C768 H793 0.950 . S
C769 C768 1.349 . S
C769 C785 1.349 . S
C770 C768 1.327 . S
C770 C789 1.429 . S
C770 H794 0.950 . S
C771 C788 1.574 . S
C771 C790 1.368 . S
C771 H795 0.949 . S
H772 C776 0.949 . S
C773 C774 1.349 . S
C773 C775 1.327 . S
C773 H796 0.950 . S
C774 C773 1.349 . S
C774 C786 1.349 . S
C775 C773 1.327 . S
C775 C791 1.429 . S
C775 H797 0.950 . S
C776 H772 0.949 . S
C776 C784 1.574 . S
C776 C792 1.368 . S
H777 C785 0.950 . S
H778 C783 0.950 . S
H779 C784 0.949 . S
H780 C786 0.950 . S
H781 C787 0.950 . S
H782 C788 0.949 . S
C783 H778 0.950 . S
C783 C785 1.327 . S
C783 C789 1.429 . S
C784 C776 1.574 . S
C784 H779 0.949 . S
C784 C790 1.368 . S
C785 C769 1.349 . S
C785 H777 0.950 . S
C785 C783 1.327 . S
C786 C774 1.349 . S
C786 H780 0.950 . S
C786 C787 1.327 . S
C787 H781 0.950 . S
C787 C786 1.327 . S
C787 C791 1.429 . S
C788 C771 1.574 . S
C788 H782 0.949 . S
C788 C792 1.368 . S
C789 C770 1.429 . S
C789 C783 1.429 . S
C789 C790 1.523 . S
C790 C771 1.368 . S
C790 C784 1.368 . S
C790 C789 1.523 . S
C791 C775 1.429 . S
C791 C787 1.429 . S
C791 C792 1.523 . S
C792 C776 1.368 . S
C792 C788 1.368 . S
C792 C791 1.523 . S
H793 C768 0.950 . S
H794 C770 0.950 . S
H795 C771 0.949 . S
H796 C773 0.950 . S
H797 C775 0.950 . S
C798 C799 1.349 . S
C798 C800 1.308 1_655 S
C798 H823 0.950 . S
C799 C798 1.349 . S
C799 C815 1.349 . S
C800 C798 1.308 1_455 S
C800 C819 1.434 . S
C800 H824 0.965 . S
C801 C818 1.574 . S
C801 C820 1.368 . S
C801 H825 0.949 . S
H802 C806 0.949 . S
C803 C804 1.349 . S
C803 C805 1.327 . S
C803 H826 0.950 . S
C804 C803 1.349 . S
C804 C816 1.349 . S
C805 C803 1.327 . S
C805 C821 1.429 . S
C805 H827 0.950 . S
C806 H802 0.949 . S
C806 C814 1.574 . S
C806 C822 1.368 . S
H807 C815 0.950 . S
H808 C813 0.950 . S
H809 C814 0.949 . S
H810 C816 0.950 . S
H811 C817 0.950 . S
H812 C818 0.949 . S
C813 H808 0.950 . S
C813 C815 1.327 . S
C813 C819 1.429 1_655 S
C814 C806 1.574 . S
C814 H809 0.949 . S
C814 C820 1.368 . S
C815 C799 1.349 . S
C815 H807 0.950 . S
C815 C813 1.327 . S
C816 C804 1.349 . S
C816 H810 0.950 . S
C816 C817 1.327 . S
C817 H811 0.950 . S
C817 C816 1.327 . S
C817 C821 1.429 . S
C818 C801 1.574 . S
C818 H812 0.949 . S
C818 C822 1.368 . S
C819 C800 1.434 . S
C819 C813 1.429 1_455 S
C819 C820 1.523 . S
C820 C801 1.368 . S
C820 C814 1.368 . S
C820 C819 1.523 . S
C821 C805 1.429 . S
C821 C817 1.429 . S
C821 C822 1.523 . S
C822 C806 1.368 . S
C822 C818 1.368 . S
C822 C821 1.523 . S
H823 C798 0.950 . S
H824 C800 0.965 . S
H825 C801 0.949 . S
H826 C803 0.950 . S
H827 C805 0.950 . S
C828 C829 1.349 . S
C828 C830 1.327 . S
C828 H853 0.950 . S
C829 C828 1.349 . S
C829 C845 1.349 . S
C830 C828 1.327 . S
C830 C849 1.429 . S
C830 H854 0.950 . S
C831 C848 1.574 . S
C831 C850 1.368 . S
C831 H855 0.949 . S
H832 C836 0.949 . S
C833 C834 1.349 . S
C833 C835 1.327 . S
C833 H856 0.950 . S
C834 C833 1.349 . S
C834 C846 1.349 . S
C835 C833 1.327 . S
C835 C851 1.429 . S
C835 H857 0.950 . S
C836 H832 0.949 . S
C836 C844 1.574 . S
C836 C852 1.368 . S
H837 C845 0.950 . S
H838 C843 0.950 . S
H839 C844 0.949 . S
H840 C846 0.950 . S
H841 C847 0.950 . S
H842 C848 0.949 . S
C843 H838 0.950 . S
C843 C845 1.327 . S
C843 C849 1.429 . S
C844 C836 1.574 . S
C844 H839 0.949 . S
C844 C850 1.368 . S
C845 C829 1.349 . S
C845 H837 0.950 . S
C845 C843 1.327 . S
C846 C834 1.349 . S
C846 H840 0.950 . S
C846 C847 1.327 . S
C847 H841 0.950 . S
C847 C846 1.327 . S
C847 C851 1.429 . S
C848 C831 1.574 . S
C848 H842 0.949 . S
C848 C852 1.368 . S
C849 C830 1.429 . S
C849 C843 1.429 . S
C849 C850 1.523 . S
C850 C831 1.368 . S
C850 C844 1.368 . S
C850 C849 1.523 . S
C851 C835 1.429 . S
C851 C847 1.429 . S
C851 C852 1.523 . S
C852 C836 1.368 . S
C852 C848 1.368 . S
C852 C851 1.523 . S
H853 C828 0.950 . S
H854 C830 0.950 . S
H855 C831 0.949 . S
H856 C833 0.950 . S
H857 C835 0.950 . S
C858 C859 1.349 . S
C858 C860 1.327 . S
C858 H883 0.950 . S
C859 C858 1.349 . S
C859 C875 1.349 . S
C860 C858 1.327 . S
C860 C879 1.429 . S
C860 H884 0.950 . S
C861 C878 1.574 . S
C861 C880 1.368 . S
C861 H885 0.949 . S
H862 C866 0.949 . S
C863 C864 1.349 . S
C863 C865 1.327 1_455 S
C863 H886 0.950 . S
C864 C863 1.349 . S
C864 C876 1.349 . S
C865 C863 1.327 1_655 S
C865 C881 1.429 . S
C865 H887 0.950 . S
C866 H862 0.949 . S
C866 C874 1.574 . S
C866 C882 1.368 . S
H867 C875 0.950 . S
H868 C873 0.950 . S
H869 C874 0.949 . S
H870 C876 0.950 . S
H871 C877 0.950 . S
H872 C878 0.949 . S
C873 H868 0.950 . S
C873 C875 1.327 . S
C873 C879 1.429 . S
C874 C866 1.574 . S
C874 H869 0.949 . S
C874 C880 1.368 . S
C875 C859 1.349 . S
C875 H867 0.950 . S
C875 C873 1.327 . S
C876 C864 1.349 . S
C876 H870 0.950 . S
C876 C877 1.327 . S
C877 H871 0.950 . S
C877 C876 1.327 . S
C877 C881 1.429 1_455 S
C878 C861 1.574 . S
C878 H872 0.949 . S
C878 C882 1.368 . S
C879 C860 1.429 . S
C879 C873 1.429 . S
C879 C880 1.523 . S
C880 C861 1.368 . S
C880 C874 1.368 . S
C880 C879 1.523 . S
C881 C865 1.429 . S
C881 C877 1.429 1_655 S
C881 C882 1.523 . S
C882 C866 1.368 . S
C882 C878 1.368 . S
C882 C881 1.523 . S
H883 C858 0.950 . S
H884 C860 0.950 . S
H885 C861 0.949 . S
H886 C863 0.950 . S
H887 C865 0.950 . S
C888 C889 1.349 . S
C888 C890 1.327 . S
C888 H913 0.950 . S
C889 C888 1.349 . S
C889 C905 1.349 . S
C890 C888 1.327 . S
C890 C909 1.429 . S
C890 H914 0.950 . S
C891 C908 1.574 . S
C891 C910 1.368 . S
C891 H915 0.949 . S
H892 C896 0.949 . S
C893 C894 1.349 . S
C893 C895 1.327 . S
C893 H916 0.950 . S
C894 C893 1.349 . S
C894 C906 1.349 . S
C895 C893 1.327 . S
C895 C911 1.429 . S
C895 H917 0.950 . S
C896 H892 0.949 . S
C896 C904 1.574 . S
C896 C912 1.368 . S
H897 C905 0.950 . S
H898 C903 0.950 . S
H899 C904 0.949 . S
H900 C906 0.950 . S
H901 C907 0.950 . S
H902 C908 0.949 . S
C903 H898 0.950 . S
C903 C905 1.327 . S
C903 C909 1.429 . S
C904 C896 1.574 . S
C904 H899 0.949 . S
C904 C910 1.368 . S
C905 C889 1.349 . S
C905 H897 0.950 . S
C905 C903 1.327 . S
C906 C894 1.349 . S
C906 H900 0.950 . S
C906 C907 1.327 . S
C907 H901 0.950 . S
C907 C906 1.327 . S
C907 C911 1.429 . S
C908 C891 1.574 . S
C908 H902 0.949 . S
C908 C912 1.368 . S
C909 C890 1.429 . S
C909 C903 1.429 . S
C909 C910 1.523 . S
C910 C891 1.368 . S
C910 C904 1.368 . S
C910 C909 1.523 . S
C911 C895 1.429 . S
C911 C907 1.429 . S
C911 C912 1.523 . S
C912 C896 1.368 . S
C912 C908 1.368 . S
C912 C911 1.523 . S
H913 C888 0.950 . S
H914 C890 0.950 . S
H915 C891 0.949 . S
H916 C893 0.950 . S
H917 C895 0.950 . S
C918 C919 1.349 . S
C918 C920 1.327 . S
C918 H943 0.950 . S
C919 C918 1.349 . S
C919 C935 1.349 . S
C920 C918 1.327 . S
C920 C939 1.429 . S
C920 H944 0.950 . S
C921 C938 1.574 . S
C921 C940 1.368 . S
C921 H945 0.949 . S
H922 C926 0.949 . S
C923 C924 1.349 . S
C923 C925 1.327 . S
C923 H946 0.950 . S
C924 C923 1.349 . S
C924 C936 1.349 . S
C925 C923 1.327 . S
C925 C941 1.429 . S
C925 H947 0.950 . S
C926 H922 0.949 . S
C926 C934 1.574 . S
C926 C942 1.368 . S
H927 C935 0.950 . S
H928 C933 0.950 . S
H929 C934 0.949 . S
H930 C936 0.950 . S
H931 C937 0.950 . S
H932 C938 0.949 . S
C933 H928 0.950 . S
C933 C935 1.327 . S
C933 C939 1.429 . S
C934 C926 1.574 . S
C934 H929 0.949 . S
C934 C940 1.368 . S
C935 C919 1.349 . S
C935 H927 0.950 . S
C935 C933 1.327 . S
C936 C924 1.349 . S
C936 H930 0.950 . S
C936 C937 1.327 . S
C937 H931 0.950 . S
C937 C936 1.327 . S
C937 C941 1.429 . S
C938 C921 1.574 . S
C938 H932 0.949 . S
C938 C942 1.368 . S
C939 C920 1.429 . S
C939 C933 1.429 . S
C939 C940 1.523 . S
C940 C921 1.368 . S
C940 C934 1.368 . S
C940 C939 1.523 . S
C941 C925 1.429 . S
C941 C937 1.429 . S
C941 C942 1.523 . S
C942 C926 1.368 . S
C942 C938 1.368 . S
C942 C941 1.523 . S
H943 C918 0.950 . S
H944 C920 0.950 . S
H945 C921 0.949 . S
H946 C923 0.950 . S
H947 C925 0.950 . S
C948 C949 1.349 . S
C948 C950 1.327 . S
C948 H973 0.950 . S
C949 C948 1.349 . S
C949 C965 1.349 . S
C950 C948 1.327 . S
C950 C969 1.429 . S
C950 H974 0.950 . S
C951 C968 1.574 . S
C951 C970 1.368 . S
C951 H975 0.949 . S
H952 C956 0.949 . S
C953 C954 1.349 . S
C953 C955 1.327 1_565 S
C953 H976 0.950 . S
C954 C953 1.349 . S
C954 C966 1.349 . S
C955 C953 1.327 1_545 S
C955 C971 1.429 . S
C955 H977 0.950 . S
C956 H952 0.949 . S
C956 C964 1.574 . S
C956 C972 1.368 . S
H957 C965 0.950 . S
H958 C963 0.950 . S
H959 C964 0.949 . S
H960 C966 0.950 . S
H961 C967 0.950 . S
H962 C968 0.949 . S
C963 H958 0.950 . S
C963 C965 1.327 . S
C963 C969 1.429 . S
C964 C956 1.574 . S
C964 H959 0.949 . S
C964 C970 1.368 . S
C965 C949 1.349 . S
C965 H957 0.950 . S
C965 C963 1.327 . S
C966 C954 1.349 . S
C966 H960 0.950 . S
C966 C967 1.327 . S
C967 H961 0.950 . S
C967 C966 1.327 . S
C967 C971 1.429 1_565 S
C968 C951 1.574 . S
C968 H962 0.949 . S
C968 C972 1.368 . S
C969 C950 1.429 . S
C969 C963 1.429 . S
C969 C970 1.523 . S
C970 C951 1.368 . S
C970 C964 1.368 . S
C970 C969 1.523 . S
C971 C955 1.429 . S
C971 C967 1.429 1_545 S
C971 C972 1.523 . S
C972 C956 1.368 . S
C972 C968 1.368 . S
C972 C971 1.523 . S
H973 C948 0.950 . S
H974 C950 0.950 . S
H975 C951 0.949 . S
H976 C953 0.950 . S
H977 C955 0.950 . S
C978 C979 1.349 . S
C978 C980 1.327 . S
C978 H1003 0.950 . S
C979 C978 1.349 . S
C979 C995 1.349 . S
C980 C978 1.327 . S
C980 C999 1.429 . S
C980 H1004 0.950 . S
C981 C998 1.574 . S
C981 C1000 1.368 . S
C981 H1005 0.949 . S
H982 C986 0.949 . S
C983 C984 1.349 . S
C983 C985 1.327 . S
C983 H1006 0.950 . S
C984 C983 1.349 . S
C984 C996 1.349 . S
C985 C983 1.327 . S
C985 C1001 1.429 1_545 S
C985 H1007 0.950 . S
C986 H982 0.949 . S
C986 C994 1.574 . S
C986 C1002 1.368 . S
H987 C995 0.950 . S
H988 C993 0.950 . S
H989 C994 0.949 . S
H990 C996 0.950 . S
H991 C997 0.950 . S
H992 C998 0.943 . S
C993 H988 0.950 . S
C993 C995 1.327 . S
C993 C999 1.429 . S
C994 C986 1.574 . S
C994 H989 0.949 . S
C994 C1000 1.368 . S
C995 C979 1.349 . S
C995 H987 0.950 . S
C995 C993 1.327 . S
C996 C984 1.349 . S
C996 H990 0.950 . S
C996 C997 1.327 1_545 S
C997 H991 0.950 . S
C997 C996 1.327 1_565 S
C997 C1001 1.429 . S
C998 C981 1.574 . S
C998 H992 0.943 . S
C998 C1002 1.368 . S
C999 C980 1.429 . S
C999 C993 1.429 . S
C999 C1000 1.523 . S
C1000 C981 1.368 . S
C1000 C994 1.368 . S
C1000 C999 1.523 . S
C1001 C985 1.429 1_565 S
C1001 C997 1.429 . S
C1001 C1002 1.523 . S
C1002 C986 1.368 . S
C1002 C998 1.368 . S
C1002 C1001 1.523 . S
H1003 C978 0.950 . S
H1004 C980 0.950 . S
H1005 C981 0.949 . S
H1006 C983 0.950 . S
H1007 C985 0.950 . S
C1008 C1009 1.349 . S
C1008 C1010 1.327 . S
C1008 H1033 0.950 . S
C1009 C1008 1.349 . S
C1009 C1025 1.349 . S
C1010 C1008 1.327 . S
C1010 C1029 1.429 . S
C1010 H1034 0.950 . S
C1011 C1028 1.574 . S
C1011 C1030 1.368 . S
C1011 H1035 0.949 . S
H1012 C1016 0.949 . S
C1013 C1014 1.349 . S
C1013 C1015 1.327 . S
C1013 H1036 0.950 . S
C1014 C1013 1.349 . S
C1014 C1026 1.349 . S
C1015 C1013 1.327 . S
C1015 C1031 1.429 . S
C1015 H1037 0.950 . S
C1016 H1012 0.949 . S
C1016 C1024 1.574 . S
C1016 C1032 1.368 . S
H1017 C1025 0.950 . S
H1018 C1023 0.950 . S
H1019 C1024 0.949 . S
H1020 C1026 0.950 . S
H1021 C1027 0.950 . S
H1022 C1028 0.949 . S
C1023 H1018 0.950 . S
C1023 C1025 1.327 . S
C1023 C1029 1.429 . S
C1024 C1016 1.574 . S
C1024 H1019 0.949 . S
C1024 C1030 1.368 . S
C1025 C1009 1.349 . S
C1025 H1017 0.950 . S
C1025 C1023 1.327 . S
C1026 C1014 1.349 . S
C1026 H1020 0.950 . S
C1026 C1027 1.327 . S
C1027 H1021 0.950 . S
C1027 C1026 1.327 . S
C1027 C1031 1.429 . S
C1028 C1011 1.574 . S
C1028 H1022 0.949 . S
C1028 C1032 1.368 . S
C1029 C1010 1.429 . S
C1029 C1023 1.429 . S
C1029 C1030 1.523 . S
C1030 C1011 1.368 . S
C1030 C1024 1.368 . S
C1030 C1029 1.523 . S
C1031 C1015 1.429 . S
C1031 C1027 1.429 . S
C1031 C1032 1.523 . S
C1032 C1016 1.368 . S
C1032 C1028 1.368 . S
C1032 C1031 1.523 . S
H1033 C1008 0.950 . S
H1034 C1010 0.950 . S
H1035 C1011 0.949 . S
H1036 C1013 0.950 . S
H1037 C1015 0.950 . S
C1038 C1039 1.349 . S
C1038 C1040 1.327 . S
C1038 H1063 0.950 . S
C1039 C1038 1.349 . S
C1039 C1055 1.349 . S
C1040 C1038 1.327 . S
C1040 C1059 1.429 . S
C1040 H1064 0.950 . S
C1041 C1058 1.574 . S
C1041 C1060 1.368 . S
C1041 H1065 0.949 . S
H1042 C1046 0.949 . S
C1043 C1044 1.349 . S
C1043 C1045 1.327 1_554 S
C1043 H1066 0.950 . S
C1044 C1043 1.349 . S
C1044 C1056 1.349 . S
C1045 C1043 1.327 1_556 S
C1045 C1061 1.429 . S
C1045 H1067 0.950 . S
C1046 H1042 0.949 . S
C1046 C1054 1.574 . S
C1046 C1062 1.368 . S
H1047 C1055 0.950 . S
H1048 C1053 0.950 . S
H1049 C1054 0.949 . S
H1050 C1056 0.950 . S
H1051 C1057 0.950 . S
H1052 C1058 0.949 . S
C1053 H1048 0.950 . S
C1053 C1055 1.327 . S
C1053 C1059 1.429 . S
C1054 C1046 1.574 . S
C1054 H1049 0.949 . S
C1054 C1060 1.368 . S
C1055 C1039 1.349 . S
C1055 H1047 0.950 . S
C1055 C1053 1.327 . S
C1056 C1044 1.349 . S
C1056 H1050 0.950 . S
C1056 C1057 1.327 . S
C1057 H1051 0.950 . S
C1057 C1056 1.327 . S
C1057 C1061 1.429 1_554 S
C1058 C1041 1.574 . S
C1058 H1052 0.949 . S
C1058 C1062 1.368 . S
C1059 C1040 1.429 . S
C1059 C1053 1.429 . S
C1059 C1060 1.523 . S
C1060 C1041 1.368 . S
C1060 C1054 1.368 . S
C1060 C1059 1.523 . S
C1061 C1045 1.429 . S
C1061 C1057 1.429 1_556 S
C1061 C1062 1.523 . S
C1062 C1046 1.368 . S
C1062 C1058 1.368 . S
C1062 C1061 1.523 . S
H1063 C1038 0.950 . S
H1064 C1040 0.950 . S
H1065 C1041 0.949 . S
H1066 C1043 0.950 . S
H1067 C1045 0.950 . S
C1068 C1069 1.349 . S
C1068 C1070 1.327 . S
C1068 H1093 0.950 . S
C1069 C1068 1.349 . S
C1069 C1085 1.349 . S
C1070 C1068 1.327 . S
C1070 C1089 1.429 . S
C1070 H1094 0.950 . S
C1071 C1088 1.574 . S
C1071 C1090 1.368 . S
C1071 H1095 0.949 . S
H1072 C1076 0.949 . S
C1073 C1074 1.349 . S
C1073 C1075 1.327 . S
C1073 H1096 0.950 . S
C1074 C1073 1.349 . S
C1074 C1086 1.349 . S
C1075 C1073 1.327 . S
C1075 C1091 1.429 . S
C1075 H1097 0.950 . S
C1076 H1072 0.949 . S
C1076 C1084 1.574 . S
C1076 C1092 1.368 . S
H1077 C1085 0.950 . S
H1078 C1083 0.950 . S
H1079 C1084 0.949 . S
H1080 C1086 0.950 . S
H1081 C1087 0.950 . S
H1082 C1088 0.949 . S
C1083 H1078 0.950 . S
C1083 C1085 1.327 . S
C1083 C1089 1.429 . S
C1084 C1076 1.574 . S
C1084 H1079 0.949 . S
C1084 C1090 1.368 . S
C1085 C1069 1.349 . S
C1085 H1077 0.950 . S
C1085 C1083 1.327 . S
C1086 C1074 1.349 . S
C1086 H1080 0.950 . S
C1086 C1087 1.327 . S
C1087 H1081 0.950 . S
C1087 C1086 1.327 . S
C1087 C1091 1.429 . S
C1088 C1071 1.574 . S
C1088 H1082 0.949 . S
C1088 C1092 1.368 . S
C1089 C1070 1.429 . S
C1089 C1083 1.429 . S
C1089 C1090 1.523 . S
C1090 C1071 1.368 . S
C1090 C1084 1.368 . S
C1090 C1089 1.523 . S
C1091 C1075 1.429 . S
C1091 C1087 1.429 . S
C1091 C1092 1.523 . S
C1092 C1076 1.368 . S
C1092 C1088 1.368 . S
C1092 C1091 1.523 . S
H1093 C1068 0.950 . S
H1094 C1070 0.950 . S
H1095 C1071 0.949 . S
H1096 C1073 0.950 . S
H1097 C1075 0.950 . S
C1098 C1099 1.349 . S
C1098 C1100 1.327 1_556 S
C1098 H1123 0.950 . S
C1099 C1098 1.349 . S
C1099 C1115 1.349 . S
C1100 C1098 1.327 1_554 S
C1100 C1119 1.429 . S
C1100 H1124 0.950 . S
C1101 C1118 1.574 . S
C1101 C1120 1.368 . S
C1101 H1125 0.949 . S
H1102 C1106 0.949 . S
C1103 C1104 1.349 . S
C1103 C1105 1.327 . S
C1103 H1126 0.950 . S
C1104 C1103 1.349 . S
C1104 C1116 1.349 . S
C1105 C1103 1.327 . S
C1105 C1121 1.429 . S
C1105 H1127 0.950 . S
C1106 H1102 0.949 . S
C1106 C1114 1.574 . S
C1106 C1122 1.368 . S
H1107 C1115 0.950 . S
H1108 C1113 0.950 . S
H1109 C1114 0.949 . S
H1110 C1116 0.950 . S
H1111 C1117 0.950 . S
H1112 C1118 0.949 . S
C1113 H1108 0.950 . S
C1113 C1115 1.327 . S
C1113 C1119 1.429 1_556 S
C1114 C1106 1.574 . S
C1114 H1109 0.949 . S
C1114 C1120 1.368 . S
C1115 C1099 1.349 . S
C1115 H1107 0.950 . S
C1115 C1113 1.327 . S
C1116 C1104 1.349 . S
C1116 H1110 0.950 . S
C1116 C1117 1.327 . S
C1117 H1111 0.950 . S
C1117 C1116 1.327 . S
C1117 C1121 1.429 . S
C1118 C1101 1.574 . S
C1118 H1112 0.949 . S
C1118 C1122 1.368 . S
C1119 C1100 1.429 . S
C1119 C1113 1.429 1_554 S
C1119 C1120 1.523 . S
C1120 C1101 1.368 . S
C1120 C1114 1.368 . S
C1120 C1119 1.523 . S
C1121 C1105 1.429 . S
C1121 C1117 1.429 . S
C1121 C1122 1.523 . S
C1122 C1106 1.368 . S
C1122 C1118 1.368 . S
C1122 C1121 1.523 . S
H1123 C1098 0.950 . S
H1124 C1100 0.950 . S
H1125 C1101 0.949 . S
H1126 C1103 0.950 . S
H1127 C1105 0.950 . S
C1128 C1129 1.349 . S
C1128 C1130 1.327 . S
C1128 H1153 0.950 . S
C1129 C1128 1.349 . S
C1129 C1145 1.349 . S
C1130 C1128 1.327 . S
C1130 C1149 1.429 . S
C1130 H1154 0.950 . S
C1131 C1148 1.574 . S
C1131 C1150 1.368 . S
C1131 H1155 0.949 . S
H1132 C1136 0.949 . S
C1133 C1134 1.349 . S
C1133 C1135 1.327 . S
C1133 H1156 0.950 . S
C1134 C1133 1.349 . S
C1134 C1146 1.349 . S
C1135 C1133 1.327 . S
C1135 C1151 1.429 . S
C1135 H1157 0.950 . S
C1136 H1132 0.949 . S
C1136 C1144 1.574 . S
C1136 C1152 1.368 . S
H1137 C1145 0.950 . S
H1138 C1143 0.950 . S
H1139 C1144 0.949 . S
H1140 C1146 0.950 . S
H1141 C1147 0.950 . S
H1142 C1148 0.949 . S
C1143 H1138 0.950 . S
C1143 C1145 1.327 . S
C1143 C1149 1.429 . S
C1144 C1136 1.574 . S
C1144 H1139 0.949 . S
C1144 C1150 1.368 . S
C1145 C1129 1.349 . S
C1145 H1137 0.950 . S
C1145 C1143 1.327 . S
C1146 C1134 1.349 . S
C1146 H1140 0.950 . S
C1146 C1147 1.327 . S
C1147 H1141 0.950 . S
C1147 C1146 1.327 . S
C1147 C1151 1.429 . S
C1148 C1131 1.574 . S
C1148 H1142 0.949 . S
C1148 C1152 1.368 . S
C1149 C1130 1.429 . S
C1149 C1143 1.429 . S
C1149 C1150 1.523 . S
C1150 C1131 1.368 . S
C1150 C1144 1.368 . S
C1150 C1149 1.523 . S
C1151 C1135 1.429 . S
C1151 C1147 1.429 . S
C1151 C1152 1.523 . S
C1152 C1136 1.368 . S
C1152 C1148 1.368 . S
C1152 C1151 1.523 . S
H1153 C1128 0.950 . S
H1154 C1130 0.950 . S
H1155 C1131 0.949 . S
H1156 C1133 0.950 . S
H1157 C1135 0.950 . S
C1158 C1159 1.349 . S
C1158 C1160 1.327 . S
C1158 H1183 0.950 . S
C1159 C1158 1.349 . S
C1159 C1175 1.349 . S
C1160 C1158 1.327 . S
C1160 C1179 1.429 1_455 S
C1160 H1184 0.950 . S
C1161 C1178 1.574 . S
C1161 C1180 1.368 . S
C1161 H1185 0.949 . S
H1162 C1166 0.949 . S
C1163 C1164 1.349 . S
C1163 C1165 1.327 . S
C1163 H1186 0.950 . S
C1164 C1163 1.349 . S
C1164 C1176 1.349 . S
C1165 C1163 1.327 . S
C1165 C1181 1.429 . S
C1165 H1187 0.950 . S
C1166 H1162 0.949 . S
C1166 C1174 1.574 . S
C1166 C1182 1.368 . S
H1167 C1175 0.950 . S
H1168 C1173 0.950 . S
H1169 C1174 0.949 . S
H1170 C1176 0.950 . S
H1171 C1177 0.950 . S
H1172 C1178 0.949 . S
C1173 H1168 0.950 . S
C1173 C1175 1.327 1_655 S
C1173 C1179 1.429 . S
C1174 C1166 1.574 . S
C1174 H1169 0.949 . S
C1174 C1180 1.368 . S
C1175 C1159 1.349 . S
C1175 H1167 0.950 . S
C1175 C1173 1.327 1_455 S
C1176 C1164 1.349 . S
C1176 H1170 0.950 . S
C1176 C1177 1.327 . S
C1177 H1171 0.950 . S
C1177 C1176 1.327 . S
C1177 C1181 1.429 . S
C1178 C1161 1.574 . S
C1178 H1172 0.949 . S
C1178 C1182 1.368 . S
C1179 C1160 1.429 1_655 S
C1179 C1173 1.429 . S
C1179 C1180 1.523 . S
C1180 C1161 1.368 . S
C1180 C1174 1.368 . S
C1180 C1179 1.523 . S
C1181 C1165 1.429 . S
C1181 C1177 1.429 . S
C1181 C1182 1.523 . S
C1182 C1166 1.368 . S
C1182 C1178 1.368 . S
C1182 C1181 1.523 . S
H1183 C1158 0.950 . S
H1184 C1160 0.950 . S
H1185 C1161 0.949 . S
H1186 C1163 0.950 . S
H1187 C1165 0.950 . S
C1188 C1189 1.349 . S
C1188 C1190 1.327 . S
C1188 H1213 0.950 . S
C1189 C1188 1.349 . S
C1189 C1205 1.349 . S
C1190 C1188 1.327 . S
C1190 C1209 1.429 . S
C1190 H1214 0.950 . S
C1191 C1208 1.574 . S
C1191 C1210 1.368 . S
C1191 H1215 0.949 . S
H1192 C1196 0.949 . S
C1193 C1194 1.349 . S
C1193 C1195 1.327 . S
C1193 H1216 0.950 . S
C1194 C1193 1.349 . S
C1194 C1206 1.349 . S
C1195 C1193 1.327 . S
C1195 C1211 1.429 . S
C1195 H1217 0.950 . S
C1196 H1192 0.949 . S
C1196 C1204 1.574 . S
C1196 C1212 1.368 . S
H1197 C1205 0.950 . S
H1198 C1203 0.950 . S
H1199 C1204 0.949 . S
H1200 C1206 0.950 . S
H1201 C1207 0.950 . S
H1202 C1208 0.949 . S
C1203 H1198 0.950 . S
C1203 C1205 1.327 . S
C1203 C1209 1.429 . S
C1204 C1196 1.574 . S
C1204 H1199 0.949 . S
C1204 C1210 1.368 . S
C1205 C1189 1.349 . S
C1205 H1197 0.950 . S
C1205 C1203 1.327 . S
C1206 C1194 1.349 . S
C1206 H1200 0.950 . S
C1206 C1207 1.327 . S
C1207 H1201 0.950 . S
C1207 C1206 1.327 . S
C1207 C1211 1.429 . S
C1208 C1191 1.574 . S
C1208 H1202 0.949 . S
C1208 C1212 1.368 . S
C1209 C1190 1.429 . S
C1209 C1203 1.429 . S
C1209 C1210 1.523 . S
C1210 C1191 1.368 . S
C1210 C1204 1.368 . S
C1210 C1209 1.523 . S
C1211 C1195 1.429 . S
C1211 C1207 1.429 . S
C1211 C1212 1.523 . S
C1212 C1196 1.368 . S
C1212 C1208 1.368 . S
C1212 C1211 1.523 . S
H1213 C1188 0.950 . S
H1214 C1190 0.950 . S
H1215 C1191 0.949 . S
H1216 C1193 0.950 . S
H1217 C1195 0.950 . S
C1218 C1219 1.349 . S
C1218 C1220 1.327 . S
C1218 H1243 0.950 . S
C1219 C1218 1.349 . S
C1219 C1235 1.349 . S
C1220 C1218 1.327 . S
C1220 C1239 1.429 . S
C1220 H1244 0.950 . S
C1221 C1238 1.574 . S
C1221 C1240 1.368 . S
C1221 H1245 0.949 . S
H1222 C1226 0.949 . S
C1223 C1224 1.349 . S
C1223 C1225 1.327 . S
C1223 H1246 0.950 . S
C1224 C1223 1.349 . S
C1224 C1236 1.349 . S
C1225 C1223 1.327 . S
C1225 C1241 1.429 1_655 S
C1225 H1247 0.950 . S
C1226 H1222 0.949 . S
C1226 C1234 1.574 . S
C1226 C1242 1.368 . S
H1227 C1235 0.950 . S
H1228 C1233 0.950 . S
H1229 C1234 0.949 . S
H1230 C1236 0.950 . S
H1231 C1237 0.950 1_455 S
H1232 C1238 0.949 . S
C1233 H1228 0.950 . S
C1233 C1235 1.327 . S
C1233 C1239 1.429 . S
C1234 C1226 1.574 . S
C1234 H1229 0.949 . S
C1234 C1240 1.368 . S
C1235 C1219 1.349 . S
C1235 H1227 0.950 . S
C1235 C1233 1.327 . S
C1236 C1224 1.349 . S
C1236 H1230 0.950 . S
C1236 C1237 1.327 . S
C1237 H1231 0.950 1_655 S
C1237 C1236 1.327 . S
C1237 C1241 1.429 1_655 S
C1238 C1221 1.574 . S
C1238 H1232 0.949 . S
C1238 C1242 1.368 . S
C1239 C1220 1.429 . S
C1239 C1233 1.429 . S
C1239 C1240 1.523 . S
C1240 C1221 1.368 . S
C1240 C1234 1.368 . S
C1240 C1239 1.523 . S
C1241 C1225 1.429 1_455 S
C1241 C1237 1.429 1_455 S
C1241 C1242 1.523 . S
C1242 C1226 1.368 . S
C1242 C1238 1.368 . S
C1242 C1241 1.523 . S
H1243 C1218 0.950 . S
H1244 C1220 0.950 . S
H1245 C1221 0.949 . S
H1246 C1223 0.950 . S
H1247 C1225 0.950 . S
C1248 C1249 1.349 . S
C1248 C1250 1.327 1_556 S
C1248 H1273 0.950 . S
C1249 C1248 1.349 . S
C1249 C1265 1.349 . S
C1250 C1248 1.327 1_554 S
C1250 C1269 1.429 . S
C1250 H1274 0.950 . S
C1251 C1268 1.574 . S
C1251 C1270 1.368 . S
C1251 H1275 0.949 . S
H1252 C1256 0.949 . S
C1253 C1254 1.349 . S
C1253 C1255 1.327 . S
C1253 H1276 0.950 . S
C1254 C1253 1.349 . S
C1254 C1266 1.349 . S
C1255 C1253 1.327 . S
C1255 C1271 1.429 . S
C1255 H1277 0.950 . S
C1256 H1252 0.949 . S
C1256 C1264 1.574 . S
C1256 C1272 1.368 . S
H1257 C1265 0.950 . S
H1258 C1263 0.950 . S
H1259 C1264 0.949 . S
H1260 C1266 0.950 . S
H1261 C1267 0.950 . S
H1262 C1268 0.949 . S
C1263 H1258 0.950 . S
C1263 C1265 1.327 1_554 S
C1263 C1269 1.429 . S
C1264 C1256 1.574 . S
C1264 H1259 0.949 . S
C1264 C1270 1.368 . S
C1265 C1249 1.349 . S
C1265 H1257 0.950 . S
C1265 C1263 1.327 1_556 S
C1266 C1254 1.349 . S
C1266 H1260 0.950 . S
C1266 C1267 1.327 . S
C1267 H1261 0.950 . S
C1267 C1266 1.327 . S
C1267 C1271 1.429 . S
C1268 C1251 1.574 . S
C1268 H1262 0.949 . S
C1268 C1272 1.368 . S
C1269 C1250 1.429 . S
C1269 C1263 1.429 . S
C1269 C1270 1.523 . S
C1270 C1251 1.368 . S
C1270 C1264 1.368 . S
C1270 C1269 1.523 . S
C1271 C1255 1.429 . S
C1271 C1267 1.429 . S
C1271 C1272 1.523 . S
C1272 C1256 1.368 . S
C1272 C1268 1.368 . S
C1272 C1271 1.523 . S
H1273 C1248 0.950 . S
H1274 C1250 0.950 . S
H1275 C1251 0.949 . S
H1276 C1253 0.950 . S
H1277 C1255 0.950 . S
C1278 C1279 1.349 . S
C1278 C1280 1.327 . S
C1278 H1303 0.950 . S
C1279 C1278 1.349 . S
C1279 C1295 1.349 . S
C1280 C1278 1.327 . S
C1280 C1299 1.429 . S
C1280 H1304 0.950 . S
C1281 C1298 1.574 . S
C1281 C1300 1.368 . S
C1281 H1305 0.949 . S
H1282 C1286 0.949 . S
C1283 C1284 1.349 . S
C1283 C1285 1.327 . S
C1283 H1306 0.950 . S
C1284 C1283 1.349 . S
C1284 C1296 1.349 . S
C1285 C1283 1.327 . S
C1285 C1301 1.429 . S
C1285 H1307 0.950 . S
C1286 H1282 0.949 . S
C1286 C1294 1.574 . S
C1286 C1302 1.368 . S
H1287 C1295 0.950 . S
H1288 C1293 0.950 . S
H1289 C1294 0.949 . S
H1290 C1296 0.950 . S
H1291 C1297 0.950 . S
H1292 C1298 0.949 . S
C1293 H1288 0.950 . S
C1293 C1295 1.327 . S
C1293 C1299 1.429 . S
C1294 C1286 1.574 . S
C1294 H1289 0.949 . S
C1294 C1300 1.368 . S
C1295 C1279 1.349 . S
C1295 H1287 0.950 . S
C1295 C1293 1.327 . S
C1296 C1284 1.349 . S
C1296 H1290 0.950 . S
C1296 C1297 1.327 . S
C1297 H1291 0.950 . S
C1297 C1296 1.327 . S
C1297 C1301 1.429 . S
C1298 C1281 1.574 . S
C1298 H1292 0.949 . S
C1298 C1302 1.368 . S
C1299 C1280 1.429 . S
C1299 C1293 1.429 . S
C1299 C1300 1.523 . S
C1300 C1281 1.368 . S
C1300 C1294 1.368 . S
C1300 C1299 1.523 . S
C1301 C1285 1.429 . S
C1301 C1297 1.429 . S
C1301 C1302 1.523 . S
C1302 C1286 1.368 . S
C1302 C1298 1.368 . S
C1302 C1301 1.523 . S
H1303 C1278 0.950 . S
H1304 C1280 0.950 . S
H1305 C1281 0.949 . S
H1306 C1283 0.950 . S
H1307 C1285 0.950 . S
C1308 C1309 1.349 . S
C1308 C1310 1.327 1_554 S
C1308 H1333 0.950 . S
C1309 C1308 1.349 . S
C1309 C1325 1.349 . S
C1310 C1308 1.327 1_556 S
C1310 C1329 1.429 . S
C1310 H1334 0.950 . S
C1311 C1328 1.574 . S
C1311 C1330 1.368 . S
C1311 H1335 0.949 . S
H1312 C1316 0.949 . S
C1313 C1314 1.349 . S
C1313 C1315 1.327 . S
C1313 H1336 0.950 . S
C1314 C1313 1.349 . S
C1314 C1326 1.349 . S
C1315 C1313 1.327 . S
C1315 C1331 1.429 . S
C1315 H1337 0.950 . S
C1316 H1312 0.949 . S
C1316 C1324 1.574 . S
C1316 C1332 1.368 . S
H1317 C1325 0.950 . S
H1318 C1323 0.950 . S
H1319 C1324 0.949 . S
H1320 C1326 0.950 . S
H1321 C1327 0.950 . S
H1322 C1328 0.949 . S
C1323 H1318 0.950 . S
C1323 C1325 1.327 1_556 S
C1323 C1329 1.429 . S
C1324 C1316 1.574 . S
C1324 H1319 0.949 . S
C1324 C1330 1.368 . S
C1325 C1309 1.349 . S
C1325 H1317 0.950 . S
C1325 C1323 1.327 1_554 S
C1326 C1314 1.349 . S
C1326 H1320 0.950 . S
C1326 C1327 1.327 . S
C1327 H1321 0.950 . S
C1327 C1326 1.327 . S
C1327 C1331 1.429 . S
C1328 C1311 1.574 . S
C1328 H1322 0.949 . S
C1328 C1332 1.368 . S
C1329 C1310 1.429 . S
C1329 C1323 1.429 . S
C1329 C1330 1.523 . S
C1330 C1311 1.368 . S
C1330 C1324 1.368 . S
C1330 C1329 1.523 . S
C1331 C1315 1.429 . S
C1331 C1327 1.429 . S
C1331 C1332 1.523 . S
C1332 C1316 1.368 . S
C1332 C1328 1.368 . S
C1332 C1331 1.523 . S
H1333 C1308 0.950 . S
H1334 C1310 0.950 . S
H1335 C1311 0.949 . S
H1336 C1313 0.950 . S
H1337 C1315 0.950 . S
C1338 C1339 1.349 . S
C1338 C1340 1.327 . S
C1338 H1363 0.950 . S
C1339 C1338 1.349 . S
C1339 C1355 1.349 . S
C1340 C1338 1.327 . S
C1340 C1359 1.429 . S
C1340 H1364 0.950 . S
C1341 C1358 1.574 . S
C1341 C1360 1.368 . S
C1341 H1365 0.949 . S
H1342 C1346 0.949 . S
C1343 C1344 1.349 . S
C1343 C1345 1.327 . S
C1343 H1366 0.950 . S
C1344 C1343 1.349 . S
C1344 C1356 1.349 . S
C1345 C1343 1.327 . S
C1345 C1361 1.429 . S
C1345 H1367 0.950 . S
C1346 H1342 0.949 . S
C1346 C1354 1.574 . S
C1346 C1362 1.368 . S
H1347 C1355 0.950 . S
H1348 C1353 0.950 . S
H1349 C1354 0.949 . S
H1350 C1356 0.950 . S
H1351 C1357 0.950 . S
H1352 C1358 0.949 . S
C1353 H1348 0.950 . S
C1353 C1355 1.327 . S
C1353 C1359 1.429 . S
C1354 C1346 1.574 . S
C1354 H1349 0.949 . S
C1354 C1360 1.368 . S
C1355 C1339 1.349 . S
C1355 H1347 0.950 . S
C1355 C1353 1.327 . S
C1356 C1344 1.349 . S
C1356 H1350 0.950 . S
C1356 C1357 1.327 . S
C1357 H1351 0.950 . S
C1357 C1356 1.327 . S
C1357 C1361 1.429 . S
C1358 C1341 1.574 . S
C1358 H1352 0.949 . S
C1358 C1362 1.368 . S
C1359 C1340 1.429 . S
C1359 C1353 1.429 . S
C1359 C1360 1.523 . S
C1360 C1341 1.368 . S
C1360 C1354 1.368 . S
C1360 C1359 1.523 . S
C1361 C1345 1.429 . S
C1361 C1357 1.429 . S
C1361 C1362 1.523 . S
C1362 C1346 1.368 . S
C1362 C1358 1.368 . S
C1362 C1361 1.523 . S
H1363 C1338 0.950 . S
H1364 C1340 0.950 . S
H1365 C1341 0.949 . S
H1366 C1343 0.950 . S
H1367 C1345 0.950 . S
C1368 C1369 1.349 . S
C1368 C1370 1.327 . S
C1368 H1393 0.950 . S
C1369 C1368 1.349 . S
C1369 C1385 1.349 . S
C1370 C1368 1.327 . S
C1370 C1389 1.429 . S
C1370 H1394 0.950 . S
C1371 C1388 1.574 . S
C1371 C1390 1.368 . S
C1371 H1395 0.949 . S
H1372 C1376 0.949 . S
C1373 C1374 1.349 . S
C1373 C1375 1.327 1_655 S
C1373 H1396 0.950 . S
C1374 C1373 1.349 . S
C1374 C1386 1.349 . S
C1375 C1373 1.327 1_455 S
C1375 C1391 1.429 . S
C1375 H1397 0.950 . S
C1376 H1372 0.949 . S
C1376 C1384 1.574 . S
C1376 C1392 1.368 . S
H1377 C1385 0.950 . S
H1378 C1383 0.950 . S
H1379 C1384 0.949 . S
H1380 C1386 0.950 . S
H1381 C1387 0.950 . S
H1382 C1388 0.949 . S
C1383 H1378 0.950 . S
C1383 C1385 1.327 . S
C1383 C1389 1.429 . S
C1384 C1376 1.574 . S
C1384 H1379 0.949 . S
C1384 C1390 1.368 . S
C1385 C1369 1.349 . S
C1385 H1377 0.950 . S
C1385 C1383 1.327 . S
C1386 C1374 1.349 . S
C1386 H1380 0.950 . S
C1386 C1387 1.327 1_655 S
C1387 H1381 0.950 . S
C1387 C1386 1.327 1_455 S
C1387 C1391 1.429 . S
C1388 C1371 1.574 . S
C1388 H1382 0.949 . S
C1388 C1392 1.368 . S
C1389 C1370 1.429 . S
C1389 C1383 1.429 . S
C1389 C1390 1.523 . S
C1390 C1371 1.368 . S
C1390 C1384 1.368 . S
C1390 C1389 1.523 . S
C1391 C1375 1.429 . S
C1391 C1387 1.429 . S
C1391 C1392 1.523 . S
C1392 C1376 1.368 . S
C1392 C1388 1.368 . S
C1392 C1391 1.523 . S
H1393 C1368 0.950 . S
H1394 C1370 0.950 . S
H1395 C1371 0.949 . S
H1396 C1373 0.950 . S
H1397 C1375 0.950 . S
C1398 C1399 1.349 . S
C1398 C1400 1.327 . S
C1398 H1423 0.950 . S
C1399 C1398 1.349 . S
C1399 C1415 1.349 . S
C1400 C1398 1.327 . S
C1400 C1419 1.429 . S
C1400 H1424 0.950 . S
C1401 C1418 1.574 . S
C1401 C1420 1.368 . S
C1401 H1425 0.949 . S
H1402 C1406 0.949 . S
C1403 C1404 1.349 . S
C1403 C1405 1.327 . S
C1403 H1426 0.950 . S
C1404 C1403 1.349 . S
C1404 C1416 1.349 . S
C1405 C1403 1.327 . S
C1405 C1421 1.429 . S
C1405 H1427 0.950 . S
C1406 H1402 0.949 . S
C1406 C1414 1.574 . S
C1406 C1422 1.368 . S
H1407 C1415 0.950 . S
H1408 C1413 0.950 . S
H1409 C1414 0.949 . S
H1410 C1416 0.950 . S
H1411 C1417 0.950 . S
H1412 C1418 0.949 . S
C1413 H1408 0.950 . S
C1413 C1415 1.327 . S
C1413 C1419 1.429 . S
C1414 C1406 1.574 . S
C1414 H1409 0.949 . S
C1414 C1420 1.368 . S
C1415 C1399 1.349 . S
C1415 H1407 0.950 . S
C1415 C1413 1.327 . S
C1416 C1404 1.349 . S
C1416 H1410 0.950 . S
C1416 C1417 1.327 . S
C1417 H1411 0.950 . S
C1417 C1416 1.327 . S
C1417 C1421 1.429 . S
C1418 C1401 1.574 . S
C1418 H1412 0.949 . S
C1418 C1422 1.368 . S
C1419 C1400 1.429 . S
C1419 C1413 1.429 . S
C1419 C1420 1.523 . S
C1420 C1401 1.368 . S
C1420 C1414 1.368 . S
C1420 C1419 1.523 . S
C1421 C1405 1.429 . S
C1421 C1417 1.429 . S
C1421 C1422 1.523 . S
C1422 C1406 1.368 . S
C1422 C1418 1.368 . S
C1422 C1421 1.523 . S
H1423 C1398 0.950 . S
H1424 C1400 0.950 . S
H1425 C1401 0.949 . S
H1426 C1403 0.950 . S
H1427 C1405 0.950 . S
C1428 C1429 1.349 . S
C1428 C1430 1.327 . S
C1428 H1453 0.950 . S
C1429 C1428 1.349 . S
C1429 C1445 1.349 . S
C1430 C1428 1.327 . S
C1430 C1449 1.429 . S
C1430 H1454 0.950 . S
C1431 C1448 1.574 . S
C1431 C1450 1.368 . S
C1431 H1455 0.949 . S
H1432 C1436 0.949 . S
C1433 C1434 1.349 . S
C1433 C1435 1.327 . S
C1433 H1456 0.950 . S
C1434 C1433 1.349 . S
C1434 C1446 1.349 . S
C1435 C1433 1.327 . S
C1435 C1451 1.429 . S
C1435 H1457 0.950 . S
C1436 H1432 0.949 . S
C1436 C1444 1.574 . S
C1436 C1452 1.368 . S
H1437 C1445 0.950 . S
H1438 C1443 0.950 . S
H1439 C1444 0.949 . S
H1440 C1446 0.950 . S
H1441 C1447 0.950 . S
H1442 C1448 0.949 . S
C1443 H1438 0.950 . S
C1443 C1445 1.327 . S
C1443 C1449 1.429 . S
C1444 C1436 1.574 . S
C1444 H1439 0.949 . S
C1444 C1450 1.368 . S
C1445 C1429 1.349 . S
C1445 H1437 0.950 . S
C1445 C1443 1.327 . S
C1446 C1434 1.349 . S
C1446 H1440 0.950 . S
C1446 C1447 1.327 . S
C1447 H1441 0.950 . S
C1447 C1446 1.327 . S
C1447 C1451 1.429 . S
C1448 C1431 1.574 . S
C1448 H1442 0.949 . S
C1448 C1452 1.368 . S
C1449 C1430 1.429 . S
C1449 C1443 1.429 . S
C1449 C1450 1.523 . S
C1450 C1431 1.368 . S
C1450 C1444 1.368 . S
C1450 C1449 1.523 . S
C1451 C1435 1.429 . S
C1451 C1447 1.429 . S
C1451 C1452 1.523 . S
C1452 C1436 1.368 . S
C1452 C1448 1.368 . S
C1452 C1451 1.523 . S
H1453 C1428 0.950 . S
H1454 C1430 0.950 . S
H1455 C1431 0.949 . S
H1456 C1433 0.950 . S
H1457 C1435 0.950 . S
C1458 C1459 1.349 . S
C1458 C1460 1.327 1_455 S
C1458 H1483 0.950 . S
C1459 C1458 1.349 . S
C1459 C1475 1.349 . S
C1460 C1458 1.327 1_655 S
C1460 C1479 1.429 . S
C1460 H1484 0.950 . S
C1461 C1478 1.574 . S
C1461 C1480 1.368 . S
C1461 H1485 0.949 . S
H1462 C1466 0.949 . S
C1463 C1464 1.349 . S
C1463 C1465 1.327 . S
C1463 H1486 0.950 . S
C1464 C1463 1.349 . S
C1464 C1476 1.349 . S
C1465 C1463 1.327 . S
C1465 C1481 1.429 . S
C1465 H1487 0.950 . S
C1466 H1462 0.949 . S
C1466 C1474 1.574 . S
C1466 C1482 1.368 . S
H1467 C1475 0.950 . S
H1468 C1473 0.950 . S
H1469 C1474 0.949 . S
H1470 C1476 0.950 . S
H1471 C1477 0.950 . S
H1472 C1478 0.949 . S
C1473 H1468 0.950 . S
C1473 C1475 1.327 1_655 S
C1473 C1479 1.429 . S
C1474 C1466 1.574 . S
C1474 H1469 0.949 . S
C1474 C1480 1.368 . S
C1475 C1459 1.349 . S
C1475 H1467 0.950 . S
C1475 C1473 1.327 1_455 S
C1476 C1464 1.349 . S
C1476 H1470 0.950 . S
C1476 C1477 1.327 . S
C1477 H1471 0.950 . S
C1477 C1476 1.327 . S
C1477 C1481 1.429 . S
C1478 C1461 1.574 . S
C1478 H1472 0.949 . S
C1478 C1482 1.368 . S
C1479 C1460 1.429 . S
C1479 C1473 1.429 . S
C1479 C1480 1.523 . S
C1480 C1461 1.368 . S
C1480 C1474 1.368 . S
C1480 C1479 1.523 . S
C1481 C1465 1.429 . S
C1481 C1477 1.429 . S
C1481 C1482 1.523 . S
C1482 C1466 1.368 . S
C1482 C1478 1.368 . S
C1482 C1481 1.523 . S
H1483 C1458 0.950 . S
H1484 C1460 0.950 . S
H1485 C1461 0.949 . S
H1486 C1463 0.950 . S
H1487 C1465 0.950 . S
C1488 C1489 1.349 . S
C1488 C1490 1.327 1_565 S
C1488 H1513 0.950 . S
C1489 C1488 1.349 . S
C1489 C1505 1.349 . S
C1490 C1488 1.327 1_545 S
C1490 C1509 1.429 . S
C1490 H1514 0.950 . S
C1491 C1508 1.574 . S
C1491 C1510 1.368 . S
C1491 H1515 0.949 . S
H1492 C1496 0.949 . S
C1493 C1494 1.349 . S
C1493 C1495 1.327 . S
C1493 H1516 0.950 . S
C1494 C1493 1.349 . S
C1494 C1506 1.349 . S
C1495 C1493 1.327 . S
C1495 C1511 1.429 . S
C1495 H1517 0.950 . S
C1496 H1492 0.949 . S
C1496 C1504 1.574 . S
C1496 C1512 1.368 . S
H1497 C1505 0.950 . S
H1498 C1503 0.950 . S
H1499 C1504 0.949 . S
H1500 C1506 0.950 . S
H1501 C1507 0.950 . S
H1502 C1508 0.949 . S
C1503 H1498 0.950 . S
C1503 C1505 1.327 1_545 S
C1503 C1509 1.429 . S
C1504 C1496 1.574 . S
C1504 H1499 0.949 . S
C1504 C1510 1.368 . S
C1505 C1489 1.349 . S
C1505 H1497 0.950 . S
C1505 C1503 1.327 1_565 S
C1506 C1494 1.349 . S
C1506 H1500 0.950 . S
C1506 C1507 1.327 . S
C1507 H1501 0.950 . S
C1507 C1506 1.327 . S
C1507 C1511 1.429 . S
C1508 C1491 1.574 . S
C1508 H1502 0.949 . S
C1508 C1512 1.368 . S
C1509 C1490 1.429 . S
C1509 C1503 1.429 . S
C1509 C1510 1.523 . S
C1510 C1491 1.368 . S
C1510 C1504 1.368 . S
C1510 C1509 1.523 . S
C1511 C1495 1.429 . S
C1511 C1507 1.429 . S
C1511 C1512 1.523 . S
C1512 C1496 1.368 . S
C1512 C1508 1.368 . S
C1512 C1511 1.523 . S
H1513 C1488 0.950 . S
H1514 C1490 0.950 . S
H1515 C1491 0.949 . S
H1516 C1493 0.950 . S
H1517 C1495 0.950 . S
C1518 C1519 1.349 . S
C1518 C1520 1.327 . S
C1518 H1543 0.950 . S
C1519 C1518 1.349 . S
C1519 C1535 1.349 . S
C1520 C1518 1.327 . S
C1520 C1539 1.429 . S
C1520 H1544 0.950 . S
C1521 C1538 1.574 . S
C1521 C1540 1.368 . S
C1521 H1545 0.949 . S
H1522 C1526 0.949 . S
C1523 C1524 1.349 . S
C1523 C1525 1.327 . S
C1523 H1546 0.950 . S
C1524 C1523 1.349 . S
C1524 C1536 1.349 . S
C1525 C1523 1.327 . S
C1525 C1541 1.429 . S
C1525 H1547 0.950 . S
C1526 H1522 0.949 . S
C1526 C1534 1.574 . S
C1526 C1542 1.368 . S
H1527 C1535 0.950 . S
H1528 C1533 0.950 . S
H1529 C1534 0.949 . S
H1530 C1536 0.950 . S
H1531 C1537 0.950 . S
H1532 C1538 0.949 . S
C1533 H1528 0.950 . S
C1533 C1535 1.327 . S
C1533 C1539 1.429 . S
C1534 C1526 1.574 . S
C1534 H1529 0.949 . S
C1534 C1540 1.368 . S
C1535 C1519 1.349 . S
C1535 H1527 0.950 . S
C1535 C1533 1.327 . S
C1536 C1524 1.349 . S
C1536 H1530 0.950 . S
C1536 C1537 1.327 . S
C1537 H1531 0.950 . S
C1537 C1536 1.327 . S
C1537 C1541 1.429 . S
C1538 C1521 1.574 . S
C1538 H1532 0.949 . S
C1538 C1542 1.368 . S
C1539 C1520 1.429 . S
C1539 C1533 1.429 . S
C1539 C1540 1.523 . S
C1540 C1521 1.368 . S
C1540 C1534 1.368 . S
C1540 C1539 1.523 . S
C1541 C1525 1.429 . S
C1541 C1537 1.429 . S
C1541 C1542 1.523 . S
C1542 C1526 1.368 . S
C1542 C1538 1.368 . S
C1542 C1541 1.523 . S
H1543 C1518 0.950 . S
H1544 C1520 0.950 . S
H1545 C1521 0.949 . S
H1546 C1523 0.950 . S
H1547 C1525 0.950 . S
C1548 C1549 1.349 . S
C1548 C1550 1.327 . S
C1548 H1573 0.950 . S
C1549 C1548 1.349 . S
C1549 C1565 1.349 . S
C1550 C1548 1.327 . S
C1550 C1569 1.429 . S
C1550 H1574 0.950 . S
C1551 C1568 1.574 . S
C1551 C1570 1.368 . S
C1551 H1575 0.949 . S
H1552 C1556 0.949 . S
C1553 C1554 1.349 . S
C1553 C1555 1.327 . S
C1553 H1576 0.950 . S
C1554 C1553 1.349 . S
C1554 C1566 1.349 . S
C1555 C1553 1.327 . S
C1555 C1571 1.429 . S
C1555 H1577 0.950 . S
C1556 H1552 0.949 . S
C1556 C1564 1.574 . S
C1556 C1572 1.368 . S
H1557 C1565 0.950 . S
H1558 C1563 0.950 . S
H1559 C1564 0.949 . S
H1560 C1566 0.950 . S
H1561 C1567 0.950 . S
H1562 C1568 0.949 . S
C1563 H1558 0.950 . S
C1563 C1565 1.327 . S
C1563 C1569 1.429 . S
C1564 C1556 1.574 . S
C1564 H1559 0.949 . S
C1564 C1570 1.368 . S
C1565 C1549 1.349 . S
C1565 H1557 0.950 . S
C1565 C1563 1.327 . S
C1566 C1554 1.349 . S
C1566 H1560 0.950 . S
C1566 C1567 1.327 . S
C1567 H1561 0.950 . S
C1567 C1566 1.327 . S
C1567 C1571 1.429 . S
C1568 C1551 1.574 . S
C1568 H1562 0.949 . S
C1568 C1572 1.368 . S
C1569 C1550 1.429 . S
C1569 C1563 1.429 . S
C1569 C1570 1.523 . S
C1570 C1551 1.368 . S
C1570 C1564 1.368 . S
C1570 C1569 1.523 . S
C1571 C1555 1.429 . S
C1571 C1567 1.429 . S
C1571 C1572 1.523 . S
C1572 C1556 1.368 . S
C1572 C1568 1.368 . S
C1572 C1571 1.523 . S
H1573 C1548 0.950 . S
H1574 C1550 0.950 . S
H1575 C1551 0.949 . S
H1576 C1553 0.950 . S
H1577 C1555 0.950 . S
C1578 C1579 1.349 . S
C1578 C1580 1.327 1_545 S
C1578 H1603 0.950 . S
C1579 C1578 1.349 . S
C1579 C1595 1.349 . S
C1580 C1578 1.327 1_565 S
C1580 C1599 1.429 . S
C1580 H1604 0.950 . S
C1581 C1598 1.574 . S
C1581 C1600 1.368 . S
C1581 H1605 0.949 . S
H1582 C1586 0.949 . S
C1583 C1584 1.349 . S
C1583 C1585 1.327 . S
C1583 H1606 0.950 . S
C1584 C1583 1.349 . S
C1584 C1596 1.349 . S
C1585 C1583 1.327 . S
C1585 C1601 1.429 . S
C1585 H1607 0.950 . S
C1586 H1582 0.949 . S
C1586 C1594 1.574 . S
C1586 C1602 1.368 . S
H1587 C1595 0.950 . S
H1588 C1593 0.950 . S
H1589 C1594 0.949 . S
H1590 C1596 0.950 . S
H1591 C1597 0.950 . S
H1592 C1598 0.949 . S
C1593 H1588 0.950 . S
C1593 C1595 1.327 1_565 S
C1593 C1599 1.429 . S
C1594 C1586 1.574 . S
C1594 H1589 0.949 . S
C1594 C1600 1.368 . S
C1595 C1579 1.349 . S
C1595 H1587 0.950 . S
C1595 C1593 1.327 1_545 S
C1596 C1584 1.349 . S
C1596 H1590 0.950 . S
C1596 C1597 1.327 . S
C1597 H1591 0.950 . S
C1597 C1596 1.327 . S
C1597 C1601 1.429 . S
C1598 C1581 1.574 . S
C1598 H1592 0.949 . S
C1598 C1602 1.368 . S
C1599 C1580 1.429 . S
C1599 C1593 1.429 . S
C1599 C1600 1.523 . S
C1600 C1581 1.368 . S
C1600 C1594 1.368 . S
C1600 C1599 1.523 . S
C1601 C1585 1.429 . S
C1601 C1597 1.429 . S
C1601 C1602 1.523 . S
C1602 C1586 1.368 . S
C1602 C1598 1.368 . S
C1602 C1601 1.523 . S
H1603 C1578 0.950 . S
H1604 C1580 0.950 . S
H1605 C1581 0.949 . S
H1606 C1583 0.950 . S
H1607 C1585 0.950 . S
C1608 C1609 1.349 . S
C1608 C1610 1.327 . S
C1608 H1633 0.950 . S
C1609 C1608 1.349 . S
C1609 C1625 1.349 . S
C1610 C1608 1.327 . S
C1610 C1629 1.429 . S
C1610 H1634 0.950 . S
C1611 C1628 1.574 . S
C1611 C1630 1.368 . S
C1611 H1635 0.949 . S
H1612 C1616 0.949 . S
C1613 C1614 1.349 . S
C1613 C1615 1.327 1_554 S
C1613 H1636 0.950 . S
C1614 C1613 1.349 . S
C1614 C1626 1.349 . S
C1615 C1613 1.327 1_556 S
C1615 C1631 1.429 . S
C1615 H1637 0.950 . S
C1616 H1612 0.949 . S
C1616 C1624 1.574 . S
C1616 C1632 1.368 . S
H1617 C1625 0.950 . S
H1618 C1623 0.950 . S
H1619 C1624 0.949 . S
H1620 C1626 0.950 . S
H1621 C1627 0.950 . S
H1622 C1628 0.949 . S
C1623 H1618 0.950 . S
C1623 C1625 1.327 . S
C1623 C1629 1.429 . S
C1624 C1616 1.574 . S
C1624 H1619 0.949 . S
C1624 C1630 1.368 . S
C1625 C1609 1.349 . S
C1625 H1617 0.950 . S
C1625 C1623 1.327 . S
C1626 C1614 1.349 . S
C1626 H1620 0.950 . S
C1626 C1627 1.327 1_554 S
C1627 H1621 0.950 . S
C1627 C1626 1.327 1_556 S
C1627 C1631 1.429 . S
C1628 C1611 1.574 . S
C1628 H1622 0.949 . S
C1628 C1632 1.368 . S
C1629 C1610 1.429 . S
C1629 C1623 1.429 . S
C1629 C1630 1.523 . S
C1630 C1611 1.368 . S
C1630 C1624 1.368 . S
C1630 C1629 1.523 . S
C1631 C1615 1.429 . S
C1631 C1627 1.429 . S
C1631 C1632 1.523 . S
C1632 C1616 1.368 . S
C1632 C1628 1.368 . S
C1632 C1631 1.523 . S
H1633 C1608 0.950 . S
H1634 C1610 0.950 . S
H1635 C1611 0.949 . S
H1636 C1613 0.950 . S
H1637 C1615 0.950 . S
C1638 C1639 1.349 . S
C1638 C1640 1.327 . S
C1638 H1663 0.950 . S
C1639 C1638 1.349 . S
C1639 C1655 1.349 . S
C1640 C1638 1.327 . S
C1640 C1659 1.429 . S
C1640 H1664 0.950 . S
C1641 C1658 1.574 . S
C1641 C1660 1.368 . S
C1641 H1665 0.949 . S
H1642 C1646 0.949 . S
C1643 C1644 1.349 . S
C1643 C1645 1.327 . S
C1643 H1666 0.950 . S
C1644 C1643 1.349 . S
C1644 C1656 1.349 . S
C1645 C1643 1.327 . S
C1645 C1661 1.429 . S
C1645 H1667 0.950 . S
C1646 H1642 0.949 . S
C1646 C1654 1.574 . S
C1646 C1662 1.368 . S
H1647 C1655 0.950 . S
H1648 C1653 0.950 . S
H1649 C1654 0.949 . S
H1650 C1656 0.950 . S
H1651 C1657 0.950 . S
H1652 C1658 0.949 . S
C1653 H1648 0.950 . S
C1653 C1655 1.327 . S
C1653 C1659 1.429 . S
C1654 C1646 1.574 . S
C1654 H1649 0.949 . S
C1654 C1660 1.368 . S
C1655 C1639 1.349 . S
C1655 H1647 0.950 . S
C1655 C1653 1.327 . S
C1656 C1644 1.349 . S
C1656 H1650 0.950 . S
C1656 C1657 1.327 . S
C1657 H1651 0.950 . S
C1657 C1656 1.327 . S
C1657 C1661 1.429 . S
C1658 C1641 1.574 . S
C1658 H1652 0.949 . S
C1658 C1662 1.368 . S
C1659 C1640 1.429 . S
C1659 C1653 1.429 . S
C1659 C1660 1.523 . S
C1660 C1641 1.368 . S
C1660 C1654 1.368 . S
C1660 C1659 1.523 . S
C1661 C1645 1.429 . S
C1661 C1657 1.429 . S
C1661 C1662 1.523 . S
C1662 C1646 1.368 . S
C1662 C1658 1.368 . S
C1662 C1661 1.523 . S
H1663 C1638 0.950 . S
H1664 C1640 0.950 . S
H1665 C1641 0.949 . S
H1666 C1643 0.950 . S
H1667 C1645 0.950 . S
C1668 C1669 1.349 . S
C1668 C1670 1.327 . S
C1668 H1693 0.950 . S
C1669 C1668 1.349 . S
C1669 C1685 1.349 . S
C1670 C1668 1.327 . S
C1670 C1689 1.429 . S
C1670 H1694 0.950 . S
C1671 C1688 1.574 . S
C1671 C1690 1.368 . S
C1671 H1695 0.949 . S
H1672 C1676 0.949 . S
C1673 C1674 1.349 . S
C1673 C1675 1.327 1_556 S
C1673 H1696 0.950 . S
C1674 C1673 1.349 . S
C1674 C1686 1.349 . S
C1675 C1673 1.327 1_554 S
C1675 C1691 1.429 . S
C1675 H1697 0.950 . S
C1676 H1672 0.949 . S
C1676 C1684 1.574 . S
C1676 C1692 1.368 . S
H1677 C1685 0.950 . S
H1678 C1683 0.950 . S
H1679 C1684 0.949 . S
H1680 C1686 0.950 . S
H1681 C1687 0.950 . S
H1682 C1688 0.949 . S
C1683 H1678 0.950 . S
C1683 C1685 1.327 . S
C1683 C1689 1.429 . S
C1684 C1676 1.574 . S
C1684 H1679 0.949 . S
C1684 C1690 1.368 . S
C1685 C1669 1.349 . S
C1685 H1677 0.950 . S
C1685 C1683 1.327 . S
C1686 C1674 1.349 . S
C1686 H1680 0.950 . S
C1686 C1687 1.327 1_556 S
C1687 H1681 0.950 . S
C1687 C1686 1.327 1_554 S
C1687 C1691 1.429 . S
C1688 C1671 1.574 . S
C1688 H1682 0.949 . S
C1688 C1692 1.368 . S
C1689 C1670 1.429 . S
C1689 C1683 1.429 . S
C1689 C1690 1.523 . S
C1690 C1671 1.368 . S
C1690 C1684 1.368 . S
C1690 C1689 1.523 . S
C1691 C1675 1.429 . S
C1691 C1687 1.429 . S
C1691 C1692 1.523 . S
C1692 C1676 1.368 . S
C1692 C1688 1.368 . S
C1692 C1691 1.523 . S
H1693 C1668 0.950 . S
H1694 C1670 0.950 . S
H1695 C1671 0.949 . S
H1696 C1673 0.950 . S
H1697 C1675 0.950 . S
C1698 C1699 1.349 . S
C1698 C1700 1.327 . S
C1698 H1723 0.950 . S
C1699 C1698 1.349 . S
C1699 C1715 1.349 . S
C1700 C1698 1.327 . S
C1700 C1719 1.429 . S
C1700 H1724 0.950 . S
C1701 C1718 1.574 . S
C1701 C1720 1.368 . S
C1701 H1725 0.949 . S
H1702 C1706 0.949 . S
C1703 C1704 1.349 . S
C1703 C1705 1.327 . S
C1703 H1726 0.950 . S
C1704 C1703 1.349 . S
C1704 C1716 1.349 . S
C1705 C1703 1.327 . S
C1705 C1721 1.429 . S
C1705 H1727 0.950 . S
C1706 H1702 0.949 . S
C1706 C1714 1.574 . S
C1706 C1722 1.368 . S
H1707 C1715 0.950 . S
H1708 C1713 0.950 . S
H1709 C1714 0.949 . S
H1710 C1716 0.950 . S
H1711 C1717 0.950 . S
H1712 C1718 0.949 . S
C1713 H1708 0.950 . S
C1713 C1715 1.327 . S
C1713 C1719 1.429 . S
C1714 C1706 1.574 . S
C1714 H1709 0.949 . S
C1714 C1720 1.368 . S
C1715 C1699 1.349 . S
C1715 H1707 0.950 . S
C1715 C1713 1.327 . S
C1716 C1704 1.349 . S
C1716 H1710 0.950 . S
C1716 C1717 1.327 . S
C1717 H1711 0.950 . S
C1717 C1716 1.327 . S
C1717 C1721 1.429 . S
C1718 C1701 1.574 . S
C1718 H1712 0.949 . S
C1718 C1722 1.368 . S
C1719 C1700 1.429 . S
C1719 C1713 1.429 . S
C1719 C1720 1.523 . S
C1720 C1701 1.368 . S
C1720 C1714 1.368 . S
C1720 C1719 1.523 . S
C1721 C1705 1.429 . S
C1721 C1717 1.429 . S
C1721 C1722 1.523 . S
C1722 C1706 1.368 . S
C1722 C1718 1.368 . S
C1722 C1721 1.523 . S
H1723 C1698 0.950 . S
H1724 C1700 0.950 . S
H1725 C1701 0.949 . S
H1726 C1703 0.950 . S
H1727 C1705 0.950 . S
C1728 C1729 1.349 . S
C1728 C1730 1.327 1_455 S
C1728 H1753 0.950 . S
C1729 C1728 1.349 . S
C1729 C1745 1.349 . S
C1730 C1728 1.327 1_655 S
C1730 C1749 1.429 . S
C1730 H1754 0.950 . S
C1731 C1748 1.574 . S
C1731 C1750 1.368 . S
C1731 H1755 0.949 . S
H1732 C1736 0.949 . S
C1733 C1734 1.349 . S
C1733 C1735 1.327 . S
C1733 H1756 0.950 . S
C1734 C1733 1.349 . S
C1734 C1746 1.349 . S
C1735 C1733 1.327 . S
C1735 C1751 1.429 . S
C1735 H1757 0.950 . S
C1736 H1732 0.949 . S
C1736 C1744 1.574 . S
C1736 C1752 1.368 . S
H1737 C1745 0.950 . S
H1738 C1743 0.950 . S
H1739 C1744 0.949 . S
H1740 C1746 0.950 . S
H1741 C1747 0.950 . S
H1742 C1748 0.949 . S
C1743 H1738 0.950 . S
C1743 C1745 1.327 1_655 S
C1743 C1749 1.429 . S
C1744 C1736 1.574 . S
C1744 H1739 0.949 . S
C1744 C1750 1.368 . S
C1745 C1729 1.349 . S
C1745 H1737 0.950 . S
C1745 C1743 1.327 1_455 S
C1746 C1734 1.349 . S
C1746 H1740 0.950 . S
C1746 C1747 1.327 . S
C1747 H1741 0.950 . S
C1747 C1746 1.327 . S
C1747 C1751 1.429 . S
C1748 C1731 1.574 . S
C1748 H1742 0.949 . S
C1748 C1752 1.368 . S
C1749 C1730 1.429 . S
C1749 C1743 1.429 . S
C1749 C1750 1.523 . S
C1750 C1731 1.368 . S
C1750 C1744 1.368 . S
C1750 C1749 1.523 . S
C1751 C1735 1.429 . S
C1751 C1747 1.429 . S
C1751 C1752 1.523 . S
C1752 C1736 1.368 . S
C1752 C1748 1.368 . S
C1752 C1751 1.523 . S
H1753 C1728 0.950 . S
H1754 C1730 0.950 . S
H1755 C1731 0.949 . S
H1756 C1733 0.950 . S
H1757 C1735 0.950 . S
C1758 C1759 1.349 . S
C1758 C1760 1.327 . S
C1758 H1783 0.950 . S
C1759 C1758 1.349 . S
C1759 C1775 1.349 . S
C1760 C1758 1.327 . S
C1760 C1779 1.429 . S
C1760 H1784 0.950 . S
C1761 C1778 1.574 . S
C1761 C1780 1.368 . S
C1761 H1785 0.949 . S
H1762 C1766 0.949 . S
C1763 C1764 1.349 . S
C1763 C1765 1.327 . S
C1763 H1786 0.950 . S
C1764 C1763 1.349 . S
C1764 C1776 1.349 . S
C1765 C1763 1.327 . S
C1765 C1781 1.429 . S
C1765 H1787 0.950 . S
C1766 H1762 0.949 . S
C1766 C1774 1.574 . S
C1766 C1782 1.368 . S
H1767 C1775 0.950 . S
H1768 C1773 0.950 . S
H1769 C1774 0.949 . S
H1770 C1776 0.950 . S
H1771 C1777 0.950 . S
H1772 C1778 0.949 . S
C1773 H1768 0.950 . S
C1773 C1775 1.327 . S
C1773 C1779 1.429 . S
C1774 C1766 1.574 . S
C1774 H1769 0.949 . S
C1774 C1780 1.368 . S
C1775 C1759 1.349 . S
C1775 H1767 0.950 . S
C1775 C1773 1.327 . S
C1776 C1764 1.349 . S
C1776 H1770 0.950 . S
C1776 C1777 1.327 . S
C1777 H1771 0.950 . S
C1777 C1776 1.327 . S
C1777 C1781 1.429 . S
C1778 C1761 1.574 . S
C1778 H1772 0.949 . S
C1778 C1782 1.368 . S
C1779 C1760 1.429 . S
C1779 C1773 1.429 . S
C1779 C1780 1.523 . S
C1780 C1761 1.368 . S
C1780 C1774 1.368 . S
C1780 C1779 1.523 . S
C1781 C1765 1.429 . S
C1781 C1777 1.429 . S
C1781 C1782 1.523 . S
C1782 C1766 1.368 . S
C1782 C1778 1.368 . S
C1782 C1781 1.523 . S
H1783 C1758 0.950 . S
H1784 C1760 0.950 . S
H1785 C1761 0.949 . S
H1786 C1763 0.950 . S
H1787 C1765 0.950 . S
C1788 C1789 1.349 . S
C1788 C1790 1.327 . S
C1788 H1813 0.950 . S
C1789 C1788 1.349 . S
C1789 C1805 1.349 . S
C1790 C1788 1.327 . S
C1790 C1809 1.429 . S
C1790 H1814 0.950 . S
C1791 C1808 1.574 . S
C1791 C1810 1.368 . S
C1791 H1815 0.949 . S
H1792 C1796 0.949 . S
C1793 C1794 1.349 . S
C1793 C1795 1.327 . S
C1793 H1816 0.950 . S
C1794 C1793 1.349 . S
C1794 C1806 1.349 . S
C1795 C1793 1.327 . S
C1795 C1811 1.429 . S
C1795 H1817 0.950 . S
C1796 H1792 0.949 . S
C1796 C1804 1.574 . S
C1796 C1812 1.368 . S
H1797 C1805 0.950 . S
H1798 C1803 0.950 . S
H1799 C1804 0.949 . S
H1800 C1806 0.950 . S
H1801 C1807 0.950 . S
H1802 C1808 0.949 . S
C1803 H1798 0.950 . S
C1803 C1805 1.327 . S
C1803 C1809 1.429 . S
C1804 C1796 1.574 . S
C1804 H1799 0.949 . S
C1804 C1810 1.368 . S
C1805 C1789 1.349 . S
C1805 H1797 0.950 . S
C1805 C1803 1.327 . S
C1806 C1794 1.349 . S
C1806 H1800 0.950 . S
C1806 C1807 1.327 . S
C1807 H1801 0.950 . S
C1807 C1806 1.327 . S
C1807 C1811 1.429 . S
C1808 C1791 1.574 . S
C1808 H1802 0.949 . S
C1808 C1812 1.368 . S
C1809 C1790 1.429 . S
C1809 C1803 1.429 . S
C1809 C1810 1.523 . S
C1810 C1791 1.368 . S
C1810 C1804 1.368 . S
C1810 C1809 1.523 . S
C1811 C1795 1.429 . S
C1811 C1807 1.429 . S
C1811 C1812 1.523 . S
C1812 C1796 1.368 . S
C1812 C1808 1.368 . S
C1812 C1811 1.523 . S
H1813 C1788 0.950 . S
H1814 C1790 0.950 . S
H1815 C1791 0.949 . S
H1816 C1793 0.950 . S
H1817 C1795 0.950 . S
C1818 C1819 1.349 . S
C1818 C1820 1.327 . S
C1818 H1843 0.950 . S
C1819 C1818 1.349 . S
C1819 C1835 1.349 . S
C1820 C1818 1.327 . S
C1820 C1839 1.429 . S
C1820 H1844 0.950 . S
C1821 C1838 1.574 . S
C1821 C1840 1.368 . S
C1821 H1845 0.949 . S
H1822 C1826 0.949 . S
C1823 C1824 1.349 . S
C1823 C1825 1.327 1_655 S
C1823 H1846 0.950 . S
C1824 C1823 1.349 . S
C1824 C1836 1.349 . S
C1825 C1823 1.327 1_455 S
C1825 C1841 1.429 . S
C1825 H1847 0.950 . S
C1826 H1822 0.949 . S
C1826 C1834 1.574 . S
C1826 C1842 1.368 . S
H1827 C1835 0.950 . S
H1828 C1833 0.950 . S
H1829 C1834 0.949 . S
H1830 C1836 0.950 . S
H1831 C1837 0.950 . S
H1832 C1838 0.949 . S
C1833 H1828 0.950 . S
C1833 C1835 1.327 . S
C1833 C1839 1.429 . S
C1834 C1826 1.574 . S
C1834 H1829 0.949 . S
C1834 C1840 1.368 . S
C1835 C1819 1.349 . S
C1835 H1827 0.950 . S
C1835 C1833 1.327 . S
C1836 C1824 1.349 . S
C1836 H1830 0.950 . S
C1836 C1837 1.327 1_655 S
C1837 H1831 0.950 . S
C1837 C1836 1.327 1_455 S
C1837 C1841 1.429 . S
C1838 C1821 1.574 . S
C1838 H1832 0.949 . S
C1838 C1842 1.368 . S
C1839 C1820 1.429 . S
C1839 C1833 1.429 . S
C1839 C1840 1.523 . S
C1840 C1821 1.368 . S
C1840 C1834 1.368 . S
C1840 C1839 1.523 . S
C1841 C1825 1.429 . S
C1841 C1837 1.429 . S
C1841 C1842 1.523 . S
C1842 C1826 1.368 . S
C1842 C1838 1.368 . S
C1842 C1841 1.523 . S
H1843 C1818 0.950 . S
H1844 C1820 0.950 . S
H1845 C1821 0.949 . S
H1846 C1823 0.950 . S
H1847 C1825 0.950 . S
C1848 C1849 1.349 . S
C1848 C1850 1.327 1_545 S
C1848 H1873 0.950 . S
C1849 C1848 1.349 . S
C1849 C1865 1.349 . S
C1850 C1848 1.327 1_565 S
C1850 C1869 1.429 . S
C1850 H1874 0.950 . S
C1851 C1868 1.574 . S
C1851 C1870 1.368 . S
C1851 H1875 0.949 . S
H1852 C1856 0.949 . S
C1853 C1854 1.349 . S
C1853 C1855 1.327 . S
C1853 H1876 0.950 . S
C1854 C1853 1.349 . S
C1854 C1866 1.349 . S
C1855 C1853 1.327 . S
C1855 C1871 1.429 . S
C1855 H1877 0.950 . S
C1856 H1852 0.949 . S
C1856 C1864 1.574 . S
C1856 C1872 1.368 . S
H1857 C1865 0.950 . S
H1858 C1863 0.950 . S
H1859 C1864 0.949 . S
H1860 C1866 0.950 . S
H1861 C1867 0.950 . S
H1862 C1868 0.949 . S
C1863 H1858 0.950 . S
C1863 C1865 1.327 1_565 S
C1863 C1869 1.429 . S
C1864 C1856 1.574 . S
C1864 H1859 0.949 . S
C1864 C1870 1.368 . S
C1865 C1849 1.349 . S
C1865 H1857 0.950 . S
C1865 C1863 1.327 1_545 S
C1866 C1854 1.349 . S
C1866 H1860 0.950 . S
C1866 C1867 1.327 . S
C1867 H1861 0.950 . S
C1867 C1866 1.327 . S
C1867 C1871 1.429 . S
C1868 C1851 1.574 . S
C1868 H1862 0.949 . S
C1868 C1872 1.368 . S
C1869 C1850 1.429 . S
C1869 C1863 1.429 . S
C1869 C1870 1.523 . S
C1870 C1851 1.368 . S
C1870 C1864 1.368 . S
C1870 C1869 1.523 . S
C1871 C1855 1.429 . S
C1871 C1867 1.429 . S
C1871 C1872 1.523 . S
C1872 C1856 1.368 . S
C1872 C1868 1.368 . S
C1872 C1871 1.523 . S
H1873 C1848 0.950 . S
H1874 C1850 0.950 . S
H1875 C1851 0.949 . S
H1876 C1853 0.950 . S
H1877 C1855 0.950 . S
C1878 C1879 1.349 . S
C1878 C1880 1.327 . S
C1878 H1903 0.950 . S
C1879 C1878 1.349 . S
C1879 C1895 1.349 . S
C1880 C1878 1.327 . S
C1880 C1899 1.429 . S
C1880 H1904 0.950 . S
C1881 C1898 1.574 . S
C1881 C1900 1.368 . S
C1881 H1905 0.949 . S
H1882 C1886 0.949 . S
C1883 C1884 1.349 . S
C1883 C1885 1.327 . S
C1883 H1906 0.950 . S
C1884 C1883 1.349 . S
C1884 C1896 1.349 . S
C1885 C1883 1.327 . S
C1885 C1901 1.429 . S
C1885 H1907 0.950 . S
C1886 H1882 0.949 . S
C1886 C1894 1.574 . S
C1886 C1902 1.368 . S
H1887 C1895 0.950 . S
H1888 C1893 0.950 . S
H1889 C1894 0.949 . S
H1890 C1896 0.950 . S
H1891 C1897 0.950 . S
H1892 C1898 0.949 . S
C1893 H1888 0.950 . S
C1893 C1895 1.327 . S
C1893 C1899 1.429 . S
C1894 C1886 1.574 . S
C1894 H1889 0.949 . S
C1894 C1900 1.368 . S
C1895 C1879 1.349 . S
C1895 H1887 0.950 . S
C1895 C1893 1.327 . S
C1896 C1884 1.349 . S
C1896 H1890 0.950 . S
C1896 C1897 1.327 . S
C1897 H1891 0.950 . S
C1897 C1896 1.327 . S
C1897 C1901 1.429 . S
C1898 C1881 1.574 . S
C1898 H1892 0.949 . S
C1898 C1902 1.368 . S
C1899 C1880 1.429 . S
C1899 C1893 1.429 . S
C1899 C1900 1.523 . S
C1900 C1881 1.368 . S
C1900 C1894 1.368 . S
C1900 C1899 1.523 . S
C1901 C1885 1.429 . S
C1901 C1897 1.429 . S
C1901 C1902 1.523 . S
C1902 C1886 1.368 . S
C1902 C1898 1.368 . S
C1902 C1901 1.523 . S
H1903 C1878 0.950 . S
H1904 C1880 0.950 . S
H1905 C1881 0.949 . S
H1906 C1883 0.950 . S
H1907 C1885 0.950 . S
C1908 C1909 1.349 . S
C1908 C1910 1.327 . S
C1908 H1933 0.950 . S
C1909 C1908 1.349 . S
C1909 C1925 1.349 . S
C1910 C1908 1.327 . S
C1910 C1929 1.429 . S
C1910 H1934 0.950 . S
C1911 C1928 1.574 . S
C1911 C1930 1.368 . S
C1911 H1935 0.949 . S
H1912 C1916 0.949 . S
C1913 C1914 1.349 . S
C1913 C1915 1.327 . S
C1913 H1936 0.950 . S
C1914 C1913 1.349 . S
C1914 C1926 1.349 . S
C1915 C1913 1.327 . S
C1915 C1931 1.429 . S
C1915 H1937 0.950 . S
C1916 H1912 0.949 . S
C1916 C1924 1.574 . S
C1916 C1932 1.368 . S
H1917 C1925 0.950 . S
H1918 C1923 0.950 . S
H1919 C1924 0.949 . S
H1920 C1926 0.950 . S
H1921 C1927 0.950 . S
H1922 C1928 0.949 . S
C1923 H1918 0.950 . S
C1923 C1925 1.327 . S
C1923 C1929 1.429 . S
C1924 C1916 1.574 . S
C1924 H1919 0.949 . S
C1924 C1930 1.368 . S
C1925 C1909 1.349 . S
C1925 H1917 0.950 . S
C1925 C1923 1.327 . S
C1926 C1914 1.349 . S
C1926 H1920 0.950 . S
C1926 C1927 1.327 . S
C1927 H1921 0.950 . S
C1927 C1926 1.327 . S
C1927 C1931 1.429 . S
C1928 C1911 1.574 . S
C1928 H1922 0.949 . S
C1928 C1932 1.368 . S
C1929 C1910 1.429 . S
C1929 C1923 1.429 . S
C1929 C1930 1.523 . S
C1930 C1911 1.368 . S
C1930 C1924 1.368 . S
C1930 C1929 1.523 . S
C1931 C1915 1.429 . S
C1931 C1927 1.429 . S
C1931 C1932 1.523 . S
C1932 C1916 1.368 . S
C1932 C1928 1.368 . S
C1932 C1931 1.523 . S
H1933 C1908 0.950 . S
H1934 C1910 0.950 . S
H1935 C1911 0.949 . S
H1936 C1913 0.950 . S
H1937 C1915 0.950 . S
C1938 C1939 1.349 . S
C1938 C1940 1.327 . S
C1938 H1963 0.950 . S
C1939 C1938 1.349 . S
C1939 C1955 1.349 . S
C1940 C1938 1.327 . S
C1940 C1959 1.429 . S
C1940 H1964 0.950 . S
C1941 C1958 1.574 . S
C1941 C1960 1.368 . S
C1941 H1965 0.949 . S
H1942 C1946 0.949 . S
C1943 C1944 1.349 . S
C1943 C1945 1.327 1_565 S
C1943 H1966 0.950 . S
C1944 C1943 1.349 . S
C1944 C1956 1.349 . S
C1945 C1943 1.327 1_545 S
C1945 C1961 1.429 . S
C1945 H1967 0.950 . S
C1946 H1942 0.949 . S
C1946 C1954 1.574 . S
C1946 C1962 1.368 . S
H1947 C1955 0.950 . S
H1948 C1953 0.950 . S
H1949 C1954 0.949 . S
H1950 C1956 0.950 . S
H1951 C1957 0.950 . S
H1952 C1958 0.949 . S
C1953 H1948 0.950 . S
C1953 C1955 1.327 . S
C1953 C1959 1.429 . S
C1954 C1946 1.574 . S
C1954 H1949 0.949 . S
C1954 C1960 1.368 . S
C1955 C1939 1.349 . S
C1955 H1947 0.950 . S
C1955 C1953 1.327 . S
C1956 C1944 1.349 . S
C1956 H1950 0.950 . S
C1956 C1957 1.327 1_565 S
C1957 H1951 0.950 . S
C1957 C1956 1.327 1_545 S
C1957 C1961 1.429 . S
C1958 C1941 1.574 . S
C1958 H1952 0.949 . S
C1958 C1962 1.368 . S
C1959 C1940 1.429 . S
C1959 C1953 1.429 . S
C1959 C1960 1.523 . S
C1960 C1941 1.368 . S
C1960 C1954 1.368 . S
C1960 C1959 1.523 . S
C1961 C1945 1.429 . S
C1961 C1957 1.429 . S
C1961 C1962 1.523 . S
C1962 C1946 1.368 . S
C1962 C1958 1.368 . S
C1962 C1961 1.523 . S
H1963 C1938 0.950 . S
H1964 C1940 0.950 . S
H1965 C1941 0.949 . S
H1966 C1943 0.950 . S
H1967 C1945 0.950 . S
C1968 C1969 1.349 . S
C1968 C1970 1.327 . S
C1968 H1993 0.950 . S
C1969 C1968 1.349 . S
C1969 C1985 1.349 . S
C1970 C1968 1.327 . S
C1970 C1989 1.429 . S
C1970 H1994 0.950 . S
C1971 C1988 1.574 . S
C1971 C1990 1.368 . S
C1971 H1995 0.949 . S
H1972 C1976 0.949 . S
C1973 C1974 1.349 . S
C1973 C1975 1.327 . S
C1973 H1996 0.950 . S
C1974 C1973 1.349 . S
C1974 C1986 1.349 . S
C1975 C1973 1.327 . S
C1975 C1991 1.429 . S
C1975 H1997 0.950 . S
C1976 H1972 0.949 . S
C1976 C1984 1.574 . S
C1976 C1992 1.368 . S
H1977 C1985 0.950 . S
H1978 C1983 0.950 . S
H1979 C1984 0.949 . S
H1980 C1986 0.950 . S
H1981 C1987 0.950 . S
H1982 C1988 0.949 . S
C1983 H1978 0.950 . S
C1983 C1985 1.327 . S
C1983 C1989 1.429 . S
C1984 C1976 1.574 . S
C1984 H1979 0.949 . S
C1984 C1990 1.368 . S
C1985 C1969 1.349 . S
C1985 H1977 0.950 . S
C1985 C1983 1.327 . S
C1986 C1974 1.349 . S
C1986 H1980 0.950 . S
C1986 C1987 1.327 . S
C1987 H1981 0.950 . S
C1987 C1986 1.327 . S
C1987 C1991 1.429 . S
C1988 C1971 1.574 . S
C1988 H1982 0.949 . S
C1988 C1992 1.368 . S
C1989 C1970 1.429 . S
C1989 C1983 1.429 . S
C1989 C1990 1.523 . S
C1990 C1971 1.368 . S
C1990 C1984 1.368 . S
C1990 C1989 1.523 . S
C1991 C1975 1.429 . S
C1991 C1987 1.429 . S
C1991 C1992 1.523 . S
C1992 C1976 1.368 . S
C1992 C1988 1.368 . S
C1992 C1991 1.523 . S
H1993 C1968 0.950 . S
H1994 C1970 0.950 . S
H1995 C1971 0.949 . S
H1996 C1973 0.950 . S
H1997 C1975 0.950 . S
C1998 C1999 1.349 . S
C1998 C2000 1.327 . S
C1998 H2023 0.950 . S
C1999 C1998 1.349 . S
C1999 C2015 1.349 . S
C2000 C1998 1.327 . S
C2000 C2019 1.429 . S
C2000 H2024 0.950 . S
C2001 C2018 1.574 . S
C2001 C2020 1.368 . S
C2001 H2025 0.949 . S
H2002 C2006 0.949 . S
C2003 C2004 1.349 . S
C2003 C2005 1.327 . S
C2003 H2026 0.950 . S
C2004 C2003 1.349 . S
C2004 C2016 1.349 . S
C2005 C2003 1.327 . S
C2005 C2021 1.429 . S
C2005 H2027 0.950 . S
C2006 H2002 0.949 . S
C2006 C2014 1.574 . S
C2006 C2022 1.368 . S
H2007 C2015 0.950 . S
H2008 C2013 0.950 . S
H2009 C2014 0.949 . S
H2010 C2016 0.950 . S
H2011 C2017 0.950 . S
H2012 C2018 0.949 . S
C2013 H2008 0.950 . S
C2013 C2015 1.327 . S
C2013 C2019 1.429 . S
C2014 C2006 1.574 . S
C2014 H2009 0.949 . S
C2014 C2020 1.368 . S
C2015 C1999 1.349 . S
C2015 H2007 0.950 . S
C2015 C2013 1.327 . S
C2016 C2004 1.349 . S
C2016 H2010 0.950 . S
C2016 C2017 1.327 . S
C2017 H2011 0.950 . S
C2017 C2016 1.327 . S
C2017 C2021 1.429 . S
C2018 C2001 1.574 . S
C2018 H2012 0.949 . S
C2018 C2022 1.368 . S
C2019 C2000 1.429 . S
C2019 C2013 1.429 . S
C2019 C2020 1.523 . S
C2020 C2001 1.368 . S
C2020 C2014 1.368 . S
C2020 C2019 1.523 . S
C2021 C2005 1.429 . S
C2021 C2017 1.429 . S
C2021 C2022 1.523 . S
C2022 C2006 1.368 . S
C2022 C2018 1.368 . S
C2022 C2021 1.523 . S
H2023 C1998 0.950 . S
H2024 C2000 0.950 . S
H2025 C2001 0.949 . S
H2026 C2003 0.950 . S
H2027 C2005 0.950 . S
C2028 C2029 1.349 . S
C2028 C2030 1.327 . S
C2028 H2053 0.950 . S
C2029 C2028 1.349 . S
C2029 C2045 1.349 . S
C2030 C2028 1.327 . S
C2030 C2049 1.429 . S
C2030 H2054 0.950 . S
C2031 C2048 1.574 . S
C2031 C2050 1.368 . S
C2031 H2055 0.949 . S
H2032 C2036 0.949 . S
C2033 C2034 1.349 . S
C2033 C2035 1.327 . S
C2033 H2056 0.950 . S
C2034 C2033 1.349 . S
C2034 C2046 1.349 . S
C2035 C2033 1.327 . S
C2035 C2051 1.429 . S
C2035 H2057 0.950 . S
C2036 H2032 0.949 . S
C2036 C2044 1.574 . S
C2036 C2052 1.368 . S
H2037 C2045 0.950 . S
H2038 C2043 0.950 . S
H2039 C2044 0.949 . S
H2040 C2046 0.950 . S
H2041 C2047 0.950 . S
H2042 C2048 0.949 . S
C2043 H2038 0.950 . S
C2043 C2045 1.327 . S
C2043 C2049 1.429 . S
C2044 C2036 1.574 . S
C2044 H2039 0.949 . S
C2044 C2050 1.368 . S
C2045 C2029 1.349 . S
C2045 H2037 0.950 . S
C2045 C2043 1.327 . S
C2046 C2034 1.349 . S
C2046 H2040 0.950 . S
C2046 C2047 1.327 . S
C2047 H2041 0.950 . S
C2047 C2046 1.327 . S
C2047 C2051 1.429 . S
C2048 C2031 1.574 . S
C2048 H2042 0.949 . S
C2048 C2052 1.368 . S
C2049 C2030 1.429 . S
C2049 C2043 1.429 . S
C2049 C2050 1.523 . S
C2050 C2031 1.368 . S
C2050 C2044 1.368 . S
C2050 C2049 1.523 . S
C2051 C2035 1.429 . S
C2051 C2047 1.429 . S
C2051 C2052 1.523 . S
C2052 C2036 1.368 . S
C2052 C2048 1.368 . S
C2052 C2051 1.523 . S
H2053 C2028 0.950 . S
H2054 C2030 0.950 . S
H2055 C2031 0.949 . S
H2056 C2033 0.950 . S
H2057 C2035 0.950 . S
C2058 C2059 1.349 . S
C2058 C2060 1.327 . S
C2058 H2083 0.950 . S
C2059 C2058 1.349 . S
C2059 C2075 1.349 . S
C2060 C2058 1.327 . S
C2060 C2079 1.429 . S
C2060 H2084 0.950 . S
C2061 C2078 1.574 . S
C2061 C2080 1.368 . S
C2061 H2085 0.949 . S
H2062 C2066 0.949 . S
C2063 C2064 1.349 . S
C2063 C2065 1.327 . S
C2063 H2086 0.950 . S
C2064 C2063 1.349 . S
C2064 C2076 1.349 . S
C2065 C2063 1.327 . S
C2065 C2081 1.429 . S
C2065 H2087 0.950 . S
C2066 H2062 0.949 . S
C2066 C2074 1.574 . S
C2066 C2082 1.368 . S
H2067 C2075 0.950 . S
H2068 C2073 0.950 . S
H2069 C2074 0.949 . S
H2070 C2076 0.950 . S
H2071 C2077 0.950 . S
H2072 C2078 0.949 . S
C2073 H2068 0.950 . S
C2073 C2075 1.327 . S
C2073 C2079 1.429 . S
C2074 C2066 1.574 . S
C2074 H2069 0.949 . S
C2074 C2080 1.368 . S
C2075 C2059 1.349 . S
C2075 H2067 0.950 . S
C2075 C2073 1.327 . S
C2076 C2064 1.349 . S
C2076 H2070 0.950 . S
C2076 C2077 1.327 . S
C2077 H2071 0.950 . S
C2077 C2076 1.327 . S
C2077 C2081 1.429 . S
C2078 C2061 1.574 . S
C2078 H2072 0.949 . S
C2078 C2082 1.368 . S
C2079 C2060 1.429 . S
C2079 C2073 1.429 . S
C2079 C2080 1.523 . S
C2080 C2061 1.368 . S
C2080 C2074 1.368 . S
C2080 C2079 1.523 . S
C2081 C2065 1.429 . S
C2081 C2077 1.429 . S
C2081 C2082 1.523 . S
C2082 C2066 1.368 . S
C2082 C2078 1.368 . S
C2082 C2081 1.523 . S
H2083 C2058 0.950 . S
H2084 C2060 0.950 . S
H2085 C2061 0.949 . S
H2086 C2063 0.950 . S
H2087 C2065 0.950 . S
C2088 C2089 1.349 . S
C2088 C2090 1.327 . S
C2088 H2113 0.950 . S
C2089 C2088 1.349 . S
C2089 C2105 1.349 . S
C2090 C2088 1.327 . S
C2090 C2109 1.429 . S
C2090 H2114 0.950 . S
C2091 C2108 1.574 . S
C2091 C2110 1.368 . S
C2091 H2115 0.949 . S
H2092 C2096 0.949 . S
C2093 C2094 1.349 . S
C2093 C2095 1.327 . S
C2093 H2116 0.950 . S
C2094 C2093 1.349 . S
C2094 C2106 1.349 . S
C2095 C2093 1.327 . S
C2095 C2111 1.429 . S
C2095 H2117 0.950 . S
C2096 H2092 0.949 . S
C2096 C2104 1.574 . S
C2096 C2112 1.368 . S
H2097 C2105 0.950 . S
H2098 C2103 0.950 . S
H2099 C2104 0.949 . S
H2100 C2106 0.950 . S
H2101 C2107 0.950 . S
H2102 C2108 0.949 . S
C2103 H2098 0.950 . S
C2103 C2105 1.327 . S
C2103 C2109 1.429 . S
C2104 C2096 1.574 . S
C2104 H2099 0.949 . S
C2104 C2110 1.368 . S
C2105 C2089 1.349 . S
C2105 H2097 0.950 . S
C2105 C2103 1.327 . S
C2106 C2094 1.349 . S
C2106 H2100 0.950 . S
C2106 C2107 1.327 . S
C2107 H2101 0.950 . S
C2107 C2106 1.327 . S
C2107 C2111 1.429 . S
C2108 C2091 1.574 . S
C2108 H2102 0.949 . S
C2108 C2112 1.368 . S
C2109 C2090 1.429 . S
C2109 C2103 1.429 . S
C2109 C2110 1.523 . S
C2110 C2091 1.368 . S
C2110 C2104 1.368 . S
C2110 C2109 1.523 . S
C2111 C2095 1.429 . S
C2111 C2107 1.429 . S
C2111 C2112 1.523 . S
C2112 C2096 1.368 . S
C2112 C2108 1.368 . S
C2112 C2111 1.523 . S
H2113 C2088 0.950 . S
H2114 C2090 0.950 . S
H2115 C2091 0.949 . S
H2116 C2093 0.950 . S
H2117 C2095 0.950 . S
C2118 C2119 1.349 . S
C2118 C2120 1.327 . S
C2118 H2143 0.950 . S
C2119 C2118 1.349 . S
C2119 C2135 1.349 . S
C2120 C2118 1.327 . S
C2120 C2139 1.429 . S
C2120 H2144 0.950 . S
C2121 C2138 1.574 . S
C2121 C2140 1.368 . S
C2121 H2145 0.949 . S
H2122 C2126 0.949 . S
C2123 C2124 1.349 . S
C2123 C2125 1.327 . S
C2123 H2146 0.950 . S
C2124 C2123 1.349 . S
C2124 C2136 1.349 . S
C2125 C2123 1.327 . S
C2125 C2141 1.429 . S
C2125 H2147 0.950 . S
C2126 H2122 0.949 . S
C2126 C2134 1.574 . S
C2126 C2142 1.368 . S
H2127 C2135 0.950 . S
H2128 C2133 0.950 . S
H2129 C2134 0.949 . S
H2130 C2136 0.950 . S
H2131 C2137 0.950 . S
H2132 C2138 0.949 . S
C2133 H2128 0.950 . S
C2133 C2135 1.327 . S
C2133 C2139 1.429 . S
C2134 C2126 1.574 . S
C2134 H2129 0.949 . S
C2134 C2140 1.368 . S
C2135 C2119 1.349 . S
C2135 H2127 0.950 . S
C2135 C2133 1.327 . S
C2136 C2124 1.349 . S
C2136 H2130 0.950 . S
C2136 C2137 1.327 . S
C2137 H2131 0.950 . S
C2137 C2136 1.327 . S
C2137 C2141 1.429 . S
C2138 C2121 1.574 . S
C2138 H2132 0.949 . S
C2138 C2142 1.368 . S
C2139 C2120 1.429 . S
C2139 C2133 1.429 . S
C2139 C2140 1.523 . S
C2140 C2121 1.368 . S
C2140 C2134 1.368 . S
C2140 C2139 1.523 . S
C2141 C2125 1.429 . S
C2141 C2137 1.429 . S
C2141 C2142 1.523 . S
C2142 C2126 1.368 . S
C2142 C2138 1.368 . S
C2142 C2141 1.523 . S
H2143 C2118 0.950 . S
H2144 C2120 0.950 . S
H2145 C2121 0.949 . S
H2146 C2123 0.950 . S
H2147 C2125 0.950 . S
C2148 C2149 1.349 . S
C2148 C2150 1.327 . S
C2148 H2173 0.950 . S
C2149 C2148 1.349 . S
C2149 C2165 1.349 . S
C2150 C2148 1.327 . S
C2150 C2169 1.429 . S
C2150 H2174 0.950 . S
C2151 C2168 1.574 . S
C2151 C2170 1.368 . S
C2151 H2175 0.949 . S
H2152 C2156 0.949 . S
C2153 C2154 1.349 . S
C2153 C2155 1.327 . S
C2153 H2176 0.950 . S
C2154 C2153 1.349 . S
C2154 C2166 1.349 . S
C2155 C2153 1.327 . S
C2155 C2171 1.429 . S
C2155 H2177 0.950 . S
C2156 H2152 0.949 . S
C2156 C2164 1.574 . S
C2156 C2172 1.368 . S
H2157 C2165 0.950 . S
H2158 C2163 0.950 . S
H2159 C2164 0.949 . S
H2160 C2166 0.950 . S
H2161 C2167 0.950 . S
H2162 C2168 0.949 . S
C2163 H2158 0.950 . S
C2163 C2165 1.327 . S
C2163 C2169 1.429 . S
C2164 C2156 1.574 . S
C2164 H2159 0.949 . S
C2164 C2170 1.368 . S
C2165 C2149 1.349 . S
C2165 H2157 0.950 . S
C2165 C2163 1.327 . S
C2166 C2154 1.349 . S
C2166 H2160 0.950 . S
C2166 C2167 1.327 . S
C2167 H2161 0.950 . S
C2167 C2166 1.327 . S
C2167 C2171 1.429 . S
C2168 C2151 1.574 . S
C2168 H2162 0.949 . S
C2168 C2172 1.368 . S
C2169 C2150 1.429 . S
C2169 C2163 1.429 . S
C2169 C2170 1.523 . S
C2170 C2151 1.368 . S
C2170 C2164 1.368 . S
C2170 C2169 1.523 . S
C2171 C2155 1.429 . S
C2171 C2167 1.429 . S
C2171 C2172 1.523 . S
C2172 C2156 1.368 . S
C2172 C2168 1.368 . S
C2172 C2171 1.523 . S
H2173 C2148 0.950 . S
H2174 C2150 0.950 . S
H2175 C2151 0.949 . S
H2176 C2153 0.950 . S
H2177 C2155 0.950 . S
C2178 C2179 1.349 . S
C2178 C2180 1.327 . S
C2178 H2203 0.950 . S
C2179 C2178 1.349 . S
C2179 C2195 1.349 . S
C2180 C2178 1.327 . S
C2180 C2199 1.429 . S
C2180 H2204 0.950 . S
C2181 C2198 1.574 . S
C2181 C2200 1.368 . S
C2181 H2205 0.949 . S
H2182 C2186 0.949 . S
C2183 C2184 1.349 . S
C2183 C2185 1.327 . S
C2183 H2206 0.950 . S
C2184 C2183 1.349 . S
C2184 C2196 1.349 . S
C2185 C2183 1.327 . S
C2185 C2201 1.429 . S
C2185 H2207 0.950 . S
C2186 H2182 0.949 . S
C2186 C2194 1.574 . S
C2186 C2202 1.368 . S
H2187 C2195 0.950 . S
H2188 C2193 0.950 . S
H2189 C2194 0.949 . S
H2190 C2196 0.950 . S
H2191 C2197 0.950 . S
H2192 C2198 0.949 . S
C2193 H2188 0.950 . S
C2193 C2195 1.327 . S
C2193 C2199 1.429 . S
C2194 C2186 1.574 . S
C2194 H2189 0.949 . S
C2194 C2200 1.368 . S
C2195 C2179 1.349 . S
C2195 H2187 0.950 . S
C2195 C2193 1.327 . S
C2196 C2184 1.349 . S
C2196 H2190 0.950 . S
C2196 C2197 1.327 . S
C2197 H2191 0.950 . S
C2197 C2196 1.327 . S
C2197 C2201 1.429 . S
C2198 C2181 1.574 . S
C2198 H2192 0.949 . S
C2198 C2202 1.368 . S
C2199 C2180 1.429 . S
C2199 C2193 1.429 . S
C2199 C2200 1.523 . S
C2200 C2181 1.368 . S
C2200 C2194 1.368 . S
C2200 C2199 1.523 . S
C2201 C2185 1.429 . S
C2201 C2197 1.429 . S
C2201 C2202 1.523 . S
C2202 C2186 1.368 . S
C2202 C2198 1.368 . S
C2202 C2201 1.523 . S
H2203 C2178 0.950 . S
H2204 C2180 0.950 . S
H2205 C2181 0.949 . S
H2206 C2183 0.950 . S
H2207 C2185 0.950 . S
C2208 C2209 1.349 . S
C2208 C2210 1.327 . S
C2208 H2233 0.950 . S
C2209 C2208 1.349 . S
C2209 C2225 1.349 . S
C2210 C2208 1.327 . S
C2210 C2229 1.429 . S
C2210 H2234 0.950 . S
C2211 C2228 1.574 . S
C2211 C2230 1.368 . S
C2211 H2235 0.949 . S
H2212 C2216 0.949 . S
C2213 C2214 1.349 . S
C2213 C2215 1.327 . S
C2213 H2236 0.950 . S
C2214 C2213 1.349 . S
C2214 C2226 1.349 . S
C2215 C2213 1.327 . S
C2215 C2231 1.429 . S
C2215 H2237 0.950 . S
C2216 H2212 0.949 . S
C2216 C2224 1.574 . S
C2216 C2232 1.368 . S
H2217 C2225 0.950 . S
H2218 C2223 0.950 . S
H2219 C2224 0.949 . S
H2220 C2226 0.950 . S
H2221 C2227 0.950 . S
H2222 C2228 0.949 . S
C2223 H2218 0.950 . S
C2223 C2225 1.327 . S
C2223 C2229 1.429 . S
C2224 C2216 1.574 . S
C2224 H2219 0.949 . S
C2224 C2230 1.368 . S
C2225 C2209 1.349 . S
C2225 H2217 0.950 . S
C2225 C2223 1.327 . S
C2226 C2214 1.349 . S
C2226 H2220 0.950 . S
C2226 C2227 1.327 . S
C2227 H2221 0.950 . S
C2227 C2226 1.327 . S
C2227 C2231 1.429 . S
C2228 C2211 1.574 . S
C2228 H2222 0.949 . S
C2228 C2232 1.368 . S
C2229 C2210 1.429 . S
C2229 C2223 1.429 . S
C2229 C2230 1.523 . S
C2230 C2211 1.368 . S
C2230 C2224 1.368 . S
C2230 C2229 1.523 . S
C2231 C2215 1.429 . S
C2231 C2227 1.429 . S
C2231 C2232 1.523 . S
C2232 C2216 1.368 . S
C2232 C2228 1.368 . S
C2232 C2231 1.523 . S
H2233 C2208 0.950 . S
H2234 C2210 0.950 . S
H2235 C2211 0.949 . S
H2236 C2213 0.950 . S
H2237 C2215 0.950 . S
C2238 C2239 1.349 . S
C2238 C2240 1.327 . S
C2238 H2263 0.950 . S
C2239 C2238 1.349 . S
C2239 C2255 1.349 . S
C2240 C2238 1.327 . S
C2240 C2259 1.429 . S
C2240 H2264 0.950 . S
C2241 C2258 1.574 . S
C2241 C2260 1.368 . S
C2241 H2265 0.949 . S
H2242 C2246 0.949 . S
C2243 C2244 1.349 . S
C2243 C2245 1.327 . S
C2243 H2266 0.950 . S
C2244 C2243 1.349 . S
C2244 C2256 1.349 . S
C2245 C2243 1.327 . S
C2245 C2261 1.429 . S
C2245 H2267 0.950 . S
C2246 H2242 0.949 . S
C2246 C2254 1.574 . S
C2246 C2262 1.368 . S
H2247 C2255 0.950 . S
H2248 C2253 0.950 . S
H2249 C2254 0.949 . S
H2250 C2256 0.950 . S
H2251 C2257 0.950 . S
H2252 C2258 0.949 . S
C2253 H2248 0.950 . S
C2253 C2255 1.327 . S
C2253 C2259 1.429 . S
C2254 C2246 1.574 . S
C2254 H2249 0.949 . S
C2254 C2260 1.368 . S
C2255 C2239 1.349 . S
C2255 H2247 0.950 . S
C2255 C2253 1.327 . S
C2256 C2244 1.349 . S
C2256 H2250 0.950 . S
C2256 C2257 1.327 . S
C2257 H2251 0.950 . S
C2257 C2256 1.327 . S
C2257 C2261 1.429 . S
C2258 C2241 1.574 . S
C2258 H2252 0.949 . S
C2258 C2262 1.368 . S
C2259 C2240 1.429 . S
C2259 C2253 1.429 . S
C2259 C2260 1.523 . S
C2260 C2241 1.368 . S
C2260 C2254 1.368 . S
C2260 C2259 1.523 . S
C2261 C2245 1.429 . S
C2261 C2257 1.429 . S
C2261 C2262 1.523 . S
C2262 C2246 1.368 . S
C2262 C2258 1.368 . S
C2262 C2261 1.523 . S
H2263 C2238 0.950 . S
H2264 C2240 0.950 . S
H2265 C2241 0.949 . S
H2266 C2243 0.950 . S
H2267 C2245 0.950 . S
C2268 C2269 1.349 . S
C2268 C2270 1.327 . S
C2268 H2293 0.950 . S
C2269 C2268 1.349 . S
C2269 C2285 1.349 . S
C2270 C2268 1.327 . S
C2270 C2289 1.429 . S
C2270 H2294 0.950 . S
C2271 C2288 1.574 . S
C2271 C2290 1.368 . S
C2271 H2295 0.949 . S
H2272 C2276 0.949 . S
C2273 C2274 1.349 . S
C2273 C2275 1.327 . S
C2273 H2296 0.950 . S
C2274 C2273 1.349 . S
C2274 C2286 1.349 . S
C2275 C2273 1.327 . S
C2275 C2291 1.429 . S
C2275 H2297 0.950 . S
C2276 H2272 0.949 . S
C2276 C2284 1.574 . S
C2276 C2292 1.368 . S
H2277 C2285 0.950 . S
H2278 C2283 0.950 . S
H2279 C2284 0.949 . S
H2280 C2286 0.950 . S
H2281 C2287 0.950 . S
H2282 C2288 0.949 . S
C2283 H2278 0.950 . S
C2283 C2285 1.327 . S
C2283 C2289 1.429 . S
C2284 C2276 1.574 . S
C2284 H2279 0.949 . S
C2284 C2290 1.368 . S
C2285 C2269 1.349 . S
C2285 H2277 0.950 . S
C2285 C2283 1.327 . S
C2286 C2274 1.349 . S
C2286 H2280 0.950 . S
C2286 C2287 1.327 . S
C2287 H2281 0.950 . S
C2287 C2286 1.327 . S
C2287 C2291 1.429 . S
C2288 C2271 1.574 . S
C2288 H2282 0.949 . S
C2288 C2292 1.368 . S
C2289 C2270 1.429 . S
C2289 C2283 1.429 . S
C2289 C2290 1.523 . S
C2290 C2271 1.368 . S
C2290 C2284 1.368 . S
C2290 C2289 1.523 . S
C2291 C2275 1.429 . S
C2291 C2287 1.429 . S
C2291 C2292 1.523 . S
C2292 C2276 1.368 . S
C2292 C2288 1.368 . S
C2292 C2291 1.523 . S
H2293 C2268 0.950 . S
H2294 C2270 0.950 . S
H2295 C2271 0.949 . S
H2296 C2273 0.950 . S
H2297 C2275 0.950 . S
C2298 C2299 1.349 . S
C2298 C2300 1.327 . S
C2298 H2323 0.950 . S
C2299 C2298 1.349 . S
C2299 C2315 1.349 . S
C2300 C2298 1.327 . S
C2300 C2319 1.429 . S
C2300 H2324 0.950 . S
C2301 C2318 1.574 . S
C2301 C2320 1.368 . S
C2301 H2325 0.949 . S
H2302 C2306 0.949 . S
C2303 C2304 1.349 . S
C2303 C2305 1.327 . S
C2303 H2326 0.950 . S
C2304 C2303 1.349 . S
C2304 C2316 1.349 . S
C2305 C2303 1.327 . S
C2305 C2321 1.429 . S
C2305 H2327 0.950 . S
C2306 H2302 0.949 . S
C2306 C2314 1.574 . S
C2306 C2322 1.368 . S
H2307 C2315 0.950 . S
H2308 C2313 0.950 . S
H2309 C2314 0.949 . S
H2310 C2316 0.950 . S
H2311 C2317 0.950 . S
H2312 C2318 0.949 . S
C2313 H2308 0.950 . S
C2313 C2315 1.327 . S
C2313 C2319 1.429 . S
C2314 C2306 1.574 . S
C2314 H2309 0.949 . S
C2314 C2320 1.368 . S
C2315 C2299 1.349 . S
C2315 H2307 0.950 . S
C2315 C2313 1.327 . S
C2316 C2304 1.349 . S
C2316 H2310 0.950 . S
C2316 C2317 1.327 . S
C2317 H2311 0.950 . S
C2317 C2316 1.327 . S
C2317 C2321 1.429 . S
C2318 C2301 1.574 . S
C2318 H2312 0.949 . S
C2318 C2322 1.368 . S
C2319 C2300 1.429 . S
C2319 C2313 1.429 . S
C2319 C2320 1.523 . S
C2320 C2301 1.368 . S
C2320 C2314 1.368 . S
C2320 C2319 1.523 . S
C2321 C2305 1.429 . S
C2321 C2317 1.429 . S
C2321 C2322 1.523 . S
C2322 C2306 1.368 . S
C2322 C2318 1.368 . S
C2322 C2321 1.523 . S
H2323 C2298 0.950 . S
H2324 C2300 0.950 . S
H2325 C2301 0.949 . S
H2326 C2303 0.950 . S
H2327 C2305 0.950 . S
C2328 C2329 1.349 . S
C2328 C2330 1.327 . S
C2328 H2353 0.950 . S
C2329 C2328 1.349 . S
C2329 C2345 1.349 . S
C2330 C2328 1.327 . S
C2330 C2349 1.429 . S
C2330 H2354 0.950 . S
C2331 C2348 1.574 . S
C2331 C2350 1.368 . S
C2331 H2355 0.949 . S
H2332 C2336 0.949 . S
C2333 C2334 1.349 . S
C2333 C2335 1.327 . S
C2333 H2356 0.950 . S
C2334 C2333 1.349 . S
C2334 C2346 1.349 . S
C2335 C2333 1.327 . S
C2335 C2351 1.429 . S
C2335 H2357 0.950 . S
C2336 H2332 0.949 . S
C2336 C2344 1.574 . S
C2336 C2352 1.368 . S
H2337 C2345 0.950 . S
H2338 C2343 0.950 . S
H2339 C2344 0.949 . S
H2340 C2346 0.950 . S
H2341 C2347 0.950 . S
H2342 C2348 0.949 . S
C2343 H2338 0.950 . S
C2343 C2345 1.327 . S
C2343 C2349 1.429 . S
C2344 C2336 1.574 . S
C2344 H2339 0.949 . S
C2344 C2350 1.368 . S
C2345 C2329 1.349 . S
C2345 H2337 0.950 . S
C2345 C2343 1.327 . S
C2346 C2334 1.349 . S
C2346 H2340 0.950 . S
C2346 C2347 1.327 . S
C2347 H2341 0.950 . S
C2347 C2346 1.327 . S
C2347 C2351 1.429 . S
C2348 C2331 1.574 . S
C2348 H2342 0.949 . S
C2348 C2352 1.368 . S
C2349 C2330 1.429 . S
C2349 C2343 1.429 . S
C2349 C2350 1.523 . S
C2350 C2331 1.368 . S
C2350 C2344 1.368 . S
C2350 C2349 1.523 . S
C2351 C2335 1.429 . S
C2351 C2347 1.429 . S
C2351 C2352 1.523 . S
C2352 C2336 1.368 . S
C2352 C2348 1.368 . S
C2352 C2351 1.523 . S
H2353 C2328 0.950 . S
H2354 C2330 0.950 . S
H2355 C2331 0.949 . S
H2356 C2333 0.950 . S
H2357 C2335 0.950 . S
C2358 C2359 1.349 . S
C2358 C2360 1.327 . S
C2358 H2383 0.950 . S
C2359 C2358 1.349 . S
C2359 C2375 1.349 . S
C2360 C2358 1.327 . S
C2360 C2379 1.429 . S
C2360 H2384 0.950 . S
C2361 C2378 1.574 . S
C2361 C2380 1.368 . S
C2361 H2385 0.949 . S
H2362 C2366 0.949 . S
C2363 C2364 1.349 . S
C2363 C2365 1.327 . S
C2363 H2386 0.950 . S
C2364 C2363 1.349 . S
C2364 C2376 1.349 . S
C2365 C2363 1.327 . S
C2365 C2381 1.429 . S
C2365 H2387 0.950 . S
C2366 H2362 0.949 . S
C2366 C2374 1.574 . S
C2366 C2382 1.368 . S
H2367 C2375 0.950 . S
H2368 C2373 0.950 . S
H2369 C2374 0.949 . S
H2370 C2376 0.950 . S
H2371 C2377 0.950 . S
H2372 C2378 0.949 . S
C2373 H2368 0.950 . S
C2373 C2375 1.327 . S
C2373 C2379 1.429 . S
C2374 C2366 1.574 . S
C2374 H2369 0.949 . S
C2374 C2380 1.368 . S
C2375 C2359 1.349 . S
C2375 H2367 0.950 . S
C2375 C2373 1.327 . S
C2376 C2364 1.349 . S
C2376 H2370 0.950 . S
C2376 C2377 1.327 . S
C2377 H2371 0.950 . S
C2377 C2376 1.327 . S
C2377 C2381 1.429 . S
C2378 C2361 1.574 . S
C2378 H2372 0.949 . S
C2378 C2382 1.368 . S
C2379 C2360 1.429 . S
C2379 C2373 1.429 . S
C2379 C2380 1.523 . S
C2380 C2361 1.368 . S
C2380 C2374 1.368 . S
C2380 C2379 1.523 . S
C2381 C2365 1.429 . S
C2381 C2377 1.429 . S
C2381 C2382 1.523 . S
C2382 C2366 1.368 . S
C2382 C2378 1.368 . S
C2382 C2381 1.523 . S
H2383 C2358 0.950 . S
H2384 C2360 0.950 . S
H2385 C2361 0.949 . S
H2386 C2363 0.950 . S
H2387 C2365 0.950 . S
C2388 C2389 1.349 . S
C2388 C2390 1.327 . S
C2388 H2413 0.950 . S
C2389 C2388 1.349 . S
C2389 C2405 1.349 . S
C2390 C2388 1.327 . S
C2390 C2409 1.429 . S
C2390 H2414 0.950 . S
C2391 C2408 1.574 . S
C2391 C2410 1.368 . S
C2391 H2415 0.949 . S
H2392 C2396 0.949 . S
C2393 C2394 1.349 . S
C2393 C2395 1.327 . S
C2393 H2416 0.950 . S
C2394 C2393 1.349 . S
C2394 C2406 1.349 . S
C2395 C2393 1.327 . S
C2395 C2411 1.429 . S
C2395 H2417 0.950 . S
C2396 H2392 0.949 . S
C2396 C2404 1.574 . S
C2396 C2412 1.368 . S
H2397 C2405 0.950 . S
H2398 C2403 0.950 . S
H2399 C2404 0.949 . S
H2400 C2406 0.950 . S
H2401 C2407 0.950 . S
H2402 C2408 0.949 . S
C2403 H2398 0.950 . S
C2403 C2405 1.327 . S
C2403 C2409 1.429 . S
C2404 C2396 1.574 . S
C2404 H2399 0.949 . S
C2404 C2410 1.368 . S
C2405 C2389 1.349 . S
C2405 H2397 0.950 . S
C2405 C2403 1.327 . S
C2406 C2394 1.349 . S
C2406 H2400 0.950 . S
C2406 C2407 1.327 . S
C2407 H2401 0.950 . S
C2407 C2406 1.327 . S
C2407 C2411 1.429 . S
C2408 C2391 1.574 . S
C2408 H2402 0.949 . S
C2408 C2412 1.368 . S
C2409 C2390 1.429 . S
C2409 C2403 1.429 . S
C2409 C2410 1.523 . S
C2410 C2391 1.368 . S
C2410 C2404 1.368 . S
C2410 C2409 1.523 . S
C2411 C2395 1.429 . S
C2411 C2407 1.429 . S
C2411 C2412 1.523 . S
C2412 C2396 1.368 . S
C2412 C2408 1.368 . S
C2412 C2411 1.523 . S
H2413 C2388 0.950 . S
H2414 C2390 0.950 . S
H2415 C2391 0.949 . S
H2416 C2393 0.950 . S
H2417 C2395 0.950 . S
C2418 C2419 1.349 . S
C2418 C2420 1.327 . S
C2418 H2443 0.950 . S
C2419 C2418 1.349 . S
C2419 C2435 1.349 . S
C2420 C2418 1.327 . S
C2420 C2439 1.429 . S
C2420 H2444 0.950 . S
C2421 C2438 1.574 . S
C2421 C2440 1.368 . S
C2421 H2445 0.949 . S
H2422 C2426 0.949 . S
C2423 C2424 1.349 . S
C2423 C2425 1.327 . S
C2423 H2446 0.950 . S
C2424 C2423 1.349 . S
C2424 C2436 1.349 . S
C2425 C2423 1.327 . S
C2425 C2441 1.429 . S
C2425 H2447 0.950 . S
C2426 H2422 0.949 . S
C2426 C2434 1.574 . S
C2426 C2442 1.368 . S
H2427 C2435 0.950 . S
H2428 C2433 0.950 . S
H2429 C2434 0.949 . S
H2430 C2436 0.950 . S
H2431 C2437 0.950 . S
H2432 C2438 0.949 . S
C2433 H2428 0.950 . S
C2433 C2435 1.327 . S
C2433 C2439 1.429 . S
C2434 C2426 1.574 . S
C2434 H2429 0.949 . S
C2434 C2440 1.368 . S
C2435 C2419 1.349 . S
C2435 H2427 0.950 . S
C2435 C2433 1.327 . S
C2436 C2424 1.349 . S
C2436 H2430 0.950 . S
C2436 C2437 1.327 . S
C2437 H2431 0.950 . S
C2437 C2436 1.327 . S
C2437 C2441 1.429 . S
C2438 C2421 1.574 . S
C2438 H2432 0.949 . S
C2438 C2442 1.368 . S
C2439 C2420 1.429 . S
C2439 C2433 1.429 . S
C2439 C2440 1.523 . S
C2440 C2421 1.368 . S
C2440 C2434 1.368 . S
C2440 C2439 1.523 . S
C2441 C2425 1.429 . S
C2441 C2437 1.429 . S
C2441 C2442 1.523 . S
C2442 C2426 1.368 . S
C2442 C2438 1.368 . S
C2442 C2441 1.523 . S
H2443 C2418 0.950 . S
H2444 C2420 0.950 . S
H2445 C2421 0.949 . S
H2446 C2423 0.950 . S
H2447 C2425 0.950 . S
C2448 C2449 1.349 . S
C2448 C2450 1.327 . S
C2448 H2473 0.950 . S
C2449 C2448 1.349 . S
C2449 C2465 1.349 . S
C2450 C2448 1.327 . S
C2450 C2469 1.429 . S
C2450 H2474 0.950 . S
C2451 C2468 1.574 . S
C2451 C2470 1.368 . S
C2451 H2475 0.949 . S
H2452 C2456 0.949 . S
C2453 C2454 1.349 . S
C2453 C2455 1.327 . S
C2453 H2476 0.950 . S
C2454 C2453 1.349 . S
C2454 C2466 1.349 . S
C2455 C2453 1.327 . S
C2455 C2471 1.429 . S
C2455 H2477 0.950 . S
C2456 H2452 0.949 . S
C2456 C2464 1.574 . S
C2456 C2472 1.368 . S
H2457 C2465 0.950 . S
H2458 C2463 0.950 . S
H2459 C2464 0.949 . S
H2460 C2466 0.950 . S
H2461 C2467 0.950 . S
H2462 C2468 0.949 . S
C2463 H2458 0.950 . S
C2463 C2465 1.327 . S
C2463 C2469 1.429 . S
C2464 C2456 1.574 . S
C2464 H2459 0.949 . S
C2464 C2470 1.368 . S
C2465 C2449 1.349 . S
C2465 H2457 0.950 . S
C2465 C2463 1.327 . S
C2466 C2454 1.349 . S
C2466 H2460 0.950 . S
C2466 C2467 1.327 . S
C2467 H2461 0.950 . S
C2467 C2466 1.327 . S
C2467 C2471 1.429 . S
C2468 C2451 1.574 . S
C2468 H2462 0.949 . S
C2468 C2472 1.368 . S
C2469 C2450 1.429 . S
C2469 C2463 1.429 . S
C2469 C2470 1.523 . S
C2470 C2451 1.368 . S
C2470 C2464 1.368 . S
C2470 C2469 1.523 . S
C2471 C2455 1.429 . S
C2471 C2467 1.429 . S
C2471 C2472 1.523 . S
C2472 C2456 1.368 . S
C2472 C2468 1.368 . S
C2472 C2471 1.523 . S
H2473 C2448 0.950 . S
H2474 C2450 0.950 . S
H2475 C2451 0.949 . S
H2476 C2453 0.950 . S
H2477 C2455 0.950 . S
C2478 C2479 1.349 . S
C2478 C2480 1.327 . S
C2478 H2503 0.950 . S
C2479 C2478 1.349 . S
C2479 C2495 1.349 . S
C2480 C2478 1.327 . S
C2480 C2499 1.429 . S
C2480 H2504 0.950 . S
C2481 C2498 1.574 . S
C2481 C2500 1.368 . S
C2481 H2505 0.949 . S
H2482 C2486 0.949 . S
C2483 C2484 1.349 . S
C2483 C2485 1.327 . S
C2483 H2506 0.950 . S
C2484 C2483 1.349 . S
C2484 C2496 1.349 . S
C2485 C2483 1.327 . S
C2485 C2501 1.429 . S
C2485 H2507 0.950 . S
C2486 H2482 0.949 . S
C2486 C2494 1.574 . S
C2486 C2502 1.368 . S
H2487 C2495 0.950 . S
H2488 C2493 0.950 . S
H2489 C2494 0.949 . S
H2490 C2496 0.950 . S
H2491 C2497 0.950 . S
H2492 C2498 0.949 . S
C2493 H2488 0.950 . S
C2493 C2495 1.327 . S
C2493 C2499 1.429 . S
C2494 C2486 1.574 . S
C2494 H2489 0.949 . S
C2494 C2500 1.368 . S
C2495 C2479 1.349 . S
C2495 H2487 0.950 . S
C2495 C2493 1.327 . S
C2496 C2484 1.349 . S
C2496 H2490 0.950 . S
C2496 C2497 1.327 . S
C2497 H2491 0.950 . S
C2497 C2496 1.327 . S
C2497 C2501 1.429 . S
C2498 C2481 1.574 . S
C2498 H2492 0.949 . S
C2498 C2502 1.368 . S
C2499 C2480 1.429 . S
C2499 C2493 1.429 . S
C2499 C2500 1.523 . S
C2500 C2481 1.368 . S
C2500 C2494 1.368 . S
C2500 C2499 1.523 . S
C2501 C2485 1.429 . S
C2501 C2497 1.429 . S
C2501 C2502 1.523 . S
C2502 C2486 1.368 . S
C2502 C2498 1.368 . S
C2502 C2501 1.523 . S
H2503 C2478 0.950 . S
H2504 C2480 0.950 . S
H2505 C2481 0.949 . S
H2506 C2483 0.950 . S
H2507 C2485 0.950 . S
C2508 C2509 1.349 . S
C2508 C2510 1.327 . S
C2508 H2533 0.950 . S
C2509 C2508 1.349 . S
C2509 C2525 1.349 . S
C2510 C2508 1.327 . S
C2510 C2529 1.429 . S
C2510 H2534 0.950 . S
C2511 C2528 1.574 . S
C2511 C2530 1.368 . S
C2511 H2535 0.949 . S
H2512 C2516 0.949 . S
C2513 C2514 1.349 . S
C2513 C2515 1.327 . S
C2513 H2536 0.950 . S
C2514 C2513 1.349 . S
C2514 C2526 1.349 . S
C2515 C2513 1.327 . S
C2515 C2531 1.429 . S
C2515 H2537 0.950 . S
C2516 H2512 0.949 . S
C2516 C2524 1.574 . S
C2516 C2532 1.368 . S
H2517 C2525 0.950 . S
H2518 C2523 0.950 . S
H2519 C2524 0.949 . S
H2520 C2526 0.950 . S
H2521 C2527 0.950 . S
H2522 C2528 0.949 . S
C2523 H2518 0.950 . S
C2523 C2525 1.327 . S
C2523 C2529 1.429 . S
C2524 C2516 1.574 . S
C2524 H2519 0.949 . S
C2524 C2530 1.368 . S
C2525 C2509 1.349 . S
C2525 H2517 0.950 . S
C2525 C2523 1.327 . S
C2526 C2514 1.349 . S
C2526 H2520 0.950 . S
C2526 C2527 1.327 . S
C2527 H2521 0.950 . S
C2527 C2526 1.327 . S
C2527 C2531 1.429 . S
C2528 C2511 1.574 . S
C2528 H2522 0.949 . S
C2528 C2532 1.368 . S
C2529 C2510 1.429 . S
C2529 C2523 1.429 . S
C2529 C2530 1.523 . S
C2530 C2511 1.368 . S
C2530 C2524 1.368 . S
C2530 C2529 1.523 . S
C2531 C2515 1.429 . S
C2531 C2527 1.429 . S
C2531 C2532 1.523 . S
C2532 C2516 1.368 . S
C2532 C2528 1.368 . S
C2532 C2531 1.523 . S
H2533 C2508 0.950 . S
H2534 C2510 0.950 . S
H2535 C2511 0.949 . S
H2536 C2513 0.950 . S
H2537 C2515 0.950 . S
C2538 C2539 1.349 . S
C2538 C2540 1.327 . S
C2538 H2563 0.950 . S
C2539 C2538 1.349 . S
C2539 C2555 1.349 . S
C2540 C2538 1.327 . S
C2540 C2559 1.429 . S
C2540 H2564 0.950 . S
C2541 C2558 1.574 . S
C2541 C2560 1.368 . S
C2541 H2565 0.949 . S
H2542 C2546 0.949 . S
C2543 C2544 1.349 . S
C2543 C2545 1.327 . S
C2543 H2566 0.950 . S
C2544 C2543 1.349 . S
C2544 C2556 1.349 . S
C2545 C2543 1.327 . S
C2545 C2561 1.429 . S
C2545 H2567 0.950 . S
C2546 H2542 0.949 . S
C2546 C2554 1.574 . S
C2546 C2562 1.368 . S
H2547 C2555 0.950 . S
H2548 C2553 0.950 . S
H2549 C2554 0.949 . S
H2550 C2556 0.950 . S
H2551 C2557 0.950 . S
H2552 C2558 0.949 . S
C2553 H2548 0.950 . S
C2553 C2555 1.327 . S
C2553 C2559 1.429 . S
C2554 C2546 1.574 . S
C2554 H2549 0.949 . S
C2554 C2560 1.368 . S
C2555 C2539 1.349 . S
C2555 H2547 0.950 . S
C2555 C2553 1.327 . S
C2556 C2544 1.349 . S
C2556 H2550 0.950 . S
C2556 C2557 1.327 . S
C2557 H2551 0.950 . S
C2557 C2556 1.327 . S
C2557 C2561 1.429 . S
C2558 C2541 1.574 . S
C2558 H2552 0.949 . S
C2558 C2562 1.368 . S
C2559 C2540 1.429 . S
C2559 C2553 1.429 . S
C2559 C2560 1.523 . S
C2560 C2541 1.368 . S
C2560 C2554 1.368 . S
C2560 C2559 1.523 . S
C2561 C2545 1.429 . S
C2561 C2557 1.429 . S
C2561 C2562 1.523 . S
C2562 C2546 1.368 . S
C2562 C2558 1.368 . S
C2562 C2561 1.523 . S
H2563 C2538 0.950 . S
H2564 C2540 0.950 . S
H2565 C2541 0.949 . S
H2566 C2543 0.950 . S
H2567 C2545 0.950 . S
C2568 C2569 1.349 . S
C2568 C2570 1.327 . S
C2568 H2593 0.950 . S
C2569 C2568 1.349 . S
C2569 C2585 1.349 . S
C2570 C2568 1.327 . S
C2570 C2589 1.429 . S
C2570 H2594 0.950 . S
C2571 C2588 1.574 . S
C2571 C2590 1.368 . S
C2571 H2595 0.949 . S
H2572 C2576 0.949 . S
C2573 C2574 1.349 . S
C2573 C2575 1.327 . S
C2573 H2596 0.950 . S
C2574 C2573 1.349 . S
C2574 C2586 1.349 . S
C2575 C2573 1.327 . S
C2575 C2591 1.429 . S
C2575 H2597 0.950 . S
C2576 H2572 0.949 . S
C2576 C2584 1.574 . S
C2576 C2592 1.368 . S
H2577 C2585 0.950 . S
H2578 C2583 0.950 . S
H2579 C2584 0.949 . S
H2580 C2586 0.950 . S
H2581 C2587 0.950 . S
H2582 C2588 0.949 . S
C2583 H2578 0.950 . S
C2583 C2585 1.327 . S
C2583 C2589 1.429 . S
C2584 C2576 1.574 . S
C2584 H2579 0.949 . S
C2584 C2590 1.368 . S
C2585 C2569 1.349 . S
C2585 H2577 0.950 . S
C2585 C2583 1.327 . S
C2586 C2574 1.349 . S
C2586 H2580 0.950 . S
C2586 C2587 1.327 . S
C2587 H2581 0.950 . S
C2587 C2586 1.327 . S
C2587 C2591 1.429 . S
C2588 C2571 1.574 . S
C2588 H2582 0.949 . S
C2588 C2592 1.368 . S
C2589 C2570 1.429 . S
C2589 C2583 1.429 . S
C2589 C2590 1.523 . S
C2590 C2571 1.368 . S
C2590 C2584 1.368 . S
C2590 C2589 1.523 . S
C2591 C2575 1.429 . S
C2591 C2587 1.429 . S
C2591 C2592 1.523 . S
C2592 C2576 1.368 . S
C2592 C2588 1.368 . S
C2592 C2591 1.523 . S
H2593 C2568 0.950 . S
H2594 C2570 0.950 . S
H2595 C2571 0.949 . S
H2596 C2573 0.950 . S
H2597 C2575 0.950 . S
C2598 C2599 1.349 . S
C2598 C2600 1.327 . S
C2598 H2623 0.950 . S
C2599 C2598 1.349 . S
C2599 C2615 1.349 . S
C2600 C2598 1.327 . S
C2600 C2619 1.429 . S
C2600 H2624 0.950 . S
C2601 C2618 1.574 . S
C2601 C2620 1.368 . S
C2601 H2625 0.949 . S
H2602 C2606 0.949 . S
C2603 C2604 1.349 . S
C2603 C2605 1.327 . S
C2603 H2626 0.950 . S
C2604 C2603 1.349 . S
C2604 C2616 1.349 . S
C2605 C2603 1.327 . S
C2605 C2621 1.429 . S
C2605 H2627 0.950 . S
C2606 H2602 0.949 . S
C2606 C2614 1.574 . S
C2606 C2622 1.368 . S
H2607 C2615 0.950 . S
H2608 C2613 0.950 . S
H2609 C2614 0.949 . S
H2610 C2616 0.950 . S
H2611 C2617 0.950 . S
H2612 C2618 0.949 . S
C2613 H2608 0.950 . S
C2613 C2615 1.327 . S
C2613 C2619 1.429 . S
C2614 C2606 1.574 . S
C2614 H2609 0.949 . S
C2614 C2620 1.368 . S
C2615 C2599 1.349 . S
C2615 H2607 0.950 . S
C2615 C2613 1.327 . S
C2616 C2604 1.349 . S
C2616 H2610 0.950 . S
C2616 C2617 1.327 . S
C2617 H2611 0.950 . S
C2617 C2616 1.327 . S
C2617 C2621 1.429 . S
C2618 C2601 1.574 . S
C2618 H2612 0.949 . S
C2618 C2622 1.368 . S
C2619 C2600 1.429 . S
C2619 C2613 1.429 . S
C2619 C2620 1.523 . S
C2620 C2601 1.368 . S
C2620 C2614 1.368 . S
C2620 C2619 1.523 . S
C2621 C2605 1.429 . S
C2621 C2617 1.429 . S
C2621 C2622 1.523 . S
C2622 C2606 1.368 . S
C2622 C2618 1.368 . S
C2622 C2621 1.523 . S
H2623 C2598 0.950 . S
H2624 C2600 0.950 . S
H2625 C2601 0.949 . S
H2626 C2603 0.950 . S
H2627 C2605 0.950 . S
C2628 C2629 1.349 . S
C2628 C2630 1.327 . S
C2628 H2653 0.950 . S
C2629 C2628 1.349 . S
C2629 C2645 1.349 . S
C2630 C2628 1.327 . S
C2630 C2649 1.429 . S
C2630 H2654 0.950 . S
C2631 C2648 1.574 . S
C2631 C2650 1.368 . S
C2631 H2655 0.949 . S
H2632 C2636 0.949 . S
C2633 C2634 1.349 . S
C2633 C2635 1.327 . S
C2633 H2656 0.950 . S
C2634 C2633 1.349 . S
C2634 C2646 1.349 . S
C2635 C2633 1.327 . S
C2635 C2651 1.429 . S
C2635 H2657 0.950 . S
C2636 H2632 0.949 . S
C2636 C2644 1.574 . S
C2636 C2652 1.368 . S
H2637 C2645 0.950 . S
H2638 C2643 0.950 . S
H2639 C2644 0.949 . S
H2640 C2646 0.950 . S
H2641 C2647 0.950 . S
H2642 C2648 0.949 . S
C2643 H2638 0.950 . S
C2643 C2645 1.327 . S
C2643 C2649 1.429 . S
C2644 C2636 1.574 . S
C2644 H2639 0.949 . S
C2644 C2650 1.368 . S
C2645 C2629 1.349 . S
C2645 H2637 0.950 . S
C2645 C2643 1.327 . S
C2646 C2634 1.349 . S
C2646 H2640 0.950 . S
C2646 C2647 1.327 . S
C2647 H2641 0.950 . S
C2647 C2646 1.327 . S
C2647 C2651 1.429 . S
C2648 C2631 1.574 . S
C2648 H2642 0.949 . S
C2648 C2652 1.368 . S
C2649 C2630 1.429 . S
C2649 C2643 1.429 . S
C2649 C2650 1.523 . S
C2650 C2631 1.368 . S
C2650 C2644 1.368 . S
C2650 C2649 1.523 . S
C2651 C2635 1.429 . S
C2651 C2647 1.429 . S
C2651 C2652 1.523 . S
C2652 C2636 1.368 . S
C2652 C2648 1.368 . S
C2652 C2651 1.523 . S
H2653 C2628 0.950 . S
H2654 C2630 0.950 . S
H2655 C2631 0.949 . S
H2656 C2633 0.950 . S
H2657 C2635 0.950 . S
C2658 C2659 1.349 . S
C2658 C2660 1.327 . S
C2658 H2683 0.950 . S
C2659 C2658 1.349 . S
C2659 C2675 1.349 . S
C2660 C2658 1.327 . S
C2660 C2679 1.429 . S
C2660 H2684 0.950 . S
C2661 C2678 1.574 . S
C2661 C2680 1.368 . S
C2661 H2685 0.949 . S
H2662 C2666 0.949 . S
C2663 C2664 1.349 . S
C2663 C2665 1.327 . S
C2663 H2686 0.950 . S
C2664 C2663 1.349 . S
C2664 C2676 1.349 . S
C2665 C2663 1.327 . S
C2665 C2681 1.429 . S
C2665 H2687 0.950 . S
C2666 H2662 0.949 . S
C2666 C2674 1.574 . S
C2666 C2682 1.368 . S
H2667 C2675 0.950 . S
H2668 C2673 0.950 . S
H2669 C2674 0.949 . S
H2670 C2676 0.950 . S
H2671 C2677 0.950 . S
H2672 C2678 0.949 . S
C2673 H2668 0.950 . S
C2673 C2675 1.327 . S
C2673 C2679 1.429 . S
C2674 C2666 1.574 . S
C2674 H2669 0.949 . S
C2674 C2680 1.368 . S
C2675 C2659 1.349 . S
C2675 H2667 0.950 . S
C2675 C2673 1.327 . S
C2676 C2664 1.349 . S
C2676 H2670 0.950 . S
C2676 C2677 1.327 . S
C2677 H2671 0.950 . S
C2677 C2676 1.327 . S
C2677 C2681 1.429 . S
C2678 C2661 1.574 . S
C2678 H2672 0.949 . S
C2678 C2682 1.368 . S
C2679 C2660 1.429 . S
C2679 C2673 1.429 . S
C2679 C2680 1.523 . S
C2680 C2661 1.368 . S
C2680 C2674 1.368 . S
C2680 C2679 1.523 . S
C2681 C2665 1.429 . S
C2681 C2677 1.429 . S
C2681 C2682 1.523 . S
C2682 C2666 1.368 . S
C2682 C2678 1.368 . S
C2682 C2681 1.523 . S
H2683 C2658 0.950 . S
H2684 C2660 0.950 . S
H2685 C2661 0.949 . S
H2686 C2663 0.950 . S
H2687 C2665 0.950 . S
C529 C9 1.424 . S
C534 C404 1.372 . S
C559 C422 1.372 . S
C564 C31 1.424 . S
C589 C356 1.372 . S
C594 C53 1.424 . S
C619 C71 1.424 . S
C624 C378 1.372 . S
C649 C488 1.372 . S
C654 C93 1.424 . S
C679 C466 1.372 . S
C684 C119 1.424 . S
C709 C514 1.372 . S
C714 C137 1.424 . S
C739 C448 1.372 . S
C744 C159 1.424 . S
C769 C185 1.424 . S
C774 C294 1.372 . S
C799 C203 1.424 . S
C804 C338 1.372 . S
C829 C225 1.424 . S
C834 C316 1.372 . S
C859 C268 1.372 . S
C864 C251 1.424 . S
C889 C140 1.372 . S
C894 C271 1.424 . S
C919 C292 1.424 . S
C924 C162 1.372 . S
C949 C96 1.372 . S
C954 C314 1.424 . S
C979 C114 1.372 . S
C984 C336 1.424 . S
C1009 C359 1.424 . S
C1014 C228 1.372 . S
C1039 C206 1.372 . S
C1044 C381 1.424 . S
C1069 C246 1.372 . S
C1074 C402 1.424 . S
C1099 C425 1.424 . S
C1104 C180 1.372 . S
C1129 C446 1.424 . S
C1134 C26 1.372 . S
C1159 C469 1.424 . S
C1164 C74 1.372 . S
C1189 C491 1.424 . S
C1194 C48 1.372 . S
C1219 C4 1.372 . S
C1224 C512 1.424 . S
C1249 C423 0.974 . S
C1254 C5 0.964 . S
C1279 C405 0.974 . S
C1284 C27 0.964 . S
C1309 C379 0.974 . S
C1314 C49 0.964 . S
C1339 C357 0.974 . S
C1344 C75 0.964 . S
C1369 C97 0.964 . S
C1374 C515 0.974 . S
C1399 C115 0.964 . S
C1404 C449 0.974 . S
C1429 C489 0.974 . S
C1434 C141 0.964 . S
C1459 C467 0.974 . S
C1464 C163 0.964 . S
C1489 C317 0.974 . S
C1494 C181 0.964 . S
C1519 C207 0.964 . S
C1524 C269 0.974 . S
C1549 C295 0.974 . S
C1554 C229 0.964 . S
C1579 C339 0.974 . S
C1584 C247 0.964 . S
C1609 C270 0.964 . S
C1614 C161 0.974 . S
C1639 C139 0.974 . S
C1644 C293 0.964 . S
C1669 C315 0.964 . S
C1674 C116 0.974 . S
C1699 C337 0.964 . S
C1704 C95 0.974 . S
C1729 C248 0.974 . S
C1734 C358 0.964 . S
C1759 C182 0.974 . S
C1764 C380 0.964 . S
C1789 C403 0.964 . S
C1794 C227 0.974 . S
C1819 C424 0.964 . S
C1824 C205 0.974 . S
C1849 C50 0.974 . S
C1854 C447 0.964 . S
C1879 C6 0.974 . S
C1884 C468 0.964 . S
C1909 C490 0.964 . S
C1914 C28 0.974 . S
C1939 C513 0.964 . S
C1944 C73 0.974 . S
C1969 C8 0.717 . S
C1974 C94 0.718 . S
C1999 C117 0.718 . S
C2004 C30 0.717 . S
C2029 C138 0.718 . S
C2034 C52 0.717 . S
C2059 C160 0.718 . S
C2064 C70 0.717 . S
C2089 C183 0.718 . S
C2094 C92 0.717 . S
C2119 C118 0.717 . S
C2124 C249 0.718 . S
C2149 C136 0.717 . S
C2154 C204 0.718 . S
C2179 C226 0.718 . S
C2184 C158 0.717 . S
C2209 C184 0.717 . S
C2214 C7 0.718 . S
C2239 C202 0.717 . S
C2244 C51 0.718 . S
C2269 C72 0.718 . S
C2274 C224 0.717 . S
C2299 C29 0.718 . S
C2304 C250 0.717 . S
C2329 C272 0.717 . S
C2334 C361 0.718 . S
C2359 C383 0.718 . S
C2364 C290 0.717 . S
C2389 C401 0.718 . S
C2394 C312 0.717 . S
C2419 C427 0.718 . S
C2424 C334 0.717 . S
C2449 C360 0.717 . S
C2454 C445 0.718 . S
C2479 C511 0.718 . S
C2484 C382 0.717 . S
C2509 C400 0.717 . S
C2514 C471 0.718 . S
C2539 C426 0.717 . S
C2544 C493 0.718 . S
C2569 C273 0.718 . S
C2574 C444 0.717 . S
C2599 C313 0.718 . S
C2604 C470 0.717 . S
C2629 C335 0.718 . S
C2634 C492 0.717 . S
C2659 C291 0.718 . S
C2664 C510 0.717 . S
