# Generated by pormake.
# Topology sxb, (6)-cn, num edge types: 1
# Building blocks:
#     Node 0, Type 0, BuildingBlock: UKALOJ_clean_sbu_0, # of connection points: 6
#     Node 1, Type 0, BuildingBlock: UKALOJ_clean_sbu_0, # of connection points: 6
#     Node 2, Type 0, BuildingBlock: UKALOJ_clean_sbu_0, # of connection points: 6
#     Node 3, Type 0, BuildingBlock: UKALOJ_clean_sbu_0, # of connection points: 6
#     Edge 4, Type (0, 0), BuildingBlock: XUDNAN_clean_linker_2, # of connection points: 2
#     Edge 5, Type (0, 0), BuildingBlock: XUDNAN_clean_linker_2, # of connection points: 2
#     Edge 6, Type (0, 0), BuildingBlock: XUDNAN_clean_linker_2, # of connection points: 2
#     Edge 7, Type (0, 0), BuildingBlock: XUDNAN_clean_linker_2, # of connection points: 2
#     Edge 8, Type (0, 0), BuildingBlock: XUDNAN_clean_linker_2, # of connection points: 2
#     Edge 9, Type (0, 0), BuildingBlock: XUDNAN_clean_linker_2, # of connection points: 2
#     Edge 10, Type (0, 0), BuildingBlock: XUDNAN_clean_linker_2, # of connection points: 2
#     Edge 11, Type (0, 0), BuildingBlock: XUDNAN_clean_linker_2, # of connection points: 2
#     Edge 12, Type (0, 0), BuildingBlock: XUDNAN_clean_linker_2, # of connection points: 2
#     Edge 13, Type (0, 0), BuildingBlock: XUDNAN_clean_linker_2, # of connection points: 2
#     Edge 14, Type (0, 0), BuildingBlock: XUDNAN_clean_linker_2, # of connection points: 2
#     Edge 15, Type (0, 0), BuildingBlock: XUDNAN_clean_linker_2, # of connection points: 2
# Relax obj value: 0.093
# Max RMSD: 0.145
# Mean RMSD: 0.145
data_MOF--net-sxb--node1-UKALOJ_clean_sbu_0--edge1-XUDNAN_clean_linker_2
_symmetry_space_group_name_H-M    P1
_symmetry_Int_Tables_number       1
_symmetry_cell_setting            triclinic
loop_
_symmetry_equiv_pos_as_xyz
'x, y, z'
_cell_length_a     14.680348
_cell_length_b     26.760974
_cell_length_c     40.556429
_cell_angle_alpha  98.155358
_cell_angle_beta   89.693495
_cell_angle_gamma 90.01628
loop_
_atom_site_label
_atom_site_type_symbol
_atom_site_fract_x
_atom_site_fract_y
_atom_site_fract_z
_atom_type_partial_charge
Zn0 Zn -0.03233 0.03109 0.06505 0.0
O1 O 0.02555 0.9579 0.06042 0.0
C2 C 0.14446 0.0666 0.0456 0.0
Zn3 Zn -0.03009 0.03418 1.01091 0.0
C4 C 0.04 0.93613 0.03092 0.0
O5 O 0.0183 0.95863 1.0065 0.0
C6 C 0.89727 0.12904 0.04488 0.0
O7 O 0.83157 0.0088 1.00646 0.0
O8 O 0.83925 1.00071 0.05932 0.0
N9 N -0.01539 0.0311 0.96075 0.0
C10 C 0.93356 0.04521 0.93606 0.0
C11 C 0.05389 0.01037 0.91394 0.0
N12 N 0.05934 0.00974 0.9469 0.0
N13 N -0.02428 0.03238 0.90622 0.0
C14 C 0.0028 0.02132 0.14019 0.0
C15 C 0.88018 0.05433 0.1616 0.0
N16 N 0.95139 0.03395 0.11514 0.0
N17 N 0.87519 0.05411 0.12855 0.0
N18 N 0.95953 0.03405 0.16979 0.0
H19 H 0.12407 0.00176 0.11064 0.0
H20 H 0.09055 0.95713 0.13706 0.0
H21 H 0.14255 0.01565 0.15511 0.0
C22 C 0.09564 0.99806 0.13544 0.0
C23 C 0.84214 0.07014 0.94137 0.0
H24 H 0.81293 0.06583 0.96594 0.0
H25 H 0.79425 0.05434 0.92151 0.0
H26 H 0.84989 0.1112 0.94066 0.0
O27 O 0.92154 0.10965 1.01573 0.0
O28 O 0.90976 0.10431 0.06902 0.0
C29 C 0.79357 0.99777 0.03274 0.0
O30 O 0.09593 0.06178 0.07089 0.0
O31 O 0.10877 0.05879 1.01681 0.0
Zn32 Zn 0.96138 0.03774 0.56548 0.0
O33 O 0.83205 0.0679 0.57285 0.0
C34 C 0.88933 0.94339 0.52989 0.0
Zn35 Zn 0.95953 0.04201 0.51138 0.0
C36 C 0.78425 0.07338 0.54764 0.0
O37 O 0.82097 0.06657 0.51887 0.0
C38 C 0.13568 0.00509 0.53132 0.0
O39 O 0.00822 0.11736 0.51765 0.0
O40 O 0.01927 0.11095 0.57079 0.0
N41 N 0.94363 0.04254 0.46152 0.0
C42 C 0.00175 0.04497 0.43593 0.0
C43 C 0.86743 0.03973 0.41595 0.0
N44 N 0.86033 0.03936 0.44899 0.0
N45 N 0.95544 0.04313 0.40718 0.0
C46 C 0.92516 0.03102 0.6411 0.0
C47 C 0.0594 0.04358 0.66035 0.0
N48 N -0.01987 0.03711 0.61524 0.0
N49 N 0.06346 0.04478 0.62733 0.0
N50 N -0.02667 0.03505 0.66952 0.0
H51 H 0.80707 0.00299 0.61284 0.0
H52 H 0.78668 0.05419 0.64641 0.0
H53 H 0.80753 0.9919 0.65588 0.0
C54 C 0.82579 0.01904 0.6386 0.0
C55 C 0.10264 0.05201 0.4393 0.0
H56 H 0.11854 0.07789 0.46241 0.0
H57 H 0.13164 0.0676 0.41758 0.0
H58 H 0.13502 0.01492 0.44067 0.0
O59 O 0.09793 0.01696 0.5054 0.0
O60 O 0.08986 0.00756 0.558 0.0
C61 C 0.03243 0.13611 0.54684 0.0
O62 O 0.90413 0.96452 0.55947 0.0
O63 O 0.91067 0.96645 0.50557 0.0
Zn64 Zn 0.46853 0.54491 0.06506 0.0
O65 O 0.51811 0.47215 0.06916 0.0
C66 C 0.65087 0.56599 0.04432 0.0
Zn67 Zn 0.47924 0.52385 1.00977 0.0
C68 C 0.53801 0.43935 0.04433 0.0
O69 O 0.52535 0.44966 1.01498 0.0
C70 C 0.40921 0.62922 0.03041 0.0
O71 O 0.34097 0.49868 1.005 0.0
O72 O 0.33883 0.51666 0.05952 0.0
N73 N 0.5018 0.51073 0.95913 0.0
C74 C 0.44889 0.51532 0.93257 0.0
C75 C 0.58367 0.49916 0.91426 0.0
N76 N 0.58536 0.50056 0.94759 0.0
N77 N 0.49882 0.50822 0.90423 0.0
C78 C 0.49398 0.55141 0.14277 0.0
C79 C 0.36227 0.57674 0.16016 0.0
N80 N 0.44488 0.55859 0.11574 0.0
N81 N 0.36317 0.57438 0.12674 0.0
N82 N 0.44361 0.56253 0.17075 0.0
H83 H 0.59564 0.50306 0.15919 0.0
H84 H 0.63608 0.56322 0.15097 0.0
H85 H 0.61012 0.51481 0.11661 0.0
C86 C 0.58939 0.53165 0.142 0.0
C87 C 0.34995 0.52922 0.93455 0.0
H88 H 0.33551 0.55631 0.95724 0.0
H89 H 0.30912 0.49466 0.93587 0.0
H90 H 0.32852 0.54583 0.91225 0.0
O91 O 0.43437 0.59765 1.00562 0.0
O92 O 0.41716 0.61776 0.05966 0.0
C93 C 0.29856 0.50048 0.03258 0.0
O94 O 0.60036 0.5723 0.0701 0.0
O95 O 0.61659 0.54875 1.01626 0.0
Zn96 Zn 0.46972 0.54823 0.56556 0.0
O97 O 0.33905 0.57647 0.56757 0.0
C98 C 0.40104 0.44231 0.54384 0.0
Zn99 Zn 0.46449 0.5264 0.51015 0.0
C100 C 0.29044 0.56982 0.54154 0.0
O101 O 0.32629 0.55116 0.51388 0.0
C102 C 0.64254 0.50354 0.53665 0.0
O103 O 0.5104 0.60051 0.50679 0.0
O104 O 0.5234 0.62092 0.56095 0.0
N105 N 0.4512 0.51291 0.45893 0.0
C106 C 0.49993 0.52793 0.43369 0.0
C107 C 0.37958 0.49255 0.41269 0.0
N108 N 0.37674 0.49076 0.44569 0.0
N109 N 0.45572 0.51613 0.40427 0.0
C110 C 0.43468 0.54584 0.6419 0.0
C111 C 0.55382 0.58217 0.66318 0.0
N112 N 0.48301 0.56157 0.61681 0.0
N113 N 0.55676 0.58428 0.63022 0.0
N114 N 0.47835 0.55781 0.67143 0.0
H115 H 0.29797 0.53377 0.65873 0.0
H116 H 0.35191 0.47942 0.63506 0.0
H117 H 0.31078 0.52889 0.61413 0.0
C118 C 0.34338 0.52085 0.63724 0.0
C119 C 0.59214 0.55205 0.43798 0.0
H120 H 0.62667 0.54234 0.4603 0.0
H121 H 0.58459 0.59362 0.44119 0.0
H122 H 0.63575 0.53995 0.41586 0.0
O123 O 0.60326 0.50112 0.50856 0.0
O124 O 0.59896 0.51992 0.56298 0.0
C125 C 0.53304 0.63236 0.53172 0.0
O126 O 0.41774 0.47542 0.56879 0.0
O127 O 0.41699 0.45235 0.51461 0.0
H128 H 0.33215 0.70281 0.07687 0.0
H129 H 0.37768 0.66125 0.97055 0.0
H130 H 0.28546 0.73379 0.95959 0.0
H131 H 0.10174 0.74174 0.07163 0.0
H132 H 0.10959 0.79434 0.10459 0.0
H133 H 0.1826 0.7403 0.10479 0.0
H134 H 0.3251 0.79789 0.10753 0.0
H135 H 0.25245 0.8522 0.10782 0.0
H136 H 0.34062 0.8395 0.07666 0.0
H137 H 0.18311 0.80769 0.95952 0.0
H138 H 0.08701 0.8836 0.9706 0.0
H139 H 0.10813 0.8793 0.07699 0.0
C140 C 0.32386 0.7094 0.05132 0.0
C141 C 0.36251 0.67627 0.02459 0.0
C142 C 0.34923 0.68606 0.9915 0.0
C143 C 0.29656 0.7271 0.98496 0.0
C144 C 0.25783 0.75828 1.01175 0.0
C145 C 0.27159 0.75045 0.0443 0.0
C146 C 0.22161 0.7898 0.06842 0.0
C147 C 0.14961 0.76505 0.08854 0.0
C148 C 0.28897 0.82174 0.09146 0.0
C149 C 0.1774 0.8207 0.04426 0.0
C150 C 0.19895 0.80157 1.01172 0.0
C151 C 0.16604 0.82322 0.9849 0.0
C152 C 0.11108 0.86626 0.99149 0.0
C153 C 0.08971 0.88748 0.02467 0.0
C154 C 0.12274 0.86391 0.05136 0.0
H155 H 0.61271 0.3647 0.99785 0.0
H156 H 0.56788 0.40716 0.10414 0.0
H157 H 0.65653 0.3335 0.11524 0.0
H158 H 0.59922 0.22766 0.99845 0.0
H159 H 0.68723 0.21391 0.96734 0.0
H160 H 0.61626 0.26885 0.96742 0.0
H161 H 0.7606 0.32508 0.96998 0.0
H162 H 0.83185 0.27038 0.97039 0.0
H163 H 0.84112 0.32314 1.00318 0.0
H164 H 0.75471 0.25836 0.11558 0.0
H165 H 0.84892 0.18172 0.10489 0.0
H166 H 0.83157 0.18601 0.9984 0.0
C167 C 0.62036 0.35804 0.02341 0.0
C168 C 0.58299 0.39179 0.0501 0.0
C169 C 0.59548 0.38194 0.08323 0.0
C170 C 0.64602 0.34021 0.08985 0.0
C171 C 0.68355 0.30841 0.06312 0.0
C172 C 0.6707 0.31631 0.03053 0.0
C173 C 0.7197 0.27631 1.00655 0.0
C174 C 0.65152 0.24482 0.98359 0.0
C175 C 0.79264 0.30017 0.98634 0.0
C176 C 0.76265 0.24516 0.03085 0.0
C177 C 0.74077 0.26453 0.06332 0.0
C178 C 0.77209 0.24265 0.09026 0.0
C179 C 0.82589 0.19916 0.08389 0.0
C180 C 0.84802 0.17783 0.05081 0.0
C181 C 0.81655 0.20159 0.02397 0.0
H182 H 0.08392 0.19817 0.50105 0.0
H183 H 0.10054 0.18186 0.60594 0.0
H184 H 0.20078 0.25609 0.6155 0.0
H185 H 0.31422 0.23572 0.49124 0.0
H186 H 0.28877 0.28137 0.4639 0.0
H187 H 0.21537 0.22762 0.46484 0.0
H188 H 0.07635 0.28681 0.47834 0.0
H189 H 0.14898 0.34074 0.47692 0.0
H190 H 0.08104 0.33617 0.51352 0.0
H191 H 0.30418 0.3289 0.61373 0.0
H192 H 0.39343 0.40216 0.6018 0.0
H193 H 0.30814 0.37435 0.49847 0.0
C194 C 0.10765 0.21062 0.5261 0.0
C195 C 0.08409 0.1841 0.55275 0.0
C196 C 0.11721 0.2015 0.58512 0.0
C197 C 0.17463 0.24355 0.59081 0.0
C198 C 0.1981 0.2681 0.56396 0.0
C199 C 0.16486 0.25287 0.53233 0.0
C200 C 0.20064 0.28647 0.50798 0.0
C201 C 0.25817 0.25597 0.48036 0.0
C202 C 0.12207 0.31419 0.49334 0.0
C203 C 0.25931 0.32276 0.53093 0.0
C204 C 0.25713 0.31109 0.56304 0.0
C205 C 0.30577 0.33877 0.58876 0.0
C206 C 0.35611 0.38043 0.58174 0.0
C207 C 0.35699 0.3944 0.54933 0.0
C208 C 0.30917 0.36451 0.52346 0.0
H209 H 0.83777 0.88121 0.57546 0.0
H210 H 0.82564 0.89644 0.47033 0.0
H211 H 0.72941 0.82051 0.46024 0.0
H212 H 0.84887 0.74357 0.56337 0.0
H213 H 0.77979 0.73795 0.59954 0.0
H214 H 0.84935 0.79316 0.59846 0.0
H215 H 0.70661 0.84981 0.61083 0.0
H216 H 0.6364 0.79473 0.6115 0.0
H217 H 0.60924 0.8396 0.58381 0.0
H218 H 0.62886 0.74603 0.46164 0.0
H219 H 0.54217 0.6718 0.47336 0.0
H220 H 0.62277 0.70172 0.57717 0.0
C221 C 0.81572 0.86824 0.55026 0.0
C222 C 0.83948 0.89485 0.52368 0.0
C223 C 0.80887 0.87668 0.49109 0.0
C224 C 0.7537 0.83369 0.4851 0.0
C225 C 0.73017 0.80896 0.51189 0.0
C226 C 0.76108 0.82502 0.54374 0.0
C227 C 0.7263 0.79098 0.56796 0.0
C228 C 0.80582 0.76486 0.58323 0.0
C229 C 0.66606 0.82056 0.59513 0.0
C230 C 0.67064 0.75351 0.54472 0.0
C231 C 0.67345 0.76494 0.51256 0.0
C232 C 0.62691 0.73634 0.48665 0.0
C233 C 0.57796 0.69412 0.49358 0.0
C234 C 0.57649 0.68044 0.52608 0.0
C235 C 0.6224 0.71116 0.55208 0.0
H236 H 0.2782 0.06811 0.99713 0.0
H237 H 0.23748 0.06612 0.10326 0.0
H238 H 0.39463 0.03799 0.10811 0.0
H239 H 0.42102 0.96484 0.97911 0.0
H240 H 0.50063 0.992 0.95268 0.0
H241 H 0.38475 0.01436 0.95627 0.0
H242 H 0.43974 0.10605 0.97491 0.0
H243 H 0.5558 0.08428 0.97001 0.0
H244 H 0.51811 0.1186 1.00916 0.0
H245 H 0.54159 0.99518 0.10007 0.0
H246 H 0.69999 0.97297 0.0858 0.0
H247 H 0.66127 0.0157 0.98725 0.0
C248 C 0.30327 0.06334 0.02156 0.0
C249 C 0.24433 0.06763 0.04957 0.0
C250 C 0.28017 0.06177 0.0812 0.0
C251 C 0.36936 0.0454 0.08426 0.0
C252 C 0.42317 0.0374 0.05577 0.0
C253 C 0.39402 0.04897 0.02545 0.0
C254 C 0.46978 0.04029 0.99959 0.0
C255 C 0.44235 1.00051 0.97017 0.0
C256 C 0.49752 0.09028 0.98773 0.0
C257 C 0.54444 0.02059 0.0201 0.0
C258 C 0.5142 0.01788 0.05209 0.0
C259 C 0.5675 0.99859 0.07546 0.0
C260 C 0.65724 0.98559 0.0669 0.0
C261 C 0.69379 0.99374 0.03566 0.0
C262 C 0.63543 0.0092 1.01134 0.0
H263 H 0.26988 0.02585 0.4867 0.0
H264 H 0.22703 0.97529 0.5829 0.0
H265 H 0.38505 0.99608 0.59794 0.0
H266 H 0.51047 0.97403 0.47755 0.0
H267 H 0.54808 0.02511 0.45625 0.0
H268 H 0.43215 0.00311 0.45192 0.0
H269 H 0.37651 0.09447 0.4714 0.0
H270 H 0.49217 0.11638 0.47716 0.0
H271 H 0.41216 0.12666 0.51132 0.0
H272 H 0.53067 0.03965 0.6078 0.0
H273 H 0.68735 0.06948 0.60442 0.0
H274 H 0.65314 0.07755 0.49896 0.0
C275 C 0.29481 0.01727 0.51033 0.0
C276 C 0.23531 1.00014 0.53393 0.0
C277 C 0.27066 0.98928 0.56461 0.0
C278 C 0.36019 1.0014 0.5736 0.0
C279 C 0.41464 0.02235 0.5511 0.0
C280 C 0.38579 0.02749 0.51941 0.0
C281 C 0.46164 0.04874 0.49986 0.0
C282 C 0.48978 0.01046 0.46961 0.0
C283 C 0.43391 0.09957 0.48932 0.0
C284 C 0.53608 0.05567 0.526 0.0
C285 C 0.50541 0.04184 0.55562 0.0
C286 C 0.55731 0.04856 0.58439 0.0
C287 C 0.6463 0.06587 0.58222 0.0
C288 C 0.68406 0.07383 0.55118 0.0
C289 C 0.62679 0.07097 0.52296 0.0
H290 H 0.78439 0.56545 0.99602 0.0
H291 H 0.74249 0.56169 0.10179 0.0
H292 H 0.89865 0.53149 0.10644 0.0
H293 H 0.92617 0.45973 0.97747 0.0
H294 H 0.0053 0.48726 0.95105 0.0
H295 H 0.88922 0.50931 0.95481 0.0
H296 H 0.94362 0.60111 0.97358 0.0
H297 H 0.05975 0.5796 0.9685 0.0
H298 H 0.02222 0.61363 1.00777 0.0
H299 H 0.04754 0.49069 0.09866 0.0
H300 H 0.20814 0.47267 0.08492 0.0
H301 H 0.16696 0.51371 0.98621 0.0
C302 C 0.80901 0.55955 0.0203 0.0
C303 C 0.75038 0.56466 0.04839 0.0
C304 C 0.78532 0.55728 0.07982 0.0
C305 C 0.87375 0.53952 0.08268 0.0
C306 C 0.92743 0.53127 0.05413 0.0
C307 C 0.89877 0.54361 0.02395 0.0
C308 C -0.0256 0.53524 0.99807 0.0
C309 C 0.94708 0.49552 0.96861 0.0
C310 C 0.00163 0.58537 0.9863 0.0
C311 C 0.04916 0.51556 0.01851 0.0
C312 C 0.01868 0.51206 0.0504 0.0
C313 C 0.07318 0.49423 0.07403 0.0
C314 C 0.164 0.48364 0.06584 0.0
C315 C 0.19992 0.49251 0.0347 0.0
C316 C 0.14093 0.50617 1.01005 0.0
H317 H 0.15915 0.55634 0.4924 0.0
H318 H 0.19529 0.58445 0.59981 0.0
H319 H 0.03859 0.55726 0.60785 0.0
H320 H 0.92084 0.6064 0.49746 0.0
H321 H 0.88485 0.56236 0.46213 0.0
H322 H 0.00091 0.58434 0.46475 0.0
H323 H 0.05549 0.49126 0.45773 0.0
H324 H 0.93946 0.4691 0.45654 0.0
H325 H 0.01723 0.45069 0.4869 0.0
H326 H 0.89176 0.51409 0.60467 0.0
H327 H 0.7325 0.49155 0.59285 0.0
H328 H 0.77626 0.50464 0.4883 0.0
C329 C 0.13323 0.55811 0.51759 0.0
C330 C 0.19064 0.57075 0.54545 0.0
C331 C 0.15373 0.57354 0.57802 0.0
C332 C 0.06491 0.55773 0.58292 0.0
C333 C 0.01274 0.54146 0.55501 0.0
C334 C 0.04296 0.54437 0.52307 0.0
C335 C -0.03151 0.52879 0.49786 0.0
C336 C 0.94219 0.57312 0.47947 0.0
C337 C -0.00308 0.48219 0.47331 0.0
C338 C 0.89265 0.51604 0.52083 0.0
C339 C 0.92178 0.52188 0.55348 0.0
C340 C 0.86687 0.51076 0.57939 0.0
C341 C 0.77671 0.49755 0.57228 0.0
C342 C 0.74153 0.49763 0.5398 0.0
C343 C 0.8013 0.50434 0.51333 0.0
H344 H 0.90622 0.10448 0.36368 0.0
H345 H 0.07378 0.97546 0.37539 0.0
H346 H 0.10891 0.96319 0.3148 0.0
H347 H 0.80559 0.05621 0.29045 0.0
H348 H 0.80482 0.11382 0.2722 0.0
H349 H 0.80444 0.11652 0.31672 0.0
H350 H 0.9498 0.17205 0.32087 0.0
H351 H 0.95012 0.17001 0.27625 0.0
H352 H 0.04954 0.15034 0.29692 0.0
H353 H 0.10079 0.9567 0.25189 0.0
H354 H 0.06352 0.96124 0.19324 0.0
H355 H 0.91316 0.0997 0.2236 0.0
C356 C 0.95257 0.07474 0.35344 0.0
C357 C -0.01156 0.04121 0.37377 0.0
C358 C 0.04743 0.00193 0.35995 0.0
C359 C 0.06726 0.99469 0.32569 0.0
C360 C 0.02879 0.02778 0.30599 0.0
C361 C -0.02575 0.06773 0.31956 0.0
C362 C 0.93664 0.09612 0.29301 0.0
C363 C 0.8317 0.09559 0.29311 0.0
C364 C -0.02622 0.15034 0.297 0.0
C365 C -0.02493 0.06464 0.26222 0.0
C366 C 0.02827 0.02548 0.27005 0.0
C367 C 0.06234 0.98838 0.24543 0.0
C368 C 0.04157 0.99157 0.212 0.0
C369 C -0.01169 0.03198 0.20351 0.0
C370 C 0.95566 0.06895 0.22916 0.0
H371 H 0.02258 0.96949 0.85106 0.0
H372 H 0.87268 0.10719 0.88441 0.0
H373 H 0.83428 0.11445 0.82635 0.0
H374 H 0.12886 0.01727 0.78581 0.0
H375 H 0.13088 0.9583 0.75812 0.0
H376 H 0.1304 0.95827 0.80243 0.0
H377 H -0.01384 0.90179 0.79734 0.0
H378 H -0.01392 0.90175 0.75289 0.0
H379 H 0.88625 0.92206 0.77722 0.0
H380 H 0.82292 0.1104 0.76381 0.0
H381 H 0.85547 0.10086 0.70308 0.0
H382 H 0.02658 0.97187 0.71136 0.0
C383 C -0.02007 1.00064 0.84628 0.0
C384 C 0.94732 0.03641 0.87269 0.0
C385 C 0.89419 0.07751 0.86516 0.0
C386 C 0.8728 0.08229 0.83203 0.0
C387 C 0.90643 0.04624 0.80669 0.0
C388 C 0.95994 0.00656 0.81351 0.0
C389 C -0.00161 0.97678 0.78205 0.0
C390 C 0.10331 0.97776 0.78212 0.0
C391 C 0.96201 0.92237 0.77709 0.0
C392 C 0.96003 0.00661 0.75639 0.0
C393 C 0.90513 0.04575 0.77092 0.0
C394 C 0.86495 0.07957 0.75217 0.0
C395 C 0.88325 0.07385 0.71783 0.0
C396 C 0.94239 0.03534 0.70302 0.0
C397 C -0.01986 1.00105 0.72239 0.0
H398 H 0.39719 0.4649 0.34579 0.0
H399 H 0.55018 0.59776 0.38695 0.0
H400 H 0.57835 0.61771 0.33073 0.0
H401 H 0.52162 0.43285 0.26736 0.0
H402 H 0.41956 0.41742 0.24355 0.0
H403 H 0.42333 0.40874 0.28679 0.0
H404 H 0.28037 0.46529 0.29883 0.0
H405 H 0.27615 0.47412 0.2557 0.0
H406 H 0.28103 0.52816 0.28769 0.0
H407 H 0.5859 0.62539 0.2694 0.0
H408 H 0.55615 0.62497 0.20907 0.0
H409 H 0.38278 0.49425 0.20855 0.0
C410 C 0.43825 0.49765 0.34299 0.0
C411 C 0.47609 0.52776 0.37116 0.0
C412 C 0.52602 0.57156 0.36622 0.0
C413 C 0.54115 0.58387 0.33412 0.0
C414 C 0.50369 0.55301 0.30705 0.0
C415 C 0.45185 0.51127 0.31122 0.0
C416 C 0.41057 0.48755 0.27851 0.0
C417 C 0.44591 0.43343 0.26847 0.0
C418 C 0.30583 0.48889 0.2803 0.0
C419 C 0.44686 0.52268 0.25533 0.0
C420 C 0.50191 0.55966 0.27216 0.0
C421 C 0.54298 0.59659 0.256 0.0
C422 C 0.52615 0.5961 0.22188 0.0
C423 C 0.46772 0.55957 0.20463 0.0
C424 C 0.42805 0.52232 0.22147 0.0
H425 H 0.5392 0.60803 0.72988 0.0
H426 H 0.38174 0.47669 0.68896 0.0
H427 H 0.35468 0.4565 0.74509 0.0
H428 H 0.65581 0.54318 0.78673 0.0
H429 H 0.66317 0.59679 0.81897 0.0
H430 H 0.65733 0.60628 0.77598 0.0
H431 H 0.51606 0.66381 0.78924 0.0
H432 H 0.52146 0.65447 0.83233 0.0
H433 H 0.41809 0.64015 0.80911 0.0
H434 H 0.3491 0.44815 0.80648 0.0
H435 H 0.38193 0.44737 0.86649 0.0
H436 H 0.55879 0.57659 0.86642 0.0
C437 C 0.49735 0.57557 0.73268 0.0
C438 C 0.45817 0.54601 0.70456 0.0
C439 C 0.40715 0.50259 0.70958 0.0
C440 C 0.39257 0.4901 0.74167 0.0
C441 C 0.43159 0.52037 0.76867 0.0
C442 C 0.48434 0.56174 0.76443 0.0
C443 C 0.52751 0.58469 0.79695 0.0
C444 C 0.63214 0.58258 0.7945 0.0
C445 C 0.49373 0.639 0.80753 0.0
C446 C 0.49143 0.54948 0.8201 0.0
C447 C 0.43463 0.51322 0.80348 0.0
C448 C 0.3934 0.4764 0.81972 0.0
C449 C 0.41196 0.47622 0.85367 0.0
C450 C 0.47238 0.51194 0.87066 0.0
C451 C 0.51208 0.5491 0.85373 0.0
loop_
_geom_bond_atom_site_label_1
_geom_bond_atom_site_label_2
_geom_bond_distance
_geom_bond_site_symmetry_2
_ccdc_geom_bond_type
Zn0 O1 2.055 1_645 S
Zn0 O8 2.046 1_545 S
Zn0 N16 2.036 . S
Zn0 O28 2.053 . S
Zn0 O30 2.066 1_655 S
O1 Zn0 2.055 1_465 S
O1 C4 1.259 . S
C2 O30 1.256 . S
C2 O31 1.217 1_554 S
Zn3 O5 2.066 . S
Zn3 O7 2.058 1_455 S
Zn3 N9 2.034 . S
Zn3 O27 2.047 1_465 S
Zn3 O31 2.059 1_565 S
C4 O1 1.259 . S
C4 O5 1.254 1_554 S
O5 Zn3 2.066 . S
O5 C4 1.254 1_556 S
C6 O27 1.256 1_554 S
C6 O28 1.244 . S
O7 Zn3 2.058 1_655 S
O7 C29 1.259 1_556 S
O8 Zn0 2.046 1_565 S
O8 C29 1.254 . S
N9 Zn3 2.034 . S
N9 C10 1.298 1_465 S
N9 N12 1.398 . S
C10 N9 1.298 1_645 S
C10 N13 1.367 1_655 S
C10 C23 1.481 . S
C11 N12 1.299 1_545 S
C11 N13 1.379 . S
N12 N9 1.398 . S
N12 C11 1.299 1_565 S
N13 C10 1.367 1_455 S
N13 C11 1.379 . S
C14 N16 1.298 1_455 S
C14 N18 1.367 . S
C14 C22 1.481 1_545 S
C15 N17 1.299 . S
C15 N18 1.379 1_655 S
N16 Zn0 2.036 . S
N16 C14 1.298 1_655 S
N16 N17 1.398 . S
N17 C15 1.299 . S
N17 N16 1.398 . S
N18 C14 1.367 . S
N18 C15 1.379 1_455 S
H19 C22 0.980 . S
H20 C22 0.981 . S
H21 C22 0.981 . S
C22 C14 1.481 1_565 S
C22 H19 0.980 . S
C22 H20 0.981 . S
C22 H21 0.981 . S
C23 C10 1.481 . S
C23 H24 0.980 . S
C23 H25 0.981 . S
C23 H26 0.981 . S
H24 C23 0.980 . S
H25 C23 0.981 . S
H26 C23 0.981 . S
O27 Zn3 2.047 1_645 S
O27 C6 1.256 1_556 S
O28 Zn0 2.053 . S
O28 C6 1.244 . S
C29 O7 1.259 1_554 S
C29 O8 1.254 . S
O30 Zn0 2.066 1_455 S
O30 C2 1.256 . S
O31 C2 1.217 1_556 S
O31 Zn3 2.059 1_545 S
Zn32 O33 2.055 1_455 S
Zn32 O40 2.046 . S
Zn32 N48 2.036 . S
Zn32 O60 2.053 . S
Zn32 O62 2.066 1_445 S
O33 Zn32 2.055 1_655 S
O33 C36 1.259 . S
C34 O62 1.256 . S
C34 O63 1.244 . S
Zn35 O37 2.046 . S
Zn35 O39 2.055 1_655 S
Zn35 N41 2.036 . S
Zn35 O59 2.066 1_655 S
Zn35 O63 2.053 1_545 S
C36 O33 1.259 . S
C36 O37 1.254 . S
O37 Zn35 2.046 . S
O37 C36 1.254 . S
C38 O59 1.256 . S
C38 O60 1.244 . S
O39 Zn35 2.055 1_455 S
O39 C61 1.259 . S
O40 Zn32 2.046 . S
O40 C61 1.254 . S
N41 Zn35 2.036 . S
N41 C42 1.298 1_655 S
N41 N44 1.398 1_545 S
C42 N41 1.298 1_455 S
C42 N45 1.367 . S
C42 C55 1.481 . S
C43 N44 1.299 . S
C43 N45 1.379 1_665 S
N44 N41 1.398 1_565 S
N44 C43 1.299 . S
N45 C42 1.367 . S
N45 C43 1.379 1_445 S
C46 N48 1.298 1_655 S
C46 N50 1.367 1_655 S
C46 C54 1.481 . S
C47 N49 1.299 . S
C47 N50 1.379 . S
N48 Zn32 2.036 . S
N48 C46 1.298 1_455 S
N48 N49 1.398 . S
N49 C47 1.299 . S
N49 N48 1.398 . S
N50 C46 1.367 1_455 S
N50 C47 1.379 . S
H51 C54 0.980 . S
H52 C54 0.981 . S
H53 C54 0.981 . S
C54 C46 1.481 . S
C54 H51 0.980 . S
C54 H52 0.981 . S
C54 H53 0.981 . S
C55 C42 1.481 . S
C55 H56 0.980 . S
C55 H57 0.981 . S
C55 H58 0.981 . S
H56 C55 0.980 . S
H57 C55 0.981 . S
H58 C55 0.981 . S
O59 Zn35 2.066 1_455 S
O59 C38 1.256 . S
O60 Zn32 2.053 . S
O60 C38 1.244 . S
C61 O39 1.259 . S
C61 O40 1.254 . S
O62 Zn32 2.066 1_665 S
O62 C34 1.256 . S
O63 C34 1.244 . S
O63 Zn35 2.053 1_565 S
Zn64 O65 2.055 . S
Zn64 O72 2.046 . S
Zn64 N80 2.036 . S
Zn64 O92 2.053 . S
Zn64 O94 2.066 . S
O65 Zn64 2.055 . S
O65 C68 1.259 . S
C66 O94 1.256 . S
C66 O95 1.217 1_554 S
Zn67 O69 2.046 . S
Zn67 O71 2.055 . S
Zn67 N73 2.036 . S
Zn67 O91 2.066 . S
Zn67 O95 2.063 . S
C68 O65 1.259 . S
C68 O69 1.254 1_554 S
O69 Zn67 2.046 . S
O69 C68 1.254 1_556 S
C70 O91 1.256 1_554 S
C70 O92 1.244 . S
O71 Zn67 2.055 . S
O71 C93 1.259 1_556 S
O72 Zn64 2.046 . S
O72 C93 1.254 . S
N73 Zn67 2.036 . S
N73 C74 1.298 . S
N73 N76 1.398 . S
C74 N73 1.298 . S
C74 N77 1.367 . S
C74 C87 1.481 . S
C75 N76 1.299 . S
C75 N77 1.379 . S
N76 N73 1.398 . S
N76 C75 1.299 . S
N77 C74 1.367 . S
N77 C75 1.379 . S
C78 N80 1.298 . S
C78 N82 1.367 . S
C78 C86 1.481 . S
C79 N81 1.299 . S
C79 N82 1.379 . S
N80 Zn64 2.036 . S
N80 C78 1.298 . S
N80 N81 1.398 . S
N81 C79 1.299 . S
N81 N80 1.398 . S
N82 C78 1.367 . S
N82 C79 1.379 . S
H83 C86 0.980 . S
H84 C86 0.981 . S
H85 C86 0.981 . S
C86 C78 1.481 . S
C86 H83 0.980 . S
C86 H84 0.981 . S
C86 H85 0.981 . S
C87 C74 1.481 . S
C87 H88 0.980 . S
C87 H89 0.981 . S
C87 H90 0.981 . S
H88 C87 0.980 . S
H89 C87 0.981 . S
H90 C87 0.981 . S
O91 Zn67 2.066 . S
O91 C70 1.256 1_556 S
O92 Zn64 2.053 . S
O92 C70 1.244 . S
C93 O71 1.259 1_554 S
C93 O72 1.254 . S
O94 Zn64 2.066 . S
O94 C66 1.256 . S
O95 C66 1.217 1_556 S
O95 Zn67 2.063 . S
Zn96 O97 2.055 . S
Zn96 O104 2.046 . S
Zn96 N112 2.036 . S
Zn96 O124 2.053 . S
Zn96 O126 2.066 . S
O97 Zn96 2.055 . S
O97 C100 1.259 . S
C98 O126 1.256 . S
C98 O127 1.244 . S
Zn99 O101 2.046 . S
Zn99 O103 2.055 . S
Zn99 N105 2.036 . S
Zn99 O123 2.066 . S
Zn99 O127 2.053 . S
C100 O97 1.259 . S
C100 O101 1.254 . S
O101 Zn99 2.046 . S
O101 C100 1.254 . S
C102 O123 1.256 . S
C102 O124 1.244 . S
O103 Zn99 2.055 . S
O103 C125 1.259 . S
O104 Zn96 2.046 . S
O104 C125 1.254 . S
N105 Zn99 2.036 . S
N105 C106 1.298 . S
N105 N108 1.398 . S
C106 N105 1.298 . S
C106 N109 1.367 . S
C106 C119 1.481 . S
C107 N108 1.299 . S
C107 N109 1.379 . S
N108 N105 1.398 . S
N108 C107 1.299 . S
N109 C106 1.367 . S
N109 C107 1.379 . S
C110 N112 1.298 . S
C110 N114 1.367 . S
C110 C118 1.481 . S
C111 N113 1.299 . S
C111 N114 1.379 . S
N112 Zn96 2.036 . S
N112 C110 1.298 . S
N112 N113 1.398 . S
N113 C111 1.299 . S
N113 N112 1.398 . S
N114 C110 1.367 . S
N114 C111 1.379 . S
H115 C118 0.980 . S
H116 C118 0.981 . S
H117 C118 0.981 . S
C118 C110 1.481 . S
C118 H115 0.980 . S
C118 H116 0.981 . S
C118 H117 0.981 . S
C119 C106 1.481 . S
C119 H120 0.980 . S
C119 H121 0.981 . S
C119 H122 0.981 . S
H120 C119 0.980 . S
H121 C119 0.981 . S
H122 C119 0.981 . S
O123 Zn99 2.066 . S
O123 C102 1.256 . S
O124 Zn96 2.053 . S
O124 C102 1.244 . S
C125 O103 1.259 . S
C125 O104 1.254 . S
O126 Zn96 2.066 . S
O126 C98 1.256 . S
O127 C98 1.244 . S
O127 Zn99 2.053 . S
H128 C140 0.930 . S
H129 C142 0.930 . S
H130 C143 0.930 . S
H131 C147 0.959 . S
H132 C147 0.959 . S
H133 C147 0.961 . S
H134 C148 0.960 . S
H135 C148 0.961 . S
H136 C148 0.959 . S
H137 C151 0.929 . S
H138 C152 0.931 . S
H139 C154 0.930 . S
C140 H128 0.930 . S
C140 C141 1.399 . S
C140 C145 1.399 . S
C141 C140 1.399 . S
C141 C142 1.376 1_554 S
C142 H129 0.930 . S
C142 C141 1.376 1_556 S
C142 C143 1.388 . S
C143 H130 0.930 . S
C143 C142 1.388 . S
C143 C144 1.390 1_556 S
C144 C143 1.390 1_554 S
C144 C145 1.394 . S
C144 C150 1.465 . S
C145 C140 1.399 . S
C145 C144 1.394 . S
C145 C146 1.516 . S
C146 C145 1.516 . S
C146 C147 1.502 . S
C146 C148 1.561 . S
C146 C149 1.526 . S
C147 H131 0.959 . S
C147 H132 0.959 . S
C147 H133 0.961 . S
C147 C146 1.502 . S
C148 H134 0.960 . S
C148 H135 0.961 . S
C148 H136 0.959 . S
C148 C146 1.561 . S
C149 C146 1.526 . S
C149 C150 1.396 . S
C149 C154 1.390 . S
C150 C144 1.465 . S
C150 C149 1.396 . S
C150 C151 1.399 1_554 S
C151 H137 0.929 . S
C151 C150 1.399 1_556 S
C151 C152 1.385 . S
C152 H138 0.931 . S
C152 C151 1.385 . S
C152 C153 1.389 1_556 S
C153 C152 1.389 1_554 S
C153 C154 1.387 . S
C154 H139 0.930 . S
C154 C149 1.390 . S
C154 C153 1.387 . S
H155 C167 0.930 . S
H156 C169 0.930 . S
H157 C170 0.930 . S
H158 C174 0.959 . S
H159 C174 0.959 . S
H160 C174 0.961 . S
H161 C175 0.960 . S
H162 C175 0.961 . S
H163 C175 0.959 . S
H164 C178 0.929 . S
H165 C179 0.931 . S
H166 C181 0.930 . S
C167 H155 0.930 . S
C167 C168 1.399 1_556 S
C167 C172 1.397 1_556 S
C168 C167 1.399 1_554 S
C168 C169 1.376 . S
C169 H156 0.930 . S
C169 C168 1.376 . S
C169 C170 1.388 . S
C170 H157 0.930 . S
C170 C169 1.388 . S
C170 C171 1.390 . S
C171 C170 1.390 . S
C171 C172 1.400 . S
C171 C177 1.465 . S
C172 C167 1.397 1_554 S
C172 C171 1.400 . S
C172 C173 1.513 1_554 S
C173 C172 1.513 1_556 S
C173 C174 1.502 . S
C173 C175 1.561 . S
C173 C176 1.526 1_556 S
C174 H158 0.959 . S
C174 H159 0.959 . S
C174 H160 0.961 . S
C174 C173 1.502 . S
C175 H161 0.960 . S
C175 H162 0.961 . S
C175 H163 0.959 . S
C175 C173 1.561 . S
C176 C173 1.526 1_554 S
C176 C177 1.396 . S
C176 C181 1.390 1_554 S
C177 C171 1.465 . S
C177 C176 1.396 . S
C177 C178 1.399 . S
C178 H164 0.929 . S
C178 C177 1.399 . S
C178 C179 1.385 . S
C179 H165 0.931 . S
C179 C178 1.385 . S
C179 C180 1.389 . S
C180 C179 1.389 . S
C180 C181 1.387 1_554 S
C181 H166 0.930 . S
C181 C176 1.390 1_556 S
C181 C180 1.387 1_556 S
H182 C194 0.930 . S
H183 C196 0.930 . S
H184 C197 0.930 . S
H185 C201 0.959 . S
H186 C201 0.959 . S
H187 C201 0.961 . S
H188 C202 0.960 . S
H189 C202 0.961 . S
H190 C202 0.959 . S
H191 C205 0.929 . S
H192 C206 0.931 . S
H193 C208 0.930 . S
C194 H182 0.930 . S
C194 C195 1.399 . S
C194 C199 1.399 . S
C195 C194 1.399 . S
C195 C196 1.376 . S
C196 H183 0.930 . S
C196 C195 1.376 . S
C196 C197 1.388 . S
C197 H184 0.930 . S
C197 C196 1.388 . S
C197 C198 1.390 . S
C198 C197 1.390 . S
C198 C199 1.394 . S
C198 C204 1.465 . S
C199 C194 1.399 . S
C199 C198 1.394 . S
C199 C200 1.516 . S
C200 C199 1.516 . S
C200 C201 1.502 . S
C200 C202 1.561 . S
C200 C203 1.526 . S
C201 H185 0.959 . S
C201 H186 0.959 . S
C201 H187 0.961 . S
C201 C200 1.502 . S
C202 H188 0.960 . S
C202 H189 0.961 . S
C202 H190 0.959 . S
C202 C200 1.561 . S
C203 C200 1.526 . S
C203 C204 1.396 . S
C203 C208 1.390 . S
C204 C198 1.465 . S
C204 C203 1.396 . S
C204 C205 1.399 . S
C205 H191 0.929 . S
C205 C204 1.399 . S
C205 C206 1.385 . S
C206 H192 0.931 . S
C206 C205 1.385 . S
C206 C207 1.389 . S
C207 C206 1.389 . S
C207 C208 1.387 . S
C208 H193 0.930 . S
C208 C203 1.390 . S
C208 C207 1.387 . S
H209 C221 0.930 . S
H210 C223 0.930 . S
H211 C224 0.930 . S
H212 C228 0.959 . S
H213 C228 0.959 . S
H214 C228 0.961 . S
H215 C229 0.960 . S
H216 C229 0.961 . S
H217 C229 0.959 . S
H218 C232 0.929 . S
H219 C233 0.931 . S
H220 C235 0.930 . S
C221 H209 0.930 . S
C221 C222 1.399 . S
C221 C226 1.399 . S
C222 C221 1.399 . S
C222 C223 1.376 . S
C223 H210 0.930 . S
C223 C222 1.376 . S
C223 C224 1.388 . S
C224 H211 0.930 . S
C224 C223 1.388 . S
C224 C225 1.390 . S
C225 C224 1.390 . S
C225 C226 1.394 . S
C225 C231 1.465 . S
C226 C221 1.399 . S
C226 C225 1.394 . S
C226 C227 1.516 . S
C227 C226 1.516 . S
C227 C228 1.502 . S
C227 C229 1.561 . S
C227 C230 1.526 . S
C228 H212 0.959 . S
C228 H213 0.959 . S
C228 H214 0.961 . S
C228 C227 1.502 . S
C229 H215 0.960 . S
C229 H216 0.961 . S
C229 H217 0.959 . S
C229 C227 1.561 . S
C230 C227 1.526 . S
C230 C231 1.396 . S
C230 C235 1.390 . S
C231 C225 1.465 . S
C231 C230 1.396 . S
C231 C232 1.399 . S
C232 H218 0.929 . S
C232 C231 1.399 . S
C232 C233 1.385 . S
C233 H219 0.931 . S
C233 C232 1.385 . S
C233 C234 1.389 . S
C234 C233 1.389 . S
C234 C235 1.387 . S
C235 H220 0.930 . S
C235 C230 1.390 . S
C235 C234 1.387 . S
H236 C248 0.930 1_556 S
H237 C250 0.930 . S
H238 C251 0.930 . S
H239 C255 0.959 . S
H240 C255 0.959 . S
H241 C255 0.961 . S
H242 C256 0.960 . S
H243 C256 0.961 . S
H244 C256 0.959 . S
H245 C259 0.929 . S
H246 C260 0.931 . S
H247 C262 0.930 1_545 S
C248 H236 0.930 1_554 S
C248 C249 1.399 . S
C248 C253 1.399 . S
C249 C248 1.399 . S
C249 C250 1.376 . S
C250 H237 0.930 . S
C250 C249 1.376 . S
C250 C251 1.388 . S
C251 H238 0.930 . S
C251 C250 1.388 . S
C251 C252 1.390 . S
C252 C251 1.390 . S
C252 C253 1.394 . S
C252 C258 1.465 . S
C253 C248 1.399 . S
C253 C252 1.394 . S
C253 C254 1.516 1_554 S
C254 C253 1.516 1_556 S
C254 C255 1.502 1_545 S
C254 C256 1.561 . S
C254 C257 1.526 1_556 S
C255 H239 0.959 . S
C255 H240 0.959 . S
C255 H241 0.961 . S
C255 C254 1.502 1_565 S
C256 H242 0.960 . S
C256 H243 0.961 . S
C256 H244 0.959 . S
C256 C254 1.561 . S
C257 C254 1.526 1_554 S
C257 C258 1.396 . S
C257 C262 1.389 1_544 S
C258 C252 1.465 . S
C258 C257 1.396 . S
C258 C259 1.399 1_545 S
C259 H245 0.929 . S
C259 C258 1.399 1_565 S
C259 C260 1.385 . S
C260 H246 0.931 . S
C260 C259 1.385 . S
C260 C261 1.389 . S
C261 C260 1.389 . S
C261 C262 1.387 1_554 S
C262 H247 0.930 1_565 S
C262 C257 1.389 1_566 S
C262 C261 1.387 1_556 S
H263 C275 0.930 . S
H264 C277 0.930 . S
H265 C278 0.930 . S
H266 C282 0.959 . S
H267 C282 0.959 . S
H268 C282 0.961 . S
H269 C283 0.960 . S
H270 C283 0.961 . S
H271 C283 0.959 . S
H272 C286 0.929 . S
H273 C287 0.931 . S
H274 C289 0.930 . S
C275 H263 0.930 . S
C275 C276 1.399 . S
C275 C280 1.399 . S
C276 C275 1.399 . S
C276 C277 1.376 . S
C277 H264 0.930 . S
C277 C276 1.376 . S
C277 C278 1.388 . S
C278 H265 0.930 . S
C278 C277 1.388 . S
C278 C279 1.390 . S
C279 C278 1.390 . S
C279 C280 1.394 . S
C279 C285 1.465 . S
C280 C275 1.399 . S
C280 C279 1.394 . S
C280 C281 1.516 . S
C281 C280 1.516 . S
C281 C282 1.502 1_545 S
C281 C283 1.561 . S
C281 C284 1.526 . S
C282 H266 0.959 . S
C282 H267 0.959 . S
C282 H268 0.961 . S
C282 C281 1.502 1_565 S
C283 H269 0.960 . S
C283 H270 0.961 . S
C283 H271 0.959 . S
C283 C281 1.561 . S
C284 C281 1.526 . S
C284 C285 1.396 . S
C284 C289 1.390 . S
C285 C279 1.465 . S
C285 C284 1.396 . S
C285 C286 1.399 . S
C286 H272 0.929 . S
C286 C285 1.399 . S
C286 C287 1.385 . S
C287 H273 0.931 . S
C287 C286 1.385 . S
C287 C288 1.389 . S
C288 C287 1.389 . S
C288 C289 1.387 . S
C289 H274 0.930 . S
C289 C284 1.390 . S
C289 C288 1.387 . S
H290 C302 0.930 1_556 S
H291 C304 0.930 . S
H292 C305 0.930 . S
H293 C309 0.959 . S
H294 C309 0.959 1_455 S
H295 C309 0.961 . S
H296 C310 0.960 1_655 S
H297 C310 0.961 . S
H298 C310 0.959 1_554 S
H299 C313 0.929 . S
H300 C314 0.931 . S
H301 C316 0.930 . S
C302 H290 0.930 1_554 S
C302 C303 1.399 . S
C302 C307 1.399 . S
C303 C302 1.399 . S
C303 C304 1.376 . S
C304 H291 0.930 . S
C304 C303 1.376 . S
C304 C305 1.388 . S
C305 H292 0.930 . S
C305 C304 1.388 . S
C305 C306 1.390 . S
C306 C305 1.390 . S
C306 C307 1.394 . S
C306 C312 1.465 1_655 S
C307 C302 1.399 . S
C307 C306 1.394 . S
C307 C308 1.516 1_554 S
C308 C307 1.516 1_556 S
C308 C309 1.502 . S
C308 C310 1.561 1_655 S
C308 C311 1.526 1_656 S
C309 H293 0.959 . S
C309 H294 0.959 1_655 S
C309 H295 0.961 . S
C309 C308 1.502 . S
C310 H296 0.960 1_455 S
C310 H297 0.961 . S
C310 H298 0.959 1_556 S
C310 C308 1.561 1_455 S
C311 C308 1.526 1_454 S
C311 C312 1.396 . S
C311 C316 1.390 1_554 S
C312 C306 1.465 1_455 S
C312 C311 1.396 . S
C312 C313 1.399 . S
C313 H299 0.929 . S
C313 C312 1.399 . S
C313 C314 1.385 . S
C314 H300 0.931 . S
C314 C313 1.385 . S
C314 C315 1.389 . S
C315 C314 1.389 . S
C315 C316 1.387 1_554 S
C316 H301 0.930 . S
C316 C311 1.390 1_556 S
C316 C315 1.387 1_556 S
H317 C329 0.930 . S
H318 C331 0.930 . S
H319 C332 0.930 . S
H320 C336 0.959 . S
H321 C336 0.959 . S
H322 C336 0.961 1_455 S
H323 C337 0.960 . S
H324 C337 0.961 1_655 S
H325 C337 0.959 . S
H326 C340 0.929 . S
H327 C341 0.931 . S
H328 C343 0.930 . S
C329 H317 0.930 . S
C329 C330 1.399 . S
C329 C334 1.399 . S
C330 C329 1.399 . S
C330 C331 1.376 . S
C331 H318 0.930 . S
C331 C330 1.376 . S
C331 C332 1.388 . S
C332 H319 0.930 . S
C332 C331 1.388 . S
C332 C333 1.390 . S
C333 C332 1.390 . S
C333 C334 1.394 . S
C333 C339 1.465 1_455 S
C334 C329 1.399 . S
C334 C333 1.394 . S
C334 C335 1.516 1_455 S
C335 C334 1.516 1_655 S
C335 C336 1.502 . S
C335 C337 1.561 1_655 S
C335 C338 1.526 . S
C336 H320 0.959 . S
C336 H321 0.959 . S
C336 H322 0.961 1_655 S
C336 C335 1.502 . S
C337 H323 0.960 . S
C337 H324 0.961 1_455 S
C337 H325 0.959 . S
C337 C335 1.561 1_455 S
C338 C335 1.526 . S
C338 C339 1.396 . S
C338 C343 1.390 . S
C339 C333 1.465 1_655 S
C339 C338 1.396 . S
C339 C340 1.399 . S
C340 H326 0.929 . S
C340 C339 1.399 . S
C340 C341 1.385 . S
C341 H327 0.931 . S
C341 C340 1.385 . S
C341 C342 1.389 . S
C342 C341 1.389 . S
C342 C343 1.387 . S
C343 H328 0.930 . S
C343 C338 1.390 . S
C343 C342 1.387 . S
H344 C356 0.930 1_655 S
H345 C358 0.930 . S
H346 C359 0.930 . S
H347 C363 0.959 . S
H348 C363 0.959 . S
H349 C363 0.961 . S
H350 C364 0.960 . S
H351 C364 0.961 . S
H352 C364 0.959 . S
H353 C367 0.929 . S
H354 C368 0.931 . S
H355 C370 0.930 1_655 S
C356 H344 0.930 1_455 S
C356 C357 1.399 . S
C356 C361 1.399 . S
C357 C356 1.399 . S
C357 C358 1.376 1_545 S
C358 H345 0.930 . S
C358 C357 1.376 1_565 S
C358 C359 1.388 . S
C359 H346 0.930 . S
C359 C358 1.388 . S
C359 C360 1.390 1_565 S
C360 C359 1.390 1_545 S
C360 C361 1.394 . S
C360 C366 1.465 . S
C361 C356 1.399 . S
C361 C360 1.394 . S
C361 C362 1.516 . S
C362 C361 1.516 . S
C362 C363 1.502 1_455 S
C362 C364 1.561 . S
C362 C365 1.526 . S
C363 H347 0.959 . S
C363 H348 0.959 . S
C363 H349 0.961 . S
C363 C362 1.502 1_655 S
C364 H350 0.960 . S
C364 H351 0.961 . S
C364 H352 0.959 . S
C364 C362 1.561 . S
C365 C362 1.526 . S
C365 C366 1.396 . S
C365 C370 1.390 . S
C366 C360 1.465 . S
C366 C365 1.396 . S
C366 C367 1.399 1_545 S
C367 H353 0.929 . S
C367 C366 1.399 1_565 S
C367 C368 1.385 . S
C368 H354 0.931 . S
C368 C367 1.385 . S
C368 C369 1.389 1_565 S
C369 C368 1.389 1_545 S
C369 C370 1.387 . S
C370 H355 0.930 1_455 S
C370 C365 1.390 . S
C370 C369 1.387 . S
H371 C383 0.930 1_565 S
H372 C385 0.930 . S
H373 C386 0.930 . S
H374 C390 0.959 1_545 S
H375 C390 0.959 . S
H376 C390 0.961 . S
H377 C391 0.960 . S
H378 C391 0.961 . S
H379 C391 0.959 1_655 S
H380 C394 0.929 . S
H381 C395 0.931 . S
H382 C397 0.930 1_565 S
C383 H371 0.930 1_545 S
C383 C384 1.399 1_455 S
C383 C388 1.399 . S
C384 C383 1.399 1_655 S
C384 C385 1.376 . S
C385 H372 0.930 . S
C385 C384 1.376 . S
C385 C386 1.388 . S
C386 H373 0.930 . S
C386 C385 1.388 . S
C386 C387 1.390 . S
C387 C386 1.390 . S
C387 C388 1.394 1_655 S
C387 C393 1.465 . S
C388 C383 1.399 . S
C388 C387 1.394 1_455 S
C388 C389 1.516 1_545 S
C389 C388 1.516 1_565 S
C389 C390 1.502 . S
C389 C391 1.561 . S
C389 C392 1.526 1_565 S
C390 H374 0.959 1_565 S
C390 H375 0.959 . S
C390 H376 0.961 . S
C390 C389 1.502 . S
C391 H377 0.960 . S
C391 H378 0.961 . S
C391 H379 0.959 1_455 S
C391 C389 1.561 . S
C392 C389 1.526 1_545 S
C392 C393 1.396 1_455 S
C392 C397 1.390 . S
C393 C387 1.465 . S
C393 C392 1.396 1_655 S
C393 C394 1.399 . S
C394 H380 0.929 . S
C394 C393 1.399 . S
C394 C395 1.385 . S
C395 H381 0.931 . S
C395 C394 1.385 . S
C395 C396 1.389 . S
C396 C395 1.389 . S
C396 C397 1.387 1_655 S
C397 H382 0.930 1_545 S
C397 C392 1.390 . S
C397 C396 1.387 1_455 S
H398 C410 0.930 . S
H399 C412 0.930 . S
H400 C413 0.930 . S
H401 C417 0.959 . S
H402 C417 0.959 . S
H403 C417 0.961 . S
H404 C418 0.960 . S
H405 C418 0.961 . S
H406 C418 0.959 . S
H407 C421 0.929 . S
H408 C422 0.931 . S
H409 C424 0.930 . S
C410 H398 0.930 . S
C410 C411 1.399 . S
C410 C415 1.399 . S
C411 C410 1.399 . S
C411 C412 1.376 . S
C412 H399 0.930 . S
C412 C411 1.376 . S
C412 C413 1.388 . S
C413 H400 0.930 . S
C413 C412 1.388 . S
C413 C414 1.390 . S
C414 C413 1.390 . S
C414 C415 1.394 . S
C414 C420 1.465 . S
C415 C410 1.399 . S
C415 C414 1.394 . S
C415 C416 1.516 . S
C416 C415 1.516 . S
C416 C417 1.502 . S
C416 C418 1.561 . S
C416 C419 1.526 . S
C417 H401 0.959 . S
C417 H402 0.959 . S
C417 H403 0.961 . S
C417 C416 1.502 . S
C418 H404 0.960 . S
C418 H405 0.961 . S
C418 H406 0.959 . S
C418 C416 1.561 . S
C419 C416 1.526 . S
C419 C420 1.396 . S
C419 C424 1.390 . S
C420 C414 1.465 . S
C420 C419 1.396 . S
C420 C421 1.399 . S
C421 H407 0.929 . S
C421 C420 1.399 . S
C421 C422 1.385 . S
C422 H408 0.931 . S
C422 C421 1.385 . S
C422 C423 1.389 . S
C423 C422 1.389 . S
C423 C424 1.387 . S
C424 H409 0.930 . S
C424 C419 1.390 . S
C424 C423 1.387 . S
H425 C437 0.930 . S
H426 C439 0.930 . S
H427 C440 0.930 . S
H428 C444 0.959 . S
H429 C444 0.959 . S
H430 C444 0.961 . S
H431 C445 0.960 . S
H432 C445 0.961 . S
H433 C445 0.959 . S
H434 C448 0.929 . S
H435 C449 0.931 . S
H436 C451 0.930 . S
C437 H425 0.930 . S
C437 C438 1.399 . S
C437 C442 1.399 . S
C438 C437 1.399 . S
C438 C439 1.376 . S
C439 H426 0.930 . S
C439 C438 1.376 . S
C439 C440 1.388 . S
C440 H427 0.930 . S
C440 C439 1.388 . S
C440 C441 1.390 . S
C441 C440 1.390 . S
C441 C442 1.394 . S
C441 C447 1.465 . S
C442 C437 1.399 . S
C442 C441 1.394 . S
C442 C443 1.516 . S
C443 C442 1.516 . S
C443 C444 1.502 . S
C443 C445 1.561 . S
C443 C446 1.526 . S
C444 H428 0.959 . S
C444 H429 0.959 . S
C444 H430 0.961 . S
C444 C443 1.502 . S
C445 H431 0.960 . S
C445 H432 0.961 . S
C445 H433 0.959 . S
C445 C443 1.561 . S
C446 C443 1.526 . S
C446 C447 1.396 . S
C446 C451 1.390 . S
C447 C441 1.465 . S
C447 C446 1.396 . S
C447 C448 1.399 . S
C448 H434 0.929 . S
C448 C447 1.399 . S
C448 C449 1.385 . S
C449 H435 0.931 . S
C449 C448 1.385 . S
C449 C450 1.389 . S
C450 C449 1.389 . S
C450 C451 1.387 . S
C451 H436 0.930 . S
C451 C446 1.390 . S
C451 C450 1.387 . S
C141 C70 1.564 . S
C153 C4 1.561 . S
C168 C68 1.556 . S
C180 C6 1.564 . S
C195 C61 1.569 . S
C207 C98 1.549 . S
C222 C34 1.550 . S
C234 C125 1.564 . S
C249 C2 0.935 . S
C261 C29 0.906 . S
C276 C38 0.888 . S
C288 C36 0.940 . S
C303 C66 0.930 . S
C315 C93 0.909 . S
C330 C100 0.917 . S
C342 C102 0.921 . S
C357 N45 1.494 . S
C369 N18 1.500 . S
C384 N13 1.483 1_655 S
C396 N50 1.463 1_655 S
C411 N109 1.451 . S
C423 N82 1.444 . S
C438 N114 1.480 . S
C450 N77 1.438 . S
