# Generated by pormake.
# Topology ukb, (4)-cn, num edge types: 1
# Building blocks:
#     Node 0, Type 0, BuildingBlock: GALJAG_clean_sbu_0, # of connection points: 4
#     Node 1, Type 0, BuildingBlock: GALJAG_clean_sbu_0, # of connection points: 4
#     Node 2, Type 0, BuildingBlock: GALJAG_clean_sbu_0, # of connection points: 4
#     Node 3, Type 0, BuildingBlock: GALJAG_clean_sbu_0, # of connection points: 4
#     Node 4, Type 0, BuildingBlock: GALJAG_clean_sbu_0, # of connection points: 4
#     Node 5, Type 0, BuildingBlock: GALJAG_clean_sbu_0, # of connection points: 4
#     Node 6, Type 0, BuildingBlock: GALJAG_clean_sbu_0, # of connection points: 4
#     Node 7, Type 0, BuildingBlock: GALJAG_clean_sbu_0, # of connection points: 4
#     Node 8, Type 0, BuildingBlock: GALJAG_clean_sbu_0, # of connection points: 4
#     Node 9, Type 0, BuildingBlock: GALJAG_clean_sbu_0, # of connection points: 4
#     Node 10, Type 0, BuildingBlock: GALJAG_clean_sbu_0, # of connection points: 4
#     Node 11, Type 0, BuildingBlock: GALJAG_clean_sbu_0, # of connection points: 4
#     Node 12, Type 0, BuildingBlock: GALJAG_clean_sbu_0, # of connection points: 4
#     Node 13, Type 0, BuildingBlock: GALJAG_clean_sbu_0, # of connection points: 4
#     Node 14, Type 0, BuildingBlock: GALJAG_clean_sbu_0, # of connection points: 4
#     Node 15, Type 0, BuildingBlock: GALJAG_clean_sbu_0, # of connection points: 4
#     Edge 16, Type (0, 0), BuildingBlock: OJICUG_clean_linker_0, # of connection points: 2
#     Edge 17, Type (0, 0), BuildingBlock: OJICUG_clean_linker_0, # of connection points: 2
#     Edge 18, Type (0, 0), BuildingBlock: OJICUG_clean_linker_0, # of connection points: 2
#     Edge 19, Type (0, 0), BuildingBlock: OJICUG_clean_linker_0, # of connection points: 2
#     Edge 20, Type (0, 0), BuildingBlock: OJICUG_clean_linker_0, # of connection points: 2
#     Edge 21, Type (0, 0), BuildingBlock: OJICUG_clean_linker_0, # of connection points: 2
#     Edge 22, Type (0, 0), BuildingBlock: OJICUG_clean_linker_0, # of connection points: 2
#     Edge 23, Type (0, 0), BuildingBlock: OJICUG_clean_linker_0, # of connection points: 2
#     Edge 24, Type (0, 0), BuildingBlock: OJICUG_clean_linker_0, # of connection points: 2
#     Edge 25, Type (0, 0), BuildingBlock: OJICUG_clean_linker_0, # of connection points: 2
#     Edge 26, Type (0, 0), BuildingBlock: OJICUG_clean_linker_0, # of connection points: 2
#     Edge 27, Type (0, 0), BuildingBlock: OJICUG_clean_linker_0, # of connection points: 2
#     Edge 28, Type (0, 0), BuildingBlock: OJICUG_clean_linker_0, # of connection points: 2
#     Edge 29, Type (0, 0), BuildingBlock: OJICUG_clean_linker_0, # of connection points: 2
#     Edge 30, Type (0, 0), BuildingBlock: OJICUG_clean_linker_0, # of connection points: 2
#     Edge 31, Type (0, 0), BuildingBlock: OJICUG_clean_linker_0, # of connection points: 2
#     Edge 32, Type (0, 0), BuildingBlock: OJICUG_clean_linker_0, # of connection points: 2
#     Edge 33, Type (0, 0), BuildingBlock: OJICUG_clean_linker_0, # of connection points: 2
#     Edge 34, Type (0, 0), BuildingBlock: OJICUG_clean_linker_0, # of connection points: 2
#     Edge 35, Type (0, 0), BuildingBlock: OJICUG_clean_linker_0, # of connection points: 2
#     Edge 36, Type (0, 0), BuildingBlock: OJICUG_clean_linker_0, # of connection points: 2
#     Edge 37, Type (0, 0), BuildingBlock: OJICUG_clean_linker_0, # of connection points: 2
#     Edge 38, Type (0, 0), BuildingBlock: OJICUG_clean_linker_0, # of connection points: 2
#     Edge 39, Type (0, 0), BuildingBlock: OJICUG_clean_linker_0, # of connection points: 2
#     Edge 40, Type (0, 0), BuildingBlock: OJICUG_clean_linker_0, # of connection points: 2
#     Edge 41, Type (0, 0), BuildingBlock: OJICUG_clean_linker_0, # of connection points: 2
#     Edge 42, Type (0, 0), BuildingBlock: OJICUG_clean_linker_0, # of connection points: 2
#     Edge 43, Type (0, 0), BuildingBlock: OJICUG_clean_linker_0, # of connection points: 2
#     Edge 44, Type (0, 0), BuildingBlock: OJICUG_clean_linker_0, # of connection points: 2
#     Edge 45, Type (0, 0), BuildingBlock: OJICUG_clean_linker_0, # of connection points: 2
#     Edge 46, Type (0, 0), BuildingBlock: OJICUG_clean_linker_0, # of connection points: 2
#     Edge 47, Type (0, 0), BuildingBlock: OJICUG_clean_linker_0, # of connection points: 2
# Relax obj value: 0.140
# Max RMSD: 0.093
# Mean RMSD: 0.093
data_MOF--net-ukb--node1-GALJAG_clean_sbu_0--edge1-OJICUG_clean_linker_0
_symmetry_space_group_name_H-M    P1
_symmetry_Int_Tables_number       1
_symmetry_cell_setting            triclinic
loop_
_symmetry_equiv_pos_as_xyz
'x, y, z'
_cell_length_a     32.525783
_cell_length_b     32.553589
_cell_length_c     27.851032
_cell_angle_alpha  89.996844
_cell_angle_beta   90.030051
_cell_angle_gamma 89.986558
loop_
_atom_site_label
_atom_site_type_symbol
_atom_site_fract_x
_atom_site_fract_y
_atom_site_fract_z
_atom_type_partial_charge
In0 In 0.52637 0.19306 0.18507 0.0
O1 O 0.56885 0.13712 0.17541 0.0
O2 O 0.56872 0.16769 0.24261 0.0
C3 C 0.51851 0.21466 0.09266 0.0
C4 C 0.45601 0.15612 0.21239 0.0
C5 C 0.55448 0.2674 0.21244 0.0
O6 O 0.54835 0.19367 0.10819 0.0
O7 O 0.49135 0.22343 0.12346 0.0
O8 O 0.52167 0.25269 0.22971 0.0
O9 O 0.57232 0.24469 0.18242 0.0
C10 C 0.5835 0.13927 0.21728 0.0
O11 O 0.47386 0.18258 0.23818 0.0
O12 O 0.47312 0.14912 0.17261 0.0
In13 In 0.3055 0.53361 0.69122 0.0
O14 O 0.31704 0.48379 0.74734 0.0
O15 O 0.34551 0.47745 0.67891 0.0
C16 C 0.2406 0.55657 0.7457 0.0
C17 C 0.36725 0.58964 0.69421 0.0
C18 C 0.27378 0.52649 0.60196 0.0
O19 O 0.2399 0.5248 0.71973 0.0
O20 O 0.27441 0.5754 0.74567 0.0
O21 O 0.26954 0.55829 0.62731 0.0
O22 O 0.29437 0.49818 0.62142 0.0
C23 C 0.34076 0.46319 0.72067 0.0
O24 O 0.34078 0.58913 0.66119 0.0
O25 O 0.36308 0.56152 0.72478 0.0
In26 In 0.97171 0.30071 0.18692 0.0
O27 O 0.02259 0.3119 0.2421 0.0
O28 O 0.02582 0.34388 0.17568 0.0
C29 C 0.94384 0.22586 0.21287 0.0
C30 C 0.91413 0.35414 0.21869 0.0
C31 C 0.97993 0.28083 0.09405 0.0
O32 O 0.9768 0.2403 0.2301 0.0
O33 O 0.92579 0.24903 0.18349 0.0
O34 O 0.95011 0.30163 0.10992 0.0
O35 O 0.00689 0.27127 0.12482 0.0
C36 C 0.04149 0.33769 0.21645 0.0
O37 O 0.92967 0.35698 0.17734 0.0
O38 O 0.92824 0.32519 0.24374 0.0
In39 In 0.19339 0.96797 0.68535 0.0
O40 O 0.17347 0.00904 0.74765 0.0
O41 O 0.16476 0.03174 0.67708 0.0
C42 C 0.25654 0.94031 0.73947 0.0
C43 C 0.13719 0.90655 0.68448 0.0
C44 C 0.22167 0.97908 0.59519 0.0
O45 O 0.25731 0.97518 0.71955 0.0
O46 O 0.22362 0.92058 0.73342 0.0
O47 O 0.24509 0.97403 0.63076 0.0
O48 O 0.18379 0.97904 0.60502 0.0
C49 C 0.15996 0.03758 0.72144 0.0
O50 O 0.17038 0.90493 0.6612 0.0
O51 O 0.13167 0.93973 0.70689 0.0
In52 In 0.53053 0.30921 0.81197 0.0
O53 O 0.57592 0.36264 0.82286 0.0
O54 O 0.56908 0.33772 0.75297 0.0
C55 C 0.5212 0.28535 0.90347 0.0
C56 C 0.46016 0.3473 0.78727 0.0
C57 C 0.55941 0.23619 0.78112 0.0
O58 O 0.55167 0.30603 0.88918 0.0
O59 O 0.49429 0.2779 0.87191 0.0
O60 O 0.52641 0.25118 0.7647 0.0
O61 O 0.57708 0.25794 0.81226 0.0
C62 C 0.58701 0.36344 0.77946 0.0
O63 O 0.47551 0.31876 0.76231 0.0
O64 O 0.47987 0.35595 0.82497 0.0
In65 In 0.19465 0.52601 0.31393 0.0
O66 O 0.18452 0.4733 0.26083 0.0
O67 O 0.15077 0.47244 0.32598 0.0
C68 C 0.2694 0.55341 0.28724 0.0
C69 C 0.14327 0.58362 0.27769 0.0
C70 C 0.21271 0.51955 0.40776 0.0
O71 O 0.25482 0.52018 0.27099 0.0
O72 O 0.24659 0.57188 0.31673 0.0
O73 O 0.18839 0.54639 0.39136 0.0
O74 O 0.22707 0.49497 0.37684 0.0
C75 C 0.15794 0.45538 0.28626 0.0
O76 O 0.13904 0.5695 0.31957 0.0
O77 O 0.17259 0.5682 0.2544 0.0
In78 In 0.96935 0.19195 0.81057 0.0
O79 O 0.92385 0.13858 0.82017 0.0
O80 O 0.93049 0.16462 0.75083 0.0
C81 C 0.97797 0.21469 0.90259 0.0
C82 C 0.03984 0.1531 0.78781 0.0
C83 C 0.94107 0.26544 0.78011 0.0
O84 O 0.94723 0.19492 0.88735 0.0
O85 O 0.00545 0.22194 0.87167 0.0
O86 O 0.973 0.24943 0.76218 0.0
O87 O 0.9242 0.24449 0.81256 0.0
C88 C 0.91261 0.13848 0.77682 0.0
O89 O 0.02666 0.1834 0.76396 0.0
O90 O 0.01789 0.14315 0.82326 0.0
In91 In 0.30119 0.96884 0.30788 0.0
O92 O 0.3528 0.92141 0.31931 0.0
O93 O 0.32914 0.92956 0.24905 0.0
C94 C 0.28001 0.98055 0.40003 0.0
C95 C 0.33767 0.03954 0.27986 0.0
C96 C 0.2285 0.93764 0.27939 0.0
O97 O 0.31051 0.95886 0.3878 0.0
O98 O 0.26076 0.99722 0.36572 0.0
O99 O 0.24184 0.97143 0.26328 0.0
O100 O 0.25162 0.92025 0.30955 0.0
C101 C 0.3539 0.91063 0.27583 0.0
O102 O 0.31202 0.02086 0.25387 0.0
O103 O 0.34396 0.02324 0.32018 0.0
In104 In 0.4667 0.80148 0.80303 0.0
O105 O 0.50993 0.82327 0.74385 0.0
O106 O 0.52179 0.84343 0.81519 0.0
C107 C 0.45596 0.73268 0.7499 0.0
C108 C 0.40044 0.85186 0.79852 0.0
C109 C 0.47187 0.77601 0.89507 0.0
O110 O 0.47704 0.73321 0.78787 0.0
O111 O 0.44244 0.76729 0.73726 0.0
O112 O 0.43844 0.78566 0.87519 0.0
O113 O 0.50329 0.78015 0.86895 0.0
C114 C 0.53224 0.84438 0.77156 0.0
O115 O 0.43671 0.86536 0.79601 0.0
O116 O 0.39792 0.81358 0.80413 0.0
In117 In 0.69439 0.46997 0.30451 0.0
O118 O 0.63858 0.42742 0.31484 0.0
O119 O 0.66861 0.42772 0.24728 0.0
C120 C 0.71544 0.4788 0.39696 0.0
C121 C 0.65737 0.53977 0.27539 0.0
C122 C 0.7686 0.44082 0.27804 0.0
O123 O 0.69352 0.44947 0.38193 0.0
O124 O 0.72548 0.505 0.36557 0.0
O125 O 0.75491 0.47433 0.26147 0.0
O126 O 0.74497 0.42283 0.30695 0.0
C127 C 0.64041 0.41286 0.27292 0.0
O128 O 0.68304 0.52088 0.24954 0.0
O129 O 0.65131 0.52406 0.31615 0.0
In130 In 0.03126 0.69694 0.79943 0.0
O131 O 0.06075 0.63453 0.78374 0.0
O132 O 0.09716 0.6791 0.81921 0.0
C133 C 0.02123 0.72327 0.89064 0.0
C134 C 0.9626 0.66178 0.76296 0.0
C135 C 0.0522 0.76152 0.74364 0.0
O136 O 0.0281 0.74722 0.85602 0.0
O137 O 0.01914 0.68576 0.87938 0.0
O138 O 0.07248 0.72853 0.74482 0.0
O139 O 0.0202 0.76151 0.7693 0.0
C140 C 0.09527 0.6436 0.8013 0.0
O141 O 0.96641 0.6703 0.80687 0.0
O142 O 0.99261 0.67253 0.73731 0.0
In143 In 0.80305 0.02405 0.30526 0.0
O144 O 0.81317 0.97181 0.25168 0.0
O145 O 0.84642 0.97024 0.31738 0.0
C146 C 0.72878 0.05283 0.27812 0.0
C147 C 0.85732 0.08065 0.27297 0.0
C148 C 0.78205 0.01667 0.39793 0.0
O149 O 0.74293 0.0196 0.26134 0.0
O150 O 0.75199 0.07074 0.30759 0.0
O151 O 0.80349 0.04603 0.38211 0.0
O152 O 0.77245 0.98969 0.36725 0.0
C153 C 0.83941 0.95352 0.27737 0.0
O154 O 0.85939 0.066 0.31482 0.0
O155 O 0.82873 0.06612 0.24766 0.0
In156 In 0.46782 0.69273 0.18151 0.0
O157 O 0.42443 0.63715 0.17488 0.0
O158 O 0.42744 0.66841 0.24151 0.0
C159 C 0.47457 0.71269 0.0883 0.0
C160 C 0.53881 0.65597 0.20732 0.0
C161 C 0.43975 0.76687 0.20958 0.0
O162 O 0.44575 0.69068 0.1045 0.0
O163 O 0.50104 0.72368 0.119 0.0
O164 O 0.47253 0.75189 0.22662 0.0
O165 O 0.42199 0.74471 0.17888 0.0
C166 C 0.41154 0.6398 0.21748 0.0
O167 O 0.52235 0.6838 0.23232 0.0
O168 O 0.52008 0.64754 0.16894 0.0
In169 In 0.80646 0.46986 0.67968 0.0
O170 O 0.81556 0.52881 0.72337 0.0
O171 O 0.85786 0.51563 0.66724 0.0
C172 C 0.73162 0.44628 0.71117 0.0
C173 C 0.8573 0.41054 0.71328 0.0
C174 C 0.78382 0.47763 0.58748 0.0
O175 O 0.75156 0.47448 0.732 0.0
O176 O 0.74938 0.43081 0.67535 0.0
O177 O 0.80139 0.44597 0.60377 0.0
O178 O 0.7788 0.50638 0.61741 0.0
C179 C 0.84733 0.53964 0.70057 0.0
O180 O 0.85883 0.42305 0.67048 0.0
O181 O 0.83087 0.42838 0.73889 0.0
In182 In 0.02645 0.79912 0.17988 0.0
O183 O 0.07312 0.85156 0.16967 0.0
O184 O 0.06672 0.82544 0.23895 0.0
C185 C 0.01663 0.77882 0.08706 0.0
C186 C 0.95564 0.83529 0.2085 0.0
C187 C 0.05712 0.72621 0.20803 0.0
O188 O 0.03774 0.80937 0.10034 0.0
O189 O -0.00053 0.7591 0.12063 0.0
O190 O 0.02257 0.73894 0.22264 0.0
O191 O 0.07544 0.75 0.17941 0.0
C192 C 0.08488 0.85122 0.21284 0.0
O193 O 0.97501 0.81024 0.23458 0.0
O194 O 0.97126 0.84108 0.16773 0.0
In195 In 0.69245 0.03099 0.68069 0.0
O196 O 0.68041 0.9761 0.73005 0.0
O197 O 0.64219 0.98375 0.66868 0.0
C198 C 0.76774 0.05525 0.70972 0.0
C199 C 0.64249 0.09097 0.71397 0.0
C200 C 0.71429 0.02101 0.58861 0.0
O201 O 0.75 0.02471 0.72869 0.0
O202 O 0.74763 0.07266 0.6769 0.0
O203 O 0.69568 0.05251 0.60374 0.0
O204 O 0.72065 0.99342 0.6197 0.0
C205 C 0.65024 0.96311 0.70583 0.0
O206 O 0.64 0.07773 0.6715 0.0
O207 O 0.66945 0.07357 0.73926 0.0
C208 C 0.39705 0.10892 0.19664 0.0
C209 C 0.42072 0.13171 0.22937 0.0
H210 H 0.35118 0.06241 0.18715 0.0
C211 C 0.41317 0.12751 0.27875 0.0
H212 H 0.40218 0.11174 0.15835 0.0
C213 C 0.38453 0.0988 0.29523 0.0
C214 C 0.36239 0.07447 0.26255 0.0
H215 H 0.43103 0.14468 0.30474 0.0
H216 H 0.38081 0.09456 0.33356 0.0
C217 C 0.36779 0.08083 0.2131 0.0
C218 C 0.3738 0.42473 0.78784 0.0
C219 C 0.36554 0.4285 0.73855 0.0
H220 H 0.4108 0.39601 0.84196 0.0
C221 C 0.38515 0.40192 0.7061 0.0
H222 H 0.3592 0.44495 0.8136 0.0
C223 C 0.41413 0.37345 0.72242 0.0
C224 C 0.42457 0.37178 0.7713 0.0
H225 H 0.37922 0.40418 0.66791 0.0
H226 H 0.43001 0.35445 0.69643 0.0
C227 C 0.40342 0.39688 0.80403 0.0
C228 C 0.08193 0.36777 0.28404 0.0
C229 C 0.07621 0.36241 0.23446 0.0
H230 H 0.11237 0.40189 0.33942 0.0
C231 C 0.10111 0.38442 0.20229 0.0
H232 H 0.06306 0.35125 0.30962 0.0
C233 C 0.12982 0.41282 0.21935 0.0
C234 C 0.13345 0.4203 0.26882 0.0
H235 H 0.09739 0.38072 0.16387 0.0
H236 H 0.14746 0.43056 0.1937 0.0
C237 C 0.11003 0.39681 0.30108 0.0
C238 C 0.12056 0.1029 0.70992 0.0
C239 C 0.13511 0.07182 0.74058 0.0
H240 H 0.07921 0.15366 0.70117 0.0
C241 C 0.12172 0.07102 0.78849 0.0
H242 H 0.13046 0.10431 0.67282 0.0
C243 C 0.09211 0.09889 0.80449 0.0
C244 C 0.07573 0.12841 0.77306 0.0
H245 H 0.13244 0.04748 0.81299 0.0
H246 H 0.0809 0.0963 0.84099 0.0
C247 C 0.09127 0.13115 0.72613 0.0
C248 C 0.59415 0.88823 0.78609 0.0
C249 C 0.56576 0.8709 0.7539 0.0
H250 H 0.64398 0.93053 0.79578 0.0
C251 C 0.56788 0.88141 0.70507 0.0
H252 H 0.59327 0.8805 0.82391 0.0
C253 C 0.59642 0.91042 0.68916 0.0
C254 C 0.62385 0.92885 0.72162 0.0
H255 H 0.54636 0.86853 0.67947 0.0
H256 H 0.59635 0.91916 0.65162 0.0
C257 C 0.62324 0.9167 0.76999 0.0
C258 C 0.58285 0.62861 0.27334 0.0
C259 C 0.57423 0.6316 0.22406 0.0
H260 H 0.61602 0.59664 0.32835 0.0
C261 C 0.5968 0.6076 0.19149 0.0
H262 H 0.5658 0.64669 0.29921 0.0
C263 C 0.6261 0.57958 0.2081 0.0
C264 C 0.63256 0.57447 0.25759 0.0
H265 H 0.59079 0.60947 0.15329 0.0
H266 H 0.64189 0.56026 0.18235 0.0
C267 C 0.61146 0.59991 0.29001 0.0
C268 C 0.9315 0.61928 0.69796 0.0
C269 C 0.92883 0.63599 0.74433 0.0
H270 H 0.90768 0.57556 0.64783 0.0
C271 C 0.8962 0.62405 0.77432 0.0
H272 H 0.95627 0.62791 0.67401 0.0
C273 C 0.86808 0.59422 0.75911 0.0
C274 C 0.87251 0.57556 0.71393 0.0
H275 H 0.89336 0.63651 0.81023 0.0
H276 H 0.8442 0.58434 0.78361 0.0
C277 C 0.90376 0.58918 0.68302 0.0
C278 C 0.86755 0.91078 0.2106 0.0
C279 C 0.86368 0.91823 0.26005 0.0
H280 H 0.90014 0.87853 0.15539 0.0
C281 C 0.88669 0.89447 0.29249 0.0
H282 H 0.85021 0.9287 0.18482 0.0
C283 C 0.91471 0.86528 0.27569 0.0
C284 C 0.92075 0.85997 0.22616 0.0
H285 H 0.88412 0.8995 0.33083 0.0
H286 H 0.9333 0.84861 0.30144 0.0
C287 C 0.89617 0.88217 0.19378 0.0
C288 C 0.56245 0.32608 0.27044 0.0
C289 C 0.57221 0.30731 0.22649 0.0
H290 H 0.57677 0.37455 0.32009 0.0
C291 C 0.60178 0.32553 0.19662 0.0
H292 H 0.53975 0.31257 0.2941 0.0
C293 C 0.62246 0.36086 0.21107 0.0
C294 C 0.61442 0.37859 0.25602 0.0
H295 H 0.60966 0.31194 0.16231 0.0
H296 H 0.64583 0.37343 0.18758 0.0
C297 C 0.58364 0.36141 0.28528 0.0
C298 C 0.16437 0.55796 0.75785 0.0
C299 C 0.20342 0.57408 0.76829 0.0
H300 H 0.09921 0.56737 0.76048 0.0
C301 C 0.20629 0.61035 0.79545 0.0
H302 H 0.1612 0.53003 0.73703 0.0
C303 C 0.17085 0.63166 0.80894 0.0
C304 C 0.13188 0.61719 0.79536 0.0
H305 H 0.23599 0.62341 0.80425 0.0
H306 H 0.17414 0.66059 0.82779 0.0
C307 C 0.12888 0.57939 0.7712 0.0
C308 C 0.91479 0.13139 0.28489 0.0
C309 C 0.8835 0.11474 0.25593 0.0
H310 H 0.95921 0.17976 0.29363 0.0
C311 C 0.87512 0.13289 0.21127 0.0
H312 H 0.92193 0.11792 0.31947 0.0
C313 C 0.89597 0.16815 0.1969 0.0
C314 C 0.92604 0.18587 0.22655 0.0
H315 H 0.85135 0.12073 0.18802 0.0
H316 H 0.88781 0.18212 0.16289 0.0
C317 C 0.93614 0.16663 0.27013 0.0
C318 C 0.33183 0.93972 0.75936 0.0
C319 C 0.29283 0.9213 0.7624 0.0
H320 H 0.39689 0.93211 0.7688 0.0
C321 C 0.28938 0.88198 0.78276 0.0
H322 H 0.33538 0.97002 0.74382 0.0
C323 C 0.32438 0.86037 0.7968 0.0
C324 C 0.36362 0.87762 0.79092 0.0
H325 H 0.25972 0.86707 0.78588 0.0
H326 H 0.32076 0.82942 0.81048 0.0
C327 C 0.367 0.91803 0.77358 0.0
C328 C 0.60795 0.17827 0.79304 0.0
C329 C 0.57735 0.19695 0.76499 0.0
H330 H 0.65195 0.12992 0.79916 0.0
C331 C 0.56622 0.17904 0.72098 0.0
H332 H 0.61696 0.19124 0.8273 0.0
C333 C 0.58673 0.14388 0.70447 0.0
C334 C 0.61817 0.12594 0.73213 0.0
H335 H 0.54274 0.19293 0.69867 0.0
H336 H 0.57854 0.13121 0.66981 0.0
C337 C 0.62794 0.14305 0.77696 0.0
C338 C 0.36103 0.58166 0.21009 0.0
C339 C 0.37815 0.61399 0.23697 0.0
H340 H 0.31316 0.53635 0.20541 0.0
C341 C 0.36135 0.62346 0.28206 0.0
H342 H 0.37349 0.57365 0.17527 0.0
C343 C 0.3269 0.60255 0.29892 0.0
C344 C 0.30874 0.57134 0.27138 0.0
H345 H 0.37393 0.64808 0.30373 0.0
H346 H 0.31387 0.61154 0.33314 0.0
C347 C 0.32668 0.56026 0.22736 0.0
C348 C 0.87355 0.35947 0.777 0.0
C349 C 0.88204 0.37577 0.73143 0.0
H350 H 0.88564 0.3119 0.82785 0.0
C351 C 0.91247 0.35711 0.70292 0.0
H352 H 0.85036 0.37317 0.79986 0.0
C353 C 0.93314 0.32198 0.71928 0.0
C354 C 0.92322 0.3048 0.76407 0.0
H355 H 0.91968 0.36914 0.66765 0.0
H356 H 0.95574 0.3075 0.69629 0.0
C357 C 0.89372 0.32428 0.793 0.0
C358 C 0.13672 0.90785 0.20307 0.0
C359 C 0.11935 0.87633 0.23097 0.0
H360 H 0.18485 0.95275 0.197 0.0
C361 C 0.13663 0.8672 0.27593 0.0
H362 H 0.12392 0.91555 0.1683 0.0
C363 C 0.17155 0.88791 0.29189 0.0
C364 C 0.1896 0.91868 0.26361 0.0
H365 H 0.12394 0.8431 0.29828 0.0
H366 H 0.18477 0.87939 0.32619 0.0
C367 C 0.17143 0.92916 0.2195 0.0
C368 C 0.39255 0.66021 0.67472 0.0
C369 C 0.39684 0.62355 0.70084 0.0
H370 H 0.40854 0.72387 0.6696 0.0
C371 C 0.42624 0.6215 0.73772 0.0
H372 H 0.37026 0.6626 0.64594 0.0
C373 C 0.44841 0.65644 0.75099 0.0
C374 C 0.44128 0.69412 0.72786 0.0
H375 H 0.43047 0.59349 0.75816 0.0
H376 H 0.46898 0.65454 0.78152 0.0
C377 C 0.41451 0.69528 0.68825 0.0
C378 C 0.86381 0.41203 0.20703 0.0
C379 C 0.8797 0.38 0.23545 0.0
H380 H 0.81603 0.45715 0.19858 0.0
C381 C 0.86062 0.37075 0.27931 0.0
H382 H 0.87801 0.41984 0.17307 0.0
C383 C 0.82529 0.39161 0.29348 0.0
C384 C 0.80842 0.42256 0.26442 0.0
H385 H 0.87217 0.34638 0.30212 0.0
H386 H 0.81068 0.38286 0.3269 0.0
C387 C 0.82849 0.43339 0.2216 0.0
C388 C 0.10257 0.79613 0.68957 0.0
C389 C 0.06835 0.79884 0.72015 0.0
H390 H 0.15079 0.82837 0.65342 0.0
C391 C 0.05341 0.83779 0.73305 0.0
H392 H 0.11461 0.76649 0.67882 0.0
C393 C 0.07439 0.87329 0.71886 0.0
C394 C 0.11038 0.87037 0.69115 0.0
H395 H 0.02708 0.8408 0.75659 0.0
H396 H 0.06363 0.90282 0.73165 0.0
C397 C 0.12327 0.83158 0.67498 0.0
C398 C 0.63436 0.08185 0.2057 0.0
C399 C 0.61779 0.11334 0.23437 0.0
H400 H 0.68262 0.03722 0.19741 0.0
C401 C 0.63612 0.12207 0.27884 0.0
H402 H 0.62076 0.07444 0.17127 0.0
C403 C 0.6714 0.10128 0.29337 0.0
C404 C 0.68897 0.0709 0.26408 0.0
H405 H 0.62404 0.14603 0.30186 0.0
H406 H 0.68545 0.10966 0.32727 0.0
C407 C 0.66962 0.06053 0.22063 0.0
C408 C 0.43088 0.82309 0.27044 0.0
C409 C 0.42178 0.80622 0.22525 0.0
H410 H 0.416 0.86953 0.32244 0.0
C411 C 0.3926 0.82565 0.19587 0.0
H412 H 0.45319 0.80855 0.2938 0.0
C413 C 0.37188 0.86052 0.21183 0.0
C414 C 0.3794 0.8764 0.25786 0.0
H415 H 0.38515 0.81342 0.16074 0.0
H416 H 0.34891 0.87419 0.18861 0.0
C417 C 0.40954 0.8578 0.28684 0.0
C418 C 0.66817 0.40584 0.6968 0.0
C419 C 0.69171 0.43026 0.72795 0.0
H420 H 0.61639 0.36626 0.68854 0.0
C421 C 0.67836 0.43592 0.77545 0.0
H422 H 0.67751 0.40123 0.65985 0.0
C423 C 0.6432 0.41546 0.79215 0.0
C424 C 0.62085 0.38944 0.76138 0.0
H425 H 0.69603 0.45458 0.80017 0.0
H426 H 0.63438 0.41888 0.82943 0.0
C427 C 0.63308 0.38582 0.71325 0.0
C428 C 0.1301 0.63653 0.21512 0.0
C429 C 0.1183 0.61768 0.2583 0.0
H430 H 0.11996 0.68562 0.16561 0.0
C431 C 0.08419 0.63314 0.28347 0.0
H432 H 0.15621 0.62531 0.19486 0.0
C433 C 0.06299 0.66764 0.26628 0.0
C434 C 0.07604 0.68741 0.22411 0.0
H435 H 0.0744 0.61911 0.31682 0.0
H436 H 0.03738 0.67964 0.2868 0.0
C437 C 0.10938 0.67115 0.1984 0.0
C438 C 0.85832 0.08437 0.78825 0.0
C439 C 0.8787 0.11271 0.75846 0.0
H440 H 0.8071 0.04314 0.79587 0.0
C441 C 0.86447 0.11865 0.71139 0.0
H442 H 0.86874 0.07911 0.82468 0.0
C443 C 0.82931 0.09851 0.69524 0.0
C444 C 0.8078 0.0716 0.72557 0.0
H445 H 0.87959 0.14009 0.68746 0.0
H446 H 0.81832 0.10489 0.65927 0.0
C447 C 0.8232 0.06373 0.77179 0.0
C448 C 0.55575 0.23975 0.02083 0.0
C449 C 0.51822 0.23161 0.04373 0.0
H450 H 0.58586 0.26429 0.95897 0.0
C451 C 0.48124 0.24165 0.02046 0.0
H452 H 0.58469 0.23269 0.03826 0.0
C453 C 0.48191 0.25899 0.97443 0.0
C454 C 0.51958 0.26778 0.95205 0.0
H455 H 0.45195 0.23575 0.03763 0.0
H456 H 0.45313 0.26604 0.95666 0.0
C457 C 0.55643 0.25819 0.97572 0.0
C458 C 0.21435 0.55157 0.48911 0.0
C459 C 0.2259 0.51929 0.45848 0.0
H460 H 0.22068 0.57921 0.5584 0.0
C461 C 0.25207 0.48838 0.476 0.0
H462 H 0.19428 0.57588 0.4766 0.0
C463 C 0.26705 0.49019 0.52305 0.0
C464 C 0.25642 0.52316 0.55315 0.0
H465 H 0.26148 0.46315 0.45315 0.0
H466 H 0.28762 0.46627 0.53549 0.0
C467 C 0.2296 0.55357 0.5359 0.0
C468 C 0.94304 0.25819 0.02083 0.0
C469 C 0.98046 0.26509 0.04457 0.0
H470 H 0.91315 0.23574 0.95772 0.0
C471 C 0.0175 0.25506 0.02147 0.0
H472 H 0.91404 0.26529 0.03807 0.0
C473 C 0.01701 0.23891 0.97485 0.0
C474 C 0.97943 0.23132 0.95164 0.0
H475 H 0.04671 0.26004 0.03925 0.0
H476 H 0.04585 0.23179 0.95727 0.0
C477 C 0.94251 0.24094 0.97508 0.0
C478 C 0.22626 0.99717 0.46113 0.0
C479 C 0.26621 0.98362 0.45033 0.0
H480 H 0.18059 0.00594 0.51568 0.0
C481 C 0.29201 0.97062 0.4878 0.0
H482 H 0.20568 0.00722 0.43289 0.0
C483 C 0.27786 0.97042 0.53513 0.0
C484 C 0.23742 0.98253 0.54573 0.0
H485 H 0.32297 0.96005 0.48047 0.0
H486 H 0.29821 0.9596 0.56322 0.0
C487 C 0.21185 0.99628 0.50841 0.0
C488 C 0.43783 0.74239 0.96466 0.0
C489 C 0.47343 0.75933 0.94423 0.0
H490 H 0.41067 0.71353 0.02583 0.0
C491 C 0.51008 0.75968 0.97093 0.0
H492 H 0.40924 0.74142 0.9447 0.0
C493 C 0.51075 0.74421 0.01785 0.0
C494 C 0.47504 0.72729 0.03819 0.0
H495 H 0.53796 0.77254 0.95588 0.0
H496 H 0.53913 0.74549 0.03817 0.0
C497 C 0.43873 0.72615 0.01096 0.0
C498 C 0.76093 0.5162 0.51429 0.0
C499 C 0.76673 0.47885 0.53861 0.0
H500 H 0.74058 0.54548 0.44931 0.0
C501 C 0.7547 0.44203 0.51654 0.0
H502 H 0.7699 0.54497 0.53078 0.0
C503 C 0.73687 0.44244 0.47108 0.0
C504 C 0.73174 0.47958 0.44623 0.0
H505 H 0.75846 0.41286 0.53478 0.0
H506 H 0.72793 0.41351 0.45492 0.0
C507 C 0.74415 0.5165 0.46795 0.0
C508 C 0.00142 0.72577 0.02455 0.0
C509 C 0.01468 0.76557 0.03645 0.0
H510 H 0.99352 0.68092 0.96891 0.0
C511 C 0.02842 0.79181 -0.00018 0.0
H512 H 0.99083 0.70484 0.05215 0.0
C513 C 0.02953 0.7783 0.95226 0.0
C514 C 0.01752 0.73808 0.94052 0.0
H515 H 0.03879 0.82265 0.00798 0.0
H516 H 0.04076 0.79906 0.92484 0.0
C517 C 0.00312 0.71202 0.97702 0.0
C518 C 0.7379 0.98112 0.51672 0.0
C519 C 0.73105 0.01893 0.53964 0.0
H520 H 0.75894 0.95068 0.45277 0.0
C521 C 0.7418 0.05547 0.51611 0.0
H522 H 0.72993 0.95256 0.53436 0.0
C523 C 0.75948 0.05434 0.47061 0.0
C524 C 0.76572 0.01671 0.44717 0.0
H525 H 0.73722 0.085 0.53325 0.0
H526 H 0.76748 0.08307 0.45333 0.0
C527 C 0.75451 0.98005 0.47032 0.0
loop_
_geom_bond_atom_site_label_1
_geom_bond_atom_site_label_2
_geom_bond_distance
_geom_bond_site_symmetry_2
_ccdc_geom_bond_type
In0 O1 2.294 . S
In0 O2 2.326 . S
In0 O6 2.266 . S
In0 O7 2.326 . S
In0 O8 2.266 . S
In0 O9 2.326 . S
In0 O11 2.294 . S
In0 O12 2.326 . S
O1 In0 2.294 . S
O1 C10 1.240 . S
O2 In0 2.326 . S
O2 C10 1.252 . S
C3 O6 1.252 . S
C3 O7 1.260 . S
C4 O11 1.240 . S
C4 O12 1.252 . S
C5 O8 1.252 . S
C5 O9 1.260 . S
O6 In0 2.266 . S
O6 C3 1.252 . S
O7 In0 2.326 . S
O7 C3 1.260 . S
O8 In0 2.266 . S
O8 C5 1.252 . S
O9 In0 2.326 . S
O9 C5 1.260 . S
C10 O1 1.240 . S
C10 O2 1.252 . S
O11 In0 2.294 . S
O11 C4 1.240 . S
O12 In0 2.326 . S
O12 C4 1.252 . S
In13 O14 2.294 . S
In13 O15 2.326 . S
In13 O19 2.266 . S
In13 O20 2.326 . S
In13 O21 2.266 . S
In13 O22 2.326 . S
In13 O24 2.294 . S
In13 O25 2.326 . S
O14 In13 2.294 . S
O14 C23 1.240 . S
O15 In13 2.326 . S
O15 C23 1.252 . S
C16 O19 1.252 . S
C16 O20 1.260 . S
C17 O24 1.240 . S
C17 O25 1.252 . S
C18 O21 1.252 . S
C18 O22 1.260 . S
O19 In13 2.266 . S
O19 C16 1.252 . S
O20 In13 2.326 . S
O20 C16 1.260 . S
O21 In13 2.266 . S
O21 C18 1.252 . S
O22 In13 2.326 . S
O22 C18 1.260 . S
C23 O14 1.240 . S
C23 O15 1.252 . S
O24 In13 2.294 . S
O24 C17 1.240 . S
O25 In13 2.326 . S
O25 C17 1.252 . S
In26 O27 2.294 1_655 S
In26 O28 2.326 1_655 S
In26 O32 2.266 . S
In26 O33 2.326 . S
In26 O34 2.266 . S
In26 O35 2.326 1_655 S
In26 O37 2.294 . S
In26 O38 2.326 . S
O27 In26 2.294 1_455 S
O27 C36 1.240 . S
O28 In26 2.326 1_455 S
O28 C36 1.252 . S
C29 O32 1.252 . S
C29 O33 1.260 . S
C30 O37 1.240 . S
C30 O38 1.252 . S
C31 O34 1.252 . S
C31 O35 1.260 1_655 S
O32 In26 2.266 . S
O32 C29 1.252 . S
O33 In26 2.326 . S
O33 C29 1.260 . S
O34 In26 2.266 . S
O34 C31 1.252 . S
O35 In26 2.326 1_455 S
O35 C31 1.260 1_455 S
C36 O27 1.240 . S
C36 O28 1.252 . S
O37 In26 2.294 . S
O37 C30 1.240 . S
O38 In26 2.326 . S
O38 C30 1.252 . S
In39 O40 2.294 1_565 S
In39 O41 2.326 1_565 S
In39 O45 2.266 . S
In39 O46 2.326 . S
In39 O47 2.266 . S
In39 O48 2.326 1_565 S
In39 O50 2.294 . S
In39 O51 2.326 . S
O40 In39 2.294 1_545 S
O40 C49 1.240 . S
O41 In39 2.326 1_545 S
O41 C49 1.252 . S
C42 O45 1.252 . S
C42 O46 1.260 . S
C43 O50 1.240 . S
C43 O51 1.252 . S
C44 O47 1.252 . S
C44 O48 1.260 1_565 S
O45 In39 2.266 . S
O45 C42 1.252 . S
O46 In39 2.326 . S
O46 C42 1.260 . S
O47 In39 2.266 . S
O47 C44 1.252 . S
O48 In39 2.326 1_545 S
O48 C44 1.260 1_545 S
C49 O40 1.240 . S
C49 O41 1.252 . S
O50 In39 2.294 . S
O50 C43 1.240 . S
O51 In39 2.326 . S
O51 C43 1.252 . S
In52 O53 2.294 . S
In52 O54 2.326 . S
In52 O58 2.266 . S
In52 O59 2.326 . S
In52 O60 2.266 . S
In52 O61 2.326 . S
In52 O63 2.294 . S
In52 O64 2.326 . S
O53 In52 2.294 . S
O53 C62 1.240 . S
O54 In52 2.326 . S
O54 C62 1.252 . S
C55 O58 1.252 . S
C55 O59 1.260 . S
C56 O63 1.240 . S
C56 O64 1.252 . S
C57 O60 1.252 . S
C57 O61 1.260 . S
O58 In52 2.266 . S
O58 C55 1.252 . S
O59 In52 2.326 . S
O59 C55 1.260 . S
O60 In52 2.266 . S
O60 C57 1.252 . S
O61 In52 2.326 . S
O61 C57 1.260 . S
C62 O53 1.240 . S
C62 O54 1.252 . S
O63 In52 2.294 . S
O63 C56 1.240 . S
O64 In52 2.326 . S
O64 C56 1.252 . S
In65 O66 2.294 . S
In65 O67 2.326 . S
In65 O71 2.266 . S
In65 O72 2.326 . S
In65 O73 2.266 . S
In65 O74 2.326 . S
In65 O76 2.294 . S
In65 O77 2.326 . S
O66 In65 2.294 . S
O66 C75 1.240 . S
O67 In65 2.326 . S
O67 C75 1.252 . S
C68 O71 1.252 . S
C68 O72 1.260 . S
C69 O76 1.240 . S
C69 O77 1.252 . S
C70 O73 1.252 . S
C70 O74 1.260 . S
O71 In65 2.266 . S
O71 C68 1.252 . S
O72 In65 2.326 . S
O72 C68 1.260 . S
O73 In65 2.266 . S
O73 C70 1.252 . S
O74 In65 2.326 . S
O74 C70 1.260 . S
C75 O66 1.240 . S
C75 O67 1.252 . S
O76 In65 2.294 . S
O76 C69 1.240 . S
O77 In65 2.326 . S
O77 C69 1.252 . S
In78 O79 2.294 . S
In78 O80 2.326 . S
In78 O84 2.266 . S
In78 O85 2.326 1_655 S
In78 O86 2.266 . S
In78 O87 2.326 . S
In78 O89 2.294 1_655 S
In78 O90 2.326 1_655 S
O79 In78 2.294 . S
O79 C88 1.240 . S
O80 In78 2.326 . S
O80 C88 1.252 . S
C81 O84 1.252 . S
C81 O85 1.260 1_655 S
C82 O89 1.240 . S
C82 O90 1.252 . S
C83 O86 1.252 . S
C83 O87 1.260 . S
O84 In78 2.266 . S
O84 C81 1.252 . S
O85 In78 2.326 1_455 S
O85 C81 1.260 1_455 S
O86 In78 2.266 . S
O86 C83 1.252 . S
O87 In78 2.326 . S
O87 C83 1.260 . S
C88 O79 1.240 . S
C88 O80 1.252 . S
O89 In78 2.294 1_455 S
O89 C82 1.240 . S
O90 In78 2.326 1_455 S
O90 C82 1.252 . S
In91 O92 2.294 . S
In91 O93 2.326 . S
In91 O97 2.266 . S
In91 O98 2.326 1_565 S
In91 O99 2.266 . S
In91 O100 2.326 . S
In91 O102 2.294 1_565 S
In91 O103 2.326 1_565 S
O92 In91 2.294 . S
O92 C101 1.240 . S
O93 In91 2.326 . S
O93 C101 1.252 . S
C94 O97 1.252 . S
C94 O98 1.260 1_565 S
C95 O102 1.240 . S
C95 O103 1.252 . S
C96 O99 1.252 . S
C96 O100 1.260 . S
O97 In91 2.266 . S
O97 C94 1.252 . S
O98 In91 2.326 1_545 S
O98 C94 1.260 1_545 S
O99 In91 2.266 . S
O99 C96 1.252 . S
O100 In91 2.326 . S
O100 C96 1.260 . S
C101 O92 1.240 . S
C101 O93 1.252 . S
O102 In91 2.294 1_545 S
O102 C95 1.240 . S
O103 In91 2.326 1_545 S
O103 C95 1.252 . S
In104 O105 2.294 . S
In104 O106 2.326 . S
In104 O110 2.266 . S
In104 O111 2.326 . S
In104 O112 2.266 . S
In104 O113 2.326 . S
In104 O115 2.294 . S
In104 O116 2.326 . S
O105 In104 2.294 . S
O105 C114 1.240 . S
O106 In104 2.326 . S
O106 C114 1.252 . S
C107 O110 1.252 . S
C107 O111 1.260 . S
C108 O115 1.240 . S
C108 O116 1.252 . S
C109 O112 1.252 . S
C109 O113 1.260 . S
O110 In104 2.266 . S
O110 C107 1.252 . S
O111 In104 2.326 . S
O111 C107 1.260 . S
O112 In104 2.266 . S
O112 C109 1.252 . S
O113 In104 2.326 . S
O113 C109 1.260 . S
C114 O105 1.240 . S
C114 O106 1.252 . S
O115 In104 2.294 . S
O115 C108 1.240 . S
O116 In104 2.326 . S
O116 C108 1.252 . S
In117 O118 2.294 . S
In117 O119 2.326 . S
In117 O123 2.266 . S
In117 O124 2.326 . S
In117 O125 2.266 . S
In117 O126 2.326 . S
In117 O128 2.294 . S
In117 O129 2.326 . S
O118 In117 2.294 . S
O118 C127 1.240 . S
O119 In117 2.326 . S
O119 C127 1.252 . S
C120 O123 1.252 . S
C120 O124 1.260 . S
C121 O128 1.240 . S
C121 O129 1.252 . S
C122 O125 1.252 . S
C122 O126 1.260 . S
O123 In117 2.266 . S
O123 C120 1.252 . S
O124 In117 2.326 . S
O124 C120 1.260 . S
O125 In117 2.266 . S
O125 C122 1.252 . S
O126 In117 2.326 . S
O126 C122 1.260 . S
C127 O118 1.240 . S
C127 O119 1.252 . S
O128 In117 2.294 . S
O128 C121 1.240 . S
O129 In117 2.326 . S
O129 C121 1.252 . S
In130 O131 2.294 . S
In130 O132 2.326 . S
In130 O136 2.266 . S
In130 O137 2.326 1_455 S
In130 O138 2.266 . S
In130 O139 2.326 . S
In130 O141 2.294 1_455 S
In130 O142 2.326 1_455 S
O131 In130 2.294 . S
O131 C140 1.240 . S
O132 In130 2.326 . S
O132 C140 1.252 . S
C133 O136 1.252 . S
C133 O137 1.260 1_455 S
C134 O141 1.240 . S
C134 O142 1.252 . S
C135 O138 1.252 . S
C135 O139 1.260 . S
O136 In130 2.266 . S
O136 C133 1.252 . S
O137 In130 2.326 1_655 S
O137 C133 1.260 1_655 S
O138 In130 2.266 . S
O138 C135 1.252 . S
O139 In130 2.326 . S
O139 C135 1.260 . S
C140 O131 1.240 . S
C140 O132 1.252 . S
O141 In130 2.294 1_655 S
O141 C134 1.240 . S
O142 In130 2.326 1_655 S
O142 C134 1.252 . S
In143 O144 2.294 1_545 S
In143 O145 2.326 1_545 S
In143 O149 2.266 . S
In143 O150 2.326 . S
In143 O151 2.266 . S
In143 O152 2.326 1_545 S
In143 O154 2.294 . S
In143 O155 2.326 . S
O144 In143 2.294 1_565 S
O144 C153 1.240 . S
O145 In143 2.326 1_565 S
O145 C153 1.252 . S
C146 O149 1.252 . S
C146 O150 1.260 . S
C147 O154 1.240 . S
C147 O155 1.252 . S
C148 O151 1.252 . S
C148 O152 1.260 1_545 S
O149 In143 2.266 . S
O149 C146 1.252 . S
O150 In143 2.326 . S
O150 C146 1.260 . S
O151 In143 2.266 . S
O151 C148 1.252 . S
O152 In143 2.326 1_565 S
O152 C148 1.260 1_565 S
C153 O144 1.240 . S
C153 O145 1.252 . S
O154 In143 2.294 . S
O154 C147 1.240 . S
O155 In143 2.326 . S
O155 C147 1.252 . S
In156 O157 2.294 . S
In156 O158 2.326 . S
In156 O162 2.266 . S
In156 O163 2.326 . S
In156 O164 2.266 . S
In156 O165 2.326 . S
In156 O167 2.294 . S
In156 O168 2.326 . S
O157 In156 2.294 . S
O157 C166 1.240 . S
O158 In156 2.326 . S
O158 C166 1.252 . S
C159 O162 1.252 . S
C159 O163 1.260 . S
C160 O167 1.240 . S
C160 O168 1.252 . S
C161 O164 1.252 . S
C161 O165 1.260 . S
O162 In156 2.266 . S
O162 C159 1.252 . S
O163 In156 2.326 . S
O163 C159 1.260 . S
O164 In156 2.266 . S
O164 C161 1.252 . S
O165 In156 2.326 . S
O165 C161 1.260 . S
C166 O157 1.240 . S
C166 O158 1.252 . S
O167 In156 2.294 . S
O167 C160 1.240 . S
O168 In156 2.326 . S
O168 C160 1.252 . S
In169 O170 2.294 . S
In169 O171 2.326 . S
In169 O175 2.266 . S
In169 O176 2.326 . S
In169 O177 2.266 . S
In169 O178 2.326 . S
In169 O180 2.294 . S
In169 O181 2.326 . S
O170 In169 2.294 . S
O170 C179 1.240 . S
O171 In169 2.326 . S
O171 C179 1.252 . S
C172 O175 1.252 . S
C172 O176 1.260 . S
C173 O180 1.240 . S
C173 O181 1.252 . S
C174 O177 1.252 . S
C174 O178 1.260 . S
O175 In169 2.266 . S
O175 C172 1.252 . S
O176 In169 2.326 . S
O176 C172 1.260 . S
O177 In169 2.266 . S
O177 C174 1.252 . S
O178 In169 2.326 . S
O178 C174 1.260 . S
C179 O170 1.240 . S
C179 O171 1.252 . S
O180 In169 2.294 . S
O180 C173 1.240 . S
O181 In169 2.326 . S
O181 C173 1.252 . S
In182 O183 2.294 . S
In182 O184 2.326 . S
In182 O188 2.266 . S
In182 O189 2.326 1_455 S
In182 O190 2.266 . S
In182 O191 2.326 . S
In182 O193 2.294 1_455 S
In182 O194 2.326 1_455 S
O183 In182 2.294 . S
O183 C192 1.240 . S
O184 In182 2.326 . S
O184 C192 1.252 . S
C185 O188 1.252 . S
C185 O189 1.260 1_455 S
C186 O193 1.240 . S
C186 O194 1.252 . S
C187 O190 1.252 . S
C187 O191 1.260 . S
O188 In182 2.266 . S
O188 C185 1.252 . S
O189 In182 2.326 1_655 S
O189 C185 1.260 1_655 S
O190 In182 2.266 . S
O190 C187 1.252 . S
O191 In182 2.326 . S
O191 C187 1.260 . S
C192 O183 1.240 . S
C192 O184 1.252 . S
O193 In182 2.294 1_655 S
O193 C186 1.240 . S
O194 In182 2.326 1_655 S
O194 C186 1.252 . S
In195 O196 2.294 1_545 S
In195 O197 2.326 1_545 S
In195 O201 2.266 . S
In195 O202 2.326 . S
In195 O203 2.266 . S
In195 O204 2.326 1_545 S
In195 O206 2.294 . S
In195 O207 2.326 . S
O196 In195 2.294 1_565 S
O196 C205 1.240 . S
O197 In195 2.326 1_565 S
O197 C205 1.252 . S
C198 O201 1.252 . S
C198 O202 1.260 . S
C199 O206 1.240 . S
C199 O207 1.252 . S
C200 O203 1.252 . S
C200 O204 1.260 1_545 S
O201 In195 2.266 . S
O201 C198 1.252 . S
O202 In195 2.326 . S
O202 C198 1.260 . S
O203 In195 2.266 . S
O203 C200 1.252 . S
O204 In195 2.326 1_565 S
O204 C200 1.260 1_565 S
C205 O196 1.240 . S
C205 O197 1.252 . S
O206 In195 2.294 . S
O206 C199 1.240 . S
O207 In195 2.326 . S
O207 C199 1.252 . S
C208 C209 1.387 . S
C208 H212 0.950 . S
C208 C217 1.390 . S
C209 C208 1.387 . S
C209 C211 1.387 . S
H210 C217 0.950 . S
C211 C209 1.387 . S
C211 C213 1.390 . S
C211 H215 0.950 . S
H212 C208 0.950 . S
C213 C211 1.390 . S
C213 C214 1.387 . S
C213 H216 0.950 . S
C214 C213 1.387 . S
C214 C217 1.387 . S
H215 C211 0.950 . S
H216 C213 0.950 . S
C217 C208 1.390 . S
C217 H210 0.950 . S
C217 C214 1.387 . S
C218 C219 1.387 . S
C218 H222 0.950 . S
C218 C227 1.390 . S
C219 C218 1.387 . S
C219 C221 1.387 . S
H220 C227 0.950 . S
C221 C219 1.387 . S
C221 C223 1.390 . S
C221 H225 0.950 . S
H222 C218 0.950 . S
C223 C221 1.390 . S
C223 C224 1.387 . S
C223 H226 0.950 . S
C224 C223 1.387 . S
C224 C227 1.387 . S
H225 C221 0.950 . S
H226 C223 0.950 . S
C227 C218 1.390 . S
C227 H220 0.950 . S
C227 C224 1.387 . S
C228 C229 1.387 . S
C228 H232 0.950 . S
C228 C237 1.390 . S
C229 C228 1.387 . S
C229 C231 1.387 . S
H230 C237 0.950 . S
C231 C229 1.387 . S
C231 C233 1.390 . S
C231 H235 0.950 . S
H232 C228 0.950 . S
C233 C231 1.390 . S
C233 C234 1.387 . S
C233 H236 0.950 . S
C234 C233 1.387 . S
C234 C237 1.387 . S
H235 C231 0.950 . S
H236 C233 0.950 . S
C237 C228 1.390 . S
C237 H230 0.950 . S
C237 C234 1.387 . S
C238 C239 1.387 . S
C238 H242 0.950 . S
C238 C247 1.390 . S
C239 C238 1.387 . S
C239 C241 1.387 . S
H240 C247 0.950 . S
C241 C239 1.387 . S
C241 C243 1.390 . S
C241 H245 0.950 . S
H242 C238 0.950 . S
C243 C241 1.390 . S
C243 C244 1.387 . S
C243 H246 0.950 . S
C244 C243 1.387 . S
C244 C247 1.387 . S
H245 C241 0.950 . S
H246 C243 0.950 . S
C247 C238 1.390 . S
C247 H240 0.950 . S
C247 C244 1.387 . S
C248 C249 1.387 . S
C248 H252 0.950 . S
C248 C257 1.390 . S
C249 C248 1.387 . S
C249 C251 1.387 . S
H250 C257 0.950 . S
C251 C249 1.387 . S
C251 C253 1.390 . S
C251 H255 0.950 . S
H252 C248 0.950 . S
C253 C251 1.390 . S
C253 C254 1.387 . S
C253 H256 0.950 . S
C254 C253 1.387 . S
C254 C257 1.387 . S
H255 C251 0.950 . S
H256 C253 0.950 . S
C257 C248 1.390 . S
C257 H250 0.950 . S
C257 C254 1.387 . S
C258 C259 1.387 . S
C258 H262 0.950 . S
C258 C267 1.390 . S
C259 C258 1.387 . S
C259 C261 1.387 . S
H260 C267 0.950 . S
C261 C259 1.387 . S
C261 C263 1.390 . S
C261 H265 0.950 . S
H262 C258 0.950 . S
C263 C261 1.390 . S
C263 C264 1.387 . S
C263 H266 0.950 . S
C264 C263 1.387 . S
C264 C267 1.387 . S
H265 C261 0.950 . S
H266 C263 0.950 . S
C267 C258 1.390 . S
C267 H260 0.950 . S
C267 C264 1.387 . S
C268 C269 1.387 . S
C268 H272 0.950 . S
C268 C277 1.390 . S
C269 C268 1.387 . S
C269 C271 1.387 . S
H270 C277 0.950 . S
C271 C269 1.387 . S
C271 C273 1.390 . S
C271 H275 0.950 . S
H272 C268 0.950 . S
C273 C271 1.390 . S
C273 C274 1.387 . S
C273 H276 0.950 . S
C274 C273 1.387 . S
C274 C277 1.387 . S
H275 C271 0.950 . S
H276 C273 0.950 . S
C277 C268 1.390 . S
C277 H270 0.950 . S
C277 C274 1.387 . S
C278 C279 1.387 . S
C278 H282 0.950 . S
C278 C287 1.390 . S
C279 C278 1.387 . S
C279 C281 1.387 . S
H280 C287 0.950 . S
C281 C279 1.387 . S
C281 C283 1.390 . S
C281 H285 0.950 . S
H282 C278 0.950 . S
C283 C281 1.390 . S
C283 C284 1.387 . S
C283 H286 0.950 . S
C284 C283 1.387 . S
C284 C287 1.387 . S
H285 C281 0.950 . S
H286 C283 0.950 . S
C287 C278 1.390 . S
C287 H280 0.950 . S
C287 C284 1.387 . S
C288 C289 1.387 . S
C288 H292 0.950 . S
C288 C297 1.390 . S
C289 C288 1.387 . S
C289 C291 1.387 . S
H290 C297 0.950 . S
C291 C289 1.387 . S
C291 C293 1.390 . S
C291 H295 0.950 . S
H292 C288 0.950 . S
C293 C291 1.390 . S
C293 C294 1.387 . S
C293 H296 0.950 . S
C294 C293 1.387 . S
C294 C297 1.387 . S
H295 C291 0.950 . S
H296 C293 0.950 . S
C297 C288 1.390 . S
C297 H290 0.950 . S
C297 C294 1.387 . S
C298 C299 1.387 . S
C298 H302 0.950 . S
C298 C307 1.390 . S
C299 C298 1.387 . S
C299 C301 1.387 . S
H300 C307 0.950 . S
C301 C299 1.387 . S
C301 C303 1.390 . S
C301 H305 0.950 . S
H302 C298 0.950 . S
C303 C301 1.390 . S
C303 C304 1.387 . S
C303 H306 0.950 . S
C304 C303 1.387 . S
C304 C307 1.387 . S
H305 C301 0.950 . S
H306 C303 0.950 . S
C307 C298 1.390 . S
C307 H300 0.950 . S
C307 C304 1.387 . S
C308 C309 1.387 . S
C308 H312 0.950 . S
C308 C317 1.390 . S
C309 C308 1.387 . S
C309 C311 1.387 . S
H310 C317 0.950 . S
C311 C309 1.387 . S
C311 C313 1.390 . S
C311 H315 0.950 . S
H312 C308 0.950 . S
C313 C311 1.390 . S
C313 C314 1.387 . S
C313 H316 0.950 . S
C314 C313 1.387 . S
C314 C317 1.387 . S
H315 C311 0.950 . S
H316 C313 0.950 . S
C317 C308 1.390 . S
C317 H310 0.950 . S
C317 C314 1.387 . S
C318 C319 1.387 . S
C318 H322 0.950 . S
C318 C327 1.390 . S
C319 C318 1.387 . S
C319 C321 1.387 . S
H320 C327 0.950 . S
C321 C319 1.387 . S
C321 C323 1.390 . S
C321 H325 0.950 . S
H322 C318 0.950 . S
C323 C321 1.390 . S
C323 C324 1.387 . S
C323 H326 0.950 . S
C324 C323 1.387 . S
C324 C327 1.387 . S
H325 C321 0.950 . S
H326 C323 0.950 . S
C327 C318 1.390 . S
C327 H320 0.950 . S
C327 C324 1.387 . S
C328 C329 1.387 . S
C328 H332 0.950 . S
C328 C337 1.390 . S
C329 C328 1.387 . S
C329 C331 1.387 . S
H330 C337 0.950 . S
C331 C329 1.387 . S
C331 C333 1.390 . S
C331 H335 0.950 . S
H332 C328 0.950 . S
C333 C331 1.390 . S
C333 C334 1.387 . S
C333 H336 0.950 . S
C334 C333 1.387 . S
C334 C337 1.387 . S
H335 C331 0.950 . S
H336 C333 0.950 . S
C337 C328 1.390 . S
C337 H330 0.950 . S
C337 C334 1.387 . S
C338 C339 1.387 . S
C338 H342 0.950 . S
C338 C347 1.390 . S
C339 C338 1.387 . S
C339 C341 1.387 . S
H340 C347 0.950 . S
C341 C339 1.387 . S
C341 C343 1.390 . S
C341 H345 0.950 . S
H342 C338 0.950 . S
C343 C341 1.390 . S
C343 C344 1.387 . S
C343 H346 0.950 . S
C344 C343 1.387 . S
C344 C347 1.387 . S
H345 C341 0.950 . S
H346 C343 0.950 . S
C347 C338 1.390 . S
C347 H340 0.950 . S
C347 C344 1.387 . S
C348 C349 1.387 . S
C348 H352 0.950 . S
C348 C357 1.390 . S
C349 C348 1.387 . S
C349 C351 1.387 . S
H350 C357 0.950 . S
C351 C349 1.387 . S
C351 C353 1.390 . S
C351 H355 0.950 . S
H352 C348 0.950 . S
C353 C351 1.390 . S
C353 C354 1.387 . S
C353 H356 0.950 . S
C354 C353 1.387 . S
C354 C357 1.387 . S
H355 C351 0.950 . S
H356 C353 0.950 . S
C357 C348 1.390 . S
C357 H350 0.950 . S
C357 C354 1.387 . S
C358 C359 1.387 . S
C358 H362 0.950 . S
C358 C367 1.390 . S
C359 C358 1.387 . S
C359 C361 1.387 . S
H360 C367 0.950 . S
C361 C359 1.387 . S
C361 C363 1.390 . S
C361 H365 0.950 . S
H362 C358 0.950 . S
C363 C361 1.390 . S
C363 C364 1.387 . S
C363 H366 0.950 . S
C364 C363 1.387 . S
C364 C367 1.387 . S
H365 C361 0.950 . S
H366 C363 0.950 . S
C367 C358 1.390 . S
C367 H360 0.950 . S
C367 C364 1.387 . S
C368 C369 1.387 . S
C368 H372 0.950 . S
C368 C377 1.390 . S
C369 C368 1.387 . S
C369 C371 1.387 . S
H370 C377 0.950 . S
C371 C369 1.387 . S
C371 C373 1.390 . S
C371 H375 0.950 . S
H372 C368 0.950 . S
C373 C371 1.390 . S
C373 C374 1.387 . S
C373 H376 0.950 . S
C374 C373 1.387 . S
C374 C377 1.387 . S
H375 C371 0.950 . S
H376 C373 0.950 . S
C377 C368 1.390 . S
C377 H370 0.950 . S
C377 C374 1.387 . S
C378 C379 1.387 . S
C378 H382 0.950 . S
C378 C387 1.390 . S
C379 C378 1.387 . S
C379 C381 1.387 . S
H380 C387 0.950 . S
C381 C379 1.387 . S
C381 C383 1.390 . S
C381 H385 0.950 . S
H382 C378 0.950 . S
C383 C381 1.390 . S
C383 C384 1.387 . S
C383 H386 0.950 . S
C384 C383 1.387 . S
C384 C387 1.387 . S
H385 C381 0.950 . S
H386 C383 0.950 . S
C387 C378 1.390 . S
C387 H380 0.950 . S
C387 C384 1.387 . S
C388 C389 1.387 . S
C388 H392 0.950 . S
C388 C397 1.390 . S
C389 C388 1.387 . S
C389 C391 1.387 . S
H390 C397 0.950 . S
C391 C389 1.387 . S
C391 C393 1.390 . S
C391 H395 0.950 . S
H392 C388 0.950 . S
C393 C391 1.390 . S
C393 C394 1.387 . S
C393 H396 0.950 . S
C394 C393 1.387 . S
C394 C397 1.387 . S
H395 C391 0.950 . S
H396 C393 0.950 . S
C397 C388 1.390 . S
C397 H390 0.950 . S
C397 C394 1.387 . S
C398 C399 1.387 . S
C398 H402 0.950 . S
C398 C407 1.390 . S
C399 C398 1.387 . S
C399 C401 1.387 . S
H400 C407 0.950 . S
C401 C399 1.387 . S
C401 C403 1.390 . S
C401 H405 0.950 . S
H402 C398 0.950 . S
C403 C401 1.390 . S
C403 C404 1.387 . S
C403 H406 0.950 . S
C404 C403 1.387 . S
C404 C407 1.387 . S
H405 C401 0.950 . S
H406 C403 0.950 . S
C407 C398 1.390 . S
C407 H400 0.950 . S
C407 C404 1.387 . S
C408 C409 1.387 . S
C408 H412 0.950 . S
C408 C417 1.390 . S
C409 C408 1.387 . S
C409 C411 1.387 . S
H410 C417 0.950 . S
C411 C409 1.387 . S
C411 C413 1.390 . S
C411 H415 0.950 . S
H412 C408 0.950 . S
C413 C411 1.390 . S
C413 C414 1.387 . S
C413 H416 0.950 . S
C414 C413 1.387 . S
C414 C417 1.387 . S
H415 C411 0.950 . S
H416 C413 0.950 . S
C417 C408 1.390 . S
C417 H410 0.950 . S
C417 C414 1.387 . S
C418 C419 1.387 . S
C418 H422 0.950 . S
C418 C427 1.390 . S
C419 C418 1.387 . S
C419 C421 1.387 . S
H420 C427 0.950 . S
C421 C419 1.387 . S
C421 C423 1.390 . S
C421 H425 0.950 . S
H422 C418 0.950 . S
C423 C421 1.390 . S
C423 C424 1.387 . S
C423 H426 0.950 . S
C424 C423 1.387 . S
C424 C427 1.387 . S
H425 C421 0.950 . S
H426 C423 0.950 . S
C427 C418 1.390 . S
C427 H420 0.950 . S
C427 C424 1.387 . S
C428 C429 1.387 . S
C428 H432 0.950 . S
C428 C437 1.390 . S
C429 C428 1.387 . S
C429 C431 1.387 . S
H430 C437 0.950 . S
C431 C429 1.387 . S
C431 C433 1.390 . S
C431 H435 0.950 . S
H432 C428 0.950 . S
C433 C431 1.390 . S
C433 C434 1.387 . S
C433 H436 0.950 . S
C434 C433 1.387 . S
C434 C437 1.387 . S
H435 C431 0.950 . S
H436 C433 0.950 . S
C437 C428 1.390 . S
C437 H430 0.950 . S
C437 C434 1.387 . S
C438 C439 1.387 . S
C438 H442 0.950 . S
C438 C447 1.390 . S
C439 C438 1.387 . S
C439 C441 1.387 . S
H440 C447 0.950 . S
C441 C439 1.387 . S
C441 C443 1.390 . S
C441 H445 0.950 . S
H442 C438 0.950 . S
C443 C441 1.390 . S
C443 C444 1.387 . S
C443 H446 0.950 . S
C444 C443 1.387 . S
C444 C447 1.387 . S
H445 C441 0.950 . S
H446 C443 0.950 . S
C447 C438 1.390 . S
C447 H440 0.950 . S
C447 C444 1.387 . S
C448 C449 1.387 . S
C448 H452 0.950 . S
C448 C457 1.390 1_554 S
C449 C448 1.387 . S
C449 C451 1.387 . S
H450 C457 0.950 . S
C451 C449 1.387 . S
C451 C453 1.390 1_554 S
C451 H455 0.950 . S
H452 C448 0.950 . S
C453 C451 1.390 1_556 S
C453 C454 1.387 . S
C453 H456 0.950 . S
C454 C453 1.387 . S
C454 C457 1.387 . S
H455 C451 0.950 . S
H456 C453 0.950 . S
C457 C448 1.390 1_556 S
C457 H450 0.950 . S
C457 C454 1.387 . S
C458 C459 1.387 . S
C458 H462 0.950 . S
C458 C467 1.390 . S
C459 C458 1.387 . S
C459 C461 1.387 . S
H460 C467 0.950 . S
C461 C459 1.387 . S
C461 C463 1.390 . S
C461 H465 0.950 . S
H462 C458 0.950 . S
C463 C461 1.390 . S
C463 C464 1.387 . S
C463 H466 0.950 . S
C464 C463 1.387 . S
C464 C467 1.387 . S
H465 C461 0.950 . S
H466 C463 0.950 . S
C467 C458 1.390 . S
C467 H460 0.950 . S
C467 C464 1.387 . S
C468 C469 1.406 . S
C468 H472 0.950 . S
C468 C477 1.390 1_554 S
C469 C468 1.406 . S
C469 C471 1.369 1_655 S
H470 C477 0.950 . S
C471 C469 1.369 1_455 S
C471 C473 1.390 1_554 S
C471 H475 0.950 . S
H472 C468 0.950 . S
C473 C471 1.390 1_556 S
C473 C474 1.369 1_455 S
C473 H476 0.950 . S
C474 C473 1.369 1_655 S
C474 C477 1.406 . S
H475 C471 0.950 . S
H476 C473 0.950 . S
C477 C468 1.390 1_556 S
C477 H470 0.950 . S
C477 C474 1.406 . S
C478 C479 1.369 1_545 S
C478 H482 0.950 . S
C478 C487 1.390 . S
C479 C478 1.369 1_565 S
C479 C481 1.406 . S
H480 C487 0.950 . S
C481 C479 1.406 . S
C481 C483 1.390 . S
C481 H485 0.950 . S
H482 C478 0.950 . S
C483 C481 1.390 . S
C483 C484 1.406 . S
C483 H486 0.950 . S
C484 C483 1.406 . S
C484 C487 1.369 1_565 S
H485 C481 0.950 . S
H486 C483 0.950 . S
C487 C478 1.390 . S
C487 H480 0.950 . S
C487 C484 1.369 1_545 S
C488 C489 1.387 . S
C488 H492 0.950 . S
C488 C497 1.390 1_556 S
C489 C488 1.387 . S
C489 C491 1.387 . S
H490 C497 0.950 . S
C491 C489 1.387 . S
C491 C493 1.390 1_556 S
C491 H495 0.950 . S
H492 C488 0.950 . S
C493 C491 1.390 1_554 S
C493 C494 1.387 . S
C493 H496 0.950 . S
C494 C493 1.387 . S
C494 C497 1.387 . S
H495 C491 0.950 . S
H496 C493 0.950 . S
C497 C488 1.390 1_554 S
C497 H490 0.950 . S
C497 C494 1.387 . S
C498 C499 1.387 . S
C498 H502 0.950 . S
C498 C507 1.390 . S
C499 C498 1.387 . S
C499 C501 1.387 . S
H500 C507 0.950 . S
C501 C499 1.387 . S
C501 C503 1.390 . S
C501 H505 0.950 . S
H502 C498 0.950 . S
C503 C501 1.390 . S
C503 C504 1.387 . S
C503 H506 0.950 . S
C504 C503 1.387 . S
C504 C507 1.387 . S
H505 C501 0.950 . S
H506 C503 0.950 . S
C507 C498 1.390 . S
C507 H500 0.950 . S
C507 C504 1.387 . S
C508 C509 1.369 1_655 S
C508 H512 0.950 . S
C508 C517 1.390 1_554 S
C509 C508 1.369 1_455 S
C509 C511 1.406 . S
H510 C517 0.950 . S
C511 C509 1.406 . S
C511 C513 1.390 1_554 S
C511 H515 0.950 . S
H512 C508 0.950 . S
C513 C511 1.390 1_556 S
C513 C514 1.406 . S
C513 H516 0.950 . S
C514 C513 1.406 . S
C514 C517 1.369 1_455 S
H515 C511 0.950 . S
H516 C513 0.950 . S
C517 C508 1.390 1_556 S
C517 H510 0.950 . S
C517 C514 1.369 1_655 S
C518 C519 1.369 1_565 S
C518 H522 0.950 . S
C518 C527 1.390 . S
C519 C518 1.369 1_545 S
C519 C521 1.406 . S
H520 C527 0.950 . S
C521 C519 1.406 . S
C521 C523 1.390 . S
C521 H525 0.950 . S
H522 C518 0.950 . S
C523 C521 1.390 . S
C523 C524 1.406 . S
C523 H526 0.950 . S
C524 C523 1.406 . S
C524 C527 1.369 1_545 S
H525 C521 0.950 . S
H526 C523 0.950 . S
C527 C518 1.390 . S
C527 H520 0.950 . S
C527 C524 1.369 1_565 S
C209 C4 1.326 . S
C214 C95 1.325 . S
C219 C23 1.325 . S
C224 C56 1.326 . S
C229 C36 1.325 . S
C234 C75 1.326 . S
C239 C49 1.326 . S
C244 C82 1.325 . S
C249 C114 1.325 . S
C254 C205 1.326 . S
C259 C160 1.326 . S
C264 C121 1.325 . S
C269 C134 1.325 . S
C274 C179 1.325 . S
C279 C153 1.326 . S
C284 C186 1.325 . S
C289 C5 1.596 . S
C294 C127 1.605 . S
C299 C16 1.596 . S
C304 C140 1.605 . S
C309 C147 1.605 . S
C314 C29 1.596 . S
C319 C42 1.596 . S
C324 C108 1.605 . S
C329 C57 1.595 . S
C334 C199 1.606 . S
C339 C166 1.605 . S
C344 C68 1.596 . S
C349 C173 1.606 . S
C354 C83 1.595 . S
C359 C192 1.605 . S
C364 C96 1.596 . S
C369 C17 1.605 . S
C374 C107 1.595 . S
C379 C30 1.606 . S
C384 C122 1.596 . S
C389 C135 1.595 . S
C394 C43 1.606 . S
C399 C10 1.606 . S
C404 C146 1.595 . S
C409 C161 1.595 . S
C414 C101 1.606 . S
C419 C172 1.596 . S
C424 C62 1.605 . S
C429 C69 1.605 . S
C434 C187 1.596 . S
C439 C88 1.606 . S
C444 C198 1.595 . S
C449 C3 1.625 . S
C454 C55 1.625 . S
C459 C70 1.625 . S
C464 C18 1.625 . S
C469 C31 1.627 . S
C474 C81 1.627 . S
C479 C94 1.626 . S
C484 C44 1.626 . S
C489 C109 1.624 . S
C494 C159 1.624 . S
C499 C174 1.625 . S
C504 C120 1.625 . S
C509 C185 1.627 . S
C514 C133 1.627 . S
C519 C200 1.627 . S
C524 C148 1.627 . S
