# Generated by pormake.
# Topology ooa, (5)-cn, num edge types: 1
# Building blocks:
#     Node 0, Type 0, BuildingBlock: XOMCOT_clean_sbu_0, # of connection points: 5
#     Node 1, Type 0, BuildingBlock: XOMCOT_clean_sbu_0, # of connection points: 5
#     Node 2, Type 0, BuildingBlock: XOMCOT_clean_sbu_0, # of connection points: 5
#     Node 3, Type 0, BuildingBlock: XOMCOT_clean_sbu_0, # of connection points: 5
#     Node 4, Type 0, BuildingBlock: XOMCOT_clean_sbu_0, # of connection points: 5
#     Node 5, Type 0, BuildingBlock: XOMCOT_clean_sbu_0, # of connection points: 5
#     Node 6, Type 0, BuildingBlock: XOMCOT_clean_sbu_0, # of connection points: 5
#     Node 7, Type 0, BuildingBlock: XOMCOT_clean_sbu_0, # of connection points: 5
#     Edge 8, Type (0, 0), None
#     Edge 9, Type (0, 0), None
#     Edge 10, Type (0, 0), None
#     Edge 11, Type (0, 0), None
#     Edge 12, Type (0, 0), None
#     Edge 13, Type (0, 0), None
#     Edge 14, Type (0, 0), None
#     Edge 15, Type (0, 0), None
#     Edge 16, Type (0, 0), None
#     Edge 17, Type (0, 0), None
#     Edge 18, Type (0, 0), None
#     Edge 19, Type (0, 0), None
#     Edge 20, Type (0, 0), None
#     Edge 21, Type (0, 0), None
#     Edge 22, Type (0, 0), None
#     Edge 23, Type (0, 0), None
#     Edge 24, Type (0, 0), None
#     Edge 25, Type (0, 0), None
#     Edge 26, Type (0, 0), None
#     Edge 27, Type (0, 0), None
# Relax obj value: 0.363
# Max RMSD: 0.220
# Mean RMSD: 0.220
data_MOF--net-ooa--node1-XOMCOT_clean_sbu_0--edge1-none
_symmetry_space_group_name_H-M    P1
_symmetry_Int_Tables_number       1
_symmetry_cell_setting            triclinic
loop_
_symmetry_equiv_pos_as_xyz
'x, y, z'
_cell_length_a     13.593532
_cell_length_b     17.051383
_cell_length_c     24.463806
_cell_angle_alpha  90.014879
_cell_angle_beta   90.000035
_cell_angle_gamma 90.00025
loop_
_atom_site_label
_atom_site_type_symbol
_atom_site_fract_x
_atom_site_fract_y
_atom_site_fract_z
_atom_type_partial_charge
Co0 Co 0.10808 0.1264 0.08288 0.0
C1 C 0.93166 0.17677 1.02244 0.0
C2 C 1.04677 0.26155 1.01445 0.0
C3 C 0.95975 0.29477 0.99637 0.0
N4 N 1.02953 0.18736 1.03115 0.0
N5 N 0.88722 0.24143 1.00169 0.0
H6 H 0.89169 0.12541 0.03579 0.0
H7 H 0.11581 0.29196 1.01844 0.0
C8 C 0.28912 0.25167 0.07236 0.0
O9 O 0.25529 0.32131 0.08579 0.0
N10 N 0.17693 0.0676 0.13713 0.0
C11 C 0.13717 0.03483 0.18237 0.0
C12 C 0.20726 -0.01023 0.20757 0.0
C13 C 0.26966 0.04228 0.13509 0.0
N14 N 0.28962 -0.00443 0.17776 0.0
C15 C 0.96189 0.1661 0.16326 0.0
C16 C 0.08931 0.25291 0.22684 0.0
C17 C 1.00573 0.22063 0.25139 0.0
C18 C 0.9379 0.18089 0.21833 0.0
C19 C 0.11264 0.23335 0.17338 0.0
N20 N 1.05204 0.18702 0.14292 0.0
H21 H 0.91398 0.12875 0.13951 0.0
H22 H 0.18562 0.24658 0.16035 0.0
H23 H 1.0607 0.03812 0.19398 0.0
H24 H 0.31846 0.05142 0.1008 0.0
O25 O 1.01799 0.03709 0.07768 0.0
O26 O 0.1507 0.05356 1.02697 0.0
O27 O 0.23206 0.1919 0.07296 0.0
C28 C 0.07964 0.00833 0.04181 0.0
H29 H 0.95021 0.35442 0.98211 0.0
H30 H 0.19635 0.95006 0.24155 0.0
H31 H 0.14324 0.28439 0.25106 0.0
H32 H 0.8723 0.15513 0.2359 0.0
Co33 Co 0.54579 0.80892 0.08293 0.0
C34 C 0.72221 0.75845 1.02252 0.0
C35 C 0.60704 0.67374 1.01444 0.0
C36 C 0.69406 0.64048 0.99637 0.0
N37 N 0.62432 0.74791 1.0312 0.0
N38 N 0.76662 0.69379 1.00174 0.0
H39 H 0.76221 0.80978 0.03592 0.0
H40 H 0.53796 0.64336 1.01839 0.0
C41 C 0.36475 0.68365 0.07242 0.0
O42 O 0.39862 0.61402 0.08581 0.0
N43 N 0.47696 0.86778 0.13719 0.0
C44 C 0.51667 0.90029 0.18255 0.0
C45 C 0.44676 0.94562 0.20771 0.0
C46 C 0.38442 0.89353 0.135 0.0
N47 N 0.36463 0.9403 0.17767 0.0
C48 C 0.69203 0.76917 0.16328 0.0
C49 C 0.56462 0.68237 0.22684 0.0
C50 C 0.64823 0.71463 0.25139 0.0
C51 C 0.71606 0.75435 0.21834 0.0
C52 C 0.54125 0.70198 0.17341 0.0
N53 N 0.60184 0.7483 0.14296 0.0
H54 H 0.73994 0.80651 0.13954 0.0
H55 H 0.46824 0.68879 0.1604 0.0
H56 H 0.59303 0.89666 0.19432 0.0
H57 H 0.33572 0.88461 0.10063 0.0
O58 O 0.63587 0.89822 0.07771 0.0
O59 O 0.50315 0.8817 1.02701 0.0
O60 O 0.42179 0.74344 0.07302 0.0
C61 C 0.57422 0.92695 0.04183 0.0
H62 H 0.70357 0.58085 0.98207 0.0
H63 H 0.45769 -0.01487 0.24181 0.0
H64 H 0.51069 0.65089 0.25105 0.0
H65 H 0.78168 0.78009 0.2359 0.0
Co66 Co 0.10808 0.30886 0.48036 0.0
C67 C 0.93166 0.25848 0.5408 0.0
C68 C 1.04677 0.17371 0.54879 0.0
C69 C 0.95975 0.14048 0.56687 0.0
N70 N 1.02953 0.24789 0.53209 0.0
N71 N 0.88722 0.19382 0.56155 0.0
H72 H 0.89169 0.30984 0.52745 0.0
H73 H 0.11581 0.14329 0.5448 0.0
C74 C 0.28912 0.18359 0.49087 0.0
O75 O 0.25529 0.11395 0.47744 0.0
N76 N 0.17693 0.36766 0.42611 0.0
C77 C 0.13716 0.40043 0.38088 0.0
C78 C 0.20725 0.4455 0.35567 0.0
C79 C 0.26966 0.39298 0.42815 0.0
N80 N 0.28962 0.43969 0.38548 0.0
C81 C 0.96189 0.26916 0.39998 0.0
C82 C 0.08932 0.18237 0.33639 0.0
C83 C 1.00574 0.21466 0.31185 0.0
C84 C 0.93789 0.25438 0.34491 0.0
C85 C 0.11265 0.20192 0.38985 0.0
N86 N 1.05205 0.24824 0.42031 0.0
H87 H 0.91398 0.3065 0.42373 0.0
H88 H 0.18563 0.1887 0.40288 0.0
H89 H 1.0607 0.39715 0.36926 0.0
H90 H 0.31846 0.38384 0.46244 0.0
O91 O 1.01799 0.39817 0.48557 0.0
O92 O 0.1507 0.3817 0.53627 0.0
O93 O 0.23206 0.24336 0.49028 0.0
C94 C 0.07964 0.42693 0.52144 0.0
H95 H 0.9502 0.08084 0.58112 0.0
H96 H 0.19634 0.48521 0.3217 0.0
H97 H 0.14326 0.1509 0.31217 0.0
H98 H 0.8723 0.28013 0.32735 0.0
Co99 Co 0.54579 0.62634 0.48032 0.0
C100 C 0.72221 0.6768 0.54073 0.0
C101 C 0.60704 0.76152 0.5488 0.0
C102 C 0.69406 0.79477 0.56688 0.0
N103 N 0.62432 0.68735 0.53205 0.0
N104 N 0.76662 0.74147 0.56151 0.0
H105 H 0.76221 0.62547 0.52733 0.0
H106 H 0.53797 0.7919 0.54486 0.0
C107 C 0.36475 0.7516 0.49083 0.0
O108 O 0.39863 0.82123 0.47744 0.0
N109 N 0.47696 0.56748 0.42606 0.0
C110 C 0.51668 0.53497 0.3807 0.0
C111 C 0.44677 0.48964 0.35554 0.0
C112 C 0.38442 0.54173 0.42824 0.0
N113 N 0.36463 0.49496 0.38557 0.0
C114 C 0.69203 0.66609 0.39997 0.0
C115 C 0.56461 0.75287 0.3364 0.0
C116 C 0.64822 0.72061 0.31186 0.0
C117 C 0.71607 0.6809 0.34491 0.0
C118 C 0.54125 0.73327 0.38984 0.0
N119 N 0.60184 0.68696 0.42029 0.0
H120 H 0.73994 0.62875 0.42371 0.0
H121 H 0.46823 0.74646 0.40285 0.0
H122 H 0.59304 0.5386 0.36893 0.0
H123 H 0.33572 0.55065 0.46261 0.0
O124 O 0.63587 0.53703 0.48554 0.0
O125 O 0.50315 0.55356 0.53623 0.0
O126 O 0.42179 0.69182 0.49023 0.0
C127 C 0.57422 0.50831 0.52142 0.0
H128 H 0.70357 0.85441 0.58118 0.0
H129 H 0.45769 0.45013 0.32144 0.0
H130 H 0.51068 0.78435 0.31219 0.0
H131 H 0.78168 0.65517 0.32735 0.0
Co132 Co 1.04578 0.80887 0.98036 0.0
C133 C 0.22221 0.75848 0.04078 0.0
C134 C 0.10707 0.67374 0.04882 0.0
C135 C 0.19409 0.6405 0.06689 0.0
N136 N 0.12432 0.74791 0.03209 0.0
N137 N 0.26663 0.69382 0.06154 0.0
H138 H 0.26219 0.80983 1.02742 0.0
H139 H 1.03801 0.64334 0.04485 0.0
C140 C 0.86474 0.68359 0.99088 0.0
O141 O 0.89859 0.61395 0.97747 0.0
N142 N 0.97693 0.86766 0.9261 0.0
C143 C 1.01669 0.90043 0.88087 0.0
C144 C 0.9466 0.94549 0.85566 0.0
C145 C 0.88419 0.89298 0.92814 0.0
N146 N 0.86423 0.93969 0.88547 0.0
C147 C 0.19197 0.76917 0.89998 0.0
C148 C 1.06456 0.68235 0.83641 0.0
C149 C 0.14814 0.71463 0.81185 0.0
C150 C 0.21597 0.75438 0.84491 0.0
C151 C 1.04123 0.70191 0.88986 0.0
N152 N 0.10182 0.74824 0.92032 0.0
H153 H 0.23987 0.80653 0.92372 0.0
H154 H 0.96825 0.68866 0.9029 0.0
H155 H 0.09316 0.89715 0.86926 0.0
H156 H 0.8354 0.88384 0.96243 0.0
O157 O 0.13586 0.89818 0.98556 0.0
O158 O 1.00315 0.88171 0.03627 0.0
O159 O 0.9218 0.74336 0.99028 0.0
C160 C 1.07421 0.92695 1.02143 0.0
H161 H 0.20361 0.58087 0.08117 0.0
H162 H 0.95751 -0.0148 0.82168 0.0
H163 H 1.01063 0.65086 0.81219 0.0
H164 H 0.28155 0.78014 0.82734 0.0
Co165 Co 0.60807 0.12633 0.98031 0.0
C166 C 0.43164 0.1768 0.0407 0.0
C167 C 0.54684 0.26148 0.04882 0.0
C168 C 0.45982 0.29475 0.06689 0.0
N169 N 0.52954 0.18733 0.03205 0.0
N170 N 0.38724 0.24147 0.06148 0.0
H171 H 0.39164 0.12548 1.0273 0.0
H172 H 0.61593 0.29185 0.04491 0.0
C173 C 0.7891 0.2516 0.99083 0.0
O174 O 0.75521 0.32123 0.97746 0.0
N175 N 0.6769 0.06748 0.92604 0.0
C176 C 0.63718 0.03496 0.88068 0.0
C177 C 0.70709 -0.01036 0.85552 0.0
C178 C 0.76944 0.04172 0.92823 0.0
N179 N 0.78923 -0.00505 0.88556 0.0
C180 C 0.46183 0.16607 0.89996 0.0
C181 C 0.58922 0.25288 0.83641 0.0
C182 C 0.50562 0.22062 0.81185 0.0
C183 C 0.43779 0.18089 0.8449 0.0
C184 C 0.61259 0.23328 0.88984 0.0
N185 N 0.55201 0.18695 0.92028 0.0
H186 H 0.41392 0.12872 0.9237 0.0
H187 H 0.6856 0.24648 0.90285 0.0
H188 H 0.56082 0.03859 0.86892 0.0
H189 H 0.81814 0.05064 0.9626 0.0
O190 O 0.51799 0.03702 0.98553 0.0
O191 O 0.65072 0.05355 0.03622 0.0
O192 O 0.73207 0.19181 0.99022 0.0
C193 C 0.57965 0.00829 1.0214 0.0
H194 H 0.45033 0.35438 0.08121 0.0
H195 H 0.69616 0.95013 0.82143 0.0
H196 H 0.64314 0.28437 0.81219 0.0
H197 H 0.37218 0.15515 0.82734 0.0
Co198 Co 1.04578 0.62638 0.58289 0.0
C199 C 0.22221 0.67677 0.52246 0.0
C200 C 0.10707 0.76152 0.51443 0.0
C201 C 0.19409 0.79475 0.49636 0.0
N202 N 0.12432 0.68734 0.53116 0.0
N203 N 0.26663 0.74144 0.50171 0.0
H204 H 0.26219 0.62542 0.53582 0.0
H205 H 1.03801 0.79192 0.5184 0.0
C206 C 0.86474 0.75166 0.57237 0.0
O207 O 0.89859 0.8213 0.58578 0.0
N208 N 0.97693 0.56759 0.63714 0.0
C209 C 1.0167 0.53482 0.68237 0.0
C210 C 0.94661 0.48975 0.70758 0.0
C211 C 0.88419 0.54227 0.63511 0.0
N212 N 0.86424 0.49556 0.67778 0.0
C213 C 0.19197 0.66608 0.66327 0.0
C214 C 1.06455 0.75289 0.72685 0.0
C215 C 0.14813 0.7206 0.75139 0.0
C216 C 0.21597 0.68087 0.71834 0.0
C217 C 1.04123 0.73334 0.67339 0.0
N218 N 0.10182 0.68701 0.64293 0.0
H219 H 0.23988 0.62873 0.63952 0.0
H220 H 0.96824 0.74658 0.66036 0.0
H221 H 0.09316 0.5381 0.69399 0.0
H222 H 0.8354 0.55142 0.60081 0.0
O223 O 0.13587 0.53708 0.57768 0.0
O224 O 1.00315 0.55355 0.52698 0.0
O225 O 0.9218 0.69189 0.57297 0.0
C226 C 1.07421 0.50831 0.54182 0.0
H227 H 0.20362 0.85439 0.48208 0.0
H228 H 0.95752 0.45005 0.74156 0.0
H229 H 1.01062 0.78437 0.75107 0.0
H230 H 0.28156 0.65511 0.7359 0.0
Co231 Co 0.60807 0.30892 0.58293 0.0
C232 C 0.43164 0.25846 0.52254 0.0
C233 C 0.54683 0.17377 0.51442 0.0
C234 C 0.45982 0.1405 0.49635 0.0
N235 N 0.52954 0.24793 0.53119 0.0
N236 N 0.38724 0.19378 0.50175 0.0
H237 H 0.39164 0.30978 0.53594 0.0
H238 H 0.61592 0.1434 0.51834 0.0
C239 C 0.7891 0.18366 0.57241 0.0
O240 O 0.75521 0.11402 0.58579 0.0
N241 N 0.6769 0.36778 0.6372 0.0
C242 C 0.63718 0.40029 0.68256 0.0
C243 C 0.70709 0.44562 0.70772 0.0
C244 C 0.76944 0.39353 0.63501 0.0
N245 N 0.78923 0.4403 0.67769 0.0
C246 C 0.46182 0.26918 0.66328 0.0
C247 C 0.58923 0.18238 0.72684 0.0
C248 C 0.50563 0.21465 0.75139 0.0
C249 C 0.43778 0.25436 0.71834 0.0
C250 C 0.6126 0.20198 0.67341 0.0
N251 N 0.55201 0.24831 0.64296 0.0
H252 H 0.41392 0.30652 0.63954 0.0
H253 H 0.6856 0.18878 0.66039 0.0
H254 H 0.56082 0.39666 0.69432 0.0
H255 H 0.81815 0.38461 0.60065 0.0
O256 O 0.51799 0.39823 0.57771 0.0
O257 O 0.65072 0.38171 0.52702 0.0
O258 O 0.73207 0.24345 0.57302 0.0
C259 C 0.57965 0.42696 0.54184 0.0
H260 H 0.45032 0.08088 0.48203 0.0
H261 H 0.69616 0.48513 0.74181 0.0
H262 H 0.64315 0.1509 0.75106 0.0
H263 H 0.37217 0.2801 0.7359 0.0
loop_
_geom_bond_atom_site_label_1
_geom_bond_atom_site_label_2
_geom_bond_distance
_geom_bond_site_symmetry_2
_ccdc_geom_bond_type
Co0 N4 2.148 1_455 S
Co0 N10 2.128 . S
Co0 N20 2.194 . S
Co0 O25 2.351 1_455 S
Co0 O26 2.155 1_554 S
Co0 O27 2.096 1_554 S
C1 N4 1.301 . S
C1 N5 1.328 1_554 S
C1 H6 0.930 . S
C2 C3 1.333 . S
C2 N4 1.317 1_556 S
C2 H7 0.930 1_655 S
C3 C2 1.333 . S
C3 N5 1.350 . S
C3 H29 0.931 . S
N4 Co0 2.148 1_655 S
N4 C1 1.301 . S
N4 C2 1.317 1_554 S
N5 C1 1.328 1_556 S
N5 C3 1.350 . S
H6 C1 0.930 . S
H7 C2 0.930 1_455 S
C8 O9 1.224 . S
C8 O27 1.247 1_554 S
O9 C8 1.224 . S
N10 Co0 2.128 . S
N10 C11 1.355 . S
N10 C13 1.311 . S
C11 N10 1.355 . S
C11 C12 1.363 . S
C11 H23 0.929 . S
C12 C11 1.363 . S
C12 N14 1.375 . S
C12 H30 0.931 1_545 S
C13 N10 1.311 . S
C13 N14 1.347 . S
C13 H24 0.929 . S
N14 C12 1.375 . S
N14 C13 1.347 . S
C15 C18 1.365 . S
C15 N20 1.328 1_655 S
C15 H21 0.929 . S
C16 C17 1.362 1_455 S
C16 C19 1.378 . S
C16 H31 0.929 . S
C17 C16 1.362 1_655 S
C17 C18 1.366 . S
C18 C15 1.365 . S
C18 C17 1.366 . S
C18 H32 0.930 . S
C19 C16 1.378 . S
C19 N20 1.315 . S
C19 H22 0.930 . S
N20 Co0 2.194 . S
N20 C15 1.328 1_455 S
N20 C19 1.315 . S
H21 C15 0.929 . S
H22 C19 0.930 . S
H23 C11 0.929 . S
H24 C13 0.929 . S
O25 Co0 2.351 1_655 S
O25 C28 1.244 . S
O26 Co0 2.155 1_556 S
O26 C28 1.240 1_456 S
O27 Co0 2.096 1_556 S
O27 C8 1.247 1_556 S
C28 O25 1.244 . S
C28 O26 1.240 1_654 S
H29 C3 0.931 . S
H30 C12 0.931 1_565 S
H31 C16 0.929 . S
H32 C18 0.930 . S
Co33 N37 2.148 . S
Co33 N43 2.128 . S
Co33 N53 2.194 . S
Co33 O58 2.351 . S
Co33 O59 2.155 1_554 S
Co33 O60 2.096 1_554 S
C34 N37 1.301 . S
C34 N38 1.328 1_554 S
C34 H39 0.930 . S
C35 C36 1.333 . S
C35 N37 1.317 1_556 S
C35 H40 0.930 . S
C36 C35 1.333 . S
C36 N38 1.350 . S
C36 H62 0.931 . S
N37 Co33 2.148 . S
N37 C34 1.301 . S
N37 C35 1.317 1_554 S
N38 C34 1.328 1_556 S
N38 C36 1.350 . S
H39 C34 0.930 . S
H40 C35 0.930 . S
C41 O42 1.224 . S
C41 O60 1.247 1_554 S
O42 C41 1.224 . S
N43 Co33 2.128 . S
N43 C44 1.355 . S
N43 C46 1.311 . S
C44 N43 1.355 . S
C44 C45 1.363 . S
C44 H56 0.929 . S
C45 C44 1.363 . S
C45 N47 1.375 . S
C45 H63 0.931 1_565 S
C46 N43 1.311 . S
C46 N47 1.347 . S
C46 H57 0.929 . S
N47 C45 1.375 . S
N47 C46 1.347 . S
C48 C51 1.365 . S
C48 N53 1.328 . S
C48 H54 0.929 . S
C49 C50 1.362 . S
C49 C52 1.378 . S
C49 H64 0.929 . S
C50 C49 1.362 . S
C50 C51 1.366 . S
C51 C48 1.365 . S
C51 C50 1.366 . S
C51 H65 0.930 . S
C52 C49 1.378 . S
C52 N53 1.315 . S
C52 H55 0.930 . S
N53 Co33 2.194 . S
N53 C48 1.328 . S
N53 C52 1.315 . S
H54 C48 0.929 . S
H55 C52 0.930 . S
H56 C44 0.929 . S
H57 C46 0.929 . S
O58 Co33 2.351 . S
O58 C61 1.244 . S
O59 Co33 2.155 1_556 S
O59 C61 1.240 1_556 S
O60 Co33 2.096 1_556 S
O60 C41 1.247 1_556 S
C61 O58 1.244 . S
C61 O59 1.240 1_554 S
H62 C36 0.931 . S
H63 C45 0.931 1_545 S
H64 C49 0.929 . S
H65 C51 0.930 . S
Co66 N70 2.148 1_455 S
Co66 N76 2.128 . S
Co66 N86 2.194 . S
Co66 O91 2.351 1_455 S
Co66 O92 2.155 . S
Co66 O93 2.096 . S
C67 N70 1.301 . S
C67 N71 1.328 . S
C67 H72 0.930 . S
C68 C69 1.333 . S
C68 N70 1.317 . S
C68 H73 0.930 1_655 S
C69 C68 1.333 . S
C69 N71 1.350 . S
C69 H95 0.931 . S
N70 Co66 2.148 1_655 S
N70 C67 1.301 . S
N70 C68 1.317 . S
N71 C67 1.328 . S
N71 C69 1.350 . S
H72 C67 0.930 . S
H73 C68 0.930 1_455 S
C74 O75 1.224 . S
C74 O93 1.247 . S
O75 C74 1.224 . S
N76 Co66 2.128 . S
N76 C77 1.355 . S
N76 C79 1.311 . S
C77 N76 1.355 . S
C77 C78 1.363 . S
C77 H89 0.929 . S
C78 C77 1.363 . S
C78 N80 1.375 . S
C78 H96 0.931 . S
C79 N76 1.311 . S
C79 N80 1.347 . S
C79 H90 0.929 . S
N80 C78 1.375 . S
N80 C79 1.347 . S
C81 C84 1.365 . S
C81 N86 1.328 1_655 S
C81 H87 0.929 . S
C82 C83 1.362 1_455 S
C82 C85 1.378 . S
C82 H97 0.929 . S
C83 C82 1.362 1_655 S
C83 C84 1.366 . S
C84 C81 1.365 . S
C84 C83 1.366 . S
C84 H98 0.930 . S
C85 C82 1.378 . S
C85 N86 1.315 . S
C85 H88 0.930 . S
N86 Co66 2.194 . S
N86 C81 1.328 1_455 S
N86 C85 1.315 . S
H87 C81 0.929 . S
H88 C85 0.930 . S
H89 C77 0.929 . S
H90 C79 0.929 . S
O91 Co66 2.351 1_655 S
O91 C94 1.244 . S
O92 Co66 2.155 . S
O92 C94 1.240 1_455 S
O93 Co66 2.096 . S
O93 C74 1.247 . S
C94 O91 1.244 . S
C94 O92 1.240 1_655 S
H95 C69 0.931 . S
H96 C78 0.931 . S
H97 C82 0.929 . S
H98 C84 0.930 . S
Co99 N103 2.148 . S
Co99 N109 2.128 . S
Co99 N119 2.194 . S
Co99 O124 2.351 . S
Co99 O125 2.155 . S
Co99 O126 2.096 . S
C100 N103 1.301 . S
C100 N104 1.328 . S
C100 H105 0.930 . S
C101 C102 1.333 . S
C101 N103 1.317 . S
C101 H106 0.930 . S
C102 C101 1.333 . S
C102 N104 1.350 . S
C102 H128 0.931 . S
N103 Co99 2.148 . S
N103 C100 1.301 . S
N103 C101 1.317 . S
N104 C100 1.328 . S
N104 C102 1.350 . S
H105 C100 0.930 . S
H106 C101 0.930 . S
C107 O108 1.224 . S
C107 O126 1.247 . S
O108 C107 1.224 . S
N109 Co99 2.128 . S
N109 C110 1.355 . S
N109 C112 1.311 . S
C110 N109 1.355 . S
C110 C111 1.363 . S
C110 H122 0.929 . S
C111 C110 1.363 . S
C111 N113 1.375 . S
C111 H129 0.931 . S
C112 N109 1.311 . S
C112 N113 1.347 . S
C112 H123 0.929 . S
N113 C111 1.375 . S
N113 C112 1.347 . S
C114 C117 1.365 . S
C114 N119 1.328 . S
C114 H120 0.929 . S
C115 C116 1.362 . S
C115 C118 1.378 . S
C115 H130 0.929 . S
C116 C115 1.362 . S
C116 C117 1.366 . S
C117 C114 1.365 . S
C117 C116 1.366 . S
C117 H131 0.930 . S
C118 C115 1.378 . S
C118 N119 1.315 . S
C118 H121 0.930 . S
N119 Co99 2.194 . S
N119 C114 1.328 . S
N119 C118 1.315 . S
H120 C114 0.929 . S
H121 C118 0.930 . S
H122 C110 0.929 . S
H123 C112 0.929 . S
O124 Co99 2.351 . S
O124 C127 1.244 . S
O125 Co99 2.155 . S
O125 C127 1.240 . S
O126 Co99 2.096 . S
O126 C107 1.247 . S
C127 O124 1.244 . S
C127 O125 1.240 . S
H128 C102 0.931 . S
H129 C111 0.931 . S
H130 C115 0.929 . S
H131 C117 0.930 . S
Co132 N136 2.148 1_655 S
Co132 N142 2.128 . S
Co132 N152 2.194 . S
Co132 O157 2.351 1_655 S
Co132 O158 2.155 1_556 S
Co132 O159 2.096 1_556 S
C133 N136 1.301 . S
C133 N137 1.328 1_556 S
C133 H138 0.930 . S
C134 C135 1.333 . S
C134 N136 1.317 1_554 S
C134 H139 0.930 1_455 S
C135 C134 1.333 . S
C135 N137 1.350 . S
C135 H161 0.931 . S
N136 Co132 2.148 1_455 S
N136 C133 1.301 . S
N136 C134 1.317 1_556 S
N137 C133 1.328 1_554 S
N137 C135 1.350 . S
H138 C133 0.930 . S
H139 C134 0.930 1_655 S
C140 O141 1.224 . S
C140 O159 1.247 1_556 S
O141 C140 1.224 . S
N142 Co132 2.128 . S
N142 C143 1.355 . S
N142 C145 1.311 . S
C143 N142 1.355 . S
C143 C144 1.363 . S
C143 H155 0.929 . S
C144 C143 1.363 . S
C144 N146 1.375 . S
C144 H162 0.931 1_565 S
C145 N142 1.311 . S
C145 N146 1.347 . S
C145 H156 0.929 . S
N146 C144 1.375 . S
N146 C145 1.347 . S
C147 C150 1.365 . S
C147 N152 1.328 1_455 S
C147 H153 0.929 . S
C148 C149 1.362 1_655 S
C148 C151 1.378 . S
C148 H163 0.929 . S
C149 C148 1.362 1_455 S
C149 C150 1.366 . S
C150 C147 1.365 . S
C150 C149 1.366 . S
C150 H164 0.930 . S
C151 C148 1.378 . S
C151 N152 1.315 . S
C151 H154 0.930 . S
N152 Co132 2.194 . S
N152 C147 1.328 1_655 S
N152 C151 1.315 . S
H153 C147 0.929 . S
H154 C151 0.930 . S
H155 C143 0.929 . S
H156 C145 0.929 . S
O157 Co132 2.351 1_455 S
O157 C160 1.244 . S
O158 Co132 2.155 1_554 S
O158 C160 1.240 1_654 S
O159 Co132 2.096 1_554 S
O159 C140 1.247 1_554 S
C160 O157 1.244 . S
C160 O158 1.240 1_456 S
H161 C135 0.931 . S
H162 C144 0.931 1_545 S
H163 C148 0.929 . S
H164 C150 0.930 . S
Co165 N169 2.148 . S
Co165 N175 2.128 . S
Co165 N185 2.194 . S
Co165 O190 2.351 . S
Co165 O191 2.155 1_556 S
Co165 O192 2.096 1_556 S
C166 N169 1.301 . S
C166 N170 1.328 1_556 S
C166 H171 0.930 . S
C167 C168 1.333 . S
C167 N169 1.317 1_554 S
C167 H172 0.930 . S
C168 C167 1.333 . S
C168 N170 1.350 . S
C168 H194 0.931 . S
N169 Co165 2.148 . S
N169 C166 1.301 . S
N169 C167 1.317 1_556 S
N170 C166 1.328 1_554 S
N170 C168 1.350 . S
H171 C166 0.930 . S
H172 C167 0.930 . S
C173 O174 1.224 . S
C173 O192 1.247 1_556 S
O174 C173 1.224 . S
N175 Co165 2.128 . S
N175 C176 1.355 . S
N175 C178 1.311 . S
C176 N175 1.355 . S
C176 C177 1.363 . S
C176 H188 0.929 . S
C177 C176 1.363 . S
C177 N179 1.375 . S
C177 H195 0.931 1_545 S
C178 N175 1.311 . S
C178 N179 1.347 . S
C178 H189 0.929 . S
N179 C177 1.375 . S
N179 C178 1.347 . S
C180 C183 1.365 . S
C180 N185 1.328 . S
C180 H186 0.929 . S
C181 C182 1.362 . S
C181 C184 1.378 . S
C181 H196 0.929 . S
C182 C181 1.362 . S
C182 C183 1.366 . S
C183 C180 1.365 . S
C183 C182 1.366 . S
C183 H197 0.930 . S
C184 C181 1.378 . S
C184 N185 1.315 . S
C184 H187 0.930 . S
N185 Co165 2.194 . S
N185 C180 1.328 . S
N185 C184 1.315 . S
H186 C180 0.929 . S
H187 C184 0.930 . S
H188 C176 0.929 . S
H189 C178 0.929 . S
O190 Co165 2.351 . S
O190 C193 1.244 . S
O191 Co165 2.155 1_554 S
O191 C193 1.240 1_554 S
O192 Co165 2.096 1_554 S
O192 C173 1.247 1_554 S
C193 O190 1.244 . S
C193 O191 1.240 1_556 S
H194 C168 0.931 . S
H195 C177 0.931 1_565 S
H196 C181 0.929 . S
H197 C183 0.930 . S
Co198 N202 2.148 1_655 S
Co198 N208 2.128 . S
Co198 N218 2.194 . S
Co198 O223 2.351 1_655 S
Co198 O224 2.155 . S
Co198 O225 2.096 . S
C199 N202 1.301 . S
C199 N203 1.328 . S
C199 H204 0.930 . S
C200 C201 1.333 . S
C200 N202 1.317 . S
C200 H205 0.930 1_455 S
C201 C200 1.333 . S
C201 N203 1.350 . S
C201 H227 0.931 . S
N202 Co198 2.148 1_455 S
N202 C199 1.301 . S
N202 C200 1.317 . S
N203 C199 1.328 . S
N203 C201 1.350 . S
H204 C199 0.930 . S
H205 C200 0.930 1_655 S
C206 O207 1.224 . S
C206 O225 1.247 . S
O207 C206 1.224 . S
N208 Co198 2.128 . S
N208 C209 1.355 . S
N208 C211 1.311 . S
C209 N208 1.355 . S
C209 C210 1.363 . S
C209 H221 0.929 . S
C210 C209 1.363 . S
C210 N212 1.375 . S
C210 H228 0.931 . S
C211 N208 1.311 . S
C211 N212 1.347 . S
C211 H222 0.929 . S
N212 C210 1.375 . S
N212 C211 1.347 . S
C213 C216 1.365 . S
C213 N218 1.328 1_455 S
C213 H219 0.929 . S
C214 C215 1.362 1_655 S
C214 C217 1.378 . S
C214 H229 0.929 . S
C215 C214 1.362 1_455 S
C215 C216 1.366 . S
C216 C213 1.365 . S
C216 C215 1.366 . S
C216 H230 0.930 . S
C217 C214 1.378 . S
C217 N218 1.315 . S
C217 H220 0.930 . S
N218 Co198 2.194 . S
N218 C213 1.328 1_655 S
N218 C217 1.315 . S
H219 C213 0.929 . S
H220 C217 0.930 . S
H221 C209 0.929 . S
H222 C211 0.929 . S
O223 Co198 2.351 1_455 S
O223 C226 1.244 . S
O224 Co198 2.155 . S
O224 C226 1.240 1_655 S
O225 Co198 2.096 . S
O225 C206 1.247 . S
C226 O223 1.244 . S
C226 O224 1.240 1_455 S
H227 C201 0.931 . S
H228 C210 0.931 . S
H229 C214 0.929 . S
H230 C216 0.930 . S
Co231 N235 2.148 . S
Co231 N241 2.128 . S
Co231 N251 2.194 . S
Co231 O256 2.351 . S
Co231 O257 2.155 . S
Co231 O258 2.096 . S
C232 N235 1.301 . S
C232 N236 1.328 . S
C232 H237 0.930 . S
C233 C234 1.333 . S
C233 N235 1.317 . S
C233 H238 0.930 . S
C234 C233 1.333 . S
C234 N236 1.350 . S
C234 H260 0.931 . S
N235 Co231 2.148 . S
N235 C232 1.301 . S
N235 C233 1.317 . S
N236 C232 1.328 . S
N236 C234 1.350 . S
H237 C232 0.930 . S
H238 C233 0.930 . S
C239 O240 1.224 . S
C239 O258 1.247 . S
O240 C239 1.224 . S
N241 Co231 2.128 . S
N241 C242 1.355 . S
N241 C244 1.311 . S
C242 N241 1.355 . S
C242 C243 1.363 . S
C242 H254 0.929 . S
C243 C242 1.363 . S
C243 N245 1.375 . S
C243 H261 0.931 . S
C244 N241 1.311 . S
C244 N245 1.347 . S
C244 H255 0.929 . S
N245 C243 1.375 . S
N245 C244 1.347 . S
C246 C249 1.365 . S
C246 N251 1.328 . S
C246 H252 0.929 . S
C247 C248 1.362 . S
C247 C250 1.378 . S
C247 H262 0.929 . S
C248 C247 1.362 . S
C248 C249 1.366 . S
C249 C246 1.365 . S
C249 C248 1.366 . S
C249 H263 0.930 . S
C250 C247 1.378 . S
C250 N251 1.315 . S
C250 H253 0.930 . S
N251 Co231 2.194 . S
N251 C246 1.328 . S
N251 C250 1.315 . S
H252 C246 0.929 . S
H253 C250 0.930 . S
H254 C242 0.929 . S
H255 C244 0.929 . S
O256 Co231 2.351 . S
O256 C259 1.244 . S
O257 Co231 2.155 . S
O257 C259 1.240 . S
O258 Co231 2.096 . S
O258 C239 1.247 . S
C259 O256 1.244 . S
C259 O257 1.240 . S
H260 C234 0.931 . S
H261 C243 0.931 . S
H262 C247 0.929 . S
H263 C249 0.930 . S
C28 C160 2.080 1_644 S
C193 C61 2.080 1_546 S
C226 C94 2.080 1_455 S
C127 C259 2.080 . S
N47 N14 1.045 1_565 S
N80 N113 1.045 . S
N146 N179 1.045 1_565 S
N245 N212 1.045 . S
C8 N170 2.617 . S
N137 C41 2.617 . S
N236 C74 2.617 . S
N203 C107 2.617 . S
N38 C140 2.617 . S
C173 N5 2.617 . S
C206 N104 2.617 . S
N71 C239 2.617 . S
C83 C17 1.756 . S
C50 C116 1.756 . S
C215 C149 1.756 . S
C248 C182 1.756 . S
