# Generated by pormake.
# Topology wir, (6)-cn, num edge types: 1
# Building blocks:
#     Node 0, Type 0, BuildingBlock: KUMBOL_clean_sbu_1, # of connection points: 6
#     Node 1, Type 0, BuildingBlock: KUMBOL_clean_sbu_1, # of connection points: 6
#     Node 2, Type 0, BuildingBlock: KUMBOL_clean_sbu_1, # of connection points: 6
#     Node 3, Type 0, BuildingBlock: KUMBOL_clean_sbu_1, # of connection points: 6
#     Node 4, Type 0, BuildingBlock: KUMBOL_clean_sbu_1, # of connection points: 6
#     Node 5, Type 0, BuildingBlock: KUMBOL_clean_sbu_1, # of connection points: 6
#     Node 6, Type 0, BuildingBlock: KUMBOL_clean_sbu_1, # of connection points: 6
#     Node 7, Type 0, BuildingBlock: KUMBOL_clean_sbu_1, # of connection points: 6
#     Node 8, Type 0, BuildingBlock: KUMBOL_clean_sbu_1, # of connection points: 6
#     Node 9, Type 0, BuildingBlock: KUMBOL_clean_sbu_1, # of connection points: 6
#     Node 10, Type 0, BuildingBlock: KUMBOL_clean_sbu_1, # of connection points: 6
#     Node 11, Type 0, BuildingBlock: KUMBOL_clean_sbu_1, # of connection points: 6
#     Node 12, Type 0, BuildingBlock: KUMBOL_clean_sbu_1, # of connection points: 6
#     Node 13, Type 0, BuildingBlock: KUMBOL_clean_sbu_1, # of connection points: 6
#     Node 14, Type 0, BuildingBlock: KUMBOL_clean_sbu_1, # of connection points: 6
#     Node 15, Type 0, BuildingBlock: KUMBOL_clean_sbu_1, # of connection points: 6
#     Node 16, Type 0, BuildingBlock: KUMBOL_clean_sbu_1, # of connection points: 6
#     Node 17, Type 0, BuildingBlock: KUMBOL_clean_sbu_1, # of connection points: 6
#     Node 18, Type 0, BuildingBlock: KUMBOL_clean_sbu_1, # of connection points: 6
#     Node 19, Type 0, BuildingBlock: KUMBOL_clean_sbu_1, # of connection points: 6
#     Node 20, Type 0, BuildingBlock: KUMBOL_clean_sbu_1, # of connection points: 6
#     Node 21, Type 0, BuildingBlock: KUMBOL_clean_sbu_1, # of connection points: 6
#     Node 22, Type 0, BuildingBlock: KUMBOL_clean_sbu_1, # of connection points: 6
#     Node 23, Type 0, BuildingBlock: KUMBOL_clean_sbu_1, # of connection points: 6
#     Node 24, Type 0, BuildingBlock: KUMBOL_clean_sbu_1, # of connection points: 6
#     Node 25, Type 0, BuildingBlock: KUMBOL_clean_sbu_1, # of connection points: 6
#     Node 26, Type 0, BuildingBlock: KUMBOL_clean_sbu_1, # of connection points: 6
#     Node 27, Type 0, BuildingBlock: KUMBOL_clean_sbu_1, # of connection points: 6
#     Node 28, Type 0, BuildingBlock: KUMBOL_clean_sbu_1, # of connection points: 6
#     Node 29, Type 0, BuildingBlock: KUMBOL_clean_sbu_1, # of connection points: 6
#     Node 30, Type 0, BuildingBlock: KUMBOL_clean_sbu_1, # of connection points: 6
#     Node 31, Type 0, BuildingBlock: KUMBOL_clean_sbu_1, # of connection points: 6
#     Edge 32, Type (0, 0), BuildingBlock: EZIPEK_clean_linker_0, # of connection points: 2
#     Edge 33, Type (0, 0), BuildingBlock: EZIPEK_clean_linker_0, # of connection points: 2
#     Edge 34, Type (0, 0), BuildingBlock: EZIPEK_clean_linker_0, # of connection points: 2
#     Edge 35, Type (0, 0), BuildingBlock: EZIPEK_clean_linker_0, # of connection points: 2
#     Edge 36, Type (0, 0), BuildingBlock: EZIPEK_clean_linker_0, # of connection points: 2
#     Edge 37, Type (0, 0), BuildingBlock: EZIPEK_clean_linker_0, # of connection points: 2
#     Edge 38, Type (0, 0), BuildingBlock: EZIPEK_clean_linker_0, # of connection points: 2
#     Edge 39, Type (0, 0), BuildingBlock: EZIPEK_clean_linker_0, # of connection points: 2
#     Edge 40, Type (0, 0), BuildingBlock: EZIPEK_clean_linker_0, # of connection points: 2
#     Edge 41, Type (0, 0), BuildingBlock: EZIPEK_clean_linker_0, # of connection points: 2
#     Edge 42, Type (0, 0), BuildingBlock: EZIPEK_clean_linker_0, # of connection points: 2
#     Edge 43, Type (0, 0), BuildingBlock: EZIPEK_clean_linker_0, # of connection points: 2
#     Edge 44, Type (0, 0), BuildingBlock: EZIPEK_clean_linker_0, # of connection points: 2
#     Edge 45, Type (0, 0), BuildingBlock: EZIPEK_clean_linker_0, # of connection points: 2
#     Edge 46, Type (0, 0), BuildingBlock: EZIPEK_clean_linker_0, # of connection points: 2
#     Edge 47, Type (0, 0), BuildingBlock: EZIPEK_clean_linker_0, # of connection points: 2
#     Edge 48, Type (0, 0), BuildingBlock: EZIPEK_clean_linker_0, # of connection points: 2
#     Edge 49, Type (0, 0), BuildingBlock: EZIPEK_clean_linker_0, # of connection points: 2
#     Edge 50, Type (0, 0), BuildingBlock: EZIPEK_clean_linker_0, # of connection points: 2
#     Edge 51, Type (0, 0), BuildingBlock: EZIPEK_clean_linker_0, # of connection points: 2
#     Edge 52, Type (0, 0), BuildingBlock: EZIPEK_clean_linker_0, # of connection points: 2
#     Edge 53, Type (0, 0), BuildingBlock: EZIPEK_clean_linker_0, # of connection points: 2
#     Edge 54, Type (0, 0), BuildingBlock: EZIPEK_clean_linker_0, # of connection points: 2
#     Edge 55, Type (0, 0), BuildingBlock: EZIPEK_clean_linker_0, # of connection points: 2
#     Edge 56, Type (0, 0), BuildingBlock: EZIPEK_clean_linker_0, # of connection points: 2
#     Edge 57, Type (0, 0), BuildingBlock: EZIPEK_clean_linker_0, # of connection points: 2
#     Edge 58, Type (0, 0), BuildingBlock: EZIPEK_clean_linker_0, # of connection points: 2
#     Edge 59, Type (0, 0), BuildingBlock: EZIPEK_clean_linker_0, # of connection points: 2
#     Edge 60, Type (0, 0), BuildingBlock: EZIPEK_clean_linker_0, # of connection points: 2
#     Edge 61, Type (0, 0), BuildingBlock: EZIPEK_clean_linker_0, # of connection points: 2
#     Edge 62, Type (0, 0), BuildingBlock: EZIPEK_clean_linker_0, # of connection points: 2
#     Edge 63, Type (0, 0), BuildingBlock: EZIPEK_clean_linker_0, # of connection points: 2
#     Edge 64, Type (0, 0), BuildingBlock: EZIPEK_clean_linker_0, # of connection points: 2
#     Edge 65, Type (0, 0), BuildingBlock: EZIPEK_clean_linker_0, # of connection points: 2
#     Edge 66, Type (0, 0), BuildingBlock: EZIPEK_clean_linker_0, # of connection points: 2
#     Edge 67, Type (0, 0), BuildingBlock: EZIPEK_clean_linker_0, # of connection points: 2
#     Edge 68, Type (0, 0), BuildingBlock: EZIPEK_clean_linker_0, # of connection points: 2
#     Edge 69, Type (0, 0), BuildingBlock: EZIPEK_clean_linker_0, # of connection points: 2
#     Edge 70, Type (0, 0), BuildingBlock: EZIPEK_clean_linker_0, # of connection points: 2
#     Edge 71, Type (0, 0), BuildingBlock: EZIPEK_clean_linker_0, # of connection points: 2
#     Edge 72, Type (0, 0), BuildingBlock: EZIPEK_clean_linker_0, # of connection points: 2
#     Edge 73, Type (0, 0), BuildingBlock: EZIPEK_clean_linker_0, # of connection points: 2
#     Edge 74, Type (0, 0), BuildingBlock: EZIPEK_clean_linker_0, # of connection points: 2
#     Edge 75, Type (0, 0), BuildingBlock: EZIPEK_clean_linker_0, # of connection points: 2
#     Edge 76, Type (0, 0), BuildingBlock: EZIPEK_clean_linker_0, # of connection points: 2
#     Edge 77, Type (0, 0), BuildingBlock: EZIPEK_clean_linker_0, # of connection points: 2
#     Edge 78, Type (0, 0), BuildingBlock: EZIPEK_clean_linker_0, # of connection points: 2
#     Edge 79, Type (0, 0), BuildingBlock: EZIPEK_clean_linker_0, # of connection points: 2
#     Edge 80, Type (0, 0), BuildingBlock: EZIPEK_clean_linker_0, # of connection points: 2
#     Edge 81, Type (0, 0), BuildingBlock: EZIPEK_clean_linker_0, # of connection points: 2
#     Edge 82, Type (0, 0), BuildingBlock: EZIPEK_clean_linker_0, # of connection points: 2
#     Edge 83, Type (0, 0), BuildingBlock: EZIPEK_clean_linker_0, # of connection points: 2
#     Edge 84, Type (0, 0), BuildingBlock: EZIPEK_clean_linker_0, # of connection points: 2
#     Edge 85, Type (0, 0), BuildingBlock: EZIPEK_clean_linker_0, # of connection points: 2
#     Edge 86, Type (0, 0), BuildingBlock: EZIPEK_clean_linker_0, # of connection points: 2
#     Edge 87, Type (0, 0), BuildingBlock: EZIPEK_clean_linker_0, # of connection points: 2
#     Edge 88, Type (0, 0), BuildingBlock: EZIPEK_clean_linker_0, # of connection points: 2
#     Edge 89, Type (0, 0), BuildingBlock: EZIPEK_clean_linker_0, # of connection points: 2
#     Edge 90, Type (0, 0), BuildingBlock: EZIPEK_clean_linker_0, # of connection points: 2
#     Edge 91, Type (0, 0), BuildingBlock: EZIPEK_clean_linker_0, # of connection points: 2
#     Edge 92, Type (0, 0), BuildingBlock: EZIPEK_clean_linker_0, # of connection points: 2
#     Edge 93, Type (0, 0), BuildingBlock: EZIPEK_clean_linker_0, # of connection points: 2
#     Edge 94, Type (0, 0), BuildingBlock: EZIPEK_clean_linker_0, # of connection points: 2
#     Edge 95, Type (0, 0), BuildingBlock: EZIPEK_clean_linker_0, # of connection points: 2
#     Edge 96, Type (0, 0), BuildingBlock: EZIPEK_clean_linker_0, # of connection points: 2
#     Edge 97, Type (0, 0), BuildingBlock: EZIPEK_clean_linker_0, # of connection points: 2
#     Edge 98, Type (0, 0), BuildingBlock: EZIPEK_clean_linker_0, # of connection points: 2
#     Edge 99, Type (0, 0), BuildingBlock: EZIPEK_clean_linker_0, # of connection points: 2
#     Edge 100, Type (0, 0), BuildingBlock: EZIPEK_clean_linker_0, # of connection points: 2
#     Edge 101, Type (0, 0), BuildingBlock: EZIPEK_clean_linker_0, # of connection points: 2
#     Edge 102, Type (0, 0), BuildingBlock: EZIPEK_clean_linker_0, # of connection points: 2
#     Edge 103, Type (0, 0), BuildingBlock: EZIPEK_clean_linker_0, # of connection points: 2
#     Edge 104, Type (0, 0), BuildingBlock: EZIPEK_clean_linker_0, # of connection points: 2
#     Edge 105, Type (0, 0), BuildingBlock: EZIPEK_clean_linker_0, # of connection points: 2
#     Edge 106, Type (0, 0), BuildingBlock: EZIPEK_clean_linker_0, # of connection points: 2
#     Edge 107, Type (0, 0), BuildingBlock: EZIPEK_clean_linker_0, # of connection points: 2
#     Edge 108, Type (0, 0), BuildingBlock: EZIPEK_clean_linker_0, # of connection points: 2
#     Edge 109, Type (0, 0), BuildingBlock: EZIPEK_clean_linker_0, # of connection points: 2
#     Edge 110, Type (0, 0), BuildingBlock: EZIPEK_clean_linker_0, # of connection points: 2
#     Edge 111, Type (0, 0), BuildingBlock: EZIPEK_clean_linker_0, # of connection points: 2
#     Edge 112, Type (0, 0), BuildingBlock: EZIPEK_clean_linker_0, # of connection points: 2
#     Edge 113, Type (0, 0), BuildingBlock: EZIPEK_clean_linker_0, # of connection points: 2
#     Edge 114, Type (0, 0), BuildingBlock: EZIPEK_clean_linker_0, # of connection points: 2
#     Edge 115, Type (0, 0), BuildingBlock: EZIPEK_clean_linker_0, # of connection points: 2
#     Edge 116, Type (0, 0), BuildingBlock: EZIPEK_clean_linker_0, # of connection points: 2
#     Edge 117, Type (0, 0), BuildingBlock: EZIPEK_clean_linker_0, # of connection points: 2
#     Edge 118, Type (0, 0), BuildingBlock: EZIPEK_clean_linker_0, # of connection points: 2
#     Edge 119, Type (0, 0), BuildingBlock: EZIPEK_clean_linker_0, # of connection points: 2
#     Edge 120, Type (0, 0), BuildingBlock: EZIPEK_clean_linker_0, # of connection points: 2
#     Edge 121, Type (0, 0), BuildingBlock: EZIPEK_clean_linker_0, # of connection points: 2
#     Edge 122, Type (0, 0), BuildingBlock: EZIPEK_clean_linker_0, # of connection points: 2
#     Edge 123, Type (0, 0), BuildingBlock: EZIPEK_clean_linker_0, # of connection points: 2
#     Edge 124, Type (0, 0), BuildingBlock: EZIPEK_clean_linker_0, # of connection points: 2
#     Edge 125, Type (0, 0), BuildingBlock: EZIPEK_clean_linker_0, # of connection points: 2
#     Edge 126, Type (0, 0), BuildingBlock: EZIPEK_clean_linker_0, # of connection points: 2
#     Edge 127, Type (0, 0), BuildingBlock: EZIPEK_clean_linker_0, # of connection points: 2
# Relax obj value: 0.454
# Max RMSD: 0.191
# Mean RMSD: 0.191
data_MOF--net-wir--node1-KUMBOL_clean_sbu_1--edge1-EZIPEK_clean_linker_0
_symmetry_space_group_name_H-M    P1
_symmetry_Int_Tables_number       1
_symmetry_cell_setting            triclinic
loop_
_symmetry_equiv_pos_as_xyz
'x, y, z'
_cell_length_a     32.45171
_cell_length_b     32.62398
_cell_length_c     77.162419
_cell_angle_alpha  90.298271
_cell_angle_beta   90.267818
_cell_angle_gamma 90.267196
loop_
_atom_site_label
_atom_site_type_symbol
_atom_site_fract_x
_atom_site_fract_y
_atom_site_fract_z
_atom_type_partial_charge
C0 C 0.33985 0.3015 0.38401 0.0
C1 C 0.31857 0.36791 0.37314 0.0
C2 C 0.30885 0.32985 0.38064 0.0
C3 C 0.35987 0.37777 0.36967 0.0
C4 C 0.38093 0.3103 0.37955 0.0
C5 C 0.39096 0.349 0.37282 0.0
N6 N 0.32875 0.26387 0.39025 0.0
C7 C 0.35722 0.23329 0.39149 0.0
C8 C 0.41046 0.27954 0.3815 0.0
C9 C 0.3984 0.24071 0.38719 0.0
Gd10 Gd 0.21506 0.17951 0.38489 0.0
Gd11 Gd 0.26102 0.26059 0.40141 0.0
N12 N 0.269 0.31939 0.38419 0.0
C13 C 0.28644 0.3948 0.36926 0.0
C14 C 0.2376 0.34521 0.3801 0.0
C15 C 0.24576 0.3832 0.37252 0.0
H16 H 0.20649 0.33752 0.3833 0.0
H17 H 0.22076 0.4039 0.36956 0.0
H18 H 0.26477 0.08975 0.39416 0.0
H19 H 0.34849 0.20299 0.39559 0.0
H20 H 0.2475 1.01882 0.40113 0.0
H21 H 0.29272 0.4244 0.36364 0.0
H22 H 0.36799 0.40721 0.36418 0.0
H23 H 0.14842 0.20736 0.35451 0.0
H24 H 0.4424 0.28506 0.37818 0.0
H25 H 0.42089 0.21646 0.38829 0.0
H26 H 0.10783 1.00455 0.38217 0.0
H27 H 0.42252 0.35662 0.36959 0.0
H28 H 0.0522 0.11754 0.35048 0.0
H29 H 0.0818 0.18462 0.34211 0.0
N30 N 0.15541 0.15484 0.37046 0.0
C31 C 0.14037 0.11758 0.37466 0.0
C32 C 0.1357 0.17809 0.3583 0.0
C33 C 0.08112 0.12772 0.35615 0.0
C34 C 0.09786 0.16542 0.3513 0.0
C35 C 0.10315 0.10261 0.36749 0.0
H36 H 0.06197 0.05022 0.36574 0.0
N37 N 0.20257 0.10774 0.38893 0.0
C38 C 0.16509 0.09278 0.38436 0.0
C39 C 0.18372 1.02494 0.39398 0.0
C40 C 0.15454 0.05113 0.3867 0.0
C41 C 0.2328 0.08063 0.3936 0.0
C42 C 0.22353 1.03952 0.39691 0.0
O43 O 0.28207 0.2527 0.37243 0.0
O44 O 0.2221 0.23323 0.36261 0.0
O45 O 0.28021 0.17035 0.37904 0.0
O46 O 0.23324 0.17209 0.35848 0.0
O47 O 0.18238 0.27775 0.39766 0.0
O48 O 0.15208 0.21969 0.38782 0.0
O49 O 0.1865 0.19986 0.40973 0.0
O50 O 0.24162 0.22502 0.42368 0.0
O51 O 0.24378 0.31255 0.41699 0.0
O52 O 0.306 0.28892 0.41869 0.0
O53 O 0.25989 0.14954 0.40939 0.0
O54 O 0.29786 0.20386 0.4177 0.0
C55 C 0.25786 0.25276 0.35876 0.0
C56 C 0.14493 0.25883 0.39276 0.0
C57 C 0.28141 0.12067 0.35615 0.0
C58 C 0.32943 0.07345 0.34318 0.0
C59 C 0.25857 0.05238 0.34746 0.0
C60 C 0.2499 0.09113 0.35384 0.0
C61 C 0.29823 0.04347 0.34218 0.0
C62 C 0.32141 0.11187 0.35062 0.0
C63 C 0.27063 0.16134 0.36281 0.0
C64 C 0.11667 1.0363 0.38036 0.0
C65 C 0.09062 0.06226 0.37098 0.0
H66 H 0.17684 0.99281 0.39605 0.0
C67 C 0.20413 0.21307 0.42388 0.0
C68 C 0.29306 0.16203 0.41968 0.0
C69 C 0.29844 0.36076 0.4182 0.0
C70 C 0.27927 0.42856 0.42512 0.0
C71 C 0.35164 0.41145 0.42399 0.0
C72 C 0.34037 0.3706 0.42056 0.0
C73 C 0.32065 0.44013 0.42753 0.0
C74 C 0.27039 0.39247 0.41632 0.0
C75 C 0.28187 0.31961 0.42169 0.0
H76 H 0.2342 1.02982 0.34601 0.0
H77 H 0.21815 0.09807 0.35663 0.0
H78 H 0.30411 1.01381 0.33639 0.0
H79 H 0.34536 0.13511 0.35128 0.0
H80 H 0.38361 0.41928 0.42638 0.0
H81 H 0.36354 0.34685 0.42105 0.0
H82 H 0.32856 0.46833 0.43413 0.0
H83 H 0.23813 0.3852 0.41395 0.0
C84 C 0.05984 0.08461 0.63165 0.0
C85 C 0.98825 0.0734 0.62312 0.0
C86 C 1.02531 0.05901 0.63047 0.0
C87 C 0.98542 0.11442 0.61792 0.0
C88 C 0.05743 0.12529 0.62559 0.0
C89 C 1.01989 0.14027 0.61914 0.0
N90 N 0.09637 0.06879 0.63741 0.0
C91 C 0.13173 0.09141 0.63617 0.0
C92 C 0.0932 0.14935 0.62559 0.0
C93 C 0.1306 0.13211 0.63063 0.0
Gd94 Gd 0.17466 0.97072 0.63022 0.0
Gd95 Gd 0.09013 1.00327 0.65038 0.0
N96 N 1.02926 1.01897 0.63503 0.0
C97 C 0.95562 0.04573 0.6206 0.0
C98 C 0.99878 0.9912 0.63118 0.0
C99 C 0.9613 1.00425 0.6242 0.0
H100 H 1.00342 0.95901 0.63379 0.0
H101 H 0.93681 0.98237 0.62165 0.0
H102 H 0.22681 0.0605 0.62478 0.0
H103 H 0.16115 0.07807 0.63871 0.0
H104 H 0.29687 0.0882 0.63135 0.0
H105 H 0.92645 0.05579 0.61527 0.0
H106 H 0.95708 0.12611 0.61238 0.0
H107 H 0.19085 0.87246 0.62019 0.0
H108 H 0.09262 0.18066 0.62099 0.0
H109 H 0.1588 0.14982 0.62981 0.0
H110 H 0.37402 0.97025 0.64872 0.0
H111 H 1.01753 0.1715 0.61454 0.0
H112 H 0.31008 0.83927 0.63932 0.0
H113 H 0.24328 0.81943 0.62598 0.0
N114 N 0.22562 0.92028 0.63198 0.0
C115 C 0.26357 0.93255 0.63724 0.0
C116 C 0.21898 0.88078 0.62684 0.0
C117 C 0.28675 0.86235 0.63715 0.0
C118 C 0.24907 0.851 0.62966 0.0
C119 C 0.29503 0.90386 0.64036 0.0
H120 H 0.3587 0.89624 0.64826 0.0
N121 N 0.24153 1.00033 0.63286 0.0
C122 C 0.27206 0.97406 0.63746 0.0
C123 C 0.32108 1.02983 0.63887 0.0
C124 C 0.31244 0.98811 0.64087 0.0
C125 C 0.25094 1.04024 0.62907 0.0
C126 C 0.29031 0.05592 0.63279 0.0
O127 O 0.07602 0.99513 0.62024 0.0
O128 O 0.13583 1.02013 0.61311 0.0
O129 O 0.21406 0.96529 0.60761 0.0
O130 O 0.14871 0.95198 0.60537 0.0
O131 O 0.07445 0.92661 0.64749 0.0
O132 O 0.13295 0.90467 0.6346 0.0
O133 O 0.16498 0.92924 0.65239 0.0
O134 O 0.13961 0.98202 0.66729 0.0
O135 O 0.05391 0.98434 0.67195 0.0
O136 O 0.05836 0.0487 0.66608 0.0
O137 O 0.20091 1.02247 0.65335 0.0
O138 O 0.14402 0.04389 0.66687 0.0
C139 C 0.09623 1.01534 0.60806 0.0
C140 C 0.09499 0.89235 0.64115 0.0
C141 C 0.1786 0.99121 0.58305 0.0
C142 C 0.1895 0.06161 0.57225 0.0
C143 C 0.13918 1.01556 0.5586 0.0
C144 C 0.14928 0.98436 0.57003 0.0
C145 C 0.15907 0.05352 0.55953 0.0
C146 C 0.19874 1.02967 0.58404 0.0
C147 C 0.18271 0.9608 0.59714 0.0
C148 C 0.34306 0.95992 0.64563 0.0
C149 C 0.33432 0.91779 0.64541 0.0
H150 H 0.35154 0.04202 0.64163 0.0
C151 C 0.15484 0.94593 0.66698 0.0
C152 C 0.18628 0.04731 0.66664 0.0
C153 C 0.99649 1.02466 0.67677 0.0
C154 C 0.93697 0.98236 0.67797 0.0
C155 C 0.93747 0.04969 0.69206 0.0
C156 C 0.97846 0.05468 0.68719 0.0
C157 C 0.91739 1.0126 0.68834 0.0
C158 C 0.97299 0.99268 0.67018 0.0
C159 C 1.04051 1.02106 0.6753 0.0
H160 H 0.11441 1.01088 0.54941 0.0
H161 H 0.13241 0.95564 0.56934 0.0
H162 H 0.14981 0.07636 0.55027 0.0
H163 H 0.22126 1.03456 0.59418 0.0
H164 H 0.92252 0.07286 0.69984 0.0
H165 H 0.99619 0.08062 0.69197 0.0
H166 H 0.88781 1.00768 0.69418 0.0
H167 H 0.9858 0.97139 0.66126 0.0
C168 C 0.24986 0.79439 0.88349 0.0
C169 C 0.26175 0.72273 0.87613 0.0
C170 C 0.27586 0.76053 0.88287 0.0
C171 C 0.22055 0.7187 0.87078 0.0
C172 C 0.20905 0.7908 0.87723 0.0
C173 C 0.19429 0.75263 0.87132 0.0
N174 N 0.26564 0.83145 0.88868 0.0
C175 C 0.24272 0.86611 0.88665 0.0
C176 C 0.18472 0.82599 0.87643 0.0
C177 C 0.20187 0.86388 0.88088 0.0
Gd178 Gd 0.36323 0.9095 0.87929 0.0
Gd179 Gd 0.33211 0.82751 0.90173 0.0
N180 N 0.31608 0.76575 0.88748 0.0
C181 C 0.28982 0.69045 0.87447 0.0
C182 C 0.34386 0.73473 0.88554 0.0
C183 C 0.33113 0.69664 0.879 0.0
H184 H 0.37556 0.73925 0.88949 0.0
H185 H 0.35306 0.67193 0.87764 0.0
H186 H 0.2738 0.95924 0.87366 0.0
H187 H 0.25597 0.89579 0.88857 0.0
H188 H 0.24689 1.02978 0.87776 0.0
H189 H 0.2801 0.66091 0.86938 0.0
H190 H 0.20901 0.68978 0.86572 0.0
H191 H 0.46561 0.92035 0.87206 0.0
H192 H 0.15332 0.82453 0.87163 0.0
H193 H 0.18402 0.89159 0.87939 0.0
H194 H 0.36804 0.11234 0.88475 0.0
H195 H 0.16293 0.74934 0.86661 0.0
H196 H 0.49828 0.04589 0.87835 0.0
H197 H 0.51813 0.97394 0.87301 0.0
N198 N 0.41603 0.95962 0.87943 0.0
C199 C 0.40426 0.99919 0.8815 0.0
C200 C 0.45624 0.95073 0.8757 0.0
C201 C 0.47498 1.02201 0.87864 0.0
C202 C 0.48633 0.98146 0.87571 0.0
C203 C 0.43341 1.03149 0.88101 0.0
H204 H 0.44204 0.09733 0.88255 0.0
N205 N 0.33528 0.9762 0.88005 0.0
C206 C 0.36254 1.00768 0.88215 0.0
C207 C 0.30675 0.05631 0.88192 0.0
C208 C 0.349 0.04867 0.88296 0.0
C209 C 0.29478 0.98422 0.87653 0.0
C210 C 0.27959 1.02403 0.87845 0.0
O211 O 0.33593 0.81176 0.87139 0.0
O212 O 0.31186 0.87111 0.86321 0.0
O213 O 0.3702 0.94517 0.85579 0.0
O214 O 0.37966 0.87957 0.85495 0.0
O215 O 0.40821 0.81167 0.89877 0.0
O216 O 0.42858 0.86784 0.88392 0.0
O217 O 0.40624 0.9003 0.90089 0.0
O218 O 0.35669 0.87845 0.91858 0.0
O219 O 0.35238 0.78386 0.92083 0.0
O220 O 0.28806 0.80084 0.91944 0.0
O221 O 0.31115 0.93665 0.9024 0.0
O222 O 0.29115 0.88132 0.9175 0.0
C223 C 0.31534 0.8313 0.85897 0.0
C224 C 0.44129 0.83125 0.89116 0.0
C225 C 0.34243 0.90913 0.83165 0.0
C226 C 0.27597 0.92858 0.81848 0.0
C227 C 0.31534 0.8709 0.80715 0.0
C228 C 0.34654 0.87793 0.81929 0.0
C229 C 0.2804 0.8957 0.80674 0.0
C230 C 0.30728 0.93438 0.83112 0.0
C231 C 0.37287 0.91273 0.84597 0.0
C232 C 0.37796 0.08074 0.88386 0.0
C233 C 0.42007 0.07222 0.88255 0.0
H234 H 0.2948 0.08703 0.88329 0.0
C235 C 0.3914 0.89734 0.91631 0.0
C236 C 0.28628 0.92302 0.91608 0.0
C237 C 0.30209 0.73133 0.92351 0.0
C238 C 0.3256 0.66405 0.92983 0.0
C239 C 0.25238 0.67692 0.92859 0.0
C240 C 0.26092 0.71838 0.92537 0.0
C241 C 0.28501 0.65001 0.93187 0.0
C242 C 0.33289 0.70212 0.92261 0.0
C243 C 0.31453 0.7745 0.92502 0.0
H244 H 0.31791 0.84549 0.79818 0.0
H245 H 0.37301 0.85782 0.81951 0.0
H246 H 0.25714 0.88883 0.79713 0.0
H247 H 0.305 0.95916 0.84041 0.0
H248 H 0.2209 0.66686 0.93045 0.0
H249 H 0.23593 0.74026 0.92523 0.0
H250 H 0.27881 0.62029 0.93745 0.0
H251 H 0.36473 0.71176 0.92096 0.0
C252 C 0.56872 0.99727 0.13416 0.0
C253 C 0.62972 1.02767 0.12115 0.0
C254 C 0.59086 1.03184 0.12892 0.0
C255 C 0.64655 0.9884 0.11896 0.0
C256 C 0.58463 0.95781 0.1312 0.0
C257 C 0.62397 0.95358 0.12386 0.0
N258 N 0.53048 1.00251 0.14116 0.0
C259 C 0.50628 0.96948 0.14504 0.0
C260 C 0.56024 0.92383 0.13545 0.0
C261 C 0.52071 0.92971 0.14214 0.0
Gd262 Gd 0.43573 0.10921 0.13297 0.0
Gd263 Gd 0.5188 0.06982 0.15077 0.0
N264 N 0.57377 0.0696 0.13118 0.0
C265 C 0.65026 0.06317 0.11573 0.0
C266 C 0.59107 0.10339 0.12387 0.0
C267 C 0.63004 0.10091 0.11634 0.0
H268 H 0.57508 0.13204 0.1239 0.0
H269 H 0.6446 0.12816 0.11122 0.0
H270 H 0.34433 0.06642 0.14685 0.0
H271 H 0.47601 0.97347 0.15044 0.0
H272 H 0.27863 0.09028 0.15805 0.0
H273 H 0.68093 0.06149 0.1103 0.0
H274 H 0.6766 0.98459 0.11312 0.0
H275 H 0.46276 0.17435 0.10165 0.0
H276 H 0.57134 0.89294 0.13335 0.0
H277 H 0.50154 0.90357 0.14527 0.0
H278 H 0.27259 0.23012 0.14016 0.0
H279 H 0.63696 0.92347 0.1217 0.0
H280 H 0.37991 0.27626 0.10245 0.0
H281 H 0.44189 0.24234 0.09064 0.0
N282 N 0.41387 0.17066 0.11982 0.0
C283 C 0.37888 0.18795 0.12584 0.0
C284 C 0.4355 0.18891 0.10676 0.0
C285 C 0.38911 0.24662 0.10738 0.0
C286 C 0.42394 0.22746 0.1006 0.0
C287 C 0.36539 0.22633 0.11979 0.0
H288 H 0.31688 0.27167 0.12122 0.0
N289 N 0.3665 0.12618 0.14002 0.0
C290 C 0.35437 0.16493 0.13655 0.0
C291 C 0.28872 0.15276 0.15032 0.0
C292 C 0.31515 0.17927 0.14149 0.0
C293 C 0.33851 0.09886 0.14663 0.0
C294 C 0.30003 0.11198 0.15244 0.0
O295 O 0.5042 1.04121 0.12303 0.0
O296 O 0.49125 0.10047 0.11255 0.0
O297 O 0.41928 0.04765 0.12395 0.0
O298 O 0.41251 0.10132 0.10724 0.0
O299 O 0.53326 0.14758 0.1483 0.0
O300 O 0.47518 0.1732 0.13641 0.0
O301 O 0.43214 0.13241 0.15964 0.0
O302 O 0.49118 0.10694 0.1716 0.0
O303 O 0.58112 0.07477 0.15952 0.0
O304 O 0.53981 1.03265 0.17238 0.0
O305 O 0.4099 0.05911 0.15592 0.0
O306 O 0.46625 1.03279 0.16839 0.0
C307 C 0.5058 0.06317 0.10871 0.0
C308 C 0.51309 0.18285 0.14264 0.0
C309 C 0.36159 0.05168 0.10482 0.0
C310 C 0.31328 1.00392 0.09193 0.0
C311 C 0.29068 0.07227 0.0997 0.0
C312 C 0.33042 0.08167 0.10515 0.0
C313 C 0.28209 1.03356 0.09305 0.0
C314 C 0.35284 1.01258 0.09825 0.0
C315 C 0.40392 0.06267 0.10951 0.0
C316 C 0.30241 0.21839 0.13634 0.0
C317 C 0.3276 0.24202 0.12554 0.0
H318 H 0.25845 0.16265 0.15443 0.0
C319 C 0.45789 0.1285 0.17244 0.0
C320 C 0.42425 1.03231 0.16838 0.0
C321 C 0.59344 0.0621 0.18841 0.0
C322 C 0.62836 0.11666 0.20341 0.0
C323 C 0.63806 0.04632 0.21239 0.0
C324 C 0.61086 1.03328 0.19951 0.0
C325 C 0.64774 0.088 0.21412 0.0
C326 C 0.60041 0.10376 0.19102 0.0
C327 C 0.57634 0.04887 0.17207 0.0
H328 H 0.26691 0.09544 0.10005 0.0
H329 H 0.33682 0.11281 0.10913 0.0
H330 H 0.25144 1.02722 0.08812 0.0
H331 H 0.377 0.98986 0.09719 0.0
H332 H 0.65378 1.02356 0.21995 0.0
H333 H 0.60599 1.00076 0.19735 0.0
H334 H 0.67181 0.09774 0.2229 0.0
H335 H 0.58882 0.12597 0.18188 0.0
C336 C 0.34752 0.76888 0.25913 0.0
C337 C 0.32429 0.70041 0.26675 0.0
C338 C 0.3161 0.73952 0.25992 0.0
C339 C 0.3645 0.69068 0.27212 0.0
C340 C 0.38768 0.75939 0.26474 0.0
C341 C 0.39612 0.71997 0.27101 0.0
N342 N 0.33758 0.80788 0.25423 0.0
C343 C 0.36718 0.83774 0.25346 0.0
C344 C 0.41799 0.79007 0.26418 0.0
C345 C 0.40768 0.82934 0.25852 0.0
Gd346 Gd 0.22924 0.9 0.25878 0.0
Gd347 Gd 0.27197 0.81485 0.24159 0.0
N348 N 0.27742 0.74967 0.25435 0.0
C349 C 0.29174 0.67232 0.26811 0.0
C350 C 0.24563 0.72229 0.25561 0.0
C351 C 0.25227 0.68341 0.26263 0.0
H352 H 0.21535 0.72967 0.25084 0.0
H353 H 0.22702 0.66175 0.26358 0.0
H354 H 0.25124 0.99377 0.24207 0.0
H355 H 0.3596 0.86819 0.24917 0.0
H356 H 0.21511 0.05669 0.23433 0.0
H357 H 0.29674 0.64203 0.27338 0.0
H358 H 0.37141 0.66063 0.27727 0.0
H359 H 0.18314 0.87461 0.29712 0.0
H360 H 0.4493 0.7839 0.2683 0.0
H361 H 0.43091 0.85323 0.25811 0.0
H362 H 0.07794 1.03617 0.25556 0.0
H363 H 0.42686 0.71205 0.27534 0.0
H364 H 0.06618 0.93334 0.29911 0.0
H365 H 0.11741 0.88597 0.31167 0.0
N366 N 0.17022 0.91454 0.27597 0.0
C367 C 0.14411 0.94345 0.26996 0.0
C368 C 0.1618 0.89556 0.29134 0.0
C369 C 0.09527 0.9285 0.29259 0.0
C370 C 0.12424 0.90202 0.29978 0.0
C371 C 0.10566 0.95083 0.27784 0.0
H372 H 0.05046 0.98805 0.27716 0.0
N373 N 0.19829 0.9641 0.25251 0.0
C374 C 0.15901 0.96973 0.25775 0.0
C375 C 0.15656 1.03581 0.2439 0.0
C376 C 0.1366 1.0051 0.25325 0.0
C377 C 0.21879 0.9955 0.24459 0.0
C378 C 0.19843 1.03179 0.24035 0.0
O379 O 0.29318 0.81882 0.27074 0.0
O380 O 0.23935 0.85062 0.2818 0.0
O381 O 0.29306 0.89765 0.26694 0.0
O382 O 0.25271 0.94769 0.27555 0.0
O383 O 0.19395 0.79793 0.24534 0.0
O384 O 0.16673 0.85506 0.25785 0.0
O385 O 0.22471 0.89598 0.23013 0.0
O386 O 0.21419 0.82828 0.22777 0.0
O387 O 0.28765 0.76102 0.22663 0.0
O388 O 0.30633 0.82126 0.21789 0.0
O389 O 0.27318 0.92884 0.23441 0.0
O390 O 0.30837 0.87289 0.2262 0.0
C391 C 0.27224 0.82677 0.28485 0.0
C392 C 0.15808 0.81619 0.25199 0.0
C393 C 0.30925 0.93148 0.29341 0.0
C394 C 0.36219 0.96288 0.31183 0.0
C395 C 0.30971 0.91727 0.32408 0.0
C396 C 0.29112 0.91322 0.30788 0.0
C397 C 0.34469 0.94194 0.32614 0.0
C398 C 0.34503 0.95513 0.29535 0.0
C399 C 0.28928 0.9309 0.27642 0.0
C400 C 0.09621 1.00996 0.25935 0.0
C401 C 0.08059 0.98258 0.27164 0.0
H402 H 0.14074 0.06376 0.24039 0.0
C403 C 0.2117 0.86448 0.22128 0.0
C404 C 0.30477 0.91457 0.22406 0.0
C405 C 0.28547 0.77464 0.19733 0.0
C406 C 0.22585 0.75031 0.18234 0.0
C407 C 0.28848 0.76339 0.1664 0.0
C408 C 0.30824 0.77434 0.18195 0.0
C409 C 0.24731 0.75009 0.16667 0.0
C410 C 0.24365 0.76637 0.19704 0.0
C411 C 0.30355 0.78253 0.21408 0.0
H412 H 0.2958 0.90293 0.33526 0.0
H413 H 0.26226 0.89673 0.30679 0.0
H414 H 0.35586 0.94659 0.33923 0.0
H415 H 0.35751 0.96936 0.28394 0.0
H416 H 0.3056 0.76326 0.15442 0.0
H417 H 0.34072 0.7821 0.18201 0.0
H418 H 0.23272 0.73823 0.15509 0.0
H419 H 0.22597 0.76637 0.20895 0.0
C420 C 0.55661 0.07411 0.51843 0.0
C421 C 0.61635 0.04305 0.53186 0.0
C422 C 0.58039 1.03956 0.52161 0.0
C423 C 0.62936 0.08175 0.53786 0.0
C424 C 0.56919 0.11292 0.52465 0.0
C425 C 0.60606 0.11664 0.53412 0.0
N426 N 0.5199 0.06915 0.51 0.0
C427 C 0.49539 0.10221 0.50667 0.0
C428 C 0.54413 0.14679 0.5213 0.0
C429 C 0.50701 0.14137 0.51234 0.0
Gd430 Gd 0.42803 0.95793 0.50827 0.0
Gd431 Gd 0.51001 1.0057 0.49586 0.0
N432 N 0.56757 1.00249 0.51513 0.0
C433 C 0.63789 1.0075 0.53603 0.0
C434 C 0.58812 0.96765 0.51973 0.0
C435 C 0.62336 0.96964 0.53019 0.0
H436 H 0.57795 0.93791 0.51575 0.0
H437 H 0.63938 0.94185 0.5337 0.0
H438 H 0.3328 0.99097 0.49567 0.0
H439 H 0.46688 0.0984 0.49962 0.0
H440 H 0.26953 0.96135 0.48327 0.0
H441 H 0.66528 1.0089 0.54404 0.0
H442 H 0.65723 0.08496 0.54555 0.0
H443 H 0.45602 0.89434 0.54025 0.0
H444 H 0.55295 0.17718 0.52573 0.0
H445 H 0.48744 0.16739 0.50969 0.0
H446 H 0.28344 0.81714 0.49345 0.0
H447 H 0.61638 0.14624 0.53891 0.0
H448 H 0.38851 0.78179 0.53459 0.0
H449 H 0.44214 0.82321 0.54959 0.0
N450 N 0.41133 0.89283 0.51997 0.0
C451 C 0.38008 0.87156 0.51253 0.0
C452 C 0.43208 0.87672 0.53385 0.0
C453 C 0.39446 0.81297 0.53049 0.0
C454 C 0.42457 0.83633 0.53906 0.0
C455 C 0.37097 0.83093 0.51733 0.0
H456 H 0.33043 0.77897 0.51264 0.0
N457 N 0.36147 0.93328 0.50016 0.0
C458 C 0.35423 0.89268 0.50187 0.0
C459 C 0.28796 0.89901 0.48787 0.0
C460 C 0.31776 0.87415 0.49556 0.0
C461 C 0.33038 0.9581 0.49452 0.0
C462 C 0.29363 0.94142 0.488 0.0
O463 O 0.49025 1.0281 0.52339 0.0
O464 O 0.48083 0.96608 0.53101 0.0
O465 O 0.41028 1.01928 0.51698 0.0
O466 O 0.4046 0.96653 0.53389 0.0
O467 O 0.52648 0.92594 0.49667 0.0
O468 O 0.46696 0.8954 0.50406 0.0
O469 O 0.4374 0.95895 0.47946 0.0
O470 O 0.50635 0.95416 0.47775 0.0
O471 O 0.56859 1.02536 0.48609 0.0
O472 O 0.5122 0.04691 0.47399 0.0
O473 O 0.39789 1.00543 0.48519 0.0
O474 O 0.4536 0.04251 0.47893 0.0
C475 C 0.49322 1.00338 0.5366 0.0
C476 C 0.50649 0.88801 0.50007 0.0
C477 C 0.35161 1.01325 0.53494 0.0
C478 C 0.29902 0.05914 0.54519 0.0
C479 C 0.28098 0.98915 0.53734 0.0
C480 C 0.32204 0.9815 0.53385 0.0
C481 C 0.26946 1.02778 0.54297 0.0
C482 C 0.34004 0.05219 0.54068 0.0
C483 C 0.3947 1.0045 0.53127 0.0
C484 C 0.31074 0.83226 0.49855 0.0
C485 C 0.33739 0.81058 0.50952 0.0
H486 H 0.2593 0.88614 0.48301 0.0
C487 C 0.4706 0.9502 0.47069 0.0
C488 C 0.41189 1.03863 0.47571 0.0
C489 C 0.5725 0.04913 0.45802 0.0
C490 C 0.61623 1.01074 0.43943 0.0
C491 C 0.61354 0.08446 0.43668 0.0
C492 C 0.58465 0.08575 0.45006 0.0
C493 C 0.63066 0.0469 0.43189 0.0
C494 C 0.58626 1.01187 0.45199 0.0
C495 C 0.55221 0.04933 0.47446 0.0
H496 H 0.25831 0.96481 0.53621 0.0
H497 H 0.33057 0.95049 0.53048 0.0
H498 H 0.23762 1.03262 0.54629 0.0
H499 H 0.36294 0.07623 0.54235 0.0
H500 H 0.62457 0.11256 0.43089 0.0
H501 H 0.57379 0.11504 0.45482 0.0
H502 H 0.65666 0.04589 0.42333 0.0
H503 H 0.57674 0.9837 0.45833 0.0
C504 C 0.25685 0.29271 0.76126 0.0
C505 C 0.26317 0.36657 0.76563 0.0
C506 C 0.28 0.32882 0.76043 0.0
C507 C 0.22167 0.36823 0.7706 0.0
C508 C 0.21585 0.2941 0.7671 0.0
C509 C 0.19807 0.33212 0.77132 0.0
N510 N 0.27519 0.25625 0.75714 0.0
C511 C 0.25451 0.22016 0.75923 0.0
C512 C 0.19415 0.25719 0.76878 0.0
C513 C 0.21373 0.2201 0.76507 0.0
Gd514 Gd 0.37899 0.17654 0.75999 0.0
Gd515 Gd 0.33896 0.26411 0.74309 0.0
N516 N 0.3202 0.3262 0.75573 0.0
C517 C 0.2889 0.40125 0.76608 0.0
C518 C 0.34598 0.35923 0.75684 0.0
C519 C 0.33066 0.39739 0.76197 0.0
H520 H 0.37797 0.35622 0.75319 0.0
H521 H 0.35087 0.42385 0.76251 0.0
H522 H 0.30635 0.10172 0.75522 0.0
H523 H 0.26892 0.19141 0.75611 0.0
H524 H 0.30255 1.02894 0.74684 0.0
H525 H 0.27707 0.43089 0.76996 0.0
H526 H 0.20783 0.3971 0.77434 0.0
H527 H 0.46661 0.18593 0.78352 0.0
H528 H 0.16251 0.25693 0.7732 0.0
H529 H 0.19724 0.19143 0.76651 0.0
H530 H 0.44151 0.98301 0.75159 0.0
H531 H 0.16634 0.33382 0.77556 0.0
H532 H 0.53591 0.07563 0.77926 0.0
H533 H 0.52937 0.14706 0.78966 0.0
N534 N 0.439 0.13914 0.76776 0.0
C535 C 0.4412 0.09931 0.76282 0.0
C536 C 0.46954 0.15557 0.77802 0.0
C537 C 0.50859 0.09304 0.77606 0.0
C538 C 0.50504 0.1333 0.78191 0.0
C539 C 0.47584 0.07504 0.76697 0.0
H540 H 0.50305 1.01463 0.76484 0.0
N541 N 0.37218 0.10459 0.75453 0.0
C542 C 0.40671 0.08156 0.75557 0.0
C543 C 0.36816 1.02051 0.74774 0.0
C544 C 0.40578 1.03897 0.75206 0.0
C545 C 0.33471 0.08496 0.75338 0.0
C546 C 0.33221 0.04342 0.74897 0.0
O547 O 0.33948 0.28062 0.77289 0.0
O548 O 0.34581 0.2173 0.78291 0.0
O549 O 0.32516 0.16533 0.77573 0.0
O550 O 0.3872 0.1714 0.78749 0.0
O551 O 0.4166 0.28 0.74775 0.0
O552 O 0.44167 0.22111 0.75902 0.0
O553 O 0.41567 0.20021 0.73722 0.0
O554 O 0.36002 0.22154 0.72369 0.0
O555 O 0.35587 0.30912 0.72405 0.0
O556 O 0.29261 0.28762 0.72559 0.0
O557 O 0.33301 0.15097 0.7354 0.0
O558 O 0.29873 0.20766 0.72738 0.0
C559 C 0.33505 0.25645 0.78642 0.0
C560 C 0.45199 0.25985 0.75372 0.0
C561 C 0.34497 0.11769 0.79744 0.0
C562 C 0.30274 0.05942 0.8055 0.0
C563 C 0.37719 0.05488 0.80744 0.0
C564 C 0.38051 0.09502 0.80168 0.0
C565 C 0.33854 1.03704 0.80925 0.0
C566 C 0.30587 0.09983 0.79962 0.0
C567 C 0.34914 0.15815 0.7893 0.0
C568 C 0.44145 1.01553 0.75453 0.0
C569 C 0.47633 1.03344 0.7622 0.0
H570 H 0.36614 0.98802 0.74483 0.0
C571 C 0.39837 0.21469 0.72331 0.0
C572 C 0.30183 0.16567 0.72497 0.0
C573 C 0.30208 0.35595 0.71755 0.0
C574 C 0.3271 0.41891 0.70652 0.0
C575 C 0.25562 0.40058 0.70192 0.0
C576 C 0.2629 0.36346 0.71042 0.0
C577 C 0.28871 0.42728 0.69894 0.0
C578 C 0.33061 0.38758 0.71838 0.0
C579 C 0.31767 0.31414 0.71902 0.0
H580 H 0.40464 1.03746 0.81035 0.0
H581 H 0.41112 0.10778 0.80024 0.0
H582 H 0.33651 1.00561 0.8136 0.0
H583 H 0.27823 0.11678 0.79641 0.0
H584 H 0.22612 0.40603 0.69578 0.0
H585 H 0.23951 0.33968 0.7101 0.0
H586 H 0.28536 0.45127 0.68954 0.0
H587 H 0.3609 0.38201 0.7239 0.0
C588 C 1.03022 1.00736 1.0048 0.0
C589 C 0.95941 1.02615 1.01139 0.0
C590 C 0.99945 1.03707 1.00613 0.0
C591 C 0.94974 0.98472 1.01415 0.0
C592 C 1.02095 0.96607 1.0085 0.0
C593 C 0.98039 0.95479 1.0127 0.0
N594 N 0.06977 1.01968 1.00138 0.0
C595 C 0.10105 0.99181 1.00162 0.0
C596 C 0.05296 0.93751 1.00843 0.0
C597 C 0.09317 0.95055 1.0052 0.0
Gd598 Gd 0.15904 0.11728 1.01126 0.0
Gd599 Gd 0.07439 0.08734 0.99056 0.0
N600 N 1.01009 0.07723 1.00376 0.0
C601 C 0.93066 0.05735 1.0142 0.0
C602 C 0.98263 0.10783 1.00699 0.0
C603 C 0.9425 0.09833 1.01225 0.0
H604 H 0.99095 0.1394 1.00479 0.0
H605 H 0.92048 0.12258 1.01448 0.0
H606 H 0.25212 0.08951 0.996 0.0
H607 H 0.13227 1.00074 0.999 0.0
H608 H 0.31975 0.12069 0.99088 0.0
H609 H 0.89949 0.05019 1.01819 0.0
H610 H 0.91892 0.97563 1.01793 0.0
H611 H 0.11401 0.17648 1.04226 0.0
H612 H 0.0471 0.90552 1.01125 0.0
H613 H 0.1182 0.92873 1.00533 0.0
H614 H 0.31146 0.25249 1.01854 0.0
H615 H 0.97267 0.92311 1.01538 0.0
H616 H 0.19073 0.28042 1.05203 0.0
H617 H 0.12686 0.2411 1.05757 0.0
N618 N 0.17099 0.17669 1.02865 0.0
C619 C 0.20677 0.19725 1.02601 0.0
C620 C 0.14301 0.19164 1.04031 0.0
C621 C 0.18567 0.25129 1.04553 0.0
C622 C 0.14976 0.22908 1.04878 0.0
C623 C 0.21497 0.23525 1.03418 0.0
H624 H 0.25901 0.28508 1.03693 0.0
N625 N 0.22746 0.14176 1.00897 0.0
C626 C 0.23602 0.17916 1.01574 0.0
C627 C 0.30478 0.17717 1.00391 0.0
C628 C 0.27465 0.1982 1.01325 0.0
C629 C 0.25749 0.12033 1.00051 0.0
C630 C 0.29638 0.13769 0.99779 0.0
O631 O 0.06188 0.07331 1.02084 0.0
O632 O 0.11196 0.10641 1.03509 0.0
O633 O 0.14675 0.05558 1.01911 0.0
O634 O 0.20293 0.08776 1.02817 0.0
O635 O 0.0596 0.16295 0.99551 0.0
O636 O 0.12029 0.1841 1.00704 0.0
O637 O 0.16899 0.12005 0.98382 0.0
O638 O 0.10543 0.13865 0.97602 0.0
O639 O 1.0268 0.10405 0.97263 0.0
O640 O 0.05652 0.04539 0.96965 0.0
O641 O 0.18642 0.07089 0.98647 0.0
O642 O 0.12828 0.04608 0.97432 0.0
C643 C 0.07759 0.0835 1.03625 0.0
C644 C 0.08192 0.19652 1.00141 0.0
C645 C 0.18008 1.03033 1.04418 0.0
C646 C 0.20512 0.97089 1.06016 0.0
C647 C 0.16034 1.0216 0.07395 0.0
C648 C 0.1609 0.04522 1.05907 0.0
C649 C 0.18201 0.98473 0.07458 0.0
C650 C 0.20123 0.99308 1.04463 0.0
C651 C 0.18111 0.05369 1.02815 0.0
C652 C 0.28225 0.23704 1.02054 0.0
C653 C 0.25242 0.25556 1.03101 0.0
H654 H 0.33484 0.1907 1.0017 0.0
C655 C 0.14479 0.13857 0.97333 0.0
C656 C 0.17065 0.04349 0.97411 0.0
C657 C 0.98387 0.0474 0.96654 0.0
C658 C 0.91551 0.06594 0.95915 0.0
C659 C 0.93741 0.99573 0.9549 0.0
C660 C 0.97705 1.0071 0.96063 0.0
C661 C 0.90719 1.02613 0.95297 0.0
C662 C 0.94999 0.07247 0.96937 0.0
C663 C 1.02458 0.06741 0.96597 0.0
H664 H 0.14438 1.03299 0.08521 0.0
H665 H 0.14673 0.07504 1.05941 0.0
H666 H 0.18276 0.96891 0.08682 0.0
H667 H 0.21663 0.98312 1.03299 0.0
H668 H 0.932 0.96525 0.94976 0.0
H669 H 1.0024 0.98591 0.95918 0.0
H670 H 0.88035 1.0198 0.94508 0.0
H671 H 0.95465 0.10334 0.9743 0.0
C672 C 0.91429 0.98733 0.74667 0.0
C673 C 0.86509 0.04203 0.74281 0.0
C674 C 0.87419 1.00121 0.74734 0.0
C675 C 0.89603 0.06701 0.73577 0.0
C676 C 0.94625 1.01367 0.74118 0.0
C677 C 0.93663 0.05282 0.73497 0.0
N678 N 0.9227 0.95062 0.754 0.0
C679 C 0.96244 0.94133 0.75847 0.0
C680 C 0.98709 1.00131 0.7435 0.0
C681 C 0.99521 0.96559 0.75272 0.0
Gd682 Gd 0.82646 0.82333 0.74133 0.0
Gd683 Gd 0.86527 0.90798 0.75989 0.0
N684 N 0.84548 0.97677 0.75487 0.0
C685 C 0.82621 0.05757 0.74687 0.0
C686 C 0.80954 0.99339 0.76069 0.0
C687 C 0.79884 1.03354 0.75636 0.0
H688 H 0.78807 0.97394 0.7673 0.0
H689 H 0.76936 0.0458 0.76011 0.0
H690 H 0.86387 0.73131 0.75045 0.0
H691 H 0.96942 0.91549 0.7666 0.0
H692 H 0.83773 0.66454 0.76111 0.0
H693 H 0.81797 0.08877 0.74364 0.0
H694 H 0.88941 0.09818 0.7319 0.0
H695 H 0.75858 0.89636 0.75674 0.0
H696 H 1.01249 1.02059 0.73941 0.0
H697 H 1.02665 0.95719 0.75575 0.0
H698 H 0.6983 0.69302 0.77778 0.0
H699 H 0.96071 0.07327 0.73051 0.0
H700 H 0.65413 0.8327 0.77643 0.0
H701 H 0.68884 0.89754 0.76861 0.0
N702 N 0.7624 0.83142 0.75558 0.0
C703 C 0.74468 0.79546 0.76077 0.0
C704 C 0.74322 0.86777 0.75887 0.0
C705 C 0.68442 0.83189 0.77059 0.0
C706 C 0.70383 0.86855 0.76612 0.0
C707 C 0.70517 0.7948 0.76832 0.0
H708 H 0.65777 0.75639 0.7796 0.0
N709 N 0.80683 0.76157 0.75397 0.0
C710 C 0.76758 0.75948 0.75992 0.0
C711 C 0.77692 0.68768 0.76642 0.0
C712 C 0.75156 0.72236 0.76635 0.0
C713 C 0.83233 0.72854 0.7547 0.0
C714 C 0.81765 0.69093 0.76077 0.0
O715 O 0.90382 0.89089 0.73717 0.0
O716 O 0.84508 0.87422 0.72495 0.0
O717 O 0.84903 0.7907 0.71925 0.0
O718 O 0.78369 0.78923 0.72498 0.0
O719 O 0.80658 0.9334 0.7393 0.0
O720 O 0.78422 0.87677 0.72539 0.0
O721 O 0.83295 0.8085 0.77137 0.0
O722 O 0.81849 0.87165 0.77954 0.0
O723 O 0.87699 0.95252 0.78039 0.0
O724 O 0.8825 0.88749 0.78558 0.0
O725 O 0.90232 0.804 0.74538 0.0
O726 O 0.92794 0.86289 0.7566 0.0
C727 C 0.883 0.88368 0.72321 0.0
C728 C 0.78023 0.91888 0.72621 0.0
C729 C 0.81252 0.73022 0.71322 0.0
C730 C 0.85436 0.67232 0.70671 0.0
C731 C 0.781 0.66955 0.70081 0.0
C732 C 0.77758 0.71004 0.70657 0.0
C733 C 0.81982 0.65118 0.70031 0.0
C734 C 0.8493 0.70918 0.71514 0.0
C735 C 0.81318 0.77425 0.71571 0.0
C736 C 0.71136 0.72134 0.77295 0.0
C737 C 0.68827 0.75746 0.77396 0.0
H738 H 0.76569 0.65857 0.77123 0.0
C739 C 0.81841 0.83158 0.7842 0.0
C740 C 0.93772 0.82377 0.75132 0.0
C741 C 0.8517 0.92775 0.80718 0.0
C742 C 0.78682 0.95205 0.82019 0.0
C743 C 0.83015 0.90153 0.83481 0.0
C744 C 0.85818 0.9021 0.82132 0.0
C745 C 0.79553 0.92672 0.83452 0.0
C746 C 0.81642 0.95286 0.80674 0.0
C747 C 0.87951 0.92424 0.7922 0.0
H748 H 0.7544 0.65368 0.69551 0.0
H749 H 0.74848 0.72588 0.70528 0.0
H750 H 0.82316 0.62192 0.6942 0.0
H751 H 0.87651 0.7243 0.7204 0.0
H752 H 0.83494 0.88067 0.84538 0.0
H753 H 0.88449 0.88177 0.82175 0.0
H754 H 0.77624 0.9255 0.84567 0.0
H755 H 0.81249 0.97331 0.79595 0.0
C756 C 0.89105 0.19705 0.51855 0.0
C757 C 0.8317 0.20391 0.49992 0.0
C758 C 0.86612 0.18158 0.50578 0.0
C759 C 0.82609 0.24437 0.50572 0.0
C760 C 0.88275 0.23568 0.526 0.0
C761 C 0.85169 0.26031 0.51882 0.0
N762 N 0.91954 0.17148 0.52534 0.0
C763 C 0.93747 0.18098 0.54095 0.0
C764 C 0.90368 0.24692 0.54117 0.0
C765 C 0.92997 0.21877 0.54902 0.0
Gd766 Gd 1.02079 0.06861 0.49248 0.0
Gd767 Gd 0.93649 0.11259 0.50844 0.0
N768 N 0.87183 0.14198 0.50128 0.0
C769 C 0.80237 0.18378 0.4896 0.0
C770 C 0.84092 0.1211 0.49292 0.0
C771 C 0.80618 0.14172 0.48672 0.0
H772 H 0.84197 0.08831 0.49141 0.0
H773 H 0.78207 0.125 0.47996 0.0
H774 H 0.10845 0.12148 0.50142 0.0
H775 H 0.9584 0.16042 0.54726 0.0
H776 H 0.17897 0.10564 0.51129 0.0
H777 H 0.77534 0.19966 0.48487 0.0
H778 H 0.80048 0.26248 0.50104 0.0
H779 H 0.96213 0.98525 0.50262 0.0
H780 H 0.89809 0.27619 0.5474 0.0
H781 H 0.94512 0.22642 0.56114 0.0
H782 H 0.17477 0.96188 0.52437 0.0
H783 H 0.84549 0.29052 0.52406 0.0
H784 H 1.04348 0.89386 0.52229 0.0
H785 H 0.9736 0.91562 0.5135 0.0
N786 N 1.02447 1.00436 0.50629 0.0
C787 C 0.0637 0.99241 0.51054 0.0
C788 C 0.99261 0.97688 0.50684 0.0
C789 C 1.03868 0.92481 0.5177 0.0
C790 C 0.9991 0.93705 0.51284 0.0
C791 C 0.07162 0.95251 0.51652 0.0
H792 H 0.11872 0.91094 0.52571 0.0
N793 N 0.08658 0.06052 0.5048 0.0
C794 C 0.09543 1.02159 0.51014 0.0
C795 C 0.16604 0.04165 0.51548 0.0
C796 C 0.13565 1.01101 0.51525 0.0
C797 C 0.11563 0.09084 0.50563 0.0
C798 C 0.15577 0.0818 0.51099 0.0
O799 O 0.94128 0.11581 0.47982 0.0
O800 O 1.00961 0.12469 0.47728 0.0
O801 O 0.07516 0.05025 0.47865 0.0
O802 O 1.01515 1.03455 0.46834 0.0
O803 O 0.90779 0.0701 0.48322 0.0
O804 O 0.96207 1.03041 0.47746 0.0
O805 O 1.0228 0.05384 0.52239 0.0
O806 O 0.98603 0.10587 0.53246 0.0
O807 O 0.94259 0.05021 0.51688 0.0
O808 O 0.88853 0.08661 0.52424 0.0
O809 O 1.03793 0.14663 0.49577 0.0
O810 O 0.98013 0.17479 0.50737 0.0
C811 C 0.97292 0.12755 0.47086 0.0
C812 C 0.92082 1.03621 0.4739 0.0
C813 C 0.06587 0.05491 0.44927 0.0
C814 C 0.09556 0.11318 0.43544 0.0
C815 C 0.06949 0.05681 0.41807 0.0
C816 C 0.0596 1.03564 0.43322 0.0
C817 C 0.08894 0.09525 0.41914 0.0
C818 C 0.08078 0.09478 0.45008 0.0
C819 C 0.05457 1.03618 0.46544 0.0
C820 C 0.14397 0.97062 0.52041 0.0
C821 C 0.11199 0.94161 0.52122 0.0
H822 H 0.19732 1.03478 0.51936 0.0
C823 C 1.01301 0.07559 0.53613 0.0
C824 C 1.01912 0.18286 0.50179 0.0
C825 C 0.90703 1.03196 0.54237 0.0
C826 C 0.8797 0.97659 0.56013 0.0
C827 C 0.9214 1.03169 0.57304 0.0
C828 C 0.9236 0.05114 0.55708 0.0
C829 C 0.89991 0.99472 0.57463 0.0
C830 C 0.88614 0.99459 0.54384 0.0
C831 C 0.90781 0.0515 0.52545 0.0
H832 H 0.06274 0.0429 0.40568 0.0
H833 H 0.04602 1.0053 0.43243 0.0
H834 H 0.09943 0.11044 0.40755 0.0
H835 H 0.08485 0.11054 0.46242 0.0
H836 H 0.93508 0.04614 0.58432 0.0
H837 H 0.93815 0.08093 0.55629 0.0
H838 H 0.89674 0.98244 0.58755 0.0
H839 H 0.87302 0.9812 0.53225 0.0
C840 C 0.63527 0.12557 0.26727 0.0
C841 C 0.6498 0.05798 0.25639 0.0
C842 C 0.66088 0.09956 0.25862 0.0
C843 C 0.60975 0.04504 0.26058 0.0
C844 C 0.59676 0.11174 0.27338 0.0
C845 C 0.58298 0.07215 0.26897 0.0
N846 N 0.65108 0.1622 0.27215 0.0
C847 C 0.63216 0.18439 0.28495 0.0
C848 C 0.57508 0.13663 0.28495 0.0
C849 C 0.59348 0.17261 0.29116 0.0
Gd850 Gd 0.76313 0.2644 0.24779 0.0
Gd851 Gd 0.71437 0.18407 0.2599 0.0
N852 N 0.69938 0.11326 0.25519 0.0
C853 C 0.6801 1.03021 0.25126 0.0
C854 C 0.72945 0.08563 0.2509 0.0
C855 C 0.72018 0.04411 0.24856 0.0
H856 H 0.76141 0.09471 0.25021 0.0
H857 H 0.74423 1.0227 0.24514 0.0
H858 H 0.71005 0.34894 0.25852 0.0
H859 H 0.64609 0.2124 0.28975 0.0
H860 H 0.72198 0.41327 0.27434 0.0
H861 H 0.67312 0.99786 0.24978 0.0
H862 H 0.60014 1.01359 0.25837 0.0
H863 H 0.84782 0.20603 0.25501 0.0
H864 H 0.54541 0.12718 0.28996 0.0
H865 H 0.57794 0.19126 0.30073 0.0
H866 H 0.86116 0.4023 0.29536 0.0
H867 H 0.55307 0.06124 0.27314 0.0
H868 H 0.93573 0.27975 0.28262 0.0
H869 H 0.91734 0.2152 0.26745 0.0
N870 N 0.82694 0.265 0.2628 0.0
C871 C 0.83709 0.30149 0.2706 0.0
C872 C 0.8556 0.23455 0.26132 0.0
C873 C 0.90527 0.27614 0.27699 0.0
C874 C 0.89496 0.23958 0.26848 0.0
C875 C 0.8761 0.30747 0.27827 0.0
H876 H 0.91443 0.34961 0.29305 0.0
N877 N 0.76919 0.32481 0.26428 0.0
C878 C 0.80668 0.33142 0.27203 0.0
C879 C 0.78404 0.39766 0.28195 0.0
C880 C 0.815 0.36808 0.28103 0.0
C881 C 0.73889 0.3535 0.26521 0.0
C882 C 0.74585 0.39029 0.27404 0.0
O883 O 0.71215 0.19791 0.23114 0.0
O884 O 0.70701 0.26606 0.23244 0.0
O885 O 0.78876 0.32048 0.23818 0.0
O886 O 0.79507 0.26511 0.22302 0.0
O887 O 0.75644 0.15503 0.23486 0.0
O888 O 0.79897 0.20795 0.23085 0.0
O889 O 0.78164 0.24785 0.27609 0.0
O890 O 0.71857 0.2388 0.2825 0.0
O891 O 0.77786 0.16816 0.26705 0.0
O892 O 0.73008 0.1725 0.28644 0.0
O893 O 0.68297 0.28199 0.25154 0.0
O894 O 0.65124 0.22142 0.25572 0.0
C895 C 0.70192 0.23264 0.22387 0.0
C896 C 0.79155 0.16773 0.22629 0.0
C897 C 0.79214 0.3283 0.20908 0.0
C898 C 0.73989 0.37031 0.1965 0.0
C899 C 0.81123 0.3803 0.18845 0.0
C900 C 0.82255 0.34863 0.19958 0.0
C901 C 0.76978 0.39156 0.187 0.0
C902 C 0.75105 0.33856 0.20716 0.0
C903 C 0.80261 0.30434 0.224 0.0
C904 C 0.85407 0.37431 0.28852 0.0
C905 C 0.88455 0.34424 0.28712 0.0
H906 H 0.78961 0.42652 0.28845 0.0
C907 C 0.7552 0.25317 0.28848 0.0
C908 C 0.64429 0.26165 0.25382 0.0
C909 C 0.77435 0.11794 0.28936 0.0
C910 C 0.81814 0.06722 0.30262 0.0
C911 C 0.74706 0.05026 0.29593 0.0
C912 C 0.74106 0.09014 0.29048 0.0
C913 C 0.78557 1.03864 0.3018 0.0
C914 C 0.81303 0.10669 0.29587 0.0
C915 C 0.76675 0.15937 0.28289 0.0
H916 H 0.83482 0.39727 0.18172 0.0
H917 H 0.85485 0.34169 0.20152 0.0
H918 H 0.76109 0.41722 0.17899 0.0
H919 H 0.7278 0.32441 0.21518 0.0
H920 H 0.7215 1.02883 0.29619 0.0
H921 H 0.71004 0.09919 0.2873 0.0
H922 H 0.78926 1.00791 0.30672 0.0
H923 H 0.83811 0.12874 0.29639 0.0
C924 C 0.71309 0.87732 1.02019 0.0
C925 C 0.77165 0.8714 1.00126 0.0
C926 C 0.73753 0.89335 1.00756 0.0
C927 C 0.77742 0.83064 1.00651 0.0
C928 C 0.72143 0.83834 1.02708 0.0
C929 C 0.75226 0.81407 1.01949 0.0
N930 N 0.68479 0.90257 1.0273 0.0
C931 C 0.66671 0.89225 1.04266 0.0
C932 C 0.70056 0.82629 1.04203 0.0
C933 C 0.6742 0.85399 1.05019 0.0
Gd934 Gd 0.58325 1.00252 0.99517 0.0
Gd935 Gd 0.66647 0.96094 1.01068 0.0
N936 N 0.73165 0.93312 1.00367 0.0
C937 C 0.80046 0.89216 0.99107 0.0
C938 C 0.76233 0.95468 0.99573 0.0
C939 C 0.79654 0.93442 0.98884 0.0
H940 H 0.76119 0.98761 0.995 0.0
H941 H 0.82016 0.95152 0.9821 0.0
H942 H 0.50032 0.94237 1.00594 0.0
H943 H 0.64562 0.91258 1.04905 0.0
H944 H 0.43288 0.95117 1.01956 0.0
H945 H 0.82717 0.87654 0.98593 0.0
H946 H 0.80279 0.81274 1.00149 0.0
H947 H 0.63329 0.09173 1.00267 0.0
H948 H 0.70612 0.79665 1.04783 0.0
H949 H 0.65899 0.84562 1.06212 0.0
H950 H 0.42596 0.09472 1.03279 0.0
H951 H 0.75852 0.78355 1.02427 0.0
H952 H 0.54599 0.17719 1.02279 0.0
H953 H 0.61585 0.1618 1.01195 0.0
N954 N 0.57411 0.06707 1.00848 0.0
C955 C 0.53474 0.07543 1.01368 0.0
C956 C 0.60276 0.09781 1.00745 0.0
C957 C 0.55332 0.14631 1.01863 0.0
C958 C 0.59291 0.13769 1.01263 0.0
C959 C 0.52379 0.11496 1.01938 0.0
H960 H 0.47506 0.15201 1.03032 0.0
N961 N 0.5182 1.00501 1.00893 0.0
C962 C 0.50662 0.04302 1.01467 0.0
C963 C 0.4408 1.016 1.02373 0.0
C964 C 0.46741 0.04953 1.02194 0.0
C965 C 0.49214 0.97228 1.01065 0.0
C966 C 0.45336 0.97723 1.01822 0.0
O967 O 0.66203 0.95424 0.98225 0.0
O968 O 0.59334 0.94829 0.97842 0.0
O969 O 0.52802 1.01834 0.9813 0.0
O970 O 0.58898 1.04122 0.97266 0.0
O971 O 0.69491 1.00309 0.98552 0.0
O972 O 0.63964 1.04063 0.97949 0.0
O973 O 0.587 1.02267 1.02425 0.0
O974 O 0.61614 0.96735 1.03431 0.0
O975 O 0.66256 1.02523 1.01661 0.0
O976 O 0.71186 0.98777 1.02793 0.0
O977 O 0.56658 0.92449 0.99719 0.0
O978 O 0.62379 0.8976 1.0095 0.0
C979 C 0.63053 0.94232 0.97305 0.0
C980 C 0.68086 1.0363 0.97611 0.0
C981 C 0.52964 0.06621 0.95793 0.0
C982 C 0.47352 1.02789 0.9473 0.0
C983 C 0.4609 0.09061 0.96338 0.0
C984 C 0.50346 0.09699 0.9642 0.0
C985 C 0.44596 0.05441 0.95592 0.0
C986 C 0.51451 1.03889 0.9457 0.0
C987 C 0.54906 0.04315 0.97142 0.0
C988 C 0.45615 0.08911 1.02735 0.0
C989 C 0.48412 0.12177 1.02594 0.0
H990 H 0.41056 1.0197 1.02941 0.0
C991 C 0.59227 1.00008 1.03796 0.0
C992 C 0.58528 0.88862 1.00337 0.0
C993 C 0.6918 0.04775 1.04284 0.0
C994 C 0.70829 0.11077 1.05864 0.0
C995 C 0.66718 0.05639 1.07192 0.0
C996 C 0.67324 1.03151 1.05755 0.0
C997 C 0.68398 0.09592 0.0725 0.0
C998 C 0.70849 0.08734 1.04325 0.0
C999 C 0.69479 1.02407 1.02689 0.0
H1000 H 0.44007 0.11175 0.96966 0.0
H1001 H 0.51543 0.12092 0.97263 0.0
H1002 H 0.41329 0.0475 0.9565 0.0
H1003 H 0.53524 1.01815 0.93909 0.0
H1004 H 0.65016 0.04431 0.08272 0.0
H1005 H 0.66237 1.00015 1.0578 0.0
H1006 H 0.68091 0.11285 0.08446 0.0
H1007 H 0.72388 0.09837 1.03179 0.0
C1008 C 0.95707 0.13554 0.87272 0.0
C1009 C 0.96324 0.07109 0.88772 0.0
C1010 C 0.94096 0.10688 0.88374 0.0
C1011 C 1.00399 0.06713 0.88193 0.0
C1012 C 0.9967 0.1302 0.86565 0.0
C1013 C 1.02082 0.09683 0.87094 0.0
N1014 N 0.93216 0.16643 0.86756 0.0
C1015 C 0.94371 0.19055 0.85391 0.0
C1016 C 1.00998 0.15726 0.85282 0.0
C1017 C 0.98294 0.18696 0.84665 0.0
Gd1018 Gd 0.83006 0.25861 0.9029 0.0
Gd1019 Gd 0.87019 0.17578 0.88352 0.0
N1020 N 0.90148 0.11171 0.88884 0.0
C1021 C 0.94314 1.03952 0.89655 0.0
C1022 C 0.88102 0.07995 0.8965 0.0
C1023 C 0.90159 0.04377 0.90075 0.0
H1024 H 0.84841 0.08157 0.89878 0.0
H1025 H 0.88527 1.01905 0.90707 0.0
H1026 H 0.89375 0.33093 0.88394 0.0
H1027 H 0.92378 0.21393 0.84901 0.0
H1028 H 0.88581 0.39719 0.86974 0.0
H1029 H 0.95902 1.01141 0.89977 0.0
H1030 H 1.02202 1.04038 0.88522 0.0
H1031 H 0.73724 0.21192 0.89771 0.0
H1032 H 1.04024 0.15433 0.84709 0.0
H1033 H 0.99231 0.20723 0.83631 0.0
H1034 H 0.73974 0.41611 0.86544 0.0
H1035 H 0.05164 0.09261 0.86592 0.0
H1036 H 0.65223 0.30373 0.88118 0.0
H1037 H 0.66606 0.2334 0.89142 0.0
N1038 N 0.76356 0.26984 0.89162 0.0
C1039 C 0.75652 0.309 0.88607 0.0
C1040 C 0.73167 0.24283 0.89352 0.0
C1041 C 0.68355 0.29474 0.88418 0.0
C1042 C 0.69126 0.25489 0.88987 0.0
C1043 C 0.71643 0.32207 0.88185 0.0
H1044 H 0.67998 0.37203 0.87167 0.0
N1045 N 0.82913 0.32013 0.88664 0.0
C1046 C 0.79047 0.33429 0.88284 0.0
C1047 C 0.81956 0.39579 0.87053 0.0
C1048 C 0.78477 0.3727 0.87494 0.0
C1049 C 0.8631 0.34196 0.88167 0.0
C1050 C 0.85878 0.37992 0.87353 0.0
O1051 O 0.87246 0.17292 0.91163 0.0
O1052 O 0.88492 0.23891 0.91828 0.0
O1053 O 0.82003 0.31614 0.91546 0.0
O1054 O 0.79568 0.2608 0.92704 0.0
O1055 O 0.82529 0.14597 0.90788 0.0
O1056 O 0.79242 0.20124 0.91819 0.0
O1057 O 0.80532 0.2539 0.87388 0.0
O1058 O 0.86034 0.22858 0.86179 0.0
O1059 O 0.80788 0.17505 0.87331 0.0
O1060 O 0.85255 0.12743 0.86606 0.0
O1061 O 0.9077 0.27426 0.9007 0.0
O1062 O 0.93316 0.21866 0.88651 0.0
C1063 C 0.88861 0.20028 0.92171 0.0
C1064 C 0.79495 0.15926 0.91927 0.0
C1065 C 0.8086 0.31786 0.94474 0.0
C1066 C 0.85921 0.36235 0.95728 0.0
C1067 C 0.78727 0.37038 0.96479 0.0
C1068 C 0.77729 0.3377 0.95386 0.0
C1069 C 0.82819 0.38364 0.96608 0.0
C1070 C 0.84968 0.32747 0.94783 0.0
C1071 C 0.79889 0.30043 0.92809 0.0
C1072 C 0.74468 0.38643 0.87132 0.0
C1073 C 0.71062 0.36132 0.87488 0.0
H1074 H 0.81649 0.42556 0.86452 0.0
C1075 C 0.82654 0.25139 0.85937 0.0
C1076 C 0.94259 0.25594 0.89356 0.0
C1077 C 0.79957 0.14068 0.84636 0.0
C1078 C 0.75821 0.10101 0.82556 0.0
C1079 C 0.80559 0.15506 0.81597 0.0
C1080 C 0.81734 0.1631 0.83298 0.0
C1081 C 0.77704 0.12393 0.81217 0.0
C1082 C 0.77032 0.11052 0.8427 0.0
C1083 C 0.8155 0.1423 0.86397 0.0
H1084 H 0.76282 0.38766 0.97077 0.0
H1085 H 0.74518 0.33083 0.95117 0.0
H1086 H 0.83552 0.41192 0.97271 0.0
H1087 H 0.87356 0.31289 0.94015 0.0
H1088 H 0.8204 0.17175 0.80571 0.0
H1089 H 0.84164 0.18512 0.8355 0.0
H1090 H 0.77203 0.11704 0.79869 0.0
H1091 H 0.76033 0.09225 0.85353 0.0
C1092 C 0.70683 0.19398 0.62561 0.0
C1093 C 0.77082 0.18491 0.64099 0.0
C1094 C 0.73144 0.17059 0.63595 0.0
C1095 C 0.78238 0.22544 0.63728 0.0
C1096 C 0.71973 0.23327 0.62033 0.0
C1097 C 0.75667 0.24976 0.62697 0.0
N1098 N 0.67229 0.17619 0.61916 0.0
C1099 C 0.65184 0.19414 0.60565 0.0
C1100 C 0.69643 0.25356 0.60776 0.0
C1101 C 0.6629 0.23342 0.60006 0.0
Gd1102 Gd 0.56689 0.0741 0.65115 0.0
Gd1103 Gd 0.64995 0.11325 0.63152 0.0
N1104 N 0.71938 0.13146 0.63869 0.0
C1105 C 0.7985 0.1572 0.64828 0.0
C1106 C 0.74771 0.10368 0.64459 0.0
C1107 C 0.78712 0.11618 0.6498 0.0
H1108 H 0.74154 0.07123 0.64436 0.0
H1109 H 0.80908 0.09391 0.65449 0.0
H1110 H 0.49247 0.13305 0.63219 0.0
H1111 H 0.62566 0.17881 0.59973 0.0
H1112 H 0.4275 0.12179 0.61643 0.0
H1113 H 0.82946 0.16665 0.65185 0.0
H1114 H 0.81205 0.23738 0.64144 0.0
H1115 H 0.61818 0.98397 0.64769 0.0
H1116 H 0.70523 0.2838 0.60332 0.0
H1117 H 0.64558 0.24811 0.58983 0.0
H1118 H 0.41604 0.97553 0.61131 0.0
H1119 H 0.76678 0.28024 0.62338 0.0
H1120 H 0.53195 0.89486 0.6287 0.0
H1121 H 0.60079 0.91232 0.64055 0.0
N1122 N 0.55955 1.0071 0.64019 0.0
C1123 C 0.52108 0.99802 0.6339 0.0
C1124 C 0.58792 0.97686 0.64271 0.0
C1125 C 0.53917 0.92641 0.63201 0.0
C1126 C 0.57818 0.93617 0.63861 0.0
C1127 C 0.51031 0.95755 0.62929 0.0
H1128 H 0.46271 0.91862 0.61816 0.0
N1129 N 0.50614 0.06949 0.63445 0.0
C1130 C 0.49426 1.03036 0.63032 0.0
C1131 C 0.43234 0.05599 0.61678 0.0
C1132 C 0.4567 1.02264 0.62164 0.0
C1133 C 0.48295 0.10212 0.62936 0.0
C1134 C 0.44585 0.09584 0.62041 0.0
O1135 O 0.65633 0.12156 0.65993 0.0
O1136 O 0.58912 0.13225 0.66277 0.0
O1137 O 0.50841 0.06358 0.66375 0.0
O1138 O 0.56496 0.04402 0.67608 0.0
O1139 O 0.67726 0.06331 0.65502 0.0
O1140 O 0.62159 1.03955 0.66877 0.0
O1141 O 0.57719 0.04743 0.62263 0.0
O1142 O 0.59401 0.10531 0.61115 0.0
O1143 O 0.66205 0.05095 0.62205 0.0
O1144 O 0.6742 0.10451 0.60613 0.0
O1145 O 0.55126 0.15217 0.64839 0.0
O1146 O 0.60373 0.17477 0.63186 0.0
C1147 C 0.62604 0.13639 0.6687 0.0
C1148 C 0.6636 1.03784 0.66831 0.0
C1149 C 0.51733 0.07736 0.69262 0.0
C1150 C 0.50362 0.14653 0.70119 0.0
C1151 C 0.49851 0.09134 0.72203 0.0
C1152 C 0.5087 0.06296 0.70916 0.0
C1153 C 0.49458 0.133 0.71804 0.0
C1154 C 0.51811 0.11907 0.68934 0.0
C1155 C 0.52594 0.05129 0.67802 0.0
C1156 C 0.44515 0.98207 0.61771 0.0
C1157 C 0.47174 0.94963 0.62162 0.0
H1158 H 0.40343 0.05134 0.60995 0.0
C1159 C 0.57595 0.0691 0.60822 0.0
C1160 C 0.56839 0.18629 0.64003 0.0
C1161 C 0.72254 0.05304 0.60455 0.0
C1162 C 0.77098 1.00384 0.59322 0.0
C1163 C 0.7946 0.07204 0.60109 0.0
C1164 C 0.75452 0.08253 0.6052 0.0
C1165 C 0.80285 1.03287 0.59511 0.0
C1166 C 0.73097 1.01338 0.59861 0.0
C1167 C 0.68012 0.06549 0.60818 0.0
H1168 H 0.49166 0.08074 0.73473 0.0
H1169 H 0.50941 1.03051 0.71202 0.0
H1170 H 0.48246 0.15384 0.72768 0.0
H1171 H 0.52579 0.13009 0.67675 0.0
H1172 H 0.81895 0.09481 0.60182 0.0
H1173 H 0.74867 0.11417 0.60849 0.0
H1174 H 0.83379 1.02597 0.59101 0.0
H1175 H 0.70626 0.99115 0.59706 0.0
C1176 C 0.66851 0.98597 0.38532 0.0
C1177 C 0.71361 0.04354 0.39177 0.0
C1178 C 0.70787 1.0012 0.38845 0.0
C1179 C 0.67941 0.0696 0.39277 0.0
C1180 C 0.6342 1.01256 0.38559 0.0
C1181 C 0.63977 0.0541 0.38974 0.0
N1182 N 0.66457 0.94688 0.37938 0.0
C1183 C 0.62837 0.93436 0.37183 0.0
C1184 C 0.5958 0.99757 0.38015 0.0
C1185 C 0.59312 0.95859 0.37281 0.0
Gd1186 Gd 0.75618 0.82163 0.40095 0.0
Gd1187 Gd 0.72425 0.90581 0.37979 0.0
N1188 N 0.74067 0.9761 0.38557 0.0
C1189 C 0.75368 0.0592 0.39263 0.0
C1190 C 0.77924 0.99304 0.38379 0.0
C1191 C 0.78661 1.03396 0.38839 0.0
H1192 H 0.80486 0.97381 0.38017 0.0
H1193 H 0.8176 0.04618 0.38864 0.0
H1194 H 0.71314 0.73184 0.39041 0.0
H1195 H 0.62651 0.90623 0.36452 0.0
H1196 H 0.73688 0.66258 0.38167 0.0
H1197 H 0.75937 0.09124 0.39561 0.0
H1198 H 0.68337 0.10205 0.39538 0.0
H1199 H 0.83456 0.88859 0.38952 0.0
H1200 H 0.56875 1.01691 0.38033 0.0
H1201 H 0.5643 0.94777 0.3673 0.0
H1202 H 0.88321 0.67868 0.37502 0.0
H1203 H 0.61378 0.07483 0.39003 0.0
H1204 H 0.94038 0.8139 0.38089 0.0
H1205 H 0.90933 0.8823 0.38519 0.0
N1206 N 0.8237 0.82427 0.3898 0.0
C1207 C 0.83988 0.7865 0.38647 0.0
C1208 C 0.84779 0.85853 0.38861 0.0
C1209 C 0.90763 0.81639 0.38331 0.0
C1210 C 0.89022 0.85507 0.38579 0.0
C1211 C 0.88223 0.7816 0.38311 0.0
H1212 H 0.9302 0.73803 0.3768 0.0
N1213 N 0.77294 0.75821 0.38909 0.0
C1214 C 0.81361 0.7526 0.38585 0.0
C1215 C 0.80058 0.68103 0.37973 0.0
C1216 C 0.82864 0.71363 0.38129 0.0
C1217 C 0.74529 0.7268 0.38754 0.0
C1218 C 0.7587 0.68767 0.38278 0.0
O1219 O 0.67935 0.89116 0.40039 0.0
O1220 O 0.73185 0.87235 0.41645 0.0
O1221 O 0.73119 0.78422 0.42113 0.0
O1222 O 0.79715 0.79509 0.41997 0.0
O1223 O 0.77511 0.93153 0.40348 0.0
O1224 O 0.79716 0.87541 0.41733 0.0
O1225 O 0.75568 0.80499 0.37042 0.0
O1226 O 0.77483 0.86738 0.36285 0.0
O1227 O 0.72342 0.9499 0.35878 0.0
O1228 O 0.71651 0.88528 0.35307 0.0
O1229 O 0.68043 0.80436 0.39707 0.0
O1230 O 0.66046 0.85963 0.38165 0.0
C1231 C 0.69369 0.88188 0.41556 0.0
C1232 C 0.8003 0.91746 0.4168 0.0
C1233 C 0.77566 0.73056 0.429 0.0
C1234 C 0.74198 0.66936 0.43799 0.0
C1235 C 0.81484 0.67866 0.44389 0.0
C1236 C 0.81313 0.71705 0.43604 0.0
C1237 C 0.77846 0.65619 0.44592 0.0
C1238 C 0.74249 0.70377 0.4277 0.0
C1239 C 0.76768 0.77397 0.4268 0.0
C1240 C 0.87094 0.70856 0.37829 0.0
C1241 C 0.8977 0.74238 0.37932 0.0
H1242 H 0.81089 0.65083 0.37593 0.0
C1243 C 0.7733 0.82744 0.35805 0.0
C1244 C 0.6476 0.82282 0.38881 0.0
C1245 C 0.75945 0.92397 0.33446 0.0
C1246 C 0.82886 0.94896 0.32657 0.0
C1247 C 0.7923 0.89834 0.30855 0.0
C1248 C 0.75853 0.8994 0.31958 0.0
C1249 C 0.82698 0.92261 0.31193 0.0
C1250 C 0.79456 0.94854 0.33789 0.0
C1251 C 0.72486 0.92153 0.34689 0.0
H1252 H 0.84295 0.66873 0.45015 0.0
H1253 H 0.83976 0.73714 0.43668 0.0
H1254 H 0.77814 0.63164 0.45499 0.0
H1255 H 0.7135 0.7139 0.42211 0.0
H1256 H 0.79144 0.87878 0.29719 0.0
H1257 H 0.73189 0.88043 0.31665 0.0
H1258 H 0.85137 0.9214 0.3025 0.0
H1259 H 0.79437 0.96802 0.34919 0.0
C1260 C 0.87157 0.88846 0.12565 0.0
C1261 C 0.80691 0.89651 0.14056 0.0
C1262 C 0.84586 0.91159 0.13564 0.0
C1263 C 0.79653 0.85556 0.13682 0.0
C1264 C 0.85957 0.849 0.1201 0.0
C1265 C 0.82287 0.83177 0.1265 0.0
N1266 N 0.90576 0.9071 0.11947 0.0
C1267 C 0.92755 0.8893 0.10631 0.0
C1268 C 0.88347 0.82931 0.10755 0.0
C1269 C 0.91711 0.84995 0.10035 0.0
Gd1270 Gd 1.00511 1.00931 0.15128 0.0
Gd1271 Gd 0.92564 0.96977 0.13291 0.0
N1272 N 0.85631 0.95127 0.1379 0.0
C1273 C 0.77851 0.92405 0.14763 0.0
C1274 C 0.82678 0.97896 0.1422 0.0
C1275 C 0.78793 0.96588 0.14778 0.0
H1276 H 0.83273 1.01108 0.14052 0.0
H1277 H 0.76505 0.98806 0.15171 0.0
H1278 H 0.05939 0.94087 0.1256 0.0
H1279 H 0.95417 0.90475 0.10103 0.0
H1280 H 0.12897 0.94033 0.11327 0.0
H1281 H 0.74816 0.91387 0.15158 0.0
H1282 H 0.76713 0.84296 0.1408 0.0
H1283 H 0.97211 0.10846 0.15129 0.0
H1284 H 0.87532 0.79896 0.10287 0.0
H1285 H 0.93519 0.83546 0.09031 0.0
H1286 H 0.17262 0.08077 0.11563 0.0
H1287 H 0.81348 0.80107 0.12275 0.0
H1288 H 0.0755 0.18078 0.13542 0.0
H1289 H 1.00439 0.17611 0.14668 0.0
N1290 N 1.02408 0.07515 0.14226 0.0
C1291 C 0.06292 0.07704 0.13558 0.0
C1292 C 1.00281 0.11006 0.14606 0.0
C1293 C 0.06139 0.15096 0.13724 0.0
C1294 C 1.02113 0.14845 0.14354 0.0
C1295 C 0.08266 0.11504 0.13301 0.0
H1296 H 0.13841 0.14491 0.12411 0.0
N1297 N 0.06118 1.00441 0.1322 0.0
C1298 C 0.08197 1.04063 0.13043 0.0
C1299 C 0.13927 1.00481 0.11772 0.0
C1300 C 0.12155 0.04172 0.12309 0.0
C1301 C 0.07668 0.96903 0.12537 0.0
C1302 C 0.11614 0.96865 0.11819 0.0
O1303 O 0.91768 0.94656 0.15977 0.0
O1304 O 0.96867 0.98373 0.17288 0.0
O1305 O 0.0614 0.99291 0.16281 0.0
O1306 O 1.03255 0.05053 0.17113 0.0
O1307 O 0.89632 1.02173 0.15544 0.0
O1308 O 0.95216 0.04876 0.16807 0.0
O1309 O 0.99562 1.03805 0.12295 0.0
O1310 O 0.98029 0.97942 0.11182 0.0
O1311 O 0.91189 1.03155 0.1238 0.0
O1312 O 0.90287 0.97745 0.10719 0.0
O1313 O 1.01991 0.93182 0.15082 0.0
O1314 O 0.96628 0.90635 0.13604 0.0
C1315 C 0.93795 0.95823 0.17352 0.0
C1316 C 0.90994 0.04982 0.16802 0.0
C1317 C 0.0986 1.03173 0.18352 0.0
C1318 C 0.15389 0.99565 0.19715 0.0
C1319 C 0.15667 0.06969 0.19521 0.0
C1320 C 0.11813 0.06937 0.18686 0.0
C1321 C 0.1752 1.03259 0.2 0.0
C1322 C 0.11621 0.99579 0.18894 0.0
C1323 C 0.06441 1.02676 0.17174 0.0
C1324 C 0.14204 0.07945 0.12119 0.0
C1325 C 0.12256 0.116 0.12604 0.0
H1326 H 0.17037 1.00424 0.11272 0.0
C1327 C 0.99607 1.0166 0.10827 0.0
C1328 C 1.00223 0.89635 0.14393 0.0
C1329 C 0.85505 1.02947 0.10414 0.0
C1330 C 0.80952 0.08059 0.09228 0.0
C1331 C 0.78346 1.01227 0.0982 0.0
C1332 C 0.82264 1.00054 0.1033 0.0
C1333 C 0.7769 0.05212 0.09274 0.0
C1334 C 0.84838 0.06968 0.09861 0.0
C1335 C 0.89638 1.01659 0.10927 0.0
H1336 H 0.17273 0.09841 0.1974 0.0
H1337 H 0.10488 0.09774 0.18227 0.0
H1338 H 0.20596 1.03253 0.20541 0.0
H1339 H 0.10095 0.96667 0.18621 0.0
H1340 H 0.75852 0.99011 0.09791 0.0
H1341 H 0.82742 0.96866 0.10647 0.0
H1342 H 0.74673 0.06014 0.08806 0.0
H1343 H 0.87363 0.09155 0.09831 0.0
C1344 C 0.83907 0.80136 0.88464 0.0
C1345 C 0.82217 0.87299 0.88011 0.0
C1346 C 0.80992 0.83251 0.88363 0.0
C1347 C 0.86423 0.88197 0.87791 0.0
C1348 C 0.88073 0.80965 0.88105 0.0
C1349 C 0.89331 0.85027 0.87803 0.0
N1350 N 0.82592 0.76259 0.88845 0.0
C1351 C 0.85267 0.73044 0.8878 0.0
C1352 C 0.90837 0.77686 0.8806 0.0
C1353 C 0.89412 0.73706 0.88368 0.0
Gd1354 Gd 0.71292 0.67809 0.88413 0.0
Gd1355 Gd 0.75879 0.76043 0.9001 0.0
N1356 N 0.76948 0.82286 0.88604 0.0
C1357 C 0.79172 0.90306 0.87867 0.0
C1358 C 0.73947 0.85139 0.88364 0.0
C1359 C 0.75015 0.89195 0.87985 0.0
H1360 H 0.70753 0.84367 0.88572 0.0
H1361 H 0.72641 0.9149 0.8785 0.0
H1362 H 0.76924 0.5909 0.8915 0.0
H1363 H 0.84257 0.69971 0.89061 0.0
H1364 H 0.75716 0.52008 0.90078 0.0
H1365 H 0.7999 0.93472 0.8762 0.0
H1366 H 0.87434 0.91307 0.8754 0.0
H1367 H 0.64639 0.6913 0.8521 0.0
H1368 H 0.94065 0.78188 0.87774 0.0
H1369 H 0.91527 0.71152 0.88323 0.0
H1370 H 0.61216 0.50072 0.89275 0.0
H1371 H 0.9254 0.85745 0.87561 0.0
H1372 H 0.55084 0.60039 0.85539 0.0
H1373 H 0.57963 0.6628 0.84179 0.0
N1374 N 0.65393 0.64672 0.87174 0.0
C1375 C 0.64002 0.61119 0.87846 0.0
C1376 C 0.63386 0.66409 0.85809 0.0
C1377 C 0.57977 0.61308 0.86006 0.0
C1378 C 0.5961 0.64808 0.85226 0.0
C1379 C 0.60273 0.59308 0.87282 0.0
H1380 H 0.56266 0.53998 0.87516 0.0
N1381 N 0.70527 0.60621 0.89 0.0
C1382 C 0.6672 0.58974 0.8883 0.0
C1383 C 0.69118 0.52423 0.89857 0.0
C1384 C 0.65874 0.54861 0.89272 0.0
C1385 C 0.73781 0.58044 0.89298 0.0
C1386 C 0.73124 0.53969 0.89788 0.0
O1387 O 0.77642 0.76 0.87042 0.0
O1388 O 0.71958 0.72946 0.8607 0.0
O1389 O 0.7775 0.67175 0.87688 0.0
O1390 O 0.72784 0.66901 0.85744 0.0
O1391 O 0.68036 0.77754 0.89604 0.0
O1392 O 0.64998 0.71992 0.88565 0.0
O1393 O 0.68386 0.70084 0.90889 0.0
O1394 O 0.74115 0.72267 0.92198 0.0
O1395 O 0.73951 0.80795 0.91721 0.0
O1396 O 0.80324 0.78888 0.91787 0.0
O1397 O 0.75985 0.64952 0.90827 0.0
O1398 O 0.79801 0.70428 0.91573 0.0
C1399 C 0.75272 0.7535 0.8568 0.0
C1400 C 0.64286 0.75926 0.89075 0.0
C1401 C 0.77944 0.62091 0.85427 0.0
C1402 C 0.82857 0.57806 0.83928 0.0
C1403 C 0.76072 0.55121 0.84589 0.0
C1404 C 0.75025 0.58881 0.85303 0.0
C1405 C 0.7997 0.54582 0.83901 0.0
C1406 C 0.81883 0.61548 0.84726 0.0
C1407 C 0.76635 0.66092 0.86102 0.0
C1408 C 0.61967 0.53187 0.88907 0.0
C1409 C 0.59161 0.55411 0.87898 0.0
H1410 H 0.6862 0.49241 0.90197 0.0
C1411 C 0.70343 0.71193 0.92291 0.0
C1412 C 0.7936 0.66253 0.91809 0.0
C1413 C 0.7892 0.85912 0.92306 0.0
C1414 C 0.75905 0.92034 0.9339 0.0
C1415 C 0.83224 0.90921 0.93777 0.0
C1416 C 0.82794 0.87099 0.9296 0.0
C1417 C 0.79702 0.93261 0.94103 0.0
C1418 C 0.75782 0.88798 0.92228 0.0
C1419 C 0.7766 0.8159 0.92282 0.0
H1420 H 0.73815 0.52671 0.84516 0.0
H1421 H 0.71885 0.5929 0.85726 0.0
H1422 H 0.8068 0.51694 0.83279 0.0
H1423 H 0.84097 0.64044 0.84732 0.0
H1424 H 0.86147 0.91799 0.94353 0.0
H1425 H 0.85338 0.84964 0.92983 0.0
H1426 H 0.79882 0.95713 0.95032 0.0
H1427 H 0.72786 0.87937 0.91707 0.0
C1428 C 0.53458 0.57454 0.13235 0.0
C1429 C 0.46858 0.54924 0.12179 0.0
C1430 C 0.5077 0.5419 0.12911 0.0
C1431 C 0.45586 0.58974 0.11885 0.0
C1432 C 0.52272 0.615 0.12858 0.0
C1433 C 0.48278 0.62254 0.12231 0.0
N1434 N 0.57366 0.56597 0.13779 0.0
C1435 C 0.60274 0.59619 0.13888 0.0
C1436 C 0.55184 0.64648 0.13067 0.0
C1437 C 0.59222 0.6369 0.13549 0.0
Gd1438 Gd 0.66253 0.45374 0.13436 0.0
Gd1439 Gd 0.58173 0.49956 0.14902 0.0
N1440 N 0.52099 0.50293 0.13214 0.0
C1441 C 0.44376 0.51563 0.11728 0.0
C1442 C 0.49732 0.47005 0.12728 0.0
C1443 C 0.45848 0.47594 0.11977 0.0
H1444 H 0.50751 0.43918 0.12939 0.0
H1445 H 0.43966 0.4498 0.11611 0.0
H1446 H 0.75336 0.50312 0.14596 0.0
H1447 H 0.63409 0.58882 0.14203 0.0
H1448 H 0.82327 0.48487 0.15474 0.0
H1449 H 0.41354 0.51998 0.11157 0.0
H1450 H 0.42561 0.59597 0.1135 0.0
H1451 H 0.64551 0.39469 0.09997 0.0
H1452 H 0.54389 0.67803 0.12796 0.0
H1453 H 0.6153 0.66086 0.13654 0.0
H1454 H 0.8325 0.34146 0.14126 0.0
H1455 H 0.47289 0.65351 0.11956 0.0
H1456 H 0.72984 0.29397 0.10114 0.0
H1457 H 0.67031 0.32908 0.08769 0.0
N1458 N 0.69074 0.39668 0.11993 0.0
C1459 C 0.72493 0.37941 0.1266 0.0
C1460 C 0.6722 0.38011 0.1056 0.0
C1461 C 0.7192 0.3228 0.10648 0.0
C1462 C 0.68592 0.34277 0.09873 0.0
C1463 C 0.74017 0.34192 0.12021 0.0
H1464 H 0.78941 0.2975 0.12237 0.0
N1465 N 0.73394 0.44132 0.14077 0.0
C1466 C 0.74804 0.40313 0.13755 0.0
C1467 C 0.8154 0.42082 0.14875 0.0
C1468 C 0.78854 0.39129 0.14188 0.0
C1469 C 0.76154 0.47108 0.14596 0.0
C1470 C 0.80207 0.46116 0.15043 0.0
O1471 O 0.58889 0.52079 0.12029 0.0
O1472 O 0.6103 0.46131 0.11092 0.0
O1473 O 0.67011 0.5194 0.12968 0.0
O1474 O 0.67376 0.47443 0.10854 0.0
O1475 O 0.56426 0.42101 0.14644 0.0
O1476 O 0.62099 0.39119 0.13535 0.0
O1477 O 0.64044 0.42399 0.15897 0.0
O1478 O 0.61439 0.47905 0.17198 0.0
O1479 O 0.52691 0.48673 0.16272 0.0
O1480 O 0.55865 0.54569 0.16726 0.0
O1481 O 0.69156 0.49584 0.15973 0.0
O1482 O 0.63898 0.5383 0.16474 0.0
C1483 C 0.59041 0.49662 0.10669 0.0
C1484 C 0.58212 0.3839 0.1409 0.0
C1485 C 0.72267 0.52587 0.10818 0.0
C1486 C 0.76752 0.57553 0.0946 0.0
C1487 C 0.79383 0.50836 0.1018 0.0
C1488 C 0.75497 0.49714 0.10745 0.0
C1489 C 0.80016 0.54745 0.09544 0.0
C1490 C 0.72891 0.56531 0.10155 0.0
C1491 C 0.68172 0.51192 0.11361 0.0
C1492 C 0.80207 0.35174 0.1375 0.0
C1493 C 0.77761 0.32679 0.12671 0.0
H1494 H 0.84716 0.41341 0.15171 0.0
C1495 C 0.62486 0.44142 0.17269 0.0
C1496 C 0.67986 0.53098 0.16851 0.0
C1497 C 0.49541 0.53286 0.18262 0.0
C1498 C 0.4426 0.50634 0.2009 0.0
C1499 C 0.45572 0.57928 0.20044 0.0
C1500 C 0.48787 0.57275 0.18866 0.0
C1501 C 0.43253 0.5459 0.20643 0.0
C1502 C 0.47233 0.50052 0.18854 0.0
C1503 C 0.52712 0.52247 0.1704 0.0
H1504 H 0.8185 0.48613 0.10156 0.0
H1505 H 0.75003 0.4654 0.1107 0.0
H1506 H 0.82995 0.55488 0.09009 0.0
H1507 H 0.70351 0.5867 0.10072 0.0
H1508 H 0.44877 0.60998 0.20488 0.0
H1509 H 0.50601 0.59844 0.18412 0.0
H1510 H 0.40685 0.55087 0.21488 0.0
H1511 H 0.4785 0.46946 0.18407 0.0
C1512 C 0.75273 0.29623 0.38317 0.0
C1513 C 0.76241 0.22312 0.37811 0.0
C1514 C 0.77716 0.26124 0.38421 0.0
C1515 C 0.72204 0.22009 0.37162 0.0
C1516 C 0.71305 0.29355 0.37573 0.0
C1517 C 0.69749 0.25521 0.37038 0.0
N1518 N 0.76909 0.33317 0.38815 0.0
C1519 C 0.74823 0.36855 0.38488 0.0
C1520 C 0.69071 0.32965 0.37332 0.0
C1521 C 0.70865 0.36732 0.37765 0.0
Gd1522 Gd 0.87124 0.41455 0.38383 0.0
Gd1523 Gd 0.83329 0.32816 0.40265 0.0
N1524 N 0.81658 0.26529 0.38999 0.0
C1525 C 0.78911 0.18945 0.37828 0.0
C1526 C 0.84333 0.23326 0.38952 0.0
C1527 C 0.82989 0.19468 0.38382 0.0
H1528 H 0.87473 0.23741 0.39395 0.0
H1529 H 0.85089 0.16899 0.38378 0.0
H1530 H 0.79057 0.4756 0.37621 0.0
H1531 H 0.76233 0.39789 0.38716 0.0
H1532 H 0.7709 0.54854 0.38032 0.0
H1533 H 0.77883 0.15955 0.3738 0.0
H1534 H 0.70993 0.19095 0.36704 0.0
H1535 H 0.97672 0.42219 0.38096 0.0
H1536 H 0.6602 0.32891 0.36756 0.0
H1537 H 0.69225 0.39551 0.37517 0.0
H1538 H 0.88914 0.60987 0.40721 0.0
H1539 H 0.66686 0.25257 0.36482 0.0
H1540 H 1.01431 0.53376 0.40495 0.0
H1541 H 1.03154 0.4671 0.39155 0.0
N1542 N 0.92758 0.45912 0.39028 0.0
C1543 C 0.9178 0.49739 0.39585 0.0
C1544 C 0.96809 0.44944 0.38769 0.0
C1545 C 0.98979 0.51323 0.40081 0.0
C1546 C 0.99964 0.47564 0.39332 0.0
C1547 C 0.94855 0.52526 0.4015 0.0
H1548 H 0.96053 0.58662 0.41123 0.0
N1549 N 0.84936 0.48332 0.38724 0.0
C1550 C 0.87758 0.51031 0.3938 0.0
C1551 C 0.82816 0.56514 0.3923 0.0
C1552 C 0.86728 0.55157 0.39707 0.0
C1553 C 0.81236 0.49727 0.38136 0.0
C1554 C 0.80109 0.53821 0.38392 0.0
O1555 O 0.83836 0.31322 0.37266 0.0
O1556 O 0.82406 0.37646 0.3644 0.0
O1557 O 0.88938 0.45854 0.36429 0.0
O1558 O 0.87907 0.39545 0.35692 0.0
O1559 O 0.90947 0.31177 0.39977 0.0
O1560 O 0.93308 0.36879 0.38648 0.0
O1561 O 0.90986 0.40064 0.4075 0.0
O1562 O 0.85233 0.37907 0.4192 0.0
O1563 O 0.85366 0.29193 0.4241 0.0
O1564 O 0.78821 0.29926 0.41927 0.0
O1565 O 0.81298 0.43859 0.40432 0.0
O1566 O 0.79098 0.38149 0.41779 0.0
C1567 C 0.82329 0.33607 0.35994 0.0
C1568 C 0.94384 0.33109 0.39294 0.0
C1569 C 0.85951 0.44736 0.33702 0.0
C1570 C 0.79449 0.47527 0.32566 0.0
C1571 C 0.85787 0.47788 0.30857 0.0
C1572 C 0.87948 0.45833 0.32173 0.0
C1573 C 0.81613 0.48658 0.31052 0.0
C1574 C 0.81693 0.45528 0.33887 0.0
C1575 C 0.88498 0.43278 0.35157 0.0
C1576 C 0.89687 0.57834 0.40421 0.0
C1577 C 0.93748 0.56511 0.40652 0.0
H1578 H 0.81872 0.59631 0.39491 0.0
C1579 C 0.8897 0.3907 0.42133 0.0
C1580 C 0.78672 0.42331 0.41706 0.0
C1581 C 0.80949 0.23628 0.42996 0.0
C1582 C 0.84326 0.1744 0.43771 0.0
C1583 C 0.76967 0.18008 0.44171 0.0
C1584 C 0.77161 0.22038 0.43562 0.0
C1585 C 0.80607 0.15762 0.44351 0.0
C1586 C 0.84348 0.21101 0.42896 0.0
C1587 C 0.81625 0.28002 0.4279 0.0
H1588 H 0.87368 0.48681 0.29685 0.0
H1589 H 0.91214 0.45272 0.32014 0.0
H1590 H 0.80129 0.50317 0.30013 0.0
H1591 H 0.80183 0.44664 0.35068 0.0
H1592 H 0.74083 0.16768 0.44639 0.0
H1593 H 0.74441 0.23945 0.43608 0.0
H1594 H 0.80554 0.12891 0.45022 0.0
H1595 H 0.8729 0.22279 0.42448 0.0
C1596 C 0.07499 0.50519 0.62787 0.0
C1597 C 0.1318 0.53917 0.61357 0.0
C1598 C 0.09581 0.54106 0.62369 0.0
C1599 C 0.14836 0.50087 0.60905 0.0
C1600 C 0.09049 0.46673 0.62277 0.0
C1601 C 0.12788 0.46472 0.61375 0.0
N1602 N 1.03777 0.50841 0.6358 0.0
C1603 C 1.01504 0.47419 0.63945 0.0
C1604 C 0.06744 0.43153 0.62656 0.0
C1605 C 1.02943 0.43533 0.63482 0.0
Gd1606 Gd 0.93978 0.61959 0.63424 0.0
Gd1607 Gd 1.02286 0.57271 0.64803 0.0
N1608 N 0.07896 0.57773 0.62839 0.0
C1609 C 0.1491 0.57578 0.60768 0.0
C1610 C 0.09405 0.61318 0.62142 0.0
C1611 C 0.12958 0.6128 0.61125 0.0
H1612 H 0.07853 0.64185 0.62291 0.0
H1613 H 0.14157 0.64109 0.60597 0.0
H1614 H 0.84544 0.5962 0.65052 0.0
H1615 H 0.98594 0.47682 0.64602 0.0
H1616 H 0.7874 0.63202 0.66388 0.0
H1617 H 0.17632 0.57565 0.59968 0.0
H1618 H 0.17639 0.49891 0.60152 0.0
H1619 H 0.97005 0.67815 0.6007 0.0
H1620 H 0.0784 0.40138 0.62292 0.0
H1621 H 1.01131 0.40831 0.63773 0.0
H1622 H 0.81096 0.7728 0.64933 0.0
H1623 H 0.14054 0.43542 0.60985 0.0
H1624 H 0.9127 0.79569 0.60552 0.0
H1625 H 0.96094 0.74919 0.5904 0.0
N1626 N 0.9283 0.68479 0.6217 0.0
C1627 C 0.89956 0.70891 0.62925 0.0
C1628 C 0.94852 0.69802 0.60721 0.0
C1629 C 0.91655 0.76455 0.61005 0.0
C1630 C 0.94366 0.73833 0.60144 0.0
C1631 C 0.89318 0.74959 0.62385 0.0
H1632 H 0.85776 0.80487 0.62824 0.0
N1633 N 0.87786 0.65047 0.6438 0.0
C1634 C 0.87366 0.69112 0.64103 0.0
C1635 C 0.81001 0.69197 0.65712 0.0
C1636 C 0.84008 0.71324 0.64782 0.0
C1637 C 0.84624 0.6291 0.65113 0.0
C1638 C 0.81224 0.64938 0.6581 0.0
O1639 O 1.00632 0.54718 0.62033 0.0
O1640 O 0.98968 0.60712 0.61079 0.0
O1641 O 0.92566 0.55966 0.62288 0.0
O1642 O 0.89695 0.61574 0.61322 0.0
O1643 O 1.04105 0.6517 0.64734 0.0
O1644 O 0.98299 0.6813 0.63741 0.0
O1645 O 0.9452 0.61882 0.66319 0.0
O1646 O 1.01377 0.62599 0.66486 0.0
O1647 O 0.08139 0.55777 0.65969 0.0
O1648 O 1.02475 0.53283 0.6702 0.0
O1649 O 0.91013 0.57208 0.65742 0.0
O1650 O 0.96565 0.53559 0.66437 0.0
C1651 C 1.00551 0.57022 0.60642 0.0
C1652 C 1.0222 0.68908 0.64256 0.0
C1653 C 0.85742 0.55591 0.61132 0.0
C1654 C 0.81546 0.5024 0.59835 0.0
C1655 C 0.78277 0.56072 0.61218 0.0
C1656 C 0.82134 0.57777 0.61537 0.0
C1657 C 0.77979 0.52339 0.60356 0.0
C1658 C 0.85423 0.51735 0.60338 0.0
C1659 C 0.8979 0.57579 0.61256 0.0
C1660 C 0.83597 0.75502 0.64393 0.0
C1661 C 0.86252 0.77321 0.63188 0.0
H1662 H 0.7835 0.70765 0.66242 0.0
C1663 C 0.97833 0.62748 0.67215 0.0
C1664 C 0.92393 0.53951 0.6673 0.0
C1665 C 0.07738 0.54675 0.68918 0.0
C1666 C 0.1053 0.59958 0.70708 0.0
C1667 C 0.10559 0.52943 0.71712 0.0
C1668 C 0.08714 0.51709 0.70154 0.0
C1669 C 0.11618 0.57073 0.71963 0.0
C1670 C 0.083 0.58797 0.69272 0.0
C1671 C 0.06444 0.53603 0.67194 0.0
H1672 H 0.75519 0.57763 0.6154 0.0
H1673 H 0.8226 0.60883 0.62019 0.0
H1674 H 0.74954 0.51217 0.60002 0.0
H1675 H 0.88185 0.50097 0.59966 0.0
H1676 H 0.11403 0.50665 0.72657 0.0
H1677 H 0.08183 0.48484 0.69893 0.0
H1678 H 0.13486 0.58002 0.73052 0.0
H1679 H 0.07601 0.61075 0.68295 0.0
C1680 C 0.84966 0.28412 0.76456 0.0
C1681 C 0.82945 0.21429 0.77185 0.0
C1682 C 0.8196 0.2531 0.76525 0.0
C1683 C 0.8695 0.20695 0.77806 0.0
C1684 C 0.88955 0.27693 0.77107 0.0
C1685 C 0.89933 0.23819 0.77777 0.0
N1686 N 0.83854 0.32214 0.75849 0.0
C1687 C 0.86702 0.35311 0.75793 0.0
C1688 C 0.91838 0.30894 0.77074 0.0
C1689 C 0.90705 0.34708 0.76417 0.0
Gd1690 Gd 0.72856 0.40875 0.75899 0.0
Gd1691 Gd 0.77288 0.32461 0.74474 0.0
N1692 N 0.78109 0.26084 0.7586 0.0
C1693 C 0.7989 0.18381 0.7717 0.0
C1694 C 0.75091 0.23168 0.75902 0.0
C1695 C 0.7593 0.19279 0.76567 0.0
H1696 H 0.72102 0.23774 0.75353 0.0
H1697 H 0.73556 0.16937 0.76568 0.0
H1698 H 0.75804 0.50063 0.74282 0.0
H1699 H 0.85937 0.3827 0.75276 0.0
H1700 H 0.72739 0.56662 0.73559 0.0
H1701 H 0.8057 0.15311 0.77608 0.0
H1702 H 0.87774 0.17719 0.78316 0.0
H1703 H 0.66753 0.36893 0.79137 0.0
H1704 H 0.94943 0.30458 0.77559 0.0
H1705 H 0.92928 0.3719 0.76382 0.0
H1706 H 0.59699 0.56422 0.76423 0.0
H1707 H 0.92993 0.23206 0.78277 0.0
H1708 H 0.56479 0.44728 0.79864 0.0
H1709 H 0.60294 0.38424 0.80575 0.0
N1710 N 0.66847 0.42326 0.7759 0.0
C1711 C 0.64834 0.45862 0.77235 0.0
C1712 C 0.653 0.39753 0.78837 0.0
C1713 C 0.59384 0.441 0.7923 0.0
C1714 C 0.61542 0.40562 0.79645 0.0
C1715 C 0.61064 0.46849 0.78045 0.0
H1716 H 0.56259 0.51405 0.78295 0.0
N1717 N 0.70385 0.47628 0.7546 0.0
C1718 C 0.66677 0.48612 0.76137 0.0
C1719 C 0.67023 0.55347 0.74847 0.0
C1720 C 0.64894 0.52497 0.75854 0.0
C1721 C 0.72635 0.50563 0.74619 0.0
C1722 C 0.70954 0.54402 0.74257 0.0
O1723 O 0.7879 0.32547 0.77437 0.0
O1724 O 0.73575 0.36224 0.78401 0.0
O1725 O 0.79199 0.40056 0.76651 0.0
O1726 O 0.75818 0.45572 0.77438 0.0
O1727 O 0.69349 0.30781 0.7497 0.0
O1728 O 0.66482 0.3687 0.75669 0.0
O1729 O 0.722 0.39787 0.73036 0.0
O1730 O 0.71409 0.32976 0.73099 0.0
O1731 O 0.80211 0.27205 0.73374 0.0
O1732 O 0.79219 0.32358 0.71748 0.0
O1733 O 0.76808 0.43507 0.73293 0.0
O1734 O 0.81082 0.3823 0.7295 0.0
C1735 C 0.76603 0.33526 0.7879 0.0
C1736 C 0.65618 0.32864 0.75372 0.0
C1737 C 0.81541 0.43755 0.79138 0.0
C1738 C 0.87017 0.47124 0.80801 0.0
C1739 C 0.8206 0.42572 0.82214 0.0
C1740 C 0.7992 0.42114 0.80661 0.0
C1741 C 0.85575 0.45049 0.82294 0.0
C1742 C 0.85125 0.46151 0.79205 0.0
C1743 C 0.79298 0.43555 0.77495 0.0
C1744 C 0.61114 0.53461 0.76627 0.0
C1745 C 0.59163 0.50611 0.77696 0.0
H1746 H 0.65743 0.58345 0.74587 0.0
C1747 C 0.70803 0.36408 0.72324 0.0
C1748 C 0.80351 0.42224 0.72466 0.0
C1749 C 0.78701 0.25674 0.70663 0.0
C1750 C 0.72789 0.2139 0.70268 0.0
C1751 C 0.79281 0.19515 0.68942 0.0
C1752 C 0.81099 0.2304 0.69652 0.0
C1753 C 0.75091 0.18717 0.69216 0.0
C1754 C 0.7462 0.2475 0.70995 0.0
C1755 C 0.80499 0.28588 0.71832 0.0
H1756 H 0.80849 0.41197 0.83378 0.0
H1757 H 0.76988 0.40548 0.80668 0.0
H1758 H 0.86901 0.45588 0.83563 0.0
H1759 H 0.86204 0.47501 0.78016 0.0
H1760 H 0.81134 0.17386 0.68213 0.0
H1761 H 0.8437 0.23587 0.69494 0.0
H1762 H 0.73644 0.16089 0.68596 0.0
H1763 H 0.72838 0.26593 0.71875 0.0
C1764 C 0.0665 0.58717 1.012 0.0
C1765 C 0.13463 0.56068 1.01837 0.0
C1766 C 0.09448 0.55492 1.01174 0.0
C1767 C 0.14654 0.59939 1.02479 0.0
C1768 C 0.07828 0.62599 1.01842 0.0
C1769 C 0.11858 0.63202 1.02468 0.0
N1770 N 1.02665 0.57933 1.00714 0.0
C1771 C 0.99837 0.61022 1.00677 0.0
C1772 C 0.04903 0.65741 1.01856 0.0
C1773 C 1.00904 0.64955 1.01259 0.0
Gd1774 Gd 0.93046 0.47212 1.00938 0.0
Gd1775 Gd 1.01407 0.51472 0.99423 0.0
N1776 N 0.08214 0.51786 1.00513 0.0
C1777 C 0.16153 0.52731 1.0184 0.0
C1778 C 0.10873 0.48559 1.00477 0.0
C1779 C 0.14856 0.48968 1.01158 0.0
H1780 H 0.0999 0.45686 0.99895 0.0
H1781 H 0.16944 0.4639 1.01138 0.0
H1782 H 0.83663 0.50288 0.99495 0.0
H1783 H 0.9674 0.60452 1.00223 0.0
H1784 H 0.76728 0.47504 0.99097 0.0
H1785 H 0.19242 0.53025 1.02354 0.0
H1786 H 0.17733 0.60442 1.02989 0.0
H1787 H 0.96712 0.41898 1.04453 0.0
H1788 H 0.05697 0.68779 1.02327 0.0
H1789 H 0.98633 0.67375 1.01253 0.0
H1790 H 0.77363 0.34124 1.01611 0.0
H1791 H 0.12825 0.66166 1.02967 0.0
H1792 H 0.88782 0.3175 1.05373 0.0
H1793 H 0.94904 0.35906 1.06149 0.0
N1794 N 0.91503 0.41493 1.02744 0.0
C1795 C 0.8799 0.3938 1.02384 0.0
C1796 C 0.93907 0.40324 1.04123 0.0
C1797 C 0.89503 0.34476 1.04636 0.0
C1798 C 0.92934 0.36835 1.05087 0.0
C1799 C 0.86937 0.35773 1.03291 0.0
H1800 H 0.82411 0.30908 1.03556 0.0
N1801 N 0.86167 0.44813 1.00584 0.0
C1802 C 0.85206 0.41118 1.01265 0.0
C1803 C 0.78174 0.41698 1.00254 0.0
C1804 C 0.81231 0.39391 1.01067 0.0
C1805 C 0.83116 0.47152 0.99858 0.0
C1806 C 0.79105 0.45628 0.99673 0.0
O1807 O 1.01419 0.53513 1.02344 0.0
O1808 O 0.97863 0.4829 1.03382 0.0
O1809 O 0.93818 0.53637 1.01618 0.0
O1810 O 0.88444 0.50132 1.02502 0.0
O1811 O 1.03008 0.43572 0.99792 0.0
O1812 O 0.97077 0.40783 1.0076 0.0
O1813 O 0.93865 0.46371 0.98054 0.0
O1814 O 1.00764 0.45763 0.97974 0.0
O1815 O 0.06453 0.5359 0.97857 0.0
O1816 O 1.00141 0.5464 0.97027 0.0
O1817 O 0.90154 0.50914 0.98335 0.0
O1818 O 0.95417 0.55218 0.97978 0.0
C1819 C 1.00447 0.51464 1.03737 0.0
C1820 C 1.01029 0.39886 1.00298 0.0
C1821 C 0.90403 0.55754 1.04215 0.0
C1822 C 0.87313 0.61126 1.05995 0.0
C1823 C 0.91656 0.55869 0.07307 0.0
C1824 C 0.91969 0.53897 1.05712 0.0
C1825 C 0.89373 0.59462 0.07453 0.0
C1826 C 0.8816 0.59396 1.04359 0.0
C1827 C 0.90416 0.53638 1.02536 0.0
C1828 C 0.80346 0.35566 1.01803 0.0
C1829 C 0.83216 0.33742 1.02911 0.0
H1830 H 0.75054 0.40535 1.00127 0.0
C1831 C 0.97222 0.45274 0.97237 0.0
C1832 C 0.91371 0.54446 0.97506 0.0
C1833 C 0.04904 0.5305 0.94932 0.0
C1834 C 0.0831 0.47752 0.93367 0.0
C1835 C 0.04919 0.53174 0.91801 0.0
C1836 C 1.03886 0.55026 0.93381 0.0
C1837 C 0.07202 0.49537 0.91794 0.0
C1838 C 0.0683 0.49276 0.94902 0.0
C1839 C 1.04016 0.5479 0.96609 0.0
H1840 H 0.92968 0.54477 0.08453 0.0
H1841 H 0.93351 0.50899 1.05667 0.0
H1842 H 0.88926 0.60668 0.08747 0.0
H1843 H 0.86817 0.60657 1.03198 0.0
H1844 H 1.04062 0.5462 0.90596 0.0
H1845 H 1.02285 0.57932 0.93394 0.0
H1846 H 0.08173 0.48151 0.90594 0.0
H1847 H 0.07607 0.47699 0.96096 0.0
C1848 C 0.76761 0.79004 0.25086 0.0
C1849 C 0.78489 0.86138 0.25695 0.0
C1850 C 0.79685 0.82148 0.25211 0.0
C1851 C 0.74289 0.8704 0.25878 0.0
C1852 C 0.72571 0.79856 0.25396 0.0
C1853 C 0.71336 0.83911 0.25721 0.0
N1854 N 0.78099 0.75061 0.24879 0.0
C1855 C 0.75428 0.71853 0.25068 0.0
C1856 C 0.69786 0.76576 0.25479 0.0
C1857 C 0.71235 0.72561 0.25351 0.0
Gd1858 Gd 0.87845 0.66375 0.26195 0.0
Gd1859 Gd 0.84993 0.74589 0.23949 0.0
N1860 N 0.83747 0.81153 0.25076 0.0
C1861 C 0.81559 0.89045 0.26067 0.0
C1862 C 0.86753 0.83933 0.25481 0.0
C1863 C 0.857 0.87908 0.26002 0.0
H1864 H 0.89953 0.83106 0.25389 0.0
H1865 H 0.88078 0.90122 0.26326 0.0
H1866 H 0.86053 0.57094 0.24464 0.0
H1867 H 0.76492 0.68741 0.25015 0.0
H1868 H 0.89581 0.50539 0.24035 0.0
H1869 H 0.80765 0.92139 0.26454 0.0
H1870 H 0.73306 0.90112 0.26215 0.0
H1871 H 0.93568 0.71551 0.29135 0.0
H1872 H 0.66546 0.77101 0.25725 0.0
H1873 H 0.69125 0.70005 0.25483 0.0
H1874 H 1.02524 0.52386 0.2698 0.0
H1875 H 0.68123 0.84623 0.25942 0.0
H1876 H 1.0437 0.64708 0.30309 0.0
H1877 H 1.00023 0.70822 0.30777 0.0
N1878 N 0.93977 0.65811 0.27872 0.0
C1879 C 0.96268 0.62391 0.27644 0.0
C1880 C 0.95242 0.6875 0.2903 0.0
C1881 C 1.01451 0.64968 0.29633 0.0
C1882 C 0.98992 0.68399 0.29913 0.0
C1883 C 1.00087 0.61891 0.28497 0.0
H1884 H 0.05348 0.57896 0.28835 0.0
N1885 N 0.90933 0.59865 0.25887 0.0
C1886 C 0.947 0.59319 0.26606 0.0
C1887 C 0.95016 0.52438 0.25441 0.0
C1888 C 0.96875 0.55619 0.26387 0.0
C1889 C 0.8908 0.56733 0.24993 0.0
C1890 C 0.91071 0.52984 0.2476 0.0
O1891 O 0.83456 0.76316 0.26978 0.0
O1892 O 0.86237 0.71184 0.2849 0.0
O1893 O 0.81825 0.66847 0.27363 0.0
O1894 O 0.85902 0.61619 0.27937 0.0
O1895 O 0.9241 0.76333 0.24561 0.0
O1896 O 0.94513 0.70352 0.25727 0.0
O1897 O 0.879 0.64892 0.23467 0.0
O1898 O 0.90117 0.7107 0.22701 0.0
O1899 O 0.87637 0.78277 0.21948 0.0
O1900 O 0.81253 0.76685 0.21763 0.0
O1901 O 0.82824 0.6349 0.23846 0.0
O1902 O 0.80813 0.69087 0.22399 0.0
C1903 C 0.84136 0.74715 0.28558 0.0
C1904 C 0.9574 0.74181 0.25171 0.0
C1905 C 0.81007 0.63423 0.30055 0.0
C1906 C 0.76259 0.60377 0.32152 0.0
C1907 C 0.81908 0.64877 0.33106 0.0
C1908 C 0.83228 0.65311 0.314 0.0
C1909 C 0.78492 0.62413 0.33486 0.0
C1910 C 0.77548 0.61042 0.30431 0.0
C1911 C 0.824 0.63464 0.28253 0.0
C1912 C 1.00774 0.55177 0.27157 0.0
C1913 C 1.02379 0.58311 0.28213 0.0
H1914 H 0.96577 0.49546 0.25245 0.0
C1915 C 0.89671 0.67222 0.22363 0.0
C1916 C 0.80279 0.64902 0.22508 0.0
C1917 C 0.83191 0.8346 0.21105 0.0
C1918 C 0.8553 0.90293 0.21972 0.0
C1919 C 0.78227 0.8891 0.2137 0.0
C1920 C 0.79122 0.8484 0.20979 0.0
C1921 C 0.8136 0.91578 0.21919 0.0
C1922 C 0.86357 0.86248 0.21481 0.0
C1923 C 0.84147 0.79085 0.21207 0.0
H1924 H 0.8364 0.66322 0.34147 0.0
H1925 H 0.86027 0.67011 0.31149 0.0
H1926 H 0.77781 0.61985 0.34837 0.0
H1927 H 0.76089 0.59485 0.29352 0.0
H1928 H 0.75074 0.89967 0.21311 0.0
H1929 H 0.76626 0.82737 0.20675 0.0
H1930 H 0.8048 0.9466 0.22266 0.0
H1931 H 0.89493 0.8515 0.2147 0.0
C1932 C 0.52182 0.4988 0.51626 0.0
C1933 C 0.45899 0.52976 0.52688 0.0
C1934 C 0.49634 0.53307 0.5178 0.0
C1935 C 0.44798 0.49244 0.53466 0.0
C1936 C 0.51068 0.46121 0.52387 0.0
C1937 C 0.47365 0.45825 0.53311 0.0
N1938 N 0.55887 0.5033 0.50797 0.0
C1939 C 0.58448 0.47047 0.50596 0.0
C1940 C 0.53725 0.42779 0.52207 0.0
C1941 C 0.5742 0.43244 0.51306 0.0
Gd1942 Gd 0.65488 0.61281 0.5085 0.0
Gd1943 Gd 0.56934 0.56674 0.49366 0.0
N1944 N 0.50729 0.56893 0.50974 0.0
C1945 C 0.4334 0.56393 0.52765 0.0
C1946 C 0.48142 0.60179 0.51019 0.0
C1947 C 0.44458 0.60005 0.51939 0.0
H1948 H 0.48777 0.629 0.50304 0.0
H1949 H 0.42434 0.62632 0.51978 0.0
H1950 H 0.74732 0.58993 0.49089 0.0
H1951 H 0.61336 0.47391 0.49936 0.0
H1952 H 0.81057 0.62576 0.48237 0.0
H1953 H 0.40482 0.56258 0.53452 0.0
H1954 H 0.41946 0.4896 0.54181 0.0
H1955 H 0.61933 0.66691 0.54362 0.0
H1956 H 0.52966 0.39835 0.52768 0.0
H1957 H 0.59493 0.40676 0.51166 0.0
H1958 H 0.79493 0.76118 0.50569 0.0
H1959 H 0.46462 0.42967 0.53913 0.0
H1960 H 0.68752 0.77843 0.54739 0.0
H1961 H 0.63177 0.73293 0.55768 0.0
N1962 N 0.66808 0.67313 0.52523 0.0
C1963 C 0.69992 0.69709 0.52002 0.0
C1964 C 0.64453 0.68526 0.53904 0.0
C1965 C 0.68255 0.74894 0.54119 0.0
C1966 C 0.65119 0.72328 0.54706 0.0
C1967 C 0.70778 0.73577 0.52766 0.0
H1968 H 0.74705 0.78971 0.52723 0.0
N1969 N 0.71953 0.64273 0.50219 0.0
C1970 C 0.72635 0.68145 0.50787 0.0
C1971 C 0.79167 0.68371 0.49304 0.0
C1972 C 0.76204 0.70347 0.50311 0.0
C1973 C 0.75002 0.6222 0.49367 0.0
C1974 C 0.78646 0.64229 0.48902 0.0
O1975 O 0.58357 0.54468 0.52195 0.0
O1976 O 0.60422 0.60358 0.53181 0.0
O1977 O 0.65758 0.54875 0.51519 0.0
O1978 O 0.70326 0.59235 0.52561 0.0
O1979 O 0.55482 0.64674 0.49716 0.0
O1980 O 0.6148 0.67592 0.5058 0.0
O1981 O 0.64897 0.61761 0.47992 0.0
O1982 O 0.58007 0.62297 0.47874 0.0
O1983 O 0.51558 0.53449 0.48421 0.0
O1984 O 0.56372 0.54722 0.46651 0.0
O1985 O 0.6805 0.57144 0.48294 0.0
O1986 O 0.62681 0.52877 0.47872 0.0
C1987 C 0.5847 0.56829 0.53568 0.0
C1988 C 0.57531 0.68427 0.50137 0.0
C1989 C 0.68902 0.53297 0.54185 0.0
C1990 C 0.71606 0.47632 0.55878 0.0
C1991 C 0.67106 0.52754 0.57205 0.0
C1992 C 0.6702 0.54934 0.5566 0.0
C1993 C 0.69364 0.49129 0.57319 0.0
C1994 C 0.71059 0.49615 0.54284 0.0
C1995 C 0.6894 0.55456 0.5254 0.0
C1996 C 0.76823 0.74339 0.50952 0.0
C1997 C 0.74109 0.75953 0.52182 0.0
H1998 H 0.81971 0.69932 0.48924 0.0
C1999 C 0.6157 0.62865 0.47177 0.0
C2000 C 0.66716 0.53647 0.47441 0.0
C2001 C 0.49496 0.55544 0.45831 0.0
C2002 C 0.45303 0.61579 0.45826 0.0
C2003 C 0.43433 0.5571 0.44012 0.0
C2004 C 0.46871 0.53592 0.4464 0.0
C2005 C 0.42651 0.59711 0.44595 0.0
C2006 C 0.4865 0.59468 0.46418 0.0
C2007 C 0.52594 0.53459 0.46823 0.0
H2008 H 0.65563 0.53965 0.58337 0.0
H2009 H 0.65496 0.57873 0.5562 0.0
H2010 H 0.69559 0.47687 0.58575 0.0
H2011 H 0.72525 0.48471 0.53127 0.0
H2012 H 0.41395 0.54271 0.43073 0.0
H2013 H 0.47415 0.50456 0.44238 0.0
H2014 H 0.401 0.61385 0.44039 0.0
H2015 H 0.506 0.60885 0.47389 0.0
C2016 C 0.45241 0.45932 0.27031 0.0
C2017 C 0.44853 0.52502 0.25623 0.0
C2018 C 0.43113 0.48639 0.26009 0.0
C2019 C 0.48958 0.53346 0.26087 0.0
C2020 C 0.4921 0.4694 0.27662 0.0
C2021 C 0.5115 0.50548 0.271 0.0
N2022 N 0.43219 0.42552 0.27586 0.0
C2023 C 0.44779 0.40326 0.28939 0.0
C2024 C 0.50994 0.4443 0.28921 0.0
C2025 C 0.48726 0.41161 0.29591 0.0
Gd2026 Gd 0.32445 0.32722 0.24505 0.0
Gd2027 Gd 0.3678 0.40997 0.26278 0.0
N2028 N 0.39136 0.47733 0.25612 0.0
C2029 C 0.42331 0.55516 0.24914 0.0
C2030 C 0.36633 0.50755 0.24976 0.0
C2031 C 0.38168 0.54674 0.24645 0.0
H2032 H 0.33351 0.50369 0.24874 0.0
H2033 H 0.36128 0.5705 0.24182 0.0
H2034 H 0.3828 0.24233 0.25107 0.0
H2035 H 0.43058 0.37765 0.29451 0.0
H2036 H 0.37589 0.17412 0.26397 0.0
H2037 H 0.43517 0.58554 0.24641 0.0
H2038 H 0.5038 0.56248 0.25756 0.0
H2039 H 0.23285 0.37345 0.25131 0.0
H2040 H 0.54037 0.45095 0.29436 0.0
H2041 H 0.50016 0.39281 0.30608 0.0
H2042 H 0.23539 0.16814 0.28263 0.0
H2043 H 0.54238 0.51325 0.27533 0.0
H2044 H 0.15051 0.28595 0.27366 0.0
H2045 H 0.16351 0.35483 0.26159 0.0
N2046 N 0.2591 0.31557 0.25742 0.0
C2047 C 0.25205 0.2767 0.2633 0.0
C2048 C 0.22753 0.3431 0.25631 0.0
C2049 C 0.18096 0.29371 0.26897 0.0
C2050 C 0.1882 0.33269 0.26221 0.0
C2051 C 0.21305 0.26522 0.26966 0.0
H2052 H 0.1776 0.21654 0.28154 0.0
N2053 N 0.32203 0.26095 0.25717 0.0
C2054 C 0.28483 0.24926 0.26379 0.0
C2055 C 0.31244 0.18282 0.27105 0.0
C2056 C 0.2791 0.20981 0.27081 0.0
C2057 C 0.35431 0.23432 0.25713 0.0
C2058 C 0.35017 0.19511 0.26416 0.0
O2059 O 0.36908 0.40853 0.23387 0.0
O2060 O 0.3824 0.34187 0.23212 0.0
O2061 O 0.30454 0.2749 0.22987 0.0
O2062 O 0.29802 0.33636 0.21955 0.0
O2063 O 0.31835 0.4398 0.24008 0.0
O2064 O 0.28611 0.384 0.22968 0.0
O2065 O 0.3 0.33587 0.27362 0.0
O2066 O 0.35929 0.35496 0.28406 0.0
O2067 O 0.30635 0.41789 0.27392 0.0
O2068 O 0.36167 0.44303 0.28644 0.0
O2069 O 0.40377 0.31133 0.2492 0.0
O2070 O 0.43173 0.37038 0.25904 0.0
C2071 C 0.38371 0.37756 0.22523 0.0
C2072 C 0.28798 0.42601 0.22875 0.0
C2073 C 0.32515 0.28666 0.20193 0.0
C2074 C 0.38804 0.25394 0.1943 0.0
C2075 C 0.33906 0.27287 0.1719 0.0
C2076 C 0.31235 0.28749 0.18463 0.0
C2077 C 0.37581 0.25372 0.17679 0.0
C2078 C 0.36486 0.2744 0.20625 0.0
C2079 C 0.29867 0.2973 0.21613 0.0
C2080 C 0.2403 0.19835 0.27722 0.0
C2081 C 0.20735 0.2259 0.27657 0.0
H2082 H 0.30918 0.15224 0.27626 0.0
C2083 C 0.32326 0.33612 0.2876 0.0
C2084 C 0.44082 0.33143 0.25424 0.0
C2085 C 0.30126 0.47865 0.29135 0.0
C2086 C 0.25423 0.51314 0.31061 0.0
C2087 C 0.30444 0.5528 0.2947 0.0
C2088 C 0.3202 0.51667 0.28789 0.0
C2089 C 0.27154 0.55112 0.3061 0.0
C2090 C 0.26777 0.47707 0.30265 0.0
C2091 C 0.32163 0.44037 0.28661 0.0
H2092 H 0.33017 0.27438 0.15848 0.0
H2093 H 0.2823 0.29912 0.18107 0.0
H2094 H 0.3929 0.23663 0.16721 0.0
H2095 H 0.37506 0.27391 0.21963 0.0
H2096 H 0.31946 0.58178 0.29204 0.0
H2097 H 0.34892 0.51849 0.28109 0.0
H2098 H 0.26133 0.57915 0.31231 0.0
H2099 H 0.25499 0.44775 0.30653 0.0
C2100 C 0.39293 0.70294 1.0219 0.0
C2101 C 0.32922 0.70936 1.0058 0.0
C2102 C 0.36456 0.68674 1.01042 0.0
C2103 C 0.32512 0.74995 1.01165 0.0
C2104 C 0.3875 0.74261 1.02884 0.0
C2105 C 0.35438 0.76666 1.0231 0.0
N2106 N 0.42389 0.67844 1.02745 0.0
C2107 C 0.4475 0.68992 1.04143 0.0
C2108 C 0.41432 0.7561 1.04194 0.0
C2109 C 0.44387 0.72928 1.04853 0.0
Gd2110 Gd 0.51494 0.57544 0.99332 0.0
Gd2111 Gd 0.43196 0.61466 1.01312 0.0
N2112 N 0.36955 0.64743 1.00511 0.0
C2113 C 0.29831 0.69004 0.99603 0.0
C2114 C 0.3387 0.62821 0.99597 0.0
C2115 C 0.30296 0.64912 0.99122 0.0
H2116 H 0.33979 0.59599 0.99327 0.0
H2117 H 0.2788 0.63345 0.98404 0.0
H2118 H 0.56334 0.64697 1.02073 0.0
H2119 H 0.47069 0.66951 1.04645 0.0
H2120 H 0.62588 0.65157 1.03779 0.0
H2121 H 0.27053 0.7062 0.99236 0.0
H2122 H 0.29869 0.76811 1.0079 0.0
H2123 H 0.49245 0.47571 0.99166 0.0
H2124 H 0.41132 0.78644 1.04756 0.0
H2125 H 0.46386 0.7389 1.05907 0.0
H2126 H 0.67794 0.51479 1.03833 0.0
H2127 H 0.35009 0.79748 1.02804 0.0
H2128 H 0.59306 0.40926 1.01348 0.0
H2129 H 0.52572 0.40984 0.99834 0.0
N2130 N 0.53999 0.51191 1.00277 0.0
C2131 C 0.57719 0.51233 1.01098 0.0
C2132 C 0.52166 0.47575 0.99818 0.0
C2133 C 0.57863 0.43825 1.01044 0.0
C2134 C 0.54054 0.43843 1.00197 0.0
C2135 C 0.59719 0.47544 1.01528 0.0
H2136 H 0.65031 0.44876 1.02795 0.0
N2137 N 0.57177 0.58476 1.01278 0.0
C2138 C 0.59329 0.54986 1.01639 0.0
C2139 C 0.64166 0.5883 1.03401 0.0
C2140 C 0.62911 0.5509 1.02683 0.0
C2141 C 0.58245 0.6205 1.02105 0.0
C2142 C 0.61774 0.62299 1.03142 0.0
O2143 O 0.42382 0.61393 0.98512 0.0
O2144 O 0.48925 0.62946 0.97902 0.0
O2145 O 0.57299 0.56495 0.98036 0.0
O2146 O 0.51621 0.54637 0.96795 0.0
O2147 O 0.40245 0.56513 0.98975 0.0
O2148 O 0.45837 0.53478 0.97859 0.0
O2149 O 0.50412 0.54339 1.02071 0.0
O2150 O 0.48604 0.59968 1.03378 0.0
O2151 O 0.41911 0.55549 1.02514 0.0
O2152 O 0.39035 0.61175 1.03447 0.0
O2153 O 0.52971 0.65341 0.99502 0.0
O2154 O 0.47498 0.67792 1.00981 0.0
C2155 C 0.45059 0.62944 0.97478 0.0
C2156 C 0.41615 0.5358 0.97788 0.0
C2157 C 0.56343 0.58285 0.95188 0.0
C2158 C 0.58605 0.65078 0.94544 0.0
C2159 C 0.57701 0.60108 0.92224 0.0
C2160 C 0.56603 0.57134 0.93443 0.0
C2161 C 0.58899 0.64032 0.92779 0.0
C2162 C 0.56839 0.62368 0.95661 0.0
C2163 C 0.55499 0.55471 0.96586 0.0
C2164 C 0.65011 0.51438 1.03051 0.0
C2165 C 0.63431 0.47676 1.02466 0.0
H2166 H 0.66849 0.59038 1.0423 0.0
C2167 C 0.50437 0.56327 1.0358 0.0
C2168 C 0.51165 0.68819 1.00236 0.0
C2169 C 0.35105 0.552 1.03648 0.0
C2170 C 0.30829 0.50061 1.05012 0.0
C2171 C 0.27655 0.5567 1.03452 0.0
C2172 C 0.31527 0.57301 1.03134 0.0
C2173 C 0.27295 0.52082 1.04399 0.0
C2174 C 0.34738 0.51479 1.0453 0.0
C2175 C 0.39149 0.57191 1.03535 0.0
H2176 H 0.57858 0.59324 0.90873 0.0
H2177 H 0.55981 0.5401 0.93036 0.0
H2178 H 0.60259 0.66134 0.91859 0.0
H2179 H 0.56458 0.63325 0.96983 0.0
H2180 H 0.24935 0.57339 1.03062 0.0
H2181 H 0.31681 0.60318 1.02583 0.0
H2182 H 0.2425 0.51024 1.04741 0.0
H2183 H 0.37476 0.49916 1.04987 0.0
C2184 C 0.13771 0.6203 0.77574 0.0
C2185 C 0.13923 0.55148 0.764 0.0
C2186 C 0.15577 0.59156 0.76518 0.0
C2187 C 0.10176 0.54235 0.77215 0.0
C2188 C 0.10176 0.61024 0.78511 0.0
C2189 C 0.08293 0.5718 0.78265 0.0
N2190 N 0.15706 0.65693 0.77788 0.0
C2191 C 0.14307 0.68383 0.79027 0.0
C2192 C 0.08675 0.63834 0.79721 0.0
C2193 C 0.10801 0.67493 0.80004 0.0
Gd2194 Gd 0.25715 0.75247 0.74393 0.0
Gd2195 Gd 0.21452 0.67063 0.75949 0.0
N2196 N 0.19166 0.60157 0.75735 0.0
C2197 C 0.16159 0.52139 0.75523 0.0
C2198 C 0.2145 0.57156 0.74952 0.0
C2199 C 0.19965 0.53141 0.74812 0.0
H2200 H 0.24531 0.57747 0.7451 0.0
H2201 H 0.21795 0.50807 0.74181 0.0
H2202 H 0.20173 0.83976 0.74837 0.0
H2203 H 0.1568 0.71358 0.79209 0.0
H2204 H 0.2148 0.91222 0.75496 0.0
H2205 H 0.15028 0.49015 0.75428 0.0
H2206 H 0.08797 0.51215 0.77094 0.0
H2207 H 0.34588 0.70251 0.75452 0.0
H2208 H 0.05935 0.63171 0.80468 0.0
H2209 H 0.09682 0.69687 0.80946 0.0
H2210 H 0.35749 0.91756 0.7714 0.0
H2211 H 0.05482 0.56393 0.78942 0.0
H2212 H 0.43265 0.7916 0.77279 0.0
H2213 H 0.415 0.71995 0.7652 0.0
N2214 N 0.32294 0.76353 0.75661 0.0
C2215 C 0.3327 0.80366 0.76009 0.0
C2216 C 0.35247 0.73391 0.7579 0.0
C2217 C 0.40194 0.78424 0.76812 0.0
C2218 C 0.39205 0.74371 0.7639 0.0
C2219 C 0.37226 0.81485 0.76615 0.0
H2220 H 0.41124 0.86525 0.77469 0.0
N2221 N 0.26374 0.82153 0.75278 0.0
C2222 C 0.30201 0.83329 0.75846 0.0
C2223 C 0.27889 0.9033 0.76117 0.0
C2224 C 0.31062 0.87461 0.76259 0.0
C2225 C 0.2323 0.84908 0.75222 0.0
C2226 C 0.23955 0.89036 0.75611 0.0
O2227 O 0.20652 0.67666 0.73066 0.0
O2228 O 0.19806 0.74454 0.73086 0.0
O2229 O 0.2844 0.79852 0.72736 0.0
O2230 O 0.27607 0.73678 0.71772 0.0
O2231 O 0.25309 0.64181 0.73357 0.0
O2232 O 0.29759 0.69335 0.731 0.0
O2233 O 0.27378 0.75953 0.77345 0.0
O2234 O 0.22417 0.71929 0.78385 0.0
O2235 O 0.27791 0.68266 0.76632 0.0
O2236 O 0.24697 0.62653 0.77503 0.0
O2237 O 0.17756 0.76917 0.74834 0.0
O2238 O 0.14914 0.70943 0.75693 0.0
C2239 C 0.1941 0.70997 0.72293 0.0
C2240 C 0.28964 0.65355 0.72586 0.0
C2241 C 0.25182 0.79042 0.70129 0.0
C2242 C 0.1993 0.84035 0.69873 0.0
C2243 C 0.22912 0.80935 0.67281 0.0
C2244 C 0.25675 0.78802 0.68334 0.0
C2245 C 0.20133 0.83689 0.6804 0.0
C2246 C 0.21876 0.81159 0.70832 0.0
C2247 C 0.28108 0.77508 0.71374 0.0
C2248 C 0.35036 0.88594 0.76816 0.0
C2249 C 0.38098 0.85612 0.77006 0.0
H2250 H 0.28431 0.93534 0.76421 0.0
C2251 C 0.25351 0.7481 0.78728 0.0
C2252 C 0.14012 0.74905 0.7529 0.0
C2253 C 0.30206 0.65069 0.79205 0.0
C2254 C 0.36146 0.63033 0.80943 0.0
C2255 C 0.30385 0.66667 0.82263 0.0
C2256 C 0.28225 0.66455 0.80705 0.0
C2257 C 0.34368 0.65098 0.82373 0.0
C2258 C 0.34166 0.63407 0.79324 0.0
C2259 C 0.28068 0.64874 0.77535 0.0
H2260 H 0.23133 0.80693 0.65889 0.0
H2261 H 0.28142 0.77027 0.67767 0.0
H2262 H 0.18407 0.85674 0.67197 0.0
H2263 H 0.21445 0.813 0.72212 0.0
H2264 H 0.28917 0.67915 0.83406 0.0
H2265 H 0.25043 0.67411 0.80677 0.0
H2266 H 0.35814 0.65125 0.83639 0.0
H2267 H 0.35528 0.62121 0.78169 0.0
C2268 C 0.20847 0.37266 0.52064 0.0
C2269 C 0.27298 0.36705 0.50528 0.0
C2270 C 0.23732 0.3893 0.50967 0.0
C2271 C 0.27721 0.32646 0.51097 0.0
C2272 C 0.21405 0.33309 0.5275 0.0
C2273 C 0.2477 0.30945 0.52205 0.0
N2274 N 0.17679 0.39669 0.52581 0.0
C2275 C 0.15269 0.38494 0.53943 0.0
C2276 C 0.1868 0.31932 0.54023 0.0
C2277 C 0.15653 0.34575 0.54651 0.0
Gd2278 Gd 0.08463 0.49073 0.48891 0.0
Gd2279 Gd 0.169 0.46021 0.51149 0.0
N2280 N 0.23243 0.42874 0.50469 0.0
C2281 C 0.30414 0.38686 0.49602 0.0
C2282 C 0.26347 0.44856 0.49619 0.0
C2283 C 0.29955 0.42802 0.49165 0.0
H2284 H 0.26155 0.4808 0.49359 0.0
H2285 H 0.32388 0.44403 0.48489 0.0
H2286 H 1.0044 0.43376 0.5049 0.0
H2287 H 0.12878 0.4048 0.544 0.0
H2288 H 0.9343 0.44646 0.51551 0.0
H2289 H 0.33215 0.37097 0.49252 0.0
H2290 H 0.30398 0.30859 0.50744 0.0
H2291 H 0.13583 0.58021 0.4982 0.0
H2292 H 0.18992 0.28907 0.54579 0.0
H2293 H 0.13606 0.33593 0.55672 0.0
H2294 H 0.92073 0.59264 0.51425 0.0
H2295 H 0.25214 0.27869 0.52692 0.0
H2296 H 1.04347 0.67168 0.5057 0.0
H2297 H 0.11663 0.65269 0.50208 0.0
N2298 N 0.07391 0.55861 0.49815 0.0
C2299 C 1.03348 0.56823 0.50091 0.0
C2300 C 0.10373 0.58813 0.4991 0.0
C2301 C 0.05154 0.63988 0.50352 0.0
C2302 C 0.09294 0.62925 0.50154 0.0
C2303 C 1.02135 0.60911 0.50378 0.0
H2304 H 0.97008 0.649 0.50982 0.0
N2305 N 1.01865 0.49691 0.50132 0.0
C2306 C 1.00508 0.53632 0.50293 0.0
C2307 C 0.93901 0.5119 0.51296 0.0
C2308 C 0.96478 0.54474 0.50862 0.0
C2309 C 0.99386 0.46485 0.50587 0.0
C2310 C 0.95389 0.47191 0.51189 0.0
O2311 O 0.18171 0.45987 0.48386 0.0
O2312 O 0.11858 0.43894 0.47675 0.0
O2313 O 0.04997 0.46578 0.46765 0.0
O2314 O 0.06143 0.53016 0.46811 0.0
O2315 O 0.19695 0.51113 0.48858 0.0
O2316 O 0.14034 0.5322 0.47416 0.0
O2317 O 0.07087 0.50824 0.51899 0.0
O2318 O 0.12156 0.47907 0.53418 0.0
O2319 O 0.17741 0.51941 0.52434 0.0
O2320 O 0.21287 0.46521 0.53205 0.0
O2321 O 0.06899 0.41586 0.49398 0.0
O2322 O 0.1272 0.39542 0.50758 0.0
C2323 C 0.15679 0.44337 0.47285 0.0
C2324 C 0.18246 0.53644 0.47533 0.0
C2325 C 0.99421 0.50737 0.46147 0.0
C2326 C 0.92948 0.47624 0.47063 0.0
C2327 C 0.936 0.55076 0.46773 0.0
C2328 C 0.97685 0.54653 0.46248 0.0
C2329 C 0.91293 0.51619 0.47239 0.0
C2330 C 0.96954 0.47297 0.46428 0.0
C2331 C 1.03884 0.50103 0.46166 0.0
C2332 C 0.95196 0.58559 0.51036 0.0
C2333 C 0.98008 0.6177 0.5078 0.0
H2334 H 0.90786 0.5171 0.51745 0.0
C2335 C 0.08705 0.50142 0.53469 0.0
C2336 C 0.08977 0.38311 0.50101 0.0
C2337 C 0.24601 0.52864 0.5351 0.0
C2338 C 0.28288 0.58512 0.54865 0.0
C2339 C 0.32074 0.53036 0.53457 0.0
C2340 C 0.28394 0.51059 0.53076 0.0
C2341 C 0.32021 0.56707 0.54372 0.0
C2342 C 0.24559 0.56692 0.54345 0.0
C2343 C 0.20779 0.50473 0.53377 0.0
H2344 H 0.92272 0.58101 0.46893 0.0
H2345 H 0.99539 0.5737 0.4603 0.0
H2346 H 0.88197 0.52098 0.47702 0.0
H2347 H 0.98298 0.44314 0.46215 0.0
H2348 H 0.34961 0.5158 0.53138 0.0
H2349 H 0.28563 0.48013 0.52538 0.0
H2350 H 0.34894 0.5805 0.54791 0.0
H2351 H 0.21657 0.58059 0.54722 0.0
C2352 C 0.43943 0.606 0.37162 0.0
C2353 C 0.42183 0.54166 0.38498 0.0
C2354 C 0.41293 0.58292 0.38126 0.0
C2355 C 0.46063 0.52583 0.38058 0.0
C2356 C 0.47692 0.58951 0.36579 0.0
C2357 C 0.48831 0.54987 0.37101 0.0
N2358 N 0.42622 0.64326 0.36648 0.0
C2359 C 0.44814 0.66506 0.35457 0.0
C2360 C 0.50079 0.61272 0.35437 0.0
C2361 C 0.48591 0.65035 0.34847 0.0
Gd2362 Gd 0.33457 0.75649 0.40189 0.0
Gd2363 Gd 0.37114 0.67201 0.38219 0.0
N2364 N 0.37591 0.59948 0.38485 0.0
C2365 C 0.39053 0.51707 0.39186 0.0
C2366 C 0.34386 0.57429 0.38935 0.0
C2367 C 0.35089 0.53313 0.39345 0.0
H2368 H 0.31283 0.58586 0.3902 0.0
H2369 H 0.32574 0.51385 0.39775 0.0
H2370 H 0.38828 0.83656 0.38573 0.0
H2371 H 0.43747 0.6947 0.35034 0.0
H2372 H 0.37326 0.90618 0.37529 0.0
H2373 H 0.39593 0.48515 0.39491 0.0
H2374 H 0.46862 0.49451 0.38371 0.0
H2375 H 0.24334 0.70166 0.39654 0.0
H2376 H 0.52995 0.60133 0.34961 0.0
H2377 H 0.50372 0.66826 0.33939 0.0
H2378 H 0.22562 0.91259 0.37423 0.0
H2379 H 0.51741 0.53685 0.367 0.0
H2380 H 0.15031 0.78898 0.38478 0.0
H2381 H 0.1711 0.71797 0.39132 0.0
N2382 N 0.26495 0.76312 0.3932 0.0
C2383 C 0.25413 0.80238 0.38909 0.0
C2384 C 0.23557 0.73297 0.39381 0.0
C2385 C 0.18248 0.78221 0.38718 0.0
C2386 C 0.19412 0.74205 0.39079 0.0
C2387 C 0.21259 0.81287 0.38605 0.0
H2388 H 0.1708 0.86167 0.37893 0.0
N2389 N 0.32519 0.81962 0.38813 0.0
C2390 C 0.28517 0.83139 0.38636 0.0
C2391 C 0.30743 0.8983 0.37676 0.0
C2392 C 0.27529 0.87109 0.38061 0.0
C2393 C 0.35667 0.8457 0.38408 0.0
C2394 C 0.34825 0.88539 0.37832 0.0
O2395 O 0.41145 0.686 0.40472 0.0
O2396 O 0.3593 0.71056 0.41913 0.0
O2397 O 0.35897 0.79984 0.42021 0.0
O2398 O 0.29437 0.78258 0.42148 0.0
O2399 O 0.33055 0.64231 0.40774 0.0
O2400 O 0.29687 0.6985 0.41729 0.0
O2401 O 0.32216 0.76557 0.37172 0.0
O2402 O 0.36435 0.72037 0.35848 0.0
O2403 O 0.30727 0.69034 0.38038 0.0
O2404 O 0.33633 0.65165 0.35993 0.0
O2405 O 0.4113 0.77243 0.39781 0.0
O2406 O 0.4336 0.71791 0.3821 0.0
C2407 C 0.3977 0.70247 0.41873 0.0
C2408 C 0.29979 0.65625 0.41877 0.0
C2409 C 0.31114 0.85135 0.42735 0.0
C2410 C 0.34429 0.9138 0.43524 0.0
C2411 C 0.27325 0.90237 0.44345 0.0
C2412 C 0.27502 0.86341 0.43587 0.0
C2413 C 0.309 0.92646 0.44414 0.0
C2414 C 0.34202 0.88011 0.42437 0.0
C2415 C 0.32261 0.80821 0.42646 0.0
C2416 C 0.23382 0.88206 0.37846 0.0
C2417 C 0.20258 0.85306 0.38119 0.0
H2418 H 0.30108 0.92909 0.3723 0.0
C2419 C 0.33765 0.75208 0.3568 0.0
C2420 C 0.44474 0.75482 0.38948 0.0
C2421 C 0.26299 0.65919 0.35811 0.0
C2422 C 0.20951 0.60753 0.35182 0.0
C2423 C 0.21044 0.67309 0.33662 0.0
C2424 C 0.24663 0.68374 0.34509 0.0
C2425 C 0.19183 0.63557 0.33995 0.0
C2426 C 0.24456 0.62108 0.36148 0.0
C2427 C 0.30336 0.67124 0.36529 0.0
H2428 H 0.24616 0.91157 0.45058 0.0
H2429 H 0.25 0.8419 0.43789 0.0
H2430 H 0.3101 0.95235 0.45269 0.0
H2431 H 0.36992 0.87126 0.41766 0.0
H2432 H 0.19816 0.69287 0.32664 0.0
H2433 H 0.26329 0.70997 0.3407 0.0
H2434 H 0.16543 0.62799 0.332 0.0
H2435 H 0.25974 0.60145 0.37065 0.0
C2436 C 0.20178 0.69462 0.11855 0.0
C2437 C 0.27201 0.69705 0.12917 0.0
C2438 C 0.23212 0.67941 0.12923 0.0
C2439 C 0.28019 0.73113 0.11868 0.0
C2440 C 0.20994 0.72881 0.10788 0.0
C2441 C 0.2491 0.7472 0.10817 0.0
N2442 N 0.16425 0.67621 0.11863 0.0
C2443 C 0.13369 0.69053 0.10792 0.0
C2444 C 0.17855 0.74359 0.09719 0.0
C2445 C 0.14027 0.72423 0.09719 0.0
Gd2446 Gd 0.06887 0.58273 0.15449 0.0
Gd2447 Gd 0.15488 0.6201 0.138 0.0
N2448 N 0.22272 0.64753 0.13974 0.0
C2449 C 0.30231 0.68059 0.13995 0.0
C2450 C 0.25244 0.63177 0.15044 0.0
C2451 C 0.29239 0.64791 0.15068 0.0
H2452 H 0.24651 0.60625 0.15874 0.0
H2453 H 0.31556 0.63499 0.15915 0.0
H2454 H 0.98467 0.63225 0.13999 0.0
H2455 H 0.10302 0.67802 0.10845 0.0
H2456 H 0.91592 0.61432 0.12824 0.0
H2457 H 0.33325 0.6932 0.14026 0.0
H2458 H 0.31039 0.74545 0.11872 0.0
H2459 H 0.12876 0.4971 0.14861 0.0
H2460 H 0.18353 0.7699 0.08893 0.0
H2461 H 0.11551 0.73564 0.08912 0.0
H2462 H 0.91985 0.46787 0.12183 0.0
H2463 H 0.25574 0.77366 0.1002 0.0
H2464 H 0.04859 0.40066 0.13185 0.0
H2465 H 0.11761 0.42504 0.14095 0.0
N2466 N 0.06681 0.51505 0.1433 0.0
C2467 C 1.0282 0.50186 0.13853 0.0
C2468 C 0.09849 0.48769 0.14442 0.0
C2469 C 0.05317 0.43269 0.13515 0.0
C2470 C 0.09225 0.44639 0.14018 0.0
C2471 C 1.0206 0.46052 0.13415 0.0
H2472 H 0.97466 0.41669 0.12526 0.0
N2473 N 1.00575 0.57089 0.1402 0.0
C2474 C 0.99678 0.53072 0.13679 0.0
C2475 C 0.92835 0.54951 0.12737 0.0
C2476 C 0.9578 0.51902 0.13031 0.0
C2477 C 0.97753 0.60078 0.13702 0.0
C2478 C 0.93844 0.59057 0.13055 0.0
O2479 O 0.15199 0.62881 0.16683 0.0
O2480 O 0.08397 0.63815 0.16898 0.0
O2481 O 1.01647 0.5918 0.17088 0.0
O2482 O 0.05673 0.54037 0.17567 0.0
O2483 O 0.18411 0.57631 0.16216 0.0
O2484 O 0.12585 0.54669 0.17168 0.0
O2485 O 0.06074 0.56882 0.12451 0.0
O2486 O 0.11023 0.60738 0.1128 0.0
O2487 O 0.14214 0.55776 0.13043 0.0
O2488 O 0.20106 0.58744 0.12348 0.0
O2489 O 0.05389 0.65964 0.14909 0.0
O2490 O 0.11573 0.68532 0.14141 0.0
C2491 C 0.12016 0.64213 0.17549 0.0
C2492 C 0.16841 0.54717 0.17326 0.0
C2493 C 0.98448 0.52852 0.17698 0.0
C2494 C 0.91549 0.53544 0.18569 0.0
C2495 C 0.94857 0.46957 0.18865 0.0
C2496 C 0.98537 0.48774 0.1828 0.0
C2497 C 0.91384 0.49452 0.19127 0.0
C2498 C 0.94626 0.54659 0.17427 0.0
C2499 C 1.02053 0.5561 0.17809 0.0
C2500 C 0.94983 0.47757 0.12659 0.0
C2501 C 0.98109 0.44842 0.12854 0.0
H2502 H 0.898 0.54175 0.1224 0.0
C2503 C 0.07759 0.58215 0.11009 0.0
C2504 C 0.07565 0.69535 0.14475 0.0
C2505 C 0.17874 0.53186 0.10593 0.0
C2506 C 0.20795 0.47473 0.08961 0.0
C2507 C 0.16527 0.52577 0.07514 0.0
C2508 C 0.163 0.54819 0.09049 0.0
C2509 C 0.18721 0.48916 0.07467 0.0
C2510 C 0.2004 0.49484 0.10545 0.0
C2511 C 0.17775 0.55443 0.12242 0.0
H2512 H 0.94887 0.43859 0.19359 0.0
H2513 H 1.01422 0.47147 0.18408 0.0
H2514 H 0.88921 0.48411 0.1996 0.0
H2515 H 0.94496 0.57742 0.1691 0.0
H2516 H 0.15196 0.53791 1.06335 0.0
H2517 H 0.14969 0.57834 0.09002 0.0
H2518 H 0.19057 0.47433 1.06219 0.0
H2519 H 0.21384 0.48363 0.11733 0.0
C2520 C 0.13645 0.45729 0.87479 0.0
C2521 C 0.14088 0.52443 0.88826 0.0
C2522 C 0.15671 0.48455 0.88565 0.0
C2523 C 0.1033 0.53543 0.88055 0.0
C2524 C 0.09996 0.46921 0.86616 0.0
C2525 C 0.08255 0.50763 0.86972 0.0
N2526 N 0.15602 0.42201 0.87046 0.0
C2527 C 0.14377 0.40041 0.85608 0.0
C2528 C 0.08442 0.4441 0.8529 0.0
C2529 C 0.1072 0.41031 0.84744 0.0
Gd2530 Gd 0.25342 0.32246 0.9027 0.0
Gd2531 Gd 0.21927 0.40804 0.88438 0.0
N2532 N 0.19498 0.4745 0.8913 0.0
C2533 C 0.16455 0.55306 0.8975 0.0
C2534 C 0.21986 0.50421 0.89839 0.0
C2535 C 0.20463 0.54311 0.90229 0.0
H2536 H 0.25244 0.49973 0.89981 0.0
H2537 H 0.22456 0.56605 0.90816 0.0
H2538 H 0.20732 0.2325 0.89304 0.0
H2539 H 0.16205 0.37484 0.8516 0.0
H2540 H 0.22912 0.16402 0.88249 0.0
H2541 H 0.15332 0.58378 0.8999 0.0
H2542 H 0.09079 0.56586 0.88241 0.0
H2543 H 0.32891 0.3901 0.89084 0.0
H2544 H 0.05655 0.45221 0.84595 0.0
H2545 H 0.09693 0.39219 0.83644 0.0
H2546 H 0.3718 0.18241 0.868 0.0
H2547 H 0.05442 0.51714 0.8633 0.0
H2548 H 0.42693 0.31884 0.86976 0.0
H2549 H 0.39859 0.38594 0.87861 0.0
N2550 N 0.3163 0.32658 0.88784 0.0
C2551 C 0.33163 0.28899 0.8832 0.0
C2552 C 0.34 0.36094 0.88643 0.0
C2553 C 0.39592 0.32052 0.87485 0.0
C2554 C 0.3799 0.35852 0.87973 0.0
C2555 C 0.37175 0.28514 0.87652 0.0
H2556 H 0.41728 0.24278 0.86656 0.0
N2557 N 0.26642 0.25934 0.8895 0.0
C2558 C 0.30617 0.25429 0.88426 0.0
C2559 C 0.29185 0.18308 0.87789 0.0
C2560 C 0.31985 0.21589 0.8783 0.0
C2561 C 0.23856 0.22794 0.88867 0.0
C2562 C 0.25095 0.18919 0.88289 0.0
O2563 O 0.21546 0.41398 0.91314 0.0
O2564 O 0.20069 0.34789 0.91665 0.0
O2565 O 0.24069 0.27992 0.92302 0.0
O2566 O 0.30246 0.30306 0.92034 0.0
O2567 O 0.26816 0.43507 0.90794 0.0
O2568 O 0.29358 0.37738 0.91933 0.0
O2569 O 0.25152 0.30473 0.8725 0.0
O2570 O 0.24891 0.36708 0.86139 0.0
O2571 O 0.27833 0.4242 0.87279 0.0
O2572 O 0.22009 0.44503 0.8617 0.0
O2573 O 0.17747 0.30568 0.89951 0.0
O2574 O 0.15522 0.36333 0.88625 0.0
C2575 C 0.20261 0.38432 0.92302 0.0
C2576 C 0.29537 0.41964 0.92012 0.0
C2577 C 0.29425 0.23231 0.92544 0.0
C2578 C 0.27379 0.16281 0.92983 0.0
C2579 C 0.34638 0.17971 0.92832 0.0
C2580 C 0.33597 0.2213 0.92661 0.0
C2581 C 0.31511 0.15038 0.93081 0.0
C2582 C 0.26467 0.2017 0.92421 0.0
C2583 C 0.27937 0.27459 0.92675 0.0
C2584 C 0.36045 0.21185 0.87239 0.0
C2585 C 0.38631 0.24632 0.87152 0.0
H2586 H 0.30124 0.15329 0.87319 0.0
C2587 C 0.25799 0.32764 0.85856 0.0
C2588 C 0.14362 0.3256 0.89264 0.0
C2589 C 0.27629 0.4884 0.85804 0.0
C2590 C 0.3286 0.53156 0.84527 0.0
C2591 C 0.26443 0.56145 0.85518 0.0
C2592 C 0.25043 0.52281 0.85966 0.0
C2593 C 0.30332 0.56582 0.84807 0.0
C2594 C 0.3157 0.49296 0.85097 0.0
C2595 C 0.2601 0.44728 0.8612 0.0
H2596 H 0.37838 0.17094 0.92949 0.0
H2597 H 0.35996 0.24447 0.92672 0.0
H2598 H 0.32309 0.12001 0.93519 0.0
H2599 H 0.23228 0.20969 0.92312 0.0
H2600 H 0.24455 0.58781 0.85661 0.0
H2601 H 0.21887 0.52001 0.86386 0.0
H2602 H 0.31297 0.5959 0.84417 0.0
H2603 H 0.33507 0.46639 0.84892 0.0
C2604 C 0.37877 0.38145 0.62215 0.0
C2605 C 0.31698 0.37727 0.6393 0.0
C2606 C 0.35274 0.39836 0.63403 0.0
C2607 C 0.31057 0.33667 0.63372 0.0
C2608 C 0.37038 0.34243 0.61503 0.0
C2609 C 0.3373 0.31922 0.62153 0.0
N2610 N 0.40953 0.40555 0.61612 0.0
C2611 C 0.43064 0.39378 0.60162 0.0
C2612 C 0.39398 0.32905 0.60102 0.0
C2613 C 0.42339 0.35538 0.59396 0.0
Gd2614 Gd 0.51153 0.50338 0.65104 0.0
Gd2615 Gd 0.42659 0.4641 0.63332 0.0
N2616 N 0.35958 0.43787 0.63842 0.0
C2617 C 0.28762 0.3986 0.64897 0.0
C2618 C 0.32886 0.46002 0.64601 0.0
C2619 C 0.29293 0.44061 0.65177 0.0
H2620 H 0.33147 0.49281 0.64742 0.0
H2621 H 0.26915 0.45817 0.65816 0.0
H2622 H 0.59137 0.44406 0.63722 0.0
H2623 H 0.45427 0.41281 0.59616 0.0
H2624 H 0.65907 0.45418 0.62364 0.0
H2625 H 0.25969 0.38363 0.65333 0.0
H2626 H 0.28384 0.31947 0.63795 0.0
H2627 H 0.46121 0.59329 0.64499 0.0
H2628 H 0.38853 0.29931 0.5951 0.0
H2629 H 0.441 0.3459 0.58277 0.0
H2630 H 0.66832 0.59931 0.6146 0.0
H2631 H 0.33087 0.28875 0.61654 0.0
H2632 H 0.54932 0.68071 0.62688 0.0
H2633 H 0.47916 0.66404 0.63711 0.0
N2634 N 0.52073 0.56954 0.6394 0.0
C2635 C 0.56012 0.57841 0.63422 0.0
C2636 C 0.49202 0.59987 0.64065 0.0
C2637 C 0.54188 0.64953 0.63054 0.0
C2638 C 0.50212 0.64018 0.6362 0.0
C2639 C 0.57126 0.61839 0.62921 0.0
H2640 H 0.61997 0.65636 0.61868 0.0
N2641 N 0.57563 0.50733 0.63669 0.0
C2642 C 0.58784 0.54606 0.63215 0.0
C2643 C 0.65263 0.51966 0.62176 0.0
C2644 C 0.62678 0.55317 0.62473 0.0
C2645 C 0.60059 0.47455 0.63359 0.0
C2646 C 0.6393 0.48022 0.62602 0.0
O2647 O 0.42902 0.45642 0.66171 0.0
O2648 O 0.49713 0.44791 0.66622 0.0
O2649 O 0.56855 0.51605 0.66428 0.0
O2650 O 0.51135 0.53789 0.67515 0.0
O2651 O 0.39743 0.50433 0.65879 0.0
O2652 O 0.45324 0.54076 0.66649 0.0
O2653 O 0.51127 0.52384 0.62163 0.0
O2654 O 0.47619 0.47283 0.60973 0.0
O2655 O 0.43419 0.52846 0.62804 0.0
O2656 O 0.38273 0.49348 0.6164 0.0
O2657 O 0.52529 0.42491 0.64784 0.0
O2658 O 0.46765 0.40012 0.6346 0.0
C2659 C 0.4594 0.44342 0.67118 0.0
C2660 C 0.41131 0.53647 0.66907 0.0
C2661 C 0.56258 0.51673 0.694 0.0
C2662 C 0.59368 0.46142 0.7093 0.0
C2663 C 0.57087 0.52135 0.72505 0.0
C2664 C 0.55867 0.53914 0.70942 0.0
C2665 C 0.58958 0.48271 0.725 0.0
C2666 C 0.57707 0.4768 0.69431 0.0
C2667 C 0.55076 0.53335 0.67746 0.0
C2668 C 0.63835 0.59324 0.62019 0.0
C2669 C 0.61079 0.62576 0.62253 0.0
H2670 H 0.68272 0.52386 0.61601 0.0
C2671 C 0.50291 0.50406 0.60714 0.0
C2672 C 0.50541 0.38985 0.64106 0.0
C2673 C 0.40334 0.55478 0.60261 0.0
C2674 C 0.37892 0.61602 0.58778 0.0
C2675 C 0.42526 0.56795 0.57341 0.0
C2676 C 0.42278 0.54172 0.58748 0.0
C2677 C 0.40367 0.60487 0.57344 0.0
C2678 C 0.38252 0.59222 0.60289 0.0
C2679 C 0.40144 0.52909 0.61799 0.0
H2680 H 0.56687 0.53815 0.73698 0.0
H2681 H 0.5459 0.56976 0.70936 0.0
H2682 H 0.60171 0.46997 0.73687 0.0
H2683 H 0.57943 0.45872 0.68248 0.0
H2684 H 0.44278 0.55878 0.56222 0.0
H2685 H 0.43621 0.5116 0.58652 0.0
H2686 H 0.40387 0.62248 0.56161 0.0
H2687 H 0.36651 0.60081 0.61458 0.0
C2688 C 0.24331 0.40661 0.45141 0.0
C2689 C 0.24782 0.43717 0.43831 0.0
C2690 C 0.17746 0.45987 0.44347 0.0
C2691 C 0.17429 0.43001 0.45661 0.0
N2692 N 0.19622 0.36748 0.4694 0.0
N2693 N 0.21837 0.48943 0.42031 0.0
C2694 C 0.20439 0.40002 0.45884 0.0
C2695 C 0.21445 0.46284 0.43383 0.0
N2696 N 0.27631 0.38361 0.45642 0.0
N2697 N 0.14551 0.4862 0.44094 0.0
H2698 H 0.24628 0.4936 0.41385 0.0
H2699 H 0.19425 0.50669 0.41531 0.0
H2700 H 0.11751 0.48206 0.44729 0.0
H2701 H 0.14677 0.51184 0.433 0.0
H2702 H 0.27477 0.35917 0.46497 0.0
H2703 H 0.30637 0.39097 0.453 0.0
H2704 H 0.21576 0.34268 0.4712 0.0
H2705 H 0.16773 0.36424 0.47547 0.0
C2706 C 0.95135 0.90932 0.68626 0.0
C2707 C 0.92485 0.93831 0.6778 0.0
C2708 C 0.87078 0.92378 0.69647 0.0
C2709 C 0.89668 0.89813 0.70647 0.0
N2710 N 0.95419 0.85183 0.70612 0.0
N2711 N 0.85631 0.9495 0.66791 0.0
C2712 C 0.93462 0.88553 0.69975 0.0
C2713 C 0.8827 0.93281 0.6796 0.0
N2714 N 0.99229 0.90658 0.68275 0.0
N2715 N 0.8438 0.94924 0.70431 0.0
H2716 H 0.86709 0.96132 0.6562 0.0
H2717 H 0.82448 0.94892 0.66971 0.0
H2718 H 0.84837 0.95654 0.71729 0.0
H2719 H 0.82623 0.97044 0.69745 0.0
H2720 H 1.01258 0.89055 0.69065 0.0
H2721 H 1.00594 0.91845 0.67179 0.0
H2722 H 0.98069 0.83959 0.70057 0.0
H2723 H 0.94117 0.83365 0.71573 0.0
C2724 C 0.36721 0.67996 0.95552 0.0
C2725 C 0.35874 0.65193 0.94167 0.0
C2726 C 0.42661 0.6218 0.94509 0.0
C2727 C 0.43379 0.64839 0.95933 0.0
N2728 N 0.41777 0.70925 0.97524 0.0
N2729 N 0.38169 0.60102 0.92132 0.0
C2730 C 0.4067 0.68065 0.96308 0.0
C2731 C 0.38895 0.62422 0.93582 0.0
N2732 N 0.33728 0.7063 0.96106 0.0
N2733 N 0.45522 0.59288 0.94123 0.0
H2734 H 0.35324 0.60083 0.91495 0.0
H2735 H 0.40386 0.58297 0.91533 0.0
H2736 H 0.48397 0.59382 0.94715 0.0
H2737 H 0.45066 0.56872 0.93257 0.0
H2738 H 0.34178 0.73001 0.9699 0.0
H2739 H 0.30651 0.70313 0.95739 0.0
H2740 H 0.40084 0.73515 0.97844 0.0
H2741 H 0.44583 0.7077 0.9817 0.0
C2742 C 0.63843 0.23095 0.20911 0.0
C2743 C 0.68115 0.23241 0.20716 0.0
C2744 C 0.68074 0.16655 0.19306 0.0
C2745 C 0.64343 0.15874 0.20212 0.0
N2746 N 0.58129 0.18537 0.21525 0.0
N2747 N 0.73835 0.21417 0.18977 0.0
C2748 C 0.61971 0.1918 0.20868 0.0
C2749 C 0.69976 0.20523 0.19554 0.0
N2750 N 0.61788 0.26581 0.21334 0.0
N2751 N 0.6977 0.1372 0.18266 0.0
H2752 H 0.7519 0.24257 0.19261 0.0
H2753 H 0.7566 0.19405 0.18269 0.0
H2754 H 0.68414 0.10847 0.18076 0.0
H2755 H 0.72398 0.14191 0.17525 0.0
H2756 H 0.58593 0.26735 0.21434 0.0
H2757 H 0.63369 0.29365 0.21467 0.0
H2758 H 0.56342 0.20864 0.22053 0.0
H2759 H 0.56748 0.15645 0.21557 0.0
C2760 C 0.19789 0.68574 0.19407 0.0
C2761 C 0.19067 0.72381 0.18552 0.0
C2762 C 0.11713 0.71111 0.18604 0.0
C2763 C 0.12694 0.6703 0.18989 0.0
N2764 N 0.1654 0.62908 0.20923 0.0
N2765 N 0.1435 0.77995 0.18103 0.0
C2766 C 0.16341 0.66222 0.19868 0.0
C2767 C 0.15004 0.73929 0.18403 0.0
N2768 N 0.23686 0.67151 0.19698 0.0
N2769 N 0.07697 0.72128 0.18346 0.0
H2770 H 0.16764 0.8008 0.17938 0.0
H2771 H 0.11449 0.79337 0.18099 0.0
H2772 H 0.05353 0.69964 0.18523 0.0
H2773 H 0.067 0.75052 0.18024 0.0
H2774 H 0.24278 0.64267 0.20213 0.0
H2775 H 0.26331 0.68708 0.19305 0.0
H2776 H 0.19152 0.62134 0.21638 0.0
H2777 H 0.13869 0.61227 0.21183 0.0
C2778 C 0.62983 0.8998 0.429 0.0
C2779 C 0.67249 0.8974 0.43076 0.0
C2780 C 0.67588 0.96461 0.44377 0.0
C2781 C 0.63585 0.97143 0.43669 0.0
N2782 N 0.57254 0.94472 0.42386 0.0
N2783 N 0.73094 0.91508 0.4482 0.0
C2784 C 0.6116 0.93851 0.43001 0.0
C2785 C 0.69397 0.92584 0.4411 0.0
N2786 N 0.60816 0.86506 0.42544 0.0
N2787 N 0.69602 0.99484 0.45283 0.0
H2788 H 0.7419 0.88512 0.44717 0.0
H2789 H 0.74898 0.93408 0.45602 0.0
H2790 H 0.68241 1.02269 0.45609 0.0
H2791 H 0.72628 0.99268 0.45719 0.0
H2792 H 0.57612 0.86356 0.42474 0.0
H2793 H 0.62356 0.83715 0.42517 0.0
H2794 H 0.55503 0.92191 0.41782 0.0
H2795 H 0.55866 0.97348 0.42361 0.0
C2796 C 0.4347 0.45746 0.69956 0.0
C2797 C 0.44844 0.42701 0.68794 0.0
C2798 C 0.38243 0.3941 0.68771 0.0
C2799 C 0.36618 0.4272 0.69776 0.0
N2800 N 0.37839 0.48539 0.7165 0.0
N2801 N 0.44412 0.35722 0.67935 0.0
C2802 C 0.39291 0.45749 0.70479 0.0
C2803 C 0.42534 0.39141 0.68562 0.0
N2804 N 0.46127 0.48793 0.70414 0.0
N2805 N 0.35694 0.36553 0.68026 0.0
H2806 H 0.47577 0.35721 0.67707 0.0
H2807 H 0.42929 0.32897 0.67798 0.0
H2808 H 0.32497 0.36698 0.68113 0.0
H2809 H 0.36737 0.3426 0.67194 0.0
H2810 H 0.4532 0.5144 0.71087 0.0
H2811 H 0.49204 0.48551 0.70072 0.0
H2812 H 0.39702 0.50623 0.72317 0.0
H2813 H 0.34727 0.48701 0.71979 0.0
C2814 C 0.87804 0.13213 0.95646 0.0
C2815 C 0.90547 0.10303 0.94917 0.0
C2816 C 0.93955 0.15764 0.93292 0.0
C2817 C 0.90731 0.18409 0.93726 0.0
N2818 N 0.84988 0.20121 0.95499 0.0
N2819 N 0.96369 0.09023 0.92977 0.0
C2820 C 0.87864 0.17309 0.95015 0.0
C2821 C 0.93618 0.11628 0.93717 0.0
N2822 N 0.85221 0.12056 0.96949 0.0
N2823 N 0.97012 0.17071 0.92217 0.0
H2824 H 0.96335 0.05854 0.93124 0.0
H2825 H 0.96335 0.05854 0.93124 0.0
H2826 H 0.97125 0.20075 0.91782 0.0
H2827 H 0.99386 0.15178 0.91786 0.0
H2828 H 0.834 0.1409 0.97646 0.0
H2829 H 0.84984 0.09017 0.97355 0.0
H2830 H 0.82457 0.19467 0.96275 0.0
H2831 H 0.85157 0.23142 0.95062 0.0
C2832 C 0.92087 0.69143 0.69271 0.0
C2833 C 0.89664 0.66179 0.70182 0.0
C2834 C 0.95363 0.61409 0.70081 0.0
C2835 C 0.97383 0.64199 0.68982 0.0
N2836 N 0.99018 0.71195 0.68476 0.0
N2837 N 0.89465 0.60039 0.71919 0.0
C2838 C 0.96268 0.68298 0.69 0.0
C2839 C 0.91466 0.62479 0.70758 0.0
N2840 N 0.90349 0.72513 0.68523 0.0
N2841 N 0.97015 0.57623 0.70305 0.0
H2842 H 0.86602 0.60798 0.72436 0.0
H2843 H 0.90751 0.57415 0.72454 0.0
H2844 H 0.99905 0.56938 0.69805 0.0
H2845 H 0.95529 0.55211 0.70925 0.0
H2846 H 0.92016 0.7456 0.67763 0.0
H2847 H 0.87181 0.73006 0.68486 0.0
H2848 H 0.98377 0.74325 0.68503 0.0
H2849 H 1.02046 0.70397 0.68169 0.0
C2850 C 0.16522 0.13661 0.44451 0.0
C2851 C 0.12476 0.14635 0.43851 0.0
C2852 C 0.14143 0.21852 0.43893 0.0
C2853 C 0.18286 0.20701 0.44004 0.0
N2854 N 0.23116 0.16445 0.45449 0.0
N2855 N 0.07087 0.19802 0.43799 0.0
C2856 C 0.1931 0.16933 0.4473 0.0
C2857 C 0.11137 0.18757 0.43852 0.0
N2858 N 0.17709 0.09684 0.44677 0.0
N2859 N 0.1317 0.25826 0.43573 0.0
H2860 H 0.04679 0.17669 0.43787 0.0
H2861 H 0.04679 0.17669 0.43787 0.0
H2862 H 0.15452 0.28097 0.43545 0.0
H2863 H 0.10147 0.26758 0.43333 0.0
H2864 H 0.20636 0.0884 0.4509 0.0
H2865 H 0.15809 0.07183 0.4439 0.0
H2866 H 0.24093 0.13762 0.46044 0.0
H2867 H 0.25169 0.18919 0.45535 0.0
C2868 C 0.62661 0.37752 0.18765 0.0
C2869 C 0.62486 0.42011 0.1893 0.0
C2870 C 0.68734 0.42067 0.20606 0.0
C2871 C 0.69723 0.38369 0.1972 0.0
N2872 N 0.67344 0.32141 0.18277 0.0
N2873 N 0.63779 0.4766 0.20828 0.0
C2874 C 0.6656 0.35941 0.18946 0.0
C2875 C 0.64925 0.43926 0.20201 0.0
N2876 N 0.59255 0.35659 0.18229 0.0
N2877 N 0.71423 0.43748 0.21778 0.0
H2878 H 0.60927 0.48911 0.20492 0.0
H2879 H 0.65565 0.49444 0.21665 0.0
H2880 H 0.74206 0.42343 0.22099 0.0
H2881 H 0.70831 0.46405 0.22483 0.0
H2882 H 0.5913 0.32476 0.18116 0.0
H2883 H 0.56477 0.37205 0.18046 0.0
H2884 H 0.65163 0.30431 0.17589 0.0
H2885 H 0.70233 0.30768 0.18342 0.0
C2886 C 0.39666 0.96774 0.92571 0.0
C2887 C 0.4067 0.9268 0.92897 0.0
C2888 C 0.46599 0.95084 0.94516 0.0
C2889 C 0.45839 0.99102 0.93864 0.0
N2890 N 0.42063 1.03407 0.9188 0.0
N2891 N 0.45393 0.8781 0.94083 0.0
C2892 C 0.42682 0.99739 0.9267 0.0
C2893 C 0.44226 0.91776 0.93854 0.0
N2894 N 0.35731 0.98009 0.92632 0.0
N2895 N 0.49434 0.94419 0.95781 0.0
H2896 H 0.43554 0.8534 0.93683 0.0
H2897 H 0.48305 0.87056 0.94544 0.0
H2898 H 0.51638 0.96582 0.96119 0.0
H2899 H 0.49504 0.9171 0.96488 0.0
H2900 H 0.35006 1.01102 0.925 0.0
H2901 H 0.33659 0.96199 0.93307 0.0
H2902 H 0.44192 0.05817 0.91914 0.0
H2903 H 0.44192 0.05817 0.91914 0.0
C2904 C 0.93586 0.36374 0.96042 0.0
C2905 C 0.89908 0.3817 0.95408 0.0
C2906 C 0.9365 0.44305 0.94568 0.0
C2907 C 0.96827 0.42906 0.95645 0.0
N2908 N 1.01011 0.37122 0.96262 0.0
N2909 N 0.86805 0.42989 0.93411 0.0
C2910 C 0.97233 0.38703 0.95926 0.0
C2911 C 0.90065 0.41851 0.94424 0.0
N2912 N 0.93543 0.32684 0.96868 0.0
N2913 N 0.93864 0.48208 0.93954 0.0
H2914 H 0.84178 0.41161 0.93264 0.0
H2915 H 0.86819 0.45573 0.92627 0.0
H2916 H 0.96518 0.49977 0.94149 0.0
H2917 H 0.91467 0.49685 0.93315 0.0
H2918 H 0.9613 0.31475 0.97482 0.0
H2919 H 0.9087 0.30947 0.97029 0.0
H2920 H 1.01547 0.33983 0.96355 0.0
H2921 H 1.03606 0.39023 0.96298 0.0
C2922 C 0.49437 0.22031 0.70425 0.0
C2923 C 0.48718 0.18492 0.69433 0.0
C2924 C 0.41419 0.19711 0.69339 0.0
C2925 C 0.42108 0.22364 0.70752 0.0
N2926 N 0.46258 0.28208 0.7152 0.0
N2927 N 0.44651 0.16028 0.66992 0.0
C2928 C 0.45975 0.24292 0.70928 0.0
C2929 C 0.44918 0.18088 0.68529 0.0
N2930 N 0.53291 0.22901 0.71025 0.0
N2931 N 0.37532 0.1847 0.68902 0.0
H2932 H 0.47252 0.15054 0.66329 0.0
H2933 H 0.4192 0.15765 0.66284 0.0
H2934 H 0.34928 0.19852 0.69428 0.0
H2935 H 0.36928 0.1607 0.68039 0.0
H2936 H 0.53927 0.25381 0.71838 0.0
H2937 H 0.55802 0.21079 0.70681 0.0
H2938 H 0.49038 0.29822 0.71563 0.0
H2939 H 0.43606 0.29909 0.71763 0.0
C2940 C 0.68337 0.68912 0.4562 0.0
C2941 C 0.70121 0.65951 0.44486 0.0
C2942 C 0.63464 0.62515 0.44223 0.0
C2943 C 0.6206 0.65076 0.45565 0.0
N2944 N 0.6196 0.72018 0.46547 0.0
N2945 N 0.69126 0.60657 0.42322 0.0
C2946 C 0.64064 0.68798 0.45868 0.0
C2947 C 0.67592 0.62974 0.43647 0.0
N2948 N 0.70706 0.71756 0.46473 0.0
N2949 N 0.60938 0.59448 0.4365 0.0
H2950 H 0.72183 0.60891 0.41919 0.0
H2951 H 0.67358 0.58609 0.41592 0.0
H2952 H 0.57878 0.59303 0.44061 0.0
H2953 H 0.6184 0.57126 0.42806 0.0
H2954 H 0.69517 0.73734 0.4741 0.0
H2955 H 0.73904 0.71882 0.46367 0.0
H2956 H 0.6327 0.74914 0.46724 0.0
H2957 H 0.58803 0.71836 0.4676 0.0
C2958 C 0.14908 0.88645 0.21055 0.0
C2959 C 0.188 0.87297 0.20583 0.0
C2960 C 0.20082 0.93716 0.19094 0.0
C2961 C 0.16923 0.95475 0.20129 0.0
N2962 N 0.11178 0.94492 0.22108 0.0
N2963 N 0.24404 0.87744 0.18623 0.0
C2964 C 0.14272 0.92893 0.21123 0.0
C2965 C 0.2107 0.89541 0.19363 0.0
N2966 N 0.12062 0.85881 0.21605 0.0
N2967 N 0.22019 0.95966 0.17846 0.0
H2968 H 0.2508 0.84689 0.18872 0.0
H2969 H 0.26463 0.89231 0.1781 0.0
H2970 H 0.21365 0.99037 0.17612 0.0
H2971 H 0.24118 0.94746 0.16971 0.0
H2972 H 0.0905 0.8666 0.21929 0.0
H2973 H 0.1272 0.82757 0.21563 0.0
H2974 H 0.09385 0.92724 0.22939 0.0
H2975 H 0.1062 0.97631 0.22196 0.0
C2976 C 0.66285 0.8911 0.95718 0.0
C2977 C 0.63979 0.92684 0.95589 0.0
C2978 C 0.69233 0.95758 0.9374 0.0
C2979 C 0.71979 0.92659 0.94298 0.0
N2980 N 0.72957 0.86301 0.95929 0.0
N2981 N 0.62533 0.9895 0.94152 0.0
C2982 C 0.70469 0.89311 0.95309 0.0
C2983 C 0.65174 0.95789 0.94426 0.0
N2984 N 0.64659 0.85783 0.96532 0.0
N2985 N 0.70505 0.98616 0.92569 0.0
H2986 H 0.59564 0.98836 0.94661 0.0
H2987 H 0.6328 1.01617 0.93488 0.0
H2988 H 0.73528 0.98744 0.92116 0.0
H2989 H 0.68557 1.0077 0.92012 0.0
H2990 H 0.66342 0.83113 0.96753 0.0
H2991 H 0.61577 0.85736 0.96914 0.0
H2992 H 0.76154 0.8629 0.95803 0.0
H2993 H 0.76154 0.8629 0.95803 0.0
C2994 C 0.44741 0.39941 0.21526 0.0
C2995 C 0.40867 0.38551 0.21015 0.0
C2996 C 0.39214 0.45108 0.19774 0.0
C2997 C 0.42529 0.46827 0.20746 0.0
N2998 N 0.48739 0.45814 0.22459 0.0
N2999 N 0.36307 0.38774 0.18613 0.0
C3000 C 0.45387 0.44211 0.21616 0.0
C3001 C 0.38723 0.40806 0.19775 0.0
N3002 N 0.47676 0.37165 0.21956 0.0
N3003 N 0.36652 0.47558 0.18835 0.0
H3004 H 0.36079 0.3559 0.18654 0.0
H3005 H 0.34919 0.40174 0.17551 0.0
H3006 H 0.3693 0.50746 0.18841 0.0
H3007 H 0.3412 0.4645 0.18143 0.0
H3008 H 0.50743 0.37955 0.22188 0.0
H3009 H 0.47014 0.34032 0.21924 0.0
H3010 H 0.50821 0.44041 0.23156 0.0
H3011 H 0.49267 0.48966 0.22546 0.0
C3012 C 0.94817 0.18553 0.45703 0.0
C3013 C 0.96405 0.14651 0.45431 0.0
C3014 C 0.90432 0.12873 0.43641 0.0
C3015 C 0.88358 0.1619 0.44423 0.0
N3016 N 0.88539 0.22109 0.46358 0.0
N3017 N 0.96316 0.08393 0.43818 0.0
C3018 C 0.90549 0.19045 0.45498 0.0
C3019 C 0.94461 0.11985 0.44226 0.0
N3020 N 0.97294 0.21548 0.46372 0.0
N3021 N 0.88577 0.10614 0.42359 0.0
H3022 H 0.99278 0.07844 0.44255 0.0
H3023 H 0.94909 0.06002 0.43136 0.0
H3024 H 0.85553 0.11128 0.41951 0.0
H3025 H 0.90105 0.08387 0.41639 0.0
H3026 H 0.96326 0.2456 0.4656 0.0
H3027 H 1.00423 0.21002 0.46575 0.0
H3028 H 0.89999 0.2405 0.47247 0.0
H3029 H 0.85347 0.22445 0.46309 0.0
C3030 C 0.10754 0.67563 0.70932 0.0
C3031 C 0.12738 0.63806 0.70534 0.0
C3032 C 0.18856 0.67502 0.69616 0.0
C3033 C 0.17362 0.70752 0.70614 0.0
N3034 N 0.11476 0.75001 0.70896 0.0
N3035 N 0.18179 0.60254 0.68972 0.0
C3036 C 0.13107 0.71185 0.70776 0.0
C3037 C 0.16623 0.63785 0.69668 0.0
N3038 N 0.06781 0.67632 0.71503 0.0
N3039 N 0.22651 0.67855 0.68887 0.0
H3040 H 0.16628 0.57452 0.69004 0.0
H3041 H 0.21021 0.60061 0.68362 0.0
H3042 H 0.24287 0.70604 0.68973 0.0
H3043 H 0.24088 0.65572 0.68168 0.0
H3044 H 0.05328 0.70295 0.71924 0.0
H3045 H 0.04995 0.64979 0.71616 0.0
H3046 H 0.08323 0.75562 0.70962 0.0
H3047 H 0.13375 0.77579 0.70785 0.0
C3048 C 0.6478 0.20697 0.67692 0.0
C3049 C 0.6348 0.1671 0.68183 0.0
C3050 C 0.66555 0.17619 0.71005 0.0
C3051 C 0.68322 0.21216 0.70347 0.0
N3052 N 0.6723 0.27275 0.6864 0.0
N3053 N 0.61561 0.12217 0.7052 0.0
C3054 C 0.66449 0.23243 0.68961 0.0
C3055 C 0.6374 0.15491 0.69935 0.0
N3056 N 0.65146 0.21791 0.66006 0.0
N3057 N 0.68023 0.16009 0.72509 0.0
H3058 H 0.59722 0.10461 0.69693 0.0
H3059 H 0.6144 0.11416 0.71825 0.0
H3060 H 0.70184 0.17609 0.73262 0.0
H3061 H 0.67212 0.13106 0.72954 0.0
H3062 H 0.66247 0.24627 0.65592 0.0
H3063 H 0.65143 0.19583 0.65057 0.0
H3064 H 0.65688 0.28886 0.67671 0.0
H3065 H 0.69144 0.29049 0.6943 0.0
C3066 C 0.18649 0.43386 0.9448 0.0
C3067 C 0.17986 0.3941 0.93874 0.0
C3068 C 0.10742 0.40578 0.93546 0.0
C3069 C 0.11641 0.44831 0.93535 0.0
N3070 N 0.16384 0.50402 0.94269 0.0
N3071 N 0.13291 0.33799 0.94101 0.0
C3072 C 0.15568 0.463 0.94128 0.0
C3073 C 0.13969 0.37864 0.9388 0.0
N3074 N 0.2233 0.44338 0.95234 0.0
N3075 N 0.06922 0.3904 0.93198 0.0
H3076 H 0.15735 0.31784 0.94313 0.0
H3077 H 0.1031 0.32615 0.94202 0.0
H3078 H 1.04368 0.40854 0.92912 0.0
H3079 H 1.04368 0.40854 0.92912 0.0
H3080 H 0.22959 0.47158 0.95818 0.0
H3081 H 0.24596 0.42098 0.95383 0.0
H3082 H 0.19282 0.51576 0.94585 0.0
H3083 H 0.1423 0.52648 0.9396 0.0
C3084 C 0.88856 0.97108 0.19743 0.0
C3085 C 0.92253 0.94869 0.19077 0.0
C3086 C 0.93065 0.91816 0.21921 0.0
C3087 C 0.89041 0.93263 0.22291 0.0
N3088 N 0.86113 0.9997 0.22391 0.0
N3089 N 0.98256 0.90714 0.19735 0.0
C3090 C 0.88218 0.97015 0.21531 0.0
C3091 C 0.94649 0.92477 0.20238 0.0
N3092 N 0.85832 0.98565 0.18705 0.0
N3093 N 0.95178 0.89509 0.23075 0.0
H3094 H 0.99436 0.91034 0.18487 0.0
H3095 H 0.99998 0.88905 0.20574 0.0
H3096 H 0.94054 0.88909 0.24313 0.0
H3097 H 0.94054 0.88909 0.24313 0.0
H3098 H 0.83119 0.9975 0.19224 0.0
H3099 H 0.85727 0.97855 0.17396 0.0
H3100 H 0.85329 1.0273 0.21797 0.0
H3101 H 0.85403 0.99634 0.23703 0.0
C3102 C 0.41484 0.67784 0.46416 0.0
C3103 C 0.45326 0.66003 0.46167 0.0
C3104 C 0.46428 0.69247 0.43484 0.0
C3105 C 0.42167 0.70256 0.43476 0.0
N3106 N 0.36731 0.72847 0.45367 0.0
N3107 N 0.52149 0.68095 0.4533 0.0
C3108 C 0.40029 0.70375 0.45098 0.0
C3109 C 0.48048 0.68005 0.45051 0.0
N3110 N 0.39123 0.66586 0.47775 0.0
N3111 N 0.48877 0.69153 0.42055 0.0
H3112 H 0.53389 0.67193 0.4651 0.0
H3113 H 0.53389 0.67193 0.4651 0.0
H3114 H 0.47967 0.70052 0.40832 0.0
H3115 H 0.51931 0.6816 0.42117 0.0
H3116 H 0.36056 0.67449 0.47923 0.0
H3117 H 0.40296 0.6458 0.48705 0.0
H3118 H 0.35247 0.73071 0.46558 0.0
H3119 H 0.35883 0.75053 0.44474 0.0
C3120 C 0.39748 0.18504 0.20483 0.0
C3121 C 0.41605 0.22292 0.20102 0.0
C3122 C 0.47622 0.18806 0.1905 0.0
C3123 C 0.45034 0.15324 0.18773 0.0
N3124 N 0.38354 0.12057 0.19141 0.0
N3125 N 0.4767 0.26191 0.19534 0.0
C3126 C 0.41072 0.15131 0.19531 0.0
C3127 C 0.45743 0.22474 0.19605 0.0
N3128 N 0.36448 0.18231 0.21563 0.0
N3129 N 0.5168 0.18709 0.18613 0.0
H3130 H 0.46157 0.28852 0.19925 0.0
H3131 H 0.50637 0.26661 0.19068 0.0
H3132 H 0.53122 0.16022 0.18244 0.0
H3133 H 0.53688 0.21187 0.18739 0.0
H3134 H 0.35138 0.15426 0.21908 0.0
H3135 H 0.3536 0.20729 0.22262 0.0
H3136 H 0.35257 0.12132 0.19496 0.0
H3137 H 0.39103 0.09609 0.18345 0.0
C3138 C 0.65044 0.66878 0.95966 0.0
C3139 C 0.61216 0.68282 0.95313 0.0
C3140 C 0.64695 0.73963 0.94011 0.0
C3141 C 0.68214 0.71449 0.93939 0.0
N3142 N 0.72184 0.65997 0.95197 0.0
N3143 N 0.5726 0.73769 0.94137 0.0
C3144 C 0.68595 0.68127 0.95081 0.0
C3145 C 0.60993 0.72167 0.94559 0.0
N3146 N 0.65239 0.64223 0.97321 0.0
N3147 N 0.64885 0.77915 0.93481 0.0
H3148 H 0.54541 0.72205 0.94432 0.0
H3149 H 0.56904 0.76451 0.93425 0.0
H3150 H 0.67664 0.79215 0.93106 0.0
H3151 H 0.62444 0.79947 0.9363 0.0
H3152 H 0.68017 0.63211 0.97847 0.0
H3153 H 0.62656 0.63462 0.98049 0.0
H3154 H 0.72421 0.63169 0.95812 0.0
H3155 H 0.74894 0.67105 0.94653 0.0
C3156 C 0.15481 0.8942 0.70955 0.0
C3157 C 0.19458 0.87958 0.7083 0.0
C3158 C 0.21122 0.93146 0.68808 0.0
C3159 C 0.16869 0.92956 0.68316 0.0
N3160 N 0.09827 0.91213 0.69161 0.0
N3161 N 0.26209 0.90846 0.70932 0.0
C3162 C 0.13939 0.91276 0.69477 0.0
C3163 C 0.22325 0.90843 0.70265 0.0
N3164 N 0.13808 0.90176 0.72529 0.0
N3165 N 0.23952 0.95098 0.67819 0.0
H3166 H 0.27007 0.8882 0.71921 0.0
H3167 H 0.28458 0.92975 0.70586 0.0
H3168 H 0.23087 0.96568 0.66695 0.0
H3169 H 0.2711 0.95046 0.68061 0.0
H3170 H 0.11093 0.91854 0.72661 0.0
H3171 H 0.15275 0.89219 0.73664 0.0
H3172 H 0.07801 0.89869 0.70041 0.0
H3173 H 0.08583 0.92132 0.67987 0.0
C3174 C 0.86741 0.4439 0.46254 0.0
C3175 C 0.90322 0.43818 0.47198 0.0
C3176 C 0.92206 0.38562 0.45082 0.0
C3177 C 0.89891 0.40813 0.43847 0.0
N3178 N 0.85773 0.46855 0.43405 0.0
N3179 N 0.94522 0.38056 0.48043 0.0
C3180 C 0.87203 0.43913 0.44467 0.0
C3181 C 0.92273 0.40019 0.46822 0.0
N3182 N 0.83385 0.4617 0.46975 0.0
N3183 N 0.94358 0.3516 0.44613 0.0
H3184 H 0.94686 0.39096 0.49322 0.0
H3185 H 0.94686 0.39096 0.49322 0.0
H3186 H 0.94428 0.3409 0.43336 0.0
H3187 H 0.96081 0.33491 0.45509 0.0
H3188 H 0.80753 0.46805 0.46245 0.0
H3189 H 0.83265 0.4674 0.48308 0.0
H3190 H 0.84376 0.49485 0.43897 0.0
H3191 H 0.86683 0.46912 0.42124 0.0
C3192 C 0.4509 0.89684 0.45261 0.0
C3193 C 0.46578 0.93676 0.45289 0.0
C3194 C 0.40651 0.95976 0.4362 0.0
C3195 C 0.38599 0.92356 0.44156 0.0
N3196 N 0.38849 0.85869 0.45711 0.0
N3197 N 0.46775 1.00264 0.43987 0.0
C3198 C 0.40829 0.89177 0.45017 0.0
C3199 C 0.44737 0.96656 0.44227 0.0
N3200 N 0.47608 0.86569 0.45754 0.0
N3201 N 0.38695 0.98716 0.42573 0.0
H3202 H 0.49787 1.00637 0.44445 0.0
H3203 H 0.45518 1.02814 0.43382 0.0
H3204 H 0.35653 0.98303 0.42161 0.0
H3205 H 0.40112 1.01311 0.42066 0.0
H3206 H 0.46701 0.83499 0.45723 0.0
H3207 H 0.50708 0.8713 0.46052 0.0
H3208 H 0.4036 0.83632 0.46431 0.0
H3209 H 0.35649 0.85615 0.45742 0.0
C3210 C 0.8815 0.64108 0.19623 0.0
C3211 C 0.91229 0.65183 0.20838 0.0
C3212 C 0.9384 0.58271 0.2088 0.0
C3213 C 0.90579 0.57024 0.1973 0.0
N3214 N 0.84661 0.58679 0.17997 0.0
N3215 N 0.97687 0.63921 0.22189 0.0
C3216 C 0.87722 0.59942 0.191 0.0
C3217 C 0.9439 0.62469 0.21261 0.0
N3218 N 0.85558 0.67102 0.19056 0.0
N3219 N 0.96425 0.55429 0.21584 0.0
H3220 H 0.97891 0.67004 0.22543 0.0
H3221 H 1.0028 0.62221 0.2251 0.0
H3222 H 0.95875 0.52299 0.21498 0.0
H3223 H 0.98888 0.56115 0.22402 0.0
H3224 H 0.83115 0.66635 0.182 0.0
H3225 H 0.85983 0.7015 0.19445 0.0
H3226 H 0.82474 0.60605 0.17451 0.0
H3227 H 0.84244 0.55591 0.17675 0.0
C3228 C 0.23814 0.17209 0.9571 0.0
C3229 C 0.24142 0.14849 0.94159 0.0
C3230 C 0.16781 0.13187 0.9435 0.0
C3231 C 0.16548 0.15652 0.9586 0.0
N3232 N 0.19578 0.20762 0.97738 0.0
N3233 N 0.20751 0.11234 0.91821 0.0
C3234 C 0.19939 0.18066 0.96388 0.0
C3235 C 0.20555 0.13011 0.93423 0.0
N3236 N 0.2715 0.18922 0.96514 0.0
N3237 N 0.13478 0.10824 0.93879 0.0
H3238 H 0.23519 0.10973 0.91146 0.0
H3239 H 0.18165 0.10215 0.91137 0.0
H3240 H 0.10642 0.11076 0.94503 0.0
H3241 H 0.13604 0.08552 0.92928 0.0
H3242 H 0.30197 0.1839 0.96162 0.0
H3243 H 0.30197 0.1839 0.96162 0.0
H3244 H 0.22024 0.22573 0.98186 0.0
H3245 H 0.16817 0.21164 0.98391 0.0
C3246 C 0.6088 0.38683 0.71069 0.0
C3247 C 0.62187 0.42733 0.70715 0.0
C3248 C 0.68871 0.40156 0.69837 0.0
C3249 C 0.68012 0.36718 0.70847 0.0
N3250 N 0.62853 0.31712 0.71592 0.0
N3251 N 0.67351 0.47346 0.69517 0.0
C3252 C 0.63878 0.35608 0.71141 0.0
C3253 C 0.66132 0.43478 0.69966 0.0
N3254 N 0.56878 0.37715 0.71401 0.0
N3255 N 0.72589 0.40421 0.69032 0.0
H3256 H 0.65501 0.49922 0.69676 0.0
H3257 H 0.70303 0.48052 0.69086 0.0
H3258 H 0.74673 0.3799 0.69089 0.0
H3259 H 0.73439 0.4284 0.68232 0.0
H3260 H 0.54478 0.39835 0.71369 0.0
H3261 H 0.54478 0.39835 0.71369 0.0
H3262 H 0.59794 0.30779 0.71741 0.0
H3263 H 0.65074 0.29467 0.71798 0.0
C3264 C 0.05563 0.25614 0.39894 0.0
C3265 C 0.0934 0.27839 0.39326 0.0
C3266 C 1.03222 0.33044 0.38427 0.0
C3267 C 0.99565 0.31193 0.39289 0.0
N3268 N 0.98499 0.25336 0.41133 0.0
N3269 N 0.10735 0.3449 0.38142 0.0
C3270 C 1.01177 0.27394 0.40095 0.0
C3271 C 0.07788 0.31793 0.38655 0.0
N3272 N 0.06042 0.21543 0.40206 0.0
N3273 N 1.02358 0.35869 0.37189 0.0
H3274 H 0.13841 0.33723 0.38165 0.0
H3275 H 0.10104 0.37534 0.37838 0.0
H3276 H 0.99346 0.36406 0.36783 0.0
H3277 H 0.04585 0.37136 0.36382 0.0
H3278 H 1.03556 0.19546 0.4036 0.0
H3279 H 0.089 0.20113 0.40174 0.0
H3280 H 0.99398 0.22918 0.41925 0.0
H3281 H 0.95486 0.26309 0.41328 0.0
C3282 C 1.01756 0.77951 0.64497 0.0
C3283 C 1.04208 0.74108 0.643 0.0
C3284 C 0.10084 0.80086 0.63982 0.0
C3285 C 0.07648 0.8395 0.64187 0.0
N3286 N 1.00596 0.85505 0.64811 0.0
N3287 N 0.1137 0.72498 0.64094 0.0
C3288 C 1.03354 0.8247 0.64487 0.0
C3289 C 0.08527 0.75559 0.641 0.0
N3290 N 0.97639 0.77324 0.64717 0.0
N3291 N 0.14151 0.80702 0.63665 0.0
H3292 H 0.10509 0.69423 0.64152 0.0
H3293 H 0.14534 0.72961 0.64189 0.0
H3294 H 0.15533 0.83516 0.63913 0.0
H3295 H 0.16092 0.78508 0.63131 0.0
H3296 H 0.95408 0.7957 0.64564 0.0
H3297 H 0.96422 0.7446 0.65011 0.0
H3298 H 0.97735 0.85054 0.65382 0.0
H3299 H 1.01288 0.88566 0.64577 0.0
C3300 C 0.52996 0.83316 0.89974 0.0
C3301 C 0.49353 0.8136 0.89123 0.0
C3302 C 0.55483 0.7628 0.88144 0.0
C3303 C 0.59125 0.77994 0.89093 0.0
N3304 N 0.60528 0.84176 0.90688 0.0
N3305 N 0.47977 0.75096 0.87596 0.0
C3306 C 0.57547 0.81779 0.89948 0.0
C3307 C 0.50928 0.77597 0.88293 0.0
N3308 N 0.52072 0.86728 0.90918 0.0
N3309 N 0.56412 0.73571 0.86864 0.0
H3310 H 0.4487 0.75912 0.87577 0.0
H3311 H 0.48555 0.72106 0.87186 0.0
H3312 H 0.59449 0.73088 0.86511 0.0
H3313 H 0.54276 0.72431 0.85972 0.0
H3314 H 0.54062 0.88154 0.91793 0.0
H3315 H 0.49124 0.87989 0.90898 0.0
H3316 H 0.6006 0.87103 0.91183 0.0
H3317 H 0.63615 0.83319 0.90691 0.0
C3318 C 0.50832 0.27144 0.1491 0.0
C3319 C 0.53119 0.23466 0.14301 0.0
C3320 C 0.58134 0.29613 0.1332 0.0
C3321 C 0.56214 0.33257 0.14146 0.0
N3322 N 0.5023 0.34442 0.15899 0.0
N3323 N 0.59905 0.22227 0.13193 0.0
C3324 C 0.52431 0.31638 0.1498 0.0
C3325 C 0.57034 0.25079 0.13611 0.0
N3326 N 0.46909 0.26385 0.15435 0.0
N3327 N 0.60884 0.30444 0.12049 0.0
H3328 H 0.59397 0.1913 0.13417 0.0
H3329 H 0.62912 0.22981 0.12841 0.0
H3330 H 0.61229 0.33408 0.11593 0.0
H3331 H 0.62166 0.282 0.11253 0.0
H3332 H 0.44759 0.28677 0.15668 0.0
H3333 H 0.45748 0.2341 0.15513 0.0
H3334 H 0.47874 0.3366 0.16749 0.0
H3335 H 0.51004 0.37546 0.15906 0.0
C3336 C 1.03051 0.78264 0.26623 0.0
C3337 C 1.00921 0.76051 0.25197 0.0
C3338 C 0.08615 0.76901 0.23891 0.0
C3339 C 0.10666 0.79514 0.25219 0.0
N3340 N 0.08792 0.82293 0.27983 0.0
N3341 N 1.02448 0.74459 0.22241 0.0
C3342 C 0.07496 0.80059 0.26594 0.0
C3343 C 1.03992 0.75733 0.23794 0.0
N3344 N 1.00799 0.78596 0.28103 0.0
N3345 N 0.11151 0.75248 0.22683 0.0
H3346 H 0.99328 0.73771 0.22071 0.0
H3347 H 1.04139 0.74628 0.21105 0.0
H3348 H 0.14291 0.75934 0.22639 0.0
H3349 H 0.10197 0.72838 0.21889 0.0
H3350 H 1.01992 0.79551 0.29292 0.0
H3351 H 0.97739 0.77607 0.28158 0.0
H3352 H 0.06839 0.83509 0.28917 0.0
H3353 H 0.11897 0.82982 0.28158 0.0
C3354 C 0.49955 0.79752 0.49786 0.0
C3355 C 0.52503 0.8358 0.49949 0.0
C3356 C 0.58248 0.77555 0.50244 0.0
C3357 C 0.55721 0.73698 0.50051 0.0
N3358 N 0.48714 0.72266 0.49273 0.0
N3359 N 0.59717 0.8507 0.49945 0.0
C3360 C 0.51474 0.75227 0.49736 0.0
C3361 C 0.56793 0.8208 0.50078 0.0
N3362 N 0.45826 0.80378 0.49631 0.0
N3363 N 0.62307 0.76988 0.50605 0.0
H3364 H 0.58938 0.88146 0.49821 0.0
H3365 H 0.62837 0.84503 0.49758 0.0
H3366 H 0.63756 0.742 0.50436 0.0
H3367 H 0.64203 0.79263 0.51131 0.0
H3368 H 0.43614 0.78129 0.49859 0.0
H3369 H 0.44593 0.83213 0.49321 0.0
H3370 H 0.45807 0.72851 0.48766 0.0
H3371 H 0.49517 0.69191 0.49239 0.0
C3372 C 0.58834 0.26738 0.75303 0.0
C3373 C 0.6035 0.31037 0.7536 0.0
C3374 C 0.51975 0.32061 0.75225 0.0
C3375 C 0.50462 0.27781 0.75349 0.0
N3376 N 0.53629 0.21124 0.75497 0.0
N3377 N 0.57085 0.37708 0.75503 0.0
C3378 C 0.54285 0.25237 0.75401 0.0
C3379 C 0.56507 0.33582 0.75359 0.0
N3380 N 0.61828 0.23884 0.75054 0.0
N3381 N 0.49001 0.34885 0.74883 0.0
H3382 H 0.59916 0.39128 0.75344 0.0
H3383 H 0.54762 0.39731 0.7586 0.0
H3384 H 0.45881 0.34134 0.74858 0.0
H3385 H 0.49627 0.37847 0.74459 0.0
H3386 H 0.61255 0.20843 0.74716 0.0
H3387 H 0.64934 0.24673 0.75026 0.0
H3388 H 0.55862 0.19042 0.7589 0.0
H3389 H 0.50786 0.19805 0.75217 0.0
C3390 C 0.0805 0.28454 0.99223 0.0
C3391 C 0.06394 0.24869 1.00184 0.0
C3392 C 1.01139 0.30955 1.01125 0.0
C3393 C 1.02969 0.34652 1.00256 0.0
N3394 N 0.09236 0.3591 0.98683 0.0
N3395 N 1.00505 0.23496 1.01918 0.0
C3396 C 0.06722 0.33019 0.99386 0.0
C3397 C 1.02731 0.26456 1.01095 0.0
N3398 N 0.10751 0.27455 0.9795 0.0
N3399 N 0.97758 0.31731 1.02098 0.0
H3400 H 1.01557 0.20487 1.02015 0.0
H3401 H 0.97542 0.23877 1.02395 0.0
H3402 H 0.96105 0.34404 1.0196 0.0
H3403 H 0.96672 0.29832 1.03074 0.0
H3404 H 0.11901 0.29538 0.97058 0.0
H3405 H 0.11321 0.24404 0.97633 0.0
H3406 H 0.12191 0.3529 0.98235 0.0
H3407 H 0.08483 0.39008 0.98693 0.0
C3408 C 0.04897 0.74757 0.75883 0.0
C3409 C 0.0875 0.76818 0.7524 0.0
C3410 C 1.02759 0.82444 0.74528 0.0
C3411 C 0.98946 0.80379 0.75143 0.0
N3412 N 0.97249 0.73691 0.76175 0.0
N3413 N 0.09888 0.82534 0.73381 0.0
C3414 C 1.00364 0.7631 0.75747 0.0
C3415 C 0.0718 0.80642 0.74442 0.0
N3416 N 0.05495 0.71103 0.76682 0.0
N3417 N 1.02222 0.86348 0.73961 0.0
H3418 H 0.12982 0.81705 0.73323 0.0
H3419 H 0.08851 0.84399 0.72382 0.0
H3420 H 0.99306 0.87641 0.73838 0.0
H3421 H 0.04667 0.8833 0.73702 0.0
H3422 H 1.0333 0.69708 0.77478 0.0
H3423 H 0.08259 0.69546 0.76608 0.0
H3424 H 0.9763 0.70561 0.76364 0.0
H3425 H 0.94178 0.74625 0.76191 0.0
C3426 C 1.03273 0.26628 0.51533 0.0
C3427 C 1.03939 0.23417 0.50184 0.0
C3428 C 0.07659 0.30027 0.48752 0.0
C3429 C 0.0717 0.33154 0.50127 0.0
N3430 N 0.04622 0.33372 0.53024 0.0
N3431 N 0.08247 0.22849 0.47682 0.0
C3432 C 0.04984 0.31076 0.51551 0.0
C3433 C 0.06543 0.25421 0.48862 0.0
N3434 N 1.01002 0.25381 0.52908 0.0
N3435 N 0.09107 0.31485 0.47222 0.0
H3436 H 0.07576 0.1972 0.4765 0.0
H3437 H 0.10683 0.23768 0.46906 0.0
H3438 H 0.09865 0.34572 0.47059 0.0
H3439 H 0.09082 0.29754 0.46088 0.0
H3440 H 0.99702 0.27363 0.5381 0.0
H3441 H 1.00364 0.22292 0.53103 0.0
H3442 H 1.03667 0.32218 0.5421 0.0
H3443 H 0.05615 0.36419 0.53081 0.0
C3444 C 0.55308 0.25526 0.2534 0.0
C3445 C 0.59204 0.28031 0.25348 0.0
C3446 C 0.53234 0.33844 0.25467 0.0
C3447 C 0.49343 0.31339 0.25361 0.0
N3448 N 0.47883 0.24315 0.24666 0.0
N3449 N 0.60763 0.35158 0.25014 0.0
C3450 C 0.50822 0.27079 0.25159 0.0
C3451 C 0.57751 0.32325 0.25305 0.0
N3452 N 0.55759 0.21403 0.25512 0.0
N3453 N 0.52705 0.37932 0.25721 0.0
H3454 H 0.63852 0.34344 0.24916 0.0
H3455 H 0.60179 0.38191 0.24683 0.0
H3456 H 0.4986 0.39328 0.25609 0.0
H3457 H 0.55066 0.39906 0.26113 0.0
H3458 H 0.53345 0.19467 0.25865 0.0
H3459 H 0.58539 0.19909 0.25365 0.0
H3460 H 0.4854 0.21353 0.24241 0.0
H3461 H 0.44846 0.25177 0.24462 0.0
C3462 C 0.56916 0.80586 1.01702 0.0
C3463 C 0.56496 0.83711 1.00313 0.0
C3464 C 0.52848 0.7702 0.98825 0.0
C3465 C 0.53146 0.73961 1.00237 0.0
N3466 N 0.55192 0.7402 1.03219 0.0
N3467 N 0.53123 0.8408 0.97563 0.0
C3468 C 0.5513 0.76161 1.01707 0.0
C3469 C 0.54166 0.8161 0.98904 0.0
N3470 N 0.59067 0.8188 1.03119 0.0
N3471 N 0.51341 0.75479 0.97307 0.0
H3472 H 0.54197 0.87088 0.97485 0.0
H3473 H 0.50985 0.83271 0.96619 0.0
H3474 H 0.50731 0.72356 0.97153 0.0
H3475 H 0.51049 0.77131 0.96167 0.0
H3476 H 0.60221 0.79926 1.04063 0.0
H3477 H 0.59832 0.84956 1.03294 0.0
H3478 H 0.55976 0.75288 1.04416 0.0
H3479 H 0.54082 0.7102 1.03293 0.0
C3480 C 0.07011 0.28524 0.90693 0.0
C3481 C 0.09172 0.30676 0.89273 0.0
C3482 C 1.01648 0.29147 0.87839 0.0
C3483 C 0.99376 0.27564 0.89354 0.0
N3484 N 1.00717 0.27079 0.92413 0.0
N3485 N 0.07575 0.32501 0.86346 0.0
C3486 C 1.0235 0.27665 0.90813 0.0
C3487 C 0.0612 0.30838 0.87832 0.0
N3488 N 0.09467 0.26953 0.91955 0.0
N3489 N 0.99508 0.28965 0.86316 0.0
H3490 H 0.10717 0.3298 0.86174 0.0
H3491 H 0.05717 0.33435 0.85321 0.0
H3492 H 0.96427 0.28036 0.86266 0.0
H3493 H 1.00808 0.29447 0.85104 0.0
H3494 H 0.08358 0.2501 0.92917 0.0
H3495 H 0.12663 0.27257 0.9192 0.0
H3496 H 1.0243 0.27444 0.93551 0.0
H3497 H 0.97547 0.26724 0.92591 0.0
C3498 C 0.54254 0.31427 0.65526 0.0
C3499 C 0.5231 0.33761 0.64093 0.0
C3500 C 0.53391 0.26241 0.62591 0.0
C3501 C 0.55121 0.23863 0.64056 0.0
N3502 N 0.56107 0.25001 0.67095 0.0
N3503 N 0.51148 0.32632 0.61065 0.0
C3504 C 0.5523 0.26767 0.65547 0.0
C3505 C 0.52165 0.3085 0.626 0.0
N3506 N 0.55401 0.33745 0.66922 0.0
N3507 N 0.52698 0.23972 0.61129 0.0
H3508 H 0.50535 0.35758 0.60983 0.0
H3509 H 0.51332 0.31197 0.59862 0.0
H3510 H 0.53564 0.20898 0.61045 0.0
H3511 H 0.50996 0.24968 0.60069 0.0
H3512 H 0.57301 0.32694 0.67914 0.0
H3513 H 0.54784 0.36878 0.66989 0.0
H3514 H 0.56008 0.26558 0.68271 0.0
H3515 H 0.56513 0.21842 0.67202 0.0
C3516 C 0.56451 0.80745 0.37437 0.0
C3517 C 0.59526 0.80473 0.38872 0.0
C3518 C 0.52574 0.77722 0.40401 0.0
C3519 C 0.49649 0.77411 0.38927 0.0
N3520 N 0.49974 0.78649 0.35872 0.0
N3521 N 0.59607 0.76821 0.41593 0.0
C3522 C 0.52008 0.78933 0.37415 0.0
C3523 C 0.57265 0.78399 0.40293 0.0
N3524 N 0.57778 0.82764 0.36005 0.0
N3525 N 0.50868 0.77585 0.42005 0.0
H3526 H 0.62816 0.76976 0.41577 0.0
H3527 H 0.58359 0.75012 0.42572 0.0
H3528 H 0.47681 0.77387 0.42169 0.0
H3529 H 0.52579 0.78098 0.43135 0.0
H3530 H 0.55821 0.83706 0.35012 0.0
H3531 H 0.60832 0.83708 0.35871 0.0
H3532 H 0.51375 0.79129 0.34679 0.0
H3533 H 0.4693 0.77608 0.35793 0.0
C3534 C 0.99719 0.80596 0.14267 0.0
C3535 C 1.02156 0.84466 0.14452 0.0
C3536 C 0.08134 0.78631 0.14478 0.0
C3537 C 0.05671 0.74738 0.14452 0.0
N3538 N 0.98459 0.7308 0.14556 0.0
N3539 N 0.09235 0.86101 0.15074 0.0
C3540 C 1.01312 0.76127 0.1441 0.0
C3541 C 0.06487 0.83082 0.14653 0.0
N3542 N 0.95632 0.81111 0.13934 0.0
N3543 N 0.12277 0.7818 0.14281 0.0
H3544 H 0.08387 0.89172 0.15147 0.0
H3545 H 0.12217 0.85526 0.15512 0.0
H3546 H 0.13705 0.75341 0.14247 0.0
H3547 H 0.14265 0.8061 0.14016 0.0
H3548 H 0.93729 0.78791 0.1345 0.0
H3549 H 0.94189 0.83933 0.14046 0.0
H3550 H 0.95354 0.73585 0.14808 0.0
H3551 H 0.99279 0.70011 0.14581 0.0
C3552 C 0.24865 0.29755 0.32849 0.0
C3553 C 0.27377 0.27251 0.33986 0.0
C3554 C 0.33218 0.29069 0.3177 0.0
C3555 C 0.3071 0.31583 0.30636 0.0
N3556 N 0.23775 0.33973 0.30237 0.0
N3557 N 0.34357 0.24964 0.34404 0.0
C3558 C 0.26441 0.3177 0.31231 0.0
C3559 C 0.31654 0.27089 0.33396 0.0
N3560 N 0.20936 0.305 0.33387 0.0
N3561 N 0.3713 0.28269 0.31225 0.0
H3562 H 0.33403 0.22917 0.35352 0.0
H3563 H 0.37542 0.25295 0.34336 0.0
H3564 H 0.38363 0.29557 0.30108 0.0
H3565 H 0.39058 0.26105 0.31784 0.0
H3566 H 0.18972 0.32627 0.32826 0.0
H3567 H 0.19703 0.29172 0.34496 0.0
H3568 H 0.20585 0.33754 0.30319 0.0
H3569 H 0.24772 0.35994 0.29286 0.0
C3570 C 0.05881 0.08771 0.56611 0.0
C3571 C 1.03168 0.06238 0.5555 0.0
C3572 C 1.04366 1.00867 0.57987 0.0
C3573 C 0.07387 1.03232 0.58979 0.0
N3574 N 0.11013 0.09668 0.58969 0.0
N3575 N 1.00485 0.99386 0.55307 0.0
C3576 C 0.08079 0.07257 0.58206 0.0
C3577 C 1.02631 1.02175 0.56281 0.0
N3578 N 0.06437 0.12711 0.56073 0.0
N3579 N 1.03042 0.97251 0.58673 0.0
H3580 H 0.98947 1.00173 0.54172 0.0
H3581 H 1.00431 0.96256 0.55563 0.0
H3582 H 1.04437 0.95875 0.59735 0.0
H3583 H 1.00392 0.95732 0.58247 0.0
H3584 H 0.07941 0.14972 0.56792 0.0
H3585 H 0.05119 0.13803 0.5493 0.0
H3586 H 0.12047 0.12449 0.58483 0.0
H3587 H 0.12709 0.08699 0.60032 0.0
C3588 C 0.25821 0.8167 0.83267 0.0
C3589 C 0.29814 0.80899 0.84079 0.0
C3590 C 0.30885 0.76325 0.81359 0.0
C3591 C 0.26746 0.76708 0.80651 0.0
N3592 N 0.20215 0.79808 0.81214 0.0
N3593 N 0.35802 0.76593 0.83781 0.0
C3594 C 0.24226 0.79378 0.81709 0.0
C3595 C 0.3218 0.77935 0.83089 0.0
N3596 N 0.23532 0.84787 0.83933 0.0
N3597 N 0.33767 0.74492 0.80341 0.0
H3598 H 0.37143 0.77862 0.84887 0.0
H3599 H 0.37354 0.74033 0.83309 0.0
H3600 H 0.33025 0.73094 0.79168 0.0
H3601 H 0.36916 0.74584 0.80608 0.0
H3602 H 0.20899 0.85935 0.83337 0.0
H3603 H 0.24504 0.86522 0.84991 0.0
H3604 H 0.18 0.81246 0.81972 0.0
H3605 H 0.1904 0.78423 0.80093 0.0
C3606 C 0.53508 1.00325 0.08617 0.0
C3607 C 0.52737 0.04655 0.09024 0.0
C3608 C 0.56638 0.05807 1.06134 0.0
C3609 C 0.57198 1.01506 1.05677 0.0
N3610 N 0.55444 0.94732 1.06596 0.0
N3611 N 0.5299 0.11297 0.07656 0.0
C3612 C 0.55472 0.98823 1.06975 0.0
C3613 C 0.54139 0.07283 0.07627 0.0
N3614 N 0.52207 0.97492 0.09785 0.0
N3615 N 0.58794 0.08634 1.05205 0.0
H3616 H 0.51328 0.12616 0.08656 0.0
H3617 H 0.53303 0.13225 1.06592 0.0
H3618 H 0.60848 0.07823 1.04235 0.0
H3619 H 0.59026 0.11714 1.05557 0.0
H3620 H 0.53313 0.94505 0.09828 0.0
H3621 H 0.50001 0.98123 0.10718 0.0
H3622 H 0.53849 0.92539 0.07304 0.0
H3623 H 0.56771 0.93544 1.05476 0.0
C3624 C 0.2787 0.78595 0.33526 0.0
C3625 C 0.32097 0.77183 0.33818 0.0
C3626 C 0.33175 0.80203 0.30768 0.0
C3627 C 0.28861 0.80975 0.30381 0.0
N3628 N 0.22093 0.80009 0.31547 0.0
N3629 N 0.38575 0.76473 0.32336 0.0
C3630 C 0.26249 0.79965 0.31821 0.0
C3631 C 0.34637 0.77898 0.32311 0.0
N3632 N 0.25192 0.78449 0.34871 0.0
N3633 N 0.36025 0.82074 0.29749 0.0
H3634 H 0.39895 0.75133 0.33425 0.0
H3635 H 0.40413 0.7638 0.31232 0.0
H3636 H 0.3518 0.84205 0.28815 0.0
H3637 H 0.39177 0.82026 0.30009 0.0
H3638 H 0.22449 0.80097 0.34893 0.0
H3639 H 0.25671 0.76559 0.35925 0.0
H3640 H 0.19962 0.78882 0.32432 0.0
H3641 H 0.20789 0.80732 0.30353 0.0
C3642 C 0.55577 1.00929 0.58399 0.0
C3643 C 0.55525 0.05211 0.5896 0.0
C3644 C 0.51131 0.06158 0.56159 0.0
C3645 C 0.5129 1.01895 0.55567 0.0
N3646 N 0.54431 0.95442 0.56225 0.0
N3647 N 0.52513 0.11711 0.58287 0.0
C3648 C 0.5368 0.99373 0.56743 0.0
C3649 C 0.53155 0.07745 0.57782 0.0
N3650 N 0.57491 0.98211 0.59466 0.0
N3651 N 0.48912 0.08805 0.55164 0.0
H3652 H 0.53742 0.12953 0.59422 0.0
H3653 H 0.50538 0.13741 0.57673 0.0
H3654 H 0.46708 0.07815 0.5427 0.0
H3655 H 0.49242 0.11974 0.55206 0.0
H3656 H 0.57031 0.95055 0.59401 0.0
H3657 H 0.59448 0.99124 0.60468 0.0
H3658 H 0.56552 0.93522 0.5682 0.0
H3659 H 0.53173 0.94179 0.551 0.0
C3660 C 0.32121 0.31618 0.81158 0.0
C3661 C 0.31613 0.27408 0.80535 0.0
C3662 C 0.27213 0.26705 0.83358 0.0
C3663 C 0.27724 0.30915 0.83982 0.0
N3664 N 0.31775 0.36959 0.83422 0.0
N3665 N 0.27484 0.21421 0.81063 0.0
C3666 C 0.30421 0.33232 0.82834 0.0
C3667 C 0.28896 0.251 0.81675 0.0
N3668 N 0.34297 0.34228 0.80132 0.0
N3669 N 0.25022 0.24103 0.84381 0.0
H3670 H 0.28168 0.20362 0.79828 0.0
H3671 H 0.25233 0.19659 0.81665 0.0
H3672 H 0.23129 0.25131 0.85372 0.0
H3673 H 0.25194 0.20925 0.84281 0.0
H3674 H 0.3405 0.37406 0.80209 0.0
H3675 H 0.36265 0.33215 0.79163 0.0
H3676 H 0.34047 0.38699 0.82822 0.0
H3677 H 0.31005 0.38131 0.8463 0.0
C3678 C 0.04574 0.09247 1.0694 0.0
C3679 C 0.05693 0.06662 1.05486 0.0
C3680 C 1.02374 1.00912 0.07388 0.0
C3681 C 1.01605 1.03401 0.08934 0.0
N3682 N 1.02187 0.1044 0.09912 0.0
N3683 N 0.06229 0.99576 1.04698 0.0
C3684 C 1.02827 0.07679 0.08615 0.0
C3685 C 0.04697 1.02391 1.0583 0.0
N3686 N 0.04889 0.1337 1.06682 0.0
N3687 N 1.00725 0.97064 0.07335 0.0
H3688 H 0.08067 1.00432 1.03658 0.0
H3689 H 0.06127 0.96426 1.04907 0.0
H3690 H 0.99051 0.95817 0.08347 0.0
H3691 H 1.00615 0.95285 1.0621 0.0
H3692 H 1.03762 0.15584 0.07528 0.0
H3693 H 0.05926 0.14587 1.05517 0.0
H3694 H 1.03728 0.1324 0.09999 0.0
H3695 H 1.00073 0.09953 0.10893 0.0
C3696 C 0.75276 0.81084 0.83035 0.0
C3697 C 0.76671 0.77202 0.8374 0.0
C3698 C 0.81453 0.77262 0.81021 0.0
C3699 C 0.80074 0.81164 0.80297 0.0
N3700 N 0.74875 0.86304 0.80732 0.0
N3701 N 0.82253 0.72468 0.83453 0.0
C3702 C 0.768 0.8292 0.81365 0.0
C3703 C 0.80044 0.75558 0.82721 0.0
N3704 N 0.7256 0.83216 0.84032 0.0
N3705 N 0.84202 0.75026 0.80083 0.0
H3706 H 0.816 0.71353 0.84681 0.0
H3707 H 0.85008 0.71355 0.82955 0.0
H3708 H 0.85917 0.76221 0.7907 0.0
H3709 H 0.84667 0.71902 0.80276 0.0
H3710 H 0.71835 0.86281 0.83843 0.0
H3711 H 0.71231 0.81955 0.85137 0.0
H3712 H 0.72185 0.87527 0.81243 0.0
H3713 H 0.75793 0.87745 0.79601 0.0
C3714 C 0.82087 0.27771 0.33376 0.0
C3715 C 0.80472 0.31528 0.34144 0.0
C3716 C 0.75163 0.30905 0.31575 0.0
C3717 C 0.76964 0.27312 0.30762 0.0
N3718 N 0.8288 0.22915 0.30955 0.0
N3719 N 0.7539 0.36748 0.33628 0.0
C3720 C 0.80612 0.2596 0.31698 0.0
C3721 C 0.76995 0.33078 0.33129 0.0
N3722 N 0.85149 0.25794 0.34248 0.0
N3723 N 0.71581 0.3229 0.30863 0.0
H3724 H 0.76292 0.3824 0.34761 0.0
H3725 H 0.73366 0.38451 0.32874 0.0
H3726 H 0.70289 0.30953 0.29754 0.0
H3727 H 0.69734 0.34521 0.31427 0.0
H3728 H 0.85885 0.22731 0.34026 0.0
H3729 H 0.86883 0.27145 0.35232 0.0
H3730 H 0.85868 0.22194 0.3134 0.0
H3731 H 0.81901 0.21275 0.2987 0.0
C3732 C 0.82308 0.31268 0.81227 0.0
C3733 C 0.78007 0.31636 0.80707 0.0
C3734 C 0.7671 0.27839 0.83611 0.0
C3735 C 0.81047 0.27282 0.84085 0.0
N3736 N 0.87889 0.28367 0.82995 0.0
N3737 N 0.71186 0.29666 0.81522 0.0
C3738 C 0.83767 0.2895 0.82775 0.0
C3739 C 0.75263 0.29794 0.81959 0.0
N3740 N 0.85114 0.33476 0.80305 0.0
N3741 N 0.73845 0.26343 0.84729 0.0
H3742 H 0.70069 0.30973 0.80384 0.0
H3743 H 0.6895 0.2805 0.82199 0.0
H3744 H 0.74575 0.24241 0.85689 0.0
H3745 H 0.70761 0.27196 0.84718 0.0
H3746 H 0.88179 0.33868 0.80673 0.0
H3747 H 0.84273 0.35352 0.79279 0.0
H3748 H 0.90019 0.28683 0.81998 0.0
H3749 H 0.89162 0.27375 0.84155 0.0
C3750 C 0.76449 0.7949 0.32471 0.0
C3751 C 0.79056 0.80793 0.33913 0.0
C3752 C 0.84849 0.77729 0.31966 0.0
C3753 C 0.8236 0.76818 0.30431 0.0
N3754 N 0.75372 0.77316 0.29427 0.0
N3755 N 0.86182 0.81966 0.3455 0.0
C3756 C 0.78059 0.77897 0.30762 0.0
C3757 C 0.83359 0.801 0.33506 0.0
N3758 N 0.72302 0.79702 0.32731 0.0
N3759 N 0.8876 0.76277 0.31999 0.0
H3760 H 0.85259 0.83993 0.35513 0.0
H3761 H 0.89337 0.81972 0.34304 0.0
H3762 H 0.90008 0.74768 0.30946 0.0
H3763 H 0.90575 0.7625 0.33118 0.0
H3764 H 0.70115 0.78475 0.31884 0.0
H3765 H 0.71059 0.80882 0.33873 0.0
H3766 H 0.72423 0.78554 0.29388 0.0
H3767 H 0.76213 0.75692 0.28325 0.0
C3768 C 0.56665 0.55573 0.08322 0.0
C3769 C 0.57086 0.51239 0.08762 0.0
C3770 C 0.5322 0.50209 1.0581 0.0
C3771 C 0.52662 0.54556 1.05405 0.0
N3772 N 0.54745 0.61266 1.06388 0.0
N3773 N 0.55072 0.44539 0.0779 0.0
C3774 C 0.54573 0.5716 1.06723 0.0
C3775 C 0.55215 0.48632 0.07441 0.0
N3776 N 0.58403 0.58326 0.09444 0.0
N3777 N 0.51831 0.47441 1.04611 0.0
H3778 H 0.56438 0.43286 0.08889 0.0
H3779 H 0.5336 0.42413 1.07078 0.0
H3780 H 0.4984 0.4822 1.03609 0.0
H3781 H 0.52761 0.44395 1.0457 0.0
H3782 H 0.57501 0.61371 0.0955 0.0
H3783 H 0.60806 0.57542 0.10273 0.0
H3784 H 0.56454 0.63388 1.07101 0.0
H3785 H 0.53456 0.62588 1.05295 0.0
C3786 C 1.03279 0.51044 0.5836 0.0
C3787 C 1.02499 0.55364 0.58742 0.0
C3788 C 0.05435 0.5624 0.55613 0.0
C3789 C 0.06592 0.51968 0.55315 0.0
N3790 N 0.07055 0.45595 0.56845 0.0
N3791 N 1.03613 0.62051 0.57531 0.0
C3792 C 0.05675 0.49525 0.56835 0.0
C3793 C 1.03775 0.57911 0.57293 0.0
N3794 N 1.01384 0.48207 0.59379 0.0
N3795 N 0.06031 0.58856 0.54273 0.0
H3796 H 1.02526 0.63391 0.58664 0.0
H3797 H 0.04887 0.64165 0.5668 0.0
H3798 H 0.07763 0.5801 0.53203 0.0
H3799 H 0.04708 0.6175 0.54199 0.0
H3800 H 1.01468 0.45067 0.59132 0.0
H3801 H 0.99215 0.48991 0.6031 0.0
H3802 H 0.0716 0.43816 0.57962 0.0
H3803 H 0.08351 0.44244 0.55758 0.0
C3804 C 1.04355 0.59061 0.07747 0.0
C3805 C 0.06004 0.56491 0.09102 0.0
C3806 C 1.04022 0.50531 1.06973 0.0
C3807 C 1.02177 0.53102 1.05659 0.0
N3808 N 1.00118 0.60057 1.0513 0.0
N3809 N 0.07131 0.49458 0.09861 0.0
C3810 C 1.02297 0.57428 1.06147 0.0
C3811 C 0.05695 0.52146 0.08659 0.0
N3812 N 0.04714 0.63188 0.07984 0.0
N3813 N 1.04409 0.46474 1.06572 0.0
H3814 H 0.08841 0.50425 0.10932 0.0
H3815 H 0.06554 0.46321 0.0983 0.0
H3816 H 1.03294 0.45235 1.05413 0.0
H3817 H 0.06072 0.44387 0.07306 0.0
H3818 H 1.04239 0.65328 1.07008 0.0
H3819 H 0.05764 0.64453 0.09145 0.0
H3820 H 0.99587 0.63115 1.05438 0.0
H3821 H 0.98405 0.59062 1.04066 0.0
C3822 C 0.5262 0.56365 0.58362 0.0
C3823 C 0.52261 0.52039 0.58833 0.0
C3824 C 0.56403 0.50988 0.55993 0.0
C3825 C 0.56484 0.5527 0.55452 0.0
N3826 N 0.53796 0.61857 0.56219 0.0
N3827 N 0.5352 0.45297 0.57704 0.0
C3828 C 0.54383 0.57875 0.56688 0.0
C3829 C 0.54045 0.49417 0.57517 0.0
N3830 N 0.51117 0.59163 0.59509 0.0
N3831 N 0.58895 0.48337 0.55123 0.0
H3832 H 0.52173 0.44019 0.58799 0.0
H3833 H 0.54116 0.43192 0.56718 0.0
H3834 H 0.60823 0.49267 0.54124 0.0
H3835 H 0.59446 0.45345 0.55521 0.0
H3836 H 0.51811 0.62278 0.59464 0.0
H3837 H 0.4922 0.58339 0.60531 0.0
H3838 H 0.51885 0.63878 0.5688 0.0
H3839 H 0.54929 0.63051 0.55065 0.0
C3840 C 0.31385 0.08863 0.44093 0.0
C3841 C 0.32365 0.13036 0.43425 0.0
C3842 C 0.3915 0.11237 0.45438 0.0
C3843 C 0.38161 0.07047 0.46101 0.0
N3844 N 0.32195 1.02732 0.45974 0.0
N3845 N 0.38386 0.17353 0.43511 0.0
C3846 C 0.3397 0.06204 0.45369 0.0
C3847 C 0.36572 0.13907 0.4415 0.0
N3848 N 0.2785 0.072 0.4344 0.0
N3849 N 0.42622 0.1294 0.4614 0.0
H3850 H 0.36849 0.19333 0.4268 0.0
H3851 H 0.41501 0.18048 0.43654 0.0
H3852 H 0.4455 0.11321 0.46969 0.0
H3853 H 0.43381 0.16032 0.46049 0.0
H3854 H 0.27116 1.04095 0.43501 0.0
H3855 H 0.25748 0.08931 0.4274 0.0
H3856 H 0.29046 1.02126 0.45909 0.0
H3857 H 0.33904 1.00583 0.46647 0.0
C3858 C 0.22918 0.14304 0.7036 0.0
C3859 C 0.27192 0.13537 0.70988 0.0
C3860 C 0.26021 0.07287 0.68679 0.0
C3861 C 0.21634 0.07837 0.68153 0.0
N3862 N 0.16168 0.12385 0.69001 0.0
N3863 N 0.32171 0.0818 0.70601 0.0
C3864 C 0.20251 0.11498 0.69158 0.0
C3865 C 0.28458 0.097 0.70092 0.0
N3866 N 0.21263 0.17918 0.70902 0.0
N3867 N 0.28094 0.04397 0.67762 0.0
H3868 H 0.34167 0.09796 0.71415 0.0
H3869 H 0.33128 0.05205 0.70329 0.0
H3870 H 0.26644 1.02623 0.66822 0.0
H3871 H 0.31279 1.04047 0.67801 0.0
H3872 H 0.18613 0.19188 0.70367 0.0
H3873 H 0.22741 0.19815 0.71802 0.0
H3874 H 0.14621 0.14383 0.69825 0.0
H3875 H 0.14248 0.10883 0.68118 0.0
C3876 C 0.23564 1.02404 0.94857 0.0
C3877 C 0.19987 1.01185 0.95921 0.0
C3878 C 0.22113 0.94008 0.9426 0.0
C3879 C 0.25518 0.95394 0.93089 0.0
N3880 N 0.2759 1.02113 0.92154 0.0
N3881 N 0.16615 0.94828 0.96541 0.0
C3882 C 0.25639 0.99918 0.9339 0.0
C3883 C 0.19521 0.96699 0.95548 0.0
N3884 N 0.2529 0.06064 0.95292 0.0
N3885 N 0.21074 0.89976 0.94065 0.0
H3886 H 0.14694 0.96511 0.97349 0.0
H3887 H 0.16234 0.91683 0.96665 0.0
H3888 H 0.22618 0.88046 0.93212 0.0
H3889 H 0.18537 0.88565 0.94623 0.0
H3890 H 0.28133 0.06999 0.94809 0.0
H3891 H 0.24091 0.07901 0.96276 0.0
H3892 H 0.27591 0.05305 0.92116 0.0
H3893 H 0.28906 1.00661 0.91097 0.0
C3894 C 0.35272 0.98667 0.21281 0.0
C3895 C 0.33557 0.94496 0.20958 0.0
C3896 C 0.37394 0.96162 0.17902 0.0
C3897 C 0.39326 1.00202 0.18273 0.0
N3898 N 0.40596 1.04119 0.20864 0.0
N3899 N 0.34511 0.89358 0.18744 0.0
C3900 C 0.38329 1.0106 0.20117 0.0
C3901 C 0.351 0.9335 0.19203 0.0
N3902 N 0.34048 1.00474 0.22785 0.0
N3903 N 0.37707 0.94888 0.16224 0.0
H3904 H 0.32897 0.87327 0.19524 0.0
H3905 H 0.35914 0.87993 0.17677 0.0
H3906 H 0.39331 0.96584 0.15306 0.0
H3907 H 0.36082 0.92391 0.15719 0.0
H3908 H 0.34531 1.03571 0.23058 0.0
H3909 H 0.32299 0.98911 0.237 0.0
H3910 H 0.40528 0.04801 0.22183 0.0
H3911 H 0.42926 0.05625 0.20186 0.0
C3912 C 0.74486 0.94381 0.6921 0.0
C3913 C 0.74968 0.94943 0.71128 0.0
C3914 C 0.6958 1.0103 0.70248 0.0
C3915 C 0.69448 1.0075 0.68317 0.0
N3916 N 0.72838 0.96658 0.66176 0.0
N3917 N 0.72398 0.99697 0.73226 0.0
C3918 C 0.72235 0.97269 0.67904 0.0
C3919 C 0.72351 0.98561 0.71528 0.0
N3920 N 0.76178 0.90873 0.68575 0.0
N3921 N 0.6681 1.03696 0.70927 0.0
H3922 H 0.73789 0.9788 0.74167 0.0
H3923 H 0.71283 1.02484 0.73683 0.0
H3924 H 0.64889 0.05384 0.70123 0.0
H3925 H 0.66134 1.03947 0.7224 0.0
H3926 H 0.75628 0.89759 0.67329 0.0
H3927 H 0.77893 0.88904 0.69353 0.0
H3928 H 0.75075 0.94716 0.65673 0.0
H3929 H 0.71299 0.98399 0.65246 0.0
C3930 C 0.85042 1.01696 0.45032 0.0
C3931 C 0.89004 1.00567 0.45889 0.0
C3932 C 0.87106 0.93656 0.44005 0.0
C3933 C 0.83145 0.94814 0.4315 0.0
N3934 N 0.79034 1.00881 0.43005 0.0
N3935 N 0.92851 0.94335 0.46173 0.0
C3936 C 0.82397 0.99094 0.43739 0.0
C3937 C 0.89703 0.96239 0.45328 0.0
N3938 N 0.83543 0.05397 0.45522 0.0
N3939 N 0.88651 0.89986 0.4347 0.0
H3940 H 0.94735 0.95867 0.47061 0.0
H3941 H 0.93341 0.91187 0.46138 0.0
H3942 H 0.87063 0.88082 0.42607 0.0
H3943 H 0.91635 0.89009 0.43733 0.0
H3944 H 0.80438 0.06135 0.45424 0.0
H3945 H 0.85363 0.07562 0.46161 0.0
H3946 H 0.78468 1.04018 0.43036 0.0
H3947 H 0.76909 0.99212 0.42268 0.0
C3948 C 0.83327 0.08134 0.18544 0.0
C3949 C 0.87907 0.08099 0.18294 0.0
C3950 C 0.8674 0.14014 0.2081 0.0
C3951 C 0.82199 0.13789 0.21115 0.0
N3952 N 0.76825 0.09177 0.20202 0.0
N3953 N 0.93387 0.12535 0.19289 0.0
C3954 C 0.80789 0.10416 0.19952 0.0
C3955 C 0.89354 0.11458 0.1949 0.0
N3956 N 0.81148 0.0615 0.17291 0.0
N3957 N 0.88771 0.16628 0.21904 0.0
H3958 H 0.95344 0.10983 0.18453 0.0
H3959 H 0.94713 0.15189 0.19797 0.0
H3960 H 0.87209 0.18525 0.22765 0.0
H3961 H 0.91947 0.16674 0.22084 0.0
H3962 H 0.7796 0.06333 0.1715 0.0
H3963 H 0.82648 0.04768 0.16269 0.0
H3964 H 0.75615 0.06478 0.19676 0.0
H3965 H 0.74867 0.10667 0.21062 0.0
C3966 C 0.69922 0.1096 0.95459 0.0
C3967 C 0.70998 0.06802 0.96125 0.0
C3968 C 0.77623 0.0867 0.9409 0.0
C3969 C 0.76555 0.12786 0.93408 0.0
N3970 N 0.70549 0.17049 0.93509 0.0
N3971 N 0.77032 1.02627 0.96018 0.0
C3972 C 0.72401 0.13633 0.94149 0.0
C3973 C 0.75151 0.06011 0.9539 0.0
N3974 N 0.66491 0.12634 0.96182 0.0
N3975 N 0.81124 0.0704 0.93426 0.0
H3976 H 0.75395 1.0035 0.96654 0.0
H3977 H 0.8022 1.02262 0.96001 0.0
H3978 H 0.8323 0.08798 0.9274 0.0
H3979 H 0.81755 1.03916 0.93457 0.0
H3980 H 0.65692 0.15706 0.96071 0.0
H3981 H 0.64651 0.11043 0.97052 0.0
H3982 H 0.67439 0.1771 0.93662 0.0
H3983 H 0.72053 0.19039 0.92671 0.0
C3984 C 0.81624 0.58925 0.93908 0.0
C3985 C 0.82448 0.63187 0.9329 0.0
C3986 C 0.89006 0.61784 0.95461 0.0
C3987 C 0.88296 0.5746 0.96013 0.0
N3988 N 0.83083 0.52365 0.95503 0.0
N3989 N 0.88163 0.67887 0.93548 0.0
C3990 C 0.84364 0.56248 0.95131 0.0
C3991 C 0.86477 0.64307 0.94117 0.0
N3992 N 0.78042 0.57284 0.9329 0.0
N3993 N 0.92128 0.63745 0.96319 0.0
H3994 H 0.86671 0.69771 0.92665 0.0
H3995 H 0.91192 0.68776 0.938 0.0
H3996 H 0.93995 0.62262 0.97216 0.0
H3997 H 0.92593 0.66902 0.96287 0.0
H3998 H 0.77234 0.54206 0.93333 0.0
H3999 H 0.75815 0.59093 0.92703 0.0
H4000 H 0.80198 0.51151 0.95217 0.0
H4001 H 0.84951 0.50298 0.96157 0.0
C4002 C 0.74272 0.54672 0.19581 0.0
C4003 C 0.71142 0.56133 0.18318 0.0
C4004 C 0.74001 0.63317 0.19751 0.0
C4005 C 0.77081 0.61835 0.21051 0.0
N4006 N 0.78508 0.55219 0.22272 0.0
N4007 N 0.69147 0.62689 0.17227 0.0
C4008 C 0.76718 0.57269 0.20939 0.0
C4009 C 0.71359 0.6069 0.18462 0.0
N4010 N 0.75088 0.5059 0.19478 0.0
N4011 N 0.73296 0.67432 0.19803 0.0
H4012 H 0.6725 0.61113 0.16363 0.0
H4013 H 0.69482 0.65783 0.1694 0.0
H4014 H 0.74936 0.6941 0.20612 0.0
H4015 H 0.70829 0.68854 0.19192 0.0
H4016 H 0.7762 0.49235 0.20074 0.0
H4017 H 0.73423 0.48638 0.1866 0.0
H4018 H 0.78102 0.52096 0.22489 0.0
H4019 H 0.79894 0.56766 0.23299 0.0
C4020 C 0.72051 0.43668 0.44276 0.0
C4021 C 0.75459 0.4522 0.43159 0.0
C4022 C 0.73131 0.5212 0.44859 0.0
C4023 C 0.69682 0.50674 0.45939 0.0
N4024 N 0.66807 0.44115 0.46647 0.0
N4025 N 0.77837 0.5192 0.42361 0.0
C4026 C 0.69445 0.46182 0.45594 0.0
C4027 C 0.75518 0.49703 0.43475 0.0
N4028 N 0.71007 0.39663 0.44002 0.0
N4029 N 0.74489 0.55959 0.45212 0.0
H4030 H 0.79802 0.50508 0.41499 0.0
H4031 H 0.7761 0.5509 0.42232 0.0
H4032 H 0.729 0.57975 0.46009 0.0
H4033 H 0.77443 0.56862 0.44856 0.0
H4034 H 0.68367 0.38277 0.44487 0.0
H4035 H 0.72567 0.37803 0.43128 0.0
H4036 H 0.66749 0.40946 0.46783 0.0
H4037 H 0.64914 0.45633 0.4752 0.0
C4038 C 0.82407 0.4918 0.70144 0.0
C4039 C 0.8345 0.45187 0.70962 0.0
C4040 C 0.90318 0.46824 0.69003 0.0
C4041 C 0.89329 0.50895 0.6823 0.0
N4042 N 0.83425 0.55211 0.68222 0.0
N4043 N 0.89542 0.41021 0.71092 0.0
C4044 C 0.85098 0.51763 0.68883 0.0
C4045 C 0.87715 0.44312 0.70332 0.0
N4046 N 0.78696 0.50738 0.70624 0.0
N4047 N 0.93818 0.45076 0.68378 0.0
H4048 H 0.87998 0.3914 0.7196 0.0
H4049 H 0.92672 0.40382 0.71002 0.0
H4050 H 0.95756 0.46598 0.67523 0.0
H4051 H 0.94585 0.42014 0.68558 0.0
H4052 H 0.77847 0.53785 0.70466 0.0
H4053 H 0.765 0.48978 0.71258 0.0
H4054 H 0.80277 0.55791 0.68167 0.0
H4055 H 0.85296 0.57458 0.67696 0.0
C4056 C 0.25386 0.45502 0.19518 0.0
C4057 C 0.2569 0.45721 0.21445 0.0
C4058 C 0.19647 0.5124 0.20691 0.0
C4059 C 0.19882 0.51554 0.18766 0.0
N4060 N 0.24106 0.48455 0.16576 0.0
N4061 N 0.22585 0.49906 0.23643 0.0
C4062 C 0.23119 0.48533 0.18289 0.0
C4063 C 0.22671 0.48951 0.21924 0.0
N4064 N 0.27155 0.42136 0.18797 0.0
N4065 N 0.16263 0.53007 0.21402 0.0
H4066 H 0.24426 0.48374 0.24542 0.0
H4067 H 0.2098 0.52408 0.24136 0.0
H4068 H 0.1402 0.54379 0.20628 0.0
H4069 H 0.15449 0.52664 0.22697 0.0
H4070 H 0.26783 0.41321 0.17498 0.0
H4071 H 0.28621 0.39945 0.19558 0.0
H4072 H 0.26623 0.46851 0.16091 0.0
H4073 H 0.22583 0.50288 0.15674 0.0
C4074 C 0.39239 0.46326 0.95655 0.0
C4075 C 0.38493 0.50592 0.96287 0.0
C4076 C 0.31857 0.49216 0.94161 0.0
C4077 C 0.32634 0.44966 0.93515 0.0
N4078 N 0.3826 0.40248 0.93693 0.0
N4079 N 0.33248 0.55619 0.95892 0.0
C4080 C 0.3665 0.43816 0.94312 0.0
C4081 C 0.34558 0.51806 0.9544 0.0
N4082 N 0.42467 0.4442 0.96435 0.0
N4083 N 0.28397 0.50961 0.935 0.0
H4084 H 0.35175 0.57678 0.96541 0.0
H4085 H 0.30278 0.567 0.95698 0.0
H4086 H 0.26177 0.49214 0.9286 0.0
H4087 H 0.27742 0.54073 0.93542 0.0
H4088 H 0.43036 0.41291 0.96345 0.0
H4089 H 0.44342 0.45941 0.97324 0.0
H4090 H 0.4128 0.39321 0.93913 0.0
H4091 H 0.36688 0.38404 0.92801 0.0
C4092 C 0.39008 0.60755 0.69174 0.0
C4093 C 0.38033 0.56659 0.68398 0.0
C4094 C 0.31085 0.58327 0.70289 0.0
C4095 C 0.32101 0.62361 0.71107 0.0
N4096 N 0.38192 0.66596 0.71258 0.0
N4097 N 0.32059 0.52336 0.68319 0.0
C4098 C 0.36378 0.63268 0.70493 0.0
C4099 C 0.3378 0.55762 0.69021 0.0
N4100 N 0.42507 0.62535 0.68554 0.0
N4101 N 0.27408 0.56693 0.70784 0.0
H4102 H 0.33832 0.50094 0.67727 0.0
H4103 H 0.28889 0.51883 0.68228 0.0
H4104 H 0.25229 0.58386 0.71457 0.0
H4105 H 0.26599 0.53627 0.70612 0.0
H4106 H 0.43261 0.65612 0.68736 0.0
H4107 H 0.44454 0.61033 0.67694 0.0
H4108 H 0.41325 0.67257 0.7118 0.0
H4109 H 0.36638 0.68486 0.72121 0.0
C4110 C 0.25439 0.5578 0.45349 0.0
C4111 C 0.2131 0.56732 0.46079 0.0
C4112 C 0.2285 0.63485 0.44097 0.0
C4113 C 0.26994 0.62543 0.43366 0.0
N4114 N 0.31639 0.5686 0.43469 0.0
N4115 N 0.16846 0.62557 0.46091 0.0
C4116 C 0.28033 0.58425 0.44071 0.0
C4117 C 0.20302 0.6087 0.45396 0.0
N4118 N 0.27045 0.52183 0.45919 0.0
N4119 N 0.21086 0.66955 0.43464 0.0
H4120 H 0.14933 0.60921 0.4692 0.0
H4121 H 0.16072 0.65637 0.45988 0.0
H4122 H 0.22645 0.68939 0.42645 0.0
H4123 H 0.17995 0.67696 0.43617 0.0
H4124 H 0.30113 0.51337 0.45799 0.0
H4125 H 0.25259 0.50082 0.46596 0.0
H4126 H 0.32576 0.53851 0.43627 0.0
H4127 H 0.33665 0.58573 0.42723 0.0
C4128 C 0.36663 0.06782 0.31585 0.0
C4129 C 0.36802 0.06454 0.3341 0.0
C4130 C 0.4087 1.00254 0.33143 0.0
C4131 C 0.39175 0.99819 0.31466 0.0
N4132 N 0.39051 1.03882 0.28872 0.0
N4133 N 0.40151 1.03752 0.35925 0.0
C4134 C 0.38275 1.03512 0.30595 0.0
C4135 C 0.39459 1.03565 0.34184 0.0
N4136 N 0.34619 0.09949 0.30829 0.0
N4137 N 0.43354 0.97248 0.33763 0.0
H4138 H 0.39035 0.06191 0.36667 0.0
H4139 H 0.4177 1.0154 0.36613 0.0
H4140 H 0.44131 0.94748 0.32979 0.0
H4141 H 0.44746 0.97341 0.34981 0.0
H4142 H 0.33981 0.10051 0.29506 0.0
H4143 H 0.33471 0.1239 0.3156 0.0
H4144 H 0.3859 0.06595 0.28191 0.0
H4145 H 0.40598 1.01577 0.28197 0.0
C4146 C 0.25102 0.10195 0.58174 0.0
C4147 C 0.21414 0.10122 0.57211 0.0
C4148 C 0.25368 0.11839 0.54665 0.0
C4149 C 0.2863 0.09647 0.55439 0.0
N4150 N 0.32274 0.08198 0.58097 0.0
N4151 N 0.18433 0.14543 0.55081 0.0
C4152 C 0.28802 0.09478 0.57268 0.0
C4153 C 0.21671 0.12256 0.55628 0.0
N4154 N 0.25017 0.11038 0.59893 0.0
N4155 N 0.2571 0.13056 0.52989 0.0
H4156 H 0.15792 0.14799 0.55842 0.0
H4157 H 0.18481 0.16295 0.53957 0.0
H4158 H 0.28445 0.12588 0.52306 0.0
H4159 H 0.2336 0.14505 0.52309 0.0
H4160 H 0.27708 0.11605 0.60596 0.0
H4161 H 0.22221 0.11587 0.60518 0.0
H4162 H 0.32353 0.07607 0.59424 0.0
H4163 H 0.35008 0.07676 0.57425 0.0
C4164 C 0.25014 1.03087 0.82494 0.0
C4165 C 0.26278 1.03866 0.80778 0.0
C4166 C 0.23429 0.97298 0.79918 0.0
C4167 C 0.24224 0.95979 0.81619 0.0
N4168 N 0.22373 0.97921 0.84494 0.0
N4169 N 0.25216 1.02362 0.77758 0.0
C4170 C 0.23763 0.99022 0.82906 0.0
C4171 C 0.24896 1.0122 0.79444 0.0
N4172 N 0.25373 0.06111 0.83707 0.0
N4173 N 0.21035 0.94982 0.78845 0.0
H4174 H 0.2618 0.05311 0.77427 0.0
H4175 H 0.24565 1.00372 0.7673 0.0
H4176 H 0.19741 0.92227 0.79268 0.0
H4177 H 0.2 0.96053 0.77651 0.0
H4178 H 0.24545 0.05749 0.84994 0.0
H4179 H 0.26388 0.09046 0.83373 0.0
H4180 H 0.21575 1.00041 0.85443 0.0
H4181 H 0.21694 0.94855 0.84765 0.0
C4182 C 0.2765 0.94912 1.05394 0.0
C4183 C 0.23908 0.93975 1.06233 0.0
C4184 C 0.27538 0.93852 0.08977 0.0
C4185 C 0.30399 0.96603 0.0823 0.0
N4186 N 0.33976 0.9884 1.05666 0.0
N4187 N 0.21457 0.89564 0.08466 0.0
C4188 C 0.30824 0.96711 1.06406 0.0
C4189 C 0.24352 0.92255 0.07896 0.0
N4190 N 0.28083 0.94132 1.03672 0.0
N4191 N 0.27631 0.932 0.10719 0.0
H4192 H 0.19022 0.88664 0.07655 0.0
H4193 H 0.21597 0.88135 0.09668 0.0
H4194 H 0.29992 0.94422 0.11492 0.0
H4195 H 0.254 0.91524 0.11376 0.0
H4196 H 0.30837 0.94611 1.03011 0.0
H4197 H 0.2573 0.92675 1.02971 0.0
H4198 H 0.34133 0.99394 1.04339 0.0
H4199 H 0.36364 1.00116 1.06404 0.0
C4200 C 0.72974 0.99459 0.83479 0.0
C4201 C 0.74998 0.98061 0.81965 0.0
C4202 C 0.73116 0.04432 0.80544 0.0
C4203 C 0.73307 0.06259 0.82207 0.0
N4204 N 0.69785 0.05347 0.84903 0.0
N4205 N 0.73359 0.97962 0.78942 0.0
C4206 C 0.72063 1.03714 0.83594 0.0
C4207 C 0.73939 1.00157 0.80425 0.0
N4208 N 0.71436 0.96713 0.84631 0.0
N4209 N 0.7181 0.0668 0.79168 0.0
H4210 H 0.73769 0.94788 0.78927 0.0
H4211 H 0.72275 0.9921 0.7779 0.0
H4212 H 0.70727 0.09666 0.79343 0.0
H4213 H 0.71572 0.05552 0.77909 0.0
H4214 H 0.70084 0.97515 0.85803 0.0
H4215 H 0.712 0.93612 0.84306 0.0
H4216 H 0.68787 1.03721 0.85979 0.0
H4217 H 0.68856 0.0841 0.84862 0.0
C4218 C 0.7758 0.97001 0.5648 0.0
C4219 C 0.7801 0.96681 0.58301 0.0
C4220 C 0.84281 0.92739 0.57909 0.0
C4221 C 0.84569 0.94553 0.5626 0.0
N4222 N 0.80289 0.94779 0.53709 0.0
N4223 N 0.80835 0.93041 0.60713 0.0
C4224 C 0.80783 0.95444 0.55439 0.0
C4225 C 0.8097 0.93967 0.58995 0.0
N4226 N 0.74391 0.99132 0.55774 0.0
N4227 N 0.87427 0.90339 0.5847 0.0
H4228 H 0.78399 0.94043 0.61487 0.0
H4229 H 0.83058 0.91314 0.61349 0.0
H4230 H 0.89914 0.89704 0.57657 0.0
H4231 H 0.87483 0.88902 0.59671 0.0
H4232 H 0.74254 0.99889 0.54464 0.0
H4233 H 0.71965 1.00221 0.56525 0.0
H4234 H 0.77501 0.95243 0.53064 0.0
H4235 H 0.82575 0.93321 0.52988 0.0
C4236 C 0.8556 1.01544 0.33906 0.0
C4237 C 0.86282 0.98093 0.32842 0.0
C4238 C 0.88086 1.02653 0.30497 0.0
C4239 C 0.85457 0.05551 0.31277 0.0
N4240 N 0.8301 0.08527 0.33932 0.0
N4241 N 0.91585 0.96114 0.30864 0.0
C4242 C 0.84822 0.05343 0.33085 0.0
C4243 C 0.88748 0.98908 0.31381 0.0
N4244 N 0.85757 1.0118 0.35653 0.0
N4245 N 0.89484 1.03309 0.28863 0.0
H4246 H 0.9199 0.93398 0.31556 0.0
H4247 H 0.93631 0.9663 0.2985 0.0
H4248 H 0.88906 0.06076 0.28231 0.0
H4249 H 0.91091 1.01117 0.28153 0.0
H4250 H 0.85727 1.03723 0.36474 0.0
H4251 H 0.86397 0.98351 0.36221 0.0
H4252 H 0.82024 0.08341 0.35214 0.0
H4253 H 0.82424 0.11294 0.33303 0.0
C4254 C 0.77268 0.14617 0.08979 0.0
C4255 C 0.80255 0.11917 0.08292 0.0
C4256 C 0.77896 0.13634 1.05405 0.0
C4257 C 0.74015 0.1441 1.06153 0.0
N4258 N 0.71179 0.18742 0.08343 0.0
N4259 N 0.84219 0.09825 1.05799 0.0
C4260 C 0.74197 0.16132 0.07832 0.0
C4261 C 0.80947 0.11875 1.0648 0.0
N4262 N 0.77138 0.15285 0.10722 0.0
N4263 N 0.78539 0.14429 1.037 0.0
H4264 H 0.86522 0.08586 1.06582 0.0
H4265 H 0.84565 0.09308 1.04474 0.0
H4266 H 0.76236 0.15784 1.02948 0.0
H4267 H 0.81388 0.14043 1.03103 0.0
H4268 H 0.74821 0.16939 0.11333 0.0
H4269 H 0.79411 0.14103 0.1154 0.0
H4270 H 0.71125 0.20164 0.09554 0.0
H4271 H 0.68842 0.19576 0.07479 0.0
C4272 C 0.89739 0.54679 0.83681 0.0
C4273 C 0.86676 0.57208 0.8294 0.0
C4274 C 0.88305 0.54425 0.8011 0.0
C4275 C 0.89715 0.50886 0.80976 0.0
N4276 N 0.94431 0.48946 0.83199 0.0
N4277 N 0.83902 0.60383 0.80382 0.0
C4278 C 0.91508 0.51584 0.82618 0.0
C4279 C 0.86356 0.57483 0.81116 0.0
N4280 N 0.90546 0.54964 0.85411 0.0
N4281 N 0.88855 0.54816 0.78373 0.0
H4282 H 0.82519 0.62672 0.81128 0.0
H4283 H 0.83189 0.60429 0.79064 0.0
H4284 H 0.90561 0.52658 0.77679 0.0
H4285 H 0.88006 0.57427 0.77687 0.0
H4286 H 0.92492 0.52978 0.86073 0.0
H4287 H 0.89194 0.57246 0.86172 0.0
H4288 H 0.95926 0.49257 0.84389 0.0
H4289 H 0.95453 0.46553 0.82406 0.0
C4290 C 0.8325 0.6575 0.07889 0.0
C4291 C 0.8363 0.63862 1.06248 0.0
C4292 C 0.76953 0.60657 1.06569 0.0
C4293 C 0.77404 0.61205 0.08381 0.0
N4294 N 0.80052 0.65252 0.10738 0.0
N4295 N 0.79284 0.62884 1.03746 0.0
C4296 C 0.80149 0.64243 0.09023 0.0
C4297 C 0.79922 0.6247 1.05479 0.0
N4298 N 0.86183 0.68498 0.08399 0.0
N4299 N 0.74018 0.58066 1.0592 0.0
H4300 H 0.81358 0.64526 1.02983 0.0
H4301 H 0.76531 0.62038 1.03137 0.0
H4302 H 0.71746 0.56778 1.06704 0.0
H4303 H 0.73971 0.57114 1.04628 0.0
H4304 H 0.86164 0.70022 0.09587 0.0
H4305 H 0.88551 0.69331 0.07556 0.0
H4306 H 0.82162 0.67213 0.11337 0.0
H4307 H 0.77774 0.64069 0.11549 0.0
C4308 C 0.72852 0.50166 0.31319 0.0
C4309 C 0.75051 0.48923 0.32805 0.0
C4310 C 0.73053 0.5527 0.34208 0.0
C4311 C 0.73181 0.57014 0.32539 0.0
N4312 N 0.6956 0.55914 0.29853 0.0
N4313 N 0.73033 0.48774 0.35772 0.0
C4314 C 0.71822 0.54379 0.31186 0.0
C4315 C 0.73933 0.51001 0.34341 0.0
N4316 N 0.72044 0.47378 0.30052 0.0
N4317 N 0.71675 0.57579 0.35558 0.0
H4318 H 0.73281 0.45582 0.35753 0.0
H4319 H 0.71859 0.50035 0.36908 0.0
H4320 H 0.70805 0.60627 0.35368 0.0
H4321 H 0.71174 0.56452 0.36797 0.0
H4322 H 0.70704 0.48105 0.28865 0.0
H4323 H 0.72677 0.44288 0.30268 0.0
H4324 H 0.68388 0.54131 0.2884 0.0
H4325 H 0.68756 0.59014 0.29836 0.0
C4326 C 0.78989 0.46219 0.55526 0.0
C4327 C 0.75164 0.44756 0.56129 0.0
C4328 C 0.78305 0.43691 0.58948 0.0
C4329 C 0.81058 0.46927 0.58534 0.0
N4330 N 0.84761 0.50558 0.56275 0.0
N4331 N 0.72156 0.39872 0.5803 0.0
C4332 C 0.81757 0.4787 0.56762 0.0
C4333 C 0.75274 0.4255 0.57693 0.0
N4334 N 0.79907 0.46044 0.53809 0.0
N4335 N 0.78359 0.42115 0.60579 0.0
H4336 H 0.69877 0.39289 0.57097 0.0
H4337 H 0.71868 0.38246 0.59179 0.0
H4338 H 0.80572 0.43069 0.61485 0.0
H4339 H 0.76363 0.39833 0.61004 0.0
H4340 H 0.82757 0.46946 0.53317 0.0
H4341 H 0.77954 0.44539 0.52932 0.0
H4342 H 0.84976 0.51692 0.55017 0.0
H4343 H 0.86983 0.51703 0.57125 0.0
C4344 C 0.22708 0.53385 0.35587 0.0
C4345 C 0.19694 0.56276 0.35123 0.0
C4346 C 0.18657 0.52719 0.32386 0.0
C4347 C 0.22704 0.51209 0.32574 0.0
N4348 N 0.28268 0.49235 0.34481 0.0
N4349 N 0.12988 0.56237 0.33809 0.0
C4350 C 0.24565 0.51105 0.3424 0.0
C4351 C 0.16987 0.55017 0.33778 0.0
N4352 N 0.23755 0.5289 0.37281 0.0
N4353 N 0.16647 0.52295 0.3084 0.0
H4354 H 0.11892 0.5802 0.34836 0.0
H4355 H 0.10805 0.55309 0.32892 0.0
H4356 H 0.17884 0.50556 0.29828 0.0
H4357 H 0.13857 0.5372 0.30561 0.0
H4358 H 0.25787 0.50634 0.37703 0.0
H4359 H 0.22285 0.54581 0.3825 0.0
H4360 H 0.30001 0.49589 0.35614 0.0
H4361 H 0.2963 0.47444 0.33519 0.0
C4362 C 0.2763 0.43558 1.0597 0.0
C4363 C 0.30264 0.46921 1.06367 0.0
C4364 C 0.28195 0.46378 0.09373 0.0
C4365 C 0.24448 0.4469 0.08772 0.0
N4366 N 0.21683 0.39514 1.0691 0.0
N4367 N 0.33723 0.50961 0.08604 0.0
C4368 C 0.24666 0.42367 0.0723 0.0
C4369 C 0.30886 0.48061 0.08131 0.0
N4370 N 0.27728 0.41876 1.0435 0.0
N4371 N 0.29088 0.46431 0.11097 0.0
H4372 H 0.35873 0.52181 0.07753 0.0
H4373 H 0.33846 0.52218 0.09848 0.0
H4374 H 0.27182 0.44947 0.11983 0.0
H4375 H 0.31892 0.47502 0.11591 0.0
H4376 H 0.258 0.39509 1.03934 0.0
H4377 H 0.29898 0.4284 1.0344 0.0
H4378 H 0.2149 0.37762 1.05782 0.0
H4379 H 0.19433 0.38902 0.0784 0.0
C4380 C 0.38133 0.55843 0.8053 0.0
C4381 C 0.3926 0.59689 0.81235 0.0
C4382 C 0.39559 0.56592 0.8408 0.0
C4383 C 0.36591 0.53729 0.83464 0.0
N4384 N 0.33965 0.49794 0.81027 0.0
N4385 N 0.43755 0.62595 0.83367 0.0
C4386 C 0.3628 0.52972 0.81656 0.0
C4387 C 0.41092 0.59555 0.82894 0.0
N4388 N 0.38748 0.55044 0.7882 0.0
N4389 N 0.40466 0.56725 0.85805 0.0
H4390 H 0.44575 0.64869 0.82481 0.0
H4391 H 0.45215 0.62757 0.84569 0.0
H4392 H 0.39263 0.54541 0.86652 0.0
H4393 H 0.42371 0.58926 0.86377 0.0
H4394 H 0.3811 0.52204 0.78251 0.0
H4395 H 0.4028 0.57156 0.78036 0.0
H4396 H 0.33279 0.49428 0.79714 0.0
H4397 H 0.32686 0.47577 0.81832 0.0
C4398 C 0.31115 0.65275 0.55721 0.0
C4399 C 0.28523 0.61905 0.56145 0.0
C4400 C 0.30501 0.62861 0.59151 0.0
C4401 C 0.34275 0.64441 0.58553 0.0
N4402 N 0.36926 0.69566 0.56667 0.0
N4403 N 0.25147 0.58029 0.58419 0.0
C4404 C 0.3404 0.66632 0.56986 0.0
C4405 C 0.27876 0.60975 0.5792 0.0
N4406 N 0.31081 0.66737 0.5407 0.0
N4407 N 0.29547 0.63048 0.60863 0.0
H4408 H 0.23054 0.56648 0.57572 0.0
H4409 H 0.25078 0.56904 0.59682 0.0
H4410 H 0.31471 0.64592 0.61741 0.0
H4411 H 0.26722 0.6204 0.61346 0.0
H4412 H 0.33055 0.69019 0.53626 0.0
H4413 H 0.28959 0.65631 0.53156 0.0
H4414 H 0.37044 0.71281 0.55535 0.0
H4415 H 0.39147 0.70303 0.57606 0.0
loop_
_geom_bond_atom_site_label_1
_geom_bond_atom_site_label_2
_geom_bond_distance
_geom_bond_site_symmetry_2
_ccdc_geom_bond_type
C0 C2 1.422 . S
C0 C4 1.415 . S
C0 N6 1.369 . S
C1 C2 1.421 . S
C1 C3 1.417 . S
C1 C13 1.422 . S
C2 C0 1.422 . S
C2 C1 1.421 . S
C2 N12 1.359 . S
C3 C1 1.417 . S
C3 C5 1.329 . S
C3 H22 0.930 . S
C4 C0 1.415 . S
C4 C5 1.437 . S
C4 C8 1.413 . S
C5 C3 1.329 . S
C5 C4 1.437 . S
C5 H27 0.929 . S
N6 C0 1.369 . S
N6 C7 1.338 . S
N6 Gd11 2.622 . S
C7 N6 1.338 . S
C7 C9 1.378 . S
C7 H19 0.929 . S
C8 C4 1.413 . S
C8 C9 1.348 . S
C8 H24 0.931 . S
C9 C7 1.378 . S
C9 C8 1.348 . S
C9 H25 0.930 . S
Gd10 N30 2.622 . S
Gd10 N37 2.570 . S
Gd10 O44 2.353 . S
Gd10 O45 2.468 . S
Gd10 O46 2.427 . S
Gd10 O48 2.388 . S
Gd10 O49 2.386 . S
Gd10 O53 2.307 . S
Gd10 C63 2.805 . S
Gd11 N6 2.622 . S
Gd11 N12 2.570 . S
Gd11 O43 2.386 . S
Gd11 O47 2.307 . S
Gd11 O50 2.353 . S
Gd11 O51 2.468 . S
Gd11 O52 2.427 . S
Gd11 O54 2.388 . S
Gd11 C75 2.805 . S
N12 C2 1.359 . S
N12 Gd11 2.570 . S
N12 C14 1.343 . S
C13 C1 1.422 . S
C13 C15 1.321 . S
C13 H21 0.931 . S
C14 N12 1.343 . S
C14 C15 1.390 . S
C14 H16 0.931 . S
C15 C13 1.321 . S
C15 C14 1.390 . S
C15 H17 0.930 . S
H16 C14 0.931 . S
H17 C15 0.930 . S
H18 C41 0.931 . S
H19 C7 0.929 . S
H20 C42 0.930 . S
H21 C13 0.931 . S
H22 C3 0.930 . S
H23 C32 0.929 . S
H24 C8 0.931 . S
H25 C9 0.930 . S
H26 C64 0.930 . S
H27 C5 0.929 . S
H28 C33 0.931 . S
H29 C34 0.930 . S
N30 Gd10 2.622 . S
N30 C31 1.369 . S
N30 C32 1.338 . S
C31 N30 1.369 . S
C31 C35 1.415 . S
C31 C38 1.422 . S
C32 H23 0.929 . S
C32 N30 1.338 . S
C32 C34 1.378 . S
C33 H28 0.931 . S
C33 C34 1.348 . S
C33 C35 1.413 . S
C34 H29 0.930 . S
C34 C32 1.378 . S
C34 C33 1.348 . S
C35 C31 1.415 . S
C35 C33 1.413 . S
C35 C65 1.437 . S
H36 C65 0.929 . S
N37 Gd10 2.570 . S
N37 C38 1.359 . S
N37 C41 1.343 . S
C38 C31 1.422 . S
C38 N37 1.359 . S
C38 C40 1.421 . S
C39 C40 1.422 . S
C39 C42 1.321 . S
C39 H66 0.931 . S
C40 C38 1.421 . S
C40 C39 1.422 . S
C40 C64 1.417 . S
C41 H18 0.931 . S
C41 N37 1.343 . S
C41 C42 1.390 . S
C42 H20 0.930 . S
C42 C39 1.321 . S
C42 C41 1.390 . S
O43 Gd11 2.386 . S
O43 C55 1.265 . S
O44 Gd10 2.353 . S
O44 C55 1.242 . S
O45 Gd10 2.468 . S
O45 C63 1.263 . S
O46 Gd10 2.427 . S
O46 C63 1.252 . S
O47 Gd11 2.307 . S
O47 C56 1.261 . S
O48 Gd10 2.388 . S
O48 C56 1.252 . S
O49 Gd10 2.386 . S
O49 C67 1.265 . S
O50 Gd11 2.353 . S
O50 C67 1.242 . S
O51 Gd11 2.468 . S
O51 C75 1.263 . S
O52 Gd11 2.427 . S
O52 C75 1.252 . S
O53 Gd10 2.307 . S
O53 C68 1.261 . S
O54 Gd11 2.388 . S
O54 C68 1.252 . S
C55 O43 1.265 . S
C55 O44 1.242 . S
C56 O47 1.261 . S
C56 O48 1.252 . S
C57 C60 1.394 . S
C57 C62 1.370 . S
C57 C63 1.500 . S
C58 C61 1.383 . S
C58 C62 1.395 . S
C59 C60 1.396 . S
C59 C61 1.365 . S
C59 H76 0.929 . S
C60 C57 1.394 . S
C60 C59 1.396 . S
C60 H77 0.930 . S
C61 C58 1.383 . S
C61 C59 1.365 . S
C61 H78 0.931 . S
C62 C57 1.370 . S
C62 C58 1.395 . S
C62 H79 0.930 . S
C63 Gd10 2.805 . S
C63 O45 1.263 . S
C63 O46 1.252 . S
C63 C57 1.500 . S
C64 H26 0.930 . S
C64 C40 1.417 . S
C64 C65 1.329 . S
C65 C35 1.437 . S
C65 H36 0.929 . S
C65 C64 1.329 . S
H66 C39 0.931 . S
C67 O49 1.265 . S
C67 O50 1.242 . S
C68 O53 1.261 . S
C68 O54 1.252 . S
C69 C72 1.394 . S
C69 C74 1.370 . S
C69 C75 1.500 . S
C70 C73 1.383 . S
C70 C74 1.395 . S
C71 C72 1.396 . S
C71 C73 1.365 . S
C71 H80 0.929 . S
C72 C69 1.394 . S
C72 C71 1.396 . S
C72 H81 0.930 . S
C73 C70 1.383 . S
C73 C71 1.365 . S
C73 H82 0.931 . S
C74 C69 1.370 . S
C74 C70 1.395 . S
C74 H83 0.930 . S
C75 Gd11 2.805 . S
C75 O51 1.263 . S
C75 O52 1.252 . S
C75 C69 1.500 . S
H76 C59 0.929 . S
H77 C60 0.930 . S
H78 C61 0.931 . S
H79 C62 0.930 . S
H80 C71 0.929 . S
H81 C72 0.930 . S
H82 C73 0.931 . S
H83 C74 0.930 . S
C84 C86 1.422 . S
C84 C88 1.415 . S
C84 N90 1.369 . S
C85 C86 1.421 . S
C85 C87 1.417 . S
C85 C97 1.422 1_545 S
C86 C84 1.422 . S
C86 C85 1.421 . S
C86 N96 1.359 1_545 S
C87 C85 1.417 . S
C87 C89 1.329 . S
C87 H106 0.930 . S
C88 C84 1.415 . S
C88 C89 1.437 . S
C88 C92 1.413 . S
C89 C87 1.329 . S
C89 C88 1.437 . S
C89 H111 0.929 . S
N90 C84 1.369 . S
N90 C91 1.338 . S
N90 Gd95 2.622 1_545 S
C91 N90 1.338 . S
C91 C93 1.378 . S
C91 H103 0.929 1_655 S
C92 C88 1.413 . S
C92 C93 1.348 . S
C92 H108 0.931 . S
C93 C91 1.378 . S
C93 C92 1.348 . S
C93 H109 0.930 . S
Gd94 N114 2.622 . S
Gd94 N121 2.570 . S
Gd94 O128 2.353 . S
Gd94 O129 2.468 . S
Gd94 O130 2.427 . S
Gd94 O132 2.388 . S
Gd94 O133 2.386 . S
Gd94 O137 2.307 . S
Gd94 C147 2.805 . S
Gd95 N90 2.622 1_565 S
Gd95 N96 2.570 . S
Gd95 O127 2.386 1_655 S
Gd95 O131 2.307 . S
Gd95 O134 2.353 1_655 S
Gd95 O135 2.468 . S
Gd95 O136 2.427 . S
Gd95 O138 2.388 1_665 S
Gd95 C159 2.805 . S
N96 C86 1.359 1_565 S
N96 Gd95 2.570 . S
N96 C98 1.343 . S
C97 C85 1.422 1_565 S
C97 C99 1.321 . S
C97 H105 0.931 . S
C98 N96 1.343 . S
C98 C99 1.390 . S
C98 H100 0.931 . S
C99 C97 1.321 . S
C99 C98 1.390 . S
C99 H101 0.930 . S
H100 C98 0.931 . S
H101 C99 0.930 . S
H102 C125 0.931 . S
H103 C91 0.929 1_455 S
H104 C126 0.930 . S
H105 C97 0.931 . S
H106 C87 0.930 . S
H107 C116 0.929 . S
H108 C92 0.931 . S
H109 C93 0.930 . S
H110 C148 0.930 . S
H111 C89 0.929 . S
H112 C117 0.931 . S
H113 C118 0.930 . S
N114 Gd94 2.622 . S
N114 C115 1.369 . S
N114 C116 1.338 . S
C115 N114 1.369 . S
C115 C119 1.415 . S
C115 C122 1.422 . S
C116 H107 0.929 . S
C116 N114 1.338 . S
C116 C118 1.378 . S
C117 H112 0.931 . S
C117 C118 1.348 . S
C117 C119 1.413 . S
C118 H113 0.930 . S
C118 C116 1.378 . S
C118 C117 1.348 . S
C119 C115 1.415 . S
C119 C117 1.413 . S
C119 C149 1.437 . S
H120 C149 0.929 . S
N121 Gd94 2.570 . S
N121 C122 1.359 . S
N121 C125 1.343 . S
C122 C115 1.422 . S
C122 N121 1.359 . S
C122 C124 1.421 . S
C123 C124 1.422 . S
C123 C126 1.321 . S
C123 H150 0.931 . S
C124 C122 1.421 . S
C124 C123 1.422 . S
C124 C148 1.417 . S
C125 H102 0.931 . S
C125 N121 1.343 . S
C125 C126 1.390 . S
C126 H104 0.930 . S
C126 C123 1.321 . S
C126 C125 1.390 . S
O127 Gd95 2.386 1_455 S
O127 C139 1.265 . S
O128 Gd94 2.353 . S
O128 C139 1.242 . S
O129 Gd94 2.468 . S
O129 C147 1.263 . S
O130 Gd94 2.427 . S
O130 C147 1.252 . S
O131 Gd95 2.307 . S
O131 C140 1.261 1_655 S
O132 Gd94 2.388 . S
O132 C140 1.252 . S
O133 Gd94 2.386 . S
O133 C151 1.265 . S
O134 Gd95 2.353 1_455 S
O134 C151 1.242 . S
O135 Gd95 2.468 . S
O135 C159 1.263 . S
O136 Gd95 2.427 . S
O136 C159 1.252 . S
O137 Gd94 2.307 . S
O137 C152 1.261 1_565 S
O138 Gd95 2.388 1_445 S
O138 C152 1.252 . S
C139 O127 1.265 . S
C139 O128 1.242 . S
C140 O131 1.261 1_455 S
C140 O132 1.252 . S
C141 C144 1.394 . S
C141 C146 1.370 . S
C141 C147 1.500 . S
C142 C145 1.383 . S
C142 C146 1.395 . S
C143 C144 1.396 . S
C143 C145 1.365 . S
C143 H160 0.929 . S
C144 C141 1.394 . S
C144 C143 1.396 . S
C144 H161 0.930 . S
C145 C142 1.383 . S
C145 C143 1.365 . S
C145 H162 0.931 . S
C146 C141 1.370 . S
C146 C142 1.395 . S
C146 H163 0.930 1_565 S
C147 Gd94 2.805 . S
C147 O129 1.263 . S
C147 O130 1.252 . S
C147 C141 1.500 . S
C148 H110 0.930 . S
C148 C124 1.417 . S
C148 C149 1.329 . S
C149 C119 1.437 . S
C149 H120 0.929 . S
C149 C148 1.329 . S
H150 C123 0.931 . S
C151 O133 1.265 . S
C151 O134 1.242 . S
C152 O137 1.261 1_545 S
C152 O138 1.252 . S
C153 C156 1.394 . S
C153 C158 1.370 . S
C153 C159 1.500 . S
C154 C157 1.383 . S
C154 C158 1.395 . S
C155 C156 1.396 . S
C155 C157 1.365 . S
C155 H164 0.929 . S
C156 C153 1.394 . S
C156 C155 1.396 . S
C156 H165 0.930 . S
C157 C154 1.383 . S
C157 C155 1.365 . S
C157 H166 0.931 . S
C158 C153 1.370 . S
C158 C154 1.395 . S
C158 H167 0.930 . S
C159 Gd95 2.805 . S
C159 O135 1.263 . S
C159 O136 1.252 . S
C159 C153 1.500 . S
H160 C143 0.929 . S
H161 C144 0.930 . S
H162 C145 0.931 . S
H163 C146 0.930 1_545 S
H164 C155 0.929 . S
H165 C156 0.930 . S
H166 C157 0.931 . S
H167 C158 0.930 . S
C168 C170 1.422 . S
C168 C172 1.415 . S
C168 N174 1.369 . S
C169 C170 1.421 . S
C169 C171 1.417 . S
C169 C181 1.422 . S
C170 C168 1.422 . S
C170 C169 1.421 . S
C170 N180 1.359 . S
C171 C169 1.417 . S
C171 C173 1.329 . S
C171 H190 0.930 . S
C172 C168 1.415 . S
C172 C173 1.437 . S
C172 C176 1.413 . S
C173 C171 1.329 . S
C173 C172 1.437 . S
C173 H195 0.929 . S
N174 C168 1.369 . S
N174 C175 1.338 . S
N174 Gd179 2.622 . S
C175 N174 1.338 . S
C175 C177 1.378 . S
C175 H187 0.929 . S
C176 C172 1.413 . S
C176 C177 1.348 . S
C176 H192 0.931 . S
C177 C175 1.378 . S
C177 C176 1.348 . S
C177 H193 0.930 . S
Gd178 N198 2.622 . S
Gd178 N205 2.570 . S
Gd178 O212 2.353 . S
Gd178 O213 2.468 . S
Gd178 O214 2.427 . S
Gd178 O216 2.388 . S
Gd178 O217 2.386 . S
Gd178 O221 2.307 . S
Gd178 C231 2.805 . S
Gd179 N174 2.622 . S
Gd179 N180 2.570 . S
Gd179 O211 2.386 . S
Gd179 O215 2.307 . S
Gd179 O218 2.353 . S
Gd179 O219 2.468 . S
Gd179 O220 2.427 . S
Gd179 O222 2.388 . S
Gd179 C243 2.805 . S
N180 C170 1.359 . S
N180 Gd179 2.570 . S
N180 C182 1.343 . S
C181 C169 1.422 . S
C181 C183 1.321 . S
C181 H189 0.931 . S
C182 N180 1.343 . S
C182 C183 1.390 . S
C182 H184 0.931 . S
C183 C181 1.321 . S
C183 C182 1.390 . S
C183 H185 0.930 . S
H184 C182 0.931 . S
H185 C183 0.930 . S
H186 C209 0.931 . S
H187 C175 0.929 . S
H188 C210 0.930 . S
H189 C181 0.931 . S
H190 C171 0.930 . S
H191 C200 0.929 . S
H192 C176 0.931 . S
H193 C177 0.930 . S
H194 C232 0.930 . S
H195 C173 0.929 . S
H196 C201 0.931 . S
H197 C202 0.930 . S
N198 Gd178 2.622 . S
N198 C199 1.369 . S
N198 C200 1.338 . S
C199 N198 1.369 . S
C199 C203 1.415 . S
C199 C206 1.422 . S
C200 H191 0.929 . S
C200 N198 1.338 . S
C200 C202 1.378 . S
C201 H196 0.931 . S
C201 C202 1.348 . S
C201 C203 1.413 . S
C202 H197 0.930 . S
C202 C200 1.378 . S
C202 C201 1.348 . S
C203 C199 1.415 . S
C203 C201 1.413 . S
C203 C233 1.437 . S
H204 C233 0.929 . S
N205 Gd178 2.570 . S
N205 C206 1.359 . S
N205 C209 1.343 . S
C206 C199 1.422 . S
C206 N205 1.359 . S
C206 C208 1.421 . S
C207 C208 1.422 . S
C207 C210 1.321 . S
C207 H234 0.931 . S
C208 C206 1.421 . S
C208 C207 1.422 . S
C208 C232 1.417 . S
C209 H186 0.931 . S
C209 N205 1.343 . S
C209 C210 1.390 . S
C210 H188 0.930 . S
C210 C207 1.321 . S
C210 C209 1.390 . S
O211 Gd179 2.386 . S
O211 C223 1.265 . S
O212 Gd178 2.353 . S
O212 C223 1.242 . S
O213 Gd178 2.468 . S
O213 C231 1.263 . S
O214 Gd178 2.427 . S
O214 C231 1.252 . S
O215 Gd179 2.307 . S
O215 C224 1.261 . S
O216 Gd178 2.388 . S
O216 C224 1.252 . S
O217 Gd178 2.386 . S
O217 C235 1.265 . S
O218 Gd179 2.353 . S
O218 C235 1.242 . S
O219 Gd179 2.468 . S
O219 C243 1.263 . S
O220 Gd179 2.427 . S
O220 C243 1.252 . S
O221 Gd178 2.307 . S
O221 C236 1.261 . S
O222 Gd179 2.388 . S
O222 C236 1.252 . S
C223 O211 1.265 . S
C223 O212 1.242 . S
C224 O215 1.261 . S
C224 O216 1.252 . S
C225 C228 1.394 . S
C225 C230 1.370 . S
C225 C231 1.500 . S
C226 C229 1.383 . S
C226 C230 1.395 . S
C227 C228 1.396 . S
C227 C229 1.365 . S
C227 H244 0.929 . S
C228 C225 1.394 . S
C228 C227 1.396 . S
C228 H245 0.930 . S
C229 C226 1.383 . S
C229 C227 1.365 . S
C229 H246 0.931 . S
C230 C225 1.370 . S
C230 C226 1.395 . S
C230 H247 0.930 . S
C231 Gd178 2.805 . S
C231 O213 1.263 . S
C231 O214 1.252 . S
C231 C225 1.500 . S
C232 H194 0.930 . S
C232 C208 1.417 . S
C232 C233 1.329 . S
C233 C203 1.437 . S
C233 H204 0.929 . S
C233 C232 1.329 . S
H234 C207 0.931 . S
C235 O217 1.265 . S
C235 O218 1.242 . S
C236 O221 1.261 . S
C236 O222 1.252 . S
C237 C240 1.394 . S
C237 C242 1.370 . S
C237 C243 1.500 . S
C238 C241 1.383 . S
C238 C242 1.395 . S
C239 C240 1.396 . S
C239 C241 1.365 . S
C239 H248 0.929 . S
C240 C237 1.394 . S
C240 C239 1.396 . S
C240 H249 0.930 . S
C241 C238 1.383 . S
C241 C239 1.365 . S
C241 H250 0.931 . S
C242 C237 1.370 . S
C242 C238 1.395 . S
C242 H251 0.930 . S
C243 Gd179 2.805 . S
C243 O219 1.263 . S
C243 O220 1.252 . S
C243 C237 1.500 . S
H244 C227 0.929 . S
H245 C228 0.930 . S
H246 C229 0.931 . S
H247 C230 0.930 . S
H248 C239 0.929 . S
H249 C240 0.930 . S
H250 C241 0.931 . S
H251 C242 0.930 . S
C252 C254 1.422 . S
C252 C256 1.415 . S
C252 N258 1.369 . S
C253 C254 1.421 . S
C253 C255 1.417 . S
C253 C265 1.422 1_565 S
C254 C252 1.422 . S
C254 C253 1.421 . S
C254 N264 1.359 1_565 S
C255 C253 1.417 . S
C255 C257 1.329 . S
C255 H274 0.930 . S
C256 C252 1.415 . S
C256 C257 1.437 . S
C256 C260 1.413 . S
C257 C255 1.329 . S
C257 C256 1.437 . S
C257 H279 0.929 . S
N258 C252 1.369 . S
N258 C259 1.338 . S
N258 Gd263 2.622 1_565 S
C259 N258 1.338 . S
C259 C261 1.378 . S
C259 H271 0.929 . S
C260 C256 1.413 . S
C260 C261 1.348 . S
C260 H276 0.931 . S
C261 C259 1.378 . S
C261 C260 1.348 . S
C261 H277 0.930 . S
Gd262 N282 2.622 . S
Gd262 N289 2.570 . S
Gd262 O296 2.353 . S
Gd262 O297 2.468 . S
Gd262 O298 2.427 . S
Gd262 O300 2.388 . S
Gd262 O301 2.386 . S
Gd262 O305 2.307 . S
Gd262 C315 2.805 . S
Gd263 N258 2.622 1_545 S
Gd263 N264 2.570 . S
Gd263 O295 2.386 . S
Gd263 O299 2.307 . S
Gd263 O302 2.353 . S
Gd263 O303 2.468 . S
Gd263 O304 2.427 . S
Gd263 O306 2.388 1_545 S
Gd263 C327 2.805 . S
N264 C254 1.359 1_545 S
N264 Gd263 2.570 . S
N264 C266 1.343 . S
C265 C253 1.422 1_545 S
C265 C267 1.321 . S
C265 H273 0.931 . S
C266 N264 1.343 . S
C266 C267 1.390 . S
C266 H268 0.931 . S
C267 C265 1.321 . S
C267 C266 1.390 . S
C267 H269 0.930 . S
H268 C266 0.931 . S
H269 C267 0.930 . S
H270 C293 0.931 . S
H271 C259 0.929 . S
H272 C294 0.930 . S
H273 C265 0.931 . S
H274 C255 0.930 . S
H275 C284 0.929 . S
H276 C260 0.931 . S
H277 C261 0.930 . S
H278 C316 0.930 . S
H279 C257 0.929 . S
H280 C285 0.931 . S
H281 C286 0.930 . S
N282 Gd262 2.622 . S
N282 C283 1.369 . S
N282 C284 1.338 . S
C283 N282 1.369 . S
C283 C287 1.415 . S
C283 C290 1.422 . S
C284 H275 0.929 . S
C284 N282 1.338 . S
C284 C286 1.378 . S
C285 H280 0.931 . S
C285 C286 1.348 . S
C285 C287 1.413 . S
C286 H281 0.930 . S
C286 C284 1.378 . S
C286 C285 1.348 . S
C287 C283 1.415 . S
C287 C285 1.413 . S
C287 C317 1.437 . S
H288 C317 0.929 . S
N289 Gd262 2.570 . S
N289 C290 1.359 . S
N289 C293 1.343 . S
C290 C283 1.422 . S
C290 N289 1.359 . S
C290 C292 1.421 . S
C291 C292 1.422 . S
C291 C294 1.321 . S
C291 H318 0.931 . S
C292 C290 1.421 . S
C292 C291 1.422 . S
C292 C316 1.417 . S
C293 H270 0.931 . S
C293 N289 1.343 . S
C293 C294 1.390 . S
C294 H272 0.930 . S
C294 C291 1.321 . S
C294 C293 1.390 . S
O295 Gd263 2.386 . S
O295 C307 1.265 . S
O296 Gd262 2.353 . S
O296 C307 1.242 . S
O297 Gd262 2.468 . S
O297 C315 1.263 . S
O298 Gd262 2.427 . S
O298 C315 1.252 . S
O299 Gd263 2.307 . S
O299 C308 1.261 . S
O300 Gd262 2.388 . S
O300 C308 1.252 . S
O301 Gd262 2.386 . S
O301 C319 1.265 . S
O302 Gd263 2.353 . S
O302 C319 1.242 . S
O303 Gd263 2.468 . S
O303 C327 1.263 . S
O304 Gd263 2.427 . S
O304 C327 1.252 . S
O305 Gd262 2.307 . S
O305 C320 1.261 1_545 S
O306 Gd263 2.388 1_565 S
O306 C320 1.252 . S
C307 O295 1.265 . S
C307 O296 1.242 . S
C308 O299 1.261 . S
C308 O300 1.252 . S
C309 C312 1.394 . S
C309 C314 1.370 . S
C309 C315 1.500 . S
C310 C313 1.376 1_554 S
C310 C314 1.395 . S
C311 C312 1.394 . S
C311 C313 1.365 1_554 S
C311 H328 0.931 1_554 S
C312 C309 1.394 . S
C312 C311 1.394 . S
C312 H329 0.930 . S
C313 C310 1.376 1_556 S
C313 C311 1.365 1_556 S
C313 H330 0.939 . S
C314 C309 1.370 . S
C314 C310 1.395 . S
C314 H331 0.930 1_545 S
C315 Gd262 2.805 . S
C315 O297 1.263 . S
C315 O298 1.252 . S
C315 C309 1.500 . S
C316 H278 0.930 . S
C316 C292 1.417 . S
C316 C317 1.329 . S
C317 C287 1.437 . S
C317 H288 0.929 . S
C317 C316 1.329 . S
H318 C291 0.931 . S
C319 O301 1.265 . S
C319 O302 1.242 . S
C320 O305 1.261 1_565 S
C320 O306 1.252 . S
C321 C324 1.394 . S
C321 C326 1.370 . S
C321 C327 1.500 . S
C322 C325 1.383 . S
C322 C326 1.395 . S
C323 C324 1.396 . S
C323 C325 1.365 . S
C323 H332 0.929 . S
C324 C321 1.394 . S
C324 C323 1.396 . S
C324 H333 0.930 . S
C325 C322 1.383 . S
C325 C323 1.365 . S
C325 H334 0.931 . S
C326 C321 1.370 . S
C326 C322 1.395 . S
C326 H335 0.930 . S
C327 Gd263 2.805 . S
C327 O303 1.263 . S
C327 O304 1.252 . S
C327 C321 1.500 . S
H328 C311 0.931 1_556 S
H329 C312 0.930 . S
H330 C313 0.939 . S
H331 C314 0.930 1_565 S
H332 C323 0.929 . S
H333 C324 0.930 . S
H334 C325 0.931 . S
H335 C326 0.930 . S
C336 C338 1.422 . S
C336 C340 1.415 . S
C336 N342 1.369 . S
C337 C338 1.421 . S
C337 C339 1.417 . S
C337 C349 1.422 . S
C338 C336 1.422 . S
C338 C337 1.421 . S
C338 N348 1.359 . S
C339 C337 1.417 . S
C339 C341 1.329 . S
C339 H358 0.930 . S
C340 C336 1.415 . S
C340 C341 1.437 . S
C340 C344 1.413 . S
C341 C339 1.329 . S
C341 C340 1.437 . S
C341 H363 0.929 . S
N342 C336 1.369 . S
N342 C343 1.338 . S
N342 Gd347 2.622 . S
C343 N342 1.338 . S
C343 C345 1.378 . S
C343 H355 0.929 . S
C344 C340 1.413 . S
C344 C345 1.348 . S
C344 H360 0.931 . S
C345 C343 1.378 . S
C345 C344 1.348 . S
C345 H361 0.930 . S
Gd346 N366 2.622 . S
Gd346 N373 2.570 . S
Gd346 O380 2.353 . S
Gd346 O381 2.468 . S
Gd346 O382 2.427 . S
Gd346 O384 2.388 . S
Gd346 O385 2.386 . S
Gd346 O389 2.307 . S
Gd346 C399 2.805 . S
Gd347 N342 2.622 . S
Gd347 N348 2.570 . S
Gd347 O379 2.386 . S
Gd347 O383 2.307 . S
Gd347 O386 2.353 . S
Gd347 O387 2.468 . S
Gd347 O388 2.427 . S
Gd347 O390 2.388 . S
Gd347 C411 2.805 . S
N348 C338 1.359 . S
N348 Gd347 2.570 . S
N348 C350 1.343 . S
C349 C337 1.422 . S
C349 C351 1.321 . S
C349 H357 0.931 . S
C350 N348 1.343 . S
C350 C351 1.390 . S
C350 H352 0.931 . S
C351 C349 1.321 . S
C351 C350 1.390 . S
C351 H353 0.930 . S
H352 C350 0.931 . S
H353 C351 0.930 . S
H354 C377 0.931 . S
H355 C343 0.929 . S
H356 C378 0.930 . S
H357 C349 0.931 . S
H358 C339 0.930 . S
H359 C368 0.929 . S
H360 C344 0.931 . S
H361 C345 0.930 . S
H362 C400 0.930 . S
H363 C341 0.929 . S
H364 C369 0.931 . S
H365 C370 0.930 . S
N366 Gd346 2.622 . S
N366 C367 1.369 . S
N366 C368 1.338 . S
C367 N366 1.369 . S
C367 C371 1.415 . S
C367 C374 1.422 . S
C368 H359 0.929 . S
C368 N366 1.338 . S
C368 C370 1.378 . S
C369 H364 0.931 . S
C369 C370 1.348 . S
C369 C371 1.413 . S
C370 H365 0.930 . S
C370 C368 1.378 . S
C370 C369 1.348 . S
C371 C367 1.415 . S
C371 C369 1.413 . S
C371 C401 1.437 . S
H372 C401 0.929 . S
N373 Gd346 2.570 . S
N373 C374 1.359 . S
N373 C377 1.343 . S
C374 C367 1.422 . S
C374 N373 1.359 . S
C374 C376 1.421 . S
C375 C376 1.422 . S
C375 C378 1.321 . S
C375 H402 0.931 . S
C376 C374 1.421 . S
C376 C375 1.422 . S
C376 C400 1.417 . S
C377 H354 0.931 . S
C377 N373 1.343 . S
C377 C378 1.390 . S
C378 H356 0.930 . S
C378 C375 1.321 . S
C378 C377 1.390 . S
O379 Gd347 2.386 . S
O379 C391 1.265 . S
O380 Gd346 2.353 . S
O380 C391 1.242 . S
O381 Gd346 2.468 . S
O381 C399 1.263 . S
O382 Gd346 2.427 . S
O382 C399 1.252 . S
O383 Gd347 2.307 . S
O383 C392 1.261 . S
O384 Gd346 2.388 . S
O384 C392 1.252 . S
O385 Gd346 2.386 . S
O385 C403 1.265 . S
O386 Gd347 2.353 . S
O386 C403 1.242 . S
O387 Gd347 2.468 . S
O387 C411 1.263 . S
O388 Gd347 2.427 . S
O388 C411 1.252 . S
O389 Gd346 2.307 . S
O389 C404 1.261 . S
O390 Gd347 2.388 . S
O390 C404 1.252 . S
C391 O379 1.265 . S
C391 O380 1.242 . S
C392 O383 1.261 . S
C392 O384 1.252 . S
C393 C396 1.394 . S
C393 C398 1.370 . S
C393 C399 1.500 . S
C394 C397 1.383 . S
C394 C398 1.395 . S
C395 C396 1.396 . S
C395 C397 1.365 . S
C395 H412 0.929 . S
C396 C393 1.394 . S
C396 C395 1.396 . S
C396 H413 0.930 . S
C397 C394 1.383 . S
C397 C395 1.365 . S
C397 H414 0.931 . S
C398 C393 1.370 . S
C398 C394 1.395 . S
C398 H415 0.930 . S
C399 Gd346 2.805 . S
C399 O381 1.263 . S
C399 O382 1.252 . S
C399 C393 1.500 . S
C400 H362 0.930 . S
C400 C376 1.417 . S
C400 C401 1.329 . S
C401 C371 1.437 . S
C401 H372 0.929 . S
C401 C400 1.329 . S
H402 C375 0.931 . S
C403 O385 1.265 . S
C403 O386 1.242 . S
C404 O389 1.261 . S
C404 O390 1.252 . S
C405 C408 1.394 . S
C405 C410 1.370 . S
C405 C411 1.500 . S
C406 C409 1.383 . S
C406 C410 1.395 . S
C407 C408 1.396 . S
C407 C409 1.365 . S
C407 H416 0.929 . S
C408 C405 1.394 . S
C408 C407 1.396 . S
C408 H417 0.930 . S
C409 C406 1.383 . S
C409 C407 1.365 . S
C409 H418 0.931 . S
C410 C405 1.370 . S
C410 C406 1.395 . S
C410 H419 0.930 . S
C411 Gd347 2.805 . S
C411 O387 1.263 . S
C411 O388 1.252 . S
C411 C405 1.500 . S
H412 C395 0.929 . S
H413 C396 0.930 . S
H414 C397 0.931 . S
H415 C398 0.930 . S
H416 C407 0.929 . S
H417 C408 0.930 . S
H418 C409 0.931 . S
H419 C410 0.930 . S
C420 C422 1.422 . S
C420 C424 1.415 . S
C420 N426 1.369 . S
C421 C422 1.421 . S
C421 C423 1.417 . S
C421 C433 1.422 1_545 S
C422 C420 1.422 . S
C422 C421 1.421 . S
C422 N432 1.359 1_545 S
C423 C421 1.417 . S
C423 C425 1.329 . S
C423 H442 0.930 . S
C424 C420 1.415 . S
C424 C425 1.437 . S
C424 C428 1.413 . S
C425 C423 1.329 . S
C425 C424 1.437 . S
C425 H447 0.929 . S
N426 C420 1.369 . S
N426 C427 1.338 . S
N426 Gd431 2.622 1_545 S
C427 N426 1.338 . S
C427 C429 1.378 . S
C427 H439 0.929 . S
C428 C424 1.413 . S
C428 C429 1.348 . S
C428 H444 0.931 . S
C429 C427 1.378 . S
C429 C428 1.348 . S
C429 H445 0.930 . S
Gd430 N450 2.622 . S
Gd430 N457 2.570 . S
Gd430 O464 2.353 . S
Gd430 O465 2.468 . S
Gd430 O466 2.427 . S
Gd430 O468 2.388 . S
Gd430 O469 2.386 . S
Gd430 O473 2.307 . S
Gd430 C483 2.805 . S
Gd431 N426 2.622 1_565 S
Gd431 N432 2.570 . S
Gd431 O463 2.386 . S
Gd431 O467 2.307 . S
Gd431 O470 2.353 . S
Gd431 O471 2.468 . S
Gd431 O472 2.427 . S
Gd431 O474 2.388 1_565 S
Gd431 C495 2.805 . S
N432 C422 1.359 1_565 S
N432 Gd431 2.570 . S
N432 C434 1.343 . S
C433 C421 1.422 1_565 S
C433 C435 1.321 . S
C433 H441 0.931 . S
C434 N432 1.343 . S
C434 C435 1.390 . S
C434 H436 0.931 . S
C435 C433 1.321 . S
C435 C434 1.390 . S
C435 H437 0.930 . S
H436 C434 0.931 . S
H437 C435 0.930 . S
H438 C461 0.931 . S
H439 C427 0.929 . S
H440 C462 0.930 . S
H441 C433 0.931 . S
H442 C423 0.930 . S
H443 C452 0.929 . S
H444 C428 0.931 . S
H445 C429 0.930 . S
H446 C484 0.930 . S
H447 C425 0.929 . S
H448 C453 0.931 . S
H449 C454 0.930 . S
N450 Gd430 2.622 . S
N450 C451 1.369 . S
N450 C452 1.338 . S
C451 N450 1.369 . S
C451 C455 1.415 . S
C451 C458 1.422 . S
C452 H443 0.929 . S
C452 N450 1.338 . S
C452 C454 1.378 . S
C453 H448 0.931 . S
C453 C454 1.348 . S
C453 C455 1.413 . S
C454 H449 0.930 . S
C454 C452 1.378 . S
C454 C453 1.348 . S
C455 C451 1.415 . S
C455 C453 1.413 . S
C455 C485 1.437 . S
H456 C485 0.929 . S
N457 Gd430 2.570 . S
N457 C458 1.359 . S
N457 C461 1.343 . S
C458 C451 1.422 . S
C458 N457 1.359 . S
C458 C460 1.421 . S
C459 C460 1.422 . S
C459 C462 1.321 . S
C459 H486 0.931 . S
C460 C458 1.421 . S
C460 C459 1.422 . S
C460 C484 1.417 . S
C461 H438 0.931 . S
C461 N457 1.343 . S
C461 C462 1.390 . S
C462 H440 0.930 . S
C462 C459 1.321 . S
C462 C461 1.390 . S
O463 Gd431 2.386 . S
O463 C475 1.265 . S
O464 Gd430 2.353 . S
O464 C475 1.242 . S
O465 Gd430 2.468 . S
O465 C483 1.263 . S
O466 Gd430 2.427 . S
O466 C483 1.252 . S
O467 Gd431 2.307 . S
O467 C476 1.261 . S
O468 Gd430 2.388 . S
O468 C476 1.252 . S
O469 Gd430 2.386 . S
O469 C487 1.265 . S
O470 Gd431 2.353 . S
O470 C487 1.242 . S
O471 Gd431 2.468 . S
O471 C495 1.263 . S
O472 Gd431 2.427 . S
O472 C495 1.252 . S
O473 Gd430 2.307 . S
O473 C488 1.261 1_565 S
O474 Gd431 2.388 1_545 S
O474 C488 1.252 . S
C475 O463 1.265 . S
C475 O464 1.242 . S
C476 O467 1.261 . S
C476 O468 1.252 . S
C477 C480 1.394 . S
C477 C482 1.370 . S
C477 C483 1.500 . S
C478 C481 1.383 . S
C478 C482 1.395 . S
C479 C480 1.396 . S
C479 C481 1.365 . S
C479 H496 0.929 . S
C480 C477 1.394 . S
C480 C479 1.396 . S
C480 H497 0.930 . S
C481 C478 1.383 . S
C481 C479 1.365 . S
C481 H498 0.931 . S
C482 C477 1.370 . S
C482 C478 1.395 . S
C482 H499 0.930 1_565 S
C483 Gd430 2.805 . S
C483 O465 1.263 . S
C483 O466 1.252 . S
C483 C477 1.500 . S
C484 H446 0.930 . S
C484 C460 1.417 . S
C484 C485 1.329 . S
C485 C455 1.437 . S
C485 H456 0.929 . S
C485 C484 1.329 . S
H486 C459 0.931 . S
C487 O469 1.265 . S
C487 O470 1.242 . S
C488 O473 1.261 1_545 S
C488 O474 1.252 . S
C489 C492 1.394 . S
C489 C494 1.370 . S
C489 C495 1.500 . S
C490 C493 1.383 . S
C490 C494 1.395 . S
C491 C492 1.396 . S
C491 C493 1.365 . S
C491 H500 0.929 . S
C492 C489 1.394 . S
C492 C491 1.396 . S
C492 H501 0.930 . S
C493 C490 1.383 . S
C493 C491 1.365 . S
C493 H502 0.931 . S
C494 C489 1.370 . S
C494 C490 1.395 . S
C494 H503 0.930 . S
C495 Gd431 2.805 . S
C495 O471 1.263 . S
C495 O472 1.252 . S
C495 C489 1.500 . S
H496 C479 0.929 . S
H497 C480 0.930 . S
H498 C481 0.931 . S
H499 C482 0.930 1_545 S
H500 C491 0.929 . S
H501 C492 0.930 . S
H502 C493 0.931 . S
H503 C494 0.930 . S
C504 C506 1.422 . S
C504 C508 1.415 . S
C504 N510 1.369 . S
C505 C506 1.421 . S
C505 C507 1.417 . S
C505 C517 1.422 . S
C506 C504 1.422 . S
C506 C505 1.421 . S
C506 N516 1.359 . S
C507 C505 1.417 . S
C507 C509 1.329 . S
C507 H526 0.930 . S
C508 C504 1.415 . S
C508 C509 1.437 . S
C508 C512 1.413 . S
C509 C507 1.329 . S
C509 C508 1.437 . S
C509 H531 0.929 . S
N510 C504 1.369 . S
N510 C511 1.338 . S
N510 Gd515 2.622 . S
C511 N510 1.338 . S
C511 C513 1.378 . S
C511 H523 0.929 . S
C512 C508 1.413 . S
C512 C513 1.348 . S
C512 H528 0.931 . S
C513 C511 1.378 . S
C513 C512 1.348 . S
C513 H529 0.930 . S
Gd514 N534 2.622 . S
Gd514 N541 2.570 . S
Gd514 O548 2.353 . S
Gd514 O549 2.468 . S
Gd514 O550 2.427 . S
Gd514 O552 2.388 . S
Gd514 O553 2.386 . S
Gd514 O557 2.307 . S
Gd514 C567 2.805 . S
Gd515 N510 2.622 . S
Gd515 N516 2.570 . S
Gd515 O547 2.386 . S
Gd515 O551 2.307 . S
Gd515 O554 2.353 . S
Gd515 O555 2.468 . S
Gd515 O556 2.427 . S
Gd515 O558 2.388 . S
Gd515 C579 2.805 . S
N516 C506 1.359 . S
N516 Gd515 2.570 . S
N516 C518 1.343 . S
C517 C505 1.422 . S
C517 C519 1.321 . S
C517 H525 0.931 . S
C518 N516 1.343 . S
C518 C519 1.390 . S
C518 H520 0.931 . S
C519 C517 1.321 . S
C519 C518 1.390 . S
C519 H521 0.930 . S
H520 C518 0.931 . S
H521 C519 0.930 . S
H522 C545 0.931 . S
H523 C511 0.929 . S
H524 C546 0.930 . S
H525 C517 0.931 . S
H526 C507 0.930 . S
H527 C536 0.929 . S
H528 C512 0.931 . S
H529 C513 0.930 . S
H530 C568 0.930 . S
H531 C509 0.929 . S
H532 C537 0.931 . S
H533 C538 0.930 . S
N534 Gd514 2.622 . S
N534 C535 1.369 . S
N534 C536 1.338 . S
C535 N534 1.369 . S
C535 C539 1.415 . S
C535 C542 1.422 . S
C536 H527 0.929 . S
C536 N534 1.338 . S
C536 C538 1.378 . S
C537 H532 0.931 . S
C537 C538 1.348 . S
C537 C539 1.413 . S
C538 H533 0.930 . S
C538 C536 1.378 . S
C538 C537 1.348 . S
C539 C535 1.415 . S
C539 C537 1.413 . S
C539 C569 1.437 . S
H540 C569 0.929 . S
N541 Gd514 2.570 . S
N541 C542 1.359 . S
N541 C545 1.343 . S
C542 C535 1.422 . S
C542 N541 1.359 . S
C542 C544 1.421 . S
C543 C544 1.422 . S
C543 C546 1.321 . S
C543 H570 0.931 . S
C544 C542 1.421 . S
C544 C543 1.422 . S
C544 C568 1.417 . S
C545 H522 0.931 . S
C545 N541 1.343 . S
C545 C546 1.390 . S
C546 H524 0.930 . S
C546 C543 1.321 . S
C546 C545 1.390 . S
O547 Gd515 2.386 . S
O547 C559 1.265 . S
O548 Gd514 2.353 . S
O548 C559 1.242 . S
O549 Gd514 2.468 . S
O549 C567 1.263 . S
O550 Gd514 2.427 . S
O550 C567 1.252 . S
O551 Gd515 2.307 . S
O551 C560 1.261 . S
O552 Gd514 2.388 . S
O552 C560 1.252 . S
O553 Gd514 2.386 . S
O553 C571 1.265 . S
O554 Gd515 2.353 . S
O554 C571 1.242 . S
O555 Gd515 2.468 . S
O555 C579 1.263 . S
O556 Gd515 2.427 . S
O556 C579 1.252 . S
O557 Gd514 2.307 . S
O557 C572 1.261 . S
O558 Gd515 2.388 . S
O558 C572 1.252 . S
C559 O547 1.265 . S
C559 O548 1.242 . S
C560 O551 1.261 . S
C560 O552 1.252 . S
C561 C564 1.394 . S
C561 C566 1.370 . S
C561 C567 1.500 . S
C562 C565 1.383 . S
C562 C566 1.395 . S
C563 C564 1.396 . S
C563 C565 1.365 . S
C563 H580 0.929 . S
C564 C561 1.394 . S
C564 C563 1.396 . S
C564 H581 0.930 . S
C565 C562 1.383 . S
C565 C563 1.365 . S
C565 H582 0.931 . S
C566 C561 1.370 . S
C566 C562 1.395 . S
C566 H583 0.930 . S
C567 Gd514 2.805 . S
C567 O549 1.263 . S
C567 O550 1.252 . S
C567 C561 1.500 . S
C568 H530 0.930 . S
C568 C544 1.417 . S
C568 C569 1.329 . S
C569 C539 1.437 . S
C569 H540 0.929 . S
C569 C568 1.329 . S
H570 C543 0.931 . S
C571 O553 1.265 . S
C571 O554 1.242 . S
C572 O557 1.261 . S
C572 O558 1.252 . S
C573 C576 1.394 . S
C573 C578 1.370 . S
C573 C579 1.500 . S
C574 C577 1.383 . S
C574 C578 1.395 . S
C575 C576 1.396 . S
C575 C577 1.365 . S
C575 H584 0.929 . S
C576 C573 1.394 . S
C576 C575 1.396 . S
C576 H585 0.930 . S
C577 C574 1.383 . S
C577 C575 1.365 . S
C577 H586 0.931 . S
C578 C573 1.370 . S
C578 C574 1.395 . S
C578 H587 0.930 . S
C579 Gd515 2.805 . S
C579 O555 1.263 . S
C579 O556 1.252 . S
C579 C573 1.500 . S
H580 C563 0.929 . S
H581 C564 0.930 . S
H582 C565 0.931 . S
H583 C566 0.930 . S
H584 C575 0.929 . S
H585 C576 0.930 . S
H586 C577 0.931 . S
H587 C578 0.930 . S
C588 C590 1.422 . S
C588 C592 1.415 . S
C588 N594 1.369 . S
C589 C590 1.421 . S
C589 C591 1.417 . S
C589 C601 1.422 1_565 S
C590 C588 1.422 . S
C590 C589 1.421 . S
C590 N600 1.359 1_565 S
C591 C589 1.417 . S
C591 C593 1.329 . S
C591 H610 0.930 . S
C592 C588 1.415 . S
C592 C593 1.437 . S
C592 C596 1.413 . S
C593 C591 1.329 . S
C593 C592 1.437 . S
C593 H615 0.929 . S
N594 C588 1.369 . S
N594 C595 1.338 . S
N594 Gd599 2.622 1_565 S
C595 N594 1.338 . S
C595 C597 1.378 . S
C595 H607 0.929 1_655 S
C596 C592 1.413 . S
C596 C597 1.348 . S
C596 H612 0.931 . S
C597 C595 1.378 . S
C597 C596 1.348 . S
C597 H613 0.930 . S
Gd598 N618 2.622 . S
Gd598 N625 2.570 . S
Gd598 O632 2.353 . S
Gd598 O633 2.468 . S
Gd598 O634 2.427 . S
Gd598 O636 2.388 . S
Gd598 O637 2.386 . S
Gd598 O641 2.307 . S
Gd598 C651 2.805 . S
Gd599 N594 2.622 1_545 S
Gd599 N600 2.570 . S
Gd599 O631 2.386 1_655 S
Gd599 O635 2.307 . S
Gd599 O638 2.353 1_655 S
Gd599 O639 2.468 . S
Gd599 O640 2.427 . S
Gd599 O642 2.388 1_645 S
Gd599 C663 2.805 . S
N600 C590 1.359 1_545 S
N600 Gd599 2.570 . S
N600 C602 1.343 . S
C601 C589 1.422 1_545 S
C601 C603 1.321 . S
C601 H609 0.931 . S
C602 N600 1.343 . S
C602 C603 1.390 . S
C602 H604 0.931 . S
C603 C601 1.321 . S
C603 C602 1.390 . S
C603 H605 0.930 . S
H604 C602 0.931 . S
H605 C603 0.930 . S
H606 C629 0.931 . S
H607 C595 0.929 1_455 S
H608 C630 0.930 . S
H609 C601 0.931 . S
H610 C591 0.930 . S
H611 C620 0.929 . S
H612 C596 0.931 . S
H613 C597 0.930 . S
H614 C652 0.930 . S
H615 C593 0.929 . S
H616 C621 0.931 . S
H617 C622 0.930 . S
N618 Gd598 2.622 . S
N618 C619 1.369 . S
N618 C620 1.338 . S
C619 N618 1.369 . S
C619 C623 1.415 . S
C619 C626 1.422 . S
C620 H611 0.929 . S
C620 N618 1.338 . S
C620 C622 1.378 . S
C621 H616 0.931 . S
C621 C622 1.348 . S
C621 C623 1.413 . S
C622 H617 0.930 . S
C622 C620 1.378 . S
C622 C621 1.348 . S
C623 C619 1.415 . S
C623 C621 1.413 . S
C623 C653 1.437 . S
H624 C653 0.929 . S
N625 Gd598 2.570 . S
N625 C626 1.359 . S
N625 C629 1.343 . S
C626 C619 1.422 . S
C626 N625 1.359 . S
C626 C628 1.421 . S
C627 C628 1.422 . S
C627 C630 1.321 . S
C627 H654 0.931 . S
C628 C626 1.421 . S
C628 C627 1.422 . S
C628 C652 1.417 . S
C629 H606 0.931 . S
C629 N625 1.343 . S
C629 C630 1.390 . S
C630 H608 0.930 . S
C630 C627 1.321 . S
C630 C629 1.390 . S
O631 Gd599 2.386 1_455 S
O631 C643 1.265 . S
O632 Gd598 2.353 . S
O632 C643 1.242 . S
O633 Gd598 2.468 . S
O633 C651 1.263 . S
O634 Gd598 2.427 . S
O634 C651 1.252 . S
O635 Gd599 2.307 . S
O635 C644 1.261 1_655 S
O636 Gd598 2.388 . S
O636 C644 1.252 . S
O637 Gd598 2.386 . S
O637 C655 1.265 . S
O638 Gd599 2.353 1_455 S
O638 C655 1.242 . S
O639 Gd599 2.468 . S
O639 C663 1.263 . S
O640 Gd599 2.427 . S
O640 C663 1.252 . S
O641 Gd598 2.307 . S
O641 C656 1.261 1_545 S
O642 Gd599 2.388 1_465 S
O642 C656 1.252 . S
C643 O631 1.265 . S
C643 O632 1.242 . S
C644 O635 1.261 1_455 S
C644 O636 1.252 . S
C645 C648 1.394 . S
C645 C650 1.370 . S
C645 C651 1.500 . S
C646 C649 1.376 1_556 S
C646 C650 1.395 . S
C647 C648 1.394 . S
C647 C649 1.365 1_556 S
C647 H664 0.931 1_556 S
C648 C645 1.394 . S
C648 C647 1.394 . S
C648 H665 0.930 . S
C649 C646 1.376 1_554 S
C649 C647 1.365 1_554 S
C649 H666 0.939 . S
C650 C645 1.370 . S
C650 C646 1.395 . S
C650 H667 0.930 1_545 S
C651 Gd598 2.805 . S
C651 O633 1.263 . S
C651 O634 1.252 . S
C651 C645 1.500 . S
C652 H614 0.930 . S
C652 C628 1.417 . S
C652 C653 1.329 . S
C653 C623 1.437 . S
C653 H624 0.929 . S
C653 C652 1.329 . S
H654 C627 0.931 . S
C655 O637 1.265 . S
C655 O638 1.242 . S
C656 O641 1.261 1_565 S
C656 O642 1.252 . S
C657 C660 1.394 . S
C657 C662 1.370 . S
C657 C663 1.500 . S
C658 C661 1.383 . S
C658 C662 1.395 . S
C659 C660 1.396 . S
C659 C661 1.365 . S
C659 H668 0.929 . S
C660 C657 1.394 . S
C660 C659 1.396 . S
C660 H669 0.930 . S
C661 C658 1.383 . S
C661 C659 1.365 . S
C661 H670 0.931 . S
C662 C657 1.370 . S
C662 C658 1.395 . S
C662 H671 0.930 . S
C663 Gd599 2.805 . S
C663 O639 1.263 . S
C663 O640 1.252 . S
C663 C657 1.500 . S
H664 C647 0.931 1_554 S
H665 C648 0.930 . S
H666 C649 0.939 . S
H667 C650 0.930 1_565 S
H668 C659 0.929 . S
H669 C660 0.930 . S
H670 C661 0.931 . S
H671 C662 0.930 . S
C672 C674 1.422 . S
C672 C676 1.415 . S
C672 N678 1.369 . S
C673 C674 1.421 . S
C673 C675 1.417 . S
C673 C685 1.422 . S
C674 C672 1.422 . S
C674 C673 1.421 . S
C674 N684 1.359 . S
C675 C673 1.417 . S
C675 C677 1.329 . S
C675 H694 0.930 . S
C676 C672 1.415 . S
C676 C677 1.437 . S
C676 C680 1.413 . S
C677 C675 1.329 . S
C677 C676 1.437 . S
C677 H699 0.929 . S
N678 C672 1.369 . S
N678 C679 1.338 . S
N678 Gd683 2.622 . S
C679 N678 1.338 . S
C679 C681 1.378 . S
C679 H691 0.929 . S
C680 C676 1.413 . S
C680 C681 1.348 . S
C680 H696 0.931 . S
C681 C679 1.378 . S
C681 C680 1.348 . S
C681 H697 0.930 . S
Gd682 N702 2.622 . S
Gd682 N709 2.570 . S
Gd682 O716 2.353 . S
Gd682 O717 2.468 . S
Gd682 O718 2.427 . S
Gd682 O720 2.388 . S
Gd682 O721 2.386 . S
Gd682 O725 2.307 . S
Gd682 C735 2.805 . S
Gd683 N678 2.622 . S
Gd683 N684 2.570 . S
Gd683 O715 2.386 . S
Gd683 O719 2.307 . S
Gd683 O722 2.353 . S
Gd683 O723 2.468 . S
Gd683 O724 2.427 . S
Gd683 O726 2.388 . S
Gd683 C747 2.805 . S
N684 C674 1.359 . S
N684 Gd683 2.570 . S
N684 C686 1.343 . S
C685 C673 1.422 . S
C685 C687 1.321 . S
C685 H693 0.931 . S
C686 N684 1.343 . S
C686 C687 1.390 . S
C686 H688 0.931 . S
C687 C685 1.321 . S
C687 C686 1.390 . S
C687 H689 0.930 . S
H688 C686 0.931 . S
H689 C687 0.930 . S
H690 C713 0.931 . S
H691 C679 0.929 . S
H692 C714 0.930 . S
H693 C685 0.931 . S
H694 C675 0.930 . S
H695 C704 0.929 . S
H696 C680 0.931 . S
H697 C681 0.930 . S
H698 C736 0.930 . S
H699 C677 0.929 . S
H700 C705 0.931 . S
H701 C706 0.930 . S
N702 Gd682 2.622 . S
N702 C703 1.369 . S
N702 C704 1.338 . S
C703 N702 1.369 . S
C703 C707 1.415 . S
C703 C710 1.422 . S
C704 H695 0.929 . S
C704 N702 1.338 . S
C704 C706 1.378 . S
C705 H700 0.931 . S
C705 C706 1.348 . S
C705 C707 1.413 . S
C706 H701 0.930 . S
C706 C704 1.378 . S
C706 C705 1.348 . S
C707 C703 1.415 . S
C707 C705 1.413 . S
C707 C737 1.437 . S
H708 C737 0.929 . S
N709 Gd682 2.570 . S
N709 C710 1.359 . S
N709 C713 1.343 . S
C710 C703 1.422 . S
C710 N709 1.359 . S
C710 C712 1.421 . S
C711 C712 1.422 . S
C711 C714 1.321 . S
C711 H738 0.931 . S
C712 C710 1.421 . S
C712 C711 1.422 . S
C712 C736 1.417 . S
C713 H690 0.931 . S
C713 N709 1.343 . S
C713 C714 1.390 . S
C714 H692 0.930 . S
C714 C711 1.321 . S
C714 C713 1.390 . S
O715 Gd683 2.386 . S
O715 C727 1.265 . S
O716 Gd682 2.353 . S
O716 C727 1.242 . S
O717 Gd682 2.468 . S
O717 C735 1.263 . S
O718 Gd682 2.427 . S
O718 C735 1.252 . S
O719 Gd683 2.307 . S
O719 C728 1.261 . S
O720 Gd682 2.388 . S
O720 C728 1.252 . S
O721 Gd682 2.386 . S
O721 C739 1.265 . S
O722 Gd683 2.353 . S
O722 C739 1.242 . S
O723 Gd683 2.468 . S
O723 C747 1.263 . S
O724 Gd683 2.427 . S
O724 C747 1.252 . S
O725 Gd682 2.307 . S
O725 C740 1.261 . S
O726 Gd683 2.388 . S
O726 C740 1.252 . S
C727 O715 1.265 . S
C727 O716 1.242 . S
C728 O719 1.261 . S
C728 O720 1.252 . S
C729 C732 1.394 . S
C729 C734 1.370 . S
C729 C735 1.500 . S
C730 C733 1.383 . S
C730 C734 1.395 . S
C731 C732 1.396 . S
C731 C733 1.365 . S
C731 H748 0.929 . S
C732 C729 1.394 . S
C732 C731 1.396 . S
C732 H749 0.930 . S
C733 C730 1.383 . S
C733 C731 1.365 . S
C733 H750 0.931 . S
C734 C729 1.370 . S
C734 C730 1.395 . S
C734 H751 0.930 . S
C735 Gd682 2.805 . S
C735 O717 1.263 . S
C735 O718 1.252 . S
C735 C729 1.500 . S
C736 H698 0.930 . S
C736 C712 1.417 . S
C736 C737 1.329 . S
C737 C707 1.437 . S
C737 H708 0.929 . S
C737 C736 1.329 . S
H738 C711 0.931 . S
C739 O721 1.265 . S
C739 O722 1.242 . S
C740 O725 1.261 . S
C740 O726 1.252 . S
C741 C744 1.394 . S
C741 C746 1.370 . S
C741 C747 1.500 . S
C742 C745 1.383 . S
C742 C746 1.395 . S
C743 C744 1.396 . S
C743 C745 1.365 . S
C743 H752 0.929 . S
C744 C741 1.394 . S
C744 C743 1.396 . S
C744 H753 0.930 . S
C745 C742 1.383 . S
C745 C743 1.365 . S
C745 H754 0.931 . S
C746 C741 1.370 . S
C746 C742 1.395 . S
C746 H755 0.930 . S
C747 Gd683 2.805 . S
C747 O723 1.263 . S
C747 O724 1.252 . S
C747 C741 1.500 . S
H748 C731 0.929 . S
H749 C732 0.930 . S
H750 C733 0.931 . S
H751 C734 0.930 . S
H752 C743 0.929 . S
H753 C744 0.930 . S
H754 C745 0.931 . S
H755 C746 0.930 . S
C756 C758 1.422 . S
C756 C760 1.415 . S
C756 N762 1.369 . S
C757 C758 1.421 . S
C757 C759 1.417 . S
C757 C769 1.422 . S
C758 C756 1.422 . S
C758 C757 1.421 . S
C758 N768 1.359 . S
C759 C757 1.417 . S
C759 C761 1.329 . S
C759 H778 0.930 . S
C760 C756 1.415 . S
C760 C761 1.437 . S
C760 C764 1.413 . S
C761 C759 1.329 . S
C761 C760 1.437 . S
C761 H783 0.929 . S
N762 C756 1.369 . S
N762 C763 1.338 . S
N762 Gd767 2.622 . S
C763 N762 1.338 . S
C763 C765 1.378 . S
C763 H775 0.929 . S
C764 C760 1.413 . S
C764 C765 1.348 . S
C764 H780 0.931 . S
C765 C763 1.378 . S
C765 C764 1.348 . S
C765 H781 0.930 . S
Gd766 N786 2.622 1_545 S
Gd766 N793 2.570 . S
Gd766 O800 2.353 1_455 S
Gd766 O801 2.468 . S
Gd766 O802 2.427 . S
Gd766 O804 2.388 1_445 S
Gd766 O805 2.386 1_455 S
Gd766 O809 2.307 . S
Gd766 C819 2.805 . S
Gd767 N762 2.622 . S
Gd767 N768 2.570 . S
Gd767 O799 2.386 . S
Gd767 O803 2.307 . S
Gd767 O806 2.353 . S
Gd767 O807 2.468 . S
Gd767 O808 2.427 . S
Gd767 O810 2.388 . S
Gd767 C831 2.805 . S
N768 C758 1.359 . S
N768 Gd767 2.570 . S
N768 C770 1.343 . S
C769 C757 1.422 . S
C769 C771 1.321 . S
C769 H777 0.931 . S
C770 N768 1.343 . S
C770 C771 1.390 . S
C770 H772 0.931 . S
C771 C769 1.321 . S
C771 C770 1.390 . S
C771 H773 0.930 . S
H772 C770 0.931 . S
H773 C771 0.930 . S
H774 C797 0.931 . S
H775 C763 0.929 . S
H776 C798 0.930 . S
H777 C769 0.931 . S
H778 C759 0.930 . S
H779 C788 0.929 1_655 S
H780 C764 0.931 . S
H781 C765 0.930 . S
H782 C820 0.930 . S
H783 C761 0.929 . S
H784 C789 0.931 . S
H785 C790 0.930 . S
N786 Gd766 2.622 1_565 S
N786 C787 1.369 . S
N786 C788 1.338 . S
C787 N786 1.369 . S
C787 C791 1.415 . S
C787 C794 1.422 . S
C788 H779 0.929 1_455 S
C788 N786 1.338 . S
C788 C790 1.378 . S
C789 H784 0.931 . S
C789 C790 1.348 . S
C789 C791 1.413 . S
C790 H785 0.930 . S
C790 C788 1.378 . S
C790 C789 1.348 . S
C791 C787 1.415 . S
C791 C789 1.413 . S
C791 C821 1.437 . S
H792 C821 0.929 . S
N793 Gd766 2.570 . S
N793 C794 1.359 1_545 S
N793 C797 1.343 . S
C794 C787 1.422 . S
C794 N793 1.359 1_565 S
C794 C796 1.421 . S
C795 C796 1.422 1_545 S
C795 C798 1.321 . S
C795 H822 0.931 . S
C796 C794 1.421 . S
C796 C795 1.422 1_565 S
C796 C820 1.417 . S
C797 H774 0.931 . S
C797 N793 1.343 . S
C797 C798 1.390 . S
C798 H776 0.930 . S
C798 C795 1.321 . S
C798 C797 1.390 . S
O799 Gd767 2.386 . S
O799 C811 1.265 . S
O800 Gd766 2.353 1_655 S
O800 C811 1.242 . S
O801 Gd766 2.468 . S
O801 C819 1.263 . S
O802 Gd766 2.427 . S
O802 C819 1.252 . S
O803 Gd767 2.307 . S
O803 C812 1.261 1_545 S
O804 Gd766 2.388 1_665 S
O804 C812 1.252 . S
O805 Gd766 2.386 1_655 S
O805 C823 1.265 . S
O806 Gd767 2.353 . S
O806 C823 1.242 . S
O807 Gd767 2.468 . S
O807 C831 1.263 . S
O808 Gd767 2.427 . S
O808 C831 1.252 . S
O809 Gd766 2.307 . S
O809 C824 1.261 1_455 S
O810 Gd767 2.388 . S
O810 C824 1.252 . S
C811 O799 1.265 . S
C811 O800 1.242 . S
C812 O803 1.261 1_565 S
C812 O804 1.252 . S
C813 C816 1.394 . S
C813 C818 1.370 . S
C813 C819 1.500 . S
C814 C817 1.383 . S
C814 C818 1.395 . S
C815 C816 1.396 . S
C815 C817 1.365 . S
C815 H832 0.929 . S
C816 C813 1.394 . S
C816 C815 1.396 . S
C816 H833 0.930 . S
C817 C814 1.383 . S
C817 C815 1.365 . S
C817 H834 0.931 . S
C818 C813 1.370 . S
C818 C814 1.395 . S
C818 H835 0.930 . S
C819 Gd766 2.805 . S
C819 O801 1.263 . S
C819 O802 1.252 . S
C819 C813 1.500 . S
C820 H782 0.930 . S
C820 C796 1.417 . S
C820 C821 1.329 . S
C821 C791 1.437 . S
C821 H792 0.929 . S
C821 C820 1.329 . S
H822 C795 0.931 . S
C823 O805 1.265 . S
C823 O806 1.242 . S
C824 O809 1.261 1_655 S
C824 O810 1.252 . S
C825 C828 1.394 . S
C825 C830 1.370 . S
C825 C831 1.500 . S
C826 C829 1.383 . S
C826 C830 1.395 . S
C827 C828 1.396 . S
C827 C829 1.365 . S
C827 H836 0.929 . S
C828 C825 1.394 . S
C828 C827 1.396 . S
C828 H837 0.930 . S
C829 C826 1.383 . S
C829 C827 1.365 . S
C829 H838 0.931 . S
C830 C825 1.370 . S
C830 C826 1.395 . S
C830 H839 0.930 1_545 S
C831 Gd767 2.805 . S
C831 O807 1.263 . S
C831 O808 1.252 . S
C831 C825 1.500 . S
H832 C815 0.929 . S
H833 C816 0.930 . S
H834 C817 0.931 . S
H835 C818 0.930 . S
H836 C827 0.929 . S
H837 C828 0.930 . S
H838 C829 0.931 . S
H839 C830 0.930 1_565 S
C840 C842 1.422 . S
C840 C844 1.415 . S
C840 N846 1.369 . S
C841 C842 1.421 . S
C841 C843 1.417 . S
C841 C853 1.422 . S
C842 C840 1.422 . S
C842 C841 1.421 . S
C842 N852 1.359 . S
C843 C841 1.417 . S
C843 C845 1.329 . S
C843 H862 0.930 . S
C844 C840 1.415 . S
C844 C845 1.437 . S
C844 C848 1.413 . S
C845 C843 1.329 . S
C845 C844 1.437 . S
C845 H867 0.929 . S
N846 C840 1.369 . S
N846 C847 1.338 . S
N846 Gd851 2.622 . S
C847 N846 1.338 . S
C847 C849 1.378 . S
C847 H859 0.929 . S
C848 C844 1.413 . S
C848 C849 1.348 . S
C848 H864 0.931 . S
C849 C847 1.378 . S
C849 C848 1.348 . S
C849 H865 0.930 . S
Gd850 N870 2.622 . S
Gd850 N877 2.570 . S
Gd850 O884 2.353 . S
Gd850 O885 2.468 . S
Gd850 O886 2.427 . S
Gd850 O888 2.388 . S
Gd850 O889 2.386 . S
Gd850 O893 2.307 . S
Gd850 C903 2.805 . S
Gd851 N846 2.622 . S
Gd851 N852 2.570 . S
Gd851 O883 2.386 . S
Gd851 O887 2.307 . S
Gd851 O890 2.353 . S
Gd851 O891 2.468 . S
Gd851 O892 2.427 . S
Gd851 O894 2.388 . S
Gd851 C915 2.805 . S
N852 C842 1.359 . S
N852 Gd851 2.570 . S
N852 C854 1.343 . S
C853 C841 1.422 . S
C853 C855 1.321 . S
C853 H861 0.931 . S
C854 N852 1.343 . S
C854 C855 1.390 . S
C854 H856 0.931 . S
C855 C853 1.321 . S
C855 C854 1.390 . S
C855 H857 0.930 . S
H856 C854 0.931 . S
H857 C855 0.930 . S
H858 C881 0.931 . S
H859 C847 0.929 . S
H860 C882 0.930 . S
H861 C853 0.931 . S
H862 C843 0.930 . S
H863 C872 0.929 . S
H864 C848 0.931 . S
H865 C849 0.930 . S
H866 C904 0.930 . S
H867 C845 0.929 . S
H868 C873 0.931 . S
H869 C874 0.930 . S
N870 Gd850 2.622 . S
N870 C871 1.369 . S
N870 C872 1.338 . S
C871 N870 1.369 . S
C871 C875 1.415 . S
C871 C878 1.422 . S
C872 H863 0.929 . S
C872 N870 1.338 . S
C872 C874 1.378 . S
C873 H868 0.931 . S
C873 C874 1.348 . S
C873 C875 1.413 . S
C874 H869 0.930 . S
C874 C872 1.378 . S
C874 C873 1.348 . S
C875 C871 1.415 . S
C875 C873 1.413 . S
C875 C905 1.437 . S
H876 C905 0.929 . S
N877 Gd850 2.570 . S
N877 C878 1.359 . S
N877 C881 1.343 . S
C878 C871 1.422 . S
C878 N877 1.359 . S
C878 C880 1.421 . S
C879 C880 1.422 . S
C879 C882 1.321 . S
C879 H906 0.931 . S
C880 C878 1.421 . S
C880 C879 1.422 . S
C880 C904 1.417 . S
C881 H858 0.931 . S
C881 N877 1.343 . S
C881 C882 1.390 . S
C882 H860 0.930 . S
C882 C879 1.321 . S
C882 C881 1.390 . S
O883 Gd851 2.386 . S
O883 C895 1.265 . S
O884 Gd850 2.353 . S
O884 C895 1.242 . S
O885 Gd850 2.468 . S
O885 C903 1.263 . S
O886 Gd850 2.427 . S
O886 C903 1.252 . S
O887 Gd851 2.307 . S
O887 C896 1.261 . S
O888 Gd850 2.388 . S
O888 C896 1.252 . S
O889 Gd850 2.386 . S
O889 C907 1.265 . S
O890 Gd851 2.353 . S
O890 C907 1.242 . S
O891 Gd851 2.468 . S
O891 C915 1.263 . S
O892 Gd851 2.427 . S
O892 C915 1.252 . S
O893 Gd850 2.307 . S
O893 C908 1.261 . S
O894 Gd851 2.388 . S
O894 C908 1.252 . S
C895 O883 1.265 . S
C895 O884 1.242 . S
C896 O887 1.261 . S
C896 O888 1.252 . S
C897 C900 1.394 . S
C897 C902 1.370 . S
C897 C903 1.500 . S
C898 C901 1.383 . S
C898 C902 1.395 . S
C899 C900 1.396 . S
C899 C901 1.365 . S
C899 H916 0.929 . S
C900 C897 1.394 . S
C900 C899 1.396 . S
C900 H917 0.930 . S
C901 C898 1.383 . S
C901 C899 1.365 . S
C901 H918 0.931 . S
C902 C897 1.370 . S
C902 C898 1.395 . S
C902 H919 0.930 . S
C903 Gd850 2.805 . S
C903 O885 1.263 . S
C903 O886 1.252 . S
C903 C897 1.500 . S
C904 H866 0.930 . S
C904 C880 1.417 . S
C904 C905 1.329 . S
C905 C875 1.437 . S
C905 H876 0.929 . S
C905 C904 1.329 . S
H906 C879 0.931 . S
C907 O889 1.265 . S
C907 O890 1.242 . S
C908 O893 1.261 . S
C908 O894 1.252 . S
C909 C912 1.394 . S
C909 C914 1.370 . S
C909 C915 1.500 . S
C910 C913 1.383 . S
C910 C914 1.395 . S
C911 C912 1.396 . S
C911 C913 1.365 . S
C911 H920 0.929 . S
C912 C909 1.394 . S
C912 C911 1.396 . S
C912 H921 0.930 . S
C913 C910 1.383 . S
C913 C911 1.365 . S
C913 H922 0.931 . S
C914 C909 1.370 . S
C914 C910 1.395 . S
C914 H923 0.930 . S
C915 Gd851 2.805 . S
C915 O891 1.263 . S
C915 O892 1.252 . S
C915 C909 1.500 . S
H916 C899 0.929 . S
H917 C900 0.930 . S
H918 C901 0.931 . S
H919 C902 0.930 . S
H920 C911 0.929 . S
H921 C912 0.930 . S
H922 C913 0.931 . S
H923 C914 0.930 . S
C924 C926 1.422 . S
C924 C928 1.415 . S
C924 N930 1.369 . S
C925 C926 1.421 . S
C925 C927 1.417 . S
C925 C937 1.422 . S
C926 C924 1.422 . S
C926 C925 1.421 . S
C926 N936 1.359 . S
C927 C925 1.417 . S
C927 C929 1.329 . S
C927 H946 0.930 . S
C928 C924 1.415 . S
C928 C929 1.437 . S
C928 C932 1.413 . S
C929 C927 1.329 . S
C929 C928 1.437 . S
C929 H951 0.929 . S
N930 C924 1.369 . S
N930 C931 1.338 . S
N930 Gd935 2.622 . S
C931 N930 1.338 . S
C931 C933 1.378 . S
C931 H943 0.929 . S
C932 C928 1.413 . S
C932 C933 1.348 . S
C932 H948 0.931 . S
C933 C931 1.378 . S
C933 C932 1.348 . S
C933 H949 0.930 . S
Gd934 N954 2.622 1_565 S
Gd934 N961 2.570 . S
Gd934 O968 2.353 . S
Gd934 O969 2.468 . S
Gd934 O970 2.427 . S
Gd934 O972 2.388 1_565 S
Gd934 O973 2.386 . S
Gd934 O977 2.307 . S
Gd934 C987 2.805 . S
Gd935 N930 2.622 . S
Gd935 N936 2.570 . S
Gd935 O967 2.386 . S
Gd935 O971 2.307 . S
Gd935 O974 2.353 . S
Gd935 O975 2.468 . S
Gd935 O976 2.427 . S
Gd935 O978 2.388 . S
Gd935 C999 2.805 . S
N936 C926 1.359 . S
N936 Gd935 2.570 . S
N936 C938 1.343 . S
C937 C925 1.422 . S
C937 C939 1.321 . S
C937 H945 0.931 . S
C938 N936 1.343 . S
C938 C939 1.390 . S
C938 H940 0.931 . S
C939 C937 1.321 . S
C939 C938 1.390 . S
C939 H941 0.930 . S
H940 C938 0.931 . S
H941 C939 0.930 . S
H942 C965 0.931 . S
H943 C931 0.929 . S
H944 C966 0.930 . S
H945 C937 0.931 . S
H946 C927 0.930 . S
H947 C956 0.929 . S
H948 C932 0.931 . S
H949 C933 0.930 . S
H950 C988 0.930 . S
H951 C929 0.929 . S
H952 C957 0.931 . S
H953 C958 0.930 . S
N954 Gd934 2.622 1_545 S
N954 C955 1.369 . S
N954 C956 1.338 . S
C955 N954 1.369 . S
C955 C959 1.415 . S
C955 C962 1.422 . S
C956 H947 0.929 . S
C956 N954 1.338 . S
C956 C958 1.378 . S
C957 H952 0.931 . S
C957 C958 1.348 . S
C957 C959 1.413 . S
C958 H953 0.930 . S
C958 C956 1.378 . S
C958 C957 1.348 . S
C959 C955 1.415 . S
C959 C957 1.413 . S
C959 C989 1.437 . S
H960 C989 0.929 . S
N961 Gd934 2.570 . S
N961 C962 1.359 1_565 S
N961 C965 1.343 . S
C962 C955 1.422 . S
C962 N961 1.359 1_545 S
C962 C964 1.421 . S
C963 C964 1.422 1_565 S
C963 C966 1.321 . S
C963 H990 0.931 . S
C964 C962 1.421 . S
C964 C963 1.422 1_545 S
C964 C988 1.417 . S
C965 H942 0.931 . S
C965 N961 1.343 . S
C965 C966 1.390 . S
C966 H944 0.930 . S
C966 C963 1.321 . S
C966 C965 1.390 . S
O967 Gd935 2.386 . S
O967 C979 1.265 . S
O968 Gd934 2.353 . S
O968 C979 1.242 . S
O969 Gd934 2.468 . S
O969 C987 1.263 . S
O970 Gd934 2.427 . S
O970 C987 1.252 . S
O971 Gd935 2.307 . S
O971 C980 1.261 1_565 S
O972 Gd934 2.388 1_545 S
O972 C980 1.252 . S
O973 Gd934 2.386 . S
O973 C991 1.265 . S
O974 Gd935 2.353 . S
O974 C991 1.242 . S
O975 Gd935 2.468 . S
O975 C999 1.263 . S
O976 Gd935 2.427 . S
O976 C999 1.252 . S
O977 Gd934 2.307 . S
O977 C992 1.261 . S
O978 Gd935 2.388 . S
O978 C992 1.252 . S
C979 O967 1.265 . S
C979 O968 1.242 . S
C980 O971 1.261 1_545 S
C980 O972 1.252 . S
C981 C984 1.394 . S
C981 C986 1.370 . S
C981 C987 1.500 . S
C982 C985 1.383 . S
C982 C986 1.395 . S
C983 C984 1.396 . S
C983 C985 1.365 . S
C983 H1000 0.929 . S
C984 C981 1.394 . S
C984 C983 1.396 . S
C984 H1001 0.930 . S
C985 C982 1.383 . S
C985 C983 1.365 . S
C985 H1002 0.931 . S
C986 C981 1.370 . S
C986 C982 1.395 . S
C986 H1003 0.930 . S
C987 Gd934 2.805 . S
C987 O969 1.263 . S
C987 O970 1.252 . S
C987 C981 1.500 . S
C988 H950 0.930 . S
C988 C964 1.417 . S
C988 C989 1.329 . S
C989 C959 1.437 . S
C989 H960 0.929 . S
C989 C988 1.329 . S
H990 C963 0.931 . S
C991 O973 1.265 . S
C991 O974 1.242 . S
C992 O977 1.261 . S
C992 O978 1.252 . S
C993 C996 1.394 . S
C993 C998 1.370 . S
C993 C999 1.500 . S
C994 C997 1.376 1_556 S
C994 C998 1.395 . S
C995 C996 1.394 . S
C995 C997 1.365 1_556 S
C995 H1004 0.931 1_556 S
C996 C993 1.394 . S
C996 C995 1.394 . S
C996 H1005 0.930 . S
C997 C994 1.376 1_554 S
C997 C995 1.365 1_554 S
C997 H1006 0.939 . S
C998 C993 1.370 . S
C998 C994 1.395 . S
C998 H1007 0.930 1_565 S
C999 Gd935 2.805 . S
C999 O975 1.263 . S
C999 O976 1.252 . S
C999 C993 1.500 . S
H1000 C983 0.929 . S
H1001 C984 0.930 . S
H1002 C985 0.931 . S
H1003 C986 0.930 . S
H1004 C995 0.931 1_554 S
H1005 C996 0.930 . S
H1006 C997 0.939 . S
H1007 C998 0.930 1_545 S
C1008 C1010 1.422 . S
C1008 C1012 1.415 . S
C1008 N1014 1.369 . S
C1009 C1010 1.421 . S
C1009 C1011 1.417 . S
C1009 C1021 1.422 . S
C1010 C1008 1.422 . S
C1010 C1009 1.421 . S
C1010 N1020 1.359 . S
C1011 C1009 1.417 . S
C1011 C1013 1.329 . S
C1011 H1030 0.930 . S
C1012 C1008 1.415 . S
C1012 C1013 1.437 . S
C1012 C1016 1.413 . S
C1013 C1011 1.329 . S
C1013 C1012 1.437 . S
C1013 H1035 0.929 . S
N1014 C1008 1.369 . S
N1014 C1015 1.338 . S
N1014 Gd1019 2.622 . S
C1015 N1014 1.338 . S
C1015 C1017 1.378 . S
C1015 H1027 0.929 . S
C1016 C1012 1.413 . S
C1016 C1017 1.348 . S
C1016 H1032 0.931 . S
C1017 C1015 1.378 . S
C1017 C1016 1.348 . S
C1017 H1033 0.930 . S
Gd1018 N1038 2.622 . S
Gd1018 N1045 2.570 . S
Gd1018 O1052 2.353 . S
Gd1018 O1053 2.468 . S
Gd1018 O1054 2.427 . S
Gd1018 O1056 2.388 . S
Gd1018 O1057 2.386 . S
Gd1018 O1061 2.307 . S
Gd1018 C1071 2.805 . S
Gd1019 N1014 2.622 . S
Gd1019 N1020 2.570 . S
Gd1019 O1051 2.386 . S
Gd1019 O1055 2.307 . S
Gd1019 O1058 2.353 . S
Gd1019 O1059 2.468 . S
Gd1019 O1060 2.427 . S
Gd1019 O1062 2.388 . S
Gd1019 C1083 2.805 . S
N1020 C1010 1.359 . S
N1020 Gd1019 2.570 . S
N1020 C1022 1.343 . S
C1021 C1009 1.422 . S
C1021 C1023 1.321 . S
C1021 H1029 0.931 . S
C1022 N1020 1.343 . S
C1022 C1023 1.390 . S
C1022 H1024 0.931 . S
C1023 C1021 1.321 . S
C1023 C1022 1.390 . S
C1023 H1025 0.930 . S
H1024 C1022 0.931 . S
H1025 C1023 0.930 . S
H1026 C1049 0.931 . S
H1027 C1015 0.929 . S
H1028 C1050 0.930 . S
H1029 C1021 0.931 . S
H1030 C1011 0.930 . S
H1031 C1040 0.929 . S
H1032 C1016 0.931 . S
H1033 C1017 0.930 . S
H1034 C1072 0.930 . S
H1035 C1013 0.929 . S
H1036 C1041 0.931 . S
H1037 C1042 0.930 . S
N1038 Gd1018 2.622 . S
N1038 C1039 1.369 . S
N1038 C1040 1.338 . S
C1039 N1038 1.369 . S
C1039 C1043 1.415 . S
C1039 C1046 1.422 . S
C1040 H1031 0.929 . S
C1040 N1038 1.338 . S
C1040 C1042 1.378 . S
C1041 H1036 0.931 . S
C1041 C1042 1.348 . S
C1041 C1043 1.413 . S
C1042 H1037 0.930 . S
C1042 C1040 1.378 . S
C1042 C1041 1.348 . S
C1043 C1039 1.415 . S
C1043 C1041 1.413 . S
C1043 C1073 1.437 . S
H1044 C1073 0.929 . S
N1045 Gd1018 2.570 . S
N1045 C1046 1.359 . S
N1045 C1049 1.343 . S
C1046 C1039 1.422 . S
C1046 N1045 1.359 . S
C1046 C1048 1.421 . S
C1047 C1048 1.422 . S
C1047 C1050 1.321 . S
C1047 H1074 0.931 . S
C1048 C1046 1.421 . S
C1048 C1047 1.422 . S
C1048 C1072 1.417 . S
C1049 H1026 0.931 . S
C1049 N1045 1.343 . S
C1049 C1050 1.390 . S
C1050 H1028 0.930 . S
C1050 C1047 1.321 . S
C1050 C1049 1.390 . S
O1051 Gd1019 2.386 . S
O1051 C1063 1.265 . S
O1052 Gd1018 2.353 . S
O1052 C1063 1.242 . S
O1053 Gd1018 2.468 . S
O1053 C1071 1.263 . S
O1054 Gd1018 2.427 . S
O1054 C1071 1.252 . S
O1055 Gd1019 2.307 . S
O1055 C1064 1.261 . S
O1056 Gd1018 2.388 . S
O1056 C1064 1.252 . S
O1057 Gd1018 2.386 . S
O1057 C1075 1.265 . S
O1058 Gd1019 2.353 . S
O1058 C1075 1.242 . S
O1059 Gd1019 2.468 . S
O1059 C1083 1.263 . S
O1060 Gd1019 2.427 . S
O1060 C1083 1.252 . S
O1061 Gd1018 2.307 . S
O1061 C1076 1.261 . S
O1062 Gd1019 2.388 . S
O1062 C1076 1.252 . S
C1063 O1051 1.265 . S
C1063 O1052 1.242 . S
C1064 O1055 1.261 . S
C1064 O1056 1.252 . S
C1065 C1068 1.394 . S
C1065 C1070 1.370 . S
C1065 C1071 1.500 . S
C1066 C1069 1.383 . S
C1066 C1070 1.395 . S
C1067 C1068 1.396 . S
C1067 C1069 1.365 . S
C1067 H1084 0.929 . S
C1068 C1065 1.394 . S
C1068 C1067 1.396 . S
C1068 H1085 0.930 . S
C1069 C1066 1.383 . S
C1069 C1067 1.365 . S
C1069 H1086 0.931 . S
C1070 C1065 1.370 . S
C1070 C1066 1.395 . S
C1070 H1087 0.930 . S
C1071 Gd1018 2.805 . S
C1071 O1053 1.263 . S
C1071 O1054 1.252 . S
C1071 C1065 1.500 . S
C1072 H1034 0.930 . S
C1072 C1048 1.417 . S
C1072 C1073 1.329 . S
C1073 C1043 1.437 . S
C1073 H1044 0.929 . S
C1073 C1072 1.329 . S
H1074 C1047 0.931 . S
C1075 O1057 1.265 . S
C1075 O1058 1.242 . S
C1076 O1061 1.261 . S
C1076 O1062 1.252 . S
C1077 C1080 1.394 . S
C1077 C1082 1.370 . S
C1077 C1083 1.500 . S
C1078 C1081 1.383 . S
C1078 C1082 1.395 . S
C1079 C1080 1.396 . S
C1079 C1081 1.365 . S
C1079 H1088 0.929 . S
C1080 C1077 1.394 . S
C1080 C1079 1.396 . S
C1080 H1089 0.930 . S
C1081 C1078 1.383 . S
C1081 C1079 1.365 . S
C1081 H1090 0.931 . S
C1082 C1077 1.370 . S
C1082 C1078 1.395 . S
C1082 H1091 0.930 . S
C1083 Gd1019 2.805 . S
C1083 O1059 1.263 . S
C1083 O1060 1.252 . S
C1083 C1077 1.500 . S
H1084 C1067 0.929 . S
H1085 C1068 0.930 . S
H1086 C1069 0.931 . S
H1087 C1070 0.930 . S
H1088 C1079 0.929 . S
H1089 C1080 0.930 . S
H1090 C1081 0.931 . S
H1091 C1082 0.930 . S
C1092 C1094 1.422 . S
C1092 C1096 1.415 . S
C1092 N1098 1.369 . S
C1093 C1094 1.421 . S
C1093 C1095 1.417 . S
C1093 C1105 1.422 . S
C1094 C1092 1.422 . S
C1094 C1093 1.421 . S
C1094 N1104 1.359 . S
C1095 C1093 1.417 . S
C1095 C1097 1.329 . S
C1095 H1114 0.930 . S
C1096 C1092 1.415 . S
C1096 C1097 1.437 . S
C1096 C1100 1.413 . S
C1097 C1095 1.329 . S
C1097 C1096 1.437 . S
C1097 H1119 0.929 . S
N1098 C1092 1.369 . S
N1098 C1099 1.338 . S
N1098 Gd1103 2.622 . S
C1099 N1098 1.338 . S
C1099 C1101 1.378 . S
C1099 H1111 0.929 . S
C1100 C1096 1.413 . S
C1100 C1101 1.348 . S
C1100 H1116 0.931 . S
C1101 C1099 1.378 . S
C1101 C1100 1.348 . S
C1101 H1117 0.930 . S
Gd1102 N1122 2.622 1_545 S
Gd1102 N1129 2.570 . S
Gd1102 O1136 2.353 . S
Gd1102 O1137 2.468 . S
Gd1102 O1138 2.427 . S
Gd1102 O1140 2.388 1_545 S
Gd1102 O1141 2.386 . S
Gd1102 O1145 2.307 . S
Gd1102 C1155 2.805 . S
Gd1103 N1098 2.622 . S
Gd1103 N1104 2.570 . S
Gd1103 O1135 2.386 . S
Gd1103 O1139 2.307 . S
Gd1103 O1142 2.353 . S
Gd1103 O1143 2.468 . S
Gd1103 O1144 2.427 . S
Gd1103 O1146 2.388 . S
Gd1103 C1167 2.805 . S
N1104 C1094 1.359 . S
N1104 Gd1103 2.570 . S
N1104 C1106 1.343 . S
C1105 C1093 1.422 . S
C1105 C1107 1.321 . S
C1105 H1113 0.931 . S
C1106 N1104 1.343 . S
C1106 C1107 1.390 . S
C1106 H1108 0.931 . S
C1107 C1105 1.321 . S
C1107 C1106 1.390 . S
C1107 H1109 0.930 . S
H1108 C1106 0.931 . S
H1109 C1107 0.930 . S
H1110 C1133 0.931 . S
H1111 C1099 0.929 . S
H1112 C1134 0.930 . S
H1113 C1105 0.931 . S
H1114 C1095 0.930 . S
H1115 C1124 0.929 . S
H1116 C1100 0.931 . S
H1117 C1101 0.930 . S
H1118 C1156 0.930 . S
H1119 C1097 0.929 . S
H1120 C1125 0.931 . S
H1121 C1126 0.930 . S
N1122 Gd1102 2.622 1_565 S
N1122 C1123 1.369 . S
N1122 C1124 1.338 . S
C1123 N1122 1.369 . S
C1123 C1127 1.415 . S
C1123 C1130 1.422 . S
C1124 H1115 0.929 . S
C1124 N1122 1.338 . S
C1124 C1126 1.378 . S
C1125 H1120 0.931 . S
C1125 C1126 1.348 . S
C1125 C1127 1.413 . S
C1126 H1121 0.930 . S
C1126 C1124 1.378 . S
C1126 C1125 1.348 . S
C1127 C1123 1.415 . S
C1127 C1125 1.413 . S
C1127 C1157 1.437 . S
H1128 C1157 0.929 . S
N1129 Gd1102 2.570 . S
N1129 C1130 1.359 1_545 S
N1129 C1133 1.343 . S
C1130 C1123 1.422 . S
C1130 N1129 1.359 1_565 S
C1130 C1132 1.421 . S
C1131 C1132 1.422 1_545 S
C1131 C1134 1.321 . S
C1131 H1158 0.931 . S
C1132 C1130 1.421 . S
C1132 C1131 1.422 1_565 S
C1132 C1156 1.417 . S
C1133 H1110 0.931 . S
C1133 N1129 1.343 . S
C1133 C1134 1.390 . S
C1134 H1112 0.930 . S
C1134 C1131 1.321 . S
C1134 C1133 1.390 . S
O1135 Gd1103 2.386 . S
O1135 C1147 1.265 . S
O1136 Gd1102 2.353 . S
O1136 C1147 1.242 . S
O1137 Gd1102 2.468 . S
O1137 C1155 1.263 . S
O1138 Gd1102 2.427 . S
O1138 C1155 1.252 . S
O1139 Gd1103 2.307 . S
O1139 C1148 1.261 1_545 S
O1140 Gd1102 2.388 1_565 S
O1140 C1148 1.252 . S
O1141 Gd1102 2.386 . S
O1141 C1159 1.265 . S
O1142 Gd1103 2.353 . S
O1142 C1159 1.242 . S
O1143 Gd1103 2.468 . S
O1143 C1167 1.263 . S
O1144 Gd1103 2.427 . S
O1144 C1167 1.252 . S
O1145 Gd1102 2.307 . S
O1145 C1160 1.261 . S
O1146 Gd1103 2.388 . S
O1146 C1160 1.252 . S
C1147 O1135 1.265 . S
C1147 O1136 1.242 . S
C1148 O1139 1.261 1_565 S
C1148 O1140 1.252 . S
C1149 C1152 1.394 . S
C1149 C1154 1.370 . S
C1149 C1155 1.500 . S
C1150 C1153 1.383 . S
C1150 C1154 1.395 . S
C1151 C1152 1.396 . S
C1151 C1153 1.365 . S
C1151 H1168 0.929 . S
C1152 C1149 1.394 . S
C1152 C1151 1.396 . S
C1152 H1169 0.930 . S
C1153 C1150 1.383 . S
C1153 C1151 1.365 . S
C1153 H1170 0.931 . S
C1154 C1149 1.370 . S
C1154 C1150 1.395 . S
C1154 H1171 0.930 . S
C1155 Gd1102 2.805 . S
C1155 O1137 1.263 . S
C1155 O1138 1.252 . S
C1155 C1149 1.500 . S
C1156 H1118 0.930 . S
C1156 C1132 1.417 . S
C1156 C1157 1.329 . S
C1157 C1127 1.437 . S
C1157 H1128 0.929 . S
C1157 C1156 1.329 . S
H1158 C1131 0.931 . S
C1159 O1141 1.265 . S
C1159 O1142 1.242 . S
C1160 O1145 1.261 . S
C1160 O1146 1.252 . S
C1161 C1164 1.394 . S
C1161 C1166 1.370 . S
C1161 C1167 1.500 . S
C1162 C1165 1.383 . S
C1162 C1166 1.395 . S
C1163 C1164 1.396 . S
C1163 C1165 1.365 . S
C1163 H1172 0.929 . S
C1164 C1161 1.394 . S
C1164 C1163 1.396 . S
C1164 H1173 0.930 . S
C1165 C1162 1.383 . S
C1165 C1163 1.365 . S
C1165 H1174 0.931 . S
C1166 C1161 1.370 . S
C1166 C1162 1.395 . S
C1166 H1175 0.930 1_545 S
C1167 Gd1103 2.805 . S
C1167 O1143 1.263 . S
C1167 O1144 1.252 . S
C1167 C1161 1.500 . S
H1168 C1151 0.929 . S
H1169 C1152 0.930 . S
H1170 C1153 0.931 . S
H1171 C1154 0.930 . S
H1172 C1163 0.929 . S
H1173 C1164 0.930 . S
H1174 C1165 0.931 . S
H1175 C1166 0.930 1_565 S
C1176 C1178 1.422 . S
C1176 C1180 1.415 . S
C1176 N1182 1.369 . S
C1177 C1178 1.421 . S
C1177 C1179 1.417 . S
C1177 C1189 1.422 . S
C1178 C1176 1.422 . S
C1178 C1177 1.421 . S
C1178 N1188 1.359 . S
C1179 C1177 1.417 . S
C1179 C1181 1.329 . S
C1179 H1198 0.930 . S
C1180 C1176 1.415 . S
C1180 C1181 1.437 . S
C1180 C1184 1.413 . S
C1181 C1179 1.329 . S
C1181 C1180 1.437 . S
C1181 H1203 0.929 . S
N1182 C1176 1.369 . S
N1182 C1183 1.338 . S
N1182 Gd1187 2.622 . S
C1183 N1182 1.338 . S
C1183 C1185 1.378 . S
C1183 H1195 0.929 . S
C1184 C1180 1.413 . S
C1184 C1185 1.348 . S
C1184 H1200 0.931 . S
C1185 C1183 1.378 . S
C1185 C1184 1.348 . S
C1185 H1201 0.930 . S
Gd1186 N1206 2.622 . S
Gd1186 N1213 2.570 . S
Gd1186 O1220 2.353 . S
Gd1186 O1221 2.468 . S
Gd1186 O1222 2.427 . S
Gd1186 O1224 2.388 . S
Gd1186 O1225 2.386 . S
Gd1186 O1229 2.307 . S
Gd1186 C1239 2.805 . S
Gd1187 N1182 2.622 . S
Gd1187 N1188 2.570 . S
Gd1187 O1219 2.386 . S
Gd1187 O1223 2.307 . S
Gd1187 O1226 2.353 . S
Gd1187 O1227 2.468 . S
Gd1187 O1228 2.427 . S
Gd1187 O1230 2.388 . S
Gd1187 C1251 2.805 . S
N1188 C1178 1.359 . S
N1188 Gd1187 2.570 . S
N1188 C1190 1.343 . S
C1189 C1177 1.422 . S
C1189 C1191 1.321 . S
C1189 H1197 0.931 . S
C1190 N1188 1.343 . S
C1190 C1191 1.390 . S
C1190 H1192 0.931 . S
C1191 C1189 1.321 . S
C1191 C1190 1.390 . S
C1191 H1193 0.930 . S
H1192 C1190 0.931 . S
H1193 C1191 0.930 . S
H1194 C1217 0.931 . S
H1195 C1183 0.929 . S
H1196 C1218 0.930 . S
H1197 C1189 0.931 . S
H1198 C1179 0.930 . S
H1199 C1208 0.929 . S
H1200 C1184 0.931 . S
H1201 C1185 0.930 . S
H1202 C1240 0.930 . S
H1203 C1181 0.929 . S
H1204 C1209 0.931 . S
H1205 C1210 0.930 . S
N1206 Gd1186 2.622 . S
N1206 C1207 1.369 . S
N1206 C1208 1.338 . S
C1207 N1206 1.369 . S
C1207 C1211 1.415 . S
C1207 C1214 1.422 . S
C1208 H1199 0.929 . S
C1208 N1206 1.338 . S
C1208 C1210 1.378 . S
C1209 H1204 0.931 . S
C1209 C1210 1.348 . S
C1209 C1211 1.413 . S
C1210 H1205 0.930 . S
C1210 C1208 1.378 . S
C1210 C1209 1.348 . S
C1211 C1207 1.415 . S
C1211 C1209 1.413 . S
C1211 C1241 1.437 . S
H1212 C1241 0.929 . S
N1213 Gd1186 2.570 . S
N1213 C1214 1.359 . S
N1213 C1217 1.343 . S
C1214 C1207 1.422 . S
C1214 N1213 1.359 . S
C1214 C1216 1.421 . S
C1215 C1216 1.422 . S
C1215 C1218 1.321 . S
C1215 H1242 0.931 . S
C1216 C1214 1.421 . S
C1216 C1215 1.422 . S
C1216 C1240 1.417 . S
C1217 H1194 0.931 . S
C1217 N1213 1.343 . S
C1217 C1218 1.390 . S
C1218 H1196 0.930 . S
C1218 C1215 1.321 . S
C1218 C1217 1.390 . S
O1219 Gd1187 2.386 . S
O1219 C1231 1.265 . S
O1220 Gd1186 2.353 . S
O1220 C1231 1.242 . S
O1221 Gd1186 2.468 . S
O1221 C1239 1.263 . S
O1222 Gd1186 2.427 . S
O1222 C1239 1.252 . S
O1223 Gd1187 2.307 . S
O1223 C1232 1.261 . S
O1224 Gd1186 2.388 . S
O1224 C1232 1.252 . S
O1225 Gd1186 2.386 . S
O1225 C1243 1.265 . S
O1226 Gd1187 2.353 . S
O1226 C1243 1.242 . S
O1227 Gd1187 2.468 . S
O1227 C1251 1.263 . S
O1228 Gd1187 2.427 . S
O1228 C1251 1.252 . S
O1229 Gd1186 2.307 . S
O1229 C1244 1.261 . S
O1230 Gd1187 2.388 . S
O1230 C1244 1.252 . S
C1231 O1219 1.265 . S
C1231 O1220 1.242 . S
C1232 O1223 1.261 . S
C1232 O1224 1.252 . S
C1233 C1236 1.394 . S
C1233 C1238 1.370 . S
C1233 C1239 1.500 . S
C1234 C1237 1.383 . S
C1234 C1238 1.395 . S
C1235 C1236 1.396 . S
C1235 C1237 1.365 . S
C1235 H1252 0.929 . S
C1236 C1233 1.394 . S
C1236 C1235 1.396 . S
C1236 H1253 0.930 . S
C1237 C1234 1.383 . S
C1237 C1235 1.365 . S
C1237 H1254 0.931 . S
C1238 C1233 1.370 . S
C1238 C1234 1.395 . S
C1238 H1255 0.930 . S
C1239 Gd1186 2.805 . S
C1239 O1221 1.263 . S
C1239 O1222 1.252 . S
C1239 C1233 1.500 . S
C1240 H1202 0.930 . S
C1240 C1216 1.417 . S
C1240 C1241 1.329 . S
C1241 C1211 1.437 . S
C1241 H1212 0.929 . S
C1241 C1240 1.329 . S
H1242 C1215 0.931 . S
C1243 O1225 1.265 . S
C1243 O1226 1.242 . S
C1244 O1229 1.261 . S
C1244 O1230 1.252 . S
C1245 C1248 1.394 . S
C1245 C1250 1.370 . S
C1245 C1251 1.500 . S
C1246 C1249 1.383 . S
C1246 C1250 1.395 . S
C1247 C1248 1.396 . S
C1247 C1249 1.365 . S
C1247 H1256 0.929 . S
C1248 C1245 1.394 . S
C1248 C1247 1.396 . S
C1248 H1257 0.930 . S
C1249 C1246 1.383 . S
C1249 C1247 1.365 . S
C1249 H1258 0.931 . S
C1250 C1245 1.370 . S
C1250 C1246 1.395 . S
C1250 H1259 0.930 . S
C1251 Gd1187 2.805 . S
C1251 O1227 1.263 . S
C1251 O1228 1.252 . S
C1251 C1245 1.500 . S
H1252 C1235 0.929 . S
H1253 C1236 0.930 . S
H1254 C1237 0.931 . S
H1255 C1238 0.930 . S
H1256 C1247 0.929 . S
H1257 C1248 0.930 . S
H1258 C1249 0.931 . S
H1259 C1250 0.930 . S
C1260 C1262 1.422 . S
C1260 C1264 1.415 . S
C1260 N1266 1.369 . S
C1261 C1262 1.421 . S
C1261 C1263 1.417 . S
C1261 C1273 1.422 . S
C1262 C1260 1.422 . S
C1262 C1261 1.421 . S
C1262 N1272 1.359 . S
C1263 C1261 1.417 . S
C1263 C1265 1.329 . S
C1263 H1282 0.930 . S
C1264 C1260 1.415 . S
C1264 C1265 1.437 . S
C1264 C1268 1.413 . S
C1265 C1263 1.329 . S
C1265 C1264 1.437 . S
C1265 H1287 0.929 . S
N1266 C1260 1.369 . S
N1266 C1267 1.338 . S
N1266 Gd1271 2.622 . S
C1267 N1266 1.338 . S
C1267 C1269 1.378 . S
C1267 H1279 0.929 . S
C1268 C1264 1.413 . S
C1268 C1269 1.348 . S
C1268 H1284 0.931 . S
C1269 C1267 1.378 . S
C1269 C1268 1.348 . S
C1269 H1285 0.930 . S
Gd1270 N1290 2.622 1_565 S
Gd1270 N1297 2.570 . S
Gd1270 O1304 2.353 1_455 S
Gd1270 O1305 2.468 . S
Gd1270 O1306 2.427 . S
Gd1270 O1308 2.388 1_465 S
Gd1270 O1309 2.386 1_455 S
Gd1270 O1313 2.307 . S
Gd1270 C1323 2.805 . S
Gd1271 N1266 2.622 . S
Gd1271 N1272 2.570 . S
Gd1271 O1303 2.386 . S
Gd1271 O1307 2.307 . S
Gd1271 O1310 2.353 . S
Gd1271 O1311 2.468 . S
Gd1271 O1312 2.427 . S
Gd1271 O1314 2.388 . S
Gd1271 C1335 2.805 . S
N1272 C1262 1.359 . S
N1272 Gd1271 2.570 . S
N1272 C1274 1.343 . S
C1273 C1261 1.422 . S
C1273 C1275 1.321 . S
C1273 H1281 0.931 . S
C1274 N1272 1.343 . S
C1274 C1275 1.390 . S
C1274 H1276 0.931 . S
C1275 C1273 1.321 . S
C1275 C1274 1.390 . S
C1275 H1277 0.930 . S
H1276 C1274 0.931 . S
H1277 C1275 0.930 . S
H1278 C1301 0.931 . S
H1279 C1267 0.929 . S
H1280 C1302 0.930 . S
H1281 C1273 0.931 . S
H1282 C1263 0.930 . S
H1283 C1292 0.929 1_655 S
H1284 C1268 0.931 . S
H1285 C1269 0.930 . S
H1286 C1324 0.930 . S
H1287 C1265 0.929 . S
H1288 C1293 0.931 . S
H1289 C1294 0.930 . S
N1290 Gd1270 2.622 1_545 S
N1290 C1291 1.369 . S
N1290 C1292 1.338 . S
C1291 N1290 1.369 . S
C1291 C1295 1.415 . S
C1291 C1298 1.422 . S
C1292 H1283 0.929 1_455 S
C1292 N1290 1.338 . S
C1292 C1294 1.378 . S
C1293 H1288 0.931 . S
C1293 C1294 1.348 . S
C1293 C1295 1.413 . S
C1294 H1289 0.930 . S
C1294 C1292 1.378 . S
C1294 C1293 1.348 . S
C1295 C1291 1.415 . S
C1295 C1293 1.413 . S
C1295 C1325 1.437 . S
H1296 C1325 0.929 . S
N1297 Gd1270 2.570 . S
N1297 C1298 1.359 1_565 S
N1297 C1301 1.343 . S
C1298 C1291 1.422 . S
C1298 N1297 1.359 1_545 S
C1298 C1300 1.421 . S
C1299 C1300 1.422 1_565 S
C1299 C1302 1.321 . S
C1299 H1326 0.931 . S
C1300 C1298 1.421 . S
C1300 C1299 1.422 1_545 S
C1300 C1324 1.417 . S
C1301 H1278 0.931 . S
C1301 N1297 1.343 . S
C1301 C1302 1.390 . S
C1302 H1280 0.930 . S
C1302 C1299 1.321 . S
C1302 C1301 1.390 . S
O1303 Gd1271 2.386 . S
O1303 C1315 1.265 . S
O1304 Gd1270 2.353 1_655 S
O1304 C1315 1.242 . S
O1305 Gd1270 2.468 . S
O1305 C1323 1.263 . S
O1306 Gd1270 2.427 . S
O1306 C1323 1.252 . S
O1307 Gd1271 2.307 . S
O1307 C1316 1.261 1_565 S
O1308 Gd1270 2.388 1_645 S
O1308 C1316 1.252 . S
O1309 Gd1270 2.386 1_655 S
O1309 C1327 1.265 . S
O1310 Gd1271 2.353 . S
O1310 C1327 1.242 . S
O1311 Gd1271 2.468 . S
O1311 C1335 1.263 . S
O1312 Gd1271 2.427 . S
O1312 C1335 1.252 . S
O1313 Gd1270 2.307 . S
O1313 C1328 1.261 1_455 S
O1314 Gd1271 2.388 . S
O1314 C1328 1.252 . S
C1315 O1303 1.265 . S
C1315 O1304 1.242 . S
C1316 O1307 1.261 1_545 S
C1316 O1308 1.252 . S
C1317 C1320 1.394 . S
C1317 C1322 1.370 . S
C1317 C1323 1.500 . S
C1318 C1321 1.383 . S
C1318 C1322 1.395 . S
C1319 C1320 1.396 . S
C1319 C1321 1.365 . S
C1319 H1336 0.929 . S
C1320 C1317 1.394 . S
C1320 C1319 1.396 . S
C1320 H1337 0.930 . S
C1321 C1318 1.383 . S
C1321 C1319 1.365 . S
C1321 H1338 0.931 . S
C1322 C1317 1.370 . S
C1322 C1318 1.395 . S
C1322 H1339 0.930 . S
C1323 Gd1270 2.805 . S
C1323 O1305 1.263 . S
C1323 O1306 1.252 . S
C1323 C1317 1.500 . S
C1324 H1286 0.930 . S
C1324 C1300 1.417 . S
C1324 C1325 1.329 . S
C1325 C1295 1.437 . S
C1325 H1296 0.929 . S
C1325 C1324 1.329 . S
H1326 C1299 0.931 . S
C1327 O1309 1.265 . S
C1327 O1310 1.242 . S
C1328 O1313 1.261 1_655 S
C1328 O1314 1.252 . S
C1329 C1332 1.394 . S
C1329 C1334 1.370 . S
C1329 C1335 1.500 . S
C1330 C1333 1.376 1_554 S
C1330 C1334 1.395 . S
C1331 C1332 1.394 . S
C1331 C1333 1.365 1_554 S
C1331 H1340 0.931 1_554 S
C1332 C1329 1.394 . S
C1332 C1331 1.394 . S
C1332 H1341 0.930 . S
C1333 C1330 1.376 1_556 S
C1333 C1331 1.365 1_556 S
C1333 H1342 0.939 . S
C1334 C1329 1.370 . S
C1334 C1330 1.395 . S
C1334 H1343 0.930 1_565 S
C1335 Gd1271 2.805 . S
C1335 O1311 1.263 . S
C1335 O1312 1.252 . S
C1335 C1329 1.500 . S
H1336 C1319 0.929 . S
H1337 C1320 0.930 . S
H1338 C1321 0.931 . S
H1339 C1322 0.930 . S
H1340 C1331 0.931 1_556 S
H1341 C1332 0.930 . S
H1342 C1333 0.939 . S
H1343 C1334 0.930 1_545 S
C1344 C1346 1.422 . S
C1344 C1348 1.415 . S
C1344 N1350 1.369 . S
C1345 C1346 1.421 . S
C1345 C1347 1.417 . S
C1345 C1357 1.422 . S
C1346 C1344 1.422 . S
C1346 C1345 1.421 . S
C1346 N1356 1.359 . S
C1347 C1345 1.417 . S
C1347 C1349 1.329 . S
C1347 H1366 0.930 . S
C1348 C1344 1.415 . S
C1348 C1349 1.437 . S
C1348 C1352 1.413 . S
C1349 C1347 1.329 . S
C1349 C1348 1.437 . S
C1349 H1371 0.929 . S
N1350 C1344 1.369 . S
N1350 C1351 1.338 . S
N1350 Gd1355 2.622 . S
C1351 N1350 1.338 . S
C1351 C1353 1.378 . S
C1351 H1363 0.929 . S
C1352 C1348 1.413 . S
C1352 C1353 1.348 . S
C1352 H1368 0.931 . S
C1353 C1351 1.378 . S
C1353 C1352 1.348 . S
C1353 H1369 0.930 . S
Gd1354 N1374 2.622 . S
Gd1354 N1381 2.570 . S
Gd1354 O1388 2.353 . S
Gd1354 O1389 2.468 . S
Gd1354 O1390 2.427 . S
Gd1354 O1392 2.388 . S
Gd1354 O1393 2.386 . S
Gd1354 O1397 2.307 . S
Gd1354 C1407 2.805 . S
Gd1355 N1350 2.622 . S
Gd1355 N1356 2.570 . S
Gd1355 O1387 2.386 . S
Gd1355 O1391 2.307 . S
Gd1355 O1394 2.353 . S
Gd1355 O1395 2.468 . S
Gd1355 O1396 2.427 . S
Gd1355 O1398 2.388 . S
Gd1355 C1419 2.805 . S
N1356 C1346 1.359 . S
N1356 Gd1355 2.570 . S
N1356 C1358 1.343 . S
C1357 C1345 1.422 . S
C1357 C1359 1.321 . S
C1357 H1365 0.931 . S
C1358 N1356 1.343 . S
C1358 C1359 1.390 . S
C1358 H1360 0.931 . S
C1359 C1357 1.321 . S
C1359 C1358 1.390 . S
C1359 H1361 0.930 . S
H1360 C1358 0.931 . S
H1361 C1359 0.930 . S
H1362 C1385 0.931 . S
H1363 C1351 0.929 . S
H1364 C1386 0.930 . S
H1365 C1357 0.931 . S
H1366 C1347 0.930 . S
H1367 C1376 0.929 . S
H1368 C1352 0.931 . S
H1369 C1353 0.930 . S
H1370 C1408 0.930 . S
H1371 C1349 0.929 . S
H1372 C1377 0.931 . S
H1373 C1378 0.930 . S
N1374 Gd1354 2.622 . S
N1374 C1375 1.369 . S
N1374 C1376 1.338 . S
C1375 N1374 1.369 . S
C1375 C1379 1.415 . S
C1375 C1382 1.422 . S
C1376 H1367 0.929 . S
C1376 N1374 1.338 . S
C1376 C1378 1.378 . S
C1377 H1372 0.931 . S
C1377 C1378 1.348 . S
C1377 C1379 1.413 . S
C1378 H1373 0.930 . S
C1378 C1376 1.378 . S
C1378 C1377 1.348 . S
C1379 C1375 1.415 . S
C1379 C1377 1.413 . S
C1379 C1409 1.437 . S
H1380 C1409 0.929 . S
N1381 Gd1354 2.570 . S
N1381 C1382 1.359 . S
N1381 C1385 1.343 . S
C1382 C1375 1.422 . S
C1382 N1381 1.359 . S
C1382 C1384 1.421 . S
C1383 C1384 1.422 . S
C1383 C1386 1.321 . S
C1383 H1410 0.931 . S
C1384 C1382 1.421 . S
C1384 C1383 1.422 . S
C1384 C1408 1.417 . S
C1385 H1362 0.931 . S
C1385 N1381 1.343 . S
C1385 C1386 1.390 . S
C1386 H1364 0.930 . S
C1386 C1383 1.321 . S
C1386 C1385 1.390 . S
O1387 Gd1355 2.386 . S
O1387 C1399 1.265 . S
O1388 Gd1354 2.353 . S
O1388 C1399 1.242 . S
O1389 Gd1354 2.468 . S
O1389 C1407 1.263 . S
O1390 Gd1354 2.427 . S
O1390 C1407 1.252 . S
O1391 Gd1355 2.307 . S
O1391 C1400 1.261 . S
O1392 Gd1354 2.388 . S
O1392 C1400 1.252 . S
O1393 Gd1354 2.386 . S
O1393 C1411 1.265 . S
O1394 Gd1355 2.353 . S
O1394 C1411 1.242 . S
O1395 Gd1355 2.468 . S
O1395 C1419 1.263 . S
O1396 Gd1355 2.427 . S
O1396 C1419 1.252 . S
O1397 Gd1354 2.307 . S
O1397 C1412 1.261 . S
O1398 Gd1355 2.388 . S
O1398 C1412 1.252 . S
C1399 O1387 1.265 . S
C1399 O1388 1.242 . S
C1400 O1391 1.261 . S
C1400 O1392 1.252 . S
C1401 C1404 1.394 . S
C1401 C1406 1.370 . S
C1401 C1407 1.500 . S
C1402 C1405 1.383 . S
C1402 C1406 1.395 . S
C1403 C1404 1.396 . S
C1403 C1405 1.365 . S
C1403 H1420 0.929 . S
C1404 C1401 1.394 . S
C1404 C1403 1.396 . S
C1404 H1421 0.930 . S
C1405 C1402 1.383 . S
C1405 C1403 1.365 . S
C1405 H1422 0.931 . S
C1406 C1401 1.370 . S
C1406 C1402 1.395 . S
C1406 H1423 0.930 . S
C1407 Gd1354 2.805 . S
C1407 O1389 1.263 . S
C1407 O1390 1.252 . S
C1407 C1401 1.500 . S
C1408 H1370 0.930 . S
C1408 C1384 1.417 . S
C1408 C1409 1.329 . S
C1409 C1379 1.437 . S
C1409 H1380 0.929 . S
C1409 C1408 1.329 . S
H1410 C1383 0.931 . S
C1411 O1393 1.265 . S
C1411 O1394 1.242 . S
C1412 O1397 1.261 . S
C1412 O1398 1.252 . S
C1413 C1416 1.394 . S
C1413 C1418 1.370 . S
C1413 C1419 1.500 . S
C1414 C1417 1.383 . S
C1414 C1418 1.395 . S
C1415 C1416 1.396 . S
C1415 C1417 1.365 . S
C1415 H1424 0.929 . S
C1416 C1413 1.394 . S
C1416 C1415 1.396 . S
C1416 H1425 0.930 . S
C1417 C1414 1.383 . S
C1417 C1415 1.365 . S
C1417 H1426 0.931 . S
C1418 C1413 1.370 . S
C1418 C1414 1.395 . S
C1418 H1427 0.930 . S
C1419 Gd1355 2.805 . S
C1419 O1395 1.263 . S
C1419 O1396 1.252 . S
C1419 C1413 1.500 . S
H1420 C1403 0.929 . S
H1421 C1404 0.930 . S
H1422 C1405 0.931 . S
H1423 C1406 0.930 . S
H1424 C1415 0.929 . S
H1425 C1416 0.930 . S
H1426 C1417 0.931 . S
H1427 C1418 0.930 . S
C1428 C1430 1.422 . S
C1428 C1432 1.415 . S
C1428 N1434 1.369 . S
C1429 C1430 1.421 . S
C1429 C1431 1.417 . S
C1429 C1441 1.422 . S
C1430 C1428 1.422 . S
C1430 C1429 1.421 . S
C1430 N1440 1.359 . S
C1431 C1429 1.417 . S
C1431 C1433 1.329 . S
C1431 H1450 0.930 . S
C1432 C1428 1.415 . S
C1432 C1433 1.437 . S
C1432 C1436 1.413 . S
C1433 C1431 1.329 . S
C1433 C1432 1.437 . S
C1433 H1455 0.929 . S
N1434 C1428 1.369 . S
N1434 C1435 1.338 . S
N1434 Gd1439 2.622 . S
C1435 N1434 1.338 . S
C1435 C1437 1.378 . S
C1435 H1447 0.929 . S
C1436 C1432 1.413 . S
C1436 C1437 1.348 . S
C1436 H1452 0.931 . S
C1437 C1435 1.378 . S
C1437 C1436 1.348 . S
C1437 H1453 0.930 . S
Gd1438 N1458 2.622 . S
Gd1438 N1465 2.570 . S
Gd1438 O1472 2.353 . S
Gd1438 O1473 2.468 . S
Gd1438 O1474 2.427 . S
Gd1438 O1476 2.388 . S
Gd1438 O1477 2.386 . S
Gd1438 O1481 2.307 . S
Gd1438 C1491 2.805 . S
Gd1439 N1434 2.622 . S
Gd1439 N1440 2.570 . S
Gd1439 O1471 2.386 . S
Gd1439 O1475 2.307 . S
Gd1439 O1478 2.353 . S
Gd1439 O1479 2.468 . S
Gd1439 O1480 2.427 . S
Gd1439 O1482 2.388 . S
Gd1439 C1503 2.805 . S
N1440 C1430 1.359 . S
N1440 Gd1439 2.570 . S
N1440 C1442 1.343 . S
C1441 C1429 1.422 . S
C1441 C1443 1.321 . S
C1441 H1449 0.931 . S
C1442 N1440 1.343 . S
C1442 C1443 1.390 . S
C1442 H1444 0.931 . S
C1443 C1441 1.321 . S
C1443 C1442 1.390 . S
C1443 H1445 0.930 . S
H1444 C1442 0.931 . S
H1445 C1443 0.930 . S
H1446 C1469 0.931 . S
H1447 C1435 0.929 . S
H1448 C1470 0.930 . S
H1449 C1441 0.931 . S
H1450 C1431 0.930 . S
H1451 C1460 0.929 . S
H1452 C1436 0.931 . S
H1453 C1437 0.930 . S
H1454 C1492 0.930 . S
H1455 C1433 0.929 . S
H1456 C1461 0.931 . S
H1457 C1462 0.930 . S
N1458 Gd1438 2.622 . S
N1458 C1459 1.369 . S
N1458 C1460 1.338 . S
C1459 N1458 1.369 . S
C1459 C1463 1.415 . S
C1459 C1466 1.422 . S
C1460 H1451 0.929 . S
C1460 N1458 1.338 . S
C1460 C1462 1.378 . S
C1461 H1456 0.931 . S
C1461 C1462 1.348 . S
C1461 C1463 1.413 . S
C1462 H1457 0.930 . S
C1462 C1460 1.378 . S
C1462 C1461 1.348 . S
C1463 C1459 1.415 . S
C1463 C1461 1.413 . S
C1463 C1493 1.437 . S
H1464 C1493 0.929 . S
N1465 Gd1438 2.570 . S
N1465 C1466 1.359 . S
N1465 C1469 1.343 . S
C1466 C1459 1.422 . S
C1466 N1465 1.359 . S
C1466 C1468 1.421 . S
C1467 C1468 1.422 . S
C1467 C1470 1.321 . S
C1467 H1494 0.931 . S
C1468 C1466 1.421 . S
C1468 C1467 1.422 . S
C1468 C1492 1.417 . S
C1469 H1446 0.931 . S
C1469 N1465 1.343 . S
C1469 C1470 1.390 . S
C1470 H1448 0.930 . S
C1470 C1467 1.321 . S
C1470 C1469 1.390 . S
O1471 Gd1439 2.386 . S
O1471 C1483 1.265 . S
O1472 Gd1438 2.353 . S
O1472 C1483 1.242 . S
O1473 Gd1438 2.468 . S
O1473 C1491 1.263 . S
O1474 Gd1438 2.427 . S
O1474 C1491 1.252 . S
O1475 Gd1439 2.307 . S
O1475 C1484 1.261 . S
O1476 Gd1438 2.388 . S
O1476 C1484 1.252 . S
O1477 Gd1438 2.386 . S
O1477 C1495 1.265 . S
O1478 Gd1439 2.353 . S
O1478 C1495 1.242 . S
O1479 Gd1439 2.468 . S
O1479 C1503 1.263 . S
O1480 Gd1439 2.427 . S
O1480 C1503 1.252 . S
O1481 Gd1438 2.307 . S
O1481 C1496 1.261 . S
O1482 Gd1439 2.388 . S
O1482 C1496 1.252 . S
C1483 O1471 1.265 . S
C1483 O1472 1.242 . S
C1484 O1475 1.261 . S
C1484 O1476 1.252 . S
C1485 C1488 1.394 . S
C1485 C1490 1.370 . S
C1485 C1491 1.500 . S
C1486 C1489 1.375 1_554 S
C1486 C1490 1.395 . S
C1487 C1488 1.393 . S
C1487 C1489 1.365 1_554 S
C1487 H1504 0.931 1_554 S
C1488 C1485 1.394 . S
C1488 C1487 1.393 . S
C1488 H1505 0.930 . S
C1489 C1486 1.375 1_556 S
C1489 C1487 1.365 1_556 S
C1489 H1506 0.939 . S
C1490 C1485 1.370 . S
C1490 C1486 1.395 . S
C1490 H1507 0.930 . S
C1491 Gd1438 2.805 . S
C1491 O1473 1.263 . S
C1491 O1474 1.252 . S
C1491 C1485 1.500 . S
C1492 H1454 0.930 . S
C1492 C1468 1.417 . S
C1492 C1493 1.329 . S
C1493 C1463 1.437 . S
C1493 H1464 0.929 . S
C1493 C1492 1.329 . S
H1494 C1467 0.931 . S
C1495 O1477 1.265 . S
C1495 O1478 1.242 . S
C1496 O1481 1.261 . S
C1496 O1482 1.252 . S
C1497 C1500 1.394 . S
C1497 C1502 1.370 . S
C1497 C1503 1.500 . S
C1498 C1501 1.383 . S
C1498 C1502 1.395 . S
C1499 C1500 1.396 . S
C1499 C1501 1.365 . S
C1499 H1508 0.929 . S
C1500 C1497 1.394 . S
C1500 C1499 1.396 . S
C1500 H1509 0.930 . S
C1501 C1498 1.383 . S
C1501 C1499 1.365 . S
C1501 H1510 0.931 . S
C1502 C1497 1.370 . S
C1502 C1498 1.395 . S
C1502 H1511 0.930 . S
C1503 Gd1439 2.805 . S
C1503 O1479 1.263 . S
C1503 O1480 1.252 . S
C1503 C1497 1.500 . S
H1504 C1487 0.931 1_556 S
H1505 C1488 0.930 . S
H1506 C1489 0.939 . S
H1507 C1490 0.930 . S
H1508 C1499 0.929 . S
H1509 C1500 0.930 . S
H1510 C1501 0.931 . S
H1511 C1502 0.930 . S
C1512 C1514 1.422 . S
C1512 C1516 1.415 . S
C1512 N1518 1.369 . S
C1513 C1514 1.421 . S
C1513 C1515 1.417 . S
C1513 C1525 1.422 . S
C1514 C1512 1.422 . S
C1514 C1513 1.421 . S
C1514 N1524 1.359 . S
C1515 C1513 1.417 . S
C1515 C1517 1.329 . S
C1515 H1534 0.930 . S
C1516 C1512 1.415 . S
C1516 C1517 1.437 . S
C1516 C1520 1.413 . S
C1517 C1515 1.329 . S
C1517 C1516 1.437 . S
C1517 H1539 0.929 . S
N1518 C1512 1.369 . S
N1518 C1519 1.338 . S
N1518 Gd1523 2.622 . S
C1519 N1518 1.338 . S
C1519 C1521 1.378 . S
C1519 H1531 0.929 . S
C1520 C1516 1.413 . S
C1520 C1521 1.348 . S
C1520 H1536 0.931 . S
C1521 C1519 1.378 . S
C1521 C1520 1.348 . S
C1521 H1537 0.930 . S
Gd1522 N1542 2.622 . S
Gd1522 N1549 2.570 . S
Gd1522 O1556 2.353 . S
Gd1522 O1557 2.468 . S
Gd1522 O1558 2.427 . S
Gd1522 O1560 2.388 . S
Gd1522 O1561 2.386 . S
Gd1522 O1565 2.307 . S
Gd1522 C1575 2.805 . S
Gd1523 N1518 2.622 . S
Gd1523 N1524 2.570 . S
Gd1523 O1555 2.386 . S
Gd1523 O1559 2.307 . S
Gd1523 O1562 2.353 . S
Gd1523 O1563 2.468 . S
Gd1523 O1564 2.427 . S
Gd1523 O1566 2.388 . S
Gd1523 C1587 2.805 . S
N1524 C1514 1.359 . S
N1524 Gd1523 2.570 . S
N1524 C1526 1.343 . S
C1525 C1513 1.422 . S
C1525 C1527 1.321 . S
C1525 H1533 0.931 . S
C1526 N1524 1.343 . S
C1526 C1527 1.390 . S
C1526 H1528 0.931 . S
C1527 C1525 1.321 . S
C1527 C1526 1.390 . S
C1527 H1529 0.930 . S
H1528 C1526 0.931 . S
H1529 C1527 0.930 . S
H1530 C1553 0.931 . S
H1531 C1519 0.929 . S
H1532 C1554 0.930 . S
H1533 C1525 0.931 . S
H1534 C1515 0.930 . S
H1535 C1544 0.929 . S
H1536 C1520 0.931 . S
H1537 C1521 0.930 . S
H1538 C1576 0.930 . S
H1539 C1517 0.929 . S
H1540 C1545 0.931 . S
H1541 C1546 0.930 . S
N1542 Gd1522 2.622 . S
N1542 C1543 1.369 . S
N1542 C1544 1.338 . S
C1543 N1542 1.369 . S
C1543 C1547 1.415 . S
C1543 C1550 1.422 . S
C1544 H1535 0.929 . S
C1544 N1542 1.338 . S
C1544 C1546 1.378 . S
C1545 H1540 0.931 . S
C1545 C1546 1.348 . S
C1545 C1547 1.413 . S
C1546 H1541 0.930 . S
C1546 C1544 1.378 . S
C1546 C1545 1.348 . S
C1547 C1543 1.415 . S
C1547 C1545 1.413 . S
C1547 C1577 1.437 . S
H1548 C1577 0.929 . S
N1549 Gd1522 2.570 . S
N1549 C1550 1.359 . S
N1549 C1553 1.343 . S
C1550 C1543 1.422 . S
C1550 N1549 1.359 . S
C1550 C1552 1.421 . S
C1551 C1552 1.422 . S
C1551 C1554 1.321 . S
C1551 H1578 0.931 . S
C1552 C1550 1.421 . S
C1552 C1551 1.422 . S
C1552 C1576 1.417 . S
C1553 H1530 0.931 . S
C1553 N1549 1.343 . S
C1553 C1554 1.390 . S
C1554 H1532 0.930 . S
C1554 C1551 1.321 . S
C1554 C1553 1.390 . S
O1555 Gd1523 2.386 . S
O1555 C1567 1.265 . S
O1556 Gd1522 2.353 . S
O1556 C1567 1.242 . S
O1557 Gd1522 2.468 . S
O1557 C1575 1.263 . S
O1558 Gd1522 2.427 . S
O1558 C1575 1.252 . S
O1559 Gd1523 2.307 . S
O1559 C1568 1.261 . S
O1560 Gd1522 2.388 . S
O1560 C1568 1.252 . S
O1561 Gd1522 2.386 . S
O1561 C1579 1.265 . S
O1562 Gd1523 2.353 . S
O1562 C1579 1.242 . S
O1563 Gd1523 2.468 . S
O1563 C1587 1.263 . S
O1564 Gd1523 2.427 . S
O1564 C1587 1.252 . S
O1565 Gd1522 2.307 . S
O1565 C1580 1.261 . S
O1566 Gd1523 2.388 . S
O1566 C1580 1.252 . S
C1567 O1555 1.265 . S
C1567 O1556 1.242 . S
C1568 O1559 1.261 . S
C1568 O1560 1.252 . S
C1569 C1572 1.394 . S
C1569 C1574 1.370 . S
C1569 C1575 1.500 . S
C1570 C1573 1.383 . S
C1570 C1574 1.395 . S
C1571 C1572 1.396 . S
C1571 C1573 1.365 . S
C1571 H1588 0.929 . S
C1572 C1569 1.394 . S
C1572 C1571 1.396 . S
C1572 H1589 0.930 . S
C1573 C1570 1.383 . S
C1573 C1571 1.365 . S
C1573 H1590 0.931 . S
C1574 C1569 1.370 . S
C1574 C1570 1.395 . S
C1574 H1591 0.930 . S
C1575 Gd1522 2.805 . S
C1575 O1557 1.263 . S
C1575 O1558 1.252 . S
C1575 C1569 1.500 . S
C1576 H1538 0.930 . S
C1576 C1552 1.417 . S
C1576 C1577 1.329 . S
C1577 C1547 1.437 . S
C1577 H1548 0.929 . S
C1577 C1576 1.329 . S
H1578 C1551 0.931 . S
C1579 O1561 1.265 . S
C1579 O1562 1.242 . S
C1580 O1565 1.261 . S
C1580 O1566 1.252 . S
C1581 C1584 1.394 . S
C1581 C1586 1.370 . S
C1581 C1587 1.500 . S
C1582 C1585 1.383 . S
C1582 C1586 1.395 . S
C1583 C1584 1.396 . S
C1583 C1585 1.365 . S
C1583 H1592 0.929 . S
C1584 C1581 1.394 . S
C1584 C1583 1.396 . S
C1584 H1593 0.930 . S
C1585 C1582 1.383 . S
C1585 C1583 1.365 . S
C1585 H1594 0.931 . S
C1586 C1581 1.370 . S
C1586 C1582 1.395 . S
C1586 H1595 0.930 . S
C1587 Gd1523 2.805 . S
C1587 O1563 1.263 . S
C1587 O1564 1.252 . S
C1587 C1581 1.500 . S
H1588 C1571 0.929 . S
H1589 C1572 0.930 . S
H1590 C1573 0.931 . S
H1591 C1574 0.930 . S
H1592 C1583 0.929 . S
H1593 C1584 0.930 . S
H1594 C1585 0.931 . S
H1595 C1586 0.930 . S
C1596 C1598 1.422 . S
C1596 C1600 1.415 . S
C1596 N1602 1.369 . S
C1597 C1598 1.421 . S
C1597 C1599 1.417 . S
C1597 C1609 1.422 . S
C1598 C1596 1.422 . S
C1598 C1597 1.421 . S
C1598 N1608 1.359 . S
C1599 C1597 1.417 . S
C1599 C1601 1.329 . S
C1599 H1618 0.930 . S
C1600 C1596 1.415 . S
C1600 C1601 1.437 . S
C1600 C1604 1.413 . S
C1601 C1599 1.329 . S
C1601 C1600 1.437 . S
C1601 H1623 0.929 . S
N1602 C1596 1.369 . S
N1602 C1603 1.338 . S
N1602 Gd1607 2.622 . S
C1603 N1602 1.338 . S
C1603 C1605 1.378 . S
C1603 H1615 0.929 1_455 S
C1604 C1600 1.413 . S
C1604 C1605 1.348 . S
C1604 H1620 0.931 . S
C1605 C1603 1.378 . S
C1605 C1604 1.348 . S
C1605 H1621 0.930 . S
Gd1606 N1626 2.622 . S
Gd1606 N1633 2.570 . S
Gd1606 O1640 2.353 . S
Gd1606 O1641 2.468 . S
Gd1606 O1642 2.427 . S
Gd1606 O1644 2.388 . S
Gd1606 O1645 2.386 . S
Gd1606 O1649 2.307 . S
Gd1606 C1659 2.805 . S
Gd1607 N1602 2.622 . S
Gd1607 N1608 2.570 . S
Gd1607 O1639 2.386 1_455 S
Gd1607 O1643 2.307 . S
Gd1607 O1646 2.353 1_455 S
Gd1607 O1647 2.468 . S
Gd1607 O1648 2.427 . S
Gd1607 O1650 2.388 1_455 S
Gd1607 C1671 2.805 . S
N1608 C1598 1.359 . S
N1608 Gd1607 2.570 . S
N1608 C1610 1.343 . S
C1609 C1597 1.422 . S
C1609 C1611 1.321 . S
C1609 H1617 0.931 . S
C1610 N1608 1.343 . S
C1610 C1611 1.390 . S
C1610 H1612 0.931 . S
C1611 C1609 1.321 . S
C1611 C1610 1.390 . S
C1611 H1613 0.930 . S
H1612 C1610 0.931 . S
H1613 C1611 0.930 . S
H1614 C1637 0.931 . S
H1615 C1603 0.929 1_655 S
H1616 C1638 0.930 . S
H1617 C1609 0.931 . S
H1618 C1599 0.930 . S
H1619 C1628 0.929 . S
H1620 C1604 0.931 . S
H1621 C1605 0.930 . S
H1622 C1660 0.930 . S
H1623 C1601 0.929 . S
H1624 C1629 0.931 . S
H1625 C1630 0.930 . S
N1626 Gd1606 2.622 . S
N1626 C1627 1.369 . S
N1626 C1628 1.338 . S
C1627 N1626 1.369 . S
C1627 C1631 1.415 . S
C1627 C1634 1.422 . S
C1628 H1619 0.929 . S
C1628 N1626 1.338 . S
C1628 C1630 1.378 . S
C1629 H1624 0.931 . S
C1629 C1630 1.348 . S
C1629 C1631 1.413 . S
C1630 H1625 0.930 . S
C1630 C1628 1.378 . S
C1630 C1629 1.348 . S
C1631 C1627 1.415 . S
C1631 C1629 1.413 . S
C1631 C1661 1.437 . S
H1632 C1661 0.929 . S
N1633 Gd1606 2.570 . S
N1633 C1634 1.359 . S
N1633 C1637 1.343 . S
C1634 C1627 1.422 . S
C1634 N1633 1.359 . S
C1634 C1636 1.421 . S
C1635 C1636 1.422 . S
C1635 C1638 1.321 . S
C1635 H1662 0.931 . S
C1636 C1634 1.421 . S
C1636 C1635 1.422 . S
C1636 C1660 1.417 . S
C1637 H1614 0.931 . S
C1637 N1633 1.343 . S
C1637 C1638 1.390 . S
C1638 H1616 0.930 . S
C1638 C1635 1.321 . S
C1638 C1637 1.390 . S
O1639 Gd1607 2.386 1_655 S
O1639 C1651 1.265 . S
O1640 Gd1606 2.353 . S
O1640 C1651 1.242 . S
O1641 Gd1606 2.468 . S
O1641 C1659 1.263 . S
O1642 Gd1606 2.427 . S
O1642 C1659 1.252 . S
O1643 Gd1607 2.307 . S
O1643 C1652 1.261 1_455 S
O1644 Gd1606 2.388 . S
O1644 C1652 1.252 . S
O1645 Gd1606 2.386 . S
O1645 C1663 1.265 . S
O1646 Gd1607 2.353 1_655 S
O1646 C1663 1.242 . S
O1647 Gd1607 2.468 . S
O1647 C1671 1.263 . S
O1648 Gd1607 2.427 . S
O1648 C1671 1.252 . S
O1649 Gd1606 2.307 . S
O1649 C1664 1.261 . S
O1650 Gd1607 2.388 1_655 S
O1650 C1664 1.252 . S
C1651 O1639 1.265 . S
C1651 O1640 1.242 . S
C1652 O1643 1.261 1_655 S
C1652 O1644 1.252 . S
C1653 C1656 1.394 . S
C1653 C1658 1.370 . S
C1653 C1659 1.500 . S
C1654 C1657 1.383 . S
C1654 C1658 1.395 . S
C1655 C1656 1.396 . S
C1655 C1657 1.365 . S
C1655 H1672 0.929 . S
C1656 C1653 1.394 . S
C1656 C1655 1.396 . S
C1656 H1673 0.930 . S
C1657 C1654 1.383 . S
C1657 C1655 1.365 . S
C1657 H1674 0.931 . S
C1658 C1653 1.370 . S
C1658 C1654 1.395 . S
C1658 H1675 0.930 . S
C1659 Gd1606 2.805 . S
C1659 O1641 1.263 . S
C1659 O1642 1.252 . S
C1659 C1653 1.500 . S
C1660 H1622 0.930 . S
C1660 C1636 1.417 . S
C1660 C1661 1.329 . S
C1661 C1631 1.437 . S
C1661 H1632 0.929 . S
C1661 C1660 1.329 . S
H1662 C1635 0.931 . S
C1663 O1645 1.265 . S
C1663 O1646 1.242 . S
C1664 O1649 1.261 . S
C1664 O1650 1.252 . S
C1665 C1668 1.394 . S
C1665 C1670 1.370 . S
C1665 C1671 1.500 . S
C1666 C1669 1.383 . S
C1666 C1670 1.395 . S
C1667 C1668 1.396 . S
C1667 C1669 1.365 . S
C1667 H1676 0.929 . S
C1668 C1665 1.394 . S
C1668 C1667 1.396 . S
C1668 H1677 0.930 . S
C1669 C1666 1.383 . S
C1669 C1667 1.365 . S
C1669 H1678 0.931 . S
C1670 C1665 1.370 . S
C1670 C1666 1.395 . S
C1670 H1679 0.930 . S
C1671 Gd1607 2.805 . S
C1671 O1647 1.263 . S
C1671 O1648 1.252 . S
C1671 C1665 1.500 . S
H1672 C1655 0.929 . S
H1673 C1656 0.930 . S
H1674 C1657 0.931 . S
H1675 C1658 0.930 . S
H1676 C1667 0.929 . S
H1677 C1668 0.930 . S
H1678 C1669 0.931 . S
H1679 C1670 0.930 . S
C1680 C1682 1.422 . S
C1680 C1684 1.415 . S
C1680 N1686 1.369 . S
C1681 C1682 1.421 . S
C1681 C1683 1.417 . S
C1681 C1693 1.422 . S
C1682 C1680 1.422 . S
C1682 C1681 1.421 . S
C1682 N1692 1.359 . S
C1683 C1681 1.417 . S
C1683 C1685 1.329 . S
C1683 H1702 0.930 . S
C1684 C1680 1.415 . S
C1684 C1685 1.437 . S
C1684 C1688 1.413 . S
C1685 C1683 1.329 . S
C1685 C1684 1.437 . S
C1685 H1707 0.929 . S
N1686 C1680 1.369 . S
N1686 C1687 1.338 . S
N1686 Gd1691 2.622 . S
C1687 N1686 1.338 . S
C1687 C1689 1.378 . S
C1687 H1699 0.929 . S
C1688 C1684 1.413 . S
C1688 C1689 1.348 . S
C1688 H1704 0.931 . S
C1689 C1687 1.378 . S
C1689 C1688 1.348 . S
C1689 H1705 0.930 . S
Gd1690 N1710 2.622 . S
Gd1690 N1717 2.570 . S
Gd1690 O1724 2.353 . S
Gd1690 O1725 2.468 . S
Gd1690 O1726 2.427 . S
Gd1690 O1728 2.388 . S
Gd1690 O1729 2.386 . S
Gd1690 O1733 2.307 . S
Gd1690 C1743 2.805 . S
Gd1691 N1686 2.622 . S
Gd1691 N1692 2.570 . S
Gd1691 O1723 2.386 . S
Gd1691 O1727 2.307 . S
Gd1691 O1730 2.353 . S
Gd1691 O1731 2.468 . S
Gd1691 O1732 2.427 . S
Gd1691 O1734 2.388 . S
Gd1691 C1755 2.805 . S
N1692 C1682 1.359 . S
N1692 Gd1691 2.570 . S
N1692 C1694 1.343 . S
C1693 C1681 1.422 . S
C1693 C1695 1.321 . S
C1693 H1701 0.931 . S
C1694 N1692 1.343 . S
C1694 C1695 1.390 . S
C1694 H1696 0.931 . S
C1695 C1693 1.321 . S
C1695 C1694 1.390 . S
C1695 H1697 0.930 . S
H1696 C1694 0.931 . S
H1697 C1695 0.930 . S
H1698 C1721 0.931 . S
H1699 C1687 0.929 . S
H1700 C1722 0.930 . S
H1701 C1693 0.931 . S
H1702 C1683 0.930 . S
H1703 C1712 0.929 . S
H1704 C1688 0.931 . S
H1705 C1689 0.930 . S
H1706 C1744 0.930 . S
H1707 C1685 0.929 . S
H1708 C1713 0.931 . S
H1709 C1714 0.930 . S
N1710 Gd1690 2.622 . S
N1710 C1711 1.369 . S
N1710 C1712 1.338 . S
C1711 N1710 1.369 . S
C1711 C1715 1.415 . S
C1711 C1718 1.422 . S
C1712 H1703 0.929 . S
C1712 N1710 1.338 . S
C1712 C1714 1.378 . S
C1713 H1708 0.931 . S
C1713 C1714 1.348 . S
C1713 C1715 1.413 . S
C1714 H1709 0.930 . S
C1714 C1712 1.378 . S
C1714 C1713 1.348 . S
C1715 C1711 1.415 . S
C1715 C1713 1.413 . S
C1715 C1745 1.437 . S
H1716 C1745 0.929 . S
N1717 Gd1690 2.570 . S
N1717 C1718 1.359 . S
N1717 C1721 1.343 . S
C1718 C1711 1.422 . S
C1718 N1717 1.359 . S
C1718 C1720 1.421 . S
C1719 C1720 1.422 . S
C1719 C1722 1.321 . S
C1719 H1746 0.931 . S
C1720 C1718 1.421 . S
C1720 C1719 1.422 . S
C1720 C1744 1.417 . S
C1721 H1698 0.931 . S
C1721 N1717 1.343 . S
C1721 C1722 1.390 . S
C1722 H1700 0.930 . S
C1722 C1719 1.321 . S
C1722 C1721 1.390 . S
O1723 Gd1691 2.386 . S
O1723 C1735 1.265 . S
O1724 Gd1690 2.353 . S
O1724 C1735 1.242 . S
O1725 Gd1690 2.468 . S
O1725 C1743 1.263 . S
O1726 Gd1690 2.427 . S
O1726 C1743 1.252 . S
O1727 Gd1691 2.307 . S
O1727 C1736 1.261 . S
O1728 Gd1690 2.388 . S
O1728 C1736 1.252 . S
O1729 Gd1690 2.386 . S
O1729 C1747 1.265 . S
O1730 Gd1691 2.353 . S
O1730 C1747 1.242 . S
O1731 Gd1691 2.468 . S
O1731 C1755 1.263 . S
O1732 Gd1691 2.427 . S
O1732 C1755 1.252 . S
O1733 Gd1690 2.307 . S
O1733 C1748 1.261 . S
O1734 Gd1691 2.388 . S
O1734 C1748 1.252 . S
C1735 O1723 1.265 . S
C1735 O1724 1.242 . S
C1736 O1727 1.261 . S
C1736 O1728 1.252 . S
C1737 C1740 1.394 . S
C1737 C1742 1.370 . S
C1737 C1743 1.500 . S
C1738 C1741 1.383 . S
C1738 C1742 1.395 . S
C1739 C1740 1.396 . S
C1739 C1741 1.365 . S
C1739 H1756 0.929 . S
C1740 C1737 1.394 . S
C1740 C1739 1.396 . S
C1740 H1757 0.930 . S
C1741 C1738 1.383 . S
C1741 C1739 1.365 . S
C1741 H1758 0.931 . S
C1742 C1737 1.370 . S
C1742 C1738 1.395 . S
C1742 H1759 0.930 . S
C1743 Gd1690 2.805 . S
C1743 O1725 1.263 . S
C1743 O1726 1.252 . S
C1743 C1737 1.500 . S
C1744 H1706 0.930 . S
C1744 C1720 1.417 . S
C1744 C1745 1.329 . S
C1745 C1715 1.437 . S
C1745 H1716 0.929 . S
C1745 C1744 1.329 . S
H1746 C1719 0.931 . S
C1747 O1729 1.265 . S
C1747 O1730 1.242 . S
C1748 O1733 1.261 . S
C1748 O1734 1.252 . S
C1749 C1752 1.394 . S
C1749 C1754 1.370 . S
C1749 C1755 1.500 . S
C1750 C1753 1.383 . S
C1750 C1754 1.395 . S
C1751 C1752 1.396 . S
C1751 C1753 1.365 . S
C1751 H1760 0.929 . S
C1752 C1749 1.394 . S
C1752 C1751 1.396 . S
C1752 H1761 0.930 . S
C1753 C1750 1.383 . S
C1753 C1751 1.365 . S
C1753 H1762 0.931 . S
C1754 C1749 1.370 . S
C1754 C1750 1.395 . S
C1754 H1763 0.930 . S
C1755 Gd1691 2.805 . S
C1755 O1731 1.263 . S
C1755 O1732 1.252 . S
C1755 C1749 1.500 . S
H1756 C1739 0.929 . S
H1757 C1740 0.930 . S
H1758 C1741 0.931 . S
H1759 C1742 0.930 . S
H1760 C1751 0.929 . S
H1761 C1752 0.930 . S
H1762 C1753 0.931 . S
H1763 C1754 0.930 . S
C1764 C1766 1.422 . S
C1764 C1768 1.415 . S
C1764 N1770 1.369 . S
C1765 C1766 1.421 . S
C1765 C1767 1.417 . S
C1765 C1777 1.422 . S
C1766 C1764 1.422 . S
C1766 C1765 1.421 . S
C1766 N1776 1.359 . S
C1767 C1765 1.417 . S
C1767 C1769 1.329 . S
C1767 H1786 0.930 . S
C1768 C1764 1.415 . S
C1768 C1769 1.437 . S
C1768 C1772 1.413 . S
C1769 C1767 1.329 . S
C1769 C1768 1.437 . S
C1769 H1791 0.929 . S
N1770 C1764 1.369 . S
N1770 C1771 1.338 . S
N1770 Gd1775 2.622 . S
C1771 N1770 1.338 . S
C1771 C1773 1.378 . S
C1771 H1783 0.929 1_455 S
C1772 C1768 1.413 . S
C1772 C1773 1.348 . S
C1772 H1788 0.931 . S
C1773 C1771 1.378 . S
C1773 C1772 1.348 . S
C1773 H1789 0.930 . S
Gd1774 N1794 2.622 . S
Gd1774 N1801 2.570 . S
Gd1774 O1808 2.353 . S
Gd1774 O1809 2.468 . S
Gd1774 O1810 2.427 . S
Gd1774 O1812 2.388 . S
Gd1774 O1813 2.386 . S
Gd1774 O1817 2.307 . S
Gd1774 C1827 2.805 . S
Gd1775 N1770 2.622 . S
Gd1775 N1776 2.570 . S
Gd1775 O1807 2.386 1_455 S
Gd1775 O1811 2.307 . S
Gd1775 O1814 2.353 1_455 S
Gd1775 O1815 2.468 . S
Gd1775 O1816 2.427 . S
Gd1775 O1818 2.388 1_455 S
Gd1775 C1839 2.805 . S
N1776 C1766 1.359 . S
N1776 Gd1775 2.570 . S
N1776 C1778 1.343 . S
C1777 C1765 1.422 . S
C1777 C1779 1.321 . S
C1777 H1785 0.931 . S
C1778 N1776 1.343 . S
C1778 C1779 1.390 . S
C1778 H1780 0.931 . S
C1779 C1777 1.321 . S
C1779 C1778 1.390 . S
C1779 H1781 0.930 . S
H1780 C1778 0.931 . S
H1781 C1779 0.930 . S
H1782 C1805 0.931 . S
H1783 C1771 0.929 1_655 S
H1784 C1806 0.930 . S
H1785 C1777 0.931 . S
H1786 C1767 0.930 . S
H1787 C1796 0.929 . S
H1788 C1772 0.931 . S
H1789 C1773 0.930 . S
H1790 C1828 0.930 . S
H1791 C1769 0.929 . S
H1792 C1797 0.931 . S
H1793 C1798 0.930 . S
N1794 Gd1774 2.622 . S
N1794 C1795 1.369 . S
N1794 C1796 1.338 . S
C1795 N1794 1.369 . S
C1795 C1799 1.415 . S
C1795 C1802 1.422 . S
C1796 H1787 0.929 . S
C1796 N1794 1.338 . S
C1796 C1798 1.378 . S
C1797 H1792 0.931 . S
C1797 C1798 1.348 . S
C1797 C1799 1.413 . S
C1798 H1793 0.930 . S
C1798 C1796 1.378 . S
C1798 C1797 1.348 . S
C1799 C1795 1.415 . S
C1799 C1797 1.413 . S
C1799 C1829 1.437 . S
H1800 C1829 0.929 . S
N1801 Gd1774 2.570 . S
N1801 C1802 1.359 . S
N1801 C1805 1.343 . S
C1802 C1795 1.422 . S
C1802 N1801 1.359 . S
C1802 C1804 1.421 . S
C1803 C1804 1.422 . S
C1803 C1806 1.321 . S
C1803 H1830 0.931 . S
C1804 C1802 1.421 . S
C1804 C1803 1.422 . S
C1804 C1828 1.417 . S
C1805 H1782 0.931 . S
C1805 N1801 1.343 . S
C1805 C1806 1.390 . S
C1806 H1784 0.930 . S
C1806 C1803 1.321 . S
C1806 C1805 1.390 . S
O1807 Gd1775 2.386 1_655 S
O1807 C1819 1.265 . S
O1808 Gd1774 2.353 . S
O1808 C1819 1.242 . S
O1809 Gd1774 2.468 . S
O1809 C1827 1.263 . S
O1810 Gd1774 2.427 . S
O1810 C1827 1.252 . S
O1811 Gd1775 2.307 . S
O1811 C1820 1.261 1_455 S
O1812 Gd1774 2.388 . S
O1812 C1820 1.252 . S
O1813 Gd1774 2.386 . S
O1813 C1831 1.265 . S
O1814 Gd1775 2.353 1_655 S
O1814 C1831 1.242 . S
O1815 Gd1775 2.468 . S
O1815 C1839 1.263 . S
O1816 Gd1775 2.427 . S
O1816 C1839 1.252 . S
O1817 Gd1774 2.307 . S
O1817 C1832 1.261 . S
O1818 Gd1775 2.388 1_655 S
O1818 C1832 1.252 . S
C1819 O1807 1.265 . S
C1819 O1808 1.242 . S
C1820 O1811 1.261 1_655 S
C1820 O1812 1.252 . S
C1821 C1824 1.394 . S
C1821 C1826 1.370 . S
C1821 C1827 1.500 . S
C1822 C1825 1.375 1_556 S
C1822 C1826 1.395 . S
C1823 C1824 1.393 . S
C1823 C1825 1.365 1_556 S
C1823 H1840 0.931 1_556 S
C1824 C1821 1.394 . S
C1824 C1823 1.393 . S
C1824 H1841 0.930 . S
C1825 C1822 1.375 1_554 S
C1825 C1823 1.365 1_554 S
C1825 H1842 0.939 . S
C1826 C1821 1.370 . S
C1826 C1822 1.395 . S
C1826 H1843 0.930 . S
C1827 Gd1774 2.805 . S
C1827 O1809 1.263 . S
C1827 O1810 1.252 . S
C1827 C1821 1.500 . S
C1828 H1790 0.930 . S
C1828 C1804 1.417 . S
C1828 C1829 1.329 . S
C1829 C1799 1.437 . S
C1829 H1800 0.929 . S
C1829 C1828 1.329 . S
H1830 C1803 0.931 . S
C1831 O1813 1.265 . S
C1831 O1814 1.242 . S
C1832 O1817 1.261 . S
C1832 O1818 1.252 . S
C1833 C1836 1.394 . S
C1833 C1838 1.370 . S
C1833 C1839 1.500 . S
C1834 C1837 1.383 . S
C1834 C1838 1.395 . S
C1835 C1836 1.396 . S
C1835 C1837 1.365 . S
C1835 H1844 0.929 . S
C1836 C1833 1.394 . S
C1836 C1835 1.396 . S
C1836 H1845 0.930 . S
C1837 C1834 1.383 . S
C1837 C1835 1.365 . S
C1837 H1846 0.931 . S
C1838 C1833 1.370 . S
C1838 C1834 1.395 . S
C1838 H1847 0.930 . S
C1839 Gd1775 2.805 . S
C1839 O1815 1.263 . S
C1839 O1816 1.252 . S
C1839 C1833 1.500 . S
H1840 C1823 0.931 1_554 S
H1841 C1824 0.930 . S
H1842 C1825 0.939 . S
H1843 C1826 0.930 . S
H1844 C1835 0.929 . S
H1845 C1836 0.930 . S
H1846 C1837 0.931 . S
H1847 C1838 0.930 . S
C1848 C1850 1.422 . S
C1848 C1852 1.415 . S
C1848 N1854 1.369 . S
C1849 C1850 1.421 . S
C1849 C1851 1.417 . S
C1849 C1861 1.422 . S
C1850 C1848 1.422 . S
C1850 C1849 1.421 . S
C1850 N1860 1.359 . S
C1851 C1849 1.417 . S
C1851 C1853 1.329 . S
C1851 H1870 0.930 . S
C1852 C1848 1.415 . S
C1852 C1853 1.437 . S
C1852 C1856 1.413 . S
C1853 C1851 1.329 . S
C1853 C1852 1.437 . S
C1853 H1875 0.929 . S
N1854 C1848 1.369 . S
N1854 C1855 1.338 . S
N1854 Gd1859 2.622 . S
C1855 N1854 1.338 . S
C1855 C1857 1.378 . S
C1855 H1867 0.929 . S
C1856 C1852 1.413 . S
C1856 C1857 1.348 . S
C1856 H1872 0.931 . S
C1857 C1855 1.378 . S
C1857 C1856 1.348 . S
C1857 H1873 0.930 . S
Gd1858 N1878 2.622 . S
Gd1858 N1885 2.570 . S
Gd1858 O1892 2.353 . S
Gd1858 O1893 2.468 . S
Gd1858 O1894 2.427 . S
Gd1858 O1896 2.388 . S
Gd1858 O1897 2.386 . S
Gd1858 O1901 2.307 . S
Gd1858 C1911 2.805 . S
Gd1859 N1854 2.622 . S
Gd1859 N1860 2.570 . S
Gd1859 O1891 2.386 . S
Gd1859 O1895 2.307 . S
Gd1859 O1898 2.353 . S
Gd1859 O1899 2.468 . S
Gd1859 O1900 2.427 . S
Gd1859 O1902 2.388 . S
Gd1859 C1923 2.805 . S
N1860 C1850 1.359 . S
N1860 Gd1859 2.570 . S
N1860 C1862 1.343 . S
C1861 C1849 1.422 . S
C1861 C1863 1.321 . S
C1861 H1869 0.931 . S
C1862 N1860 1.343 . S
C1862 C1863 1.390 . S
C1862 H1864 0.931 . S
C1863 C1861 1.321 . S
C1863 C1862 1.390 . S
C1863 H1865 0.930 . S
H1864 C1862 0.931 . S
H1865 C1863 0.930 . S
H1866 C1889 0.931 . S
H1867 C1855 0.929 . S
H1868 C1890 0.930 . S
H1869 C1861 0.931 . S
H1870 C1851 0.930 . S
H1871 C1880 0.929 . S
H1872 C1856 0.931 . S
H1873 C1857 0.930 . S
H1874 C1912 0.930 . S
H1875 C1853 0.929 . S
H1876 C1881 0.931 . S
H1877 C1882 0.930 . S
N1878 Gd1858 2.622 . S
N1878 C1879 1.369 . S
N1878 C1880 1.338 . S
C1879 N1878 1.369 . S
C1879 C1883 1.415 . S
C1879 C1886 1.422 . S
C1880 H1871 0.929 . S
C1880 N1878 1.338 . S
C1880 C1882 1.378 . S
C1881 H1876 0.931 . S
C1881 C1882 1.348 . S
C1881 C1883 1.413 . S
C1882 H1877 0.930 . S
C1882 C1880 1.378 . S
C1882 C1881 1.348 . S
C1883 C1879 1.415 . S
C1883 C1881 1.413 . S
C1883 C1913 1.437 . S
H1884 C1913 0.929 . S
N1885 Gd1858 2.570 . S
N1885 C1886 1.359 . S
N1885 C1889 1.343 . S
C1886 C1879 1.422 . S
C1886 N1885 1.359 . S
C1886 C1888 1.421 . S
C1887 C1888 1.422 . S
C1887 C1890 1.321 . S
C1887 H1914 0.931 . S
C1888 C1886 1.421 . S
C1888 C1887 1.422 . S
C1888 C1912 1.417 . S
C1889 H1866 0.931 . S
C1889 N1885 1.343 . S
C1889 C1890 1.390 . S
C1890 H1868 0.930 . S
C1890 C1887 1.321 . S
C1890 C1889 1.390 . S
O1891 Gd1859 2.386 . S
O1891 C1903 1.265 . S
O1892 Gd1858 2.353 . S
O1892 C1903 1.242 . S
O1893 Gd1858 2.468 . S
O1893 C1911 1.263 . S
O1894 Gd1858 2.427 . S
O1894 C1911 1.252 . S
O1895 Gd1859 2.307 . S
O1895 C1904 1.261 . S
O1896 Gd1858 2.388 . S
O1896 C1904 1.252 . S
O1897 Gd1858 2.386 . S
O1897 C1915 1.265 . S
O1898 Gd1859 2.353 . S
O1898 C1915 1.242 . S
O1899 Gd1859 2.468 . S
O1899 C1923 1.263 . S
O1900 Gd1859 2.427 . S
O1900 C1923 1.252 . S
O1901 Gd1858 2.307 . S
O1901 C1916 1.261 . S
O1902 Gd1859 2.388 . S
O1902 C1916 1.252 . S
C1903 O1891 1.265 . S
C1903 O1892 1.242 . S
C1904 O1895 1.261 . S
C1904 O1896 1.252 . S
C1905 C1908 1.394 . S
C1905 C1910 1.370 . S
C1905 C1911 1.500 . S
C1906 C1909 1.383 . S
C1906 C1910 1.395 . S
C1907 C1908 1.396 . S
C1907 C1909 1.365 . S
C1907 H1924 0.929 . S
C1908 C1905 1.394 . S
C1908 C1907 1.396 . S
C1908 H1925 0.930 . S
C1909 C1906 1.383 . S
C1909 C1907 1.365 . S
C1909 H1926 0.931 . S
C1910 C1905 1.370 . S
C1910 C1906 1.395 . S
C1910 H1927 0.930 . S
C1911 Gd1858 2.805 . S
C1911 O1893 1.263 . S
C1911 O1894 1.252 . S
C1911 C1905 1.500 . S
C1912 H1874 0.930 . S
C1912 C1888 1.417 . S
C1912 C1913 1.329 . S
C1913 C1883 1.437 . S
C1913 H1884 0.929 . S
C1913 C1912 1.329 . S
H1914 C1887 0.931 . S
C1915 O1897 1.265 . S
C1915 O1898 1.242 . S
C1916 O1901 1.261 . S
C1916 O1902 1.252 . S
C1917 C1920 1.394 . S
C1917 C1922 1.370 . S
C1917 C1923 1.500 . S
C1918 C1921 1.383 . S
C1918 C1922 1.395 . S
C1919 C1920 1.396 . S
C1919 C1921 1.365 . S
C1919 H1928 0.929 . S
C1920 C1917 1.394 . S
C1920 C1919 1.396 . S
C1920 H1929 0.930 . S
C1921 C1918 1.383 . S
C1921 C1919 1.365 . S
C1921 H1930 0.931 . S
C1922 C1917 1.370 . S
C1922 C1918 1.395 . S
C1922 H1931 0.930 . S
C1923 Gd1859 2.805 . S
C1923 O1899 1.263 . S
C1923 O1900 1.252 . S
C1923 C1917 1.500 . S
H1924 C1907 0.929 . S
H1925 C1908 0.930 . S
H1926 C1909 0.931 . S
H1927 C1910 0.930 . S
H1928 C1919 0.929 . S
H1929 C1920 0.930 . S
H1930 C1921 0.931 . S
H1931 C1922 0.930 . S
C1932 C1934 1.422 . S
C1932 C1936 1.415 . S
C1932 N1938 1.369 . S
C1933 C1934 1.421 . S
C1933 C1935 1.417 . S
C1933 C1945 1.422 . S
C1934 C1932 1.422 . S
C1934 C1933 1.421 . S
C1934 N1944 1.359 . S
C1935 C1933 1.417 . S
C1935 C1937 1.329 . S
C1935 H1954 0.930 . S
C1936 C1932 1.415 . S
C1936 C1937 1.437 . S
C1936 C1940 1.413 . S
C1937 C1935 1.329 . S
C1937 C1936 1.437 . S
C1937 H1959 0.929 . S
N1938 C1932 1.369 . S
N1938 C1939 1.338 . S
N1938 Gd1943 2.622 . S
C1939 N1938 1.338 . S
C1939 C1941 1.378 . S
C1939 H1951 0.929 . S
C1940 C1936 1.413 . S
C1940 C1941 1.348 . S
C1940 H1956 0.931 . S
C1941 C1939 1.378 . S
C1941 C1940 1.348 . S
C1941 H1957 0.930 . S
Gd1942 N1962 2.622 . S
Gd1942 N1969 2.570 . S
Gd1942 O1976 2.353 . S
Gd1942 O1977 2.468 . S
Gd1942 O1978 2.427 . S
Gd1942 O1980 2.388 . S
Gd1942 O1981 2.386 . S
Gd1942 O1985 2.307 . S
Gd1942 C1995 2.805 . S
Gd1943 N1938 2.622 . S
Gd1943 N1944 2.570 . S
Gd1943 O1975 2.386 . S
Gd1943 O1979 2.307 . S
Gd1943 O1982 2.353 . S
Gd1943 O1983 2.468 . S
Gd1943 O1984 2.427 . S
Gd1943 O1986 2.388 . S
Gd1943 C2007 2.805 . S
N1944 C1934 1.359 . S
N1944 Gd1943 2.570 . S
N1944 C1946 1.343 . S
C1945 C1933 1.422 . S
C1945 C1947 1.321 . S
C1945 H1953 0.931 . S
C1946 N1944 1.343 . S
C1946 C1947 1.390 . S
C1946 H1948 0.931 . S
C1947 C1945 1.321 . S
C1947 C1946 1.390 . S
C1947 H1949 0.930 . S
H1948 C1946 0.931 . S
H1949 C1947 0.930 . S
H1950 C1973 0.931 . S
H1951 C1939 0.929 . S
H1952 C1974 0.930 . S
H1953 C1945 0.931 . S
H1954 C1935 0.930 . S
H1955 C1964 0.929 . S
H1956 C1940 0.931 . S
H1957 C1941 0.930 . S
H1958 C1996 0.930 . S
H1959 C1937 0.929 . S
H1960 C1965 0.931 . S
H1961 C1966 0.930 . S
N1962 Gd1942 2.622 . S
N1962 C1963 1.369 . S
N1962 C1964 1.338 . S
C1963 N1962 1.369 . S
C1963 C1967 1.415 . S
C1963 C1970 1.422 . S
C1964 H1955 0.929 . S
C1964 N1962 1.338 . S
C1964 C1966 1.378 . S
C1965 H1960 0.931 . S
C1965 C1966 1.348 . S
C1965 C1967 1.413 . S
C1966 H1961 0.930 . S
C1966 C1964 1.378 . S
C1966 C1965 1.348 . S
C1967 C1963 1.415 . S
C1967 C1965 1.413 . S
C1967 C1997 1.437 . S
H1968 C1997 0.929 . S
N1969 Gd1942 2.570 . S
N1969 C1970 1.359 . S
N1969 C1973 1.343 . S
C1970 C1963 1.422 . S
C1970 N1969 1.359 . S
C1970 C1972 1.421 . S
C1971 C1972 1.422 . S
C1971 C1974 1.321 . S
C1971 H1998 0.931 . S
C1972 C1970 1.421 . S
C1972 C1971 1.422 . S
C1972 C1996 1.417 . S
C1973 H1950 0.931 . S
C1973 N1969 1.343 . S
C1973 C1974 1.390 . S
C1974 H1952 0.930 . S
C1974 C1971 1.321 . S
C1974 C1973 1.390 . S
O1975 Gd1943 2.386 . S
O1975 C1987 1.265 . S
O1976 Gd1942 2.353 . S
O1976 C1987 1.242 . S
O1977 Gd1942 2.468 . S
O1977 C1995 1.263 . S
O1978 Gd1942 2.427 . S
O1978 C1995 1.252 . S
O1979 Gd1943 2.307 . S
O1979 C1988 1.261 . S
O1980 Gd1942 2.388 . S
O1980 C1988 1.252 . S
O1981 Gd1942 2.386 . S
O1981 C1999 1.265 . S
O1982 Gd1943 2.353 . S
O1982 C1999 1.242 . S
O1983 Gd1943 2.468 . S
O1983 C2007 1.263 . S
O1984 Gd1943 2.427 . S
O1984 C2007 1.252 . S
O1985 Gd1942 2.307 . S
O1985 C2000 1.261 . S
O1986 Gd1943 2.388 . S
O1986 C2000 1.252 . S
C1987 O1975 1.265 . S
C1987 O1976 1.242 . S
C1988 O1979 1.261 . S
C1988 O1980 1.252 . S
C1989 C1992 1.394 . S
C1989 C1994 1.370 . S
C1989 C1995 1.500 . S
C1990 C1993 1.383 . S
C1990 C1994 1.395 . S
C1991 C1992 1.396 . S
C1991 C1993 1.365 . S
C1991 H2008 0.929 . S
C1992 C1989 1.394 . S
C1992 C1991 1.396 . S
C1992 H2009 0.930 . S
C1993 C1990 1.383 . S
C1993 C1991 1.365 . S
C1993 H2010 0.931 . S
C1994 C1989 1.370 . S
C1994 C1990 1.395 . S
C1994 H2011 0.930 . S
C1995 Gd1942 2.805 . S
C1995 O1977 1.263 . S
C1995 O1978 1.252 . S
C1995 C1989 1.500 . S
C1996 H1958 0.930 . S
C1996 C1972 1.417 . S
C1996 C1997 1.329 . S
C1997 C1967 1.437 . S
C1997 H1968 0.929 . S
C1997 C1996 1.329 . S
H1998 C1971 0.931 . S
C1999 O1981 1.265 . S
C1999 O1982 1.242 . S
C2000 O1985 1.261 . S
C2000 O1986 1.252 . S
C2001 C2004 1.394 . S
C2001 C2006 1.370 . S
C2001 C2007 1.500 . S
C2002 C2005 1.383 . S
C2002 C2006 1.395 . S
C2003 C2004 1.396 . S
C2003 C2005 1.365 . S
C2003 H2012 0.929 . S
C2004 C2001 1.394 . S
C2004 C2003 1.396 . S
C2004 H2013 0.930 . S
C2005 C2002 1.383 . S
C2005 C2003 1.365 . S
C2005 H2014 0.931 . S
C2006 C2001 1.370 . S
C2006 C2002 1.395 . S
C2006 H2015 0.930 . S
C2007 Gd1943 2.805 . S
C2007 O1983 1.263 . S
C2007 O1984 1.252 . S
C2007 C2001 1.500 . S
H2008 C1991 0.929 . S
H2009 C1992 0.930 . S
H2010 C1993 0.931 . S
H2011 C1994 0.930 . S
H2012 C2003 0.929 . S
H2013 C2004 0.930 . S
H2014 C2005 0.931 . S
H2015 C2006 0.930 . S
C2016 C2018 1.422 . S
C2016 C2020 1.415 . S
C2016 N2022 1.369 . S
C2017 C2018 1.421 . S
C2017 C2019 1.417 . S
C2017 C2029 1.422 . S
C2018 C2016 1.422 . S
C2018 C2017 1.421 . S
C2018 N2028 1.359 . S
C2019 C2017 1.417 . S
C2019 C2021 1.329 . S
C2019 H2038 0.930 . S
C2020 C2016 1.415 . S
C2020 C2021 1.437 . S
C2020 C2024 1.413 . S
C2021 C2019 1.329 . S
C2021 C2020 1.437 . S
C2021 H2043 0.929 . S
N2022 C2016 1.369 . S
N2022 C2023 1.338 . S
N2022 Gd2027 2.622 . S
C2023 N2022 1.338 . S
C2023 C2025 1.378 . S
C2023 H2035 0.929 . S
C2024 C2020 1.413 . S
C2024 C2025 1.348 . S
C2024 H2040 0.931 . S
C2025 C2023 1.378 . S
C2025 C2024 1.348 . S
C2025 H2041 0.930 . S
Gd2026 N2046 2.622 . S
Gd2026 N2053 2.570 . S
Gd2026 O2060 2.353 . S
Gd2026 O2061 2.468 . S
Gd2026 O2062 2.427 . S
Gd2026 O2064 2.388 . S
Gd2026 O2065 2.386 . S
Gd2026 O2069 2.307 . S
Gd2026 C2079 2.805 . S
Gd2027 N2022 2.622 . S
Gd2027 N2028 2.570 . S
Gd2027 O2059 2.386 . S
Gd2027 O2063 2.307 . S
Gd2027 O2066 2.353 . S
Gd2027 O2067 2.468 . S
Gd2027 O2068 2.427 . S
Gd2027 O2070 2.388 . S
Gd2027 C2091 2.805 . S
N2028 C2018 1.359 . S
N2028 Gd2027 2.570 . S
N2028 C2030 1.343 . S
C2029 C2017 1.422 . S
C2029 C2031 1.321 . S
C2029 H2037 0.931 . S
C2030 N2028 1.343 . S
C2030 C2031 1.390 . S
C2030 H2032 0.931 . S
C2031 C2029 1.321 . S
C2031 C2030 1.390 . S
C2031 H2033 0.930 . S
H2032 C2030 0.931 . S
H2033 C2031 0.930 . S
H2034 C2057 0.931 . S
H2035 C2023 0.929 . S
H2036 C2058 0.930 . S
H2037 C2029 0.931 . S
H2038 C2019 0.930 . S
H2039 C2048 0.929 . S
H2040 C2024 0.931 . S
H2041 C2025 0.930 . S
H2042 C2080 0.930 . S
H2043 C2021 0.929 . S
H2044 C2049 0.931 . S
H2045 C2050 0.930 . S
N2046 Gd2026 2.622 . S
N2046 C2047 1.369 . S
N2046 C2048 1.338 . S
C2047 N2046 1.369 . S
C2047 C2051 1.415 . S
C2047 C2054 1.422 . S
C2048 H2039 0.929 . S
C2048 N2046 1.338 . S
C2048 C2050 1.378 . S
C2049 H2044 0.931 . S
C2049 C2050 1.348 . S
C2049 C2051 1.413 . S
C2050 H2045 0.930 . S
C2050 C2048 1.378 . S
C2050 C2049 1.348 . S
C2051 C2047 1.415 . S
C2051 C2049 1.413 . S
C2051 C2081 1.437 . S
H2052 C2081 0.929 . S
N2053 Gd2026 2.570 . S
N2053 C2054 1.359 . S
N2053 C2057 1.343 . S
C2054 C2047 1.422 . S
C2054 N2053 1.359 . S
C2054 C2056 1.421 . S
C2055 C2056 1.422 . S
C2055 C2058 1.321 . S
C2055 H2082 0.931 . S
C2056 C2054 1.421 . S
C2056 C2055 1.422 . S
C2056 C2080 1.417 . S
C2057 H2034 0.931 . S
C2057 N2053 1.343 . S
C2057 C2058 1.390 . S
C2058 H2036 0.930 . S
C2058 C2055 1.321 . S
C2058 C2057 1.390 . S
O2059 Gd2027 2.386 . S
O2059 C2071 1.265 . S
O2060 Gd2026 2.353 . S
O2060 C2071 1.242 . S
O2061 Gd2026 2.468 . S
O2061 C2079 1.263 . S
O2062 Gd2026 2.427 . S
O2062 C2079 1.252 . S
O2063 Gd2027 2.307 . S
O2063 C2072 1.261 . S
O2064 Gd2026 2.388 . S
O2064 C2072 1.252 . S
O2065 Gd2026 2.386 . S
O2065 C2083 1.265 . S
O2066 Gd2027 2.353 . S
O2066 C2083 1.242 . S
O2067 Gd2027 2.468 . S
O2067 C2091 1.263 . S
O2068 Gd2027 2.427 . S
O2068 C2091 1.252 . S
O2069 Gd2026 2.307 . S
O2069 C2084 1.261 . S
O2070 Gd2027 2.388 . S
O2070 C2084 1.252 . S
C2071 O2059 1.265 . S
C2071 O2060 1.242 . S
C2072 O2063 1.261 . S
C2072 O2064 1.252 . S
C2073 C2076 1.394 . S
C2073 C2078 1.370 . S
C2073 C2079 1.500 . S
C2074 C2077 1.383 . S
C2074 C2078 1.395 . S
C2075 C2076 1.396 . S
C2075 C2077 1.365 . S
C2075 H2092 0.929 . S
C2076 C2073 1.394 . S
C2076 C2075 1.396 . S
C2076 H2093 0.930 . S
C2077 C2074 1.383 . S
C2077 C2075 1.365 . S
C2077 H2094 0.931 . S
C2078 C2073 1.370 . S
C2078 C2074 1.395 . S
C2078 H2095 0.930 . S
C2079 Gd2026 2.805 . S
C2079 O2061 1.263 . S
C2079 O2062 1.252 . S
C2079 C2073 1.500 . S
C2080 H2042 0.930 . S
C2080 C2056 1.417 . S
C2080 C2081 1.329 . S
C2081 C2051 1.437 . S
C2081 H2052 0.929 . S
C2081 C2080 1.329 . S
H2082 C2055 0.931 . S
C2083 O2065 1.265 . S
C2083 O2066 1.242 . S
C2084 O2069 1.261 . S
C2084 O2070 1.252 . S
C2085 C2088 1.394 . S
C2085 C2090 1.370 . S
C2085 C2091 1.500 . S
C2086 C2089 1.383 . S
C2086 C2090 1.395 . S
C2087 C2088 1.396 . S
C2087 C2089 1.365 . S
C2087 H2096 0.929 . S
C2088 C2085 1.394 . S
C2088 C2087 1.396 . S
C2088 H2097 0.930 . S
C2089 C2086 1.383 . S
C2089 C2087 1.365 . S
C2089 H2098 0.931 . S
C2090 C2085 1.370 . S
C2090 C2086 1.395 . S
C2090 H2099 0.930 . S
C2091 Gd2027 2.805 . S
C2091 O2067 1.263 . S
C2091 O2068 1.252 . S
C2091 C2085 1.500 . S
H2092 C2075 0.929 . S
H2093 C2076 0.930 . S
H2094 C2077 0.931 . S
H2095 C2078 0.930 . S
H2096 C2087 0.929 . S
H2097 C2088 0.930 . S
H2098 C2089 0.931 . S
H2099 C2090 0.930 . S
C2100 C2102 1.422 . S
C2100 C2104 1.415 . S
C2100 N2106 1.369 . S
C2101 C2102 1.421 . S
C2101 C2103 1.417 . S
C2101 C2113 1.422 . S
C2102 C2100 1.422 . S
C2102 C2101 1.421 . S
C2102 N2112 1.359 . S
C2103 C2101 1.417 . S
C2103 C2105 1.329 . S
C2103 H2122 0.930 . S
C2104 C2100 1.415 . S
C2104 C2105 1.437 . S
C2104 C2108 1.413 . S
C2105 C2103 1.329 . S
C2105 C2104 1.437 . S
C2105 H2127 0.929 . S
N2106 C2100 1.369 . S
N2106 C2107 1.338 . S
N2106 Gd2111 2.622 . S
C2107 N2106 1.338 . S
C2107 C2109 1.378 . S
C2107 H2119 0.929 . S
C2108 C2104 1.413 . S
C2108 C2109 1.348 . S
C2108 H2124 0.931 . S
C2109 C2107 1.378 . S
C2109 C2108 1.348 . S
C2109 H2125 0.930 . S
Gd2110 N2130 2.622 . S
Gd2110 N2137 2.570 . S
Gd2110 O2144 2.353 . S
Gd2110 O2145 2.468 . S
Gd2110 O2146 2.427 . S
Gd2110 O2148 2.388 . S
Gd2110 O2149 2.386 . S
Gd2110 O2153 2.307 . S
Gd2110 C2163 2.805 . S
Gd2111 N2106 2.622 . S
Gd2111 N2112 2.570 . S
Gd2111 O2143 2.386 . S
Gd2111 O2147 2.307 . S
Gd2111 O2150 2.353 . S
Gd2111 O2151 2.468 . S
Gd2111 O2152 2.427 . S
Gd2111 O2154 2.388 . S
Gd2111 C2175 2.805 . S
N2112 C2102 1.359 . S
N2112 Gd2111 2.570 . S
N2112 C2114 1.343 . S
C2113 C2101 1.422 . S
C2113 C2115 1.321 . S
C2113 H2121 0.931 . S
C2114 N2112 1.343 . S
C2114 C2115 1.390 . S
C2114 H2116 0.931 . S
C2115 C2113 1.321 . S
C2115 C2114 1.390 . S
C2115 H2117 0.930 . S
H2116 C2114 0.931 . S
H2117 C2115 0.930 . S
H2118 C2141 0.931 . S
H2119 C2107 0.929 . S
H2120 C2142 0.930 . S
H2121 C2113 0.931 . S
H2122 C2103 0.930 . S
H2123 C2132 0.929 . S
H2124 C2108 0.931 . S
H2125 C2109 0.930 . S
H2126 C2164 0.930 . S
H2127 C2105 0.929 . S
H2128 C2133 0.931 . S
H2129 C2134 0.930 . S
N2130 Gd2110 2.622 . S
N2130 C2131 1.369 . S
N2130 C2132 1.338 . S
C2131 N2130 1.369 . S
C2131 C2135 1.415 . S
C2131 C2138 1.422 . S
C2132 H2123 0.929 . S
C2132 N2130 1.338 . S
C2132 C2134 1.378 . S
C2133 H2128 0.931 . S
C2133 C2134 1.348 . S
C2133 C2135 1.413 . S
C2134 H2129 0.930 . S
C2134 C2132 1.378 . S
C2134 C2133 1.348 . S
C2135 C2131 1.415 . S
C2135 C2133 1.413 . S
C2135 C2165 1.437 . S
H2136 C2165 0.929 . S
N2137 Gd2110 2.570 . S
N2137 C2138 1.359 . S
N2137 C2141 1.343 . S
C2138 C2131 1.422 . S
C2138 N2137 1.359 . S
C2138 C2140 1.421 . S
C2139 C2140 1.422 . S
C2139 C2142 1.321 . S
C2139 H2166 0.931 . S
C2140 C2138 1.421 . S
C2140 C2139 1.422 . S
C2140 C2164 1.417 . S
C2141 H2118 0.931 . S
C2141 N2137 1.343 . S
C2141 C2142 1.390 . S
C2142 H2120 0.930 . S
C2142 C2139 1.321 . S
C2142 C2141 1.390 . S
O2143 Gd2111 2.386 . S
O2143 C2155 1.265 . S
O2144 Gd2110 2.353 . S
O2144 C2155 1.242 . S
O2145 Gd2110 2.468 . S
O2145 C2163 1.263 . S
O2146 Gd2110 2.427 . S
O2146 C2163 1.252 . S
O2147 Gd2111 2.307 . S
O2147 C2156 1.261 . S
O2148 Gd2110 2.388 . S
O2148 C2156 1.252 . S
O2149 Gd2110 2.386 . S
O2149 C2167 1.265 . S
O2150 Gd2111 2.353 . S
O2150 C2167 1.242 . S
O2151 Gd2111 2.468 . S
O2151 C2175 1.263 . S
O2152 Gd2111 2.427 . S
O2152 C2175 1.252 . S
O2153 Gd2110 2.307 . S
O2153 C2168 1.261 . S
O2154 Gd2111 2.388 . S
O2154 C2168 1.252 . S
C2155 O2143 1.265 . S
C2155 O2144 1.242 . S
C2156 O2147 1.261 . S
C2156 O2148 1.252 . S
C2157 C2160 1.394 . S
C2157 C2162 1.370 . S
C2157 C2163 1.500 . S
C2158 C2161 1.383 . S
C2158 C2162 1.395 . S
C2159 C2160 1.396 . S
C2159 C2161 1.365 . S
C2159 H2176 0.929 . S
C2160 C2157 1.394 . S
C2160 C2159 1.396 . S
C2160 H2177 0.930 . S
C2161 C2158 1.383 . S
C2161 C2159 1.365 . S
C2161 H2178 0.931 . S
C2162 C2157 1.370 . S
C2162 C2158 1.395 . S
C2162 H2179 0.930 . S
C2163 Gd2110 2.805 . S
C2163 O2145 1.263 . S
C2163 O2146 1.252 . S
C2163 C2157 1.500 . S
C2164 H2126 0.930 . S
C2164 C2140 1.417 . S
C2164 C2165 1.329 . S
C2165 C2135 1.437 . S
C2165 H2136 0.929 . S
C2165 C2164 1.329 . S
H2166 C2139 0.931 . S
C2167 O2149 1.265 . S
C2167 O2150 1.242 . S
C2168 O2153 1.261 . S
C2168 O2154 1.252 . S
C2169 C2172 1.394 . S
C2169 C2174 1.370 . S
C2169 C2175 1.500 . S
C2170 C2173 1.375 1_556 S
C2170 C2174 1.395 . S
C2171 C2172 1.393 . S
C2171 C2173 1.365 1_556 S
C2171 H2180 0.931 1_556 S
C2172 C2169 1.394 . S
C2172 C2171 1.393 . S
C2172 H2181 0.930 . S
C2173 C2170 1.375 1_554 S
C2173 C2171 1.365 1_554 S
C2173 H2182 0.939 . S
C2174 C2169 1.370 . S
C2174 C2170 1.395 . S
C2174 H2183 0.930 . S
C2175 Gd2111 2.805 . S
C2175 O2151 1.263 . S
C2175 O2152 1.252 . S
C2175 C2169 1.500 . S
H2176 C2159 0.929 . S
H2177 C2160 0.930 . S
H2178 C2161 0.931 . S
H2179 C2162 0.930 . S
H2180 C2171 0.931 1_554 S
H2181 C2172 0.930 . S
H2182 C2173 0.939 . S
H2183 C2174 0.930 . S
C2184 C2186 1.422 . S
C2184 C2188 1.415 . S
C2184 N2190 1.369 . S
C2185 C2186 1.421 . S
C2185 C2187 1.417 . S
C2185 C2197 1.422 . S
C2186 C2184 1.422 . S
C2186 C2185 1.421 . S
C2186 N2196 1.359 . S
C2187 C2185 1.417 . S
C2187 C2189 1.329 . S
C2187 H2206 0.930 . S
C2188 C2184 1.415 . S
C2188 C2189 1.437 . S
C2188 C2192 1.413 . S
C2189 C2187 1.329 . S
C2189 C2188 1.437 . S
C2189 H2211 0.929 . S
N2190 C2184 1.369 . S
N2190 C2191 1.338 . S
N2190 Gd2195 2.622 . S
C2191 N2190 1.338 . S
C2191 C2193 1.378 . S
C2191 H2203 0.929 . S
C2192 C2188 1.413 . S
C2192 C2193 1.348 . S
C2192 H2208 0.931 . S
C2193 C2191 1.378 . S
C2193 C2192 1.348 . S
C2193 H2209 0.930 . S
Gd2194 N2214 2.622 . S
Gd2194 N2221 2.570 . S
Gd2194 O2228 2.353 . S
Gd2194 O2229 2.468 . S
Gd2194 O2230 2.427 . S
Gd2194 O2232 2.388 . S
Gd2194 O2233 2.386 . S
Gd2194 O2237 2.307 . S
Gd2194 C2247 2.805 . S
Gd2195 N2190 2.622 . S
Gd2195 N2196 2.570 . S
Gd2195 O2227 2.386 . S
Gd2195 O2231 2.307 . S
Gd2195 O2234 2.353 . S
Gd2195 O2235 2.468 . S
Gd2195 O2236 2.427 . S
Gd2195 O2238 2.388 . S
Gd2195 C2259 2.805 . S
N2196 C2186 1.359 . S
N2196 Gd2195 2.570 . S
N2196 C2198 1.343 . S
C2197 C2185 1.422 . S
C2197 C2199 1.321 . S
C2197 H2205 0.931 . S
C2198 N2196 1.343 . S
C2198 C2199 1.390 . S
C2198 H2200 0.931 . S
C2199 C2197 1.321 . S
C2199 C2198 1.390 . S
C2199 H2201 0.930 . S
H2200 C2198 0.931 . S
H2201 C2199 0.930 . S
H2202 C2225 0.931 . S
H2203 C2191 0.929 . S
H2204 C2226 0.930 . S
H2205 C2197 0.931 . S
H2206 C2187 0.930 . S
H2207 C2216 0.929 . S
H2208 C2192 0.931 . S
H2209 C2193 0.930 . S
H2210 C2248 0.930 . S
H2211 C2189 0.929 . S
H2212 C2217 0.931 . S
H2213 C2218 0.930 . S
N2214 Gd2194 2.622 . S
N2214 C2215 1.369 . S
N2214 C2216 1.338 . S
C2215 N2214 1.369 . S
C2215 C2219 1.415 . S
C2215 C2222 1.422 . S
C2216 H2207 0.929 . S
C2216 N2214 1.338 . S
C2216 C2218 1.378 . S
C2217 H2212 0.931 . S
C2217 C2218 1.348 . S
C2217 C2219 1.413 . S
C2218 H2213 0.930 . S
C2218 C2216 1.378 . S
C2218 C2217 1.348 . S
C2219 C2215 1.415 . S
C2219 C2217 1.413 . S
C2219 C2249 1.437 . S
H2220 C2249 0.929 . S
N2221 Gd2194 2.570 . S
N2221 C2222 1.359 . S
N2221 C2225 1.343 . S
C2222 C2215 1.422 . S
C2222 N2221 1.359 . S
C2222 C2224 1.421 . S
C2223 C2224 1.422 . S
C2223 C2226 1.321 . S
C2223 H2250 0.931 . S
C2224 C2222 1.421 . S
C2224 C2223 1.422 . S
C2224 C2248 1.417 . S
C2225 H2202 0.931 . S
C2225 N2221 1.343 . S
C2225 C2226 1.390 . S
C2226 H2204 0.930 . S
C2226 C2223 1.321 . S
C2226 C2225 1.390 . S
O2227 Gd2195 2.386 . S
O2227 C2239 1.265 . S
O2228 Gd2194 2.353 . S
O2228 C2239 1.242 . S
O2229 Gd2194 2.468 . S
O2229 C2247 1.263 . S
O2230 Gd2194 2.427 . S
O2230 C2247 1.252 . S
O2231 Gd2195 2.307 . S
O2231 C2240 1.261 . S
O2232 Gd2194 2.388 . S
O2232 C2240 1.252 . S
O2233 Gd2194 2.386 . S
O2233 C2251 1.265 . S
O2234 Gd2195 2.353 . S
O2234 C2251 1.242 . S
O2235 Gd2195 2.468 . S
O2235 C2259 1.263 . S
O2236 Gd2195 2.427 . S
O2236 C2259 1.252 . S
O2237 Gd2194 2.307 . S
O2237 C2252 1.261 . S
O2238 Gd2195 2.388 . S
O2238 C2252 1.252 . S
C2239 O2227 1.265 . S
C2239 O2228 1.242 . S
C2240 O2231 1.261 . S
C2240 O2232 1.252 . S
C2241 C2244 1.394 . S
C2241 C2246 1.370 . S
C2241 C2247 1.500 . S
C2242 C2245 1.383 . S
C2242 C2246 1.395 . S
C2243 C2244 1.396 . S
C2243 C2245 1.365 . S
C2243 H2260 0.929 . S
C2244 C2241 1.394 . S
C2244 C2243 1.396 . S
C2244 H2261 0.930 . S
C2245 C2242 1.383 . S
C2245 C2243 1.365 . S
C2245 H2262 0.931 . S
C2246 C2241 1.370 . S
C2246 C2242 1.395 . S
C2246 H2263 0.930 . S
C2247 Gd2194 2.805 . S
C2247 O2229 1.263 . S
C2247 O2230 1.252 . S
C2247 C2241 1.500 . S
C2248 H2210 0.930 . S
C2248 C2224 1.417 . S
C2248 C2249 1.329 . S
C2249 C2219 1.437 . S
C2249 H2220 0.929 . S
C2249 C2248 1.329 . S
H2250 C2223 0.931 . S
C2251 O2233 1.265 . S
C2251 O2234 1.242 . S
C2252 O2237 1.261 . S
C2252 O2238 1.252 . S
C2253 C2256 1.394 . S
C2253 C2258 1.370 . S
C2253 C2259 1.500 . S
C2254 C2257 1.383 . S
C2254 C2258 1.395 . S
C2255 C2256 1.396 . S
C2255 C2257 1.365 . S
C2255 H2264 0.929 . S
C2256 C2253 1.394 . S
C2256 C2255 1.396 . S
C2256 H2265 0.930 . S
C2257 C2254 1.383 . S
C2257 C2255 1.365 . S
C2257 H2266 0.931 . S
C2258 C2253 1.370 . S
C2258 C2254 1.395 . S
C2258 H2267 0.930 . S
C2259 Gd2195 2.805 . S
C2259 O2235 1.263 . S
C2259 O2236 1.252 . S
C2259 C2253 1.500 . S
H2260 C2243 0.929 . S
H2261 C2244 0.930 . S
H2262 C2245 0.931 . S
H2263 C2246 0.930 . S
H2264 C2255 0.929 . S
H2265 C2256 0.930 . S
H2266 C2257 0.931 . S
H2267 C2258 0.930 . S
C2268 C2270 1.422 . S
C2268 C2272 1.415 . S
C2268 N2274 1.369 . S
C2269 C2270 1.421 . S
C2269 C2271 1.417 . S
C2269 C2281 1.422 . S
C2270 C2268 1.422 . S
C2270 C2269 1.421 . S
C2270 N2280 1.359 . S
C2271 C2269 1.417 . S
C2271 C2273 1.329 . S
C2271 H2290 0.930 . S
C2272 C2268 1.415 . S
C2272 C2273 1.437 . S
C2272 C2276 1.413 . S
C2273 C2271 1.329 . S
C2273 C2272 1.437 . S
C2273 H2295 0.929 . S
N2274 C2268 1.369 . S
N2274 C2275 1.338 . S
N2274 Gd2279 2.622 . S
C2275 N2274 1.338 . S
C2275 C2277 1.378 . S
C2275 H2287 0.929 . S
C2276 C2272 1.413 . S
C2276 C2277 1.348 . S
C2276 H2292 0.931 . S
C2277 C2275 1.378 . S
C2277 C2276 1.348 . S
C2277 H2293 0.930 . S
Gd2278 N2298 2.622 . S
Gd2278 N2305 2.570 . S
Gd2278 O2312 2.353 1_655 S
Gd2278 O2313 2.468 . S
Gd2278 O2314 2.427 . S
Gd2278 O2316 2.388 1_655 S
Gd2278 O2317 2.386 1_655 S
Gd2278 O2321 2.307 . S
Gd2278 C2331 2.805 . S
Gd2279 N2274 2.622 . S
Gd2279 N2280 2.570 . S
Gd2279 O2311 2.386 . S
Gd2279 O2315 2.307 . S
Gd2279 O2318 2.353 . S
Gd2279 O2319 2.468 . S
Gd2279 O2320 2.427 . S
Gd2279 O2322 2.388 . S
Gd2279 C2343 2.805 . S
N2280 C2270 1.359 . S
N2280 Gd2279 2.570 . S
N2280 C2282 1.343 . S
C2281 C2269 1.422 . S
C2281 C2283 1.321 . S
C2281 H2289 0.931 . S
C2282 N2280 1.343 . S
C2282 C2283 1.390 . S
C2282 H2284 0.931 . S
C2283 C2281 1.321 . S
C2283 C2282 1.390 . S
C2283 H2285 0.930 . S
H2284 C2282 0.931 . S
H2285 C2283 0.930 . S
H2286 C2309 0.931 . S
H2287 C2275 0.929 . S
H2288 C2310 0.930 . S
H2289 C2281 0.931 . S
H2290 C2271 0.930 . S
H2291 C2300 0.929 1_455 S
H2292 C2276 0.931 . S
H2293 C2277 0.930 . S
H2294 C2332 0.930 . S
H2295 C2273 0.929 . S
H2296 C2301 0.931 . S
H2297 C2302 0.930 . S
N2298 Gd2278 2.622 . S
N2298 C2299 1.369 . S
N2298 C2300 1.338 . S
C2299 N2298 1.369 . S
C2299 C2303 1.415 . S
C2299 C2306 1.422 . S
C2300 H2291 0.929 1_655 S
C2300 N2298 1.338 . S
C2300 C2302 1.378 . S
C2301 H2296 0.931 . S
C2301 C2302 1.348 . S
C2301 C2303 1.413 . S
C2302 H2297 0.930 . S
C2302 C2300 1.378 . S
C2302 C2301 1.348 . S
C2303 C2299 1.415 . S
C2303 C2301 1.413 . S
C2303 C2333 1.437 . S
H2304 C2333 0.929 . S
N2305 Gd2278 2.570 . S
N2305 C2306 1.359 . S
N2305 C2309 1.343 . S
C2306 C2299 1.422 . S
C2306 N2305 1.359 . S
C2306 C2308 1.421 . S
C2307 C2308 1.422 . S
C2307 C2310 1.321 . S
C2307 H2334 0.931 . S
C2308 C2306 1.421 . S
C2308 C2307 1.422 . S
C2308 C2332 1.417 . S
C2309 H2286 0.931 . S
C2309 N2305 1.343 . S
C2309 C2310 1.390 . S
C2310 H2288 0.930 . S
C2310 C2307 1.321 . S
C2310 C2309 1.390 . S
O2311 Gd2279 2.386 . S
O2311 C2323 1.265 . S
O2312 Gd2278 2.353 1_455 S
O2312 C2323 1.242 . S
O2313 Gd2278 2.468 . S
O2313 C2331 1.263 . S
O2314 Gd2278 2.427 . S
O2314 C2331 1.252 . S
O2315 Gd2279 2.307 . S
O2315 C2324 1.261 . S
O2316 Gd2278 2.388 1_455 S
O2316 C2324 1.252 . S
O2317 Gd2278 2.386 1_455 S
O2317 C2335 1.265 . S
O2318 Gd2279 2.353 . S
O2318 C2335 1.242 . S
O2319 Gd2279 2.468 . S
O2319 C2343 1.263 . S
O2320 Gd2279 2.427 . S
O2320 C2343 1.252 . S
O2321 Gd2278 2.307 . S
O2321 C2336 1.261 1_655 S
O2322 Gd2279 2.388 . S
O2322 C2336 1.252 . S
C2323 O2311 1.265 . S
C2323 O2312 1.242 . S
C2324 O2315 1.261 . S
C2324 O2316 1.252 . S
C2325 C2328 1.394 . S
C2325 C2330 1.370 . S
C2325 C2331 1.500 . S
C2326 C2329 1.383 . S
C2326 C2330 1.395 . S
C2327 C2328 1.396 . S
C2327 C2329 1.365 . S
C2327 H2344 0.929 . S
C2328 C2325 1.394 . S
C2328 C2327 1.396 . S
C2328 H2345 0.930 . S
C2329 C2326 1.383 . S
C2329 C2327 1.365 . S
C2329 H2346 0.931 . S
C2330 C2325 1.370 . S
C2330 C2326 1.395 . S
C2330 H2347 0.930 . S
C2331 Gd2278 2.805 . S
C2331 O2313 1.263 . S
C2331 O2314 1.252 . S
C2331 C2325 1.500 . S
C2332 H2294 0.930 . S
C2332 C2308 1.417 . S
C2332 C2333 1.329 . S
C2333 C2303 1.437 . S
C2333 H2304 0.929 . S
C2333 C2332 1.329 . S
H2334 C2307 0.931 . S
C2335 O2317 1.265 . S
C2335 O2318 1.242 . S
C2336 O2321 1.261 1_455 S
C2336 O2322 1.252 . S
C2337 C2340 1.394 . S
C2337 C2342 1.370 . S
C2337 C2343 1.500 . S
C2338 C2341 1.383 . S
C2338 C2342 1.395 . S
C2339 C2340 1.396 . S
C2339 C2341 1.365 . S
C2339 H2348 0.929 . S
C2340 C2337 1.394 . S
C2340 C2339 1.396 . S
C2340 H2349 0.930 . S
C2341 C2338 1.383 . S
C2341 C2339 1.365 . S
C2341 H2350 0.931 . S
C2342 C2337 1.370 . S
C2342 C2338 1.395 . S
C2342 H2351 0.930 . S
C2343 Gd2279 2.805 . S
C2343 O2319 1.263 . S
C2343 O2320 1.252 . S
C2343 C2337 1.500 . S
H2344 C2327 0.929 . S
H2345 C2328 0.930 . S
H2346 C2329 0.931 . S
H2347 C2330 0.930 . S
H2348 C2339 0.929 . S
H2349 C2340 0.930 . S
H2350 C2341 0.931 . S
H2351 C2342 0.930 . S
C2352 C2354 1.422 . S
C2352 C2356 1.415 . S
C2352 N2358 1.369 . S
C2353 C2354 1.421 . S
C2353 C2355 1.417 . S
C2353 C2365 1.422 . S
C2354 C2352 1.422 . S
C2354 C2353 1.421 . S
C2354 N2364 1.359 . S
C2355 C2353 1.417 . S
C2355 C2357 1.329 . S
C2355 H2374 0.930 . S
C2356 C2352 1.415 . S
C2356 C2357 1.437 . S
C2356 C2360 1.413 . S
C2357 C2355 1.329 . S
C2357 C2356 1.437 . S
C2357 H2379 0.929 . S
N2358 C2352 1.369 . S
N2358 C2359 1.338 . S
N2358 Gd2363 2.622 . S
C2359 N2358 1.338 . S
C2359 C2361 1.378 . S
C2359 H2371 0.929 . S
C2360 C2356 1.413 . S
C2360 C2361 1.348 . S
C2360 H2376 0.931 . S
C2361 C2359 1.378 . S
C2361 C2360 1.348 . S
C2361 H2377 0.930 . S
Gd2362 N2382 2.622 . S
Gd2362 N2389 2.570 . S
Gd2362 O2396 2.353 . S
Gd2362 O2397 2.468 . S
Gd2362 O2398 2.427 . S
Gd2362 O2400 2.388 . S
Gd2362 O2401 2.386 . S
Gd2362 O2405 2.307 . S
Gd2362 C2415 2.805 . S
Gd2363 N2358 2.622 . S
Gd2363 N2364 2.570 . S
Gd2363 O2395 2.386 . S
Gd2363 O2399 2.307 . S
Gd2363 O2402 2.353 . S
Gd2363 O2403 2.468 . S
Gd2363 O2404 2.427 . S
Gd2363 O2406 2.388 . S
Gd2363 C2427 2.805 . S
N2364 C2354 1.359 . S
N2364 Gd2363 2.570 . S
N2364 C2366 1.343 . S
C2365 C2353 1.422 . S
C2365 C2367 1.321 . S
C2365 H2373 0.931 . S
C2366 N2364 1.343 . S
C2366 C2367 1.390 . S
C2366 H2368 0.931 . S
C2367 C2365 1.321 . S
C2367 C2366 1.390 . S
C2367 H2369 0.930 . S
H2368 C2366 0.931 . S
H2369 C2367 0.930 . S
H2370 C2393 0.931 . S
H2371 C2359 0.929 . S
H2372 C2394 0.930 . S
H2373 C2365 0.931 . S
H2374 C2355 0.930 . S
H2375 C2384 0.929 . S
H2376 C2360 0.931 . S
H2377 C2361 0.930 . S
H2378 C2416 0.930 . S
H2379 C2357 0.929 . S
H2380 C2385 0.931 . S
H2381 C2386 0.930 . S
N2382 Gd2362 2.622 . S
N2382 C2383 1.369 . S
N2382 C2384 1.338 . S
C2383 N2382 1.369 . S
C2383 C2387 1.415 . S
C2383 C2390 1.422 . S
C2384 H2375 0.929 . S
C2384 N2382 1.338 . S
C2384 C2386 1.378 . S
C2385 H2380 0.931 . S
C2385 C2386 1.348 . S
C2385 C2387 1.413 . S
C2386 H2381 0.930 . S
C2386 C2384 1.378 . S
C2386 C2385 1.348 . S
C2387 C2383 1.415 . S
C2387 C2385 1.413 . S
C2387 C2417 1.437 . S
H2388 C2417 0.929 . S
N2389 Gd2362 2.570 . S
N2389 C2390 1.359 . S
N2389 C2393 1.343 . S
C2390 C2383 1.422 . S
C2390 N2389 1.359 . S
C2390 C2392 1.421 . S
C2391 C2392 1.422 . S
C2391 C2394 1.321 . S
C2391 H2418 0.931 . S
C2392 C2390 1.421 . S
C2392 C2391 1.422 . S
C2392 C2416 1.417 . S
C2393 H2370 0.931 . S
C2393 N2389 1.343 . S
C2393 C2394 1.390 . S
C2394 H2372 0.930 . S
C2394 C2391 1.321 . S
C2394 C2393 1.390 . S
O2395 Gd2363 2.386 . S
O2395 C2407 1.265 . S
O2396 Gd2362 2.353 . S
O2396 C2407 1.242 . S
O2397 Gd2362 2.468 . S
O2397 C2415 1.263 . S
O2398 Gd2362 2.427 . S
O2398 C2415 1.252 . S
O2399 Gd2363 2.307 . S
O2399 C2408 1.261 . S
O2400 Gd2362 2.388 . S
O2400 C2408 1.252 . S
O2401 Gd2362 2.386 . S
O2401 C2419 1.265 . S
O2402 Gd2363 2.353 . S
O2402 C2419 1.242 . S
O2403 Gd2363 2.468 . S
O2403 C2427 1.263 . S
O2404 Gd2363 2.427 . S
O2404 C2427 1.252 . S
O2405 Gd2362 2.307 . S
O2405 C2420 1.261 . S
O2406 Gd2363 2.388 . S
O2406 C2420 1.252 . S
C2407 O2395 1.265 . S
C2407 O2396 1.242 . S
C2408 O2399 1.261 . S
C2408 O2400 1.252 . S
C2409 C2412 1.394 . S
C2409 C2414 1.370 . S
C2409 C2415 1.500 . S
C2410 C2413 1.383 . S
C2410 C2414 1.395 . S
C2411 C2412 1.396 . S
C2411 C2413 1.365 . S
C2411 H2428 0.929 . S
C2412 C2409 1.394 . S
C2412 C2411 1.396 . S
C2412 H2429 0.930 . S
C2413 C2410 1.383 . S
C2413 C2411 1.365 . S
C2413 H2430 0.931 . S
C2414 C2409 1.370 . S
C2414 C2410 1.395 . S
C2414 H2431 0.930 . S
C2415 Gd2362 2.805 . S
C2415 O2397 1.263 . S
C2415 O2398 1.252 . S
C2415 C2409 1.500 . S
C2416 H2378 0.930 . S
C2416 C2392 1.417 . S
C2416 C2417 1.329 . S
C2417 C2387 1.437 . S
C2417 H2388 0.929 . S
C2417 C2416 1.329 . S
H2418 C2391 0.931 . S
C2419 O2401 1.265 . S
C2419 O2402 1.242 . S
C2420 O2405 1.261 . S
C2420 O2406 1.252 . S
C2421 C2424 1.394 . S
C2421 C2426 1.370 . S
C2421 C2427 1.500 . S
C2422 C2425 1.383 . S
C2422 C2426 1.395 . S
C2423 C2424 1.396 . S
C2423 C2425 1.365 . S
C2423 H2432 0.929 . S
C2424 C2421 1.394 . S
C2424 C2423 1.396 . S
C2424 H2433 0.930 . S
C2425 C2422 1.383 . S
C2425 C2423 1.365 . S
C2425 H2434 0.931 . S
C2426 C2421 1.370 . S
C2426 C2422 1.395 . S
C2426 H2435 0.930 . S
C2427 Gd2363 2.805 . S
C2427 O2403 1.263 . S
C2427 O2404 1.252 . S
C2427 C2421 1.500 . S
H2428 C2411 0.929 . S
H2429 C2412 0.930 . S
H2430 C2413 0.931 . S
H2431 C2414 0.930 . S
H2432 C2423 0.929 . S
H2433 C2424 0.930 . S
H2434 C2425 0.931 . S
H2435 C2426 0.930 . S
C2436 C2438 1.422 . S
C2436 C2440 1.415 . S
C2436 N2442 1.369 . S
C2437 C2438 1.421 . S
C2437 C2439 1.417 . S
C2437 C2449 1.422 . S
C2438 C2436 1.422 . S
C2438 C2437 1.421 . S
C2438 N2448 1.359 . S
C2439 C2437 1.417 . S
C2439 C2441 1.329 . S
C2439 H2458 0.930 . S
C2440 C2436 1.415 . S
C2440 C2441 1.437 . S
C2440 C2444 1.413 . S
C2441 C2439 1.329 . S
C2441 C2440 1.437 . S
C2441 H2463 0.929 . S
N2442 C2436 1.369 . S
N2442 C2443 1.338 . S
N2442 Gd2447 2.622 . S
C2443 N2442 1.338 . S
C2443 C2445 1.378 . S
C2443 H2455 0.929 . S
C2444 C2440 1.413 . S
C2444 C2445 1.348 . S
C2444 H2460 0.931 . S
C2445 C2443 1.378 . S
C2445 C2444 1.348 . S
C2445 H2461 0.930 . S
Gd2446 N2466 2.622 . S
Gd2446 N2473 2.570 . S
Gd2446 O2480 2.353 1_655 S
Gd2446 O2481 2.468 . S
Gd2446 O2482 2.427 . S
Gd2446 O2484 2.388 1_655 S
Gd2446 O2485 2.386 1_655 S
Gd2446 O2489 2.307 . S
Gd2446 C2499 2.805 . S
Gd2447 N2442 2.622 . S
Gd2447 N2448 2.570 . S
Gd2447 O2479 2.386 . S
Gd2447 O2483 2.307 . S
Gd2447 O2486 2.353 . S
Gd2447 O2487 2.468 . S
Gd2447 O2488 2.427 . S
Gd2447 O2490 2.388 . S
Gd2447 C2511 2.805 . S
N2448 C2438 1.359 . S
N2448 Gd2447 2.570 . S
N2448 C2450 1.343 . S
C2449 C2437 1.422 . S
C2449 C2451 1.321 . S
C2449 H2457 0.931 . S
C2450 N2448 1.343 . S
C2450 C2451 1.390 . S
C2450 H2452 0.931 . S
C2451 C2449 1.321 . S
C2451 C2450 1.390 . S
C2451 H2453 0.930 . S
H2452 C2450 0.931 . S
H2453 C2451 0.930 . S
H2454 C2477 0.931 . S
H2455 C2443 0.929 . S
H2456 C2478 0.930 . S
H2457 C2449 0.931 . S
H2458 C2439 0.930 . S
H2459 C2468 0.929 1_455 S
H2460 C2444 0.931 . S
H2461 C2445 0.930 . S
H2462 C2500 0.930 . S
H2463 C2441 0.929 . S
H2464 C2469 0.931 . S
H2465 C2470 0.930 . S
N2466 Gd2446 2.622 . S
N2466 C2467 1.369 . S
N2466 C2468 1.338 . S
C2467 N2466 1.369 . S
C2467 C2471 1.415 . S
C2467 C2474 1.422 . S
C2468 H2459 0.929 1_655 S
C2468 N2466 1.338 . S
C2468 C2470 1.378 . S
C2469 H2464 0.931 . S
C2469 C2470 1.348 . S
C2469 C2471 1.413 . S
C2470 H2465 0.930 . S
C2470 C2468 1.378 . S
C2470 C2469 1.348 . S
C2471 C2467 1.415 . S
C2471 C2469 1.413 . S
C2471 C2501 1.437 . S
H2472 C2501 0.929 . S
N2473 Gd2446 2.570 . S
N2473 C2474 1.359 . S
N2473 C2477 1.343 . S
C2474 C2467 1.422 . S
C2474 N2473 1.359 . S
C2474 C2476 1.421 . S
C2475 C2476 1.422 . S
C2475 C2478 1.321 . S
C2475 H2502 0.931 . S
C2476 C2474 1.421 . S
C2476 C2475 1.422 . S
C2476 C2500 1.417 . S
C2477 H2454 0.931 . S
C2477 N2473 1.343 . S
C2477 C2478 1.390 . S
C2478 H2456 0.930 . S
C2478 C2475 1.321 . S
C2478 C2477 1.390 . S
O2479 Gd2447 2.386 . S
O2479 C2491 1.265 . S
O2480 Gd2446 2.353 1_455 S
O2480 C2491 1.242 . S
O2481 Gd2446 2.468 . S
O2481 C2499 1.263 . S
O2482 Gd2446 2.427 . S
O2482 C2499 1.252 . S
O2483 Gd2447 2.307 . S
O2483 C2492 1.261 . S
O2484 Gd2446 2.388 1_455 S
O2484 C2492 1.252 . S
O2485 Gd2446 2.386 1_455 S
O2485 C2503 1.265 . S
O2486 Gd2447 2.353 . S
O2486 C2503 1.242 . S
O2487 Gd2447 2.468 . S
O2487 C2511 1.263 . S
O2488 Gd2447 2.427 . S
O2488 C2511 1.252 . S
O2489 Gd2446 2.307 . S
O2489 C2504 1.261 1_655 S
O2490 Gd2447 2.388 . S
O2490 C2504 1.252 . S
C2491 O2479 1.265 . S
C2491 O2480 1.242 . S
C2492 O2483 1.261 . S
C2492 O2484 1.252 . S
C2493 C2496 1.394 . S
C2493 C2498 1.370 . S
C2493 C2499 1.500 . S
C2494 C2497 1.383 . S
C2494 C2498 1.395 . S
C2495 C2496 1.396 . S
C2495 C2497 1.365 . S
C2495 H2512 0.929 . S
C2496 C2493 1.394 . S
C2496 C2495 1.396 . S
C2496 H2513 0.930 . S
C2497 C2494 1.383 . S
C2497 C2495 1.365 . S
C2497 H2514 0.931 . S
C2498 C2493 1.370 . S
C2498 C2494 1.395 . S
C2498 H2515 0.930 . S
C2499 Gd2446 2.805 . S
C2499 O2481 1.263 . S
C2499 O2482 1.252 . S
C2499 C2493 1.500 . S
C2500 H2462 0.930 . S
C2500 C2476 1.417 . S
C2500 C2501 1.329 . S
C2501 C2471 1.437 . S
C2501 H2472 0.929 . S
C2501 C2500 1.329 . S
H2502 C2475 0.931 . S
C2503 O2485 1.265 . S
C2503 O2486 1.242 . S
C2504 O2489 1.261 1_455 S
C2504 O2490 1.252 . S
C2505 C2508 1.394 . S
C2505 C2510 1.370 . S
C2505 C2511 1.500 . S
C2506 C2509 1.375 1_554 S
C2506 C2510 1.395 . S
C2507 C2508 1.393 . S
C2507 C2509 1.365 1_554 S
C2507 H2516 0.931 1_554 S
C2508 C2505 1.394 . S
C2508 C2507 1.393 . S
C2508 H2517 0.930 . S
C2509 C2506 1.375 1_556 S
C2509 C2507 1.365 1_556 S
C2509 H2518 0.939 . S
C2510 C2505 1.370 . S
C2510 C2506 1.395 . S
C2510 H2519 0.930 . S
C2511 Gd2447 2.805 . S
C2511 O2487 1.263 . S
C2511 O2488 1.252 . S
C2511 C2505 1.500 . S
H2512 C2495 0.929 . S
H2513 C2496 0.930 . S
H2514 C2497 0.931 . S
H2515 C2498 0.930 . S
H2516 C2507 0.931 1_556 S
H2517 C2508 0.930 . S
H2518 C2509 0.939 . S
H2519 C2510 0.930 . S
C2520 C2522 1.422 . S
C2520 C2524 1.415 . S
C2520 N2526 1.369 . S
C2521 C2522 1.421 . S
C2521 C2523 1.417 . S
C2521 C2533 1.422 . S
C2522 C2520 1.422 . S
C2522 C2521 1.421 . S
C2522 N2532 1.359 . S
C2523 C2521 1.417 . S
C2523 C2525 1.329 . S
C2523 H2542 0.930 . S
C2524 C2520 1.415 . S
C2524 C2525 1.437 . S
C2524 C2528 1.413 . S
C2525 C2523 1.329 . S
C2525 C2524 1.437 . S
C2525 H2547 0.929 . S
N2526 C2520 1.369 . S
N2526 C2527 1.338 . S
N2526 Gd2531 2.622 . S
C2527 N2526 1.338 . S
C2527 C2529 1.378 . S
C2527 H2539 0.929 . S
C2528 C2524 1.413 . S
C2528 C2529 1.348 . S
C2528 H2544 0.931 . S
C2529 C2527 1.378 . S
C2529 C2528 1.348 . S
C2529 H2545 0.930 . S
Gd2530 N2550 2.622 . S
Gd2530 N2557 2.570 . S
Gd2530 O2564 2.353 . S
Gd2530 O2565 2.468 . S
Gd2530 O2566 2.427 . S
Gd2530 O2568 2.388 . S
Gd2530 O2569 2.386 . S
Gd2530 O2573 2.307 . S
Gd2530 C2583 2.805 . S
Gd2531 N2526 2.622 . S
Gd2531 N2532 2.570 . S
Gd2531 O2563 2.386 . S
Gd2531 O2567 2.307 . S
Gd2531 O2570 2.353 . S
Gd2531 O2571 2.468 . S
Gd2531 O2572 2.427 . S
Gd2531 O2574 2.388 . S
Gd2531 C2595 2.805 . S
N2532 C2522 1.359 . S
N2532 Gd2531 2.570 . S
N2532 C2534 1.343 . S
C2533 C2521 1.422 . S
C2533 C2535 1.321 . S
C2533 H2541 0.931 . S
C2534 N2532 1.343 . S
C2534 C2535 1.390 . S
C2534 H2536 0.931 . S
C2535 C2533 1.321 . S
C2535 C2534 1.390 . S
C2535 H2537 0.930 . S
H2536 C2534 0.931 . S
H2537 C2535 0.930 . S
H2538 C2561 0.931 . S
H2539 C2527 0.929 . S
H2540 C2562 0.930 . S
H2541 C2533 0.931 . S
H2542 C2523 0.930 . S
H2543 C2552 0.929 . S
H2544 C2528 0.931 . S
H2545 C2529 0.930 . S
H2546 C2584 0.930 . S
H2547 C2525 0.929 . S
H2548 C2553 0.931 . S
H2549 C2554 0.930 . S
N2550 Gd2530 2.622 . S
N2550 C2551 1.369 . S
N2550 C2552 1.338 . S
C2551 N2550 1.369 . S
C2551 C2555 1.415 . S
C2551 C2558 1.422 . S
C2552 H2543 0.929 . S
C2552 N2550 1.338 . S
C2552 C2554 1.378 . S
C2553 H2548 0.931 . S
C2553 C2554 1.348 . S
C2553 C2555 1.413 . S
C2554 H2549 0.930 . S
C2554 C2552 1.378 . S
C2554 C2553 1.348 . S
C2555 C2551 1.415 . S
C2555 C2553 1.413 . S
C2555 C2585 1.437 . S
H2556 C2585 0.929 . S
N2557 Gd2530 2.570 . S
N2557 C2558 1.359 . S
N2557 C2561 1.343 . S
C2558 C2551 1.422 . S
C2558 N2557 1.359 . S
C2558 C2560 1.421 . S
C2559 C2560 1.422 . S
C2559 C2562 1.321 . S
C2559 H2586 0.931 . S
C2560 C2558 1.421 . S
C2560 C2559 1.422 . S
C2560 C2584 1.417 . S
C2561 H2538 0.931 . S
C2561 N2557 1.343 . S
C2561 C2562 1.390 . S
C2562 H2540 0.930 . S
C2562 C2559 1.321 . S
C2562 C2561 1.390 . S
O2563 Gd2531 2.386 . S
O2563 C2575 1.265 . S
O2564 Gd2530 2.353 . S
O2564 C2575 1.242 . S
O2565 Gd2530 2.468 . S
O2565 C2583 1.263 . S
O2566 Gd2530 2.427 . S
O2566 C2583 1.252 . S
O2567 Gd2531 2.307 . S
O2567 C2576 1.261 . S
O2568 Gd2530 2.388 . S
O2568 C2576 1.252 . S
O2569 Gd2530 2.386 . S
O2569 C2587 1.265 . S
O2570 Gd2531 2.353 . S
O2570 C2587 1.242 . S
O2571 Gd2531 2.468 . S
O2571 C2595 1.263 . S
O2572 Gd2531 2.427 . S
O2572 C2595 1.252 . S
O2573 Gd2530 2.307 . S
O2573 C2588 1.261 . S
O2574 Gd2531 2.388 . S
O2574 C2588 1.252 . S
C2575 O2563 1.265 . S
C2575 O2564 1.242 . S
C2576 O2567 1.261 . S
C2576 O2568 1.252 . S
C2577 C2580 1.394 . S
C2577 C2582 1.370 . S
C2577 C2583 1.500 . S
C2578 C2581 1.383 . S
C2578 C2582 1.395 . S
C2579 C2580 1.396 . S
C2579 C2581 1.365 . S
C2579 H2596 0.929 . S
C2580 C2577 1.394 . S
C2580 C2579 1.396 . S
C2580 H2597 0.930 . S
C2581 C2578 1.383 . S
C2581 C2579 1.365 . S
C2581 H2598 0.931 . S
C2582 C2577 1.370 . S
C2582 C2578 1.395 . S
C2582 H2599 0.930 . S
C2583 Gd2530 2.805 . S
C2583 O2565 1.263 . S
C2583 O2566 1.252 . S
C2583 C2577 1.500 . S
C2584 H2546 0.930 . S
C2584 C2560 1.417 . S
C2584 C2585 1.329 . S
C2585 C2555 1.437 . S
C2585 H2556 0.929 . S
C2585 C2584 1.329 . S
H2586 C2559 0.931 . S
C2587 O2569 1.265 . S
C2587 O2570 1.242 . S
C2588 O2573 1.261 . S
C2588 O2574 1.252 . S
C2589 C2592 1.394 . S
C2589 C2594 1.370 . S
C2589 C2595 1.500 . S
C2590 C2593 1.383 . S
C2590 C2594 1.395 . S
C2591 C2592 1.396 . S
C2591 C2593 1.365 . S
C2591 H2600 0.929 . S
C2592 C2589 1.394 . S
C2592 C2591 1.396 . S
C2592 H2601 0.930 . S
C2593 C2590 1.383 . S
C2593 C2591 1.365 . S
C2593 H2602 0.931 . S
C2594 C2589 1.370 . S
C2594 C2590 1.395 . S
C2594 H2603 0.930 . S
C2595 Gd2531 2.805 . S
C2595 O2571 1.263 . S
C2595 O2572 1.252 . S
C2595 C2589 1.500 . S
H2596 C2579 0.929 . S
H2597 C2580 0.930 . S
H2598 C2581 0.931 . S
H2599 C2582 0.930 . S
H2600 C2591 0.929 . S
H2601 C2592 0.930 . S
H2602 C2593 0.931 . S
H2603 C2594 0.930 . S
C2604 C2606 1.422 . S
C2604 C2608 1.415 . S
C2604 N2610 1.369 . S
C2605 C2606 1.421 . S
C2605 C2607 1.417 . S
C2605 C2617 1.422 . S
C2606 C2604 1.422 . S
C2606 C2605 1.421 . S
C2606 N2616 1.359 . S
C2607 C2605 1.417 . S
C2607 C2609 1.329 . S
C2607 H2626 0.930 . S
C2608 C2604 1.415 . S
C2608 C2609 1.437 . S
C2608 C2612 1.413 . S
C2609 C2607 1.329 . S
C2609 C2608 1.437 . S
C2609 H2631 0.929 . S
N2610 C2604 1.369 . S
N2610 C2611 1.338 . S
N2610 Gd2615 2.622 . S
C2611 N2610 1.338 . S
C2611 C2613 1.378 . S
C2611 H2623 0.929 . S
C2612 C2608 1.413 . S
C2612 C2613 1.348 . S
C2612 H2628 0.931 . S
C2613 C2611 1.378 . S
C2613 C2612 1.348 . S
C2613 H2629 0.930 . S
Gd2614 N2634 2.622 . S
Gd2614 N2641 2.570 . S
Gd2614 O2648 2.353 . S
Gd2614 O2649 2.468 . S
Gd2614 O2650 2.427 . S
Gd2614 O2652 2.388 . S
Gd2614 O2653 2.386 . S
Gd2614 O2657 2.307 . S
Gd2614 C2667 2.805 . S
Gd2615 N2610 2.622 . S
Gd2615 N2616 2.570 . S
Gd2615 O2647 2.386 . S
Gd2615 O2651 2.307 . S
Gd2615 O2654 2.353 . S
Gd2615 O2655 2.468 . S
Gd2615 O2656 2.427 . S
Gd2615 O2658 2.388 . S
Gd2615 C2679 2.805 . S
N2616 C2606 1.359 . S
N2616 Gd2615 2.570 . S
N2616 C2618 1.343 . S
C2617 C2605 1.422 . S
C2617 C2619 1.321 . S
C2617 H2625 0.931 . S
C2618 N2616 1.343 . S
C2618 C2619 1.390 . S
C2618 H2620 0.931 . S
C2619 C2617 1.321 . S
C2619 C2618 1.390 . S
C2619 H2621 0.930 . S
H2620 C2618 0.931 . S
H2621 C2619 0.930 . S
H2622 C2645 0.931 . S
H2623 C2611 0.929 . S
H2624 C2646 0.930 . S
H2625 C2617 0.931 . S
H2626 C2607 0.930 . S
H2627 C2636 0.929 . S
H2628 C2612 0.931 . S
H2629 C2613 0.930 . S
H2630 C2668 0.930 . S
H2631 C2609 0.929 . S
H2632 C2637 0.931 . S
H2633 C2638 0.930 . S
N2634 Gd2614 2.622 . S
N2634 C2635 1.369 . S
N2634 C2636 1.338 . S
C2635 N2634 1.369 . S
C2635 C2639 1.415 . S
C2635 C2642 1.422 . S
C2636 H2627 0.929 . S
C2636 N2634 1.338 . S
C2636 C2638 1.378 . S
C2637 H2632 0.931 . S
C2637 C2638 1.348 . S
C2637 C2639 1.413 . S
C2638 H2633 0.930 . S
C2638 C2636 1.378 . S
C2638 C2637 1.348 . S
C2639 C2635 1.415 . S
C2639 C2637 1.413 . S
C2639 C2669 1.437 . S
H2640 C2669 0.929 . S
N2641 Gd2614 2.570 . S
N2641 C2642 1.359 . S
N2641 C2645 1.343 . S
C2642 C2635 1.422 . S
C2642 N2641 1.359 . S
C2642 C2644 1.421 . S
C2643 C2644 1.422 . S
C2643 C2646 1.321 . S
C2643 H2670 0.931 . S
C2644 C2642 1.421 . S
C2644 C2643 1.422 . S
C2644 C2668 1.417 . S
C2645 H2622 0.931 . S
C2645 N2641 1.343 . S
C2645 C2646 1.390 . S
C2646 H2624 0.930 . S
C2646 C2643 1.321 . S
C2646 C2645 1.390 . S
O2647 Gd2615 2.386 . S
O2647 C2659 1.265 . S
O2648 Gd2614 2.353 . S
O2648 C2659 1.242 . S
O2649 Gd2614 2.468 . S
O2649 C2667 1.263 . S
O2650 Gd2614 2.427 . S
O2650 C2667 1.252 . S
O2651 Gd2615 2.307 . S
O2651 C2660 1.261 . S
O2652 Gd2614 2.388 . S
O2652 C2660 1.252 . S
O2653 Gd2614 2.386 . S
O2653 C2671 1.265 . S
O2654 Gd2615 2.353 . S
O2654 C2671 1.242 . S
O2655 Gd2615 2.468 . S
O2655 C2679 1.263 . S
O2656 Gd2615 2.427 . S
O2656 C2679 1.252 . S
O2657 Gd2614 2.307 . S
O2657 C2672 1.261 . S
O2658 Gd2615 2.388 . S
O2658 C2672 1.252 . S
C2659 O2647 1.265 . S
C2659 O2648 1.242 . S
C2660 O2651 1.261 . S
C2660 O2652 1.252 . S
C2661 C2664 1.394 . S
C2661 C2666 1.370 . S
C2661 C2667 1.500 . S
C2662 C2665 1.383 . S
C2662 C2666 1.395 . S
C2663 C2664 1.396 . S
C2663 C2665 1.365 . S
C2663 H2680 0.929 . S
C2664 C2661 1.394 . S
C2664 C2663 1.396 . S
C2664 H2681 0.930 . S
C2665 C2662 1.383 . S
C2665 C2663 1.365 . S
C2665 H2682 0.931 . S
C2666 C2661 1.370 . S
C2666 C2662 1.395 . S
C2666 H2683 0.930 . S
C2667 Gd2614 2.805 . S
C2667 O2649 1.263 . S
C2667 O2650 1.252 . S
C2667 C2661 1.500 . S
C2668 H2630 0.930 . S
C2668 C2644 1.417 . S
C2668 C2669 1.329 . S
C2669 C2639 1.437 . S
C2669 H2640 0.929 . S
C2669 C2668 1.329 . S
H2670 C2643 0.931 . S
C2671 O2653 1.265 . S
C2671 O2654 1.242 . S
C2672 O2657 1.261 . S
C2672 O2658 1.252 . S
C2673 C2676 1.394 . S
C2673 C2678 1.370 . S
C2673 C2679 1.500 . S
C2674 C2677 1.383 . S
C2674 C2678 1.395 . S
C2675 C2676 1.396 . S
C2675 C2677 1.365 . S
C2675 H2684 0.929 . S
C2676 C2673 1.394 . S
C2676 C2675 1.396 . S
C2676 H2685 0.930 . S
C2677 C2674 1.383 . S
C2677 C2675 1.365 . S
C2677 H2686 0.931 . S
C2678 C2673 1.370 . S
C2678 C2674 1.395 . S
C2678 H2687 0.930 . S
C2679 Gd2615 2.805 . S
C2679 O2655 1.263 . S
C2679 O2656 1.252 . S
C2679 C2673 1.500 . S
H2680 C2663 0.929 . S
H2681 C2664 0.930 . S
H2682 C2665 0.931 . S
H2683 C2666 0.930 . S
H2684 C2675 0.929 . S
H2685 C2676 0.930 . S
H2686 C2677 0.931 . S
H2687 C2678 0.930 . S
C2688 C2689 1.363 . S
C2688 C2694 1.379 . S
C2688 N2696 1.356 . S
C2689 C2688 1.363 . S
C2689 C2695 1.363 . S
C2690 C2691 1.363 . S
C2690 C2695 1.379 . S
C2690 N2697 1.356 . S
C2691 C2690 1.363 . S
C2691 C2694 1.363 . S
N2692 C2694 1.356 . S
N2692 H2704 0.984 . S
N2692 H2705 0.985 . S
N2693 C2695 1.356 . S
N2693 H2698 0.984 . S
N2693 H2699 0.985 . S
C2694 C2688 1.379 . S
C2694 C2691 1.363 . S
C2694 N2692 1.356 . S
C2695 C2689 1.363 . S
C2695 C2690 1.379 . S
C2695 N2693 1.356 . S
N2696 C2688 1.356 . S
N2696 H2702 0.984 . S
N2696 H2703 0.984 . S
N2697 C2690 1.356 . S
N2697 H2700 0.984 . S
N2697 H2701 0.985 . S
H2698 N2693 0.984 . S
H2699 N2693 0.985 . S
H2700 N2697 0.984 . S
H2701 N2697 0.985 . S
H2702 N2696 0.984 . S
H2703 N2696 0.984 . S
H2704 N2692 0.984 . S
H2705 N2692 0.985 . S
C2706 C2707 1.363 . S
C2706 C2712 1.379 . S
C2706 N2714 1.356 . S
C2707 C2706 1.363 . S
C2707 C2713 1.363 . S
C2708 C2709 1.363 . S
C2708 C2713 1.379 . S
C2708 N2715 1.356 . S
C2709 C2708 1.363 . S
C2709 C2712 1.363 . S
N2710 C2712 1.356 . S
N2710 H2722 0.984 . S
N2710 H2723 0.985 . S
N2711 C2713 1.356 . S
N2711 H2716 0.984 . S
N2711 H2717 0.985 . S
C2712 C2706 1.379 . S
C2712 C2709 1.363 . S
C2712 N2710 1.356 . S
C2713 C2707 1.363 . S
C2713 C2708 1.379 . S
C2713 N2711 1.356 . S
N2714 C2706 1.356 . S
N2714 H2720 0.984 . S
N2714 H2721 0.984 . S
N2715 C2708 1.356 . S
N2715 H2718 0.984 . S
N2715 H2719 0.985 . S
H2716 N2711 0.984 . S
H2717 N2711 0.985 . S
H2718 N2715 0.984 . S
H2719 N2715 0.985 . S
H2720 N2714 0.984 . S
H2721 N2714 0.984 . S
H2722 N2710 0.984 . S
H2723 N2710 0.985 . S
C2724 C2725 1.363 . S
C2724 C2730 1.379 . S
C2724 N2732 1.356 . S
C2725 C2724 1.363 . S
C2725 C2731 1.363 . S
C2726 C2727 1.363 . S
C2726 C2731 1.379 . S
C2726 N2733 1.356 . S
C2727 C2726 1.363 . S
C2727 C2730 1.363 . S
N2728 C2730 1.356 . S
N2728 H2740 0.984 . S
N2728 H2741 0.985 . S
N2729 C2731 1.356 . S
N2729 H2734 0.984 . S
N2729 H2735 0.985 . S
C2730 C2724 1.379 . S
C2730 C2727 1.363 . S
C2730 N2728 1.356 . S
C2731 C2725 1.363 . S
C2731 C2726 1.379 . S
C2731 N2729 1.356 . S
N2732 C2724 1.356 . S
N2732 H2738 0.984 . S
N2732 H2739 0.984 . S
N2733 C2726 1.356 . S
N2733 H2736 0.984 . S
N2733 H2737 0.985 . S
H2734 N2729 0.984 . S
H2735 N2729 0.985 . S
H2736 N2733 0.984 . S
H2737 N2733 0.985 . S
H2738 N2732 0.984 . S
H2739 N2732 0.984 . S
H2740 N2728 0.984 . S
H2741 N2728 0.985 . S
C2742 C2743 1.363 . S
C2742 C2748 1.379 . S
C2742 N2750 1.356 . S
C2743 C2742 1.363 . S
C2743 C2749 1.363 . S
C2744 C2745 1.363 . S
C2744 C2749 1.379 . S
C2744 N2751 1.356 . S
C2745 C2744 1.363 . S
C2745 C2748 1.363 . S
N2746 C2748 1.356 . S
N2746 H2758 0.984 . S
N2746 H2759 0.985 . S
N2747 C2749 1.356 . S
N2747 H2752 0.984 . S
N2747 H2753 0.985 . S
C2748 C2742 1.379 . S
C2748 C2745 1.363 . S
C2748 N2746 1.356 . S
C2749 C2743 1.363 . S
C2749 C2744 1.379 . S
C2749 N2747 1.356 . S
N2750 C2742 1.356 . S
N2750 H2756 0.984 . S
N2750 H2757 0.984 . S
N2751 C2744 1.356 . S
N2751 H2754 0.984 . S
N2751 H2755 0.985 . S
H2752 N2747 0.984 . S
H2753 N2747 0.985 . S
H2754 N2751 0.984 . S
H2755 N2751 0.985 . S
H2756 N2750 0.984 . S
H2757 N2750 0.984 . S
H2758 N2746 0.984 . S
H2759 N2746 0.985 . S
C2760 C2761 1.363 . S
C2760 C2766 1.379 . S
C2760 N2768 1.356 . S
C2761 C2760 1.363 . S
C2761 C2767 1.363 . S
C2762 C2763 1.363 . S
C2762 C2767 1.379 . S
C2762 N2769 1.356 . S
C2763 C2762 1.363 . S
C2763 C2766 1.363 . S
N2764 C2766 1.356 . S
N2764 H2776 0.984 . S
N2764 H2777 0.985 . S
N2765 C2767 1.356 . S
N2765 H2770 0.984 . S
N2765 H2771 0.985 . S
C2766 C2760 1.379 . S
C2766 C2763 1.363 . S
C2766 N2764 1.356 . S
C2767 C2761 1.363 . S
C2767 C2762 1.379 . S
C2767 N2765 1.356 . S
N2768 C2760 1.356 . S
N2768 H2774 0.984 . S
N2768 H2775 0.984 . S
N2769 C2762 1.356 . S
N2769 H2772 0.984 . S
N2769 H2773 0.985 . S
H2770 N2765 0.984 . S
H2771 N2765 0.985 . S
H2772 N2769 0.984 . S
H2773 N2769 0.985 . S
H2774 N2768 0.984 . S
H2775 N2768 0.984 . S
H2776 N2764 0.984 . S
H2777 N2764 0.985 . S
C2778 C2779 1.363 . S
C2778 C2784 1.379 . S
C2778 N2786 1.356 . S
C2779 C2778 1.363 . S
C2779 C2785 1.363 . S
C2780 C2781 1.363 . S
C2780 C2785 1.379 . S
C2780 N2787 1.356 . S
C2781 C2780 1.363 . S
C2781 C2784 1.363 . S
N2782 C2784 1.356 . S
N2782 H2794 0.984 . S
N2782 H2795 0.985 . S
N2783 C2785 1.356 . S
N2783 H2788 0.984 . S
N2783 H2789 0.985 . S
C2784 C2778 1.379 . S
C2784 C2781 1.363 . S
C2784 N2782 1.356 . S
C2785 C2779 1.363 . S
C2785 C2780 1.379 . S
C2785 N2783 1.356 . S
N2786 C2778 1.356 . S
N2786 H2792 0.984 . S
N2786 H2793 0.984 . S
N2787 C2780 1.356 . S
N2787 H2790 0.984 . S
N2787 H2791 0.985 . S
H2788 N2783 0.984 . S
H2789 N2783 0.985 . S
H2790 N2787 0.984 . S
H2791 N2787 0.985 . S
H2792 N2786 0.984 . S
H2793 N2786 0.984 . S
H2794 N2782 0.984 . S
H2795 N2782 0.985 . S
C2796 C2797 1.363 . S
C2796 C2802 1.379 . S
C2796 N2804 1.356 . S
C2797 C2796 1.363 . S
C2797 C2803 1.363 . S
C2798 C2799 1.363 . S
C2798 C2803 1.379 . S
C2798 N2805 1.356 . S
C2799 C2798 1.363 . S
C2799 C2802 1.363 . S
N2800 C2802 1.356 . S
N2800 H2812 0.984 . S
N2800 H2813 0.985 . S
N2801 C2803 1.356 . S
N2801 H2806 0.984 . S
N2801 H2807 0.985 . S
C2802 C2796 1.379 . S
C2802 C2799 1.363 . S
C2802 N2800 1.356 . S
C2803 C2797 1.363 . S
C2803 C2798 1.379 . S
C2803 N2801 1.356 . S
N2804 C2796 1.356 . S
N2804 H2810 0.984 . S
N2804 H2811 0.984 . S
N2805 C2798 1.356 . S
N2805 H2808 0.984 . S
N2805 H2809 0.985 . S
H2806 N2801 0.984 . S
H2807 N2801 0.985 . S
H2808 N2805 0.984 . S
H2809 N2805 0.985 . S
H2810 N2804 0.984 . S
H2811 N2804 0.984 . S
H2812 N2800 0.984 . S
H2813 N2800 0.985 . S
C2814 C2815 1.363 . S
C2814 C2820 1.379 . S
C2814 N2822 1.356 . S
C2815 C2814 1.363 . S
C2815 C2821 1.363 . S
C2816 C2817 1.363 . S
C2816 C2821 1.379 . S
C2816 N2823 1.356 . S
C2817 C2816 1.363 . S
C2817 C2820 1.363 . S
N2818 C2820 1.356 . S
N2818 H2830 0.984 . S
N2818 H2831 0.985 . S
N2819 C2821 1.356 . S
N2819 H2824 0.984 . S
N2819 H2825 0.985 . S
C2820 C2814 1.379 . S
C2820 C2817 1.363 . S
C2820 N2818 1.356 . S
C2821 C2815 1.363 . S
C2821 C2816 1.379 . S
C2821 N2819 1.356 . S
N2822 C2814 1.356 . S
N2822 H2828 0.984 . S
N2822 H2829 0.984 . S
N2823 C2816 1.356 . S
N2823 H2826 0.984 . S
N2823 H2827 0.985 . S
H2824 N2819 0.984 . S
H2825 N2819 0.985 . S
H2826 N2823 0.984 . S
H2827 N2823 0.985 . S
H2828 N2822 0.984 . S
H2829 N2822 0.984 . S
H2830 N2818 0.984 . S
H2831 N2818 0.985 . S
C2832 C2833 1.363 . S
C2832 C2838 1.379 . S
C2832 N2840 1.356 . S
C2833 C2832 1.363 . S
C2833 C2839 1.363 . S
C2834 C2835 1.363 . S
C2834 C2839 1.379 . S
C2834 N2841 1.356 . S
C2835 C2834 1.363 . S
C2835 C2838 1.363 . S
N2836 C2838 1.356 . S
N2836 H2848 0.984 . S
N2836 H2849 0.985 . S
N2837 C2839 1.356 . S
N2837 H2842 0.984 . S
N2837 H2843 0.985 . S
C2838 C2832 1.379 . S
C2838 C2835 1.363 . S
C2838 N2836 1.356 . S
C2839 C2833 1.363 . S
C2839 C2834 1.379 . S
C2839 N2837 1.356 . S
N2840 C2832 1.356 . S
N2840 H2846 0.984 . S
N2840 H2847 0.984 . S
N2841 C2834 1.356 . S
N2841 H2844 0.984 . S
N2841 H2845 0.985 . S
H2842 N2837 0.984 . S
H2843 N2837 0.985 . S
H2844 N2841 0.984 . S
H2845 N2841 0.985 . S
H2846 N2840 0.984 . S
H2847 N2840 0.984 . S
H2848 N2836 0.984 . S
H2849 N2836 0.985 . S
C2850 C2851 1.363 . S
C2850 C2856 1.379 . S
C2850 N2858 1.356 . S
C2851 C2850 1.363 . S
C2851 C2857 1.363 . S
C2852 C2853 1.363 . S
C2852 C2857 1.379 . S
C2852 N2859 1.356 . S
C2853 C2852 1.363 . S
C2853 C2856 1.363 . S
N2854 C2856 1.356 . S
N2854 H2866 0.984 . S
N2854 H2867 0.985 . S
N2855 C2857 1.356 . S
N2855 H2860 0.984 . S
N2855 H2861 0.985 . S
C2856 C2850 1.379 . S
C2856 C2853 1.363 . S
C2856 N2854 1.356 . S
C2857 C2851 1.363 . S
C2857 C2852 1.379 . S
C2857 N2855 1.356 . S
N2858 C2850 1.356 . S
N2858 H2864 0.984 . S
N2858 H2865 0.984 . S
N2859 C2852 1.356 . S
N2859 H2862 0.984 . S
N2859 H2863 0.985 . S
H2860 N2855 0.984 . S
H2861 N2855 0.985 . S
H2862 N2859 0.984 . S
H2863 N2859 0.985 . S
H2864 N2858 0.984 . S
H2865 N2858 0.984 . S
H2866 N2854 0.984 . S
H2867 N2854 0.985 . S
C2868 C2869 1.363 . S
C2868 C2874 1.379 . S
C2868 N2876 1.356 . S
C2869 C2868 1.363 . S
C2869 C2875 1.363 . S
C2870 C2871 1.363 . S
C2870 C2875 1.379 . S
C2870 N2877 1.356 . S
C2871 C2870 1.363 . S
C2871 C2874 1.363 . S
N2872 C2874 1.356 . S
N2872 H2884 0.984 . S
N2872 H2885 0.985 . S
N2873 C2875 1.356 . S
N2873 H2878 0.984 . S
N2873 H2879 0.985 . S
C2874 C2868 1.379 . S
C2874 C2871 1.363 . S
C2874 N2872 1.356 . S
C2875 C2869 1.363 . S
C2875 C2870 1.379 . S
C2875 N2873 1.356 . S
N2876 C2868 1.356 . S
N2876 H2882 0.984 . S
N2876 H2883 0.984 . S
N2877 C2870 1.356 . S
N2877 H2880 0.984 . S
N2877 H2881 0.985 . S
H2878 N2873 0.984 . S
H2879 N2873 0.985 . S
H2880 N2877 0.984 . S
H2881 N2877 0.985 . S
H2882 N2876 0.984 . S
H2883 N2876 0.984 . S
H2884 N2872 0.984 . S
H2885 N2872 0.985 . S
C2886 C2887 1.363 . S
C2886 C2892 1.379 . S
C2886 N2894 1.356 . S
C2887 C2886 1.363 . S
C2887 C2893 1.363 . S
C2888 C2889 1.363 . S
C2888 C2893 1.379 . S
C2888 N2895 1.356 . S
C2889 C2888 1.363 . S
C2889 C2892 1.363 . S
N2890 C2892 1.356 . S
N2890 H2902 0.984 . S
N2890 H2903 0.985 . S
N2891 C2893 1.356 . S
N2891 H2896 0.984 . S
N2891 H2897 0.985 . S
C2892 C2886 1.379 . S
C2892 C2889 1.363 . S
C2892 N2890 1.356 . S
C2893 C2887 1.363 . S
C2893 C2888 1.379 . S
C2893 N2891 1.356 . S
N2894 C2886 1.356 . S
N2894 H2900 0.984 . S
N2894 H2901 0.984 . S
N2895 C2888 1.356 . S
N2895 H2898 0.984 . S
N2895 H2899 0.985 . S
H2896 N2891 0.984 . S
H2897 N2891 0.985 . S
H2898 N2895 0.984 . S
H2899 N2895 0.985 . S
H2900 N2894 0.984 . S
H2901 N2894 0.984 . S
H2902 N2890 0.984 . S
H2903 N2890 0.985 . S
C2904 C2905 1.363 . S
C2904 C2910 1.379 . S
C2904 N2912 1.356 . S
C2905 C2904 1.363 . S
C2905 C2911 1.363 . S
C2906 C2907 1.363 . S
C2906 C2911 1.379 . S
C2906 N2913 1.356 . S
C2907 C2906 1.363 . S
C2907 C2910 1.363 . S
N2908 C2910 1.356 . S
N2908 H2920 0.984 . S
N2908 H2921 0.985 . S
N2909 C2911 1.356 . S
N2909 H2914 0.984 . S
N2909 H2915 0.985 . S
C2910 C2904 1.379 . S
C2910 C2907 1.363 . S
C2910 N2908 1.356 . S
C2911 C2905 1.363 . S
C2911 C2906 1.379 . S
C2911 N2909 1.356 . S
N2912 C2904 1.356 . S
N2912 H2918 0.984 . S
N2912 H2919 0.984 . S
N2913 C2906 1.356 . S
N2913 H2916 0.984 . S
N2913 H2917 0.985 . S
H2914 N2909 0.984 . S
H2915 N2909 0.985 . S
H2916 N2913 0.984 . S
H2917 N2913 0.985 . S
H2918 N2912 0.984 . S
H2919 N2912 0.984 . S
H2920 N2908 0.984 . S
H2921 N2908 0.985 . S
C2922 C2923 1.363 . S
C2922 C2928 1.379 . S
C2922 N2930 1.356 . S
C2923 C2922 1.363 . S
C2923 C2929 1.363 . S
C2924 C2925 1.363 . S
C2924 C2929 1.379 . S
C2924 N2931 1.356 . S
C2925 C2924 1.363 . S
C2925 C2928 1.363 . S
N2926 C2928 1.356 . S
N2926 H2938 0.984 . S
N2926 H2939 0.985 . S
N2927 C2929 1.356 . S
N2927 H2932 0.984 . S
N2927 H2933 0.985 . S
C2928 C2922 1.379 . S
C2928 C2925 1.363 . S
C2928 N2926 1.356 . S
C2929 C2923 1.363 . S
C2929 C2924 1.379 . S
C2929 N2927 1.356 . S
N2930 C2922 1.356 . S
N2930 H2936 0.984 . S
N2930 H2937 0.984 . S
N2931 C2924 1.356 . S
N2931 H2934 0.984 . S
N2931 H2935 0.985 . S
H2932 N2927 0.984 . S
H2933 N2927 0.985 . S
H2934 N2931 0.984 . S
H2935 N2931 0.985 . S
H2936 N2930 0.984 . S
H2937 N2930 0.984 . S
H2938 N2926 0.984 . S
H2939 N2926 0.985 . S
C2940 C2941 1.363 . S
C2940 C2946 1.379 . S
C2940 N2948 1.356 . S
C2941 C2940 1.363 . S
C2941 C2947 1.363 . S
C2942 C2943 1.363 . S
C2942 C2947 1.379 . S
C2942 N2949 1.356 . S
C2943 C2942 1.363 . S
C2943 C2946 1.363 . S
N2944 C2946 1.356 . S
N2944 H2956 0.984 . S
N2944 H2957 0.985 . S
N2945 C2947 1.356 . S
N2945 H2950 0.984 . S
N2945 H2951 0.985 . S
C2946 C2940 1.379 . S
C2946 C2943 1.363 . S
C2946 N2944 1.356 . S
C2947 C2941 1.363 . S
C2947 C2942 1.379 . S
C2947 N2945 1.356 . S
N2948 C2940 1.356 . S
N2948 H2954 0.984 . S
N2948 H2955 0.984 . S
N2949 C2942 1.356 . S
N2949 H2952 0.984 . S
N2949 H2953 0.985 . S
H2950 N2945 0.984 . S
H2951 N2945 0.985 . S
H2952 N2949 0.984 . S
H2953 N2949 0.985 . S
H2954 N2948 0.984 . S
H2955 N2948 0.984 . S
H2956 N2944 0.984 . S
H2957 N2944 0.985 . S
C2958 C2959 1.363 . S
C2958 C2964 1.379 . S
C2958 N2966 1.356 . S
C2959 C2958 1.363 . S
C2959 C2965 1.363 . S
C2960 C2961 1.363 . S
C2960 C2965 1.379 . S
C2960 N2967 1.356 . S
C2961 C2960 1.363 . S
C2961 C2964 1.363 . S
N2962 C2964 1.356 . S
N2962 H2974 0.984 . S
N2962 H2975 0.985 . S
N2963 C2965 1.356 . S
N2963 H2968 0.984 . S
N2963 H2969 0.985 . S
C2964 C2958 1.379 . S
C2964 C2961 1.363 . S
C2964 N2962 1.356 . S
C2965 C2959 1.363 . S
C2965 C2960 1.379 . S
C2965 N2963 1.356 . S
N2966 C2958 1.356 . S
N2966 H2972 0.984 . S
N2966 H2973 0.984 . S
N2967 C2960 1.356 . S
N2967 H2970 0.984 . S
N2967 H2971 0.985 . S
H2968 N2963 0.984 . S
H2969 N2963 0.985 . S
H2970 N2967 0.984 . S
H2971 N2967 0.985 . S
H2972 N2966 0.984 . S
H2973 N2966 0.984 . S
H2974 N2962 0.984 . S
H2975 N2962 0.985 . S
C2976 C2977 1.363 . S
C2976 C2982 1.379 . S
C2976 N2984 1.356 . S
C2977 C2976 1.363 . S
C2977 C2983 1.363 . S
C2978 C2979 1.363 . S
C2978 C2983 1.379 . S
C2978 N2985 1.356 . S
C2979 C2978 1.363 . S
C2979 C2982 1.363 . S
N2980 C2982 1.356 . S
N2980 H2992 0.984 . S
N2980 H2993 0.985 . S
N2981 C2983 1.356 . S
N2981 H2986 0.984 . S
N2981 H2987 0.985 . S
C2982 C2976 1.379 . S
C2982 C2979 1.363 . S
C2982 N2980 1.356 . S
C2983 C2977 1.363 . S
C2983 C2978 1.379 . S
C2983 N2981 1.356 . S
N2984 C2976 1.356 . S
N2984 H2990 0.984 . S
N2984 H2991 0.984 . S
N2985 C2978 1.356 . S
N2985 H2988 0.984 . S
N2985 H2989 0.985 . S
H2986 N2981 0.984 . S
H2987 N2981 0.985 . S
H2988 N2985 0.984 . S
H2989 N2985 0.985 . S
H2990 N2984 0.984 . S
H2991 N2984 0.984 . S
H2992 N2980 0.984 . S
H2993 N2980 0.985 . S
C2994 C2995 1.363 . S
C2994 C3000 1.379 . S
C2994 N3002 1.356 . S
C2995 C2994 1.363 . S
C2995 C3001 1.363 . S
C2996 C2997 1.363 . S
C2996 C3001 1.379 . S
C2996 N3003 1.356 . S
C2997 C2996 1.363 . S
C2997 C3000 1.363 . S
N2998 C3000 1.356 . S
N2998 H3010 0.984 . S
N2998 H3011 0.985 . S
N2999 C3001 1.356 . S
N2999 H3004 0.984 . S
N2999 H3005 0.985 . S
C3000 C2994 1.379 . S
C3000 C2997 1.363 . S
C3000 N2998 1.356 . S
C3001 C2995 1.363 . S
C3001 C2996 1.379 . S
C3001 N2999 1.356 . S
N3002 C2994 1.356 . S
N3002 H3008 0.984 . S
N3002 H3009 0.984 . S
N3003 C2996 1.356 . S
N3003 H3006 0.984 . S
N3003 H3007 0.985 . S
H3004 N2999 0.984 . S
H3005 N2999 0.985 . S
H3006 N3003 0.984 . S
H3007 N3003 0.985 . S
H3008 N3002 0.984 . S
H3009 N3002 0.984 . S
H3010 N2998 0.984 . S
H3011 N2998 0.985 . S
C3012 C3013 1.363 . S
C3012 C3018 1.379 . S
C3012 N3020 1.356 . S
C3013 C3012 1.363 . S
C3013 C3019 1.363 . S
C3014 C3015 1.363 . S
C3014 C3019 1.379 . S
C3014 N3021 1.356 . S
C3015 C3014 1.363 . S
C3015 C3018 1.363 . S
N3016 C3018 1.356 . S
N3016 H3028 0.984 . S
N3016 H3029 0.985 . S
N3017 C3019 1.356 . S
N3017 H3022 0.984 . S
N3017 H3023 0.985 . S
C3018 C3012 1.379 . S
C3018 C3015 1.363 . S
C3018 N3016 1.356 . S
C3019 C3013 1.363 . S
C3019 C3014 1.379 . S
C3019 N3017 1.356 . S
N3020 C3012 1.356 . S
N3020 H3026 0.984 . S
N3020 H3027 0.984 . S
N3021 C3014 1.356 . S
N3021 H3024 0.984 . S
N3021 H3025 0.985 . S
H3022 N3017 0.984 . S
H3023 N3017 0.985 . S
H3024 N3021 0.984 . S
H3025 N3021 0.985 . S
H3026 N3020 0.984 . S
H3027 N3020 0.984 . S
H3028 N3016 0.984 . S
H3029 N3016 0.985 . S
C3030 C3031 1.363 . S
C3030 C3036 1.379 . S
C3030 N3038 1.356 . S
C3031 C3030 1.363 . S
C3031 C3037 1.363 . S
C3032 C3033 1.363 . S
C3032 C3037 1.379 . S
C3032 N3039 1.356 . S
C3033 C3032 1.363 . S
C3033 C3036 1.363 . S
N3034 C3036 1.356 . S
N3034 H3046 0.984 . S
N3034 H3047 0.985 . S
N3035 C3037 1.356 . S
N3035 H3040 0.984 . S
N3035 H3041 0.985 . S
C3036 C3030 1.379 . S
C3036 C3033 1.363 . S
C3036 N3034 1.356 . S
C3037 C3031 1.363 . S
C3037 C3032 1.379 . S
C3037 N3035 1.356 . S
N3038 C3030 1.356 . S
N3038 H3044 0.984 . S
N3038 H3045 0.984 . S
N3039 C3032 1.356 . S
N3039 H3042 0.984 . S
N3039 H3043 0.985 . S
H3040 N3035 0.984 . S
H3041 N3035 0.985 . S
H3042 N3039 0.984 . S
H3043 N3039 0.985 . S
H3044 N3038 0.984 . S
H3045 N3038 0.984 . S
H3046 N3034 0.984 . S
H3047 N3034 0.985 . S
C3048 C3049 1.363 . S
C3048 C3054 1.379 . S
C3048 N3056 1.356 . S
C3049 C3048 1.363 . S
C3049 C3055 1.363 . S
C3050 C3051 1.363 . S
C3050 C3055 1.379 . S
C3050 N3057 1.356 . S
C3051 C3050 1.363 . S
C3051 C3054 1.363 . S
N3052 C3054 1.356 . S
N3052 H3064 0.984 . S
N3052 H3065 0.985 . S
N3053 C3055 1.356 . S
N3053 H3058 0.984 . S
N3053 H3059 0.985 . S
C3054 C3048 1.379 . S
C3054 C3051 1.363 . S
C3054 N3052 1.356 . S
C3055 C3049 1.363 . S
C3055 C3050 1.379 . S
C3055 N3053 1.356 . S
N3056 C3048 1.356 . S
N3056 H3062 0.984 . S
N3056 H3063 0.984 . S
N3057 C3050 1.356 . S
N3057 H3060 0.984 . S
N3057 H3061 0.985 . S
H3058 N3053 0.984 . S
H3059 N3053 0.985 . S
H3060 N3057 0.984 . S
H3061 N3057 0.985 . S
H3062 N3056 0.984 . S
H3063 N3056 0.984 . S
H3064 N3052 0.984 . S
H3065 N3052 0.985 . S
C3066 C3067 1.363 . S
C3066 C3072 1.379 . S
C3066 N3074 1.356 . S
C3067 C3066 1.363 . S
C3067 C3073 1.363 . S
C3068 C3069 1.363 . S
C3068 C3073 1.379 . S
C3068 N3075 1.356 . S
C3069 C3068 1.363 . S
C3069 C3072 1.363 . S
N3070 C3072 1.356 . S
N3070 H3082 0.984 . S
N3070 H3083 0.985 . S
N3071 C3073 1.356 . S
N3071 H3076 0.984 . S
N3071 H3077 0.985 . S
C3072 C3066 1.379 . S
C3072 C3069 1.363 . S
C3072 N3070 1.356 . S
C3073 C3067 1.363 . S
C3073 C3068 1.379 . S
C3073 N3071 1.356 . S
N3074 C3066 1.356 . S
N3074 H3080 0.984 . S
N3074 H3081 0.984 . S
N3075 C3068 1.356 . S
N3075 H3078 0.984 . S
N3075 H3079 0.985 . S
H3076 N3071 0.984 . S
H3077 N3071 0.985 . S
H3078 N3075 0.984 . S
H3079 N3075 0.985 . S
H3080 N3074 0.984 . S
H3081 N3074 0.984 . S
H3082 N3070 0.984 . S
H3083 N3070 0.985 . S
C3084 C3085 1.363 . S
C3084 C3090 1.379 . S
C3084 N3092 1.356 . S
C3085 C3084 1.363 . S
C3085 C3091 1.363 . S
C3086 C3087 1.363 . S
C3086 C3091 1.379 . S
C3086 N3093 1.356 . S
C3087 C3086 1.363 . S
C3087 C3090 1.363 . S
N3088 C3090 1.356 . S
N3088 H3100 0.984 . S
N3088 H3101 0.985 . S
N3089 C3091 1.356 . S
N3089 H3094 0.984 . S
N3089 H3095 0.985 . S
C3090 C3084 1.379 . S
C3090 C3087 1.363 . S
C3090 N3088 1.356 . S
C3091 C3085 1.363 . S
C3091 C3086 1.379 . S
C3091 N3089 1.356 . S
N3092 C3084 1.356 . S
N3092 H3098 0.984 . S
N3092 H3099 0.984 . S
N3093 C3086 1.356 . S
N3093 H3096 0.984 . S
N3093 H3097 0.985 . S
H3094 N3089 0.984 . S
H3095 N3089 0.985 . S
H3096 N3093 0.984 . S
H3097 N3093 0.985 . S
H3098 N3092 0.984 . S
H3099 N3092 0.984 . S
H3100 N3088 0.984 . S
H3101 N3088 0.985 . S
C3102 C3103 1.363 . S
C3102 C3108 1.379 . S
C3102 N3110 1.356 . S
C3103 C3102 1.363 . S
C3103 C3109 1.363 . S
C3104 C3105 1.363 . S
C3104 C3109 1.379 . S
C3104 N3111 1.356 . S
C3105 C3104 1.363 . S
C3105 C3108 1.363 . S
N3106 C3108 1.356 . S
N3106 H3118 0.984 . S
N3106 H3119 0.985 . S
N3107 C3109 1.356 . S
N3107 H3112 0.984 . S
N3107 H3113 0.985 . S
C3108 C3102 1.379 . S
C3108 C3105 1.363 . S
C3108 N3106 1.356 . S
C3109 C3103 1.363 . S
C3109 C3104 1.379 . S
C3109 N3107 1.356 . S
N3110 C3102 1.356 . S
N3110 H3116 0.984 . S
N3110 H3117 0.984 . S
N3111 C3104 1.356 . S
N3111 H3114 0.984 . S
N3111 H3115 0.985 . S
H3112 N3107 0.984 . S
H3113 N3107 0.985 . S
H3114 N3111 0.984 . S
H3115 N3111 0.985 . S
H3116 N3110 0.984 . S
H3117 N3110 0.984 . S
H3118 N3106 0.984 . S
H3119 N3106 0.985 . S
C3120 C3121 1.363 . S
C3120 C3126 1.379 . S
C3120 N3128 1.356 . S
C3121 C3120 1.363 . S
C3121 C3127 1.363 . S
C3122 C3123 1.363 . S
C3122 C3127 1.379 . S
C3122 N3129 1.356 . S
C3123 C3122 1.363 . S
C3123 C3126 1.363 . S
N3124 C3126 1.356 . S
N3124 H3136 0.984 . S
N3124 H3137 0.985 . S
N3125 C3127 1.356 . S
N3125 H3130 0.984 . S
N3125 H3131 0.985 . S
C3126 C3120 1.379 . S
C3126 C3123 1.363 . S
C3126 N3124 1.356 . S
C3127 C3121 1.363 . S
C3127 C3122 1.379 . S
C3127 N3125 1.356 . S
N3128 C3120 1.356 . S
N3128 H3134 0.984 . S
N3128 H3135 0.984 . S
N3129 C3122 1.356 . S
N3129 H3132 0.984 . S
N3129 H3133 0.985 . S
H3130 N3125 0.984 . S
H3131 N3125 0.985 . S
H3132 N3129 0.984 . S
H3133 N3129 0.985 . S
H3134 N3128 0.984 . S
H3135 N3128 0.984 . S
H3136 N3124 0.984 . S
H3137 N3124 0.985 . S
C3138 C3139 1.363 . S
C3138 C3144 1.379 . S
C3138 N3146 1.356 . S
C3139 C3138 1.363 . S
C3139 C3145 1.363 . S
C3140 C3141 1.363 . S
C3140 C3145 1.379 . S
C3140 N3147 1.356 . S
C3141 C3140 1.363 . S
C3141 C3144 1.363 . S
N3142 C3144 1.356 . S
N3142 H3154 0.984 . S
N3142 H3155 0.985 . S
N3143 C3145 1.356 . S
N3143 H3148 0.984 . S
N3143 H3149 0.985 . S
C3144 C3138 1.379 . S
C3144 C3141 1.363 . S
C3144 N3142 1.356 . S
C3145 C3139 1.363 . S
C3145 C3140 1.379 . S
C3145 N3143 1.356 . S
N3146 C3138 1.356 . S
N3146 H3152 0.984 . S
N3146 H3153 0.984 . S
N3147 C3140 1.356 . S
N3147 H3150 0.984 . S
N3147 H3151 0.985 . S
H3148 N3143 0.984 . S
H3149 N3143 0.985 . S
H3150 N3147 0.984 . S
H3151 N3147 0.985 . S
H3152 N3146 0.984 . S
H3153 N3146 0.984 . S
H3154 N3142 0.984 . S
H3155 N3142 0.985 . S
C3156 C3157 1.363 . S
C3156 C3162 1.379 . S
C3156 N3164 1.356 . S
C3157 C3156 1.363 . S
C3157 C3163 1.363 . S
C3158 C3159 1.363 . S
C3158 C3163 1.379 . S
C3158 N3165 1.356 . S
C3159 C3158 1.363 . S
C3159 C3162 1.363 . S
N3160 C3162 1.356 . S
N3160 H3172 0.984 . S
N3160 H3173 0.985 . S
N3161 C3163 1.356 . S
N3161 H3166 0.984 . S
N3161 H3167 0.985 . S
C3162 C3156 1.379 . S
C3162 C3159 1.363 . S
C3162 N3160 1.356 . S
C3163 C3157 1.363 . S
C3163 C3158 1.379 . S
C3163 N3161 1.356 . S
N3164 C3156 1.356 . S
N3164 H3170 0.984 . S
N3164 H3171 0.984 . S
N3165 C3158 1.356 . S
N3165 H3168 0.984 . S
N3165 H3169 0.985 . S
H3166 N3161 0.984 . S
H3167 N3161 0.985 . S
H3168 N3165 0.984 . S
H3169 N3165 0.985 . S
H3170 N3164 0.984 . S
H3171 N3164 0.984 . S
H3172 N3160 0.984 . S
H3173 N3160 0.985 . S
C3174 C3175 1.363 . S
C3174 C3180 1.379 . S
C3174 N3182 1.356 . S
C3175 C3174 1.363 . S
C3175 C3181 1.363 . S
C3176 C3177 1.363 . S
C3176 C3181 1.379 . S
C3176 N3183 1.356 . S
C3177 C3176 1.363 . S
C3177 C3180 1.363 . S
N3178 C3180 1.356 . S
N3178 H3190 0.984 . S
N3178 H3191 0.985 . S
N3179 C3181 1.356 . S
N3179 H3184 0.984 . S
N3179 H3185 0.985 . S
C3180 C3174 1.379 . S
C3180 C3177 1.363 . S
C3180 N3178 1.356 . S
C3181 C3175 1.363 . S
C3181 C3176 1.379 . S
C3181 N3179 1.356 . S
N3182 C3174 1.356 . S
N3182 H3188 0.984 . S
N3182 H3189 0.984 . S
N3183 C3176 1.356 . S
N3183 H3186 0.984 . S
N3183 H3187 0.985 . S
H3184 N3179 0.984 . S
H3185 N3179 0.985 . S
H3186 N3183 0.984 . S
H3187 N3183 0.985 . S
H3188 N3182 0.984 . S
H3189 N3182 0.984 . S
H3190 N3178 0.984 . S
H3191 N3178 0.985 . S
C3192 C3193 1.363 . S
C3192 C3198 1.379 . S
C3192 N3200 1.356 . S
C3193 C3192 1.363 . S
C3193 C3199 1.363 . S
C3194 C3195 1.363 . S
C3194 C3199 1.379 . S
C3194 N3201 1.356 . S
C3195 C3194 1.363 . S
C3195 C3198 1.363 . S
N3196 C3198 1.356 . S
N3196 H3208 0.984 . S
N3196 H3209 0.985 . S
N3197 C3199 1.356 . S
N3197 H3202 0.984 . S
N3197 H3203 0.985 . S
C3198 C3192 1.379 . S
C3198 C3195 1.363 . S
C3198 N3196 1.356 . S
C3199 C3193 1.363 . S
C3199 C3194 1.379 . S
C3199 N3197 1.356 . S
N3200 C3192 1.356 . S
N3200 H3206 0.984 . S
N3200 H3207 0.984 . S
N3201 C3194 1.356 . S
N3201 H3204 0.984 . S
N3201 H3205 0.985 . S
H3202 N3197 0.984 . S
H3203 N3197 0.985 . S
H3204 N3201 0.984 . S
H3205 N3201 0.985 . S
H3206 N3200 0.984 . S
H3207 N3200 0.984 . S
H3208 N3196 0.984 . S
H3209 N3196 0.985 . S
C3210 C3211 1.363 . S
C3210 C3216 1.379 . S
C3210 N3218 1.356 . S
C3211 C3210 1.363 . S
C3211 C3217 1.363 . S
C3212 C3213 1.363 . S
C3212 C3217 1.379 . S
C3212 N3219 1.356 . S
C3213 C3212 1.363 . S
C3213 C3216 1.363 . S
N3214 C3216 1.356 . S
N3214 H3226 0.984 . S
N3214 H3227 0.985 . S
N3215 C3217 1.356 . S
N3215 H3220 0.984 . S
N3215 H3221 0.985 . S
C3216 C3210 1.379 . S
C3216 C3213 1.363 . S
C3216 N3214 1.356 . S
C3217 C3211 1.363 . S
C3217 C3212 1.379 . S
C3217 N3215 1.356 . S
N3218 C3210 1.356 . S
N3218 H3224 0.984 . S
N3218 H3225 0.984 . S
N3219 C3212 1.356 . S
N3219 H3222 0.984 . S
N3219 H3223 0.985 . S
H3220 N3215 0.984 . S
H3221 N3215 0.985 . S
H3222 N3219 0.984 . S
H3223 N3219 0.985 . S
H3224 N3218 0.984 . S
H3225 N3218 0.984 . S
H3226 N3214 0.984 . S
H3227 N3214 0.985 . S
C3228 C3229 1.363 . S
C3228 C3234 1.379 . S
C3228 N3236 1.356 . S
C3229 C3228 1.363 . S
C3229 C3235 1.363 . S
C3230 C3231 1.363 . S
C3230 C3235 1.379 . S
C3230 N3237 1.356 . S
C3231 C3230 1.363 . S
C3231 C3234 1.363 . S
N3232 C3234 1.356 . S
N3232 H3244 0.984 . S
N3232 H3245 0.985 . S
N3233 C3235 1.356 . S
N3233 H3238 0.984 . S
N3233 H3239 0.985 . S
C3234 C3228 1.379 . S
C3234 C3231 1.363 . S
C3234 N3232 1.356 . S
C3235 C3229 1.363 . S
C3235 C3230 1.379 . S
C3235 N3233 1.356 . S
N3236 C3228 1.356 . S
N3236 H3242 0.984 . S
N3236 H3243 0.984 . S
N3237 C3230 1.356 . S
N3237 H3240 0.984 . S
N3237 H3241 0.985 . S
H3238 N3233 0.984 . S
H3239 N3233 0.985 . S
H3240 N3237 0.984 . S
H3241 N3237 0.985 . S
H3242 N3236 0.984 . S
H3243 N3236 0.984 . S
H3244 N3232 0.984 . S
H3245 N3232 0.985 . S
C3246 C3247 1.363 . S
C3246 C3252 1.379 . S
C3246 N3254 1.356 . S
C3247 C3246 1.363 . S
C3247 C3253 1.363 . S
C3248 C3249 1.363 . S
C3248 C3253 1.379 . S
C3248 N3255 1.356 . S
C3249 C3248 1.363 . S
C3249 C3252 1.363 . S
N3250 C3252 1.356 . S
N3250 H3262 0.984 . S
N3250 H3263 0.985 . S
N3251 C3253 1.356 . S
N3251 H3256 0.984 . S
N3251 H3257 0.985 . S
C3252 C3246 1.379 . S
C3252 C3249 1.363 . S
C3252 N3250 1.356 . S
C3253 C3247 1.363 . S
C3253 C3248 1.379 . S
C3253 N3251 1.356 . S
N3254 C3246 1.356 . S
N3254 H3260 0.984 . S
N3254 H3261 0.984 . S
N3255 C3248 1.356 . S
N3255 H3258 0.984 . S
N3255 H3259 0.985 . S
H3256 N3251 0.984 . S
H3257 N3251 0.985 . S
H3258 N3255 0.984 . S
H3259 N3255 0.985 . S
H3260 N3254 0.984 . S
H3261 N3254 0.984 . S
H3262 N3250 0.984 . S
H3263 N3250 0.985 . S
C3264 C3265 1.363 . S
C3264 C3270 1.379 1_455 S
C3264 N3272 1.356 . S
C3265 C3264 1.363 . S
C3265 C3271 1.363 . S
C3266 C3267 1.363 . S
C3266 C3271 1.379 1_655 S
C3266 N3273 1.356 . S
C3267 C3266 1.363 . S
C3267 C3270 1.363 . S
N3268 C3270 1.356 . S
N3268 H3280 0.984 . S
N3268 H3281 0.985 . S
N3269 C3271 1.356 . S
N3269 H3274 0.984 . S
N3269 H3275 0.985 . S
C3270 C3264 1.379 1_655 S
C3270 C3267 1.363 . S
C3270 N3268 1.356 . S
C3271 C3265 1.363 . S
C3271 C3266 1.379 1_455 S
C3271 N3269 1.356 . S
N3272 C3264 1.356 . S
N3272 H3278 0.984 . S
N3272 H3279 0.984 . S
N3273 C3266 1.356 . S
N3273 H3276 0.984 . S
N3273 H3277 0.985 . S
H3274 N3269 0.984 . S
H3275 N3269 0.985 . S
H3276 N3273 0.984 . S
H3277 N3273 0.985 . S
H3278 N3272 0.984 . S
H3279 N3272 0.984 . S
H3280 N3268 0.984 . S
H3281 N3268 0.985 . S
C3282 C3283 1.363 1_655 S
C3282 C3288 1.379 . S
C3282 N3290 1.356 . S
C3283 C3282 1.363 1_455 S
C3283 C3289 1.363 . S
C3284 C3285 1.363 1_455 S
C3284 C3289 1.379 . S
C3284 N3291 1.356 . S
C3285 C3284 1.363 1_655 S
C3285 C3288 1.363 . S
N3286 C3288 1.356 . S
N3286 H3298 0.984 . S
N3286 H3299 0.985 . S
N3287 C3289 1.356 . S
N3287 H3292 0.984 . S
N3287 H3293 0.985 . S
C3288 C3282 1.379 . S
C3288 C3285 1.363 . S
C3288 N3286 1.356 . S
C3289 C3283 1.363 . S
C3289 C3284 1.379 . S
C3289 N3287 1.356 . S
N3290 C3282 1.356 . S
N3290 H3296 0.984 . S
N3290 H3297 0.984 . S
N3291 C3284 1.356 . S
N3291 H3294 0.984 . S
N3291 H3295 0.985 . S
H3292 N3287 0.984 . S
H3293 N3287 0.985 . S
H3294 N3291 0.984 . S
H3295 N3291 0.985 . S
H3296 N3290 0.984 . S
H3297 N3290 0.984 . S
H3298 N3286 0.984 . S
H3299 N3286 0.985 . S
C3300 C3301 1.363 . S
C3300 C3306 1.379 . S
C3300 N3308 1.356 . S
C3301 C3300 1.363 . S
C3301 C3307 1.363 . S
C3302 C3303 1.363 . S
C3302 C3307 1.379 . S
C3302 N3309 1.356 . S
C3303 C3302 1.363 . S
C3303 C3306 1.363 . S
N3304 C3306 1.356 . S
N3304 H3316 0.984 . S
N3304 H3317 0.985 . S
N3305 C3307 1.356 . S
N3305 H3310 0.984 . S
N3305 H3311 0.985 . S
C3306 C3300 1.379 . S
C3306 C3303 1.363 . S
C3306 N3304 1.356 . S
C3307 C3301 1.363 . S
C3307 C3302 1.379 . S
C3307 N3305 1.356 . S
N3308 C3300 1.356 . S
N3308 H3314 0.984 . S
N3308 H3315 0.984 . S
N3309 C3302 1.356 . S
N3309 H3312 0.984 . S
N3309 H3313 0.985 . S
H3310 N3305 0.984 . S
H3311 N3305 0.985 . S
H3312 N3309 0.984 . S
H3313 N3309 0.985 . S
H3314 N3308 0.984 . S
H3315 N3308 0.984 . S
H3316 N3304 0.984 . S
H3317 N3304 0.985 . S
C3318 C3319 1.363 . S
C3318 C3324 1.379 . S
C3318 N3326 1.356 . S
C3319 C3318 1.363 . S
C3319 C3325 1.363 . S
C3320 C3321 1.363 . S
C3320 C3325 1.379 . S
C3320 N3327 1.356 . S
C3321 C3320 1.363 . S
C3321 C3324 1.363 . S
N3322 C3324 1.356 . S
N3322 H3334 0.984 . S
N3322 H3335 0.985 . S
N3323 C3325 1.356 . S
N3323 H3328 0.984 . S
N3323 H3329 0.985 . S
C3324 C3318 1.379 . S
C3324 C3321 1.363 . S
C3324 N3322 1.356 . S
C3325 C3319 1.363 . S
C3325 C3320 1.379 . S
C3325 N3323 1.356 . S
N3326 C3318 1.356 . S
N3326 H3332 0.984 . S
N3326 H3333 0.984 . S
N3327 C3320 1.356 . S
N3327 H3330 0.984 . S
N3327 H3331 0.985 . S
H3328 N3323 0.984 . S
H3329 N3323 0.985 . S
H3330 N3327 0.984 . S
H3331 N3327 0.985 . S
H3332 N3326 0.984 . S
H3333 N3326 0.984 . S
H3334 N3322 0.984 . S
H3335 N3322 0.985 . S
C3336 C3337 1.363 . S
C3336 C3342 1.379 1_655 S
C3336 N3344 1.356 . S
C3337 C3336 1.363 . S
C3337 C3343 1.363 . S
C3338 C3339 1.363 . S
C3338 C3343 1.379 1_455 S
C3338 N3345 1.356 . S
C3339 C3338 1.363 . S
C3339 C3342 1.363 . S
N3340 C3342 1.356 . S
N3340 H3352 0.984 . S
N3340 H3353 0.985 . S
N3341 C3343 1.356 . S
N3341 H3346 0.984 . S
N3341 H3347 0.985 . S
C3342 C3336 1.379 1_455 S
C3342 C3339 1.363 . S
C3342 N3340 1.356 . S
C3343 C3337 1.363 . S
C3343 C3338 1.379 1_655 S
C3343 N3341 1.356 . S
N3344 C3336 1.356 . S
N3344 H3350 0.984 . S
N3344 H3351 0.984 . S
N3345 C3338 1.356 . S
N3345 H3348 0.984 . S
N3345 H3349 0.985 . S
H3346 N3341 0.984 . S
H3347 N3341 0.985 . S
H3348 N3345 0.984 . S
H3349 N3345 0.985 . S
H3350 N3344 0.984 . S
H3351 N3344 0.984 . S
H3352 N3340 0.984 . S
H3353 N3340 0.985 . S
C3354 C3355 1.363 . S
C3354 C3360 1.379 . S
C3354 N3362 1.356 . S
C3355 C3354 1.363 . S
C3355 C3361 1.363 . S
C3356 C3357 1.363 . S
C3356 C3361 1.379 . S
C3356 N3363 1.356 . S
C3357 C3356 1.363 . S
C3357 C3360 1.363 . S
N3358 C3360 1.356 . S
N3358 H3370 0.984 . S
N3358 H3371 0.985 . S
N3359 C3361 1.356 . S
N3359 H3364 0.984 . S
N3359 H3365 0.985 . S
C3360 C3354 1.379 . S
C3360 C3357 1.363 . S
C3360 N3358 1.356 . S
C3361 C3355 1.363 . S
C3361 C3356 1.379 . S
C3361 N3359 1.356 . S
N3362 C3354 1.356 . S
N3362 H3368 0.984 . S
N3362 H3369 0.984 . S
N3363 C3356 1.356 . S
N3363 H3366 0.984 . S
N3363 H3367 0.985 . S
H3364 N3359 0.984 . S
H3365 N3359 0.985 . S
H3366 N3363 0.984 . S
H3367 N3363 0.985 . S
H3368 N3362 0.984 . S
H3369 N3362 0.984 . S
H3370 N3358 0.984 . S
H3371 N3358 0.985 . S
C3372 C3373 1.363 . S
C3372 C3378 1.379 . S
C3372 N3380 1.356 . S
C3373 C3372 1.363 . S
C3373 C3379 1.363 . S
C3374 C3375 1.363 . S
C3374 C3379 1.379 . S
C3374 N3381 1.356 . S
C3375 C3374 1.363 . S
C3375 C3378 1.363 . S
N3376 C3378 1.356 . S
N3376 H3388 0.984 . S
N3376 H3389 0.985 . S
N3377 C3379 1.356 . S
N3377 H3382 0.984 . S
N3377 H3383 0.985 . S
C3378 C3372 1.379 . S
C3378 C3375 1.363 . S
C3378 N3376 1.356 . S
C3379 C3373 1.363 . S
C3379 C3374 1.379 . S
C3379 N3377 1.356 . S
N3380 C3372 1.356 . S
N3380 H3386 0.984 . S
N3380 H3387 0.984 . S
N3381 C3374 1.356 . S
N3381 H3384 0.984 . S
N3381 H3385 0.985 . S
H3382 N3377 0.984 . S
H3383 N3377 0.985 . S
H3384 N3381 0.984 . S
H3385 N3381 0.985 . S
H3386 N3380 0.984 . S
H3387 N3380 0.984 . S
H3388 N3376 0.984 . S
H3389 N3376 0.985 . S
C3390 C3391 1.363 1_455 S
C3390 C3396 1.379 . S
C3390 N3398 1.356 . S
C3391 C3390 1.363 1_655 S
C3391 C3397 1.363 . S
C3392 C3393 1.363 1_655 S
C3392 C3397 1.379 . S
C3392 N3399 1.356 . S
C3393 C3392 1.363 1_455 S
C3393 C3396 1.363 . S
N3394 C3396 1.356 . S
N3394 H3406 0.984 . S
N3394 H3407 0.985 . S
N3395 C3397 1.356 . S
N3395 H3400 0.984 . S
N3395 H3401 0.985 . S
C3396 C3390 1.379 . S
C3396 C3393 1.363 . S
C3396 N3394 1.356 . S
C3397 C3391 1.363 . S
C3397 C3392 1.379 . S
C3397 N3395 1.356 . S
N3398 C3390 1.356 . S
N3398 H3404 0.984 . S
N3398 H3405 0.984 . S
N3399 C3392 1.356 . S
N3399 H3402 0.984 . S
N3399 H3403 0.985 . S
H3400 N3395 0.984 . S
H3401 N3395 0.985 . S
H3402 N3399 0.984 . S
H3403 N3399 0.985 . S
H3404 N3398 0.984 . S
H3405 N3398 0.984 . S
H3406 N3394 0.984 . S
H3407 N3394 0.985 . S
C3408 C3409 1.363 . S
C3408 C3414 1.379 1_455 S
C3408 N3416 1.356 . S
C3409 C3408 1.363 . S
C3409 C3415 1.363 . S
C3410 C3411 1.363 . S
C3410 C3415 1.379 1_655 S
C3410 N3417 1.356 . S
C3411 C3410 1.363 . S
C3411 C3414 1.363 . S
N3412 C3414 1.356 . S
N3412 H3424 0.984 . S
N3412 H3425 0.985 . S
N3413 C3415 1.356 . S
N3413 H3418 0.984 . S
N3413 H3419 0.985 . S
C3414 C3408 1.379 1_655 S
C3414 C3411 1.363 . S
C3414 N3412 1.356 . S
C3415 C3409 1.363 . S
C3415 C3410 1.379 1_455 S
C3415 N3413 1.356 . S
N3416 C3408 1.356 . S
N3416 H3422 0.984 . S
N3416 H3423 0.984 . S
N3417 C3410 1.356 . S
N3417 H3420 0.984 . S
N3417 H3421 0.985 . S
H3418 N3413 0.984 . S
H3419 N3413 0.985 . S
H3420 N3417 0.984 . S
H3421 N3417 0.985 . S
H3422 N3416 0.984 . S
H3423 N3416 0.984 . S
H3424 N3412 0.984 . S
H3425 N3412 0.985 . S
C3426 C3427 1.363 1_655 S
C3426 C3432 1.379 . S
C3426 N3434 1.356 . S
C3427 C3426 1.363 1_455 S
C3427 C3433 1.363 . S
C3428 C3429 1.363 1_455 S
C3428 C3433 1.379 . S
C3428 N3435 1.356 . S
C3429 C3428 1.363 1_655 S
C3429 C3432 1.363 . S
N3430 C3432 1.356 . S
N3430 H3442 0.984 . S
N3430 H3443 0.985 . S
N3431 C3433 1.356 . S
N3431 H3436 0.984 . S
N3431 H3437 0.985 . S
C3432 C3426 1.379 . S
C3432 C3429 1.363 . S
C3432 N3430 1.356 . S
C3433 C3427 1.363 . S
C3433 C3428 1.379 . S
C3433 N3431 1.356 . S
N3434 C3426 1.356 . S
N3434 H3440 0.984 . S
N3434 H3441 0.984 . S
N3435 C3428 1.356 . S
N3435 H3438 0.984 . S
N3435 H3439 0.985 . S
H3436 N3431 0.984 . S
H3437 N3431 0.985 . S
H3438 N3435 0.984 . S
H3439 N3435 0.985 . S
H3440 N3434 0.984 . S
H3441 N3434 0.984 . S
H3442 N3430 0.984 . S
H3443 N3430 0.985 . S
C3444 C3445 1.363 . S
C3444 C3450 1.379 . S
C3444 N3452 1.356 . S
C3445 C3444 1.363 . S
C3445 C3451 1.363 . S
C3446 C3447 1.363 . S
C3446 C3451 1.379 . S
C3446 N3453 1.356 . S
C3447 C3446 1.363 . S
C3447 C3450 1.363 . S
N3448 C3450 1.356 . S
N3448 H3460 0.984 . S
N3448 H3461 0.985 . S
N3449 C3451 1.356 . S
N3449 H3454 0.984 . S
N3449 H3455 0.985 . S
C3450 C3444 1.379 . S
C3450 C3447 1.363 . S
C3450 N3448 1.356 . S
C3451 C3445 1.363 . S
C3451 C3446 1.379 . S
C3451 N3449 1.356 . S
N3452 C3444 1.356 . S
N3452 H3458 0.984 . S
N3452 H3459 0.984 . S
N3453 C3446 1.356 . S
N3453 H3456 0.984 . S
N3453 H3457 0.985 . S
H3454 N3449 0.984 . S
H3455 N3449 0.985 . S
H3456 N3453 0.984 . S
H3457 N3453 0.985 . S
H3458 N3452 0.984 . S
H3459 N3452 0.984 . S
H3460 N3448 0.984 . S
H3461 N3448 0.985 . S
C3462 C3463 1.363 . S
C3462 C3468 1.379 . S
C3462 N3470 1.356 . S
C3463 C3462 1.363 . S
C3463 C3469 1.363 . S
C3464 C3465 1.363 . S
C3464 C3469 1.379 . S
C3464 N3471 1.356 . S
C3465 C3464 1.363 . S
C3465 C3468 1.363 . S
N3466 C3468 1.356 . S
N3466 H3478 0.984 . S
N3466 H3479 0.985 . S
N3467 C3469 1.356 . S
N3467 H3472 0.984 . S
N3467 H3473 0.985 . S
C3468 C3462 1.379 . S
C3468 C3465 1.363 . S
C3468 N3466 1.356 . S
C3469 C3463 1.363 . S
C3469 C3464 1.379 . S
C3469 N3467 1.356 . S
N3470 C3462 1.356 . S
N3470 H3476 0.984 . S
N3470 H3477 0.984 . S
N3471 C3464 1.356 . S
N3471 H3474 0.984 . S
N3471 H3475 0.985 . S
H3472 N3467 0.984 . S
H3473 N3467 0.985 . S
H3474 N3471 0.984 . S
H3475 N3471 0.985 . S
H3476 N3470 0.984 . S
H3477 N3470 0.984 . S
H3478 N3466 0.984 . S
H3479 N3466 0.985 . S
C3480 C3481 1.363 . S
C3480 C3486 1.379 1_455 S
C3480 N3488 1.356 . S
C3481 C3480 1.363 . S
C3481 C3487 1.363 . S
C3482 C3483 1.363 . S
C3482 C3487 1.379 1_655 S
C3482 N3489 1.356 . S
C3483 C3482 1.363 . S
C3483 C3486 1.363 . S
N3484 C3486 1.356 . S
N3484 H3496 0.984 . S
N3484 H3497 0.985 . S
N3485 C3487 1.356 . S
N3485 H3490 0.984 . S
N3485 H3491 0.985 . S
C3486 C3480 1.379 1_655 S
C3486 C3483 1.363 . S
C3486 N3484 1.356 . S
C3487 C3481 1.363 . S
C3487 C3482 1.379 1_455 S
C3487 N3485 1.356 . S
N3488 C3480 1.356 . S
N3488 H3494 0.984 . S
N3488 H3495 0.984 . S
N3489 C3482 1.356 . S
N3489 H3492 0.984 . S
N3489 H3493 0.985 . S
H3490 N3485 0.984 . S
H3491 N3485 0.985 . S
H3492 N3489 0.984 . S
H3493 N3489 0.985 . S
H3494 N3488 0.984 . S
H3495 N3488 0.984 . S
H3496 N3484 0.984 . S
H3497 N3484 0.985 . S
C3498 C3499 1.363 . S
C3498 C3504 1.379 . S
C3498 N3506 1.356 . S
C3499 C3498 1.363 . S
C3499 C3505 1.363 . S
C3500 C3501 1.363 . S
C3500 C3505 1.379 . S
C3500 N3507 1.356 . S
C3501 C3500 1.363 . S
C3501 C3504 1.363 . S
N3502 C3504 1.356 . S
N3502 H3514 0.984 . S
N3502 H3515 0.985 . S
N3503 C3505 1.356 . S
N3503 H3508 0.984 . S
N3503 H3509 0.985 . S
C3504 C3498 1.379 . S
C3504 C3501 1.363 . S
C3504 N3502 1.356 . S
C3505 C3499 1.363 . S
C3505 C3500 1.379 . S
C3505 N3503 1.356 . S
N3506 C3498 1.356 . S
N3506 H3512 0.984 . S
N3506 H3513 0.984 . S
N3507 C3500 1.356 . S
N3507 H3510 0.984 . S
N3507 H3511 0.985 . S
H3508 N3503 0.984 . S
H3509 N3503 0.985 . S
H3510 N3507 0.984 . S
H3511 N3507 0.985 . S
H3512 N3506 0.984 . S
H3513 N3506 0.984 . S
H3514 N3502 0.984 . S
H3515 N3502 0.985 . S
C3516 C3517 1.363 . S
C3516 C3522 1.379 . S
C3516 N3524 1.356 . S
C3517 C3516 1.363 . S
C3517 C3523 1.363 . S
C3518 C3519 1.363 . S
C3518 C3523 1.379 . S
C3518 N3525 1.356 . S
C3519 C3518 1.363 . S
C3519 C3522 1.363 . S
N3520 C3522 1.356 . S
N3520 H3532 0.984 . S
N3520 H3533 0.985 . S
N3521 C3523 1.356 . S
N3521 H3526 0.984 . S
N3521 H3527 0.985 . S
C3522 C3516 1.379 . S
C3522 C3519 1.363 . S
C3522 N3520 1.356 . S
C3523 C3517 1.363 . S
C3523 C3518 1.379 . S
C3523 N3521 1.356 . S
N3524 C3516 1.356 . S
N3524 H3530 0.984 . S
N3524 H3531 0.984 . S
N3525 C3518 1.356 . S
N3525 H3528 0.984 . S
N3525 H3529 0.985 . S
H3526 N3521 0.984 . S
H3527 N3521 0.985 . S
H3528 N3525 0.984 . S
H3529 N3525 0.985 . S
H3530 N3524 0.984 . S
H3531 N3524 0.984 . S
H3532 N3520 0.984 . S
H3533 N3520 0.985 . S
C3534 C3535 1.363 1_655 S
C3534 C3540 1.379 . S
C3534 N3542 1.356 . S
C3535 C3534 1.363 1_455 S
C3535 C3541 1.363 . S
C3536 C3537 1.363 1_455 S
C3536 C3541 1.379 . S
C3536 N3543 1.356 . S
C3537 C3536 1.363 1_655 S
C3537 C3540 1.363 . S
N3538 C3540 1.356 . S
N3538 H3550 0.984 . S
N3538 H3551 0.985 . S
N3539 C3541 1.356 . S
N3539 H3544 0.984 . S
N3539 H3545 0.985 . S
C3540 C3534 1.379 . S
C3540 C3537 1.363 . S
C3540 N3538 1.356 . S
C3541 C3535 1.363 . S
C3541 C3536 1.379 . S
C3541 N3539 1.356 . S
N3542 C3534 1.356 . S
N3542 H3548 0.984 . S
N3542 H3549 0.984 . S
N3543 C3536 1.356 . S
N3543 H3546 0.984 . S
N3543 H3547 0.985 . S
H3544 N3539 0.984 . S
H3545 N3539 0.985 . S
H3546 N3543 0.984 . S
H3547 N3543 0.985 . S
H3548 N3542 0.984 . S
H3549 N3542 0.984 . S
H3550 N3538 0.984 . S
H3551 N3538 0.985 . S
C3552 C3553 1.363 . S
C3552 C3558 1.379 . S
C3552 N3560 1.356 . S
C3553 C3552 1.363 . S
C3553 C3559 1.363 . S
C3554 C3555 1.363 . S
C3554 C3559 1.379 . S
C3554 N3561 1.356 . S
C3555 C3554 1.363 . S
C3555 C3558 1.363 . S
N3556 C3558 1.356 . S
N3556 H3568 0.984 . S
N3556 H3569 0.985 . S
N3557 C3559 1.356 . S
N3557 H3562 0.984 . S
N3557 H3563 0.985 . S
C3558 C3552 1.379 . S
C3558 C3555 1.363 . S
C3558 N3556 1.356 . S
C3559 C3553 1.363 . S
C3559 C3554 1.379 . S
C3559 N3557 1.356 . S
N3560 C3552 1.356 . S
N3560 H3566 0.984 . S
N3560 H3567 0.984 . S
N3561 C3554 1.356 . S
N3561 H3564 0.984 . S
N3561 H3565 0.985 . S
H3562 N3557 0.984 . S
H3563 N3557 0.985 . S
H3564 N3561 0.984 . S
H3565 N3561 0.985 . S
H3566 N3560 0.984 . S
H3567 N3560 0.984 . S
H3568 N3556 0.984 . S
H3569 N3556 0.985 . S
C3570 C3571 1.363 1_455 S
C3570 C3576 1.379 . S
C3570 N3578 1.356 . S
C3571 C3570 1.363 1_655 S
C3571 C3577 1.363 1_545 S
C3572 C3573 1.363 1_655 S
C3572 C3577 1.379 . S
C3572 N3579 1.356 . S
C3573 C3572 1.363 1_455 S
C3573 C3576 1.363 1_565 S
N3574 C3576 1.356 . S
N3574 H3586 0.984 . S
N3574 H3587 0.985 . S
N3575 C3577 1.356 . S
N3575 H3580 0.984 . S
N3575 H3581 0.985 . S
C3576 C3570 1.379 . S
C3576 C3573 1.363 1_545 S
C3576 N3574 1.356 . S
C3577 C3571 1.363 1_565 S
C3577 C3572 1.379 . S
C3577 N3575 1.356 . S
N3578 C3570 1.356 . S
N3578 H3584 0.984 . S
N3578 H3585 0.984 . S
N3579 C3572 1.356 . S
N3579 H3582 0.984 . S
N3579 H3583 0.985 . S
H3580 N3575 0.984 . S
H3581 N3575 0.985 . S
H3582 N3579 0.984 . S
H3583 N3579 0.985 . S
H3584 N3578 0.984 . S
H3585 N3578 0.984 . S
H3586 N3574 0.984 . S
H3587 N3574 0.985 . S
C3588 C3589 1.363 . S
C3588 C3594 1.379 . S
C3588 N3596 1.356 . S
C3589 C3588 1.363 . S
C3589 C3595 1.363 . S
C3590 C3591 1.363 . S
C3590 C3595 1.379 . S
C3590 N3597 1.356 . S
C3591 C3590 1.363 . S
C3591 C3594 1.363 . S
N3592 C3594 1.356 . S
N3592 H3604 0.984 . S
N3592 H3605 0.985 . S
N3593 C3595 1.356 . S
N3593 H3598 0.984 . S
N3593 H3599 0.985 . S
C3594 C3588 1.379 . S
C3594 C3591 1.363 . S
C3594 N3592 1.356 . S
C3595 C3589 1.363 . S
C3595 C3590 1.379 . S
C3595 N3593 1.356 . S
N3596 C3588 1.356 . S
N3596 H3602 0.984 . S
N3596 H3603 0.984 . S
N3597 C3590 1.356 . S
N3597 H3600 0.984 . S
N3597 H3601 0.985 . S
H3598 N3593 0.984 . S
H3599 N3593 0.985 . S
H3600 N3597 0.984 . S
H3601 N3597 0.985 . S
H3602 N3596 0.984 . S
H3603 N3596 0.984 . S
H3604 N3592 0.984 . S
H3605 N3592 0.985 . S
C3606 C3607 1.363 1_565 S
C3606 C3612 1.379 1_554 S
C3606 N3614 1.356 . S
C3607 C3606 1.363 1_545 S
C3607 C3613 1.363 . S
C3608 C3609 1.363 1_545 S
C3608 C3613 1.379 1_556 S
C3608 N3615 1.356 . S
C3609 C3608 1.363 1_565 S
C3609 C3612 1.363 . S
N3610 C3612 1.356 . S
N3610 H3622 0.984 . S
N3610 H3623 0.985 . S
N3611 C3613 1.356 . S
N3611 H3616 0.984 . S
N3611 H3617 0.985 . S
C3612 C3606 1.379 1_556 S
C3612 C3609 1.363 . S
C3612 N3610 1.356 . S
C3613 C3607 1.363 . S
C3613 C3608 1.379 1_554 S
C3613 N3611 1.356 . S
N3614 C3606 1.356 . S
N3614 H3620 0.984 . S
N3614 H3621 0.984 . S
N3615 C3608 1.356 . S
N3615 H3618 0.984 . S
N3615 H3619 0.985 . S
H3616 N3611 0.984 . S
H3617 N3611 0.985 . S
H3618 N3615 0.984 . S
H3619 N3615 0.985 . S
H3620 N3614 0.984 . S
H3621 N3614 0.984 . S
H3622 N3610 0.984 . S
H3623 N3610 0.985 . S
C3624 C3625 1.363 . S
C3624 C3630 1.379 . S
C3624 N3632 1.356 . S
C3625 C3624 1.363 . S
C3625 C3631 1.363 . S
C3626 C3627 1.363 . S
C3626 C3631 1.379 . S
C3626 N3633 1.356 . S
C3627 C3626 1.363 . S
C3627 C3630 1.363 . S
N3628 C3630 1.356 . S
N3628 H3640 0.984 . S
N3628 H3641 0.985 . S
N3629 C3631 1.356 . S
N3629 H3634 0.984 . S
N3629 H3635 0.985 . S
C3630 C3624 1.379 . S
C3630 C3627 1.363 . S
C3630 N3628 1.356 . S
C3631 C3625 1.363 . S
C3631 C3626 1.379 . S
C3631 N3629 1.356 . S
N3632 C3624 1.356 . S
N3632 H3638 0.984 . S
N3632 H3639 0.984 . S
N3633 C3626 1.356 . S
N3633 H3636 0.984 . S
N3633 H3637 0.985 . S
H3634 N3629 0.984 . S
H3635 N3629 0.985 . S
H3636 N3633 0.984 . S
H3637 N3633 0.985 . S
H3638 N3632 0.984 . S
H3639 N3632 0.984 . S
H3640 N3628 0.984 . S
H3641 N3628 0.985 . S
C3642 C3643 1.363 1_565 S
C3642 C3648 1.379 . S
C3642 N3650 1.356 . S
C3643 C3642 1.363 1_545 S
C3643 C3649 1.363 . S
C3644 C3645 1.363 1_545 S
C3644 C3649 1.379 . S
C3644 N3651 1.356 . S
C3645 C3644 1.363 1_565 S
C3645 C3648 1.363 . S
N3646 C3648 1.356 . S
N3646 H3658 0.984 . S
N3646 H3659 0.985 . S
N3647 C3649 1.356 . S
N3647 H3652 0.984 . S
N3647 H3653 0.985 . S
C3648 C3642 1.379 . S
C3648 C3645 1.363 . S
C3648 N3646 1.356 . S
C3649 C3643 1.363 . S
C3649 C3644 1.379 . S
C3649 N3647 1.356 . S
N3650 C3642 1.356 . S
N3650 H3656 0.984 . S
N3650 H3657 0.984 . S
N3651 C3644 1.356 . S
N3651 H3654 0.984 . S
N3651 H3655 0.985 . S
H3652 N3647 0.984 . S
H3653 N3647 0.985 . S
H3654 N3651 0.984 . S
H3655 N3651 0.985 . S
H3656 N3650 0.984 . S
H3657 N3650 0.984 . S
H3658 N3646 0.984 . S
H3659 N3646 0.985 . S
C3660 C3661 1.363 . S
C3660 C3666 1.379 . S
C3660 N3668 1.356 . S
C3661 C3660 1.363 . S
C3661 C3667 1.363 . S
C3662 C3663 1.363 . S
C3662 C3667 1.379 . S
C3662 N3669 1.356 . S
C3663 C3662 1.363 . S
C3663 C3666 1.363 . S
N3664 C3666 1.356 . S
N3664 H3676 0.984 . S
N3664 H3677 0.985 . S
N3665 C3667 1.356 . S
N3665 H3670 0.984 . S
N3665 H3671 0.985 . S
C3666 C3660 1.379 . S
C3666 C3663 1.363 . S
C3666 N3664 1.356 . S
C3667 C3661 1.363 . S
C3667 C3662 1.379 . S
C3667 N3665 1.356 . S
N3668 C3660 1.356 . S
N3668 H3674 0.984 . S
N3668 H3675 0.984 . S
N3669 C3662 1.356 . S
N3669 H3672 0.984 . S
N3669 H3673 0.985 . S
H3670 N3665 0.984 . S
H3671 N3665 0.985 . S
H3672 N3669 0.984 . S
H3673 N3669 0.985 . S
H3674 N3668 0.984 . S
H3675 N3668 0.984 . S
H3676 N3664 0.984 . S
H3677 N3664 0.985 . S
C3678 C3679 1.363 . S
C3678 C3684 1.379 1_556 S
C3678 N3686 1.356 . S
C3679 C3678 1.363 . S
C3679 C3685 1.363 1_445 S
C3680 C3681 1.363 . S
C3680 C3685 1.379 1_554 S
C3680 N3687 1.356 . S
C3681 C3680 1.363 . S
C3681 C3684 1.363 1_665 S
N3682 C3684 1.356 . S
N3682 H3694 0.984 . S
N3682 H3695 0.985 . S
N3683 C3685 1.356 . S
N3683 H3688 0.984 . S
N3683 H3689 0.985 . S
C3684 C3678 1.379 1_554 S
C3684 C3681 1.363 1_445 S
C3684 N3682 1.356 . S
C3685 C3679 1.363 1_665 S
C3685 C3680 1.379 1_556 S
C3685 N3683 1.356 . S
N3686 C3678 1.356 . S
N3686 H3692 0.984 . S
N3686 H3693 0.984 . S
N3687 C3680 1.356 . S
N3687 H3690 0.984 . S
N3687 H3691 0.985 . S
H3688 N3683 0.984 . S
H3689 N3683 0.985 . S
H3690 N3687 0.984 . S
H3691 N3687 0.985 . S
H3692 N3686 0.984 . S
H3693 N3686 0.984 . S
H3694 N3682 0.984 . S
H3695 N3682 0.985 . S
C3696 C3697 1.363 . S
C3696 C3702 1.379 . S
C3696 N3704 1.356 . S
C3697 C3696 1.363 . S
C3697 C3703 1.363 . S
C3698 C3699 1.363 . S
C3698 C3703 1.379 . S
C3698 N3705 1.356 . S
C3699 C3698 1.363 . S
C3699 C3702 1.363 . S
N3700 C3702 1.356 . S
N3700 H3712 0.984 . S
N3700 H3713 0.985 . S
N3701 C3703 1.356 . S
N3701 H3706 0.984 . S
N3701 H3707 0.985 . S
C3702 C3696 1.379 . S
C3702 C3699 1.363 . S
C3702 N3700 1.356 . S
C3703 C3697 1.363 . S
C3703 C3698 1.379 . S
C3703 N3701 1.356 . S
N3704 C3696 1.356 . S
N3704 H3710 0.984 . S
N3704 H3711 0.984 . S
N3705 C3698 1.356 . S
N3705 H3708 0.984 . S
N3705 H3709 0.985 . S
H3706 N3701 0.984 . S
H3707 N3701 0.985 . S
H3708 N3705 0.984 . S
H3709 N3705 0.985 . S
H3710 N3704 0.984 . S
H3711 N3704 0.984 . S
H3712 N3700 0.984 . S
H3713 N3700 0.985 . S
C3714 C3715 1.363 . S
C3714 C3720 1.379 . S
C3714 N3722 1.356 . S
C3715 C3714 1.363 . S
C3715 C3721 1.363 . S
C3716 C3717 1.363 . S
C3716 C3721 1.379 . S
C3716 N3723 1.356 . S
C3717 C3716 1.363 . S
C3717 C3720 1.363 . S
N3718 C3720 1.356 . S
N3718 H3730 0.984 . S
N3718 H3731 0.985 . S
N3719 C3721 1.356 . S
N3719 H3724 0.984 . S
N3719 H3725 0.985 . S
C3720 C3714 1.379 . S
C3720 C3717 1.363 . S
C3720 N3718 1.356 . S
C3721 C3715 1.363 . S
C3721 C3716 1.379 . S
C3721 N3719 1.356 . S
N3722 C3714 1.356 . S
N3722 H3728 0.984 . S
N3722 H3729 0.984 . S
N3723 C3716 1.356 . S
N3723 H3726 0.984 . S
N3723 H3727 0.985 . S
H3724 N3719 0.984 . S
H3725 N3719 0.985 . S
H3726 N3723 0.984 . S
H3727 N3723 0.985 . S
H3728 N3722 0.984 . S
H3729 N3722 0.984 . S
H3730 N3718 0.984 . S
H3731 N3718 0.985 . S
C3732 C3733 1.363 . S
C3732 C3738 1.379 . S
C3732 N3740 1.356 . S
C3733 C3732 1.363 . S
C3733 C3739 1.363 . S
C3734 C3735 1.363 . S
C3734 C3739 1.379 . S
C3734 N3741 1.356 . S
C3735 C3734 1.363 . S
C3735 C3738 1.363 . S
N3736 C3738 1.356 . S
N3736 H3748 0.984 . S
N3736 H3749 0.985 . S
N3737 C3739 1.356 . S
N3737 H3742 0.984 . S
N3737 H3743 0.985 . S
C3738 C3732 1.379 . S
C3738 C3735 1.363 . S
C3738 N3736 1.356 . S
C3739 C3733 1.363 . S
C3739 C3734 1.379 . S
C3739 N3737 1.356 . S
N3740 C3732 1.356 . S
N3740 H3746 0.984 . S
N3740 H3747 0.984 . S
N3741 C3734 1.356 . S
N3741 H3744 0.984 . S
N3741 H3745 0.985 . S
H3742 N3737 0.984 . S
H3743 N3737 0.985 . S
H3744 N3741 0.984 . S
H3745 N3741 0.985 . S
H3746 N3740 0.984 . S
H3747 N3740 0.984 . S
H3748 N3736 0.984 . S
H3749 N3736 0.985 . S
C3750 C3751 1.363 . S
C3750 C3756 1.379 . S
C3750 N3758 1.356 . S
C3751 C3750 1.363 . S
C3751 C3757 1.363 . S
C3752 C3753 1.363 . S
C3752 C3757 1.379 . S
C3752 N3759 1.356 . S
C3753 C3752 1.363 . S
C3753 C3756 1.363 . S
N3754 C3756 1.356 . S
N3754 H3766 0.984 . S
N3754 H3767 0.985 . S
N3755 C3757 1.356 . S
N3755 H3760 0.984 . S
N3755 H3761 0.985 . S
C3756 C3750 1.379 . S
C3756 C3753 1.363 . S
C3756 N3754 1.356 . S
C3757 C3751 1.363 . S
C3757 C3752 1.379 . S
C3757 N3755 1.356 . S
N3758 C3750 1.356 . S
N3758 H3764 0.984 . S
N3758 H3765 0.984 . S
N3759 C3752 1.356 . S
N3759 H3762 0.984 . S
N3759 H3763 0.985 . S
H3760 N3755 0.984 . S
H3761 N3755 0.985 . S
H3762 N3759 0.984 . S
H3763 N3759 0.985 . S
H3764 N3758 0.984 . S
H3765 N3758 0.984 . S
H3766 N3754 0.984 . S
H3767 N3754 0.985 . S
C3768 C3769 1.363 . S
C3768 C3774 1.379 1_554 S
C3768 N3776 1.356 . S
C3769 C3768 1.363 . S
C3769 C3775 1.363 . S
C3770 C3771 1.363 . S
C3770 C3775 1.379 1_556 S
C3770 N3777 1.356 . S
C3771 C3770 1.363 . S
C3771 C3774 1.363 . S
N3772 C3774 1.356 . S
N3772 H3784 0.984 . S
N3772 H3785 0.985 . S
N3773 C3775 1.356 . S
N3773 H3778 0.984 . S
N3773 H3779 0.985 . S
C3774 C3768 1.379 1_556 S
C3774 C3771 1.363 . S
C3774 N3772 1.356 . S
C3775 C3769 1.363 . S
C3775 C3770 1.379 1_554 S
C3775 N3773 1.356 . S
N3776 C3768 1.356 . S
N3776 H3782 0.984 . S
N3776 H3783 0.984 . S
N3777 C3770 1.356 . S
N3777 H3780 0.984 . S
N3777 H3781 0.985 . S
H3778 N3773 0.984 . S
H3779 N3773 0.985 . S
H3780 N3777 0.984 . S
H3781 N3777 0.985 . S
H3782 N3776 0.984 . S
H3783 N3776 0.984 . S
H3784 N3772 0.984 . S
H3785 N3772 0.985 . S
C3786 C3787 1.363 1_455 S
C3786 C3792 1.379 . S
C3786 N3794 1.356 . S
C3787 C3786 1.363 1_655 S
C3787 C3793 1.363 . S
C3788 C3789 1.363 1_655 S
C3788 C3793 1.379 . S
C3788 N3795 1.356 . S
C3789 C3788 1.363 1_455 S
C3789 C3792 1.363 . S
N3790 C3792 1.356 . S
N3790 H3802 0.984 . S
N3790 H3803 0.985 . S
N3791 C3793 1.356 . S
N3791 H3796 0.984 . S
N3791 H3797 0.985 . S
C3792 C3786 1.379 . S
C3792 C3789 1.363 . S
C3792 N3790 1.356 . S
C3793 C3787 1.363 . S
C3793 C3788 1.379 . S
C3793 N3791 1.356 . S
N3794 C3786 1.356 . S
N3794 H3800 0.984 . S
N3794 H3801 0.984 . S
N3795 C3788 1.356 . S
N3795 H3798 0.984 . S
N3795 H3799 0.985 . S
H3796 N3791 0.984 . S
H3797 N3791 0.985 . S
H3798 N3795 0.984 . S
H3799 N3795 0.985 . S
H3800 N3794 0.984 . S
H3801 N3794 0.984 . S
H3802 N3790 0.984 . S
H3803 N3790 0.985 . S
C3804 C3805 1.363 1_655 S
C3804 C3810 1.379 1_554 S
C3804 N3812 1.356 . S
C3805 C3804 1.363 1_455 S
C3805 C3811 1.363 . S
C3806 C3807 1.363 1_455 S
C3806 C3811 1.379 1_556 S
C3806 N3813 1.356 . S
C3807 C3806 1.363 1_655 S
C3807 C3810 1.363 . S
N3808 C3810 1.356 . S
N3808 H3820 0.984 . S
N3808 H3821 0.985 . S
N3809 C3811 1.356 . S
N3809 H3814 0.984 . S
N3809 H3815 0.985 . S
C3810 C3804 1.379 1_556 S
C3810 C3807 1.363 . S
C3810 N3808 1.356 . S
C3811 C3805 1.363 . S
C3811 C3806 1.379 1_554 S
C3811 N3809 1.356 . S
N3812 C3804 1.356 . S
N3812 H3818 0.984 . S
N3812 H3819 0.984 . S
N3813 C3806 1.356 . S
N3813 H3816 0.984 . S
N3813 H3817 0.985 . S
H3814 N3809 0.984 . S
H3815 N3809 0.985 . S
H3816 N3813 0.984 . S
H3817 N3813 0.985 . S
H3818 N3812 0.984 . S
H3819 N3812 0.984 . S
H3820 N3808 0.984 . S
H3821 N3808 0.985 . S
C3822 C3823 1.363 . S
C3822 C3828 1.379 . S
C3822 N3830 1.356 . S
C3823 C3822 1.363 . S
C3823 C3829 1.363 . S
C3824 C3825 1.363 . S
C3824 C3829 1.379 . S
C3824 N3831 1.356 . S
C3825 C3824 1.363 . S
C3825 C3828 1.363 . S
N3826 C3828 1.356 . S
N3826 H3838 0.984 . S
N3826 H3839 0.985 . S
N3827 C3829 1.356 . S
N3827 H3832 0.984 . S
N3827 H3833 0.985 . S
C3828 C3822 1.379 . S
C3828 C3825 1.363 . S
C3828 N3826 1.356 . S
C3829 C3823 1.363 . S
C3829 C3824 1.379 . S
C3829 N3827 1.356 . S
N3830 C3822 1.356 . S
N3830 H3836 0.984 . S
N3830 H3837 0.984 . S
N3831 C3824 1.356 . S
N3831 H3834 0.984 . S
N3831 H3835 0.985 . S
H3832 N3827 0.984 . S
H3833 N3827 0.985 . S
H3834 N3831 0.984 . S
H3835 N3831 0.985 . S
H3836 N3830 0.984 . S
H3837 N3830 0.984 . S
H3838 N3826 0.984 . S
H3839 N3826 0.985 . S
C3840 C3841 1.363 . S
C3840 C3846 1.379 . S
C3840 N3848 1.356 . S
C3841 C3840 1.363 . S
C3841 C3847 1.363 . S
C3842 C3843 1.363 . S
C3842 C3847 1.379 . S
C3842 N3849 1.356 . S
C3843 C3842 1.363 . S
C3843 C3846 1.363 . S
N3844 C3846 1.356 . S
N3844 H3856 0.984 . S
N3844 H3857 0.985 . S
N3845 C3847 1.356 . S
N3845 H3850 0.984 . S
N3845 H3851 0.985 . S
C3846 C3840 1.379 . S
C3846 C3843 1.363 . S
C3846 N3844 1.356 . S
C3847 C3841 1.363 . S
C3847 C3842 1.379 . S
C3847 N3845 1.356 . S
N3848 C3840 1.356 . S
N3848 H3854 0.984 . S
N3848 H3855 0.984 . S
N3849 C3842 1.356 . S
N3849 H3852 0.984 . S
N3849 H3853 0.985 . S
H3850 N3845 0.984 . S
H3851 N3845 0.985 . S
H3852 N3849 0.984 . S
H3853 N3849 0.985 . S
H3854 N3848 0.984 . S
H3855 N3848 0.984 . S
H3856 N3844 0.984 . S
H3857 N3844 0.985 . S
C3858 C3859 1.363 . S
C3858 C3864 1.379 . S
C3858 N3866 1.356 . S
C3859 C3858 1.363 . S
C3859 C3865 1.363 . S
C3860 C3861 1.363 . S
C3860 C3865 1.379 . S
C3860 N3867 1.356 . S
C3861 C3860 1.363 . S
C3861 C3864 1.363 . S
N3862 C3864 1.356 . S
N3862 H3874 0.984 . S
N3862 H3875 0.985 . S
N3863 C3865 1.356 . S
N3863 H3868 0.984 . S
N3863 H3869 0.985 . S
C3864 C3858 1.379 . S
C3864 C3861 1.363 . S
C3864 N3862 1.356 . S
C3865 C3859 1.363 . S
C3865 C3860 1.379 . S
C3865 N3863 1.356 . S
N3866 C3858 1.356 . S
N3866 H3872 0.984 . S
N3866 H3873 0.984 . S
N3867 C3860 1.356 . S
N3867 H3870 0.984 . S
N3867 H3871 0.985 . S
H3868 N3863 0.984 . S
H3869 N3863 0.985 . S
H3870 N3867 0.984 . S
H3871 N3867 0.985 . S
H3872 N3866 0.984 . S
H3873 N3866 0.984 . S
H3874 N3862 0.984 . S
H3875 N3862 0.985 . S
C3876 C3877 1.363 . S
C3876 C3882 1.379 . S
C3876 N3884 1.356 . S
C3877 C3876 1.363 . S
C3877 C3883 1.363 . S
C3878 C3879 1.363 . S
C3878 C3883 1.379 . S
C3878 N3885 1.356 . S
C3879 C3878 1.363 . S
C3879 C3882 1.363 . S
N3880 C3882 1.356 . S
N3880 H3892 0.984 . S
N3880 H3893 0.985 . S
N3881 C3883 1.356 . S
N3881 H3886 0.984 . S
N3881 H3887 0.985 . S
C3882 C3876 1.379 . S
C3882 C3879 1.363 . S
C3882 N3880 1.356 . S
C3883 C3877 1.363 . S
C3883 C3878 1.379 . S
C3883 N3881 1.356 . S
N3884 C3876 1.356 . S
N3884 H3890 0.984 . S
N3884 H3891 0.984 . S
N3885 C3878 1.356 . S
N3885 H3888 0.984 . S
N3885 H3889 0.985 . S
H3886 N3881 0.984 . S
H3887 N3881 0.985 . S
H3888 N3885 0.984 . S
H3889 N3885 0.985 . S
H3890 N3884 0.984 . S
H3891 N3884 0.984 . S
H3892 N3880 0.984 . S
H3893 N3880 0.985 . S
C3894 C3895 1.363 . S
C3894 C3900 1.379 . S
C3894 N3902 1.356 . S
C3895 C3894 1.363 . S
C3895 C3901 1.363 . S
C3896 C3897 1.363 . S
C3896 C3901 1.379 . S
C3896 N3903 1.356 . S
C3897 C3896 1.363 . S
C3897 C3900 1.363 . S
N3898 C3900 1.356 . S
N3898 H3910 0.984 1_565 S
N3898 H3911 0.985 . S
N3899 C3901 1.356 . S
N3899 H3904 0.984 . S
N3899 H3905 0.985 . S
C3900 C3894 1.379 . S
C3900 C3897 1.363 . S
C3900 N3898 1.356 . S
C3901 C3895 1.363 . S
C3901 C3896 1.379 . S
C3901 N3899 1.356 . S
N3902 C3894 1.356 . S
N3902 H3908 0.984 . S
N3902 H3909 0.984 . S
N3903 C3896 1.356 . S
N3903 H3906 0.984 . S
N3903 H3907 0.985 . S
H3904 N3899 0.984 . S
H3905 N3899 0.985 . S
H3906 N3903 0.984 . S
H3907 N3903 0.985 . S
H3908 N3902 0.984 . S
H3909 N3902 0.984 . S
H3910 N3898 0.984 1_545 S
H3911 N3898 0.985 . S
C3912 C3913 1.363 . S
C3912 C3918 1.379 . S
C3912 N3920 1.356 . S
C3913 C3912 1.363 . S
C3913 C3919 1.363 . S
C3914 C3915 1.363 . S
C3914 C3919 1.379 . S
C3914 N3921 1.356 . S
C3915 C3914 1.363 . S
C3915 C3918 1.363 . S
N3916 C3918 1.356 . S
N3916 H3928 0.984 . S
N3916 H3929 0.985 . S
N3917 C3919 1.356 . S
N3917 H3922 0.984 . S
N3917 H3923 0.985 . S
C3918 C3912 1.379 . S
C3918 C3915 1.363 . S
C3918 N3916 1.356 . S
C3919 C3913 1.363 . S
C3919 C3914 1.379 . S
C3919 N3917 1.356 . S
N3920 C3912 1.356 . S
N3920 H3926 0.984 . S
N3920 H3927 0.984 . S
N3921 C3914 1.356 . S
N3921 H3924 0.984 . S
N3921 H3925 0.985 . S
H3922 N3917 0.984 . S
H3923 N3917 0.985 . S
H3924 N3921 0.984 . S
H3925 N3921 0.985 . S
H3926 N3920 0.984 . S
H3927 N3920 0.984 . S
H3928 N3916 0.984 . S
H3929 N3916 0.985 . S
C3930 C3931 1.363 . S
C3930 C3936 1.379 . S
C3930 N3938 1.356 . S
C3931 C3930 1.363 . S
C3931 C3937 1.363 . S
C3932 C3933 1.363 . S
C3932 C3937 1.379 . S
C3932 N3939 1.356 . S
C3933 C3932 1.363 . S
C3933 C3936 1.363 . S
N3934 C3936 1.356 . S
N3934 H3946 0.984 . S
N3934 H3947 0.985 . S
N3935 C3937 1.356 . S
N3935 H3940 0.984 . S
N3935 H3941 0.985 . S
C3936 C3930 1.379 . S
C3936 C3933 1.363 . S
C3936 N3934 1.356 . S
C3937 C3931 1.363 . S
C3937 C3932 1.379 . S
C3937 N3935 1.356 . S
N3938 C3930 1.356 . S
N3938 H3944 0.984 1_565 S
N3938 H3945 0.984 . S
N3939 C3932 1.356 . S
N3939 H3942 0.984 . S
N3939 H3943 0.985 . S
H3940 N3935 0.984 . S
H3941 N3935 0.985 . S
H3942 N3939 0.984 . S
H3943 N3939 0.985 . S
H3944 N3938 0.984 1_545 S
H3945 N3938 0.984 . S
H3946 N3934 0.984 . S
H3947 N3934 0.985 . S
C3948 C3949 1.363 . S
C3948 C3954 1.379 . S
C3948 N3956 1.356 . S
C3949 C3948 1.363 . S
C3949 C3955 1.363 . S
C3950 C3951 1.363 . S
C3950 C3955 1.379 . S
C3950 N3957 1.356 . S
C3951 C3950 1.363 . S
C3951 C3954 1.363 . S
N3952 C3954 1.356 . S
N3952 H3964 0.984 . S
N3952 H3965 0.985 . S
N3953 C3955 1.356 . S
N3953 H3958 0.984 . S
N3953 H3959 0.985 . S
C3954 C3948 1.379 . S
C3954 C3951 1.363 . S
C3954 N3952 1.356 . S
C3955 C3949 1.363 . S
C3955 C3950 1.379 . S
C3955 N3953 1.356 . S
N3956 C3948 1.356 . S
N3956 H3962 0.984 . S
N3956 H3963 0.984 . S
N3957 C3950 1.356 . S
N3957 H3960 0.984 . S
N3957 H3961 0.985 . S
H3958 N3953 0.984 . S
H3959 N3953 0.985 . S
H3960 N3957 0.984 . S
H3961 N3957 0.985 . S
H3962 N3956 0.984 . S
H3963 N3956 0.984 . S
H3964 N3952 0.984 . S
H3965 N3952 0.985 . S
C3966 C3967 1.363 . S
C3966 C3972 1.379 . S
C3966 N3974 1.356 . S
C3967 C3966 1.363 . S
C3967 C3973 1.363 . S
C3968 C3969 1.363 . S
C3968 C3973 1.379 . S
C3968 N3975 1.356 . S
C3969 C3968 1.363 . S
C3969 C3972 1.363 . S
N3970 C3972 1.356 . S
N3970 H3982 0.984 . S
N3970 H3983 0.985 . S
N3971 C3973 1.356 . S
N3971 H3976 0.984 . S
N3971 H3977 0.985 . S
C3972 C3966 1.379 . S
C3972 C3969 1.363 . S
C3972 N3970 1.356 . S
C3973 C3967 1.363 . S
C3973 C3968 1.379 . S
C3973 N3971 1.356 . S
N3974 C3966 1.356 . S
N3974 H3980 0.984 . S
N3974 H3981 0.984 . S
N3975 C3968 1.356 . S
N3975 H3978 0.984 . S
N3975 H3979 0.985 . S
H3976 N3971 0.984 . S
H3977 N3971 0.985 . S
H3978 N3975 0.984 . S
H3979 N3975 0.985 . S
H3980 N3974 0.984 . S
H3981 N3974 0.984 . S
H3982 N3970 0.984 . S
H3983 N3970 0.985 . S
C3984 C3985 1.363 . S
C3984 C3990 1.379 . S
C3984 N3992 1.356 . S
C3985 C3984 1.363 . S
C3985 C3991 1.363 . S
C3986 C3987 1.363 . S
C3986 C3991 1.379 . S
C3986 N3993 1.356 . S
C3987 C3986 1.363 . S
C3987 C3990 1.363 . S
N3988 C3990 1.356 . S
N3988 H4000 0.984 . S
N3988 H4001 0.985 . S
N3989 C3991 1.356 . S
N3989 H3994 0.984 . S
N3989 H3995 0.985 . S
C3990 C3984 1.379 . S
C3990 C3987 1.363 . S
C3990 N3988 1.356 . S
C3991 C3985 1.363 . S
C3991 C3986 1.379 . S
C3991 N3989 1.356 . S
N3992 C3984 1.356 . S
N3992 H3998 0.984 . S
N3992 H3999 0.984 . S
N3993 C3986 1.356 . S
N3993 H3996 0.984 . S
N3993 H3997 0.985 . S
H3994 N3989 0.984 . S
H3995 N3989 0.985 . S
H3996 N3993 0.984 . S
H3997 N3993 0.985 . S
H3998 N3992 0.984 . S
H3999 N3992 0.984 . S
H4000 N3988 0.984 . S
H4001 N3988 0.985 . S
C4002 C4003 1.363 . S
C4002 C4008 1.379 . S
C4002 N4010 1.356 . S
C4003 C4002 1.363 . S
C4003 C4009 1.363 . S
C4004 C4005 1.363 . S
C4004 C4009 1.379 . S
C4004 N4011 1.356 . S
C4005 C4004 1.363 . S
C4005 C4008 1.363 . S
N4006 C4008 1.356 . S
N4006 H4018 0.984 . S
N4006 H4019 0.985 . S
N4007 C4009 1.356 . S
N4007 H4012 0.984 . S
N4007 H4013 0.985 . S
C4008 C4002 1.379 . S
C4008 C4005 1.363 . S
C4008 N4006 1.356 . S
C4009 C4003 1.363 . S
C4009 C4004 1.379 . S
C4009 N4007 1.356 . S
N4010 C4002 1.356 . S
N4010 H4016 0.984 . S
N4010 H4017 0.984 . S
N4011 C4004 1.356 . S
N4011 H4014 0.984 . S
N4011 H4015 0.985 . S
H4012 N4007 0.984 . S
H4013 N4007 0.985 . S
H4014 N4011 0.984 . S
H4015 N4011 0.985 . S
H4016 N4010 0.984 . S
H4017 N4010 0.984 . S
H4018 N4006 0.984 . S
H4019 N4006 0.985 . S
C4020 C4021 1.363 . S
C4020 C4026 1.379 . S
C4020 N4028 1.356 . S
C4021 C4020 1.363 . S
C4021 C4027 1.363 . S
C4022 C4023 1.363 . S
C4022 C4027 1.379 . S
C4022 N4029 1.356 . S
C4023 C4022 1.363 . S
C4023 C4026 1.363 . S
N4024 C4026 1.356 . S
N4024 H4036 0.984 . S
N4024 H4037 0.985 . S
N4025 C4027 1.356 . S
N4025 H4030 0.984 . S
N4025 H4031 0.985 . S
C4026 C4020 1.379 . S
C4026 C4023 1.363 . S
C4026 N4024 1.356 . S
C4027 C4021 1.363 . S
C4027 C4022 1.379 . S
C4027 N4025 1.356 . S
N4028 C4020 1.356 . S
N4028 H4034 0.984 . S
N4028 H4035 0.984 . S
N4029 C4022 1.356 . S
N4029 H4032 0.984 . S
N4029 H4033 0.985 . S
H4030 N4025 0.984 . S
H4031 N4025 0.985 . S
H4032 N4029 0.984 . S
H4033 N4029 0.985 . S
H4034 N4028 0.984 . S
H4035 N4028 0.984 . S
H4036 N4024 0.984 . S
H4037 N4024 0.985 . S
C4038 C4039 1.363 . S
C4038 C4044 1.379 . S
C4038 N4046 1.356 . S
C4039 C4038 1.363 . S
C4039 C4045 1.363 . S
C4040 C4041 1.363 . S
C4040 C4045 1.379 . S
C4040 N4047 1.356 . S
C4041 C4040 1.363 . S
C4041 C4044 1.363 . S
N4042 C4044 1.356 . S
N4042 H4054 0.984 . S
N4042 H4055 0.985 . S
N4043 C4045 1.356 . S
N4043 H4048 0.984 . S
N4043 H4049 0.985 . S
C4044 C4038 1.379 . S
C4044 C4041 1.363 . S
C4044 N4042 1.356 . S
C4045 C4039 1.363 . S
C4045 C4040 1.379 . S
C4045 N4043 1.356 . S
N4046 C4038 1.356 . S
N4046 H4052 0.984 . S
N4046 H4053 0.984 . S
N4047 C4040 1.356 . S
N4047 H4050 0.984 . S
N4047 H4051 0.985 . S
H4048 N4043 0.984 . S
H4049 N4043 0.985 . S
H4050 N4047 0.984 . S
H4051 N4047 0.985 . S
H4052 N4046 0.984 . S
H4053 N4046 0.984 . S
H4054 N4042 0.984 . S
H4055 N4042 0.985 . S
C4056 C4057 1.363 . S
C4056 C4062 1.379 . S
C4056 N4064 1.356 . S
C4057 C4056 1.363 . S
C4057 C4063 1.363 . S
C4058 C4059 1.363 . S
C4058 C4063 1.379 . S
C4058 N4065 1.356 . S
C4059 C4058 1.363 . S
C4059 C4062 1.363 . S
N4060 C4062 1.356 . S
N4060 H4072 0.984 . S
N4060 H4073 0.985 . S
N4061 C4063 1.356 . S
N4061 H4066 0.984 . S
N4061 H4067 0.985 . S
C4062 C4056 1.379 . S
C4062 C4059 1.363 . S
C4062 N4060 1.356 . S
C4063 C4057 1.363 . S
C4063 C4058 1.379 . S
C4063 N4061 1.356 . S
N4064 C4056 1.356 . S
N4064 H4070 0.984 . S
N4064 H4071 0.984 . S
N4065 C4058 1.356 . S
N4065 H4068 0.984 . S
N4065 H4069 0.985 . S
H4066 N4061 0.984 . S
H4067 N4061 0.985 . S
H4068 N4065 0.984 . S
H4069 N4065 0.985 . S
H4070 N4064 0.984 . S
H4071 N4064 0.984 . S
H4072 N4060 0.984 . S
H4073 N4060 0.985 . S
C4074 C4075 1.363 . S
C4074 C4080 1.379 . S
C4074 N4082 1.356 . S
C4075 C4074 1.363 . S
C4075 C4081 1.363 . S
C4076 C4077 1.363 . S
C4076 C4081 1.379 . S
C4076 N4083 1.356 . S
C4077 C4076 1.363 . S
C4077 C4080 1.363 . S
N4078 C4080 1.356 . S
N4078 H4090 0.984 . S
N4078 H4091 0.985 . S
N4079 C4081 1.356 . S
N4079 H4084 0.984 . S
N4079 H4085 0.985 . S
C4080 C4074 1.379 . S
C4080 C4077 1.363 . S
C4080 N4078 1.356 . S
C4081 C4075 1.363 . S
C4081 C4076 1.379 . S
C4081 N4079 1.356 . S
N4082 C4074 1.356 . S
N4082 H4088 0.984 . S
N4082 H4089 0.984 . S
N4083 C4076 1.356 . S
N4083 H4086 0.984 . S
N4083 H4087 0.985 . S
H4084 N4079 0.984 . S
H4085 N4079 0.985 . S
H4086 N4083 0.984 . S
H4087 N4083 0.985 . S
H4088 N4082 0.984 . S
H4089 N4082 0.984 . S
H4090 N4078 0.984 . S
H4091 N4078 0.985 . S
C4092 C4093 1.363 . S
C4092 C4098 1.379 . S
C4092 N4100 1.356 . S
C4093 C4092 1.363 . S
C4093 C4099 1.363 . S
C4094 C4095 1.363 . S
C4094 C4099 1.379 . S
C4094 N4101 1.356 . S
C4095 C4094 1.363 . S
C4095 C4098 1.363 . S
N4096 C4098 1.356 . S
N4096 H4108 0.984 . S
N4096 H4109 0.985 . S
N4097 C4099 1.356 . S
N4097 H4102 0.984 . S
N4097 H4103 0.985 . S
C4098 C4092 1.379 . S
C4098 C4095 1.363 . S
C4098 N4096 1.356 . S
C4099 C4093 1.363 . S
C4099 C4094 1.379 . S
C4099 N4097 1.356 . S
N4100 C4092 1.356 . S
N4100 H4106 0.984 . S
N4100 H4107 0.984 . S
N4101 C4094 1.356 . S
N4101 H4104 0.984 . S
N4101 H4105 0.985 . S
H4102 N4097 0.984 . S
H4103 N4097 0.985 . S
H4104 N4101 0.984 . S
H4105 N4101 0.985 . S
H4106 N4100 0.984 . S
H4107 N4100 0.984 . S
H4108 N4096 0.984 . S
H4109 N4096 0.985 . S
C4110 C4111 1.363 . S
C4110 C4116 1.379 . S
C4110 N4118 1.356 . S
C4111 C4110 1.363 . S
C4111 C4117 1.363 . S
C4112 C4113 1.363 . S
C4112 C4117 1.379 . S
C4112 N4119 1.356 . S
C4113 C4112 1.363 . S
C4113 C4116 1.363 . S
N4114 C4116 1.356 . S
N4114 H4126 0.984 . S
N4114 H4127 0.985 . S
N4115 C4117 1.356 . S
N4115 H4120 0.984 . S
N4115 H4121 0.985 . S
C4116 C4110 1.379 . S
C4116 C4113 1.363 . S
C4116 N4114 1.356 . S
C4117 C4111 1.363 . S
C4117 C4112 1.379 . S
C4117 N4115 1.356 . S
N4118 C4110 1.356 . S
N4118 H4124 0.984 . S
N4118 H4125 0.984 . S
N4119 C4112 1.356 . S
N4119 H4122 0.984 . S
N4119 H4123 0.985 . S
H4120 N4115 0.984 . S
H4121 N4115 0.985 . S
H4122 N4119 0.984 . S
H4123 N4119 0.985 . S
H4124 N4118 0.984 . S
H4125 N4118 0.984 . S
H4126 N4114 0.984 . S
H4127 N4114 0.985 . S
C4128 C4129 1.363 . S
C4128 C4134 1.379 1_545 S
C4128 N4136 1.356 . S
C4129 C4128 1.363 . S
C4129 C4135 1.363 . S
C4130 C4131 1.363 . S
C4130 C4135 1.379 1_565 S
C4130 N4137 1.356 . S
C4131 C4130 1.363 . S
C4131 C4134 1.363 . S
N4132 C4134 1.356 . S
N4132 H4144 0.984 . S
N4132 H4145 0.985 . S
N4133 C4135 1.356 . S
N4133 H4138 0.984 . S
N4133 H4139 0.985 . S
C4134 C4128 1.379 1_565 S
C4134 C4131 1.363 . S
C4134 N4132 1.356 . S
C4135 C4129 1.363 . S
C4135 C4130 1.379 1_545 S
C4135 N4133 1.356 . S
N4136 C4128 1.356 . S
N4136 H4142 0.984 . S
N4136 H4143 0.984 . S
N4137 C4130 1.356 . S
N4137 H4140 0.984 . S
N4137 H4141 0.985 . S
H4138 N4133 0.984 . S
H4139 N4133 0.985 . S
H4140 N4137 0.984 . S
H4141 N4137 0.985 . S
H4142 N4136 0.984 . S
H4143 N4136 0.984 . S
H4144 N4132 0.984 . S
H4145 N4132 0.985 . S
C4146 C4147 1.363 1_565 S
C4146 C4152 1.379 . S
C4146 N4154 1.356 . S
C4147 C4146 1.363 1_545 S
C4147 C4153 1.363 . S
C4148 C4149 1.363 . S
C4148 C4153 1.379 . S
C4148 N4155 1.356 . S
C4149 C4148 1.363 . S
C4149 C4152 1.363 1_545 S
N4150 C4152 1.356 . S
N4150 H4162 0.984 . S
N4150 H4163 0.985 . S
N4151 C4153 1.356 . S
N4151 H4156 0.984 . S
N4151 H4157 0.985 . S
C4152 C4146 1.379 . S
C4152 C4149 1.363 1_565 S
C4152 N4150 1.356 . S
C4153 C4147 1.363 . S
C4153 C4148 1.379 . S
C4153 N4151 1.356 . S
N4154 C4146 1.356 . S
N4154 H4160 0.984 . S
N4154 H4161 0.984 . S
N4155 C4148 1.356 . S
N4155 H4158 0.984 . S
N4155 H4159 0.985 . S
H4156 N4151 0.984 . S
H4157 N4151 0.985 . S
H4158 N4155 0.984 . S
H4159 N4155 0.985 . S
H4160 N4154 0.984 . S
H4161 N4154 0.984 . S
H4162 N4150 0.984 . S
H4163 N4150 0.985 . S
C4164 C4165 1.363 . S
C4164 C4170 1.379 . S
C4164 N4172 1.356 . S
C4165 C4164 1.363 . S
C4165 C4171 1.363 1_545 S
C4166 C4167 1.363 . S
C4166 C4171 1.379 . S
C4166 N4173 1.356 . S
C4167 C4166 1.363 . S
C4167 C4170 1.363 1_565 S
N4168 C4170 1.356 1_565 S
N4168 H4180 0.984 1_565 S
N4168 H4181 0.985 . S
N4169 C4171 1.356 1_545 S
N4169 H4174 0.984 . S
N4169 H4175 0.985 1_545 S
C4170 C4164 1.379 . S
C4170 C4167 1.363 1_545 S
C4170 N4168 1.356 1_545 S
C4171 C4165 1.363 1_565 S
C4171 C4166 1.379 . S
C4171 N4169 1.356 1_565 S
N4172 C4164 1.356 . S
N4172 H4178 0.984 . S
N4172 H4179 0.984 . S
N4173 C4166 1.356 . S
N4173 H4176 0.984 . S
N4173 H4177 0.985 . S
H4174 N4169 0.984 . S
H4175 N4169 0.985 1_565 S
H4176 N4173 0.984 . S
H4177 N4173 0.985 . S
H4178 N4172 0.984 . S
H4179 N4172 0.984 . S
H4180 N4168 0.984 1_545 S
H4181 N4168 0.985 . S
C4182 C4183 1.363 1_545 S
C4182 C4188 1.416 . S
C4182 N4190 1.356 . S
C4183 C4182 1.363 1_565 S
C4183 C4189 1.323 1_556 S
C4184 C4185 1.363 . S
C4184 C4189 1.416 . S
C4184 N4191 1.356 . S
C4185 C4184 1.363 . S
C4185 C4188 1.323 1_564 S
N4186 C4188 1.347 1_554 S
N4186 H4198 0.984 1_554 S
N4186 H4199 0.985 . S
N4187 C4189 1.347 1_556 S
N4187 H4192 0.984 . S
N4187 H4193 0.985 1_556 S
C4188 C4182 1.416 . S
C4188 C4185 1.323 1_546 S
C4188 N4186 1.347 1_556 S
C4189 C4183 1.323 1_554 S
C4189 C4184 1.416 . S
C4189 N4187 1.347 1_554 S
N4190 C4182 1.356 . S
N4190 H4196 0.984 . S
N4190 H4197 0.984 . S
N4191 C4184 1.356 . S
N4191 H4194 0.984 . S
N4191 H4195 0.985 . S
H4192 N4187 0.984 . S
H4193 N4187 0.985 1_554 S
H4194 N4191 0.984 . S
H4195 N4191 0.985 . S
H4196 N4190 0.984 . S
H4197 N4190 0.984 . S
H4198 N4186 0.984 1_556 S
H4199 N4186 0.985 . S
C4200 C4201 1.363 . S
C4200 C4206 1.379 . S
C4200 N4208 1.356 . S
C4201 C4200 1.363 . S
C4201 C4207 1.363 1_565 S
C4202 C4203 1.363 . S
C4202 C4207 1.379 . S
C4202 N4209 1.356 . S
C4203 C4202 1.363 . S
C4203 C4206 1.363 1_545 S
N4204 C4206 1.356 1_545 S
N4204 H4216 0.984 1_545 S
N4204 H4217 0.985 . S
N4205 C4207 1.356 1_565 S
N4205 H4210 0.984 . S
N4205 H4211 0.985 1_565 S
C4206 C4200 1.379 . S
C4206 C4203 1.363 1_565 S
C4206 N4204 1.356 1_565 S
C4207 C4201 1.363 1_545 S
C4207 C4202 1.379 . S
C4207 N4205 1.356 1_545 S
N4208 C4200 1.356 . S
N4208 H4214 0.984 . S
N4208 H4215 0.984 . S
N4209 C4202 1.356 . S
N4209 H4212 0.984 . S
N4209 H4213 0.985 . S
H4210 N4205 0.984 . S
H4211 N4205 0.985 1_545 S
H4212 N4209 0.984 . S
H4213 N4209 0.985 . S
H4214 N4208 0.984 . S
H4215 N4208 0.984 . S
H4216 N4204 0.984 1_565 S
H4217 N4204 0.985 . S
C4218 C4219 1.363 1_545 S
C4218 C4224 1.379 . S
C4218 N4226 1.356 . S
C4219 C4218 1.363 1_565 S
C4219 C4225 1.363 . S
C4220 C4221 1.363 . S
C4220 C4225 1.379 . S
C4220 N4227 1.356 . S
C4221 C4220 1.363 . S
C4221 C4224 1.363 1_565 S
N4222 C4224 1.356 . S
N4222 H4234 0.984 . S
N4222 H4235 0.985 . S
N4223 C4225 1.356 . S
N4223 H4228 0.984 . S
N4223 H4229 0.985 . S
C4224 C4218 1.379 . S
C4224 C4221 1.363 1_545 S
C4224 N4222 1.356 . S
C4225 C4219 1.363 . S
C4225 C4220 1.379 . S
C4225 N4223 1.356 . S
N4226 C4218 1.356 . S
N4226 H4232 0.984 . S
N4226 H4233 0.984 . S
N4227 C4220 1.356 . S
N4227 H4230 0.984 . S
N4227 H4231 0.985 . S
H4228 N4223 0.984 . S
H4229 N4223 0.985 . S
H4230 N4227 0.984 . S
H4231 N4227 0.985 . S
H4232 N4226 0.984 . S
H4233 N4226 0.984 . S
H4234 N4222 0.984 . S
H4235 N4222 0.985 . S
C4236 C4237 1.363 1_545 S
C4236 C4242 1.379 . S
C4236 N4244 1.356 1_545 S
C4237 C4236 1.363 1_565 S
C4237 C4243 1.363 . S
C4238 C4239 1.363 1_565 S
C4238 C4243 1.379 . S
C4238 N4245 1.356 1_565 S
C4239 C4238 1.363 1_545 S
C4239 C4242 1.363 . S
N4240 C4242 1.356 . S
N4240 H4252 0.984 . S
N4240 H4253 0.985 . S
N4241 C4243 1.356 . S
N4241 H4246 0.984 . S
N4241 H4247 0.985 . S
C4242 C4236 1.379 . S
C4242 C4239 1.363 . S
C4242 N4240 1.356 . S
C4243 C4237 1.363 . S
C4243 C4238 1.379 . S
C4243 N4241 1.356 . S
N4244 C4236 1.356 1_565 S
N4244 H4250 0.984 1_565 S
N4244 H4251 0.984 . S
N4245 C4238 1.356 1_545 S
N4245 H4248 0.984 . S
N4245 H4249 0.985 1_545 S
H4246 N4241 0.984 . S
H4247 N4241 0.985 . S
H4248 N4245 0.984 . S
H4249 N4245 0.985 1_565 S
H4250 N4244 0.984 1_545 S
H4251 N4244 0.984 . S
H4252 N4240 0.984 . S
H4253 N4240 0.985 . S
C4254 C4255 1.363 . S
C4254 C4260 1.416 . S
C4254 N4262 1.356 . S
C4255 C4254 1.363 . S
C4255 C4261 1.323 1_544 S
C4256 C4257 1.363 1_565 S
C4256 C4261 1.416 . S
C4256 N4263 1.356 . S
C4257 C4256 1.363 1_545 S
C4257 C4260 1.323 1_556 S
N4258 C4260 1.347 1_556 S
N4258 H4270 0.984 1_556 S
N4258 H4271 0.985 . S
N4259 C4261 1.347 1_554 S
N4259 H4264 0.984 . S
N4259 H4265 0.985 1_554 S
C4260 C4254 1.416 . S
C4260 C4257 1.323 1_554 S
C4260 N4258 1.347 1_554 S
C4261 C4255 1.323 1_566 S
C4261 C4256 1.416 . S
C4261 N4259 1.347 1_556 S
N4262 C4254 1.356 . S
N4262 H4268 0.984 . S
N4262 H4269 0.984 . S
N4263 C4256 1.356 . S
N4263 H4266 0.984 . S
N4263 H4267 0.985 . S
H4264 N4259 0.984 . S
H4265 N4259 0.985 1_556 S
H4266 N4263 0.984 . S
H4267 N4263 0.985 . S
H4268 N4262 0.984 . S
H4269 N4262 0.984 . S
H4270 N4258 0.984 1_554 S
H4271 N4258 0.985 . S
C4272 C4273 1.363 . S
C4272 C4278 1.379 . S
C4272 N4280 1.356 . S
C4273 C4272 1.363 . S
C4273 C4279 1.363 . S
C4274 C4275 1.363 . S
C4274 C4279 1.379 . S
C4274 N4281 1.356 . S
C4275 C4274 1.363 . S
C4275 C4278 1.363 . S
N4276 C4278 1.356 . S
N4276 H4288 0.984 . S
N4276 H4289 0.985 . S
N4277 C4279 1.356 . S
N4277 H4282 0.984 . S
N4277 H4283 0.985 . S
C4278 C4272 1.379 . S
C4278 C4275 1.363 . S
C4278 N4276 1.356 . S
C4279 C4273 1.363 . S
C4279 C4274 1.379 . S
C4279 N4277 1.356 . S
N4280 C4272 1.356 . S
N4280 H4286 0.984 . S
N4280 H4287 0.984 . S
N4281 C4274 1.356 . S
N4281 H4284 0.984 . S
N4281 H4285 0.985 . S
H4282 N4277 0.984 . S
H4283 N4277 0.985 . S
H4284 N4281 0.984 . S
H4285 N4281 0.985 . S
H4286 N4280 0.984 . S
H4287 N4280 0.984 . S
H4288 N4276 0.984 . S
H4289 N4276 0.985 . S
C4290 C4291 1.323 1_554 S
C4290 C4296 1.416 . S
C4290 N4298 1.347 1_554 S
C4291 C4290 1.323 1_556 S
C4291 C4297 1.363 . S
C4292 C4293 1.323 1_556 S
C4292 C4297 1.416 . S
C4292 N4299 1.347 1_556 S
C4293 C4292 1.323 1_554 S
C4293 C4296 1.363 . S
N4294 C4296 1.356 . S
N4294 H4306 0.984 . S
N4294 H4307 0.985 . S
N4295 C4297 1.356 . S
N4295 H4300 0.984 . S
N4295 H4301 0.985 . S
C4296 C4290 1.416 . S
C4296 C4293 1.363 . S
C4296 N4294 1.356 . S
C4297 C4291 1.363 . S
C4297 C4292 1.416 . S
C4297 N4295 1.356 . S
N4298 C4290 1.347 1_556 S
N4298 H4304 0.984 1_556 S
N4298 H4305 0.984 . S
N4299 C4292 1.347 1_554 S
N4299 H4302 0.984 . S
N4299 H4303 0.985 1_554 S
H4300 N4295 0.984 . S
H4301 N4295 0.985 . S
H4302 N4299 0.984 . S
H4303 N4299 0.985 1_556 S
H4304 N4298 0.984 1_554 S
H4305 N4298 0.984 . S
H4306 N4294 0.984 . S
H4307 N4294 0.985 . S
C4308 C4309 1.363 . S
C4308 C4314 1.379 . S
C4308 N4316 1.356 . S
C4309 C4308 1.363 . S
C4309 C4315 1.363 . S
C4310 C4311 1.363 . S
C4310 C4315 1.379 . S
C4310 N4317 1.356 . S
C4311 C4310 1.363 . S
C4311 C4314 1.363 . S
N4312 C4314 1.356 . S
N4312 H4324 0.984 . S
N4312 H4325 0.985 . S
N4313 C4315 1.356 . S
N4313 H4318 0.984 . S
N4313 H4319 0.985 . S
C4314 C4308 1.379 . S
C4314 C4311 1.363 . S
C4314 N4312 1.356 . S
C4315 C4309 1.363 . S
C4315 C4310 1.379 . S
C4315 N4313 1.356 . S
N4316 C4308 1.356 . S
N4316 H4322 0.984 . S
N4316 H4323 0.984 . S
N4317 C4310 1.356 . S
N4317 H4320 0.984 . S
N4317 H4321 0.985 . S
H4318 N4313 0.984 . S
H4319 N4313 0.985 . S
H4320 N4317 0.984 . S
H4321 N4317 0.985 . S
H4322 N4316 0.984 . S
H4323 N4316 0.984 . S
H4324 N4312 0.984 . S
H4325 N4312 0.985 . S
C4326 C4327 1.363 . S
C4326 C4332 1.379 . S
C4326 N4334 1.356 . S
C4327 C4326 1.363 . S
C4327 C4333 1.363 . S
C4328 C4329 1.363 . S
C4328 C4333 1.379 . S
C4328 N4335 1.356 . S
C4329 C4328 1.363 . S
C4329 C4332 1.363 . S
N4330 C4332 1.356 . S
N4330 H4342 0.984 . S
N4330 H4343 0.985 . S
N4331 C4333 1.356 . S
N4331 H4336 0.984 . S
N4331 H4337 0.985 . S
C4332 C4326 1.379 . S
C4332 C4329 1.363 . S
C4332 N4330 1.356 . S
C4333 C4327 1.363 . S
C4333 C4328 1.379 . S
C4333 N4331 1.356 . S
N4334 C4326 1.356 . S
N4334 H4340 0.984 . S
N4334 H4341 0.984 . S
N4335 C4328 1.356 . S
N4335 H4338 0.984 . S
N4335 H4339 0.985 . S
H4336 N4331 0.984 . S
H4337 N4331 0.985 . S
H4338 N4335 0.984 . S
H4339 N4335 0.985 . S
H4340 N4334 0.984 . S
H4341 N4334 0.984 . S
H4342 N4330 0.984 . S
H4343 N4330 0.985 . S
C4344 C4345 1.363 . S
C4344 C4350 1.379 . S
C4344 N4352 1.356 . S
C4345 C4344 1.363 . S
C4345 C4351 1.363 . S
C4346 C4347 1.363 . S
C4346 C4351 1.379 . S
C4346 N4353 1.356 . S
C4347 C4346 1.363 . S
C4347 C4350 1.363 . S
N4348 C4350 1.356 . S
N4348 H4360 0.984 . S
N4348 H4361 0.985 . S
N4349 C4351 1.356 . S
N4349 H4354 0.984 . S
N4349 H4355 0.985 . S
C4350 C4344 1.379 . S
C4350 C4347 1.363 . S
C4350 N4348 1.356 . S
C4351 C4345 1.363 . S
C4351 C4346 1.379 . S
C4351 N4349 1.356 . S
N4352 C4344 1.356 . S
N4352 H4358 0.984 . S
N4352 H4359 0.984 . S
N4353 C4346 1.356 . S
N4353 H4356 0.984 . S
N4353 H4357 0.985 . S
H4354 N4349 0.984 . S
H4355 N4349 0.985 . S
H4356 N4353 0.984 . S
H4357 N4353 0.985 . S
H4358 N4352 0.984 . S
H4359 N4352 0.984 . S
H4360 N4348 0.984 . S
H4361 N4348 0.985 . S
C4362 C4363 1.363 . S
C4362 C4368 1.416 . S
C4362 N4370 1.356 . S
C4363 C4362 1.363 . S
C4363 C4369 1.323 1_556 S
C4364 C4365 1.363 . S
C4364 C4369 1.416 . S
C4364 N4371 1.356 . S
C4365 C4364 1.363 . S
C4365 C4368 1.323 1_554 S
N4366 C4368 1.347 1_554 S
N4366 H4378 0.984 1_554 S
N4366 H4379 0.985 . S
N4367 C4369 1.347 1_556 S
N4367 H4372 0.984 . S
N4367 H4373 0.985 1_556 S
C4368 C4362 1.416 . S
C4368 C4365 1.323 1_556 S
C4368 N4366 1.347 1_556 S
C4369 C4363 1.323 1_554 S
C4369 C4364 1.416 . S
C4369 N4367 1.347 1_554 S
N4370 C4362 1.356 . S
N4370 H4376 0.984 . S
N4370 H4377 0.984 . S
N4371 C4364 1.356 . S
N4371 H4374 0.984 . S
N4371 H4375 0.985 . S
H4372 N4367 0.984 . S
H4373 N4367 0.985 1_554 S
H4374 N4371 0.984 . S
H4375 N4371 0.985 . S
H4376 N4370 0.984 . S
H4377 N4370 0.984 . S
H4378 N4366 0.984 1_556 S
H4379 N4366 0.985 . S
C4380 C4381 1.363 . S
C4380 C4386 1.379 . S
C4380 N4388 1.356 . S
C4381 C4380 1.363 . S
C4381 C4387 1.363 . S
C4382 C4383 1.363 . S
C4382 C4387 1.379 . S
C4382 N4389 1.356 . S
C4383 C4382 1.363 . S
C4383 C4386 1.363 . S
N4384 C4386 1.356 . S
N4384 H4396 0.984 . S
N4384 H4397 0.985 . S
N4385 C4387 1.356 . S
N4385 H4390 0.984 . S
N4385 H4391 0.985 . S
C4386 C4380 1.379 . S
C4386 C4383 1.363 . S
C4386 N4384 1.356 . S
C4387 C4381 1.363 . S
C4387 C4382 1.379 . S
C4387 N4385 1.356 . S
N4388 C4380 1.356 . S
N4388 H4394 0.984 . S
N4388 H4395 0.984 . S
N4389 C4382 1.356 . S
N4389 H4392 0.984 . S
N4389 H4393 0.985 . S
H4390 N4385 0.984 . S
H4391 N4385 0.985 . S
H4392 N4389 0.984 . S
H4393 N4389 0.985 . S
H4394 N4388 0.984 . S
H4395 N4388 0.984 . S
H4396 N4384 0.984 . S
H4397 N4384 0.985 . S
C4398 C4399 1.363 . S
C4398 C4404 1.379 . S
C4398 N4406 1.356 . S
C4399 C4398 1.363 . S
C4399 C4405 1.363 . S
C4400 C4401 1.363 . S
C4400 C4405 1.379 . S
C4400 N4407 1.356 . S
C4401 C4400 1.363 . S
C4401 C4404 1.363 . S
N4402 C4404 1.356 . S
N4402 H4414 0.984 . S
N4402 H4415 0.985 . S
N4403 C4405 1.356 . S
N4403 H4408 0.984 . S
N4403 H4409 0.985 . S
C4404 C4398 1.379 . S
C4404 C4401 1.363 . S
C4404 N4402 1.356 . S
C4405 C4399 1.363 . S
C4405 C4400 1.379 . S
C4405 N4403 1.356 . S
N4406 C4398 1.356 . S
N4406 H4412 0.984 . S
N4406 H4413 0.984 . S
N4407 C4400 1.356 . S
N4407 H4410 0.984 . S
N4407 H4411 0.985 . S
H4408 N4403 0.984 . S
H4409 N4403 0.985 . S
H4410 N4407 0.984 . S
H4411 N4407 0.985 . S
H4412 N4406 0.984 . S
H4413 N4406 0.984 . S
H4414 N4402 0.984 . S
H4415 N4402 0.985 . S
C2689 C70 0.565 . S
C2691 C2323 0.636 . S
C2707 C154 0.565 . S
C2709 C727 0.635 . S
C2725 C238 0.565 . S
C2727 C2155 0.636 . S
C2743 C895 0.635 . S
C2745 C322 0.565 . S
C2761 C406 0.565 . S
C2763 C2491 0.636 . S
C2779 C1231 0.635 . S
C2781 C490 0.565 . S
C2797 C2659 0.636 . S
C2799 C574 0.565 . S
C2815 C658 0.565 . S
C2817 C1063 0.635 . S
C2833 C730 0.565 . S
C2835 C1663 0.636 . S
C2851 C814 0.565 . S
C2853 C67 0.635 . S
C2869 C1495 0.636 . S
C2871 C898 0.565 . S
C2887 C235 0.635 . S
C2889 C982 0.565 . S
C2905 C1066 0.565 . S
C2907 C1831 0.636 . S
C2923 C1150 0.565 . S
C2925 C571 0.635 . S
C2941 C1234 0.565 . S
C2943 C1999 0.636 . S
C2959 C403 0.635 . S
C2961 C1318 0.565 . S
C2977 C979 0.635 . S
C2979 C1414 0.565 . S
C2995 C2071 0.635 . S
C2997 C1498 0.565 . S
C3013 C811 0.635 . S
C3015 C1582 0.565 . S
C3031 C1666 0.565 . S
C3033 C2239 0.635 . S
C3049 C1147 0.635 . S
C3051 C1750 0.565 . S
C3067 C2575 0.635 . S
C3069 C1834 0.565 . S
C3085 C1315 0.635 . S
C3087 C1918 0.565 . S
C3103 C2002 0.565 . S
C3105 C2407 0.635 . S
C3121 C2074 0.565 . S
C3123 C319 0.635 . S
C3139 C2158 0.565 . S
C3141 C1411 0.635 . S
C3157 C2242 0.565 . S
C3159 C151 0.635 . S
C3175 C2326 0.565 . S
C3177 C1579 0.635 . S
C3193 C487 0.635 . S
C3195 C2410 0.565 . S
C3211 C1915 0.635 . S
C3213 C2494 0.565 . S
C3229 C2578 0.565 . S
C3231 C655 0.635 . S
C3247 C2662 0.565 . S
C3249 C1747 0.635 . S
C3265 C56 3.393 . S
C3267 C1568 3.393 . S
C3283 C1652 3.393 1_455 S
C3285 C140 3.393 1_655 S
C3301 C224 3.392 . S
C3303 C1400 3.392 . S
C3319 C308 3.393 . S
C3321 C1484 3.393 . S
C3337 C1904 3.393 . S
C3339 C392 3.393 . S
C3355 C476 3.393 . S
C3357 C1988 3.393 . S
C3373 C1736 3.392 . S
C3375 C560 3.392 . S
C3391 C644 3.393 1_655 S
C3393 C1820 3.393 1_455 S
C3409 C2252 3.393 . S
C3411 C740 3.393 . S
C3427 C824 3.393 1_455 S
C3429 C2336 3.393 1_655 S
C3445 C908 3.392 . S
C3447 C2084 3.392 . S
C3463 C992 3.393 . S
C3465 C2168 3.393 . S
C3481 C2588 3.393 . S
C3483 C1076 3.393 . S
C3499 C2672 3.393 . S
C3501 C1160 3.393 . S
C3517 C1244 3.392 . S
C3519 C2420 3.392 . S
C3535 C1328 3.393 1_455 S
C3537 C2504 3.393 1_655 S
C3553 C55 2.990 . S
C3555 C2083 2.990 . S
C3571 C823 2.990 . S
C3573 C139 2.990 . S
C3589 C223 2.990 . S
C3591 C2251 2.990 . S
C3607 C307 2.990 . S
C3609 C991 2.990 . S
C3625 C2419 2.990 . S
C3627 C391 2.990 . S
C3643 C1159 2.990 . S
C3645 C475 2.990 . S
C3661 C559 2.990 . S
C3663 C2587 2.990 . S
C3679 C643 2.990 . S
C3681 C1327 2.990 . S
C3697 C1399 2.990 . S
C3699 C739 2.990 . S
C3715 C1567 2.990 . S
C3717 C907 2.990 . S
C3733 C1735 2.990 . S
C3735 C1075 2.990 . S
C3751 C1243 2.990 . S
C3753 C1903 2.990 . S
C3769 C1483 2.990 . S
C3771 C2167 2.990 . S
C3787 C1651 2.991 . S
C3789 C2335 2.991 . S
C3805 C2503 2.991 . S
C3807 C1819 2.991 . S
C3823 C2671 2.990 . S
C3825 C1987 2.990 . S
C3841 C68 4.114 . S
C3843 C488 4.114 . S
C3859 C572 4.114 . S
C3861 C152 4.114 . S
C3877 C656 4.114 . S
C3879 C236 4.114 . S
C3895 C404 4.114 . S
C3897 C320 4.114 . S
C3913 C728 4.114 . S
C3915 C1148 4.114 . S
C3931 C812 4.114 . S
C3933 C1232 4.114 . S
C3949 C1316 4.114 . S
C3951 C896 4.114 . S
C3967 C980 4.114 . S
C3969 C1064 4.114 . S
C3985 C1412 4.115 . S
C3987 C1832 4.115 . S
C4003 C1496 4.115 . S
C4005 C1916 4.115 . S
C4021 C1580 4.115 . S
C4023 C2000 4.115 . S
C4039 C1748 4.115 . S
C4041 C1664 4.115 . S
C4057 C2072 4.115 . S
C4059 C2492 4.115 . S
C4075 C2156 4.115 . S
C4077 C2576 4.115 . S
C4093 C2660 4.115 . S
C4095 C2240 4.115 . S
C4111 C2324 4.115 . S
C4113 C2408 4.115 . S
C4129 C58 0.778 . S
C4131 C394 0.778 . S
C4147 C142 0.778 1_545 S
C4149 C478 0.778 1_545 S
C4165 C562 0.778 . S
C4167 C226 0.778 . S
C4183 C646 0.778 1_565 S
C4185 C310 0.778 1_565 S
C4201 C742 0.778 . S
C4203 C1078 0.778 . S
C4219 C1162 0.778 1_565 S
C4221 C826 0.778 1_565 S
C4237 C1246 0.778 . S
C4239 C910 0.778 . S
C4255 C1330 0.778 1_545 S
C4257 C994 0.778 1_545 S
C4273 C1402 0.778 . S
C4275 C1738 0.778 . S
C4291 C1822 0.778 . S
C4293 C1486 0.778 . S
C4309 C1570 0.778 . S
C4311 C1906 0.778 . S
C4327 C1990 0.778 . S
C4329 C1654 0.778 . S
C4345 C2422 0.778 . S
C4347 C2086 0.778 . S
C4363 C2170 0.778 . S
C4365 C2506 0.778 . S
C4381 C2254 0.778 . S
C4383 C2590 0.778 . S
C4399 C2338 0.778 . S
C4401 C2674 0.778 . S
