# Generated by pormake.
# Topology mon, (4)-cn, num edge types: 1
# Building blocks:
#     Node 0, Type 0, BuildingBlock: NAHDIM_clean_sbu_0, # of connection points: 4
#     Node 1, Type 0, BuildingBlock: NAHDIM_clean_sbu_0, # of connection points: 4
#     Node 2, Type 0, BuildingBlock: NAHDIM_clean_sbu_0, # of connection points: 4
#     Node 3, Type 0, BuildingBlock: NAHDIM_clean_sbu_0, # of connection points: 4
#     Node 4, Type 0, BuildingBlock: NAHDIM_clean_sbu_0, # of connection points: 4
#     Node 5, Type 0, BuildingBlock: NAHDIM_clean_sbu_0, # of connection points: 4
#     Node 6, Type 0, BuildingBlock: NAHDIM_clean_sbu_0, # of connection points: 4
#     Node 7, Type 0, BuildingBlock: NAHDIM_clean_sbu_0, # of connection points: 4
#     Node 8, Type 0, BuildingBlock: NAHDIM_clean_sbu_0, # of connection points: 4
#     Node 9, Type 0, BuildingBlock: NAHDIM_clean_sbu_0, # of connection points: 4
#     Node 10, Type 0, BuildingBlock: NAHDIM_clean_sbu_0, # of connection points: 4
#     Node 11, Type 0, BuildingBlock: NAHDIM_clean_sbu_0, # of connection points: 4
#     Node 12, Type 0, BuildingBlock: NAHDIM_clean_sbu_0, # of connection points: 4
#     Node 13, Type 0, BuildingBlock: NAHDIM_clean_sbu_0, # of connection points: 4
#     Node 14, Type 0, BuildingBlock: NAHDIM_clean_sbu_0, # of connection points: 4
#     Node 15, Type 0, BuildingBlock: NAHDIM_clean_sbu_0, # of connection points: 4
#     Edge 16, Type (0, 0), BuildingBlock: XUDNAN_clean_linker_2, # of connection points: 2
#     Edge 17, Type (0, 0), BuildingBlock: XUDNAN_clean_linker_2, # of connection points: 2
#     Edge 18, Type (0, 0), BuildingBlock: XUDNAN_clean_linker_2, # of connection points: 2
#     Edge 19, Type (0, 0), BuildingBlock: XUDNAN_clean_linker_2, # of connection points: 2
#     Edge 20, Type (0, 0), BuildingBlock: XUDNAN_clean_linker_2, # of connection points: 2
#     Edge 21, Type (0, 0), BuildingBlock: XUDNAN_clean_linker_2, # of connection points: 2
#     Edge 22, Type (0, 0), BuildingBlock: XUDNAN_clean_linker_2, # of connection points: 2
#     Edge 23, Type (0, 0), BuildingBlock: XUDNAN_clean_linker_2, # of connection points: 2
#     Edge 24, Type (0, 0), BuildingBlock: XUDNAN_clean_linker_2, # of connection points: 2
#     Edge 25, Type (0, 0), BuildingBlock: XUDNAN_clean_linker_2, # of connection points: 2
#     Edge 26, Type (0, 0), BuildingBlock: XUDNAN_clean_linker_2, # of connection points: 2
#     Edge 27, Type (0, 0), BuildingBlock: XUDNAN_clean_linker_2, # of connection points: 2
#     Edge 28, Type (0, 0), BuildingBlock: XUDNAN_clean_linker_2, # of connection points: 2
#     Edge 29, Type (0, 0), BuildingBlock: XUDNAN_clean_linker_2, # of connection points: 2
#     Edge 30, Type (0, 0), BuildingBlock: XUDNAN_clean_linker_2, # of connection points: 2
#     Edge 31, Type (0, 0), BuildingBlock: XUDNAN_clean_linker_2, # of connection points: 2
#     Edge 32, Type (0, 0), BuildingBlock: XUDNAN_clean_linker_2, # of connection points: 2
#     Edge 33, Type (0, 0), BuildingBlock: XUDNAN_clean_linker_2, # of connection points: 2
#     Edge 34, Type (0, 0), BuildingBlock: XUDNAN_clean_linker_2, # of connection points: 2
#     Edge 35, Type (0, 0), BuildingBlock: XUDNAN_clean_linker_2, # of connection points: 2
#     Edge 36, Type (0, 0), BuildingBlock: XUDNAN_clean_linker_2, # of connection points: 2
#     Edge 37, Type (0, 0), BuildingBlock: XUDNAN_clean_linker_2, # of connection points: 2
#     Edge 38, Type (0, 0), BuildingBlock: XUDNAN_clean_linker_2, # of connection points: 2
#     Edge 39, Type (0, 0), BuildingBlock: XUDNAN_clean_linker_2, # of connection points: 2
#     Edge 40, Type (0, 0), BuildingBlock: XUDNAN_clean_linker_2, # of connection points: 2
#     Edge 41, Type (0, 0), BuildingBlock: XUDNAN_clean_linker_2, # of connection points: 2
#     Edge 42, Type (0, 0), BuildingBlock: XUDNAN_clean_linker_2, # of connection points: 2
#     Edge 43, Type (0, 0), BuildingBlock: XUDNAN_clean_linker_2, # of connection points: 2
#     Edge 44, Type (0, 0), BuildingBlock: XUDNAN_clean_linker_2, # of connection points: 2
#     Edge 45, Type (0, 0), BuildingBlock: XUDNAN_clean_linker_2, # of connection points: 2
#     Edge 46, Type (0, 0), BuildingBlock: XUDNAN_clean_linker_2, # of connection points: 2
#     Edge 47, Type (0, 0), BuildingBlock: XUDNAN_clean_linker_2, # of connection points: 2
# Relax obj value: 0.123
# Max RMSD: 0.120
# Mean RMSD: 0.120
data_MOF--net-mon--node1-NAHDIM_clean_sbu_0--edge1-XUDNAN_clean_linker_2
_symmetry_space_group_name_H-M    P1
_symmetry_Int_Tables_number       1
_symmetry_cell_setting            triclinic
loop_
_symmetry_equiv_pos_as_xyz
'x, y, z'
_cell_length_a     34.585598
_cell_length_b     34.594689
_cell_length_c     81.26778
_cell_angle_alpha  90.023869
_cell_angle_beta   90.037529
_cell_angle_gamma 89.922406
loop_
_atom_site_label
_atom_site_type_symbol
_atom_site_fract_x
_atom_site_fract_y
_atom_site_fract_z
_atom_type_partial_charge
C0 C 0.99049 0.10052 0.59725 0.0
O1 O 0.96423 0.09281 0.58603 0.0
O2 O 0.95712 -2e-05 0.59657 0.0
Zn3 Zn 0.00861 0.02267 0.59061 0.0
O4 O 0.01245 0.03184 0.56629 0.0
C5 C 0.0637 0.98997 0.61283 0.0
O6 O 0.04779 0.01512 0.62289 0.0
O7 O 0.01362 0.07399 0.60168 0.0
C8 C 0.00798 0.00572 0.55547 0.0
O9 O 0.00022 0.97022 0.56014 0.0
C10 C 0.95262 0.96363 0.5975 0.0
O11 O 0.98192 0.94079 0.59408 0.0
O12 O 0.05161 0.98781 0.5981 0.0
C13 C 0.15818 0.71769 0.83724 0.0
O14 O 0.16184 0.6946 0.82449 0.0
O15 O 0.26987 0.68922 0.8454 0.0
Zn16 Zn 0.24009 0.72852 0.83247 0.0
O17 O 0.2346 0.71224 0.80878 0.0
C18 C 0.3046 0.77991 0.83599 0.0
O19 O 0.32364 0.74706 0.83663 0.0
O20 O 0.18777 0.73511 0.84276 0.0
C21 C 0.26337 0.71035 0.79911 0.0
O22 O 0.298 0.71863 0.80471 0.0
C23 C 0.26045 0.65392 0.84675 0.0
O24 O 0.22956 0.64116 0.83907 0.0
O25 O 0.26817 0.77933 0.83395 0.0
C26 C 0.49234 0.90386 0.09836 0.0
O27 O 0.50571 0.93128 0.10798 0.0
O28 O 0.52517 0.99568 0.08406 0.0
Zn29 Zn 0.48045 0.96605 0.07475 0.0
O30 O 0.48599 0.96117 0.05028 0.0
C31 C 0.42752 0.00964 0.0943 0.0
O32 O 0.45563 0.00624 0.10509 0.0
O33 O 0.47972 0.91251 0.08414 0.0
C34 C 0.48541 0.98997 0.0406 0.0
O35 O 0.48113 0.0249 0.04669 0.0
C36 C 0.55984 0.98391 0.08278 0.0
O37 O 0.56698 0.95164 0.07481 0.0
O38 O 0.43128 0.99404 0.08023 0.0
C39 C 0.38342 0.31701 0.33935 0.0
O40 O 0.36175 0.34534 0.3338 0.0
O41 O 0.28377 0.32891 0.3552 0.0
Zn42 Zn 0.30907 0.28459 0.34311 0.0
O43 O 0.29391 0.28755 0.31931 0.0
C44 C 0.25066 0.23279 0.35067 0.0
O45 O 0.23177 0.26149 0.34375 0.0
O46 O 0.36715 0.2866 0.34471 0.0
C47 C 0.30412 0.26206 0.30894 0.0
O48 O 0.32585 0.23305 0.3138 0.0
C49 C 0.27335 0.35919 0.34752 0.0
O50 O 0.28119 0.3623 0.33176 0.0
O51 O 0.28716 0.23529 0.35213 0.0
C52 C 0.00698 0.89598 0.40089 0.0
O53 O 0.97101 0.90663 0.40347 0.0
O54 O 0.97176 0.99135 0.393 0.0
Zn55 Zn 0.02187 0.97746 0.40434 0.0
O56 O 0.01812 0.98664 0.42877 0.0
C57 C 0.06218 0.03943 0.38722 0.0
O58 O 0.02713 0.05224 0.38419 0.0
O59 O 0.03337 0.92145 0.40064 0.0
C60 C 0.02846 0.01862 0.43509 0.0
O61 O 0.04107 0.04633 0.42544 0.0
C62 C 0.94951 0.01759 0.39852 0.0
O63 O 0.95928 0.0363 0.41195 0.0
O64 O 0.06647 0.0083 0.39531 0.0
C65 C 0.3842 0.71781 0.65097 0.0
O66 O 0.37537 0.69665 0.66385 0.0
O67 O 0.27753 0.68644 0.63603 0.0
Zn68 Zn 0.302 0.72779 0.64975 0.0
O69 O 0.29757 0.71336 0.67363 0.0
C70 C 0.25458 0.78589 0.63378 0.0
O71 O 0.25555 0.76183 0.62127 0.0
O72 O 0.35734 0.73444 0.643 0.0
C73 C 0.26514 0.70132 0.67887 0.0
O74 O 0.23633 0.69767 0.66844 0.0
C75 C 0.28881 0.65151 0.63671 0.0
O76 O 0.31775 0.64231 0.64643 0.0
O77 O 0.27294 0.77753 0.64684 0.0
C78 C 0.52725 0.12544 0.89604 0.0
O79 O 0.54514 0.11204 0.90912 0.0
O80 O 0.56613 0.02463 0.88424 0.0
Zn81 Zn 0.51423 0.04516 0.89096 0.0
O82 O 0.50681 0.03514 0.91516 0.0
C83 C 0.47999 0.98432 0.87178 0.0
O84 O 0.51517 0.97015 0.87275 0.0
O85 O 0.51127 0.10184 0.88621 0.0
C86 C 0.50946 0.00047 0.9202 0.0
O87 O 0.51645 0.9729 0.90948 0.0
C88 C 0.5955 0.02382 0.89364 0.0
O89 O 0.59325 0.03926 0.90838 0.0
O90 O 0.47264 0.01677 0.87844 0.0
C91 C 0.1426 0.26775 0.14141 0.0
O92 O 0.16171 0.29427 0.13321 0.0
O93 O 0.2373 0.30305 0.14766 0.0
Zn94 Zn 0.21632 0.25442 0.15767 0.0
O95 O 0.22203 0.25917 0.18218 0.0
C96 C 0.2373 0.19763 0.13417 0.0
O97 O 0.2094 0.21521 0.12613 0.0
O98 O 0.16001 0.24796 0.15231 0.0
C99 C 0.24401 0.23865 0.19117 0.0
O100 O 0.26457 0.21087 0.18445 0.0
C101 C 0.27137 0.31287 0.15172 0.0
O102 O 0.29089 0.29077 0.16192 0.0
O103 O 0.24599 0.2092 0.14855 0.0
C104 C 0.86895 0.19992 0.14507 0.0
O105 O 0.86332 0.16806 0.15353 0.0
O106 O 0.76476 0.16768 0.14266 0.0
Zn107 Zn 0.78927 0.21385 0.15341 0.0
O108 O 0.79449 0.20587 0.17791 0.0
C109 C 0.77011 0.29447 0.15116 0.0
O110 O 0.80686 0.29858 0.15487 0.0
O111 O 0.8411 0.22342 0.14315 0.0
C112 C 0.82326 0.21943 0.18576 0.0
O113 O 0.85025 0.23827 0.17775 0.0
C114 C 0.72818 0.16471 0.14211 0.0
O115 O 0.70685 0.19158 0.14907 0.0
O116 O 0.75613 0.26068 0.14976 0.0
C117 C 0.6657 0.73548 0.64124 0.0
O118 O 0.68848 0.75035 0.62998 0.0
O119 O 0.76042 0.77372 0.64821 0.0
Zn120 Zn 0.73563 0.73097 0.66097 0.0
O121 O 0.73946 0.74314 0.68505 0.0
C122 C 0.80013 0.68185 0.66165 0.0
O123 O 0.81278 0.71115 0.67042 0.0
O124 O 0.67988 0.72487 0.65494 0.0
C125 C 0.73765 0.71643 0.69575 0.0
O126 O 0.73254 0.68056 0.6909 0.0
C127 C 0.74906 0.80864 0.6482 0.0
O128 O 0.71832 0.81834 0.65676 0.0
O129 O 0.7658 0.68282 0.65609 0.0
C130 C 0.66368 0.28072 0.32815 0.0
O131 O 0.68965 0.30371 0.32159 0.0
O132 O 0.74873 0.192 0.34519 0.0
Zn133 Zn 0.73117 0.23671 0.33132 0.0
O134 O 0.74568 0.22643 0.30779 0.0
C135 C 0.76034 0.29686 0.35295 0.0
O136 O 0.74042 0.27857 0.36428 0.0
O137 O 0.6743 0.24776 0.33339 0.0
C138 C 0.78168 0.22395 0.30483 0.0
O139 O 0.80622 0.22739 0.3171 0.0
C140 C 0.74855 0.15771 0.33958 0.0
O141 O 0.73345 0.15116 0.325 0.0
O142 O 0.76052 0.28397 0.33832 0.0
C143 C 0.88411 0.75671 0.86235 0.0
O144 O 0.86633 0.7755 0.87419 0.0
O145 O 0.79132 0.80227 0.85827 0.0
Zn146 Zn 0.80762 0.75189 0.84793 0.0
O147 O 0.79509 0.75414 0.82381 0.0
C148 C 0.74435 0.70082 0.85557 0.0
O149 O 0.72698 0.72041 0.84385 0.0
O150 O 0.86469 0.74405 0.85023 0.0
C151 C 0.79171 0.72525 0.81428 0.0
O152 O 0.79677 0.69022 0.82014 0.0
C153 C 0.76297 0.82026 0.8519 0.0
O154 O 0.74599 0.80566 0.83885 0.0
O155 O 0.77917 0.70878 0.8592 0.0
C156 C 0.50481 0.62148 0.10499 0.0
O157 O 0.48962 0.607 0.09152 0.0
O158 O 0.47292 0.51697 0.12012 0.0
Zn159 Zn 0.52066 0.54167 0.11078 0.0
O160 O 0.52132 0.53191 0.08631 0.0
C161 C 0.56608 0.48179 0.12555 0.0
O162 O 0.53287 0.46352 0.12478 0.0
O163 O 0.52031 0.59879 0.11537 0.0
C164 C 0.51246 0.49852 0.08099 0.0
O165 O 0.50356 0.47129 0.09158 0.0
C166 C 0.43992 0.52122 0.11348 0.0
O167 O 0.43632 0.54431 0.10075 0.0
O168 O 0.56797 0.5166 0.1206 0.0
C169 C 0.02378 0.37866 0.60742 0.0
O170 O 0.04402 0.40052 0.61745 0.0
O171 O 0.07385 0.46253 0.59213 0.0
Zn172 Zn 0.01784 0.44904 0.58924 0.0
O173 O 0.00185 0.45984 0.56583 0.0
C174 C 0.95174 0.48197 0.60665 0.0
O175 O 0.93067 0.46051 0.59677 0.0
O176 O 0.00963 0.39337 0.59443 0.0
C177 C 0.98494 0.49085 0.5615 0.0
O178 O 0.9764 0.51691 0.57269 0.0
C179 C 0.08332 0.49728 0.58918 0.0
O180 O 0.05683 0.52129 0.58371 0.0
O181 O 0.9883 0.48133 0.60537 0.0
C182 C 0.51177 0.4072 0.90265 0.0
O183 O 0.49498 0.43279 0.89307 0.0
O184 O 0.46394 0.49021 0.91614 0.0
Zn185 Zn 0.51386 0.47061 0.92565 0.0
O186 O 0.50969 0.46663 0.9502 0.0
C187 C 0.55993 0.51917 0.90477 0.0
O188 O 0.53194 0.51194 0.89428 0.0
O189 O 0.52283 0.41722 0.91694 0.0
C190 C 0.51688 0.49411 0.9601 0.0
O191 O 0.52745 0.52788 0.95426 0.0
C192 C 0.45537 0.52585 0.91534 0.0
O193 O 0.47936 0.55151 0.92148 0.0
O194 O 0.55842 0.50465 0.91911 0.0
C195 C 0.0277 0.61393 0.40377 0.0
O196 O 0.0581 0.59362 0.40817 0.0
O197 O 0.0443 0.51818 0.39942 0.0
Zn198 Zn 0.9941 0.54038 0.40786 0.0
O199 O 0.98773 0.53618 0.43241 0.0
C200 C 0.92079 0.49942 0.40184 0.0
O201 O 0.91483 0.50253 0.41774 0.0
O202 O 0.99509 0.5972 0.40259 0.0
C203 C 0.98531 0.50585 0.44115 0.0
O204 O 0.98759 0.47168 0.43415 0.0
C205 C 0.06891 0.496 0.40619 0.0
O206 O 0.06294 0.48316 0.42117 0.0
O207 O 0.95105 0.51401 0.39553 0.0
H208 H 0.95633 0.16614 0.58556 0.0
H209 H 0.03634 0.12468 0.62277 0.0
H210 H 0.04867 0.19199 0.63148 0.0
H211 H 0.01148 0.24398 0.57307 0.0
H212 H 0.97135 0.27619 0.56948 0.0
H213 H 0.96462 0.22483 0.56779 0.0
H214 H 0.90922 0.22792 0.58924 0.0
H215 H 0.91566 0.27945 0.59094 0.0
H216 H 0.91804 0.24956 0.60907 0.0
H217 H 0.05658 0.26399 0.6344 0.0
H218 H 0.06074 0.33481 0.63075 0.0
H219 H 0.97667 0.32826 0.59116 0.0
C220 C 0.97578 0.1711 0.59579 0.0
C221 C 0.99523 0.14022 0.60355 0.0
C222 C 0.02104 0.14797 0.61668 0.0
C223 C 0.02811 0.18607 0.62176 0.0
C224 C 0.00907 0.21594 0.61359 0.0
C225 C 0.98335 0.20885 0.60091 0.0
C226 C 0.96918 0.24599 0.59318 0.0
C227 C 0.97982 0.24784 0.5748 0.0
C228 C 0.92543 0.25102 0.59577 0.0
C229 C 0.99186 0.27507 0.60313 0.0
C230 C 0.0142 0.2573 0.61504 0.0
C231 C 0.03888 0.27828 0.62524 0.0
C232 C 0.04108 0.31845 0.62307 0.0
C233 C 0.0191 0.33698 0.61065 0.0
C234 C 0.99382 0.31494 0.60077 0.0
H235 H 0.92848 0.71677 0.84028 0.0
H236 H 0.93575 0.78594 0.88478 0.0
H237 H 0.00702 0.78063 0.88405 0.0
H238 H 0.00902 0.65213 0.84976 0.0
H239 H 0.02475 0.64997 0.82863 0.0
H240 H 0.97436 0.65728 0.83332 0.0
H241 H 0.9742 0.71973 0.8157 0.0
H242 H 0.02455 0.7127 0.811 0.0
H243 H 0.00861 0.7574 0.82018 0.0
H244 H 0.07754 0.7713 0.87734 0.0
H245 H 0.14189 0.75755 0.86555 0.0
H246 H 0.08778 0.69382 0.82568 0.0
C247 C 0.94496 0.73051 0.84999 0.0
C248 C 0.92656 0.7518 0.8626 0.0
C249 C 0.94924 0.76941 0.87502 0.0
C250 C 0.98971 0.76654 0.87472 0.0
C251 C 0.00691 0.74573 0.86198 0.0
C252 C 0.98523 0.72783 0.84991 0.0
C253 C 0.01068 0.70829 0.83725 0.0
C254 C 0.00432 0.66431 0.83725 0.0
C255 C 0.00412 0.72558 0.82002 0.0
C256 C 0.05016 0.71861 0.84391 0.0
C257 C 0.04741 0.74007 0.85821 0.0
C258 C 0.08006 0.75421 0.86624 0.0
C259 C 0.11646 0.74632 0.85942 0.0
C260 C 0.11986 0.72451 0.84472 0.0
C261 C 0.08619 0.71027 0.837 0.0
H262 H 0.47578 0.67718 0.08462 0.0
H263 H 0.53282 0.66119 0.13174 0.0
H264 H 0.53296 0.73197 0.13597 0.0
H265 H 0.52759 0.76054 0.07263 0.0
H266 H 0.48679 0.7833 0.06277 0.0
H267 H 0.48945 0.73143 0.06398 0.0
H268 H 0.42252 0.72978 0.07832 0.0
H269 H 0.41968 0.78171 0.07718 0.0
H270 H 0.41492 0.75775 0.09677 0.0
H271 H 0.52892 0.80499 0.13444 0.0
H272 H 0.52205 0.87401 0.12703 0.0
H273 H 0.46771 0.84093 0.08095 0.0
C274 C 0.48808 0.68845 0.0959 0.0
C275 C 0.50424 0.66366 0.10786 0.0
C276 C 0.52023 0.67966 0.1224 0.0
C277 C 0.52037 0.7198 0.12493 0.0
C278 C 0.50434 0.74342 0.11283 0.0
C279 C 0.48848 0.72828 0.09861 0.0
C280 C 0.47422 0.75979 0.08723 0.0
C281 C 0.49581 0.75869 0.07068 0.0
C282 C 0.43022 0.75709 0.08474 0.0
C283 C 0.48499 0.79511 0.09716 0.0
C284 C 0.5021 0.78517 0.11193 0.0
C285 C 0.51535 0.8131 0.12294 0.0
C286 C 0.51131 0.85221 0.11863 0.0
C287 C 0.49432 0.86288 0.10343 0.0
C288 C 0.48071 0.8338 0.0927 0.0
H289 H 0.60087 0.23872 0.33876 0.0
H290 H 0.63467 0.35203 0.32084 0.0
H291 H 0.56719 0.37422 0.3231 0.0
H292 H 0.51087 0.2344 0.31735 0.0
H293 H 0.4855 0.21019 0.33374 0.0
H294 H 0.53684 0.20351 0.33141 0.0
H295 H 0.54739 0.22593 0.36151 0.0
H296 H 0.49605 0.23279 0.36391 0.0
H297 H 0.52875 0.27217 0.36802 0.0
H298 H 0.49636 0.38385 0.32651 0.0
H299 H 0.42579 0.37985 0.33017 0.0
H300 H 0.43728 0.26031 0.34581 0.0
C301 C 0.59411 0.26825 0.3354 0.0
C302 C 0.62308 0.29366 0.32964 0.0
C303 C 0.613 0.33201 0.32526 0.0
C304 C 0.57475 0.34496 0.32655 0.0
C305 C 0.54692 0.31922 0.33223 0.0
C306 C 0.55599 0.28167 0.33656 0.0
C307 C 0.52024 0.25961 0.34181 0.0
C308 C 0.51294 0.22488 0.33039 0.0
C309 C 0.5233 0.24689 0.35989 0.0
C310 C 0.48965 0.29057 0.33959 0.0
C311 C 0.50577 0.32477 0.33416 0.0
C312 C 0.48337 0.35729 0.33083 0.0
C313 C 0.44328 0.35469 0.33294 0.0
C314 C 0.42599 0.31979 0.33829 0.0
C315 C 0.44964 0.28747 0.34181 0.0
H316 H 0.95806 0.83351 0.40154 0.0
H317 H 0.07892 0.8651 0.39617 0.0
H318 H 0.09657 0.79619 0.39451 0.0
H319 H 0.9732 0.75301 0.42723 0.0
H320 H 0.93554 0.72385 0.41824 0.0
H321 H 0.93185 0.77573 0.41777 0.0
H322 H 0.92453 0.77385 0.38603 0.0
H323 H 0.92815 0.72189 0.38641 0.0
H324 H 0.96073 0.7497 0.37381 0.0
H325 H 0.10186 0.72452 0.39555 0.0
H326 H 0.09432 0.65405 0.39866 0.0
H327 H 0.96997 0.6685 0.40279 0.0
C328 C 0.98818 0.82597 0.39982 0.0
C329 C 0.0171 0.85472 0.39898 0.0
C330 C 0.05623 0.84361 0.39683 0.0
C331 C 0.06657 0.80454 0.39584 0.0
C332 C 0.03743 0.77695 0.39691 0.0
C333 C -0.00098 0.78708 0.39876 0.0
C334 C 0.9736 0.75162 0.40023 0.0
C335 C 0.95231 0.75103 0.41686 0.0
C336 C 0.94507 0.74913 0.38576 0.0
C337 C 0.00386 0.72004 0.39928 0.0
C338 C 0.04045 0.73533 0.39729 0.0
C339 C 0.07334 0.71212 0.39692 0.0
C340 C 0.06875 0.67216 0.39875 0.0
C341 C 0.03156 0.65584 0.40088 0.0
C342 C -0.0013 0.68013 0.40095 0.0
H343 H 0.44863 0.69239 0.66721 0.0
H344 H 0.4118 0.75371 0.62329 0.0
H345 H 0.48009 0.76194 0.6151 0.0
H346 H 0.52958 0.75148 0.67587 0.0
H347 H 0.55937 0.71225 0.68315 0.0
H348 H 0.50761 0.70937 0.68497 0.0
H349 H 0.50801 0.64456 0.66893 0.0
H350 H 0.55983 0.64728 0.66703 0.0
H351 H 0.53022 0.64238 0.64889 0.0
H352 H 0.55273 0.76501 0.61219 0.0
H353 H 0.62386 0.76476 0.61535 0.0
H354 H 0.61208 0.70205 0.66136 0.0
C355 C 0.45483 0.70729 0.6558 0.0
C356 C 0.42491 0.72232 0.64587 0.0
C357 C 0.43431 0.74194 0.6311 0.0
C358 C 0.47298 0.74665 0.62631 0.0
C359 C 0.5018 0.73158 0.63644 0.0
C360 C 0.49316 0.71238 0.65089 0.0
C361 C 0.52939 0.70026 0.65993 0.0
C362 C 0.53161 0.7195 0.67698 0.0
C363 C 0.53201 0.65599 0.66127 0.0
C364 C 0.55981 0.71605 0.64842 0.0
C365 C 0.54341 0.73372 0.63486 0.0
C366 C 0.56591 0.7511 0.62272 0.0
C367 C 0.60626 0.75077 0.62461 0.0
C368 C 0.62351 0.73341 0.6386 0.0
C369 C 0.59983 0.71553 0.65051 0.0
H370 H 0.54412 0.34745 0.91987 0.0
H371 H 0.48624 0.3746 0.87386 0.0
H372 H 0.48729 0.30541 0.86632 0.0
H373 H 0.60578 0.26987 0.90377 0.0
H374 H 0.60133 0.24151 0.92227 0.0
H375 H 0.59881 0.29348 0.92332 0.0
H376 H 0.53231 0.2887 0.93789 0.0
H377 H 0.53451 0.2368 0.9368 0.0
H378 H 0.49369 0.26216 0.92818 0.0
H379 H 0.49023 0.23276 0.86485 0.0
H380 H 0.49621 0.16237 0.86926 0.0
H381 H 0.55248 0.18352 0.91619 0.0
C382 C 0.53214 0.33901 0.9081 0.0
C383 C 0.51511 0.36643 0.89745 0.0
C384 C 0.49953 0.3541 0.8822 0.0
C385 C 0.50001 0.31488 0.87781 0.0
C386 C 0.5164 0.28853 0.88875 0.0
C387 C 0.53242 0.30012 0.90352 0.0
C388 C 0.54671 0.26599 0.91344 0.0
C389 C 0.59077 0.26783 0.91583 0.0
C390 C 0.52552 0.26326 0.93005 0.0
C391 C 0.53546 0.23325 0.90209 0.0
C392 C 0.51824 0.24681 0.88787 0.0
C393 C 0.50404 0.22182 0.87586 0.0
C394 C 0.50747 0.1819 0.8785 0.0
C395 C 0.5249 0.16747 0.89305 0.0
C396 C 0.53927 0.19362 0.90489 0.0
H397 H 0.09677 0.21128 0.15456 0.0
H398 H 0.09477 0.30863 0.12085 0.0
H399 H 0.02495 0.29821 0.11621 0.0
H400 H 0.02708 0.1513 0.13223 0.0
H401 H 0.00561 0.13305 0.15088 0.0
H402 H 0.05592 0.14651 0.15061 0.0
H403 H 0.04433 0.19323 0.17507 0.0
H404 H 0.9941 0.17985 0.17545 0.0
H405 H 0.0075 0.22995 0.17341 0.0
H406 H 0.95456 0.28049 0.11707 0.0
H407 H 0.88888 0.25665 0.12327 0.0
H408 H 0.93762 0.16987 0.15582 0.0
C409 C 0.08179 0.23022 0.14607 0.0
C410 C 0.1012 0.2608 0.13807 0.0
C411 C 0.0805 0.28497 0.12709 0.0
C412 C 0.04087 0.27922 0.12435 0.0
C413 C 0.02258 0.24898 0.13255 0.0
C414 C 0.04241 0.22478 0.14312 0.0
C415 C 0.01574 0.1955 0.15099 0.0
C416 C 0.02675 0.15414 0.14586 0.0
C417 C 0.0154 0.19993 0.16984 0.0
C418 C 0.97758 0.20759 0.14349 0.0
C419 C 0.98215 0.23834 0.13281 0.0
C420 C 0.95068 0.25608 0.12522 0.0
C421 C 0.91352 0.24238 0.12883 0.0
C422 C 0.90823 0.21123 0.13991 0.0
C423 C 0.94079 0.19326 0.14707 0.0
H424 H 0.01045 0.96514 0.45879 0.0
H425 H 0.04194 0.08559 0.45205 0.0
H426 H 0.03921 0.09552 0.4821 0.0
H427 H 0.94379 0.9799 0.49232 0.0
H428 H 0.958 0.93645 0.50297 0.0
H429 H 0.96174 0.93897 0.48089 0.0
H430 H 0.03441 0.92106 0.4827 0.0
H431 H 0.03092 0.9185 0.50478 0.0
H432 H 0.06615 0.94979 0.49536 0.0
H433 H 0.0335 0.0923 0.51278 0.0
H434 H 0.02605 0.07602 0.54214 0.0
H435 H -0.00101 0.95742 0.5289 0.0
C436 C 0.01661 0.99367 0.46361 0.0
C437 C 0.02634 0.02463 0.45307 0.0
C438 C 0.03444 0.06143 0.45988 0.0
C439 C 0.03292 0.06738 0.47693 0.0
C440 C 0.02336 0.03622 0.48697 0.0
C441 C 0.0154 8e-05 0.48059 0.0
C442 C 0.00651 0.9713 0.4941 0.0
C443 C 0.96505 0.95575 0.49247 0.0
C444 C 0.03628 0.93822 0.49424 0.0
C445 C 0.01076 -0.00307 0.50909 0.0
C446 C 0.02038 0.03428 0.5047 0.0
C447 C 0.02596 0.06316 0.51639 0.0
C448 C 0.02165 0.05359 0.53303 0.0
C449 C 0.01196 0.01542 0.53784 0.0
C450 C 0.00641 0.98683 0.52565 0.0
H451 H 0.31621 0.71616 0.77413 0.0
H452 H 0.19708 0.68471 0.78425 0.0
H453 H 0.18617 0.67363 0.7546 0.0
H454 H 0.29723 0.76905 0.73835 0.0
H455 H 0.34026 0.754 0.7276 0.0
H456 H 0.33991 0.75547 0.74973 0.0
H457 H 0.36043 0.68341 0.75075 0.0
H458 H 0.36092 0.68175 0.72859 0.0
H459 H 0.33197 0.6478 0.74001 0.0
H460 H 0.18689 0.67056 0.72377 0.0
H461 H 0.19881 0.67689 0.69396 0.0
H462 H 0.31732 0.71099 0.70398 0.0
C463 C 0.288 0.7063 0.77016 0.0
C464 C 0.25754 0.70116 0.78151 0.0
C465 C 0.22088 0.68879 0.77578 0.0
C466 C 0.21443 0.68229 0.75897 0.0
C467 C 0.24494 0.68821 0.74807 0.0
C468 C 0.28102 0.69986 0.75343 0.0
C469 C 0.30818 0.70658 0.73911 0.0
C470 C 0.32219 0.74878 0.73868 0.0
C471 C 0.34239 0.67818 0.73965 0.0
C472 C 0.28146 0.69777 0.72484 0.0
C473 C 0.24525 0.68679 0.73028 0.0
C474 C 0.21524 0.67876 0.71937 0.0
C475 C 0.22229 0.6825 0.70245 0.0
C476 C 0.259 0.6944 0.69663 0.0
C477 C 0.28902 0.70159 0.70803 0.0
H478 H 0.48509 0.0449 0.01614 0.0
H479 H 0.49463 0.92121 0.02445 0.0
H480 H 0.50111 0.91064 0.99459 0.0
H481 H 0.42912 0.03893 0.97879 0.0
H482 H 0.45309 0.07921 0.96913 0.0
H483 H 0.44905 0.07724 0.99121 0.0
H484 H 0.52343 0.0838 0.99388 0.0
H485 H 0.52769 0.08582 0.97182 0.0
H486 H 0.55434 0.05 0.98327 0.0
H487 H 0.50696 0.91326 0.96398 0.0
H488 H 0.51207 0.92902 0.93448 0.0
H489 H 0.49863 0.05096 0.94593 0.0
C490 C 0.48852 0.01559 0.01169 0.0
C491 C 0.48933 0.98389 0.02265 0.0
C492 C 0.4939 0.94598 0.01631 0.0
C493 C 0.49759 0.93964 -0.00064 0.0
C494 C 0.49665 0.97148 0.98891 0.0
C495 C 0.49224 0.0087 0.99479 0.0
C496 C 0.49236 0.03784 0.98087 0.0
C497 C 0.45359 0.05958 0.97995 0.0
C498 C 0.52649 0.06602 0.98257 0.0
C499 C 0.49761 0.01114 0.96627 0.0
C500 C 0.49998 0.97299 0.97119 0.0
C501 C 0.5051 0.94302 0.95996 0.0
C502 C 0.50797 0.95229 0.94322 0.0
C503 C 0.50571 0.99121 0.93788 0.0
C504 C 0.50037 0.02092 0.94961 0.0
H505 H 0.28636 0.19955 0.21454 0.0
H506 H 0.20974 0.29797 0.20794 0.0
H507 H 0.21683 0.31432 0.23729 0.0
H508 H 0.25186 0.1731 0.25508 0.0
H509 H 0.29908 0.1594 0.26247 0.0
H510 H 0.2877 0.15502 0.24092 0.0
H511 H 0.34689 0.19761 0.23368 0.0
H512 H 0.35836 0.20222 0.25521 0.0
H513 H 0.35139 0.24489 0.24282 0.0
H514 H 0.23308 0.32106 0.26704 0.0
H515 H 0.2562 0.31669 0.29567 0.0
H516 H 0.32181 0.21359 0.28319 0.0
C517 C 0.27096 0.22445 0.21927 0.0
C518 C 0.2475 0.24746 0.20892 0.0
C519 C 0.22783 0.27983 0.21561 0.0
C520 C 0.23169 0.28942 0.23227 0.0
C521 C 0.25519 0.2663 0.2421 0.0
C522 C 0.27437 0.2344 0.23591 0.0
C523 C 0.29784 0.21445 0.24918 0.0
C524 C 0.28323 0.17304 0.25208 0.0
C525 C 0.34119 0.21484 0.24497 0.0
C526 C 0.28903 0.24032 0.26375 0.0
C527 C 0.26438 0.27005 0.25937 0.0
C528 C 0.2523 0.29785 0.27065 0.0
C529 C 0.26566 0.29513 0.28688 0.0
C530 C 0.29079 0.26477 0.29169 0.0
C531 C 0.30259 0.23709 0.27992 0.0
H532 H 0.76387 0.2058 0.20729 0.0
H533 H 0.88752 0.22634 0.205 0.0
H534 H 0.89091 0.22476 0.23535 0.0
H535 H 0.74642 0.26707 0.24095 0.0
H536 H 0.7097 0.23714 0.25015 0.0
H537 H 0.71753 0.23554 0.22828 0.0
H538 H 0.72839 0.16149 0.22981 0.0
H539 H 0.72046 0.16284 0.25172 0.0
H540 H 0.76446 0.14236 0.24362 0.0
H541 H 0.88046 0.22433 0.26577 0.0
H542 H 0.85657 0.2279 0.29431 0.0
H543 H 0.73921 0.21014 0.27685 0.0
C544 C 0.79176 0.20922 0.21318 0.0
C545 C 0.82551 0.21589 0.20383 0.0
C546 C 0.86134 0.22113 0.21196 0.0
C547 C 0.86358 0.22013 0.22917 0.0
C548 C 0.82968 0.21407 0.23805 0.0
C549 C 0.79442 0.20881 0.23036 0.0
C550 C 0.76194 0.20569 0.24278 0.0
C551 C 0.73216 0.23831 0.2404 0.0
C552 C 0.74269 0.16571 0.24193 0.0
C553 C 0.78438 0.2107 0.25864 0.0
C554 C 0.82346 0.21493 0.25563 0.0
C555 C 0.84994 0.22083 0.2683 0.0
C556 C 0.83606 0.22283 0.28447 0.0
C557 C 0.79601 0.21936 0.28781 0.0
C558 C 0.76998 0.21287 0.2747 0.0
H559 H 0.74678 0.66542 0.7213 0.0
H560 H 0.74137 0.788 0.70998 0.0
H561 H 0.75288 0.80333 0.73922 0.0
H562 H 0.69978 0.67084 0.76121 0.0
H563 H 0.73054 0.63454 0.77029 0.0
H564 H 0.72015 0.63315 0.74857 0.0
H565 H 0.79356 0.63363 0.74219 0.0
H566 H 0.80419 0.63513 0.76387 0.0
H567 H 0.82334 0.67179 0.7504 0.0
H568 H 0.76648 0.80546 0.76938 0.0
H569 H 0.78192 0.79443 0.79859 0.0
H570 H 0.77952 0.67036 0.79033 0.0
C571 C 0.74765 0.69549 0.72498 0.0
C572 C 0.74306 0.72552 0.71336 0.0
C573 C 0.74479 0.7645 0.71866 0.0
C574 C 0.75126 0.77351 0.73525 0.0
C575 C 0.75599 0.74322 0.74635 0.0
C576 C 0.75428 0.70501 0.74147 0.0
C577 C 0.7615 0.67797 0.75581 0.0
C578 C 0.72586 0.65264 0.75917 0.0
C579 C 0.79781 0.65318 0.75289 0.0
C580 C 0.76782 0.70701 0.76949 0.0
C581 C 0.76431 0.74445 0.76376 0.0
C582 C 0.76922 0.77627 0.77403 0.0
C583 C 0.77803 0.76966 0.79061 0.0
C584 C 0.782 0.73151 0.79676 0.0
C585 C 0.77671 0.69985 0.78601 0.0
H586 H 0.52989 0.54625 0.98507 0.0
H587 H 0.4972 0.42702 0.97574 0.0
H588 H 0.49281 0.41541 0.00558 0.0
H589 H 0.58872 0.52738 0.02066 0.0
H590 H 0.57375 0.57043 0.03143 0.0
H591 H 0.57416 0.56967 0.00927 0.0
H592 H 0.5019 0.58961 0.0088 0.0
H593 H 0.50129 0.59048 0.03096 0.0
H594 H 0.46708 0.56098 0.0199 0.0
H595 H 0.49217 0.41636 0.03627 0.0
H596 H 0.49472 0.43007 0.06602 0.0
H597 H 0.52772 0.54867 0.05557 0.0
C598 C 0.52177 0.51772 0.98929 0.0
C599 C 0.5139 0.48756 0.97804 0.0
C600 C 0.50336 0.45062 0.9841 0.0
C601 C 0.5008 0.44369 0.00103 0.0
C602 C 0.50882 0.47398 0.01177 0.0
C603 C 0.51904 0.51027 0.00618 0.0
C604 C 0.52613 0.53776 0.02039 0.0
C605 C 0.56819 0.55214 0.02043 0.0
C606 C 0.49738 0.57171 0.01998 0.0
C607 C 0.51833 0.51118 0.03481 0.0
C608 C 0.50841 0.47454 0.02955 0.0
C609 C 0.49988 0.44495 0.04056 0.0
C610 C 0.50143 0.45304 0.05744 0.0
C611 C 0.51143 0.49043 0.06314 0.0
C612 C 0.52002 0.51979 0.05162 0.0
H613 H -0.0027 0.44232 0.5353 0.0
H614 H 0.95687 0.55753 0.54787 0.0
H615 H 0.94944 0.57256 0.51837 0.0
H616 H 0.05292 0.46902 0.50097 0.0
H617 H 0.04106 0.42703 0.48885 0.0
H618 H 0.04056 0.42418 0.51096 0.0
H619 H 0.96961 0.40025 0.51024 0.0
H620 H 0.96992 0.40284 0.4881 0.0
H621 H 0.93354 0.42849 0.49964 0.0
H622 H 0.95154 0.57695 0.48773 0.0
H623 H 0.96002 0.56951 0.45778 0.0
H624 H -0.00261 0.45083 0.46498 0.0
C625 C 0.98642 0.47056 0.53187 0.0
C626 C 0.97769 0.49878 0.5439 0.0
C627 C 0.96367 0.53542 0.53889 0.0
C628 C 0.95935 0.54424 0.52216 0.0
C629 C 0.96882 0.51599 0.51062 0.0
C630 C 0.98172 0.47977 0.51524 0.0
C631 C 0.99107 0.45506 0.50036 0.0
C632 C 0.03395 0.44314 0.50029 0.0
C633 C 0.96444 0.41956 0.49954 0.0
C634 C 0.98217 0.48335 0.48666 0.0
C635 C 0.96933 0.51829 0.49287 0.0
C636 C 0.96111 0.5496 0.4827 0.0
C637 C 0.9662 0.54511 0.46571 0.0
C638 C 0.97921 0.50953 0.45906 0.0
C639 C 0.98696 0.4782 0.4697 0.0
H640 H 0.2092 0.81129 0.60823 0.0
H641 H 0.24466 0.83984 0.65806 0.0
H642 H 0.2013 0.89646 0.65773 0.0
H643 H 0.20082 0.91067 0.59351 0.0
H644 H 0.15901 0.90032 0.58102 0.0
H645 H 0.19438 0.86311 0.58485 0.0
H646 H 0.14059 0.81855 0.59634 0.0
H647 H 0.10512 0.85565 0.59261 0.0
H648 H 0.11047 0.83555 0.61294 0.0
H649 H 0.15166 0.94784 0.65261 0.0
H650 H 0.10024 0.99157 0.6427 0.0
H651 H 0.09759 0.92987 0.59616 0.0
C652 C 0.20819 0.82965 0.61902 0.0
C653 C 0.23037 0.82112 0.63316 0.0
C654 C 0.228 0.8458 0.64706 0.0
C655 C 0.20346 0.87805 0.647 0.0
C656 C 0.18163 0.88534 0.63294 0.0
C657 C 0.18389 0.86201 0.61917 0.0
C658 C 0.15658 0.87569 0.60581 0.0
C659 C 0.17905 0.8882 0.59039 0.0
C660 C 0.12641 0.8445 0.60169 0.0
C661 C 0.13823 0.91002 0.61433 0.0
C662 C 0.15315 0.91515 0.62995 0.0
C663 C 0.13994 0.94432 0.64035 0.0
C664 C 0.11066 0.96894 0.63462 0.0
C665 C 0.09498 0.96422 0.61864 0.0
C666 C 0.10915 0.93441 0.60839 0.0
H667 H 0.3822 0.79051 0.84042 0.0
H668 H 0.27316 0.85263 0.83818 0.0
H669 H 0.3071 0.91332 0.84507 0.0
H670 H 0.41951 0.83848 0.87464 0.0
H671 H 0.46877 0.83916 0.86742 0.0
H672 H 0.43651 0.80154 0.86075 0.0
H673 H 0.45011 0.81917 0.8303 0.0
H674 H 0.48257 0.85683 0.83688 0.0
H675 H 0.44273 0.86816 0.8234 0.0
H676 H 0.35219 0.96595 0.85469 0.0
H677 H 0.40509 0.0065 0.86566 0.0
H678 H 0.48426 0.90959 0.86108 0.0
C679 C 0.36547 0.81694 0.84112 0.0
C680 C 0.32503 0.81683 0.83875 0.0
C681 C 0.30421 0.85204 0.8399 0.0
C682 C 0.32323 0.88666 0.84379 0.0
C683 C 0.36306 0.88558 0.84634 0.0
C684 C 0.38396 0.85167 0.84493 0.0
C685 C 0.42615 0.85779 0.84908 0.0
C686 C 0.43843 0.83277 0.86385 0.0
C687 C 0.4519 0.85003 0.83401 0.0
C688 C 0.42557 0.90026 0.85345 0.0
C689 C 0.38901 0.91589 0.85171 0.0
C690 C 0.38105 0.95416 0.8559 0.0
C691 C 0.41124 0.97693 0.86215 0.0
C692 C 0.44883 0.96127 0.86415 0.0
C693 C 0.45598 0.92258 0.85953 0.0
H694 H 0.41344 0.05161 0.12227 0.0
H695 H 0.36379 0.02138 0.07489 0.0
H696 H 0.30784 0.06359 0.08068 0.0
H697 H 0.32226 0.05728 0.14496 0.0
H698 H 0.33796 0.09792 0.15712 0.0
H699 H 0.37281 0.06328 0.14973 0.0
H700 H 0.41144 0.11848 0.13582 0.0
H701 H 0.3767 0.15323 0.14313 0.0
H702 H 0.38732 0.15007 0.12146 0.0
H703 H 0.25944 0.11187 0.09084 0.0
H704 H 0.22153 0.16268 0.10477 0.0
H705 H 0.30266 0.16128 0.14557 0.0
C706 C 0.3906 0.05345 0.11319 0.0
C707 C 0.39295 0.03312 0.09814 0.0
C708 C 0.36259 0.03663 0.08652 0.0
C709 C 0.33066 0.06048 0.0897 0.0
C710 C 0.3295 0.08048 0.10457 0.0
C711 C 0.35856 0.07713 0.11616 0.0
C712 C 0.35109 0.10298 0.13086 0.0
C713 C 0.3457 0.07892 0.1466 0.0
C714 C 0.38356 0.13296 0.13293 0.0
C715 C 0.31357 0.12187 0.12561 0.0
C716 C 0.30152 0.10833 0.11045 0.0
C717 C 0.26839 0.12247 0.10278 0.0
C718 C 0.24711 0.1514 0.11078 0.0
C719 C 0.25907 0.16589 0.12627 0.0
C720 C 0.29259 0.15059 0.1338 0.0
H721 H 0.06303 0.1089 0.37107 0.0
H722 H 0.13863 0.02137 0.39194 0.0
H723 H 0.19551 0.06056 0.38433 0.0
H724 H 0.12439 0.13426 0.33663 0.0
H725 H 0.11239 0.18492 0.33773 0.0
H726 H 0.07785 0.14924 0.34433 0.0
H727 H 0.07336 0.18263 0.37284 0.0
H728 H 0.10796 0.21832 0.36635 0.0
H729 H 0.11683 0.19026 0.38465 0.0
H730 H 0.24415 0.11056 0.37518 0.0
H731 H 0.28052 0.16715 0.36491 0.0
H732 H 0.17258 0.22125 0.35015 0.0
C733 C 0.09152 0.09777 0.37394 0.0
C734 C 0.09635 0.06204 0.38208 0.0
C735 C 0.13419 0.04866 0.38568 0.0
C736 C 0.16669 0.07069 0.38142 0.0
C737 C 0.16085 0.10597 0.37353 0.0
C738 C 0.12421 0.11935 0.36979 0.0
C739 C 0.12569 0.15853 0.36157 0.0
C740 C 0.1091 0.1566 0.34402 0.0
C741 C 0.10473 0.18924 0.37198 0.0
C742 C 0.16888 0.16523 0.36137 0.0
C743 C 0.18873 0.13461 0.36829 0.0
C744 C 0.22892 0.13465 0.36968 0.0
C745 C 0.24931 0.16691 0.36383 0.0
C746 C 0.22942 0.19859 0.35671 0.0
C747 C 0.1887 0.19749 0.35547 0.0
H748 H 0.90469 0.08181 0.40317 0.0
H749 H 0.91558 0.97916 0.37279 0.0
H750 H 0.85943 0.00039 0.35627 0.0
H751 H 0.79801 0.08917 0.40194 0.0
H752 H 0.79923 0.14119 0.40082 0.0
H753 H 0.83698 0.11545 0.41152 0.0
H754 H 0.88852 0.14886 0.39327 0.0
H755 H 0.85102 0.17467 0.38256 0.0
H756 H 0.88478 0.14528 0.37119 0.0
H757 H 0.80591 0.03561 0.34163 0.0
H758 H 0.76149 0.08336 0.32924 0.0
H759 H 0.78651 0.16324 0.36906 0.0
C760 C 0.89481 0.06336 0.39326 0.0
C761 C 0.91435 0.02872 0.38932 0.0
C762 C 0.90096 0.00579 0.37605 0.0
C763 C 0.86899 0.0175 0.36665 0.0
C764 C 0.85072 0.05215 0.37071 0.0
C765 C 0.86317 0.07474 0.38371 0.0
C766 C 0.84081 0.1123 0.38465 0.0
C767 C 0.81736 0.11464 0.40069 0.0
C768 C 0.8679 0.14732 0.3828 0.0
C769 C 0.8146 0.10784 0.36987 0.0
C770 C 0.82027 0.0727 0.36214 0.0
C771 C 0.80088 0.06302 0.34768 0.0
C772 C 0.77568 0.09035 0.34074 0.0
C773 C 0.77045 0.12703 0.34819 0.0
C774 C 0.78958 0.13536 0.36314 0.0
H775 H 0.55347 0.04943 0.10145 0.0
H776 H 0.63758 0.96795 0.08211 0.0
H777 H 0.69002 0.00459 0.09568 0.0
H778 H 0.61115 0.13438 0.09671 0.0
H779 H 0.59414 0.1564 0.11546 0.0
H780 H 0.56347 0.12346 0.10434 0.0
H781 H 0.55614 0.0814 0.13054 0.0
H782 H 0.58688 0.11415 0.14174 0.0
H783 H 0.59879 0.06345 0.14078 0.0
H784 H 0.73324 0.05082 0.11116 0.0
H785 H 0.76395 0.10321 0.12716 0.0
H786 H 0.65095 0.15359 0.13641 0.0
C787 C 0.5829 0.03922 0.10003 0.0
C788 C 0.59145 0.00583 0.0907 0.0
C789 C 0.63035 0.99347 0.08919 0.0
C790 C 0.66031 0.01406 0.09687 0.0
C791 C 0.65081 0.04682 0.10601 0.0
C792 C 0.61304 0.0593 0.10761 0.0
C793 C 0.61044 0.09547 0.11802 0.0
C794 C 0.59383 0.12943 0.10803 0.0
C795 C 0.58666 0.08816 0.1337 0.0
C796 C 0.65271 0.10156 0.12198 0.0
C797 C 0.67556 0.0732 0.11496 0.0
C798 C 0.71563 0.07313 0.11675 0.0
C799 C 0.73279 0.103 0.12586 0.0
C800 C 0.70986 0.13247 0.13307 0.0
C801 C 0.6693 0.13144 0.13113 0.0
H802 H 0.70234 0.86393 0.84116 0.0
H803 H 0.78825 0.85661 0.88001 0.0
H804 H 0.75866 0.91332 0.89365 0.0
H805 H 0.6943 0.97021 0.84028 0.0
H806 H 0.64293 0.96848 0.8366 0.0
H807 H 0.67367 0.9303 0.82904 0.0
H808 H 0.63192 0.87975 0.84447 0.0
H809 H 0.60116 0.91768 0.85206 0.0
H810 H 0.62425 0.88503 0.8663 0.0
H811 H 0.71545 0.96674 0.90436 0.0
H812 H 0.66216 0.01158 0.91132 0.0
H813 H 0.60564 0.98334 0.86514 0.0
C814 C 0.71543 0.87458 0.85239 0.0
C815 C 0.74764 0.8559 0.85951 0.0
C816 C 0.76362 0.87057 0.8743 0.0
C817 C 0.74709 0.90282 0.88211 0.0
C818 C 0.71487 0.92014 0.87487 0.0
C819 C 0.69937 0.90659 0.86029 0.0
C820 C 0.66312 0.9284 0.8556 0.0
C821 C 0.66887 0.95068 0.83942 0.0
C822 C 0.62806 0.90109 0.85456 0.0
C823 C 0.6599 0.95561 0.87007 0.0
C824 C 0.69019 0.95081 0.88099 0.0
C825 C 0.6919 0.97114 0.89579 0.0
C826 C 0.6615 -0.00348 0.89963 0.0
C827 C 0.6298 0.00107 0.88875 0.0
C828 C 0.62961 0.98087 0.87366 0.0
H829 H 0.81611 0.79748 0.63114 0.0
H830 H 0.73407 0.88644 0.64545 0.0
H831 H 0.77508 0.93578 0.63205 0.0
H832 H 0.89963 0.85077 0.63912 0.0
H833 H 0.92667 0.83168 0.62199 0.0
H834 H 0.88902 0.80322 0.63124 0.0
H835 H 0.85529 0.79641 0.60288 0.0
H836 H 0.89295 0.82481 0.59351 0.0
H837 H 0.84311 0.83922 0.59134 0.0
H838 H 0.82762 0.97573 0.61875 0.0
H839 H 0.88744 0.00309 0.60696 0.0
H840 H 0.93457 0.88734 0.60172 0.0
C841 C 0.80636 0.82724 0.63128 0.0
C842 C 0.77182 0.83811 0.63931 0.0
C843 C 0.76039 0.87744 0.63933 0.0
C844 C 0.78344 0.90564 0.63172 0.0
C845 C 0.81765 0.89392 0.62413 0.0
C846 C 0.82896 0.85561 0.62381 0.0
C847 C 0.86799 0.85065 0.6157 0.0
C848 C 0.89756 0.83306 0.62773 0.0
C849 C 0.86461 0.82634 0.59992 0.0
C850 C 0.87738 0.8923 0.61181 0.0
C851 C 0.84786 0.91682 0.6166 0.0
C852 C 0.85074 0.95677 0.61482 0.0
C853 C 0.88486 0.97202 0.60813 0.0
C854 C 0.91568 0.94734 0.60341 0.0
C855 C 0.9115 0.90697 0.60512 0.0
H856 H 0.69182 0.29568 0.14639 0.0
H857 H 0.79215 0.37054 0.14997 0.0
H858 H 0.75044 0.42742 0.14496 0.0
H859 H 0.64504 0.34572 0.11398 0.0
H860 H 0.59703 0.33838 0.12201 0.0
H861 H 0.63467 0.30397 0.12649 0.0
H862 H 0.62242 0.31281 0.15774 0.0
H863 H 0.58475 0.34732 0.15335 0.0
H864 H 0.62442 0.36056 0.16659 0.0
H865 H 0.69788 0.47578 0.13826 0.0
H866 H 0.6386 0.51171 0.13073 0.0
H867 H 0.57317 0.40474 0.13222 0.0
C868 C 0.70507 0.32403 0.14619 0.0
C869 C 0.74525 0.32869 0.14854 0.0
C870 C 0.7614 0.3663 0.14822 0.0
C871 C 0.73796 0.39877 0.14539 0.0
C872 C 0.69845 0.3931 0.14305 0.0
C873 C 0.68214 0.35666 0.1435 0.0
C874 C 0.63908 0.35821 0.14034 0.0
C875 C 0.62834 0.33522 0.12478 0.0
C876 C 0.61634 0.34388 0.1554 0.0
C877 C 0.63375 0.40117 0.1378 0.0
C878 C 0.66826 0.42087 0.13945 0.0
C879 C 0.67063 0.4607 0.13707 0.0
C880 C 0.63684 0.48084 0.13279 0.0
C881 C 0.60123 0.46107 0.13096 0.0
C882 C 0.59982 0.42078 0.13367 0.0
H883 H 0.77259 0.32868 0.38351 0.0
H884 H 0.79959 0.3438 0.33173 0.0
H885 H 0.83938 0.40064 0.33854 0.0
H886 H 0.76834 0.43179 0.39409 0.0
H887 H 0.79067 0.42463 0.41391 0.0
H888 H 0.76183 0.38677 0.4049 0.0
H889 H 0.81944 0.33918 0.40755 0.0
H890 H 0.84838 0.37682 0.41657 0.0
H891 H 0.86536 0.35169 0.39853 0.0
H892 H 0.87957 0.45277 0.35094 0.0
H893 H 0.91843 0.49653 0.36827 0.0
H894 H 0.86513 0.44824 0.41203 0.0
C895 C 0.78647 0.34422 0.37358 0.0
C896 C 0.7829 0.33182 0.35708 0.0
C897 C 0.80188 0.35273 0.34446 0.0
C898 C 0.82444 0.38516 0.34819 0.0
C899 C 0.82764 0.39641 0.36458 0.0
C900 C 0.80917 0.37667 0.37709 0.0
C901 C 0.81905 0.39365 0.39375 0.0
C902 C 0.78281 0.4102 0.40215 0.0
C903 C 0.83926 0.36354 0.40474 0.0
C904 C 0.84655 0.42551 0.38867 0.0
C905 C 0.85084 0.42676 0.37177 0.0
C906 C 0.87617 0.45239 0.36418 0.0
C907 C 0.89816 0.47707 0.37413 0.0
C908 C 0.89468 0.47593 0.39149 0.0
C909 C 0.86804 0.45019 0.39879 0.0
H910 H 0.87587 0.50533 0.6077 0.0
H911 H 0.9867 0.51979 0.63206 0.0
H912 H 0.95791 0.56836 0.65056 0.0
H913 H 0.85097 0.60314 0.60745 0.0
H914 H 0.8001 0.59589 0.61111 0.0
H915 H 0.82798 0.55886 0.60105 0.0
H916 H 0.80659 0.50922 0.62311 0.0
H917 H 0.7785 0.54615 0.63324 0.0
H918 H 0.81466 0.51967 0.64458 0.0
H919 H 0.91918 0.61898 0.66474 0.0
H920 H 0.87295 0.66921 0.6735 0.0
H921 H 0.78717 0.62251 0.6399 0.0
C922 C 0.89386 0.51813 0.61716 0.0
C923 C 0.93346 0.50867 0.6185 0.0
C924 C 0.95626 0.52659 0.63082 0.0
C925 C 0.94015 0.55409 0.64143 0.0
C926 C 0.90121 0.5633 0.6396 0.0
C927 C 0.87828 0.54586 0.62781 0.0
C928 C 0.83801 0.56311 0.62764 0.0
C929 C 0.82875 0.58133 0.61082 0.0
C930 C 0.80765 0.53272 0.63243 0.0
C931 C 0.84224 0.59361 0.64089 0.0
C932 C 0.8788 0.5929 0.64775 0.0
C933 C 0.8903 0.61956 0.65961 0.0
C934 C 0.86386 0.64804 0.66447 0.0
C935 C 0.82643 0.64971 0.65742 0.0
C936 C 0.81542 0.62173 0.64565 0.0
H937 H 0.67248 0.67133 0.84894 0.0
H938 H 0.76808 0.66313 0.88344 0.0
H939 H 0.73148 0.61533 0.89971 0.0
H940 H 0.59652 0.66444 0.87842 0.0
H941 H 0.56562 0.63559 0.86545 0.0
H942 H 0.5996 0.66865 0.85634 0.0
H943 H 0.62954 0.61259 0.83942 0.0
H944 H 0.59555 0.57937 0.84843 0.0
H945 H 0.64672 0.56998 0.84991 0.0
H946 H 0.68341 0.57047 0.91283 0.0
H947 H 0.62851 0.52919 0.92108 0.0
H948 H 0.56528 0.56548 0.87756 0.0
C949 C 0.68581 0.6594 0.85988 0.0
C950 C 0.72311 0.67102 0.86493 0.0
C951 C 0.73956 0.65461 0.8793 0.0
C952 C 0.71898 0.6275 0.88865 0.0
C953 C 0.68215 0.61692 0.88339 0.0
C954 C 0.66582 0.63213 0.86928 0.0
C955 C 0.62581 0.61587 0.8663 0.0
C956 C 0.59508 0.64806 0.86666 0.0
C957 C 0.62434 0.5931 0.85005 0.0
C958 C 0.62209 0.58935 0.88101 0.0
C959 C 0.65482 0.59048 0.89075 0.0
C960 C 0.65773 0.56914 0.90524 0.0
C961 C 0.62637 0.54587 0.90984 0.0
C962 C 0.59273 0.54398 0.89992 0.0
C963 C 0.59073 0.56605 0.88533 0.0
H964 H 0.43585 0.5993 0.90584 0.0
H965 H 0.39679 0.48016 0.90374 0.0
H966 H 0.34112 0.50016 0.88671 0.0
H967 H 0.34037 0.64415 0.90745 0.0
H968 H 0.35461 0.6841 0.89459 0.0
H969 H 0.3898 0.66064 0.90754 0.0
H970 H 0.43312 0.648 0.88207 0.0
H971 H 0.39798 0.67118 0.86904 0.0
H972 H 0.4134 0.62247 0.86464 0.0
H973 H 0.29121 0.53285 0.86885 0.0
H974 H 0.25088 0.57596 0.85165 0.0
H975 H 0.32369 0.67309 0.86522 0.0
C976 C 0.4153 0.57747 0.90201 0.0
C977 C 0.42056 0.53821 0.90619 0.0
C978 C 0.39329 0.51046 0.90073 0.0
C979 C 0.36156 0.52151 0.89106 0.0
C980 C 0.35756 0.56039 0.88695 0.0
C981 C 0.38364 0.58794 0.89229 0.0
C982 C 0.37372 0.62753 0.8856 0.0
C983 C 0.36404 0.65576 0.89963 0.0
C984 C 0.4065 0.6432 0.87469 0.0
C985 C 0.33822 0.61786 0.87554 0.0
C986 C 0.32918 0.57906 0.87653 0.0
C987 C 0.29788 0.56334 0.86804 0.0
C988 C 0.27519 0.58802 0.85829 0.0
C989 C 0.28411 0.62786 0.85708 0.0
C990 C 0.31604 0.64278 0.86587 0.0
H991 H 0.10892 0.57168 0.58745 0.0
H992 H 0.14454 0.45613 0.60177 0.0
H993 H 0.20582 0.48256 0.61262 0.0
H994 H 0.20685 0.60899 0.57678 0.0
H995 H 0.19584 0.65599 0.58515 0.0
H996 H 0.15798 0.62712 0.57614 0.0
H997 H 0.11858 0.6325 0.60318 0.0
H998 H 0.1563 0.66108 0.61228 0.0
H999 H 0.14038 0.61743 0.62229 0.0
H1000 H 0.25921 0.52267 0.62498 0.0
H1001 H 0.29992 0.57297 0.63786 0.0
H1002 H 0.22832 0.66184 0.61555 0.0
C1003 C 0.12998 0.55172 0.59247 0.0
C1004 C 0.12202 0.51183 0.59371 0.0
C1005 C 0.15012 0.4868 0.60062 0.0
C1006 C 0.18505 0.50153 0.60678 0.0
C1007 C 0.19146 0.54124 0.6058 0.0
C1008 C 0.16478 0.56593 0.5987 0.0
C1009 C 0.17672 0.60774 0.60053 0.0
C1010 C 0.18484 0.62602 0.58364 0.0
C1011 C 0.14619 0.63102 0.61014 0.0
C1012 C 0.21351 0.60286 0.61034 0.0
C1013 C 0.22196 0.56432 0.61304 0.0
C1014 C 0.25323 0.55292 0.62273 0.0
C1015 C 0.27613 0.58169 0.63002 0.0
C1016 C 0.2673 0.62132 0.6277 0.0
C1017 C 0.236 0.63182 0.61748 0.0
H1018 H 0.11705 0.43413 0.41192 0.0
H1019 H 0.09889 0.53165 0.37919 0.0
H1020 H 0.1542 0.51066 0.36231 0.0
H1021 H 0.22406 0.4316 0.40893 0.0
H1022 H 0.2256 0.37952 0.40903 0.0
H1023 H 0.1875 0.40464 0.41976 0.0
H1024 H 0.13629 0.36616 0.40322 0.0
H1025 H 0.17415 0.34099 0.39247 0.0
H1026 H 0.13777 0.36699 0.38105 0.0
H1027 H 0.20705 0.47651 0.34762 0.0
H1028 H 0.25334 0.43021 0.3356 0.0
H1029 H 0.23747 0.35427 0.37759 0.0
C1030 C 0.12525 0.45147 0.4014 0.0
C1031 C 0.10378 0.48458 0.3969 0.0
C1032 C 0.11489 0.50613 0.38285 0.0
C1033 C 0.14641 0.49458 0.37324 0.0
C1034 C 0.16656 0.46145 0.37782 0.0
C1035 C 0.15652 0.44016 0.39156 0.0
C1036 C 0.18106 0.40397 0.39296 0.0
C1037 C 0.20604 0.40502 0.4086 0.0
C1038 C 0.15581 0.36738 0.39238 0.0
C1039 C 0.20566 0.40779 0.37762 0.0
C1040 C 0.19715 0.44143 0.3692 0.0
C1041 C 0.21437 0.4503 0.35419 0.0
C1042 C 0.24056 0.42376 0.34745 0.0
C1043 C 0.24914 0.38872 0.35568 0.0
C1044 C 0.23193 0.38107 0.37112 0.0
H1045 H 0.4411 0.46331 0.13638 0.0
H1046 H 0.36513 0.52319 0.10228 0.0
H1047 H 0.31227 0.4782 0.10939 0.0
H1048 H 0.40984 0.36976 0.12691 0.0
H1049 H 0.41344 0.35169 0.14765 0.0
H1050 H 0.44405 0.39074 0.14106 0.0
H1051 H 0.4191 0.43327 0.16509 0.0
H1052 H 0.38857 0.39423 0.17184 0.0
H1053 H 0.36785 0.44096 0.1675 0.0
H1054 H 0.26916 0.42385 0.11889 0.0
H1055 H 0.23888 0.36507 0.13036 0.0
H1056 H 0.34377 0.34102 0.15794 0.0
C1057 C 0.41317 0.46747 0.1306 0.0
C1058 C 0.40718 0.49688 0.11882 0.0
C1059 C 0.37034 0.50094 0.11139 0.0
C1060 C 0.34014 0.47555 0.11535 0.0
C1061 C 0.3473 0.44638 0.12678 0.0
C1062 C 0.38286 0.44237 0.13436 0.0
C1063 C 0.38379 0.40752 0.14558 0.0
C1064 C 0.4146 0.37821 0.13995 0.0
C1065 C 0.39019 0.41974 0.16357 0.0
C1066 C 0.34337 0.39213 0.14294 0.0
C1067 C 0.32265 0.41504 0.13214 0.0
C1068 C 0.28499 0.40587 0.12746 0.0
C1069 C 0.26809 0.3724 0.13401 0.0
C1070 C 0.28894 0.34848 0.14506 0.0
C1071 C 0.32699 0.35874 0.14958 0.0
loop_
_geom_bond_atom_site_label_1
_geom_bond_atom_site_label_2
_geom_bond_distance
_geom_bond_site_symmetry_2
_ccdc_geom_bond_type
C0 O1 1.160 1_455 S
C0 O7 1.185 . S
O1 C0 1.160 1_655 S
O2 Zn3 1.899 1_655 S
O2 C10 1.284 1_545 S
Zn3 O2 1.899 1_455 S
Zn3 O4 2.032 . S
Zn3 O7 2.086 . S
Zn3 O12 1.977 . S
O4 Zn3 2.032 . S
O4 C8 1.278 . S
C5 O6 1.203 . S
C5 O12 1.267 1_565 S
O6 C5 1.203 . S
O7 C0 1.185 . S
O7 Zn3 2.086 . S
C8 O4 1.278 . S
C8 O9 1.211 1_545 S
O9 C8 1.211 1_565 S
C10 O2 1.284 1_565 S
C10 O11 1.273 . S
O11 C10 1.273 . S
O12 Zn3 1.977 . S
O12 C5 1.267 1_545 S
C13 O14 1.160 . S
C13 O20 1.185 . S
O14 C13 1.160 . S
O15 Zn16 1.899 . S
O15 C23 1.284 . S
Zn16 O15 1.899 . S
Zn16 O17 2.032 . S
Zn16 O20 2.086 . S
Zn16 O25 1.977 . S
O17 Zn16 2.032 . S
O17 C21 1.278 . S
C18 O19 1.203 . S
C18 O25 1.267 . S
O19 C18 1.203 . S
O20 C13 1.185 . S
O20 Zn16 2.086 . S
C21 O17 1.278 . S
C21 O22 1.211 . S
O22 C21 1.211 . S
C23 O15 1.284 . S
C23 O24 1.273 . S
O24 C23 1.273 . S
O25 Zn16 1.977 . S
O25 C18 1.267 . S
C26 O27 1.160 . S
C26 O33 1.185 . S
O27 C26 1.160 . S
O28 Zn29 1.899 . S
O28 C36 1.284 1_565 S
Zn29 O28 1.899 . S
Zn29 O30 2.032 . S
Zn29 O33 2.086 . S
Zn29 O38 1.977 . S
O30 Zn29 2.032 . S
O30 C34 1.278 . S
C31 O32 1.203 . S
C31 O38 1.267 1_545 S
O32 C31 1.203 . S
O33 C26 1.185 . S
O33 Zn29 2.086 . S
C34 O30 1.278 . S
C34 O35 1.211 1_565 S
O35 C34 1.211 1_545 S
C36 O28 1.284 1_545 S
C36 O37 1.273 . S
O37 C36 1.273 . S
O38 Zn29 1.977 . S
O38 C31 1.267 1_565 S
C39 O40 1.160 . S
C39 O46 1.185 . S
O40 C39 1.160 . S
O41 Zn42 1.899 . S
O41 C49 1.284 . S
Zn42 O41 1.899 . S
Zn42 O43 2.032 . S
Zn42 O46 2.086 . S
Zn42 O51 1.977 . S
O43 Zn42 2.032 . S
O43 C47 1.278 . S
C44 O45 1.203 . S
C44 O51 1.267 . S
O45 C44 1.203 . S
O46 C39 1.185 . S
O46 Zn42 2.086 . S
C47 O43 1.278 . S
C47 O48 1.211 . S
O48 C47 1.211 . S
C49 O41 1.284 . S
C49 O50 1.273 . S
O50 C49 1.273 . S
O51 Zn42 1.977 . S
O51 C44 1.267 . S
C52 O53 1.160 1_455 S
C52 O59 1.185 . S
O53 C52 1.160 1_655 S
O54 Zn55 1.899 1_655 S
O54 C62 1.284 1_565 S
Zn55 O54 1.899 1_455 S
Zn55 O56 2.032 . S
Zn55 O59 2.086 . S
Zn55 O64 1.977 . S
O56 Zn55 2.032 . S
O56 C60 1.278 . S
C57 O58 1.203 . S
C57 O64 1.267 1_545 S
O58 C57 1.203 . S
O59 C52 1.185 . S
O59 Zn55 2.086 . S
C60 O56 1.278 . S
C60 O61 1.211 1_565 S
O61 C60 1.211 1_545 S
C62 O54 1.284 1_545 S
C62 O63 1.273 . S
O63 C62 1.273 . S
O64 Zn55 1.977 . S
O64 C57 1.267 1_565 S
C65 O66 1.160 . S
C65 O72 1.185 . S
O66 C65 1.160 . S
O67 Zn68 1.899 . S
O67 C75 1.284 . S
Zn68 O67 1.899 . S
Zn68 O69 2.032 . S
Zn68 O72 2.086 . S
Zn68 O77 1.977 . S
O69 Zn68 2.032 . S
O69 C73 1.278 . S
C70 O71 1.203 . S
C70 O77 1.267 . S
O71 C70 1.203 . S
O72 C65 1.185 . S
O72 Zn68 2.086 . S
C73 O69 1.278 . S
C73 O74 1.211 . S
O74 C73 1.211 . S
C75 O67 1.284 . S
C75 O76 1.273 . S
O76 C75 1.273 . S
O77 Zn68 1.977 . S
O77 C70 1.267 . S
C78 O79 1.160 . S
C78 O85 1.185 . S
O79 C78 1.160 . S
O80 Zn81 1.899 . S
O80 C88 1.284 1_545 S
Zn81 O80 1.899 . S
Zn81 O82 2.032 . S
Zn81 O85 2.086 . S
Zn81 O90 1.977 . S
O82 Zn81 2.032 . S
O82 C86 1.278 . S
C83 O84 1.203 . S
C83 O90 1.267 1_565 S
O84 C83 1.203 . S
O85 C78 1.185 . S
O85 Zn81 2.086 . S
C86 O82 1.278 . S
C86 O87 1.211 1_545 S
O87 C86 1.211 1_565 S
C88 O80 1.284 1_565 S
C88 O89 1.273 . S
O89 C88 1.273 . S
O90 Zn81 1.977 . S
O90 C83 1.267 1_545 S
C91 O92 1.160 . S
C91 O98 1.185 . S
O92 C91 1.160 . S
O93 Zn94 1.899 . S
O93 C101 1.284 . S
Zn94 O93 1.899 . S
Zn94 O95 2.032 . S
Zn94 O98 2.086 . S
Zn94 O103 1.977 . S
O95 Zn94 2.032 . S
O95 C99 1.278 . S
C96 O97 1.203 . S
C96 O103 1.267 . S
O97 C96 1.203 . S
O98 C91 1.185 . S
O98 Zn94 2.086 . S
C99 O95 1.278 . S
C99 O100 1.211 . S
O100 C99 1.211 . S
C101 O93 1.284 . S
C101 O102 1.273 . S
O102 C101 1.273 . S
O103 Zn94 1.977 . S
O103 C96 1.267 . S
C104 O105 1.160 . S
C104 O111 1.185 . S
O105 C104 1.160 . S
O106 Zn107 1.899 . S
O106 C114 1.284 . S
Zn107 O106 1.899 . S
Zn107 O108 2.032 . S
Zn107 O111 2.086 . S
Zn107 O116 1.977 . S
O108 Zn107 2.032 . S
O108 C112 1.278 . S
C109 O110 1.203 . S
C109 O116 1.267 . S
O110 C109 1.203 . S
O111 C104 1.185 . S
O111 Zn107 2.086 . S
C112 O108 1.278 . S
C112 O113 1.211 . S
O113 C112 1.211 . S
C114 O106 1.284 . S
C114 O115 1.273 . S
O115 C114 1.273 . S
O116 Zn107 1.977 . S
O116 C109 1.267 . S
C117 O118 1.160 . S
C117 O124 1.185 . S
O118 C117 1.160 . S
O119 Zn120 1.899 . S
O119 C127 1.284 . S
Zn120 O119 1.899 . S
Zn120 O121 2.032 . S
Zn120 O124 2.086 . S
Zn120 O129 1.977 . S
O121 Zn120 2.032 . S
O121 C125 1.278 . S
C122 O123 1.203 . S
C122 O129 1.267 . S
O123 C122 1.203 . S
O124 C117 1.185 . S
O124 Zn120 2.086 . S
C125 O121 1.278 . S
C125 O126 1.211 . S
O126 C125 1.211 . S
C127 O119 1.284 . S
C127 O128 1.273 . S
O128 C127 1.273 . S
O129 Zn120 1.977 . S
O129 C122 1.267 . S
C130 O131 1.160 . S
C130 O137 1.185 . S
O131 C130 1.160 . S
O132 Zn133 1.899 . S
O132 C140 1.284 . S
Zn133 O132 1.899 . S
Zn133 O134 2.032 . S
Zn133 O137 2.086 . S
Zn133 O142 1.977 . S
O134 Zn133 2.032 . S
O134 C138 1.278 . S
C135 O136 1.203 . S
C135 O142 1.267 . S
O136 C135 1.203 . S
O137 C130 1.185 . S
O137 Zn133 2.086 . S
C138 O134 1.278 . S
C138 O139 1.211 . S
O139 C138 1.211 . S
C140 O132 1.284 . S
C140 O141 1.273 . S
O141 C140 1.273 . S
O142 Zn133 1.977 . S
O142 C135 1.267 . S
C143 O144 1.160 . S
C143 O150 1.185 . S
O144 C143 1.160 . S
O145 Zn146 1.899 . S
O145 C153 1.284 . S
Zn146 O145 1.899 . S
Zn146 O147 2.032 . S
Zn146 O150 2.086 . S
Zn146 O155 1.977 . S
O147 Zn146 2.032 . S
O147 C151 1.278 . S
C148 O149 1.203 . S
C148 O155 1.267 . S
O149 C148 1.203 . S
O150 C143 1.185 . S
O150 Zn146 2.086 . S
C151 O147 1.278 . S
C151 O152 1.211 . S
O152 C151 1.211 . S
C153 O145 1.284 . S
C153 O154 1.273 . S
O154 C153 1.273 . S
O155 Zn146 1.977 . S
O155 C148 1.267 . S
C156 O157 1.160 . S
C156 O163 1.185 . S
O157 C156 1.160 . S
O158 Zn159 1.899 . S
O158 C166 1.284 . S
Zn159 O158 1.899 . S
Zn159 O160 2.032 . S
Zn159 O163 2.086 . S
Zn159 O168 1.977 . S
O160 Zn159 2.032 . S
O160 C164 1.278 . S
C161 O162 1.203 . S
C161 O168 1.267 . S
O162 C161 1.203 . S
O163 C156 1.185 . S
O163 Zn159 2.086 . S
C164 O160 1.278 . S
C164 O165 1.211 . S
O165 C164 1.211 . S
C166 O158 1.284 . S
C166 O167 1.273 . S
O167 C166 1.273 . S
O168 Zn159 1.977 . S
O168 C161 1.267 . S
C169 O170 1.160 . S
C169 O176 1.185 . S
O170 C169 1.160 . S
O171 Zn172 1.899 . S
O171 C179 1.284 . S
Zn172 O171 1.899 . S
Zn172 O173 2.032 . S
Zn172 O176 2.086 . S
Zn172 O181 1.977 1_455 S
O173 Zn172 2.032 . S
O173 C177 1.278 . S
C174 O175 1.203 . S
C174 O181 1.267 . S
O175 C174 1.203 . S
O176 C169 1.185 . S
O176 Zn172 2.086 . S
C177 O173 1.278 . S
C177 O178 1.211 . S
O178 C177 1.211 . S
C179 O171 1.284 . S
C179 O180 1.273 . S
O180 C179 1.273 . S
O181 Zn172 1.977 1_655 S
O181 C174 1.267 . S
C182 O183 1.160 . S
C182 O189 1.185 . S
O183 C182 1.160 . S
O184 Zn185 1.899 . S
O184 C192 1.284 . S
Zn185 O184 1.899 . S
Zn185 O186 2.032 . S
Zn185 O189 2.086 . S
Zn185 O194 1.977 . S
O186 Zn185 2.032 . S
O186 C190 1.278 . S
C187 O188 1.203 . S
C187 O194 1.267 . S
O188 C187 1.203 . S
O189 C182 1.185 . S
O189 Zn185 2.086 . S
C190 O186 1.278 . S
C190 O191 1.211 . S
O191 C190 1.211 . S
C192 O184 1.284 . S
C192 O193 1.273 . S
O193 C192 1.273 . S
O194 Zn185 1.977 . S
O194 C187 1.267 . S
C195 O196 1.160 . S
C195 O202 1.185 . S
O196 C195 1.160 . S
O197 Zn198 1.899 . S
O197 C205 1.284 . S
Zn198 O197 1.899 . S
Zn198 O199 2.032 . S
Zn198 O202 2.086 . S
Zn198 O207 1.977 1_455 S
O199 Zn198 2.032 . S
O199 C203 1.278 . S
C200 O201 1.203 . S
C200 O207 1.267 . S
O201 C200 1.203 . S
O202 C195 1.185 . S
O202 Zn198 2.086 . S
C203 O199 1.278 . S
C203 O204 1.211 . S
O204 C203 1.211 . S
C205 O197 1.284 . S
C205 O206 1.273 . S
O206 C205 1.273 . S
O207 Zn198 1.977 1_655 S
O207 C200 1.267 . S
H208 C220 0.930 . S
H209 C222 0.930 . S
H210 C223 0.930 . S
H211 C227 0.959 . S
H212 C227 0.959 1_655 S
H213 C227 0.961 1_655 S
H214 C228 0.960 . S
H215 C228 0.961 . S
H216 C228 0.959 . S
H217 C231 0.929 . S
H218 C232 0.931 . S
H219 C234 0.930 1_655 S
C220 H208 0.930 . S
C220 C221 1.399 1_655 S
C220 C225 1.399 1_655 S
C221 C220 1.399 1_455 S
C221 C222 1.376 . S
C222 H209 0.930 . S
C222 C221 1.376 . S
C222 C223 1.388 . S
C223 H210 0.930 . S
C223 C222 1.388 . S
C223 C224 1.390 . S
C224 C223 1.390 . S
C224 C225 1.394 . S
C224 C230 1.465 . S
C225 C220 1.399 1_455 S
C225 C224 1.394 . S
C225 C226 1.516 1_455 S
C226 C225 1.516 1_655 S
C226 C227 1.502 1_655 S
C226 C228 1.561 . S
C226 C229 1.526 1_655 S
C227 H211 0.959 . S
C227 H212 0.959 1_455 S
C227 H213 0.961 1_455 S
C227 C226 1.502 1_455 S
C228 H214 0.960 . S
C228 H215 0.961 . S
C228 H216 0.959 . S
C228 C226 1.561 . S
C229 C226 1.526 1_455 S
C229 C230 1.396 . S
C229 C234 1.390 . S
C230 C224 1.465 . S
C230 C229 1.396 . S
C230 C231 1.399 . S
C231 H217 0.929 . S
C231 C230 1.399 . S
C231 C232 1.385 . S
C232 H218 0.931 . S
C232 C231 1.385 . S
C232 C233 1.389 . S
C233 C232 1.389 . S
C233 C234 1.387 . S
C234 H219 0.930 1_455 S
C234 C229 1.390 . S
C234 C233 1.387 . S
H235 C247 0.930 . S
H236 C249 0.930 . S
H237 C250 0.930 . S
H238 C254 0.959 . S
H239 C254 0.959 . S
H240 C254 0.961 1_655 S
H241 C255 0.960 1_655 S
H242 C255 0.961 . S
H243 C255 0.959 . S
H244 C258 0.929 . S
H245 C259 0.931 . S
H246 C261 0.930 . S
C247 H235 0.930 . S
C247 C248 1.399 . S
C247 C252 1.399 . S
C248 C247 1.399 . S
C248 C249 1.376 . S
C249 H236 0.930 . S
C249 C248 1.376 . S
C249 C250 1.388 . S
C250 H237 0.930 . S
C250 C249 1.388 . S
C250 C251 1.390 . S
C251 C250 1.390 . S
C251 C252 1.394 . S
C251 C257 1.465 1_655 S
C252 C247 1.399 . S
C252 C251 1.394 . S
C252 C253 1.516 1_655 S
C253 C252 1.516 1_455 S
C253 C254 1.502 . S
C253 C255 1.561 . S
C253 C256 1.526 . S
C254 H238 0.959 . S
C254 H239 0.959 . S
C254 H240 0.961 1_455 S
C254 C253 1.502 . S
C255 H241 0.960 1_455 S
C255 H242 0.961 . S
C255 H243 0.959 . S
C255 C253 1.561 . S
C256 C253 1.526 . S
C256 C257 1.396 . S
C256 C261 1.390 . S
C257 C251 1.465 1_455 S
C257 C256 1.396 . S
C257 C258 1.399 . S
C258 H244 0.929 . S
C258 C257 1.399 . S
C258 C259 1.385 . S
C259 H245 0.931 . S
C259 C258 1.385 . S
C259 C260 1.389 . S
C260 C259 1.389 . S
C260 C261 1.387 . S
C261 H246 0.930 . S
C261 C256 1.390 . S
C261 C260 1.387 . S
H262 C274 0.930 . S
H263 C276 0.930 . S
H264 C277 0.930 . S
H265 C281 0.959 . S
H266 C281 0.959 . S
H267 C281 0.961 . S
H268 C282 0.960 . S
H269 C282 0.961 . S
H270 C282 0.959 . S
H271 C285 0.929 . S
H272 C286 0.931 . S
H273 C288 0.930 . S
C274 H262 0.930 . S
C274 C275 1.399 . S
C274 C279 1.399 . S
C275 C274 1.399 . S
C275 C276 1.376 . S
C276 H263 0.930 . S
C276 C275 1.376 . S
C276 C277 1.388 . S
C277 H264 0.930 . S
C277 C276 1.388 . S
C277 C278 1.390 . S
C278 C277 1.390 . S
C278 C279 1.394 . S
C278 C284 1.465 . S
C279 C274 1.399 . S
C279 C278 1.394 . S
C279 C280 1.516 . S
C280 C279 1.516 . S
C280 C281 1.502 . S
C280 C282 1.561 . S
C280 C283 1.526 . S
C281 H265 0.959 . S
C281 H266 0.959 . S
C281 H267 0.961 . S
C281 C280 1.502 . S
C282 H268 0.960 . S
C282 H269 0.961 . S
C282 H270 0.959 . S
C282 C280 1.561 . S
C283 C280 1.526 . S
C283 C284 1.396 . S
C283 C288 1.390 . S
C284 C278 1.465 . S
C284 C283 1.396 . S
C284 C285 1.399 . S
C285 H271 0.929 . S
C285 C284 1.399 . S
C285 C286 1.385 . S
C286 H272 0.931 . S
C286 C285 1.385 . S
C286 C287 1.389 . S
C287 C286 1.389 . S
C287 C288 1.387 . S
C288 H273 0.930 . S
C288 C283 1.390 . S
C288 C287 1.387 . S
H289 C301 0.930 . S
H290 C303 0.930 . S
H291 C304 0.930 . S
H292 C308 0.959 . S
H293 C308 0.959 . S
H294 C308 0.961 . S
H295 C309 0.960 . S
H296 C309 0.961 . S
H297 C309 0.959 . S
H298 C312 0.929 . S
H299 C313 0.931 . S
H300 C315 0.930 . S
C301 H289 0.930 . S
C301 C302 1.399 . S
C301 C306 1.399 . S
C302 C301 1.399 . S
C302 C303 1.376 . S
C303 H290 0.930 . S
C303 C302 1.376 . S
C303 C304 1.388 . S
C304 H291 0.930 . S
C304 C303 1.388 . S
C304 C305 1.390 . S
C305 C304 1.390 . S
C305 C306 1.394 . S
C305 C311 1.465 . S
C306 C301 1.399 . S
C306 C305 1.394 . S
C306 C307 1.516 . S
C307 C306 1.516 . S
C307 C308 1.502 . S
C307 C309 1.561 . S
C307 C310 1.526 . S
C308 H292 0.959 . S
C308 H293 0.959 . S
C308 H294 0.961 . S
C308 C307 1.502 . S
C309 H295 0.960 . S
C309 H296 0.961 . S
C309 H297 0.959 . S
C309 C307 1.561 . S
C310 C307 1.526 . S
C310 C311 1.396 . S
C310 C315 1.390 . S
C311 C305 1.465 . S
C311 C310 1.396 . S
C311 C312 1.399 . S
C312 H298 0.929 . S
C312 C311 1.399 . S
C312 C313 1.385 . S
C313 H299 0.931 . S
C313 C312 1.385 . S
C313 C314 1.389 . S
C314 C313 1.389 . S
C314 C315 1.387 . S
C315 H300 0.930 . S
C315 C310 1.390 . S
C315 C314 1.387 . S
H316 C328 0.930 1_655 S
H317 C330 0.930 . S
H318 C331 0.930 . S
H319 C335 0.959 . S
H320 C335 0.959 . S
H321 C335 0.961 . S
H322 C336 0.960 . S
H323 C336 0.961 . S
H324 C336 0.959 . S
H325 C339 0.929 . S
H326 C340 0.931 . S
H327 C342 0.930 . S
C328 H316 0.930 1_455 S
C328 C329 1.399 . S
C328 C333 1.399 . S
C329 C328 1.399 . S
C329 C330 1.376 . S
C330 H317 0.930 . S
C330 C329 1.376 . S
C330 C331 1.388 . S
C331 H318 0.930 . S
C331 C330 1.388 . S
C331 C332 1.390 . S
C332 C331 1.390 . S
C332 C333 1.394 . S
C332 C338 1.465 . S
C333 C328 1.399 . S
C333 C332 1.394 . S
C333 C334 1.516 . S
C334 C333 1.516 . S
C334 C335 1.502 1_455 S
C334 C336 1.561 . S
C334 C337 1.526 . S
C335 H319 0.959 . S
C335 H320 0.959 . S
C335 H321 0.961 . S
C335 C334 1.502 1_655 S
C336 H322 0.960 . S
C336 H323 0.961 . S
C336 H324 0.959 . S
C336 C334 1.561 . S
C337 C334 1.526 . S
C337 C338 1.396 . S
C337 C342 1.390 . S
C338 C332 1.465 . S
C338 C337 1.396 . S
C338 C339 1.399 . S
C339 H325 0.929 . S
C339 C338 1.399 . S
C339 C340 1.385 . S
C340 H326 0.931 . S
C340 C339 1.385 . S
C340 C341 1.389 . S
C341 C340 1.389 . S
C341 C342 1.387 . S
C342 H327 0.930 . S
C342 C337 1.390 . S
C342 C341 1.387 . S
H343 C355 0.930 . S
H344 C357 0.930 . S
H345 C358 0.930 . S
H346 C362 0.959 . S
H347 C362 0.959 . S
H348 C362 0.961 . S
H349 C363 0.960 . S
H350 C363 0.961 . S
H351 C363 0.959 . S
H352 C366 0.929 . S
H353 C367 0.931 . S
H354 C369 0.930 . S
C355 H343 0.930 . S
C355 C356 1.399 . S
C355 C360 1.399 . S
C356 C355 1.399 . S
C356 C357 1.376 . S
C357 H344 0.930 . S
C357 C356 1.376 . S
C357 C358 1.388 . S
C358 H345 0.930 . S
C358 C357 1.388 . S
C358 C359 1.390 . S
C359 C358 1.390 . S
C359 C360 1.394 . S
C359 C365 1.465 . S
C360 C355 1.399 . S
C360 C359 1.394 . S
C360 C361 1.516 . S
C361 C360 1.516 . S
C361 C362 1.502 . S
C361 C363 1.561 . S
C361 C364 1.526 . S
C362 H346 0.959 . S
C362 H347 0.959 . S
C362 H348 0.961 . S
C362 C361 1.502 . S
C363 H349 0.960 . S
C363 H350 0.961 . S
C363 H351 0.959 . S
C363 C361 1.561 . S
C364 C361 1.526 . S
C364 C365 1.396 . S
C364 C369 1.390 . S
C365 C359 1.465 . S
C365 C364 1.396 . S
C365 C366 1.399 . S
C366 H352 0.929 . S
C366 C365 1.399 . S
C366 C367 1.385 . S
C367 H353 0.931 . S
C367 C366 1.385 . S
C367 C368 1.389 . S
C368 C367 1.389 . S
C368 C369 1.387 . S
C369 H354 0.930 . S
C369 C364 1.390 . S
C369 C368 1.387 . S
H370 C382 0.930 . S
H371 C384 0.930 . S
H372 C385 0.930 . S
H373 C389 0.959 . S
H374 C389 0.959 . S
H375 C389 0.961 . S
H376 C390 0.960 . S
H377 C390 0.961 . S
H378 C390 0.959 . S
H379 C393 0.929 . S
H380 C394 0.931 . S
H381 C396 0.930 . S
C382 H370 0.930 . S
C382 C383 1.399 . S
C382 C387 1.399 . S
C383 C382 1.399 . S
C383 C384 1.376 . S
C384 H371 0.930 . S
C384 C383 1.376 . S
C384 C385 1.388 . S
C385 H372 0.930 . S
C385 C384 1.388 . S
C385 C386 1.390 . S
C386 C385 1.390 . S
C386 C387 1.394 . S
C386 C392 1.465 . S
C387 C382 1.399 . S
C387 C386 1.394 . S
C387 C388 1.516 . S
C388 C387 1.516 . S
C388 C389 1.502 . S
C388 C390 1.561 . S
C388 C391 1.526 . S
C389 H373 0.959 . S
C389 H374 0.959 . S
C389 H375 0.961 . S
C389 C388 1.502 . S
C390 H376 0.960 . S
C390 H377 0.961 . S
C390 H378 0.959 . S
C390 C388 1.561 . S
C391 C388 1.526 . S
C391 C392 1.396 . S
C391 C396 1.390 . S
C392 C386 1.465 . S
C392 C391 1.396 . S
C392 C393 1.399 . S
C393 H379 0.929 . S
C393 C392 1.399 . S
C393 C394 1.385 . S
C394 H380 0.931 . S
C394 C393 1.385 . S
C394 C395 1.389 . S
C395 C394 1.389 . S
C395 C396 1.387 . S
C396 H381 0.930 . S
C396 C391 1.390 . S
C396 C395 1.387 . S
H397 C409 0.930 . S
H398 C411 0.930 . S
H399 C412 0.930 . S
H400 C416 0.959 . S
H401 C416 0.959 1_655 S
H402 C416 0.961 . S
H403 C417 0.960 . S
H404 C417 0.961 1_655 S
H405 C417 0.959 . S
H406 C420 0.929 . S
H407 C421 0.931 . S
H408 C423 0.930 . S
C409 H397 0.930 . S
C409 C410 1.399 . S
C409 C414 1.399 . S
C410 C409 1.399 . S
C410 C411 1.376 . S
C411 H398 0.930 . S
C411 C410 1.376 . S
C411 C412 1.388 . S
C412 H399 0.930 . S
C412 C411 1.388 . S
C412 C413 1.390 . S
C413 C412 1.390 . S
C413 C414 1.394 . S
C413 C419 1.465 1_455 S
C414 C409 1.399 . S
C414 C413 1.394 . S
C414 C415 1.516 . S
C415 C414 1.516 . S
C415 C416 1.502 . S
C415 C417 1.561 . S
C415 C418 1.526 1_455 S
C416 H400 0.959 . S
C416 H401 0.959 1_455 S
C416 H402 0.961 . S
C416 C415 1.502 . S
C417 H403 0.960 . S
C417 H404 0.961 1_455 S
C417 H405 0.959 . S
C417 C415 1.561 . S
C418 C415 1.526 1_655 S
C418 C419 1.396 . S
C418 C423 1.390 . S
C419 C413 1.465 1_655 S
C419 C418 1.396 . S
C419 C420 1.399 . S
C420 H406 0.929 . S
C420 C419 1.399 . S
C420 C421 1.385 . S
C421 H407 0.931 . S
C421 C420 1.385 . S
C421 C422 1.389 . S
C422 C421 1.389 . S
C422 C423 1.387 . S
C423 H408 0.930 . S
C423 C418 1.390 . S
C423 C422 1.387 . S
H424 C436 0.930 . S
H425 C438 0.930 . S
H426 C439 0.930 . S
H427 C443 0.959 . S
H428 C443 0.959 . S
H429 C443 0.961 . S
H430 C444 0.960 . S
H431 C444 0.961 . S
H432 C444 0.959 1_455 S
H433 C447 0.929 . S
H434 C448 0.931 . S
H435 C450 0.930 . S
C436 H424 0.930 . S
C436 C437 1.399 1_655 S
C436 C441 1.399 . S
C437 C436 1.399 1_455 S
C437 C438 1.376 1_565 S
C438 H425 0.930 . S
C438 C437 1.376 1_545 S
C438 C439 1.388 . S
C439 H426 0.930 . S
C439 C438 1.388 . S
C439 C440 1.390 . S
C440 C439 1.390 . S
C440 C441 1.392 1_445 S
C440 C446 1.465 . S
C441 C436 1.399 . S
C441 C440 1.392 1_665 S
C441 C442 1.517 . S
C442 C441 1.517 . S
C442 C443 1.502 . S
C442 C444 1.561 . S
C442 C445 1.525 . S
C443 H427 0.959 . S
C443 H428 0.959 . S
C443 H429 0.961 . S
C443 C442 1.502 . S
C444 H430 0.960 . S
C444 H431 0.961 . S
C444 H432 0.959 1_655 S
C444 C442 1.561 . S
C445 C442 1.525 . S
C445 C446 1.398 1_665 S
C445 C450 1.389 . S
C446 C440 1.465 . S
C446 C445 1.398 1_445 S
C446 C447 1.399 . S
C447 H433 0.929 . S
C447 C446 1.399 . S
C447 C448 1.385 . S
C448 H434 0.931 . S
C448 C447 1.385 . S
C448 C449 1.389 . S
C449 C448 1.389 . S
C449 C450 1.387 1_445 S
C450 H435 0.930 . S
C450 C445 1.389 . S
C450 C449 1.387 1_665 S
H451 C463 0.930 . S
H452 C465 0.930 . S
H453 C466 0.930 . S
H454 C470 0.959 . S
H455 C470 0.959 . S
H456 C470 0.961 . S
H457 C471 0.960 . S
H458 C471 0.961 . S
H459 C471 0.959 . S
H460 C474 0.929 . S
H461 C475 0.931 . S
H462 C477 0.930 . S
C463 H451 0.930 . S
C463 C464 1.399 . S
C463 C468 1.399 . S
C464 C463 1.399 . S
C464 C465 1.376 . S
C465 H452 0.930 . S
C465 C464 1.376 . S
C465 C466 1.388 . S
C466 H453 0.930 . S
C466 C465 1.388 . S
C466 C467 1.390 . S
C467 C466 1.390 . S
C467 C468 1.394 . S
C467 C473 1.465 . S
C468 C463 1.399 . S
C468 C467 1.394 . S
C468 C469 1.516 . S
C469 C468 1.516 . S
C469 C470 1.502 . S
C469 C471 1.561 . S
C469 C472 1.526 . S
C470 H454 0.959 . S
C470 H455 0.959 . S
C470 H456 0.961 . S
C470 C469 1.502 . S
C471 H457 0.960 . S
C471 H458 0.961 . S
C471 H459 0.959 . S
C471 C469 1.561 . S
C472 C469 1.526 . S
C472 C473 1.396 . S
C472 C477 1.390 . S
C473 C467 1.465 . S
C473 C472 1.396 . S
C473 C474 1.399 . S
C474 H460 0.929 . S
C474 C473 1.399 . S
C474 C475 1.385 . S
C475 H461 0.931 . S
C475 C474 1.385 . S
C475 C476 1.389 . S
C476 C475 1.389 . S
C476 C477 1.387 . S
C477 H462 0.930 . S
C477 C472 1.390 . S
C477 C476 1.387 . S
H478 C490 0.930 . S
H479 C492 0.930 . S
H480 C493 0.930 . S
H481 C497 0.959 . S
H482 C497 0.959 1_556 S
H483 C497 0.961 . S
H484 C498 0.960 . S
H485 C498 0.961 1_556 S
H486 C498 0.959 . S
H487 C501 0.929 . S
H488 C502 0.931 . S
H489 C504 0.930 . S
C490 H478 0.930 . S
C490 C491 1.399 1_545 S
C490 C495 1.399 . S
C491 C490 1.399 1_565 S
C491 C492 1.376 . S
C492 H479 0.930 . S
C492 C491 1.376 . S
C492 C493 1.388 . S
C493 H480 0.930 . S
C493 C492 1.388 . S
C493 C494 1.390 . S
C494 C493 1.390 . S
C494 C495 1.394 1_565 S
C494 C500 1.465 1_554 S
C495 C490 1.399 . S
C495 C494 1.394 1_545 S
C495 C496 1.516 . S
C496 C495 1.516 . S
C496 C497 1.502 . S
C496 C498 1.561 . S
C496 C499 1.526 1_554 S
C497 H481 0.959 . S
C497 H482 0.959 1_554 S
C497 H483 0.961 . S
C497 C496 1.502 . S
C498 H484 0.960 . S
C498 H485 0.961 1_554 S
C498 H486 0.959 . S
C498 C496 1.561 . S
C499 C496 1.526 1_556 S
C499 C500 1.396 1_545 S
C499 C504 1.390 . S
C500 C494 1.465 1_556 S
C500 C499 1.396 1_565 S
C500 C501 1.399 . S
C501 H487 0.929 . S
C501 C500 1.399 . S
C501 C502 1.385 . S
C502 H488 0.931 . S
C502 C501 1.385 . S
C502 C503 1.389 1_565 S
C503 C502 1.389 1_545 S
C503 C504 1.387 . S
C504 H489 0.930 . S
C504 C499 1.390 . S
C504 C503 1.387 . S
H505 C517 0.930 . S
H506 C519 0.930 . S
H507 C520 0.930 . S
H508 C524 0.959 . S
H509 C524 0.959 . S
H510 C524 0.961 . S
H511 C525 0.960 . S
H512 C525 0.961 . S
H513 C525 0.959 . S
H514 C528 0.929 . S
H515 C529 0.931 . S
H516 C531 0.930 . S
C517 H505 0.930 . S
C517 C518 1.399 . S
C517 C522 1.399 . S
C518 C517 1.399 . S
C518 C519 1.376 . S
C519 H506 0.930 . S
C519 C518 1.376 . S
C519 C520 1.388 . S
C520 H507 0.930 . S
C520 C519 1.388 . S
C520 C521 1.390 . S
C521 C520 1.390 . S
C521 C522 1.394 . S
C521 C527 1.465 . S
C522 C517 1.399 . S
C522 C521 1.394 . S
C522 C523 1.516 . S
C523 C522 1.516 . S
C523 C524 1.502 . S
C523 C525 1.561 . S
C523 C526 1.526 . S
C524 H508 0.959 . S
C524 H509 0.959 . S
C524 H510 0.961 . S
C524 C523 1.502 . S
C525 H511 0.960 . S
C525 H512 0.961 . S
C525 H513 0.959 . S
C525 C523 1.561 . S
C526 C523 1.526 . S
C526 C527 1.396 . S
C526 C531 1.390 . S
C527 C521 1.465 . S
C527 C526 1.396 . S
C527 C528 1.399 . S
C528 H514 0.929 . S
C528 C527 1.399 . S
C528 C529 1.385 . S
C529 H515 0.931 . S
C529 C528 1.385 . S
C529 C530 1.389 . S
C530 C529 1.389 . S
C530 C531 1.387 . S
C531 H516 0.930 . S
C531 C526 1.390 . S
C531 C530 1.387 . S
H532 C544 0.930 . S
H533 C546 0.930 . S
H534 C547 0.930 . S
H535 C551 0.959 . S
H536 C551 0.959 . S
H537 C551 0.961 . S
H538 C552 0.960 . S
H539 C552 0.961 . S
H540 C552 0.959 . S
H541 C555 0.929 . S
H542 C556 0.931 . S
H543 C558 0.930 . S
C544 H532 0.930 . S
C544 C545 1.399 . S
C544 C549 1.399 . S
C545 C544 1.399 . S
C545 C546 1.376 . S
C546 H533 0.930 . S
C546 C545 1.376 . S
C546 C547 1.388 . S
C547 H534 0.930 . S
C547 C546 1.388 . S
C547 C548 1.390 . S
C548 C547 1.390 . S
C548 C549 1.394 . S
C548 C554 1.465 . S
C549 C544 1.399 . S
C549 C548 1.394 . S
C549 C550 1.516 . S
C550 C549 1.516 . S
C550 C551 1.502 . S
C550 C552 1.561 . S
C550 C553 1.526 . S
C551 H535 0.959 . S
C551 H536 0.959 . S
C551 H537 0.961 . S
C551 C550 1.502 . S
C552 H538 0.960 . S
C552 H539 0.961 . S
C552 H540 0.959 . S
C552 C550 1.561 . S
C553 C550 1.526 . S
C553 C554 1.396 . S
C553 C558 1.390 . S
C554 C548 1.465 . S
C554 C553 1.396 . S
C554 C555 1.399 . S
C555 H541 0.929 . S
C555 C554 1.399 . S
C555 C556 1.385 . S
C556 H542 0.931 . S
C556 C555 1.385 . S
C556 C557 1.389 . S
C557 C556 1.389 . S
C557 C558 1.387 . S
C558 H543 0.930 . S
C558 C553 1.390 . S
C558 C557 1.387 . S
H559 C571 0.930 . S
H560 C573 0.930 . S
H561 C574 0.930 . S
H562 C578 0.959 . S
H563 C578 0.959 . S
H564 C578 0.961 . S
H565 C579 0.960 . S
H566 C579 0.961 . S
H567 C579 0.959 . S
H568 C582 0.929 . S
H569 C583 0.931 . S
H570 C585 0.930 . S
C571 H559 0.930 . S
C571 C572 1.399 . S
C571 C576 1.399 . S
C572 C571 1.399 . S
C572 C573 1.376 . S
C573 H560 0.930 . S
C573 C572 1.376 . S
C573 C574 1.388 . S
C574 H561 0.930 . S
C574 C573 1.388 . S
C574 C575 1.390 . S
C575 C574 1.390 . S
C575 C576 1.394 . S
C575 C581 1.465 . S
C576 C571 1.399 . S
C576 C575 1.394 . S
C576 C577 1.516 . S
C577 C576 1.516 . S
C577 C578 1.502 . S
C577 C579 1.561 . S
C577 C580 1.526 . S
C578 H562 0.959 . S
C578 H563 0.959 . S
C578 H564 0.961 . S
C578 C577 1.502 . S
C579 H565 0.960 . S
C579 H566 0.961 . S
C579 H567 0.959 . S
C579 C577 1.561 . S
C580 C577 1.526 . S
C580 C581 1.396 . S
C580 C585 1.390 . S
C581 C575 1.465 . S
C581 C580 1.396 . S
C581 C582 1.399 . S
C582 H568 0.929 . S
C582 C581 1.399 . S
C582 C583 1.385 . S
C583 H569 0.931 . S
C583 C582 1.385 . S
C583 C584 1.389 . S
C584 C583 1.389 . S
C584 C585 1.387 . S
C585 H570 0.930 . S
C585 C580 1.390 . S
C585 C584 1.387 . S
H586 C598 0.930 . S
H587 C600 0.930 . S
H588 C601 0.930 . S
H589 C605 0.967 . S
H590 C605 0.959 1_554 S
H591 C605 0.961 . S
H592 C606 0.960 . S
H593 C606 0.961 1_554 S
H594 C606 0.959 . S
H595 C609 0.929 . S
H596 C610 0.931 . S
H597 C612 0.930 . S
C598 H586 0.930 . S
C598 C599 1.399 . S
C598 C603 1.399 . S
C599 C598 1.399 . S
C599 C600 1.376 . S
C600 H587 0.930 . S
C600 C599 1.376 . S
C600 C601 1.388 . S
C601 H588 0.930 . S
C601 C600 1.388 . S
C601 C602 1.390 . S
C602 C601 1.390 . S
C602 C603 1.394 . S
C602 C608 1.465 1_556 S
C603 C598 1.399 . S
C603 C602 1.394 . S
C603 C604 1.516 . S
C604 C603 1.516 . S
C604 C605 1.502 . S
C604 C606 1.561 . S
C604 C607 1.526 1_556 S
C605 H589 0.967 . S
C605 H590 0.959 1_556 S
C605 H591 0.961 . S
C605 C604 1.502 . S
C606 H592 0.960 . S
C606 H593 0.961 1_556 S
C606 H594 0.959 . S
C606 C604 1.561 . S
C607 C604 1.526 1_554 S
C607 C608 1.396 . S
C607 C612 1.390 . S
C608 C602 1.465 1_554 S
C608 C607 1.396 . S
C608 C609 1.399 . S
C609 H595 0.929 . S
C609 C608 1.399 . S
C609 C610 1.385 . S
C610 H596 0.931 . S
C610 C609 1.385 . S
C610 C611 1.389 . S
C611 C610 1.389 . S
C611 C612 1.387 . S
C612 H597 0.930 . S
C612 C607 1.390 . S
C612 C611 1.387 . S
H613 C625 0.930 . S
H614 C627 0.930 1_655 S
H615 C628 0.930 1_655 S
H616 C632 0.959 . S
H617 C632 0.959 . S
H618 C632 0.961 . S
H619 C633 0.960 . S
H620 C633 0.958 1_455 S
H621 C633 0.959 . S
H622 C636 0.929 1_655 S
H623 C637 0.931 . S
H624 C639 0.930 . S
C625 H613 0.930 . S
C625 C626 1.399 . S
C625 C630 1.399 . S
C626 C625 1.399 . S
C626 C627 1.376 . S
C627 H614 0.930 1_455 S
C627 C626 1.376 . S
C627 C628 1.388 . S
C628 H615 0.930 1_455 S
C628 C627 1.388 . S
C628 C629 1.390 . S
C629 C628 1.390 . S
C629 C630 1.394 . S
C629 C635 1.465 . S
C630 C625 1.399 . S
C630 C629 1.394 . S
C630 C631 1.516 . S
C631 C630 1.516 . S
C631 C632 1.502 . S
C631 C633 1.561 1_455 S
C631 C634 1.526 . S
C632 H616 0.959 . S
C632 H617 0.959 . S
C632 H618 0.961 . S
C632 C631 1.502 . S
C633 H619 0.960 . S
C633 H620 0.958 1_655 S
C633 H621 0.959 . S
C633 C631 1.561 1_655 S
C634 C631 1.526 . S
C634 C635 1.396 . S
C634 C639 1.390 . S
C635 C629 1.465 . S
C635 C634 1.396 . S
C635 C636 1.399 . S
C636 H622 0.929 1_455 S
C636 C635 1.399 . S
C636 C637 1.385 . S
C637 H623 0.931 . S
C637 C636 1.385 . S
C637 C638 1.389 . S
C638 C637 1.389 . S
C638 C639 1.387 . S
C639 H624 0.930 . S
C639 C634 1.390 . S
C639 C638 1.387 . S
H640 C652 0.930 . S
H641 C654 0.930 . S
H642 C655 0.930 . S
H643 C659 0.959 . S
H644 C659 0.959 . S
H645 C659 0.961 . S
H646 C660 0.960 . S
H647 C660 0.961 . S
H648 C660 0.959 . S
H649 C663 0.929 . S
H650 C664 0.931 . S
H651 C666 0.930 . S
C652 H640 0.930 . S
C652 C653 1.399 . S
C652 C657 1.399 . S
C653 C652 1.399 . S
C653 C654 1.376 . S
C654 H641 0.930 . S
C654 C653 1.376 . S
C654 C655 1.388 . S
C655 H642 0.930 . S
C655 C654 1.388 . S
C655 C656 1.390 . S
C656 C655 1.390 . S
C656 C657 1.394 . S
C656 C662 1.465 . S
C657 C652 1.399 . S
C657 C656 1.394 . S
C657 C658 1.516 . S
C658 C657 1.516 . S
C658 C659 1.502 . S
C658 C660 1.561 . S
C658 C661 1.526 . S
C659 H643 0.959 . S
C659 H644 0.959 . S
C659 H645 0.961 . S
C659 C658 1.502 . S
C660 H646 0.960 . S
C660 H647 0.961 . S
C660 H648 0.959 . S
C660 C658 1.561 . S
C661 C658 1.526 . S
C661 C662 1.396 . S
C661 C666 1.390 . S
C662 C656 1.465 . S
C662 C661 1.396 . S
C662 C663 1.399 . S
C663 H649 0.929 . S
C663 C662 1.399 . S
C663 C664 1.385 . S
C664 H650 0.931 . S
C664 C663 1.385 . S
C664 C665 1.389 . S
C665 C664 1.389 . S
C665 C666 1.387 . S
C666 H651 0.930 . S
C666 C661 1.390 . S
C666 C665 1.387 . S
H667 C679 0.930 . S
H668 C681 0.930 . S
H669 C682 0.930 . S
H670 C686 0.959 . S
H671 C686 0.959 . S
H672 C686 0.961 . S
H673 C687 0.960 . S
H674 C687 0.961 . S
H675 C687 0.959 . S
H676 C690 0.929 . S
H677 C691 0.931 . S
H678 C693 0.930 . S
C679 H667 0.930 . S
C679 C680 1.399 . S
C679 C684 1.399 . S
C680 C679 1.399 . S
C680 C681 1.376 . S
C681 H668 0.930 . S
C681 C680 1.376 . S
C681 C682 1.388 . S
C682 H669 0.930 . S
C682 C681 1.388 . S
C682 C683 1.390 . S
C683 C682 1.390 . S
C683 C684 1.394 . S
C683 C689 1.465 . S
C684 C679 1.399 . S
C684 C683 1.394 . S
C684 C685 1.516 . S
C685 C684 1.516 . S
C685 C686 1.502 . S
C685 C687 1.561 . S
C685 C688 1.526 . S
C686 H670 0.959 . S
C686 H671 0.959 . S
C686 H672 0.961 . S
C686 C685 1.502 . S
C687 H673 0.960 . S
C687 H674 0.961 . S
C687 H675 0.959 . S
C687 C685 1.561 . S
C688 C685 1.526 . S
C688 C689 1.396 . S
C688 C693 1.390 . S
C689 C683 1.465 . S
C689 C688 1.396 . S
C689 C690 1.399 . S
C690 H676 0.929 . S
C690 C689 1.399 . S
C690 C691 1.385 . S
C691 H677 0.931 . S
C691 C690 1.385 . S
C691 C692 1.389 . S
C692 C691 1.389 . S
C692 C693 1.387 . S
C693 H678 0.930 . S
C693 C688 1.390 . S
C693 C692 1.387 . S
H694 C706 0.930 . S
H695 C708 0.930 . S
H696 C709 0.930 . S
H697 C713 0.959 . S
H698 C713 0.959 . S
H699 C713 0.961 . S
H700 C714 0.960 . S
H701 C714 0.961 . S
H702 C714 0.959 . S
H703 C717 0.929 . S
H704 C718 0.931 . S
H705 C720 0.930 . S
C706 H694 0.930 . S
C706 C707 1.399 . S
C706 C711 1.399 . S
C707 C706 1.399 . S
C707 C708 1.376 . S
C708 H695 0.930 . S
C708 C707 1.376 . S
C708 C709 1.388 . S
C709 H696 0.930 . S
C709 C708 1.388 . S
C709 C710 1.390 . S
C710 C709 1.390 . S
C710 C711 1.394 . S
C710 C716 1.465 . S
C711 C706 1.399 . S
C711 C710 1.394 . S
C711 C712 1.516 . S
C712 C711 1.516 . S
C712 C713 1.502 . S
C712 C714 1.561 . S
C712 C715 1.526 . S
C713 H697 0.959 . S
C713 H698 0.959 . S
C713 H699 0.961 . S
C713 C712 1.502 . S
C714 H700 0.960 . S
C714 H701 0.961 . S
C714 H702 0.959 . S
C714 C712 1.561 . S
C715 C712 1.526 . S
C715 C716 1.396 . S
C715 C720 1.390 . S
C716 C710 1.465 . S
C716 C715 1.396 . S
C716 C717 1.399 . S
C717 H703 0.929 . S
C717 C716 1.399 . S
C717 C718 1.385 . S
C718 H704 0.931 . S
C718 C717 1.385 . S
C718 C719 1.389 . S
C719 C718 1.389 . S
C719 C720 1.387 . S
C720 H705 0.930 . S
C720 C715 1.390 . S
C720 C719 1.387 . S
H721 C733 0.930 . S
H722 C735 0.930 . S
H723 C736 0.930 . S
H724 C740 0.959 . S
H725 C740 0.959 . S
H726 C740 0.961 . S
H727 C741 0.960 . S
H728 C741 0.961 . S
H729 C741 0.959 . S
H730 C744 0.929 . S
H731 C745 0.931 . S
H732 C747 0.930 . S
C733 H721 0.930 . S
C733 C734 1.399 . S
C733 C738 1.399 . S
C734 C733 1.399 . S
C734 C735 1.376 . S
C735 H722 0.930 . S
C735 C734 1.376 . S
C735 C736 1.388 . S
C736 H723 0.930 . S
C736 C735 1.388 . S
C736 C737 1.390 . S
C737 C736 1.390 . S
C737 C738 1.394 . S
C737 C743 1.465 . S
C738 C733 1.399 . S
C738 C737 1.394 . S
C738 C739 1.516 . S
C739 C738 1.516 . S
C739 C740 1.502 . S
C739 C741 1.561 . S
C739 C742 1.526 . S
C740 H724 0.959 . S
C740 H725 0.959 . S
C740 H726 0.961 . S
C740 C739 1.502 . S
C741 H727 0.960 . S
C741 H728 0.961 . S
C741 H729 0.959 . S
C741 C739 1.561 . S
C742 C739 1.526 . S
C742 C743 1.396 . S
C742 C747 1.390 . S
C743 C737 1.465 . S
C743 C742 1.396 . S
C743 C744 1.399 . S
C744 H730 0.929 . S
C744 C743 1.399 . S
C744 C745 1.385 . S
C745 H731 0.931 . S
C745 C744 1.385 . S
C745 C746 1.389 . S
C746 C745 1.389 . S
C746 C747 1.387 . S
C747 H732 0.930 . S
C747 C742 1.390 . S
C747 C746 1.387 . S
H748 C760 0.930 . S
H749 C762 0.930 1_565 S
H750 C763 0.930 . S
H751 C767 0.959 . S
H752 C767 0.959 . S
H753 C767 0.961 . S
H754 C768 0.960 . S
H755 C768 0.961 . S
H756 C768 0.959 . S
H757 C771 0.929 . S
H758 C772 0.931 . S
H759 C774 0.930 . S
C760 H748 0.930 . S
C760 C761 1.399 . S
C760 C765 1.399 . S
C761 C760 1.399 . S
C761 C762 1.376 . S
C762 H749 0.930 1_545 S
C762 C761 1.376 . S
C762 C763 1.388 . S
C763 H750 0.930 . S
C763 C762 1.388 . S
C763 C764 1.390 . S
C764 C763 1.390 . S
C764 C765 1.394 . S
C764 C770 1.465 . S
C765 C760 1.399 . S
C765 C764 1.394 . S
C765 C766 1.516 . S
C766 C765 1.516 . S
C766 C767 1.502 . S
C766 C768 1.561 . S
C766 C769 1.526 . S
C767 H751 0.959 . S
C767 H752 0.959 . S
C767 H753 0.961 . S
C767 C766 1.502 . S
C768 H754 0.960 . S
C768 H755 0.961 . S
C768 H756 0.959 . S
C768 C766 1.561 . S
C769 C766 1.526 . S
C769 C770 1.396 . S
C769 C774 1.390 . S
C770 C764 1.465 . S
C770 C769 1.396 . S
C770 C771 1.399 . S
C771 H757 0.929 . S
C771 C770 1.399 . S
C771 C772 1.385 . S
C772 H758 0.931 . S
C772 C771 1.385 . S
C772 C773 1.389 . S
C773 C772 1.389 . S
C773 C774 1.387 . S
C774 H759 0.930 . S
C774 C769 1.390 . S
C774 C773 1.387 . S
H775 C787 0.930 . S
H776 C789 0.930 1_565 S
H777 C790 0.930 . S
H778 C794 0.959 . S
H779 C794 0.959 . S
H780 C794 0.961 . S
H781 C795 0.960 . S
H782 C795 0.961 . S
H783 C795 0.959 . S
H784 C798 0.929 . S
H785 C799 0.931 . S
H786 C801 0.930 . S
C787 H775 0.930 . S
C787 C788 1.399 . S
C787 C792 1.399 . S
C788 C787 1.399 . S
C788 C789 1.376 . S
C789 H776 0.930 1_545 S
C789 C788 1.376 . S
C789 C790 1.388 . S
C790 H777 0.930 . S
C790 C789 1.388 . S
C790 C791 1.390 . S
C791 C790 1.390 . S
C791 C792 1.394 . S
C791 C797 1.465 . S
C792 C787 1.399 . S
C792 C791 1.394 . S
C792 C793 1.516 . S
C793 C792 1.516 . S
C793 C794 1.502 . S
C793 C795 1.561 . S
C793 C796 1.526 . S
C794 H778 0.959 . S
C794 H779 0.959 . S
C794 H780 0.961 . S
C794 C793 1.502 . S
C795 H781 0.960 . S
C795 H782 0.961 . S
C795 H783 0.959 . S
C795 C793 1.561 . S
C796 C793 1.526 . S
C796 C797 1.396 . S
C796 C801 1.390 . S
C797 C791 1.465 . S
C797 C796 1.396 . S
C797 C798 1.399 . S
C798 H784 0.929 . S
C798 C797 1.399 . S
C798 C799 1.385 . S
C799 H785 0.931 . S
C799 C798 1.385 . S
C799 C800 1.389 . S
C800 C799 1.389 . S
C800 C801 1.387 . S
C801 H786 0.930 . S
C801 C796 1.390 . S
C801 C800 1.387 . S
H802 C814 0.930 . S
H803 C816 0.930 . S
H804 C817 0.930 . S
H805 C821 0.959 . S
H806 C821 0.959 . S
H807 C821 0.961 . S
H808 C822 0.960 . S
H809 C822 0.961 . S
H810 C822 0.959 . S
H811 C825 0.929 . S
H812 C826 0.931 . S
H813 C828 0.930 . S
C814 H802 0.930 . S
C814 C815 1.399 . S
C814 C819 1.399 . S
C815 C814 1.399 . S
C815 C816 1.376 . S
C816 H803 0.930 . S
C816 C815 1.376 . S
C816 C817 1.388 . S
C817 H804 0.930 . S
C817 C816 1.388 . S
C817 C818 1.390 . S
C818 C817 1.390 . S
C818 C819 1.394 . S
C818 C824 1.465 . S
C819 C814 1.399 . S
C819 C818 1.394 . S
C819 C820 1.516 . S
C820 C819 1.516 . S
C820 C821 1.502 . S
C820 C822 1.561 . S
C820 C823 1.526 . S
C821 H805 0.959 . S
C821 H806 0.959 . S
C821 H807 0.961 . S
C821 C820 1.502 . S
C822 H808 0.960 . S
C822 H809 0.961 . S
C822 H810 0.959 . S
C822 C820 1.561 . S
C823 C820 1.526 . S
C823 C824 1.396 . S
C823 C828 1.390 . S
C824 C818 1.465 . S
C824 C823 1.396 . S
C824 C825 1.399 . S
C825 H811 0.929 . S
C825 C824 1.399 . S
C825 C826 1.385 . S
C826 H812 0.931 . S
C826 C825 1.385 . S
C826 C827 1.389 . S
C827 C826 1.389 . S
C827 C828 1.387 . S
C828 H813 0.930 . S
C828 C823 1.390 . S
C828 C827 1.387 . S
H829 C841 0.930 . S
H830 C843 0.930 . S
H831 C844 0.930 . S
H832 C848 0.959 . S
H833 C848 0.959 . S
H834 C848 0.961 . S
H835 C849 0.960 . S
H836 C849 0.961 . S
H837 C849 0.959 . S
H838 C852 0.929 . S
H839 C853 0.931 1_545 S
H840 C855 0.930 . S
C841 H829 0.930 . S
C841 C842 1.399 . S
C841 C846 1.399 . S
C842 C841 1.399 . S
C842 C843 1.376 . S
C843 H830 0.930 . S
C843 C842 1.376 . S
C843 C844 1.388 . S
C844 H831 0.930 . S
C844 C843 1.388 . S
C844 C845 1.390 . S
C845 C844 1.390 . S
C845 C846 1.394 . S
C845 C851 1.465 . S
C846 C841 1.399 . S
C846 C845 1.394 . S
C846 C847 1.516 . S
C847 C846 1.516 . S
C847 C848 1.502 . S
C847 C849 1.561 . S
C847 C850 1.526 . S
C848 H832 0.959 . S
C848 H833 0.959 . S
C848 H834 0.961 . S
C848 C847 1.502 . S
C849 H835 0.960 . S
C849 H836 0.961 . S
C849 H837 0.959 . S
C849 C847 1.561 . S
C850 C847 1.526 . S
C850 C851 1.396 . S
C850 C855 1.390 . S
C851 C845 1.465 . S
C851 C850 1.396 . S
C851 C852 1.399 . S
C852 H838 0.929 . S
C852 C851 1.399 . S
C852 C853 1.385 . S
C853 H839 0.931 1_565 S
C853 C852 1.385 . S
C853 C854 1.389 . S
C854 C853 1.389 . S
C854 C855 1.387 . S
C855 H840 0.930 . S
C855 C850 1.390 . S
C855 C854 1.387 . S
H856 C868 0.930 . S
H857 C870 0.930 . S
H858 C871 0.930 . S
H859 C875 0.959 . S
H860 C875 0.959 . S
H861 C875 0.961 . S
H862 C876 0.960 . S
H863 C876 0.961 . S
H864 C876 0.959 . S
H865 C879 0.929 . S
H866 C880 0.931 . S
H867 C882 0.930 . S
C868 H856 0.930 . S
C868 C869 1.399 . S
C868 C873 1.399 . S
C869 C868 1.399 . S
C869 C870 1.376 . S
C870 H857 0.930 . S
C870 C869 1.376 . S
C870 C871 1.388 . S
C871 H858 0.930 . S
C871 C870 1.388 . S
C871 C872 1.390 . S
C872 C871 1.390 . S
C872 C873 1.394 . S
C872 C878 1.465 . S
C873 C868 1.399 . S
C873 C872 1.394 . S
C873 C874 1.516 . S
C874 C873 1.516 . S
C874 C875 1.502 . S
C874 C876 1.561 . S
C874 C877 1.526 . S
C875 H859 0.959 . S
C875 H860 0.959 . S
C875 H861 0.961 . S
C875 C874 1.502 . S
C876 H862 0.960 . S
C876 H863 0.961 . S
C876 H864 0.959 . S
C876 C874 1.561 . S
C877 C874 1.526 . S
C877 C878 1.396 . S
C877 C882 1.390 . S
C878 C872 1.465 . S
C878 C877 1.396 . S
C878 C879 1.399 . S
C879 H865 0.929 . S
C879 C878 1.399 . S
C879 C880 1.385 . S
C880 H866 0.931 . S
C880 C879 1.385 . S
C880 C881 1.389 . S
C881 C880 1.389 . S
C881 C882 1.387 . S
C882 H867 0.930 . S
C882 C877 1.390 . S
C882 C881 1.387 . S
H883 C895 0.930 . S
H884 C897 0.930 . S
H885 C898 0.930 . S
H886 C902 0.959 . S
H887 C902 0.959 . S
H888 C902 0.961 . S
H889 C903 0.960 . S
H890 C903 0.961 . S
H891 C903 0.959 . S
H892 C906 0.929 . S
H893 C907 0.931 . S
H894 C909 0.930 . S
C895 H883 0.930 . S
C895 C896 1.399 . S
C895 C900 1.399 . S
C896 C895 1.399 . S
C896 C897 1.376 . S
C897 H884 0.930 . S
C897 C896 1.376 . S
C897 C898 1.388 . S
C898 H885 0.930 . S
C898 C897 1.388 . S
C898 C899 1.390 . S
C899 C898 1.390 . S
C899 C900 1.394 . S
C899 C905 1.465 . S
C900 C895 1.399 . S
C900 C899 1.394 . S
C900 C901 1.516 . S
C901 C900 1.516 . S
C901 C902 1.502 . S
C901 C903 1.561 . S
C901 C904 1.526 . S
C902 H886 0.959 . S
C902 H887 0.959 . S
C902 H888 0.961 . S
C902 C901 1.502 . S
C903 H889 0.960 . S
C903 H890 0.961 . S
C903 H891 0.959 . S
C903 C901 1.561 . S
C904 C901 1.526 . S
C904 C905 1.396 . S
C904 C909 1.390 . S
C905 C899 1.465 . S
C905 C904 1.396 . S
C905 C906 1.399 . S
C906 H892 0.929 . S
C906 C905 1.399 . S
C906 C907 1.385 . S
C907 H893 0.931 . S
C907 C906 1.385 . S
C907 C908 1.389 . S
C908 C907 1.389 . S
C908 C909 1.387 . S
C909 H894 0.930 . S
C909 C904 1.390 . S
C909 C908 1.387 . S
H910 C922 0.930 . S
H911 C924 0.930 . S
H912 C925 0.930 . S
H913 C929 0.959 . S
H914 C929 0.959 . S
H915 C929 0.961 . S
H916 C930 0.960 . S
H917 C930 0.961 . S
H918 C930 0.959 . S
H919 C933 0.929 . S
H920 C934 0.931 . S
H921 C936 0.930 . S
C922 H910 0.930 . S
C922 C923 1.399 . S
C922 C927 1.399 . S
C923 C922 1.399 . S
C923 C924 1.376 . S
C924 H911 0.930 . S
C924 C923 1.376 . S
C924 C925 1.388 . S
C925 H912 0.930 . S
C925 C924 1.388 . S
C925 C926 1.390 . S
C926 C925 1.390 . S
C926 C927 1.394 . S
C926 C932 1.465 . S
C927 C922 1.399 . S
C927 C926 1.394 . S
C927 C928 1.516 . S
C928 C927 1.516 . S
C928 C929 1.502 . S
C928 C930 1.561 . S
C928 C931 1.526 . S
C929 H913 0.959 . S
C929 H914 0.959 . S
C929 H915 0.961 . S
C929 C928 1.502 . S
C930 H916 0.960 . S
C930 H917 0.961 . S
C930 H918 0.959 . S
C930 C928 1.561 . S
C931 C928 1.526 . S
C931 C932 1.396 . S
C931 C936 1.390 . S
C932 C926 1.465 . S
C932 C931 1.396 . S
C932 C933 1.399 . S
C933 H919 0.929 . S
C933 C932 1.399 . S
C933 C934 1.385 . S
C934 H920 0.931 . S
C934 C933 1.385 . S
C934 C935 1.389 . S
C935 C934 1.389 . S
C935 C936 1.387 . S
C936 H921 0.930 . S
C936 C931 1.390 . S
C936 C935 1.387 . S
H937 C949 0.930 . S
H938 C951 0.930 . S
H939 C952 0.930 . S
H940 C956 0.959 . S
H941 C956 0.959 . S
H942 C956 0.961 . S
H943 C957 0.960 . S
H944 C957 0.961 . S
H945 C957 0.959 . S
H946 C960 0.929 . S
H947 C961 0.931 . S
H948 C963 0.930 . S
C949 H937 0.930 . S
C949 C950 1.399 . S
C949 C954 1.399 . S
C950 C949 1.399 . S
C950 C951 1.376 . S
C951 H938 0.930 . S
C951 C950 1.376 . S
C951 C952 1.388 . S
C952 H939 0.930 . S
C952 C951 1.388 . S
C952 C953 1.390 . S
C953 C952 1.390 . S
C953 C954 1.394 . S
C953 C959 1.465 . S
C954 C949 1.399 . S
C954 C953 1.394 . S
C954 C955 1.516 . S
C955 C954 1.516 . S
C955 C956 1.502 . S
C955 C957 1.561 . S
C955 C958 1.526 . S
C956 H940 0.959 . S
C956 H941 0.959 . S
C956 H942 0.961 . S
C956 C955 1.502 . S
C957 H943 0.960 . S
C957 H944 0.961 . S
C957 H945 0.959 . S
C957 C955 1.561 . S
C958 C955 1.526 . S
C958 C959 1.396 . S
C958 C963 1.390 . S
C959 C953 1.465 . S
C959 C958 1.396 . S
C959 C960 1.399 . S
C960 H946 0.929 . S
C960 C959 1.399 . S
C960 C961 1.385 . S
C961 H947 0.931 . S
C961 C960 1.385 . S
C961 C962 1.389 . S
C962 C961 1.389 . S
C962 C963 1.387 . S
C963 H948 0.930 . S
C963 C958 1.390 . S
C963 C962 1.387 . S
H964 C976 0.930 . S
H965 C978 0.930 . S
H966 C979 0.930 . S
H967 C983 0.959 . S
H968 C983 0.959 . S
H969 C983 0.961 . S
H970 C984 0.960 . S
H971 C984 0.961 . S
H972 C984 0.959 . S
H973 C987 0.929 . S
H974 C988 0.931 . S
H975 C990 0.930 . S
C976 H964 0.930 . S
C976 C977 1.399 . S
C976 C981 1.399 . S
C977 C976 1.399 . S
C977 C978 1.376 . S
C978 H965 0.930 . S
C978 C977 1.376 . S
C978 C979 1.388 . S
C979 H966 0.930 . S
C979 C978 1.388 . S
C979 C980 1.390 . S
C980 C979 1.390 . S
C980 C981 1.394 . S
C980 C986 1.465 . S
C981 C976 1.399 . S
C981 C980 1.394 . S
C981 C982 1.516 . S
C982 C981 1.516 . S
C982 C983 1.502 . S
C982 C984 1.561 . S
C982 C985 1.526 . S
C983 H967 0.959 . S
C983 H968 0.959 . S
C983 H969 0.961 . S
C983 C982 1.502 . S
C984 H970 0.960 . S
C984 H971 0.961 . S
C984 H972 0.959 . S
C984 C982 1.561 . S
C985 C982 1.526 . S
C985 C986 1.396 . S
C985 C990 1.390 . S
C986 C980 1.465 . S
C986 C985 1.396 . S
C986 C987 1.399 . S
C987 H973 0.929 . S
C987 C986 1.399 . S
C987 C988 1.385 . S
C988 H974 0.931 . S
C988 C987 1.385 . S
C988 C989 1.389 . S
C989 C988 1.389 . S
C989 C990 1.387 . S
C990 H975 0.930 . S
C990 C985 1.390 . S
C990 C989 1.387 . S
H991 C1003 0.930 . S
H992 C1005 0.930 . S
H993 C1006 0.930 . S
H994 C1010 0.959 . S
H995 C1010 0.959 . S
H996 C1010 0.961 . S
H997 C1011 0.960 . S
H998 C1011 0.961 . S
H999 C1011 0.959 . S
H1000 C1014 0.929 . S
H1001 C1015 0.931 . S
H1002 C1017 0.930 . S
C1003 H991 0.930 . S
C1003 C1004 1.399 . S
C1003 C1008 1.399 . S
C1004 C1003 1.399 . S
C1004 C1005 1.376 . S
C1005 H992 0.930 . S
C1005 C1004 1.376 . S
C1005 C1006 1.388 . S
C1006 H993 0.930 . S
C1006 C1005 1.388 . S
C1006 C1007 1.390 . S
C1007 C1006 1.390 . S
C1007 C1008 1.394 . S
C1007 C1013 1.465 . S
C1008 C1003 1.399 . S
C1008 C1007 1.394 . S
C1008 C1009 1.516 . S
C1009 C1008 1.516 . S
C1009 C1010 1.502 . S
C1009 C1011 1.561 . S
C1009 C1012 1.526 . S
C1010 H994 0.959 . S
C1010 H995 0.959 . S
C1010 H996 0.961 . S
C1010 C1009 1.502 . S
C1011 H997 0.960 . S
C1011 H998 0.961 . S
C1011 H999 0.959 . S
C1011 C1009 1.561 . S
C1012 C1009 1.526 . S
C1012 C1013 1.396 . S
C1012 C1017 1.390 . S
C1013 C1007 1.465 . S
C1013 C1012 1.396 . S
C1013 C1014 1.399 . S
C1014 H1000 0.929 . S
C1014 C1013 1.399 . S
C1014 C1015 1.385 . S
C1015 H1001 0.931 . S
C1015 C1014 1.385 . S
C1015 C1016 1.389 . S
C1016 C1015 1.389 . S
C1016 C1017 1.387 . S
C1017 H1002 0.930 . S
C1017 C1012 1.390 . S
C1017 C1016 1.387 . S
H1018 C1030 0.930 . S
H1019 C1032 0.930 . S
H1020 C1033 0.930 . S
H1021 C1037 0.959 . S
H1022 C1037 0.959 . S
H1023 C1037 0.961 . S
H1024 C1038 0.960 . S
H1025 C1038 0.961 . S
H1026 C1038 0.959 . S
H1027 C1041 0.929 . S
H1028 C1042 0.931 . S
H1029 C1044 0.930 . S
C1030 H1018 0.930 . S
C1030 C1031 1.399 . S
C1030 C1035 1.399 . S
C1031 C1030 1.399 . S
C1031 C1032 1.376 . S
C1032 H1019 0.930 . S
C1032 C1031 1.376 . S
C1032 C1033 1.388 . S
C1033 H1020 0.930 . S
C1033 C1032 1.388 . S
C1033 C1034 1.390 . S
C1034 C1033 1.390 . S
C1034 C1035 1.394 . S
C1034 C1040 1.465 . S
C1035 C1030 1.399 . S
C1035 C1034 1.394 . S
C1035 C1036 1.516 . S
C1036 C1035 1.516 . S
C1036 C1037 1.502 . S
C1036 C1038 1.561 . S
C1036 C1039 1.526 . S
C1037 H1021 0.959 . S
C1037 H1022 0.959 . S
C1037 H1023 0.961 . S
C1037 C1036 1.502 . S
C1038 H1024 0.960 . S
C1038 H1025 0.961 . S
C1038 H1026 0.959 . S
C1038 C1036 1.561 . S
C1039 C1036 1.526 . S
C1039 C1040 1.396 . S
C1039 C1044 1.390 . S
C1040 C1034 1.465 . S
C1040 C1039 1.396 . S
C1040 C1041 1.399 . S
C1041 H1027 0.929 . S
C1041 C1040 1.399 . S
C1041 C1042 1.385 . S
C1042 H1028 0.931 . S
C1042 C1041 1.385 . S
C1042 C1043 1.389 . S
C1043 C1042 1.389 . S
C1043 C1044 1.387 . S
C1044 H1029 0.930 . S
C1044 C1039 1.390 . S
C1044 C1043 1.387 . S
H1045 C1057 0.930 . S
H1046 C1059 0.930 . S
H1047 C1060 0.930 . S
H1048 C1064 0.959 . S
H1049 C1064 0.959 . S
H1050 C1064 0.961 . S
H1051 C1065 0.960 . S
H1052 C1065 0.961 . S
H1053 C1065 0.959 . S
H1054 C1068 0.929 . S
H1055 C1069 0.931 . S
H1056 C1071 0.930 . S
C1057 H1045 0.930 . S
C1057 C1058 1.399 . S
C1057 C1062 1.399 . S
C1058 C1057 1.399 . S
C1058 C1059 1.376 . S
C1059 H1046 0.930 . S
C1059 C1058 1.376 . S
C1059 C1060 1.388 . S
C1060 H1047 0.930 . S
C1060 C1059 1.388 . S
C1060 C1061 1.390 . S
C1061 C1060 1.390 . S
C1061 C1062 1.394 . S
C1061 C1067 1.465 . S
C1062 C1057 1.399 . S
C1062 C1061 1.394 . S
C1062 C1063 1.516 . S
C1063 C1062 1.516 . S
C1063 C1064 1.502 . S
C1063 C1065 1.561 . S
C1063 C1066 1.526 . S
C1064 H1048 0.959 . S
C1064 H1049 0.959 . S
C1064 H1050 0.961 . S
C1064 C1063 1.502 . S
C1065 H1051 0.960 . S
C1065 H1052 0.961 . S
C1065 H1053 0.959 . S
C1065 C1063 1.561 . S
C1066 C1063 1.526 . S
C1066 C1067 1.396 . S
C1066 C1071 1.390 . S
C1067 C1061 1.465 . S
C1067 C1066 1.396 . S
C1067 C1068 1.399 . S
C1068 H1054 0.929 . S
C1068 C1067 1.399 . S
C1068 C1069 1.385 . S
C1069 H1055 0.931 . S
C1069 C1068 1.385 . S
C1069 C1070 1.389 . S
C1070 C1069 1.389 . S
C1070 C1071 1.387 . S
C1071 H1056 0.930 . S
C1071 C1066 1.390 . S
C1071 C1070 1.387 . S
C221 C0 1.103 . S
C233 C169 1.095 . S
C248 C143 1.085 . S
C260 C13 1.123 . S
C275 C156 1.129 . S
C287 C26 1.097 . S
C302 C130 1.124 . S
C314 C39 1.107 . S
C329 C52 1.127 . S
C341 C195 1.101 . S
C356 C65 1.127 . S
C368 C117 1.102 . S
C383 C182 1.087 . S
C395 C78 1.115 . S
C410 C91 1.085 . S
C422 C104 1.119 . S
C437 C60 1.536 . S
C449 C8 1.558 . S
C464 C21 1.565 . S
C476 C73 1.533 . S
C491 C34 1.589 . S
C503 C86 1.549 . S
C518 C99 1.558 . S
C530 C47 1.586 . S
C545 C112 1.560 . S
C557 C138 1.535 . S
C572 C125 1.553 . S
C584 C151 1.588 . S
C599 C190 1.588 . S
C611 C164 1.556 . S
C626 C177 1.531 . S
C638 C203 1.573 . S
C653 C70 1.183 . S
C665 C5 1.194 . S
C680 C18 1.271 . S
C692 C83 1.257 . S
C707 C31 1.182 . S
C719 C96 1.190 . S
C734 C57 1.217 . S
C746 C44 1.238 . S
C761 C62 1.316 . S
C773 C140 1.262 . S
C788 C36 1.298 . S
C800 C114 1.323 . S
C815 C153 1.289 . S
C827 C88 1.251 . S
C842 C127 1.301 . S
C854 C10 1.321 . S
C869 C109 1.250 . S
C881 C161 1.231 . S
C896 C135 1.185 . S
C908 C200 1.197 . S
C923 C174 1.182 . S
C935 C122 1.186 . S
C950 C148 1.248 . S
C962 C187 1.229 . S
C977 C192 1.292 . S
C989 C23 1.251 . S
C1004 C179 1.322 . S
C1016 C75 1.274 . S
C1031 C205 1.273 . S
C1043 C49 1.255 . S
C1058 C166 1.261 . S
C1070 C101 1.315 . S
