# Generated by pormake.
# Topology smq, (6)-cn, num edge types: 1
# Building blocks:
#     Node 0, Type 0, BuildingBlock: IZENUY_clean_sbu_0, # of connection points: 6
#     Node 1, Type 0, BuildingBlock: IZENUY_clean_sbu_0, # of connection points: 6
#     Node 2, Type 0, BuildingBlock: IZENUY_clean_sbu_0, # of connection points: 6
#     Node 3, Type 0, BuildingBlock: IZENUY_clean_sbu_0, # of connection points: 6
#     Node 4, Type 0, BuildingBlock: IZENUY_clean_sbu_0, # of connection points: 6
#     Node 5, Type 0, BuildingBlock: IZENUY_clean_sbu_0, # of connection points: 6
#     Node 6, Type 0, BuildingBlock: IZENUY_clean_sbu_0, # of connection points: 6
#     Node 7, Type 0, BuildingBlock: IZENUY_clean_sbu_0, # of connection points: 6
#     Node 8, Type 0, BuildingBlock: IZENUY_clean_sbu_0, # of connection points: 6
#     Node 9, Type 0, BuildingBlock: IZENUY_clean_sbu_0, # of connection points: 6
#     Node 10, Type 0, BuildingBlock: IZENUY_clean_sbu_0, # of connection points: 6
#     Node 11, Type 0, BuildingBlock: IZENUY_clean_sbu_0, # of connection points: 6
#     Node 12, Type 0, BuildingBlock: IZENUY_clean_sbu_0, # of connection points: 6
#     Node 13, Type 0, BuildingBlock: IZENUY_clean_sbu_0, # of connection points: 6
#     Node 14, Type 0, BuildingBlock: IZENUY_clean_sbu_0, # of connection points: 6
#     Node 15, Type 0, BuildingBlock: IZENUY_clean_sbu_0, # of connection points: 6
#     Node 16, Type 0, BuildingBlock: IZENUY_clean_sbu_0, # of connection points: 6
#     Node 17, Type 0, BuildingBlock: IZENUY_clean_sbu_0, # of connection points: 6
#     Node 18, Type 0, BuildingBlock: IZENUY_clean_sbu_0, # of connection points: 6
#     Node 19, Type 0, BuildingBlock: IZENUY_clean_sbu_0, # of connection points: 6
#     Node 20, Type 0, BuildingBlock: IZENUY_clean_sbu_0, # of connection points: 6
#     Node 21, Type 0, BuildingBlock: IZENUY_clean_sbu_0, # of connection points: 6
#     Node 22, Type 0, BuildingBlock: IZENUY_clean_sbu_0, # of connection points: 6
#     Node 23, Type 0, BuildingBlock: IZENUY_clean_sbu_0, # of connection points: 6
#     Edge 24, Type (0, 0), None
#     Edge 25, Type (0, 0), None
#     Edge 26, Type (0, 0), None
#     Edge 27, Type (0, 0), None
#     Edge 28, Type (0, 0), None
#     Edge 29, Type (0, 0), None
#     Edge 30, Type (0, 0), None
#     Edge 31, Type (0, 0), None
#     Edge 32, Type (0, 0), None
#     Edge 33, Type (0, 0), None
#     Edge 34, Type (0, 0), None
#     Edge 35, Type (0, 0), None
#     Edge 36, Type (0, 0), None
#     Edge 37, Type (0, 0), None
#     Edge 38, Type (0, 0), None
#     Edge 39, Type (0, 0), None
#     Edge 40, Type (0, 0), None
#     Edge 41, Type (0, 0), None
#     Edge 42, Type (0, 0), None
#     Edge 43, Type (0, 0), None
#     Edge 44, Type (0, 0), None
#     Edge 45, Type (0, 0), None
#     Edge 46, Type (0, 0), None
#     Edge 47, Type (0, 0), None
#     Edge 48, Type (0, 0), None
#     Edge 49, Type (0, 0), None
#     Edge 50, Type (0, 0), None
#     Edge 51, Type (0, 0), None
#     Edge 52, Type (0, 0), None
#     Edge 53, Type (0, 0), None
#     Edge 54, Type (0, 0), None
#     Edge 55, Type (0, 0), None
#     Edge 56, Type (0, 0), None
#     Edge 57, Type (0, 0), None
#     Edge 58, Type (0, 0), None
#     Edge 59, Type (0, 0), None
#     Edge 60, Type (0, 0), None
#     Edge 61, Type (0, 0), None
#     Edge 62, Type (0, 0), None
#     Edge 63, Type (0, 0), None
#     Edge 64, Type (0, 0), None
#     Edge 65, Type (0, 0), None
#     Edge 66, Type (0, 0), None
#     Edge 67, Type (0, 0), None
#     Edge 68, Type (0, 0), None
#     Edge 69, Type (0, 0), None
#     Edge 70, Type (0, 0), None
#     Edge 71, Type (0, 0), None
#     Edge 72, Type (0, 0), None
#     Edge 73, Type (0, 0), None
#     Edge 74, Type (0, 0), None
#     Edge 75, Type (0, 0), None
#     Edge 76, Type (0, 0), None
#     Edge 77, Type (0, 0), None
#     Edge 78, Type (0, 0), None
#     Edge 79, Type (0, 0), None
#     Edge 80, Type (0, 0), None
#     Edge 81, Type (0, 0), None
#     Edge 82, Type (0, 0), None
#     Edge 83, Type (0, 0), None
#     Edge 84, Type (0, 0), None
#     Edge 85, Type (0, 0), None
#     Edge 86, Type (0, 0), None
#     Edge 87, Type (0, 0), None
#     Edge 88, Type (0, 0), None
#     Edge 89, Type (0, 0), None
#     Edge 90, Type (0, 0), None
#     Edge 91, Type (0, 0), None
#     Edge 92, Type (0, 0), None
#     Edge 93, Type (0, 0), None
#     Edge 94, Type (0, 0), None
#     Edge 95, Type (0, 0), None
# Relax obj value: 0.237
# Max RMSD: 0.215
# Mean RMSD: 0.213
data_MOF--net-smq--node1-IZENUY_clean_sbu_0--edge1-none
_symmetry_space_group_name_H-M    P1
_symmetry_Int_Tables_number       1
_symmetry_cell_setting            triclinic
loop_
_symmetry_equiv_pos_as_xyz
'x, y, z'
_cell_length_a     20.986709
_cell_length_b     20.975746
_cell_length_c     20.972966
_cell_angle_alpha  90.192775
_cell_angle_beta   89.904958
_cell_angle_gamma 89.973607
loop_
_atom_site_label
_atom_site_type_symbol
_atom_site_fract_x
_atom_site_fract_y
_atom_site_fract_z
_atom_type_partial_charge
Fe0 Fe 0.02856 0.17722 0.36893 0.0
Fe1 Fe 1.01718 0.18007 0.22343 0.0
O2 O 0.02445 0.22262 0.2958 0.0
Fe3 Fe 0.02639 0.3064 0.29541 0.0
O4 O 0.08358 0.31009 0.36433 0.0
O5 O 0.10422 0.21021 0.39095 0.0
O6 O 0.07625 0.11358 0.33282 0.0
C7 C 0.11778 0.12726 0.291 0.0
C8 C 0.94479 0.27205 0.39802 0.0
O9 O 0.09599 0.14772 0.23857 0.0
C10 C 0.9408 0.2777 0.19225 0.0
O11 O 0.94881 0.14354 0.35388 0.0
O12 O 0.97537 0.11553 0.26001 0.0
O13 O 0.95599 0.3082 0.3502 0.0
O14 O 0.98675 0.23424 0.41666 0.0
C15 C 0.08925 0.28079 0.18016 0.0
O16 O 0.94213 0.21831 0.20436 0.0
O17 O 0.97135 0.31654 0.22722 0.0
C18 C 0.93183 0.12684 0.29921 0.0
O19 O 0.05469 0.234 0.17298 0.0
O20 O 0.09417 0.30856 0.2352 0.0
C21 C 0.11648 0.26845 0.39467 0.0
Fe22 Fe 0.37908 0.52948 0.86802 0.0
Fe23 Fe 0.37871 0.51831 0.72351 0.0
O24 O 0.33491 0.52621 0.79445 0.0
Fe25 Fe 0.25106 0.5274 0.79172 0.0
O26 O 0.24642 0.58549 0.85982 0.0
O27 O 0.34565 0.60519 0.89034 0.0
O28 O 0.44305 0.57759 0.8329 0.0
C29 C 0.43026 0.61905 0.79072 0.0
C30 C 0.28341 0.44608 0.8961 0.0
O31 O 0.4103 0.59729 0.73794 0.0
C32 C 0.28399 0.44189 0.68996 0.0
O33 O 0.41259 0.44908 0.85199 0.0
O34 O 0.44381 0.4778 0.76034 0.0
O35 O 0.24858 0.45679 0.8469 0.0
O36 O 0.32158 0.48772 0.91491 0.0
C37 C 0.27834 0.59024 0.67837 0.0
O38 O 0.34129 0.44254 0.70841 0.0
O39 O 0.24234 0.4728 0.72143 0.0
C40 C 0.43237 0.43318 0.79781 0.0
O41 O 0.32495 0.55509 0.67166 0.0
O42 O 0.24965 0.59512 0.73261 0.0
C43 C 0.28754 0.61923 0.89033 0.0
Fe44 Fe 0.03006 0.75219 0.29442 0.0
Fe45 Fe 0.02735 0.8815 0.36878 0.0
O46 O 0.03171 0.83594 0.2954 0.0
Fe47 Fe 0.03889 0.87853 0.22308 0.0
O48 O 1.00267 0.82427 0.17197 0.0
O49 O 0.96334 0.74967 0.23348 0.0
O50 O 0.97083 0.74847 0.36102 0.0
C51 C 0.93775 0.78968 0.39199 0.0
C52 C 0.11675 0.78136 0.19235 0.0
O53 O 0.95178 0.84786 0.39167 0.0
C54 C 0.12355 0.93287 0.29822 0.0
O55 O 0.09937 0.75016 0.35093 0.0
O56 O 0.06962 0.82559 0.41696 0.0
O57 O 0.11444 0.84088 0.20417 0.0
O58 O 0.08666 0.74233 0.22735 0.0
C59 C 0.93775 0.93105 0.29075 0.0
O60 O 0.10713 0.91547 0.35289 0.0
O61 O 0.07957 0.94376 0.25976 0.0
C62 C 0.11064 0.78628 0.3991 0.0
O63 O 0.97916 0.94458 0.33272 0.0
O64 O 0.95958 0.91037 0.23819 0.0
C65 C 0.9683 0.77744 0.17881 0.0
Fe66 Fe 0.67623 0.5277 0.86909 0.0
Fe67 Fe 0.67977 0.53859 0.72354 0.0
O68 O 0.72209 0.53227 0.796 0.0
Fe69 Fe 0.80589 0.5318 0.79564 0.0
O70 O 0.80978 0.47278 0.86225 0.0
O71 O 0.71037 0.45242 0.8916 0.0
O72 O 0.61336 0.47908 0.8328 0.0
C73 C 0.62699 0.43742 0.79089 0.0
C74 C 0.76998 0.61233 0.89984 0.0
O75 O 0.6485 0.45899 0.73867 0.0
C76 C 0.77631 0.61717 0.69284 0.0
O77 O 0.64175 0.60715 0.85333 0.0
O78 O 0.61421 0.57914 0.75989 0.0
O79 O 0.80649 0.60145 0.85196 0.0
O80 O 0.73179 0.57037 0.91761 0.0
C81 C 0.7826 0.46958 0.67999 0.0
O82 O 0.71679 0.61433 0.7044 0.0
O83 O 0.81553 0.58821 0.72855 0.0
C84 C 0.62476 0.6233 0.79852 0.0
O85 O 0.73468 0.5025 0.67322 0.0
O86 O 0.81003 0.46493 0.73481 0.0
C87 C 0.76866 0.43903 0.89239 0.0
Fe88 Fe 1.01763 0.87818 0.83679 0.0
Fe89 Fe 0.02589 0.7516 0.76514 0.0
O90 O 0.02471 0.83529 0.76445 0.0
Fe91 Fe 0.02944 0.88052 0.69113 0.0
O92 O 0.07722 0.94373 0.7274 0.0
O93 O 0.09693 0.90944 0.82158 0.0
O94 O 0.05382 0.82409 0.88773 0.0
C95 C 0.08782 0.77689 0.88087 0.0
C96 C 0.93324 0.9321 0.76133 0.0
O97 O 0.09261 0.74878 0.82613 0.0
C98 C 0.94545 0.78655 0.66104 0.0
O99 O 0.94206 0.84096 0.85586 0.0
O100 O 0.96935 0.74223 0.83217 0.0
O101 O 0.94976 0.91468 0.70662 0.0
O102 O 0.97709 0.9432 0.79997 0.0
C103 C 0.11871 0.78848 0.66808 0.0
O104 O 0.95639 0.75013 0.70882 0.0
O105 O 0.98762 0.82426 0.64288 0.0
C106 C 0.93965 0.78149 0.8675 0.0
O107 O 0.08512 0.74743 0.69845 0.0
O108 O 0.10505 0.84671 0.66877 0.0
C109 C 0.11868 0.92998 0.76909 0.0
Fe110 Fe 0.68003 0.51819 0.3357 0.0
Fe111 Fe 0.80703 0.52819 0.26534 0.0
O112 O 0.72336 0.52634 0.26399 0.0
Fe113 Fe 0.67879 0.53114 0.19001 0.0
O114 O 0.61375 0.57715 0.22577 0.0
O115 O 0.64675 0.59654 0.32054 0.0
O116 O 0.73255 0.55649 0.38697 0.0
C117 C 0.77999 0.59035 0.38076 0.0
C118 C 0.63014 0.43256 0.25768 0.0
O119 O 0.80899 0.59489 0.32653 0.0
C120 C 0.7732 0.44803 0.16064 0.0
O121 O 0.71892 0.44369 0.35579 0.0
O122 O 0.81714 0.47215 0.33253 0.0
O123 O 0.64605 0.45055 0.20314 0.0
O124 O 0.61723 0.47552 0.29719 0.0
C125 C 0.76932 0.62143 0.16922 0.0
O126 O 0.8091 0.45836 0.209 0.0
O127 O 0.7369 0.49124 0.1421 0.0
C128 C 0.77827 0.44262 0.36813 0.0
O129 O 0.81067 0.58738 0.1987 0.0
O130 O 0.71123 0.60771 0.17006 0.0
C131 C 0.6261 0.61842 0.26829 0.0
Fe132 Fe 0.03776 0.17797 0.83499 0.0
Fe133 Fe 0.0291 0.30461 0.76478 0.0
O134 O 0.0317 0.22093 0.76278 0.0
Fe135 Fe 0.02902 0.17569 0.68868 0.0
O136 O 0.97883 0.11296 0.72353 0.0
O137 O 0.95909 0.14673 0.81842 0.0
O138 O 1.00039 0.23136 0.88626 0.0
C139 C 0.96649 0.27858 0.87989 0.0
C140 C 0.12356 0.12474 0.76041 0.0
O141 O 0.9619 0.30674 0.82543 0.0
C142 C 0.11305 0.27212 0.66128 0.0
O143 O 0.11268 0.21549 0.85562 0.0
O144 O 0.08498 0.31407 0.83215 0.0
O145 O 0.10775 0.14094 0.70547 0.0
O146 O 0.07919 0.11327 0.79833 0.0
C147 C 0.93901 0.26741 0.66534 0.0
O148 O 0.09884 0.30752 0.70926 0.0
O149 O 0.07435 0.23111 0.64181 0.0
C150 C 0.11443 0.27499 0.86754 0.0
O151 O 0.97048 0.30847 0.69797 0.0
O152 O 0.95446 0.20971 0.66391 0.0
C153 C 0.93741 0.12624 0.76586 0.0
Fe154 Fe 0.37853 0.52851 0.18815 0.0
Fe155 Fe 0.37573 0.53348 0.33312 0.0
O156 O 0.33263 0.53139 0.26131 0.0
Fe157 Fe 0.24833 0.53447 0.26129 0.0
O158 O 0.24448 0.47576 0.19378 0.0
O159 O 0.34435 0.45352 0.16538 0.0
O160 O 0.44277 0.48103 0.2226 0.0
C161 C 0.43011 0.43697 0.26169 0.0
C162 C 0.28691 0.61415 0.15856 0.0
O163 O 0.40681 0.45504 0.31408 0.0
C164 C 0.28074 0.61332 0.36805 0.0
O165 O 0.41246 0.6077 0.20591 0.0
O166 O 0.44069 0.57749 0.29884 0.0
O167 O 0.25089 0.6048 0.20673 0.0
O168 O 0.32251 0.57035 0.14013 0.0
C169 C 0.26819 0.46765 0.37435 0.0
O170 O 0.34003 0.60814 0.35745 0.0
O171 O 0.24036 0.58997 0.32953 0.0
C172 C 0.42975 0.62256 0.26119 0.0
O173 O 0.32074 0.49342 0.37939 0.0
O174 O 0.23764 0.4683 0.32125 0.0
C175 C 0.28584 0.4409 0.16452 0.0
Fe176 Fe 0.29313 0.02865 0.3082 0.0
Fe177 Fe 0.36738 0.0314 0.17873 0.0
O178 O 0.29405 0.02714 0.22435 0.0
Fe179 Fe 0.22181 1.02017 0.18161 0.0
O180 O 0.1707 0.05627 0.23583 0.0
O181 O 0.23143 0.09495 0.31147 0.0
O182 O 0.35935 0.08862 0.31221 0.0
C183 C 0.39042 0.12144 0.27097 0.0
C184 C 0.19112 0.94205 0.2785 0.0
O185 O 0.39034 0.10686 0.21283 0.0
C186 C 0.29693 0.93544 0.1267 0.0
O187 O 0.34994 0.9593 0.30973 0.0
O188 O 0.41556 0.98884 0.23441 0.0
O189 O 0.2026 0.94457 0.21888 0.0
O190 O 0.22652 0.97162 0.31771 0.0
C191 C 0.28929 0.12131 0.12901 0.0
O192 O 0.35156 0.95173 0.14421 0.0
O193 O 0.25843 0.97951 0.11617 0.0
C194 C 0.39747 0.94742 0.27298 0.0
O195 O 0.33138 0.07983 0.11571 0.0
O196 O 0.23705 0.09959 0.15034 0.0
C197 C 0.17677 0.08962 0.28362 0.0
Fe198 Fe 0.53854 0.72108 0.68152 0.0
Fe199 Fe 0.53 0.7933 0.80789 0.0
O200 O 0.53129 0.79352 0.72409 0.0
Fe201 Fe 0.52662 0.86661 0.6785 0.0
O202 O 0.47939 0.83005 0.61498 0.0
O203 O 0.4593 0.73601 0.64951 0.0
O204 O 0.50206 0.67061 0.73586 0.0
C205 C 0.46859 0.67736 0.78354 0.0
C206 C 0.62322 0.79669 0.62779 0.0
O207 O 0.46343 0.73224 0.8112 0.0
C208 C 0.61009 0.89747 0.77272 0.0
O209 O 0.61391 0.7021 0.71924 0.0
O210 O 0.58656 0.72646 0.81785 0.0
O211 O 0.60645 0.85143 0.64475 0.0
O212 O 0.5796 0.75773 0.61662 0.0
C213 C 0.43711 0.88962 0.77002 0.0
O214 O 0.59941 0.84966 0.80912 0.0
O215 O 0.5679 0.91529 0.73492 0.0
C216 C 0.61615 0.69081 0.77882 0.0
O217 O 0.47075 0.85986 0.81141 0.0
O218 O 0.4508 0.88849 0.71182 0.0
C219 C 0.43777 0.78834 0.62838 0.0
Fe220 Fe 0.76274 0.03021 0.3098 0.0
Fe221 Fe 0.68868 0.02901 0.18057 0.0
O222 O 0.76181 0.0329 0.22613 0.0
Fe223 Fe 0.83418 0.04033 0.18337 0.0
O224 O 0.88574 1.00413 0.23722 0.0
O225 O 0.82436 0.96383 0.31137 0.0
O226 O 0.69679 0.97031 0.31257 0.0
C227 C 0.6658 0.93797 0.27082 0.0
C228 C 0.86412 0.11786 0.28069 0.0
O229 O 0.66571 0.95314 0.21302 0.0
C230 C 0.75916 0.12514 0.12914 0.0
O231 O 0.70535 0.09899 0.31343 0.0
O232 O 0.63968 0.07077 0.23692 0.0
O233 O 0.85227 0.11588 0.22125 0.0
O234 O 0.82933 0.08741 0.3198 0.0
C235 C 0.76728 0.93963 0.13017 0.0
O236 O 0.70472 0.10916 0.14765 0.0
O237 O 0.79749 0.08089 0.11824 0.0
C238 C 0.65634 0.10996 0.27862 0.0
O239 O 0.72534 0.98122 0.11699 0.0
O240 O 0.81955 0.96116 0.1514 0.0
C241 C 0.87915 0.96936 0.28376 0.0
Fe242 Fe 0.52603 0.26287 0.80639 0.0
Fe243 Fe 0.52947 0.18923 0.67615 0.0
O244 O 0.52495 0.2621 0.72269 0.0
Fe245 Fe 0.51986 0.33442 0.68081 0.0
O246 O 0.55405 0.38608 0.73623 0.0
O247 O 0.59287 0.32405 0.81016 0.0
O248 O 0.5853 0.1967 0.81018 0.0
C249 C 0.61812 0.1657 0.76886 0.0
C250 C 0.43995 0.36528 0.77662 0.0
O251 O 0.60392 0.16551 0.71086 0.0
C252 C 0.43737 0.25929 0.61853 0.0
O253 O 0.457 0.20617 0.80758 0.0
O254 O 0.48551 0.14116 0.73058 0.0
O255 O 0.44305 0.35375 0.71661 0.0
O256 O 0.46897 0.32949 0.81574 0.0
C257 C 0.62125 0.26745 0.62913 0.0
O258 O 0.45053 0.20525 0.63959 0.0
O259 O 0.48296 0.29733 0.61334 0.0
C260 C 0.44509 0.15886 0.77056 0.0
O261 O 0.57998 0.22555 0.6145 0.0
O262 O 0.59987 0.31909 0.65217 0.0
C263 C 0.58817 0.3791 0.78315 0.0
Fe264 Fe 0.36592 0.02783 0.88135 0.0
Fe265 Fe 0.22039 0.03935 0.87753 0.0
O266 O 0.29303 0.03196 0.83535 0.0
Fe267 Fe 0.29283 0.0296 0.75171 0.0
O268 O 0.35917 0.97029 0.74872 0.0
O269 O 0.38886 0.95204 0.84833 0.0
O270 O 0.32899 0.98038 0.94418 0.0
C271 C 0.28752 0.93877 0.92989 0.0
C272 C 0.39676 0.11047 0.7864 0.0
O273 O 0.23513 0.96026 0.90903 0.0
C274 C 0.19088 0.11655 0.78025 0.0
O275 O 0.35001 0.10771 0.91492 0.0
O276 O 0.25673 0.07999 0.94293 0.0
O277 O 0.34929 0.0988 0.74979 0.0
O278 O 0.41455 0.06946 0.82546 0.0
C279 C 0.17691 0.9683 0.77639 0.0
O280 O 0.20203 0.11474 0.83986 0.0
O281 O 0.22623 0.08628 0.74145 0.0
C282 C 0.2953 0.12395 0.93223 0.0
O283 O 0.16972 1.00304 0.82307 0.0
O284 O 0.23184 0.96291 0.74904 0.0
C285 C 0.38948 0.93747 0.79031 0.0
Fe286 Fe 0.52905 0.86643 0.38253 0.0
Fe287 Fe 0.51796 0.72063 0.37877 0.0
O288 O 0.5245 0.7932 0.33648 0.0
Fe289 Fe 0.52552 0.79293 0.25276 0.0
O290 O 0.58493 0.85952 0.24945 0.0
O291 O 0.60471 0.8887 0.34914 0.0
O292 O 0.57662 0.83001 0.44566 0.0
C293 C 0.61852 0.78863 0.43175 0.0
C294 C 0.44566 0.89811 0.28825 0.0
O295 O 0.59723 0.73622 0.41036 0.0
C296 C 0.43994 0.68977 0.28184 0.0
O297 O 0.44933 0.85085 0.41624 0.0
O298 O 0.4767 0.75731 0.44377 0.0
O299 O 0.45614 0.84982 0.25193 0.0
O300 O 0.48741 0.91538 0.32685 0.0
C301 C 0.58744 0.67671 0.27617 0.0
O302 O 0.44264 0.70064 0.34151 0.0
O303 O 0.46883 0.72593 0.24287 0.0
C304 C 0.43281 0.79594 0.43252 0.0
O305 O 0.55459 0.67004 0.32423 0.0
O306 O 0.59207 0.7316 0.24872 0.0
C307 C 0.6184 0.88973 0.29092 0.0
Fe308 Fe 0.76299 0.0258 0.75149 0.0
Fe309 Fe 0.68987 0.03049 0.88144 0.0
O310 O 0.76283 0.02567 0.83533 0.0
Fe311 Fe 0.83528 1.01951 0.8775 0.0
O312 O 0.88561 0.05545 0.82236 0.0
O313 O 0.82399 0.09248 0.74684 0.0
O314 O 0.69634 0.08487 0.74803 0.0
C315 C 0.66626 0.11871 0.78937 0.0
C316 C 0.86568 0.94042 0.781 0.0
O317 O 0.66747 0.10577 0.84767 0.0
C318 C 0.76029 0.93505 0.93302 0.0
O319 O 0.70669 0.9563 0.75116 0.0
O320 O 0.64117 0.98826 0.82581 0.0
O321 O 0.85436 0.94359 0.84058 0.0
O322 O 0.82989 0.96915 0.74175 0.0
C323 C 0.76764 0.12051 0.93049 0.0
O324 O 0.7056 0.95113 0.91568 0.0
O325 O 0.79904 0.97915 0.94322 0.0
C326 C 0.65883 0.94596 0.78776 0.0
O327 O 0.72632 0.07867 0.94436 0.0
O328 O 0.81993 0.09922 0.90872 0.0
C329 C 0.87897 0.08786 0.77404 0.0
Fe330 Fe 0.52228 0.20065 0.3849 0.0
Fe331 Fe 0.54303 0.34565 0.3722 0.0
O332 O 0.53169 0.27 0.33516 0.0
Fe333 Fe 0.53193 0.26459 0.25165 0.0
O334 O 0.47254 0.19828 0.2499 0.0
O335 O 0.44741 0.17718 0.34977 0.0
O336 O 0.47169 0.24491 0.44174 0.0
C337 C 0.43615 0.29092 0.42397 0.0
C338 C 0.60898 0.16063 0.29332 0.0
O339 O 0.4628 0.34103 0.40405 0.0
C340 C 0.623 0.36443 0.27584 0.0
O341 O 0.60065 0.21523 0.42161 0.0
O342 O 0.57879 0.31217 0.44171 0.0
O343 O 0.6 0.2071 0.25467 0.0
O344 O 0.56721 0.14702 0.33415 0.0
C345 C 0.47243 0.38208 0.26822 0.0
O346 O 0.62058 0.35341 0.33521 0.0
O347 O 0.58991 0.33036 0.2382 0.0
C348 C 0.62006 0.26966 0.43593 0.0
O349 O 0.51065 0.39339 0.31144 0.0
O350 O 0.46557 0.3251 0.24606 0.0
C351 C 0.43703 0.17093 0.29125 0.0
Fe352 Fe 0.30384 0.29451 0.02629 0.0
Fe353 Fe 0.17346 0.36667 0.02988 0.0
O354 O 0.22021 0.29403 0.02552 0.0
Fe355 Fe 0.1789 0.22085 1.0195 0.0
O356 O 0.23443 0.1709 0.05544 0.0
O357 O 0.30796 0.23437 0.09381 0.0
O358 O 0.30686 0.36181 0.08465 0.0
C359 C 0.26546 0.3925 0.11769 0.0
C360 C 0.27541 0.19131 0.9407 0.0
O361 O 0.20734 0.39103 0.10448 0.0
C362 C 0.12278 0.29462 0.93506 0.0
O363 O 0.30429 0.35017 0.95627 0.0
O364 O 0.22806 0.41519 0.98585 0.0
O365 O 0.21582 0.20214 0.94357 0.0
O366 O 0.31422 0.22705 0.97027 0.0
C367 C 0.12696 0.28851 0.12118 0.0
O368 O 0.13868 0.34973 0.95114 0.0
O369 O 0.11279 0.25607 0.97924 0.0
C370 C 0.2672 0.39736 0.94448 0.0
O371 O 0.11191 0.32982 0.07966 0.0
O372 O 0.14805 0.23614 0.09924 0.0
C373 C 0.28124 0.179 0.08962 0.0
Fe374 Fe 0.17955 0.83743 0.03974 0.0
Fe375 Fe 0.30554 0.76561 0.02943 0.0
O376 O 0.22189 0.76503 0.03187 0.0
Fe377 Fe 0.17631 0.69182 0.0276 0.0
O378 O 0.11269 0.72806 0.98064 0.0
O379 O 0.14717 0.82229 0.96077 0.0
O380 O 0.23364 0.88801 1.00293 0.0
C381 C 0.28013 0.88073 0.968 0.0
C382 C 0.12597 0.76211 0.12471 0.0
O383 O 0.30762 0.82592 0.96252 0.0
C384 C 0.27155 0.66212 0.11004 0.0
O385 O 0.21782 0.85644 0.11499 0.0
O386 O 0.31603 0.83303 0.08571 0.0
O387 O 0.14315 0.70743 0.10784 0.0
O388 O 0.11476 0.80089 0.0811 0.0
C389 C 0.26705 0.66782 0.9375 0.0
O390 O 0.30778 0.70993 0.09895 0.0
O391 O 0.2331 0.64384 0.06854 0.0
C392 C 0.27738 0.86797 0.11668 0.0
O393 O 0.30852 0.69844 0.9705 0.0
O394 O 0.20895 0.66915 0.95145 0.0
C395 C 0.12621 0.7698 0.93915 0.0
Fe396 Fe 0.7926 0.80644 0.53222 0.0
Fe397 Fe 0.86613 0.67698 0.52866 0.0
O398 O 0.79306 0.72275 0.53355 0.0
Fe399 Fe 0.72056 0.68048 0.54103 0.0
O400 O 0.66958 0.73496 0.50506 0.0
O401 O 0.73157 0.80911 0.46544 0.0
O402 O 0.85922 0.81006 0.473 0.0
C403 C 0.88978 0.76885 0.43953 0.0
C404 C 0.69079 0.77758 0.61914 0.0
O405 O 0.88881 0.71059 0.45301 0.0
C406 C 0.79587 0.62579 0.62513 0.0
O407 O 0.84906 0.80795 0.60164 0.0
O408 O 0.91459 0.73283 0.5707 0.0
O409 O 0.70245 0.71809 0.61682 0.0
O410 O 0.72571 0.81651 0.58888 0.0
C411 C 0.78747 0.62808 0.43955 0.0
O412 O 0.85051 0.64302 0.60847 0.0
O413 O 0.75709 0.61511 0.5813 0.0
C414 C 0.89676 0.77128 0.61257 0.0
O415 O 0.82951 0.61409 0.48059 0.0
O416 O 0.73512 0.64878 0.46167 0.0
C417 C 0.67671 0.78153 0.4704 0.0
Fe418 Fe 0.87631 0.22091 0.04077 0.0
Fe419 Fe 0.75131 0.29443 0.03223 0.0
O420 O 0.83491 0.29394 0.03333 0.0
Fe421 Fe 0.88137 0.36653 0.02803 0.0
O422 O 0.94358 0.32887 0.9798 0.0
O423 O 0.90795 0.23468 0.96118 0.0
O424 O 0.82105 0.17042 1.00498 0.0
C425 C 0.775 0.17834 0.9698 0.0
C426 C 0.93207 0.29646 0.12451 0.0
O427 O 0.74798 0.23352 0.96511 0.0
C428 C 0.78786 0.3987 0.11235 0.0
O429 O 0.83875 0.20338 0.11671 0.0
O430 O 0.7406 0.22754 0.08868 0.0
O431 O 0.91563 0.35121 0.10761 0.0
O432 O 0.94214 0.257 0.08092 0.0
C433 C 0.78937 0.39091 0.93956 0.0
O434 O 0.75081 0.35112 0.10182 0.0
O435 O 0.82616 0.41586 0.07021 0.0
C436 C 0.77913 0.19246 0.11926 0.0
O437 O 0.74812 0.36106 0.97333 0.0
O438 O 0.84768 0.38907 0.9525 0.0
C439 C 0.92897 0.28673 0.93883 0.0
Fe440 Fe 0.26543 0.25533 0.52354 0.0
Fe441 Fe 0.33309 0.38287 0.51557 0.0
O442 O 0.26263 0.33912 0.52571 0.0
Fe443 Fe 0.18926 0.38257 0.53356 0.0
O444 O 0.17162 0.34737 0.60842 0.0
O445 O 0.1948 0.24855 0.58071 0.0
O446 O 0.32291 0.2506 0.59116 0.0
C447 C 0.37758 0.27752 0.58635 0.0
C448 C 0.16131 0.28701 0.44565 0.0
O449 O 0.38541 0.32501 0.5509 0.0
C450 C 0.25061 0.44232 0.4379 0.0
O451 O 0.33702 0.25054 0.46788 0.0
O452 O 0.34319 0.34945 0.4373 0.0
O453 O 0.14194 0.32557 0.48797 0.0
O454 O 0.2123 0.25506 0.4537 0.0
C455 C 0.27637 0.42978 0.6206 0.0
O456 O 0.29088 0.44919 0.48181 0.0
O457 O 0.19833 0.42025 0.45423 0.0
C458 C 0.3655 0.29393 0.43559 0.0
O459 O 0.3267 0.41269 0.59382 0.0
O460 O 0.22778 0.44343 0.58597 0.0
C461 C 0.16611 0.28923 0.61745 0.0
Fe462 Fe 0.8804 0.69208 0.03137 0.0
Fe463 Fe 0.87679 0.83772 1.0203 0.0
O464 O 0.83454 0.76521 0.0273 0.0
Fe465 Fe 0.7509 0.7656 0.02913 0.0
O466 O 0.74792 0.69914 0.08832 0.0
O467 O 0.84752 0.66971 0.1072 0.0
O468 O 0.94364 0.7287 0.07876 0.0
C469 C 0.92982 0.77027 0.12061 0.0
C470 C 0.78546 0.66098 0.9485 0.0
O471 O 0.9086 0.82269 0.09944 0.0
C472 C 0.77976 0.86771 0.94266 0.0
O473 O 0.91378 0.70762 0.95146 0.0
O474 O 0.94185 0.80112 0.97902 0.0
O475 O 0.74924 0.70902 0.9596 0.0
O476 O 0.82425 0.64337 0.98987 0.0
C477 C 0.77509 0.88156 0.09118 0.0
O478 O 0.83926 0.85643 0.94492 0.0
O479 O 0.74079 0.83252 0.97269 0.0
C480 C 0.93084 0.76232 0.93506 0.0
O481 O 0.82229 0.8886 0.0571 0.0
O482 O 0.74783 0.8266 0.09604 0.0
C483 C 0.78951 0.66907 0.12149 0.0
Fe484 Fe 0.79262 0.25297 0.526 0.0
Fe485 Fe 0.86741 0.38153 0.5315 0.0
O486 O 0.79389 0.33677 0.5267 0.0
Fe487 Fe 0.72208 0.38004 0.52108 0.0
O488 O 0.67167 0.32529 0.55811 0.0
O489 O 0.73336 0.24874 0.59371 0.0
O490 O 0.86056 0.2478 0.58387 0.0
C491 C 0.89061 0.28845 0.61857 0.0
C492 C 0.68877 0.28554 0.44262 0.0
O493 O 0.88914 0.34698 0.60666 0.0
C494 C 0.79763 0.43434 0.43599 0.0
O495 O 0.84753 0.25259 0.45562 0.0
O496 O 0.91479 0.32486 0.48899 0.0
O497 O 0.70254 0.3443 0.44523 0.0
O498 O 0.72388 0.245 0.4707 0.0
C499 C 0.79044 0.43124 0.62175 0.0
O500 O 0.85213 0.41632 0.4522 0.0
O501 O 0.75891 0.44523 0.48017 0.0
C502 C 0.89622 0.28806 0.44601 0.0
O503 O 0.83207 0.44497 0.5801 0.0
O504 O 0.73808 0.4103 0.60038 0.0
C505 C 0.67887 0.27691 0.59053 0.0
Fe506 Fe 0.33626 0.67977 0.51858 0.0
Fe507 Fe 0.26361 0.80539 0.52808 0.0
O508 O 0.26347 0.72173 0.5262 0.0
Fe509 Fe 0.19069 0.67566 0.53098 0.0
O510 O 0.22796 0.6135 0.57925 0.0
O511 O 0.3224 0.64868 0.59792 0.0
O512 O 0.38724 0.73486 0.55415 0.0
C513 C 0.37975 0.78108 0.58948 0.0
C514 C 0.26093 0.62286 0.43528 0.0
O515 O 0.32468 0.8082 0.59482 0.0
C516 C 0.15926 0.77037 0.44751 0.0
O517 O 0.35366 0.71698 0.44263 0.0
O518 O 0.33026 0.81545 0.47122 0.0
O519 O 0.20653 0.64117 0.45144 0.0
O520 O 0.29994 0.6135 0.47909 0.0
C521 C 0.16662 0.76765 0.62047 0.0
O522 O 0.20695 0.80693 0.45893 0.0
O523 O 0.14183 0.7309 0.48844 0.0
C524 C 0.36521 0.77654 0.44061 0.0
O525 O 0.1972 0.80888 0.58742 0.0
O526 O 0.16756 0.70946 0.60654 0.0
C527 C 0.27027 0.6278 0.62005 0.0
loop_
_geom_bond_atom_site_label_1
_geom_bond_atom_site_label_2
_geom_bond_distance
_geom_bond_site_symmetry_2
_ccdc_geom_bond_type
Fe0 O2 1.918 . S
Fe0 O5 1.997 . S
Fe0 O6 2.002 . S
Fe0 O11 1.976 1_455 S
Fe0 O14 1.996 1_455 S
Fe1 O2 1.918 . S
Fe1 O9 1.997 . S
Fe1 O12 1.996 1_455 S
Fe1 O16 1.976 1_455 S
Fe1 O19 2.002 . S
O2 Fe0 1.918 . S
O2 Fe1 1.918 . S
O2 Fe3 1.918 . S
Fe3 O2 1.918 . S
Fe3 O4 2.002 . S
Fe3 O13 1.976 1_455 S
Fe3 O17 1.996 1_455 S
Fe3 O20 1.997 . S
O4 Fe3 2.002 . S
O4 C21 1.295 . S
O5 Fe0 1.997 . S
O5 C21 1.235 . S
O6 Fe0 2.002 . S
O6 C7 1.295 . S
C7 O6 1.295 . S
C7 O9 1.235 . S
C8 O13 1.287 . S
C8 O14 1.255 . S
O9 Fe1 1.997 . S
O9 C7 1.235 . S
C10 O16 1.287 . S
C10 O17 1.255 . S
O11 Fe0 1.976 1_655 S
O11 C18 1.287 . S
O12 Fe1 1.996 1_655 S
O12 C18 1.255 . S
O13 Fe3 1.976 1_655 S
O13 C8 1.287 . S
O14 Fe0 1.996 1_655 S
O14 C8 1.255 . S
C15 O19 1.295 . S
C15 O20 1.235 . S
O16 Fe1 1.976 1_655 S
O16 C10 1.287 . S
O17 Fe3 1.996 1_655 S
O17 C10 1.255 . S
C18 O11 1.287 . S
C18 O12 1.255 . S
O19 Fe1 2.002 . S
O19 C15 1.295 . S
O20 Fe3 1.997 . S
O20 C15 1.235 . S
C21 O4 1.295 . S
C21 O5 1.235 . S
Fe22 O24 1.918 . S
Fe22 O27 1.997 . S
Fe22 O28 2.002 . S
Fe22 O33 1.976 . S
Fe22 O36 1.996 . S
Fe23 O24 1.918 . S
Fe23 O31 1.997 . S
Fe23 O34 1.996 . S
Fe23 O38 1.976 . S
Fe23 O41 2.002 . S
O24 Fe22 1.918 . S
O24 Fe23 1.918 . S
O24 Fe25 1.918 . S
Fe25 O24 1.918 . S
Fe25 O26 2.002 . S
Fe25 O35 1.976 . S
Fe25 O39 1.996 . S
Fe25 O42 1.997 . S
O26 Fe25 2.002 . S
O26 C43 1.295 . S
O27 Fe22 1.997 . S
O27 C43 1.235 . S
O28 Fe22 2.002 . S
O28 C29 1.295 . S
C29 O28 1.295 . S
C29 O31 1.235 . S
C30 O35 1.287 . S
C30 O36 1.255 . S
O31 Fe23 1.997 . S
O31 C29 1.235 . S
C32 O38 1.287 . S
C32 O39 1.255 . S
O33 Fe22 1.976 . S
O33 C40 1.287 . S
O34 Fe23 1.996 . S
O34 C40 1.255 . S
O35 Fe25 1.976 . S
O35 C30 1.287 . S
O36 Fe22 1.996 . S
O36 C30 1.255 . S
C37 O41 1.295 . S
C37 O42 1.235 . S
O38 Fe23 1.976 . S
O38 C32 1.287 . S
O39 Fe25 1.996 . S
O39 C32 1.255 . S
C40 O33 1.287 . S
C40 O34 1.255 . S
O41 Fe23 2.002 . S
O41 C37 1.295 . S
O42 Fe25 1.997 . S
O42 C37 1.235 . S
C43 O26 1.295 . S
C43 O27 1.235 . S
Fe44 O46 1.918 . S
Fe44 O49 1.997 1_455 S
Fe44 O50 2.002 1_455 S
Fe44 O55 1.976 . S
Fe44 O58 1.996 . S
Fe45 O46 1.918 . S
Fe45 O53 1.997 1_455 S
Fe45 O56 1.996 . S
Fe45 O60 1.976 . S
Fe45 O63 2.002 1_455 S
O46 Fe44 1.918 . S
O46 Fe45 1.918 . S
O46 Fe47 1.918 . S
Fe47 O46 1.918 . S
Fe47 O48 2.002 1_455 S
Fe47 O57 1.976 . S
Fe47 O61 1.996 . S
Fe47 O64 1.997 1_455 S
O48 Fe47 2.002 1_655 S
O48 C65 1.295 . S
O49 Fe44 1.997 1_655 S
O49 C65 1.235 . S
O50 Fe44 2.002 1_655 S
O50 C51 1.295 . S
C51 O50 1.295 . S
C51 O53 1.235 . S
C52 O57 1.287 . S
C52 O58 1.255 . S
O53 Fe45 1.997 1_655 S
O53 C51 1.235 . S
C54 O60 1.287 . S
C54 O61 1.255 . S
O55 Fe44 1.976 . S
O55 C62 1.287 . S
O56 Fe45 1.996 . S
O56 C62 1.255 . S
O57 Fe47 1.976 . S
O57 C52 1.287 . S
O58 Fe44 1.996 . S
O58 C52 1.255 . S
C59 O63 1.295 . S
C59 O64 1.235 . S
O60 Fe45 1.976 . S
O60 C54 1.287 . S
O61 Fe47 1.996 . S
O61 C54 1.255 . S
C62 O55 1.287 . S
C62 O56 1.255 . S
O63 Fe45 2.002 1_655 S
O63 C59 1.295 . S
O64 Fe47 1.997 1_655 S
O64 C59 1.235 . S
C65 O48 1.295 . S
C65 O49 1.235 . S
Fe66 O68 1.918 . S
Fe66 O71 1.997 . S
Fe66 O72 2.002 . S
Fe66 O77 1.976 . S
Fe66 O80 1.996 . S
Fe67 O68 1.918 . S
Fe67 O75 1.997 . S
Fe67 O78 1.996 . S
Fe67 O82 1.976 . S
Fe67 O85 2.002 . S
O68 Fe66 1.918 . S
O68 Fe67 1.918 . S
O68 Fe69 1.918 . S
Fe69 O68 1.918 . S
Fe69 O70 2.002 . S
Fe69 O79 1.976 . S
Fe69 O83 1.996 . S
Fe69 O86 1.997 . S
O70 Fe69 2.002 . S
O70 C87 1.295 . S
O71 Fe66 1.997 . S
O71 C87 1.235 . S
O72 Fe66 2.002 . S
O72 C73 1.295 . S
C73 O72 1.295 . S
C73 O75 1.235 . S
C74 O79 1.287 . S
C74 O80 1.255 . S
O75 Fe67 1.997 . S
O75 C73 1.235 . S
C76 O82 1.287 . S
C76 O83 1.255 . S
O77 Fe66 1.976 . S
O77 C84 1.287 . S
O78 Fe67 1.996 . S
O78 C84 1.255 . S
O79 Fe69 1.976 . S
O79 C74 1.287 . S
O80 Fe66 1.996 . S
O80 C74 1.255 . S
C81 O85 1.295 . S
C81 O86 1.235 . S
O82 Fe67 1.976 . S
O82 C76 1.287 . S
O83 Fe69 1.996 . S
O83 C76 1.255 . S
C84 O77 1.287 . S
C84 O78 1.255 . S
O85 Fe67 2.002 . S
O85 C81 1.295 . S
O86 Fe69 1.997 . S
O86 C81 1.235 . S
C87 O70 1.295 . S
C87 O71 1.235 . S
Fe88 O90 1.918 . S
Fe88 O93 1.997 . S
Fe88 O94 2.002 . S
Fe88 O99 1.976 1_455 S
Fe88 O102 1.996 1_455 S
Fe89 O90 1.918 . S
Fe89 O97 1.997 . S
Fe89 O100 1.996 1_455 S
Fe89 O104 1.976 1_455 S
Fe89 O107 2.002 . S
O90 Fe88 1.918 . S
O90 Fe89 1.918 . S
O90 Fe91 1.918 . S
Fe91 O90 1.918 . S
Fe91 O92 2.002 . S
Fe91 O101 1.976 1_455 S
Fe91 O105 1.996 1_455 S
Fe91 O108 1.997 . S
O92 Fe91 2.002 . S
O92 C109 1.295 . S
O93 Fe88 1.997 . S
O93 C109 1.235 . S
O94 Fe88 2.002 . S
O94 C95 1.295 . S
C95 O94 1.295 . S
C95 O97 1.235 . S
C96 O101 1.287 . S
C96 O102 1.255 . S
O97 Fe89 1.997 . S
O97 C95 1.235 . S
C98 O104 1.287 . S
C98 O105 1.255 . S
O99 Fe88 1.976 1_655 S
O99 C106 1.287 . S
O100 Fe89 1.996 1_655 S
O100 C106 1.255 . S
O101 Fe91 1.976 1_655 S
O101 C96 1.287 . S
O102 Fe88 1.996 1_655 S
O102 C96 1.255 . S
C103 O107 1.295 . S
C103 O108 1.235 . S
O104 Fe89 1.976 1_655 S
O104 C98 1.287 . S
O105 Fe91 1.996 1_655 S
O105 C98 1.255 . S
C106 O99 1.287 . S
C106 O100 1.255 . S
O107 Fe89 2.002 . S
O107 C103 1.295 . S
O108 Fe91 1.997 . S
O108 C103 1.235 . S
C109 O92 1.295 . S
C109 O93 1.235 . S
Fe110 O112 1.918 . S
Fe110 O115 1.997 . S
Fe110 O116 2.002 . S
Fe110 O121 1.976 . S
Fe110 O124 1.996 . S
Fe111 O112 1.918 . S
Fe111 O119 1.997 . S
Fe111 O122 1.996 . S
Fe111 O126 1.976 . S
Fe111 O129 2.002 . S
O112 Fe110 1.918 . S
O112 Fe111 1.918 . S
O112 Fe113 1.918 . S
Fe113 O112 1.918 . S
Fe113 O114 2.002 . S
Fe113 O123 1.976 . S
Fe113 O127 1.996 . S
Fe113 O130 1.997 . S
O114 Fe113 2.002 . S
O114 C131 1.295 . S
O115 Fe110 1.997 . S
O115 C131 1.235 . S
O116 Fe110 2.002 . S
O116 C117 1.295 . S
C117 O116 1.295 . S
C117 O119 1.235 . S
C118 O123 1.287 . S
C118 O124 1.255 . S
O119 Fe111 1.997 . S
O119 C117 1.235 . S
C120 O126 1.287 . S
C120 O127 1.255 . S
O121 Fe110 1.976 . S
O121 C128 1.287 . S
O122 Fe111 1.996 . S
O122 C128 1.255 . S
O123 Fe113 1.976 . S
O123 C118 1.287 . S
O124 Fe110 1.996 . S
O124 C118 1.255 . S
C125 O129 1.295 . S
C125 O130 1.235 . S
O126 Fe111 1.976 . S
O126 C120 1.287 . S
O127 Fe113 1.996 . S
O127 C120 1.255 . S
C128 O121 1.287 . S
C128 O122 1.255 . S
O129 Fe111 2.002 . S
O129 C125 1.295 . S
O130 Fe113 1.997 . S
O130 C125 1.235 . S
C131 O114 1.295 . S
C131 O115 1.235 . S
Fe132 O134 1.918 . S
Fe132 O137 1.997 1_455 S
Fe132 O138 2.002 1_455 S
Fe132 O143 1.976 . S
Fe132 O146 1.996 . S
Fe133 O134 1.918 . S
Fe133 O141 1.997 1_455 S
Fe133 O144 1.996 . S
Fe133 O148 1.976 . S
Fe133 O151 2.002 1_455 S
O134 Fe132 1.918 . S
O134 Fe133 1.918 . S
O134 Fe135 1.918 . S
Fe135 O134 1.918 . S
Fe135 O136 2.002 1_455 S
Fe135 O145 1.976 . S
Fe135 O149 1.996 . S
Fe135 O152 1.997 1_455 S
O136 Fe135 2.002 1_655 S
O136 C153 1.295 . S
O137 Fe132 1.997 1_655 S
O137 C153 1.235 . S
O138 Fe132 2.002 1_655 S
O138 C139 1.295 . S
C139 O138 1.295 . S
C139 O141 1.235 . S
C140 O145 1.287 . S
C140 O146 1.255 . S
O141 Fe133 1.997 1_655 S
O141 C139 1.235 . S
C142 O148 1.287 . S
C142 O149 1.255 . S
O143 Fe132 1.976 . S
O143 C150 1.287 . S
O144 Fe133 1.996 . S
O144 C150 1.255 . S
O145 Fe135 1.976 . S
O145 C140 1.287 . S
O146 Fe132 1.996 . S
O146 C140 1.255 . S
C147 O151 1.295 . S
C147 O152 1.235 . S
O148 Fe133 1.976 . S
O148 C142 1.287 . S
O149 Fe135 1.996 . S
O149 C142 1.255 . S
C150 O143 1.287 . S
C150 O144 1.255 . S
O151 Fe133 2.002 1_655 S
O151 C147 1.295 . S
O152 Fe135 1.997 1_655 S
O152 C147 1.235 . S
C153 O136 1.295 . S
C153 O137 1.235 . S
Fe154 O156 1.918 . S
Fe154 O159 1.997 . S
Fe154 O160 2.002 . S
Fe154 O165 1.976 . S
Fe154 O168 1.996 . S
Fe155 O156 1.918 . S
Fe155 O163 1.997 . S
Fe155 O166 1.996 . S
Fe155 O170 1.976 . S
Fe155 O173 2.002 . S
O156 Fe154 1.918 . S
O156 Fe155 1.918 . S
O156 Fe157 1.918 . S
Fe157 O156 1.918 . S
Fe157 O158 2.002 . S
Fe157 O167 1.976 . S
Fe157 O171 1.996 . S
Fe157 O174 1.997 . S
O158 Fe157 2.002 . S
O158 C175 1.295 . S
O159 Fe154 1.997 . S
O159 C175 1.235 . S
O160 Fe154 2.002 . S
O160 C161 1.295 . S
C161 O160 1.295 . S
C161 O163 1.235 . S
C162 O167 1.287 . S
C162 O168 1.255 . S
O163 Fe155 1.997 . S
O163 C161 1.235 . S
C164 O170 1.287 . S
C164 O171 1.255 . S
O165 Fe154 1.976 . S
O165 C172 1.287 . S
O166 Fe155 1.996 . S
O166 C172 1.255 . S
O167 Fe157 1.976 . S
O167 C162 1.287 . S
O168 Fe154 1.996 . S
O168 C162 1.255 . S
C169 O173 1.295 . S
C169 O174 1.235 . S
O170 Fe155 1.976 . S
O170 C164 1.287 . S
O171 Fe157 1.996 . S
O171 C164 1.255 . S
C172 O165 1.287 . S
C172 O166 1.255 . S
O173 Fe155 2.002 . S
O173 C169 1.295 . S
O174 Fe157 1.997 . S
O174 C169 1.235 . S
C175 O158 1.295 . S
C175 O159 1.235 . S
Fe176 O178 1.918 . S
Fe176 O181 1.997 . S
Fe176 O182 2.002 . S
Fe176 O187 1.976 1_545 S
Fe176 O190 1.996 1_545 S
Fe177 O178 1.918 . S
Fe177 O185 1.997 . S
Fe177 O188 1.996 1_545 S
Fe177 O192 1.976 1_545 S
Fe177 O195 2.002 . S
O178 Fe176 1.918 . S
O178 Fe177 1.918 . S
O178 Fe179 1.918 . S
Fe179 O178 1.918 . S
Fe179 O180 2.002 . S
Fe179 O189 1.976 1_545 S
Fe179 O193 1.996 1_545 S
Fe179 O196 1.997 . S
O180 Fe179 2.002 . S
O180 C197 1.295 . S
O181 Fe176 1.997 . S
O181 C197 1.235 . S
O182 Fe176 2.002 . S
O182 C183 1.295 . S
C183 O182 1.295 . S
C183 O185 1.235 . S
C184 O189 1.287 . S
C184 O190 1.255 . S
O185 Fe177 1.997 . S
O185 C183 1.235 . S
C186 O192 1.287 . S
C186 O193 1.255 . S
O187 Fe176 1.976 1_565 S
O187 C194 1.287 . S
O188 Fe177 1.996 1_565 S
O188 C194 1.255 . S
O189 Fe179 1.976 1_565 S
O189 C184 1.287 . S
O190 Fe176 1.996 1_565 S
O190 C184 1.255 . S
C191 O195 1.295 . S
C191 O196 1.235 . S
O192 Fe177 1.976 1_565 S
O192 C186 1.287 . S
O193 Fe179 1.996 1_565 S
O193 C186 1.255 . S
C194 O187 1.287 . S
C194 O188 1.255 . S
O195 Fe177 2.002 . S
O195 C191 1.295 . S
O196 Fe179 1.997 . S
O196 C191 1.235 . S
C197 O180 1.295 . S
C197 O181 1.235 . S
Fe198 O200 1.918 . S
Fe198 O203 1.997 . S
Fe198 O204 2.002 . S
Fe198 O209 1.976 . S
Fe198 O212 1.996 . S
Fe199 O200 1.918 . S
Fe199 O207 1.997 . S
Fe199 O210 1.996 . S
Fe199 O214 1.976 . S
Fe199 O217 2.002 . S
O200 Fe198 1.918 . S
O200 Fe199 1.918 . S
O200 Fe201 1.918 . S
Fe201 O200 1.918 . S
Fe201 O202 2.002 . S
Fe201 O211 1.976 . S
Fe201 O215 1.996 . S
Fe201 O218 1.997 . S
O202 Fe201 2.002 . S
O202 C219 1.295 . S
O203 Fe198 1.997 . S
O203 C219 1.235 . S
O204 Fe198 2.002 . S
O204 C205 1.295 . S
C205 O204 1.295 . S
C205 O207 1.235 . S
C206 O211 1.287 . S
C206 O212 1.255 . S
O207 Fe199 1.997 . S
O207 C205 1.235 . S
C208 O214 1.287 . S
C208 O215 1.255 . S
O209 Fe198 1.976 . S
O209 C216 1.287 . S
O210 Fe199 1.996 . S
O210 C216 1.255 . S
O211 Fe201 1.976 . S
O211 C206 1.287 . S
O212 Fe198 1.996 . S
O212 C206 1.255 . S
C213 O217 1.295 . S
C213 O218 1.235 . S
O214 Fe199 1.976 . S
O214 C208 1.287 . S
O215 Fe201 1.996 . S
O215 C208 1.255 . S
C216 O209 1.287 . S
C216 O210 1.255 . S
O217 Fe199 2.002 . S
O217 C213 1.295 . S
O218 Fe201 1.997 . S
O218 C213 1.235 . S
C219 O202 1.295 . S
C219 O203 1.235 . S
Fe220 O222 1.918 . S
Fe220 O225 1.997 1_545 S
Fe220 O226 2.002 1_545 S
Fe220 O231 1.976 . S
Fe220 O234 1.996 . S
Fe221 O222 1.918 . S
Fe221 O229 1.997 1_545 S
Fe221 O232 1.996 . S
Fe221 O236 1.976 . S
Fe221 O239 2.002 1_545 S
O222 Fe220 1.918 . S
O222 Fe221 1.918 . S
O222 Fe223 1.918 . S
Fe223 O222 1.918 . S
Fe223 O224 2.002 1_545 S
Fe223 O233 1.976 . S
Fe223 O237 1.996 . S
Fe223 O240 1.997 1_545 S
O224 Fe223 2.002 1_565 S
O224 C241 1.295 . S
O225 Fe220 1.997 1_565 S
O225 C241 1.235 . S
O226 Fe220 2.002 1_565 S
O226 C227 1.295 . S
C227 O226 1.295 . S
C227 O229 1.235 . S
C228 O233 1.287 . S
C228 O234 1.255 . S
O229 Fe221 1.997 1_565 S
O229 C227 1.235 . S
C230 O236 1.287 . S
C230 O237 1.255 . S
O231 Fe220 1.976 . S
O231 C238 1.287 . S
O232 Fe221 1.996 . S
O232 C238 1.255 . S
O233 Fe223 1.976 . S
O233 C228 1.287 . S
O234 Fe220 1.996 . S
O234 C228 1.255 . S
C235 O239 1.295 . S
C235 O240 1.235 . S
O236 Fe221 1.976 . S
O236 C230 1.287 . S
O237 Fe223 1.996 . S
O237 C230 1.255 . S
C238 O231 1.287 . S
C238 O232 1.255 . S
O239 Fe221 2.002 1_565 S
O239 C235 1.295 . S
O240 Fe223 1.997 1_565 S
O240 C235 1.235 . S
C241 O224 1.295 . S
C241 O225 1.235 . S
Fe242 O244 1.918 . S
Fe242 O247 1.997 . S
Fe242 O248 2.002 . S
Fe242 O253 1.976 . S
Fe242 O256 1.996 . S
Fe243 O244 1.918 . S
Fe243 O251 1.997 . S
Fe243 O254 1.996 . S
Fe243 O258 1.976 . S
Fe243 O261 2.002 . S
O244 Fe242 1.918 . S
O244 Fe243 1.918 . S
O244 Fe245 1.918 . S
Fe245 O244 1.918 . S
Fe245 O246 2.002 . S
Fe245 O255 1.976 . S
Fe245 O259 1.996 . S
Fe245 O262 1.997 . S
O246 Fe245 2.002 . S
O246 C263 1.295 . S
O247 Fe242 1.997 . S
O247 C263 1.235 . S
O248 Fe242 2.002 . S
O248 C249 1.295 . S
C249 O248 1.295 . S
C249 O251 1.235 . S
C250 O255 1.287 . S
C250 O256 1.255 . S
O251 Fe243 1.997 . S
O251 C249 1.235 . S
C252 O258 1.287 . S
C252 O259 1.255 . S
O253 Fe242 1.976 . S
O253 C260 1.287 . S
O254 Fe243 1.996 . S
O254 C260 1.255 . S
O255 Fe245 1.976 . S
O255 C250 1.287 . S
O256 Fe242 1.996 . S
O256 C250 1.255 . S
C257 O261 1.295 . S
C257 O262 1.235 . S
O258 Fe243 1.976 . S
O258 C252 1.287 . S
O259 Fe245 1.996 . S
O259 C252 1.255 . S
C260 O253 1.287 . S
C260 O254 1.255 . S
O261 Fe243 2.002 . S
O261 C257 1.295 . S
O262 Fe245 1.997 . S
O262 C257 1.235 . S
C263 O246 1.295 . S
C263 O247 1.235 . S
Fe264 O266 1.918 . S
Fe264 O269 1.997 1_545 S
Fe264 O270 2.002 1_545 S
Fe264 O275 1.976 . S
Fe264 O278 1.996 . S
Fe265 O266 1.918 . S
Fe265 O273 1.997 1_545 S
Fe265 O276 1.996 . S
Fe265 O280 1.976 . S
Fe265 O283 2.002 1_545 S
O266 Fe264 1.918 . S
O266 Fe265 1.918 . S
O266 Fe267 1.918 . S
Fe267 O266 1.918 . S
Fe267 O268 2.002 1_545 S
Fe267 O277 1.976 . S
Fe267 O281 1.996 . S
Fe267 O284 1.997 1_545 S
O268 Fe267 2.002 1_565 S
O268 C285 1.295 . S
O269 Fe264 1.997 1_565 S
O269 C285 1.235 . S
O270 Fe264 2.002 1_565 S
O270 C271 1.295 . S
C271 O270 1.295 . S
C271 O273 1.235 . S
C272 O277 1.287 . S
C272 O278 1.255 . S
O273 Fe265 1.997 1_565 S
O273 C271 1.235 . S
C274 O280 1.287 . S
C274 O281 1.255 . S
O275 Fe264 1.976 . S
O275 C282 1.287 . S
O276 Fe265 1.996 . S
O276 C282 1.255 . S
O277 Fe267 1.976 . S
O277 C272 1.287 . S
O278 Fe264 1.996 . S
O278 C272 1.255 . S
C279 O283 1.295 . S
C279 O284 1.235 . S
O280 Fe265 1.976 . S
O280 C274 1.287 . S
O281 Fe267 1.996 . S
O281 C274 1.255 . S
C282 O275 1.287 . S
C282 O276 1.255 . S
O283 Fe265 2.002 1_565 S
O283 C279 1.295 . S
O284 Fe267 1.997 1_565 S
O284 C279 1.235 . S
C285 O268 1.295 . S
C285 O269 1.235 . S
Fe286 O288 1.918 . S
Fe286 O291 1.997 . S
Fe286 O292 2.002 . S
Fe286 O297 1.976 . S
Fe286 O300 1.996 . S
Fe287 O288 1.918 . S
Fe287 O295 1.997 . S
Fe287 O298 1.996 . S
Fe287 O302 1.976 . S
Fe287 O305 2.002 . S
O288 Fe286 1.918 . S
O288 Fe287 1.918 . S
O288 Fe289 1.918 . S
Fe289 O288 1.918 . S
Fe289 O290 2.002 . S
Fe289 O299 1.976 . S
Fe289 O303 1.996 . S
Fe289 O306 1.997 . S
O290 Fe289 2.002 . S
O290 C307 1.295 . S
O291 Fe286 1.997 . S
O291 C307 1.235 . S
O292 Fe286 2.002 . S
O292 C293 1.295 . S
C293 O292 1.295 . S
C293 O295 1.235 . S
C294 O299 1.287 . S
C294 O300 1.255 . S
O295 Fe287 1.997 . S
O295 C293 1.235 . S
C296 O302 1.287 . S
C296 O303 1.255 . S
O297 Fe286 1.976 . S
O297 C304 1.287 . S
O298 Fe287 1.996 . S
O298 C304 1.255 . S
O299 Fe289 1.976 . S
O299 C294 1.287 . S
O300 Fe286 1.996 . S
O300 C294 1.255 . S
C301 O305 1.295 . S
C301 O306 1.235 . S
O302 Fe287 1.976 . S
O302 C296 1.287 . S
O303 Fe289 1.996 . S
O303 C296 1.255 . S
C304 O297 1.287 . S
C304 O298 1.255 . S
O305 Fe287 2.002 . S
O305 C301 1.295 . S
O306 Fe289 1.997 . S
O306 C301 1.235 . S
C307 O290 1.295 . S
C307 O291 1.235 . S
Fe308 O310 1.918 . S
Fe308 O313 1.997 . S
Fe308 O314 2.002 . S
Fe308 O319 1.976 1_545 S
Fe308 O322 1.996 1_545 S
Fe309 O310 1.918 . S
Fe309 O317 1.997 . S
Fe309 O320 1.996 1_545 S
Fe309 O324 1.976 1_545 S
Fe309 O327 2.002 . S
O310 Fe308 1.918 . S
O310 Fe309 1.918 . S
O310 Fe311 1.918 . S
Fe311 O310 1.918 . S
Fe311 O312 2.002 . S
Fe311 O321 1.976 1_545 S
Fe311 O325 1.996 1_545 S
Fe311 O328 1.997 . S
O312 Fe311 2.002 . S
O312 C329 1.295 . S
O313 Fe308 1.997 . S
O313 C329 1.235 . S
O314 Fe308 2.002 . S
O314 C315 1.295 . S
C315 O314 1.295 . S
C315 O317 1.235 . S
C316 O321 1.287 . S
C316 O322 1.255 . S
O317 Fe309 1.997 . S
O317 C315 1.235 . S
C318 O324 1.287 . S
C318 O325 1.255 . S
O319 Fe308 1.976 1_565 S
O319 C326 1.287 . S
O320 Fe309 1.996 1_565 S
O320 C326 1.255 . S
O321 Fe311 1.976 1_565 S
O321 C316 1.287 . S
O322 Fe308 1.996 1_565 S
O322 C316 1.255 . S
C323 O327 1.295 . S
C323 O328 1.235 . S
O324 Fe309 1.976 1_565 S
O324 C318 1.287 . S
O325 Fe311 1.996 1_565 S
O325 C318 1.255 . S
C326 O319 1.287 . S
C326 O320 1.255 . S
O327 Fe309 2.002 . S
O327 C323 1.295 . S
O328 Fe311 1.997 . S
O328 C323 1.235 . S
C329 O312 1.295 . S
C329 O313 1.235 . S
Fe330 O332 1.918 . S
Fe330 O335 1.997 . S
Fe330 O336 2.002 . S
Fe330 O341 1.976 . S
Fe330 O344 1.996 . S
Fe331 O332 1.918 . S
Fe331 O339 1.997 . S
Fe331 O342 1.996 . S
Fe331 O346 1.976 . S
Fe331 O349 2.002 . S
O332 Fe330 1.918 . S
O332 Fe331 1.918 . S
O332 Fe333 1.918 . S
Fe333 O332 1.918 . S
Fe333 O334 2.002 . S
Fe333 O343 1.976 . S
Fe333 O347 1.996 . S
Fe333 O350 1.997 . S
O334 Fe333 2.002 . S
O334 C351 1.295 . S
O335 Fe330 1.997 . S
O335 C351 1.235 . S
O336 Fe330 2.002 . S
O336 C337 1.295 . S
C337 O336 1.295 . S
C337 O339 1.235 . S
C338 O343 1.287 . S
C338 O344 1.255 . S
O339 Fe331 1.997 . S
O339 C337 1.235 . S
C340 O346 1.287 . S
C340 O347 1.255 . S
O341 Fe330 1.976 . S
O341 C348 1.287 . S
O342 Fe331 1.996 . S
O342 C348 1.255 . S
O343 Fe333 1.976 . S
O343 C338 1.287 . S
O344 Fe330 1.996 . S
O344 C338 1.255 . S
C345 O349 1.295 . S
C345 O350 1.235 . S
O346 Fe331 1.976 . S
O346 C340 1.287 . S
O347 Fe333 1.996 . S
O347 C340 1.255 . S
C348 O341 1.287 . S
C348 O342 1.255 . S
O349 Fe331 2.002 . S
O349 C345 1.295 . S
O350 Fe333 1.997 . S
O350 C345 1.235 . S
C351 O334 1.295 . S
C351 O335 1.235 . S
Fe352 O354 1.918 . S
Fe352 O357 1.997 . S
Fe352 O358 2.002 . S
Fe352 O363 1.976 1_554 S
Fe352 O366 1.996 1_554 S
Fe353 O354 1.918 . S
Fe353 O361 1.997 . S
Fe353 O364 1.996 1_554 S
Fe353 O368 1.976 1_554 S
Fe353 O371 2.002 . S
O354 Fe352 1.918 . S
O354 Fe353 1.918 . S
O354 Fe355 1.918 . S
Fe355 O354 1.918 . S
Fe355 O356 2.002 . S
Fe355 O365 1.976 1_554 S
Fe355 O369 1.996 1_554 S
Fe355 O372 1.997 . S
O356 Fe355 2.002 . S
O356 C373 1.295 . S
O357 Fe352 1.997 . S
O357 C373 1.235 . S
O358 Fe352 2.002 . S
O358 C359 1.295 . S
C359 O358 1.295 . S
C359 O361 1.235 . S
C360 O365 1.287 . S
C360 O366 1.255 . S
O361 Fe353 1.997 . S
O361 C359 1.235 . S
C362 O368 1.287 . S
C362 O369 1.255 . S
O363 Fe352 1.976 1_556 S
O363 C370 1.287 . S
O364 Fe353 1.996 1_556 S
O364 C370 1.255 . S
O365 Fe355 1.976 1_556 S
O365 C360 1.287 . S
O366 Fe352 1.996 1_556 S
O366 C360 1.255 . S
C367 O371 1.295 . S
C367 O372 1.235 . S
O368 Fe353 1.976 1_556 S
O368 C362 1.287 . S
O369 Fe355 1.996 1_556 S
O369 C362 1.255 . S
C370 O363 1.287 . S
C370 O364 1.255 . S
O371 Fe353 2.002 . S
O371 C367 1.295 . S
O372 Fe355 1.997 . S
O372 C367 1.235 . S
C373 O356 1.295 . S
C373 O357 1.235 . S
Fe374 O376 1.918 . S
Fe374 O379 1.997 1_554 S
Fe374 O380 2.002 1_554 S
Fe374 O385 1.976 . S
Fe374 O388 1.996 . S
Fe375 O376 1.918 . S
Fe375 O383 1.997 1_554 S
Fe375 O386 1.996 . S
Fe375 O390 1.976 . S
Fe375 O393 2.002 1_554 S
O376 Fe374 1.918 . S
O376 Fe375 1.918 . S
O376 Fe377 1.918 . S
Fe377 O376 1.918 . S
Fe377 O378 2.002 1_554 S
Fe377 O387 1.976 . S
Fe377 O391 1.996 . S
Fe377 O394 1.997 1_554 S
O378 Fe377 2.002 1_556 S
O378 C395 1.295 . S
O379 Fe374 1.997 1_556 S
O379 C395 1.235 . S
O380 Fe374 2.002 1_556 S
O380 C381 1.295 . S
C381 O380 1.295 . S
C381 O383 1.235 . S
C382 O387 1.287 . S
C382 O388 1.255 . S
O383 Fe375 1.997 1_556 S
O383 C381 1.235 . S
C384 O390 1.287 . S
C384 O391 1.255 . S
O385 Fe374 1.976 . S
O385 C392 1.287 . S
O386 Fe375 1.996 . S
O386 C392 1.255 . S
O387 Fe377 1.976 . S
O387 C382 1.287 . S
O388 Fe374 1.996 . S
O388 C382 1.255 . S
C389 O393 1.295 . S
C389 O394 1.235 . S
O390 Fe375 1.976 . S
O390 C384 1.287 . S
O391 Fe377 1.996 . S
O391 C384 1.255 . S
C392 O385 1.287 . S
C392 O386 1.255 . S
O393 Fe375 2.002 1_556 S
O393 C389 1.295 . S
O394 Fe377 1.997 1_556 S
O394 C389 1.235 . S
C395 O378 1.295 . S
C395 O379 1.235 . S
Fe396 O398 1.918 . S
Fe396 O401 1.997 . S
Fe396 O402 2.002 . S
Fe396 O407 1.976 . S
Fe396 O410 1.996 . S
Fe397 O398 1.918 . S
Fe397 O405 1.997 . S
Fe397 O408 1.996 . S
Fe397 O412 1.976 . S
Fe397 O415 2.002 . S
O398 Fe396 1.918 . S
O398 Fe397 1.918 . S
O398 Fe399 1.918 . S
Fe399 O398 1.918 . S
Fe399 O400 2.002 . S
Fe399 O409 1.976 . S
Fe399 O413 1.996 . S
Fe399 O416 1.997 . S
O400 Fe399 2.002 . S
O400 C417 1.295 . S
O401 Fe396 1.997 . S
O401 C417 1.235 . S
O402 Fe396 2.002 . S
O402 C403 1.295 . S
C403 O402 1.295 . S
C403 O405 1.235 . S
C404 O409 1.287 . S
C404 O410 1.255 . S
O405 Fe397 1.997 . S
O405 C403 1.235 . S
C406 O412 1.287 . S
C406 O413 1.255 . S
O407 Fe396 1.976 . S
O407 C414 1.287 . S
O408 Fe397 1.996 . S
O408 C414 1.255 . S
O409 Fe399 1.976 . S
O409 C404 1.287 . S
O410 Fe396 1.996 . S
O410 C404 1.255 . S
C411 O415 1.295 . S
C411 O416 1.235 . S
O412 Fe397 1.976 . S
O412 C406 1.287 . S
O413 Fe399 1.996 . S
O413 C406 1.255 . S
C414 O407 1.287 . S
C414 O408 1.255 . S
O415 Fe397 2.002 . S
O415 C411 1.295 . S
O416 Fe399 1.997 . S
O416 C411 1.235 . S
C417 O400 1.295 . S
C417 O401 1.235 . S
Fe418 O420 1.918 . S
Fe418 O423 1.997 1_554 S
Fe418 O424 2.002 1_554 S
Fe418 O429 1.976 . S
Fe418 O432 1.996 . S
Fe419 O420 1.918 . S
Fe419 O427 1.997 1_554 S
Fe419 O430 1.996 . S
Fe419 O434 1.976 . S
Fe419 O437 2.002 1_554 S
O420 Fe418 1.918 . S
O420 Fe419 1.918 . S
O420 Fe421 1.918 . S
Fe421 O420 1.918 . S
Fe421 O422 2.002 1_554 S
Fe421 O431 1.976 . S
Fe421 O435 1.996 . S
Fe421 O438 1.997 1_554 S
O422 Fe421 2.002 1_556 S
O422 C439 1.295 . S
O423 Fe418 1.997 1_556 S
O423 C439 1.235 . S
O424 Fe418 2.002 1_556 S
O424 C425 1.295 . S
C425 O424 1.295 . S
C425 O427 1.235 . S
C426 O431 1.287 . S
C426 O432 1.255 . S
O427 Fe419 1.997 1_556 S
O427 C425 1.235 . S
C428 O434 1.287 . S
C428 O435 1.255 . S
O429 Fe418 1.976 . S
O429 C436 1.287 . S
O430 Fe419 1.996 . S
O430 C436 1.255 . S
O431 Fe421 1.976 . S
O431 C426 1.287 . S
O432 Fe418 1.996 . S
O432 C426 1.255 . S
C433 O437 1.295 . S
C433 O438 1.235 . S
O434 Fe419 1.976 . S
O434 C428 1.287 . S
O435 Fe421 1.996 . S
O435 C428 1.255 . S
C436 O429 1.287 . S
C436 O430 1.255 . S
O437 Fe419 2.002 1_556 S
O437 C433 1.295 . S
O438 Fe421 1.997 1_556 S
O438 C433 1.235 . S
C439 O422 1.295 . S
C439 O423 1.235 . S
Fe440 O442 1.918 . S
Fe440 O445 1.997 . S
Fe440 O446 2.002 . S
Fe440 O451 1.976 . S
Fe440 O454 1.996 . S
Fe441 O442 1.918 . S
Fe441 O449 1.997 . S
Fe441 O452 1.996 . S
Fe441 O456 1.976 . S
Fe441 O459 2.002 . S
O442 Fe440 1.918 . S
O442 Fe441 1.918 . S
O442 Fe443 1.918 . S
Fe443 O442 1.918 . S
Fe443 O444 2.002 . S
Fe443 O453 1.976 . S
Fe443 O457 1.996 . S
Fe443 O460 1.997 . S
O444 Fe443 2.002 . S
O444 C461 1.295 . S
O445 Fe440 1.997 . S
O445 C461 1.235 . S
O446 Fe440 2.002 . S
O446 C447 1.295 . S
C447 O446 1.295 . S
C447 O449 1.235 . S
C448 O453 1.287 . S
C448 O454 1.255 . S
O449 Fe441 1.997 . S
O449 C447 1.235 . S
C450 O456 1.287 . S
C450 O457 1.255 . S
O451 Fe440 1.976 . S
O451 C458 1.287 . S
O452 Fe441 1.996 . S
O452 C458 1.255 . S
O453 Fe443 1.976 . S
O453 C448 1.287 . S
O454 Fe440 1.996 . S
O454 C448 1.255 . S
C455 O459 1.295 . S
C455 O460 1.235 . S
O456 Fe441 1.976 . S
O456 C450 1.287 . S
O457 Fe443 1.996 . S
O457 C450 1.255 . S
C458 O451 1.287 . S
C458 O452 1.255 . S
O459 Fe441 2.002 . S
O459 C455 1.295 . S
O460 Fe443 1.997 . S
O460 C455 1.235 . S
C461 O444 1.295 . S
C461 O445 1.235 . S
Fe462 O464 1.918 . S
Fe462 O467 1.997 . S
Fe462 O468 2.002 . S
Fe462 O473 1.976 1_554 S
Fe462 O476 1.996 1_554 S
Fe463 O464 1.918 . S
Fe463 O471 1.997 . S
Fe463 O474 1.996 1_554 S
Fe463 O478 1.976 1_554 S
Fe463 O481 2.002 . S
O464 Fe462 1.918 . S
O464 Fe463 1.918 . S
O464 Fe465 1.918 . S
Fe465 O464 1.918 . S
Fe465 O466 2.002 . S
Fe465 O475 1.976 1_554 S
Fe465 O479 1.996 1_554 S
Fe465 O482 1.997 . S
O466 Fe465 2.002 . S
O466 C483 1.295 . S
O467 Fe462 1.997 . S
O467 C483 1.235 . S
O468 Fe462 2.002 . S
O468 C469 1.295 . S
C469 O468 1.295 . S
C469 O471 1.235 . S
C470 O475 1.287 . S
C470 O476 1.255 . S
O471 Fe463 1.997 . S
O471 C469 1.235 . S
C472 O478 1.287 . S
C472 O479 1.255 . S
O473 Fe462 1.976 1_556 S
O473 C480 1.287 . S
O474 Fe463 1.996 1_556 S
O474 C480 1.255 . S
O475 Fe465 1.976 1_556 S
O475 C470 1.287 . S
O476 Fe462 1.996 1_556 S
O476 C470 1.255 . S
C477 O481 1.295 . S
C477 O482 1.235 . S
O478 Fe463 1.976 1_556 S
O478 C472 1.287 . S
O479 Fe465 1.996 1_556 S
O479 C472 1.255 . S
C480 O473 1.287 . S
C480 O474 1.255 . S
O481 Fe463 2.002 . S
O481 C477 1.295 . S
O482 Fe465 1.997 . S
O482 C477 1.235 . S
C483 O466 1.295 . S
C483 O467 1.235 . S
Fe484 O486 1.918 . S
Fe484 O489 1.997 . S
Fe484 O490 2.002 . S
Fe484 O495 1.976 . S
Fe484 O498 1.996 . S
Fe485 O486 1.918 . S
Fe485 O493 1.997 . S
Fe485 O496 1.996 . S
Fe485 O500 1.976 . S
Fe485 O503 2.002 . S
O486 Fe484 1.918 . S
O486 Fe485 1.918 . S
O486 Fe487 1.918 . S
Fe487 O486 1.918 . S
Fe487 O488 2.002 . S
Fe487 O497 1.976 . S
Fe487 O501 1.996 . S
Fe487 O504 1.997 . S
O488 Fe487 2.002 . S
O488 C505 1.295 . S
O489 Fe484 1.997 . S
O489 C505 1.235 . S
O490 Fe484 2.002 . S
O490 C491 1.295 . S
C491 O490 1.295 . S
C491 O493 1.235 . S
C492 O497 1.287 . S
C492 O498 1.255 . S
O493 Fe485 1.997 . S
O493 C491 1.235 . S
C494 O500 1.287 . S
C494 O501 1.255 . S
O495 Fe484 1.976 . S
O495 C502 1.287 . S
O496 Fe485 1.996 . S
O496 C502 1.255 . S
O497 Fe487 1.976 . S
O497 C492 1.287 . S
O498 Fe484 1.996 . S
O498 C492 1.255 . S
C499 O503 1.295 . S
C499 O504 1.235 . S
O500 Fe485 1.976 . S
O500 C494 1.287 . S
O501 Fe487 1.996 . S
O501 C494 1.255 . S
C502 O495 1.287 . S
C502 O496 1.255 . S
O503 Fe485 2.002 . S
O503 C499 1.295 . S
O504 Fe487 1.997 . S
O504 C499 1.235 . S
C505 O488 1.295 . S
C505 O489 1.235 . S
Fe506 O508 1.918 . S
Fe506 O511 1.997 . S
Fe506 O512 2.002 . S
Fe506 O517 1.976 . S
Fe506 O520 1.996 . S
Fe507 O508 1.918 . S
Fe507 O515 1.997 . S
Fe507 O518 1.996 . S
Fe507 O522 1.976 . S
Fe507 O525 2.002 . S
O508 Fe506 1.918 . S
O508 Fe507 1.918 . S
O508 Fe509 1.918 . S
Fe509 O508 1.918 . S
Fe509 O510 2.002 . S
Fe509 O519 1.976 . S
Fe509 O523 1.996 . S
Fe509 O526 1.997 . S
O510 Fe509 2.002 . S
O510 C527 1.295 . S
O511 Fe506 1.997 . S
O511 C527 1.235 . S
O512 Fe506 2.002 . S
O512 C513 1.295 . S
C513 O512 1.295 . S
C513 O515 1.235 . S
C514 O519 1.287 . S
C514 O520 1.255 . S
O515 Fe507 1.997 . S
O515 C513 1.235 . S
C516 O522 1.287 . S
C516 O523 1.255 . S
O517 Fe506 1.976 . S
O517 C524 1.287 . S
O518 Fe507 1.996 . S
O518 C524 1.255 . S
O519 Fe509 1.976 . S
O519 C514 1.287 . S
O520 Fe506 1.996 . S
O520 C514 1.255 . S
C521 O525 1.295 . S
C521 O526 1.235 . S
O522 Fe507 1.976 . S
O522 C516 1.287 . S
O523 Fe509 1.996 . S
O523 C516 1.255 . S
C524 O517 1.287 . S
C524 O518 1.255 . S
O525 Fe507 2.002 . S
O525 C521 1.295 . S
O526 Fe509 1.997 . S
O526 C521 1.235 . S
C527 O510 1.295 . S
C527 O511 1.235 . S
C15 C367 1.585 . S
C37 C527 1.592 . S
C469 C65 1.590 . S
C81 C499 1.582 . S
C95 C395 1.590 . S
C117 C411 1.589 . S
C139 C439 1.585 . S
C169 C450 1.550 . S
C197 C7 1.608 . S
C205 C29 1.601 . S
C59 C241 1.590 . S
C73 C263 1.585 . S
C279 C109 1.588 . S
C301 C131 1.593 . S
C329 C153 1.610 . S
C345 C161 1.605 . S
C373 C191 1.585 . S
C381 C271 1.586 . S
C293 C417 1.585 . S
C425 C323 1.587 . S
C458 C337 1.561 . S
C477 C235 1.584 . S
C257 C505 1.612 . S
C513 C219 1.586 . S
C480 C106 1.659 . S
C494 C128 1.669 . S
C150 C362 1.666 . S
C164 C514 1.658 . S
C426 C10 1.664 . S
C32 C455 1.700 . S
C382 C52 1.661 . S
C76 C406 1.660 . S
C316 C96 1.660 . S
C340 C118 1.664 . S
C274 C140 1.641 . S
C172 C296 1.649 . S
C228 C18 1.640 . S
C250 C40 1.646 . S
C184 C54 1.662 . S
C216 C84 1.657 . S
C318 C472 1.665 . S
C436 C230 1.663 . S
C252 C447 1.682 . S
C392 C186 1.663 . S
C404 C206 1.664 . S
C360 C282 1.665 . S
C524 C304 1.664 . S
C348 C492 1.637 . S
C448 C21 1.678 . S
C389 C43 1.716 . S
C51 C403 1.708 . S
C87 C433 1.700 . S
C521 C103 1.703 . S
C125 C483 1.711 . S
C491 C147 1.729 . S
C175 C359 1.705 . S
C183 C351 1.717 . S
C285 C213 1.706 . S
C227 C307 1.695 . S
C315 C249 1.725 . S
C414 C98 1.625 . S
C428 C120 1.633 . S
C142 C461 1.661 . S
C162 C384 1.618 . S
C502 C8 1.605 . S
C370 C30 1.628 . S
C516 C62 1.629 . S
C74 C470 1.622 . S
C208 C326 1.637 . S
C338 C238 1.609 . S
C272 C260 1.615 . S
C294 C194 1.627 . S
