# Generated by pormake.
# Topology can, (4)-cn, num edge types: 1
# Building blocks:
#     Node 0, Type 0, BuildingBlock: NAHDIM_clean_sbu_0, # of connection points: 4
#     Node 1, Type 0, BuildingBlock: NAHDIM_clean_sbu_0, # of connection points: 4
#     Node 2, Type 0, BuildingBlock: NAHDIM_clean_sbu_0, # of connection points: 4
#     Node 3, Type 0, BuildingBlock: NAHDIM_clean_sbu_0, # of connection points: 4
#     Node 4, Type 0, BuildingBlock: NAHDIM_clean_sbu_0, # of connection points: 4
#     Node 5, Type 0, BuildingBlock: NAHDIM_clean_sbu_0, # of connection points: 4
#     Node 6, Type 0, BuildingBlock: NAHDIM_clean_sbu_0, # of connection points: 4
#     Node 7, Type 0, BuildingBlock: NAHDIM_clean_sbu_0, # of connection points: 4
#     Node 8, Type 0, BuildingBlock: NAHDIM_clean_sbu_0, # of connection points: 4
#     Node 9, Type 0, BuildingBlock: NAHDIM_clean_sbu_0, # of connection points: 4
#     Node 10, Type 0, BuildingBlock: NAHDIM_clean_sbu_0, # of connection points: 4
#     Node 11, Type 0, BuildingBlock: NAHDIM_clean_sbu_0, # of connection points: 4
#     Edge 12, Type (0, 0), BuildingBlock: EZIPEK_clean_linker_0, # of connection points: 2
#     Edge 13, Type (0, 0), BuildingBlock: EZIPEK_clean_linker_0, # of connection points: 2
#     Edge 14, Type (0, 0), BuildingBlock: EZIPEK_clean_linker_0, # of connection points: 2
#     Edge 15, Type (0, 0), BuildingBlock: EZIPEK_clean_linker_0, # of connection points: 2
#     Edge 16, Type (0, 0), BuildingBlock: EZIPEK_clean_linker_0, # of connection points: 2
#     Edge 17, Type (0, 0), BuildingBlock: EZIPEK_clean_linker_0, # of connection points: 2
#     Edge 18, Type (0, 0), BuildingBlock: EZIPEK_clean_linker_0, # of connection points: 2
#     Edge 19, Type (0, 0), BuildingBlock: EZIPEK_clean_linker_0, # of connection points: 2
#     Edge 20, Type (0, 0), BuildingBlock: EZIPEK_clean_linker_0, # of connection points: 2
#     Edge 21, Type (0, 0), BuildingBlock: EZIPEK_clean_linker_0, # of connection points: 2
#     Edge 22, Type (0, 0), BuildingBlock: EZIPEK_clean_linker_0, # of connection points: 2
#     Edge 23, Type (0, 0), BuildingBlock: EZIPEK_clean_linker_0, # of connection points: 2
#     Edge 24, Type (0, 0), BuildingBlock: EZIPEK_clean_linker_0, # of connection points: 2
#     Edge 25, Type (0, 0), BuildingBlock: EZIPEK_clean_linker_0, # of connection points: 2
#     Edge 26, Type (0, 0), BuildingBlock: EZIPEK_clean_linker_0, # of connection points: 2
#     Edge 27, Type (0, 0), BuildingBlock: EZIPEK_clean_linker_0, # of connection points: 2
#     Edge 28, Type (0, 0), BuildingBlock: EZIPEK_clean_linker_0, # of connection points: 2
#     Edge 29, Type (0, 0), BuildingBlock: EZIPEK_clean_linker_0, # of connection points: 2
#     Edge 30, Type (0, 0), BuildingBlock: EZIPEK_clean_linker_0, # of connection points: 2
#     Edge 31, Type (0, 0), BuildingBlock: EZIPEK_clean_linker_0, # of connection points: 2
#     Edge 32, Type (0, 0), BuildingBlock: EZIPEK_clean_linker_0, # of connection points: 2
#     Edge 33, Type (0, 0), BuildingBlock: EZIPEK_clean_linker_0, # of connection points: 2
#     Edge 34, Type (0, 0), BuildingBlock: EZIPEK_clean_linker_0, # of connection points: 2
#     Edge 35, Type (0, 0), BuildingBlock: EZIPEK_clean_linker_0, # of connection points: 2
# Relax obj value: 0.092
# Max RMSD: 0.086
# Mean RMSD: 0.086
data_MOF--net-can--node1-NAHDIM_clean_sbu_0--edge1-EZIPEK_clean_linker_0
_symmetry_space_group_name_H-M    P1
_symmetry_Int_Tables_number       1
_symmetry_cell_setting            triclinic
loop_
_symmetry_equiv_pos_as_xyz
'x, y, z'
_cell_length_a     44.134383
_cell_length_b     44.074105
_cell_length_c     18.364523
_cell_angle_alpha  89.861919
_cell_angle_beta   90.097469
_cell_angle_gamma 120.07308
loop_
_atom_site_label
_atom_site_type_symbol
_atom_site_fract_x
_atom_site_fract_y
_atom_site_fract_z
_atom_type_partial_charge
C0 C 0.12132 0.38733 0.25389 0.0
O1 O 0.09131 0.36326 0.28131 0.0
O2 O 0.05752 0.40464 0.12495 0.0
Zn3 Zn 0.08223 0.42148 0.22132 0.0
O4 O 0.05112 0.39788 0.308 0.0
C5 C 0.07266 0.47924 0.21689 0.0
O6 O 0.04161 0.45376 0.19748 0.0
O7 O 0.12385 0.41471 0.22488 0.0
C8 C 0.01862 0.37551 0.30632 0.0
O9 O 0.00242 0.36452 0.24377 0.0
C10 C 0.04325 0.37352 0.10073 0.0
O11 O 0.04374 0.34883 0.14006 0.0
O12 O 0.097 0.47251 0.22953 0.0
C13 C 0.74591 0.12493 0.73388 0.0
O14 O 0.74051 0.09283 0.73113 0.0
O15 O 0.66285 0.06279 0.64252 0.0
Zn16 Zn 0.67148 0.08906 0.73612 0.0
O17 O 0.66492 0.05752 0.82037 0.0
C18 C 0.60428 0.08087 0.73119 0.0
O19 O 0.59751 0.04951 0.71115 0.0
O20 O 0.72011 0.13011 0.73638 0.0
C21 C 0.66368 0.06854 0.88342 0.0
O22 O 0.66846 0.10025 0.89126 0.0
C23 C 0.66639 0.03609 0.63558 0.0
O24 O 0.67751 0.0252 0.69061 0.0
O25 O 0.63561 0.10434 0.745 0.0
C26 C 0.60298 0.73899 0.22502 0.0
O27 O 0.62971 0.73854 0.25537 0.0
O28 O 0.5933 0.65224 0.13083 0.0
Zn29 Zn 0.57596 0.66498 0.2206 0.0
O30 O 0.60514 0.66931 0.30856 0.0
C31 C 0.51554 0.59573 0.21757 0.0
O32 O 0.53561 0.58976 0.17426 0.0
O33 O 0.57648 0.71045 0.20487 0.0
C34 C 0.60538 0.64245 0.33293 0.0
O35 O 0.58912 0.6128 0.29689 0.0
C36 C 0.61759 0.67395 0.08952 0.0
O37 O 0.63469 0.70744 0.10569 0.0
O38 O 0.52657 0.62638 0.24256 0.0
C39 C 0.85505 0.60226 0.72114 0.0
O40 O 0.88523 0.63142 0.71457 0.0
O41 O 0.92317 0.59929 0.6272 0.0
Zn42 Zn 0.90003 0.57456 0.72106 0.0
O43 O 0.92729 0.60004 0.81104 0.0
C44 C 0.91381 0.51808 0.69471 0.0
O45 O 0.94137 0.54283 0.66103 0.0
O46 O 0.85416 0.57308 0.72549 0.0
C47 C 0.95156 0.59549 0.83622 0.0
O48 O 0.96176 0.57668 0.79956 0.0
C49 C 0.95599 0.61843 0.61823 0.0
O50 O 0.97726 0.62379 0.67294 0.0
O51 O 0.89168 0.52503 0.72273 0.0
C52 C 0.25325 0.86379 0.28422 0.0
O53 O 0.25312 0.89275 0.30028 0.0
O54 O 0.33499 0.93616 0.17485 0.0
Zn55 Zn 0.3274 0.90999 0.26911 0.0
O56 O 0.32934 0.9397 0.35441 0.0
C57 C 0.39715 0.92435 0.28802 0.0
O58 O 0.40185 0.9559 0.29798 0.0
O59 O 0.28181 0.86502 0.26824 0.0
C60 C 0.3375 0.93366 0.41691 0.0
O61 O 0.34224 0.90678 0.42597 0.0
C62 C 0.34425 0.96847 0.17252 0.0
O63 O 0.34636 0.98532 0.23289 0.0
O64 O 0.3665 0.89907 0.27576 0.0
C65 C 0.36717 0.24519 0.76668 0.0
O66 O 0.33868 0.24685 0.75489 0.0
O67 O 0.37699 0.32682 0.69362 0.0
Zn68 Zn 0.39928 0.31993 0.78382 0.0
O69 O 0.37948 0.32411 0.88023 0.0
C70 C 0.45727 0.38889 0.78065 0.0
O71 O 0.43151 0.39564 0.78038 0.0
O72 O 0.39592 0.27296 0.78 0.0
C73 C 0.36745 0.34428 0.8942 0.0
O74 O 0.36537 0.36378 0.84257 0.0
C75 C 0.34629 0.32171 0.6831 0.0
O76 O 0.32342 0.31011 0.73647 0.0
O77 O 0.45033 0.35723 0.78152 0.0
C78 C 0.60797 0.87201 0.20285 0.0
O79 O 0.63529 0.89887 0.17302 0.0
O80 O 0.61629 0.94771 0.32589 0.0
Zn81 Zn 0.58872 0.92354 0.23508 0.0
O82 O 0.61276 0.95123 0.14494 0.0
C83 C 0.52208 0.91276 0.29225 0.0
O84 O 0.53305 0.90769 0.35517 0.0
O85 O 0.58409 0.87605 0.23155 0.0
C86 C 0.62317 0.98381 0.14294 0.0
O87 O 0.61969 -0.00066 0.20044 0.0
C88 C 0.6121 0.97014 0.36099 0.0
O89 O 0.58997 0.97959 0.33745 0.0
O90 O 0.54076 0.91845 0.23577 0.0
C91 C 0.72544 0.60403 0.72601 0.0
O92 O 0.72493 0.63313 0.73808 0.0
O93 O 0.65498 0.6066 0.80633 0.0
Zn94 Zn 0.65247 0.57688 0.7202 0.0
O95 O 0.64663 0.59655 0.626 0.0
C96 C 0.59368 0.51354 0.78432 0.0
O97 O 0.60407 0.52992 0.84682 0.0
O98 O 0.69694 0.57552 0.7161 0.0
C99 C 0.6536 0.62782 0.61492 0.0
O100 O 0.66646 0.65103 0.66755 0.0
C101 C 0.62877 0.60884 0.82725 0.0
O102 O 0.59943 0.59283 0.79002 0.0
O103 O 0.61102 0.52782 0.72682 0.0
C104 C 0.12949 0.72652 0.28401 0.0
O105 O 0.12529 0.70355 0.33445 0.0
O106 O 0.0373 0.65852 0.31881 0.0
Zn107 Zn 0.06632 0.66921 0.22851 0.0
O108 O 0.03856 0.66459 0.13866 0.0
C109 C 0.06703 0.60523 0.2535 0.0
O110 O 0.04135 0.59927 0.29791 0.0
O111 O 0.10722 0.7178 0.23307 0.0
C112 C 0.0132 0.63459 0.1221 0.0
O113 O 0.00341 0.60835 0.1678 0.0
C114 C 0.02427 0.67619 0.34441 0.0
O115 O 0.0285 0.70419 0.30987 0.0
O116 O 0.08304 0.63423 0.21943 0.0
C117 C 0.37412 0.11809 0.76636 0.0
O118 O 0.34676 0.0864 0.7707 0.0
O119 O 0.38735 0.05376 0.86102 0.0
Zn120 Zn 0.41035 0.0799 0.76819 0.0
O121 O 0.38672 0.05054 0.67932 0.0
C122 C 0.47323 0.07571 0.74503 0.0
O123 O 0.45065 0.04431 0.72125 0.0
O124 O 0.40471 0.12219 0.76444 0.0
C125 C 0.37502 0.0177 0.67686 0.0
O126 O 0.37613 0.0012 0.73554 0.0
C127 C 0.39811 0.03599 0.89566 0.0
O128 O 0.42465 0.03361 0.8706 0.0
O129 O 0.46246 0.09592 0.76758 0.0
C130 C 0.24739 0.37895 0.262 0.0
O131 O 0.25025 0.35296 0.23483 0.0
O132 O 0.32716 0.389 0.38326 0.0
Zn133 Zn 0.32086 0.40862 0.28852 0.0
O134 O 0.32463 0.38459 0.19858 0.0
C135 C 0.38993 0.46787 0.29103 0.0
O136 O 0.39708 0.4442 0.31562 0.0
O137 O 0.27402 0.40543 0.28881 0.0
C138 C 0.34668 0.37442 0.1899 0.0
O139 O 0.36706 0.37646 0.24411 0.0
C140 C 0.31824 0.3572 0.39567 0.0
O141 O 0.3042 0.33393 0.34332 0.0
O142 O 0.35837 0.45937 0.27816 0.0
C143 C 0.87897 0.25236 0.72881 0.0
O144 O 0.90971 0.25596 0.74393 0.0
O145 O 0.94314 0.33362 0.81382 0.0
Zn146 Zn 0.91806 0.32725 0.71856 0.0
O147 O 0.94957 0.33502 0.6333 0.0
C148 C 0.92503 0.39458 0.71799 0.0
O149 O 0.9578 0.40347 0.72955 0.0
O150 O 0.87634 0.27916 0.71489 0.0
C151 C 0.93682 0.33283 0.57024 0.0
O152 O 0.90383 0.32415 0.56324 0.0
C153 C 0.97604 0.34637 0.81838 0.0
O154 O -0.00485 0.35549 0.75897 0.0
O155 O 0.90194 0.36247 0.71183 0.0
C156 C 0.03337 0.34761 0.97478 0.0
C157 C 0.02518 0.36525 0.02918 0.0
C158 C 0.98777 0.37363 0.94235 0.0
C159 C 0.99293 0.35274 0.8908 0.0
N160 N 0.01509 0.31391 0.86319 0.0
N161 N 0.98824 0.38805 0.06913 0.0
C162 C 0.01415 0.338 0.90846 0.0
C163 C 0.00056 0.37627 0.01425 0.0
N164 N 0.06059 0.34155 0.98463 0.0
N165 N 0.97202 0.39229 0.92203 0.0
H166 H -0.00397 0.38959 0.12312 0.0
H167 H 0.96753 0.39281 0.06239 0.0
H168 H 0.96306 0.39193 0.86938 0.0
H169 H 0.9711 0.41091 0.95535 0.0
H170 H 0.06996 0.33215 0.94357 0.0
H171 H 0.07615 0.34915 0.03124 0.0
H172 H 0.02719 0.2996 0.87716 0.0
H173 H 0.00091 0.3057 0.81471 0.0
C174 C 0.61789 0.9646 0.49479 0.0
C175 C 0.63077 0.98466 0.43016 0.0
C176 C 0.67351 0.03502 0.50106 0.0
C177 C 0.65664 0.01688 0.56585 0.0
N178 N 0.61044 0.96547 0.62513 0.0
N179 N 0.6706 0.03878 0.3697 0.0
C180 C 0.62856 0.98172 0.56319 0.0
C181 C 0.65871 0.01981 0.43264 0.0
N182 N 0.59529 0.92927 0.4908 0.0
N183 N 0.70413 0.06638 0.50524 0.0
H184 H 0.66187 0.02774 0.31834 0.0
H185 H 0.68785 0.06572 0.36839 0.0
H186 H 0.71599 0.07777 0.55473 0.0
H187 H 0.71947 0.07948 0.46021 0.0
H188 H 0.58778 0.9127 0.53591 0.0
H189 H 0.58661 0.91592 0.44156 0.0
H190 H 0.58719 0.94147 0.62506 0.0
H191 H 0.61688 0.97714 0.67637 0.0
C192 C 0.6401 0.63941 0.02516 0.0
C193 C 0.62513 0.66125 0.02139 0.0
C194 C 0.62112 0.6552 0.88866 0.0
C195 C 0.63093 0.62912 0.89347 0.0
N196 N 0.64778 0.59445 0.96766 0.0
N197 N 0.59829 0.68784 0.95113 0.0
C198 C 0.64036 0.62098 0.96195 0.0
C199 C 0.61508 0.66888 0.95349 0.0
N200 N 0.65464 0.63683 0.08904 0.0
N201 N 0.61872 0.66775 0.82203 0.0
H202 H 0.5936 0.69859 -0.00269 0.0
H203 H 0.58663 0.69067 0.90424 0.0
H204 H 0.62407 0.65912 0.77349 0.0
H205 H 0.61507 0.68916 0.8152 0.0
H206 H 0.66937 0.62443 0.09352 0.0
H207 H 0.65473 0.64992 0.13641 0.0
H208 H 0.65017 0.58433 0.01724 0.0
H209 H 0.64929 0.5807 0.92325 0.0
C210 C 0.9748 0.62885 0.4143 0.0
C211 C 0.00322 0.66374 0.41186 0.0
C212 C -0.00553 0.67083 0.54101 0.0
C213 C 0.97033 0.6343 0.54607 0.0
N214 N 0.94062 0.57732 0.48798 0.0
N215 N 0.04269 0.71745 0.47445 0.0
C216 C 0.96098 0.61296 0.48273 0.0
C217 C 0.0136 0.6848 0.47545 0.0
N218 N 0.9606 0.61109 0.35093 0.0
N219 N -0.00166 0.69237 0.59804 0.0
H220 H 0.05733 0.72883 0.42758 0.0
H221 H 0.05385 0.73217 0.52132 0.0
H222 H 0.98396 0.68325 0.64611 0.0
H223 H 0.013 0.71961 0.59481 0.0
H224 H 0.93764 0.58683 0.34904 0.0
H225 H 0.96965 0.62228 0.2997 0.0
H226 H 0.93658 0.56044 0.44474 0.0
H227 H 0.93025 0.56416 0.53677 0.0
C228 C 0.34774 0.99316 0.9731 0.0
C229 C 0.38303 0.02068 0.96741 0.0
C230 C 0.3928 0.0141 0.09628 0.0
C231 C 0.35704 0.98781 0.10311 0.0
N232 N 0.29884 0.95673 0.05256 0.0
N233 N 0.43654 0.06308 0.02628 0.0
C234 C 0.33398 0.97864 0.04277 0.0
C235 C 0.40479 0.03287 0.02987 0.0
N236 N 0.32785 0.97992 0.91169 0.0
N237 N 0.41579 0.01998 0.15181 0.0
H238 H 0.44594 0.07799 0.97885 0.0
H239 H 0.45195 0.07524 0.07185 0.0
H240 H 0.40837 0.00677 0.20146 0.0
H241 H 0.44282 0.03573 0.14638 0.0
H242 H 0.30336 0.95726 0.91128 0.0
H243 H 0.33685 0.99012 0.85984 0.0
H244 H 0.28022 0.95185 0.01252 0.0
H245 H 0.28792 0.94576 0.10297 0.0
C246 C 0.35769 0.36828 0.503 0.0
C247 C 0.32488 0.34702 0.46873 0.0
C248 C 0.30652 0.30681 0.57322 0.0
C249 C 0.33749 0.33078 0.61103 0.0
N250 N 0.38732 0.38945 0.61779 0.0
N251 N 0.26486 0.29993 0.47967 0.0
C252 C 0.36156 0.36307 0.57768 0.0
C253 C 0.29829 0.3173 0.50612 0.0
N254 N 0.38578 0.39237 0.46374 0.0
N255 N 0.28569 0.2736 0.59924 0.0
H256 H 0.25725 0.30759 0.43258 0.0
H257 H 0.24396 0.28023 0.50874 0.0
H258 H 0.29135 0.26433 0.64661 0.0
H259 H 0.26477 0.2542 0.56974 0.0
H260 H 0.41094 0.40646 0.48555 0.0
H261 H 0.38486 0.3949 0.40749 0.0
H262 H 0.40366 0.41448 0.59679 0.0
H263 H 0.3894 0.38765 0.67396 0.0
C264 C 0.00378 0.6297 0.91578 0.0
C265 C 0.96692 0.60917 0.90878 0.0
C266 C 0.96074 0.6121 0.04081 0.0
C267 C -0.00245 0.62803 0.04844 0.0
N268 N 0.05388 0.64606 0.99322 0.0
N269 N 0.91018 0.57567 0.96619 0.0
C270 C 0.01914 0.63551 0.98596 0.0
C271 C 0.94523 0.59917 0.97162 0.0
N272 N 0.02413 0.64421 0.85544 0.0
N273 N 0.94065 0.60991 0.09935 0.0
H274 H 0.8977 0.56456 0.91712 0.0
H275 H 0.89402 0.56463 0.01134 0.0
H276 H 0.95122 0.61955 0.15069 0.0
H277 H 0.9141 0.60174 0.09528 0.0
H278 H 0.05084 0.66228 0.85816 0.0
H279 H 0.01369 0.64106 0.80318 0.0
H280 H 0.06972 0.64806 0.94934 0.0
H281 H 0.06625 0.64944 0.04335 0.0
C282 C 0.37262 0.99207 0.47773 0.0
C283 C 0.34347 0.9575 0.47884 0.0
C284 C 0.33052 0.96651 0.6042 0.0
C285 C 0.36295 -0.00152 0.60689 0.0
N286 N 0.41772 0.03915 0.54826 0.0
N287 N 0.29463 0.91096 0.54317 0.0
C288 C 0.3846 0.01088 0.54399 0.0
C289 C 0.32237 0.94447 0.54217 0.0
N290 N 0.38927 0.00705 0.41378 0.0
N291 N 0.30699 0.95786 0.65975 0.0
H292 H 0.28631 0.89495 0.49721 0.0
H293 H 0.28095 0.89844 0.59034 0.0
H294 H 0.31162 0.97399 0.70481 0.0
H295 H 0.28158 0.93659 0.65794 0.0
H296 H 0.40803 0.03351 0.409 0.0
H297 H 0.3821 0.99425 0.36392 0.0
H298 H 0.43607 0.04636 0.50659 0.0
H299 H 0.42837 0.05354 0.59551 0.0
C300 C 0.32876 0.33116 0.00349 0.0
C301 C 0.36223 0.35067 0.97086 0.0
C302 C 0.3853 0.38621 0.08112 0.0
C303 C 0.3525 0.36511 0.11586 0.0
N304 N 0.29467 0.31419 0.11508 0.0
N305 N 0.42398 0.39232 0.98182 0.0
C306 C 0.32462 0.33663 0.07836 0.0
C307 C 0.39101 0.37678 0.01078 0.0
N308 N 0.30086 0.30789 0.9625 0.0
N309 N 0.41031 0.41646 0.1133 0.0
H310 H 0.42919 0.3868 0.92971 0.0
H311 H 0.44651 0.4085 0.01157 0.0
H312 H 0.4072 0.42489 0.16425 0.0
H313 H 0.43294 0.43499 0.08673 0.0
H314 H 0.27505 0.29566 0.98061 0.0
H315 H 0.30327 0.30256 0.90816 0.0
H316 H 0.27473 0.29097 0.09304 0.0
H317 H 0.29098 0.31721 0.17011 0.0
C318 C 0.9577 0.31762 0.45669 0.0
C319 C 0.95962 0.34345 0.5054 0.0
C320 C -0.00176 0.38996 0.42127 0.0
C321 C -0.0015 0.36434 0.37499 0.0
N322 N 0.98365 0.30445 0.35398 0.0
N323 N 0.98666 0.40418 0.54137 0.0
C324 C 0.97957 0.32828 0.39403 0.0
C325 C 0.98159 0.37963 0.49011 0.0
N326 N 0.93479 0.28295 0.4701 0.0
N327 N 0.01209 0.42384 0.39775 0.0
H328 H 0.97435 0.39777 0.59193 0.0
H329 H 0.00536 0.43064 0.53633 0.0
H330 H 0.02339 0.43234 0.34654 0.0
H331 H 0.00929 0.44278 0.42585 0.0
H332 H 0.92909 0.26314 0.43253 0.0
H333 H 0.91982 0.27412 0.51748 0.0
H334 H 0.97345 0.27837 0.36932 0.0
H335 H -0.00015 0.31139 0.30836 0.0
C336 C 0.61931 0.01658 0.95381 0.0
C337 C 0.65414 0.04498 0.94704 0.0
C338 C 0.6698 0.02946 0.06393 0.0
C339 C 0.6343 0.00321 0.07356 0.0
N340 N 0.57412 0.97427 0.03367 0.0
N341 N 0.71233 0.08038 0.99584 0.0
C342 C 0.60876 -0.00285 0.0198 0.0
C343 C 0.67938 0.05197 0.0022 0.0
N344 N 0.5962 0.00833 0.8974 0.0
N345 N 0.69439 0.03217 0.11302 0.0
H346 H 0.72085 0.09627 0.94959 0.0
H347 H 0.73076 0.08941 0.03757 0.0
H348 H 0.68808 0.01611 0.15891 0.0
H349 H 0.72123 0.04835 0.10587 0.0
H350 H 0.57193 0.98543 0.89541 0.0
H351 H 0.60199 0.02318 0.84989 0.0
H352 H 0.55378 0.97189 0.00087 0.0
H353 H 0.56523 0.95933 0.08117 0.0
C354 C 0.6033 0.64558 0.46887 0.0
C355 C 0.62044 0.64329 0.40542 0.0
C356 C 0.66364 0.63837 0.48116 0.0
C357 C 0.64424 0.63675 0.54396 0.0
N358 N 0.59401 0.6354 0.59889 0.0
N359 N 0.66591 0.63635 0.34922 0.0
C360 C 0.61391 0.63995 0.53835 0.0
C361 C 0.65043 0.63946 0.41103 0.0
N362 N 0.57656 0.65267 0.46276 0.0
N363 N 0.69508 0.63963 0.48903 0.0
H364 H 0.65825 0.63915 0.29702 0.0
H365 H 0.68519 0.62934 0.34914 0.0
H366 H 0.70542 0.63899 0.5398 0.0
H367 H 0.71229 0.64411 0.4463 0.0
H368 H 0.56598 0.65898 0.50685 0.0
H369 H 0.56618 0.65454 0.41307 0.0
H370 H 0.56931 0.63296 0.59738 0.0
H371 H 0.601 0.63152 0.65085 0.0
C372 C 0.06975 0.56121 0.17098 0.0
C373 C 0.07541 0.57711 0.24067 0.0
C374 C 0.08381 0.5308 0.29395 0.0
C375 C 0.07845 0.51513 0.22421 0.0
N376 N 0.07538 0.51964 0.09406 0.0
N377 N 0.09646 0.58253 0.36371 0.0
C378 C 0.0744 0.5318 0.16193 0.0
C379 C 0.08525 0.56362 0.30067 0.0
N380 N 0.05783 0.5727 0.11455 0.0
N381 N 0.08554 0.51348 0.35427 0.0
H382 H 0.09819 0.60688 0.36987 0.0
H383 H 0.10719 0.5758 0.40708 0.0
H384 H 0.08509 0.48963 0.3517 0.0
H385 H 0.085 0.52151 0.4073 0.0
H386 H 0.0491 0.55939 0.06534 0.0
H387 H 0.05413 0.59419 0.11832 0.0
H388 H 0.07608 0.53269 0.04619 0.0
H389 H 0.07895 0.49821 0.08577 0.0
C390 C 0.52791 0.09189 0.67573 0.0
C391 C 0.51094 0.08694 0.74387 0.0
C392 C 0.55933 0.08539 0.80594 0.0
C393 C 0.57523 0.08823 0.73728 0.0
N394 N 0.57998 0.10224 0.60966 0.0
N395 N 0.51385 0.08818 0.87486 0.0
C396 C 0.56119 0.09416 0.67297 0.0
C397 C 0.52792 0.08693 0.80948 0.0
N398 N 0.51165 0.0936 0.61373 0.0
N399 N 0.57333 0.07941 0.86706 0.0
H400 H 0.49089 0.0893 0.87895 0.0
H401 H 0.52628 0.0912 0.92471 0.0
H402 H 0.59696 0.07941 0.86666 0.0
H403 H 0.5609 0.07275 0.91745 0.0
H404 H 0.52008 0.09274 0.5613 0.0
H405 H 0.48887 0.09521 0.61498 0.0
H406 H 0.57281 0.10962 0.56173 0.0
H407 H 0.60448 0.10414 0.60649 0.0
C408 C 0.45573 0.54783 0.18357 0.0
C409 C 0.48083 0.56626 0.23867 0.0
C410 C 0.44154 0.52447 0.33011 0.0
C411 C 0.41901 0.50337 0.27351 0.0
N412 N 0.40598 0.49287 0.1451 0.0
N413 N 0.49945 0.57089 0.36398 0.0
C414 C 0.42618 0.51464 0.19987 0.0
C415 C 0.47408 0.55455 0.31213 0.0
N416 N 0.45988 0.56245 0.11595 0.0
N417 N 0.43149 0.51597 0.4011 0.0
H418 H 0.52358 0.59309 0.35346 0.0
H419 H 0.49766 0.561 0.41633 0.0
H420 H 0.40771 0.49414 0.41596 0.0
H421 H 0.44504 0.53217 0.44479 0.0
H422 H 0.44076 0.552 0.07555 0.0
H423 H 0.4811 0.58693 0.1025 0.0
H424 H 0.41257 0.49785 0.09022 0.0
H425 H 0.38395 0.4684 0.15434 0.0
C426 C 0.9118 0.46982 0.77167 0.0
C427 C 0.90979 0.48281 0.70195 0.0
C428 C 0.91276 0.43459 0.64266 0.0
C429 C 0.91546 0.42211 0.71219 0.0
N430 N 0.90896 0.42179 0.84225 0.0
N431 N 0.8998 0.47358 0.57288 0.0
C432 C 0.91217 0.43782 0.77657 0.0
C433 C 0.90762 0.4639 0.63789 0.0
N434 N 0.91532 0.48894 0.83286 0.0
N435 N 0.91627 0.4191 0.58131 0.0
H436 H 0.89529 0.49459 0.56804 0.0
H437 H 0.89467 0.45914 0.52514 0.0
H438 H 0.91798 0.39635 0.58282 0.0
H439 H 0.91912 0.42955 0.52923 0.0
H440 H 0.92157 0.48325 0.88387 0.0
H441 H 0.91403 0.51188 0.83243 0.0
H442 H 0.903 0.42989 0.89065 0.0
H443 H 0.90911 0.39827 0.84733 0.0
C444 C 0.45684 0.94188 0.24129 0.0
C445 C 0.42783 0.91923 0.28534 0.0
C446 C 0.45839 0.88814 0.32227 0.0
C447 C 0.48935 0.91442 0.28802 0.0
N448 N 0.51948 0.97095 0.22737 0.0
N449 N 0.40307 0.87389 0.37738 0.0
C450 C 0.48903 0.94256 0.25066 0.0
C451 C 0.42904 0.89306 0.32837 0.0
N452 N 0.45342 0.96194 0.1886 0.0
N453 N 0.45641 0.85785 0.34647 0.0
H454 H 0.38143 0.87706 0.38485 0.0
H455 H 0.4047 0.85718 0.41542 0.0
H456 H 0.47675 0.8525 0.34015 0.0
H457 H 0.43329 0.8365 0.36546 0.0
H458 H 0.47296 0.97642 0.15059 0.0
H459 H 0.42973 0.96086 0.17733 0.0
H460 H 0.52059 0.9935 0.20647 0.0
H461 H 0.54412 0.97388 0.23609 0.0
C462 C 0.55292 0.45213 0.82782 0.0
C463 C 0.5599 0.48016 0.77971 0.0
C464 C 0.50288 0.44392 0.72182 0.0
C465 C 0.49378 0.41833 0.77712 0.0
N466 N 0.50855 0.40032 0.88979 0.0
N467 N 0.53803 0.50512 0.69055 0.0
C468 C 0.51841 0.42284 0.8319 0.0
C469 C 0.53405 0.47671 0.7289 0.0
N470 N 0.5794 0.45299 0.86811 0.0
N471 N 0.48212 0.43664 0.66163 0.0
H472 H 0.5594 0.5303 0.69674 0.0
H473 H 0.51821 0.50447 0.65847 0.0
H474 H 0.45973 0.41231 0.6533 0.0
H475 H 0.48926 0.45324 0.61656 0.0
H476 H 0.57646 0.43173 0.89867 0.0
H477 H 0.60521 0.47358 0.86513 0.0
H478 H 0.52441 0.40477 0.93521 0.0
H479 H 0.48344 0.37879 0.89563 0.0
C480 C 0.16721 0.38212 0.32418 0.0
C481 C 0.15212 0.38258 0.25619 0.0
C482 C 0.19946 0.38033 0.19162 0.0
C483 C 0.21357 0.37811 0.25959 0.0
N484 N 0.20754 0.36967 0.38961 0.0
N485 N 0.14928 0.37484 0.12593 0.0
C486 C 0.19642 0.37684 0.32568 0.0
C487 C 0.1669 0.37953 0.19003 0.0
N488 N 0.15465 0.38833 0.38705 0.0
N489 N 0.21791 0.38478 0.12888 0.0
H490 H 0.12525 0.37396 0.12278 0.0
H491 H 0.1568 0.36867 0.07699 0.0
H492 H 0.24184 0.38541 0.12761 0.0
H493 H 0.21093 0.39063 0.07881 0.0
H494 H 0.16703 0.39227 0.4373 0.0
H495 H 0.13333 0.39241 0.38832 0.0
H496 H 0.19391 0.36473 0.43847 0.0
H497 H 0.22879 0.3655 0.39259 0.0
C498 C 0.82749 0.20514 0.66291 0.0
C499 C 0.84717 0.21736 0.72816 0.0
C500 C 0.80353 0.16479 0.79275 0.0
C501 C 0.7818 0.15512 0.73021 0.0
N502 N 0.77168 0.16584 0.60612 0.0
N503 N 0.85302 0.21108 0.85726 0.0
C504 C 0.79343 0.17519 0.66523 0.0
C505 C 0.83524 0.19757 0.79354 0.0
N506 N 0.84193 0.22162 0.59841 0.0
N507 N 0.79372 0.14273 0.85148 0.0
H508 H 0.87623 0.23509 0.86043 0.0
H509 H 0.84349 0.19987 0.90811 0.0
H510 H 0.77005 0.11911 0.85388 0.0
H511 H 0.81012 0.14644 0.8955 0.0
H512 H 0.8305 0.21206 0.5478 0.0
H513 H 0.86705 0.24338 0.59478 0.0
H514 H 0.7768 0.18166 0.56036 0.0
H515 H 0.74737 0.14288 0.60419 0.0
C516 C 0.60369 0.79053 0.28301 0.0
C517 C 0.60295 0.7724 0.21873 0.0
C518 C 0.60211 0.81815 0.144 0.0
C519 C 0.60623 0.83776 0.20804 0.0
N520 N 0.61664 0.84573 0.33752 0.0
N521 N 0.60565 0.77034 0.08774 0.0
C522 C 0.60851 0.82479 0.27738 0.0
C523 C 0.60317 0.78651 0.14903 0.0
N524 N 0.59849 0.77447 0.34934 0.0
N525 N 0.59603 0.8292 0.07879 0.0
H526 H 0.60583 0.74681 0.08914 0.0
H527 H 0.61011 0.78144 0.03597 0.0
H528 H 0.59527 0.85237 0.07301 0.0
H529 H 0.58898 0.81417 0.03154 0.0
H530 H 0.59491 0.78482 0.39732 0.0
H531 H 0.59445 0.74918 0.3557 0.0
H532 H 0.62252 0.83918 0.38804 0.0
H533 H 0.62059 0.87112 0.33573 0.0
C534 C 0.80072 0.59315 0.65905 0.0
C535 C 0.82224 0.60336 0.72202 0.0
C536 C 0.77946 0.61247 0.78871 0.0
C537 C 0.75902 0.6044 0.72438 0.0
N538 N 0.75253 0.59308 0.59525 0.0
N539 N 0.8352 0.62719 0.84357 0.0
C540 C 0.77021 0.59626 0.65865 0.0
C541 C 0.81261 0.61453 0.78584 0.0
N542 N 0.80938 0.58031 0.5998 0.0
N543 N 0.76642 0.61648 0.85326 0.0
H544 H 0.85898 0.62749 0.84493 0.0
H545 H 0.83156 0.63955 0.88817 0.0
H546 H 0.74211 0.61489 0.85772 0.0
H547 H 0.77826 0.61853 0.90348 0.0
H548 H 0.79271 0.56853 0.5557 0.0
H549 H 0.8325 0.57938 0.59646 0.0
H550 H 0.76146 0.59096 0.54415 0.0
H551 H 0.73026 0.59557 0.59269 0.0
C552 C 0.21062 0.80905 0.21943 0.0
C553 C 0.22035 0.82965 0.28359 0.0
C554 C 0.16805 0.78414 0.34553 0.0
C555 C 0.16079 0.76194 0.28431 0.0
N556 N 0.17907 0.75077 0.16831 0.0
N557 N 0.21158 0.83476 0.41179 0.0
C558 C 0.18309 0.77371 0.22254 0.0
C559 C 0.1999 0.81674 0.34782 0.0
N560 N 0.22691 0.82358 0.15489 0.0
N561 N 0.14403 0.77468 0.40033 0.0
H562 H 0.23493 0.85857 0.41611 0.0
H563 H 0.19969 0.82463 0.46186 0.0
H564 H 0.12024 0.75115 0.40036 0.0
H565 H 0.14625 0.79151 0.44235 0.0
H566 H 0.21842 0.8108 0.10505 0.0
H567 H 0.24665 0.84973 0.14997 0.0
H568 H 0.19691 0.75715 0.12588 0.0
H569 H 0.15995 0.72429 0.16943 0.0
C570 C 0.37404 0.19953 0.83326 0.0
C571 C 0.36578 0.21099 0.76782 0.0
C572 C 0.35725 0.15825 0.70494 0.0
C573 C 0.36956 0.14905 0.7679 0.0
N574 N 0.39164 0.16125 0.89098 0.0
N575 N 0.35277 0.20368 0.63928 0.0
C576 C 0.37853 0.16981 0.83183 0.0
C577 C 0.35785 0.19082 0.70317 0.0
N578 N 0.37614 0.21627 0.89732 0.0
N579 N 0.34511 0.13591 0.64682 0.0
H580 H 0.35304 0.22743 0.6357 0.0
H581 H 0.35087 0.19223 0.58871 0.0
H582 H 0.34576 0.11259 0.64481 0.0
H583 H 0.33213 0.13913 0.60273 0.0
H584 H 0.37846 0.2071 0.94811 0.0
H585 H 0.37232 0.23775 0.90065 0.0
H586 H 0.40279 0.17766 0.93568 0.0
H587 H 0.39324 0.13846 0.89389 0.0
loop_
_geom_bond_atom_site_label_1
_geom_bond_atom_site_label_2
_geom_bond_distance
_geom_bond_site_symmetry_2
_ccdc_geom_bond_type
C0 O1 1.160 . S
C0 O7 1.185 . S
O1 C0 1.160 . S
O2 Zn3 1.899 . S
O2 C10 1.284 . S
Zn3 O2 1.899 . S
Zn3 O4 2.032 . S
Zn3 O7 2.086 . S
Zn3 O12 1.977 . S
O4 Zn3 2.032 . S
O4 C8 1.278 . S
C5 O6 1.203 . S
C5 O12 1.267 . S
O6 C5 1.203 . S
O7 C0 1.185 . S
O7 Zn3 2.086 . S
C8 O4 1.278 . S
C8 O9 1.211 . S
O9 C8 1.211 . S
C10 O2 1.284 . S
C10 O11 1.273 . S
O11 C10 1.273 . S
O12 Zn3 1.977 . S
O12 C5 1.267 . S
C13 O14 1.160 . S
C13 O20 1.185 . S
O14 C13 1.160 . S
O15 Zn16 1.899 . S
O15 C23 1.284 . S
Zn16 O15 1.899 . S
Zn16 O17 2.032 . S
Zn16 O20 2.086 . S
Zn16 O25 1.977 . S
O17 Zn16 2.032 . S
O17 C21 1.278 . S
C18 O19 1.203 . S
C18 O25 1.267 . S
O19 C18 1.203 . S
O20 C13 1.185 . S
O20 Zn16 2.086 . S
C21 O17 1.278 . S
C21 O22 1.211 . S
O22 C21 1.211 . S
C23 O15 1.284 . S
C23 O24 1.273 . S
O24 C23 1.273 . S
O25 Zn16 1.977 . S
O25 C18 1.267 . S
C26 O27 1.160 . S
C26 O33 1.185 . S
O27 C26 1.160 . S
O28 Zn29 1.899 . S
O28 C36 1.284 . S
Zn29 O28 1.899 . S
Zn29 O30 2.032 . S
Zn29 O33 2.086 . S
Zn29 O38 1.977 . S
O30 Zn29 2.032 . S
O30 C34 1.278 . S
C31 O32 1.203 . S
C31 O38 1.267 . S
O32 C31 1.203 . S
O33 C26 1.185 . S
O33 Zn29 2.086 . S
C34 O30 1.278 . S
C34 O35 1.211 . S
O35 C34 1.211 . S
C36 O28 1.284 . S
C36 O37 1.273 . S
O37 C36 1.273 . S
O38 Zn29 1.977 . S
O38 C31 1.267 . S
C39 O40 1.160 . S
C39 O46 1.185 . S
O40 C39 1.160 . S
O41 Zn42 1.899 . S
O41 C49 1.284 . S
Zn42 O41 1.899 . S
Zn42 O43 2.032 . S
Zn42 O46 2.086 . S
Zn42 O51 1.977 . S
O43 Zn42 2.032 . S
O43 C47 1.278 . S
C44 O45 1.203 . S
C44 O51 1.267 . S
O45 C44 1.203 . S
O46 C39 1.185 . S
O46 Zn42 2.086 . S
C47 O43 1.278 . S
C47 O48 1.211 . S
O48 C47 1.211 . S
C49 O41 1.284 . S
C49 O50 1.273 . S
O50 C49 1.273 . S
O51 Zn42 1.977 . S
O51 C44 1.267 . S
C52 O53 1.160 . S
C52 O59 1.185 . S
O53 C52 1.160 . S
O54 Zn55 1.899 . S
O54 C62 1.284 . S
Zn55 O54 1.899 . S
Zn55 O56 2.032 . S
Zn55 O59 2.086 . S
Zn55 O64 1.977 . S
O56 Zn55 2.032 . S
O56 C60 1.278 . S
C57 O58 1.203 . S
C57 O64 1.267 . S
O58 C57 1.203 . S
O59 C52 1.185 . S
O59 Zn55 2.086 . S
C60 O56 1.278 . S
C60 O61 1.211 . S
O61 C60 1.211 . S
C62 O54 1.284 . S
C62 O63 1.273 . S
O63 C62 1.273 . S
O64 Zn55 1.977 . S
O64 C57 1.267 . S
C65 O66 1.160 . S
C65 O72 1.185 . S
O66 C65 1.160 . S
O67 Zn68 1.899 . S
O67 C75 1.284 . S
Zn68 O67 1.899 . S
Zn68 O69 2.032 . S
Zn68 O72 2.086 . S
Zn68 O77 1.977 . S
O69 Zn68 2.032 . S
O69 C73 1.278 . S
C70 O71 1.203 . S
C70 O77 1.267 . S
O71 C70 1.203 . S
O72 C65 1.185 . S
O72 Zn68 2.086 . S
C73 O69 1.278 . S
C73 O74 1.211 . S
O74 C73 1.211 . S
C75 O67 1.284 . S
C75 O76 1.273 . S
O76 C75 1.273 . S
O77 Zn68 1.977 . S
O77 C70 1.267 . S
C78 O79 1.160 . S
C78 O85 1.185 . S
O79 C78 1.160 . S
O80 Zn81 1.899 . S
O80 C88 1.284 . S
Zn81 O80 1.899 . S
Zn81 O82 2.032 . S
Zn81 O85 2.086 . S
Zn81 O90 1.977 . S
O82 Zn81 2.032 . S
O82 C86 1.278 . S
C83 O84 1.203 . S
C83 O90 1.267 . S
O84 C83 1.203 . S
O85 C78 1.185 . S
O85 Zn81 2.086 . S
C86 O82 1.278 . S
C86 O87 1.211 . S
O87 C86 1.211 . S
C88 O80 1.284 . S
C88 O89 1.273 . S
O89 C88 1.273 . S
O90 Zn81 1.977 . S
O90 C83 1.267 . S
C91 O92 1.160 . S
C91 O98 1.185 . S
O92 C91 1.160 . S
O93 Zn94 1.899 . S
O93 C101 1.284 . S
Zn94 O93 1.899 . S
Zn94 O95 2.032 . S
Zn94 O98 2.086 . S
Zn94 O103 1.977 . S
O95 Zn94 2.032 . S
O95 C99 1.278 . S
C96 O97 1.203 . S
C96 O103 1.267 . S
O97 C96 1.203 . S
O98 C91 1.185 . S
O98 Zn94 2.086 . S
C99 O95 1.278 . S
C99 O100 1.211 . S
O100 C99 1.211 . S
C101 O93 1.284 . S
C101 O102 1.273 . S
O102 C101 1.273 . S
O103 Zn94 1.977 . S
O103 C96 1.267 . S
C104 O105 1.160 . S
C104 O111 1.185 . S
O105 C104 1.160 . S
O106 Zn107 1.899 . S
O106 C114 1.284 . S
Zn107 O106 1.899 . S
Zn107 O108 2.032 . S
Zn107 O111 2.086 . S
Zn107 O116 1.977 . S
O108 Zn107 2.032 . S
O108 C112 1.278 . S
C109 O110 1.203 . S
C109 O116 1.267 . S
O110 C109 1.203 . S
O111 C104 1.185 . S
O111 Zn107 2.086 . S
C112 O108 1.278 . S
C112 O113 1.211 . S
O113 C112 1.211 . S
C114 O106 1.284 . S
C114 O115 1.273 . S
O115 C114 1.273 . S
O116 Zn107 1.977 . S
O116 C109 1.267 . S
C117 O118 1.160 . S
C117 O124 1.185 . S
O118 C117 1.160 . S
O119 Zn120 1.899 . S
O119 C127 1.284 . S
Zn120 O119 1.899 . S
Zn120 O121 2.032 . S
Zn120 O124 2.086 . S
Zn120 O129 1.977 . S
O121 Zn120 2.032 . S
O121 C125 1.278 . S
C122 O123 1.203 . S
C122 O129 1.267 . S
O123 C122 1.203 . S
O124 C117 1.185 . S
O124 Zn120 2.086 . S
C125 O121 1.278 . S
C125 O126 1.211 . S
O126 C125 1.211 . S
C127 O119 1.284 . S
C127 O128 1.273 . S
O128 C127 1.273 . S
O129 Zn120 1.977 . S
O129 C122 1.267 . S
C130 O131 1.160 . S
C130 O137 1.185 . S
O131 C130 1.160 . S
O132 Zn133 1.899 . S
O132 C140 1.284 . S
Zn133 O132 1.899 . S
Zn133 O134 2.032 . S
Zn133 O137 2.086 . S
Zn133 O142 1.977 . S
O134 Zn133 2.032 . S
O134 C138 1.278 . S
C135 O136 1.203 . S
C135 O142 1.267 . S
O136 C135 1.203 . S
O137 C130 1.185 . S
O137 Zn133 2.086 . S
C138 O134 1.278 . S
C138 O139 1.211 . S
O139 C138 1.211 . S
C140 O132 1.284 . S
C140 O141 1.273 . S
O141 C140 1.273 . S
O142 Zn133 1.977 . S
O142 C135 1.267 . S
C143 O144 1.160 . S
C143 O150 1.185 . S
O144 C143 1.160 . S
O145 Zn146 1.899 . S
O145 C153 1.284 . S
Zn146 O145 1.899 . S
Zn146 O147 2.032 . S
Zn146 O150 2.086 . S
Zn146 O155 1.977 . S
O147 Zn146 2.032 . S
O147 C151 1.278 . S
C148 O149 1.203 . S
C148 O155 1.267 . S
O149 C148 1.203 . S
O150 C143 1.185 . S
O150 Zn146 2.086 . S
C151 O147 1.278 . S
C151 O152 1.211 . S
O152 C151 1.211 . S
C153 O145 1.284 . S
C153 O154 1.273 . S
O154 C153 1.273 . S
O155 Zn146 1.977 . S
O155 C148 1.267 . S
C156 C157 1.363 . S
C156 C162 1.379 1_554 S
C156 N164 1.356 . S
C157 C156 1.363 . S
C157 C163 1.363 1_455 S
C158 C159 1.363 . S
C158 C163 1.379 1_556 S
C158 N165 1.356 . S
C159 C158 1.363 . S
C159 C162 1.363 1_655 S
N160 C162 1.356 . S
N160 H172 0.984 . S
N160 H173 0.985 1_455 S
N161 C163 1.356 . S
N161 H166 0.984 1_655 S
N161 H167 0.985 . S
C162 C156 1.379 1_556 S
C162 C159 1.363 1_455 S
C162 N160 1.356 . S
C163 C157 1.363 1_655 S
C163 C158 1.379 1_554 S
C163 N161 1.356 . S
N164 C156 1.356 . S
N164 H170 0.984 . S
N164 H171 0.984 . S
N165 C158 1.356 . S
N165 H168 0.984 . S
N165 H169 0.985 . S
H166 N161 0.984 1_455 S
H167 N161 0.985 . S
H168 N165 0.984 . S
H169 N165 0.985 . S
H170 N164 0.984 . S
H171 N164 0.984 . S
H172 N160 0.984 . S
H173 N160 0.985 1_655 S
C174 C175 1.363 . S
C174 C180 1.379 . S
C174 N182 1.356 . S
C175 C174 1.363 . S
C175 C181 1.363 1_565 S
C176 C177 1.363 . S
C176 C181 1.379 . S
C176 N183 1.356 . S
C177 C176 1.363 . S
C177 C180 1.363 1_545 S
N178 C180 1.356 . S
N178 H190 0.984 . S
N178 H191 0.985 . S
N179 C181 1.356 . S
N179 H184 0.984 . S
N179 H185 0.985 . S
C180 C174 1.379 . S
C180 C177 1.363 1_565 S
C180 N178 1.356 . S
C181 C175 1.363 1_545 S
C181 C176 1.379 . S
C181 N179 1.356 . S
N182 C174 1.356 . S
N182 H188 0.984 . S
N182 H189 0.984 . S
N183 C176 1.356 . S
N183 H186 0.984 . S
N183 H187 0.985 . S
H184 N179 0.984 . S
H185 N179 0.985 . S
H186 N183 0.984 . S
H187 N183 0.985 . S
H188 N182 0.984 . S
H189 N182 0.984 . S
H190 N178 0.984 . S
H191 N178 0.985 . S
C192 C193 1.363 . S
C192 C198 1.379 1_554 S
C192 N200 1.356 . S
C193 C192 1.363 . S
C193 C199 1.363 . S
C194 C195 1.363 . S
C194 C199 1.379 1_556 S
C194 N201 1.356 . S
C195 C194 1.363 . S
C195 C198 1.363 . S
N196 C198 1.356 . S
N196 H208 0.984 . S
N196 H209 0.985 . S
N197 C199 1.356 . S
N197 H202 0.984 . S
N197 H203 0.985 . S
C198 C192 1.379 1_556 S
C198 C195 1.363 . S
C198 N196 1.356 . S
C199 C193 1.363 . S
C199 C194 1.379 1_554 S
C199 N197 1.356 . S
N200 C192 1.356 . S
N200 H206 0.984 . S
N200 H207 0.984 . S
N201 C194 1.356 . S
N201 H204 0.984 . S
N201 H205 0.985 . S
H202 N197 0.984 . S
H203 N197 0.985 . S
H204 N201 0.984 . S
H205 N201 0.985 . S
H206 N200 0.984 . S
H207 N200 0.984 . S
H208 N196 0.984 . S
H209 N196 0.985 . S
C210 C211 1.363 1_655 S
C210 C216 1.379 . S
C210 N218 1.356 . S
C211 C210 1.363 1_455 S
C211 C217 1.363 . S
C212 C213 1.363 1_455 S
C212 C217 1.379 . S
C212 N219 1.356 . S
C213 C212 1.363 1_655 S
C213 C216 1.363 . S
N214 C216 1.356 . S
N214 H226 0.984 . S
N214 H227 0.985 . S
N215 C217 1.356 . S
N215 H220 0.984 . S
N215 H221 0.985 . S
C216 C210 1.379 . S
C216 C213 1.363 . S
C216 N214 1.356 . S
C217 C211 1.363 . S
C217 C212 1.379 . S
C217 N215 1.356 . S
N218 C210 1.356 . S
N218 H224 0.984 . S
N218 H225 0.984 . S
N219 C212 1.356 . S
N219 H222 0.984 . S
N219 H223 0.985 . S
H220 N215 0.984 . S
H221 N215 0.985 . S
H222 N219 0.984 . S
H223 N219 0.985 . S
H224 N218 0.984 . S
H225 N218 0.984 . S
H226 N214 0.984 . S
H227 N214 0.985 . S
C228 C229 1.363 1_565 S
C228 C234 1.379 1_556 S
C228 N236 1.356 . S
C229 C228 1.363 1_545 S
C229 C235 1.363 . S
C230 C231 1.363 1_545 S
C230 C235 1.379 1_554 S
C230 N237 1.356 . S
C231 C230 1.363 1_565 S
C231 C234 1.363 . S
N232 C234 1.356 . S
N232 H244 0.984 . S
N232 H245 0.985 . S
N233 C235 1.356 . S
N233 H238 0.984 . S
N233 H239 0.985 . S
C234 C228 1.379 1_554 S
C234 C231 1.363 . S
C234 N232 1.356 . S
C235 C229 1.363 . S
C235 C230 1.379 1_556 S
C235 N233 1.356 . S
N236 C228 1.356 . S
N236 H242 0.984 . S
N236 H243 0.984 . S
N237 C230 1.356 . S
N237 H240 0.984 . S
N237 H241 0.985 . S
H238 N233 0.984 . S
H239 N233 0.985 . S
H240 N237 0.984 . S
H241 N237 0.985 . S
H242 N236 0.984 . S
H243 N236 0.984 . S
H244 N232 0.984 . S
H245 N232 0.985 . S
C246 C247 1.363 . S
C246 C252 1.379 . S
C246 N254 1.356 . S
C247 C246 1.363 . S
C247 C253 1.363 . S
C248 C249 1.363 . S
C248 C253 1.379 . S
C248 N255 1.356 . S
C249 C248 1.363 . S
C249 C252 1.363 . S
N250 C252 1.356 . S
N250 H262 0.984 . S
N250 H263 0.985 . S
N251 C253 1.356 . S
N251 H256 0.984 . S
N251 H257 0.985 . S
C252 C246 1.379 . S
C252 C249 1.363 . S
C252 N250 1.356 . S
C253 C247 1.363 . S
C253 C248 1.379 . S
C253 N251 1.356 . S
N254 C246 1.356 . S
N254 H260 0.984 . S
N254 H261 0.984 . S
N255 C248 1.356 . S
N255 H258 0.984 . S
N255 H259 0.985 . S
H256 N251 0.984 . S
H257 N251 0.985 . S
H258 N255 0.984 . S
H259 N255 0.985 . S
H260 N254 0.984 . S
H261 N254 0.984 . S
H262 N250 0.984 . S
H263 N250 0.985 . S
C264 C265 1.363 1_455 S
C264 C270 1.379 1_556 S
C264 N272 1.356 . S
C265 C264 1.363 1_655 S
C265 C271 1.363 . S
C266 C267 1.363 1_655 S
C266 C271 1.379 1_554 S
C266 N273 1.356 . S
C267 C266 1.363 1_455 S
C267 C270 1.363 . S
N268 C270 1.356 . S
N268 H280 0.984 1_554 S
N268 H281 0.985 . S
N269 C271 1.356 . S
N269 H274 0.984 . S
N269 H275 0.985 1_556 S
C270 C264 1.379 1_554 S
C270 C267 1.363 . S
C270 N268 1.356 . S
C271 C265 1.363 . S
C271 C266 1.379 1_556 S
C271 N269 1.356 . S
N272 C264 1.356 . S
N272 H278 0.984 . S
N272 H279 0.984 . S
N273 C266 1.356 . S
N273 H276 0.984 . S
N273 H277 0.985 . S
H274 N269 0.984 . S
H275 N269 0.985 1_554 S
H276 N273 0.984 . S
H277 N273 0.985 . S
H278 N272 0.984 . S
H279 N272 0.984 . S
H280 N268 0.984 1_556 S
H281 N268 0.985 . S
C282 C283 1.363 1_545 S
C282 C288 1.379 . S
C282 N290 1.356 . S
C283 C282 1.363 1_565 S
C283 C289 1.363 . S
C284 C285 1.363 1_565 S
C284 C289 1.379 . S
C284 N291 1.356 . S
C285 C284 1.363 1_545 S
C285 C288 1.363 . S
N286 C288 1.356 . S
N286 H298 0.984 . S
N286 H299 0.985 . S
N287 C289 1.356 . S
N287 H292 0.984 . S
N287 H293 0.985 . S
C288 C282 1.379 . S
C288 C285 1.363 . S
C288 N286 1.356 . S
C289 C283 1.363 . S
C289 C284 1.379 . S
C289 N287 1.356 . S
N290 C282 1.356 . S
N290 H296 0.984 . S
N290 H297 0.984 1_545 S
N291 C284 1.356 . S
N291 H294 0.984 1_565 S
N291 H295 0.985 . S
H292 N287 0.984 . S
H293 N287 0.985 . S
H294 N291 0.984 1_545 S
H295 N291 0.985 . S
H296 N290 0.984 . S
H297 N290 0.984 1_565 S
H298 N286 0.984 . S
H299 N286 0.985 . S
C300 C301 1.363 . S
C300 C306 1.379 1_556 S
C300 N308 1.356 . S
C301 C300 1.363 . S
C301 C307 1.363 . S
C302 C303 1.363 . S
C302 C307 1.379 1_554 S
C302 N309 1.356 . S
C303 C302 1.363 . S
C303 C306 1.363 . S
N304 C306 1.356 . S
N304 H316 0.984 . S
N304 H317 0.985 . S
N305 C307 1.356 . S
N305 H310 0.984 . S
N305 H311 0.985 . S
C306 C300 1.379 1_554 S
C306 C303 1.363 . S
C306 N304 1.356 . S
C307 C301 1.363 . S
C307 C302 1.379 1_556 S
C307 N305 1.356 . S
N308 C300 1.356 . S
N308 H314 0.984 . S
N308 H315 0.984 . S
N309 C302 1.356 . S
N309 H312 0.984 . S
N309 H313 0.985 . S
H310 N305 0.984 . S
H311 N305 0.985 . S
H312 N309 0.984 . S
H313 N309 0.985 . S
H314 N308 0.984 . S
H315 N308 0.984 . S
H316 N304 0.984 . S
H317 N304 0.985 . S
C318 C319 1.363 . S
C318 C324 1.379 . S
C318 N326 1.356 . S
C319 C318 1.363 . S
C319 C325 1.363 1_655 S
C320 C321 1.363 . S
C320 C325 1.379 . S
C320 N327 1.356 . S
C321 C320 1.363 . S
C321 C324 1.363 1_455 S
N322 C324 1.355 1_455 S
N322 H334 0.985 1_455 S
N322 H335 0.985 . S
N323 C325 1.356 1_655 S
N323 H328 0.985 . S
N323 H329 0.985 1_655 S
C324 C318 1.379 . S
C324 C321 1.363 1_655 S
C324 N322 1.355 1_655 S
C325 C319 1.363 1_455 S
C325 C320 1.379 . S
C325 N323 1.356 1_455 S
N326 C318 1.356 . S
N326 H332 0.984 . S
N326 H333 0.984 . S
N327 C320 1.356 . S
N327 H330 0.984 . S
N327 H331 0.985 . S
H328 N323 0.985 . S
H329 N323 0.985 1_455 S
H330 N327 0.984 . S
H331 N327 0.985 . S
H332 N326 0.984 . S
H333 N326 0.984 . S
H334 N322 0.985 1_655 S
H335 N322 0.985 . S
C336 C337 1.363 1_565 S
C336 C342 1.379 1_556 S
C336 N344 1.356 . S
C337 C336 1.363 1_545 S
C337 C343 1.363 . S
C338 C339 1.363 1_545 S
C338 C343 1.379 1_554 S
C338 N345 1.356 . S
C339 C338 1.363 1_565 S
C339 C342 1.363 . S
N340 C342 1.356 . S
N340 H352 0.984 . S
N340 H353 0.985 . S
N341 C343 1.356 . S
N341 H346 0.984 . S
N341 H347 0.985 . S
C342 C336 1.379 1_554 S
C342 C339 1.363 . S
C342 N340 1.356 . S
C343 C337 1.363 . S
C343 C338 1.379 1_556 S
C343 N341 1.356 . S
N344 C336 1.356 . S
N344 H350 0.984 . S
N344 H351 0.984 1_565 S
N345 C338 1.356 . S
N345 H348 0.984 1_545 S
N345 H349 0.985 . S
H346 N341 0.984 . S
H347 N341 0.985 . S
H348 N345 0.984 1_565 S
H349 N345 0.985 . S
H350 N344 0.984 . S
H351 N344 0.984 1_545 S
H352 N340 0.984 . S
H353 N340 0.985 . S
C354 C355 1.363 . S
C354 C360 1.379 . S
C354 N362 1.356 . S
C355 C354 1.363 . S
C355 C361 1.363 . S
C356 C357 1.363 . S
C356 C361 1.379 . S
C356 N363 1.356 . S
C357 C356 1.363 . S
C357 C360 1.363 . S
N358 C360 1.356 . S
N358 H370 0.984 . S
N358 H371 0.985 . S
N359 C361 1.356 . S
N359 H364 0.984 . S
N359 H365 0.985 . S
C360 C354 1.379 . S
C360 C357 1.363 . S
C360 N358 1.356 . S
C361 C355 1.363 . S
C361 C356 1.379 . S
C361 N359 1.356 . S
N362 C354 1.356 . S
N362 H368 0.984 . S
N362 H369 0.984 . S
N363 C356 1.356 . S
N363 H366 0.984 . S
N363 H367 0.985 . S
H364 N359 0.984 . S
H365 N359 0.985 . S
H366 N363 0.984 . S
H367 N363 0.985 . S
H368 N362 0.984 . S
H369 N362 0.984 . S
H370 N358 0.984 . S
H371 N358 0.985 . S
C372 C373 1.363 . S
C372 C378 1.379 . S
C372 N380 1.356 . S
C373 C372 1.363 . S
C373 C379 1.363 . S
C374 C375 1.363 . S
C374 C379 1.379 . S
C374 N381 1.356 . S
C375 C374 1.363 . S
C375 C378 1.363 . S
N376 C378 1.356 . S
N376 H388 0.984 . S
N376 H389 0.985 . S
N377 C379 1.356 . S
N377 H382 0.984 . S
N377 H383 0.985 . S
C378 C372 1.379 . S
C378 C375 1.363 . S
C378 N376 1.356 . S
C379 C373 1.363 . S
C379 C374 1.379 . S
C379 N377 1.356 . S
N380 C372 1.356 . S
N380 H386 0.984 . S
N380 H387 0.984 . S
N381 C374 1.356 . S
N381 H384 0.984 . S
N381 H385 0.985 . S
H382 N377 0.984 . S
H383 N377 0.985 . S
H384 N381 0.984 . S
H385 N381 0.985 . S
H386 N380 0.984 . S
H387 N380 0.984 . S
H388 N376 0.984 . S
H389 N376 0.985 . S
C390 C391 1.363 . S
C390 C396 1.379 . S
C390 N398 1.356 . S
C391 C390 1.363 . S
C391 C397 1.363 . S
C392 C393 1.363 . S
C392 C397 1.379 . S
C392 N399 1.356 . S
C393 C392 1.363 . S
C393 C396 1.363 . S
N394 C396 1.356 . S
N394 H406 0.984 . S
N394 H407 0.985 . S
N395 C397 1.356 . S
N395 H400 0.984 . S
N395 H401 0.985 . S
C396 C390 1.379 . S
C396 C393 1.363 . S
C396 N394 1.356 . S
C397 C391 1.363 . S
C397 C392 1.379 . S
C397 N395 1.356 . S
N398 C390 1.356 . S
N398 H404 0.984 . S
N398 H405 0.984 . S
N399 C392 1.356 . S
N399 H402 0.984 . S
N399 H403 0.985 . S
H400 N395 0.984 . S
H401 N395 0.985 . S
H402 N399 0.984 . S
H403 N399 0.985 . S
H404 N398 0.984 . S
H405 N398 0.984 . S
H406 N394 0.984 . S
H407 N394 0.985 . S
C408 C409 1.363 . S
C408 C414 1.379 . S
C408 N416 1.356 . S
C409 C408 1.363 . S
C409 C415 1.363 . S
C410 C411 1.363 . S
C410 C415 1.379 . S
C410 N417 1.356 . S
C411 C410 1.363 . S
C411 C414 1.363 . S
N412 C414 1.356 . S
N412 H424 0.984 . S
N412 H425 0.985 . S
N413 C415 1.356 . S
N413 H418 0.984 . S
N413 H419 0.985 . S
C414 C408 1.379 . S
C414 C411 1.363 . S
C414 N412 1.356 . S
C415 C409 1.363 . S
C415 C410 1.379 . S
C415 N413 1.356 . S
N416 C408 1.356 . S
N416 H422 0.984 . S
N416 H423 0.984 . S
N417 C410 1.356 . S
N417 H420 0.984 . S
N417 H421 0.985 . S
H418 N413 0.984 . S
H419 N413 0.985 . S
H420 N417 0.984 . S
H421 N417 0.985 . S
H422 N416 0.984 . S
H423 N416 0.984 . S
H424 N412 0.984 . S
H425 N412 0.985 . S
C426 C427 1.363 . S
C426 C432 1.379 . S
C426 N434 1.356 . S
C427 C426 1.363 . S
C427 C433 1.363 . S
C428 C429 1.363 . S
C428 C433 1.379 . S
C428 N435 1.356 . S
C429 C428 1.363 . S
C429 C432 1.363 . S
N430 C432 1.356 . S
N430 H442 0.984 . S
N430 H443 0.985 . S
N431 C433 1.356 . S
N431 H436 0.984 . S
N431 H437 0.985 . S
C432 C426 1.379 . S
C432 C429 1.363 . S
C432 N430 1.356 . S
C433 C427 1.363 . S
C433 C428 1.379 . S
C433 N431 1.356 . S
N434 C426 1.356 . S
N434 H440 0.984 . S
N434 H441 0.984 . S
N435 C428 1.356 . S
N435 H438 0.984 . S
N435 H439 0.985 . S
H436 N431 0.984 . S
H437 N431 0.985 . S
H438 N435 0.984 . S
H439 N435 0.985 . S
H440 N434 0.984 . S
H441 N434 0.984 . S
H442 N430 0.984 . S
H443 N430 0.985 . S
C444 C445 1.363 . S
C444 C450 1.379 . S
C444 N452 1.356 . S
C445 C444 1.363 . S
C445 C451 1.363 . S
C446 C447 1.363 . S
C446 C451 1.379 . S
C446 N453 1.356 . S
C447 C446 1.363 . S
C447 C450 1.363 . S
N448 C450 1.356 . S
N448 H460 0.984 . S
N448 H461 0.985 . S
N449 C451 1.356 . S
N449 H454 0.984 . S
N449 H455 0.985 . S
C450 C444 1.379 . S
C450 C447 1.363 . S
C450 N448 1.356 . S
C451 C445 1.363 . S
C451 C446 1.379 . S
C451 N449 1.356 . S
N452 C444 1.356 . S
N452 H458 0.984 . S
N452 H459 0.984 . S
N453 C446 1.356 . S
N453 H456 0.984 . S
N453 H457 0.985 . S
H454 N449 0.984 . S
H455 N449 0.985 . S
H456 N453 0.984 . S
H457 N453 0.985 . S
H458 N452 0.984 . S
H459 N452 0.984 . S
H460 N448 0.984 . S
H461 N448 0.985 . S
C462 C463 1.363 . S
C462 C468 1.379 . S
C462 N470 1.356 . S
C463 C462 1.363 . S
C463 C469 1.363 . S
C464 C465 1.363 . S
C464 C469 1.379 . S
C464 N471 1.356 . S
C465 C464 1.363 . S
C465 C468 1.363 . S
N466 C468 1.356 . S
N466 H478 0.984 . S
N466 H479 0.985 . S
N467 C469 1.356 . S
N467 H472 0.984 . S
N467 H473 0.985 . S
C468 C462 1.379 . S
C468 C465 1.363 . S
C468 N466 1.356 . S
C469 C463 1.363 . S
C469 C464 1.379 . S
C469 N467 1.356 . S
N470 C462 1.356 . S
N470 H476 0.984 . S
N470 H477 0.984 . S
N471 C464 1.356 . S
N471 H474 0.984 . S
N471 H475 0.985 . S
H472 N467 0.984 . S
H473 N467 0.985 . S
H474 N471 0.984 . S
H475 N471 0.985 . S
H476 N470 0.984 . S
H477 N470 0.984 . S
H478 N466 0.984 . S
H479 N466 0.985 . S
C480 C481 1.363 . S
C480 C486 1.379 . S
C480 N488 1.356 . S
C481 C480 1.363 . S
C481 C487 1.363 . S
C482 C483 1.363 . S
C482 C487 1.379 . S
C482 N489 1.356 . S
C483 C482 1.363 . S
C483 C486 1.363 . S
N484 C486 1.356 . S
N484 H496 0.984 . S
N484 H497 0.985 . S
N485 C487 1.356 . S
N485 H490 0.984 . S
N485 H491 0.985 . S
C486 C480 1.379 . S
C486 C483 1.363 . S
C486 N484 1.356 . S
C487 C481 1.363 . S
C487 C482 1.379 . S
C487 N485 1.356 . S
N488 C480 1.356 . S
N488 H494 0.984 . S
N488 H495 0.984 . S
N489 C482 1.356 . S
N489 H492 0.984 . S
N489 H493 0.985 . S
H490 N485 0.984 . S
H491 N485 0.985 . S
H492 N489 0.984 . S
H493 N489 0.985 . S
H494 N488 0.984 . S
H495 N488 0.984 . S
H496 N484 0.984 . S
H497 N484 0.985 . S
C498 C499 1.363 . S
C498 C504 1.379 . S
C498 N506 1.356 . S
C499 C498 1.363 . S
C499 C505 1.363 . S
C500 C501 1.363 . S
C500 C505 1.379 . S
C500 N507 1.356 . S
C501 C500 1.363 . S
C501 C504 1.363 . S
N502 C504 1.356 . S
N502 H514 0.984 . S
N502 H515 0.985 . S
N503 C505 1.356 . S
N503 H508 0.984 . S
N503 H509 0.985 . S
C504 C498 1.379 . S
C504 C501 1.363 . S
C504 N502 1.356 . S
C505 C499 1.363 . S
C505 C500 1.379 . S
C505 N503 1.356 . S
N506 C498 1.356 . S
N506 H512 0.984 . S
N506 H513 0.984 . S
N507 C500 1.356 . S
N507 H510 0.984 . S
N507 H511 0.985 . S
H508 N503 0.984 . S
H509 N503 0.985 . S
H510 N507 0.984 . S
H511 N507 0.985 . S
H512 N506 0.984 . S
H513 N506 0.984 . S
H514 N502 0.984 . S
H515 N502 0.985 . S
C516 C517 1.363 . S
C516 C522 1.379 . S
C516 N524 1.356 . S
C517 C516 1.363 . S
C517 C523 1.363 . S
C518 C519 1.363 . S
C518 C523 1.379 . S
C518 N525 1.356 . S
C519 C518 1.363 . S
C519 C522 1.363 . S
N520 C522 1.356 . S
N520 H532 0.984 . S
N520 H533 0.985 . S
N521 C523 1.356 . S
N521 H526 0.984 . S
N521 H527 0.985 . S
C522 C516 1.379 . S
C522 C519 1.363 . S
C522 N520 1.356 . S
C523 C517 1.363 . S
C523 C518 1.379 . S
C523 N521 1.356 . S
N524 C516 1.356 . S
N524 H530 0.984 . S
N524 H531 0.984 . S
N525 C518 1.356 . S
N525 H528 0.984 . S
N525 H529 0.985 . S
H526 N521 0.984 . S
H527 N521 0.985 . S
H528 N525 0.984 . S
H529 N525 0.985 . S
H530 N524 0.984 . S
H531 N524 0.984 . S
H532 N520 0.984 . S
H533 N520 0.985 . S
C534 C535 1.363 . S
C534 C540 1.379 . S
C534 N542 1.356 . S
C535 C534 1.363 . S
C535 C541 1.363 . S
C536 C537 1.363 . S
C536 C541 1.379 . S
C536 N543 1.356 . S
C537 C536 1.363 . S
C537 C540 1.363 . S
N538 C540 1.356 . S
N538 H550 0.984 . S
N538 H551 0.985 . S
N539 C541 1.356 . S
N539 H544 0.984 . S
N539 H545 0.985 . S
C540 C534 1.379 . S
C540 C537 1.363 . S
C540 N538 1.356 . S
C541 C535 1.363 . S
C541 C536 1.379 . S
C541 N539 1.356 . S
N542 C534 1.356 . S
N542 H548 0.984 . S
N542 H549 0.984 . S
N543 C536 1.356 . S
N543 H546 0.984 . S
N543 H547 0.985 . S
H544 N539 0.984 . S
H545 N539 0.985 . S
H546 N543 0.984 . S
H547 N543 0.985 . S
H548 N542 0.984 . S
H549 N542 0.984 . S
H550 N538 0.984 . S
H551 N538 0.985 . S
C552 C553 1.363 . S
C552 C558 1.379 . S
C552 N560 1.356 . S
C553 C552 1.363 . S
C553 C559 1.363 . S
C554 C555 1.363 . S
C554 C559 1.379 . S
C554 N561 1.356 . S
C555 C554 1.363 . S
C555 C558 1.363 . S
N556 C558 1.356 . S
N556 H568 0.984 . S
N556 H569 0.985 . S
N557 C559 1.356 . S
N557 H562 0.984 . S
N557 H563 0.985 . S
C558 C552 1.379 . S
C558 C555 1.363 . S
C558 N556 1.356 . S
C559 C553 1.363 . S
C559 C554 1.379 . S
C559 N557 1.356 . S
N560 C552 1.356 . S
N560 H566 0.984 . S
N560 H567 0.984 . S
N561 C554 1.356 . S
N561 H564 0.984 . S
N561 H565 0.985 . S
H562 N557 0.984 . S
H563 N557 0.985 . S
H564 N561 0.984 . S
H565 N561 0.985 . S
H566 N560 0.984 . S
H567 N560 0.984 . S
H568 N556 0.984 . S
H569 N556 0.985 . S
C570 C571 1.363 . S
C570 C576 1.379 . S
C570 N578 1.356 . S
C571 C570 1.363 . S
C571 C577 1.363 . S
C572 C573 1.363 . S
C572 C577 1.379 . S
C572 N579 1.356 . S
C573 C572 1.363 . S
C573 C576 1.363 . S
N574 C576 1.356 . S
N574 H586 0.984 . S
N574 H587 0.985 . S
N575 C577 1.356 . S
N575 H580 0.984 . S
N575 H581 0.985 . S
C576 C570 1.379 . S
C576 C573 1.363 . S
C576 N574 1.356 . S
C577 C571 1.363 . S
C577 C572 1.379 . S
C577 N575 1.356 . S
N578 C570 1.356 . S
N578 H584 0.984 . S
N578 H585 0.984 . S
N579 C572 1.356 . S
N579 H582 0.984 . S
N579 H583 0.985 . S
H580 N575 0.984 . S
H581 N575 0.985 . S
H582 N579 0.984 . S
H583 N579 0.985 . S
H584 N578 0.984 . S
H585 N578 0.984 . S
H586 N574 0.984 . S
H587 N574 0.985 . S
C157 C10 1.395 . S
C159 C153 1.395 . S
C175 C88 1.395 . S
C177 C23 1.395 . S
C193 C36 1.395 . S
C195 C101 1.395 . S
C211 C114 1.395 . S
C213 C49 1.395 . S
C229 C127 1.395 . S
C231 C62 1.395 . S
C247 C140 1.395 . S
C249 C75 1.395 . S
C265 C47 1.402 . S
C267 C112 1.402 . S
C283 C60 1.402 . S
C285 C125 1.402 . S
C301 C73 1.402 . S
C303 C138 1.402 . S
C319 C151 1.402 . S
C321 C8 1.402 . S
C337 C21 1.402 . S
C339 C86 1.402 . S
C355 C34 1.402 . S
C357 C99 1.402 . S
C373 C109 1.477 . S
C375 C5 1.477 . S
C391 C122 1.477 . S
C393 C18 1.477 . S
C409 C31 1.477 . S
C411 C135 1.477 . S
C427 C44 1.477 . S
C429 C148 1.477 . S
C445 C57 1.477 . S
C447 C83 1.477 . S
C463 C96 1.477 . S
C465 C70 1.477 . S
C481 C0 1.363 . S
C483 C130 1.363 . S
C499 C143 1.363 . S
C501 C13 1.363 . S
C517 C26 1.363 . S
C519 C78 1.363 . S
C535 C39 1.363 . S
C537 C91 1.363 . S
C553 C52 1.363 . S
C555 C104 1.363 . S
C571 C65 1.363 . S
C573 C117 1.363 . S
