# Generated by pormake.
# Topology rkf, (6)-cn, num edge types: 1
# Building blocks:
#     Node 0, Type 0, BuildingBlock: VOLQOD_clean_sbu_1, # of connection points: 6
#     Node 1, Type 0, BuildingBlock: VOLQOD_clean_sbu_1, # of connection points: 6
#     Node 2, Type 0, BuildingBlock: VOLQOD_clean_sbu_1, # of connection points: 6
#     Node 3, Type 0, BuildingBlock: VOLQOD_clean_sbu_1, # of connection points: 6
#     Node 4, Type 0, BuildingBlock: VOLQOD_clean_sbu_1, # of connection points: 6
#     Node 5, Type 0, BuildingBlock: VOLQOD_clean_sbu_1, # of connection points: 6
#     Edge 6, Type (0, 0), BuildingBlock: EZIPEK_clean_linker_0, # of connection points: 2
#     Edge 7, Type (0, 0), BuildingBlock: EZIPEK_clean_linker_0, # of connection points: 2
#     Edge 8, Type (0, 0), BuildingBlock: EZIPEK_clean_linker_0, # of connection points: 2
#     Edge 9, Type (0, 0), BuildingBlock: EZIPEK_clean_linker_0, # of connection points: 2
#     Edge 10, Type (0, 0), BuildingBlock: EZIPEK_clean_linker_0, # of connection points: 2
#     Edge 11, Type (0, 0), BuildingBlock: EZIPEK_clean_linker_0, # of connection points: 2
#     Edge 12, Type (0, 0), BuildingBlock: EZIPEK_clean_linker_0, # of connection points: 2
#     Edge 13, Type (0, 0), BuildingBlock: EZIPEK_clean_linker_0, # of connection points: 2
#     Edge 14, Type (0, 0), BuildingBlock: EZIPEK_clean_linker_0, # of connection points: 2
#     Edge 15, Type (0, 0), BuildingBlock: EZIPEK_clean_linker_0, # of connection points: 2
#     Edge 16, Type (0, 0), BuildingBlock: EZIPEK_clean_linker_0, # of connection points: 2
#     Edge 17, Type (0, 0), BuildingBlock: EZIPEK_clean_linker_0, # of connection points: 2
#     Edge 18, Type (0, 0), BuildingBlock: EZIPEK_clean_linker_0, # of connection points: 2
#     Edge 19, Type (0, 0), BuildingBlock: EZIPEK_clean_linker_0, # of connection points: 2
#     Edge 20, Type (0, 0), BuildingBlock: EZIPEK_clean_linker_0, # of connection points: 2
#     Edge 21, Type (0, 0), BuildingBlock: EZIPEK_clean_linker_0, # of connection points: 2
#     Edge 22, Type (0, 0), BuildingBlock: EZIPEK_clean_linker_0, # of connection points: 2
#     Edge 23, Type (0, 0), BuildingBlock: EZIPEK_clean_linker_0, # of connection points: 2
# Relax obj value: 0.814
# Max RMSD: 0.323
# Mean RMSD: 0.323
data_MOF--net-rkf--node1-VOLQOD_clean_sbu_1--edge1-EZIPEK_clean_linker_0
_symmetry_space_group_name_H-M    P1
_symmetry_Int_Tables_number       1
_symmetry_cell_setting            triclinic
loop_
_symmetry_equiv_pos_as_xyz
'x, y, z'
_cell_length_a     21.559962
_cell_length_b     21.613747
_cell_length_c     28.199392
_cell_angle_alpha  89.483031
_cell_angle_beta   90.231088
_cell_angle_gamma 120.23674
loop_
_atom_site_label
_atom_site_type_symbol
_atom_site_fract_x
_atom_site_fract_y
_atom_site_fract_z
_atom_type_partial_charge
O0 O 0.15329 0.04476 0.97634 0.0
Zn1 Zn 0.18568 0.98021 0.00169 0.0
O2 O 0.28214 0.04933 0.01769 0.0
Zn3 Zn 0.3482 0.07018 0.96819 0.0
Zn4 Zn 0.29594 0.14162 0.02934 0.0
Zn5 Zn 0.30351 0.00869 0.07019 0.0
O6 O 0.43122 0.06262 0.9956 0.0
O7 O 0.36651 0.9716 0.0462 0.0
O8 O 0.19233 0.9143 0.95237 0.0
O9 O 0.30493 0.98597 0.92983 0.0
O10 O 0.36032 0.1539 0.92357 0.0
O11 O 0.32546 0.20785 0.97292 0.0
O12 O 0.36899 0.18535 0.08075 0.0
O13 O 0.1263 0.92918 0.05995 0.0
O14 O 0.37333 0.091 0.10824 0.0
O15 O 0.2113 0.94076 0.10985 0.0
C16 C 0.16905 0.1044 0.99523 0.0
C17 C 0.42323 0.00973 0.02142 0.0
C18 C 0.34668 0.20404 0.93183 0.0
C19 C 0.24711 0.92652 0.92756 0.0
C20 C 0.39801 0.15819 0.10672 0.0
C21 C 0.14483 0.91797 0.10067 0.0
O22 O 0.19694 0.11944 0.03653 0.0
O23 O 0.22009 0.09749 0.30981 0.0
Zn24 Zn 0.30878 0.18699 0.32707 0.0
O25 O 0.29138 0.26483 0.33119 0.0
Zn26 Zn 0.31579 0.32017 0.27495 0.0
Zn27 Zn 0.19249 0.22154 0.34257 0.0
Zn28 Zn 0.35088 0.31987 0.38251 0.0
O29 O 0.36821 0.42494 0.29359 0.0
O30 O 0.42759 0.41785 0.35693 0.0
O31 O 0.3919 0.21709 0.28528 0.0
O32 O 0.39297 0.30637 0.2445 0.0
O33 O 0.2237 0.28718 0.23312 0.0
O34 O 0.13655 0.21594 0.28319 0.0
O35 O 0.1781 0.26938 0.39815 0.0
O36 O 0.3262 0.15796 0.39055 0.0
O37 O 0.29089 0.34157 0.42195 0.0
O38 O 0.37228 0.25766 0.43101 0.0
C39 C 0.18176 0.0796 0.3471 0.0
C40 C 0.41923 0.45424 0.32383 0.0
C41 C 0.15677 0.24454 0.24216 0.0
C42 C 0.42028 0.26718 0.25448 0.0
C43 C 0.22377 0.31377 0.42747 0.0
C44 C 0.35152 0.1907 0.42908 0.0
O45 O 0.16784 0.12467 0.36502 0.0
O46 O 0.03876 0.11848 0.74299 0.0
Zn47 Zn 0.10567 0.21467 0.71465 0.0
O48 O 0.04884 0.25686 0.71528 0.0
Zn49 Zn 0.06267 0.2986 0.65633 0.0
Zn50 Zn 0.94928 0.19205 0.71398 0.0
Zn51 Zn 0.07886 0.32063 0.76705 0.0
O52 O 0.0604 0.38625 0.66443 0.0
O53 O 0.10926 0.41899 0.737 0.0
O54 O 0.13994 0.2188 0.64816 0.0
O55 O 0.16091 0.32876 0.64364 0.0
O56 O -0.0008 0.22861 0.60343 0.0
O57 O 0.9115 0.14869 0.64735 0.0
O58 O 0.90185 0.23893 0.74601 0.0
O59 O 0.19478 0.26604 0.75294 0.0
O60 O 0.98569 0.29602 0.80116 0.0
O61 O 0.1551 0.30684 0.80938 0.0
C62 C 0.97509 0.08721 0.76054 0.0
C63 C 0.08854 0.43233 0.69733 0.0
C64 C 0.93912 0.17003 0.6062 0.0
C65 C 0.16691 0.2786 0.6262 0.0
C66 C 0.92174 0.2723 0.7853 0.0
C67 C 0.19881 0.28637 0.79528 0.0
O68 O 0.93357 0.11242 0.75534 0.0
O69 O 0.96955 0.17848 0.95779 0.0
Zn70 Zn 0.88513 0.13063 0.99931 0.0
O71 O 0.84509 0.02931 0.99357 0.0
Zn72 Zn 0.77374 0.99285 0.94564 0.0
Zn73 Zn 0.91481 0.00258 0.98229 0.0
Zn74 Zn 0.80916 0.99437 0.05468 0.0
O75 O 0.67819 0.95445 0.97883 0.0
O76 O 0.70847 0.97792 0.05545 0.0
O77 O 0.81726 0.15823 0.97182 0.0
O78 O 0.78372 0.08109 0.91219 0.0
O79 O 0.78595 0.92188 0.90039 0.0
O80 O 0.88296 0.92689 0.93093 0.0
O81 O 0.93342 0.97125 0.04716 0.0
O82 O 0.92795 0.16736 0.06485 0.0
O83 O 0.81852 0.9081 0.05854 0.0
O84 O 0.879 0.06463 0.10448 0.0
C85 C 0.01091 0.15552 0.94608 0.0
C86 C 0.66337 0.96178 0.02156 0.0
C87 C 0.83224 0.90097 0.90036 0.0
C88 C 0.79199 0.13919 0.9301 0.0
C89 C 0.88135 0.92805 0.07376 0.0
C90 C 0.92344 0.13181 0.1023 0.0
O91 O 0.99779 0.09236 0.95688 0.0
O92 O 0.00395 0.91167 0.37788 0.0
Zn93 Zn 0.92863 0.93475 0.36092 0.0
O94 O 0.8486 0.84273 0.35087 0.0
Zn95 Zn 0.81126 0.8479 0.29169 0.0
Zn96 Zn 0.874 0.76909 0.34335 0.0
Zn97 Zn 0.77987 0.8187 0.39938 0.0
O98 O 0.70575 0.77179 0.29192 0.0
O99 O 0.68204 0.76068 0.36953 0.0
O100 O 0.94675 0.98766 0.29703 0.0
O101 O 0.83276 0.94818 0.29084 0.0
O102 O 0.87507 0.83985 0.24053 0.0
O103 O 0.90664 0.76738 0.2751 0.0
O104 O 0.79852 0.68088 0.37713 0.0
O105 O 0.9146 0.98541 0.41773 0.0
O106 O 0.78745 0.74334 0.43555 0.0
O107 O 0.80435 0.9076 0.4427 0.0
C108 C 0.01249 0.85824 0.38666 0.0
C109 C 0.6627 0.7412 0.32673 0.0
C110 C 0.9096 0.80618 0.23974 0.0
C111 C 0.89513 0.98535 0.27314 0.0
C112 C 0.78657 0.68706 0.42079 0.0
C113 C 0.86271 0.96847 0.44661 0.0
O114 O 0.96334 0.79453 0.379 0.0
O115 O 0.05842 0.95859 0.63476 0.0
Zn116 Zn 0.99568 0.85591 0.64388 0.0
O117 O 0.07717 0.84695 0.65606 0.0
Zn118 Zn 0.10636 0.81605 0.6024 0.0
Zn119 Zn 0.16752 0.93449 0.67372 0.0
Zn120 Zn 0.03983 0.7727 0.70117 0.0
O121 O 0.13092 0.74294 0.62716 0.0
O122 O 0.03077 0.68708 0.67101 0.0
O123 O 0.9428 0.79319 0.58712 0.0
O124 O 0.01778 0.75636 0.56585 0.0
O125 O 0.18138 0.90464 0.56181 0.0
O126 O 0.23523 0.98404 0.61878 0.0
O127 O 0.2101 0.90542 0.72915 0.0
O128 O 0.93214 0.83467 0.70381 0.0
O129 O 0.11739 0.79744 0.74457 0.0
O130 O 0.95662 0.76143 0.74314 0.0
C131 C 0.0769 0.9912 0.67408 0.0
C132 C 0.08471 0.68861 0.65121 0.0
C133 C 0.22845 0.96797 0.575 0.0
C134 C 0.95778 0.75337 0.56193 0.0
C135 C 0.181 0.84641 0.75281 0.0
C136 C 0.92473 0.79752 0.741 0.0
O137 O 0.13692 0.00502 0.69168 0.0
C138 C 0.12895 0.24777 0.96374 0.0
C139 C 0.08215 0.20613 0.92755 0.0
C140 C 0.14841 0.14569 0.91603 0.0
C141 C 0.16842 0.16067 0.96464 0.0
N142 N 0.21772 0.25758 0.02144 0.0
N143 N 0.0791 0.15843 0.85194 0.0
C144 C 0.173 0.22326 0.98436 0.0
C145 C 0.10649 0.17312 0.89647 0.0
N146 N 0.12366 0.3035 0.98102 0.0
N147 N 0.16653 0.10393 0.8904 0.0
H148 H 0.04378 0.17536 0.84059 0.0
H149 H 0.09372 0.13346 0.82675 0.0
H150 H 0.20491 0.09157 0.90233 0.0
H151 H 0.14698 0.08503 0.85667 0.0
H152 H 0.1539 0.33536 0.00915 0.0
H153 H 0.08832 0.31756 0.96549 0.0
H154 H 0.22099 0.30186 0.0381 0.0
H155 H 0.25562 0.24459 0.03327 0.0
C156 C 0.13156 0.88787 0.36692 0.0
C157 C 0.08341 0.87386 0.40423 0.0
C158 C 0.13143 0.99635 0.42091 0.0
C159 C 0.16528 0.01333 0.37467 0.0
N160 N 0.23581 0.97953 0.32484 0.0
N161 N 0.08829 0.90828 0.48467 0.0
C162 C 0.17887 0.96078 0.35419 0.0
C163 C 0.10795 0.9268 0.43877 0.0
N164 N 0.12489 0.8324 0.34067 0.0
N165 N 0.10476 0.03454 0.44216 0.0
H166 H 0.06179 0.85466 0.49524 0.0
H167 H 0.1029 0.94643 0.51128 0.0
H168 H 0.09785 0.07373 0.42591 0.0
H169 H 0.07642 0.0181 0.47405 0.0
H170 H 0.15286 0.83931 0.30917 0.0
H171 H 0.08808 0.77956 0.35043 0.0
H172 H 0.24734 0.9421 0.31065 0.0
H173 H 0.27705 0.03241 0.3207 0.0
C174 C 0.02824 0.9734 0.75802 0.0
C175 C 0.01965 0.98012 0.70787 0.0
C176 C 0.90818 0.97664 0.72692 0.0
C177 C 0.941 0.0102 0.76933 0.0
N178 N 0.99498 0.99235 0.8374 0.0
N179 N 0.94084 0.98144 0.6451 0.0
C180 C 0.98737 0.9899 0.78947 0.0
C181 C 0.95464 0.97642 0.6918 0.0
N182 N 0.07221 0.94977 0.77475 0.0
N183 N 0.84026 0.96188 0.71738 0.0
H184 H 0.97611 0.99051 0.61742 0.0
H185 H 0.89605 0.98402 0.63441 0.0
H186 H 0.81116 0.97216 0.7425 0.0
H187 H 0.81289 0.9356 0.68667 0.0
H188 H 0.08464 0.94968 0.81041 0.0
H189 H 0.09032 0.92322 0.75316 0.0
H190 H 0.02795 0.9782 0.85581 0.0
H191 H 0.96639 0.00907 0.85837 0.0
C192 C 0.32174 0.21847 0.84569 0.0
C193 C 0.33617 0.2463 0.89199 0.0
C194 C 0.28286 0.32091 0.8683 0.0
C195 C 0.24971 0.2763 0.8282 0.0
N196 N 0.23087 0.16938 0.78589 0.0
N197 N 0.34586 0.3391 0.94344 0.0
C198 C 0.26826 0.22229 0.81822 0.0
C199 C 0.32144 0.30239 0.90204 0.0
N200 N 0.35859 0.18801 0.82766 0.0
N201 N 0.28076 0.38265 0.87304 0.0
H202 H 0.38355 0.33516 0.96462 0.0
H203 H 0.32865 0.37272 0.95676 0.0
H204 H 0.25802 0.40047 0.84763 0.0
H205 H 0.30812 0.42025 0.89934 0.0
H206 H 0.35273 0.17079 0.79264 0.0
H207 H 0.40236 0.19042 0.8453 0.0
H208 H 0.24051 0.1272 0.78081 0.0
H209 H 0.18306 0.15928 0.77014 0.0
C210 C 0.10661 0.19333 0.16056 0.0
C211 C 0.1003 0.22301 0.20396 0.0
C212 C 0.97557 0.18891 0.18218 0.0
C213 C 0.98393 0.16445 0.13755 0.0
N214 N 0.05906 0.14811 0.08212 0.0
N215 N 0.03327 0.26131 0.25158 0.0
C216 C 0.05035 0.16898 0.12602 0.0
C217 C 0.03584 0.22402 0.21349 0.0
N218 N 0.16372 0.18319 0.15375 0.0
N219 N 0.90955 0.17732 0.19513 0.0
H220 H 0.07698 0.29004 0.27405 0.0
H221 H 0.99074 0.26993 0.25815 0.0
H222 H 0.86517 0.15352 0.1726 0.0
H223 H 0.89745 0.18608 0.22925 0.0
H224 H 0.16846 0.15544 0.12541 0.0
H225 H 0.20404 0.19624 0.17871 0.0
H226 H 0.1075 0.15548 0.06977 0.0
H227 H 0.0186 0.12605 0.05666 0.0
C228 C 0.85205 0.04856 0.56726 0.0
C229 C 0.90603 0.12222 0.56221 0.0
C230 C 0.91077 0.0965 0.4767 0.0
C231 C 0.87263 0.02114 0.48583 0.0
N232 N 0.817 0.92741 0.54542 0.0
N233 N 0.97768 0.21773 0.50641 0.0
C234 C 0.84576 0.99768 0.53262 0.0
C235 C 0.93308 0.14649 0.51526 0.0
N236 N 0.80345 0.02684 0.60341 0.0
N237 N 0.92122 0.12081 0.43084 0.0
H238 H 0.98089 0.25759 0.52849 0.0
H239 H 0.01007 0.23697 0.47632 0.0
H240 H 0.90026 0.08672 0.40188 0.0
H241 H 0.94284 0.17451 0.42152 0.0
H242 H 0.76089 0.97436 0.60664 0.0
H243 H 0.79815 0.06274 0.62499 0.0
H244 H 0.80115 0.90917 0.58007 0.0
H245 H 0.81667 0.88892 0.52334 0.0
C246 C 0.80152 0.84023 0.81661 0.0
C247 C 0.83442 0.85157 0.8623 0.0
C248 C 0.91498 0.81137 0.83118 0.0
C249 C 0.88686 0.80517 0.78429 0.0
N250 N 0.78644 0.78934 0.73742 0.0
N251 N 0.889 0.80449 0.91504 0.0
C252 C 0.82484 0.81228 0.77859 0.0
C253 C 0.8802 0.82292 0.87012 0.0
N254 N 0.7471 0.85414 0.80941 0.0
N255 N 0.97777 0.81182 0.83932 0.0
H256 H 0.85944 0.80631 0.94367 0.0
H257 H 0.91736 0.77815 0.92237 0.0
H258 H 0.00976 0.80864 0.81318 0.0
H259 H 0.00292 0.82404 0.87236 0.0
H260 H 0.72753 0.85657 0.77609 0.0
H261 H 0.71892 0.86047 0.83692 0.0
H262 H 0.73779 0.7873 0.73157 0.0
H263 H 0.79962 0.7651 0.71055 0.0
C264 C 0.96047 0.79868 0.15968 0.0
C265 C 0.97061 0.83043 0.2049 0.0
C266 C 0.09622 0.91886 0.18297 0.0
C267 C 0.08766 0.88393 0.13875 0.0
N268 N 0.01518 0.78163 0.08953 0.0
N269 N 0.05051 0.91595 0.26202 0.0
C270 C 0.02061 0.82129 0.12844 0.0
C271 C 0.03956 0.88848 0.21733 0.0
N272 N 0.89293 0.74799 0.14605 0.0
N273 N 0.15605 0.98417 0.19089 0.0
H274 H 0.00987 0.89876 0.28721 0.0
H275 H 0.10059 0.95305 0.27522 0.0
H276 H 0.19652 0.01146 0.16598 0.0
H277 H 0.16319 0.01565 0.22036 0.0
H278 H 0.88002 0.72851 0.11163 0.0
H279 H 0.84855 0.72937 0.16847 0.0
H280 H 0.97028 0.73213 0.0822 0.0
H281 H 0.05849 0.79467 0.06709 0.0
C282 C 0.26959 0.09419 0.54466 0.0
C283 C 0.26889 0.02815 0.53929 0.0
C284 C 0.34251 0.07854 0.46681 0.0
C285 C 0.34263 0.14437 0.47254 0.0
N286 N 0.33272 0.22197 0.52931 0.0
N287 N 0.31838 0.96407 0.50041 0.0
C288 C 0.31507 0.15467 0.51552 0.0
C289 C 0.30931 0.0222 0.50173 0.0
N290 N 0.22327 0.09841 0.57563 0.0
N291 N 0.37485 0.07021 0.42779 0.0
H292 H 0.29603 0.92296 0.52562 0.0
H293 H 0.35252 0.95898 0.47683 0.0
H294 H 0.40817 0.11312 0.4056 0.0
H295 H 0.36793 0.02119 0.41703 0.0
H296 H 0.21792 0.14347 0.5786 0.0
H297 H 0.18383 0.05434 0.59417 0.0
H298 H 0.31777 0.23264 0.56196 0.0
H299 H 0.37106 0.26798 0.51185 0.0
C300 C 0.47265 0.92658 0.01315 0.0
C301 C 0.48319 0.99501 0.02518 0.0
C302 C 0.61115 0.03987 0.03819 0.0
C303 C 0.60012 0.97044 0.02865 0.0
N304 N 0.5194 0.84506 0.01536 0.0
N305 N 0.55855 0.11158 0.05949 0.0
C306 C 0.53037 0.91289 0.01875 0.0
C307 C 0.55124 0.05002 0.04086 0.0
N308 N 0.40876 0.87596 0.99409 0.0
N309 N 0.67916 0.09748 0.04184 0.0
H310 H 0.51644 0.12202 0.06166 0.0
H311 H 0.60472 0.14948 0.07692 0.0
H312 H 0.72542 0.09381 0.04086 0.0
H313 H 0.69024 0.15029 0.04197 0.0
H314 H 0.40047 0.82817 0.97974 0.0
H315 H 0.3654 0.88398 0.98895 0.0
H316 H 0.46877 0.79953 0.01278 0.0
H317 H 0.56086 0.83379 0.01945 0.0
C318 C 0.47704 0.58198 0.35242 0.0
C319 C 0.47289 0.53178 0.3187 0.0
C320 C 0.59019 0.61989 0.28732 0.0
C321 C 0.59362 0.67259 0.3191 0.0
N322 N 0.52905 0.70764 0.37192 0.0
N323 N 0.51228 0.51404 0.24269 0.0
C324 C 0.53334 0.65483 0.34859 0.0
C325 C 0.52456 0.55472 0.28209 0.0
N326 N 0.4276 0.56022 0.3881 0.0
N327 N 0.65032 0.62731 0.26575 0.0
H328 H 0.46497 0.46562 0.23737 0.0
H329 H 0.54613 0.53266 0.21321 0.0
H330 H 0.70226 0.66831 0.27275 0.0
H331 H 0.64962 0.58665 0.2457 0.0
H332 H 0.43248 0.5926 0.41668 0.0
H333 H 0.38369 0.50826 0.39035 0.0
H334 H 0.48391 0.6986 0.39099 0.0
H335 H 0.56741 0.76172 0.36772 0.0
C336 C 0.02645 0.49684 0.67232 0.0
C337 C 0.09012 0.50043 0.68934 0.0
C338 C 0.15361 0.63078 0.68124 0.0
C339 C 0.0923 0.62534 0.6582 0.0
N340 N 0.9771 0.55132 0.62125 0.0
N341 N 0.2183 0.56975 0.70205 0.0
C342 C 0.03087 0.55763 0.6503 0.0
C343 C 0.15508 0.5671 0.69166 0.0
N344 N 0.9613 0.43608 0.67875 0.0
N345 N 0.20863 0.69577 0.69537 0.0
H346 H 0.22173 0.52425 0.70952 0.0
H347 H 0.26802 0.61659 0.69928 0.0
H348 H 0.20962 0.74384 0.68911 0.0
H349 H 0.25043 0.70121 0.71694 0.0
H350 H 0.91279 0.43327 0.67047 0.0
H351 H 0.95527 0.39142 0.69738 0.0
H352 H 0.9339 0.50199 0.61126 0.0
H353 H 0.97987 0.59495 0.60307 0.0
C354 C 0.47398 0.17481 0.17872 0.0
C355 C 0.45722 0.20493 0.13918 0.0
C356 C 0.49581 0.3139 0.18295 0.0
C357 C 0.47758 0.27073 0.22388 0.0
N358 N 0.49832 0.18475 0.26387 0.0
N359 N 0.49343 0.31511 0.09667 0.0
C360 C 0.48527 0.20983 0.22276 0.0
C361 C 0.48337 0.27956 0.13866 0.0
N362 N 0.47727 0.1138 0.17402 0.0
N363 N 0.52129 0.38523 0.18757 0.0
H364 H 0.48892 0.28988 0.06437 0.0
H365 H 0.50851 0.36893 0.09396 0.0
H366 H 0.53253 0.40788 0.22129 0.0
H367 H 0.53521 0.42098 0.15923 0.0
H368 H 0.48647 0.08777 0.20199 0.0
H369 H 0.47522 0.09185 0.1409 0.0
H370 H 0.50221 0.13879 0.26648 0.0
H371 H 0.50781 0.21318 0.29542 0.0
C372 C 0.17573 0.23698 0.49811 0.0
C373 C 0.20263 0.30542 0.47709 0.0
C374 C 0.22944 0.35569 0.55601 0.0
C375 C 0.18469 0.28568 0.57555 0.0
N376 N 0.09624 0.16047 0.55792 0.0
N377 N 0.25311 0.43231 0.4871 0.0
C378 C 0.15141 0.22633 0.54474 0.0
C379 C 0.22819 0.36583 0.50643 0.0
N380 N 0.18187 0.18432 0.47652 0.0
N381 N 0.27565 0.41115 0.58413 0.0
H382 H 0.253 0.44052 0.45055 0.0
H383 H 0.26759 0.47751 0.50758 0.0
H384 H 0.28356 0.40418 0.61986 0.0
H385 H 0.31244 0.46158 0.57062 0.0
H386 H 0.17188 0.13858 0.49545 0.0
H387 H 0.20741 0.19101 0.44405 0.0
H388 H 0.07192 0.11871 0.53359 0.0
H389 H 0.06839 0.14926 0.58973 0.0
C390 C 0.79386 0.21215 0.81235 0.0
C391 C 0.86568 0.26833 0.81801 0.0
C392 C 0.84486 0.26587 0.90286 0.0
C393 C 0.79111 0.19318 0.89753 0.0
N394 N 0.69459 0.10702 0.84956 0.0
N395 N 0.94672 0.36863 0.86551 0.0
C396 C 0.75767 0.17032 0.85287 0.0
C397 C 0.88641 0.3029 0.8624 0.0
N398 N 0.76192 0.19933 0.76894 0.0
N399 N 0.85574 0.2978 0.94594 0.0
H400 H 0.97395 0.3973 0.83511 0.0
H401 H 0.96919 0.39395 0.89745 0.0
H402 H 0.82139 0.27154 0.97445 0.0
H403 H 0.89298 0.3515 0.95187 0.0
H404 H 0.70861 0.16044 0.76297 0.0
H405 H 0.78736 0.2336 0.74019 0.0
H406 H 0.67074 0.08326 0.8175 0.0
H407 H 0.66723 0.0783 0.87993 0.0
C408 C 0.82945 0.91197 0.15471 0.0
C409 C 0.89149 0.93343 0.12686 0.0
C410 C 0.96423 0.00399 0.19537 0.0
C411 C 0.89984 0.98781 0.21971 0.0
N412 N 0.77664 0.9577 0.20837 0.0
N413 N 0.02049 0.9914 0.12389 0.0
C414 C 0.83427 0.95228 0.19464 0.0
C415 C 0.96009 0.97725 0.14819 0.0
N416 N 0.76605 0.85206 0.1439 0.0
N417 N 0.02872 0.04596 0.21698 0.0
H418 H 0.01843 0.96252 0.09392 0.0
H419 H 0.07238 0.02874 0.1341 0.0
H420 H 0.03349 0.07553 0.24717 0.0
H421 H 0.07757 0.05458 0.20427 0.0
H422 H 0.72051 0.83362 0.16519 0.0
H423 H 0.76261 0.81655 0.11774 0.0
H424 H 0.72871 0.93431 0.1892 0.0
H425 H 0.78075 0.99311 0.23481 0.0
C426 C 0.77788 0.64727 0.50358 0.0
C427 C 0.80075 0.64606 0.45708 0.0
C428 C 0.92092 0.68301 0.48389 0.0
C429 C 0.9029 0.70075 0.52875 0.0
N430 N 0.80847 0.66327 0.58715 0.0
N431 N 0.87281 0.61266 0.41223 0.0
C432 C 0.82903 0.67028 0.54077 0.0
C433 C 0.86482 0.64532 0.4509 0.0
N434 N 0.70961 0.63365 0.51055 0.0
N435 N 0.99002 0.70537 0.47069 0.0
H436 H 0.83056 0.58497 0.38842 0.0
H437 H 0.91733 0.60664 0.40708 0.0
H438 H 0.03466 0.73104 0.49241 0.0
H439 H 0.0038 0.70093 0.43601 0.0
H440 H 0.69108 0.64162 0.54267 0.0
H441 H 0.67272 0.61643 0.48263 0.0
H442 H 0.75499 0.63805 0.59787 0.0
H443 H 0.84489 0.6757 0.61495 0.0
C444 C 0.28543 0.88839 0.80879 0.0
C445 C 0.21433 0.83782 0.79657 0.0
C446 C 0.17974 0.81299 0.87955 0.0
C447 C 0.24383 0.87694 0.89016 0.0
N448 N 0.37114 0.93732 0.87316 0.0
N449 N 0.11823 0.72086 0.8205 0.0
C450 C 0.3019 0.90217 0.85746 0.0
C451 C 0.16889 0.78914 0.8321 0.0
N452 N 0.33571 0.9232 0.77438 0.0
N453 N 0.13034 0.77598 0.91404 0.0
H454 H 0.11551 0.70089 0.78649 0.0
H455 H 0.08598 0.6823 0.84551 0.0
H456 H 0.14197 0.78753 0.94993 0.0
H457 H 0.07884 0.73391 0.90682 0.0
H458 H 0.38662 0.96656 0.78122 0.0
H459 H 0.32529 0.90798 0.73888 0.0
H460 H 0.41521 0.95363 0.85088 0.0
H461 H 0.38332 0.94212 0.90928 0.0
loop_
_geom_bond_atom_site_label_1
_geom_bond_atom_site_label_2
_geom_bond_distance
_geom_bond_site_symmetry_2
_ccdc_geom_bond_type
O0 Zn1 1.953 1_545 S
O0 C16 1.225 1_556 S
Zn1 O0 1.953 1_565 S
Zn1 O2 1.948 1_566 S
Zn1 O8 1.922 . S
Zn1 O13 1.921 1_556 S
O2 Zn1 1.948 1_544 S
O2 Zn3 1.923 1_554 S
O2 Zn4 1.950 . S
O2 Zn5 1.945 . S
Zn3 O2 1.923 1_556 S
Zn3 O6 1.933 . S
Zn3 O9 1.941 . S
Zn3 O10 1.965 . S
Zn4 O2 1.950 . S
Zn4 O11 1.938 1_554 S
Zn4 O12 1.906 . S
Zn4 O22 1.953 . S
Zn5 O2 1.945 . S
Zn5 O7 1.932 . S
Zn5 O14 1.977 . S
Zn5 O15 1.910 1_545 S
O6 Zn3 1.933 . S
O6 C17 1.226 1_556 S
O7 Zn5 1.932 . S
O7 C17 1.307 . S
O8 Zn1 1.922 . S
O8 C19 1.253 . S
O9 Zn3 1.941 . S
O9 C19 1.283 1_545 S
O10 Zn3 1.965 . S
O10 C18 1.303 . S
O11 Zn4 1.938 1_556 S
O11 C18 1.247 . S
O12 Zn4 1.906 . S
O12 C20 1.304 . S
O13 Zn1 1.921 1_554 S
O13 C21 1.311 . S
O14 Zn5 1.977 . S
O14 C20 1.272 . S
O15 Zn5 1.910 1_565 S
O15 C21 1.231 . S
C16 O0 1.225 1_554 S
C16 O22 1.298 . S
C17 O6 1.226 1_554 S
C17 O7 1.307 . S
C18 O10 1.303 . S
C18 O11 1.247 . S
C19 O8 1.253 . S
C19 O9 1.283 1_565 S
C20 O12 1.304 . S
C20 O14 1.272 . S
C21 O13 1.311 . S
C21 O15 1.231 . S
O22 Zn4 1.953 . S
O22 C16 1.298 . S
O23 Zn24 1.953 . S
O23 C39 1.225 . S
Zn24 O23 1.953 . S
Zn24 O25 1.949 . S
Zn24 O31 1.919 . S
Zn24 O36 1.924 . S
O25 Zn24 1.949 . S
O25 Zn26 1.923 . S
O25 Zn27 1.950 . S
O25 Zn28 1.945 . S
Zn26 O25 1.923 . S
Zn26 O29 1.933 . S
Zn26 O32 1.941 . S
Zn26 O33 1.965 . S
Zn27 O25 1.950 . S
Zn27 O34 1.938 . S
Zn27 O35 1.906 . S
Zn27 O45 1.953 . S
Zn28 O25 1.945 . S
Zn28 O30 1.932 . S
Zn28 O37 1.977 . S
Zn28 O38 1.910 . S
O29 Zn26 1.933 . S
O29 C40 1.226 . S
O30 Zn28 1.932 . S
O30 C40 1.307 . S
O31 Zn24 1.919 . S
O31 C42 1.253 . S
O32 Zn26 1.941 . S
O32 C42 1.283 . S
O33 Zn26 1.965 . S
O33 C41 1.303 . S
O34 Zn27 1.938 . S
O34 C41 1.247 . S
O35 Zn27 1.906 . S
O35 C43 1.304 . S
O36 Zn24 1.924 . S
O36 C44 1.311 . S
O37 Zn28 1.977 . S
O37 C43 1.272 . S
O38 Zn28 1.910 . S
O38 C44 1.231 . S
C39 O23 1.225 . S
C39 O45 1.298 . S
C40 O29 1.226 . S
C40 O30 1.307 . S
C41 O33 1.303 . S
C41 O34 1.247 . S
C42 O31 1.253 . S
C42 O32 1.283 . S
C43 O35 1.304 . S
C43 O37 1.272 . S
C44 O36 1.311 . S
C44 O38 1.231 . S
O45 Zn27 1.953 . S
O45 C39 1.298 . S
O46 Zn47 1.953 . S
O46 C62 1.225 . S
Zn47 O46 1.953 . S
Zn47 O48 1.949 . S
Zn47 O54 1.919 . S
Zn47 O59 1.924 . S
O48 Zn47 1.949 . S
O48 Zn49 1.923 . S
O48 Zn50 1.950 1_455 S
O48 Zn51 1.945 . S
Zn49 O48 1.923 . S
Zn49 O52 1.933 . S
Zn49 O55 1.941 . S
Zn49 O56 1.965 1_455 S
Zn50 O48 1.950 1_655 S
Zn50 O57 1.938 . S
Zn50 O58 1.906 . S
Zn50 O68 1.953 1_655 S
Zn51 O48 1.945 . S
Zn51 O53 1.932 . S
Zn51 O60 1.977 1_455 S
Zn51 O61 1.910 . S
O52 Zn49 1.933 . S
O52 C63 1.226 . S
O53 Zn51 1.932 . S
O53 C63 1.307 . S
O54 Zn47 1.919 . S
O54 C65 1.253 . S
O55 Zn49 1.941 . S
O55 C65 1.283 . S
O56 Zn49 1.965 1_655 S
O56 C64 1.303 . S
O57 Zn50 1.938 . S
O57 C64 1.247 . S
O58 Zn50 1.906 . S
O58 C66 1.304 . S
O59 Zn47 1.924 . S
O59 C67 1.311 . S
O60 Zn51 1.977 1_655 S
O60 C66 1.272 . S
O61 Zn51 1.910 . S
O61 C67 1.231 . S
C62 O46 1.225 . S
C62 O68 1.298 . S
C63 O52 1.226 . S
C63 O53 1.307 . S
C64 O56 1.303 . S
C64 O57 1.247 . S
C65 O54 1.253 . S
C65 O55 1.283 . S
C66 O58 1.304 . S
C66 O60 1.272 . S
C67 O59 1.311 . S
C67 O61 1.231 . S
O68 Zn50 1.953 1_455 S
O68 C62 1.298 . S
O69 Zn70 1.953 1_455 S
O69 C85 1.225 1_556 S
Zn70 O69 1.953 1_655 S
Zn70 O71 1.948 1_556 S
Zn70 O77 1.922 . S
Zn70 O82 1.921 1_556 S
O71 Zn70 1.948 1_554 S
O71 Zn72 1.923 1_554 S
O71 Zn73 1.950 1_545 S
O71 Zn74 1.945 . S
Zn72 O71 1.923 1_556 S
Zn72 O75 1.933 . S
Zn72 O78 1.941 . S
Zn72 O79 1.965 1_545 S
Zn73 O71 1.950 1_565 S
Zn73 O80 1.938 1_554 S
Zn73 O81 1.906 . S
Zn73 O91 1.953 . S
Zn74 O71 1.945 . S
Zn74 O76 1.932 . S
Zn74 O83 1.977 1_545 S
Zn74 O84 1.910 . S
O75 Zn72 1.933 . S
O75 C86 1.226 1_556 S
O76 Zn74 1.932 . S
O76 C86 1.307 . S
O77 Zn70 1.922 . S
O77 C88 1.253 . S
O78 Zn72 1.941 . S
O78 C88 1.283 . S
O79 Zn72 1.965 1_565 S
O79 C87 1.303 . S
O80 Zn73 1.938 1_556 S
O80 C87 1.247 . S
O81 Zn73 1.906 . S
O81 C89 1.304 . S
O82 Zn70 1.921 1_554 S
O82 C90 1.311 . S
O83 Zn74 1.977 1_565 S
O83 C89 1.272 . S
O84 Zn74 1.910 . S
O84 C90 1.231 . S
C85 O69 1.225 1_554 S
C85 O91 1.298 1_445 S
C86 O75 1.226 1_554 S
C86 O76 1.307 . S
C87 O79 1.303 . S
C87 O80 1.247 . S
C88 O77 1.253 . S
C88 O78 1.283 . S
C89 O81 1.304 . S
C89 O83 1.272 . S
C90 O82 1.311 . S
C90 O84 1.231 . S
O91 Zn73 1.953 . S
O91 C85 1.298 1_665 S
O92 Zn93 1.953 . S
O92 C108 1.225 1_655 S
Zn93 O92 1.953 . S
Zn93 O94 1.949 . S
Zn93 O100 1.919 . S
Zn93 O105 1.924 . S
O94 Zn93 1.949 . S
O94 Zn95 1.923 . S
O94 Zn96 1.950 . S
O94 Zn97 1.945 . S
Zn95 O94 1.923 . S
Zn95 O98 1.933 . S
Zn95 O101 1.941 . S
Zn95 O102 1.965 . S
Zn96 O94 1.950 . S
Zn96 O103 1.938 . S
Zn96 O104 1.906 . S
Zn96 O114 1.953 1_655 S
Zn97 O94 1.945 . S
Zn97 O99 1.932 . S
Zn97 O106 1.977 . S
Zn97 O107 1.910 . S
O98 Zn95 1.933 . S
O98 C109 1.226 . S
O99 Zn97 1.932 . S
O99 C109 1.307 . S
O100 Zn93 1.919 . S
O100 C111 1.253 . S
O101 Zn95 1.941 . S
O101 C111 1.283 . S
O102 Zn95 1.965 . S
O102 C110 1.303 . S
O103 Zn96 1.938 . S
O103 C110 1.247 . S
O104 Zn96 1.906 . S
O104 C112 1.304 . S
O105 Zn93 1.924 . S
O105 C113 1.311 . S
O106 Zn97 1.977 . S
O106 C112 1.272 . S
O107 Zn97 1.910 . S
O107 C113 1.231 . S
C108 O92 1.225 1_455 S
C108 O114 1.298 . S
C109 O98 1.226 . S
C109 O99 1.307 . S
C110 O102 1.303 . S
C110 O103 1.247 . S
C111 O100 1.253 . S
C111 O101 1.283 . S
C112 O104 1.304 . S
C112 O106 1.272 . S
C113 O105 1.311 . S
C113 O107 1.231 . S
O114 Zn96 1.953 1_455 S
O114 C108 1.298 . S
O115 Zn116 1.953 . S
O115 C131 1.232 . S
Zn116 O115 1.953 . S
Zn116 O117 1.949 . S
Zn116 O123 1.919 1_455 S
Zn116 O128 1.924 1_455 S
O117 Zn116 1.949 . S
O117 Zn118 1.923 . S
O117 Zn119 1.950 . S
O117 Zn120 1.945 . S
Zn118 O117 1.923 . S
Zn118 O121 1.933 . S
Zn118 O124 1.941 . S
Zn118 O125 1.965 . S
Zn119 O117 1.950 . S
Zn119 O126 1.938 . S
Zn119 O127 1.906 . S
Zn119 O137 1.953 1_565 S
Zn120 O117 1.945 . S
Zn120 O122 1.932 . S
Zn120 O129 1.977 . S
Zn120 O130 1.910 1_455 S
O121 Zn118 1.933 . S
O121 C132 1.226 . S
O122 Zn120 1.932 . S
O122 C132 1.307 . S
O123 Zn116 1.919 1_655 S
O123 C134 1.253 . S
O124 Zn118 1.941 . S
O124 C134 1.283 1_455 S
O125 Zn118 1.965 . S
O125 C133 1.303 . S
O126 Zn119 1.938 . S
O126 C133 1.247 . S
O127 Zn119 1.906 . S
O127 C135 1.304 . S
O128 Zn116 1.924 1_655 S
O128 C136 1.311 . S
O129 Zn120 1.977 . S
O129 C135 1.272 . S
O130 Zn120 1.910 1_655 S
O130 C136 1.231 . S
C131 O115 1.232 . S
C131 O137 1.303 1_565 S
C132 O121 1.226 . S
C132 O122 1.307 . S
C133 O125 1.303 . S
C133 O126 1.247 . S
C134 O123 1.253 . S
C134 O124 1.283 1_655 S
C135 O127 1.304 . S
C135 O129 1.272 . S
C136 O128 1.311 . S
C136 O130 1.231 . S
O137 Zn119 1.953 1_545 S
O137 C131 1.303 1_545 S
C138 C139 1.363 1_455 S
C138 C144 1.379 . S
C138 N146 1.356 1_455 S
C139 C138 1.363 1_655 S
C139 C145 1.363 1_644 S
C140 C141 1.363 1_556 S
C140 C145 1.379 1_545 S
C140 N147 1.356 . S
C141 C140 1.363 1_554 S
C141 C144 1.363 . S
N142 C144 1.356 . S
N142 H154 0.984 . S
N142 H155 0.985 . S
N143 C145 1.356 1_655 S
N143 H148 0.984 . S
N143 H149 0.985 . S
C144 C138 1.379 . S
C144 C141 1.363 . S
C144 N142 1.356 . S
C145 C139 1.363 1_466 S
C145 C140 1.379 1_565 S
C145 N143 1.356 1_455 S
N146 C138 1.356 1_655 S
N146 H152 0.984 . S
N146 H153 0.984 . S
N147 C140 1.356 . S
N147 H150 0.984 . S
N147 H151 0.985 . S
H148 N143 0.984 . S
H149 N143 0.985 . S
H150 N147 0.984 . S
H151 N147 0.985 . S
H152 N146 0.984 . S
H153 N146 0.984 . S
H154 N142 0.984 . S
H155 N142 0.985 . S
C156 C157 1.363 1_545 S
C156 C162 1.379 . S
C156 N164 1.356 1_545 S
C157 C156 1.363 1_565 S
C157 C163 1.363 1_565 S
C158 C159 1.363 . S
C158 C163 1.379 . S
C158 N165 1.356 . S
C159 C158 1.363 . S
C159 C162 1.363 . S
N160 C162 1.356 . S
N160 H172 0.984 . S
N160 H173 0.985 . S
N161 C163 1.356 1_665 S
N161 H166 0.984 . S
N161 H167 0.985 . S
C162 C156 1.379 . S
C162 C159 1.363 . S
C162 N160 1.356 . S
C163 C157 1.363 1_545 S
C163 C158 1.379 . S
C163 N161 1.356 1_445 S
N164 C156 1.356 1_565 S
N164 H170 0.984 . S
N164 H171 0.984 . S
N165 C158 1.356 . S
N165 H168 0.984 . S
N165 H169 0.985 . S
H166 N161 0.984 . S
H167 N161 0.985 . S
H168 N165 0.984 . S
H169 N165 0.985 . S
H170 N164 0.984 . S
H171 N164 0.984 . S
H172 N160 0.984 . S
H173 N160 0.985 . S
C174 C175 1.363 1_565 S
C174 C180 1.379 1_565 S
C174 N182 1.356 . S
C175 C174 1.363 1_545 S
C175 C181 1.363 . S
C176 C177 1.363 . S
C176 C181 1.379 . S
C176 N183 1.356 . S
C177 C176 1.363 . S
C177 C180 1.363 . S
N178 C180 1.356 1_655 S
N178 H190 0.984 . S
N178 H191 0.985 . S
N179 C181 1.356 . S
N179 H184 0.984 . S
N179 H185 0.985 . S
C180 C174 1.379 1_545 S
C180 C177 1.363 . S
C180 N178 1.356 1_455 S
C181 C175 1.363 . S
C181 C176 1.379 . S
C181 N179 1.356 . S
N182 C174 1.356 . S
N182 H188 0.984 . S
N182 H189 0.984 . S
N183 C176 1.356 . S
N183 H186 0.984 . S
N183 H187 0.985 . S
H184 N179 0.984 . S
H185 N179 0.985 . S
H186 N183 0.984 . S
H187 N183 0.985 . S
H188 N182 0.984 . S
H189 N182 0.984 . S
H190 N178 0.984 . S
H191 N178 0.985 . S
C192 C193 1.363 . S
C192 C198 1.379 . S
C192 N200 1.356 . S
C193 C192 1.363 . S
C193 C199 1.363 . S
C194 C195 1.363 . S
C194 C199 1.379 . S
C194 N201 1.356 . S
C195 C194 1.363 . S
C195 C198 1.363 . S
N196 C198 1.356 . S
N196 H208 0.984 . S
N196 H209 0.985 . S
N197 C199 1.356 . S
N197 H202 0.984 . S
N197 H203 0.985 . S
C198 C192 1.379 . S
C198 C195 1.363 . S
C198 N196 1.356 . S
C199 C193 1.363 . S
C199 C194 1.379 . S
C199 N197 1.356 . S
N200 C192 1.356 . S
N200 H206 0.984 . S
N200 H207 0.984 . S
N201 C194 1.356 . S
N201 H204 0.984 . S
N201 H205 0.985 . S
H202 N197 0.984 . S
H203 N197 0.985 . S
H204 N201 0.984 . S
H205 N201 0.985 . S
H206 N200 0.984 . S
H207 N200 0.984 . S
H208 N196 0.984 . S
H209 N196 0.985 . S
C210 C211 1.363 . S
C210 C216 1.379 . S
C210 N218 1.356 . S
C211 C210 1.363 . S
C211 C217 1.363 . S
C212 C213 1.363 1_655 S
C212 C217 1.379 1_655 S
C212 N219 1.356 . S
C213 C212 1.363 1_455 S
C213 C216 1.363 . S
N214 C216 1.356 . S
N214 H226 0.984 . S
N214 H227 0.985 . S
N215 C217 1.356 . S
N215 H220 0.984 . S
N215 H221 0.985 . S
C216 C210 1.379 . S
C216 C213 1.363 . S
C216 N214 1.356 . S
C217 C211 1.363 . S
C217 C212 1.379 1_455 S
C217 N215 1.356 . S
N218 C210 1.356 . S
N218 H224 0.984 . S
N218 H225 0.984 . S
N219 C212 1.356 . S
N219 H222 0.984 . S
N219 H223 0.985 . S
H220 N215 0.984 . S
H221 N215 0.985 . S
H222 N219 0.984 . S
H223 N219 0.985 . S
H224 N218 0.984 . S
H225 N218 0.984 . S
H226 N214 0.984 . S
H227 N214 0.985 . S
C228 C229 1.363 . S
C228 C234 1.379 1_545 S
C228 N236 1.356 . S
C229 C228 1.363 . S
C229 C235 1.363 . S
C230 C231 1.363 1_545 S
C230 C235 1.379 . S
C230 N237 1.356 1_545 S
C231 C230 1.363 1_565 S
C231 C234 1.363 . S
N232 C234 1.356 . S
N232 H244 0.984 . S
N232 H245 0.985 . S
N233 C235 1.356 . S
N233 H238 0.984 . S
N233 H239 0.985 . S
C234 C228 1.379 1_565 S
C234 C231 1.363 . S
C234 N232 1.356 . S
C235 C229 1.363 . S
C235 C230 1.379 . S
C235 N233 1.356 . S
N236 C228 1.356 . S
N236 H242 0.984 . S
N236 H243 0.984 . S
N237 C230 1.356 1_565 S
N237 H240 0.984 . S
N237 H241 0.985 1_565 S
H238 N233 0.984 . S
H239 N233 0.985 . S
H240 N237 0.984 . S
H241 N237 0.985 1_545 S
H242 N236 0.984 . S
H243 N236 0.984 . S
H244 N232 0.984 . S
H245 N232 0.985 . S
C246 C247 1.363 . S
C246 C252 1.379 . S
C246 N254 1.356 . S
C247 C246 1.363 . S
C247 C253 1.363 . S
C248 C249 1.363 . S
C248 C253 1.379 . S
C248 N255 1.356 . S
C249 C248 1.363 . S
C249 C252 1.363 . S
N250 C252 1.356 . S
N250 H262 0.984 . S
N250 H263 0.985 . S
N251 C253 1.356 . S
N251 H256 0.984 . S
N251 H257 0.985 . S
C252 C246 1.379 . S
C252 C249 1.363 . S
C252 N250 1.356 . S
C253 C247 1.363 . S
C253 C248 1.379 . S
C253 N251 1.356 . S
N254 C246 1.356 . S
N254 H260 0.984 . S
N254 H261 0.984 . S
N255 C248 1.356 . S
N255 H258 0.984 . S
N255 H259 0.985 . S
H256 N251 0.984 . S
H257 N251 0.985 . S
H258 N255 0.984 . S
H259 N255 0.985 . S
H260 N254 0.984 . S
H261 N254 0.984 . S
H262 N250 0.984 . S
H263 N250 0.985 . S
C264 C265 1.363 . S
C264 C270 1.379 . S
C264 N272 1.356 . S
C265 C264 1.363 . S
C265 C271 1.363 . S
C266 C267 1.363 . S
C266 C271 1.379 . S
C266 N273 1.356 . S
C267 C266 1.363 . S
C267 C270 1.363 . S
N268 C270 1.356 . S
N268 H280 0.984 . S
N268 H281 0.985 . S
N269 C271 1.356 . S
N269 H274 0.984 1_455 S
N269 H275 0.985 . S
C270 C264 1.379 . S
C270 C267 1.363 . S
C270 N268 1.356 . S
C271 C265 1.363 . S
C271 C266 1.379 . S
C271 N269 1.356 . S
N272 C264 1.356 . S
N272 H278 0.984 . S
N272 H279 0.984 1_455 S
N273 C266 1.356 . S
N273 H276 0.984 . S
N273 H277 0.985 1_565 S
H274 N269 0.984 1_655 S
H275 N269 0.985 . S
H276 N273 0.984 . S
H277 N273 0.985 1_545 S
H278 N272 0.984 . S
H279 N272 0.984 1_655 S
H280 N268 0.984 . S
H281 N268 0.985 . S
C282 C283 1.363 . S
C282 C288 1.379 . S
C282 N290 1.356 . S
C283 C282 1.363 . S
C283 C289 1.363 1_545 S
C284 C285 1.363 . S
C284 C289 1.379 1_545 S
C284 N291 1.356 . S
C285 C284 1.363 . S
C285 C288 1.363 . S
N286 C288 1.356 . S
N286 H298 0.984 . S
N286 H299 0.985 . S
N287 C289 1.356 . S
N287 H292 0.984 . S
N287 H293 0.985 . S
C288 C282 1.379 . S
C288 C285 1.363 . S
C288 N286 1.356 . S
C289 C283 1.363 1_565 S
C289 C284 1.379 1_565 S
C289 N287 1.356 . S
N290 C282 1.356 . S
N290 H296 0.984 . S
N290 H297 0.984 . S
N291 C284 1.356 . S
N291 H294 0.984 . S
N291 H295 0.985 . S
H292 N287 0.984 . S
H293 N287 0.985 . S
H294 N291 0.984 . S
H295 N291 0.985 . S
H296 N290 0.984 . S
H297 N290 0.984 . S
H298 N286 0.984 . S
H299 N286 0.985 . S
C300 C301 1.363 1_556 S
C300 C306 1.379 . S
C300 N308 1.356 . S
C301 C300 1.363 1_554 S
C301 C307 1.363 . S
C302 C303 1.363 . S
C302 C307 1.379 . S
C302 N309 1.356 . S
C303 C302 1.363 . S
C303 C306 1.363 1_554 S
N304 C306 1.356 1_565 S
N304 H316 0.984 . S
N304 H317 0.985 . S
N305 C307 1.356 . S
N305 H310 0.984 . S
N305 H311 0.985 . S
C306 C300 1.379 . S
C306 C303 1.363 1_556 S
C306 N304 1.356 1_545 S
C307 C301 1.363 . S
C307 C302 1.379 . S
C307 N305 1.356 . S
N308 C300 1.356 . S
N308 H314 0.984 1_545 S
N308 H315 0.984 . S
N309 C302 1.356 . S
N309 H312 0.984 . S
N309 H313 0.985 . S
H310 N305 0.984 . S
H311 N305 0.985 . S
H312 N309 0.984 . S
H313 N309 0.985 . S
H314 N308 0.984 1_565 S
H315 N308 0.984 . S
H316 N304 0.984 . S
H317 N304 0.985 . S
C318 C319 1.363 . S
C318 C324 1.379 . S
C318 N326 1.356 . S
C319 C318 1.363 . S
C319 C325 1.363 . S
C320 C321 1.363 . S
C320 C325 1.379 . S
C320 N327 1.356 . S
C321 C320 1.363 . S
C321 C324 1.363 . S
N322 C324 1.356 . S
N322 H334 0.984 . S
N322 H335 0.985 . S
N323 C325 1.356 . S
N323 H328 0.984 . S
N323 H329 0.985 . S
C324 C318 1.379 . S
C324 C321 1.363 . S
C324 N322 1.356 . S
C325 C319 1.363 . S
C325 C320 1.379 . S
C325 N323 1.356 . S
N326 C318 1.356 . S
N326 H332 0.984 . S
N326 H333 0.984 . S
N327 C320 1.356 . S
N327 H330 0.984 . S
N327 H331 0.985 . S
H328 N323 0.984 . S
H329 N323 0.985 . S
H330 N327 0.984 . S
H331 N327 0.985 . S
H332 N326 0.984 . S
H333 N326 0.984 . S
H334 N322 0.984 . S
H335 N322 0.985 . S
C336 C337 1.363 . S
C336 C342 1.379 . S
C336 N344 1.356 1_455 S
C337 C336 1.363 . S
C337 C343 1.363 . S
C338 C339 1.363 . S
C338 C343 1.379 . S
C338 N345 1.356 . S
C339 C338 1.363 . S
C339 C342 1.363 . S
N340 C342 1.356 . S
N340 H352 0.984 . S
N340 H353 0.985 . S
N341 C343 1.356 . S
N341 H346 0.984 . S
N341 H347 0.985 . S
C342 C336 1.379 . S
C342 C339 1.363 . S
C342 N340 1.356 . S
C343 C337 1.363 . S
C343 C338 1.379 . S
C343 N341 1.356 . S
N344 C336 1.356 1_655 S
N344 H350 0.984 . S
N344 H351 0.984 . S
N345 C338 1.356 . S
N345 H348 0.984 . S
N345 H349 0.985 . S
H346 N341 0.984 . S
H347 N341 0.985 . S
H348 N345 0.984 . S
H349 N345 0.985 . S
H350 N344 0.984 . S
H351 N344 0.984 . S
H352 N340 0.984 . S
H353 N340 0.985 . S
C354 C355 1.363 . S
C354 C360 1.379 . S
C354 N362 1.356 . S
C355 C354 1.363 . S
C355 C361 1.363 . S
C356 C357 1.363 . S
C356 C361 1.379 . S
C356 N363 1.356 . S
C357 C356 1.363 . S
C357 C360 1.363 . S
N358 C360 1.356 . S
N358 H370 0.984 . S
N358 H371 0.985 . S
N359 C361 1.356 . S
N359 H364 0.984 . S
N359 H365 0.985 . S
C360 C354 1.379 . S
C360 C357 1.363 . S
C360 N358 1.356 . S
C361 C355 1.363 . S
C361 C356 1.379 . S
C361 N359 1.356 . S
N362 C354 1.356 . S
N362 H368 0.984 . S
N362 H369 0.984 . S
N363 C356 1.356 . S
N363 H366 0.984 . S
N363 H367 0.985 . S
H364 N359 0.984 . S
H365 N359 0.985 . S
H366 N363 0.984 . S
H367 N363 0.985 . S
H368 N362 0.984 . S
H369 N362 0.984 . S
H370 N358 0.984 . S
H371 N358 0.985 . S
C372 C373 1.363 . S
C372 C378 1.379 . S
C372 N380 1.356 . S
C373 C372 1.363 . S
C373 C379 1.363 . S
C374 C375 1.363 . S
C374 C379 1.379 . S
C374 N381 1.356 . S
C375 C374 1.363 . S
C375 C378 1.363 . S
N376 C378 1.356 . S
N376 H388 0.984 . S
N376 H389 0.985 . S
N377 C379 1.356 . S
N377 H382 0.984 . S
N377 H383 0.985 . S
C378 C372 1.379 . S
C378 C375 1.363 . S
C378 N376 1.356 . S
C379 C373 1.363 . S
C379 C374 1.379 . S
C379 N377 1.356 . S
N380 C372 1.356 . S
N380 H386 0.984 . S
N380 H387 0.984 . S
N381 C374 1.356 . S
N381 H384 0.984 . S
N381 H385 0.985 . S
H382 N377 0.984 . S
H383 N377 0.985 . S
H384 N381 0.984 . S
H385 N381 0.985 . S
H386 N380 0.984 . S
H387 N380 0.984 . S
H388 N376 0.984 . S
H389 N376 0.985 . S
C390 C391 1.363 . S
C390 C396 1.379 . S
C390 N398 1.356 . S
C391 C390 1.363 . S
C391 C397 1.363 . S
C392 C393 1.363 . S
C392 C397 1.379 . S
C392 N399 1.356 . S
C393 C392 1.363 . S
C393 C396 1.363 . S
N394 C396 1.356 . S
N394 H406 0.984 . S
N394 H407 0.985 . S
N395 C397 1.356 . S
N395 H400 0.984 . S
N395 H401 0.985 1_655 S
C396 C390 1.379 . S
C396 C393 1.363 . S
C396 N394 1.356 . S
C397 C391 1.363 . S
C397 C392 1.379 . S
C397 N395 1.356 . S
N398 C390 1.356 . S
N398 H404 0.984 . S
N398 H405 0.984 . S
N399 C392 1.356 . S
N399 H402 0.984 . S
N399 H403 0.985 1_655 S
H400 N395 0.984 . S
H401 N395 0.985 1_455 S
H402 N399 0.984 . S
H403 N399 0.985 1_455 S
H404 N398 0.984 . S
H405 N398 0.984 . S
H406 N394 0.984 . S
H407 N394 0.985 . S
C408 C409 1.363 . S
C408 C414 1.379 . S
C408 N416 1.356 . S
C409 C408 1.363 . S
C409 C415 1.363 . S
C410 C411 1.363 . S
C410 C415 1.379 . S
C410 N417 1.356 . S
C411 C410 1.363 . S
C411 C414 1.363 . S
N412 C414 1.356 . S
N412 H424 0.984 . S
N412 H425 0.985 . S
N413 C415 1.356 . S
N413 H418 0.984 . S
N413 H419 0.985 . S
C414 C408 1.379 . S
C414 C411 1.363 . S
C414 N412 1.356 . S
C415 C409 1.363 . S
C415 C410 1.379 . S
C415 N413 1.356 . S
N416 C408 1.356 . S
N416 H422 0.984 . S
N416 H423 0.984 . S
N417 C410 1.356 . S
N417 H420 0.984 . S
N417 H421 0.985 . S
H418 N413 0.984 . S
H419 N413 0.985 . S
H420 N417 0.984 . S
H421 N417 0.985 . S
H422 N416 0.984 . S
H423 N416 0.984 . S
H424 N412 0.984 . S
H425 N412 0.985 . S
C426 C427 1.363 . S
C426 C432 1.379 . S
C426 N434 1.356 . S
C427 C426 1.363 . S
C427 C433 1.363 . S
C428 C429 1.363 . S
C428 C433 1.379 . S
C428 N435 1.356 1_655 S
C429 C428 1.363 . S
C429 C432 1.363 . S
N430 C432 1.356 . S
N430 H442 0.984 . S
N430 H443 0.985 . S
N431 C433 1.356 1_455 S
N431 H436 0.984 1_455 S
N431 H437 0.985 . S
C432 C426 1.379 . S
C432 C429 1.363 . S
C432 N430 1.356 . S
C433 C427 1.363 . S
C433 C428 1.379 . S
C433 N431 1.356 1_655 S
N434 C426 1.356 . S
N434 H440 0.984 . S
N434 H441 0.984 . S
N435 C428 1.356 1_455 S
N435 H438 0.984 . S
N435 H439 0.985 . S
H436 N431 0.984 1_655 S
H437 N431 0.985 . S
H438 N435 0.984 . S
H439 N435 0.985 . S
H440 N434 0.984 . S
H441 N434 0.984 . S
H442 N430 0.984 . S
H443 N430 0.985 . S
C444 C445 1.363 . S
C444 C450 1.379 . S
C444 N452 1.356 . S
C445 C444 1.363 . S
C445 C451 1.363 . S
C446 C447 1.363 . S
C446 C451 1.379 . S
C446 N453 1.356 . S
C447 C446 1.363 . S
C447 C450 1.363 . S
N448 C450 1.356 1_545 S
N448 H460 0.984 . S
N448 H461 0.985 . S
N449 C451 1.356 . S
N449 H454 0.984 . S
N449 H455 0.985 . S
C450 C444 1.379 . S
C450 C447 1.363 . S
C450 N448 1.356 1_565 S
C451 C445 1.363 . S
C451 C446 1.379 . S
C451 N449 1.356 . S
N452 C444 1.356 . S
N452 H458 0.984 1_565 S
N452 H459 0.984 . S
N453 C446 1.356 . S
N453 H456 0.984 . S
N453 H457 0.985 . S
H454 N449 0.984 . S
H455 N449 0.985 . S
H456 N453 0.984 . S
H457 N453 0.985 . S
H458 N452 0.984 1_545 S
H459 N452 0.984 . S
H460 N448 0.984 . S
H461 N448 0.985 . S
C139 C85 0.463 1_655 S
C141 C16 0.463 . S
C157 C108 0.464 . S
C159 C39 0.464 . S
C175 C131 0.467 1_545 S
C177 C62 0.464 . S
C193 C18 1.973 . S
C195 C67 1.989 . S
C211 C41 1.973 . S
C213 C90 1.989 1_455 S
C229 C64 1.973 . S
C231 C113 1.989 . S
C247 C87 1.973 . S
C249 C136 1.989 . S
C265 C110 1.973 1_455 S
C267 C21 1.989 . S
C283 C133 1.973 1_545 S
C285 C44 1.989 . S
C301 C17 1.112 . S
C303 C86 1.112 . S
C319 C40 1.113 . S
C321 C109 1.113 . S
C337 C63 1.112 . S
C339 C132 1.112 . S
C355 C20 0.935 . S
C357 C42 0.967 . S
C373 C43 0.935 . S
C375 C65 0.967 . S
C391 C66 0.935 . S
C393 C88 0.967 . S
C409 C89 0.935 . S
C411 C111 0.967 . S
C427 C112 0.935 . S
C429 C134 0.968 . S
C445 C135 0.935 . S
C447 C19 0.967 . S
