# Generated by pormake.
# Topology gsi, (4)-cn, num edge types: 1
# Building blocks:
#     Node 0, Type 0, BuildingBlock: GALJAG_clean_sbu_0, # of connection points: 4
#     Node 1, Type 0, BuildingBlock: GALJAG_clean_sbu_0, # of connection points: 4
#     Node 2, Type 0, BuildingBlock: GALJAG_clean_sbu_0, # of connection points: 4
#     Node 3, Type 0, BuildingBlock: GALJAG_clean_sbu_0, # of connection points: 4
#     Node 4, Type 0, BuildingBlock: GALJAG_clean_sbu_0, # of connection points: 4
#     Node 5, Type 0, BuildingBlock: GALJAG_clean_sbu_0, # of connection points: 4
#     Node 6, Type 0, BuildingBlock: GALJAG_clean_sbu_0, # of connection points: 4
#     Node 7, Type 0, BuildingBlock: GALJAG_clean_sbu_0, # of connection points: 4
#     Node 8, Type 0, BuildingBlock: GALJAG_clean_sbu_0, # of connection points: 4
#     Node 9, Type 0, BuildingBlock: GALJAG_clean_sbu_0, # of connection points: 4
#     Node 10, Type 0, BuildingBlock: GALJAG_clean_sbu_0, # of connection points: 4
#     Node 11, Type 0, BuildingBlock: GALJAG_clean_sbu_0, # of connection points: 4
#     Node 12, Type 0, BuildingBlock: GALJAG_clean_sbu_0, # of connection points: 4
#     Node 13, Type 0, BuildingBlock: GALJAG_clean_sbu_0, # of connection points: 4
#     Node 14, Type 0, BuildingBlock: GALJAG_clean_sbu_0, # of connection points: 4
#     Node 15, Type 0, BuildingBlock: GALJAG_clean_sbu_0, # of connection points: 4
#     Edge 16, Type (0, 0), BuildingBlock: CIFDUS_clean_linker_0, # of connection points: 2
#     Edge 17, Type (0, 0), BuildingBlock: CIFDUS_clean_linker_0, # of connection points: 2
#     Edge 18, Type (0, 0), BuildingBlock: CIFDUS_clean_linker_0, # of connection points: 2
#     Edge 19, Type (0, 0), BuildingBlock: CIFDUS_clean_linker_0, # of connection points: 2
#     Edge 20, Type (0, 0), BuildingBlock: CIFDUS_clean_linker_0, # of connection points: 2
#     Edge 21, Type (0, 0), BuildingBlock: CIFDUS_clean_linker_0, # of connection points: 2
#     Edge 22, Type (0, 0), BuildingBlock: CIFDUS_clean_linker_0, # of connection points: 2
#     Edge 23, Type (0, 0), BuildingBlock: CIFDUS_clean_linker_0, # of connection points: 2
#     Edge 24, Type (0, 0), BuildingBlock: CIFDUS_clean_linker_0, # of connection points: 2
#     Edge 25, Type (0, 0), BuildingBlock: CIFDUS_clean_linker_0, # of connection points: 2
#     Edge 26, Type (0, 0), BuildingBlock: CIFDUS_clean_linker_0, # of connection points: 2
#     Edge 27, Type (0, 0), BuildingBlock: CIFDUS_clean_linker_0, # of connection points: 2
#     Edge 28, Type (0, 0), BuildingBlock: CIFDUS_clean_linker_0, # of connection points: 2
#     Edge 29, Type (0, 0), BuildingBlock: CIFDUS_clean_linker_0, # of connection points: 2
#     Edge 30, Type (0, 0), BuildingBlock: CIFDUS_clean_linker_0, # of connection points: 2
#     Edge 31, Type (0, 0), BuildingBlock: CIFDUS_clean_linker_0, # of connection points: 2
#     Edge 32, Type (0, 0), BuildingBlock: CIFDUS_clean_linker_0, # of connection points: 2
#     Edge 33, Type (0, 0), BuildingBlock: CIFDUS_clean_linker_0, # of connection points: 2
#     Edge 34, Type (0, 0), BuildingBlock: CIFDUS_clean_linker_0, # of connection points: 2
#     Edge 35, Type (0, 0), BuildingBlock: CIFDUS_clean_linker_0, # of connection points: 2
#     Edge 36, Type (0, 0), BuildingBlock: CIFDUS_clean_linker_0, # of connection points: 2
#     Edge 37, Type (0, 0), BuildingBlock: CIFDUS_clean_linker_0, # of connection points: 2
#     Edge 38, Type (0, 0), BuildingBlock: CIFDUS_clean_linker_0, # of connection points: 2
#     Edge 39, Type (0, 0), BuildingBlock: CIFDUS_clean_linker_0, # of connection points: 2
#     Edge 40, Type (0, 0), BuildingBlock: CIFDUS_clean_linker_0, # of connection points: 2
#     Edge 41, Type (0, 0), BuildingBlock: CIFDUS_clean_linker_0, # of connection points: 2
#     Edge 42, Type (0, 0), BuildingBlock: CIFDUS_clean_linker_0, # of connection points: 2
#     Edge 43, Type (0, 0), BuildingBlock: CIFDUS_clean_linker_0, # of connection points: 2
#     Edge 44, Type (0, 0), BuildingBlock: CIFDUS_clean_linker_0, # of connection points: 2
#     Edge 45, Type (0, 0), BuildingBlock: CIFDUS_clean_linker_0, # of connection points: 2
#     Edge 46, Type (0, 0), BuildingBlock: CIFDUS_clean_linker_0, # of connection points: 2
#     Edge 47, Type (0, 0), BuildingBlock: CIFDUS_clean_linker_0, # of connection points: 2
# Relax obj value: 0.227
# Max RMSD: 0.210
# Mean RMSD: 0.172
data_MOF--net-gsi--node1-GALJAG_clean_sbu_0--edge1-CIFDUS_clean_linker_0
_symmetry_space_group_name_H-M    P1
_symmetry_Int_Tables_number       1
_symmetry_cell_setting            triclinic
loop_
_symmetry_equiv_pos_as_xyz
'x, y, z'
_cell_length_a     35.652672
_cell_length_b     34.653766
_cell_length_c     39.382377
_cell_angle_alpha  90.133771
_cell_angle_beta   90.134217
_cell_angle_gamma 104.59213
loop_
_atom_site_label
_atom_site_type_symbol
_atom_site_fract_x
_atom_site_fract_y
_atom_site_fract_z
_atom_type_partial_charge
In0 In 0.14841 0.15422 0.12948 0.0
O1 O 0.19463 0.15621 0.08983 0.0
O2 O 0.13934 0.11711 0.08008 0.0
C3 C 0.19012 0.20815 0.17261 0.0
C4 C 0.09318 0.19313 0.11521 0.0
C5 C 0.15202 0.09371 0.17149 0.0
O6 O 0.20069 0.20506 0.1423 0.0
O7 O 0.15765 0.18547 0.18037 0.0
O8 O 0.11959 0.09841 0.16159 0.0
O9 O 0.18103 0.11758 0.15872 0.0
C10 C 0.17396 0.13046 0.07042 0.0
O11 O 0.08476 0.15802 0.12698 0.0
O12 O 0.12878 0.20742 0.10964 0.0
In13 In 0.86504 0.34125 0.12958 0.0
O14 O 0.92734 0.3362 0.11799 0.0
O15 O 0.88187 0.28331 0.11982 0.0
C16 C 0.87241 0.41055 0.16391 0.0
C17 C 0.82825 0.34793 0.0704 0.0
C18 C 0.82654 0.30003 0.1818 0.0
O19 O 0.90187 0.39943 0.15416 0.0
O20 O 0.84054 0.38828 0.1544 0.0
O21 O 0.81054 0.30377 0.1538 0.0
O22 O 0.86249 0.31606 0.18315 0.0
C23 C 0.9176 0.29851 0.11616 0.0
O24 O 0.81638 0.32074 0.09184 0.0
O25 O 0.86033 0.37177 0.07791 0.0
In26 In 0.18334 0.87065 0.34693 0.0
O27 O 0.14785 0.81022 0.36423 0.0
O28 O 0.1202 0.858 0.36386 0.0
C29 C 0.21978 0.82791 0.30746 0.0
C30 C 0.16261 0.92401 0.30521 0.0
C31 C 0.22935 0.89349 0.40227 0.0
O32 O 0.19139 0.81225 0.32605 0.0
O33 O 0.22958 0.86551 0.30814 0.0
O34 O 0.1929 0.88581 0.40365 0.0
O35 O 0.24249 0.89195 0.37284 0.0
C36 C 0.11716 0.82132 0.36899 0.0
O37 O 0.18569 0.93463 0.32985 0.0
O38 O 0.14997 0.88687 0.30187 0.0
In39 In 0.83654 0.63286 0.33988 0.0
O40 O 0.87192 0.69636 0.34886 0.0
O41 O 0.89951 0.64983 0.35851 0.0
C42 C 0.80505 0.67649 0.29688 0.0
C43 C 0.84057 0.5679 0.30267 0.0
C44 C 0.79873 0.61276 0.3994 0.0
O45 O 0.79538 0.67152 0.32764 0.0
O46 O 0.83033 0.65898 0.28758 0.0
O47 O 0.78151 0.61603 0.37198 0.0
O48 O 0.83481 0.61726 0.39644 0.0
C49 C 0.90223 0.68689 0.35812 0.0
O50 O 0.81013 0.57079 0.31761 0.0
O51 O 0.8694 0.59697 0.30763 0.0
In52 In 0.36752 0.84337 0.63162 0.0
O53 O 0.42923 0.8393 0.61691 0.0
O54 O 0.38377 0.78645 0.61621 0.0
C55 C 0.38426 0.91035 0.67046 0.0
C56 C 0.32925 0.86131 0.57703 0.0
C57 C 0.32037 0.79567 0.67594 0.0
O58 O 0.40076 0.88249 0.67463 0.0
O59 O 0.36199 0.90582 0.6451 0.0
O60 O 0.31276 0.79581 0.64467 0.0
O61 O 0.35221 0.81879 0.68465 0.0
C62 C 0.4194 0.80197 0.61237 0.0
O63 O 0.31281 0.84401 0.60312 0.0
O64 O 0.36595 0.86954 0.57789 0.0
In65 In 0.85766 0.84926 0.87271 0.0
O66 O 0.89327 0.90574 0.8455 0.0
O67 O 0.83186 0.89357 0.84508 0.0
C68 C 0.91059 0.80683 0.88464 0.0
C69 C 0.83234 0.86982 0.93326 0.0
C70 C 0.81476 0.79827 0.82783 0.0
O71 O 0.91997 0.84214 0.87342 0.0
O72 O 0.87499 0.79377 0.89095 0.0
O73 O 0.80454 0.79998 0.8584 0.0
O74 O 0.84699 0.82148 0.82035 0.0
C75 C 0.86347 0.91584 0.83516 0.0
O76 O 0.81012 0.85087 0.91062 0.0
O77 O 0.8679 0.8782 0.92577 0.0
In78 In 0.13705 0.65405 0.87395 0.0
O79 O 0.16242 0.67817 0.9251 0.0
O80 O 0.1459 0.61539 0.91941 0.0
C81 C 0.19034 0.69686 0.8317 0.0
C82 C 0.12951 0.58708 0.83665 0.0
C83 C 0.08205 0.69576 0.87691 0.0
O84 O 0.19818 0.6914 0.86237 0.0
O85 O 0.1557 0.68157 0.82296 0.0
O86 O 0.07359 0.65853 0.88231 0.0
O87 O 0.11715 0.71065 0.87021 0.0
C88 C 0.16065 0.64473 0.93826 0.0
O89 O 0.09992 0.59773 0.84691 0.0
O90 O 0.16144 0.60876 0.84678 0.0
In91 In 0.82656 0.13894 0.66137 0.0
O92 O 0.86516 0.19892 0.64643 0.0
O93 O 0.88808 0.14838 0.64038 0.0
C94 C 0.80084 0.18055 0.70998 0.0
C95 C 0.78384 0.12748 0.60351 0.0
C96 C 0.82914 0.07425 0.69901 0.0
O97 O 0.83615 0.18116 0.70684 0.0
O98 O 0.77844 0.15783 0.68942 0.0
O99 O 0.7981 0.07937 0.68656 0.0
O100 O 0.85906 0.10093 0.69138 0.0
C101 C 0.89364 0.18576 0.63799 0.0
O102 O 0.8028 0.10302 0.61279 0.0
O103 O 0.7865 0.15655 0.6233 0.0
In104 In 0.17796 0.36025 0.67305 0.0
O105 O 0.20725 0.38906 0.62354 0.0
O106 O 0.20707 0.32916 0.63474 0.0
C107 C 0.16756 0.4267 0.70408 0.0
C108 C 0.11069 0.31058 0.65339 0.0
C109 C 0.21581 0.33192 0.72257 0.0
O110 O 0.1975 0.42636 0.68712 0.0
O111 O 0.1422 0.39395 0.70426 0.0
O112 O 0.17943 0.32271 0.71993 0.0
O113 O 0.23323 0.35688 0.70101 0.0
C114 C 0.21686 0.35786 0.61446 0.0
O115 O 0.1357 0.29994 0.67117 0.0
O116 O 0.11909 0.34718 0.64562 0.0
In117 In 0.63501 0.15479 0.37324 0.0
O118 O 0.60181 0.0962 0.34749 0.0
O119 O 0.66343 0.1118 0.34649 0.0
C120 C 0.5737 0.18626 0.3842 0.0
C121 C 0.66644 0.15181 0.43561 0.0
C122 C 0.67583 0.20041 0.32431 0.0
O123 O 0.56994 0.14897 0.38294 0.0
O124 O 0.60795 0.20688 0.38049 0.0
O125 O 0.69119 0.19325 0.35175 0.0
O126 O 0.63975 0.18558 0.32216 0.0
C127 C 0.6324 0.08786 0.33696 0.0
O128 O 0.67003 0.1835 0.41901 0.0
O129 O 0.6463 0.12098 0.42112 0.0
In130 In 0.64479 0.65078 0.62227 0.0
O131 O 0.5828 0.6575 0.61312 0.0
O132 O 0.62929 0.70952 0.6118 0.0
C133 C 0.62955 0.58114 0.65714 0.0
C134 C 0.67338 0.6347 0.56197 0.0
C135 C 0.69551 0.69361 0.6673 0.0
O136 O 0.61592 0.60993 0.66569 0.0
O137 O 0.64792 0.5862 0.62956 0.0
O138 O 0.70275 0.69444 0.63589 0.0
O139 O 0.66281 0.67207 0.67545 0.0
C140 C 0.59324 0.69495 0.60971 0.0
O141 O 0.6946 0.64849 0.58714 0.0
O142 O 0.63738 0.62928 0.56701 0.0
In143 In 0.67341 0.37923 0.84702 0.0
O144 O 0.63119 0.32066 0.85951 0.0
O145 O 0.60969 0.37253 0.86132 0.0
C146 C 0.7006 0.32902 0.80751 0.0
C147 C 0.66498 0.44033 0.80715 0.0
C148 C 0.71769 0.39288 0.90408 0.0
O149 O 0.6659 0.33133 0.80672 0.0
O150 O 0.72232 0.35303 0.82776 0.0
O151 O 0.72941 0.40996 0.87638 0.0
O152 O 0.68349 0.37146 0.90312 0.0
C153 C 0.60255 0.33507 0.86432 0.0
O154 O 0.67675 0.41127 0.7964 0.0
O155 O 0.65925 0.44005 0.8388 0.0
In156 In 0.33308 0.12144 0.85086 0.0
O157 O 0.39849 0.13008 0.85556 0.0
O158 O 0.37542 0.18019 0.86426 0.0
C159 C 0.29464 0.17209 0.82486 0.0
C160 C 0.33759 0.06703 0.80216 0.0
C161 C 0.2998 0.09942 0.91207 0.0
O162 O 0.33097 0.17802 0.823 0.0
O163 O 0.27744 0.14009 0.8394 0.0
O164 O 0.3352 0.11608 0.90839 0.0
O165 O 0.28133 0.09113 0.88458 0.0
C166 C 0.40511 0.16674 0.86275 0.0
O167 O 0.34672 0.063 0.83267 0.0
O168 O 0.325 0.09723 0.79675 0.0
In169 In 0.35984 0.35253 0.37879 0.0
O170 O 0.32369 0.33158 0.42565 0.0
O171 O 0.36088 0.39006 0.42718 0.0
C172 C 0.31301 0.30538 0.33371 0.0
C173 C 0.35611 0.41781 0.34297 0.0
C174 C 0.42124 0.32035 0.38716 0.0
O175 O 0.30342 0.30781 0.36433 0.0
O176 O 0.34671 0.32535 0.32637 0.0
O177 O 0.42529 0.35754 0.38448 0.0
O178 O 0.3866 0.30002 0.38623 0.0
C179 C 0.33548 0.36358 0.44216 0.0
O180 O 0.38683 0.40584 0.34426 0.0
O181 O 0.32887 0.39836 0.36122 0.0
In182 In 0.33072 0.63105 0.15624 0.0
O183 O 0.36629 0.69297 0.14317 0.0
O184 O 0.3918 0.64473 0.13363 0.0
C185 C 0.30205 0.66903 0.2056 0.0
C186 C 0.28376 0.61681 0.10073 0.0
C187 C 0.34589 0.57227 0.19517 0.0
O188 O 0.33527 0.68254 0.19311 0.0
O189 O 0.28376 0.63557 0.19409 0.0
O190 O 0.31194 0.57463 0.18845 0.0
O191 O 0.37218 0.59839 0.181 0.0
C192 C 0.3955 0.68199 0.13304 0.0
O193 O 0.30658 0.59526 0.10739 0.0
O194 O 0.2848 0.64416 0.12188 0.0
In195 In 0.67538 0.8718 0.15796 0.0
O196 O 0.67593 0.88835 0.10178 0.0
O197 O 0.7299 0.89 0.12517 0.0
C198 C 0.67033 0.93574 0.19605 0.0
C199 C 0.60993 0.81745 0.13958 0.0
C200 C 0.70736 0.82815 0.20055 0.0
O201 O 0.70109 0.93363 0.18121 0.0
O202 O 0.64185 0.90649 0.19053 0.0
O203 O 0.68188 0.84532 0.20996 0.0
O204 O 0.71706 0.83346 0.16982 0.0
C205 C 0.71199 0.89342 0.09816 0.0
O206 O 0.6407 0.80817 0.14773 0.0
O207 O 0.61213 0.85439 0.14037 0.0
H208 H 0.17841 0.20823 0.24037 0.0
H209 H 0.26006 0.26097 0.1624 0.0
H210 H 0.30583 0.29505 0.20575 0.0
H211 H 0.3232 0.30815 0.2657 0.0
H212 H 0.24165 0.25515 0.34365 0.0
H213 H 0.19529 0.22228 0.30025 0.0
C214 C 0.20603 0.22757 0.23284 0.0
C215 C 0.21585 0.23226 0.19829 0.0
C216 C 0.23235 0.24646 0.25784 0.0
C217 C 0.25184 0.25708 0.18888 0.0
C218 C 0.27807 0.27636 0.21363 0.0
C219 C 0.29537 0.28919 0.27319 0.0
C220 C 0.28589 0.28378 0.30776 0.0
C221 C 0.2688 0.27084 0.24816 0.0
C222 C 0.24961 0.25955 0.31714 0.0
C223 C 0.22308 0.24092 0.29238 0.0
H224 H 0.74873 0.27558 0.18705 0.0
H225 H 0.85451 0.28288 0.243 0.0
H226 H 0.81699 0.25409 0.29284 0.0
H227 H 0.75405 0.22657 0.3202 0.0
H228 H 0.64854 0.21994 0.26394 0.0
H229 H 0.68614 0.24932 0.21453 0.0
C230 C 0.76358 0.27066 0.21009 0.0
C231 C 0.80424 0.28103 0.21136 0.0
C232 C 0.74191 0.25462 0.23862 0.0
C233 C 0.82316 0.27491 0.24144 0.0
C234 C 0.80175 0.25861 0.26993 0.0
C235 C 0.73933 0.23189 0.29721 0.0
C236 C 0.69864 0.22119 0.29567 0.0
C237 C 0.76111 0.24844 0.26881 0.0
C238 C 0.67988 0.22802 0.26572 0.0
C239 C 0.70132 0.24465 0.23743 0.0
H240 H 0.32547 0.7483 0.21733 0.0
H241 H 0.2383 0.64239 0.24516 0.0
H242 H 0.20546 0.6825 0.2798 0.0
H243 H 0.20026 0.74779 0.30018 0.0
H244 H 0.28576 0.8541 0.2703 0.0
H245 H 0.32049 0.81365 0.23806 0.0
C246 C 0.29954 0.73398 0.23133 0.0
C247 C 0.28434 0.69252 0.22893 0.0
C248 C 0.28035 0.7573 0.2504 0.0
C249 C 0.25049 0.67431 0.24675 0.0
C250 C 0.23168 0.69721 0.26642 0.0
C251 C 0.22651 0.7621 0.28662 0.0
C252 C 0.24044 0.80381 0.28749 0.0
C253 C 0.24609 0.73875 0.26804 0.0
C254 C 0.27443 0.82201 0.26983 0.0
C255 C 0.29433 0.79892 0.25152 0.0
H256 H 0.75547 0.72117 0.31335 0.0
H257 H 0.82027 0.6904 0.22956 0.0
H258 H 0.79627 0.73537 0.19243 0.0
H259 H 0.75708 0.78355 0.18395 0.0
H260 H 0.69231 0.81422 0.26781 0.0
H261 H 0.71636 0.7693 0.30489 0.0
C262 C 0.76422 0.7242 0.28693 0.0
C263 C 0.78951 0.70249 0.27416 0.0
C264 C 0.75052 0.75022 0.26585 0.0
C265 C 0.80075 0.70679 0.23994 0.0
C266 C 0.78712 0.73254 0.21873 0.0
C267 C 0.74837 0.7805 0.21038 0.0
C268 C 0.72305 0.80218 0.22317 0.0
C269 C 0.7621 0.75448 0.23146 0.0
C270 C 0.71184 0.79786 0.25741 0.0
C271 C 0.7255 0.77214 0.27859 0.0
H272 H 0.33046 0.79244 0.74398 0.0
H273 H 0.24871 0.74756 0.66337 0.0
H274 H 0.20119 0.71325 0.70483 0.0
H275 H 0.18235 0.69765 0.76376 0.0
H276 H 0.26387 0.74141 0.84469 0.0
H277 H 0.31219 0.77486 0.80318 0.0
C278 C 0.30233 0.77491 0.73551 0.0
C279 C 0.293 0.77254 0.70075 0.0
C280 C 0.27513 0.75544 0.75947 0.0
C281 C 0.25652 0.74976 0.69004 0.0
C282 C 0.22932 0.73027 0.7137 0.0
C283 C 0.21066 0.71463 0.77234 0.0
C284 C 0.21954 0.71745 0.80715 0.0
C285 C 0.2382 0.73327 0.74845 0.0
C286 C 0.25642 0.73905 0.81795 0.0
C287 C 0.284 0.75807 0.79427 0.0
H288 H 0.68605 0.69068 0.73523 0.0
H289 H 0.7667 0.74463 0.65695 0.0
H290 H 0.8118 0.78041 0.70019 0.0
H291 H 0.82726 0.79745 0.76007 0.0
H292 H 0.74587 0.7439 0.838 0.0
H293 H 0.70206 0.70638 0.79488 0.0
C294 C 0.7135 0.71029 0.72759 0.0
C295 C 0.72302 0.71526 0.69299 0.0
C296 C 0.73911 0.7306 0.75247 0.0
C297 C 0.75873 0.7405 0.68346 0.0
C298 C 0.7845 0.76088 0.70815 0.0
C299 C 0.80007 0.77731 0.76762 0.0
C300 C 0.78974 0.7734 0.80212 0.0
C301 C 0.77487 0.75626 0.7427 0.0
C302 C 0.75441 0.74737 0.81158 0.0
C303 C 0.72934 0.72602 0.78696 0.0
H304 H 0.77158 0.31327 0.8087 0.0
H305 H 0.65877 0.2774 0.76132 0.0
H306 H 0.67918 0.22649 0.72867 0.0
H307 H 0.72921 0.19309 0.71264 0.0
H308 H 0.84261 0.22921 0.75873 0.0
H309 H 0.82166 0.27871 0.79323 0.0
C310 C 0.75157 0.29435 0.79115 0.0
C311 C 0.71384 0.29919 0.78728 0.0
C312 C 0.76345 0.265 0.77246 0.0
C313 C 0.68806 0.27435 0.76464 0.0
C314 C 0.69963 0.24515 0.74603 0.0
C315 C 0.74922 0.2115 0.7305 0.0
C316 C 0.78732 0.20752 0.73322 0.0
C317 C 0.73723 0.24026 0.7497 0.0
C318 C 0.81305 0.23173 0.75627 0.0
C319 C 0.80116 0.26013 0.77587 0.0
H320 H 0.18387 0.26876 0.76233 0.0
H321 H 0.2937 0.34685 0.73364 0.0
H322 H 0.32793 0.30506 0.76472 0.0
H323 H 0.32648 0.24339 0.79568 0.0
H324 H 0.2166 0.16411 0.82263 0.0
H325 H 0.18243 0.20937 0.79643 0.0
C326 C 0.2153 0.27699 0.76334 0.0
C327 C 0.23628 0.31067 0.74562 0.0
C328 C 0.2347 0.25235 0.78049 0.0
C329 C 0.27695 0.32097 0.74706 0.0
C330 C 0.29651 0.297 0.76465 0.0
C331 C 0.29505 0.23612 0.79597 0.0
C332 C 0.27403 0.20031 0.8107 0.0
C333 C 0.27566 0.2621 0.7807 0.0
C334 C 0.23338 0.19141 0.8112 0.0
C335 C 0.21385 0.21727 0.79628 0.0
H336 H 0.20479 0.99849 0.29084 0.0
H337 H 0.09861 0.9125 0.26459 0.0
H338 H 0.0841 0.95807 0.22191 0.0
H339 H 0.1033 0.02198 0.19022 0.0
H340 H 0.21263 0.10449 0.21427 0.0
H341 H 0.22414 0.06099 0.25932 0.0
C342 C 0.1783 0.98994 0.27599 0.0
C343 C 0.15272 0.95241 0.28094 0.0
C344 C 0.17083 0.01566 0.25081 0.0
C345 C 0.11877 0.94136 0.26118 0.0
C346 C 0.11048 0.96737 0.23676 0.0
C347 C 0.12947 0.03031 0.20547 0.0
C348 C 0.1571 0.06627 0.19882 0.0
C349 C 0.13653 0.00451 0.23103 0.0
C350 C 0.19106 0.07673 0.21863 0.0
C351 C 0.19768 0.05196 0.24454 0.0
H352 H 0.81279 0.42404 0.19975 0.0
H353 H 0.93534 0.47079 0.18304 0.0
H354 H 0.93664 0.52339 0.22529 0.0
H355 H 0.9024 0.55584 0.26706 0.0
H356 H 0.78021 0.50627 0.28432 0.0
H357 H 0.77944 0.45462 0.242 0.0
C358 C 0.83981 0.44591 0.20509 0.0
C359 C 0.87387 0.44383 0.18797 0.0
C360 C 0.84042 0.47527 0.22978 0.0
C361 C 0.9087 0.47196 0.19568 0.0
C362 C 0.90943 0.5019 0.21991 0.0
C363 C 0.87569 0.53355 0.26169 0.0
C364 C 0.84138 0.53493 0.27886 0.0
C365 C 0.87544 0.50376 0.23721 0.0
C366 C 0.80701 0.50586 0.2716 0.0
C367 C 0.8065 0.4764 0.24727 0.0
H368 H 0.22222 0.08072 0.92585 0.0
H369 H 0.33498 0.11474 0.97349 0.0
H370 H 0.30539 0.12554 0.02719 0.0
H371 H 0.24859 0.13212 0.05897 0.0
H372 H 0.13526 0.09752 0.01287 0.0
H373 H 0.16387 0.08011 0.96014 0.0
C374 C 0.24018 0.08961 0.94819 0.0
C375 C 0.28079 0.09725 0.94559 0.0
C376 C 0.22295 0.09634 0.97905 0.0
C377 C 0.3037 0.10882 0.97475 0.0
C378 C 0.28683 0.11526 0.00544 0.0
C379 C 0.23012 0.12057 0.03742 0.0
C380 C 0.19003 0.11674 0.03946 0.0
C381 C 0.24668 0.11034 0.00757 0.0
C382 C 0.16628 0.10096 0.0117 0.0
C383 C 0.18264 0.09106 0.98161 0.0
H384 H 0.84557 0.40265 0.01841 0.0
H385 H 0.75652 0.30302 0.05558 0.0
H386 H 0.71421 0.31026 0.00898 0.0
H387 H 0.70205 0.34375 0.9577 0.0
H388 H 0.79055 0.44109 0.91705 0.0
H389 H 0.83326 0.43625 0.96509 0.0
C390 C 0.81698 0.3825 0.01614 0.0
C391 C 0.80434 0.35231 0.04051 0.0
C392 C 0.79252 0.3866 0.98884 0.0
C393 C 0.76716 0.32644 0.03722 0.0
C394 C 0.74276 0.3306 0.0106 0.0
C395 C 0.73054 0.36426 0.95942 0.0
C396 C 0.74297 0.39298 0.93401 0.0
C397 C 0.75507 0.36054 0.98637 0.0
C398 C 0.78021 0.41887 0.93644 0.0
C399 C 0.80467 0.41596 0.96381 0.0
H400 H 0.35515 0.89011 0.5143 0.0
H401 H 0.25178 0.85368 0.57516 0.0
H402 H 0.21228 0.86502 0.52758 0.0
H403 H 0.20614 0.88029 0.46758 0.0
H404 H 0.30845 0.91389 0.40528 0.0
H405 H 0.3492 0.90939 0.45444 0.0
C406 C 0.32404 0.88498 0.51714 0.0
C407 C 0.30646 0.87074 0.54814 0.0
C408 C 0.30122 0.89113 0.4894 0.0
C409 C 0.26608 0.8643 0.55149 0.0
C410 C 0.24339 0.87085 0.5243 0.0
C411 C 0.23741 0.88735 0.46488 0.0
C412 C 0.25422 0.89736 0.43285 0.0
C413 C 0.26052 0.88362 0.49299 0.0
C414 C 0.29478 0.90612 0.42972 0.0
C415 C 0.3181 0.90333 0.45778 0.0
H416 H 0.74646 0.62846 0.55022 0.0
H417 H 0.63688 0.62054 0.50042 0.0
H418 H 0.66523 0.60955 0.4458 0.0
H419 H 0.72237 0.60657 0.41179 0.0
H420 H 0.83167 0.61393 0.46203 0.0
H421 H 0.80204 0.62007 0.51696 0.0
C422 C 0.72874 0.62417 0.52742 0.0
C423 C 0.68976 0.62578 0.52926 0.0
C424 C 0.74515 0.61761 0.49622 0.0
C425 C 0.66701 0.61961 0.49962 0.0
C426 C 0.68321 0.61334 0.4684 0.0
C427 C 0.73955 0.6089 0.43481 0.0
C428 C 0.77923 0.61 0.43278 0.0
C429 C 0.7224 0.61283 0.46633 0.0
C430 C 0.80108 0.613 0.46286 0.0
C431 C 0.78422 0.61675 0.49428 0.0
H432 H 0.99583 0.32218 0.1048 0.0
H433 H 0.90187 0.21783 0.12085 0.0
H434 H 0.94725 0.17572 0.12085 0.0
H435 H 0.01422 0.16857 0.11927 0.0
H436 H 0.10813 0.27249 0.10167 0.0
H437 H 0.06245 0.31432 0.09913 0.0
C438 C 0.98531 0.2902 0.10799 0.0
C439 C 0.94551 0.27332 0.113 0.0
C440 C 0.01165 0.26592 0.10784 0.0
C441 C 0.93234 0.23174 0.11697 0.0
C442 C 0.95831 0.20753 0.11707 0.0
C443 C 0.02462 0.2003 0.1146 0.0
C444 C 0.06456 0.21732 0.11085 0.0
C445 C 0.9981 0.22431 0.11298 0.0
C446 C 0.07753 0.25852 0.10465 0.0
C447 C 0.05141 0.28257 0.10328 0.0
H448 H 0.97232 0.67435 0.37445 0.0
H449 H 0.91353 0.76749 0.35839 0.0
H450 H 0.97471 0.81801 0.36448 0.0
H451 H 0.04565 0.83535 0.36868 0.0
H452 H 0.1048 0.74217 0.38278 0.0
H453 H 0.04279 0.69219 0.38371 0.0
C454 C 0.97288 0.70573 0.37271 0.0
C455 C 0.93858 0.71715 0.36562 0.0
C456 C 0.00825 0.73464 0.3758 0.0
C457 C 0.93964 0.75791 0.36358 0.0
C458 C 0.97461 0.78684 0.36704 0.0
C459 C 0.04491 0.80419 0.37259 0.0
C460 C 0.07971 0.79243 0.37539 0.0
C461 C 0.00922 0.77552 0.37234 0.0
C462 C 0.07835 0.75195 0.3804 0.0
C463 C 0.04293 0.72332 0.38079 0.0
H464 H 0.51452 0.67135 0.60328 0.0
H465 H 0.61026 0.77607 0.60807 0.0
H466 H 0.56531 0.81878 0.60698 0.0
H467 H 0.49842 0.82646 0.60847 0.0
H468 H 0.4028 0.72159 0.60362 0.0
H469 H 0.44787 0.6792 0.60061 0.0
C470 C 0.52553 0.70352 0.60377 0.0
C471 C 0.56568 0.72041 0.60598 0.0
C472 C 0.49947 0.72802 0.60322 0.0
C473 C 0.57948 0.7622 0.60646 0.0
C474 C 0.55377 0.78672 0.6059 0.0
C475 C 0.48749 0.79438 0.60631 0.0
C476 C 0.44728 0.7773 0.60646 0.0
C477 C 0.51365 0.76999 0.60482 0.0
C478 C 0.43361 0.73561 0.60365 0.0
C479 C 0.45938 0.71125 0.60202 0.0
H480 H 0.89199 0.05918 0.73098 0.0
H481 H 0.76788 0.01581 0.72075 0.0
H482 H 0.76782 0.96406 0.76264 0.0
H483 H 0.80248 0.93166 0.80254 0.0
H484 H 0.92666 0.97308 0.81269 0.0
H485 H 0.92723 0.02537 0.77062 0.0
C486 C 0.86498 0.03822 0.73778 0.0
C487 C 0.82996 0.04134 0.72271 0.0
C488 C 0.86513 0.00849 0.76205 0.0
C489 C 0.79522 0.01403 0.73185 0.0
C490 C 0.79513 0.98451 0.75591 0.0
C491 C 0.82973 0.95225 0.79575 0.0
C492 C 0.86447 0.94871 0.81094 0.0
C493 C 0.82983 0.98164 0.77131 0.0
C494 C 0.89951 0.97534 0.80151 0.0
C495 C 0.89983 0.00512 0.77739 0.0
H496 H 0.18709 0.57959 0.79548 0.0
H497 H 0.06922 0.52175 0.82236 0.0
H498 H 0.06986 0.46731 0.78235 0.0
H499 H 0.10541 0.43531 0.74123 0.0
H500 H 0.22263 0.4959 0.71386 0.0
H501 H 0.22061 0.55046 0.75239 0.0
C502 C 0.1615 0.55501 0.7927 0.0
C503 C 0.12833 0.55428 0.81222 0.0
C504 C 0.16197 0.52449 0.76944 0.0
C505 C 0.09516 0.52276 0.80777 0.0
C506 C 0.09557 0.49172 0.78491 0.0
C507 C 0.13034 0.46066 0.74349 0.0
C508 C 0.16423 0.46141 0.72479 0.0
C509 C 0.12898 0.49214 0.76579 0.0
C510 C 0.19623 0.49452 0.7279 0.0
C511 C 0.19517 0.52569 0.75005 0.0
H512 H 0.78853 0.90257 0.08391 0.0
H513 H 0.67686 0.8902 0.03644 0.0
H514 H 0.70485 0.88352 0.98095 0.0
H515 H 0.75957 0.87522 0.94661 0.0
H516 H 0.87175 0.88884 0.99315 0.0
H517 H 0.84512 0.90107 0.04832 0.0
C518 C 0.77049 0.8991 0.06134 0.0
C519 C 0.73059 0.89657 0.06436 0.0
C520 C 0.78676 0.89498 0.02943 0.0
C521 C 0.70762 0.8922 0.03487 0.0
C522 C 0.72356 0.88813 0.00311 0.0
C523 C 0.77824 0.88111 0.96881 0.0
C524 C 0.81741 0.88058 0.966 0.0
C525 C 0.76282 0.88844 1.00023 0.0
C526 C 0.84144 0.88891 0.99478 0.0
C527 C 0.82621 0.89584 0.02629 0.0
H528 H 0.19302 0.58611 0.96081 0.0
H529 H 0.1664 0.69601 0.99085 0.0
H530 H 0.1999 0.69507 0.04481 0.0
H531 H 0.2402 0.66595 0.08151 0.0
H532 H 0.27187 0.55877 0.05109 0.0
H533 H 0.23294 0.55557 0.99911 0.0
C534 C 0.19412 0.60942 0.97949 0.0
C535 C 0.17719 0.64102 0.97206 0.0
C536 C 0.21464 0.60939 0.01009 0.0
C537 C 0.17926 0.67144 0.99609 0.0
C538 C 0.19846 0.67096 0.02687 0.0
C539 C 0.23845 0.64164 0.06368 0.0
C540 C 0.25896 0.61266 0.07008 0.0
C541 C 0.21685 0.64055 0.03382 0.0
C542 C 0.2564 0.58148 0.04666 0.0
C543 C 0.23417 0.57968 0.01698 0.0
H544 H 0.68941 0.09036 0.46554 0.0
H545 H 0.68674 0.21312 0.4799 0.0
H546 H 0.72162 0.21562 0.5335 0.0
H547 H 0.7546 0.18415 0.57519 0.0
H548 H 0.76182 0.06288 0.56056 0.0
H549 H 0.72361 0.0585 0.50806 0.0
C550 C 0.6962 0.11744 0.48067 0.0
C551 C 0.68539 0.15147 0.46894 0.0
C552 C 0.7173 0.11902 0.51117 0.0
C553 C 0.69479 0.18659 0.48842 0.0
C554 C 0.71476 0.18806 0.51904 0.0
C555 C 0.74773 0.15663 0.56063 0.0
C556 C 0.7609 0.12384 0.57176 0.0
C557 C 0.72646 0.15464 0.53046 0.0
C558 C 0.75204 0.08856 0.55244 0.0
C559 C 0.73015 0.08606 0.52249 0.0
H560 H 0.2625 0.41675 0.57537 0.0
H561 H 0.21695 0.28924 0.58223 0.0
H562 H 0.25045 0.27986 0.53032 0.0
H563 H 0.29192 0.30734 0.48264 0.0
H564 H 0.3405 0.43423 0.47558 0.0
H565 H 0.30713 0.44442 0.52798 0.0
C566 C 0.25989 0.38703 0.56532 0.0
C567 C 0.23711 0.35377 0.58248 0.0
C568 C 0.28 0.38168 0.53559 0.0
C569 C 0.23432 0.31533 0.5695 0.0
C570 C 0.25348 0.30989 0.53981 0.0
C571 C 0.2954 0.33724 0.49265 0.0
C572 C 0.31851 0.36996 0.47527 0.0
C573 C 0.27636 0.34277 0.52267 0.0
C574 C 0.32296 0.40851 0.48865 0.0
C575 C 0.30371 0.41435 0.51848 0.0
H576 H 0.00514 0.67493 0.8953 0.0
H577 H 0.09648 0.77396 0.86079 0.0
H578 H 0.05239 0.81719 0.86148 0.0
H579 H 0.98761 0.82717 0.87048 0.0
H580 H 0.89555 0.72914 0.90508 0.0
H581 H 0.93999 0.68569 0.90602 0.0
C582 C 0.01529 0.70595 0.88797 0.0
C583 C 0.05405 0.721 0.87789 0.0
C584 C 0.98965 0.73105 0.88851 0.0
C585 C 0.0668 0.76141 0.86862 0.0
C586 C 0.0416 0.78631 0.869 0.0
C587 C 0.97733 0.79639 0.87847 0.0
C588 C 0.93834 0.7815 0.88767 0.0
C589 C 1.00295 0.77149 0.87876 0.0
C590 C 0.92549 0.74146 0.89792 0.0
C591 C 0.95086 0.71649 0.89836 0.0
H592 H 0.04337 0.327 0.63293 0.0
H593 H 0.09592 0.23006 0.65326 0.0
H594 H 0.03369 0.18191 0.64501 0.0
H595 H 0.96324 0.16784 0.63882 0.0
H596 H 0.90952 0.26474 0.62257 0.0
H597 H 0.97313 0.31223 0.62179 0.0
C598 C 0.0412 0.2953 0.63497 0.0
C599 C 0.07396 0.28207 0.64403 0.0
C600 C 0.00505 0.26774 0.63108 0.0
C601 C 0.0709 0.24095 0.64669 0.0
C602 C 0.03536 0.21337 0.64196 0.0
C603 C 0.96555 0.19923 0.63435 0.0
C604 C 0.93186 0.21284 0.63097 0.0
C605 C 1.00205 0.22648 0.63513 0.0
C606 C 0.93516 0.25362 0.62541 0.0
C607 C 0.97148 0.28081 0.62511 0.0
H608 H 0.57715 0.26529 0.38655 0.0
H609 H 0.49642 0.14937 0.38994 0.0
H610 H 0.44222 0.18084 0.39265 0.0
H611 H 0.41778 0.24127 0.39162 0.0
H612 H 0.49869 0.35706 0.38739 0.0
H613 H 0.5529 0.32562 0.38758 0.0
C614 C 0.54771 0.24685 0.38809 0.0
C615 C 0.54083 0.20498 0.38794 0.0
C616 C 0.51676 0.26516 0.38938 0.0
C617 C 0.50251 0.18161 0.38999 0.0
C618 C 0.47152 0.19961 0.39148 0.0
C619 C 0.44729 0.25967 0.39096 0.0
C620 C 0.45418 0.30151 0.3894 0.0
C621 C 0.47829 0.24135 0.39083 0.0
C622 C 0.49258 0.32486 0.38858 0.0
C623 C 0.52358 0.30687 0.38863 0.0
H624 H 0.61836 0.57839 0.72547 0.0
H625 H 0.64621 0.51092 0.6412 0.0
H626 H 0.65968 0.46151 0.68041 0.0
H627 H 0.6672 0.43958 0.73851 0.0
H628 H 0.64099 0.50732 0.82327 0.0
H629 H 0.62371 0.5549 0.78401 0.0
C630 C 0.6266 0.55242 0.71569 0.0
C631 C 0.631 0.54813 0.68045 0.0
C632 C 0.63536 0.52469 0.73848 0.0
C633 C 0.64239 0.51474 0.66818 0.0
C634 C 0.65038 0.48665 0.6906 0.0
C635 C 0.65782 0.46482 0.74846 0.0
C636 C 0.65575 0.47013 0.78379 0.0
C637 C 0.64773 0.49177 0.72579 0.0
C638 C 0.64314 0.50276 0.7962 0.0
C639 C 0.63308 0.52983 0.77375 0.0
H640 H 0.38259 0.0139 0.80229 0.0
H641 H 0.30582 0.06121 0.73912 0.0
H642 H 0.31623 0.0195 0.69186 0.0
H643 H 0.34551 0.96827 0.66886 0.0
H644 H 0.4227 0.92075 0.73132 0.0
H645 H 0.41453 0.96447 0.77812 0.0
C646 C 0.36801 0.01485 0.77822 0.0
C647 C 0.34313 0.04026 0.77433 0.0
C648 C 0.37462 0.99117 0.75086 0.0
C649 C 0.32493 0.04171 0.74283 0.0
C650 C 0.33098 0.01799 0.71573 0.0
C651 C 0.36104 0.96789 0.69253 0.0
C652 C 0.38472 0.94132 0.69656 0.0
C653 C 0.35569 0.99258 0.71946 0.0
C654 C 0.40448 0.9411 0.72747 0.0
C655 C 0.39955 0.96585 0.75435 0.0
H656 H 0.42549 0.24681 0.87212 0.0
H657 H 0.47312 0.14442 0.86298 0.0
H658 H 0.53872 0.18777 0.86573 0.0
H659 H 0.58216 0.25471 0.86672 0.0
H660 H 0.535 0.35758 0.8735 0.0
H661 H 0.46934 0.31394 0.87609 0.0
C662 C 0.45025 0.23397 0.87106 0.0
C663 C 0.44456 0.19253 0.86716 0.0
C664 C 0.48782 0.25911 0.87215 0.0
C665 C 0.47681 0.17626 0.86583 0.0
C666 C 0.51429 0.20101 0.86738 0.0
C667 C 0.55756 0.26762 0.86915 0.0
C668 C 0.56332 0.30927 0.86977 0.0
C669 C 0.52008 0.24247 0.86995 0.0
C670 C 0.53122 0.32557 0.87293 0.0
C671 C 0.49373 0.30066 0.8743 0.0
H672 H 0.29684 0.53019 0.24182 0.0
H673 H 0.41414 0.55149 0.20525 0.0
H674 H 0.4286 0.50677 0.24869 0.0
H675 H 0.40741 0.461 0.29706 0.0
H676 H 0.29045 0.44263 0.33431 0.0
H677 H 0.2766 0.48712 0.29101 0.0
C678 C 0.32549 0.5248 0.24318 0.0
C679 C 0.35423 0.54369 0.22013 0.0
C680 C 0.3338 0.49988 0.26864 0.0
C681 C 0.39143 0.53701 0.22259 0.0
C682 C 0.39975 0.51158 0.2475 0.0
C683 C 0.37907 0.46714 0.29589 0.0
C684 C 0.35006 0.4485 0.31894 0.0
C685 C 0.37116 0.49289 0.27076 0.0
C686 C 0.3134 0.45664 0.31701 0.0
C687 C 0.30532 0.48194 0.29211 0.0
H688 H 0.69343 0.0778 0.30074 0.0
H689 H 0.57163 0.02589 0.31738 0.0
H690 H 0.57233 0.97463 0.27447 0.0
H691 H 0.60788 0.94484 0.23212 0.0
H692 H 0.72931 0.99873 0.21497 0.0
H693 H 0.7283 0.04931 0.25796 0.0
C694 C 0.66704 0.05509 0.29521 0.0
C695 C 0.63258 0.05538 0.31248 0.0
C696 C 0.66755 0.02636 0.27017 0.0
C697 C 0.59856 0.02613 0.3046 0.0
C698 C 0.59895 0.99694 0.28 0.0
C699 C 0.63405 0.96783 0.23765 0.0
C700 C 0.66864 0.96802 0.22031 0.0
C701 C 0.63328 0.99687 0.26252 0.0
C702 C 0.7023 0.99795 0.22782 0.0
C703 C 0.70179 0.02679 0.25252 0.0
H704 H 0.5391 0.82976 0.12643 0.0
H705 H 0.59942 0.73691 0.13632 0.0
H706 H 0.53829 0.68613 0.13064 0.0
H707 H 0.46707 0.6683 0.12894 0.0
H708 H 0.40672 0.76138 0.12173 0.0
H709 H 0.46839 0.81176 0.1197 0.0
C710 C 0.53889 0.79841 0.1269 0.0
C711 C 0.57361 0.7871 0.13215 0.0
C712 C 0.50358 0.76937 0.12418 0.0
C713 C 0.57298 0.74638 0.13256 0.0
C714 C 0.53804 0.7173 0.12934 0.0
C715 C 0.46748 0.69954 0.12621 0.0
C716 C 0.43248 0.71116 0.12572 0.0
C717 C 0.50306 0.72846 0.12599 0.0
C718 C 0.43336 0.75175 0.12236 0.0
C719 C 0.4686 0.78059 0.12133 0.0
loop_
_geom_bond_atom_site_label_1
_geom_bond_atom_site_label_2
_geom_bond_distance
_geom_bond_site_symmetry_2
_ccdc_geom_bond_type
In0 O1 2.294 . S
In0 O2 2.326 . S
In0 O6 2.266 . S
In0 O7 2.326 . S
In0 O8 2.266 . S
In0 O9 2.326 . S
In0 O11 2.294 . S
In0 O12 2.326 . S
O1 In0 2.294 . S
O1 C10 1.240 . S
O2 In0 2.326 . S
O2 C10 1.252 . S
C3 O6 1.252 . S
C3 O7 1.260 . S
C4 O11 1.240 . S
C4 O12 1.252 . S
C5 O8 1.252 . S
C5 O9 1.260 . S
O6 In0 2.266 . S
O6 C3 1.252 . S
O7 In0 2.326 . S
O7 C3 1.260 . S
O8 In0 2.266 . S
O8 C5 1.252 . S
O9 In0 2.326 . S
O9 C5 1.260 . S
C10 O1 1.240 . S
C10 O2 1.252 . S
O11 In0 2.294 . S
O11 C4 1.240 . S
O12 In0 2.326 . S
O12 C4 1.252 . S
In13 O14 2.294 . S
In13 O15 2.326 . S
In13 O19 2.266 . S
In13 O20 2.326 . S
In13 O21 2.266 . S
In13 O22 2.326 . S
In13 O24 2.294 . S
In13 O25 2.326 . S
O14 In13 2.294 . S
O14 C23 1.240 . S
O15 In13 2.326 . S
O15 C23 1.252 . S
C16 O19 1.252 . S
C16 O20 1.260 . S
C17 O24 1.240 . S
C17 O25 1.252 . S
C18 O21 1.252 . S
C18 O22 1.260 . S
O19 In13 2.266 . S
O19 C16 1.252 . S
O20 In13 2.326 . S
O20 C16 1.260 . S
O21 In13 2.266 . S
O21 C18 1.252 . S
O22 In13 2.326 . S
O22 C18 1.260 . S
C23 O14 1.240 . S
C23 O15 1.252 . S
O24 In13 2.294 . S
O24 C17 1.240 . S
O25 In13 2.326 . S
O25 C17 1.252 . S
In26 O27 2.294 . S
In26 O28 2.326 . S
In26 O32 2.266 . S
In26 O33 2.326 . S
In26 O34 2.266 . S
In26 O35 2.326 . S
In26 O37 2.294 . S
In26 O38 2.326 . S
O27 In26 2.294 . S
O27 C36 1.240 . S
O28 In26 2.326 . S
O28 C36 1.252 . S
C29 O32 1.252 . S
C29 O33 1.260 . S
C30 O37 1.240 . S
C30 O38 1.252 . S
C31 O34 1.252 . S
C31 O35 1.260 . S
O32 In26 2.266 . S
O32 C29 1.252 . S
O33 In26 2.326 . S
O33 C29 1.260 . S
O34 In26 2.266 . S
O34 C31 1.252 . S
O35 In26 2.326 . S
O35 C31 1.260 . S
C36 O27 1.240 . S
C36 O28 1.252 . S
O37 In26 2.294 . S
O37 C30 1.240 . S
O38 In26 2.326 . S
O38 C30 1.252 . S
In39 O40 2.294 . S
In39 O41 2.326 . S
In39 O45 2.266 . S
In39 O46 2.326 . S
In39 O47 2.266 . S
In39 O48 2.326 . S
In39 O50 2.294 . S
In39 O51 2.326 . S
O40 In39 2.294 . S
O40 C49 1.240 . S
O41 In39 2.326 . S
O41 C49 1.252 . S
C42 O45 1.252 . S
C42 O46 1.260 . S
C43 O50 1.240 . S
C43 O51 1.252 . S
C44 O47 1.252 . S
C44 O48 1.260 . S
O45 In39 2.266 . S
O45 C42 1.252 . S
O46 In39 2.326 . S
O46 C42 1.260 . S
O47 In39 2.266 . S
O47 C44 1.252 . S
O48 In39 2.326 . S
O48 C44 1.260 . S
C49 O40 1.240 . S
C49 O41 1.252 . S
O50 In39 2.294 . S
O50 C43 1.240 . S
O51 In39 2.326 . S
O51 C43 1.252 . S
In52 O53 2.294 . S
In52 O54 2.326 . S
In52 O58 2.266 . S
In52 O59 2.326 . S
In52 O60 2.266 . S
In52 O61 2.326 . S
In52 O63 2.294 . S
In52 O64 2.326 . S
O53 In52 2.294 . S
O53 C62 1.240 . S
O54 In52 2.326 . S
O54 C62 1.252 . S
C55 O58 1.252 . S
C55 O59 1.260 . S
C56 O63 1.240 . S
C56 O64 1.252 . S
C57 O60 1.252 . S
C57 O61 1.260 . S
O58 In52 2.266 . S
O58 C55 1.252 . S
O59 In52 2.326 . S
O59 C55 1.260 . S
O60 In52 2.266 . S
O60 C57 1.252 . S
O61 In52 2.326 . S
O61 C57 1.260 . S
C62 O53 1.240 . S
C62 O54 1.252 . S
O63 In52 2.294 . S
O63 C56 1.240 . S
O64 In52 2.326 . S
O64 C56 1.252 . S
In65 O66 2.294 . S
In65 O67 2.326 . S
In65 O71 2.266 . S
In65 O72 2.326 . S
In65 O73 2.266 . S
In65 O74 2.326 . S
In65 O76 2.294 . S
In65 O77 2.326 . S
O66 In65 2.294 . S
O66 C75 1.240 . S
O67 In65 2.326 . S
O67 C75 1.252 . S
C68 O71 1.252 . S
C68 O72 1.260 . S
C69 O76 1.240 . S
C69 O77 1.252 . S
C70 O73 1.252 . S
C70 O74 1.260 . S
O71 In65 2.266 . S
O71 C68 1.252 . S
O72 In65 2.326 . S
O72 C68 1.260 . S
O73 In65 2.266 . S
O73 C70 1.252 . S
O74 In65 2.326 . S
O74 C70 1.260 . S
C75 O66 1.240 . S
C75 O67 1.252 . S
O76 In65 2.294 . S
O76 C69 1.240 . S
O77 In65 2.326 . S
O77 C69 1.252 . S
In78 O79 2.294 . S
In78 O80 2.326 . S
In78 O84 2.266 . S
In78 O85 2.326 . S
In78 O86 2.266 . S
In78 O87 2.326 . S
In78 O89 2.294 . S
In78 O90 2.326 . S
O79 In78 2.294 . S
O79 C88 1.240 . S
O80 In78 2.326 . S
O80 C88 1.252 . S
C81 O84 1.252 . S
C81 O85 1.260 . S
C82 O89 1.240 . S
C82 O90 1.252 . S
C83 O86 1.252 . S
C83 O87 1.260 . S
O84 In78 2.266 . S
O84 C81 1.252 . S
O85 In78 2.326 . S
O85 C81 1.260 . S
O86 In78 2.266 . S
O86 C83 1.252 . S
O87 In78 2.326 . S
O87 C83 1.260 . S
C88 O79 1.240 . S
C88 O80 1.252 . S
O89 In78 2.294 . S
O89 C82 1.240 . S
O90 In78 2.326 . S
O90 C82 1.252 . S
In91 O92 2.294 . S
In91 O93 2.326 . S
In91 O97 2.266 . S
In91 O98 2.326 . S
In91 O99 2.266 . S
In91 O100 2.326 . S
In91 O102 2.294 . S
In91 O103 2.326 . S
O92 In91 2.294 . S
O92 C101 1.240 . S
O93 In91 2.326 . S
O93 C101 1.252 . S
C94 O97 1.252 . S
C94 O98 1.260 . S
C95 O102 1.240 . S
C95 O103 1.252 . S
C96 O99 1.252 . S
C96 O100 1.260 . S
O97 In91 2.266 . S
O97 C94 1.252 . S
O98 In91 2.326 . S
O98 C94 1.260 . S
O99 In91 2.266 . S
O99 C96 1.252 . S
O100 In91 2.326 . S
O100 C96 1.260 . S
C101 O92 1.240 . S
C101 O93 1.252 . S
O102 In91 2.294 . S
O102 C95 1.240 . S
O103 In91 2.326 . S
O103 C95 1.252 . S
In104 O105 2.294 . S
In104 O106 2.326 . S
In104 O110 2.266 . S
In104 O111 2.326 . S
In104 O112 2.266 . S
In104 O113 2.326 . S
In104 O115 2.294 . S
In104 O116 2.326 . S
O105 In104 2.294 . S
O105 C114 1.240 . S
O106 In104 2.326 . S
O106 C114 1.252 . S
C107 O110 1.252 . S
C107 O111 1.260 . S
C108 O115 1.240 . S
C108 O116 1.252 . S
C109 O112 1.252 . S
C109 O113 1.260 . S
O110 In104 2.266 . S
O110 C107 1.252 . S
O111 In104 2.326 . S
O111 C107 1.260 . S
O112 In104 2.266 . S
O112 C109 1.252 . S
O113 In104 2.326 . S
O113 C109 1.260 . S
C114 O105 1.240 . S
C114 O106 1.252 . S
O115 In104 2.294 . S
O115 C108 1.240 . S
O116 In104 2.326 . S
O116 C108 1.252 . S
In117 O118 2.294 . S
In117 O119 2.326 . S
In117 O123 2.266 . S
In117 O124 2.326 . S
In117 O125 2.266 . S
In117 O126 2.326 . S
In117 O128 2.294 . S
In117 O129 2.326 . S
O118 In117 2.294 . S
O118 C127 1.240 . S
O119 In117 2.326 . S
O119 C127 1.252 . S
C120 O123 1.252 . S
C120 O124 1.260 . S
C121 O128 1.240 . S
C121 O129 1.252 . S
C122 O125 1.252 . S
C122 O126 1.260 . S
O123 In117 2.266 . S
O123 C120 1.252 . S
O124 In117 2.326 . S
O124 C120 1.260 . S
O125 In117 2.266 . S
O125 C122 1.252 . S
O126 In117 2.326 . S
O126 C122 1.260 . S
C127 O118 1.240 . S
C127 O119 1.252 . S
O128 In117 2.294 . S
O128 C121 1.240 . S
O129 In117 2.326 . S
O129 C121 1.252 . S
In130 O131 2.294 . S
In130 O132 2.326 . S
In130 O136 2.266 . S
In130 O137 2.326 . S
In130 O138 2.266 . S
In130 O139 2.326 . S
In130 O141 2.294 . S
In130 O142 2.326 . S
O131 In130 2.294 . S
O131 C140 1.240 . S
O132 In130 2.326 . S
O132 C140 1.252 . S
C133 O136 1.252 . S
C133 O137 1.260 . S
C134 O141 1.240 . S
C134 O142 1.252 . S
C135 O138 1.252 . S
C135 O139 1.260 . S
O136 In130 2.266 . S
O136 C133 1.252 . S
O137 In130 2.326 . S
O137 C133 1.260 . S
O138 In130 2.266 . S
O138 C135 1.252 . S
O139 In130 2.326 . S
O139 C135 1.260 . S
C140 O131 1.240 . S
C140 O132 1.252 . S
O141 In130 2.294 . S
O141 C134 1.240 . S
O142 In130 2.326 . S
O142 C134 1.252 . S
In143 O144 2.294 . S
In143 O145 2.326 . S
In143 O149 2.266 . S
In143 O150 2.326 . S
In143 O151 2.266 . S
In143 O152 2.326 . S
In143 O154 2.294 . S
In143 O155 2.326 . S
O144 In143 2.294 . S
O144 C153 1.240 . S
O145 In143 2.326 . S
O145 C153 1.252 . S
C146 O149 1.252 . S
C146 O150 1.260 . S
C147 O154 1.240 . S
C147 O155 1.252 . S
C148 O151 1.252 . S
C148 O152 1.260 . S
O149 In143 2.266 . S
O149 C146 1.252 . S
O150 In143 2.326 . S
O150 C146 1.260 . S
O151 In143 2.266 . S
O151 C148 1.252 . S
O152 In143 2.326 . S
O152 C148 1.260 . S
C153 O144 1.240 . S
C153 O145 1.252 . S
O154 In143 2.294 . S
O154 C147 1.240 . S
O155 In143 2.326 . S
O155 C147 1.252 . S
In156 O157 2.294 . S
In156 O158 2.326 . S
In156 O162 2.266 . S
In156 O163 2.326 . S
In156 O164 2.266 . S
In156 O165 2.326 . S
In156 O167 2.294 . S
In156 O168 2.326 . S
O157 In156 2.294 . S
O157 C166 1.240 . S
O158 In156 2.326 . S
O158 C166 1.252 . S
C159 O162 1.252 . S
C159 O163 1.260 . S
C160 O167 1.240 . S
C160 O168 1.252 . S
C161 O164 1.252 . S
C161 O165 1.260 . S
O162 In156 2.266 . S
O162 C159 1.252 . S
O163 In156 2.326 . S
O163 C159 1.260 . S
O164 In156 2.266 . S
O164 C161 1.252 . S
O165 In156 2.326 . S
O165 C161 1.260 . S
C166 O157 1.240 . S
C166 O158 1.252 . S
O167 In156 2.294 . S
O167 C160 1.240 . S
O168 In156 2.326 . S
O168 C160 1.252 . S
In169 O170 2.294 . S
In169 O171 2.326 . S
In169 O175 2.266 . S
In169 O176 2.326 . S
In169 O177 2.266 . S
In169 O178 2.326 . S
In169 O180 2.294 . S
In169 O181 2.326 . S
O170 In169 2.294 . S
O170 C179 1.240 . S
O171 In169 2.326 . S
O171 C179 1.252 . S
C172 O175 1.252 . S
C172 O176 1.260 . S
C173 O180 1.240 . S
C173 O181 1.252 . S
C174 O177 1.252 . S
C174 O178 1.260 . S
O175 In169 2.266 . S
O175 C172 1.252 . S
O176 In169 2.326 . S
O176 C172 1.260 . S
O177 In169 2.266 . S
O177 C174 1.252 . S
O178 In169 2.326 . S
O178 C174 1.260 . S
C179 O170 1.240 . S
C179 O171 1.252 . S
O180 In169 2.294 . S
O180 C173 1.240 . S
O181 In169 2.326 . S
O181 C173 1.252 . S
In182 O183 2.294 . S
In182 O184 2.326 . S
In182 O188 2.266 . S
In182 O189 2.326 . S
In182 O190 2.266 . S
In182 O191 2.326 . S
In182 O193 2.294 . S
In182 O194 2.326 . S
O183 In182 2.294 . S
O183 C192 1.240 . S
O184 In182 2.326 . S
O184 C192 1.252 . S
C185 O188 1.252 . S
C185 O189 1.260 . S
C186 O193 1.240 . S
C186 O194 1.252 . S
C187 O190 1.252 . S
C187 O191 1.260 . S
O188 In182 2.266 . S
O188 C185 1.252 . S
O189 In182 2.326 . S
O189 C185 1.260 . S
O190 In182 2.266 . S
O190 C187 1.252 . S
O191 In182 2.326 . S
O191 C187 1.260 . S
C192 O183 1.240 . S
C192 O184 1.252 . S
O193 In182 2.294 . S
O193 C186 1.240 . S
O194 In182 2.326 . S
O194 C186 1.252 . S
In195 O196 2.294 . S
In195 O197 2.326 . S
In195 O201 2.266 . S
In195 O202 2.326 . S
In195 O203 2.266 . S
In195 O204 2.326 . S
In195 O206 2.294 . S
In195 O207 2.326 . S
O196 In195 2.294 . S
O196 C205 1.240 . S
O197 In195 2.326 . S
O197 C205 1.252 . S
C198 O201 1.252 . S
C198 O202 1.260 . S
C199 O206 1.240 . S
C199 O207 1.252 . S
C200 O203 1.252 . S
C200 O204 1.260 . S
O201 In195 2.266 . S
O201 C198 1.252 . S
O202 In195 2.326 . S
O202 C198 1.260 . S
O203 In195 2.266 . S
O203 C200 1.252 . S
O204 In195 2.326 . S
O204 C200 1.260 . S
C205 O196 1.240 . S
C205 O197 1.252 . S
O206 In195 2.294 . S
O206 C199 1.240 . S
O207 In195 2.326 . S
O207 C199 1.252 . S
H208 C214 0.930 . S
H209 C217 0.930 . S
H210 C218 0.930 . S
H211 C219 0.930 . S
H212 C222 0.930 . S
H213 C223 0.930 . S
C214 H208 0.930 . S
C214 C215 1.355 . S
C214 C216 1.415 . S
C215 C214 1.355 . S
C215 C217 1.419 . S
C216 C214 1.415 . S
C216 C221 1.425 . S
C216 C223 1.409 . S
C217 H209 0.930 . S
C217 C215 1.419 . S
C217 C218 1.362 . S
C218 H210 0.930 . S
C218 C217 1.362 . S
C218 C221 1.409 . S
C219 H211 0.930 . S
C219 C220 1.355 . S
C219 C221 1.415 . S
C220 C219 1.355 . S
C220 C222 1.419 . S
C221 C216 1.425 . S
C221 C218 1.409 . S
C221 C219 1.415 . S
C222 H212 0.930 . S
C222 C220 1.419 . S
C222 C223 1.362 . S
C223 H213 0.930 . S
C223 C216 1.409 . S
C223 C222 1.362 . S
H224 C230 0.930 . S
H225 C233 0.930 . S
H226 C234 0.930 . S
H227 C235 0.930 . S
H228 C238 0.930 . S
H229 C239 0.930 . S
C230 H224 0.930 . S
C230 C231 1.355 . S
C230 C232 1.415 . S
C231 C230 1.355 . S
C231 C233 1.419 . S
C232 C230 1.415 . S
C232 C237 1.425 . S
C232 C239 1.409 . S
C233 H225 0.930 . S
C233 C231 1.419 . S
C233 C234 1.362 . S
C234 H226 0.930 . S
C234 C233 1.362 . S
C234 C237 1.409 . S
C235 H227 0.930 . S
C235 C236 1.355 . S
C235 C237 1.415 . S
C236 C235 1.355 . S
C236 C238 1.419 . S
C237 C232 1.425 . S
C237 C234 1.409 . S
C237 C235 1.415 . S
C238 H228 0.930 . S
C238 C236 1.419 . S
C238 C239 1.362 . S
C239 H229 0.930 . S
C239 C232 1.409 . S
C239 C238 1.362 . S
H240 C246 0.930 . S
H241 C249 0.930 . S
H242 C250 0.930 . S
H243 C251 0.930 . S
H244 C254 0.930 . S
H245 C255 0.930 . S
C246 H240 0.930 . S
C246 C247 1.355 . S
C246 C248 1.415 . S
C247 C246 1.355 . S
C247 C249 1.419 . S
C248 C246 1.415 . S
C248 C253 1.425 . S
C248 C255 1.409 . S
C249 H241 0.930 . S
C249 C247 1.419 . S
C249 C250 1.362 . S
C250 H242 0.930 . S
C250 C249 1.362 . S
C250 C253 1.409 . S
C251 H243 0.930 . S
C251 C252 1.355 . S
C251 C253 1.415 . S
C252 C251 1.355 . S
C252 C254 1.419 . S
C253 C248 1.425 . S
C253 C250 1.409 . S
C253 C251 1.415 . S
C254 H244 0.930 . S
C254 C252 1.419 . S
C254 C255 1.362 . S
C255 H245 0.930 . S
C255 C248 1.409 . S
C255 C254 1.362 . S
H256 C262 0.930 . S
H257 C265 0.930 . S
H258 C266 0.930 . S
H259 C267 0.930 . S
H260 C270 0.930 . S
H261 C271 0.930 . S
C262 H256 0.930 . S
C262 C263 1.355 . S
C262 C264 1.415 . S
C263 C262 1.355 . S
C263 C265 1.419 . S
C264 C262 1.415 . S
C264 C269 1.425 . S
C264 C271 1.409 . S
C265 H257 0.930 . S
C265 C263 1.419 . S
C265 C266 1.362 . S
C266 H258 0.930 . S
C266 C265 1.362 . S
C266 C269 1.409 . S
C267 H259 0.930 . S
C267 C268 1.355 . S
C267 C269 1.415 . S
C268 C267 1.355 . S
C268 C270 1.419 . S
C269 C264 1.425 . S
C269 C266 1.409 . S
C269 C267 1.415 . S
C270 H260 0.930 . S
C270 C268 1.419 . S
C270 C271 1.362 . S
C271 H261 0.930 . S
C271 C264 1.409 . S
C271 C270 1.362 . S
H272 C278 0.930 . S
H273 C281 0.930 . S
H274 C282 0.930 . S
H275 C283 0.930 . S
H276 C286 0.930 . S
H277 C287 0.930 . S
C278 H272 0.930 . S
C278 C279 1.355 . S
C278 C280 1.415 . S
C279 C278 1.355 . S
C279 C281 1.419 . S
C280 C278 1.415 . S
C280 C285 1.425 . S
C280 C287 1.409 . S
C281 H273 0.930 . S
C281 C279 1.419 . S
C281 C282 1.362 . S
C282 H274 0.930 . S
C282 C281 1.362 . S
C282 C285 1.409 . S
C283 H275 0.930 . S
C283 C284 1.355 . S
C283 C285 1.415 . S
C284 C283 1.355 . S
C284 C286 1.419 . S
C285 C280 1.425 . S
C285 C282 1.409 . S
C285 C283 1.415 . S
C286 H276 0.930 . S
C286 C284 1.419 . S
C286 C287 1.362 . S
C287 H277 0.930 . S
C287 C280 1.409 . S
C287 C286 1.362 . S
H288 C294 0.930 . S
H289 C297 0.930 . S
H290 C298 0.930 . S
H291 C299 0.930 . S
H292 C302 0.930 . S
H293 C303 0.930 . S
C294 H288 0.930 . S
C294 C295 1.355 . S
C294 C296 1.415 . S
C295 C294 1.355 . S
C295 C297 1.419 . S
C296 C294 1.415 . S
C296 C301 1.425 . S
C296 C303 1.409 . S
C297 H289 0.930 . S
C297 C295 1.419 . S
C297 C298 1.362 . S
C298 H290 0.930 . S
C298 C297 1.362 . S
C298 C301 1.409 . S
C299 H291 0.930 . S
C299 C300 1.355 . S
C299 C301 1.415 . S
C300 C299 1.355 . S
C300 C302 1.419 . S
C301 C296 1.425 . S
C301 C298 1.409 . S
C301 C299 1.415 . S
C302 H292 0.930 . S
C302 C300 1.419 . S
C302 C303 1.362 . S
C303 H293 0.930 . S
C303 C296 1.409 . S
C303 C302 1.362 . S
H304 C310 0.930 . S
H305 C313 0.930 . S
H306 C314 0.930 . S
H307 C315 0.930 . S
H308 C318 0.930 . S
H309 C319 0.930 . S
C310 H304 0.930 . S
C310 C311 1.355 . S
C310 C312 1.415 . S
C311 C310 1.355 . S
C311 C313 1.419 . S
C312 C310 1.415 . S
C312 C317 1.425 . S
C312 C319 1.409 . S
C313 H305 0.930 . S
C313 C311 1.419 . S
C313 C314 1.362 . S
C314 H306 0.930 . S
C314 C313 1.362 . S
C314 C317 1.409 . S
C315 H307 0.930 . S
C315 C316 1.355 . S
C315 C317 1.415 . S
C316 C315 1.355 . S
C316 C318 1.419 . S
C317 C312 1.425 . S
C317 C314 1.409 . S
C317 C315 1.415 . S
C318 H308 0.930 . S
C318 C316 1.419 . S
C318 C319 1.362 . S
C319 H309 0.930 . S
C319 C312 1.409 . S
C319 C318 1.362 . S
H320 C326 0.930 . S
H321 C329 0.930 . S
H322 C330 0.930 . S
H323 C331 0.930 . S
H324 C334 0.930 . S
H325 C335 0.930 . S
C326 H320 0.930 . S
C326 C327 1.355 . S
C326 C328 1.415 . S
C327 C326 1.355 . S
C327 C329 1.419 . S
C328 C326 1.415 . S
C328 C333 1.425 . S
C328 C335 1.409 . S
C329 H321 0.930 . S
C329 C327 1.419 . S
C329 C330 1.362 . S
C330 H322 0.930 . S
C330 C329 1.362 . S
C330 C333 1.409 . S
C331 H323 0.930 . S
C331 C332 1.355 . S
C331 C333 1.415 . S
C332 C331 1.355 . S
C332 C334 1.419 . S
C333 C328 1.425 . S
C333 C330 1.409 . S
C333 C331 1.415 . S
C334 H324 0.930 . S
C334 C332 1.419 . S
C334 C335 1.362 . S
C335 H325 0.930 . S
C335 C328 1.409 . S
C335 C334 1.362 . S
H336 C342 0.930 . S
H337 C345 0.930 . S
H338 C346 0.930 . S
H339 C347 0.930 . S
H340 C350 0.930 . S
H341 C351 0.930 . S
C342 H336 0.930 . S
C342 C343 1.355 . S
C342 C344 1.415 . S
C343 C342 1.355 . S
C343 C345 1.419 . S
C344 C342 1.415 . S
C344 C349 1.425 . S
C344 C351 1.409 1_565 S
C345 H337 0.930 . S
C345 C343 1.419 . S
C345 C346 1.362 . S
C346 H338 0.930 . S
C346 C345 1.362 . S
C346 C349 1.409 . S
C347 H339 0.930 . S
C347 C348 1.355 1_565 S
C347 C349 1.415 . S
C348 C347 1.355 1_545 S
C348 C350 1.419 . S
C349 C344 1.425 . S
C349 C346 1.409 . S
C349 C347 1.415 . S
C350 H340 0.930 . S
C350 C348 1.419 . S
C350 C351 1.362 . S
C351 H341 0.930 . S
C351 C344 1.409 1_545 S
C351 C350 1.362 . S
H352 C358 0.930 . S
H353 C361 0.930 . S
H354 C362 0.930 . S
H355 C363 0.930 . S
H356 C366 0.930 . S
H357 C367 0.930 . S
C358 H352 0.930 . S
C358 C359 1.355 . S
C358 C360 1.415 . S
C359 C358 1.355 . S
C359 C361 1.419 . S
C360 C358 1.415 . S
C360 C365 1.425 . S
C360 C367 1.409 . S
C361 H353 0.930 . S
C361 C359 1.419 . S
C361 C362 1.362 . S
C362 H354 0.930 . S
C362 C361 1.362 . S
C362 C365 1.409 . S
C363 H355 0.930 . S
C363 C364 1.355 . S
C363 C365 1.415 . S
C364 C363 1.355 . S
C364 C366 1.419 . S
C365 C360 1.425 . S
C365 C362 1.409 . S
C365 C363 1.415 . S
C366 H356 0.930 . S
C366 C364 1.419 . S
C366 C367 1.362 . S
C367 H357 0.930 . S
C367 C360 1.409 . S
C367 C366 1.362 . S
H368 C374 0.930 . S
H369 C377 0.930 . S
H370 C378 0.930 . S
H371 C379 0.930 . S
H372 C382 0.930 . S
H373 C383 0.930 . S
C374 H368 0.930 . S
C374 C375 1.355 . S
C374 C376 1.415 . S
C375 C374 1.355 . S
C375 C377 1.419 . S
C376 C374 1.415 . S
C376 C381 1.425 . S
C376 C383 1.409 . S
C377 H369 0.930 . S
C377 C375 1.419 . S
C377 C378 1.362 . S
C378 H370 0.930 . S
C378 C377 1.362 . S
C378 C381 1.409 . S
C379 H371 0.930 . S
C379 C380 1.355 . S
C379 C381 1.415 1_554 S
C380 C379 1.355 . S
C380 C382 1.419 . S
C381 C376 1.425 . S
C381 C378 1.409 . S
C381 C379 1.415 1_556 S
C382 H372 0.930 . S
C382 C380 1.419 . S
C382 C383 1.362 1_554 S
C383 H373 0.930 . S
C383 C376 1.409 . S
C383 C382 1.362 1_556 S
H384 C390 0.930 . S
H385 C393 0.930 . S
H386 C394 0.930 . S
H387 C395 0.930 . S
H388 C398 0.930 . S
H389 C399 0.930 . S
C390 H384 0.930 . S
C390 C391 1.355 1_556 S
C390 C392 1.415 . S
C391 C390 1.355 1_554 S
C391 C393 1.419 . S
C392 C390 1.415 . S
C392 C397 1.425 . S
C392 C399 1.409 . S
C393 H385 0.930 . S
C393 C391 1.419 . S
C393 C394 1.362 . S
C394 H386 0.930 . S
C394 C393 1.362 . S
C394 C397 1.409 1_554 S
C395 H387 0.930 . S
C395 C396 1.355 . S
C395 C397 1.415 . S
C396 C395 1.355 . S
C396 C398 1.419 . S
C397 C392 1.425 . S
C397 C394 1.409 1_556 S
C397 C395 1.415 . S
C398 H388 0.930 . S
C398 C396 1.419 . S
C398 C399 1.362 . S
C399 H389 0.930 . S
C399 C392 1.409 . S
C399 C398 1.362 . S
H400 C406 0.930 . S
H401 C409 0.930 . S
H402 C410 0.930 . S
H403 C411 0.930 . S
H404 C414 0.930 . S
H405 C415 0.930 . S
C406 H400 0.930 . S
C406 C407 1.355 . S
C406 C408 1.415 . S
C407 C406 1.355 . S
C407 C409 1.419 . S
C408 C406 1.415 . S
C408 C413 1.425 . S
C408 C415 1.409 . S
C409 H401 0.930 . S
C409 C407 1.419 . S
C409 C410 1.362 . S
C410 H402 0.930 . S
C410 C409 1.362 . S
C410 C413 1.409 . S
C411 H403 0.930 . S
C411 C412 1.355 . S
C411 C413 1.415 . S
C412 C411 1.355 . S
C412 C414 1.419 . S
C413 C408 1.425 . S
C413 C410 1.409 . S
C413 C411 1.415 . S
C414 H404 0.930 . S
C414 C412 1.419 . S
C414 C415 1.362 . S
C415 H405 0.930 . S
C415 C408 1.409 . S
C415 C414 1.362 . S
H416 C422 0.930 . S
H417 C425 0.930 . S
H418 C426 0.930 . S
H419 C427 0.930 . S
H420 C430 0.930 . S
H421 C431 0.930 . S
C422 H416 0.930 . S
C422 C423 1.355 . S
C422 C424 1.415 . S
C423 C422 1.355 . S
C423 C425 1.419 . S
C424 C422 1.415 . S
C424 C429 1.425 . S
C424 C431 1.409 . S
C425 H417 0.930 . S
C425 C423 1.419 . S
C425 C426 1.362 . S
C426 H418 0.930 . S
C426 C425 1.362 . S
C426 C429 1.409 . S
C427 H419 0.930 . S
C427 C428 1.355 . S
C427 C429 1.415 . S
C428 C427 1.355 . S
C428 C430 1.419 . S
C429 C424 1.425 . S
C429 C426 1.409 . S
C429 C427 1.415 . S
C430 H420 0.930 . S
C430 C428 1.419 . S
C430 C431 1.362 . S
C431 H421 0.930 . S
C431 C424 1.409 . S
C431 C430 1.362 . S
H432 C438 0.930 . S
H433 C441 0.930 . S
H434 C442 0.930 . S
H435 C443 0.930 . S
H436 C446 0.930 . S
H437 C447 0.930 . S
C438 H432 0.930 . S
C438 C439 1.355 . S
C438 C440 1.415 1_655 S
C439 C438 1.355 . S
C439 C441 1.419 . S
C440 C438 1.415 1_455 S
C440 C445 1.425 1_455 S
C440 C447 1.409 . S
C441 H433 0.930 . S
C441 C439 1.419 . S
C441 C442 1.362 . S
C442 H434 0.930 . S
C442 C441 1.362 . S
C442 C445 1.409 . S
C443 H435 0.930 . S
C443 C444 1.355 . S
C443 C445 1.415 1_455 S
C444 C443 1.355 . S
C444 C446 1.419 . S
C445 C440 1.425 1_655 S
C445 C442 1.409 . S
C445 C443 1.415 1_655 S
C446 H436 0.930 . S
C446 C444 1.419 . S
C446 C447 1.362 . S
C447 H437 0.930 . S
C447 C440 1.409 . S
C447 C446 1.362 . S
H448 C454 0.930 . S
H449 C457 0.930 . S
H450 C458 0.930 . S
H451 C459 0.930 . S
H452 C462 0.930 . S
H453 C463 0.930 . S
C454 H448 0.930 . S
C454 C455 1.355 . S
C454 C456 1.415 . S
C455 C454 1.355 . S
C455 C457 1.419 . S
C456 C454 1.415 . S
C456 C461 1.425 1_655 S
C456 C463 1.409 1_655 S
C457 H449 0.930 . S
C457 C455 1.419 . S
C457 C458 1.362 . S
C458 H450 0.930 . S
C458 C457 1.362 . S
C458 C461 1.409 1_655 S
C459 H451 0.930 . S
C459 C460 1.355 . S
C459 C461 1.415 . S
C460 C459 1.355 . S
C460 C462 1.419 . S
C461 C456 1.425 1_455 S
C461 C458 1.409 1_455 S
C461 C459 1.415 . S
C462 H452 0.930 . S
C462 C460 1.419 . S
C462 C463 1.362 . S
C463 H453 0.930 . S
C463 C456 1.409 1_455 S
C463 C462 1.362 . S
H464 C470 0.930 . S
H465 C473 0.930 . S
H466 C474 0.930 . S
H467 C475 0.930 . S
H468 C478 0.930 . S
H469 C479 0.930 . S
C470 H464 0.930 . S
C470 C471 1.355 . S
C470 C472 1.415 . S
C471 C470 1.355 . S
C471 C473 1.419 . S
C472 C470 1.415 . S
C472 C477 1.425 . S
C472 C479 1.409 . S
C473 H465 0.930 . S
C473 C471 1.419 . S
C473 C474 1.362 . S
C474 H466 0.930 . S
C474 C473 1.362 . S
C474 C477 1.409 . S
C475 H467 0.930 . S
C475 C476 1.355 . S
C475 C477 1.415 . S
C476 C475 1.355 . S
C476 C478 1.419 . S
C477 C472 1.425 . S
C477 C474 1.409 . S
C477 C475 1.415 . S
C478 H468 0.930 . S
C478 C476 1.419 . S
C478 C479 1.362 . S
C479 H469 0.930 . S
C479 C472 1.409 . S
C479 C478 1.362 . S
H480 C486 0.930 . S
H481 C489 0.930 . S
H482 C490 0.931 . S
H483 C491 0.930 . S
H484 C494 0.930 . S
H485 C495 0.930 . S
C486 H480 0.930 . S
C486 C487 1.355 . S
C486 C488 1.415 . S
C487 C486 1.355 . S
C487 C489 1.419 . S
C488 C486 1.415 . S
C488 C493 1.425 1_545 S
C488 C495 1.409 1_545 S
C489 H481 0.930 . S
C489 C487 1.419 . S
C489 C490 1.362 . S
C490 H482 0.931 . S
C490 C489 1.362 . S
C490 C493 1.409 1_545 S
C491 H483 0.930 . S
C491 C492 1.355 . S
C491 C493 1.415 . S
C492 C491 1.355 . S
C492 C494 1.419 . S
C493 C488 1.425 1_565 S
C493 C490 1.409 1_565 S
C493 C491 1.415 . S
C494 H484 0.930 . S
C494 C492 1.419 . S
C494 C495 1.362 . S
C495 H485 0.930 . S
C495 C488 1.409 1_565 S
C495 C494 1.362 . S
H496 C502 0.930 . S
H497 C505 0.930 . S
H498 C506 0.930 . S
H499 C507 0.930 . S
H500 C510 0.930 . S
H501 C511 0.930 . S
C502 H496 0.930 . S
C502 C503 1.355 . S
C502 C504 1.415 . S
C503 C502 1.355 . S
C503 C505 1.419 . S
C504 C502 1.415 . S
C504 C509 1.425 . S
C504 C511 1.409 . S
C505 H497 0.930 . S
C505 C503 1.419 . S
C505 C506 1.362 . S
C506 H498 0.930 . S
C506 C505 1.362 . S
C506 C509 1.409 . S
C507 H499 0.930 . S
C507 C508 1.355 . S
C507 C509 1.415 . S
C508 C507 1.355 . S
C508 C510 1.419 . S
C509 C504 1.425 . S
C509 C506 1.409 . S
C509 C507 1.415 . S
C510 H500 0.930 . S
C510 C508 1.419 . S
C510 C511 1.362 . S
C511 H501 0.930 . S
C511 C504 1.409 . S
C511 C510 1.362 . S
H512 C518 0.930 . S
H513 C521 0.930 . S
H514 C522 0.930 1_556 S
H515 C523 0.930 . S
H516 C526 0.930 . S
H517 C527 0.930 . S
C518 H512 0.930 . S
C518 C519 1.355 . S
C518 C520 1.415 . S
C519 C518 1.355 . S
C519 C521 1.419 . S
C520 C518 1.415 . S
C520 C525 1.425 . S
C520 C527 1.409 . S
C521 H513 0.930 . S
C521 C519 1.419 . S
C521 C522 1.362 . S
C522 H514 0.930 1_554 S
C522 C521 1.362 . S
C522 C525 1.409 . S
C523 H515 0.930 . S
C523 C524 1.355 . S
C523 C525 1.415 1_556 S
C524 C523 1.355 . S
C524 C526 1.419 . S
C525 C520 1.425 . S
C525 C522 1.409 . S
C525 C523 1.415 1_554 S
C526 H516 0.930 . S
C526 C524 1.419 . S
C526 C527 1.362 1_556 S
C527 H517 0.930 . S
C527 C520 1.409 . S
C527 C526 1.362 1_554 S
H528 C534 0.930 . S
H529 C537 0.930 . S
H530 C538 0.930 . S
H531 C539 0.930 . S
H532 C542 0.930 . S
H533 C543 0.930 . S
C534 H528 0.930 . S
C534 C535 1.355 . S
C534 C536 1.415 1_556 S
C535 C534 1.355 . S
C535 C537 1.419 . S
C536 C534 1.415 1_554 S
C536 C541 1.425 . S
C536 C543 1.409 . S
C537 H529 0.930 . S
C537 C535 1.419 . S
C537 C538 1.362 1_556 S
C538 H530 0.930 . S
C538 C537 1.362 1_554 S
C538 C541 1.409 . S
C539 H531 0.930 . S
C539 C540 1.355 . S
C539 C541 1.415 . S
C540 C539 1.355 . S
C540 C542 1.419 . S
C541 C536 1.425 . S
C541 C538 1.409 . S
C541 C539 1.415 . S
C542 H532 0.930 . S
C542 C540 1.419 . S
C542 C543 1.362 . S
C543 H533 0.930 . S
C543 C536 1.409 . S
C543 C542 1.362 . S
H544 C550 0.930 . S
H545 C553 0.930 . S
H546 C554 0.930 . S
H547 C555 0.930 . S
H548 C558 0.930 . S
H549 C559 0.930 . S
C550 H544 0.930 . S
C550 C551 1.355 . S
C550 C552 1.415 . S
C551 C550 1.355 . S
C551 C553 1.419 . S
C552 C550 1.415 . S
C552 C557 1.425 . S
C552 C559 1.409 . S
C553 H545 0.930 . S
C553 C551 1.419 . S
C553 C554 1.362 . S
C554 H546 0.930 . S
C554 C553 1.362 . S
C554 C557 1.409 . S
C555 H547 0.930 . S
C555 C556 1.355 . S
C555 C557 1.415 . S
C556 C555 1.355 . S
C556 C558 1.419 . S
C557 C552 1.425 . S
C557 C554 1.409 . S
C557 C555 1.415 . S
C558 H548 0.930 . S
C558 C556 1.419 . S
C558 C559 1.362 . S
C559 H549 0.930 . S
C559 C552 1.409 . S
C559 C558 1.362 . S
H560 C566 0.930 . S
H561 C569 0.930 . S
H562 C570 0.930 . S
H563 C571 0.930 . S
H564 C574 0.930 . S
H565 C575 0.930 . S
C566 H560 0.930 . S
C566 C567 1.355 . S
C566 C568 1.415 . S
C567 C566 1.355 . S
C567 C569 1.419 . S
C568 C566 1.415 . S
C568 C573 1.425 . S
C568 C575 1.409 . S
C569 H561 0.930 . S
C569 C567 1.419 . S
C569 C570 1.362 . S
C570 H562 0.930 . S
C570 C569 1.362 . S
C570 C573 1.409 . S
C571 H563 0.930 . S
C571 C572 1.355 . S
C571 C573 1.415 . S
C572 C571 1.355 . S
C572 C574 1.419 . S
C573 C568 1.425 . S
C573 C570 1.409 . S
C573 C571 1.415 . S
C574 H564 0.930 . S
C574 C572 1.419 . S
C574 C575 1.362 . S
C575 H565 0.930 . S
C575 C568 1.409 . S
C575 C574 1.362 . S
H576 C582 0.930 . S
H577 C585 0.930 . S
H578 C586 0.930 . S
H579 C587 0.930 . S
H580 C590 0.930 . S
H581 C591 0.930 . S
C582 H576 0.930 . S
C582 C583 1.355 . S
C582 C584 1.415 1_455 S
C583 C582 1.355 . S
C583 C585 1.419 . S
C584 C582 1.415 1_655 S
C584 C589 1.425 1_655 S
C584 C591 1.409 . S
C585 H577 0.930 . S
C585 C583 1.419 . S
C585 C586 1.362 . S
C586 H578 0.930 . S
C586 C585 1.362 . S
C586 C589 1.409 . S
C587 H579 0.930 . S
C587 C588 1.355 . S
C587 C589 1.415 1_655 S
C588 C587 1.355 . S
C588 C590 1.419 . S
C589 C584 1.425 1_455 S
C589 C586 1.409 . S
C589 C587 1.415 1_455 S
C590 H580 0.930 . S
C590 C588 1.419 . S
C590 C591 1.362 . S
C591 H581 0.930 . S
C591 C584 1.409 . S
C591 C590 1.362 . S
H592 C598 0.930 . S
H593 C601 0.930 . S
H594 C602 0.930 . S
H595 C603 0.930 . S
H596 C606 0.930 . S
H597 C607 0.930 . S
C598 H592 0.930 . S
C598 C599 1.355 . S
C598 C600 1.415 1_455 S
C599 C598 1.355 . S
C599 C601 1.419 . S
C600 C598 1.415 1_655 S
C600 C605 1.425 1_655 S
C600 C607 1.409 . S
C601 H593 0.930 . S
C601 C599 1.419 . S
C601 C602 1.362 . S
C602 H594 0.930 . S
C602 C601 1.362 . S
C602 C605 1.409 . S
C603 H595 0.930 . S
C603 C604 1.355 . S
C603 C605 1.415 1_655 S
C604 C603 1.355 . S
C604 C606 1.419 . S
C605 C600 1.425 1_455 S
C605 C602 1.409 . S
C605 C603 1.415 1_455 S
C606 H596 0.930 . S
C606 C604 1.419 . S
C606 C607 1.362 . S
C607 H597 0.930 . S
C607 C600 1.409 . S
C607 C606 1.362 . S
H608 C614 0.930 . S
H609 C617 0.930 . S
H610 C618 0.930 . S
H611 C619 0.930 . S
H612 C622 0.930 . S
H613 C623 0.930 . S
C614 H608 0.930 . S
C614 C615 1.355 . S
C614 C616 1.415 . S
C615 C614 1.355 . S
C615 C617 1.419 . S
C616 C614 1.415 . S
C616 C621 1.425 . S
C616 C623 1.409 . S
C617 H609 0.930 . S
C617 C615 1.419 . S
C617 C618 1.362 . S
C618 H610 0.930 . S
C618 C617 1.362 . S
C618 C621 1.409 . S
C619 H611 0.930 . S
C619 C620 1.355 . S
C619 C621 1.415 . S
C620 C619 1.355 . S
C620 C622 1.419 . S
C621 C616 1.425 . S
C621 C618 1.409 . S
C621 C619 1.415 . S
C622 H612 0.930 . S
C622 C620 1.419 . S
C622 C623 1.362 . S
C623 H613 0.930 . S
C623 C616 1.409 . S
C623 C622 1.362 . S
H624 C630 0.930 . S
H625 C633 0.930 . S
H626 C634 0.930 . S
H627 C635 0.930 . S
H628 C638 0.930 . S
H629 C639 0.930 . S
C630 H624 0.930 . S
C630 C631 1.355 . S
C630 C632 1.415 . S
C631 C630 1.355 . S
C631 C633 1.419 . S
C632 C630 1.415 . S
C632 C637 1.425 . S
C632 C639 1.409 . S
C633 H625 0.930 . S
C633 C631 1.419 . S
C633 C634 1.362 . S
C634 H626 0.930 . S
C634 C633 1.362 . S
C634 C637 1.409 . S
C635 H627 0.930 . S
C635 C636 1.355 . S
C635 C637 1.415 . S
C636 C635 1.355 . S
C636 C638 1.419 . S
C637 C632 1.425 . S
C637 C634 1.409 . S
C637 C635 1.415 . S
C638 H628 0.930 . S
C638 C636 1.419 . S
C638 C639 1.362 . S
C639 H629 0.930 . S
C639 C632 1.409 . S
C639 C638 1.362 . S
H640 C646 0.930 . S
H641 C649 0.930 . S
H642 C650 0.930 . S
H643 C651 0.930 . S
H644 C654 0.930 . S
H645 C655 0.930 . S
C646 H640 0.930 . S
C646 C647 1.355 . S
C646 C648 1.415 . S
C647 C646 1.355 . S
C647 C649 1.419 . S
C648 C646 1.415 . S
C648 C653 1.425 . S
C648 C655 1.409 1_545 S
C649 H641 0.930 . S
C649 C647 1.419 . S
C649 C650 1.362 . S
C650 H642 0.930 . S
C650 C649 1.362 . S
C650 C653 1.409 . S
C651 H643 0.930 . S
C651 C652 1.355 1_545 S
C651 C653 1.415 . S
C652 C651 1.355 1_565 S
C652 C654 1.419 . S
C653 C648 1.425 . S
C653 C650 1.409 . S
C653 C651 1.415 . S
C654 H644 0.930 . S
C654 C652 1.419 . S
C654 C655 1.362 . S
C655 H645 0.930 . S
C655 C648 1.409 1_565 S
C655 C654 1.362 . S
H656 C662 0.930 . S
H657 C665 0.930 . S
H658 C666 0.930 . S
H659 C667 0.930 . S
H660 C670 0.930 . S
H661 C671 0.930 . S
C662 H656 0.930 . S
C662 C663 1.355 . S
C662 C664 1.415 . S
C663 C662 1.355 . S
C663 C665 1.419 . S
C664 C662 1.415 . S
C664 C669 1.425 . S
C664 C671 1.409 . S
C665 H657 0.930 . S
C665 C663 1.419 . S
C665 C666 1.362 . S
C666 H658 0.930 . S
C666 C665 1.362 . S
C666 C669 1.409 . S
C667 H659 0.930 . S
C667 C668 1.355 . S
C667 C669 1.415 . S
C668 C667 1.355 . S
C668 C670 1.419 . S
C669 C664 1.425 . S
C669 C666 1.409 . S
C669 C667 1.415 . S
C670 H660 0.930 . S
C670 C668 1.419 . S
C670 C671 1.362 . S
C671 H661 0.930 . S
C671 C664 1.409 . S
C671 C670 1.362 . S
H672 C678 0.930 . S
H673 C681 0.930 . S
H674 C682 0.930 . S
H675 C683 0.930 . S
H676 C686 0.930 . S
H677 C687 0.930 . S
C678 H672 0.930 . S
C678 C679 1.355 . S
C678 C680 1.415 . S
C679 C678 1.355 . S
C679 C681 1.419 . S
C680 C678 1.415 . S
C680 C685 1.425 . S
C680 C687 1.409 . S
C681 H673 0.930 . S
C681 C679 1.419 . S
C681 C682 1.362 . S
C682 H674 0.930 . S
C682 C681 1.362 . S
C682 C685 1.409 . S
C683 H675 0.930 . S
C683 C684 1.355 . S
C683 C685 1.415 . S
C684 C683 1.355 . S
C684 C686 1.419 . S
C685 C680 1.425 . S
C685 C682 1.409 . S
C685 C683 1.415 . S
C686 H676 0.930 . S
C686 C684 1.419 . S
C686 C687 1.362 . S
C687 H677 0.930 . S
C687 C680 1.409 . S
C687 C686 1.362 . S
H688 C694 0.930 . S
H689 C697 0.930 . S
H690 C698 0.930 . S
H691 C699 0.930 . S
H692 C702 0.930 . S
H693 C703 0.930 . S
C694 H688 0.930 . S
C694 C695 1.355 . S
C694 C696 1.415 . S
C695 C694 1.355 . S
C695 C697 1.419 . S
C696 C694 1.415 . S
C696 C701 1.425 1_545 S
C696 C703 1.409 . S
C697 H689 0.930 . S
C697 C695 1.419 . S
C697 C698 1.362 1_545 S
C698 H690 0.930 . S
C698 C697 1.362 1_565 S
C698 C701 1.409 . S
C699 H691 0.930 . S
C699 C700 1.355 . S
C699 C701 1.415 . S
C700 C699 1.355 . S
C700 C702 1.419 . S
C701 C696 1.425 1_565 S
C701 C698 1.409 . S
C701 C699 1.415 . S
C702 H692 0.930 . S
C702 C700 1.419 . S
C702 C703 1.362 1_565 S
C703 H693 0.930 . S
C703 C696 1.409 . S
C703 C702 1.362 1_545 S
H704 C710 0.930 . S
H705 C713 0.930 . S
H706 C714 0.930 . S
H707 C715 0.930 . S
H708 C718 0.930 . S
H709 C719 0.930 . S
C710 H704 0.930 . S
C710 C711 1.355 . S
C710 C712 1.415 . S
C711 C710 1.355 . S
C711 C713 1.419 . S
C712 C710 1.415 . S
C712 C717 1.425 . S
C712 C719 1.409 . S
C713 H705 0.930 . S
C713 C711 1.419 . S
C713 C714 1.362 . S
C714 H706 0.930 . S
C714 C713 1.362 . S
C714 C717 1.409 . S
C715 H707 0.930 . S
C715 C716 1.355 . S
C715 C717 1.415 . S
C716 C715 1.355 . S
C716 C718 1.419 . S
C717 C712 1.425 . S
C717 C714 1.409 . S
C717 C715 1.415 . S
C718 H708 0.930 . S
C718 C716 1.419 . S
C718 C719 1.362 . S
C719 H709 0.930 . S
C719 C712 1.409 . S
C719 C718 1.362 . S
C215 C3 1.253 . S
C220 C172 1.240 . S
C231 C18 1.267 . S
C236 C122 1.240 . S
C247 C185 1.013 . S
C252 C29 1.003 . S
C263 C42 0.949 . S
C268 C200 0.966 . S
C279 C57 1.252 . S
C284 C81 1.238 . S
C295 C135 1.270 . S
C300 C70 1.275 . S
C311 C146 0.919 . S
C316 C94 0.928 . S
C327 C109 0.995 . S
C332 C159 1.009 . S
C343 C30 1.823 . S
C348 C5 1.804 . S
C359 C16 1.821 . S
C364 C43 1.827 . S
C375 C161 1.649 . S
C380 C10 1.630 . S
C391 C17 1.588 . S
C396 C148 1.634 . S
C407 C56 1.604 . S
C412 C31 1.645 . S
C423 C134 1.641 . S
C428 C44 1.658 . S
C439 C23 2.027 . S
C444 C4 2.033 . S
C455 C49 1.084 . S
C460 C36 1.096 . S
C471 C140 2.027 . S
C476 C62 2.034 . S
C487 C96 1.625 . S
C492 C75 1.594 . S
C503 C82 1.604 . S
C508 C107 1.628 . S
C519 C205 1.717 . S
C524 C69 1.698 . S
C535 C88 1.695 . S
C540 C186 1.715 . S
C551 C121 1.679 . S
C556 C95 1.701 . S
C567 C114 1.707 . S
C572 C179 1.694 . S
C583 C83 2.042 . S
C588 C68 2.047 . S
C599 C108 1.175 . S
C604 C101 1.185 . S
C615 C120 2.040 . S
C620 C174 2.031 . S
C631 C133 1.791 . S
C636 C147 1.821 . S
C647 C160 1.821 . S
C652 C55 1.788 . S
C663 C166 1.093 . S
C668 C153 1.131 . S
C679 C187 1.613 . S
C684 C173 1.569 . S
C695 C127 1.617 . S
C700 C198 1.631 . S
C711 C199 1.186 . S
C716 C192 1.175 . S
