# Generated by pormake.
# Topology wse, (4)-cn, num edge types: 1
# Building blocks:
#     Node 0, Type 0, BuildingBlock: CEKHIL_clean_sbu_0, # of connection points: 4
#     Node 1, Type 0, BuildingBlock: CEKHIL_clean_sbu_0, # of connection points: 4
#     Node 2, Type 0, BuildingBlock: CEKHIL_clean_sbu_0, # of connection points: 4
#     Node 3, Type 0, BuildingBlock: CEKHIL_clean_sbu_0, # of connection points: 4
#     Node 4, Type 0, BuildingBlock: CEKHIL_clean_sbu_0, # of connection points: 4
#     Node 5, Type 0, BuildingBlock: CEKHIL_clean_sbu_0, # of connection points: 4
#     Node 6, Type 0, BuildingBlock: CEKHIL_clean_sbu_0, # of connection points: 4
#     Node 7, Type 0, BuildingBlock: CEKHIL_clean_sbu_0, # of connection points: 4
#     Node 8, Type 0, BuildingBlock: CEKHIL_clean_sbu_0, # of connection points: 4
#     Node 9, Type 0, BuildingBlock: CEKHIL_clean_sbu_0, # of connection points: 4
#     Node 10, Type 0, BuildingBlock: CEKHIL_clean_sbu_0, # of connection points: 4
#     Node 11, Type 0, BuildingBlock: CEKHIL_clean_sbu_0, # of connection points: 4
#     Node 12, Type 0, BuildingBlock: CEKHIL_clean_sbu_0, # of connection points: 4
#     Node 13, Type 0, BuildingBlock: CEKHIL_clean_sbu_0, # of connection points: 4
#     Node 14, Type 0, BuildingBlock: CEKHIL_clean_sbu_0, # of connection points: 4
#     Node 15, Type 0, BuildingBlock: CEKHIL_clean_sbu_0, # of connection points: 4
#     Node 16, Type 0, BuildingBlock: CEKHIL_clean_sbu_0, # of connection points: 4
#     Node 17, Type 0, BuildingBlock: CEKHIL_clean_sbu_0, # of connection points: 4
#     Node 18, Type 0, BuildingBlock: CEKHIL_clean_sbu_0, # of connection points: 4
#     Node 19, Type 0, BuildingBlock: CEKHIL_clean_sbu_0, # of connection points: 4
#     Node 20, Type 0, BuildingBlock: CEKHIL_clean_sbu_0, # of connection points: 4
#     Node 21, Type 0, BuildingBlock: CEKHIL_clean_sbu_0, # of connection points: 4
#     Node 22, Type 0, BuildingBlock: CEKHIL_clean_sbu_0, # of connection points: 4
#     Node 23, Type 0, BuildingBlock: CEKHIL_clean_sbu_0, # of connection points: 4
#     Node 24, Type 0, BuildingBlock: CEKHIL_clean_sbu_0, # of connection points: 4
#     Node 25, Type 0, BuildingBlock: CEKHIL_clean_sbu_0, # of connection points: 4
#     Node 26, Type 0, BuildingBlock: CEKHIL_clean_sbu_0, # of connection points: 4
#     Node 27, Type 0, BuildingBlock: CEKHIL_clean_sbu_0, # of connection points: 4
#     Node 28, Type 0, BuildingBlock: CEKHIL_clean_sbu_0, # of connection points: 4
#     Node 29, Type 0, BuildingBlock: CEKHIL_clean_sbu_0, # of connection points: 4
#     Node 30, Type 0, BuildingBlock: CEKHIL_clean_sbu_0, # of connection points: 4
#     Node 31, Type 0, BuildingBlock: CEKHIL_clean_sbu_0, # of connection points: 4
#     Node 32, Type 0, BuildingBlock: CEKHIL_clean_sbu_0, # of connection points: 4
#     Node 33, Type 0, BuildingBlock: CEKHIL_clean_sbu_0, # of connection points: 4
#     Node 34, Type 0, BuildingBlock: CEKHIL_clean_sbu_0, # of connection points: 4
#     Node 35, Type 0, BuildingBlock: CEKHIL_clean_sbu_0, # of connection points: 4
#     Node 36, Type 0, BuildingBlock: CEKHIL_clean_sbu_0, # of connection points: 4
#     Node 37, Type 0, BuildingBlock: CEKHIL_clean_sbu_0, # of connection points: 4
#     Node 38, Type 0, BuildingBlock: CEKHIL_clean_sbu_0, # of connection points: 4
#     Node 39, Type 0, BuildingBlock: CEKHIL_clean_sbu_0, # of connection points: 4
#     Node 40, Type 0, BuildingBlock: CEKHIL_clean_sbu_0, # of connection points: 4
#     Node 41, Type 0, BuildingBlock: CEKHIL_clean_sbu_0, # of connection points: 4
#     Node 42, Type 0, BuildingBlock: CEKHIL_clean_sbu_0, # of connection points: 4
#     Node 43, Type 0, BuildingBlock: CEKHIL_clean_sbu_0, # of connection points: 4
#     Node 44, Type 0, BuildingBlock: CEKHIL_clean_sbu_0, # of connection points: 4
#     Node 45, Type 0, BuildingBlock: CEKHIL_clean_sbu_0, # of connection points: 4
#     Node 46, Type 0, BuildingBlock: CEKHIL_clean_sbu_0, # of connection points: 4
#     Node 47, Type 0, BuildingBlock: CEKHIL_clean_sbu_0, # of connection points: 4
#     Node 48, Type 0, BuildingBlock: CEKHIL_clean_sbu_0, # of connection points: 4
#     Node 49, Type 0, BuildingBlock: CEKHIL_clean_sbu_0, # of connection points: 4
#     Node 50, Type 0, BuildingBlock: CEKHIL_clean_sbu_0, # of connection points: 4
#     Node 51, Type 0, BuildingBlock: CEKHIL_clean_sbu_0, # of connection points: 4
#     Node 52, Type 0, BuildingBlock: CEKHIL_clean_sbu_0, # of connection points: 4
#     Node 53, Type 0, BuildingBlock: CEKHIL_clean_sbu_0, # of connection points: 4
#     Node 54, Type 0, BuildingBlock: CEKHIL_clean_sbu_0, # of connection points: 4
#     Node 55, Type 0, BuildingBlock: CEKHIL_clean_sbu_0, # of connection points: 4
#     Node 56, Type 0, BuildingBlock: CEKHIL_clean_sbu_0, # of connection points: 4
#     Node 57, Type 0, BuildingBlock: CEKHIL_clean_sbu_0, # of connection points: 4
#     Node 58, Type 0, BuildingBlock: CEKHIL_clean_sbu_0, # of connection points: 4
#     Node 59, Type 0, BuildingBlock: CEKHIL_clean_sbu_0, # of connection points: 4
#     Node 60, Type 0, BuildingBlock: CEKHIL_clean_sbu_0, # of connection points: 4
#     Node 61, Type 0, BuildingBlock: CEKHIL_clean_sbu_0, # of connection points: 4
#     Node 62, Type 0, BuildingBlock: CEKHIL_clean_sbu_0, # of connection points: 4
#     Node 63, Type 0, BuildingBlock: CEKHIL_clean_sbu_0, # of connection points: 4
#     Node 64, Type 0, BuildingBlock: CEKHIL_clean_sbu_0, # of connection points: 4
#     Node 65, Type 0, BuildingBlock: CEKHIL_clean_sbu_0, # of connection points: 4
#     Node 66, Type 0, BuildingBlock: CEKHIL_clean_sbu_0, # of connection points: 4
#     Node 67, Type 0, BuildingBlock: CEKHIL_clean_sbu_0, # of connection points: 4
#     Node 68, Type 0, BuildingBlock: CEKHIL_clean_sbu_0, # of connection points: 4
#     Node 69, Type 0, BuildingBlock: CEKHIL_clean_sbu_0, # of connection points: 4
#     Node 70, Type 0, BuildingBlock: CEKHIL_clean_sbu_0, # of connection points: 4
#     Node 71, Type 0, BuildingBlock: CEKHIL_clean_sbu_0, # of connection points: 4
#     Node 72, Type 0, BuildingBlock: CEKHIL_clean_sbu_0, # of connection points: 4
#     Node 73, Type 0, BuildingBlock: CEKHIL_clean_sbu_0, # of connection points: 4
#     Node 74, Type 0, BuildingBlock: CEKHIL_clean_sbu_0, # of connection points: 4
#     Node 75, Type 0, BuildingBlock: CEKHIL_clean_sbu_0, # of connection points: 4
#     Node 76, Type 0, BuildingBlock: CEKHIL_clean_sbu_0, # of connection points: 4
#     Node 77, Type 0, BuildingBlock: CEKHIL_clean_sbu_0, # of connection points: 4
#     Node 78, Type 0, BuildingBlock: CEKHIL_clean_sbu_0, # of connection points: 4
#     Node 79, Type 0, BuildingBlock: CEKHIL_clean_sbu_0, # of connection points: 4
#     Node 80, Type 0, BuildingBlock: CEKHIL_clean_sbu_0, # of connection points: 4
#     Node 81, Type 0, BuildingBlock: CEKHIL_clean_sbu_0, # of connection points: 4
#     Node 82, Type 0, BuildingBlock: CEKHIL_clean_sbu_0, # of connection points: 4
#     Node 83, Type 0, BuildingBlock: CEKHIL_clean_sbu_0, # of connection points: 4
#     Node 84, Type 0, BuildingBlock: CEKHIL_clean_sbu_0, # of connection points: 4
#     Node 85, Type 0, BuildingBlock: CEKHIL_clean_sbu_0, # of connection points: 4
#     Node 86, Type 0, BuildingBlock: CEKHIL_clean_sbu_0, # of connection points: 4
#     Node 87, Type 0, BuildingBlock: CEKHIL_clean_sbu_0, # of connection points: 4
#     Node 88, Type 0, BuildingBlock: CEKHIL_clean_sbu_0, # of connection points: 4
#     Node 89, Type 0, BuildingBlock: CEKHIL_clean_sbu_0, # of connection points: 4
#     Node 90, Type 0, BuildingBlock: CEKHIL_clean_sbu_0, # of connection points: 4
#     Node 91, Type 0, BuildingBlock: CEKHIL_clean_sbu_0, # of connection points: 4
#     Node 92, Type 0, BuildingBlock: CEKHIL_clean_sbu_0, # of connection points: 4
#     Node 93, Type 0, BuildingBlock: CEKHIL_clean_sbu_0, # of connection points: 4
#     Node 94, Type 0, BuildingBlock: CEKHIL_clean_sbu_0, # of connection points: 4
#     Node 95, Type 0, BuildingBlock: CEKHIL_clean_sbu_0, # of connection points: 4
#     Edge 96, Type (0, 0), BuildingBlock: TEMPAE_clean_linker_10, # of connection points: 2
#     Edge 97, Type (0, 0), BuildingBlock: TEMPAE_clean_linker_10, # of connection points: 2
#     Edge 98, Type (0, 0), BuildingBlock: TEMPAE_clean_linker_10, # of connection points: 2
#     Edge 99, Type (0, 0), BuildingBlock: TEMPAE_clean_linker_10, # of connection points: 2
#     Edge 100, Type (0, 0), BuildingBlock: TEMPAE_clean_linker_10, # of connection points: 2
#     Edge 101, Type (0, 0), BuildingBlock: TEMPAE_clean_linker_10, # of connection points: 2
#     Edge 102, Type (0, 0), BuildingBlock: TEMPAE_clean_linker_10, # of connection points: 2
#     Edge 103, Type (0, 0), BuildingBlock: TEMPAE_clean_linker_10, # of connection points: 2
#     Edge 104, Type (0, 0), BuildingBlock: TEMPAE_clean_linker_10, # of connection points: 2
#     Edge 105, Type (0, 0), BuildingBlock: TEMPAE_clean_linker_10, # of connection points: 2
#     Edge 106, Type (0, 0), BuildingBlock: TEMPAE_clean_linker_10, # of connection points: 2
#     Edge 107, Type (0, 0), BuildingBlock: TEMPAE_clean_linker_10, # of connection points: 2
#     Edge 108, Type (0, 0), BuildingBlock: TEMPAE_clean_linker_10, # of connection points: 2
#     Edge 109, Type (0, 0), BuildingBlock: TEMPAE_clean_linker_10, # of connection points: 2
#     Edge 110, Type (0, 0), BuildingBlock: TEMPAE_clean_linker_10, # of connection points: 2
#     Edge 111, Type (0, 0), BuildingBlock: TEMPAE_clean_linker_10, # of connection points: 2
#     Edge 112, Type (0, 0), BuildingBlock: TEMPAE_clean_linker_10, # of connection points: 2
#     Edge 113, Type (0, 0), BuildingBlock: TEMPAE_clean_linker_10, # of connection points: 2
#     Edge 114, Type (0, 0), BuildingBlock: TEMPAE_clean_linker_10, # of connection points: 2
#     Edge 115, Type (0, 0), BuildingBlock: TEMPAE_clean_linker_10, # of connection points: 2
#     Edge 116, Type (0, 0), BuildingBlock: TEMPAE_clean_linker_10, # of connection points: 2
#     Edge 117, Type (0, 0), BuildingBlock: TEMPAE_clean_linker_10, # of connection points: 2
#     Edge 118, Type (0, 0), BuildingBlock: TEMPAE_clean_linker_10, # of connection points: 2
#     Edge 119, Type (0, 0), BuildingBlock: TEMPAE_clean_linker_10, # of connection points: 2
#     Edge 120, Type (0, 0), BuildingBlock: TEMPAE_clean_linker_10, # of connection points: 2
#     Edge 121, Type (0, 0), BuildingBlock: TEMPAE_clean_linker_10, # of connection points: 2
#     Edge 122, Type (0, 0), BuildingBlock: TEMPAE_clean_linker_10, # of connection points: 2
#     Edge 123, Type (0, 0), BuildingBlock: TEMPAE_clean_linker_10, # of connection points: 2
#     Edge 124, Type (0, 0), BuildingBlock: TEMPAE_clean_linker_10, # of connection points: 2
#     Edge 125, Type (0, 0), BuildingBlock: TEMPAE_clean_linker_10, # of connection points: 2
#     Edge 126, Type (0, 0), BuildingBlock: TEMPAE_clean_linker_10, # of connection points: 2
#     Edge 127, Type (0, 0), BuildingBlock: TEMPAE_clean_linker_10, # of connection points: 2
#     Edge 128, Type (0, 0), BuildingBlock: TEMPAE_clean_linker_10, # of connection points: 2
#     Edge 129, Type (0, 0), BuildingBlock: TEMPAE_clean_linker_10, # of connection points: 2
#     Edge 130, Type (0, 0), BuildingBlock: TEMPAE_clean_linker_10, # of connection points: 2
#     Edge 131, Type (0, 0), BuildingBlock: TEMPAE_clean_linker_10, # of connection points: 2
#     Edge 132, Type (0, 0), BuildingBlock: TEMPAE_clean_linker_10, # of connection points: 2
#     Edge 133, Type (0, 0), BuildingBlock: TEMPAE_clean_linker_10, # of connection points: 2
#     Edge 134, Type (0, 0), BuildingBlock: TEMPAE_clean_linker_10, # of connection points: 2
#     Edge 135, Type (0, 0), BuildingBlock: TEMPAE_clean_linker_10, # of connection points: 2
#     Edge 136, Type (0, 0), BuildingBlock: TEMPAE_clean_linker_10, # of connection points: 2
#     Edge 137, Type (0, 0), BuildingBlock: TEMPAE_clean_linker_10, # of connection points: 2
#     Edge 138, Type (0, 0), BuildingBlock: TEMPAE_clean_linker_10, # of connection points: 2
#     Edge 139, Type (0, 0), BuildingBlock: TEMPAE_clean_linker_10, # of connection points: 2
#     Edge 140, Type (0, 0), BuildingBlock: TEMPAE_clean_linker_10, # of connection points: 2
#     Edge 141, Type (0, 0), BuildingBlock: TEMPAE_clean_linker_10, # of connection points: 2
#     Edge 142, Type (0, 0), BuildingBlock: TEMPAE_clean_linker_10, # of connection points: 2
#     Edge 143, Type (0, 0), BuildingBlock: TEMPAE_clean_linker_10, # of connection points: 2
#     Edge 144, Type (0, 0), BuildingBlock: TEMPAE_clean_linker_10, # of connection points: 2
#     Edge 145, Type (0, 0), BuildingBlock: TEMPAE_clean_linker_10, # of connection points: 2
#     Edge 146, Type (0, 0), BuildingBlock: TEMPAE_clean_linker_10, # of connection points: 2
#     Edge 147, Type (0, 0), BuildingBlock: TEMPAE_clean_linker_10, # of connection points: 2
#     Edge 148, Type (0, 0), BuildingBlock: TEMPAE_clean_linker_10, # of connection points: 2
#     Edge 149, Type (0, 0), BuildingBlock: TEMPAE_clean_linker_10, # of connection points: 2
#     Edge 150, Type (0, 0), BuildingBlock: TEMPAE_clean_linker_10, # of connection points: 2
#     Edge 151, Type (0, 0), BuildingBlock: TEMPAE_clean_linker_10, # of connection points: 2
#     Edge 152, Type (0, 0), BuildingBlock: TEMPAE_clean_linker_10, # of connection points: 2
#     Edge 153, Type (0, 0), BuildingBlock: TEMPAE_clean_linker_10, # of connection points: 2
#     Edge 154, Type (0, 0), BuildingBlock: TEMPAE_clean_linker_10, # of connection points: 2
#     Edge 155, Type (0, 0), BuildingBlock: TEMPAE_clean_linker_10, # of connection points: 2
#     Edge 156, Type (0, 0), BuildingBlock: TEMPAE_clean_linker_10, # of connection points: 2
#     Edge 157, Type (0, 0), BuildingBlock: TEMPAE_clean_linker_10, # of connection points: 2
#     Edge 158, Type (0, 0), BuildingBlock: TEMPAE_clean_linker_10, # of connection points: 2
#     Edge 159, Type (0, 0), BuildingBlock: TEMPAE_clean_linker_10, # of connection points: 2
#     Edge 160, Type (0, 0), BuildingBlock: TEMPAE_clean_linker_10, # of connection points: 2
#     Edge 161, Type (0, 0), BuildingBlock: TEMPAE_clean_linker_10, # of connection points: 2
#     Edge 162, Type (0, 0), BuildingBlock: TEMPAE_clean_linker_10, # of connection points: 2
#     Edge 163, Type (0, 0), BuildingBlock: TEMPAE_clean_linker_10, # of connection points: 2
#     Edge 164, Type (0, 0), BuildingBlock: TEMPAE_clean_linker_10, # of connection points: 2
#     Edge 165, Type (0, 0), BuildingBlock: TEMPAE_clean_linker_10, # of connection points: 2
#     Edge 166, Type (0, 0), BuildingBlock: TEMPAE_clean_linker_10, # of connection points: 2
#     Edge 167, Type (0, 0), BuildingBlock: TEMPAE_clean_linker_10, # of connection points: 2
#     Edge 168, Type (0, 0), BuildingBlock: TEMPAE_clean_linker_10, # of connection points: 2
#     Edge 169, Type (0, 0), BuildingBlock: TEMPAE_clean_linker_10, # of connection points: 2
#     Edge 170, Type (0, 0), BuildingBlock: TEMPAE_clean_linker_10, # of connection points: 2
#     Edge 171, Type (0, 0), BuildingBlock: TEMPAE_clean_linker_10, # of connection points: 2
#     Edge 172, Type (0, 0), BuildingBlock: TEMPAE_clean_linker_10, # of connection points: 2
#     Edge 173, Type (0, 0), BuildingBlock: TEMPAE_clean_linker_10, # of connection points: 2
#     Edge 174, Type (0, 0), BuildingBlock: TEMPAE_clean_linker_10, # of connection points: 2
#     Edge 175, Type (0, 0), BuildingBlock: TEMPAE_clean_linker_10, # of connection points: 2
#     Edge 176, Type (0, 0), BuildingBlock: TEMPAE_clean_linker_10, # of connection points: 2
#     Edge 177, Type (0, 0), BuildingBlock: TEMPAE_clean_linker_10, # of connection points: 2
#     Edge 178, Type (0, 0), BuildingBlock: TEMPAE_clean_linker_10, # of connection points: 2
#     Edge 179, Type (0, 0), BuildingBlock: TEMPAE_clean_linker_10, # of connection points: 2
#     Edge 180, Type (0, 0), BuildingBlock: TEMPAE_clean_linker_10, # of connection points: 2
#     Edge 181, Type (0, 0), BuildingBlock: TEMPAE_clean_linker_10, # of connection points: 2
#     Edge 182, Type (0, 0), BuildingBlock: TEMPAE_clean_linker_10, # of connection points: 2
#     Edge 183, Type (0, 0), BuildingBlock: TEMPAE_clean_linker_10, # of connection points: 2
#     Edge 184, Type (0, 0), BuildingBlock: TEMPAE_clean_linker_10, # of connection points: 2
#     Edge 185, Type (0, 0), BuildingBlock: TEMPAE_clean_linker_10, # of connection points: 2
#     Edge 186, Type (0, 0), BuildingBlock: TEMPAE_clean_linker_10, # of connection points: 2
#     Edge 187, Type (0, 0), BuildingBlock: TEMPAE_clean_linker_10, # of connection points: 2
#     Edge 188, Type (0, 0), BuildingBlock: TEMPAE_clean_linker_10, # of connection points: 2
#     Edge 189, Type (0, 0), BuildingBlock: TEMPAE_clean_linker_10, # of connection points: 2
#     Edge 190, Type (0, 0), BuildingBlock: TEMPAE_clean_linker_10, # of connection points: 2
#     Edge 191, Type (0, 0), BuildingBlock: TEMPAE_clean_linker_10, # of connection points: 2
#     Edge 192, Type (0, 0), BuildingBlock: TEMPAE_clean_linker_10, # of connection points: 2
#     Edge 193, Type (0, 0), BuildingBlock: TEMPAE_clean_linker_10, # of connection points: 2
#     Edge 194, Type (0, 0), BuildingBlock: TEMPAE_clean_linker_10, # of connection points: 2
#     Edge 195, Type (0, 0), BuildingBlock: TEMPAE_clean_linker_10, # of connection points: 2
#     Edge 196, Type (0, 0), BuildingBlock: TEMPAE_clean_linker_10, # of connection points: 2
#     Edge 197, Type (0, 0), BuildingBlock: TEMPAE_clean_linker_10, # of connection points: 2
#     Edge 198, Type (0, 0), BuildingBlock: TEMPAE_clean_linker_10, # of connection points: 2
#     Edge 199, Type (0, 0), BuildingBlock: TEMPAE_clean_linker_10, # of connection points: 2
#     Edge 200, Type (0, 0), BuildingBlock: TEMPAE_clean_linker_10, # of connection points: 2
#     Edge 201, Type (0, 0), BuildingBlock: TEMPAE_clean_linker_10, # of connection points: 2
#     Edge 202, Type (0, 0), BuildingBlock: TEMPAE_clean_linker_10, # of connection points: 2
#     Edge 203, Type (0, 0), BuildingBlock: TEMPAE_clean_linker_10, # of connection points: 2
#     Edge 204, Type (0, 0), BuildingBlock: TEMPAE_clean_linker_10, # of connection points: 2
#     Edge 205, Type (0, 0), BuildingBlock: TEMPAE_clean_linker_10, # of connection points: 2
#     Edge 206, Type (0, 0), BuildingBlock: TEMPAE_clean_linker_10, # of connection points: 2
#     Edge 207, Type (0, 0), BuildingBlock: TEMPAE_clean_linker_10, # of connection points: 2
#     Edge 208, Type (0, 0), BuildingBlock: TEMPAE_clean_linker_10, # of connection points: 2
#     Edge 209, Type (0, 0), BuildingBlock: TEMPAE_clean_linker_10, # of connection points: 2
#     Edge 210, Type (0, 0), BuildingBlock: TEMPAE_clean_linker_10, # of connection points: 2
#     Edge 211, Type (0, 0), BuildingBlock: TEMPAE_clean_linker_10, # of connection points: 2
#     Edge 212, Type (0, 0), BuildingBlock: TEMPAE_clean_linker_10, # of connection points: 2
#     Edge 213, Type (0, 0), BuildingBlock: TEMPAE_clean_linker_10, # of connection points: 2
#     Edge 214, Type (0, 0), BuildingBlock: TEMPAE_clean_linker_10, # of connection points: 2
#     Edge 215, Type (0, 0), BuildingBlock: TEMPAE_clean_linker_10, # of connection points: 2
#     Edge 216, Type (0, 0), BuildingBlock: TEMPAE_clean_linker_10, # of connection points: 2
#     Edge 217, Type (0, 0), BuildingBlock: TEMPAE_clean_linker_10, # of connection points: 2
#     Edge 218, Type (0, 0), BuildingBlock: TEMPAE_clean_linker_10, # of connection points: 2
#     Edge 219, Type (0, 0), BuildingBlock: TEMPAE_clean_linker_10, # of connection points: 2
#     Edge 220, Type (0, 0), BuildingBlock: TEMPAE_clean_linker_10, # of connection points: 2
#     Edge 221, Type (0, 0), BuildingBlock: TEMPAE_clean_linker_10, # of connection points: 2
#     Edge 222, Type (0, 0), BuildingBlock: TEMPAE_clean_linker_10, # of connection points: 2
#     Edge 223, Type (0, 0), BuildingBlock: TEMPAE_clean_linker_10, # of connection points: 2
#     Edge 224, Type (0, 0), BuildingBlock: TEMPAE_clean_linker_10, # of connection points: 2
#     Edge 225, Type (0, 0), BuildingBlock: TEMPAE_clean_linker_10, # of connection points: 2
#     Edge 226, Type (0, 0), BuildingBlock: TEMPAE_clean_linker_10, # of connection points: 2
#     Edge 227, Type (0, 0), BuildingBlock: TEMPAE_clean_linker_10, # of connection points: 2
#     Edge 228, Type (0, 0), BuildingBlock: TEMPAE_clean_linker_10, # of connection points: 2
#     Edge 229, Type (0, 0), BuildingBlock: TEMPAE_clean_linker_10, # of connection points: 2
#     Edge 230, Type (0, 0), BuildingBlock: TEMPAE_clean_linker_10, # of connection points: 2
#     Edge 231, Type (0, 0), BuildingBlock: TEMPAE_clean_linker_10, # of connection points: 2
#     Edge 232, Type (0, 0), BuildingBlock: TEMPAE_clean_linker_10, # of connection points: 2
#     Edge 233, Type (0, 0), BuildingBlock: TEMPAE_clean_linker_10, # of connection points: 2
#     Edge 234, Type (0, 0), BuildingBlock: TEMPAE_clean_linker_10, # of connection points: 2
#     Edge 235, Type (0, 0), BuildingBlock: TEMPAE_clean_linker_10, # of connection points: 2
#     Edge 236, Type (0, 0), BuildingBlock: TEMPAE_clean_linker_10, # of connection points: 2
#     Edge 237, Type (0, 0), BuildingBlock: TEMPAE_clean_linker_10, # of connection points: 2
#     Edge 238, Type (0, 0), BuildingBlock: TEMPAE_clean_linker_10, # of connection points: 2
#     Edge 239, Type (0, 0), BuildingBlock: TEMPAE_clean_linker_10, # of connection points: 2
#     Edge 240, Type (0, 0), BuildingBlock: TEMPAE_clean_linker_10, # of connection points: 2
#     Edge 241, Type (0, 0), BuildingBlock: TEMPAE_clean_linker_10, # of connection points: 2
#     Edge 242, Type (0, 0), BuildingBlock: TEMPAE_clean_linker_10, # of connection points: 2
#     Edge 243, Type (0, 0), BuildingBlock: TEMPAE_clean_linker_10, # of connection points: 2
#     Edge 244, Type (0, 0), BuildingBlock: TEMPAE_clean_linker_10, # of connection points: 2
#     Edge 245, Type (0, 0), BuildingBlock: TEMPAE_clean_linker_10, # of connection points: 2
#     Edge 246, Type (0, 0), BuildingBlock: TEMPAE_clean_linker_10, # of connection points: 2
#     Edge 247, Type (0, 0), BuildingBlock: TEMPAE_clean_linker_10, # of connection points: 2
#     Edge 248, Type (0, 0), BuildingBlock: TEMPAE_clean_linker_10, # of connection points: 2
#     Edge 249, Type (0, 0), BuildingBlock: TEMPAE_clean_linker_10, # of connection points: 2
#     Edge 250, Type (0, 0), BuildingBlock: TEMPAE_clean_linker_10, # of connection points: 2
#     Edge 251, Type (0, 0), BuildingBlock: TEMPAE_clean_linker_10, # of connection points: 2
#     Edge 252, Type (0, 0), BuildingBlock: TEMPAE_clean_linker_10, # of connection points: 2
#     Edge 253, Type (0, 0), BuildingBlock: TEMPAE_clean_linker_10, # of connection points: 2
#     Edge 254, Type (0, 0), BuildingBlock: TEMPAE_clean_linker_10, # of connection points: 2
#     Edge 255, Type (0, 0), BuildingBlock: TEMPAE_clean_linker_10, # of connection points: 2
#     Edge 256, Type (0, 0), BuildingBlock: TEMPAE_clean_linker_10, # of connection points: 2
#     Edge 257, Type (0, 0), BuildingBlock: TEMPAE_clean_linker_10, # of connection points: 2
#     Edge 258, Type (0, 0), BuildingBlock: TEMPAE_clean_linker_10, # of connection points: 2
#     Edge 259, Type (0, 0), BuildingBlock: TEMPAE_clean_linker_10, # of connection points: 2
#     Edge 260, Type (0, 0), BuildingBlock: TEMPAE_clean_linker_10, # of connection points: 2
#     Edge 261, Type (0, 0), BuildingBlock: TEMPAE_clean_linker_10, # of connection points: 2
#     Edge 262, Type (0, 0), BuildingBlock: TEMPAE_clean_linker_10, # of connection points: 2
#     Edge 263, Type (0, 0), BuildingBlock: TEMPAE_clean_linker_10, # of connection points: 2
#     Edge 264, Type (0, 0), BuildingBlock: TEMPAE_clean_linker_10, # of connection points: 2
#     Edge 265, Type (0, 0), BuildingBlock: TEMPAE_clean_linker_10, # of connection points: 2
#     Edge 266, Type (0, 0), BuildingBlock: TEMPAE_clean_linker_10, # of connection points: 2
#     Edge 267, Type (0, 0), BuildingBlock: TEMPAE_clean_linker_10, # of connection points: 2
#     Edge 268, Type (0, 0), BuildingBlock: TEMPAE_clean_linker_10, # of connection points: 2
#     Edge 269, Type (0, 0), BuildingBlock: TEMPAE_clean_linker_10, # of connection points: 2
#     Edge 270, Type (0, 0), BuildingBlock: TEMPAE_clean_linker_10, # of connection points: 2
#     Edge 271, Type (0, 0), BuildingBlock: TEMPAE_clean_linker_10, # of connection points: 2
#     Edge 272, Type (0, 0), BuildingBlock: TEMPAE_clean_linker_10, # of connection points: 2
#     Edge 273, Type (0, 0), BuildingBlock: TEMPAE_clean_linker_10, # of connection points: 2
#     Edge 274, Type (0, 0), BuildingBlock: TEMPAE_clean_linker_10, # of connection points: 2
#     Edge 275, Type (0, 0), BuildingBlock: TEMPAE_clean_linker_10, # of connection points: 2
#     Edge 276, Type (0, 0), BuildingBlock: TEMPAE_clean_linker_10, # of connection points: 2
#     Edge 277, Type (0, 0), BuildingBlock: TEMPAE_clean_linker_10, # of connection points: 2
#     Edge 278, Type (0, 0), BuildingBlock: TEMPAE_clean_linker_10, # of connection points: 2
#     Edge 279, Type (0, 0), BuildingBlock: TEMPAE_clean_linker_10, # of connection points: 2
#     Edge 280, Type (0, 0), BuildingBlock: TEMPAE_clean_linker_10, # of connection points: 2
#     Edge 281, Type (0, 0), BuildingBlock: TEMPAE_clean_linker_10, # of connection points: 2
#     Edge 282, Type (0, 0), BuildingBlock: TEMPAE_clean_linker_10, # of connection points: 2
#     Edge 283, Type (0, 0), BuildingBlock: TEMPAE_clean_linker_10, # of connection points: 2
#     Edge 284, Type (0, 0), BuildingBlock: TEMPAE_clean_linker_10, # of connection points: 2
#     Edge 285, Type (0, 0), BuildingBlock: TEMPAE_clean_linker_10, # of connection points: 2
#     Edge 286, Type (0, 0), BuildingBlock: TEMPAE_clean_linker_10, # of connection points: 2
#     Edge 287, Type (0, 0), BuildingBlock: TEMPAE_clean_linker_10, # of connection points: 2
# Relax obj value: 0.322
# Max RMSD: 0.156
# Mean RMSD: 0.151
data_MOF--net-wse--node1-CEKHIL_clean_sbu_0--edge1-TEMPAE_clean_linker_10
_symmetry_space_group_name_H-M    P1
_symmetry_Int_Tables_number       1
_symmetry_cell_setting            triclinic
loop_
_symmetry_equiv_pos_as_xyz
'x, y, z'
_cell_length_a     99.475073
_cell_length_b     99.502239
_cell_length_c     99.508391
_cell_angle_alpha  90.008165
_cell_angle_beta   90.00527
_cell_angle_gamma 89.999441
loop_
_atom_site_label
_atom_site_type_symbol
_atom_site_fract_x
_atom_site_fract_y
_atom_site_fract_z
_atom_type_partial_charge
Co0 Co 0.09057 0.18555 0.42197 0.0
O1 O 0.10893 0.17892 0.42295 0.0
O2 O 0.09129 0.16676 0.41695 0.0
C3 C 0.09542 0.20543 0.41177 0.0
O4 O 0.07026 0.18833 0.4192 0.0
Co5 Co 0.08096 0.21202 0.43587 0.0
O6 O 0.06324 0.20802 0.42771 0.0
C7 C 0.08675 0.18776 0.45203 0.0
C8 C 0.10411 0.16733 0.41931 0.0
C9 C 0.06093 0.19706 0.42151 0.0
O10 O 0.08762 0.1804 0.44141 0.0
O11 O 0.08554 0.20056 0.45169 0.0
O12 O 0.09444 0.19452 0.40459 0.0
O13 O 0.09434 0.20378 0.42451 0.0
Co14 Co 0.82268 0.09139 0.42463 0.0
O15 O 0.82951 0.10941 0.42749 0.0
O16 O 0.84076 0.09311 0.41746 0.0
C17 C 0.80179 0.09765 0.41753 0.0
O18 O 0.81935 0.07151 0.41973 0.0
Co19 Co 0.79763 0.0801 0.43985 0.0
O20 O 0.79958 0.06431 0.42794 0.0
C21 C 0.82378 0.08336 0.45386 0.0
C22 C 0.8406 0.10541 0.42187 0.0
C23 C 0.81024 0.06234 0.42113 0.0
O24 O 0.82998 0.08604 0.44282 0.0
O25 O 0.81103 0.08179 0.4547 0.0
O26 O 0.81179 0.09747 0.40906 0.0
O27 O 0.80495 0.09486 0.42971 0.0
Co28 Co 0.91409 0.82416 0.42173 0.0
O29 O 0.89559 0.83019 0.42226 0.0
O30 O 0.91255 0.84203 0.41409 0.0
C31 C 0.90993 0.80289 0.41431 0.0
O32 O 0.93453 0.82159 0.41939 0.0
Co33 Co 0.92412 0.80044 0.4395 0.0
O34 O 0.94155 0.80305 0.43024 0.0
C35 C 0.91462 0.82573 0.45154 0.0
C36 C 0.89984 0.84139 0.41707 0.0
C37 C 0.94386 0.81318 0.42274 0.0
O38 O 0.91659 0.8319 0.44034 0.0
O39 O 0.91546 0.81295 0.45268 0.0
O40 O 0.9105 0.81278 0.40574 0.0
O41 O 0.91086 0.80639 0.42669 0.0
Co42 Co 0.18232 0.91748 0.42668 0.0
O43 O 0.1757 0.89932 0.42933 0.0
O44 O 0.16426 0.91557 0.41948 0.0
C45 C 0.20334 0.91162 0.41952 0.0
O46 O 0.1854 0.93748 0.42195 0.0
Co47 Co 0.20709 0.92899 0.44215 0.0
O48 O 0.20507 0.9448 0.43031 0.0
C49 C 0.18105 0.925 0.45606 0.0
C50 C 0.16455 0.90323 0.42376 0.0
C51 C 0.19443 0.94673 0.42344 0.0
O52 O 0.17492 0.92249 0.44493 0.0
O53 O 0.19377 0.92674 0.45697 0.0
O54 O 0.19332 0.91168 0.41107 0.0
O55 O 0.20013 0.91423 0.43173 0.0
Co56 Co 0.09221 0.82456 0.58574 0.0
O57 O 0.11065 0.83077 0.58575 0.0
O58 O 0.09349 0.8422 0.59403 0.0
C59 C 0.09661 0.80303 0.59231 0.0
O60 O 0.07179 0.82164 0.58765 0.0
Co61 Co 0.0829 0.80128 0.56691 0.0
O62 O 0.0652 0.80352 0.57583 0.0
C63 C 0.09218 0.8272 0.55604 0.0
C64 C 0.10625 0.8418 0.59118 0.0
C65 C 0.06262 0.81329 0.58373 0.0
O66 O 0.08989 0.83295 0.5674 0.0
O67 O 0.09163 0.81446 0.5544 0.0
O68 O 0.09562 0.8125 0.60132 0.0
O69 O 0.0958 0.80711 0.58012 0.0
Co70 Co 0.18291 0.09192 0.58307 0.0
O71 O 0.17581 0.10992 0.58079 0.0
O72 O 0.16476 0.09313 0.59019 0.0
C73 C 0.20363 0.09834 0.59048 0.0
O74 O 0.18652 0.07197 0.58731 0.0
Co75 Co 0.20832 0.08154 0.56778 0.0
O76 O 0.20648 0.0653 0.57912 0.0
C77 C 0.18222 0.08481 0.55361 0.0
C78 C 0.16476 0.10557 0.58621 0.0
C79 C 0.19577 0.06298 0.58574 0.0
O80 O 0.17584 0.08704 0.56466 0.0
O81 O 0.19501 0.08355 0.55288 0.0
O82 O 0.19364 0.0976 0.59891 0.0
O83 O 0.20058 0.09588 0.5782 0.0
Co84 Co 0.91315 0.18242 0.58465 0.0
O85 O 0.89475 0.17614 0.58454 0.0
O86 O 0.91196 0.16471 0.59273 0.0
C87 C 0.90864 0.20381 0.59148 0.0
O88 O 0.93354 0.18538 0.58666 0.0
Co89 Co 0.92252 0.20594 0.5662 0.0
O90 O 0.94014 0.20376 0.57528 0.0
C91 C 0.91333 0.18014 0.55492 0.0
C92 C 0.89921 0.16508 0.58987 0.0
C93 C 0.9427 0.19385 0.583 0.0
O94 O 0.91555 0.17425 0.56623 0.0
O95 O 0.91391 0.19291 0.55346 0.0
O96 O 0.90962 0.19423 0.60037 0.0
O97 O 0.90952 0.19991 0.57923 0.0
Co98 Co 0.82197 0.91416 0.58086 0.0
O99 O 0.82866 0.89597 0.57832 0.0
O100 O 0.84047 0.91271 0.58691 0.0
C101 C 0.80156 0.90866 0.58979 0.0
O102 O 0.81908 0.93423 0.58516 0.0
Co103 Co 0.79608 0.92482 0.56648 0.0
O104 O 0.79983 0.94183 0.57609 0.0
C105 C 0.82106 0.92008 0.55112 0.0
C106 C 0.84005 0.90023 0.5831 0.0
C107 C 0.81045 0.9437 0.58299 0.0
O108 O 0.82801 0.91868 0.56197 0.0
O109 O 0.80824 0.92111 0.55099 0.0
O110 O 0.81219 0.90885 0.59743 0.0
O111 O 0.80381 0.91072 0.57726 0.0
Co112 Co 0.42124 0.09164 0.18383 0.0
O113 O 0.42182 0.10967 0.17639 0.0
O114 O 0.41554 0.09152 0.1652 0.0
C115 C 0.4119 0.09784 0.20375 0.0
O116 O 0.41875 0.07147 0.18758 0.0
Co117 Co 0.43551 0.08307 0.21031 0.0
O118 O 0.4262 0.0656 0.20803 0.0
C119 C 0.45125 0.08754 0.18535 0.0
C120 C 0.41783 0.10437 0.16515 0.0
C121 C 0.42049 0.06266 0.19695 0.0
O122 O 0.44052 0.0886 0.17817 0.0
O123 O 0.45114 0.08651 0.19817 0.0
O124 O 0.4042 0.0958 0.19334 0.0
O125 O 0.42453 0.09648 0.20163 0.0
Co126 Co 0.91232 0.42121 0.18215 0.0
O127 O 0.89394 0.4216 0.17578 0.0
O128 O 0.91107 0.41308 0.16447 0.0
C129 C 0.90776 0.41448 0.20357 0.0
O130 O 0.93269 0.41885 0.18516 0.0
Co131 Co 0.922 0.43966 0.20551 0.0
O132 O 0.93946 0.43028 0.20344 0.0
C133 C 0.91295 0.45093 0.17973 0.0
C134 C 0.89836 0.41613 0.16477 0.0
C135 C 0.9419 0.42243 0.19361 0.0
O136 O 0.91506 0.43957 0.17392 0.0
O137 O 0.91351 0.45245 0.19249 0.0
O138 O 0.90849 0.40559 0.19398 0.0
O139 O 0.9088 0.42673 0.19968 0.0
Co140 Co 0.58555 0.91376 0.18213 0.0
O141 O 0.58587 0.89547 0.17556 0.0
O142 O 0.59322 0.9131 0.1642 0.0
C143 C 0.59307 0.90899 0.20322 0.0
O144 O 0.58697 0.93415 0.18536 0.0
Co145 Co 0.56761 0.9222 0.20639 0.0
O146 O 0.57609 0.94013 0.20424 0.0
C147 C 0.55572 0.9133 0.1807 0.0
C148 C 0.59079 0.90025 0.16446 0.0
C149 C 0.58335 0.94306 0.19409 0.0
O150 O 0.56684 0.91571 0.17452 0.0
O151 O 0.55463 0.91368 0.19352 0.0
O152 O 0.60169 0.91058 0.19348 0.0
O153 O 0.5807 0.90961 0.19967 0.0
Co154 Co 0.09367 0.58201 0.18017 0.0
O155 O 0.11204 0.58155 0.17373 0.0
O156 O 0.09483 0.58968 0.16227 0.0
C157 C 0.09826 0.58927 0.20143 0.0
O158 O 0.07331 0.58435 0.18319 0.0
Co159 Co 0.08418 0.56409 0.20402 0.0
O160 O 0.06665 0.57329 0.20174 0.0
C161 C 0.09319 0.55224 0.17849 0.0
C162 C 0.10755 0.58668 0.16259 0.0
C163 C 0.06414 0.58091 0.19174 0.0
O164 O 0.09099 0.56344 0.1724 0.0
O165 O 0.0927 0.55103 0.19128 0.0
O166 O 0.09745 0.59793 0.19163 0.0
O167 O 0.09728 0.57693 0.1978 0.0
Co168 Co 0.42352 0.91458 0.82351 0.0
O169 O 0.42606 0.89661 0.83061 0.0
O170 O 0.41601 0.91317 0.84147 0.0
C171 C 0.41674 0.90799 0.80262 0.0
O172 O 0.41888 0.93444 0.81989 0.0
Co173 Co 0.43905 0.92546 0.79848 0.0
O174 O 0.42732 0.94143 0.80015 0.0
C175 C 0.45277 0.92241 0.82485 0.0
C176 C 0.42026 0.90081 0.84153 0.0
C177 C 0.42044 0.94354 0.81074 0.0
O178 O 0.44167 0.91983 0.831 0.0
O179 O 0.45371 0.92384 0.81209 0.0
O180 O 0.40807 0.90851 0.81243 0.0
O181 O 0.42888 0.91079 0.80595 0.0
Co182 Co 0.09425 0.42192 0.82599 0.0
O183 O 0.11255 0.42205 0.83259 0.0
O184 O 0.09514 0.41403 0.84382 0.0
C185 C 0.09902 0.41486 0.8047 0.0
O186 O 0.0739 0.41992 0.82272 0.0
Co187 Co 0.08531 0.44015 0.8021 0.0
O188 O 0.06765 0.43107 0.80408 0.0
C189 C 0.09396 0.4517 0.82796 0.0
C190 C 0.10791 0.41686 0.84364 0.0
C191 C 0.0649 0.42348 0.81403 0.0
O192 O 0.09172 0.44044 0.83392 0.0
O193 O 0.09362 0.45304 0.81517 0.0
O194 O 0.09789 0.40607 0.81436 0.0
O195 O 0.09816 0.42715 0.80849 0.0
Co196 Co 0.58053 0.08959 0.82264 0.0
O197 O 0.57785 0.10771 0.82935 0.0
O198 O 0.58801 0.09147 0.84057 0.0
C199 C 0.58735 0.0957 0.80161 0.0
O200 O 0.58535 0.06966 0.81952 0.0
Co201 Co 0.56516 0.07791 0.7979 0.0
O202 O 0.57701 0.06209 0.79995 0.0
C203 C 0.55132 0.08164 0.82409 0.0
C204 C 0.58371 0.1038 0.84036 0.0
C205 C 0.58388 0.06031 0.8106 0.0
O206 O 0.56241 0.08436 0.83021 0.0
O207 O 0.55043 0.07995 0.81136 0.0
O208 O 0.59595 0.09558 0.81149 0.0
O209 O 0.57521 0.09287 0.80494 0.0
Co210 Co 0.9133 0.58467 0.82318 0.0
O211 O 0.89498 0.58461 0.82973 0.0
O212 O 0.91237 0.59286 0.84085 0.0
C213 C 0.90858 0.59137 0.80178 0.0
O214 O 0.93365 0.58668 0.82 0.0
Co215 Co 0.92251 0.56615 0.79965 0.0
O216 O 0.94015 0.57523 0.80163 0.0
C217 C 0.91361 0.55495 0.82558 0.0
C218 C 0.89961 0.59002 0.84069 0.0
C219 C 0.94276 0.583 0.81149 0.0
O220 O 0.91582 0.56629 0.83141 0.0
O221 O 0.91407 0.55344 0.81281 0.0
O222 O 0.90964 0.60031 0.81131 0.0
O223 O 0.90949 0.57914 0.80573 0.0
Co224 Co 0.18336 0.42497 0.09585 0.0
O225 O 0.1767 0.42513 0.11418 0.0
O226 O 0.16523 0.41777 0.09664 0.0
C227 C 0.2044 0.41698 0.10043 0.0
O228 O 0.18645 0.42302 0.07548 0.0
Co229 Co 0.20799 0.4421 0.08681 0.0
O230 O 0.20561 0.43318 0.06913 0.0
C231 C 0.1826 0.45494 0.09524 0.0
C232 C 0.16547 0.4204 0.10943 0.0
C233 C 0.19524 0.42615 0.06644 0.0
O234 O 0.17617 0.44383 0.09351 0.0
O235 O 0.19543 0.45575 0.09466 0.0
O236 O 0.19437 0.40862 0.09927 0.0
O237 O 0.20112 0.42943 0.09973 0.0
Co238 Co 0.1833 0.58206 0.91238 0.0
O239 O 0.17621 0.57961 0.89438 0.0
O240 O 0.16509 0.58901 0.91113 0.0
C241 C 0.20402 0.58963 0.90608 0.0
O242 O 0.18682 0.58651 0.93229 0.0
Co243 Co 0.20877 0.56703 0.92297 0.0
O244 O 0.20681 0.57854 0.93909 0.0
C245 C 0.18278 0.55265 0.91985 0.0
C246 C 0.16509 0.58493 0.89872 0.0
C247 C 0.19605 0.58512 0.94132 0.0
O248 O 0.17636 0.56363 0.91737 0.0
O249 O 0.19556 0.55201 0.92125 0.0
O250 O 0.19393 0.59797 0.90666 0.0
O251 O 0.20104 0.57733 0.90853 0.0
Co252 Co 0.42169 0.18198 0.91591 0.0
O253 O 0.42403 0.17498 0.89789 0.0
O254 O 0.41372 0.1642 0.91432 0.0
C255 C 0.41544 0.20309 0.9095 0.0
O256 O 0.41722 0.18562 0.93585 0.0
Co257 Co 0.43803 0.20653 0.92681 0.0
O258 O 0.42621 0.20517 0.94273 0.0
C259 C 0.45087 0.17972 0.92384 0.0
C260 C 0.41799 0.16415 0.90196 0.0
C261 C 0.41908 0.19476 0.94491 0.0
O262 O 0.43962 0.17395 0.92108 0.0
O263 O 0.45224 0.19242 0.92543 0.0
O264 O 0.40653 0.19351 0.90997 0.0
O265 O 0.4275 0.19943 0.91222 0.0
Co266 Co 0.82429 0.426 0.91333 0.0
O267 O 0.83121 0.42856 0.89526 0.0
O268 O 0.84242 0.4189 0.91179 0.0
C269 C 0.8034 0.41865 0.90725 0.0
O270 O 0.82093 0.42141 0.93326 0.0
Co271 Co 0.79919 0.44135 0.92432 0.0
O272 O 0.80108 0.42961 0.94025 0.0
C273 C 0.82529 0.45539 0.92095 0.0
C274 C 0.84232 0.42308 0.89942 0.0
C275 C 0.81175 0.42285 0.94236 0.0
O276 O 0.8315 0.44432 0.9184 0.0
O277 O 0.81254 0.45623 0.9225 0.0
O278 O 0.81347 0.41027 0.90753 0.0
O279 O 0.80651 0.43091 0.90975 0.0
Co280 Co 0.58305 0.82095 0.91508 0.0
O281 O 0.58063 0.82808 0.89711 0.0
O282 O 0.5906 0.83888 0.91375 0.0
C283 C 0.58985 0.80003 0.90861 0.0
O284 O 0.58759 0.81734 0.93495 0.0
Co285 Co 0.56745 0.79596 0.92594 0.0
O286 O 0.57904 0.79769 0.94201 0.0
C287 C 0.55379 0.82235 0.92286 0.0
C288 C 0.58641 0.83899 0.90137 0.0
C289 C 0.58596 0.80826 0.94409 0.0
O290 O 0.56491 0.82847 0.92028 0.0
O291 O 0.55281 0.8096 0.92428 0.0
O292 O 0.59852 0.80983 0.90914 0.0
O293 O 0.57769 0.80338 0.9113 0.0
Co294 Co 0.82317 0.58007 0.09231 0.0
O295 O 0.83005 0.57748 0.1104 0.0
O296 O 0.84123 0.58734 0.09397 0.0
C297 C 0.80216 0.58715 0.09838 0.0
O298 O 0.81993 0.5847 0.07238 0.0
Co299 Co 0.79816 0.56473 0.08104 0.0
O300 O 0.80028 0.57634 0.06504 0.0
C301 C 0.82437 0.55082 0.08442 0.0
C302 C 0.84114 0.58307 0.10631 0.0
C303 C 0.81096 0.58314 0.06311 0.0
O304 O 0.83056 0.56186 0.08716 0.0
O305 O 0.81163 0.54996 0.0828 0.0
O306 O 0.81212 0.59566 0.09814 0.0
O307 O 0.80543 0.57496 0.09577 0.0
Co308 Co 0.4267 0.82369 0.09194 0.0
O309 O 0.42946 0.83073 0.10993 0.0
O310 O 0.41965 0.84185 0.09342 0.0
C311 C 0.4194 0.80292 0.09842 0.0
O312 O 0.42191 0.82023 0.07207 0.0
Co313 Co 0.44165 0.79835 0.08097 0.0
O314 O 0.42995 0.80035 0.06501 0.0
C315 C 0.45596 0.82438 0.08404 0.0
C316 C 0.42395 0.84181 0.10576 0.0
C317 C 0.42328 0.81108 0.06294 0.0
O318 O 0.44499 0.83076 0.08662 0.0
O319 O 0.45664 0.81161 0.08263 0.0
O320 O 0.411 0.81296 0.09802 0.0
O321 O 0.43162 0.80597 0.09565 0.0
Co322 Co 0.58132 0.1825 0.09021 0.0
O323 O 0.57904 0.17555 0.10828 0.0
O324 O 0.58844 0.16435 0.09159 0.0
C325 C 0.58875 0.20329 0.0965 0.0
O326 O 0.58556 0.18592 0.07019 0.0
Co327 Co 0.56609 0.20788 0.07965 0.0
O328 O 0.57722 0.20575 0.06331 0.0
C329 C 0.55184 0.18187 0.08325 0.0
C330 C 0.58448 0.16446 0.10404 0.0
C331 C 0.58386 0.19503 0.06107 0.0
O332 O 0.56289 0.17543 0.08538 0.0
O333 O 0.55117 0.19466 0.08202 0.0
O334 O 0.59718 0.19329 0.09584 0.0
O335 O 0.57648 0.20021 0.09403 0.0
Co336 Co 0.94383 0.83235 0.57124 0.0
O337 O 0.93735 0.85039 0.5751 0.0
O338 O 0.92532 0.8319 0.57734 0.0
C339 C 0.96443 0.8342 0.58119 0.0
O340 O 0.94641 0.81206 0.56862 0.0
Co341 Co 0.96947 0.82631 0.55417 0.0
O342 O 0.96675 0.8074 0.55996 0.0
C343 C 0.94443 0.83574 0.54105 0.0
C344 C 0.92579 0.84494 0.57789 0.0
C345 C 0.95556 0.80363 0.56494 0.0
O346 O 0.93767 0.83442 0.55202 0.0
O347 O 0.95718 0.83408 0.5403 0.0
O348 O 0.95389 0.83144 0.58848 0.0
O349 O 0.96195 0.8366 0.56877 0.0
Co350 Co 0.17518 0.9429 0.57653 0.0
O351 O 0.15718 0.93784 0.58197 0.0
O352 O 0.17524 0.92516 0.58462 0.0
C353 C 0.17518 0.96448 0.58422 0.0
O354 O 0.19533 0.94448 0.5724 0.0
Co355 Co 0.17956 0.96556 0.55539 0.0
O356 O 0.19892 0.96099 0.5573 0.0
C357 C 0.16629 0.94046 0.54791 0.0
C358 C 0.16227 0.92638 0.58565 0.0
C359 C 0.20317 0.95159 0.56491 0.0
O360 O 0.1715 0.93473 0.55827 0.0
O361 O 0.16669 0.95317 0.54607 0.0
O362 O 0.17766 0.95461 0.59248 0.0
O363 O 0.17151 0.9608 0.5724 0.0
Co364 Co 0.0626 0.17434 0.57261 0.0
O365 O 0.06814 0.15618 0.57699 0.0
O366 O 0.08062 0.17429 0.58007 0.0
C367 C 0.04132 0.17335 0.58109 0.0
O368 O 0.06068 0.19464 0.56954 0.0
Co369 Co 0.03869 0.18015 0.5532 0.0
O370 O 0.04145 0.19922 0.55857 0.0
C371 C 0.06391 0.16824 0.54308 0.0
C372 C 0.07964 0.16127 0.58056 0.0
C373 C 0.05205 0.20302 0.5647 0.0
O374 O 0.07007 0.17174 0.55391 0.0
O375 O 0.05117 0.16935 0.54161 0.0
O376 O 0.05142 0.17579 0.58909 0.0
O377 O 0.04462 0.17055 0.56894 0.0
Co378 Co 0.83179 0.0631 0.57446 0.0
O379 O 0.84973 0.06853 0.57972 0.0
O380 O 0.83145 0.08093 0.58228 0.0
C381 C 0.83241 0.0417 0.58255 0.0
O382 O 0.81167 0.06123 0.57046 0.0
Co383 Co 0.82699 0.03969 0.55422 0.0
O384 O 0.80765 0.04244 0.55854 0.0
C385 C 0.83959 0.06498 0.54546 0.0
C386 C 0.84444 0.07993 0.58333 0.0
C387 C 0.80355 0.05282 0.56486 0.0
O388 O 0.83518 0.07095 0.55605 0.0
O389 O 0.83879 0.05226 0.54372 0.0
O390 O 0.82966 0.05164 0.59064 0.0
O391 O 0.83575 0.04523 0.5706 0.0
Co392 Co 0.9428 0.17498 0.43492 0.0
O393 O 0.93682 0.15672 0.43161 0.0
O394 O 0.92449 0.17488 0.42818 0.0
C395 C 0.9636 0.17314 0.42554 0.0
O396 O 0.94512 0.1954 0.43696 0.0
Co397 Co 0.96792 0.18167 0.45257 0.0
O398 O 0.96535 0.20025 0.4458 0.0
C399 C 0.9425 0.17272 0.46525 0.0
C400 C 0.9253 0.16184 0.42815 0.0
C401 C 0.95427 0.20389 0.4405 0.0
O402 O 0.9361 0.17346 0.45402 0.0
O403 O 0.95518 0.17462 0.4664 0.0
O404 O 0.95319 0.17545 0.41792 0.0
O405 O 0.96088 0.17105 0.43798 0.0
Co406 Co 0.83178 0.94349 0.43085 0.0
O407 O 0.84959 0.93768 0.42549 0.0
O408 O 0.83117 0.9254 0.42365 0.0
C409 C 0.83248 0.96464 0.42209 0.0
O410 O 0.81171 0.94571 0.43499 0.0
Co411 Co 0.82741 0.96758 0.45037 0.0
O412 O 0.80804 0.96513 0.44598 0.0
C413 C 0.83946 0.94231 0.46005 0.0
C414 C 0.84416 0.92621 0.42237 0.0
C415 C 0.80375 0.95455 0.44016 0.0
O416 O 0.83531 0.93616 0.44945 0.0
O417 O 0.83864 0.95507 0.46151 0.0
O418 O 0.82955 0.95448 0.41435 0.0
O419 O 0.83596 0.96144 0.43409 0.0
Co420 Co 0.06334 0.83171 0.43554 0.0
O421 O 0.06896 0.85023 0.43291 0.0
O422 O 0.08147 0.83247 0.42835 0.0
C423 C 0.0422 0.83362 0.42682 0.0
O424 O 0.06151 0.81116 0.4367 0.0
Co425 Co 0.03887 0.82361 0.45347 0.0
O426 O 0.04166 0.8054 0.44584 0.0
C427 C 0.06443 0.83257 0.46592 0.0
C428 C 0.08049 0.84549 0.42896 0.0
C429 C 0.05268 0.80228 0.4401 0.0
O430 O 0.07054 0.83253 0.4545 0.0
O431 O 0.05185 0.83025 0.46731 0.0
O432 O 0.05243 0.83185 0.41883 0.0
O433 O 0.04525 0.83512 0.43926 0.0
Co434 Co 0.17301 0.06547 0.43309 0.0
O435 O 0.1555 0.07182 0.42715 0.0
O436 O 0.17424 0.08378 0.42672 0.0
C437 C 0.17229 0.04451 0.42381 0.0
O438 O 0.19288 0.06287 0.43778 0.0
Co439 Co 0.17667 0.04089 0.45208 0.0
O440 O 0.19622 0.04321 0.44838 0.0
C441 C 0.16444 0.06592 0.46206 0.0
C442 C 0.16131 0.08332 0.42488 0.0
C443 C 0.20071 0.0539 0.44291 0.0
O444 O 0.16898 0.07231 0.45177 0.0
O445 O 0.16509 0.05312 0.4632 0.0
O446 O 0.17563 0.05479 0.4164 0.0
O447 O 0.16849 0.04751 0.43577 0.0
Co448 Co 0.57388 0.94139 0.83325 0.0
O449 O 0.57864 0.93596 0.85135 0.0
O450 O 0.58131 0.92338 0.83323 0.0
C451 C 0.58235 0.96268 0.83376 0.0
O452 O 0.57039 0.94315 0.81303 0.0
Co453 Co 0.55412 0.96507 0.82784 0.0
O454 O 0.55875 0.96203 0.80862 0.0
C455 C 0.5447 0.94011 0.84056 0.0
C456 C 0.58205 0.92442 0.84623 0.0
C457 C 0.56506 0.95156 0.80473 0.0
O458 O 0.55525 0.93392 0.83632 0.0
O459 O 0.54322 0.95286 0.83964 0.0
O460 O 0.59032 0.95256 0.83136 0.0
O461 O 0.57028 0.95939 0.83693 0.0
Co462 Co 0.06245 0.57147 0.83 0.0
O463 O 0.06814 0.57486 0.84837 0.0
O464 O 0.08052 0.57877 0.83035 0.0
C465 C 0.04128 0.58014 0.83161 0.0
O466 O 0.06057 0.5695 0.80955 0.0
Co467 Co 0.03807 0.55309 0.82266 0.0
O468 O 0.04093 0.55976 0.80409 0.0
C469 C 0.0637 0.54116 0.83207 0.0
C470 C 0.07962 0.57866 0.84338 0.0
C471 C 0.05188 0.56554 0.80078 0.0
O472 O 0.06975 0.55259 0.83153 0.0
O473 O 0.05111 0.53961 0.82987 0.0
O474 O 0.05146 0.58811 0.8295 0.0
O475 O 0.04439 0.56778 0.83361 0.0
Co476 Co 0.43054 0.0627 0.83235 0.0
O477 O 0.4255 0.06807 0.85038 0.0
O478 O 0.42316 0.08077 0.83231 0.0
C479 C 0.42198 0.04144 0.83272 0.0
O480 O 0.43442 0.06087 0.81217 0.0
Co481 Co 0.45033 0.03889 0.82745 0.0
O482 O 0.44576 0.0417 0.80818 0.0
C483 C 0.45961 0.06392 0.84016 0.0
C484 C 0.42222 0.07965 0.8453 0.0
C485 C 0.4397 0.05222 0.80406 0.0
O486 O 0.44913 0.0701 0.83575 0.0
O487 O 0.4611 0.05117 0.8393 0.0
O488 O 0.41409 0.05159 0.83015 0.0
O489 O 0.43399 0.0447 0.83611 0.0
Co490 Co 0.94491 0.43528 0.83011 0.0
O491 O 0.93902 0.43227 0.84847 0.0
O492 O 0.92678 0.42809 0.83044 0.0
C493 C 0.96603 0.42655 0.83217 0.0
O494 O 0.94703 0.4369 0.80962 0.0
Co495 Co 0.96949 0.45339 0.82273 0.0
O496 O 0.96691 0.44625 0.80429 0.0
C497 C 0.94382 0.46562 0.83169 0.0
C498 C 0.92756 0.42845 0.84347 0.0
C499 C 0.95594 0.44055 0.80092 0.0
O500 O 0.93771 0.45422 0.83123 0.0
O501 O 0.95644 0.46705 0.82962 0.0
O502 O 0.95584 0.41858 0.83005 0.0
O503 O 0.96294 0.43896 0.83387 0.0
Co504 Co 0.57144 0.06365 0.17468 0.0
O505 O 0.57612 0.06869 0.15644 0.0
O506 O 0.5793 0.08151 0.1743 0.0
C507 C 0.57937 0.04214 0.17443 0.0
O508 O 0.56811 0.06217 0.195 0.0
Co509 Co 0.55083 0.0407 0.18011 0.0
O510 O 0.55351 0.04538 0.19934 0.0
C511 C 0.54232 0.06573 0.16717 0.0
C512 C 0.57982 0.08026 0.1613 0.0
C513 C 0.56111 0.05496 0.2032 0.0
O514 O 0.55296 0.07159 0.17164 0.0
O515 O 0.5406 0.053 0.1679 0.0
O516 O 0.5876 0.0521 0.1766 0.0
O517 O 0.56737 0.04568 0.17125 0.0
Co518 Co 0.94466 0.57035 0.17425 0.0
O519 O 0.93841 0.57362 0.15604 0.0
O520 O 0.92645 0.57737 0.17435 0.0
C521 C 0.96564 0.57932 0.17202 0.0
O522 O 0.94717 0.56842 0.19466 0.0
Co523 Co 0.96953 0.55235 0.18087 0.0
O524 O 0.96721 0.55916 0.19948 0.0
C525 C 0.94383 0.54003 0.17217 0.0
C526 C 0.927 0.57724 0.1613 0.0
C527 C 0.95626 0.56471 0.20314 0.0
O528 O 0.93762 0.55136 0.17295 0.0
O529 O 0.95651 0.53868 0.17397 0.0
O530 O 0.95542 0.58715 0.17444 0.0
O531 O 0.96264 0.56692 0.17012 0.0
Co532 Co 0.4357 0.94374 0.17595 0.0
O533 O 0.43253 0.93819 0.1575 0.0
O534 O 0.42887 0.9255 0.17535 0.0
C535 C 0.42651 0.96471 0.17464 0.0
O536 O 0.43754 0.94542 0.19642 0.0
Co537 Co 0.45347 0.96848 0.18361 0.0
O538 O 0.44687 0.96519 0.20214 0.0
C539 C 0.46605 0.94332 0.17385 0.0
C540 C 0.42899 0.92657 0.16234 0.0
C541 C 0.4413 0.95409 0.2053 0.0
O542 O 0.45478 0.93695 0.17444 0.0
O543 O 0.46722 0.95594 0.17605 0.0
O544 O 0.41878 0.9543 0.17653 0.0
O545 O 0.43894 0.96192 0.1726 0.0
Co546 Co 0.06158 0.43256 0.17626 0.0
O547 O 0.06766 0.42917 0.15802 0.0
O548 O 0.07967 0.42531 0.17629 0.0
C549 C 0.04047 0.42384 0.1742 0.0
O550 O 0.05928 0.43458 0.19666 0.0
Co551 Co 0.03699 0.45086 0.1831 0.0
O552 O 0.03946 0.44418 0.20172 0.0
C553 C 0.06274 0.46284 0.17406 0.0
C554 C 0.07905 0.42541 0.16325 0.0
C555 C 0.05038 0.43848 0.20525 0.0
O556 O 0.06883 0.45145 0.17483 0.0
O557 O 0.0501 0.46434 0.17599 0.0
O558 O 0.05062 0.41589 0.17656 0.0
O559 O 0.04359 0.4362 0.17226 0.0
Co560 Co 0.83401 0.57503 0.94363 0.0
O561 O 0.85179 0.58086 0.93826 0.0
O562 O 0.83343 0.58307 0.92592 0.0
C563 C 0.83406 0.58274 0.96519 0.0
O564 O 0.81402 0.57046 0.94544 0.0
Co565 Co 0.83035 0.55383 0.96634 0.0
O566 O 0.81089 0.55531 0.96198 0.0
C567 C 0.84308 0.54637 0.94095 0.0
C568 C 0.84639 0.5844 0.92689 0.0
C569 C 0.8064 0.56281 0.9526 0.0
O570 O 0.83791 0.55685 0.93539 0.0
O571 O 0.84286 0.54444 0.95365 0.0
O572 O 0.83132 0.59093 0.95533 0.0
O573 O 0.838 0.571 0.9615 0.0
Co574 Co 0.83178 0.43079 0.06212 0.0
O575 O 0.84962 0.42531 0.06768 0.0
O576 O 0.83122 0.42295 0.07994 0.0
C577 C 0.83239 0.42278 0.04067 0.0
O578 O 0.81172 0.43506 0.06011 0.0
Co579 Co 0.82748 0.45125 0.0388 0.0
O580 O 0.80806 0.44707 0.0413 0.0
C581 C 0.83997 0.45969 0.06425 0.0
C582 C 0.84421 0.4218 0.07906 0.0
C583 C 0.80377 0.44077 0.0516 0.0
O584 O 0.83534 0.44911 0.07008 0.0
O585 O 0.8393 0.46153 0.05153 0.0
O586 O 0.82952 0.41468 0.05056 0.0
O587 O 0.83589 0.43466 0.04428 0.0
Co588 Co 0.57646 0.83215 0.0629 0.0
O589 O 0.582 0.85012 0.06794 0.0
O590 O 0.58404 0.83212 0.08083 0.0
C591 C 0.58483 0.83195 0.04159 0.0
O592 O 0.57207 0.81209 0.0615 0.0
Co593 Co 0.55635 0.82723 0.03939 0.0
O594 O 0.56022 0.80788 0.0427 0.0
C595 C 0.54748 0.84042 0.06433 0.0
C596 C 0.58534 0.84505 0.07952 0.0
C597 C 0.56637 0.8039 0.05323 0.0
O598 O 0.55802 0.83608 0.07045 0.0
O599 O 0.54582 0.83935 0.05161 0.0
O600 O 0.59273 0.82937 0.05172 0.0
O601 O 0.57291 0.83569 0.04486 0.0
Co602 Co 0.17559 0.57302 0.05995 0.0
O603 O 0.15733 0.5769 0.06564 0.0
O604 O 0.17546 0.58005 0.0781 0.0
C605 C 0.17435 0.58209 0.03894 0.0
O606 O 0.19596 0.57042 0.0581 0.0
Co607 Co 0.1824 0.55481 0.03532 0.0
O608 O 0.20122 0.56067 0.03841 0.0
C609 C 0.17209 0.54284 0.06057 0.0
C610 C 0.16244 0.58041 0.07716 0.0
C611 C 0.20465 0.56624 0.04943 0.0
O612 O 0.17346 0.55406 0.0669 0.0
O613 O 0.17397 0.54158 0.0479 0.0
O614 O 0.17664 0.58983 0.04927 0.0
O615 O 0.17194 0.56976 0.04185 0.0
Co616 Co 0.43167 0.17334 0.06356 0.0
O617 O 0.42538 0.15589 0.06968 0.0
O618 O 0.42558 0.17442 0.08197 0.0
C619 C 0.42209 0.17322 0.04274 0.0
O620 O 0.4368 0.19314 0.06125 0.0
Co621 Co 0.45048 0.17693 0.03886 0.0
O622 O 0.44743 0.19653 0.04163 0.0
C623 C 0.4605 0.16415 0.06358 0.0
C624 C 0.4234 0.16157 0.0813 0.0
C625 C 0.44212 0.20098 0.05242 0.0
O626 O 0.45033 0.16876 0.07012 0.0
O627 O 0.46155 0.165 0.05078 0.0
O628 O 0.4149 0.17654 0.05319 0.0
O629 O 0.434 0.16908 0.04549 0.0
Co630 Co 0.17518 0.43322 0.94546 0.0
O631 O 0.15716 0.42779 0.94043 0.0
O632 O 0.17531 0.42452 0.92803 0.0
C633 C 0.17498 0.42632 0.9673 0.0
O634 O 0.19535 0.43717 0.94698 0.0
Co635 Co 0.17976 0.45509 0.96736 0.0
O636 O 0.19912 0.45286 0.96289 0.0
C637 C 0.16676 0.4619 0.94191 0.0
C638 C 0.16232 0.42367 0.92914 0.0
C639 C 0.20327 0.44483 0.95381 0.0
O640 O 0.17176 0.4512 0.93661 0.0
O641 O 0.16719 0.46423 0.95454 0.0
O642 O 0.17744 0.41769 0.95774 0.0
O643 O 0.17146 0.43804 0.96318 0.0
Co644 Co 0.57245 0.17409 0.94156 0.0
O645 O 0.57698 0.15592 0.93619 0.0
O646 O 0.57988 0.17395 0.92353 0.0
C647 C 0.5809 0.17348 0.96287 0.0
O648 O 0.56913 0.19434 0.94333 0.0
Co649 Co 0.55266 0.17955 0.96523 0.0
O650 O 0.55748 0.19874 0.96221 0.0
C651 C 0.54323 0.16705 0.94018 0.0
C652 C 0.58041 0.16093 0.92461 0.0
C653 C 0.56383 0.20264 0.95177 0.0
O654 O 0.55381 0.17125 0.93406 0.0
O655 O 0.54168 0.1679 0.95292 0.0
O656 O 0.5889 0.17581 0.95275 0.0
O657 O 0.5688 0.17044 0.95956 0.0
Co658 Co 0.43325 0.83233 0.94364 0.0
O659 O 0.42837 0.85039 0.93819 0.0
O660 O 0.42576 0.83223 0.92565 0.0
C661 C 0.42484 0.83288 0.96496 0.0
O662 O 0.4369 0.81214 0.94548 0.0
Co663 Co 0.45313 0.82721 0.96731 0.0
O664 O 0.44853 0.80796 0.96443 0.0
C665 C 0.46243 0.83971 0.94219 0.0
C666 C 0.42496 0.84523 0.92667 0.0
C667 C 0.44227 0.80394 0.95398 0.0
O668 O 0.45183 0.83547 0.9361 0.0
O669 O 0.464 0.83886 0.95493 0.0
O670 O 0.41685 0.83038 0.95487 0.0
O671 O 0.43688 0.83611 0.96161 0.0
Co672 Co 0.5944 0.67928 0.92482 0.0
O673 O 0.61274 0.6728 0.92521 0.0
O674 O 0.59546 0.66131 0.91723 0.0
C675 C 0.59911 0.70043 0.91738 0.0
O676 O 0.57405 0.68242 0.92265 0.0
Co677 Co 0.58532 0.70345 0.9426 0.0
O678 O 0.56772 0.70123 0.93349 0.0
C679 C 0.59395 0.67782 0.95464 0.0
C680 C 0.6082 0.66165 0.92015 0.0
C681 C 0.56502 0.69114 0.92605 0.0
O682 O 0.5918 0.67167 0.94346 0.0
O683 O 0.59358 0.69063 0.95577 0.0
O684 O 0.59808 0.6906 0.90878 0.0
O685 O 0.59821 0.69689 0.92974 0.0
Co686 Co 0.32366 0.5929 0.92674 0.0
O687 O 0.33076 0.61089 0.92938 0.0
O688 O 0.34188 0.59421 0.91985 0.0
C689 C 0.30293 0.59924 0.91916 0.0
O690 O 0.32014 0.57302 0.92214 0.0
Co691 Co 0.29816 0.58219 0.94166 0.0
O692 O 0.30012 0.56618 0.93003 0.0
C693 C 0.32414 0.58509 0.95607 0.0
C694 C 0.34188 0.60659 0.92403 0.0
C695 C 0.3109 0.56398 0.92347 0.0
O696 O 0.33057 0.58772 0.94513 0.0
O697 O 0.31136 0.5837 0.9567 0.0
O698 O 0.31307 0.59881 0.91088 0.0
O699 O 0.30588 0.59669 0.93144 0.0
Co700 Co 0.41246 0.32455 0.92183 0.0
O701 O 0.39407 0.3309 0.92198 0.0
O702 O 0.41131 0.34228 0.91378 0.0
C703 C 0.40784 0.30318 0.91498 0.0
O704 O 0.43284 0.32155 0.91977 0.0
Co705 Co 0.42185 0.30089 0.94011 0.0
O706 O 0.43947 0.30312 0.93104 0.0
C707 C 0.41283 0.32669 0.95158 0.0
C708 C 0.39855 0.34195 0.91664 0.0
C709 C 0.44201 0.31307 0.92338 0.0
O710 O 0.41493 0.33264 0.94028 0.0
O711 O 0.41339 0.31391 0.95296 0.0
O712 O 0.40887 0.31275 0.9061 0.0
O713 O 0.40878 0.30706 0.92723 0.0
Co714 Co 0.68383 0.41212 0.9236 0.0
O715 O 0.67641 0.39424 0.92599 0.0
O716 O 0.66555 0.41125 0.91676 0.0
C717 C 0.70439 0.40548 0.91588 0.0
O718 O 0.68769 0.43197 0.91926 0.0
Co719 Co 0.70965 0.42215 0.93846 0.0
O720 O 0.70789 0.43837 0.92706 0.0
C721 C 0.68368 0.41959 0.953 0.0
C722 C 0.66534 0.39881 0.92076 0.0
C723 C 0.69709 0.44083 0.92062 0.0
O724 O 0.67712 0.41718 0.94209 0.0
O725 O 0.69649 0.42072 0.95354 0.0
O726 O 0.69428 0.40631 0.90759 0.0
O727 O 0.70153 0.40791 0.9282 0.0
Co728 Co 0.59509 0.32438 0.08306 0.0
O729 O 0.61343 0.33091 0.08291 0.0
O730 O 0.5961 0.34215 0.09108 0.0
C731 C 0.59975 0.30301 0.08994 0.0
O732 O 0.57473 0.32122 0.08511 0.0
Co733 Co 0.58593 0.30069 0.06469 0.0
O734 O 0.56832 0.30271 0.07384 0.0
C735 C 0.59467 0.32658 0.05328 0.0
C736 C 0.60886 0.34194 0.0882 0.0
C737 C 0.56566 0.31262 0.08151 0.0
O738 O 0.59254 0.33246 0.06461 0.0
O739 O 0.59424 0.3138 0.05185 0.0
O740 O 0.59872 0.31262 0.0988 0.0
O741 O 0.59888 0.30689 0.07769 0.0
Co742 Co 0.68135 0.59467 0.08226 0.0
O743 O 0.67461 0.61294 0.08217 0.0
O744 O 0.66335 0.5954 0.0898 0.0
C745 C 0.70251 0.5994 0.08979 0.0
O746 O 0.68468 0.57434 0.08418 0.0
Co747 Co 0.70561 0.58596 0.06443 0.0
O748 O 0.70359 0.56824 0.07339 0.0
C749 C 0.6799 0.59442 0.05238 0.0
C750 C 0.66348 0.60818 0.08709 0.0
C751 C 0.6935 0.56541 0.08078 0.0
O752 O 0.67377 0.59224 0.06357 0.0
O753 O 0.69272 0.59411 0.05125 0.0
O754 O 0.69267 0.59818 0.09836 0.0
O755 O 0.69896 0.5987 0.07742 0.0
Co756 Co 0.41111 0.68204 0.08614 0.0
O757 O 0.3928 0.67544 0.08615 0.0
O758 O 0.41027 0.66426 0.09412 0.0
C759 C 0.40644 0.70336 0.09314 0.0
O760 O 0.43145 0.68526 0.08804 0.0
Co761 Co 0.4201 0.70587 0.06788 0.0
O762 O 0.43779 0.70386 0.07691 0.0
C763 C 0.41141 0.67999 0.05634 0.0
C764 C 0.39749 0.66442 0.09137 0.0
C765 C 0.44048 0.69389 0.08449 0.0
O766 O 0.41353 0.67405 0.06763 0.0
O767 O 0.41183 0.69278 0.05498 0.0
O768 O 0.40761 0.69374 0.10197 0.0
O769 O 0.40721 0.69954 0.08087 0.0
Co770 Co 0.32466 0.41238 0.08082 0.0
O771 O 0.33171 0.39436 0.07822 0.0
O772 O 0.34279 0.41091 0.08798 0.0
C773 C 0.30376 0.40611 0.08804 0.0
O774 O 0.32116 0.43229 0.08547 0.0
Co775 Co 0.29943 0.42326 0.06555 0.0
O776 O 0.30125 0.43918 0.07733 0.0
C777 C 0.32561 0.42023 0.05153 0.0
C778 C 0.34279 0.39855 0.08372 0.0
C779 C 0.31193 0.44134 0.08406 0.0
O780 O 0.33187 0.41758 0.06255 0.0
O781 O 0.31285 0.42171 0.05071 0.0
O782 O 0.31376 0.40649 0.0965 0.0
O783 O 0.30693 0.40869 0.07582 0.0
Co784 Co 0.92364 0.59405 0.68054 0.0
O785 O 0.92387 0.61235 0.67393 0.0
O786 O 0.9159 0.59496 0.66264 0.0
C787 C 0.91637 0.59903 0.70169 0.0
O788 O 0.92154 0.5737 0.68374 0.0
Co789 Co 0.94127 0.58488 0.70477 0.0
O790 O 0.93213 0.56729 0.70264 0.0
C791 C 0.9535 0.59334 0.67906 0.0
C792 C 0.91868 0.60773 0.66287 0.0
C793 C 0.9248 0.56464 0.69246 0.0
O794 O 0.94228 0.59149 0.67286 0.0
O795 O 0.95457 0.5928 0.69188 0.0
O796 O 0.90767 0.59777 0.69197 0.0
O797 O 0.9287 0.59799 0.69809 0.0
Co798 Co 0.4158 0.92166 0.6823 0.0
O799 O 0.3978 0.9242 0.67529 0.0
O800 O 0.41433 0.91424 0.6643 0.0
C801 C 0.40928 0.91475 0.70316 0.0
O802 O 0.43569 0.91707 0.68581 0.0
Co803 Co 0.42673 0.93697 0.70747 0.0
O804 O 0.44267 0.92521 0.70568 0.0
C805 C 0.42378 0.95087 0.68115 0.0
C806 C 0.40195 0.91846 0.66432 0.0
C807 C 0.44479 0.91851 0.69498 0.0
O808 O 0.42103 0.93985 0.67492 0.0
O809 O 0.42528 0.9517 0.69391 0.0
O810 O 0.40981 0.90613 0.69331 0.0
O811 O 0.41206 0.9269 0.6999 0.0
Co812 Co 0.08369 0.41442 0.68375 0.0
O813 O 0.08112 0.39636 0.67688 0.0
O814 O 0.09126 0.41273 0.66583 0.0
C815 C 0.09037 0.40811 0.70478 0.0
O816 O 0.08835 0.43434 0.68707 0.0
Co817 Co 0.06815 0.42573 0.7086 0.0
O818 O 0.07974 0.44176 0.70657 0.0
C819 C 0.0545 0.42238 0.68221 0.0
C820 C 0.08696 0.40039 0.66591 0.0
C821 C 0.08668 0.44365 0.69598 0.0
O822 O 0.0656 0.41965 0.67613 0.0
O823 O 0.05352 0.42397 0.69495 0.0
O824 O 0.09908 0.40848 0.695 0.0
O825 O 0.07826 0.41091 0.70136 0.0
Co826 Co 0.59335 0.08451 0.68133 0.0
O827 O 0.61159 0.08429 0.67459 0.0
O828 O 0.59404 0.09184 0.66323 0.0
C829 C 0.59849 0.09231 0.70222 0.0
O830 O 0.57301 0.08643 0.68473 0.0
Co831 Co 0.58481 0.06723 0.70602 0.0
O832 O 0.56705 0.07608 0.70391 0.0
C833 C 0.59321 0.05467 0.68049 0.0
C834 C 0.60683 0.08913 0.66344 0.0
C835 C 0.56413 0.08319 0.69366 0.0
O836 O 0.59094 0.06569 0.6741 0.0
O837 O 0.59293 0.05384 0.69333 0.0
O838 O 0.59695 0.10079 0.69235 0.0
O839 O 0.59759 0.0799 0.69891 0.0
Co840 Co 0.9227 0.415 0.32314 0.0
O841 O 0.92414 0.39712 0.33075 0.0
O842 O 0.91639 0.41492 0.34159 0.0
C843 C 0.91428 0.40812 0.303 0.0
O844 O 0.91931 0.43501 0.31903 0.0
Co845 Co 0.93739 0.42386 0.29691 0.0
O846 O 0.92721 0.44087 0.29873 0.0
C847 C 0.95249 0.42062 0.32247 0.0
C848 C 0.91946 0.40223 0.34181 0.0
C849 C 0.92103 0.44374 0.30957 0.0
O850 O 0.9416 0.41915 0.32934 0.0
O851 O 0.95274 0.42142 0.30963 0.0
O852 O 0.90619 0.40981 0.31317 0.0
O853 O 0.92675 0.41017 0.30551 0.0
Co854 Co 0.59178 0.92473 0.32411 0.0
O855 O 0.60985 0.92751 0.33088 0.0
O856 O 0.5937 0.91699 0.34191 0.0
C857 C 0.59797 0.91837 0.30297 0.0
O858 O 0.57191 0.91977 0.32088 0.0
Co859 Co 0.57996 0.9404 0.2996 0.0
O860 O 0.5643 0.92831 0.30142 0.0
C861 C 0.58345 0.95379 0.32607 0.0
C862 C 0.60597 0.92148 0.3418 0.0
C863 C 0.56257 0.92126 0.31197 0.0
O864 O 0.58636 0.94265 0.33199 0.0
O865 O 0.58167 0.9549 0.31337 0.0
O866 O 0.59792 0.90958 0.31267 0.0
O867 O 0.59502 0.93041 0.30653 0.0
Co868 Co 0.08347 0.59116 0.32155 0.0
O869 O 0.08126 0.60917 0.32868 0.0
O870 O 0.09048 0.59227 0.33974 0.0
C871 C 0.09105 0.59774 0.30095 0.0
O872 O 0.08763 0.57119 0.31801 0.0
Co873 Co 0.06855 0.58081 0.29596 0.0
O874 O 0.07942 0.56429 0.29815 0.0
C875 C 0.05399 0.5843 0.32184 0.0
C876 C 0.08661 0.60475 0.33974 0.0
C877 C 0.08596 0.56205 0.30893 0.0
O878 O 0.06496 0.58637 0.32841 0.0
O879 O 0.05348 0.58313 0.30903 0.0
O880 O 0.09944 0.59679 0.31097 0.0
O881 O 0.07875 0.59523 0.30386 0.0
Co882 Co 0.41129 0.08231 0.32416 0.0
O883 O 0.39283 0.08203 0.33037 0.0
O884 O 0.40998 0.09002 0.34202 0.0
C885 C 0.40711 0.08972 0.3029 0.0
O886 O 0.43172 0.08448 0.32139 0.0
Co887 Co 0.42092 0.06427 0.30046 0.0
O888 O 0.43846 0.07344 0.30286 0.0
C889 C 0.41174 0.05245 0.32593 0.0
C890 C 0.39722 0.08722 0.34153 0.0
C891 C 0.44093 0.08101 0.31289 0.0
O892 O 0.41374 0.06372 0.33197 0.0
O893 O 0.41239 0.05118 0.31315 0.0
O894 O 0.40777 0.0983 0.31277 0.0
O895 O 0.4079 0.07733 0.30641 0.0
Co896 Co 0.68367 0.92348 0.59201 0.0
O897 O 0.67652 0.92544 0.61004 0.0
O898 O 0.66473 0.91866 0.5925 0.0
C899 C 0.70297 0.91293 0.59815 0.0
O900 O 0.6871 0.92002 0.5719 0.0
Co901 Co 0.7109 0.93601 0.58298 0.0
O902 O 0.70795 0.92624 0.56588 0.0
C903 C 0.68682 0.95324 0.5868 0.0
C904 C 0.66498 0.92168 0.60521 0.0
C905 C 0.69658 0.92104 0.56307 0.0
O906 O 0.67912 0.94292 0.58825 0.0
O907 O 0.69963 0.95243 0.58578 0.0
O908 O 0.69198 0.906 0.5966 0.0
O909 O 0.7018 0.92568 0.59661 0.0
Co910 Co 0.68208 0.08473 0.41366 0.0
O911 O 0.67465 0.08234 0.39581 0.0
O912 O 0.66391 0.09185 0.41274 0.0
C913 C 0.70264 0.09212 0.40675 0.0
O914 O 0.68604 0.0891 0.43351 0.0
Co915 Co 0.7078 0.0697 0.42366 0.0
O916 O 0.70616 0.08107 0.43989 0.0
C917 C 0.68165 0.05539 0.42126 0.0
C918 C 0.66369 0.08783 0.40031 0.0
C919 C 0.69543 0.08762 0.44237 0.0
O920 O 0.67515 0.06633 0.41882 0.0
O921 O 0.69446 0.05476 0.42235 0.0
O922 O 0.69268 0.10056 0.4077 0.0
O923 O 0.69967 0.07986 0.40937 0.0
Co924 Co 0.9233 0.68364 0.41238 0.0
O925 O 0.92451 0.67602 0.39446 0.0
O926 O 0.9171 0.66515 0.41234 0.0
C927 C 0.91468 0.70372 0.40561 0.0
O928 O 0.92006 0.68769 0.4324 0.0
Co929 Co 0.93779 0.70996 0.42124 0.0
O930 O 0.9276 0.70812 0.43825 0.0
C931 C 0.9531 0.68452 0.41798 0.0
C932 C 0.91998 0.66491 0.3996 0.0
C933 C 0.92161 0.69718 0.44112 0.0
O934 O 0.94229 0.67756 0.41633 0.0
O935 O 0.95324 0.69735 0.41894 0.0
O936 O 0.90668 0.6935 0.4074 0.0
O937 O 0.92719 0.70132 0.40753 0.0
Co938 Co 0.32279 0.92429 0.41488 0.0
O939 O 0.33015 0.92648 0.39696 0.0
O940 O 0.34114 0.91766 0.4141 0.0
C941 C 0.30241 0.91625 0.40816 0.0
O942 O 0.31904 0.92024 0.43483 0.0
Co943 Co 0.29676 0.9388 0.42475 0.0
O944 O 0.29884 0.92797 0.44131 0.0
C945 C 0.32242 0.9538 0.42164 0.0
C946 C 0.34127 0.92143 0.40159 0.0
C947 C 0.30974 0.92171 0.44378 0.0
O948 O 0.32922 0.94297 0.41959 0.0
O949 O 0.3096 0.9541 0.42274 0.0
O950 O 0.31258 0.90806 0.40931 0.0
O951 O 0.30506 0.92863 0.41054 0.0
Co952 Co 0.08509 0.32329 0.41569 0.0
O953 O 0.08298 0.33064 0.39778 0.0
O954 O 0.09048 0.34205 0.41529 0.0
C955 C 0.0949 0.3038 0.40908 0.0
O956 O 0.08881 0.31959 0.43571 0.0
Co957 Co 0.07197 0.29637 0.42477 0.0
O958 O 0.08205 0.29892 0.44175 0.0
C959 C 0.05536 0.32094 0.42133 0.0
C960 C 0.0872 0.342 0.40264 0.0
C961 C 0.08763 0.31011 0.44452 0.0
O962 O 0.06587 0.32837 0.41984 0.0
O963 O 0.05583 0.30811 0.42225 0.0
O964 O 0.10219 0.31455 0.41061 0.0
O965 O 0.08222 0.3053 0.41096 0.0
Co966 Co 0.32382 0.0816 0.59236 0.0
O967 O 0.3309 0.07909 0.61035 0.0
O968 O 0.34182 0.08906 0.59379 0.0
C969 C 0.30291 0.08851 0.59875 0.0
O970 O 0.32019 0.0862 0.57248 0.0
Co971 Co 0.2988 0.06598 0.58154 0.0
O972 O 0.3003 0.07791 0.56572 0.0
C973 C 0.32518 0.05231 0.58452 0.0
C974 C 0.34185 0.08484 0.60616 0.0
C975 C 0.3109 0.08474 0.5635 0.0
O976 O 0.33129 0.06343 0.58715 0.0
O977 O 0.31243 0.05133 0.58307 0.0
O978 O 0.31278 0.09711 0.59834 0.0
O979 O 0.30621 0.07633 0.59611 0.0
Co980 Co 0.92352 0.3243 0.5902 0.0
O981 O 0.92613 0.33161 0.60807 0.0
O982 O 0.91615 0.34235 0.59141 0.0
C983 C 0.91661 0.30358 0.59714 0.0
O984 O 0.91885 0.32044 0.57037 0.0
Co985 Co 0.93879 0.29894 0.57969 0.0
O986 O 0.92709 0.3005 0.5637 0.0
C987 C 0.95276 0.32524 0.58234 0.0
C988 C 0.92042 0.34253 0.60376 0.0
C989 C 0.92032 0.31113 0.56141 0.0
O990 O 0.94172 0.33155 0.58484 0.0
O991 O 0.95357 0.31246 0.58111 0.0
O992 O 0.90799 0.31341 0.59642 0.0
O993 O 0.92876 0.30677 0.59425 0.0
Co994 Co 0.08096 0.68204 0.58979 0.0
O995 O 0.07817 0.67486 0.6077 0.0
O996 O 0.08846 0.66406 0.59126 0.0
C997 C 0.08759 0.70295 0.59652 0.0
O998 O 0.08585 0.68569 0.56998 0.0
Co999 Co 0.06558 0.7071 0.57872 0.0
O1000 O 0.07748 0.70542 0.56288 0.0
C1001 C 0.05187 0.68068 0.58147 0.0
C1002 C 0.084 0.66393 0.60355 0.0
C1003 C 0.08438 0.69483 0.56085 0.0
O1004 O 0.06293 0.67453 0.58424 0.0
O1005 O 0.05093 0.69343 0.58005 0.0
O1006 O 0.0963 0.69317 0.59611 0.0
O1007 O 0.07551 0.6996 0.59353 0.0
Co1008 Co 0.44573 0.32983 0.07053 0.0
O1009 O 0.43982 0.34813 0.07394 0.0
O1010 O 0.4276 0.33001 0.07777 0.0
C1011 C 0.46688 0.33168 0.07924 0.0
O1012 O 0.44787 0.30938 0.06849 0.0
Co1013 Co 0.47024 0.32286 0.05217 0.0
O1014 O 0.46768 0.30426 0.05889 0.0
C1015 C 0.44458 0.33221 0.04026 0.0
C1016 C 0.42836 0.34305 0.07767 0.0
C1017 C 0.45676 0.30076 0.0646 0.0
O1018 O 0.43848 0.33135 0.05164 0.0
O1019 O 0.45721 0.33024 0.03876 0.0
O1020 O 0.45672 0.32941 0.0872 0.0
O1021 O 0.46374 0.33366 0.06689 0.0
Co1022 Co 0.67557 0.44463 0.07316 0.0
O1023 O 0.6576 0.43915 0.07833 0.0
O1024 O 0.67591 0.42689 0.08121 0.0
C1025 C 0.67478 0.46619 0.0809 0.0
O1026 O 0.69572 0.4465 0.06932 0.0
Co1027 Co 0.68057 0.46778 0.05266 0.0
O1028 O 0.69987 0.46519 0.05729 0.0
C1029 C 0.6681 0.44232 0.0441 0.0
C1030 C 0.6629 0.4278 0.08208 0.0
C1031 C 0.70391 0.45488 0.06376 0.0
O1032 O 0.67236 0.43651 0.05484 0.0
O1033 O 0.66896 0.45501 0.04218 0.0
O1034 O 0.67752 0.45639 0.08917 0.0
O1035 O 0.67158 0.46244 0.06898 0.0
Co1036 Co 0.56044 0.67585 0.07389 0.0
O1037 O 0.56612 0.6575 0.07741 0.0
O1038 O 0.57841 0.67556 0.08143 0.0
C1039 C 0.53918 0.67423 0.0823 0.0
O1040 O 0.55859 0.69628 0.07181 0.0
Co1041 Co 0.53628 0.68316 0.05522 0.0
O1042 O 0.53904 0.70175 0.0619 0.0
C1043 C 0.56204 0.67366 0.04362 0.0
C1044 C 0.57753 0.66253 0.08135 0.0
C1045 C 0.54994 0.70505 0.06775 0.0
O1046 O 0.56797 0.67426 0.05511 0.0
O1047 O 0.54947 0.67585 0.04193 0.0
O1048 O 0.54926 0.67639 0.09039 0.0
O1049 O 0.54244 0.67221 0.06998 0.0
Co1050 Co 0.3317 0.56137 0.07622 0.0
O1051 O 0.34958 0.56681 0.08174 0.0
O1052 O 0.33124 0.57913 0.08418 0.0
C1053 C 0.33215 0.53983 0.08407 0.0
O1054 O 0.31164 0.55958 0.07193 0.0
Co1055 Co 0.32711 0.53823 0.05562 0.0
O1056 O 0.3077 0.54109 0.05955 0.0
C1057 C 0.33976 0.56362 0.04728 0.0
C1058 C 0.34422 0.57818 0.08533 0.0
C1059 C 0.30356 0.55137 0.066 0.0
O1060 O 0.3353 0.56943 0.05794 0.0
O1061 O 0.33897 0.55092 0.04536 0.0
O1062 O 0.32937 0.5497 0.09224 0.0
O1063 O 0.33566 0.5435 0.07221 0.0
Co1064 Co 0.44489 0.67505 0.93712 0.0
O1065 O 0.43896 0.65669 0.93409 0.0
O1066 O 0.42684 0.67477 0.92974 0.0
C1067 C 0.46608 0.67291 0.92861 0.0
O1068 O 0.44704 0.69552 0.93868 0.0
Co1069 Co 0.46926 0.68246 0.95546 0.0
O1070 O 0.46676 0.7009 0.9483 0.0
C1071 C 0.44348 0.67354 0.96745 0.0
C1072 C 0.42756 0.66174 0.93013 0.0
C1073 C 0.45587 0.70425 0.94243 0.0
O1074 O 0.43748 0.67401 0.95598 0.0
O1075 O 0.45609 0.67559 0.96901 0.0
O1076 O 0.45598 0.67503 0.92053 0.0
O1077 O 0.46288 0.67125 0.94099 0.0
Co1078 Co 0.33149 0.444 0.93192 0.0
O1079 O 0.3493 0.43868 0.92616 0.0
O1080 O 0.33098 0.42631 0.92378 0.0
C1081 C 0.33168 0.46559 0.92431 0.0
O1082 O 0.31147 0.4459 0.93642 0.0
Co1083 Co 0.32791 0.46661 0.95325 0.0
O1084 O 0.30841 0.46255 0.95147 0.0
C1085 C 0.34068 0.44118 0.96048 0.0
C1086 C 0.34396 0.42731 0.92255 0.0
C1087 C 0.30386 0.4532 0.94397 0.0
O1088 O 0.33534 0.43567 0.95006 0.0
O1089 O 0.34049 0.45387 0.96249 0.0
O1090 O 0.32892 0.45578 0.91606 0.0
O1091 O 0.33553 0.46183 0.93605 0.0
Co1092 Co 0.56173 0.33139 0.93399 0.0
O1093 O 0.56766 0.34972 0.93078 0.0
O1094 O 0.57979 0.33159 0.92665 0.0
C1095 C 0.54055 0.33337 0.92539 0.0
O1096 O 0.55957 0.31095 0.93575 0.0
Co1097 Co 0.53729 0.32419 0.95234 0.0
O1098 O 0.5398 0.30568 0.94533 0.0
C1099 C 0.56306 0.33316 0.96431 0.0
C1100 C 0.57907 0.34463 0.9269 0.0
C1101 C 0.55071 0.30227 0.93955 0.0
O1102 O 0.56908 0.33263 0.95287 0.0
O1103 O 0.55045 0.33113 0.96586 0.0
O1104 O 0.55069 0.3312 0.91737 0.0
O1105 O 0.54372 0.33521 0.93776 0.0
Co1106 Co 0.67762 0.56007 0.93352 0.0
O1107 O 0.65935 0.56551 0.92941 0.0
O1108 O 0.67736 0.57809 0.92614 0.0
C1109 C 0.67674 0.53887 0.92488 0.0
O1110 O 0.698 0.55835 0.93626 0.0
Co1111 Co 0.68384 0.536 0.95276 0.0
O1112 O 0.70293 0.54054 0.94936 0.0
C1113 C 0.67383 0.56164 0.96374 0.0
C1114 C 0.66435 0.57702 0.92575 0.0
C1115 C 0.70646 0.55069 0.9424 0.0
O1116 O 0.67534 0.56754 0.95232 0.0
O1117 O 0.67546 0.54901 0.9655 0.0
O1118 O 0.67889 0.54907 0.91695 0.0
O1119 O 0.67406 0.54199 0.93711 0.0
Co1120 Co 0.07305 0.44337 0.33316 0.0
O1121 O 0.07793 0.43833 0.35133 0.0
O1122 O 0.08028 0.42529 0.33349 0.0
C1123 C 0.08182 0.46454 0.33307 0.0
O1124 O 0.06934 0.44471 0.31295 0.0
Co1125 Co 0.05357 0.46721 0.3274 0.0
O1126 O 0.05807 0.46374 0.30823 0.0
C1127 C 0.04374 0.44252 0.34042 0.0
C1128 C 0.08119 0.42664 0.34645 0.0
C1129 C 0.06411 0.45305 0.30451 0.0
O1130 O 0.05436 0.43619 0.33658 0.0
O1131 O 0.04233 0.45524 0.33912 0.0
O1132 O 0.08961 0.45425 0.33082 0.0
O1133 O 0.06973 0.46151 0.33646 0.0
Co1134 Co 0.56182 0.07352 0.33207 0.0
O1135 O 0.56694 0.07876 0.35012 0.0
O1136 O 0.57943 0.0819 0.33202 0.0
C1137 C 0.54007 0.08076 0.33241 0.0
O1138 O 0.56017 0.06966 0.31188 0.0
Co1139 Co 0.53956 0.052 0.32753 0.0
O1140 O 0.54383 0.05441 0.30816 0.0
C1141 C 0.56486 0.04492 0.34066 0.0
C1142 C 0.57834 0.08263 0.34502 0.0
C1143 C 0.55309 0.06222 0.30394 0.0
O1144 O 0.57036 0.05539 0.33544 0.0
O1145 O 0.55218 0.04281 0.34028 0.0
O1146 O 0.54974 0.08926 0.32994 0.0
O1147 O 0.54404 0.06897 0.33584 0.0
Co1148 Co 0.93379 0.56295 0.33109 0.0
O1149 O 0.92811 0.56866 0.34885 0.0
O1150 O 0.92721 0.58124 0.33053 0.0
C1151 C 0.92462 0.54196 0.33124 0.0
O1152 O 0.93829 0.56096 0.3111 0.0
Co1153 Co 0.95297 0.53862 0.3267 0.0
O1154 O 0.94923 0.54156 0.30726 0.0
C1155 C 0.9628 0.5634 0.33953 0.0
C1156 C 0.92552 0.58027 0.34344 0.0
C1157 C 0.94357 0.55227 0.30305 0.0
O1158 O 0.95246 0.56981 0.33514 0.0
O1159 O 0.96402 0.55062 0.33856 0.0
O1160 O 0.91712 0.55231 0.32831 0.0
O1161 O 0.9366 0.54488 0.33504 0.0
Co1162 Co 0.44441 0.9332 0.33332 0.0
O1163 O 0.43858 0.93004 0.35168 0.0
O1164 O 0.42619 0.92628 0.33363 0.0
C1165 C 0.46539 0.92409 0.33497 0.0
O1166 O 0.44642 0.93503 0.31288 0.0
Co1167 Co 0.46919 0.95109 0.3261 0.0
O1168 O 0.46623 0.94448 0.30751 0.0
C1169 C 0.44378 0.96355 0.33535 0.0
C1170 C 0.42705 0.92644 0.34666 0.0
C1171 C 0.45522 0.93886 0.30415 0.0
O1172 O 0.4375 0.95225 0.33468 0.0
O1173 O 0.45644 0.9648 0.33339 0.0
O1174 O 0.45503 0.91632 0.33294 0.0
O1175 O 0.46252 0.93651 0.33697 0.0
Co1176 Co 0.07276 0.56133 0.67273 0.0
O1177 O 0.07625 0.56702 0.65438 0.0
O1178 O 0.07929 0.57969 0.67237 0.0
C1179 C 0.08235 0.54053 0.67157 0.0
O1180 O 0.07053 0.55953 0.69315 0.0
Co1181 Co 0.05522 0.5363 0.67987 0.0
O1182 O 0.06131 0.53964 0.69858 0.0
C1183 C 0.04249 0.56121 0.66973 0.0
C1184 C 0.07947 0.57868 0.65935 0.0
C1185 C 0.06668 0.55078 0.70191 0.0
O1186 O 0.05359 0.56779 0.67081 0.0
O1187 O 0.04152 0.54854 0.67173 0.0
O1188 O 0.08986 0.55107 0.67365 0.0
O1189 O 0.06993 0.54312 0.66925 0.0
Co1190 Co 0.44357 0.07202 0.67547 0.0
O1191 O 0.43827 0.07673 0.65731 0.0
O1192 O 0.42562 0.07963 0.67534 0.0
C1193 C 0.46497 0.08026 0.67486 0.0
O1194 O 0.44523 0.0686 0.69573 0.0
Co1195 Co 0.46708 0.05209 0.6811 0.0
O1196 O 0.46408 0.05696 0.70027 0.0
C1197 C 0.44209 0.04293 0.66816 0.0
C1198 C 0.42672 0.08026 0.66233 0.0
C1199 C 0.45362 0.06332 0.7041 0.0
O1200 O 0.43594 0.05347 0.67244 0.0
O1201 O 0.45483 0.04134 0.66917 0.0
O1202 O 0.45494 0.08834 0.67729 0.0
O1203 O 0.46154 0.0682 0.67183 0.0
Co1204 Co 0.9342 0.44417 0.67276 0.0
O1205 O 0.92935 0.43901 0.65461 0.0
O1206 O 0.92629 0.42636 0.67261 0.0
C1207 C 0.92631 0.4657 0.67231 0.0
O1208 O 0.93772 0.4457 0.69301 0.0
Co1209 Co 0.95457 0.46731 0.67835 0.0
O1210 O 0.94985 0.46424 0.69755 0.0
C1211 C 0.96334 0.44215 0.66553 0.0
C1212 C 0.92565 0.42751 0.65961 0.0
C1213 C 0.94328 0.45391 0.70137 0.0
O1214 O 0.95262 0.43623 0.66969 0.0
O1215 O 0.96517 0.45484 0.66653 0.0
O1216 O 0.91807 0.45579 0.67469 0.0
O1217 O 0.9383 0.46209 0.66919 0.0
Co1218 Co 0.56321 0.93396 0.67583 0.0
O1219 O 0.56888 0.93124 0.65736 0.0
O1220 O 0.58152 0.92724 0.67517 0.0
C1221 C 0.54235 0.9246 0.67411 0.0
O1222 O 0.56131 0.93537 0.69635 0.0
Co1223 Co 0.53826 0.95139 0.68357 0.0
O1224 O 0.54123 0.94414 0.7019 0.0
C1225 C 0.56345 0.96434 0.67438 0.0
C1226 C 0.58049 0.92763 0.66216 0.0
C1227 C 0.55237 0.93871 0.70514 0.0
O1228 O 0.56988 0.95311 0.67476 0.0
O1229 O 0.55081 0.96542 0.67653 0.0
O1230 O 0.55282 0.91693 0.67593 0.0
O1231 O 0.54504 0.93711 0.67238 0.0
Co1232 Co 0.32929 0.07469 0.44384 0.0
O1233 O 0.34725 0.07964 0.43817 0.0
O1234 O 0.32893 0.0822 0.42585 0.0
C1235 C 0.33016 0.08311 0.46513 0.0
O1236 O 0.30912 0.07092 0.44599 0.0
Co1237 Co 0.3246 0.05481 0.46759 0.0
O1238 O 0.30531 0.05946 0.46511 0.0
C1239 C 0.33693 0.04562 0.44232 0.0
C1240 C 0.34195 0.08305 0.42672 0.0
C1241 C 0.30109 0.06562 0.45469 0.0
O1242 O 0.33247 0.05614 0.43625 0.0
O1243 O 0.33621 0.04406 0.45507 0.0
O1244 O 0.32744 0.09108 0.45508 0.0
O1245 O 0.33337 0.07108 0.46174 0.0
Co1246 Co 0.33193 0.93212 0.56357 0.0
O1247 O 0.35004 0.92693 0.5685 0.0
O1248 O 0.33214 0.9242 0.58137 0.0
C1249 C 0.33176 0.92428 0.54206 0.0
O1250 O 0.31173 0.936 0.56218 0.0
Co1251 Co 0.32707 0.95307 0.54085 0.0
O1252 O 0.30777 0.95091 0.54559 0.0
C1253 C 0.34048 0.96089 0.56577 0.0
C1254 C 0.34512 0.92333 0.58006 0.0
C1255 C 0.30371 0.94332 0.55508 0.0
O1256 O 0.33548 0.95046 0.57158 0.0
O1257 O 0.33989 0.9627 0.55306 0.0
O1258 O 0.3295 0.91606 0.55201 0.0
O1259 O 0.33536 0.93617 0.54561 0.0
Co1260 Co 0.07407 0.33135 0.56394 0.0
O1261 O 0.07904 0.34937 0.56946 0.0
O1262 O 0.08121 0.33123 0.58209 0.0
C1263 C 0.08291 0.33176 0.5428 0.0
O1264 O 0.07025 0.31118 0.56203 0.0
Co1265 Co 0.05461 0.32641 0.53988 0.0
O1266 O 0.0591 0.30713 0.54277 0.0
C1267 C 0.04502 0.33919 0.56475 0.0
C1268 C 0.08218 0.34422 0.58106 0.0
C1269 C 0.06507 0.30304 0.55336 0.0
O1270 O 0.05538 0.33474 0.57109 0.0
O1271 O 0.04371 0.33832 0.55198 0.0
O1272 O 0.09067 0.32919 0.55304 0.0
O1273 O 0.07084 0.33514 0.5459 0.0
Co1274 Co 0.67536 0.0748 0.56152 0.0
O1275 O 0.65727 0.07949 0.56703 0.0
O1276 O 0.67539 0.08199 0.57963 0.0
C1277 C 0.67468 0.0837 0.54042 0.0
O1278 O 0.6956 0.07135 0.55966 0.0
Co1279 Co 0.68092 0.05569 0.53731 0.0
O1280 O 0.70007 0.06065 0.54024 0.0
C1281 C 0.66908 0.0452 0.56239 0.0
C1282 C 0.6624 0.08286 0.57857 0.0
C1283 C 0.70393 0.06649 0.55099 0.0
O1284 O 0.67242 0.05602 0.56868 0.0
O1285 O 0.67024 0.04387 0.54964 0.0
O1286 O 0.67718 0.09145 0.55068 0.0
O1287 O 0.67161 0.07154 0.54345 0.0
Co1288 Co 0.93161 0.67582 0.56102 0.0
O1289 O 0.92611 0.65787 0.56619 0.0
O1290 O 0.92392 0.67596 0.57892 0.0
C1291 C 0.92344 0.67578 0.53962 0.0
O1292 O 0.93594 0.6959 0.55943 0.0
Co1293 Co 0.95195 0.68051 0.53766 0.0
O1294 O 0.94799 0.69989 0.54072 0.0
C1295 C 0.96038 0.66724 0.56268 0.0
C1296 C 0.92275 0.663 0.57774 0.0
C1297 C 0.94171 0.704 0.55111 0.0
O1298 O 0.94997 0.67197 0.56872 0.0
O1299 O 0.9621 0.66814 0.54996 0.0
O1300 O 0.91542 0.67844 0.54964 0.0
O1301 O 0.93533 0.67211 0.54306 0.0
Co1302 Co 0.67524 0.93445 0.44343 0.0
O1303 O 0.65717 0.92955 0.43804 0.0
O1304 O 0.67528 0.92708 0.4254 0.0
C1305 C 0.67486 0.92592 0.46469 0.0
O1306 O 0.69544 0.93814 0.44519 0.0
Co1307 Co 0.68049 0.95422 0.46715 0.0
O1308 O 0.69973 0.94954 0.46424 0.0
C1309 C 0.66771 0.96358 0.44219 0.0
C1310 C 0.66228 0.92622 0.42647 0.0
C1311 C 0.70369 0.94337 0.45372 0.0
O1312 O 0.67198 0.95306 0.43601 0.0
O1313 O 0.66868 0.9651 0.45493 0.0
O1314 O 0.67731 0.91801 0.45454 0.0
O1315 O 0.67156 0.93797 0.46146 0.0
Co1316 Co 0.07404 0.67399 0.44153 0.0
O1317 O 0.07853 0.6558 0.4362 0.0
O1318 O 0.08154 0.6738 0.42354 0.0
C1319 C 0.08244 0.67339 0.46285 0.0
O1320 O 0.07083 0.69429 0.44324 0.0
Co1321 Co 0.0543 0.67973 0.46517 0.0
O1322 O 0.05935 0.69884 0.46218 0.0
C1323 C 0.04466 0.66733 0.4401 0.0
C1324 C 0.08207 0.66079 0.42465 0.0
C1325 C 0.06567 0.70266 0.4517 0.0
O1326 O 0.05539 0.67119 0.43399 0.0
O1327 O 0.0431 0.66837 0.45283 0.0
O1328 O 0.09047 0.67566 0.45275 0.0
O1329 O 0.07033 0.6704 0.45952 0.0
Co1330 Co 0.93352 0.33202 0.44281 0.0
O1331 O 0.92821 0.34986 0.43688 0.0
O1332 O 0.92727 0.33148 0.42442 0.0
C1333 C 0.92396 0.33254 0.46365 0.0
O1334 O 0.93751 0.31194 0.44494 0.0
Co1335 Co 0.952 0.32708 0.46758 0.0
O1336 O 0.94778 0.30775 0.46461 0.0
C1337 C 0.96298 0.33917 0.44288 0.0
C1338 C 0.92577 0.34443 0.42524 0.0
C1339 C 0.94231 0.30373 0.45373 0.0
O1340 O 0.95244 0.33554 0.43628 0.0
O1341 O 0.96395 0.33808 0.45566 0.0
O1342 O 0.91659 0.3297 0.45318 0.0
O1343 O 0.93609 0.33599 0.46093 0.0
C1344 C 0.12261 0.15326 0.40955 0.0
C1345 C 0.11252 0.15506 0.41919 0.0
C1346 C 0.13052 0.14149 0.4094 0.0
C1347 C 0.1286 0.13153 0.41944 0.0
C1348 C 0.11849 0.13348 0.4293 0.0
C1349 C 0.11043 0.1451 0.4289 0.0
C1350 C 0.1409 0.13969 0.39849 0.0
C1351 C 0.11634 0.12342 0.44045 0.0
C1352 C 0.1411 0.09535 0.41548 0.0
C1353 C 0.15342 0.09576 0.42232 0.0
C1354 C 0.13319 0.10702 0.41396 0.0
C1355 C 0.13741 0.11928 0.41992 0.0
C1356 C 0.14985 0.1197 0.42685 0.0
C1357 C 0.15779 0.10802 0.42773 0.0
C1358 C 0.12024 0.1062 0.40611 0.0
C1359 C 0.15455 0.13234 0.4338 0.0
H1360 H 0.12416 0.16096 0.402 0.0
H1361 H 0.10266 0.14657 0.43641 0.0
H1362 H 0.1511 0.13936 0.40296 0.0
H1363 H 0.13926 0.12998 0.39325 0.0
H1364 H 0.14058 0.14793 0.39096 0.0
H1365 H 0.10838 0.12663 0.44759 0.0
H1366 H 0.11349 0.11353 0.43618 0.0
H1367 H 0.12584 0.12196 0.44612 0.0
H1368 H 0.13767 0.0859 0.41128 0.0
H1369 H 0.1672 0.10836 0.43323 0.0
H1370 H 0.11991 0.11426 0.3984 0.0
H1371 H 0.11157 0.10779 0.41293 0.0
H1372 H 0.119 0.09633 0.40104 0.0
H1373 H 0.15534 0.1407 0.42648 0.0
H1374 H 0.16446 0.13103 0.43878 0.0
H1375 H 0.14707 0.13539 0.4415 0.0
C1376 C 0.86308 0.11182 0.41217 0.0
C1377 C 0.8528 0.11408 0.42155 0.0
C1378 C 0.8749 0.11964 0.41222 0.0
C1379 C 0.87671 0.12969 0.42217 0.0
C1380 C 0.86635 0.13196 0.43169 0.0
C1381 C 0.85447 0.12429 0.43114 0.0
C1382 C 0.8855 0.1171 0.40167 0.0
C1383 C 0.86795 0.14228 0.44271 0.0
C1384 C 0.91243 0.14042 0.43146 0.0
C1385 C 0.91331 0.15324 0.42563 0.0
C1386 C 0.90064 0.13265 0.43035 0.0
C1387 C 0.88955 0.13761 0.4229 0.0
C1388 C 0.89058 0.15035 0.41659 0.0
C1389 C 0.90234 0.15809 0.41822 0.0
C1390 C 0.8999 0.11932 0.43756 0.0
C1391 C 0.87917 0.15589 0.40827 0.0
H1392 H 0.86184 0.10397 0.40471 0.0
H1393 H 0.84665 0.12599 0.43853 0.0
H1394 H 0.88796 0.1266 0.39637 0.0
H1395 H 0.89487 0.11349 0.40651 0.0
H1396 H 0.88224 0.10953 0.39414 0.0
H1397 H 0.85904 0.14274 0.44942 0.0
H1398 H 0.87693 0.13985 0.44888 0.0
H1399 H 0.86961 0.15237 0.4383 0.0
H1400 H 0.92078 0.13667 0.43735 0.0
H1401 H 0.90295 0.16798 0.41367 0.0
H1402 H 0.89759 0.11116 0.43033 0.0
H1403 H 0.89163 0.11955 0.44504 0.0
H1404 H 0.90942 0.11682 0.44284 0.0
H1405 H 0.8761 0.14846 0.40054 0.0
H1406 H 0.88191 0.16544 0.40318 0.0
H1407 H 0.87031 0.15776 0.41477 0.0
C1408 C 0.86623 0.91401 0.42233 0.0
C1409 C 0.85248 0.91417 0.41919 0.0
C1410 C 0.87391 0.90219 0.42108 0.0
C1411 C 0.86779 0.89024 0.41629 0.0
C1412 C 0.85404 0.89051 0.41253 0.0
C1413 C 0.84653 0.90241 0.41417 0.0
C1414 C 0.88843 0.90233 0.4255 0.0
C1415 C 0.84718 0.87812 0.40709 0.0
C1416 C 0.89159 0.86212 0.40523 0.0
C1417 C 0.89104 0.85339 0.41626 0.0
C1418 C 0.88368 0.87388 0.40484 0.0
C1419 C 0.87555 0.87732 0.41604 0.0
C1420 C 0.87511 0.86854 0.42726 0.0
C1421 C 0.88263 0.85657 0.4271 0.0
C1422 C 0.88408 0.88267 0.39249 0.0
C1423 C 0.86701 0.87198 0.43963 0.0
H1424 H 0.8709 0.923 0.42633 0.0
H1425 H 0.83591 0.90243 0.4117 0.0
H1426 H 0.88979 0.8954 0.43412 0.0
H1427 H 0.89502 0.8987 0.41727 0.0
H1428 H 0.89184 0.91252 0.42855 0.0
H1429 H 0.83688 0.88031 0.40335 0.0
H1430 H 0.85317 0.87374 0.39877 0.0
H1431 H 0.84646 0.8704 0.41509 0.0
H1432 H 0.8981 0.85967 0.39684 0.0
H1433 H 0.88237 0.84993 0.43575 0.0
H1434 H 0.88848 0.89259 0.39503 0.0
H1435 H 0.87372 0.88449 0.38877 0.0
H1436 H 0.89011 0.87811 0.38427 0.0
H1437 H 0.87041 0.88177 0.44376 0.0
H1438 H 0.86795 0.86423 0.44761 0.0
H1439 H 0.85624 0.87307 0.43698 0.0
C1440 C 0.09316 0.86694 0.43301 0.0
C1441 C 0.09234 0.85436 0.42666 0.0
C1442 C 0.10486 0.87489 0.4321 0.0
C1443 C 0.11594 0.87037 0.42434 0.0
C1444 C 0.11497 0.85788 0.41753 0.0
C1445 C 0.10329 0.84995 0.41894 0.0
C1446 C 0.10553 0.88792 0.43984 0.0
C1447 C 0.12635 0.8528 0.40888 0.0
C1448 C 0.14199 0.89685 0.41417 0.0
C1449 C 0.15244 0.8944 0.42333 0.0
C1450 C 0.13023 0.88891 0.41414 0.0
C1451 C 0.12867 0.87849 0.42375 0.0
C1452 C 0.13921 0.87602 0.43303 0.0
C1453 C 0.151 0.88386 0.43258 0.0
C1454 C 0.11945 0.89171 0.40385 0.0
C1455 C 0.1379 0.8653 0.44368 0.0
H1456 H 0.08483 0.87035 0.43914 0.0
H1457 H 0.10275 0.84026 0.414 0.0
H1458 H 0.11389 0.8875 0.44721 0.0
H1459 H 0.10765 0.89639 0.43291 0.0
H1460 H 0.09605 0.89009 0.44532 0.0
H1461 H 0.12367 0.84341 0.40346 0.0
H1462 H 0.12922 0.86056 0.4014 0.0
H1463 H 0.13531 0.85082 0.4152 0.0
H1464 H 0.14302 0.90497 0.40698 0.0
H1465 H 0.15895 0.88199 0.4398 0.0
H1466 H 0.1101 0.89499 0.40895 0.0
H1467 H 0.11704 0.88239 0.39821 0.0
H1468 H 0.12249 0.89961 0.39657 0.0
H1469 H 0.12899 0.86738 0.45007 0.0
H1470 H 0.14692 0.8647 0.45024 0.0
H1471 H 0.1363 0.85535 0.43892 0.0
C1472 C 0.14077 0.91358 0.5831 0.0
C1473 C 0.15357 0.91466 0.58892 0.0
C1474 C 0.13307 0.90179 0.58444 0.0
C1475 C 0.13806 0.89091 0.59217 0.0
C1476 C 0.1507 0.89222 0.59863 0.0
C1477 C 0.15842 0.90396 0.59672 0.0
C1478 C 0.11988 0.90073 0.57699 0.0
C1479 C 0.15623 0.88109 0.60732 0.0
C1480 C 0.11222 0.86404 0.60175 0.0
C1481 C 0.115 0.85387 0.59238 0.0
C1482 C 0.11999 0.8759 0.60219 0.0
C1483 C 0.13045 0.87789 0.5927 0.0
C1484 C 0.13329 0.8676 0.58326 0.0
C1485 C 0.1257 0.85566 0.58338 0.0
C1486 C 0.11689 0.88638 0.6127 0.0
C1487 C 0.14402 0.86939 0.57267 0.0
H1488 H 0.13703 0.92172 0.5769 0.0
H1489 H 0.1683 0.90472 0.60124 0.0
H1490 H 0.12045 0.89246 0.56952 0.0
H1491 H 0.11163 0.89823 0.58406 0.0
H1492 H 0.11725 0.91017 0.57164 0.0
H1493 H 0.1654 0.88424 0.61287 0.0
H1494 H 0.14854 0.87776 0.61468 0.0
H1495 H 0.1588 0.87228 0.60098 0.0
H1496 H 0.10397 0.86271 0.60874 0.0
H1497 H 0.1278 0.84794 0.57598 0.0
H1498 H 0.11297 0.8956 0.60782 0.0
H1499 H 0.1262 0.88922 0.61815 0.0
H1500 H 0.10933 0.88281 0.62011 0.0
H1501 H 0.14165 0.8783 0.56639 0.0
H1502 H 0.14495 0.86048 0.56601 0.0
H1503 H 0.15389 0.87127 0.57749 0.0
C1504 C 0.10247 0.15754 0.59082 0.0
C1505 C 0.09154 0.15264 0.58337 0.0
C1506 C 0.11427 0.14985 0.59245 0.0
C1507 C 0.11539 0.13714 0.58609 0.0
C1508 C 0.10431 0.13211 0.57867 0.0
C1509 C 0.09248 0.13981 0.57758 0.0
C1510 C 0.12564 0.15546 0.60078 0.0
C1511 C 0.10515 0.11882 0.57138 0.0
C1512 C 0.15056 0.12438 0.57736 0.0
C1513 C 0.15245 0.11406 0.58677 0.0
C1514 C 0.13858 0.13192 0.57702 0.0
C1515 C 0.12834 0.12939 0.58661 0.0
C1516 C 0.13037 0.11923 0.59641 0.0
C1517 C 0.14229 0.11154 0.59622 0.0
C1518 C 0.13674 0.14234 0.56615 0.0
C1519 C 0.11993 0.11644 0.60704 0.0
H1520 H 0.10182 0.16743 0.59532 0.0
H1521 H 0.08416 0.13602 0.57165 0.0
H1522 H 0.12894 0.14794 0.60833 0.0
H1523 H 0.1344 0.15764 0.59423 0.0
H1524 H 0.12276 0.16485 0.60608 0.0
H1525 H 0.0956 0.11621 0.56621 0.0
H1526 H 0.11331 0.11921 0.56379 0.0
H1527 H 0.10767 0.11066 0.57853 0.0
H1528 H 0.15829 0.12629 0.56992 0.0
H1529 H 0.1437 0.1036 0.60355 0.0
H1530 H 0.13503 0.15237 0.57071 0.0
H1531 H 0.12772 0.13989 0.56006 0.0
H1532 H 0.14557 0.14299 0.55935 0.0
H1533 H 0.11738 0.12586 0.61245 0.0
H1534 H 0.12339 0.10886 0.61447 0.0
H1535 H 0.11056 0.11273 0.60228 0.0
C1536 C 0.87991 0.15115 0.58188 0.0
C1537 C 0.89055 0.15296 0.59095 0.0
C1538 C 0.87247 0.13914 0.58162 0.0
C1539 C 0.87541 0.1288 0.59097 0.0
C1540 C 0.88579 0.13081 0.60054 0.0
C1541 C 0.8934 0.14276 0.60025 0.0
C1542 C 0.86181 0.13731 0.57096 0.0
C1543 C 0.88897 0.12026 0.61096 0.0
C1544 C 0.84785 0.10229 0.59457 0.0
C1545 C 0.85291 0.09176 0.58668 0.0
C1546 C 0.85536 0.11413 0.59664 0.0
C1547 C 0.86801 0.11569 0.59024 0.0
C1548 C 0.87321 0.10498 0.58242 0.0
C1549 C 0.86571 0.09308 0.58093 0.0
C1550 C 0.84962 0.12508 0.60541 0.0
C1551 C 0.88642 0.10633 0.57505 0.0
H1552 H 0.87777 0.15892 0.57455 0.0
H1553 H 0.90161 0.14412 0.60729 0.0
H1554 H 0.86436 0.12853 0.56456 0.0
H1555 H 0.85195 0.13521 0.57569 0.0
H1556 H 0.86077 0.1463 0.56441 0.0
H1557 H 0.89642 0.12386 0.61846 0.0
H1558 H 0.87966 0.11722 0.6163 0.0
H1559 H 0.89306 0.11116 0.60599 0.0
H1560 H 0.83797 0.10132 0.59905 0.0
H1561 H 0.8696 0.08505 0.57467 0.0
H1562 H 0.84697 0.13392 0.59916 0.0
H1563 H 0.85722 0.12844 0.61286 0.0
H1564 H 0.84046 0.12174 0.61086 0.0
H1565 H 0.88576 0.11468 0.56769 0.0
H1566 H 0.88921 0.09699 0.5696 0.0
H1567 H 0.89459 0.10884 0.58219 0.0
C1568 C 0.90111 0.8469 0.58321 0.0
C1569 C 0.91342 0.85315 0.58024 0.0
C1570 C 0.88911 0.85437 0.5843 0.0
C1571 C 0.8893 0.86847 0.58227 0.0
C1572 C 0.90175 0.87487 0.5795 0.0
C1573 C 0.91362 0.86717 0.57858 0.0
C1574 C 0.87615 0.84711 0.58742 0.0
C1575 C 0.90246 0.88984 0.57712 0.0
C1576 C 0.85642 0.88521 0.57133 0.0
C1577 C 0.85229 0.89168 0.58314 0.0
C1578 C 0.86852 0.87786 0.57085 0.0
C1579 C 0.87646 0.87645 0.58262 0.0
C1580 C 0.8721 0.88271 0.59468 0.0
C1581 C 0.86025 0.8905 0.59471 0.0
C1582 C 0.87294 0.8718 0.55766 0.0
C1583 C 0.87995 0.88115 0.60756 0.0
H1584 H 0.90079 0.83609 0.58449 0.0
H1585 H 0.92303 0.87212 0.5762 0.0
H1586 H 0.87119 0.85177 0.59626 0.0
H1587 H 0.86913 0.84804 0.57881 0.0
H1588 H 0.87777 0.83627 0.58952 0.0
H1589 H 0.91292 0.89336 0.57537 0.0
H1590 H 0.89626 0.89253 0.56825 0.0
H1591 H 0.89827 0.89533 0.58586 0.0
H1592 H 0.85038 0.8863 0.56232 0.0
H1593 H 0.85707 0.89552 0.60385 0.0
H1594 H 0.87364 0.86072 0.5586 0.0
H1595 H 0.88311 0.87554 0.55498 0.0
H1596 H 0.86593 0.87424 0.54931 0.0
H1597 H 0.88122 0.87033 0.60994 0.0
H1598 H 0.87495 0.88616 0.6162 0.0
H1599 H 0.89015 0.88548 0.60635 0.0
C1600 C 0.40888 0.1236 0.15158 0.0
C1601 C 0.41724 0.11233 0.15261 0.0
C1602 C 0.40866 0.13145 0.13978 0.0
C1603 C 0.41748 0.12831 0.12902 0.0
C1604 C 0.42604 0.11696 0.13014 0.0
C1605 C 0.42561 0.10896 0.1418 0.0
C1606 C 0.39903 0.14314 0.13886 0.0
C1607 C 0.43602 0.11353 0.11923 0.0
C1608 C 0.41264 0.14213 0.09343 0.0
C1609 C 0.4209 0.15354 0.09363 0.0
C1610 C 0.41098 0.13413 0.10503 0.0
C1611 C 0.41827 0.13724 0.11689 0.0
C1612 C 0.42672 0.14872 0.11704 0.0
C1613 C 0.42769 0.15686 0.10553 0.0
C1614 C 0.40149 0.12231 0.10456 0.0
C1615 C 0.43512 0.15214 0.12921 0.0
H1616 H 0.4024 0.12618 0.15995 0.0
H1617 H 0.43221 0.10033 0.1427 0.0
H1618 H 0.40473 0.15271 0.1386 0.0
H1619 H 0.39314 0.14252 0.12941 0.0
H1620 H 0.39196 0.14346 0.1475 0.0
H1621 H 0.44211 0.10452 0.12173 0.0
H1622 H 0.4307 0.11167 0.10962 0.0
H1623 H 0.44292 0.12214 0.11759 0.0
H1624 H 0.40739 0.13954 0.08424 0.0
H1625 H 0.43428 0.16554 0.10565 0.0
H1626 H 0.39436 0.12279 0.11312 0.0
H1627 H 0.40723 0.11281 0.10554 0.0
H1628 H 0.39566 0.12196 0.09504 0.0
H1629 H 0.42856 0.1539 0.13804 0.0
H1630 H 0.44142 0.16122 0.12761 0.0
H1631 H 0.44182 0.14357 0.13171 0.0
C1632 C 0.87926 0.42421 0.15058 0.0
C1633 C 0.88973 0.41499 0.15263 0.0
C1634 C 0.8719 0.42438 0.13851 0.0
C1635 C 0.87473 0.41479 0.12835 0.0
C1636 C 0.88494 0.40509 0.13061 0.0
C1637 C 0.89249 0.40547 0.1426 0.0
C1638 C 0.86144 0.43518 0.13642 0.0
C1639 C 0.88801 0.39442 0.12028 0.0
C1640 C 0.84732 0.41099 0.1017 0.0
C1641 C 0.85257 0.41856 0.09102 0.0
C1642 C 0.8547 0.40911 0.11365 0.0
C1643 C 0.86742 0.41537 0.11518 0.0
C1644 C 0.87281 0.42288 0.10434 0.0
C1645 C 0.86543 0.42418 0.09234 0.0
C1646 C 0.84874 0.40067 0.12475 0.0
C1647 C 0.88611 0.43008 0.10563 0.0
H1648 H 0.8772 0.43171 0.15821 0.0
H1649 H 0.90056 0.39832 0.14414 0.0
H1650 H 0.86414 0.44137 0.12755 0.0
H1651 H 0.85151 0.43056 0.13433 0.0
H1652 H 0.86044 0.4419 0.14528 0.0
H1653 H 0.89533 0.38688 0.12405 0.0
H1654 H 0.87864 0.38916 0.11729 0.0
H1655 H 0.89223 0.39915 0.11111 0.0
H1656 H 0.83738 0.40662 0.10074 0.0
H1657 H 0.86947 0.43021 0.08421 0.0
H1658 H 0.84616 0.40715 0.13344 0.0
H1659 H 0.85619 0.39316 0.1283 0.0
H1660 H 0.83951 0.39531 0.12148 0.0
H1661 H 0.88551 0.43762 0.11384 0.0
H1662 H 0.88903 0.43531 0.09621 0.0
H1663 H 0.89417 0.42288 0.10834 0.0
C1664 C 0.58307 0.88098 0.15037 0.0
C1665 C 0.59196 0.89176 0.15223 0.0
C1666 C 0.58296 0.87357 0.13834 0.0
C1667 C 0.59231 0.87666 0.12804 0.0
C1668 C 0.60168 0.88721 0.13009 0.0
C1669 C 0.60121 0.89481 0.14205 0.0
C1670 C 0.57249 0.86273 0.13647 0.0
C1671 C 0.61211 0.89056 0.1196 0.0
C1672 C 0.59651 0.84892 0.10183 0.0
C1673 C 0.5886 0.85374 0.09121 0.0
C1674 C 0.59843 0.8566 0.11358 0.0
C1675 C 0.59184 0.86916 0.11498 0.0
C1676 C 0.58399 0.87413 0.10417 0.0
C1677 C 0.58268 0.86648 0.09235 0.0
C1678 C 0.60725 0.85111 0.12464 0.0
C1679 C 0.57639 0.88722 0.10534 0.0
H1680 H 0.57577 0.87869 0.15812 0.0
H1681 H 0.60812 0.90312 0.14345 0.0
H1682 H 0.56618 0.86508 0.12757 0.0
H1683 H 0.57742 0.85293 0.13454 0.0
H1684 H 0.56583 0.86167 0.14537 0.0
H1685 H 0.61941 0.8982 0.12319 0.0
H1686 H 0.61769 0.88135 0.11668 0.0
H1687 H 0.60712 0.89445 0.11042 0.0
H1688 H 0.60112 0.83908 0.101 0.0
H1689 H 0.57639 0.87017 0.08425 0.0
H1690 H 0.60098 0.84837 0.13343 0.0
H1691 H 0.6145 0.85889 0.12801 0.0
H1692 H 0.61293 0.84206 0.12139 0.0
H1693 H 0.56894 0.88649 0.11361 0.0
H1694 H 0.57101 0.88986 0.09593 0.0
H1695 H 0.58337 0.89553 0.10791 0.0
C1696 C 0.12688 0.57854 0.14872 0.0
C1697 C 0.11612 0.5875 0.15036 0.0
C1698 C 0.13427 0.57807 0.13666 0.0
C1699 C 0.13113 0.58709 0.12608 0.0
C1700 C 0.12057 0.5965 0.12788 0.0
C1701 C 0.11304 0.59643 0.1399 0.0
C1702 C 0.14515 0.5676 0.13508 0.0
C1703 C 0.11713 0.60656 0.11707 0.0
C1704 C 0.15863 0.59135 0.09959 0.0
C1705 C 0.15387 0.58325 0.08907 0.0
C1706 C 0.15107 0.59317 0.11143 0.0
C1707 C 0.13866 0.58634 0.11303 0.0
C1708 C 0.13378 0.57823 0.10237 0.0
C1709 C 0.14133 0.57696 0.09046 0.0
C1710 C 0.15648 0.60223 0.12233 0.0
C1711 C 0.12084 0.57041 0.10376 0.0
H1712 H 0.1292 0.57147 0.15668 0.0
H1713 H 0.10473 0.60338 0.1411 0.0
H1714 H 0.14279 0.56099 0.12642 0.0
H1715 H 0.15492 0.57251 0.13293 0.0
H1716 H 0.14629 0.56126 0.1442 0.0
H1717 H 0.10937 0.61386 0.1204 0.0
H1718 H 0.12628 0.61217 0.11402 0.0
H1719 H 0.11335 0.60124 0.10803 0.0
H1720 H 0.16831 0.59625 0.09857 0.0
H1721 H 0.13769 0.57053 0.08245 0.0
H1722 H 0.15909 0.59617 0.13132 0.0
H1723 H 0.14869 0.60959 0.12543 0.0
H1724 H 0.16559 0.6078 0.11905 0.0
H1725 H 0.12171 0.56321 0.11223 0.0
H1726 H 0.11831 0.56472 0.09449 0.0
H1727 H 0.11241 0.5773 0.10612 0.0
C1728 C 0.40972 0.89458 0.86367 0.0
C1729 C 0.41951 0.89227 0.85379 0.0
C1730 C 0.40935 0.88688 0.87556 0.0
C1731 C 0.4193 0.87692 0.87786 0.0
C1732 C 0.42922 0.87459 0.8679 0.0
C1733 C 0.42907 0.88213 0.85593 0.0
C1734 C 0.39837 0.88945 0.8857 0.0
C1735 C 0.44025 0.86438 0.87004 0.0
C1736 C 0.42765 0.86678 0.91394 0.0
C1737 C 0.42213 0.85383 0.91476 0.0
C1738 C 0.42668 0.87444 0.90208 0.0
C1739 C 0.41964 0.86922 0.89083 0.0
C1740 C 0.41352 0.85638 0.89183 0.0
C1741 C 0.41504 0.84876 0.90367 0.0
C1742 C 0.43369 0.88788 0.90139 0.0
C1743 C 0.40561 0.85058 0.88026 0.0
H1744 H 0.40228 0.90238 0.86206 0.0
H1745 H 0.43677 0.88039 0.84841 0.0
H1746 H 0.39311 0.87992 0.88813 0.0
H1747 H 0.4028 0.8933 0.89518 0.0
H1748 H 0.39087 0.89686 0.88202 0.0
H1749 H 0.44729 0.86386 0.86139 0.0
H1750 H 0.44606 0.86697 0.8792 0.0
H1751 H 0.43585 0.85428 0.87166 0.0
H1752 H 0.43331 0.87071 0.92238 0.0
H1753 H 0.41075 0.83876 0.90423 0.0
H1754 H 0.42644 0.89588 0.89864 0.0
H1755 H 0.44152 0.88762 0.89345 0.0
H1756 H 0.43854 0.89064 0.91107 0.0
H1757 H 0.39801 0.85794 0.87672 0.0
H1758 H 0.4004 0.8411 0.88305 0.0
H1759 H 0.41243 0.84848 0.8717 0.0
C1760 C 0.11323 0.40677 0.86624 0.0
C1761 C 0.11639 0.41584 0.85591 0.0
C1762 C 0.12071 0.40652 0.87829 0.0
C1763 C 0.13127 0.4159 0.88028 0.0
C1764 C 0.13449 0.42503 0.86983 0.0
C1765 C 0.12718 0.42473 0.85773 0.0
C1766 C 0.1172 0.39633 0.88896 0.0
C1767 C 0.14536 0.43549 0.8716 0.0
C1768 C 0.14105 0.4262 0.91594 0.0
C1769 C 0.15373 0.42019 0.91741 0.0
C1770 C 0.13355 0.4247 0.90403 0.0
C1771 C 0.13862 0.41662 0.89344 0.0
C1772 C 0.15111 0.40996 0.89516 0.0
C1773 C 0.15863 0.41203 0.907 0.0
C1774 C 0.12053 0.43235 0.90253 0.0
C1775 C 0.1567 0.40091 0.88435 0.0
H1776 H 0.10492 0.39987 0.8649 0.0
H1777 H 0.12956 0.43189 0.84987 0.0
H1778 H 0.12636 0.39079 0.89212 0.0
H1779 H 0.1132 0.40152 0.89797 0.0
H1780 H 0.10958 0.38898 0.88542 0.0
H1781 H 0.14659 0.44191 0.86256 0.0
H1782 H 0.1429 0.44203 0.8803 0.0
H1783 H 0.15511 0.43057 0.87381 0.0
H1784 H 0.13729 0.43268 0.92385 0.0
H1785 H 0.16841 0.40736 0.90807 0.0
H1786 H 0.11222 0.42537 0.89999 0.0
H1787 H 0.12142 0.43963 0.89412 0.0
H1788 H 0.11779 0.43794 0.9118 0.0
H1789 H 0.14895 0.39361 0.88104 0.0
H1790 H 0.1657 0.39528 0.88782 0.0
H1791 H 0.15956 0.40699 0.87546 0.0
C1792 C 0.57515 0.12295 0.85433 0.0
C1793 C 0.58458 0.11265 0.85239 0.0
C1794 C 0.57515 0.13078 0.86612 0.0
C1795 C 0.58509 0.12855 0.87611 0.0
C1796 C 0.5949 0.11843 0.87399 0.0
C1797 C 0.59439 0.11046 0.86228 0.0
C1798 C 0.56426 0.14116 0.86807 0.0
C1799 C 0.60589 0.11595 0.88415 0.0
C1800 C 0.58995 0.15703 0.9015 0.0
C1801 C 0.58292 0.15219 0.91273 0.0
C1802 C 0.5912 0.14925 0.88972 0.0
C1803 C 0.58487 0.13649 0.88894 0.0
C1804 C 0.57785 0.13154 0.90031 0.0
C1805 C 0.57714 0.13934 0.91209 0.0
C1806 C 0.5991 0.15478 0.87802 0.0
C1807 C 0.57062 0.1182 0.89985 0.0
H1808 H 0.56744 0.1246 0.8468 0.0
H1809 H 0.60174 0.10255 0.86083 0.0
H1810 H 0.5584 0.1388 0.87727 0.0
H1811 H 0.56879 0.15124 0.86953 0.0
H1812 H 0.55724 0.14163 0.85941 0.0
H1813 H 0.6133 0.1084 0.8806 0.0
H1814 H 0.61125 0.12547 0.88638 0.0
H1815 H 0.60145 0.11233 0.89371 0.0
H1816 H 0.59443 0.16696 0.90191 0.0
H1817 H 0.57151 0.1356 0.92064 0.0
H1818 H 0.59225 0.15677 0.86945 0.0
H1819 H 0.60662 0.14729 0.87458 0.0
H1820 H 0.60439 0.16426 0.8806 0.0
H1821 H 0.56281 0.11843 0.89188 0.0
H1822 H 0.56571 0.1157 0.90956 0.0
H1823 H 0.57775 0.11004 0.89726 0.0
C1824 C 0.84948 0.59552 0.90442 0.0
C1825 C 0.85473 0.58779 0.91496 0.0
C1826 C 0.85676 0.59744 0.89242 0.0
C1827 C 0.86938 0.59103 0.8907 0.0
C1828 C 0.8748 0.58338 0.90143 0.0
C1829 C 0.86753 0.58205 0.91348 0.0
C1830 C 0.85079 0.60605 0.88145 0.0
C1831 C 0.88799 0.57601 0.89993 0.0
C1832 C 0.88058 0.58219 0.8551 0.0
C1833 C 0.89116 0.59126 0.85294 0.0
C1834 C 0.87339 0.58208 0.86727 0.0
C1835 C 0.87652 0.59157 0.87743 0.0
C1836 C 0.88684 0.60113 0.87507 0.0
C1837 C 0.8942 0.60069 0.86297 0.0
C1838 C 0.8628 0.57143 0.86946 0.0
C1839 C 0.89022 0.6117 0.88541 0.0
H1840 H 0.83959 0.59998 0.9055 0.0
H1841 H 0.87156 0.57588 0.92151 0.0
H1842 H 0.85833 0.61343 0.87781 0.0
H1843 H 0.84794 0.59965 0.87278 0.0
H1844 H 0.84172 0.61157 0.8849 0.0
H1845 H 0.89098 0.57073 0.9093 0.0
H1846 H 0.88716 0.56849 0.89173 0.0
H1847 H 0.8961 0.58311 0.89711 0.0
H1848 H 0.87829 0.57475 0.84747 0.0
H1849 H 0.90236 0.60772 0.86135 0.0
H1850 H 0.85297 0.57618 0.87169 0.0
H1851 H 0.86552 0.56516 0.87828 0.0
H1852 H 0.86159 0.56475 0.8606 0.0
H1853 H 0.88096 0.61708 0.88856 0.0
H1854 H 0.89758 0.61916 0.88156 0.0
H1855 H 0.8945 0.60687 0.89449 0.0
C1856 C 0.14257 0.4108 0.11439 0.0
C1857 C 0.15312 0.41951 0.11785 0.0
C1858 C 0.13047 0.41063 0.12178 0.0
C1859 C 0.12863 0.41972 0.13261 0.0
C1860 C 0.13929 0.42852 0.13614 0.0
C1861 C 0.15144 0.42815 0.12887 0.0
C1862 C 0.11958 0.4008 0.1179 0.0
C1863 C 0.1377 0.43866 0.14731 0.0
C1864 C 0.09285 0.42966 0.1426 0.0
C1865 C 0.09118 0.4229 0.15486 0.0
C1866 C 0.10492 0.42866 0.13525 0.0
C1867 C 0.11548 0.42035 0.14002 0.0
C1868 C 0.11363 0.41309 0.15214 0.0
C1869 C 0.10162 0.41464 0.15953 0.0
C1870 C 0.10656 0.43693 0.12263 0.0
C1871 C 0.12441 0.40382 0.15743 0.0
H1872 H 0.1438 0.4041 0.10589 0.0
H1873 H 0.15946 0.43505 0.1315 0.0
H1874 H 0.11639 0.39492 0.12683 0.0
H1875 H 0.11063 0.40633 0.11421 0.0
H1876 H 0.12292 0.39372 0.10994 0.0
H1877 H 0.14688 0.44485 0.14877 0.0
H1878 H 0.12914 0.44545 0.14505 0.0
H1879 H 0.13536 0.43348 0.15689 0.0
H1880 H 0.08492 0.43622 0.13902 0.0
H1881 H 0.10041 0.4094 0.169 0.0
H1882 H 0.10893 0.43032 0.11398 0.0
H1883 H 0.11512 0.44398 0.12385 0.0
H1884 H 0.09739 0.44283 0.1202 0.0
H1885 H 0.12754 0.39666 0.14947 0.0
H1886 H 0.12099 0.39803 0.16634 0.0
H1887 H 0.13341 0.40974 0.16029 0.0
C1888 C 0.1023 0.58912 0.84733 0.0
C1889 C 0.09157 0.58127 0.85203 0.0
C1890 C 0.11413 0.59073 0.85497 0.0
C1891 C 0.11549 0.58396 0.86744 0.0
C1892 C 0.10462 0.5761 0.87227 0.0
C1893 C 0.09275 0.57501 0.86461 0.0
C1894 C 0.12527 0.5995 0.84958 0.0
C1895 C 0.10571 0.5684 0.88529 0.0
C1896 C 0.15102 0.57602 0.87978 0.0
C1897 C 0.15271 0.58528 0.89029 0.0
C1898 C 0.13898 0.57546 0.87234 0.0
C1899 C 0.12845 0.58465 0.87517 0.0
C1900 C 0.13026 0.59427 0.88554 0.0
C1901 C 0.14226 0.59433 0.8931 0.0
C1902 C 0.13742 0.5648 0.86166 0.0
C1903 C 0.11948 0.60447 0.88869 0.0
H1904 H 0.10146 0.59399 0.83762 0.0
H1905 H 0.08458 0.56877 0.86823 0.0
H1906 H 0.12834 0.60697 0.85728 0.0
H1907 H 0.13422 0.59326 0.84728 0.0
H1908 H 0.12226 0.60494 0.84031 0.0
H1909 H 0.09632 0.56288 0.88776 0.0
H1910 H 0.11409 0.56105 0.88462 0.0
H1911 H 0.10808 0.57534 0.89368 0.0
H1912 H 0.15897 0.56889 0.87765 0.0
H1913 H 0.14349 0.60152 0.90119 0.0
H1914 H 0.1355 0.56955 0.85176 0.0
H1915 H 0.12861 0.55837 0.864 0.0
H1916 H 0.14645 0.55829 0.8608 0.0
H1917 H 0.11675 0.61009 0.87945 0.0
H1918 H 0.12271 0.61176 0.8965 0.0
H1919 H 0.11028 0.59929 0.89225 0.0
C1920 C 0.41245 0.10271 0.84902 0.0
C1921 C 0.4194 0.0915 0.85401 0.0
C1922 C 0.41092 0.11446 0.85681 0.0
C1923 C 0.41689 0.11522 0.86974 0.0
C1924 C 0.42377 0.10384 0.87487 0.0
C1925 C 0.42475 0.09209 0.86705 0.0
C1926 C 0.40316 0.12616 0.85109 0.0
C1927 C 0.43063 0.10427 0.8884 0.0
C1928 C 0.42669 0.14983 0.88318 0.0
C1929 C 0.4171 0.15199 0.89329 0.0
C1930 C 0.42671 0.13796 0.87547 0.0
C1931 C 0.41664 0.12811 0.8776 0.0
C1932 C 0.40666 0.13043 0.88753 0.0
C1933 C 0.40716 0.14221 0.89541 0.0
C1934 C 0.43778 0.1358 0.86532 0.0
C1935 C 0.39552 0.12042 0.88989 0.0
H1936 H 0.40828 0.10234 0.83896 0.0
H1937 H 0.43029 0.08355 0.87092 0.0
H1938 H 0.39555 0.1297 0.85844 0.0
H1939 H 0.41009 0.13467 0.84912 0.0
H1940 H 0.39799 0.12353 0.84155 0.0
H1941 H 0.43534 0.09451 0.89109 0.0
H1942 H 0.43855 0.11213 0.88834 0.0
H1943 H 0.42332 0.10701 0.89635 0.0
H1944 H 0.4345 0.15726 0.88158 0.0
H1945 H 0.39969 0.14383 0.90318 0.0
H1946 H 0.43343 0.13439 0.85516 0.0
H1947 H 0.44345 0.12652 0.86782 0.0
H1948 H 0.44495 0.14436 0.86496 0.0
H1949 H 0.39032 0.11815 0.88028 0.0
H1950 H 0.38799 0.12412 0.89726 0.0
H1951 H 0.39978 0.11084 0.89368 0.0
C1952 C 0.86496 0.41344 0.89344 0.0
C1953 C 0.85461 0.42266 0.89084 0.0
C1954 C 0.87688 0.4134 0.88574 0.0
C1955 C 0.87871 0.4231 0.87545 0.0
C1956 C 0.86827 0.43245 0.87283 0.0
C1957 C 0.85631 0.43199 0.88041 0.0
C1958 C 0.88754 0.40302 0.88868 0.0
C1959 C 0.86987 0.44321 0.86225 0.0
C1960 C 0.9145 0.43227 0.86473 0.0
C1961 C 0.91554 0.42606 0.85211 0.0
C1962 C 0.90264 0.43134 0.87243 0.0
C1963 C 0.89162 0.42369 0.86761 0.0
C1964 C 0.89281 0.417 0.85507 0.0
C1965 C 0.90464 0.41844 0.8474 0.0
C1966 C 0.90175 0.43895 0.88553 0.0
C1967 C 0.88149 0.40846 0.84967 0.0
H1968 H 0.86372 0.40618 0.90147 0.0
H1969 H 0.84844 0.43926 0.87844 0.0
H1970 H 0.89012 0.39747 0.87935 0.0
H1971 H 0.89685 0.40804 0.89221 0.0
H1972 H 0.88429 0.39569 0.89644 0.0
H1973 H 0.86091 0.44982 0.86152 0.0
H1974 H 0.87878 0.44951 0.86458 0.0
H1975 H 0.87166 0.43853 0.85229 0.0
H1976 H 0.92279 0.43834 0.86837 0.0
H1977 H 0.90536 0.4136 0.83766 0.0
H1978 H 0.8994 0.43196 0.89388 0.0
H1979 H 0.89344 0.44638 0.885 0.0
H1980 H 0.91122 0.44435 0.88795 0.0
H1981 H 0.8784 0.40093 0.8573 0.0
H1982 H 0.88434 0.40311 0.8403 0.0
H1983 H 0.87261 0.41485 0.84755 0.0
C1984 C 0.59196 0.90144 0.84978 0.0
C1985 C 0.58482 0.9125 0.85483 0.0
C1986 C 0.59341 0.88956 0.85736 0.0
C1987 C 0.58717 0.8885 0.87013 0.0
C1988 C 0.58008 0.89973 0.87534 0.0
C1989 C 0.57917 0.91162 0.86772 0.0
C1990 C 0.60138 0.87802 0.85157 0.0
C1991 C 0.57294 0.89898 0.88871 0.0
C1992 C 0.5777 0.85349 0.88273 0.0
C1993 C 0.5872 0.85129 0.89291 0.0
C1994 C 0.57757 0.86552 0.87528 0.0
C1995 C 0.58745 0.8755 0.87777 0.0
C1996 C 0.59733 0.87314 0.88777 0.0
C1997 C 0.59695 0.86118 0.89537 0.0
C1998 C 0.56661 0.86772 0.86501 0.0
C1999 C 0.60827 0.88329 0.89051 0.0
H2000 H 0.59635 0.90204 0.83982 0.0
H2001 H 0.57347 0.92005 0.87162 0.0
H2002 H 0.60892 0.87446 0.85898 0.0
H2003 H 0.59458 0.86947 0.84938 0.0
H2004 H 0.60666 0.88085 0.84216 0.0
H2005 H 0.56808 0.90864 0.89147 0.0
H2006 H 0.56511 0.89104 0.88833 0.0
H2007 H 0.58012 0.89617 0.89676 0.0
H2008 H 0.57003 0.84597 0.88088 0.0
H2009 H 0.60434 0.85953 0.9032 0.0
H2010 H 0.57108 0.86941 0.85495 0.0
H2011 H 0.56077 0.87686 0.86762 0.0
H2012 H 0.55959 0.85906 0.86438 0.0
H2013 H 0.61361 0.88578 0.88104 0.0
H2014 H 0.61571 0.87959 0.89796 0.0
H2015 H 0.60379 0.89274 0.89436 0.0
C2016 C 0.9039 0.58706 0.15797 0.0
C2017 C 0.91481 0.57968 0.15291 0.0
C2018 C 0.89194 0.58856 0.15049 0.0
C2019 C 0.89065 0.58219 0.1378 0.0
C2020 C 0.90168 0.57478 0.13264 0.0
C2021 C 0.91366 0.57378 0.14015 0.0
C2022 C 0.88061 0.59685 0.15625 0.0
C2023 C 0.90069 0.5675 0.11936 0.0
C2024 C 0.85529 0.5739 0.12509 0.0
C2025 C 0.85342 0.58346 0.11489 0.0
C2026 C 0.86731 0.57337 0.13257 0.0
C2027 C 0.87764 0.58289 0.13011 0.0
C2028 C 0.87564 0.59282 0.12008 0.0
C2029 C 0.86367 0.59285 0.11246 0.0
C2030 C 0.8691 0.56237 0.14287 0.0
C2031 C 0.88618 0.60338 0.11734 0.0
H2032 H 0.9047 0.59165 0.16781 0.0
H2033 H 0.92196 0.56791 0.13624 0.0
H2034 H 0.87737 0.60456 0.14888 0.0
H2035 H 0.87181 0.59032 0.15829 0.0
H2036 H 0.88352 0.60196 0.16574 0.0
H2037 H 0.91016 0.56222 0.1167 0.0
H2038 H 0.89243 0.56002 0.11978 0.0
H2039 H 0.89822 0.5747 0.11122 0.0
H2040 H 0.8475 0.5665 0.12693 0.0
H2041 H 0.86231 0.60028 0.10461 0.0
H2042 H 0.87098 0.5668 0.15292 0.0
H2043 H 0.87801 0.55618 0.14026 0.0
H2044 H 0.86018 0.55569 0.14353 0.0
H2045 H 0.88883 0.60867 0.12679 0.0
H2046 H 0.88276 0.61091 0.10984 0.0
H2047 H 0.89548 0.59854 0.11354 0.0
C2048 C 0.41423 0.86439 0.1118 0.0
C2049 C 0.42354 0.8541 0.11431 0.0
C2050 C 0.41415 0.87627 0.11954 0.0
C2051 C 0.4239 0.87813 0.12978 0.0
C2052 C 0.43337 0.86778 0.13229 0.0
C2053 C 0.43295 0.85584 0.12468 0.0
C2054 C 0.40366 0.88686 0.11673 0.0
C2055 C 0.44417 0.86942 0.14282 0.0
C2056 C 0.43277 0.91388 0.14085 0.0
C2057 C 0.42663 0.91469 0.15353 0.0
C2058 C 0.4319 0.90211 0.13301 0.0
C2059 C 0.42438 0.89096 0.13774 0.0
C2060 C 0.41775 0.89193 0.15032 0.0
C2061 C 0.41913 0.90367 0.15814 0.0
C2062 C 0.43944 0.90145 0.11986 0.0
C2063 C 0.40935 0.88047 0.15563 0.0
H2064 H 0.40691 0.86311 0.10382 0.0
H2065 H 0.44029 0.84802 0.12658 0.0
H2066 H 0.39808 0.88927 0.12609 0.0
H2067 H 0.40857 0.89625 0.1133 0.0
H2068 H 0.39635 0.88361 0.10894 0.0
H2069 H 0.45092 0.86054 0.1434 0.0
H2070 H 0.45034 0.87843 0.14055 0.0
H2071 H 0.43954 0.87102 0.15283 0.0
H2072 H 0.43874 0.92227 0.13729 0.0
H2073 H 0.41435 0.90421 0.16792 0.0
H2074 H 0.43244 0.89906 0.11153 0.0
H2075 H 0.447 0.89325 0.12029 0.0
H2076 H 0.44469 0.91101 0.11749 0.0
H2077 H 0.40183 0.87736 0.148 0.0
H2078 H 0.40399 0.88316 0.16505 0.0
H2079 H 0.41585 0.87165 0.15766 0.0
C2080 C 0.57585 0.15045 0.12313 0.0
C2081 C 0.58517 0.15226 0.1127 0.0
C2082 C 0.57568 0.1386 0.13087 0.0
C2083 C 0.58535 0.12841 0.12846 0.0
C2084 C 0.59504 0.13035 0.11818 0.0
C2085 C 0.59469 0.14213 0.11028 0.0
C2086 C 0.5649 0.13685 0.14141 0.0
C2087 C 0.60576 0.11997 0.11549 0.0
C2088 C 0.58997 0.10306 0.15705 0.0
C2089 C 0.58258 0.09199 0.1524 0.0
C2090 C 0.59146 0.11474 0.14913 0.0
C2091 C 0.58501 0.11558 0.13644 0.0
C2092 C 0.57765 0.10435 0.13166 0.0
C2093 C 0.57671 0.09265 0.13959 0.0
C2094 C 0.59973 0.12628 0.15448 0.0
C2095 C 0.57026 0.10488 0.11842 0.0
H2096 H 0.56836 0.15815 0.12496 0.0
H2097 H 0.60195 0.14347 0.10227 0.0
H2098 H 0.55888 0.12772 0.13918 0.0
H2099 H 0.56955 0.13538 0.15143 0.0
H2100 H 0.558 0.14562 0.14193 0.0
H2101 H 0.61309 0.12335 0.10778 0.0
H2102 H 0.61127 0.11765 0.12491 0.0
H2103 H 0.60106 0.11049 0.11199 0.0
H2104 H 0.59453 0.10264 0.16693 0.0
H2105 H 0.57081 0.08423 0.13599 0.0
H2106 H 0.59311 0.13499 0.15658 0.0
H2107 H 0.60718 0.12953 0.14684 0.0
H2108 H 0.60515 0.12359 0.16386 0.0
H2109 H 0.56258 0.11297 0.11873 0.0
H2110 H 0.56517 0.09524 0.116 0.0
H2111 H 0.57732 0.10734 0.11016 0.0
C2112 C 0.66079 0.60005 0.91597 0.0
C2113 C 0.65563 0.58883 0.92277 0.0
C2114 C 0.65304 0.61179 0.91425 0.0
C2115 C 0.63993 0.61249 0.91979 0.0
C2116 C 0.6346 0.60108 0.92647 0.0
C2117 C 0.64244 0.58936 0.92772 0.0
C2118 C 0.65901 0.62355 0.90677 0.0
C2119 C 0.62084 0.60146 0.93286 0.0
C2120 C 0.62657 0.64718 0.92926 0.0
C2121 C 0.61679 0.64946 0.91936 0.0
C2122 C 0.63406 0.63519 0.92955 0.0
C2123 C 0.63213 0.62539 0.91939 0.0
C2124 C 0.62256 0.62785 0.9091 0.0
C2125 C 0.6148 0.63972 0.90937 0.0
C2126 C 0.64377 0.63286 0.94098 0.0
C2127 C 0.62048 0.61792 0.89783 0.0
H2128 H 0.67097 0.59972 0.91209 0.0
H2129 H 0.63842 0.5808 0.93312 0.0
H2130 H 0.65191 0.62714 0.89895 0.0
H2131 H 0.66074 0.63201 0.91382 0.0
H2132 H 0.66872 0.62096 0.9019 0.0
H2133 H 0.61795 0.59163 0.9373 0.0
H2134 H 0.62066 0.60918 0.9409 0.0
H2135 H 0.61315 0.60435 0.92533 0.0
H2136 H 0.628 0.65458 0.93713 0.0
H2137 H 0.60725 0.64144 0.90171 0.0
H2138 H 0.65409 0.63145 0.93701 0.0
H2139 H 0.64102 0.62353 0.94644 0.0
H2140 H 0.64389 0.64133 0.94825 0.0
H2141 H 0.63023 0.61566 0.89289 0.0
H2142 H 0.61334 0.6217 0.89012 0.0
H2143 H 0.61655 0.60832 0.90191 0.0
C2144 C 0.41433 0.64056 0.93384 0.0
C2145 C 0.41553 0.65317 0.92762 0.0
C2146 C 0.40242 0.63295 0.9328 0.0
C2147 C 0.39151 0.63786 0.92505 0.0
C2148 C 0.39286 0.65037 0.91835 0.0
C2149 C 0.40474 0.65795 0.91989 0.0
C2150 C 0.40135 0.61987 0.94042 0.0
C2151 C 0.38166 0.65586 0.90971 0.0
C2152 C 0.36467 0.6123 0.91459 0.0
C2153 C 0.35427 0.61502 0.92371 0.0
C2154 C 0.37667 0.61986 0.91466 0.0
C2155 C 0.37853 0.63014 0.92437 0.0
C2156 C 0.36805 0.63288 0.93363 0.0
C2157 C 0.356 0.62544 0.93306 0.0
C2158 C 0.3874 0.6168 0.90438 0.0
C2159 C 0.36967 0.64346 0.94439 0.0
H2160 H 0.42254 0.63686 0.93998 0.0
H2161 H 0.40557 0.66768 0.91506 0.0
H2162 H 0.39301 0.6205 0.9478 0.0
H2163 H 0.39896 0.61154 0.93342 0.0
H2164 H 0.41076 0.61736 0.94588 0.0
H2165 H 0.38463 0.66519 0.90437 0.0
H2166 H 0.37855 0.64824 0.90218 0.0
H2167 H 0.37275 0.65808 0.91604 0.0
H2168 H 0.3634 0.60428 0.90732 0.0
H2169 H 0.34809 0.62751 0.94026 0.0
H2170 H 0.39663 0.6132 0.90948 0.0
H2171 H 0.3901 0.62609 0.89882 0.0
H2172 H 0.38413 0.60905 0.89703 0.0
H2173 H 0.3785 0.64105 0.95076 0.0
H2174 H 0.36066 0.64427 0.95094 0.0
H2175 H 0.37158 0.6534 0.93972 0.0
C2176 C 0.39274 0.36418 0.90607 0.0
C2177 C 0.38991 0.35408 0.91548 0.0
C2178 C 0.38513 0.37613 0.90567 0.0
C2179 C 0.37478 0.37827 0.91525 0.0
C2180 C 0.37188 0.36803 0.92472 0.0
C2181 C 0.37931 0.356 0.92457 0.0
C2182 C 0.38828 0.38655 0.89511 0.0
C2183 C 0.36127 0.36999 0.9354 0.0
C2184 C 0.36523 0.41413 0.9249 0.0
C2185 C 0.3524 0.41544 0.91919 0.0
C2186 C 0.37268 0.40219 0.92353 0.0
C2187 C 0.36741 0.3914 0.91586 0.0
C2188 C 0.35473 0.39294 0.9095 0.0
C2189 C 0.34727 0.40483 0.91146 0.0
C2190 C 0.38591 0.40089 0.93086 0.0
C2191 C 0.34892 0.3819 0.90088 0.0
H2192 H 0.40092 0.36274 0.89901 0.0
H2193 H 0.37718 0.34831 0.93199 0.0
H2194 H 0.37895 0.38955 0.88978 0.0
H2195 H 0.39241 0.3957 0.89996 0.0
H2196 H 0.39568 0.38286 0.88762 0.0
H2197 H 0.36023 0.36108 0.94205 0.0
H2198 H 0.36385 0.37883 0.94169 0.0
H2199 H 0.35139 0.37206 0.93068 0.0
H2200 H 0.36917 0.42221 0.93106 0.0
H2201 H 0.33736 0.40578 0.90703 0.0
H2202 H 0.39405 0.39827 0.92372 0.0
H2203 H 0.38526 0.39262 0.93832 0.0
H2204 H 0.38875 0.41028 0.9362 0.0
H2205 H 0.35647 0.37842 0.89345 0.0
H2206 H 0.33975 0.38521 0.89542 0.0
H2207 H 0.34626 0.37315 0.90725 0.0
C2208 C 0.60177 0.3484 0.91641 0.0
C2209 C 0.59112 0.35316 0.92434 0.0
C2210 C 0.61369 0.35591 0.91484 0.0
C2211 C 0.61523 0.36831 0.92171 0.0
C2212 C 0.60444 0.37319 0.92966 0.0
C2213 C 0.59248 0.36567 0.93071 0.0
C2214 C 0.62473 0.35047 0.90597 0.0
C2215 C 0.60572 0.38613 0.93748 0.0
C2216 C 0.65098 0.38006 0.92961 0.0
C2217 C 0.6528 0.39061 0.92043 0.0
C2218 C 0.63883 0.37281 0.93017 0.0
C2219 C 0.62829 0.37588 0.92106 0.0
C2220 C 0.63022 0.38631 0.91153 0.0
C2221 C 0.64234 0.39367 0.91147 0.0
C2222 C 0.63714 0.36207 0.94075 0.0
C2223 C 0.61945 0.38971 0.90141 0.0
H2224 H 0.6008 0.33875 0.91145 0.0
H2225 H 0.58438 0.36933 0.93701 0.0
H2226 H 0.62786 0.3582 0.89857 0.0
H2227 H 0.63367 0.348 0.91216 0.0
H2228 H 0.62158 0.34129 0.90046 0.0
H2229 H 0.59638 0.38867 0.94304 0.0
H2230 H 0.6141 0.38528 0.9448 0.0
H2231 H 0.60818 0.39456 0.93061 0.0
H2232 H 0.65893 0.37774 0.93669 0.0
H2233 H 0.64367 0.40179 0.90434 0.0
H2234 H 0.63509 0.35223 0.93592 0.0
H2235 H 0.62838 0.36447 0.94722 0.0
H2236 H 0.64618 0.36104 0.94723 0.0
H2237 H 0.61657 0.38057 0.89569 0.0
H2238 H 0.62276 0.39756 0.89419 0.0
H2239 H 0.61031 0.39333 0.90666 0.0
C2240 C 0.62804 0.35611 0.08024 0.0
C2241 C 0.61737 0.35418 0.08926 0.0
C2242 C 0.63534 0.36822 0.07998 0.0
C2243 C 0.63225 0.37856 0.08928 0.0
C2244 C 0.62183 0.37645 0.09879 0.0
C2245 C 0.61436 0.3644 0.0985 0.0
C2246 C 0.64604 0.37013 0.06938 0.0
C2247 C 0.61848 0.38699 0.10917 0.0
C2248 C 0.65955 0.40535 0.09322 0.0
C2249 C 0.65447 0.41588 0.08533 0.0
C2250 C 0.65214 0.39342 0.09515 0.0
C2251 C 0.63957 0.39174 0.08862 0.0
C2252 C 0.63435 0.40244 0.08078 0.0
C2253 C 0.64175 0.41443 0.07943 0.0
C2254 C 0.6579 0.38249 0.10394 0.0
C2255 C 0.62123 0.40099 0.07328 0.0
H2256 H 0.63031 0.34834 0.07294 0.0
H2257 H 0.60614 0.36297 0.1055 0.0
H2258 H 0.64347 0.37889 0.06297 0.0
H2259 H 0.65586 0.37231 0.07418 0.0
H2260 H 0.6472 0.36115 0.06285 0.0
H2261 H 0.61097 0.38335 0.11659 0.0
H2262 H 0.62771 0.39009 0.11461 0.0
H2263 H 0.61438 0.39606 0.10415 0.0
H2264 H 0.66937 0.4064 0.0978 0.0
H2265 H 0.63785 0.42244 0.07315 0.0
H2266 H 0.66065 0.37368 0.09768 0.0
H2267 H 0.65028 0.37907 0.11133 0.0
H2268 H 0.667 0.38589 0.10946 0.0
H2269 H 0.62203 0.39266 0.06591 0.0
H2270 H 0.61842 0.41031 0.06782 0.0
H2271 H 0.61301 0.39839 0.08034 0.0
C2272 C 0.64051 0.61305 0.0966 0.0
C2273 C 0.6511 0.61656 0.08798 0.0
C2274 C 0.6284 0.62044 0.09674 0.0
C2275 C 0.62663 0.63133 0.08771 0.0
C2276 C 0.63733 0.6349 0.079 0.0
C2277 C 0.64947 0.62763 0.07939 0.0
C2278 C 0.61745 0.61651 0.10647 0.0
C2279 C 0.63582 0.64615 0.06892 0.0
C2280 C 0.59106 0.64164 0.07739 0.0
C2281 C 0.58946 0.65393 0.08412 0.0
C2282 C 0.60302 0.63413 0.07857 0.0
C2283 C 0.61351 0.63878 0.08704 0.0
C2284 C 0.61168 0.6509 0.09431 0.0
C2285 C 0.59981 0.65844 0.09257 0.0
C2286 C 0.60464 0.62152 0.07029 0.0
C2287 C 0.62239 0.65605 0.10375 0.0
H2288 H 0.6417 0.60451 0.10326 0.0
H2289 H 0.65752 0.6303 0.07256 0.0
H2290 H 0.61424 0.6254 0.1124 0.0
H2291 H 0.60853 0.61288 0.10087 0.0
H2292 H 0.62074 0.60849 0.11351 0.0
H2293 H 0.64502 0.6476 0.06276 0.0
H2294 H 0.62727 0.64397 0.06209 0.0
H2295 H 0.63351 0.65571 0.07416 0.0
H2296 H 0.5832 0.63819 0.07068 0.0
H2297 H 0.59863 0.66793 0.09781 0.0
H2298 H 0.60699 0.61285 0.07689 0.0
H2299 H 0.6132 0.62274 0.06325 0.0
H2300 H 0.59547 0.61912 0.06437 0.0
H2301 H 0.62545 0.64801 0.11084 0.0
H2302 H 0.61893 0.6649 0.10961 0.0
H2303 H 0.63145 0.65897 0.09794 0.0
C2304 C 0.34741 0.6006 0.09655 0.0
C2305 C 0.35258 0.59012 0.08866 0.0
C2306 C 0.35472 0.61258 0.0985 0.0
C2307 C 0.36727 0.61437 0.09197 0.0
C2308 C 0.37259 0.60371 0.08414 0.0
C2309 C 0.3653 0.59166 0.08278 0.0
C2310 C 0.34885 0.62347 0.10728 0.0
C2311 C 0.38569 0.60527 0.07664 0.0
C2312 C 0.37841 0.65009 0.0835 0.0
C2313 C 0.38907 0.65213 0.09249 0.0
C2314 C 0.37122 0.6379 0.08327 0.0
C2315 C 0.37444 0.62762 0.09259 0.0
C2316 C 0.38485 0.62985 0.10208 0.0
C2317 C 0.39221 0.64197 0.10175 0.0
C2318 C 0.36053 0.63586 0.0727 0.0
C2319 C 0.38833 0.61937 0.11248 0.0
H2320 H 0.33758 0.59947 0.10112 0.0
H2321 H 0.36926 0.58368 0.0765 0.0
H2322 H 0.35646 0.627 0.11464 0.0
H2323 H 0.34597 0.63222 0.10102 0.0
H2324 H 0.33982 0.61998 0.11284 0.0
H2325 H 0.3886 0.59596 0.0712 0.0
H2326 H 0.3848 0.61357 0.06924 0.0
H2327 H 0.39389 0.60798 0.08368 0.0
H2328 H 0.37605 0.65782 0.07619 0.0
H2329 H 0.40043 0.64349 0.10873 0.0
H2330 H 0.35074 0.6336 0.07752 0.0
H2331 H 0.36318 0.62711 0.0663 0.0
H2332 H 0.35927 0.64481 0.06614 0.0
H2333 H 0.37913 0.61619 0.11793 0.0
H2334 H 0.39579 0.62311 0.1199 0.0
H2335 H 0.39252 0.61034 0.10748 0.0
C2336 C 0.41522 0.36434 0.07417 0.0
C2337 C 0.41631 0.35163 0.0802 0.0
C2338 C 0.40333 0.37199 0.07521 0.0
C2339 C 0.39232 0.36702 0.08279 0.0
C2340 C 0.39356 0.3544 0.0893 0.0
C2341 C 0.40543 0.34678 0.08775 0.0
C2342 C 0.40239 0.38518 0.06778 0.0
C2343 C 0.38227 0.34884 0.09777 0.0
C2344 C 0.36548 0.3926 0.09332 0.0
C2345 C 0.35514 0.39005 0.08407 0.0
C2346 C 0.37745 0.38497 0.09328 0.0
C2347 C 0.37936 0.3748 0.08346 0.0
C2348 C 0.36894 0.37224 0.07406 0.0
C2349 C 0.35693 0.37973 0.07461 0.0
C2350 C 0.38808 0.38784 0.10371 0.0
C2351 C 0.37062 0.36179 0.06318 0.0
H2352 H 0.4235 0.36809 0.06816 0.0
H2353 H 0.40617 0.33697 0.09244 0.0
H2354 H 0.39411 0.3847 0.06032 0.0
H2355 H 0.39998 0.39343 0.07487 0.0
H2356 H 0.41186 0.38772 0.06244 0.0
H2357 H 0.38516 0.33942 0.10302 0.0
H2358 H 0.37912 0.35637 0.10537 0.0
H2359 H 0.37341 0.34673 0.09133 0.0
H2360 H 0.36419 0.40054 0.10067 0.0
H2361 H 0.34907 0.3778 0.06731 0.0
H2362 H 0.39738 0.39148 0.09875 0.0
H2363 H 0.3907 0.37846 0.10915 0.0
H2364 H 0.38477 0.39549 0.11113 0.0
H2365 H 0.37953 0.36425 0.05693 0.0
H2366 H 0.36167 0.36112 0.05653 0.0
H2367 H 0.37243 0.35178 0.06773 0.0
C2368 C 0.91211 0.65922 0.60036 0.0
C2369 C 0.91975 0.65436 0.58956 0.0
C2370 C 0.91047 0.65159 0.61219 0.0
C2371 C 0.91708 0.63902 0.61348 0.0
C2372 C 0.92468 0.63402 0.60251 0.0
C2373 C 0.92572 0.64163 0.59063 0.0
C2374 C 0.90192 0.65712 0.62342 0.0
C2375 C 0.93227 0.62092 0.60354 0.0
C2376 C 0.92637 0.62701 0.64871 0.0
C2377 C 0.91744 0.61628 0.65068 0.0
C2378 C 0.92633 0.63447 0.6367 0.0
C2379 C 0.91679 0.63149 0.62654 0.0
C2380 C 0.90739 0.62098 0.62871 0.0
C2381 C 0.908 0.61334 0.64063 0.0
C2382 C 0.93683 0.64525 0.6347 0.0
C2383 C 0.89678 0.61773 0.61837 0.0
H2384 H 0.90748 0.66906 0.59959 0.0
H2385 H 0.93182 0.6379 0.5824 0.0
H2386 H 0.89466 0.6494 0.62691 0.0
H2387 H 0.90837 0.65978 0.63211 0.0
H2388 H 0.89625 0.66623 0.62031 0.0
H2389 H 0.93751 0.61829 0.59404 0.0
H2390 H 0.93985 0.62162 0.6117 0.0
H2391 H 0.92532 0.61262 0.60619 0.0
H2392 H 0.93381 0.62922 0.65636 0.0
H2393 H 0.90105 0.60508 0.64211 0.0
H2394 H 0.93193 0.65509 0.63285 0.0
H2395 H 0.943 0.64288 0.62572 0.0
H2396 H 0.94361 0.64627 0.64351 0.0
H2397 H 0.89119 0.62698 0.61559 0.0
H2398 H 0.8895 0.6101 0.62204 0.0
H2399 H 0.90159 0.61386 0.6091 0.0
C2400 C 0.36694 0.92584 0.59235 0.0
C2401 C 0.35396 0.92034 0.59175 0.0
C2402 C 0.37482 0.92481 0.60406 0.0
C2403 C 0.3698 0.91775 0.61538 0.0
C2404 C 0.35694 0.91163 0.61459 0.0
C2405 C 0.34909 0.9132 0.60289 0.0
C2406 C 0.38827 0.93183 0.60453 0.0
C2407 C 0.35134 0.90369 0.62623 0.0
C2408 C 0.39555 0.90793 0.64222 0.0
C2409 C 0.39332 0.91772 0.65213 0.0
C2410 C 0.38771 0.90754 0.63042 0.0
C2411 C 0.37769 0.91745 0.62823 0.0
C2412 C 0.37546 0.92738 0.63822 0.0
C2413 C 0.38314 0.92726 0.6501 0.0
C2414 C 0.39018 0.89656 0.62026 0.0
C2415 C 0.36519 0.93838 0.63619 0.0
H2416 H 0.37071 0.93154 0.58387 0.0
H2417 H 0.33907 0.90893 0.60251 0.0
H2418 H 0.38812 0.93969 0.61245 0.0
H2419 H 0.39632 0.9246 0.60721 0.0
H2420 H 0.39089 0.93664 0.5948 0.0
H2421 H 0.34185 0.89844 0.62357 0.0
H2422 H 0.35879 0.89613 0.62967 0.0
H2423 H 0.34932 0.91051 0.63481 0.0
H2424 H 0.40338 0.90051 0.64374 0.0
H2425 H 0.38146 0.93494 0.65764 0.0
H2426 H 0.39386 0.90098 0.61071 0.0
H2427 H 0.38063 0.89125 0.61798 0.0
H2428 H 0.39767 0.88909 0.62384 0.0
H2429 H 0.36763 0.94416 0.62697 0.0
H2430 H 0.36479 0.94545 0.64483 0.0
H2431 H 0.35507 0.93395 0.63475 0.0
C2432 C 0.07796 0.3817 0.65163 0.0
C2433 C 0.08765 0.39172 0.65374 0.0
C2434 C 0.07776 0.37406 0.63972 0.0
C2435 C 0.08776 0.37616 0.62978 0.0
C2436 C 0.09783 0.38599 0.63205 0.0
C2437 C 0.09752 0.39381 0.64388 0.0
C2438 C 0.06659 0.364 0.6376 0.0
C2439 C 0.1089 0.38832 0.62195 0.0
C2440 C 0.09183 0.34773 0.60419 0.0
C2441 C 0.08492 0.35283 0.593 0.0
C2442 C 0.09333 0.35541 0.61601 0.0
C2443 C 0.08738 0.36834 0.61686 0.0
C2444 C 0.08051 0.37357 0.60552 0.0
C2445 C 0.07955 0.36585 0.59369 0.0
C2446 C 0.10107 0.34959 0.62767 0.0
C2447 C 0.07366 0.38711 0.60605 0.0
H2448 H 0.0702 0.38013 0.65912 0.0
H2449 H 0.10506 0.40151 0.64546 0.0
H2450 H 0.06086 0.3666 0.62839 0.0
H2451 H 0.07084 0.35381 0.63608 0.0
H2452 H 0.0595 0.36365 0.64622 0.0
H2453 H 0.1165 0.39564 0.62561 0.0
H2454 H 0.11403 0.37869 0.61962 0.0
H2455 H 0.10458 0.39216 0.61242 0.0
H2456 H 0.09601 0.33768 0.60373 0.0
H2457 H 0.07403 0.3698 0.58517 0.0
H2458 H 0.09416 0.34769 0.63621 0.0
H2459 H 0.10877 0.35685 0.63119 0.0
H2460 H 0.10613 0.34 0.62501 0.0
H2461 H 0.06581 0.38703 0.61398 0.0
H2462 H 0.06888 0.38983 0.59634 0.0
H2463 H 0.08101 0.39504 0.60876 0.0
C2464 C 0.62509 0.08002 0.64887 0.0
C2465 C 0.61527 0.08987 0.65115 0.0
C2466 C 0.63251 0.0797 0.63685 0.0
C2467 C 0.63048 0.08981 0.62702 0.0
C2468 C 0.62088 0.10007 0.62948 0.0
C2469 C 0.61317 0.09981 0.64139 0.0
C2470 C 0.64225 0.0683 0.63452 0.0
C2471 C 0.61872 0.1113 0.61952 0.0
C2472 C 0.65903 0.09291 0.60152 0.0
C2473 C 0.65378 0.08604 0.59038 0.0
C2474 C 0.65133 0.09482 0.61325 0.0
C2475 C 0.63819 0.08934 0.61407 0.0
C2476 C 0.63277 0.08259 0.60274 0.0
C2477 C 0.64055 0.0812 0.591 0.0
C2478 C 0.65738 0.10241 0.62491 0.0
C2479 C 0.61899 0.07625 0.60324 0.0
H2480 H 0.6266 0.0722 0.65631 0.0
H2481 H 0.6056 0.10745 0.64312 0.0
H2482 H 0.63949 0.06281 0.62521 0.0
H2483 H 0.65256 0.0723 0.63307 0.0
H2484 H 0.64242 0.06105 0.643 0.0
H2485 H 0.61161 0.11902 0.62334 0.0
H2486 H 0.62845 0.11622 0.61716 0.0
H2487 H 0.6147 0.10718 0.60998 0.0
H2488 H 0.66924 0.09671 0.60111 0.0
H2489 H 0.63646 0.07575 0.5825 0.0
H2490 H 0.65923 0.09543 0.63339 0.0
H2491 H 0.65028 0.11022 0.62852 0.0
H2492 H 0.66704 0.10731 0.62219 0.0
H2493 H 0.61883 0.06827 0.61104 0.0
H2494 H 0.61604 0.07172 0.59347 0.0
H2495 H 0.61134 0.08382 0.60611 0.0
C2496 C 0.9279 0.3484 0.40052 0.0
C2497 C 0.92313 0.3527 0.41307 0.0
C2498 C 0.92681 0.35659 0.38904 0.0
C2499 C 0.92035 0.36926 0.38998 0.0
C2500 C 0.91507 0.37344 0.40255 0.0
C2501 C 0.91676 0.36524 0.41399 0.0
C2502 C 0.933 0.35187 0.37601 0.0
C2503 C 0.90775 0.38666 0.40393 0.0
C2504 C 0.92937 0.39593 0.36388 0.0
C2505 C 0.91911 0.39433 0.35438 0.0
C2506 C 0.92984 0.38792 0.37553 0.0
C2507 C 0.91961 0.37827 0.3779 0.0
C2508 C 0.90903 0.37688 0.36843 0.0
C2509 C 0.90901 0.38481 0.35668 0.0
C2510 C 0.9415 0.38955 0.38512 0.0
C2511 C 0.89779 0.36694 0.37065 0.0
H2512 H 0.93301 0.3388 0.39977 0.0
H2513 H 0.91305 0.36862 0.42366 0.0
H2514 H 0.92525 0.35145 0.36801 0.0
H2515 H 0.94079 0.35914 0.3727 0.0
H2516 H 0.9377 0.34179 0.37695 0.0
H2517 H 0.90329 0.38797 0.41408 0.0
H2518 H 0.91479 0.39509 0.40203 0.0
H2519 H 0.89962 0.38734 0.39633 0.0
H2520 H 0.93725 0.40323 0.36199 0.0
H2521 H 0.9011 0.38358 0.34929 0.0
H2522 H 0.94701 0.37989 0.38603 0.0
H2523 H 0.93776 0.3922 0.39527 0.0
H2524 H 0.94866 0.39744 0.38179 0.0
H2525 H 0.90184 0.35656 0.37049 0.0
H2526 H 0.88982 0.36776 0.36287 0.0
H2527 H 0.89319 0.36855 0.38069 0.0
C2528 C 0.65874 0.91651 0.4034 0.0
C2529 C 0.65364 0.92342 0.41458 0.0
C2530 C 0.65107 0.91502 0.39157 0.0
C2531 C 0.63814 0.92098 0.39072 0.0
C2532 C 0.6329 0.92784 0.40206 0.0
C2533 C 0.64062 0.9288 0.41388 0.0
C2534 C 0.65691 0.9073 0.3799 0.0
C2535 C 0.61936 0.93467 0.40152 0.0
C2536 C 0.62474 0.93045 0.356 0.0
C2537 C 0.61473 0.92074 0.3539 0.0
C2538 C 0.63241 0.93062 0.36789 0.0
C2539 C 0.63034 0.9206 0.37781 0.0
C2540 C 0.62052 0.91051 0.37553 0.0
C2541 C 0.61269 0.91084 0.36372 0.0
C2542 C 0.64247 0.94179 0.37001 0.0
C2543 C 0.61822 0.89943 0.38562 0.0
H2544 H 0.6688 0.91233 0.40385 0.0
H2545 H 0.63667 0.93432 0.4224 0.0
H2546 H 0.64965 0.89959 0.37638 0.0
H2547 H 0.6588 0.91422 0.37137 0.0
H2548 H 0.66651 0.90224 0.38256 0.0
H2549 H 0.61662 0.93943 0.41124 0.0
H2550 H 0.61944 0.94254 0.39361 0.0
H2551 H 0.61144 0.92732 0.39879 0.0
H2552 H 0.62627 0.93823 0.34853 0.0
H2553 H 0.60499 0.90329 0.36215 0.0
H2554 H 0.65266 0.93754 0.37155 0.0
H2555 H 0.63985 0.94753 0.37921 0.0
H2556 H 0.64283 0.94887 0.36139 0.0
H2557 H 0.62786 0.89431 0.38795 0.0
H2558 H 0.61092 0.89182 0.38195 0.0
H2559 H 0.61437 0.90373 0.39516 0.0
C2560 C 0.09224 0.65681 0.40184 0.0
C2561 C 0.08478 0.65205 0.41281 0.0
C2562 C 0.09372 0.64906 0.39006 0.0
C2563 C 0.08717 0.63644 0.38901 0.0
C2564 C 0.07973 0.63154 0.40014 0.0
C2565 C 0.07881 0.6393 0.41195 0.0
C2566 C 0.10207 0.65451 0.37863 0.0
C2567 C 0.07225 0.61836 0.39939 0.0
C2568 C 0.07806 0.62371 0.35394 0.0
C2569 C 0.08732 0.61325 0.35204 0.0
C2570 C 0.0779 0.63129 0.3659 0.0
C2571 C 0.08751 0.62865 0.37609 0.0
C2572 C 0.09714 0.61833 0.37404 0.0
C2573 C 0.09678 0.61062 0.36216 0.0
C2574 C 0.06719 0.64188 0.36776 0.0
C2575 C 0.10779 0.61542 0.38444 0.0
H2576 H 0.09688 0.66665 0.40243 0.0
H2577 H 0.07286 0.63563 0.4203 0.0
H2578 H 0.10948 0.64686 0.37531 0.0
H2579 H 0.0955 0.65678 0.36992 0.0
H2580 H 0.10754 0.66382 0.38147 0.0
H2581 H 0.0671 0.61585 0.40897 0.0
H2582 H 0.06461 0.61885 0.39127 0.0
H2583 H 0.07926 0.61009 0.39683 0.0
H2584 H 0.07062 0.62571 0.34624 0.0
H2585 H 0.10399 0.60257 0.36074 0.0
H2586 H 0.0719 0.65184 0.3694 0.0
H2587 H 0.06111 0.63955 0.37682 0.0
H2588 H 0.06034 0.64258 0.35897 0.0
H2589 H 0.11336 0.62476 0.38692 0.0
H2590 H 0.11509 0.60771 0.38097 0.0
H2591 H 0.10302 0.61181 0.39384 0.0
C2592 C 0.39131 0.09783 0.3637 0.0
C2593 C 0.38845 0.08846 0.35357 0.0
C2594 C 0.38358 0.09836 0.37557 0.0
C2595 C 0.37306 0.08895 0.3776 0.0
C2596 C 0.37012 0.07951 0.36733 0.0
C2597 C 0.37769 0.07954 0.35538 0.0
C2598 C 0.38679 0.10887 0.38602 0.0
C2599 C 0.35931 0.06901 0.36917 0.0
C2600 C 0.36308 0.07981 0.4135 0.0
C2601 C 0.35041 0.08587 0.41473 0.0
C2602 C 0.37058 0.08083 0.40155 0.0
C2603 C 0.36553 0.0885 0.39066 0.0
C2604 C 0.353 0.09516 0.39208 0.0
C2605 C 0.34547 0.09355 0.40398 0.0
C2606 C 0.38365 0.0732 0.40038 0.0
C2607 C 0.34742 0.10379 0.38093 0.0
H2608 H 0.3996 0.10477 0.36235 0.0
H2609 H 0.37554 0.07215 0.34766 0.0
H2610 H 0.37753 0.11438 0.38889 0.0
H2611 H 0.39072 0.10396 0.39523 0.0
H2612 H 0.39438 0.11622 0.38242 0.0
H2613 H 0.35825 0.06239 0.36024 0.0
H2614 H 0.36171 0.06267 0.37803 0.0
H2615 H 0.3495 0.0739 0.37116 0.0
H2616 H 0.36688 0.07369 0.42168 0.0
H2617 H 0.33568 0.09825 0.40487 0.0
H2618 H 0.39198 0.08017 0.39789 0.0
H2619 H 0.38294 0.06578 0.39208 0.0
H2620 H 0.38626 0.06777 0.40979 0.0
H2621 H 0.35511 0.11113 0.37754 0.0
H2622 H 0.33827 0.10936 0.38408 0.0
H2623 H 0.34483 0.09742 0.37216 0.0
C2624 C 0.59343 0.93229 0.64103 0.0
C2625 C 0.59235 0.92542 0.6533 0.0
C2626 C 0.60514 0.9314 0.63312 0.0
C2627 C 0.61593 0.92308 0.63732 0.0
C2628 C 0.61469 0.91575 0.64949 0.0
C2629 C 0.60304 0.9172 0.65744 0.0
C2630 C 0.60615 0.93974 0.62048 0.0
C2631 C 0.62574 0.90648 0.65419 0.0
C2632 C 0.64175 0.91317 0.61054 0.0
C2633 C 0.6526 0.92165 0.61362 0.0
C2634 C 0.62992 0.91328 0.61835 0.0
C2635 C 0.62867 0.92242 0.62922 0.0
C2636 C 0.63956 0.9311 0.63225 0.0
C2637 C 0.65144 0.93045 0.62457 0.0
C2638 C 0.61875 0.90357 0.61498 0.0
C2639 C 0.63858 0.9413 0.64344 0.0
H2640 H 0.5853 0.93882 0.63787 0.0
H2641 H 0.60228 0.91186 0.6669 0.0
H2642 H 0.6148 0.94674 0.62128 0.0
H2643 H 0.60803 0.93317 0.61168 0.0
H2644 H 0.5969 0.94569 0.61858 0.0
H2645 H 0.62282 0.90071 0.66329 0.0
H2646 H 0.6284 0.89928 0.64609 0.0
H2647 H 0.6349 0.91238 0.65652 0.0
H2648 H 0.6426 0.90631 0.60212 0.0
H2649 H 0.65972 0.93714 0.62691 0.0
H2650 H 0.6096 0.90919 0.61198 0.0
H2651 H 0.61612 0.89754 0.62398 0.0
H2652 H 0.62154 0.89663 0.60669 0.0
H2653 H 0.62984 0.94802 0.64169 0.0
H2654 H 0.64778 0.94756 0.64431 0.0
H2655 H 0.63687 0.93614 0.65317 0.0
C2656 C 0.6492 0.07914 0.38164 0.0
C2657 C 0.65129 0.08852 0.39196 0.0
C2658 C 0.63716 0.07898 0.37418 0.0
C2659 C 0.62708 0.08872 0.37678 0.0
C2660 C 0.62932 0.09847 0.38694 0.0
C2661 C 0.64128 0.09811 0.39456 0.0
C2662 C 0.63511 0.06814 0.36376 0.0
C2663 C 0.61904 0.10926 0.38981 0.0
C2664 C 0.6011 0.09307 0.34875 0.0
C2665 C 0.59016 0.08568 0.3537 0.0
C2666 C 0.61293 0.09469 0.3564 0.0
C2667 C 0.61406 0.08836 0.36913 0.0
C2668 C 0.60295 0.08105 0.37424 0.0
C2669 C 0.5911 0.07998 0.36657 0.0
C2670 C 0.62435 0.1029 0.35072 0.0
C2671 C 0.60378 0.0738 0.38754 0.0
H2672 H 0.65681 0.0716 0.37967 0.0
H2673 H 0.64285 0.10541 0.40249 0.0
H2674 H 0.62601 0.06219 0.36626 0.0
H2675 H 0.63341 0.07273 0.35375 0.0
H2676 H 0.64383 0.06121 0.36307 0.0
H2677 H 0.62266 0.11664 0.39737 0.0
H2678 H 0.61651 0.1147 0.38041 0.0
H2679 H 0.60963 0.10463 0.39358 0.0
H2680 H 0.60047 0.09749 0.33881 0.0
H2681 H 0.58277 0.07408 0.37039 0.0
H2682 H 0.63299 0.09625 0.3484 0.0
H2683 H 0.62783 0.11037 0.35824 0.0
H2684 H 0.62142 0.10829 0.34139 0.0
H2685 H 0.61181 0.06606 0.38709 0.0
H2686 H 0.59417 0.06881 0.39026 0.0
H2687 H 0.60651 0.08093 0.39566 0.0
C2688 C 0.93483 0.60048 0.35465 0.0
C2689 C 0.92366 0.59242 0.35178 0.0
C2690 C 0.93361 0.61212 0.36258 0.0
C2691 C 0.92083 0.61593 0.36762 0.0
C2692 C 0.90947 0.6078 0.36465 0.0
C2693 C 0.91104 0.59606 0.35684 0.0
C2694 C 0.94603 0.6203 0.3656 0.0
C2695 C 0.89566 0.61158 0.36964 0.0
C2696 C 0.9203 0.63976 0.39775 0.0
C2697 C 0.91908 0.65235 0.39153 0.0
C2698 C 0.92071 0.62782 0.39013 0.0
C2699 C 0.91946 0.62843 0.37594 0.0
C2700 C 0.9177 0.64111 0.36967 0.0
C2701 C 0.91774 0.65291 0.37751 0.0
C2702 C 0.92298 0.61461 0.39723 0.0
C2703 C 0.91602 0.64224 0.35464 0.0
H2704 H 0.94459 0.5976 0.35075 0.0
H2705 H 0.90241 0.58981 0.35457 0.0
H2706 H 0.94488 0.63061 0.36151 0.0
H2707 H 0.94737 0.62125 0.37663 0.0
H2708 H 0.95527 0.61576 0.36126 0.0
H2709 H 0.88783 0.60434 0.36631 0.0
H2710 H 0.89562 0.612 0.38078 0.0
H2711 H 0.89295 0.62174 0.36595 0.0
H2712 H 0.92148 0.63925 0.40857 0.0
H2713 H 0.91673 0.6626 0.37264 0.0
H2714 H 0.93262 0.61015 0.39383 0.0
H2715 H 0.9149 0.60739 0.39462 0.0
H2716 H 0.9233 0.61576 0.40833 0.0
H2717 H 0.92542 0.63908 0.34956 0.0
H2718 H 0.91357 0.65265 0.35144 0.0
H2719 H 0.90791 0.63542 0.35116 0.0
C2720 C 0.40429 0.9162 0.35068 0.0
C2721 C 0.41505 0.92407 0.35529 0.0
C2722 C 0.39243 0.91479 0.3583 0.0
C2723 C 0.39106 0.92179 0.37065 0.0
C2724 C 0.40195 0.92969 0.37537 0.0
C2725 C 0.41386 0.93057 0.36775 0.0
C2726 C 0.38127 0.90597 0.35304 0.0
C2727 C 0.40084 0.93765 0.38824 0.0
C2728 C 0.35551 0.93004 0.38267 0.0
C2729 C 0.35374 0.92098 0.39332 0.0
C2730 C 0.36758 0.93045 0.37529 0.0
C2731 C 0.37808 0.9213 0.37834 0.0
C2732 C 0.37621 0.91188 0.38888 0.0
C2733 C 0.36417 0.91198 0.39638 0.0
C2734 C 0.36923 0.94092 0.36443 0.0
C2735 C 0.38694 0.90171 0.39227 0.0
H2736 H 0.40514 0.91116 0.34106 0.0
H2737 H 0.42205 0.93683 0.37129 0.0
H2738 H 0.37815 0.89866 0.36086 0.0
H2739 H 0.37236 0.9122 0.35058 0.0
H2740 H 0.3843 0.90035 0.34388 0.0
H2741 H 0.41024 0.94318 0.39064 0.0
H2742 H 0.3925 0.945 0.3874 0.0
H2743 H 0.39843 0.93088 0.39676 0.0
H2744 H 0.34757 0.93714 0.38034 0.0
H2745 H 0.36287 0.90494 0.40458 0.0
H2746 H 0.37113 0.93598 0.35462 0.0
H2747 H 0.37807 0.94734 0.36666 0.0
H2748 H 0.36023 0.94746 0.36343 0.0
H2749 H 0.38968 0.89589 0.38315 0.0
H2750 H 0.38367 0.8946 0.40022 0.0
H2751 H 0.39616 0.90693 0.39574 0.0
C2752 C 0.07797 0.4141 0.36801 0.0
C2753 C 0.08401 0.41494 0.3553 0.0
C2754 C 0.07901 0.40237 0.37586 0.0
C2755 C 0.08667 0.39132 0.37112 0.0
C2756 C 0.09329 0.39237 0.35854 0.0
C2757 C 0.09167 0.40405 0.35068 0.0
C2758 C 0.07141 0.40158 0.38897 0.0
C2759 C 0.10189 0.38104 0.35326 0.0
C2760 C 0.09662 0.36479 0.39712 0.0
C2761 C 0.08748 0.35442 0.39435 0.0
C2762 C 0.09675 0.37669 0.38941 0.0
C2763 C 0.08717 0.37848 0.379 0.0
C2764 C 0.07782 0.36806 0.37629 0.0
C2765 C 0.07825 0.3561 0.38383 0.0
C2766 C 0.10715 0.38732 0.39238 0.0
C2767 C 0.06715 0.36966 0.36562 0.0
H2768 H 0.07186 0.4224 0.37156 0.0
H2769 H 0.09636 0.40463 0.34086 0.0
H2770 H 0.06391 0.39334 0.38847 0.0
H2771 H 0.07837 0.39921 0.39734 0.0
H2772 H 0.06607 0.4111 0.39136 0.0
H2773 H 0.10742 0.38391 0.34399 0.0
H2774 H 0.10928 0.37789 0.361 0.0
H2775 H 0.0955 0.37221 0.35097 0.0
H2776 H 0.10381 0.36353 0.40521 0.0
H2777 H 0.07106 0.34818 0.38175 0.0
H2778 H 0.10215 0.39667 0.3958 0.0
H2779 H 0.11281 0.3898 0.3831 0.0
H2780 H 0.11439 0.38408 0.40024 0.0
H2781 H 0.06095 0.37868 0.36779 0.0
H2782 H 0.06041 0.36077 0.36498 0.0
H2783 H 0.07191 0.37122 0.35566 0.0
C2784 C 0.35619 0.07601 0.62489 0.0
C2785 C 0.35411 0.08555 0.61472 0.0
C2786 C 0.36814 0.07585 0.63248 0.0
C2787 C 0.37814 0.08575 0.63018 0.0
C2788 C 0.3759 0.09566 0.62018 0.0
C2789 C 0.36403 0.09531 0.61242 0.0
C2790 C 0.37021 0.06485 0.64273 0.0
C2791 C 0.38608 0.10662 0.61763 0.0
C2792 C 0.40373 0.09015 0.65855 0.0
C2793 C 0.41487 0.08304 0.65361 0.0
C2794 C 0.39194 0.09161 0.65081 0.0
C2795 C 0.39105 0.08544 0.63799 0.0
C2796 C 0.40235 0.07838 0.63291 0.0
C2797 C 0.41415 0.07745 0.64068 0.0
C2798 C 0.38032 0.09955 0.65649 0.0
C2799 C 0.40178 0.07131 0.6195 0.0
H2800 H 0.34865 0.06834 0.62661 0.0
H2801 H 0.36247 0.10273 0.60461 0.0
H2802 H 0.3794 0.05904 0.64023 0.0
H2803 H 0.37174 0.06928 0.65284 0.0
H2804 H 0.36156 0.05781 0.64319 0.0
H2805 H 0.38247 0.11408 0.61015 0.0
H2806 H 0.38842 0.11194 0.62715 0.0
H2807 H 0.39559 0.10216 0.6139 0.0
H2808 H 0.4042 0.09449 0.66853 0.0
H2809 H 0.42263 0.07177 0.63686 0.0
H2810 H 0.37174 0.09273 0.65852 0.0
H2811 H 0.37686 0.10712 0.64907 0.0
H2812 H 0.38302 0.10478 0.66597 0.0
H2813 H 0.39384 0.06348 0.61972 0.0
H2814 H 0.41149 0.06646 0.61684 0.0
H2815 H 0.39909 0.07852 0.61145 0.0
C2816 C 0.91012 0.36486 0.60978 0.0
C2817 C 0.91977 0.35487 0.6122 0.0
C2818 C 0.90981 0.37678 0.61746 0.0
C2819 C 0.91968 0.37899 0.62752 0.0
C2820 C 0.92948 0.36892 0.62994 0.0
C2821 C 0.92927 0.35694 0.62241 0.0
C2822 C 0.89896 0.38703 0.61478 0.0
C2823 C 0.94043 0.37095 0.64026 0.0
C2824 C 0.92832 0.41492 0.63796 0.0
C2825 C 0.9227 0.41572 0.65087 0.0
C2826 C 0.92727 0.40313 0.6302 0.0
C2827 C 0.92005 0.39193 0.63527 0.0
C2828 C 0.91382 0.39292 0.64806 0.0
C2829 C 0.91541 0.40469 0.65578 0.0
C2830 C 0.93441 0.40244 0.61683 0.0
C2831 C 0.90572 0.38141 0.65371 0.0
H2832 H 0.90272 0.36331 0.60193 0.0
H2833 H 0.93687 0.34934 0.62425 0.0
H2834 H 0.89358 0.38945 0.62425 0.0
H2835 H 0.90352 0.39649 0.61106 0.0
H2836 H 0.89153 0.38346 0.60725 0.0
H2837 H 0.94741 0.36225 0.64081 0.0
H2838 H 0.94632 0.38009 0.63777 0.0
H2839 H 0.93594 0.37254 0.65033 0.0
H2840 H 0.93413 0.42332 0.63415 0.0
H2841 H 0.91104 0.40523 0.66575 0.0
H2842 H 0.92722 0.39974 0.60875 0.0
H2843 H 0.94219 0.39446 0.61714 0.0
H2844 H 0.93933 0.4121 0.61415 0.0
H2845 H 0.89818 0.37797 0.64624 0.0
H2846 H 0.90042 0.38422 0.66313 0.0
H2847 H 0.91244 0.37278 0.65587 0.0
C2848 C 0.08904 0.60176 0.6555 0.0
C2849 C 0.08183 0.59065 0.65066 0.0
C2850 C 0.09038 0.61358 0.6478 0.0
C2851 C 0.08398 0.61452 0.6351 0.0
C2852 C 0.07675 0.60327 0.63013 0.0
C2853 C 0.07593 0.59144 0.63787 0.0
C2854 C 0.09846 0.62514 0.65336 0.0
C2855 C 0.06945 0.60391 0.61685 0.0
C2856 C 0.07497 0.64958 0.62219 0.0
C2857 C 0.08452 0.6516 0.61201 0.0
C2858 C 0.07464 0.63757 0.62969 0.0
C2859 C 0.08435 0.62742 0.62726 0.0
C2860 C 0.09425 0.62957 0.61722 0.0
C2861 C 0.09408 0.64151 0.60959 0.0
C2862 C 0.06368 0.63563 0.64 0.0
C2863 C 0.105 0.61921 0.61452 0.0
H2864 H 0.09363 0.60123 0.66537 0.0
H2865 H 0.07018 0.58298 0.63413 0.0
H2866 H 0.10605 0.62847 0.64589 0.0
H2867 H 0.09176 0.63382 0.65536 0.0
H2868 H 0.10371 0.62246 0.66285 0.0
H2869 H 0.06445 0.59426 0.61429 0.0
H2870 H 0.06172 0.61194 0.61719 0.0
H2871 H 0.07656 0.60652 0.60867 0.0
H2872 H 0.06744 0.65724 0.62402 0.0
H2873 H 0.10151 0.643 0.60175 0.0
H2874 H 0.06816 0.63403 0.65008 0.0
H2875 H 0.05774 0.62651 0.63754 0.0
H2876 H 0.05675 0.64437 0.64053 0.0
H2877 H 0.11044 0.61682 0.62396 0.0
H2878 H 0.11239 0.62268 0.6069 0.0
H2879 H 0.10034 0.60976 0.6109 0.0
C2880 C 0.10809 0.22415 0.40071 0.0
C2881 C 0.09613 0.2192 0.40628 0.0
C2882 C 0.1101 0.23811 0.3991 0.0
C2883 C 0.09995 0.24724 0.40327 0.0
C2884 C 0.0876 0.24214 0.40818 0.0
C2885 C 0.08588 0.22823 0.40961 0.0
C2886 C 0.12334 0.24311 0.39367 0.0
C2887 C 0.07642 0.25139 0.41269 0.0
C2888 C 0.10593 0.28261 0.4164 0.0
C2889 C 0.10024 0.29031 0.40612 0.0
C2890 C 0.10699 0.26854 0.41516 0.0
C2891 C 0.10225 0.2621 0.40333 0.0
C2892 C 0.09757 0.27005 0.39249 0.0
C2893 C 0.09645 0.28404 0.3941 0.0
C2894 C 0.11195 0.2605 0.42701 0.0
C2895 C 0.09258 0.2637 0.37965 0.0
H2896 H 0.11616 0.2172 0.39842 0.0
H2897 H 0.07669 0.22444 0.41398 0.0
H2898 H 0.12168 0.25104 0.386 0.0
H2899 H 0.12926 0.24765 0.40195 0.0
H2900 H 0.12935 0.23487 0.38911 0.0
H2901 H 0.06724 0.2458 0.41571 0.0
H2902 H 0.07987 0.25748 0.42138 0.0
H2903 H 0.07373 0.25847 0.40452 0.0
H2904 H 0.10853 0.28743 0.42583 0.0
H2905 H 0.0918 0.29 0.38624 0.0
H2906 H 0.11912 0.25263 0.4237 0.0
H2907 H 0.10331 0.25535 0.43185 0.0
H2908 H 0.11694 0.26694 0.43465 0.0
H2909 H 0.09943 0.25554 0.37635 0.0
H2910 H 0.09164 0.27118 0.37142 0.0
H2911 H 0.08255 0.25917 0.38142 0.0
C2912 C 0.77761 0.09802 0.42387 0.0
C2913 C 0.78742 0.09956 0.41383 0.0
C2914 C 0.76387 0.09889 0.42098 0.0
C2915 C 0.75964 0.10168 0.40769 0.0
C2916 C 0.76946 0.10393 0.39757 0.0
C2917 C 0.78327 0.10272 0.40073 0.0
C2918 C 0.75386 0.09613 0.43208 0.0
C2919 C 0.76537 0.10723 0.38336 0.0
C2920 C 0.72597 0.08548 0.40108 0.0
C2921 C 0.71693 0.09579 0.40444 0.0
C2922 C 0.73988 0.08758 0.40107 0.0
C2923 C 0.74503 0.10041 0.40436 0.0
C2924 C 0.73595 0.11119 0.40668 0.0
C2925 C 0.72195 0.10875 0.40674 0.0
C2926 C 0.74906 0.07571 0.39869 0.0
C2927 C 0.74103 0.12509 0.40994 0.0
H2928 H 0.78063 0.09576 0.43408 0.0
H2929 H 0.79076 0.10409 0.39294 0.0
H2930 H 0.74657 0.10452 0.43291 0.0
H2931 H 0.74807 0.0869 0.4297 0.0
H2932 H 0.75878 0.09473 0.442 0.0
H2933 H 0.774 0.11084 0.37727 0.0
H2934 H 0.76117 0.09813 0.37848 0.0
H2935 H 0.75738 0.11502 0.38331 0.0
H2936 H 0.72218 0.07546 0.39906 0.0
H2937 H 0.71504 0.11678 0.40926 0.0
H2938 H 0.75406 0.07291 0.40826 0.0
H2939 H 0.75705 0.07832 0.39138 0.0
H2940 H 0.74353 0.06679 0.39488 0.0
H2941 H 0.7446 0.12535 0.4205 0.0
H2942 H 0.73303 0.1328 0.40876 0.0
H2943 H 0.74965 0.12777 0.4034 0.0
C2944 C 0.91338 0.7788 0.41997 0.0
C2945 C 0.909 0.78844 0.41065 0.0
C2946 C 0.91231 0.76502 0.41738 0.0
C2947 C 0.90639 0.76057 0.40524 0.0
C2948 C 0.90169 0.77021 0.39582 0.0
C2949 C 0.90321 0.78407 0.39856 0.0
C2950 C 0.91784 0.7552 0.42759 0.0
C2951 C 0.89508 0.76586 0.3829 0.0
C2952 C 0.91975 0.72622 0.39641 0.0
C2953 C 0.91044 0.71771 0.40273 0.0
C2954 C 0.91792 0.74016 0.39607 0.0
C2955 C 0.90641 0.74585 0.40217 0.0
C2956 C 0.89633 0.73723 0.40748 0.0
C2957 C 0.89847 0.72319 0.40773 0.0
C2958 C 0.92903 0.74884 0.39041 0.0
C2959 C 0.8838 0.74288 0.41386 0.0
H2960 H 0.91785 0.78201 0.42934 0.0
H2961 H 0.89962 0.79146 0.39141 0.0
H2962 H 0.90984 0.74817 0.43088 0.0
H2963 H 0.92596 0.74911 0.42298 0.0
H2964 H 0.92198 0.76031 0.43662 0.0
H2965 H 0.8913 0.77453 0.37696 0.0
H2966 H 0.90233 0.76014 0.37665 0.0
H2967 H 0.88655 0.75902 0.38512 0.0
H2968 H 0.92896 0.722 0.39237 0.0
H2969 H 0.89125 0.71666 0.41262 0.0
H2970 H 0.93452 0.75373 0.3988 0.0
H2971 H 0.92487 0.75691 0.38397 0.0
H2972 H 0.93635 0.7429 0.38442 0.0
H2973 H 0.88628 0.74684 0.42398 0.0
H2974 H 0.87587 0.7351 0.41498 0.0
H2975 H 0.87977 0.75134 0.40782 0.0
C2976 C 0.22178 0.90514 0.40312 0.0
C2977 C 0.21773 0.90992 0.41576 0.0
C2978 C 0.23557 0.90364 0.39998 0.0
C2979 C 0.24548 0.90732 0.40957 0.0
C2980 C 0.24137 0.91195 0.42237 0.0
C2981 C 0.22764 0.913 0.42533 0.0
C2982 C 0.23954 0.89833 0.38635 0.0
C2983 C 0.25147 0.91633 0.43286 0.0
C2984 C 0.28308 0.89977 0.40979 0.0
C2985 C 0.28824 0.91224 0.40577 0.0
C2986 C 0.26905 0.89747 0.40993 0.0
C2987 C 0.26009 0.9079 0.40604 0.0
C2988 C 0.26541 0.92006 0.40094 0.0
C2989 C 0.27935 0.92203 0.40084 0.0
C2990 C 0.26381 0.88426 0.41518 0.0
C2991 C 0.25639 0.93155 0.3968 0.0
H2992 H 0.2142 0.90255 0.39573 0.0
H2993 H 0.22472 0.91655 0.43519 0.0
H2994 H 0.24427 0.90647 0.38038 0.0
H2995 H 0.2471 0.8902 0.38744 0.0
H2996 H 0.23078 0.89439 0.38067 0.0
H2997 H 0.24662 0.91935 0.44245 0.0
H2998 H 0.25865 0.90808 0.43498 0.0
H2999 H 0.25737 0.92499 0.42903 0.0
H3000 H 0.28988 0.89215 0.41358 0.0
H3001 H 0.28329 0.93164 0.39753 0.0
H3002 H 0.25511 0.88077 0.40913 0.0
H3003 H 0.2603 0.88558 0.42568 0.0
H3004 H 0.2717 0.87636 0.4151 0.0
H3005 H 0.24825 0.92797 0.39009 0.0
H3006 H 0.26202 0.93964 0.39156 0.0
H3007 H 0.25158 0.93593 0.40587 0.0
C3008 C 0.08016 0.72658 0.59981 0.0
C3009 C 0.09083 0.71736 0.59896 0.0
C3010 C 0.08242 0.74044 0.60074 0.0
C3011 C 0.09575 0.74538 0.601 0.0
C3012 C 0.10663 0.73612 0.60095 0.0
C3013 C 0.10405 0.72218 0.59986 0.0
C3014 C 0.07047 0.74983 0.60057 0.0
C3015 C 0.12098 0.74097 0.60143 0.0
C3016 C 0.09849 0.77944 0.58427 0.0
C3017 C 0.09767 0.78838 0.59517 0.0
C3018 C 0.09859 0.76549 0.58612 0.0
C3019 C 0.09802 0.76015 0.59928 0.0
C3020 C 0.09786 0.76908 0.61043 0.0
C3021 C 0.0976 0.78313 0.60825 0.0
C3022 C 0.09854 0.75648 0.57389 0.0
C3023 C 0.09747 0.76379 0.62462 0.0
H3024 H 0.06988 0.723 0.59932 0.0
H3025 H 0.11235 0.71515 0.59933 0.0
H3026 H 0.07117 0.75719 0.6089 0.0
H3027 H 0.0704 0.7556 0.59102 0.0
H3028 H 0.06077 0.74438 0.60145 0.0
H3029 H 0.12812 0.73266 0.60356 0.0
H3030 H 0.1237 0.74551 0.59161 0.0
H3031 H 0.12217 0.74887 0.60921 0.0
H3032 H 0.09873 0.78333 0.5741 0.0
H3033 H 0.0971 0.78994 0.61673 0.0
H3034 H 0.08884 0.75099 0.57333 0.0
H3035 H 0.10664 0.74887 0.57464 0.0
H3036 H 0.0999 0.76218 0.56439 0.0
H3037 H 0.08742 0.75943 0.6267 0.0
H3038 H 0.09947 0.77181 0.63213 0.0
H3039 H 0.10497 0.75564 0.62595 0.0
C3040 C 0.22733 0.1024 0.58384 0.0
C3041 C 0.21797 0.10033 0.5942 0.0
C3042 C 0.24119 0.10251 0.58631 0.0
C3043 C 0.24596 0.10068 0.59958 0.0
C3044 C 0.23656 0.09956 0.61028 0.0
C3045 C 0.22263 0.09933 0.60746 0.0
C3046 C 0.25071 0.10357 0.57452 0.0
C3047 C 0.24124 0.09786 0.62459 0.0
C3048 C 0.27889 0.08168 0.60002 0.0
C3049 C 0.28848 0.09205 0.60053 0.0
C3050 C 0.26509 0.08436 0.60043 0.0
C3051 C 0.26057 0.09778 0.60165 0.0
C3052 C 0.27015 0.10828 0.60298 0.0
C3053 C 0.28403 0.10531 0.60229 0.0
C3054 C 0.25534 0.07282 0.59872 0.0
C3055 C 0.26574 0.12269 0.6046 0.0
H3056 H 0.22386 0.10341 0.57356 0.0
H3057 H 0.21548 0.09784 0.61554 0.0
H3058 H 0.25848 0.11132 0.57646 0.0
H3059 H 0.25598 0.09384 0.5731 0.0
H3060 H 0.24543 0.10613 0.56503 0.0
H3061 H 0.23299 0.09971 0.63189 0.0
H3062 H 0.24497 0.08746 0.62607 0.0
H3063 H 0.24968 0.1048 0.62682 0.0
H3064 H 0.28216 0.07136 0.59887 0.0
H3065 H 0.29135 0.11336 0.60284 0.0
H3066 H 0.24986 0.07394 0.58907 0.0
H3067 H 0.24776 0.07289 0.60689 0.0
H3068 H 0.26046 0.06289 0.59872 0.0
H3069 H 0.26183 0.1265 0.59488 0.0
H3070 H 0.27415 0.12928 0.60784 0.0
H3071 H 0.25747 0.12343 0.61205 0.0
C3072 C 0.92386 0.2802 0.60191 0.0
C3073 C 0.91324 0.28927 0.59979 0.0
C3074 C 0.92166 0.26633 0.60271 0.0
C3075 C 0.90844 0.26124 0.60152 0.0
C3076 C 0.89752 0.27037 0.60033 0.0
C3077 C 0.90005 0.28433 0.59943 0.0
C3078 C 0.93367 0.25708 0.6038 0.0
C3079 C 0.88326 0.26537 0.59928 0.0
C3080 C 0.90776 0.22758 0.58384 0.0
C3081 C 0.90751 0.2184 0.59456 0.0
C3082 C 0.90743 0.24147 0.586 0.0
C3083 C 0.90657 0.2465 0.59926 0.0
C3084 C 0.90567 0.23733 0.61017 0.0
C3085 C 0.90627 0.22335 0.6077 0.0
C3086 C 0.9087 0.25077 0.57404 0.0
C3087 C 0.90447 0.2423 0.62443 0.0
H3088 H 0.93409 0.28391 0.60244 0.0
H3089 H 0.89178 0.29126 0.59791 0.0
H3090 H 0.93211 0.24956 0.61186 0.0
H3091 H 0.93495 0.2515 0.59422 0.0
H3092 H 0.94313 0.26264 0.60591 0.0
H3093 H 0.87585 0.27355 0.60095 0.0
H3094 H 0.88156 0.26112 0.58911 0.0
H3095 H 0.8814 0.25722 0.60667 0.0
H3096 H 0.90855 0.22394 0.57361 0.0
H3097 H 0.9059 0.21634 0.61603 0.0
H3098 H 0.91827 0.25646 0.57472 0.0
H3099 H 0.90039 0.2582 0.57401 0.0
H3100 H 0.90856 0.24527 0.56433 0.0
H3101 H 0.91418 0.24671 0.62768 0.0
H3102 H 0.90178 0.23409 0.6315 0.0
H3103 H 0.89676 0.25033 0.62512 0.0
C3104 C 0.77847 0.91794 0.59056 0.0
C3105 C 0.78754 0.90806 0.59479 0.0
C3106 C 0.76462 0.91672 0.59283 0.0
C3107 C 0.75956 0.90513 0.59935 0.0
C3108 C 0.76871 0.89524 0.60408 0.0
C3109 C 0.78265 0.89686 0.6018 0.0
C3110 C 0.75538 0.92769 0.58782 0.0
C3111 C 0.76374 0.88274 0.61104 0.0
C3112 C 0.72401 0.91156 0.61131 0.0
C3113 C 0.71645 0.90711 0.60029 0.0
C3114 C 0.738 0.90969 0.61183 0.0
C3115 C 0.74466 0.90355 0.60085 0.0
C3116 C 0.73691 0.89816 0.59013 0.0
C3117 C 0.72285 0.89997 0.59001 0.0
C3118 C 0.74575 0.91548 0.62351 0.0
C3119 C 0.74356 0.89165 0.57817 0.0
H3120 H 0.78215 0.92659 0.58514 0.0
H3121 H 0.78962 0.88907 0.60487 0.0
H3122 H 0.74846 0.92357 0.58011 0.0
H3123 H 0.74912 0.93156 0.59619 0.0
H3124 H 0.76097 0.93625 0.58334 0.0
H3125 H 0.77211 0.87665 0.61523 0.0
H3126 H 0.75673 0.88541 0.61929 0.0
H3127 H 0.75806 0.87646 0.60378 0.0
H3128 H 0.71906 0.91726 0.61918 0.0
H3129 H 0.71705 0.89682 0.58133 0.0
H3130 H 0.75061 0.92501 0.62036 0.0
H3131 H 0.75381 0.9085 0.62677 0.0
H3132 H 0.73911 0.91765 0.63222 0.0
H3133 H 0.74847 0.89951 0.57195 0.0
H3134 H 0.73622 0.88618 0.57178 0.0
H3135 H 0.75149 0.88454 0.58147 0.0
C3136 C 0.41205 0.08466 0.27895 0.0
C3137 C 0.40636 0.09338 0.28845 0.0
C3138 C 0.4109 0.08705 0.26513 0.0
C3139 C 0.40361 0.09836 0.26052 0.0
C3140 C 0.39773 0.10723 0.27004 0.0
C3141 C 0.39931 0.10472 0.28394 0.0
C3142 C 0.41772 0.0775 0.25546 0.0
C3143 C 0.38969 0.11925 0.26551 0.0
C3144 C 0.41579 0.10815 0.22598 0.0
C3145 C 0.40725 0.10066 0.21761 0.0
C3146 C 0.41395 0.10852 0.23993 0.0
C3147 C 0.40325 0.1012 0.24576 0.0
C3148 C 0.39383 0.09463 0.23725 0.0
C3149 C 0.39595 0.09441 0.22321 0.0
C3150 C 0.42432 0.11559 0.24847 0.0
C3151 C 0.38217 0.08688 0.24305 0.0
H3152 H 0.41757 0.07593 0.2823 0.0
H3153 H 0.39473 0.11139 0.29123 0.0
H3154 H 0.41023 0.07317 0.24843 0.0
H3155 H 0.42524 0.08303 0.24935 0.0
H3156 H 0.42291 0.06912 0.26069 0.0
H3157 H 0.38549 0.12501 0.27411 0.0
H3158 H 0.39609 0.12606 0.25944 0.0
H3159 H 0.38129 0.11593 0.25897 0.0
H3160 H 0.42449 0.11311 0.22167 0.0
H3161 H 0.38935 0.08859 0.21679 0.0
H3162 H 0.43084 0.108 0.2534 0.0
H3163 H 0.41945 0.12155 0.25652 0.0
H3164 H 0.43081 0.12238 0.24243 0.0
H3165 H 0.38586 0.07722 0.24721 0.0
H3166 H 0.37444 0.08464 0.23531 0.0
H3167 H 0.37743 0.09256 0.25139 0.0
C3168 C 0.90988 0.42142 0.22749 0.0
C3169 C 0.90671 0.41133 0.21815 0.0
C3170 C 0.90911 0.41916 0.24135 0.0
C3171 C 0.9047 0.40654 0.24618 0.0
C3172 C 0.90103 0.39638 0.23685 0.0
C3173 C 0.90225 0.39883 0.2229 0.0
C3174 C 0.91352 0.43021 0.25082 0.0
C3175 C 0.89595 0.38292 0.24161 0.0
C3176 C 0.91989 0.3998 0.28025 0.0
C3177 C 0.91016 0.40511 0.28898 0.0
C3178 C 0.91776 0.39914 0.26637 0.0
C3179 C 0.90548 0.40381 0.26094 0.0
C3180 C 0.89511 0.40809 0.2698 0.0
C3181 C 0.89758 0.40874 0.28378 0.0
C3182 C 0.9292 0.39465 0.25744 0.0
C3183 C 0.88178 0.4129 0.26444 0.0
H3184 H 0.91323 0.43115 0.22401 0.0
H3185 H 0.89959 0.39105 0.21576 0.0
H3186 H 0.90532 0.43266 0.25796 0.0
H3187 H 0.92227 0.42677 0.25683 0.0
H3188 H 0.91641 0.43955 0.24544 0.0
H3189 H 0.89217 0.37664 0.2332 0.0
H3190 H 0.90416 0.3774 0.24675 0.0
H3191 H 0.88775 0.38433 0.24904 0.0
H3192 H 0.92958 0.39675 0.28423 0.0
H3193 H 0.89 0.41279 0.29046 0.0
H3194 H 0.93342 0.40349 0.2521 0.0
H3195 H 0.92561 0.38748 0.24971 0.0
H3196 H 0.93743 0.3898 0.26324 0.0
H3197 H 0.88294 0.42319 0.26032 0.0
H3198 H 0.87398 0.4132 0.27243 0.0
H3199 H 0.87825 0.40632 0.25616 0.0
C3200 C 0.60327 0.9023 0.28388 0.0
C3201 C 0.59995 0.9152 0.28848 0.0
C3202 C 0.60454 0.89966 0.26997 0.0
C3203 C 0.6022 0.9101 0.26052 0.0
C3204 C 0.59926 0.9232 0.26521 0.0
C3205 C 0.59832 0.92558 0.27904 0.0
C3206 C 0.60798 0.88564 0.26538 0.0
C3207 C 0.59639 0.93462 0.2556 0.0
C3208 C 0.60937 0.90995 0.22281 0.0
C3209 C 0.59649 0.90744 0.21768 0.0
C3210 C 0.61174 0.90984 0.23682 0.0
C3211 C 0.60095 0.90727 0.24582 0.0
C3212 C 0.58816 0.90396 0.24057 0.0
C3213 C 0.58613 0.90403 0.22666 0.0
C3214 C 0.62558 0.91317 0.242 0.0
C3215 C 0.57628 0.90131 0.24967 0.0
H3216 H 0.60471 0.89427 0.29109 0.0
H3217 H 0.59593 0.93565 0.28242 0.0
H3218 H 0.59895 0.88085 0.26091 0.0
H3219 H 0.61584 0.88595 0.25747 0.0
H3220 H 0.61156 0.87924 0.2738 0.0
H3221 H 0.59499 0.94436 0.26087 0.0
H3222 H 0.60473 0.93572 0.2483 0.0
H3223 H 0.58713 0.93239 0.2498 0.0
H3224 H 0.61745 0.91247 0.21595 0.0
H3225 H 0.57617 0.90185 0.22282 0.0
H3226 H 0.62839 0.90634 0.25036 0.0
H3227 H 0.62564 0.92358 0.24601 0.0
H3228 H 0.63331 0.91246 0.23397 0.0
H3229 H 0.57889 0.89373 0.25741 0.0
H3230 H 0.56734 0.8977 0.24404 0.0
H3231 H 0.57351 0.91071 0.25501 0.0
C3232 C 0.10246 0.60567 0.22051 0.0
C3233 C 0.0992 0.59273 0.21596 0.0
C3234 C 0.10334 0.60847 0.23442 0.0
C3235 C 0.10058 0.59818 0.24393 0.0
C3236 C 0.09746 0.58511 0.2393 0.0
C3237 C 0.09699 0.58254 0.22548 0.0
C3238 C 0.10702 0.62246 0.23896 0.0
C3239 C 0.09409 0.57386 0.24895 0.0
C3240 C 0.10766 0.59774 0.28162 0.0
C3241 C 0.09478 0.60031 0.28672 0.0
C3242 C 0.1101 0.59814 0.26763 0.0
C3243 C 0.0994 0.60111 0.25863 0.0
C3244 C 0.08669 0.60467 0.26389 0.0
C3245 C 0.08457 0.60426 0.2778 0.0
C3246 C 0.12387 0.59451 0.26245 0.0
C3247 C 0.07491 0.60776 0.25481 0.0
H3248 H 0.10436 0.61355 0.21324 0.0
H3249 H 0.09461 0.57246 0.22216 0.0
H3250 H 0.09822 0.62728 0.24381 0.0
H3251 H 0.11516 0.62201 0.24658 0.0
H3252 H 0.11037 0.62888 0.23047 0.0
H3253 H 0.09225 0.56417 0.24373 0.0
H3254 H 0.10239 0.57242 0.25625 0.0
H3255 H 0.08495 0.57651 0.25478 0.0
H3256 H 0.1156 0.59476 0.28845 0.0
H3257 H 0.07463 0.60648 0.28166 0.0
H3258 H 0.12683 0.60127 0.25408 0.0
H3259 H 0.12371 0.5841 0.25847 0.0
H3260 H 0.1316 0.59507 0.27048 0.0
H3261 H 0.07781 0.61512 0.24696 0.0
H3262 H 0.06618 0.61183 0.26045 0.0
H3263 H 0.07169 0.59843 0.24961 0.0
C3264 C 0.42399 0.90495 0.77893 0.0
C3265 C 0.41339 0.90572 0.78823 0.0
C3266 C 0.42162 0.90426 0.76508 0.0
C3267 C 0.40825 0.90413 0.76025 0.0
C3268 C 0.39744 0.904 0.76958 0.0
C3269 C 0.40013 0.90489 0.78351 0.0
C3270 C 0.4335 0.90461 0.75561 0.0
C3271 C 0.38305 0.90358 0.76484 0.0
C3272 C 0.40589 0.92195 0.7268 0.0
C3273 C 0.40708 0.91135 0.71755 0.0
C3274 C 0.40539 0.91963 0.74066 0.0
C3275 C 0.40589 0.9063 0.74556 0.0
C3276 C 0.40618 0.89545 0.73628 0.0
C3277 C 0.40685 0.8981 0.72233 0.0
C3278 C 0.40528 0.93156 0.75007 0.0
C3279 C 0.40644 0.88108 0.74109 0.0
H3280 H 0.4343 0.90536 0.78243 0.0
H3281 H 0.39189 0.90532 0.79061 0.0
H3282 H 0.43275 0.8964 0.74811 0.0
H3283 H 0.43352 0.91426 0.75002 0.0
H3284 H 0.44324 0.90363 0.76097 0.0
H3285 H 0.37602 0.901 0.77312 0.0
H3286 H 0.38018 0.91356 0.76078 0.0
H3287 H 0.38185 0.89614 0.75662 0.0
H3288 H 0.40584 0.93224 0.72324 0.0
H3289 H 0.40764 0.88985 0.71526 0.0
H3290 H 0.41496 0.93204 0.7556 0.0
H3291 H 0.39717 0.93049 0.75763 0.0
H3292 H 0.40384 0.94122 0.74467 0.0
H3293 H 0.41659 0.87867 0.74502 0.0
H3294 H 0.40405 0.87391 0.73287 0.0
H3295 H 0.39917 0.8796 0.74942 0.0
C3296 C 0.10051 0.39845 0.78521 0.0
C3297 C 0.10012 0.41165 0.79012 0.0
C3298 C 0.10086 0.39591 0.77123 0.0
C3299 C 0.10061 0.40682 0.76202 0.0
C3300 C 0.10067 0.42012 0.76701 0.0
C3301 C 0.10054 0.42234 0.7809 0.0
C3302 C 0.10105 0.38158 0.7663 0.0
C3303 C 0.10013 0.4321 0.75768 0.0
C3304 C 0.10685 0.40564 0.72411 0.0
C3305 C 0.09363 0.40596 0.71922 0.0
C3306 C 0.10939 0.40492 0.73808 0.0
C3307 C 0.09848 0.40463 0.74728 0.0
C3308 C 0.08518 0.40424 0.74228 0.0
C3309 C 0.08295 0.40483 0.7284 0.0
C3310 C 0.12373 0.40513 0.743 0.0
C3311 C 0.07319 0.40412 0.75161 0.0
H3312 H 0.10033 0.39013 0.79224 0.0
H3313 H 0.10042 0.43261 0.78452 0.0
H3314 H 0.09111 0.37899 0.76197 0.0
H3315 H 0.10864 0.38034 0.75822 0.0
H3316 H 0.1033 0.37437 0.77452 0.0
H3317 H 0.10103 0.4418 0.76314 0.0
H3318 H 0.10832 0.43152 0.75014 0.0
H3319 H 0.09046 0.43209 0.75211 0.0
H3320 H 0.11515 0.40639 0.7171 0.0
H3321 H 0.07268 0.40485 0.72476 0.0
H3322 H 0.12519 0.39762 0.75111 0.0
H3323 H 0.12605 0.41517 0.74727 0.0
H3324 H 0.13099 0.40304 0.73477 0.0
H3325 H 0.07421 0.39601 0.75918 0.0
H3326 H 0.06356 0.40268 0.74614 0.0
H3327 H 0.07267 0.4138 0.75713 0.0
C3328 C 0.59645 0.10842 0.72186 0.0
C3329 C 0.60022 0.09591 0.7166 0.0
C3330 C 0.59627 0.1106 0.7359 0.0
C3331 C 0.59987 0.1 0.74478 0.0
C3332 C 0.60458 0.08772 0.73939 0.0
C3333 C 0.60474 0.08588 0.72544 0.0
C3334 C 0.59143 0.12393 0.74124 0.0
C3335 C 0.60838 0.07605 0.74834 0.0
C3336 C 0.60351 0.10225 0.78301 0.0
C3337 C 0.59084 0.0977 0.78721 0.0
C3338 C 0.60643 0.10391 0.7692 0.0
C3339 C 0.59655 0.10064 0.75942 0.0
C3340 C 0.58369 0.09632 0.76369 0.0
C3341 C 0.58098 0.09508 0.77744 0.0
C3342 C 0.62014 0.10887 0.76505 0.0
C3343 C 0.57291 0.09239 0.75372 0.0
H3344 H 0.59302 0.11624 0.7151 0.0
H3345 H 0.60791 0.07623 0.72147 0.0
H3346 H 0.58094 0.12288 0.74488 0.0
H3347 H 0.59768 0.12722 0.74987 0.0
H3348 H 0.59163 0.13185 0.73337 0.0
H3349 H 0.61316 0.06772 0.74264 0.0
H3350 H 0.61539 0.07935 0.75634 0.0
H3351 H 0.59922 0.07208 0.75333 0.0
H3352 H 0.61112 0.10449 0.79048 0.0
H3353 H 0.57109 0.09173 0.78049 0.0
H3354 H 0.61918 0.11694 0.75742 0.0
H3355 H 0.62588 0.10053 0.76038 0.0
H3356 H 0.62598 0.11276 0.77373 0.0
H3357 H 0.57101 0.10074 0.74659 0.0
H3358 H 0.56327 0.08973 0.75869 0.0
H3359 H 0.57632 0.08361 0.74775 0.0
C3360 C 0.92365 0.60266 0.7253 0.0
C3361 C 0.91305 0.6006 0.71619 0.0
C3362 C 0.92149 0.60296 0.7392 0.0
C3363 C 0.90832 0.60132 0.74429 0.0
C3364 C 0.89741 0.60001 0.73516 0.0
C3365 C 0.89991 0.59959 0.72118 0.0
C3366 C 0.93349 0.60418 0.74845 0.0
C3367 C 0.8832 0.59845 0.74019 0.0
C3368 C 0.908 0.58367 0.778 0.0
C3369 C 0.90747 0.5944 0.78717 0.0
C3370 C 0.90768 0.5858 0.76409 0.0
C3371 C 0.90651 0.59903 0.75904 0.0
C3372 C 0.90533 0.60992 0.7682 0.0
C3373 C 0.90595 0.6075 0.78219 0.0
C3374 C 0.90928 0.57387 0.75482 0.0
C3375 C 0.9038 0.62414 0.7632 0.0
H3376 H 0.93385 0.60364 0.7216 0.0
H3377 H 0.89165 0.59812 0.71422 0.0
H3378 H 0.93181 0.6122 0.75599 0.0
H3379 H 0.93489 0.59461 0.75401 0.0
H3380 H 0.94292 0.60643 0.7429 0.0
H3381 H 0.87571 0.59977 0.73201 0.0
H3382 H 0.88189 0.58827 0.74454 0.0
H3383 H 0.88108 0.60583 0.74827 0.0
H3384 H 0.90901 0.57347 0.78166 0.0
H3385 H 0.90536 0.61583 0.78918 0.0
H3386 H 0.91886 0.57477 0.74917 0.0
H3387 H 0.90102 0.57362 0.74734 0.0
H3388 H 0.90935 0.56416 0.76033 0.0
H3389 H 0.91339 0.62756 0.75866 0.0
H3390 H 0.90107 0.63119 0.77142 0.0
H3391 H 0.89598 0.62465 0.75526 0.0
C3392 C 0.22327 0.39976 0.1008 0.0
C3393 C 0.21888 0.41315 0.10105 0.0
C3394 C 0.23716 0.39665 0.10056 0.0
C3395 C 0.2468 0.40719 0.10033 0.0
C3396 C 0.24235 0.42067 0.10105 0.0
C3397 C 0.22855 0.42344 0.10153 0.0
C3398 C 0.24149 0.38214 0.10008 0.0
C3399 C 0.25215 0.43228 0.10057 0.0
C3400 C 0.28487 0.40416 0.10512 0.0
C3401 C 0.28932 0.40458 0.09176 0.0
C3402 C 0.27098 0.40402 0.10816 0.0
C3403 C 0.26137 0.40449 0.09759 0.0
C3404 C 0.26589 0.40427 0.08412 0.0
C3405 C 0.27971 0.40421 0.0814 0.0
C3406 C 0.26658 0.40399 0.12266 0.0
C3407 C 0.25614 0.40499 0.07248 0.0
H3408 H 0.21591 0.39174 0.10057 0.0
H3409 H 0.22536 0.43384 0.10189 0.0
H3410 H 0.24532 0.37972 0.0899 0.0
H3411 H 0.24981 0.38032 0.10729 0.0
H3412 H 0.23307 0.37519 0.10243 0.0
H3413 H 0.24712 0.44215 0.10197 0.0
H3414 H 0.25994 0.43113 0.10845 0.0
H3415 H 0.25737 0.43237 0.09071 0.0
H3416 H 0.29219 0.40433 0.11319 0.0
H3417 H 0.28298 0.40434 0.07101 0.0
H3418 H 0.2582 0.39678 0.12418 0.0
H3419 H 0.26283 0.41411 0.12544 0.0
H3420 H 0.27496 0.40132 0.12954 0.0
H3421 H 0.24829 0.39714 0.07347 0.0
H3422 H 0.26121 0.4037 0.06262 0.0
H3423 H 0.251 0.41488 0.07253 0.0
C3424 C 0.22288 0.60682 0.90571 0.0
C3425 C 0.21839 0.59351 0.90451 0.0
C3426 C 0.23678 0.60978 0.90597 0.0
C3427 C 0.24633 0.59919 0.90514 0.0
C3428 C 0.24176 0.58588 0.90312 0.0
C3429 C 0.22793 0.58326 0.90274 0.0
C3430 C 0.24124 0.62414 0.90785 0.0
C3431 C 0.25144 0.57419 0.90237 0.0
C3432 C 0.28453 0.60243 0.90174 0.0
C3433 C 0.28858 0.60078 0.91515 0.0
C3434 C 0.27073 0.60289 0.89833 0.0
C3435 C 0.26083 0.60142 0.90851 0.0
C3436 C 0.26494 0.60028 0.92207 0.0
C3437 C 0.27867 0.60012 0.92519 0.0
C3438 C 0.26676 0.60445 0.88379 0.0
C3439 C 0.25486 0.59842 0.93329 0.0
H3440 H 0.21559 0.61482 0.90699 0.0
H3441 H 0.2246 0.57295 0.90159 0.0
H3442 H 0.2446 0.62564 0.91837 0.0
H3443 H 0.24988 0.62648 0.9012 0.0
H3444 H 0.23298 0.63136 0.90575 0.0
H3445 H 0.24635 0.56464 0.89963 0.0
H3446 H 0.25944 0.57621 0.89489 0.0
H3447 H 0.25639 0.57282 0.91227 0.0
H3448 H 0.29208 0.6031 0.89393 0.0
H3449 H 0.28161 0.59905 0.93562 0.0
H3450 H 0.25845 0.61183 0.88278 0.0
H3451 H 0.26305 0.5947 0.87987 0.0
H3452 H 0.27534 0.60776 0.87746 0.0
H3453 H 0.2472 0.6065 0.93301 0.0
H3454 H 0.25966 0.59844 0.94337 0.0
H3455 H 0.24953 0.58872 0.93196 0.0
C3456 C 0.42327 0.22661 0.90642 0.0
C3457 C 0.41245 0.21757 0.90726 0.0
C3458 C 0.42122 0.24051 0.90564 0.0
C3459 C 0.40797 0.24566 0.90552 0.0
C3460 C 0.39695 0.23658 0.90555 0.0
C3461 C 0.39931 0.22261 0.90649 0.0
C3462 C 0.43332 0.24971 0.90583 0.0
C3463 C 0.38267 0.24167 0.90523 0.0
C3464 C 0.40578 0.27951 0.92272 0.0
C3465 C 0.40662 0.28858 0.91192 0.0
C3466 C 0.40553 0.2656 0.92067 0.0
C3467 C 0.40594 0.26043 0.90744 0.0
C3468 C 0.40612 0.2695 0.89641 0.0
C3469 C 0.40654 0.28351 0.89878 0.0
C3470 C 0.40556 0.25642 0.93279 0.0
C3471 C 0.40635 0.26438 0.88215 0.0
H3472 H 0.43349 0.22286 0.90681 0.0
H3473 H 0.3909 0.2157 0.907 0.0
H3474 H 0.43266 0.2572 0.8976 0.0
H3475 H 0.43357 0.25534 0.91545 0.0
H3476 H 0.44293 0.24412 0.90477 0.0
H3477 H 0.37538 0.23349 0.90306 0.0
H3478 H 0.38009 0.24614 0.91511 0.0
H3479 H 0.38154 0.24967 0.89755 0.0
H3480 H 0.40565 0.28327 0.93294 0.0
H3481 H 0.40706 0.29042 0.89038 0.0
H3482 H 0.41518 0.25078 0.93318 0.0
H3483 H 0.39734 0.24894 0.93202 0.0
H3484 H 0.40437 0.26202 0.94237 0.0
H3485 H 0.41631 0.25988 0.87996 0.0
H3486 H 0.40445 0.27253 0.87476 0.0
H3487 H 0.3987 0.25638 0.88076 0.0
C3488 C 0.77911 0.42472 0.90721 0.0
C3489 C 0.78901 0.41474 0.90577 0.0
C3490 C 0.76538 0.42161 0.90687 0.0
C3491 C 0.76124 0.40818 0.90473 0.0
C3492 C 0.77114 0.39811 0.90255 0.0
C3493 C 0.78494 0.40149 0.90323 0.0
C3494 C 0.7553 0.43268 0.90954 0.0
C3495 C 0.76715 0.38373 0.89991 0.0
C3496 C 0.72816 0.4012 0.92211 0.0
C3497 C 0.71873 0.4038 0.91194 0.0
C3498 C 0.74202 0.40168 0.91965 0.0
C3499 C 0.74672 0.40468 0.90657 0.0
C3500 C 0.73727 0.40632 0.89598 0.0
C3501 C 0.72334 0.40592 0.89879 0.0
C3502 C 0.75159 0.40003 0.93133 0.0
C3503 C 0.74186 0.40926 0.88185 0.0
H3504 H 0.78206 0.43504 0.909 0.0
H3505 H 0.79249 0.39374 0.90194 0.0
H3506 H 0.74771 0.43306 0.90139 0.0
H3507 H 0.74986 0.43059 0.91905 0.0
H3508 H 0.76012 0.44271 0.91037 0.0
H3509 H 0.77577 0.37759 0.89635 0.0
H3510 H 0.76322 0.37917 0.90929 0.0
H3511 H 0.759 0.38328 0.89231 0.0
H3512 H 0.72472 0.39934 0.93228 0.0
H3513 H 0.71613 0.40787 0.89086 0.0
H3514 H 0.75649 0.40981 0.93353 0.0
H3515 H 0.75964 0.39275 0.92882 0.0
H3516 H 0.74641 0.39654 0.94059 0.0
H3517 H 0.74523 0.41986 0.88117 0.0
H3518 H 0.73367 0.40769 0.87442 0.0
H3519 H 0.75053 0.4028 0.8791 0.0
C3520 C 0.58263 0.77634 0.90543 0.0
C3521 C 0.59323 0.78561 0.9066 0.0
C3522 C 0.58496 0.76247 0.90512 0.0
C3523 C 0.59828 0.75757 0.90583 0.0
C3524 C 0.60913 0.76686 0.90611 0.0
C3525 C 0.60648 0.78081 0.90656 0.0
C3526 C 0.57303 0.75305 0.90501 0.0
C3527 C 0.6235 0.76204 0.90663 0.0
C3528 C 0.60033 0.7244 0.92434 0.0
C3529 C 0.60013 0.71493 0.91387 0.0
C3530 C 0.60038 0.73824 0.9218 0.0
C3531 C 0.60048 0.74292 0.90838 0.0
C3532 C 0.60095 0.73346 0.8977 0.0
C3533 C 0.60066 0.71954 0.90056 0.0
C3534 C 0.5996 0.74785 0.93355 0.0
C3535 C 0.60132 0.73805 0.88326 0.0
H3536 H 0.57234 0.77991 0.90523 0.0
H3537 H 0.61473 0.78788 0.90735 0.0
H3538 H 0.57423 0.7453 0.89709 0.0
H3539 H 0.57239 0.74775 0.9148 0.0
H3540 H 0.56339 0.75842 0.90328 0.0
H3541 H 0.63072 0.77026 0.90441 0.0
H3542 H 0.62572 0.75806 0.9168 0.0
H3543 H 0.62511 0.75374 0.89935 0.0
H3544 H 0.60009 0.72103 0.93469 0.0
H3545 H 0.60065 0.71232 0.8924 0.0
H3546 H 0.58991 0.75336 0.93325 0.0
H3547 H 0.60776 0.75541 0.93293 0.0
H3548 H 0.60037 0.74262 0.94339 0.0
H3549 H 0.59139 0.74223 0.88042 0.0
H3550 H 0.60375 0.72968 0.87628 0.0
H3551 H 0.60886 0.74616 0.88195 0.0
C3552 C 0.72179 0.59911 0.10653 0.0
C3553 C 0.71705 0.60021 0.0933 0.0
C3554 C 0.73575 0.59882 0.10925 0.0
C3555 C 0.74512 0.59948 0.09849 0.0
C3556 C 0.74031 0.60115 0.08522 0.0
C3557 C 0.72644 0.60159 0.08283 0.0
C3558 C 0.74046 0.59726 0.12357 0.0
C3559 C 0.7498 0.60167 0.07336 0.0
C3560 C 0.78325 0.60407 0.10131 0.0
C3561 C 0.7877 0.59076 0.09992 0.0
C3562 C 0.76935 0.60708 0.10177 0.0
C3563 C 0.75975 0.59657 0.10061 0.0
C3564 C 0.76427 0.58312 0.09973 0.0
C3565 C 0.77809 0.58041 0.09951 0.0
C3566 C 0.76495 0.62153 0.10298 0.0
C3567 C 0.75451 0.57157 0.09823 0.0
H3568 H 0.71464 0.59815 0.11469 0.0
H3569 H 0.72295 0.60262 0.07257 0.0
H3570 H 0.74435 0.58693 0.12511 0.0
H3571 H 0.74882 0.60433 0.12572 0.0
H3572 H 0.73222 0.59905 0.13089 0.0
H3573 H 0.74452 0.60394 0.06379 0.0
H3574 H 0.75766 0.6094 0.075 0.0
H3575 H 0.75497 0.59184 0.07228 0.0
H3576 H 0.79057 0.61212 0.10176 0.0
H3577 H 0.78134 0.57006 0.09862 0.0
H3578 H 0.75682 0.6225 0.11055 0.0
H3579 H 0.76085 0.62501 0.09321 0.0
H3580 H 0.7734 0.62824 0.10585 0.0
H3581 H 0.74686 0.57186 0.10632 0.0
H3582 H 0.7596 0.56164 0.09852 0.0
H3583 H 0.74912 0.57247 0.0885 0.0
C3584 C 0.40673 0.72307 0.10937 0.0
C3585 C 0.40562 0.71798 0.09628 0.0
C3586 C 0.40708 0.73709 0.1117 0.0
C3587 C 0.40647 0.74615 0.10067 0.0
C3588 C 0.40474 0.74099 0.08754 0.0
C3589 C 0.40423 0.72706 0.08555 0.0
C3590 C 0.40867 0.7422 0.12588 0.0
C3591 C 0.40427 0.75013 0.07542 0.0
C3592 C 0.40229 0.78435 0.10215 0.0
C3593 C 0.41564 0.78858 0.10052 0.0
C3594 C 0.39913 0.77053 0.10317 0.0
C3595 C 0.40954 0.76078 0.10235 0.0
C3596 C 0.42304 0.7651 0.10126 0.0
C3597 C 0.42589 0.77886 0.10047 0.0
C3598 C 0.38463 0.76634 0.10457 0.0
C3599 C 0.43449 0.75517 0.10011 0.0
H3600 H 0.40769 0.71615 0.11772 0.0
H3601 H 0.40317 0.7233 0.07539 0.0
H3602 H 0.41906 0.74595 0.12734 0.0
H3603 H 0.40173 0.75073 0.12776 0.0
H3604 H 0.40671 0.7342 0.13342 0.0
H3605 H 0.40193 0.7446 0.06601 0.0
H3606 H 0.3966 0.7581 0.07684 0.0
H3607 H 0.41414 0.75518 0.07417 0.0
H3608 H 0.39432 0.79177 0.10234 0.0
H3609 H 0.43628 0.78197 0.0994 0.0
H3610 H 0.3836 0.75842 0.11236 0.0
H3611 H 0.38105 0.76203 0.09494 0.0
H3612 H 0.37804 0.77494 0.10726 0.0
H3613 H 0.4341 0.7478 0.10845 0.0
H3614 H 0.44448 0.76016 0.10025 0.0
H3615 H 0.43354 0.74947 0.09057 0.0
C3616 C 0.6058 0.22217 0.09872 0.0
C3617 C 0.59245 0.21764 0.09858 0.0
C3618 C 0.60875 0.23606 0.09943 0.0
C3619 C 0.5981 0.24557 0.09987 0.0
C3620 C 0.58467 0.24094 0.1004 0.0
C3621 C 0.58205 0.22712 0.09984 0.0
C3622 C 0.62321 0.24057 0.09909 0.0
C3623 C 0.57294 0.2506 0.10065 0.0
C3624 C 0.60106 0.2834 0.10623 0.0
C3625 C 0.60065 0.2884 0.09306 0.0
C3626 C 0.60116 0.2694 0.10869 0.0
C3627 C 0.60061 0.26025 0.09774 0.0
C3628 C 0.60067 0.26532 0.08446 0.0
C3629 C 0.60081 0.27922 0.08232 0.0
C3630 C 0.60138 0.2644 0.12299 0.0
C3631 C 0.59981 0.25606 0.07243 0.0
H3632 H 0.6139 0.21493 0.09788 0.0
H3633 H 0.57168 0.22378 0.09995 0.0
H3634 H 0.62556 0.24478 0.08903 0.0
H3635 H 0.62497 0.24864 0.10658 0.0
H3636 H 0.63025 0.23215 0.10111 0.0
H3637 H 0.56317 0.24539 0.10211 0.0
H3638 H 0.57422 0.25808 0.10882 0.0
H3639 H 0.57253 0.25622 0.09102 0.0
H3640 H 0.60108 0.29039 0.11459 0.0
H3641 H 0.60068 0.2829 0.07207 0.0
H3642 H 0.60876 0.2561 0.1241 0.0
H3643 H 0.59135 0.26033 0.12568 0.0
H3644 H 0.60395 0.27252 0.13021 0.0
H3645 H 0.60781 0.24832 0.07291 0.0
H3646 H 0.60078 0.26155 0.06276 0.0
H3647 H 0.59001 0.25074 0.07249 0.0
C3648 C 0.93932 0.78425 0.56452 0.0
C3649 C 0.95261 0.78895 0.5653 0.0
C3650 C 0.93651 0.77045 0.56305 0.0
C3651 C 0.94722 0.76106 0.56259 0.0
C3652 C 0.96061 0.76571 0.56406 0.0
C3653 C 0.96314 0.77956 0.56525 0.0
C3654 C 0.92211 0.76598 0.56134 0.0
C3655 C 0.97233 0.75607 0.56392 0.0
C3656 C 0.94076 0.72347 0.56726 0.0
C3657 C 0.9418 0.71869 0.55402 0.0
C3658 C 0.94225 0.73725 0.57021 0.0
C3659 C 0.94459 0.74653 0.55965 0.0
C3660 C 0.94508 0.74181 0.54623 0.0
C3661 C 0.94382 0.72798 0.5436 0.0
C3662 C 0.94185 0.7418 0.58467 0.0
C3663 C 0.94726 0.75134 0.53462 0.0
H3664 H 0.93111 0.79141 0.56445 0.0
H3665 H 0.97344 0.78308 0.56595 0.0
H3666 H 0.92067 0.76191 0.55105 0.0
H3667 H 0.9197 0.75779 0.5685 0.0
H3668 H 0.91487 0.77434 0.56289 0.0
H3669 H 0.98199 0.76111 0.56636 0.0
H3670 H 0.97064 0.74783 0.57124 0.0
H3671 H 0.97324 0.75141 0.55382 0.0
H3672 H 0.93929 0.71638 0.5754 0.0
H3673 H 0.94453 0.72441 0.53333 0.0
H3674 H 0.93444 0.75004 0.58594 0.0
H3675 H 0.95183 0.74585 0.58759 0.0
H3676 H 0.9392 0.7335 0.59165 0.0
H3677 H 0.93982 0.75964 0.53501 0.0
H3678 H 0.9464 0.74623 0.52473 0.0
H3679 H 0.9574 0.75592 0.53537 0.0
C3680 C 0.22519 0.94685 0.5764 0.0
C3681 C 0.21776 0.94853 0.56456 0.0
C3682 C 0.23927 0.94515 0.57597 0.0
C3683 C 0.24596 0.94466 0.56338 0.0
C3684 C 0.23832 0.94567 0.5514 0.0
C3685 C 0.22439 0.94784 0.55215 0.0
C3686 C 0.24704 0.94453 0.58898 0.0
C3687 C 0.24491 0.94479 0.53776 0.0
C3688 C 0.28227 0.95574 0.55877 0.0
C3689 C 0.28915 0.94346 0.55828 0.0
C3690 C 0.26837 0.95626 0.56115 0.0
C3691 C 0.26099 0.94416 0.5626 0.0
C3692 C 0.26793 0.9317 0.56228 0.0
C3693 C 0.28198 0.93151 0.56036 0.0
C3694 C 0.26151 0.96979 0.56182 0.0
C3695 C 0.26044 0.91856 0.56336 0.0
H3696 H 0.22008 0.94746 0.58601 0.0
H3697 H 0.21863 0.949 0.54297 0.0
H3698 H 0.25366 0.93556 0.58913 0.0
H3699 H 0.25362 0.9535 0.58981 0.0
H3700 H 0.24032 0.94419 0.59789 0.0
H3701 H 0.23742 0.94428 0.52949 0.0
H3702 H 0.25137 0.95372 0.53612 0.0
H3703 H 0.25146 0.93578 0.53721 0.0
H3704 H 0.28783 0.96501 0.55731 0.0
H3705 H 0.28728 0.922 0.55991 0.0
H3706 H 0.25514 0.97044 0.57095 0.0
H3707 H 0.25483 0.97107 0.55299 0.0
H3708 H 0.26883 0.97822 0.56197 0.0
H3709 H 0.25401 0.91847 0.57246 0.0
H3710 H 0.26734 0.90978 0.56375 0.0
H3711 H 0.2537 0.91739 0.55455 0.0
C3712 C 0.06812 0.22255 0.56567 0.0
C3713 C 0.05486 0.21771 0.56536 0.0
C3714 C 0.07088 0.2364 0.56462 0.0
C3715 C 0.06013 0.2457 0.56349 0.0
C3716 C 0.04672 0.2409 0.56385 0.0
C3717 C 0.04426 0.227 0.56463 0.0
C3718 C 0.08532 0.24103 0.56407 0.0
C3719 C 0.03494 0.25042 0.56299 0.0
C3720 C 0.06552 0.28332 0.56923 0.0
C3721 C 0.06526 0.28831 0.55603 0.0
C3722 C 0.06416 0.26946 0.57184 0.0
C3723 C 0.0628 0.26031 0.561 0.0
C3724 C 0.06317 0.26526 0.54764 0.0
C3725 C 0.06425 0.27916 0.54534 0.0
C3726 C 0.06362 0.26467 0.58622 0.0
C3727 C 0.06206 0.25589 0.53576 0.0
H3728 H 0.07637 0.21545 0.56613 0.0
H3729 H 0.03398 0.22338 0.5645 0.0
H3730 H 0.08749 0.24526 0.55398 0.0
H3731 H 0.08709 0.24915 0.57151 0.0
H3732 H 0.09251 0.23272 0.56606 0.0
H3733 H 0.02518 0.24524 0.56462 0.0
H3734 H 0.03598 0.25854 0.57056 0.0
H3735 H 0.03474 0.25525 0.55294 0.0
H3736 H 0.0662 0.29031 0.57756 0.0
H3737 H 0.06417 0.28289 0.5351 0.0
H3738 H 0.07097 0.25646 0.58786 0.0
H3739 H 0.05349 0.26052 0.58838 0.0
H3740 H 0.06572 0.27288 0.59349 0.0
H3741 H 0.06954 0.24766 0.53662 0.0
H3742 H 0.06364 0.26116 0.52605 0.0
H3743 H 0.05194 0.25118 0.53562 0.0
C3744 C 0.77957 0.04514 0.56335 0.0
C3745 C 0.78885 0.05565 0.56492 0.0
C3746 C 0.76572 0.0477 0.56215 0.0
C3747 C 0.76098 0.06113 0.5622 0.0
C3748 C 0.77026 0.07178 0.56409 0.0
C3749 C 0.78405 0.06891 0.56557 0.0
C3750 C 0.75619 0.03601 0.56046 0.0
C3751 C 0.76569 0.08625 0.56398 0.0
C3752 C 0.72797 0.06611 0.54344 0.0
C3753 C 0.71859 0.0667 0.55395 0.0
C3754 C 0.74182 0.06492 0.54602 0.0
C3755 C 0.74645 0.06397 0.55945 0.0
C3756 C 0.73706 0.06491 0.57014 0.0
C3757 C 0.72327 0.06641 0.56726 0.0
C3758 C 0.75146 0.06428 0.53432 0.0
C3759 C 0.74152 0.06373 0.58459 0.0
H3760 H 0.78317 0.03486 0.56294 0.0
H3761 H 0.79115 0.0771 0.56667 0.0
H3762 H 0.74788 0.03672 0.56786 0.0
H3763 H 0.75163 0.03631 0.55029 0.0
H3764 H 0.7613 0.02617 0.56176 0.0
H3765 H 0.77399 0.09332 0.56639 0.0
H3766 H 0.76165 0.0888 0.55391 0.0
H3767 H 0.75744 0.08777 0.57133 0.0
H3768 H 0.72446 0.06643 0.53313 0.0
H3769 H 0.71609 0.06675 0.57545 0.0
H3770 H 0.7561 0.05415 0.53383 0.0
H3771 H 0.75971 0.07165 0.53571 0.0
H3772 H 0.74642 0.06634 0.52457 0.0
H3773 H 0.74559 0.05351 0.5864 0.0
H3774 H 0.73314 0.06554 0.59175 0.0
H3775 H 0.74971 0.07098 0.58674 0.0
C3776 C 0.96215 0.2278 0.4395 0.0
C3777 C 0.95148 0.21857 0.4397 0.0
C3778 C 0.95986 0.24169 0.4406 0.0
C3779 C 0.94657 0.24656 0.44219 0.0
C3780 C 0.93569 0.23735 0.44188 0.0
C3781 C 0.93827 0.22348 0.44052 0.0
C3782 C 0.97175 0.25113 0.44059 0.0
C3783 C 0.92139 0.24206 0.44366 0.0
C3784 C 0.94402 0.27968 0.46124 0.0
C3785 C 0.94221 0.28903 0.45082 0.0
C3786 C 0.94493 0.26583 0.45859 0.0
C3787 C 0.94424 0.26113 0.44516 0.0
C3788 C 0.94209 0.27046 0.43462 0.0
C3789 C 0.941 0.28427 0.43758 0.0
C3790 C 0.94698 0.25624 0.47017 0.0
C3791 C 0.94143 0.26592 0.42016 0.0
H3792 H 0.97239 0.22412 0.43876 0.0
H3793 H 0.92996 0.21644 0.44079 0.0
H3794 H 0.97012 0.2594 0.43328 0.0
H3795 H 0.97285 0.25577 0.45067 0.0
H3796 H 0.98129 0.24592 0.43803 0.0
H3797 H 0.914 0.23385 0.44203 0.0
H3798 H 0.92005 0.24603 0.454 0.0
H3799 H 0.91911 0.25038 0.4366 0.0
H3800 H 0.94484 0.28321 0.47151 0.0
H3801 H 0.93965 0.29139 0.42944 0.0
H3802 H 0.957 0.25141 0.46932 0.0
H3803 H 0.93934 0.24813 0.46984 0.0
H3804 H 0.94634 0.26135 0.48007 0.0
H3805 H 0.9513 0.26168 0.41713 0.0
H3806 H 0.93887 0.27428 0.41321 0.0
H3807 H 0.93385 0.25784 0.41898 0.0
C3808 C 0.72321 0.94255 0.43765 0.0
C3809 C 0.71839 0.94301 0.4509 0.0
C3810 C 0.73705 0.94368 0.43485 0.0
C3811 C 0.74635 0.94501 0.44558 0.0
C3812 C 0.74156 0.94486 0.45899 0.0
C3813 C 0.72767 0.94402 0.46148 0.0
C3814 C 0.74167 0.94402 0.42041 0.0
C3815 C 0.7511 0.94594 0.47075 0.0
C3816 C 0.78389 0.93888 0.44015 0.0
C3817 C 0.78899 0.95203 0.44015 0.0
C3818 C 0.77001 0.93641 0.44163 0.0
C3819 C 0.76097 0.94736 0.44285 0.0
C3820 C 0.76603 0.96066 0.44224 0.0
C3821 C 0.77995 0.96283 0.44105 0.0
C3822 C 0.7651 0.92208 0.44246 0.0
C3823 C 0.75676 0.97264 0.44319 0.0
H3824 H 0.71611 0.94187 0.42941 0.0
H3825 H 0.72406 0.94426 0.47175 0.0
H3826 H 0.74607 0.95401 0.41814 0.0
H3827 H 0.74967 0.93644 0.41872 0.0
H3828 H 0.73332 0.94209 0.41325 0.0
H3829 H 0.74592 0.94455 0.48054 0.0
H3830 H 0.75918 0.93829 0.46987 0.0
H3831 H 0.75599 0.95596 0.47072 0.0
H3832 H 0.7908 0.93048 0.43955 0.0
H3833 H 0.78378 0.97303 0.44094 0.0
H3834 H 0.75691 0.92035 0.4351 0.0
H3835 H 0.76088 0.92017 0.4526 0.0
H3836 H 0.77326 0.9147 0.44054 0.0
H3837 H 0.74851 0.97173 0.43575 0.0
H3838 H 0.76212 0.98228 0.44143 0.0
H3839 H 0.7521 0.97299 0.45331 0.0
C3840 C 0.04543 0.77823 0.4383 0.0
C3841 C 0.05586 0.78772 0.4387 0.0
C3842 C 0.04808 0.76437 0.43902 0.0
C3843 C 0.0615 0.75981 0.44041 0.0
C3844 C 0.07214 0.7693 0.44021 0.0
C3845 C 0.0692 0.78313 0.43924 0.0
C3846 C 0.03643 0.75464 0.43891 0.0
C3847 C 0.08657 0.76492 0.44179 0.0
C3848 C 0.06449 0.72667 0.45929 0.0
C3849 C 0.06623 0.71735 0.44884 0.0
C3850 C 0.06357 0.74052 0.45671 0.0
C3851 C 0.06418 0.74527 0.4433 0.0
C3852 C 0.0664 0.73598 0.43272 0.0
C3853 C 0.0675 0.72215 0.43562 0.0
C3854 C 0.06148 0.75005 0.46834 0.0
C3855 C 0.06699 0.74058 0.41828 0.0
H3856 H 0.03509 0.78166 0.43777 0.0
H3857 H 0.07732 0.79038 0.43965 0.0
H3858 H 0.03826 0.74649 0.43153 0.0
H3859 H 0.03544 0.74989 0.44895 0.0
H3860 H 0.02677 0.75964 0.4364 0.0
H3861 H 0.09374 0.77329 0.44 0.0
H3862 H 0.08816 0.76106 0.45214 0.0
H3863 H 0.08893 0.7566 0.43476 0.0
H3864 H 0.06363 0.72309 0.46955 0.0
H3865 H 0.06878 0.71505 0.42746 0.0
H3866 H 0.05135 0.75466 0.46763 0.0
H3867 H 0.06894 0.75832 0.46794 0.0
H3868 H 0.06235 0.74492 0.47822 0.0
H3869 H 0.05698 0.74441 0.41519 0.0
H3870 H 0.06993 0.73233 0.41135 0.0
H3871 H 0.07424 0.74897 0.41716 0.0
C3872 C 0.22062 0.06951 0.44278 0.0
C3873 C 0.21548 0.05636 0.44309 0.0
C3874 C 0.23451 0.07199 0.44404 0.0
C3875 C 0.24356 0.06107 0.44535 0.0
C3876 C 0.23846 0.04776 0.44515 0.0
C3877 C 0.22452 0.04558 0.44418 0.0
C3878 C 0.23944 0.08633 0.44445 0.0
C3879 C 0.24774 0.03579 0.44622 0.0
C3880 C 0.28117 0.06595 0.43909 0.0
C3881 C 0.28632 0.06587 0.45222 0.0
C3882 C 0.26727 0.06461 0.43667 0.0
C3883 C 0.25825 0.06348 0.44765 0.0
C3884 C 0.26337 0.06401 0.46093 0.0
C3885 C 0.27731 0.06503 0.46304 0.0
C3886 C 0.26229 0.06387 0.42236 0.0
C3887 C 0.25414 0.06318 0.47295 0.0
H3888 H 0.21372 0.07791 0.44203 0.0
H3889 H 0.22068 0.03538 0.4443 0.0
H3890 H 0.24405 0.08842 0.45439 0.0
H3891 H 0.24735 0.08792 0.43676 0.0
H3892 H 0.23123 0.09369 0.44271 0.0
H3893 H 0.24233 0.02612 0.44489 0.0
H3894 H 0.25579 0.03647 0.43853 0.0
H3895 H 0.25268 0.03574 0.45621 0.0
H3896 H 0.28806 0.06647 0.43066 0.0
H3897 H 0.28119 0.06507 0.47323 0.0
H3898 H 0.25426 0.07141 0.42066 0.0
H3899 H 0.25783 0.05382 0.42048 0.0
H3900 H 0.27046 0.06559 0.41495 0.0
H3901 H 0.24602 0.07077 0.4721 0.0
H3902 H 0.25957 0.0648 0.48257 0.0
H3903 H 0.24929 0.05315 0.47327 0.0
C3904 C 0.54505 0.93701 0.72917 0.0
C3905 C 0.55551 0.93761 0.71973 0.0
C3906 C 0.54761 0.93799 0.74303 0.0
C3907 C 0.56096 0.93986 0.74763 0.0
C3908 C 0.57164 0.93988 0.7382 0.0
C3909 C 0.5688 0.93864 0.72437 0.0
C3910 C 0.53592 0.93761 0.75271 0.0
C3911 C 0.586 0.94198 0.74263 0.0
C3912 C 0.56336 0.959 0.78069 0.0
C3913 C 0.56548 0.94865 0.79004 0.0
C3914 C 0.56246 0.95632 0.76685 0.0
C3915 C 0.56349 0.9429 0.76216 0.0
C3916 C 0.56603 0.93244 0.77149 0.0
C3917 C 0.5671 0.93545 0.78529 0.0
C3918 C 0.56 0.96783 0.75727 0.0
C3919 C 0.56705 0.918 0.76696 0.0
H3920 H 0.53476 0.93611 0.72569 0.0
H3921 H 0.57695 0.93922 0.71716 0.0
H3922 H 0.53794 0.93036 0.76093 0.0
H3923 H 0.53461 0.94766 0.75737 0.0
H3924 H 0.52636 0.93477 0.74769 0.0
H3925 H 0.59325 0.94041 0.73429 0.0
H3926 H 0.58721 0.95238 0.74647 0.0
H3927 H 0.58856 0.93505 0.75097 0.0
H3928 H 0.56222 0.96925 0.78422 0.0
H3929 H 0.56868 0.92737 0.79242 0.0
H3930 H 0.54991 0.96676 0.75263 0.0
H3931 H 0.5675 0.96764 0.74902 0.0
H3932 H 0.56053 0.97775 0.76235 0.0
H3933 H 0.55717 0.91463 0.76303 0.0
H3934 H 0.57009 0.91118 0.77526 0.0
H3935 H 0.57442 0.91704 0.75865 0.0
C3936 C 0.06641 0.54397 0.72617 0.0
C3937 C 0.06728 0.55418 0.71648 0.0
C3938 C 0.06518 0.54699 0.73992 0.0
C3939 C 0.06461 0.56057 0.74415 0.0
C3940 C 0.06604 0.57094 0.73448 0.0
C3941 C 0.06745 0.56762 0.72079 0.0
C3942 C 0.06394 0.53559 0.74987 0.0
C3943 C 0.0654 0.58555 0.73853 0.0
C3944 C 0.04493 0.56549 0.77656 0.0
C3945 C 0.05519 0.56636 0.7862 0.0
C3946 C 0.04788 0.56431 0.7628 0.0
C3947 C 0.06145 0.56379 0.75851 0.0
C3948 C 0.07187 0.56526 0.76812 0.0
C3949 C 0.06861 0.56662 0.78184 0.0
C3950 C 0.03644 0.56304 0.7529 0.0
C3951 C 0.08646 0.56466 0.76401 0.0
H3952 H 0.06639 0.53355 0.72299 0.0
H3953 H 0.06804 0.5756 0.71339 0.0
H3954 H 0.0712 0.53695 0.75822 0.0
H3955 H 0.05371 0.53559 0.7543 0.0
H3956 H 0.06575 0.52564 0.74514 0.0
H3957 H 0.06799 0.59237 0.73008 0.0
H3958 H 0.05509 0.58799 0.74202 0.0
H3959 H 0.07234 0.58756 0.74702 0.0
H3960 H 0.03452 0.5654 0.7798 0.0
H3961 H 0.07662 0.56721 0.7892 0.0
H3962 H 0.03641 0.55279 0.74852 0.0
H3963 H 0.03777 0.57025 0.7445 0.0
H3964 H 0.02651 0.56488 0.75766 0.0
H3965 H 0.08893 0.55434 0.76058 0.0
H3966 H 0.09331 0.56734 0.77241 0.0
H3967 H 0.0884 0.57155 0.75546 0.0
C3968 C 0.46119 0.06278 0.72815 0.0
C3969 C 0.4507 0.06385 0.71878 0.0
C3970 C 0.45859 0.06202 0.74202 0.0
C3971 C 0.44514 0.06202 0.74671 0.0
C3972 C 0.4345 0.06344 0.73733 0.0
C3973 C 0.43741 0.06448 0.7235 0.0
C3974 C 0.47027 0.06084 0.75164 0.0
C3975 C 0.42002 0.06326 0.74184 0.0
C3976 C 0.44035 0.0441 0.78022 0.0
C3977 C 0.43955 0.05484 0.78932 0.0
C3978 C 0.44155 0.04632 0.76631 0.0
C3979 C 0.44229 0.05964 0.76132 0.0
C3980 C 0.44113 0.07055 0.77042 0.0
C3981 C 0.43962 0.06803 0.78429 0.0
C3982 C 0.44242 0.03437 0.75699 0.0
C3983 C 0.44208 0.0849 0.76559 0.0
H3984 H 0.47149 0.0624 0.72461 0.0
H3985 H 0.42923 0.06521 0.71634 0.0
H3986 H 0.46939 0.06846 0.75974 0.0
H3987 H 0.47014 0.0508 0.75649 0.0
H3988 H 0.48012 0.06217 0.74654 0.0
H3989 H 0.41295 0.06535 0.73345 0.0
H3990 H 0.41758 0.05325 0.74612 0.0
H3991 H 0.41836 0.07078 0.74989 0.0
H3992 H 0.44017 0.03388 0.78399 0.0
H3993 H 0.43911 0.07639 0.79125 0.0
H3994 H 0.45257 0.03393 0.7524 0.0
H3995 H 0.43505 0.03542 0.74869 0.0
H3996 H 0.4405 0.02473 0.76229 0.0
H3997 H 0.45229 0.08678 0.76151 0.0
H3998 H 0.4401 0.09225 0.77375 0.0
H3999 H 0.43484 0.08669 0.75731 0.0
C4000 C 0.9414 0.43765 0.72068 0.0
C4001 C 0.94284 0.4509 0.71604 0.0
C4002 C 0.94253 0.43455 0.73447 0.0
C4003 C 0.94493 0.44498 0.74388 0.0
C4004 C 0.94575 0.45844 0.73929 0.0
C4005 C 0.94483 0.46121 0.72546 0.0
C4006 C 0.94176 0.42006 0.73888 0.0
C4007 C 0.94802 0.46992 0.74895 0.0
C4008 C 0.93959 0.44034 0.78163 0.0
C4009 C 0.95288 0.43952 0.78631 0.0
C4010 C 0.93677 0.44164 0.7678 0.0
C4011 C 0.94748 0.44187 0.75839 0.0
C4012 C 0.96085 0.44022 0.76303 0.0
C4013 C 0.96339 0.4392 0.77689 0.0
C4014 C 0.92239 0.44352 0.76334 0.0
C4015 C 0.97256 0.4401 0.75338 0.0
H4016 H 0.93994 0.42959 0.71349 0.0
H4017 H 0.94584 0.47149 0.722 0.0
H4018 H 0.95169 0.41683 0.74279 0.0
H4019 H 0.93441 0.41892 0.74718 0.0
H4020 H 0.93883 0.41326 0.73053 0.0
H4021 H 0.94734 0.47987 0.74394 0.0
H4022 H 0.94053 0.46955 0.7572 0.0
H4023 H 0.95813 0.46899 0.75358 0.0
H4024 H 0.93141 0.4407 0.78882 0.0
H4025 H 0.97368 0.43847 0.7804 0.0
H4026 H 0.91996 0.43661 0.75495 0.0
H4027 H 0.92102 0.45393 0.75956 0.0
H4028 H 0.91514 0.44178 0.77165 0.0
H4029 H 0.97069 0.43288 0.7451 0.0
H4030 H 0.98215 0.43737 0.75841 0.0
H4031 H 0.97373 0.4502 0.7488 0.0
C4032 C 0.54897 0.06007 0.22446 0.0
C4033 C 0.5612 0.05817 0.21774 0.0
C4034 C 0.54854 0.06211 0.23843 0.0
C4035 C 0.56061 0.06175 0.24599 0.0
C4036 C 0.57304 0.06008 0.23919 0.0
C4037 C 0.57321 0.05853 0.22509 0.0
C4038 C 0.53509 0.06425 0.24513 0.0
C4039 C 0.5861 0.05924 0.24686 0.0
C4040 C 0.55914 0.07412 0.28241 0.0
C4041 C 0.55599 0.06223 0.28929 0.0
C4042 C 0.56091 0.07414 0.26833 0.0
C4043 C 0.55995 0.06192 0.26105 0.0
C4044 C 0.55739 0.04981 0.2681 0.0
C4045 C 0.55522 0.05016 0.28205 0.0
C4046 C 0.56326 0.08732 0.2612 0.0
C4047 C 0.55665 0.03648 0.26087 0.0
H4048 H 0.53969 0.05988 0.21875 0.0
H4049 H 0.58266 0.05696 0.2199 0.0
H4050 H 0.53255 0.05537 0.25137 0.0
H4051 H 0.53551 0.07309 0.25192 0.0
H4052 H 0.52688 0.06582 0.23772 0.0
H4053 H 0.59497 0.05896 0.24008 0.0
H4054 H 0.58714 0.06793 0.25377 0.0
H4055 H 0.58613 0.05002 0.25313 0.0
H4056 H 0.55968 0.08348 0.28796 0.0
H4057 H 0.55297 0.0409 0.28734 0.0
H4058 H 0.55458 0.08953 0.25455 0.0
H4059 H 0.5723 0.08667 0.25472 0.0
H4060 H 0.56455 0.09581 0.26833 0.0
H4061 H 0.54772 0.03631 0.25419 0.0
H4062 H 0.55593 0.02787 0.26794 0.0
H4063 H 0.56566 0.03508 0.25444 0.0
C4064 C 0.94028 0.56496 0.22273 0.0
C4065 C 0.9535 0.56559 0.21782 0.0
C4066 C 0.93767 0.56371 0.2366 0.0
C4067 C 0.94853 0.56331 0.24582 0.0
C4068 C 0.96185 0.5647 0.24096 0.0
C4069 C 0.96417 0.56568 0.22705 0.0
C4070 C 0.92334 0.5621 0.2413 0.0
C4071 C 0.97372 0.56463 0.25041 0.0
C4072 C 0.94271 0.56829 0.28347 0.0
C4073 C 0.94372 0.55508 0.28834 0.0
C4074 C 0.944 0.57113 0.26965 0.0
C4075 C 0.94613 0.5605 0.26042 0.0
C4076 C 0.94665 0.5471 0.26523 0.0
C4077 C 0.94557 0.54457 0.2791 0.0
C4078 C 0.94357 0.58556 0.265 0.0
C4079 C 0.94865 0.53542 0.25575 0.0
H4080 H 0.93197 0.56477 0.21568 0.0
H4081 H 0.97441 0.56626 0.22337 0.0
H4082 H 0.9219 0.55183 0.2454 0.0
H4083 H 0.92112 0.56929 0.24953 0.0
H4084 H 0.91598 0.5637 0.23306 0.0
H4085 H 0.9833 0.56705 0.2452 0.0
H4086 H 0.97216 0.57201 0.25863 0.0
H4087 H 0.97471 0.55457 0.25511 0.0
H4088 H 0.94135 0.57649 0.29051 0.0
H4089 H 0.94625 0.53432 0.28272 0.0
H4090 H 0.936 0.58679 0.25691 0.0
H4091 H 0.95347 0.5884 0.26071 0.0
H4092 H 0.94113 0.59262 0.2733 0.0
H4093 H 0.94105 0.53574 0.2476 0.0
H4094 H 0.94789 0.52556 0.26095 0.0
H4095 H 0.9587 0.53613 0.25097 0.0
C4096 C 0.44126 0.96077 0.2296 0.0
C4097 C 0.44044 0.95062 0.21984 0.0
C4098 C 0.44234 0.95767 0.24334 0.0
C4099 C 0.4428 0.94405 0.24749 0.0
C4100 C 0.44137 0.93375 0.23775 0.0
C4101 C 0.44012 0.93715 0.22406 0.0
C4102 C 0.44358 0.969 0.25336 0.0
C4103 C 0.44188 0.91912 0.24171 0.0
C4104 C 0.46229 0.93888 0.27997 0.0
C4105 C 0.45197 0.93806 0.28956 0.0
C4106 C 0.45941 0.94011 0.2662 0.0
C4107 C 0.44586 0.94075 0.26184 0.0
C4108 C 0.43539 0.93931 0.2714 0.0
C4109 C 0.43857 0.9379 0.28513 0.0
C4110 C 0.4709 0.94135 0.25637 0.0
C4111 C 0.42082 0.94001 0.26722 0.0
H4112 H 0.44139 0.97121 0.22648 0.0
H4113 H 0.43956 0.92922 0.21661 0.0
H4114 H 0.43627 0.96763 0.26167 0.0
H4115 H 0.45379 0.96892 0.25785 0.0
H4116 H 0.44185 0.97899 0.24869 0.0
H4117 H 0.43925 0.91236 0.23322 0.0
H4118 H 0.45216 0.91658 0.24521 0.0
H4119 H 0.43491 0.91712 0.25018 0.0
H4120 H 0.47268 0.93889 0.28326 0.0
H4121 H 0.43052 0.93735 0.29245 0.0
H4122 H 0.47102 0.95162 0.25203 0.0
H4123 H 0.46957 0.93419 0.24793 0.0
H4124 H 0.4808 0.93942 0.26116 0.0
H4125 H 0.41842 0.95037 0.26385 0.0
H4126 H 0.41391 0.93731 0.27556 0.0
H4127 H 0.41889 0.93319 0.25861 0.0
C4128 C 0.06513 0.43644 0.28544 0.0
C4129 C 0.06427 0.44981 0.2899 0.0
C4130 C 0.06375 0.4332 0.27172 0.0
C4131 C 0.06171 0.44358 0.26218 0.0
C4132 C 0.06146 0.45713 0.26657 0.0
C4133 C 0.06262 0.46005 0.28034 0.0
C4134 C 0.06392 0.41863 0.26751 0.0
C4135 C 0.05958 0.46855 0.25675 0.0
C4136 C 0.06674 0.43812 0.22452 0.0
C4137 C 0.05341 0.4377 0.21989 0.0
C4138 C 0.06965 0.43957 0.23831 0.0
C4139 C 0.05898 0.44037 0.24773 0.0
C4140 C 0.04554 0.43914 0.24315 0.0
C4141 C 0.04293 0.43796 0.22932 0.0
C4142 C 0.0841 0.44098 0.2427 0.0
C4143 C 0.03387 0.43965 0.25283 0.0
H4144 H 0.06632 0.42844 0.29274 0.0
H4145 H 0.06207 0.47042 0.28366 0.0
H4146 H 0.05385 0.41575 0.26365 0.0
H4147 H 0.0712 0.41706 0.25921 0.0
H4148 H 0.06657 0.41182 0.27595 0.0
H4149 H 0.06067 0.47854 0.26162 0.0
H4150 H 0.06702 0.46778 0.24848 0.0
H4151 H 0.04943 0.46793 0.25218 0.0
H4152 H 0.07491 0.43804 0.21731 0.0
H4153 H 0.0326 0.43754 0.22585 0.0
H4154 H 0.08631 0.43406 0.25115 0.0
H4155 H 0.08586 0.45136 0.24637 0.0
H4156 H 0.09126 0.43889 0.23439 0.0
H4157 H 0.03548 0.43248 0.26122 0.0
H4158 H 0.02416 0.43723 0.24787 0.0
H4159 H 0.03312 0.44985 0.25727 0.0
C4160 C 0.72834 0.55557 0.93076 0.0
C4161 C 0.72085 0.55439 0.94261 0.0
C4162 C 0.74234 0.55784 0.93124 0.0
C4163 C 0.74883 0.55936 0.94386 0.0
C4164 C 0.74108 0.55886 0.95579 0.0
C4165 C 0.72726 0.55614 0.95502 0.0
C4166 C 0.75026 0.55794 0.91831 0.0
C4167 C 0.74745 0.56081 0.96943 0.0
C4168 C 0.78532 0.54961 0.94964 0.0
C4169 C 0.79184 0.56209 0.94951 0.0
C4170 C 0.77148 0.54856 0.94709 0.0
C4171 C 0.76381 0.56034 0.94481 0.0
C4172 C 0.77038 0.57299 0.94451 0.0
C4173 C 0.78438 0.5737 0.94663 0.0
C4174 C 0.76501 0.53482 0.94713 0.0
C4175 C 0.76255 0.58582 0.94251 0.0
H4176 H 0.72337 0.55415 0.92117 0.0
H4177 H 0.72141 0.55535 0.96418 0.0
H4178 H 0.75665 0.56705 0.91773 0.0
H4179 H 0.75706 0.54911 0.91806 0.0
H4180 H 0.74365 0.5576 0.90932 0.0
H4181 H 0.73983 0.56161 0.97756 0.0
H4182 H 0.75414 0.55219 0.97172 0.0
H4183 H 0.75373 0.57002 0.96949 0.0
H4184 H 0.79111 0.5406 0.95167 0.0
H4185 H 0.7894 0.58336 0.94656 0.0
H4186 H 0.75884 0.53344 0.93794 0.0
H4187 H 0.75819 0.5339 0.9559 0.0
H4188 H 0.77256 0.5266 0.94764 0.0
H4189 H 0.75629 0.58517 0.93331 0.0
H4190 H 0.7692 0.59475 0.94171 0.0
H4191 H 0.75561 0.58732 0.95112 0.0
C4192 C 0.77992 0.442 0.04354 0.0
C4193 C 0.78904 0.44085 0.05423 0.0
C4194 C 0.76603 0.4433 0.04585 0.0
C4195 C 0.7611 0.44382 0.0592 0.0
C4196 C 0.77023 0.44239 0.07005 0.0
C4197 C 0.78406 0.44076 0.06743 0.0
C4198 C 0.75666 0.44444 0.03396 0.0
C4199 C 0.76547 0.44315 0.08443 0.0
C4200 C 0.72791 0.46259 0.06296 0.0
C4201 C 0.7186 0.45204 0.06402 0.0
C4202 C 0.74178 0.46004 0.06199 0.0
C4203 C 0.74651 0.44661 0.06172 0.0
C4204 C 0.73719 0.43592 0.06308 0.0
C4205 C 0.72337 0.43877 0.06438 0.0
C4206 C 0.75136 0.47177 0.06092 0.0
C4207 C 0.74173 0.42146 0.06257 0.0
H4208 H 0.78366 0.44197 0.03331 0.0
H4209 H 0.79105 0.44 0.07576 0.0
H4210 H 0.74835 0.43706 0.03489 0.0
H4211 H 0.75207 0.4546 0.03375 0.0
H4212 H 0.76191 0.44272 0.02426 0.0
H4213 H 0.77369 0.44113 0.09172 0.0
H4214 H 0.76133 0.45331 0.08646 0.0
H4215 H 0.75725 0.43583 0.08619 0.0
H4216 H 0.72432 0.47287 0.06279 0.0
H4217 H 0.71624 0.43056 0.06508 0.0
H4218 H 0.75613 0.47182 0.05084 0.0
H4219 H 0.75953 0.47077 0.06846 0.0
H4220 H 0.74624 0.48157 0.06247 0.0
H4221 H 0.74602 0.41925 0.05252 0.0
H4222 H 0.73337 0.41432 0.06452 0.0
H4223 H 0.74979 0.41966 0.07006 0.0
C4224 C 0.54307 0.72929 0.0682 0.0
C4225 C 0.55332 0.7196 0.0685 0.0
C4226 C 0.54603 0.74305 0.06701 0.0
C4227 C 0.55958 0.74728 0.06579 0.0
C4228 C 0.57001 0.7376 0.06661 0.0
C4229 C 0.56676 0.7239 0.06809 0.0
C4230 C 0.5346 0.75302 0.06649 0.0
C4231 C 0.58457 0.74162 0.06519 0.0
C4232 C 0.5641 0.77981 0.04616 0.0
C4233 C 0.56608 0.78928 0.05642 0.0
C4234 C 0.56255 0.76607 0.04906 0.0
C4235 C 0.56268 0.76165 0.0626 0.0
C4236 C 0.56501 0.77111 0.073 0.0
C4237 C 0.56681 0.78478 0.06978 0.0
C4238 C 0.56038 0.75633 0.03762 0.0
C4239 C 0.56505 0.76687 0.08756 0.0
H4240 H 0.53266 0.72607 0.06861 0.0
H4241 H 0.57474 0.71649 0.0682 0.0
H4242 H 0.53643 0.76137 0.07366 0.0
H4243 H 0.53397 0.75747 0.05629 0.0
H4244 H 0.52477 0.74831 0.06891 0.0
H4245 H 0.59151 0.73312 0.06725 0.0
H4246 H 0.58641 0.74527 0.05482 0.0
H4247 H 0.587 0.75 0.07213 0.0
H4248 H 0.56364 0.78317 0.0358 0.0
H4249 H 0.56823 0.79203 0.07779 0.0
H4250 H 0.55011 0.75204 0.03824 0.0
H4251 H 0.56759 0.74785 0.03838 0.0
H4252 H 0.56161 0.76118 0.02764 0.0
H4253 H 0.55488 0.76326 0.09041 0.0
H4254 H 0.5679 0.77524 0.09439 0.0
H4255 H 0.57212 0.7584 0.08913 0.0
C4256 C 0.28429 0.56772 0.06666 0.0
C4257 C 0.28891 0.55441 0.06575 0.0
C4258 C 0.2706 0.57085 0.06483 0.0
C4259 C 0.26124 0.56042 0.06231 0.0
C4260 C 0.26577 0.54691 0.06202 0.0
C4261 C 0.27953 0.5441 0.06359 0.0
C4262 C 0.26625 0.58539 0.06502 0.0
C4263 C 0.25612 0.53543 0.05967 0.0
C4264 C 0.22345 0.56593 0.0663 0.0
C4265 C 0.21921 0.5666 0.05286 0.0
C4266 C 0.23713 0.56428 0.06958 0.0
C4267 C 0.24685 0.56356 0.05919 0.0
C4268 C 0.24268 0.56497 0.04564 0.0
C4269 C 0.22893 0.56632 0.04264 0.0
C4270 C 0.24109 0.56264 0.08413 0.0
C4271 C 0.25269 0.56457 0.03425 0.0
H4272 H 0.29147 0.57576 0.06822 0.0
H4273 H 0.28299 0.53378 0.06297 0.0
H4274 H 0.26263 0.58832 0.05489 0.0
H4275 H 0.25776 0.58681 0.0721 0.0
H4276 H 0.27456 0.59224 0.06796 0.0
H4277 H 0.26104 0.52547 0.06082 0.0
H4278 H 0.24759 0.53605 0.06682 0.0
H4279 H 0.25189 0.53612 0.04938 0.0
H4280 H 0.21601 0.56603 0.07426 0.0
H4281 H 0.22575 0.56692 0.03224 0.0
H4282 H 0.24938 0.56962 0.08673 0.0
H4283 H 0.24486 0.55227 0.0858 0.0
H4284 H 0.23254 0.56447 0.09107 0.0
H4285 H 0.261 0.57176 0.03616 0.0
H4286 H 0.24801 0.56704 0.02442 0.0
H4287 H 0.25719 0.55439 0.03356 0.0
C4288 C 0.44465 0.22486 0.04459 0.0
C4289 C 0.44272 0.2157 0.05515 0.0
C4290 C 0.44603 0.23872 0.04705 0.0
C4291 C 0.44573 0.24361 0.06043 0.0
C4292 C 0.44355 0.23445 0.07112 0.0
C4293 C 0.44196 0.22065 0.06835 0.0
C4294 C 0.44807 0.24811 0.0353 0.0
C4295 C 0.44336 0.23918 0.08553 0.0
C4296 C 0.46431 0.27672 0.06542 0.0
C4297 C 0.45377 0.28611 0.06546 0.0
C4298 C 0.46178 0.26285 0.06443 0.0
C4299 C 0.44838 0.25818 0.06317 0.0
C4300 C 0.43766 0.26757 0.06368 0.0
C4301 C 0.44048 0.2814 0.06494 0.0
C4302 C 0.47351 0.25322 0.06424 0.0
C4303 C 0.42324 0.26308 0.06221 0.0
H4304 H 0.44514 0.22118 0.03435 0.0
H4305 H 0.44054 0.21368 0.0766 0.0
H4306 H 0.44059 0.25638 0.03566 0.0
H4307 H 0.45819 0.25275 0.03591 0.0
H4308 H 0.44714 0.24288 0.02548 0.0
H4309 H 0.44091 0.23094 0.09266 0.0
H4310 H 0.45334 0.24337 0.08823 0.0
H4311 H 0.43589 0.24735 0.08682 0.0
H4312 H 0.47461 0.28025 0.0659 0.0
H4313 H 0.43228 0.28857 0.06485 0.0
H4314 H 0.4743 0.24848 0.05418 0.0
H4315 H 0.47191 0.24504 0.07165 0.0
H4316 H 0.48319 0.2583 0.06654 0.0
H4317 H 0.42166 0.25894 0.05197 0.0
H4318 H 0.41603 0.27144 0.06382 0.0
H4319 H 0.42095 0.25492 0.06946 0.0
C4320 C 0.22436 0.45715 0.94837 0.0
C4321 C 0.21782 0.4449 0.95067 0.0
C4322 C 0.23827 0.45769 0.94601 0.0
C4323 C 0.24598 0.44572 0.94649 0.0
C4324 C 0.23937 0.43326 0.94864 0.0
C4325 C 0.22531 0.43297 0.95047 0.0
C4326 C 0.24477 0.47114 0.94333 0.0
C4327 C 0.24722 0.42032 0.94964 0.0
C4328 C 0.28195 0.44695 0.93292 0.0
C4329 C 0.2892 0.45043 0.9445 0.0
C4330 C 0.26788 0.44519 0.93339 0.0
C4331 C 0.261 0.4465 0.94582 0.0
C4332 C 0.26842 0.44943 0.95761 0.0
C4333 C 0.28235 0.45157 0.95677 0.0
C4334 C 0.26034 0.44245 0.92053 0.0
C4335 C 0.26161 0.45054 0.97113 0.0
H4336 H 0.21853 0.46637 0.94839 0.0
H4337 H 0.22026 0.4235 0.95233 0.0
H4338 H 0.25128 0.47396 0.95193 0.0
H4339 H 0.25127 0.47056 0.93428 0.0
H4340 H 0.23723 0.47924 0.94181 0.0
H4341 H 0.24055 0.4114 0.95054 0.0
H4342 H 0.25375 0.41903 0.94071 0.0
H4343 H 0.25388 0.4207 0.95858 0.0
H4344 H 0.2872 0.44611 0.92342 0.0
H4345 H 0.28794 0.45408 0.96578 0.0
H4346 H 0.25349 0.45099 0.91834 0.0
H4347 H 0.25401 0.43334 0.9216 0.0
H4348 H 0.26719 0.44106 0.91182 0.0
H4349 H 0.25486 0.45942 0.97124 0.0
H4350 H 0.26894 0.45158 0.97949 0.0
H4351 H 0.2553 0.44154 0.97302 0.0
C4352 C 0.54325 0.27822 0.93853 0.0
C4353 C 0.55374 0.28766 0.93848 0.0
C4354 C 0.54585 0.26436 0.9394 0.0
C4355 C 0.55929 0.25975 0.94051 0.0
C4356 C 0.56996 0.26918 0.93993 0.0
C4357 C 0.56706 0.283 0.9388 0.0
C4358 C 0.53416 0.25469 0.93969 0.0
C4359 C 0.58441 0.26474 0.94124 0.0
C4360 C 0.56269 0.22664 0.95939 0.0
C4361 C 0.56425 0.21732 0.94891 0.0
C4362 C 0.56169 0.24049 0.95681 0.0
C4363 C 0.56198 0.24522 0.94337 0.0
C4364 C 0.56397 0.23592 0.93276 0.0
C4365 C 0.5652 0.22211 0.93566 0.0
C4366 C 0.55988 0.25004 0.96847 0.0
C4367 C 0.56419 0.24049 0.9183 0.0
H4368 H 0.53293 0.28171 0.93818 0.0
H4369 H 0.57524 0.2902 0.93887 0.0
H4370 H 0.53575 0.24648 0.9323 0.0
H4371 H 0.53343 0.25 0.94977 0.0
H4372 H 0.52445 0.25972 0.93741 0.0
H4373 H 0.59157 0.27309 0.93931 0.0
H4374 H 0.58618 0.26086 0.95154 0.0
H4375 H 0.5866 0.25643 0.93414 0.0
H4376 H 0.56207 0.22306 0.96966 0.0
H4377 H 0.56633 0.21499 0.92749 0.0
H4378 H 0.54974 0.25465 0.968 0.0
H4379 H 0.56733 0.25831 0.96787 0.0
H4380 H 0.56099 0.24493 0.97833 0.0
H4381 H 0.55413 0.24439 0.91549 0.0
H4382 H 0.56688 0.23221 0.9113 0.0
H4383 H 0.57147 0.24882 0.91696 0.0
C4384 C 0.4436 0.77999 0.96173 0.0
C4385 C 0.44201 0.78923 0.95119 0.0
C4386 C 0.4447 0.76613 0.95923 0.0
C4387 C 0.44447 0.76131 0.94583 0.0
C4388 C 0.44248 0.77054 0.93515 0.0
C4389 C 0.44115 0.78436 0.93797 0.0
C4390 C 0.44652 0.75666 0.97096 0.0
C4391 C 0.44234 0.76588 0.92072 0.0
C4392 C 0.46329 0.7283 0.94127 0.0
C4393 C 0.45282 0.71885 0.94124 0.0
C4394 C 0.46066 0.74217 0.94203 0.0
C4395 C 0.44721 0.74676 0.94307 0.0
C4396 C 0.43656 0.73731 0.94251 0.0
C4397 C 0.43948 0.72348 0.94148 0.0
C4398 C 0.47233 0.75187 0.9423 0.0
C4399 C 0.4221 0.74173 0.94373 0.0
H4400 H 0.44416 0.78363 0.97199 0.0
H4401 H 0.44001 0.79142 0.92975 0.0
H4402 H 0.43908 0.74837 0.9704 0.0
H4403 H 0.45667 0.75207 0.97054 0.0
H4404 H 0.44537 0.76183 0.98079 0.0
H4405 H 0.43969 0.77411 0.91366 0.0
H4406 H 0.45242 0.76195 0.91798 0.0
H4407 H 0.43507 0.75753 0.9194 0.0
H4408 H 0.47362 0.72484 0.94098 0.0
H4409 H 0.43132 0.71627 0.94157 0.0
H4410 H 0.47302 0.75661 0.95236 0.0
H4411 H 0.47074 0.76003 0.93487 0.0
H4412 H 0.48205 0.74684 0.94008 0.0
H4413 H 0.42029 0.7457 0.954 0.0
H4414 H 0.41496 0.73335 0.94186 0.0
H4415 H 0.41991 0.74997 0.93656 0.0
C4416 C 0.03631 0.20263 0.422 0.0
C4417 C 0.04667 0.19389 0.41796 0.0
C4418 C 0.02272 0.19906 0.42065 0.0
C4419 C 0.01926 0.18649 0.41494 0.0
C4420 C 0.02959 0.17806 0.40991 0.0
C4421 C 0.04317 0.1818 0.41157 0.0
C4422 C 0.0121 0.20834 0.42628 0.0
C4423 C 0.02634 0.16471 0.40348 0.0
C4424 C 0.988 0.17123 0.43044 0.0
C4425 C 0.97784 0.17499 0.42138 0.0
C4426 C 1.00151 0.17442 0.42812 0.0
C4427 C 0.00515 0.18142 0.4163 0.0
C4428 C 0.99508 0.18455 0.40666 0.0
C4429 C 0.98149 0.18136 0.40935 0.0
C4430 C 0.01178 0.17092 0.43876 0.0
C4431 C 0.99858 0.19177 0.39381 0.0
H4432 H 0.03879 0.21206 0.42685 0.0
H4433 H 0.05102 0.17501 0.40827 0.0
H4434 H 0.00395 0.20994 0.41885 0.0
H4435 H 0.00751 0.20369 0.43532 0.0
H4436 H 0.01628 0.21828 0.42918 0.0
H4437 H 0.0351 0.1605 0.39799 0.0
H4438 H 0.02331 0.15743 0.41136 0.0
H4439 H 0.01778 0.16574 0.39641 0.0
H4440 H 0.98533 0.16615 0.4397 0.0
H4441 H 0.97373 0.18428 0.40229 0.0
H4442 H 0.01606 0.18028 0.44306 0.0
H4443 H 0.0202 0.16516 0.43427 0.0
H4444 H 0.00741 0.1649 0.44708 0.0
H4445 H 1.00089 0.20244 0.39605 0.0
H4446 H 0.9902 0.19144 0.38644 0.0
H4447 H 0.00767 0.18729 0.38915 0.0
C4448 C 0.80347 0.03811 0.41908 0.0
C4449 C 0.81287 0.04832 0.41633 0.0
C4450 C 0.80667 0.02447 0.41736 0.0
C4451 C 0.81954 0.0208 0.4125 0.0
C4452 C 0.82863 0.03105 0.40852 0.0
C4453 C 0.82524 0.04467 0.41058 0.0
C4454 C 0.79667 0.01397 0.42187 0.0
C4455 C 0.8423 0.02761 0.40295 0.0
C4456 C 0.83331 0.98888 0.42819 0.0
C4457 C 0.83023 0.97902 0.41856 0.0
C4458 C 0.83026 1.00247 0.42609 0.0
C4459 C 0.82416 0.00653 0.4139 0.0
C4460 C 0.8216 0.99676 0.40381 0.0
C4461 C 0.82456 0.98307 0.4063 0.0
C4462 C 0.83307 0.0124 0.43725 0.0
C4463 C 0.81539 1.00069 0.39056 0.0
H4464 H 0.7938 0.0407 0.42338 0.0
H4465 H 0.83256 0.0524 0.40827 0.0
H4466 H 0.79555 0.00603 0.41414 0.0
H4467 H 0.8004 0.00907 0.43118 0.0
H4468 H 0.78662 0.01835 0.42399 0.0
H4469 H 0.84706 0.03638 0.39794 0.0
H4470 H 0.84896 0.02429 0.41125 0.0
H4471 H 0.84159 0.01921 0.39564 0.0
H4472 H 0.83783 0.98595 0.43765 0.0
H4473 H 0.82222 0.97556 0.39877 0.0
H4474 H 0.82349 0.01691 0.44078 0.0
H4475 H 0.83948 0.0207 0.43349 0.0
H4476 H 0.83817 0.00767 0.44598 0.0
H4477 H 0.80463 1.00317 0.39208 0.0
H4478 H 0.81608 0.99248 0.38303 0.0
H4479 H 0.82037 0.00979 0.38646 0.0
C4480 C 0.96822 0.80646 0.42228 0.0
C4481 C 0.95818 0.81586 0.41894 0.0
C4482 C 0.98195 0.80954 0.421 0.0
C4483 C 0.98591 0.82231 0.41614 0.0
C4484 C 0.97588 0.83147 0.41178 0.0
C4485 C 0.96215 0.82817 0.41327 0.0
C4486 C 0.9922 0.79944 0.42584 0.0
C4487 C 0.97963 0.84511 0.40633 0.0
C4488 C 0.01789 0.83532 0.43239 0.0
C4489 C 0.02782 0.8321 0.42288 0.0
C4490 C 0.00426 0.83266 0.43004 0.0
C4491 C 1.00024 0.82672 0.41776 0.0
C4492 C 0.01011 0.82404 0.40778 0.0
C4493 C 0.02382 0.82672 0.41048 0.0
C4494 C 0.99421 0.83567 0.44104 0.0
C4495 C 0.00625 0.81789 0.39448 0.0
H4496 H 0.96537 0.79684 0.42651 0.0
H4497 H 0.95457 0.8355 0.41056 0.0
H4498 H 1.0003 0.79815 0.41829 0.0
H4499 H 0.99695 0.80317 0.43522 0.0
H4500 H 0.98764 0.78946 0.42792 0.0
H4501 H 0.97102 0.85007 0.40123 0.0
H4502 H 0.98299 0.85166 0.41471 0.0
H4503 H 0.98811 0.84428 0.39914 0.0
H4504 H 0.02081 0.83962 0.44196 0.0
H4505 H 0.0314 0.82422 0.40307 0.0
H4506 H 0.98966 0.82615 0.44466 0.0
H4507 H 0.98595 0.84203 0.4371 0.0
H4508 H 0.99887 0.84089 0.44974 0.0
H4509 H 0.00337 0.80723 0.39601 0.0
H4510 H 0.01463 0.81827 0.38712 0.0
H4511 H 0.9974 0.82315 0.39017 0.0
C4512 C 0.17964 0.96436 0.41245 0.0
C4513 C 0.19182 0.96076 0.41862 0.0
C4514 C 0.1763 0.97797 0.41019 0.0
C4515 C 0.18522 0.98827 0.41444 0.0
C4516 C 0.1979 0.98465 0.41978 0.0
C4517 C 0.20108 0.97102 0.42166 0.0
C4518 C 0.16285 0.98135 0.40406 0.0
C4519 C 0.2077 0.99519 0.42464 0.0
C4520 C 0.18062 0.02608 0.40813 0.0
C4521 C 0.17448 0.03012 0.42018 0.0
C4522 C 0.18355 0.01237 0.40569 0.0
C4523 C 0.18053 1.00256 0.41563 0.0
C4524 C 0.17394 0.00662 0.42756 0.0
C4525 C 0.17089 0.02021 0.42958 0.0
C4526 C 0.19025 0.00845 0.39268 0.0
C4527 C 0.17065 0.99668 0.43857 0.0
H4528 H 0.17243 0.95659 0.4099 0.0
H4529 H 0.21061 0.96849 0.42629 0.0
H4530 H 0.15584 0.98466 0.41207 0.0
H4531 H 0.16384 0.98973 0.39677 0.0
H4532 H 0.15834 0.97255 0.39887 0.0
H4533 H 0.21765 0.99083 0.42724 0.0
H4534 H 0.20918 1.00305 0.41688 0.0
H4535 H 0.20357 1.00019 0.43372 0.0
H4536 H 0.18337 0.03362 0.40077 0.0
H4537 H 0.16597 0.02311 0.43885 0.0
H4538 H 0.18558 0.99923 0.38848 0.0
H4539 H 0.201 0.00619 0.39456 0.0
H4540 H 0.18965 0.0166 0.38508 0.0
H4541 H 0.16435 0.98841 0.43455 0.0
H4542 H 0.16522 1.00141 0.44711 0.0
H4543 H 0.18006 0.99212 0.44247 0.0
C4544 C 0.98879 0.83797 0.57729 0.0
C4545 C 0.97867 0.83262 0.58556 0.0
C4546 C 1.0024 0.83505 0.57941 0.0
C4547 C 0.00621 0.82664 0.59022 0.0
C4548 C 0.99615 0.82188 0.59919 0.0
C4549 C 0.98245 0.82488 0.59672 0.0
C4550 C 0.01264 0.84034 0.56951 0.0
C4551 C 0.99977 0.8131 0.61099 0.0
C4552 C 0.03811 0.80729 0.58208 0.0
C4553 C 0.04821 0.81563 0.58745 0.0
C4554 C 0.0244 0.81029 0.58369 0.0
C4555 C 0.0205 0.82185 0.59103 0.0
C4556 C 0.03056 0.82978 0.59731 0.0
C4557 C 0.04427 0.82664 0.59537 0.0
C4558 C 0.01411 0.80158 0.5767 0.0
C4559 C 0.02686 0.84201 0.60547 0.0
H4560 H 0.98601 0.84409 0.56872 0.0
H4561 H 0.97473 0.8207 0.60316 0.0
H4562 H 0.02085 0.84564 0.57487 0.0
H4563 H 0.01723 0.83182 0.56395 0.0
H4564 H 0.00814 0.84737 0.56209 0.0
H4565 H 0.99135 0.81225 0.61827 0.0
H4566 H 1.00233 0.80288 0.60736 0.0
H4567 H 0.00874 0.81712 0.61627 0.0
H4568 H 0.0409 0.79868 0.57603 0.0
H4569 H 0.0519 0.83311 0.5997 0.0
H4570 H 0.00942 0.80732 0.56837 0.0
H4571 H 0.00598 0.7987 0.58376 0.0
H4572 H 0.01862 0.79228 0.57247 0.0
H4573 H 0.02367 0.85021 0.59863 0.0
H4574 H 0.03545 0.84568 0.61159 0.0
H4575 H 0.01829 0.83976 0.61224 0.0
C4576 C 0.20321 0.03896 0.58809 0.0
C4577 C 0.19327 0.04881 0.59013 0.0
C4578 C 0.20035 0.02519 0.5895 0.0
C4579 C 0.18724 0.02105 0.5932 0.0
C4580 C 0.17748 0.03095 0.59638 0.0
C4581 C 0.18058 0.04469 0.59476 0.0
C4582 C 0.21109 0.01507 0.58593 0.0
C4583 C 0.16345 0.02701 0.6006 0.0
C4584 C 0.17557 0.98848 0.57704 0.0
C4585 C 0.17764 0.97895 0.58724 0.0
C4586 C 0.17841 1.00214 0.579 0.0
C4587 C 0.18329 0.0066 0.5916 0.0
C4588 C 0.18501 0.99713 0.60214 0.0
C4589 C 0.18225 0.98338 0.59981 0.0
C4590 C 0.17652 0.01176 0.56739 0.0
C4591 C 0.18998 1.0015 0.61577 0.0
H4592 H 0.21311 0.04193 0.58467 0.0
H4593 H 0.17282 0.05214 0.59647 0.0
H4594 H 0.2117 0.00709 0.59368 0.0
H4595 H 0.20846 0.01015 0.57627 0.0
H4596 H 0.22115 0.0198 0.58486 0.0
H4597 H 0.15784 0.03563 0.60495 0.0
H4598 H 0.15783 0.02328 0.59172 0.0
H4599 H 0.16377 0.01875 0.60808 0.0
H4600 H 0.17192 0.98524 0.5673 0.0
H4601 H 0.18381 0.97612 0.60778 0.0
H4602 H 0.1863 0.01643 0.56473 0.0
H4603 H 0.16958 0.01998 0.57031 0.0
H4604 H 0.17242 0.00672 0.55831 0.0
H4605 H 0.20051 0.00508 0.61496 0.0
H4606 H 0.18961 0.99321 0.62324 0.0
H4607 H 0.18387 0.01003 0.61955 0.0
C4608 C 0.0171 0.17139 0.57519 0.0
C4609 C 0.02688 0.17529 0.58459 0.0
C4610 C 0.00343 0.1742 0.57713 0.0
C4611 C 0.99923 0.18104 0.58887 0.0
C4612 C 0.00895 0.18449 0.59875 0.0
C4613 C 0.0227 0.18161 0.59648 0.0
C4614 C 0.99354 0.17034 0.56625 0.0
C4615 C 0.00489 0.19162 0.61149 0.0
C4616 C 0.96705 0.20064 0.58271 0.0
C4617 C 0.95708 0.19147 0.58677 0.0
C4618 C 0.9808 0.19776 0.5842 0.0
C4619 C 0.98484 0.18541 0.59001 0.0
C4620 C 0.97488 0.17652 0.59501 0.0
C4621 C 0.96114 0.17962 0.59329 0.0
C4622 C 0.991 0.20755 0.57866 0.0
C4623 C 0.97872 0.16334 0.60145 0.0
H4624 H 0.02016 0.16636 0.56602 0.0
H4625 H 0.03016 0.18465 0.60381 0.0
H4626 H 0.98527 0.16422 0.57055 0.0
H4627 H 0.98897 0.17953 0.56189 0.0
H4628 H 0.99833 0.16453 0.55801 0.0
H4629 H 0.01322 0.19202 0.61891 0.0
H4630 H 1.00179 0.20206 0.60909 0.0
H4631 H 0.99612 0.18655 0.61616 0.0
H4632 H 0.96414 0.20991 0.57779 0.0
H4633 H 0.9536 0.17247 0.59657 0.0
H4634 H 0.99583 0.20315 0.56962 0.0
H4635 H 0.99904 0.20947 0.58613 0.0
H4636 H 0.98637 0.21729 0.57579 0.0
H4637 H 0.98226 0.15626 0.59359 0.0
H4638 H 0.97011 0.15864 0.60679 0.0
H4639 H 0.98709 0.16479 0.60867 0.0
C4640 C 0.83319 0.01762 0.57582 0.0
C4641 C 0.83029 0.02723 0.58575 0.0
C4642 C 0.83033 0.00397 0.57769 0.0
C4643 C 0.82459 0.99959 0.58995 0.0
C4644 C 0.82219 0.00911 0.60031 0.0
C4645 C 0.82498 0.02287 0.59806 0.0
C4646 C 0.83295 0.9943 0.56627 0.0
C4647 C 0.81632 0.00483 0.6136 0.0
C4648 C 0.80392 0.96799 0.58484 0.0
C4649 C 0.81335 0.95777 0.58741 0.0
C4650 C 0.80715 0.98162 0.58655 0.0
C4651 C 0.82011 0.98527 0.59116 0.0
C4652 C 0.82931 0.97502 0.59485 0.0
C4653 C 0.82587 0.9614 0.59286 0.0
C4654 C 0.79702 0.99213 0.58235 0.0
C4655 C 0.84313 0.97845 0.60008 0.0
H4656 H 0.83744 0.02081 0.56631 0.0
H4657 H 0.82277 0.03019 0.60581 0.0
H4658 H 0.83944 0.98592 0.56971 0.0
H4659 H 0.82331 0.98986 0.56281 0.0
H4660 H 0.83788 0.99924 0.55755 0.0
H4661 H 0.81677 0.01299 0.62121 0.0
H4662 H 0.80565 1.00189 0.61221 0.0
H4663 H 0.82173 0.99591 0.61755 0.0
H4664 H 0.79414 0.96541 0.5808 0.0
H4665 H 0.83322 0.95366 0.595 0.0
H4666 H 0.80056 0.99717 0.57305 0.0
H4667 H 0.79601 0.99997 0.59021 0.0
H4668 H 0.78695 0.98774 0.58036 0.0
H4669 H 0.84951 0.982 0.59165 0.0
H4670 H 0.84811 0.96962 0.60476 0.0
H4671 H 0.84256 0.98669 0.60757 0.0
C4672 C 0.41157 0.04417 0.18195 0.0
C4673 C 0.41718 0.04824 0.19427 0.0
C4674 C 0.41039 0.03045 0.17859 0.0
C4675 C 0.41507 0.0205 0.18765 0.0
C4676 C 0.41994 0.02451 0.20042 0.0
C4677 C 0.42086 0.03826 0.20359 0.0
C4678 C 0.40492 0.02665 0.16497 0.0
C4679 C 0.42515 0.01433 0.21039 0.0
C4680 C 0.41006 0.98259 0.1825 0.0
C4681 C 0.42242 0.97896 0.17676 0.0
C4682 C 0.4072 0.99616 0.18565 0.0
C4683 C 0.41698 0.00626 0.1831 0.0
C4684 C 0.42923 1.00263 0.17686 0.0
C4685 C 0.43173 0.98913 0.17372 0.0
C4686 C 0.39393 0.99964 0.19208 0.0
C4687 C 0.44002 0.01293 0.17398 0.0
H4688 H 0.40857 0.05172 0.17469 0.0
H4689 H 0.42512 0.04117 0.21318 0.0
H4690 H 0.41331 0.02348 0.15835 0.0
H4691 H 0.39789 0.01804 0.16582 0.0
H4692 H 0.39961 0.03517 0.16008 0.0
H4693 H 0.42717 0.01886 0.22039 0.0
H4694 H 0.41785 0.006 0.21165 0.0
H4695 H 0.43464 0.0099 0.20655 0.0
H4696 H 0.4028 0.97482 0.18487 0.0
H4697 H 0.44126 0.9865 0.16915 0.0
H4698 H 0.38929 0.00838 0.18694 0.0
H4699 H 0.39559 1.00254 0.20272 0.0
H4700 H 0.38677 0.99107 0.19182 0.0
H4701 H 0.4359 0.02116 0.1677 0.0
H4702 H 0.44883 0.00853 0.16871 0.0
H4703 H 0.44355 0.01747 0.18354 0.0
C4704 C 0.01627 0.42925 0.17121 0.0
C4705 C 0.02605 0.42005 0.17558 0.0
C4706 C 1.00256 0.42727 0.17381 0.0
C4707 C 0.99833 0.4157 0.18091 0.0
C4708 C 0.00805 0.40595 0.18472 0.0
C4709 C 0.02183 0.40825 0.18205 0.0
C4710 C 0.99269 0.43801 0.16956 0.0
C4711 C 0.00396 0.39337 0.19211 0.0
C4712 C 0.96624 0.42258 0.20039 0.0
C4713 C 0.95622 0.41841 0.19131 0.0
C4714 C 0.97998 0.42088 0.19753 0.0
C4715 C 0.98395 0.41473 0.18533 0.0
C4716 C 0.97393 0.40959 0.17658 0.0
C4717 C 0.9602 0.41154 0.17963 0.0
C4718 C 0.99023 0.4266 0.20716 0.0
C4719 C 0.97769 0.40274 0.16359 0.0
H4720 H 0.01937 0.43833 0.16606 0.0
H4721 H 0.0293 0.40109 0.18545 0.0
H4722 H 0.98443 0.43352 0.16357 0.0
H4723 H 0.9881 0.44268 0.17859 0.0
H4724 H 0.9975 0.44605 0.16349 0.0
H4725 H 0.01222 0.38586 0.19244 0.0
H4726 H 1.00114 0.39597 0.20258 0.0
H4727 H 0.99503 0.38872 0.1873 0.0
H4728 H 0.9634 0.42776 0.20953 0.0
H4729 H 0.95262 0.40816 0.17257 0.0
H4730 H 0.99517 0.43546 0.2025 0.0
H4731 H 0.99819 0.4191 0.20931 0.0
H4732 H 0.98563 0.42981 0.21681 0.0
H4733 H 0.98121 0.41037 0.15626 0.0
H4734 H 0.96905 0.39727 0.1591 0.0
H4735 H 0.98606 0.39555 0.16521 0.0
C4736 C 0.59205 0.96203 0.17953 0.0
C4737 C 0.58658 0.95758 0.19177 0.0
C4738 C 0.5932 0.97586 0.17659 0.0
C4739 C 0.58874 0.98553 0.18608 0.0
C4740 C 0.58401 0.9811 0.19875 0.0
C4741 C 0.58302 0.96726 0.20144 0.0
C4742 C 0.59843 0.98009 0.16301 0.0
C4743 C 0.57912 0.99098 0.20919 0.0
C4744 C 0.59492 0.02342 0.18211 0.0
C4745 C 0.58262 0.02768 0.17665 0.0
C4746 C 0.5973 0.00967 0.18487 0.0
C4747 C 0.58715 1.0 0.18216 0.0
C4748 C 0.57489 0.00428 0.17634 0.0
C4749 C 0.57282 0.01796 0.17364 0.0
C4750 C 0.61055 0.00553 0.19096 0.0
C4751 C 0.56372 0.99444 0.1733 0.0
H4752 H 0.59491 0.95471 0.17198 0.0
H4753 H 0.57891 0.96405 0.211 0.0
H4754 H 0.58996 0.9838 0.15677 0.0
H4755 H 0.60572 0.98846 0.16406 0.0
H4756 H 0.60337 0.97166 0.15761 0.0
H4757 H 0.57717 0.98609 0.21904 0.0
H4758 H 0.58658 0.99913 0.21067 0.0
H4759 H 0.56965 0.99571 0.20568 0.0
H4760 H 0.60255 0.03082 0.18445 0.0
H4761 H 0.56332 0.02107 0.16933 0.0
H4762 H 0.61503 0.99714 0.18512 0.0
H4763 H 0.6089 1.00182 0.20134 0.0
H4764 H 0.61785 0.01397 0.19132 0.0
H4765 H 0.56746 0.9863 0.16667 0.0
H4766 H 0.55498 0.99931 0.16835 0.0
H4767 H 0.56021 0.98969 0.18276 0.0
C4768 C 0.04584 0.59193 0.17784 0.0
C4769 C 0.04979 0.58483 0.1894 0.0
C4770 C 0.03213 0.5939 0.17475 0.0
C4771 C 0.02208 0.58852 0.18332 0.0
C4772 C 0.02601 0.58209 0.19539 0.0
C4773 C 0.03974 0.5804 0.1983 0.0
C4774 C 0.02841 0.60106 0.16192 0.0
C4775 C 0.01573 0.5761 0.20482 0.0
C4776 C 0.98417 0.5949 0.18013 0.0
C4777 C 0.98003 0.58323 0.17337 0.0
C4778 C 0.99794 0.59722 0.18285 0.0
C4779 C 0.00772 0.58762 0.17881 0.0
C4780 C 0.00356 0.5762 0.17141 0.0
C4781 C 0.98987 0.57422 0.16876 0.0
C4782 C 1.00196 0.60963 0.19056 0.0
C4783 C 0.0135 0.56563 0.1669 0.0
H4784 H 0.05345 0.59552 0.17091 0.0
H4785 H 0.04254 0.57503 0.20734 0.0
H4786 H 0.02494 0.59361 0.15439 0.0
H4787 H 0.02001 0.60818 0.16369 0.0
H4788 H 0.03706 0.60666 0.15762 0.0
H4789 H 0.02029 0.57263 0.21441 0.0
H4790 H 0.00776 0.58353 0.20715 0.0
H4791 H 0.01082 0.56737 0.1999 0.0
H4792 H 0.97666 0.60191 0.18373 0.0
H4793 H 0.98681 0.56524 0.16339 0.0
H4794 H 0.01093 0.61439 0.18595 0.0
H4795 H 0.00467 0.6068 0.201 0.0
H4796 H 0.99369 0.61712 0.19099 0.0
H4797 H 0.02176 0.57031 0.16107 0.0
H4798 H 0.00874 0.55773 0.1606 0.0
H4799 H 0.01807 0.56074 0.17583 0.0
C4800 C 0.41826 0.96769 0.80367 0.0
C4801 C 0.41576 0.95762 0.81327 0.0
C4802 C 0.41666 0.98138 0.80675 0.0
C4803 C 0.41225 0.98524 0.81972 0.0
C4804 C 0.40854 0.97513 0.82906 0.0
C4805 C 0.41041 0.96145 0.82577 0.0
C4806 C 0.42084 0.99174 0.79646 0.0
C4807 C 0.40352 0.97875 0.84289 0.0
C4808 C 0.42836 0.01724 0.83286 0.0
C4809 C 0.41854 0.02706 0.83028 0.0
C4810 C 0.42624 0.00367 0.82977 0.0
C4811 C 0.41384 0.99956 0.82413 0.0
C4812 C 0.40361 0.00929 0.82199 0.0
C4813 C 0.40611 0.02297 0.82499 0.0
C4814 C 0.43754 0.99378 0.83213 0.0
C4815 C 0.39017 0.00531 0.81624 0.0
H4816 H 0.42224 0.96495 0.79391 0.0
H4817 H 0.40832 0.95383 0.83327 0.0
H4818 H 0.41316 0.99976 0.79561 0.0
H4819 H 0.43037 0.99655 0.79972 0.0
H4820 H 0.42245 0.98724 0.78637 0.0
H4821 H 0.3987 0.97005 0.84797 0.0
H4822 H 0.41208 0.98216 0.84917 0.0
H4823 H 0.39619 0.98714 0.84236 0.0
H4824 H 0.43796 0.0202 0.83708 0.0
H4825 H 0.39844 0.03045 0.82302 0.0
H4826 H 0.44067 0.98924 0.82244 0.0
H4827 H 0.43408 0.98549 0.83873 0.0
H4828 H 0.44647 0.99855 0.83684 0.0
H4829 H 0.39139 1.00238 0.80556 0.0
H4830 H 0.38273 0.01362 0.8168 0.0
H4831 H 0.3861 0.99645 0.82166 0.0
C4832 C 0.0462 0.41335 0.82803 0.0
C4833 C 0.05048 0.41975 0.81618 0.0
C4834 C 0.03239 0.41169 0.8309 0.0
C4835 C 0.0226 0.41662 0.82178 0.0
C4836 C 0.02688 0.42228 0.80944 0.0
C4837 C 0.04069 0.42371 0.80678 0.0
C4838 C 0.02831 0.40539 0.84407 0.0
C4839 C 0.01687 0.42774 0.79941 0.0
C4840 C 0.98461 0.41062 0.82488 0.0
C4841 C 0.98044 0.42268 0.83088 0.0
C4842 C 0.99839 0.40812 0.82238 0.0
C4843 C 0.00816 0.41794 0.82591 0.0
C4844 C 0.00396 0.42981 0.83251 0.0
C4845 C 0.99025 0.43198 0.83494 0.0
C4846 C 1.00245 0.39524 0.81551 0.0
C4847 C 0.01389 0.44062 0.83646 0.0
H4848 H 0.0536 0.41013 0.83535 0.0
H4849 H 0.04377 0.42852 0.79752 0.0
H4850 H 0.02474 0.41334 0.85102 0.0
H4851 H 0.01989 0.39823 0.84256 0.0
H4852 H 0.03681 0.40002 0.84893 0.0
H4853 H 0.02168 0.43047 0.78971 0.0
H4854 H 0.00884 0.42028 0.79743 0.0
H4855 H 0.012 0.43685 0.80362 0.0
H4856 H 0.97711 0.40338 0.82172 0.0
H4857 H 0.98719 0.44127 0.83973 0.0
H4858 H 0.0112 0.39065 0.82066 0.0
H4859 H 0.00553 0.39744 0.80502 0.0
H4860 H 0.99409 0.38783 0.81526 0.0
H4861 H 0.02201 0.43629 0.84275 0.0
H4862 H 0.00908 0.44896 0.84211 0.0
H4863 H 0.01866 0.44486 0.82731 0.0
C4864 C 0.59364 0.04272 0.82619 0.0
C4865 C 0.58862 0.04632 0.81349 0.0
C4866 C 0.59548 0.02911 0.82975 0.0
C4867 C 0.59208 0.01882 0.82047 0.0
C4868 C 0.58801 0.02244 0.80733 0.0
C4869 C 0.58643 0.03607 0.80399 0.0
C4870 C 0.60015 0.02573 0.84377 0.0
C4871 C 0.58416 0.0119 0.7971 0.0
C4872 C 0.59831 0.98119 0.82632 0.0
C4873 C 0.58577 0.97707 0.83131 0.0
C4874 C 0.60081 0.99485 0.82327 0.0
C4875 C 0.59048 0.00454 0.82505 0.0
C4876 C 0.57796 1.00042 0.83041 0.0
C4877 C 0.57584 0.98686 0.83357 0.0
C4878 C 0.61439 0.99887 0.81785 0.0
C4879 C 0.56655 0.01026 0.83237 0.0
H4880 H 0.59548 0.05047 0.83362 0.0
H4881 H 0.58272 0.03864 0.79408 0.0
H4882 H 0.59144 0.02239 0.84987 0.0
H4883 H 0.60753 0.01737 0.84357 0.0
H4884 H 0.6048 0.03454 0.84883 0.0
H4885 H 0.58275 0.01624 0.78691 0.0
H4886 H 0.59192 0.00393 0.79655 0.0
H4887 H 0.5746 0.00705 0.8002 0.0
H4888 H 0.60607 0.97374 0.82461 0.0
H4889 H 0.56615 0.98389 0.83756 0.0
H4890 H 0.61823 0.00783 0.82325 0.0
H4891 H 0.61344 1.00163 0.80709 0.0
H4892 H 0.62186 0.99062 0.81874 0.0
H4893 H 0.5698 0.01866 0.83894 0.0
H4894 H 0.55753 0.00549 0.83692 0.0
H4895 H 0.56362 0.01465 0.82255 0.0
C4896 C 0.02283 0.59595 0.82376 0.0
C4897 C 0.02689 0.58392 0.8299 0.0
C4898 C 0.0091 0.5984 0.82093 0.0
C4899 C 0.99929 0.58857 0.82424 0.0
C4900 C 0.00336 0.5767 0.83093 0.0
C4901 C 0.017 0.57458 0.83371 0.0
C4902 C 0.00517 0.61127 0.81395 0.0
C4903 C 0.99336 0.56588 0.83465 0.0
C4904 C 0.96124 0.5932 0.82571 0.0
C4905 C 0.95714 0.58677 0.81382 0.0
C4906 C 0.97499 0.59485 0.8288 0.0
C4907 C 0.98492 0.58989 0.81985 0.0
C4908 C 0.98084 0.58422 0.80745 0.0
C4909 C 0.96707 0.58278 0.80458 0.0
C4910 C 0.97887 0.60114 0.84204 0.0
C4911 C 0.991 0.57875 0.79759 0.0
H4912 H 0.03037 0.60322 0.82079 0.0
H4913 H 0.01998 0.56531 0.83859 0.0
H4914 H 1.0022 0.60904 0.80344 0.0
H4915 H 0.99637 0.61591 0.81899 0.0
H4916 H 0.01355 0.61865 0.81377 0.0
H4917 H 0.99807 0.55753 0.84038 0.0
H4918 H 0.98512 0.57018 0.8408 0.0
H4919 H 0.98877 0.56166 0.8254 0.0
H4920 H 0.95373 0.59643 0.83291 0.0
H4921 H 0.96413 0.57795 0.79527 0.0
H4922 H 0.98731 0.60829 0.84068 0.0
H4923 H 0.98232 0.59318 0.84905 0.0
H4924 H 0.9703 0.60651 0.84677 0.0
H4925 H 0.9991 0.58619 0.79577 0.0
H4926 H 0.98635 0.57606 0.7878 0.0
H4927 H 0.99576 0.56961 0.80186 0.0
C4928 C 0.20241 0.42566 0.04219 0.0
C4929 C 0.19275 0.42255 0.05204 0.0
C4930 C 0.19963 0.42423 0.02841 0.0
C4931 C 0.18687 0.41951 0.02422 0.0
C4932 C 0.17737 0.41555 0.03407 0.0
C4933 C 0.1804 0.41713 0.04784 0.0
C4934 C 0.21009 0.42861 0.01832 0.0
C4935 C 0.16369 0.41035 0.03009 0.0
C4936 C 0.17446 0.43406 0.99113 0.0
C4937 C 0.17732 0.42379 0.98188 0.0
C4938 C 0.17723 0.43261 0.00488 0.0
C4939 C 0.18294 0.42051 0.00969 0.0
C4940 C 0.18551 0.40989 1.0005 0.0
C4941 C 0.1827 0.41167 0.98668 0.0
C4942 C 0.17436 0.44426 0.01421 0.0
C4943 C 0.19147 0.39679 0.00523 0.0
H4944 H 0.21205 0.42973 0.04522 0.0
H4945 H 0.17285 0.41462 0.05528 0.0
H4946 H 0.21148 0.4208 0.01049 0.0
H4947 H 0.20665 0.43789 0.01319 0.0
H4948 H 0.21997 0.43068 0.0231 0.0
H4949 H 0.15821 0.40589 0.03873 0.0
H4950 H 0.15758 0.41873 0.02599 0.0
H4951 H 0.16461 0.40267 0.02206 0.0
H4952 H 0.17021 0.44345 0.9876 0.0
H4953 H 0.18492 0.40367 0.97963 0.0
H4954 H 0.18388 0.44785 0.01878 0.0
H4955 H 0.16771 0.44097 0.02252 0.0
H4956 H 0.16951 0.45283 0.00896 0.0
H4957 H 0.20185 0.39851 0.00892 0.0
H4958 H 0.19181 0.38914 0.9971 0.0
H4959 H 0.18556 0.39272 0.01376 0.0
C4960 C 0.18104 0.59521 0.9592 0.0
C4961 C 0.19348 0.58967 0.95541 0.0
C4962 C 0.17769 0.59706 0.97285 0.0
C4963 C 0.1869 0.5931 0.983 0.0
C4964 C 0.19982 0.5885 0.97921 0.0
C4965 C 0.20298 0.58695 0.96553 0.0
C4966 C 0.16393 0.60233 0.97642 0.0
C4967 C 0.20996 0.58406 0.9896 0.0
C4968 C 0.1817 0.59852 0.02083 0.0
C4969 C 0.17635 0.58604 0.02464 0.0
C4970 C 0.18462 0.60132 0.00719 0.0
C4971 C 0.18232 0.59134 0.99724 0.0
C4972 C 0.17648 0.57895 1.00106 0.0
C4973 C 0.17349 0.57654 0.0146 0.0
C4974 C 0.19056 0.61477 0.00351 0.0
C4975 C 0.17391 0.56792 0.99093 0.0
H4976 H 0.17364 0.59751 0.95154 0.0
H4977 H 0.21269 0.58283 0.96283 0.0
H4978 H 0.15743 0.59386 0.97963 0.0
H4979 H 0.16454 0.60952 0.98493 0.0
H4980 H 0.15905 0.60739 0.96774 0.0
H4981 H 0.22005 0.58228 0.98516 0.0
H4982 H 0.21091 0.59168 0.99767 0.0
H4983 H 0.20648 0.57458 0.99435 0.0
H4984 H 0.1839 0.60595 0.02849 0.0
H4985 H 0.16919 0.56691 0.01735 0.0
H4986 H 0.18557 0.6189 0.99444 0.0
H4987 H 0.20137 0.61353 1.00111 0.0
H4988 H 0.18963 0.62215 0.01184 0.0
H4989 H 0.16743 0.5717 0.98268 0.0
H4990 H 0.16899 0.559 0.99548 0.0
H4991 H 0.18357 0.56467 0.98637 0.0
C4992 C 0.42746 0.17229 0.01832 0.0
C4993 C 0.4182 0.17563 0.02846 0.0
C4994 C 0.42505 0.17535 0.00479 0.0
C4995 C 0.41288 0.18168 1.00104 0.0
C4996 C 0.40314 0.18453 0.0111 0.0
C4997 C 0.40597 0.18158 0.02473 0.0
C4998 C 0.43586 0.17225 0.99456 0.0
C4999 C 0.38991 0.19098 0.00751 0.0
C5000 C 0.41764 0.2019 0.96909 0.0
C5001 C 0.41448 0.19243 0.95906 0.0
C5002 C 0.41616 0.1989 0.98281 0.0
C5003 C 0.41115 0.18619 0.98676 0.0
C5004 C 0.40674 0.17706 0.97672 0.0
C5005 C 0.40856 0.18023 0.963 0.0
C5006 C 0.42116 0.20893 0.99306 0.0
C5007 C 0.40098 0.16355 0.98045 0.0
H5008 H 0.43689 0.16754 0.02097 0.0
H5009 H 0.39871 0.18412 0.03245 0.0
H5010 H 0.43175 0.16579 0.98646 0.0
H5011 H 0.43939 0.18171 0.98982 0.0
H5012 H 0.44466 0.16707 0.99908 0.0
H5013 H 0.38264 0.19058 0.01597 0.0
H5014 H 0.39158 0.20167 0.00481 0.0
H5015 H 0.3854 0.18596 0.99862 0.0
H5016 H 0.42206 0.21145 0.96628 0.0
H5017 H 0.40594 0.17286 0.95542 0.0
H5018 H 0.43055 0.2051 0.99772 0.0
H5019 H 0.41369 0.21026 1.00122 0.0
H5020 H 0.4233 0.2189 0.98852 0.0
H5021 H 0.40924 0.15674 0.98358 0.0
H5022 H 0.39561 0.15883 0.97188 0.0
H5023 H 0.39395 0.1645 0.98905 0.0
C5024 C 0.8268 0.4129 0.96031 0.0
C5025 C 0.81426 0.4181 0.95641 0.0
C5026 C 0.82996 0.41086 0.97399 0.0
C5027 C 0.82043 0.41424 0.98405 0.0
C5028 C 0.80744 0.41853 0.98011 0.0
C5029 C 0.8045 0.4203 0.96641 0.0
C5030 C 0.84383 0.40598 0.9777 0.0
C5031 C 0.79696 0.42237 0.9904 0.0
C5032 C 0.82513 0.4073 0.0217 0.0
C5033 C 0.83019 0.41969 0.02617 0.0
C5034 C 0.82242 0.40508 0.00792 0.0
C5035 C 0.8246 0.41555 0.99847 0.0
C5036 C 0.83 0.42792 1.00296 0.0
C5037 C 0.83282 0.42976 0.01663 0.0
C5038 C 0.81693 0.39166 0.00352 0.0
C5039 C 0.83238 0.43947 0.99338 0.0
H5040 H 0.83442 0.41104 0.95274 0.0
H5041 H 0.7947 0.42416 0.96361 0.0
H5042 H 0.84991 0.41455 0.98141 0.0
H5043 H 0.84328 0.39845 0.98591 0.0
H5044 H 0.84911 0.40144 0.96897 0.0
H5045 H 0.78692 0.42399 0.9858 0.0
H5046 H 0.79606 0.41449 0.99823 0.0
H5047 H 0.80006 0.4318 0.9955 0.0
H5048 H 0.82314 0.39943 0.02896 0.0
H5049 H 0.83686 0.43934 0.01988 0.0
H5050 H 0.82257 0.38787 0.99467 0.0
H5051 H 0.80628 0.3928 1.00043 0.0
H5052 H 0.81745 0.38404 0.01167 0.0
H5053 H 0.83916 0.43629 0.98512 0.0
H5054 H 0.83691 0.44834 0.99843 0.0
H5055 H 0.82272 0.44259 0.98876 0.0
C5056 C 0.57832 0.8317 0.01743 0.0
C5057 C 0.58813 0.82914 0.02726 0.0
C5058 C 0.58034 0.82831 0.00392 0.0
C5059 C 0.59262 0.82236 0.9999 0.0
C5060 C 0.60284 0.82022 0.00964 0.0
C5061 C 0.60044 0.82355 0.02325 0.0
C5062 C 0.56907 0.8307 0.994 0.0
C5063 C 0.61616 0.81414 0.00573 0.0
C5064 C 0.58787 0.8015 0.96834 0.0
C5065 C 0.5906 0.8109 0.95814 0.0
C5066 C 0.58948 0.80476 0.98199 0.0
C5067 C 0.59413 0.8177 0.98566 0.0
C5068 C 0.59805 0.82682 0.97542 0.0
C5069 C 0.59618 0.82335 0.9618 0.0
C5070 C 0.58508 0.79472 0.99249 0.0
C5071 C 0.60331 0.84062 0.97885 0.0
H5072 H 0.56881 0.83614 0.02033 0.0
H5073 H 0.6081 0.82159 0.03074 0.0
H5074 H 0.57264 0.83708 0.9856 0.0
H5075 H 0.56575 0.82098 0.98964 0.0
H5076 H 0.56023 0.83565 0.9987 0.0
H5077 H 0.62359 0.8146 0.01405 0.0
H5078 H 0.61471 0.80346 1.00288 0.0
H5079 H 0.62037 0.8194 0.99684 0.0
H5080 H 0.58371 0.79178 0.96573 0.0
H5081 H 0.59846 0.83069 0.95408 0.0
H5082 H 0.5756 0.79823 0.99722 0.0
H5083 H 0.59272 0.79386 1.00056 0.0
H5084 H 0.58331 0.78459 0.98814 0.0
H5085 H 0.59486 0.84709 0.98218 0.0
H5086 H 0.60822 0.84549 0.97008 0.0
H5087 H 0.61064 0.84008 0.98725 0.0
C5088 C 0.80423 0.58554 0.03889 0.0
C5089 C 0.81379 0.58774 0.04907 0.0
C5090 C 0.8075 0.5871 0.02523 0.0
C5091 C 0.82063 0.59113 0.02153 0.0
C5092 C 0.83 0.59447 0.03175 0.0
C5093 C 0.8265 0.59268 0.04538 0.0
C5094 C 0.79717 0.58334 0.01475 0.0
C5095 C 0.84403 0.59906 0.02829 0.0
C5096 C 0.83356 0.57548 0.98917 0.0
C5097 C 0.83139 0.58566 0.97964 0.0
C5098 C 0.83038 0.5773 1.00278 0.0
C5099 C 0.82507 0.58974 0.00719 0.0
C5100 C 0.82329 0.60029 0.99774 0.0
C5101 C 0.82638 0.59809 0.98404 0.0
C5102 C 0.83234 0.56569 0.01238 0.0
C5103 C 0.81789 0.61377 1.00206 0.0
H5104 H 0.79431 0.58188 0.04151 0.0
H5105 H 0.83399 0.59451 0.05309 0.0
H5106 H 0.79657 0.59117 0.00684 0.0
H5107 H 0.80022 0.57382 0.0098 0.0
H5108 H 0.78701 0.58193 0.01916 0.0
H5109 H 0.84925 0.60351 0.0371 0.0
H5110 H 0.85001 0.59035 0.02471 0.0
H5111 H 0.84379 0.60658 0.02006 0.0
H5112 H 0.83753 0.56586 0.98597 0.0
H5113 H 0.82473 0.60604 0.97678 0.0
H5114 H 0.82252 0.56272 0.01676 0.0
H5115 H 0.83896 0.56874 0.0208 0.0
H5116 H 0.83682 0.55675 0.0074 0.0
H5117 H 0.80724 0.61272 0.00518 0.0
H5118 H 0.81846 0.62134 0.99387 0.0
H5119 H 0.82357 0.61756 0.01088 0.0
C5120 C 0.4314 0.83288 0.98912 0.0
C5121 C 0.42146 0.83052 0.97937 0.0
C5122 C 0.4293 0.82987 1.00271 0.0
C5123 C 0.41679 0.82456 0.00691 0.0
C5124 C 0.40644 0.82265 0.99725 0.0
C5125 C 0.40893 0.82556 0.98355 0.0
C5126 C 0.44071 0.83197 0.01253 0.0
C5127 C 0.39288 0.81727 1.00134 0.0
C5128 C 0.42082 0.80405 0.03881 0.0
C5129 C 0.41862 0.81373 0.04888 0.0
C5130 C 0.41925 0.80715 0.02512 0.0
C5131 C 0.41517 0.82022 0.02126 0.0
C5132 C 0.41176 0.82968 0.03138 0.0
C5133 C 0.41359 0.82636 0.04505 0.0
C5134 C 0.42311 0.79674 0.01476 0.0
C5135 C 0.40708 0.84363 0.02776 0.0
H5136 H 0.44108 0.83684 0.9861 0.0
H5137 H 0.40116 0.82377 0.97613 0.0
H5138 H 0.43748 0.83867 0.02082 0.0
H5139 H 0.44362 0.8222 0.01707 0.0
H5140 H 0.44974 0.83643 0.00769 0.0
H5141 H 0.38541 0.81799 0.99307 0.0
H5142 H 0.39385 0.80656 0.0043 0.0
H5143 H 0.38901 0.82282 0.0102 0.0
H5144 H 0.42455 0.79419 0.04155 0.0
H5145 H 0.41173 0.83392 0.05267 0.0
H5146 H 0.43268 0.79975 0.00988 0.0
H5147 H 0.41536 0.79606 0.00678 0.0
H5148 H 0.42449 0.78662 0.01927 0.0
H5149 H 0.41579 0.84967 0.02428 0.0
H5150 H 0.40245 0.84886 0.03647 0.0
H5151 H 0.39969 0.84327 0.01941 0.0
C5152 C 0.59691 0.1808 0.98138 0.0
C5153 C 0.5844 0.17574 0.97727 0.0
C5154 C 0.59949 0.18365 0.99507 0.0
C5155 C 0.58927 0.18156 0.00482 0.0
C5156 C 0.57678 0.17612 1.0007 0.0
C5157 C 0.57457 0.17321 0.98709 0.0
C5158 C 0.61301 0.18922 0.99906 0.0
C5159 C 0.5655 0.1738 0.01061 0.0
C5160 C 0.59317 0.17978 0.04293 0.0
C5161 C 0.58811 0.19236 0.04688 0.0
C5162 C 0.59471 0.17646 0.02922 0.0
C5163 C 0.59097 0.18587 0.01917 0.0
C5164 C 0.58679 0.19889 0.02312 0.0
C5165 C 0.58551 0.20199 0.03684 0.0
C5166 C 0.59949 0.16256 0.0255 0.0
C5167 C 0.58258 0.20924 0.01285 0.0
H5168 H 0.60459 0.18273 0.9739 0.0
H5169 H 0.56489 0.16918 0.98412 0.0
H5170 H 0.61191 0.19986 1.00217 0.0
H5171 H 0.61709 0.18361 0.0078 0.0
H5172 H 0.62039 0.18872 0.99069 0.0
H5173 H 0.55652 0.16917 0.00585 0.0
H5174 H 0.56894 0.16715 0.01887 0.0
H5175 H 0.56245 0.1835 0.01519 0.0
H5176 H 0.59532 0.17226 0.05051 0.0
H5177 H 0.58174 0.21181 0.03966 0.0
H5178 H 0.60678 0.16303 0.01707 0.0
H5179 H 0.59081 0.15645 0.02209 0.0
H5180 H 0.60428 0.15735 0.03413 0.0
H5181 H 0.59021 0.21009 0.00477 0.0
H5182 H 0.58105 0.21932 0.0174 0.0
H5183 H 0.57301 0.20605 0.00808 0.0
C5184 C 0.54637 0.67704 0.91591 0.0
C5185 C 0.5506 0.68891 0.9223 0.0
C5186 C 0.53258 0.67413 0.91421 0.0
C5187 C 0.52275 0.68322 0.91911 0.0
C5188 C 0.52697 0.69557 0.92478 0.0
C5189 C 0.54077 0.69827 0.92624 0.0
C5190 C 0.52855 0.66095 0.90789 0.0
C5191 C 0.51692 0.70557 0.93022 0.0
C5192 C 0.4848 0.68017 0.91283 0.0
C5193 C 0.48053 0.67417 0.92485 0.0
C5194 C 0.49861 0.68264 0.91043 0.0
C5195 C 0.50829 0.67908 0.92031 0.0
C5196 C 0.504 0.67249 0.93215 0.0
C5197 C 0.49027 0.67009 0.93422 0.0
C5198 C 0.50276 0.68952 0.89759 0.0
C5199 C 0.51385 0.66851 0.94302 0.0
H5200 H 0.55381 0.66974 0.91272 0.0
H5201 H 0.5438 0.70756 0.93105 0.0
H5202 H 0.52493 0.65399 0.91582 0.0
H5203 H 0.52018 0.66245 0.90068 0.0
H5204 H 0.53709 0.65609 0.90258 0.0
H5205 H 0.5217 0.71527 0.93302 0.0
H5206 H 0.50893 0.70757 0.92271 0.0
H5207 H 0.51199 0.70133 0.93928 0.0
H5208 H 0.47736 0.68334 0.90553 0.0
H5209 H 0.48712 0.66531 0.94349 0.0
H5210 H 0.51153 0.68433 0.89304 0.0
H5211 H 0.50588 0.69999 0.89982 0.0
H5212 H 0.49445 0.68982 0.89013 0.0
H5213 H 0.522 0.66223 0.93874 0.0
H5214 H 0.50898 0.66283 0.9513 0.0
H5215 H 0.51858 0.67765 0.94732 0.0
C5216 C 0.30355 0.53998 0.92076 0.0
C5217 C 0.31347 0.54989 0.91891 0.0
C5218 C 0.30648 0.52624 0.91925 0.0
C5219 C 0.31963 0.52219 0.91562 0.0
C5220 C 0.32938 0.53215 0.91261 0.0
C5221 C 0.32622 0.54586 0.91434 0.0
C5222 C 0.29575 0.51605 0.92264 0.0
C5223 C 0.34345 0.5283 0.90847 0.0
C5224 C 0.33128 0.48954 0.93165 0.0
C5225 C 0.32926 0.48007 0.92138 0.0
C5226 C 0.32844 0.50321 0.92976 0.0
C5227 C 0.32363 0.50774 0.91715 0.0
C5228 C 0.32198 0.49834 0.90655 0.0
C5229 C 0.32472 0.48458 0.90881 0.0
C5230 C 0.33023 0.51276 0.94144 0.0
C5231 C 0.31712 0.50278 0.8929 0.0
H5232 H 0.29361 0.54288 0.92413 0.0
H5233 H 0.33396 0.55336 0.91278 0.0
H5234 H 0.29522 0.50814 0.91481 0.0
H5235 H 0.29833 0.51104 0.93227 0.0
H5236 H 0.28567 0.52073 0.92369 0.0
H5237 H 0.34905 0.53697 0.9042 0.0
H5238 H 0.34904 0.52455 0.91736 0.0
H5239 H 0.34323 0.52008 0.90093 0.0
H5240 H 0.33489 0.48625 0.94138 0.0
H5241 H 0.3232 0.47736 0.90079 0.0
H5242 H 0.32043 0.5174 0.94406 0.0
H5243 H 0.33718 0.52101 0.93863 0.0
H5244 H 0.33427 0.50768 0.95052 0.0
H5245 H 0.30655 0.50625 0.89363 0.0
H5246 H 0.31765 0.49456 0.88536 0.0
H5247 H 0.32319 0.5114 0.88926 0.0
C5248 C 0.46036 0.32729 0.91291 0.0
C5249 C 0.45638 0.3155 0.91959 0.0
C5250 C 0.47408 0.33046 0.91114 0.0
C5251 C 0.48411 0.3217 0.91625 0.0
C5252 C 0.48014 0.30941 0.92224 0.0
C5253 C 0.46641 0.30645 0.92377 0.0
C5254 C 0.47783 0.34357 0.90451 0.0
C5255 C 0.49041 0.29976 0.92791 0.0
C5256 C 0.52196 0.32542 0.9098 0.0
C5257 C 0.52613 0.3318 0.92166 0.0
C5258 C 0.50821 0.32259 0.9075 0.0
C5259 C 0.49847 0.32617 0.91732 0.0
C5260 C 0.50265 0.33316 0.92898 0.0
C5261 C 0.51633 0.33591 0.93095 0.0
C5262 C 0.50417 0.3153 0.89485 0.0
C5263 C 0.49274 0.33718 0.93978 0.0
H5264 H 0.45277 0.33435 0.90953 0.0
H5265 H 0.46357 0.29723 0.92882 0.0
H5266 H 0.48133 0.35078 0.91226 0.0
H5267 H 0.48621 0.34207 0.89731 0.0
H5268 H 0.46919 0.34813 0.89911 0.0
H5269 H 0.48584 0.29004 0.93095 0.0
H5270 H 0.49843 0.29775 0.92044 0.0
H5271 H 0.49525 0.30433 0.93686 0.0
H5272 H 0.52945 0.32221 0.90257 0.0
H5273 H 0.51939 0.34099 0.94009 0.0
H5274 H 0.49529 0.32018 0.89019 0.0
H5275 H 0.50129 0.30482 0.89735 0.0
H5276 H 0.51247 0.31499 0.88738 0.0
H5277 H 0.48443 0.34317 0.93538 0.0
H5278 H 0.49751 0.34317 0.94791 0.0
H5279 H 0.48823 0.32805 0.94432 0.0
C5280 C 0.67669 0.51458 0.93086 0.0
C5281 C 0.67887 0.52454 0.9211 0.0
C5282 C 0.67951 0.50102 0.92834 0.0
C5283 C 0.68448 0.4971 0.9156 0.0
C5284 C 0.68622 0.507 0.90546 0.0
C5285 C 0.68348 0.52064 0.90835 0.0
C5286 C 0.67757 0.49093 0.93953 0.0
C5287 C 0.69127 0.50321 0.89168 0.0
C5288 C 0.70457 0.46485 0.91848 0.0
C5289 C 0.69467 0.45501 0.91626 0.0
C5290 C 0.70168 0.47862 0.91723 0.0
C5291 C 0.68859 0.48277 0.9135 0.0
C5292 C 0.6789 0.4729 0.91004 0.0
C5293 C 0.68202 0.45915 0.91152 0.0
C5294 C 0.71234 0.48872 0.92109 0.0
C5295 C 0.66491 0.47685 0.90573 0.0
H5296 H 0.673 0.5174 0.94071 0.0
H5297 H 0.68514 0.52824 0.90073 0.0
H5298 H 0.6707 0.4828 0.93623 0.0
H5299 H 0.68735 0.48621 0.9421 0.0
H5300 H 0.67337 0.49558 0.94878 0.0
H5301 H 0.69043 0.51167 0.88444 0.0
H5302 H 0.70197 0.50016 0.89233 0.0
H5303 H 0.68557 0.49449 0.88771 0.0
H5304 H 0.71445 0.46186 0.92198 0.0
H5305 H 0.67429 0.4517 0.90964 0.0
H5306 H 0.70966 0.49337 0.93087 0.0
H5307 H 0.71292 0.49691 0.91355 0.0
H5308 H 0.72243 0.48403 0.92206 0.0
H5309 H 0.6591 0.48021 0.91464 0.0
H5310 H 0.65945 0.46833 0.901 0.0
H5311 H 0.66525 0.48536 0.89854 0.0
C5312 C 0.54138 0.30558 0.08128 0.0
C5313 C 0.55127 0.31485 0.08533 0.0
C5314 C 0.5276 0.30832 0.08282 0.0
C5315 C 0.52344 0.32061 0.08866 0.0
C5316 C 0.53333 0.32959 0.09367 0.0
C5317 C 0.5471 0.32664 0.0919 0.0
C5318 C 0.51749 0.29844 0.07726 0.0
C5319 C 0.52938 0.34271 0.10016 0.0
C5320 C 0.49111 0.33428 0.0737 0.0
C5321 C 0.48131 0.33019 0.083 0.0
C5322 C 0.5048 0.33168 0.07574 0.0
C5323 C 0.50902 0.32487 0.08749 0.0
C5324 C 0.49928 0.32129 0.09731 0.0
C5325 C 0.4855 0.32395 0.09493 0.0
C5326 C 0.5147 0.33569 0.06493 0.0
C5327 C 0.50335 0.3142 0.11006 0.0
H5328 H 0.54437 0.29635 0.07633 0.0
H5329 H 0.55457 0.33386 0.09519 0.0
H5330 H 0.50948 0.29642 0.08474 0.0
H5331 H 0.51261 0.30281 0.06823 0.0
H5332 H 0.52221 0.28874 0.07437 0.0
H5333 H 0.53794 0.34744 0.10555 0.0
H5334 H 0.5258 0.34979 0.09233 0.0
H5335 H 0.52099 0.34116 0.10735 0.0
H5336 H 0.48803 0.33925 0.0645 0.0
H5337 H 0.47802 0.32075 0.10218 0.0
H5338 H 0.51938 0.32656 0.06054 0.0
H5339 H 0.5229 0.34187 0.06928 0.0
H5340 H 0.50989 0.34149 0.05669 0.0
H5341 H 0.50637 0.30373 0.10769 0.0
H5342 H 0.49503 0.31387 0.1175 0.0
H5343 H 0.51216 0.31924 0.11469 0.0
C5344 C 0.6796 0.54672 0.09106 0.0
C5345 C 0.69139 0.55099 0.08455 0.0
C5346 C 0.67684 0.53293 0.09295 0.0
C5347 C 0.68601 0.52313 0.08814 0.0
C5348 C 0.69827 0.5274 0.0823 0.0
C5349 C 0.70082 0.5412 0.08062 0.0
C5350 C 0.66373 0.52886 0.09939 0.0
C5351 C 0.70834 0.51738 0.07695 0.0
C5352 C 0.68298 0.48539 0.09561 0.0
C5353 C 0.6767 0.48075 0.08386 0.0
C5354 C 0.68565 0.49923 0.09747 0.0
C5355 C 0.68204 0.5086 0.08731 0.0
C5356 C 0.67532 0.50395 0.07568 0.0
C5357 C 0.67271 0.49019 0.07415 0.0
C5358 C 0.69269 0.50379 0.11009 0.0
C5359 C 0.6713 0.51345 0.06453 0.0
H5360 H 0.67226 0.55412 0.09424 0.0
H5361 H 0.71003 0.54428 0.07571 0.0
H5362 H 0.65683 0.52487 0.09158 0.0
H5363 H 0.66539 0.52073 0.10684 0.0
H5364 H 0.65871 0.53745 0.10446 0.0
H5365 H 0.71797 0.52222 0.07403 0.0
H5366 H 0.71047 0.50953 0.08457 0.0
H5367 H 0.7041 0.51227 0.06799 0.0
H5368 H 0.68608 0.4782 0.10318 0.0
H5369 H 0.66773 0.48679 0.06507 0.0
H5370 H 0.6873 0.51243 0.11464 0.0
H5371 H 0.70299 0.50726 0.10758 0.0
H5372 H 0.69345 0.49561 0.11766 0.0
H5373 H 0.66494 0.52167 0.06857 0.0
H5374 H 0.66567 0.50831 0.05637 0.0
H5375 H 0.68041 0.51815 0.06012 0.0
C5376 C 0.46477 0.70092 0.08433 0.0
C5377 C 0.45488 0.69161 0.08824 0.0
C5378 C 0.47854 0.69812 0.08583 0.0
C5379 C 0.48267 0.68572 0.09148 0.0
C5380 C 0.47277 0.67668 0.09633 0.0
C5381 C 0.45901 0.6797 0.09462 0.0
C5382 C 0.48868 0.70807 0.08047 0.0
C5383 C 0.47669 0.66344 0.10258 0.0
C5384 C 0.51498 0.6721 0.07645 0.0
C5385 C 0.52474 0.6759 0.08591 0.0
C5386 C 0.5013 0.67481 0.07842 0.0
C5387 C 0.49707 0.68145 0.09027 0.0
C5388 C 0.50677 0.68476 0.10022 0.0
C5389 C 0.52053 0.68199 0.09791 0.0
C5390 C 0.49143 0.67109 0.06748 0.0
C5391 C 0.50267 0.69167 0.11307 0.0
H5392 H 0.4618 0.71022 0.07952 0.0
H5393 H 0.45153 0.67245 0.09779 0.0
H5394 H 0.49671 0.70991 0.08797 0.0
H5395 H 0.49354 0.70386 0.07135 0.0
H5396 H 0.48399 0.71784 0.07778 0.0
H5397 H 0.46811 0.6586 0.10784 0.0
H5398 H 0.48028 0.6565 0.09462 0.0
H5399 H 0.48505 0.66483 0.10982 0.0
H5400 H 0.51807 0.66725 0.06719 0.0
H5401 H 0.52798 0.68495 0.10528 0.0
H5402 H 0.48683 0.68033 0.06326 0.0
H5403 H 0.48318 0.66487 0.07167 0.0
H5404 H 0.49625 0.66543 0.05915 0.0
H5405 H 0.49957 0.70215 0.11084 0.0
H5406 H 0.51099 0.69195 0.12051 0.0
H5407 H 0.4939 0.68652 0.11764 0.0
C5408 C 0.30449 0.46532 0.08682 0.0
C5409 C 0.31439 0.45541 0.0888 0.0
C5410 C 0.30733 0.47905 0.08856 0.0
C5411 C 0.32038 0.48311 0.09256 0.0
C5412 C 0.33008 0.47314 0.09571 0.0
C5413 C 0.327 0.45943 0.09373 0.0
C5414 C 0.29667 0.48924 0.08498 0.0
C5415 C 0.34402 0.47698 0.10027 0.0
C5416 C 0.33227 0.51584 0.07689 0.0
C5417 C 0.32989 0.52532 0.08708 0.0
C5418 C 0.32949 0.50215 0.07872 0.0
C5419 C 0.32439 0.49758 0.09118 0.0
C5420 C 0.32241 0.50699 0.10175 0.0
C5421 C 0.32509 0.52078 0.09954 0.0
C5422 C 0.33163 0.49262 0.06707 0.0
C5423 C 0.31724 0.50251 0.11527 0.0
H5424 H 0.29464 0.46243 0.08318 0.0
H5425 H 0.33473 0.45194 0.09541 0.0
H5426 H 0.29591 0.49708 0.09286 0.0
H5427 H 0.29947 0.49434 0.07546 0.0
H5428 H 0.28662 0.48455 0.08363 0.0
H5429 H 0.3495 0.46829 0.10465 0.0
H5430 H 0.34985 0.48078 0.09156 0.0
H5431 H 0.34357 0.48516 0.10784 0.0
H5432 H 0.3361 0.51913 0.06725 0.0
H5433 H 0.32328 0.528 0.1075 0.0
H5434 H 0.32192 0.48794 0.06419 0.0
H5435 H 0.33854 0.48441 0.07005 0.0
H5436 H 0.33588 0.49774 0.0581 0.0
H5437 H 0.30665 0.49915 0.1143 0.0
H5438 H 0.31769 0.51069 0.12286 0.0
H5439 H 0.32315 0.49381 0.11898 0.0
C5440 C 0.92446 0.54039 0.69966 0.0
C5441 C 0.92107 0.55024 0.6901 0.0
C5442 C 0.92303 0.52661 0.6969 0.0
C5443 C 0.91799 0.52241 0.68426 0.0
C5444 C 0.91367 0.53227 0.67491 0.0
C5445 C 0.91528 0.54604 0.67791 0.0
C5446 C 0.92782 0.51653 0.70719 0.0
C5447 C 0.9081 0.52827 0.66139 0.0
C5448 C 0.93309 0.48979 0.67134 0.0
C5449 C 0.92321 0.48021 0.67452 0.0
C5450 C 0.9313 0.50348 0.67414 0.0
C5451 C 0.91923 0.50793 0.68019 0.0
C5452 C 0.90895 0.49842 0.68301 0.0
C5453 C 0.91108 0.48464 0.68018 0.0
C5454 C 0.9426 0.51314 0.67099 0.0
C5455 C 0.89587 0.50275 0.68932 0.0
H5456 H 0.9288 0.54342 0.70918 0.0
H5457 H 0.91254 0.55348 0.67045 0.0
H5458 H 0.92018 0.50855 0.7087 0.0
H5459 H 0.93711 0.51159 0.7035 0.0
H5460 H 0.93002 0.52128 0.71704 0.0
H5461 H 0.90324 0.53686 0.65617 0.0
H5462 H 0.91637 0.52447 0.65495 0.0
H5463 H 0.90065 0.52004 0.66248 0.0
H5464 H 0.94248 0.48655 0.66685 0.0
H5465 H 0.90338 0.47734 0.68265 0.0
H5466 H 0.94635 0.51777 0.68042 0.0
H5467 H 0.93891 0.52139 0.66447 0.0
H5468 H 0.95118 0.50815 0.66587 0.0
H5469 H 0.89772 0.50622 0.69975 0.0
H5470 H 0.88839 0.49447 0.68959 0.0
H5471 H 0.89153 0.51135 0.68369 0.0
C5472 C 0.52456 0.90734 0.68025 0.0
C5473 C 0.52812 0.92028 0.67592 0.0
C5474 C 0.51098 0.90404 0.68294 0.0
C5475 C 0.50083 0.91397 0.68145 0.0
C5476 C 0.5044 0.92687 0.67667 0.0
C5477 C 0.51789 0.92979 0.67387 0.0
C5478 C 0.50757 0.89008 0.68774 0.0
C5479 C 0.49404 0.93787 0.67501 0.0
C5480 C 0.46287 0.9095 0.67955 0.0
C5481 C 0.45891 0.91404 0.69232 0.0
C5482 C 0.47659 0.90814 0.67619 0.0
C5483 C 0.4866 0.91153 0.68577 0.0
C5484 C 0.48263 0.91499 0.69899 0.0
C5485 C 0.4689 0.91611 0.70211 0.0
C5486 C 0.48035 0.90407 0.66208 0.0
C5487 C 0.49287 0.91877 0.70954 0.0
H5488 H 0.53236 0.8999 0.6818 0.0
H5489 H 0.52045 0.93978 0.67037 0.0
H5490 H 0.50504 0.89039 0.69859 0.0
H5491 H 0.49864 0.88615 0.68233 0.0
H5492 H 0.51608 0.88298 0.68631 0.0
H5493 H 0.49843 0.94727 0.67088 0.0
H5494 H 0.4859 0.93449 0.66819 0.0
H5495 H 0.48939 0.94019 0.68487 0.0
H5496 H 0.45532 0.90774 0.6719 0.0
H5497 H 0.46605 0.91944 0.71208 0.0
H5498 H 0.48902 0.89706 0.66216 0.0
H5499 H 0.48339 0.91312 0.65631 0.0
H5500 H 0.47181 0.89923 0.65675 0.0
H5501 H 0.50113 0.91129 0.70987 0.0
H5502 H 0.48834 0.91954 0.71971 0.0
H5503 H 0.49739 0.92863 0.70695 0.0
C5504 C 0.09909 0.52292 0.67949 0.0
C5505 C 0.08661 0.52635 0.67387 0.0
C5506 C 0.10211 0.50942 0.68281 0.0
C5507 C 0.09236 0.49921 0.68064 0.0
C5508 C 0.07999 0.50264 0.67451 0.0
C5509 C 0.07736 0.51605 0.67112 0.0
C5510 C 0.11554 0.50616 0.68904 0.0
C5511 C 0.06918 0.49223 0.67207 0.0
C5512 C 0.09688 0.46119 0.68062 0.0
C5513 C 0.09121 0.4577 0.69308 0.0
C5514 C 0.09856 0.47477 0.67687 0.0
C5515 C 0.09429 0.48514 0.68568 0.0
C5516 C 0.08958 0.48167 0.69866 0.0
C5517 C 0.08821 0.46807 0.70222 0.0
C5518 C 0.10398 0.47799 0.66309 0.0
C5519 C 0.08481 0.4923 0.70839 0.0
H5520 H 0.10633 0.53078 0.68161 0.0
H5521 H 0.06774 0.5185 0.66662 0.0
H5522 H 0.1142 0.50416 0.69992 0.0
H5523 H 0.11987 0.49696 0.68445 0.0
H5524 H 0.12281 0.51456 0.68788 0.0
H5525 H 0.06026 0.49647 0.66686 0.0
H5526 H 0.07321 0.48386 0.6659 0.0
H5527 H 0.06585 0.48791 0.68179 0.0
H5528 H 0.09938 0.45334 0.67349 0.0
H5529 H 0.08399 0.46562 0.71195 0.0
H5530 H 0.111 0.48665 0.66353 0.0
H5531 H 0.09555 0.48082 0.65636 0.0
H5532 H 0.10929 0.46925 0.65858 0.0
H5533 H 0.09228 0.50052 0.70921 0.0
H5534 H 0.08293 0.48815 0.71858 0.0
H5535 H 0.07531 0.49679 0.70461 0.0
C5536 C 0.48915 0.07395 0.67338 0.0
C5537 C 0.47945 0.08362 0.67684 0.0
C5538 C 0.50286 0.07596 0.67596 0.0
C5539 C 0.50719 0.08803 0.68211 0.0
C5540 C 0.49754 0.0981 0.6852 0.0
C5541 C 0.48375 0.09576 0.68257 0.0
C5542 C 0.51267 0.06487 0.67252 0.0
C5543 C 0.50175 0.11117 0.69161 0.0
C5544 C 0.53996 0.08306 0.70112 0.0
C5545 C 0.54965 0.0867 0.69148 0.0
C5546 C 0.52612 0.08432 0.69854 0.0
C5547 C 0.5217 0.08945 0.68602 0.0
C5548 C 0.53138 0.09402 0.6766 0.0
C5549 C 0.54522 0.09256 0.67942 0.0
C5550 C 0.51624 0.07925 0.70888 0.0
C5551 C 0.52714 0.09972 0.66321 0.0
H5552 H 0.48601 0.06457 0.66882 0.0
H5553 H 0.47636 0.1033 0.68525 0.0
H5554 H 0.52077 0.0688 0.66594 0.0
H5555 H 0.51748 0.06108 0.68183 0.0
H5556 H 0.50775 0.05629 0.66734 0.0
H5557 H 0.49336 0.11853 0.69205 0.0
H5558 H 0.50533 0.10926 0.702 0.0
H5559 H 0.51023 0.1157 0.68597 0.0
H5560 H 0.54316 0.07866 0.71055 0.0
H5561 H 0.55253 0.09551 0.6719 0.0
H5562 H 0.51138 0.06993 0.70512 0.0
H5563 H 0.50817 0.08674 0.7106 0.0
H5564 H 0.52115 0.07697 0.71865 0.0
H5565 H 0.52339 0.09148 0.6567 0.0
H5566 H 0.5356 0.10478 0.65796 0.0
H5567 H 0.5188 0.10701 0.66451 0.0
C5568 C 0.9111 0.46224 0.32394 0.0
C5569 C 0.91721 0.45811 0.3119 0.0
C5570 C 0.90955 0.47599 0.32705 0.0
C5571 C 0.9144 0.4859 0.31802 0.0
C5572 C 0.91976 0.48179 0.30549 0.0
C5573 C 0.921 0.46802 0.30255 0.0
C5574 C 0.90351 0.4799 0.3404 0.0
C5575 C 0.92521 0.49191 0.29557 0.0
C5576 C 0.90887 0.52384 0.32247 0.0
C5577 C 0.92091 0.52765 0.32876 0.0
C5578 C 0.90626 0.5102 0.31936 0.0
C5579 C 0.916 0.50022 0.32245 0.0
C5580 C 0.92797 0.50404 0.32912 0.0
C5581 C 0.93019 0.51759 0.33226 0.0
C5582 C 0.89327 0.50652 0.31247 0.0
C5583 C 0.93874 0.49388 0.33254 0.0
H5584 H 0.908 0.45475 0.33122 0.0
H5585 H 0.92565 0.46506 0.29316 0.0
H5586 H 0.91161 0.4832 0.34731 0.0
H5587 H 0.89645 0.48844 0.33917 0.0
H5588 H 0.89808 0.47138 0.34516 0.0
H5589 H 0.92764 0.48728 0.28571 0.0
H5590 H 0.91788 0.50015 0.29394 0.0
H5591 H 0.93452 0.49649 0.29969 0.0
H5592 H 0.90162 0.5315 0.31977 0.0
H5593 H 0.93948 0.52033 0.33725 0.0
H5594 H 0.88849 0.49785 0.3176 0.0
H5595 H 0.89536 0.50342 0.30197 0.0
H5596 H 0.88606 0.51504 0.31229 0.0
H5597 H 0.93447 0.48573 0.33884 0.0
H5598 H 0.94734 0.49844 0.33801 0.0
H5599 H 0.9426 0.48918 0.32319 0.0
C5600 C 0.48976 0.92961 0.33552 0.0
C5601 C 0.47968 0.92005 0.33297 0.0
C5602 C 0.50326 0.92714 0.33239 0.0
C5603 C 0.50701 0.91463 0.32674 0.0
C5604 C 0.49703 0.9046 0.3248 0.0
C5605 C 0.48343 0.90746 0.32784 0.0
C5606 C 0.51342 0.93823 0.33457 0.0
C5607 C 0.50064 0.89103 0.31909 0.0
C5608 C 0.53831 0.91878 0.30542 0.0
C5609 C 0.54862 0.91638 0.3148 0.0
C5610 C 0.5247 0.91717 0.30885 0.0
C5611 C 0.52118 0.91282 0.32193 0.0
C5612 C 0.53153 0.90911 0.33101 0.0
C5613 C 0.54512 0.91101 0.32738 0.0
C5614 C 0.51408 0.92133 0.29882 0.0
C5615 C 0.52826 0.90408 0.34493 0.0
H5616 H 0.48705 0.93932 0.33965 0.0
H5617 H 0.47574 0.9 0.32588 0.0
H5618 H 0.52179 0.9346 0.34097 0.0
H5619 H 0.5178 0.9413 0.32478 0.0
H5620 H 0.50893 0.94724 0.3394 0.0
H5621 H 0.49239 0.88363 0.32046 0.0
H5622 H 0.50269 0.89202 0.30818 0.0
H5623 H 0.5099 0.88708 0.3239 0.0
H5624 H 0.5408 0.92274 0.29559 0.0
H5625 H 0.55293 0.90897 0.3347 0.0
H5626 H 0.50935 0.93085 0.30219 0.0
H5627 H 0.50604 0.91364 0.29818 0.0
H5628 H 0.51833 0.92293 0.28861 0.0
H5629 H 0.52518 0.91267 0.35134 0.0
H5630 H 0.53705 0.89912 0.34971 0.0
H5631 H 0.51975 0.89687 0.34463 0.0
C5632 C 0.09518 0.54409 0.32439 0.0
C5633 C 0.09006 0.54785 0.31178 0.0
C5634 C 0.09655 0.53043 0.32797 0.0
C5635 C 0.09259 0.52026 0.3188 0.0
C5636 C 0.08837 0.524 0.30573 0.0
C5637 C 0.08724 0.53768 0.30237 0.0
C5638 C 0.10136 0.52693 0.34192 0.0
C5639 C 0.08394 0.51357 0.29562 0.0
C5640 C 0.09798 0.48255 0.32495 0.0
C5641 C 0.08546 0.4788 0.33026 0.0
C5642 C 0.10073 0.4961 0.32161 0.0
C5643 C 0.09066 0.50605 0.32345 0.0
C5644 C 0.07816 0.5023 0.32911 0.0
C5645 C 0.07579 0.48884 0.33251 0.0
C5646 C 0.11427 0.49971 0.31583 0.0
C5647 C 0.06703 0.51245 0.33118 0.0
H5648 H 0.0975 0.55178 0.33175 0.0
H5649 H 0.08341 0.54035 0.29254 0.0
H5650 H 0.09266 0.52379 0.34815 0.0
H5651 H 0.10851 0.51838 0.34159 0.0
H5652 H 0.10631 0.5356 0.34692 0.0
H5653 H 0.0825 0.51793 0.28544 0.0
H5654 H 0.0914 0.50532 0.29496 0.0
H5655 H 0.07427 0.50909 0.29893 0.0
H5656 H 0.10554 0.4749 0.32322 0.0
H5657 H 0.06611 0.48614 0.33673 0.0
H5658 H 0.11856 0.50847 0.32123 0.0
H5659 H 0.11311 0.50265 0.30514 0.0
H5660 H 0.12149 0.49121 0.31641 0.0
H5661 H 0.07062 0.52081 0.33761 0.0
H5662 H 0.05799 0.50795 0.33594 0.0
H5663 H 0.06404 0.51682 0.32137 0.0
C5664 C 0.52076 0.09566 0.32494 0.0
C5665 C 0.52549 0.0835 0.33029 0.0
C5666 C 0.50691 0.09759 0.32231 0.0
C5667 C 0.49763 0.08708 0.32501 0.0
C5668 C 0.50238 0.07495 0.33073 0.0
C5669 C 0.51615 0.07336 0.33334 0.0
C5670 C 0.50226 0.11072 0.31635 0.0
C5671 C 0.49297 0.06341 0.33374 0.0
C5672 C 0.45946 0.09042 0.3276 0.0
C5673 C 0.45528 0.08487 0.31531 0.0
C5674 C 0.47323 0.09212 0.33058 0.0
C5675 C 0.4831 0.08813 0.32109 0.0
C5676 C 0.4789 0.08333 0.30837 0.0
C5677 C 0.46512 0.08179 0.30564 0.0
C5678 C 0.47723 0.09743 0.34421 0.0
C5679 C 0.48899 0.07891 0.29791 0.0
H5680 H 0.52787 0.10357 0.32259 0.0
H5681 H 0.51962 0.06395 0.33758 0.0
H5682 H 0.49864 0.10902 0.30594 0.0
H5683 H 0.49369 0.1148 0.3222 0.0
H5684 H 0.51041 0.11834 0.31608 0.0
H5685 H 0.49817 0.05484 0.33864 0.0
H5686 H 0.4847 0.06682 0.34039 0.0
H5687 H 0.48833 0.05977 0.32427 0.0
H5688 H 0.45201 0.09291 0.33516 0.0
H5689 H 0.4621 0.07764 0.29603 0.0
H5690 H 0.48533 0.10503 0.34324 0.0
H5691 H 0.48122 0.08908 0.35042 0.0
H5692 H 0.46859 0.10202 0.3496 0.0
H5693 H 0.49682 0.08671 0.29649 0.0
H5694 H 0.4842 0.07681 0.28805 0.0
H5695 H 0.49412 0.06963 0.30139 0.0
C5696 C 0.68217 0.90981 0.48309 0.0
C5697 C 0.6773 0.92242 0.47906 0.0
C5698 C 0.68507 0.90714 0.49676 0.0
C5699 C 0.68325 0.91738 0.50654 0.0
C5700 C 0.67809 0.93 0.50249 0.0
C5701 C 0.67509 0.93229 0.48892 0.0
C5702 C 0.69034 0.89348 0.50069 0.0
C5703 C 0.67608 0.9413 0.51244 0.0
C5704 C 0.68108 0.913 0.54457 0.0
C5705 C 0.6938 0.91757 0.5487 0.0
C5706 C 0.67781 0.91183 0.53081 0.0
C5707 C 0.6874 0.91546 0.52091 0.0
C5708 C 0.7005 0.91924 0.52501 0.0
C5709 C 0.70355 0.92016 0.53879 0.0
C5710 C 0.6638 0.90752 0.52691 0.0
C5711 C 0.71104 0.92333 0.51488 0.0
H5712 H 0.68385 0.9021 0.47559 0.0
H5713 H 0.67122 0.94204 0.486 0.0
H5714 H 0.70093 0.89437 0.50406 0.0
H5715 H 0.68446 0.88941 0.50925 0.0
H5716 H 0.6899 0.88621 0.49223 0.0
H5717 H 0.67176 0.95044 0.50771 0.0
H5718 H 0.66929 0.93803 0.52065 0.0
H5719 H 0.68586 0.94402 0.51709 0.0
H5720 H 0.67347 0.91085 0.55206 0.0
H5721 H 0.71345 0.92359 0.54175 0.0
H5722 H 0.66415 0.90022 0.51849 0.0
H5723 H 0.65802 0.91639 0.52343 0.0
H5724 H 0.65832 0.9029 0.53547 0.0
H5725 H 0.71177 0.91578 0.50672 0.0
H5726 H 0.72112 0.92455 0.51953 0.0
H5727 H 0.70812 0.93303 0.51021 0.0
C5728 C 0.67413 0.07793 0.51608 0.0
C5729 C 0.67687 0.08749 0.5261 0.0
C5730 C 0.67702 0.08038 0.50252 0.0
C5731 C 0.68265 0.09286 0.49866 0.0
C5732 C 0.68494 0.10284 0.50861 0.0
C5733 C 0.68211 0.10001 0.52225 0.0
C5734 C 0.67448 0.06935 0.49238 0.0
C5735 C 0.69069 0.11636 0.50489 0.0
C5736 C 0.70277 0.08916 0.46649 0.0
C5737 C 0.69306 0.09194 0.45658 0.0
C5738 C 0.69983 0.09043 0.48025 0.0
C5739 C 0.68692 0.09478 0.48434 0.0
C5740 C 0.67748 0.09878 0.47442 0.0
C5741 C 0.68062 0.09723 0.46068 0.0
C5742 C 0.71021 0.08595 0.49039 0.0
C5743 C 0.6637 0.10378 0.47831 0.0
H5744 H 0.66995 0.06826 0.51886 0.0
H5745 H 0.6842 0.10749 0.52989 0.0
H5746 H 0.66782 0.07305 0.48426 0.0
H5747 H 0.68411 0.06627 0.48767 0.0
H5748 H 0.66977 0.06033 0.49698 0.0
H5749 H 0.69016 0.12361 0.51336 0.0
H5750 H 0.70137 0.11518 0.50192 0.0
H5751 H 0.68526 0.12062 0.49613 0.0
H5752 H 0.71249 0.08522 0.46355 0.0
H5753 H 0.67305 0.09955 0.45319 0.0
H5754 H 0.70695 0.07634 0.49502 0.0
H5755 H 0.71119 0.09344 0.49858 0.0
H5756 H 0.72025 0.08439 0.48575 0.0
H5757 H 0.65743 0.09516 0.48159 0.0
H5758 H 0.65855 0.10882 0.46979 0.0
H5759 H 0.66437 0.1109 0.48687 0.0
C5760 C 0.91211 0.68251 0.45959 0.0
C5761 C 0.91775 0.69479 0.45546 0.0
C5762 C 0.91049 0.67943 0.47333 0.0
C5763 C 0.91472 0.68876 0.48324 0.0
C5764 C 0.9196 0.70148 0.47913 0.0
C5765 C 0.92098 0.70436 0.46536 0.0
C5766 C 0.90502 0.66583 0.47723 0.0
C5767 C 0.92436 0.71173 0.48927 0.0
C5768 C 0.90813 0.6841 0.52097 0.0
C5769 C 0.92029 0.67834 0.5252 0.0
C5770 C 0.9059 0.68717 0.50726 0.0
C5771 C 0.91611 0.68454 0.49764 0.0
C5772 C 0.92824 0.67845 0.50189 0.0
C5773 C 0.93011 0.67536 0.5155 0.0
C5774 C 0.89274 0.69346 0.50312 0.0
C5775 C 0.9395 0.67553 0.4921 0.0
H5776 H 0.90946 0.67505 0.4521 0.0
H5777 H 0.92524 0.71393 0.4624 0.0
H5778 H 0.91337 0.65939 0.48088 0.0
H5779 H 0.89765 0.6668 0.48554 0.0
H5780 H 0.90011 0.66068 0.46862 0.0
H5781 H 0.92641 0.72166 0.4846 0.0
H5782 H 0.91678 0.71307 0.49734 0.0
H5783 H 0.93375 0.70809 0.49408 0.0
H5784 H 0.90046 0.6864 0.52836 0.0
H5785 H 0.93951 0.67079 0.51857 0.0
H5786 H 0.88835 0.6879 0.49451 0.0
H5787 H 0.89451 0.70394 0.49974 0.0
H5788 H 0.88534 0.69362 0.51147 0.0
H5789 H 0.93582 0.669 0.48385 0.0
H5790 H 0.9482 0.67051 0.49698 0.0
H5791 H 0.94305 0.68505 0.48749 0.0
C5792 C 0.32503 0.91281 0.46204 0.0
C5793 C 0.31238 0.91764 0.45802 0.0
C5794 C 0.32832 0.91137 0.47576 0.0
C5795 C 0.31879 0.91496 0.48574 0.0
C5796 C 0.30572 0.91892 0.48173 0.0
C5797 C 0.30266 0.92013 0.46799 0.0
C5798 C 0.3423 0.90688 0.47955 0.0
C5799 C 0.29524 0.92293 0.49195 0.0
C5800 C 0.32418 0.90863 0.52341 0.0
C5801 C 0.32913 0.92115 0.52764 0.0
C5802 C 0.32116 0.90623 0.50972 0.0
C5803 C 0.323 0.91663 0.50012 0.0
C5804 C 0.32824 0.92915 0.50437 0.0
C5805 C 0.3313 0.9312 0.51798 0.0
C5806 C 0.31578 0.89269 0.50558 0.0
C5807 C 0.33029 0.9406 0.4946 0.0
H5808 H 0.33262 0.91075 0.4545 0.0
H5809 H 0.2928 0.92375 0.46511 0.0
H5810 H 0.34818 0.91566 0.48311 0.0
H5811 H 0.34192 0.89949 0.4879 0.0
H5812 H 0.34769 0.9023 0.47092 0.0
H5813 H 0.28514 0.92424 0.48735 0.0
H5814 H 0.29451 0.9153 0.50004 0.0
H5815 H 0.29821 0.93257 0.49672 0.0
H5816 H 0.32251 0.90079 0.53078 0.0
H5817 H 0.33521 0.94088 0.52106 0.0
H5818 H 0.32165 0.88867 0.49699 0.0
H5819 H 0.30521 0.89373 0.50217 0.0
H5820 H 0.3161 0.88529 0.51394 0.0
H5821 H 0.33702 0.9374 0.4863 0.0
H5822 H 0.33472 0.94962 0.49947 0.0
H5823 H 0.32052 0.94348 0.49005 0.0
C5824 C 0.09906 0.32415 0.52453 0.0
C5825 C 0.08654 0.32933 0.52846 0.0
C5826 C 0.10178 0.32121 0.51088 0.0
C5827 C 0.09168 0.3233 0.50101 0.0
C5828 C 0.07917 0.3288 0.50495 0.0
C5829 C 0.07683 0.33183 0.51851 0.0
C5830 C 0.11534 0.3156 0.50707 0.0
C5831 C 0.06801 0.3311 0.4949 0.0
C5832 C 0.09623 0.32533 0.463 0.0
C5833 C 0.09131 0.31275 0.45887 0.0
C5834 C 0.0975 0.32856 0.47676 0.0
C5835 C 0.0936 0.31908 0.48666 0.0
C5836 C 0.08948 0.30609 0.48255 0.0
C5837 C 0.08848 0.30307 0.46878 0.0
C5838 C 0.1022 0.34244 0.48066 0.0
C5839 C 0.08508 0.29567 0.49268 0.0
H5840 H 0.10665 0.32224 0.53211 0.0
H5841 H 0.06715 0.33595 0.52133 0.0
H5842 H 0.11422 0.30501 0.50378 0.0
H5843 H 0.1196 0.3213 0.49849 0.0
H5844 H 0.12257 0.31593 0.51558 0.0
H5845 H 0.05894 0.33567 0.49955 0.0
H5846 H 0.07153 0.33781 0.48672 0.0
H5847 H 0.06507 0.32141 0.49023 0.0
H5848 H 0.09857 0.33289 0.45552 0.0
H5849 H 0.08476 0.29327 0.46582 0.0
H5850 H 0.10941 0.34191 0.48915 0.0
H5851 H 0.09347 0.34849 0.48405 0.0
H5852 H 0.10706 0.34775 0.47212 0.0
H5853 H 0.09256 0.29477 0.50089 0.0
H5854 H 0.08364 0.28562 0.48803 0.0
H5855 H 0.07543 0.29883 0.49729 0.0
C5856 C 0.32582 0.09439 0.5453 0.0
C5857 C 0.31322 0.0895 0.54943 0.0
C5858 C 0.32879 0.09625 0.53155 0.0
C5859 C 0.31902 0.09303 0.52168 0.0
C5860 C 0.30599 0.08913 0.52586 0.0
C5861 C 0.30323 0.08752 0.53961 0.0
C5862 C 0.34272 0.10073 0.52758 0.0
C5863 C 0.29524 0.08548 0.51577 0.0
C5864 C 0.32349 0.09914 0.48385 0.0
C5865 C 0.32815 0.08653 0.47957 0.0
C5866 C 0.32098 0.10169 0.49762 0.0
C5867 C 0.32297 0.09133 0.50724 0.0
C5868 C 0.32797 0.07874 0.50293 0.0
C5869 C 0.3306 0.07657 0.48927 0.0
C5870 C 0.31593 0.11535 0.50182 0.0
C5871 C 0.33013 0.0673 0.5127 0.0
H5872 H 0.33361 0.09608 0.55272 0.0
H5873 H 0.2934 0.08392 0.5426 0.0
H5874 H 0.34855 0.09194 0.52397 0.0
H5875 H 0.34226 0.10812 0.51925 0.0
H5876 H 0.34822 0.1053 0.53617 0.0
H5877 H 0.28522 0.08428 0.52053 0.0
H5878 H 0.2945 0.09325 0.50782 0.0
H5879 H 0.29795 0.07587 0.5108 0.0
H5880 H 0.32165 0.10692 0.47647 0.0
H5881 H 0.33434 0.06682 0.48617 0.0
H5882 H 0.32174 0.11912 0.51056 0.0
H5883 H 0.30527 0.11457 0.505 0.0
H5884 H 0.31662 0.1228 0.49353 0.0
H5885 H 0.33711 0.07043 0.52081 0.0
H5886 H 0.33431 0.0582 0.50777 0.0
H5887 H 0.32044 0.06456 0.51751 0.0
C5888 C 0.92935 0.33313 0.48806 0.0
C5889 C 0.91997 0.33022 0.47791 0.0
C5890 C 0.92684 0.33008 0.50157 0.0
C5891 C 0.91444 0.32419 0.50529 0.0
C5892 C 0.9046 0.32178 0.49522 0.0
C5893 C 0.90752 0.32471 0.4816 0.0
C5894 C 0.93776 0.33272 0.51182 0.0
C5895 C 0.89114 0.31579 0.49878 0.0
C5896 C 0.91853 0.30389 0.53728 0.0
C5897 C 0.91574 0.31351 0.54727 0.0
C5898 C 0.9171 0.30688 0.52355 0.0
C5899 C 0.91252 0.31975 0.51957 0.0
C5900 C 0.90846 0.32906 0.52958 0.0
C5901 C 0.91021 0.32588 0.5433 0.0
C5902 C 0.92168 0.29664 0.51332 0.0
C5903 C 0.90319 0.34276 0.52582 0.0
H5904 H 0.93896 0.33755 0.48543 0.0
H5905 H 0.90017 0.32249 0.47387 0.0
H5906 H 0.93391 0.33932 0.51993 0.0
H5907 H 0.94092 0.32312 0.51653 0.0
H5908 H 0.94676 0.33756 0.50732 0.0
H5909 H 0.88388 0.31651 0.49033 0.0
H5910 H 0.89242 0.30504 0.50141 0.0
H5911 H 0.88682 0.32092 0.5077 0.0
H5912 H 0.92265 0.29422 0.54012 0.0
H5913 H 0.90787 0.33338 0.55085 0.0
H5914 H 0.93124 0.30007 0.50869 0.0
H5915 H 0.91418 0.29562 0.50514 0.0
H5916 H 0.92339 0.2866 0.51788 0.0
H5917 H 0.91168 0.34926 0.52264 0.0
H5918 H 0.89801 0.34771 0.53438 0.0
H5919 H 0.8961 0.34204 0.51724 0.0
C5920 C 0.09851 0.68047 0.48141 0.0
C5921 C 0.08589 0.6757 0.47725 0.0
C5922 C 0.10107 0.68334 0.4951 0.0
C5923 C 0.09073 0.68158 0.50479 0.0
C5924 C 0.07812 0.67646 0.50062 0.0
C5925 C 0.07594 0.6735 0.48702 0.0
C5926 C 0.11472 0.68853 0.49916 0.0
C5927 C 0.06671 0.67452 0.51046 0.0
C5928 C 0.094 0.67959 0.5429 0.0
C5929 C 0.08911 0.69225 0.5468 0.0
C5930 C 0.09578 0.67631 0.52921 0.0
C5931 C 0.09246 0.68585 0.51915 0.0
C5932 C 0.08855 0.69896 0.52307 0.0
C5933 C 0.08702 0.70201 0.53678 0.0
C5934 C 0.10025 0.6623 0.52552 0.0
C5935 C 0.08481 0.70947 0.51277 0.0
H5936 H 0.10628 0.68214 0.47397 0.0
H5937 H 0.06618 0.66969 0.48402 0.0
H5938 H 0.1139 0.69923 0.50218 0.0
H5939 H 0.11856 0.68287 0.50797 0.0
H5940 H 0.12214 0.68775 0.49085 0.0
H5941 H 0.05761 0.6702 0.50564 0.0
H5942 H 0.06988 0.66775 0.51873 0.0
H5943 H 0.06395 0.68432 0.51503 0.0
H5944 H 0.09577 0.67196 0.55048 0.0
H5945 H 0.08341 0.7119 0.53958 0.0
H5946 H 0.10761 0.66259 0.51714 0.0
H5947 H 0.09145 0.6564 0.52206 0.0
H5948 H 0.10485 0.65699 0.5342 0.0
H5949 H 0.09253 0.71004 0.50476 0.0
H5950 H 0.08363 0.71959 0.51733 0.0
H5951 H 0.07517 0.70663 0.50794 0.0
C5952 C 0.0847 0.16922 0.5289 0.0
C5953 C 0.07167 0.1643 0.53104 0.0
C5954 C 0.09028 0.16922 0.51593 0.0
C5955 C 0.08254 0.16436 0.50501 0.0
C5956 C 0.07042 0.15739 0.50758 0.0
C5957 C 0.06512 0.15745 0.5206 0.0
C5958 C 0.1036 0.17608 0.51365 0.0
C5959 C 0.06199 0.15171 0.49631 0.0
C5960 C 0.07943 0.18822 0.47577 0.0
C5961 C 0.08615 0.18141 0.46544 0.0
C5962 C 0.07847 0.1828 0.48865 0.0
C5963 C 0.08455 0.17023 0.49143 0.0
C5964 C 0.09152 0.16329 0.48112 0.0
C5965 C 0.09216 0.16895 0.46814 0.0
C5966 C 0.07066 0.19051 0.49919 0.0
C5967 C 0.09849 0.1501 0.4838 0.0
H5968 H 0.08999 0.17423 0.53701 0.0
H5969 H 0.05525 0.15317 0.52232 0.0
H5970 H 0.10933 0.17102 0.50553 0.0
H5971 H 0.10181 0.18663 0.51051 0.0
H5972 H 0.10977 0.1762 0.52295 0.0
H5973 H 0.05454 0.14429 0.50008 0.0
H5974 H 0.05643 0.16002 0.49136 0.0
H5975 H 0.06837 0.14681 0.48861 0.0
H5976 H 0.07464 0.19779 0.47373 0.0
H5977 H 0.09751 0.16373 0.4602 0.0
H5978 H 0.07728 0.19293 0.50783 0.0
H5979 H 0.06223 0.18429 0.50302 0.0
H5980 H 0.06644 0.20006 0.49526 0.0
H5981 H 0.10796 0.15206 0.48936 0.0
H5982 H 0.10104 0.14475 0.47433 0.0
H5983 H 0.09222 0.14341 0.49015 0.0
C5984 C 0.8268 0.07231 0.47578 0.0
C5985 C 0.83134 0.0818 0.46647 0.0
C5986 C 0.83187 0.07195 0.48883 0.0
C5987 C 0.84182 0.08137 0.49274 0.0
C5988 C 0.84712 0.09047 0.48314 0.0
C5989 C 0.84178 0.09058 0.47002 0.0
C5990 C 0.82605 0.06184 0.49859 0.0
C5991 C 0.85784 0.10054 0.4868 0.0
C5992 C 0.83672 0.08418 0.52972 0.0
C5993 C 0.84409 0.07292 0.5338 0.0
C5994 C 0.83746 0.08869 0.51637 0.0
C5995 C 0.84581 0.08177 0.50712 0.0
C5996 C 0.85501 0.07206 0.51191 0.0
C5997 C 0.8539 0.06758 0.52521 0.0
C5998 C 0.82783 0.09944 0.51174 0.0
C5999 C 0.86458 0.06496 0.50255 0.0
H6000 H 0.81886 0.06539 0.47294 0.0
H6001 H 0.84526 0.09798 0.46281 0.0
H6002 H 0.83417 0.05549 0.50284 0.0
H6003 H 0.8211 0.06714 0.50707 0.0
H6004 H 0.81852 0.05513 0.4938 0.0
H6005 H 0.86376 0.10356 0.47783 0.0
H6006 H 0.85299 0.10969 0.49093 0.0
H6007 H 0.8648 0.09653 0.49454 0.0
H6008 H 0.82927 0.08846 0.53643 0.0
H6009 H 0.85988 0.05908 0.52851 0.0
H6010 H 0.81904 0.09462 0.50683 0.0
H6011 H 0.83268 0.10613 0.50426 0.0
H6012 H 0.82413 0.10561 0.52027 0.0
H6013 H 0.85916 0.05675 0.49728 0.0
H6014 H 0.87314 0.06046 0.50813 0.0
H6015 H 0.86854 0.07196 0.49482 0.0
C6016 C 0.92561 0.84602 0.52762 0.0
C6017 C 0.93731 0.83818 0.5283 0.0
C6018 C 0.91901 0.84806 0.51526 0.0
C6019 C 0.92412 0.84183 0.50351 0.0
C6020 C 0.93603 0.83404 0.50423 0.0
C6021 C 0.94251 0.83247 0.51655 0.0
C6022 C 0.90677 0.85701 0.51478 0.0
C6023 C 0.94175 0.82688 0.49208 0.0
C6024 C 0.90585 0.82694 0.47473 0.0
C6025 C 0.91261 0.83329 0.46413 0.0
C6026 C 0.90779 0.8311 0.48801 0.0
C6027 C 0.91661 0.84193 0.49062 0.0
C6028 C 0.92135 0.84989 0.4798 0.0
C6029 C 0.91942 0.84537 0.46654 0.0
C6030 C 0.90221 0.82249 0.49919 0.0
C6031 C 0.92999 0.86208 0.48226 0.0
H6032 H 0.92173 0.85064 0.5367 0.0
H6033 H 0.95151 0.82634 0.51706 0.0
H6034 H 0.90966 0.86682 0.51035 0.0
H6035 H 0.89879 0.85268 0.50831 0.0
H6036 H 0.90257 0.85886 0.52496 0.0
H6037 H 0.95092 0.821 0.49451 0.0
H6038 H 0.93417 0.81991 0.48781 0.0
H6039 H 0.94439 0.83428 0.48417 0.0
H6040 H 0.90014 0.81786 0.4728 0.0
H6041 H 0.92436 0.85053 0.45831 0.0
H6042 H 0.89871 0.82876 0.50771 0.0
H6043 H 0.91026 0.81576 0.50299 0.0
H6044 H 0.89371 0.81614 0.49568 0.0
H6045 H 0.9266 0.86756 0.49137 0.0
H6046 H 0.92979 0.86902 0.47352 0.0
H6047 H 0.94054 0.85886 0.48391 0.0
C6048 C 0.17768 0.93544 0.47822 0.0
C6049 C 0.17346 0.92599 0.46871 0.0
C6050 C 0.1728 0.93518 0.49135 0.0
C6051 C 0.16338 0.92518 0.49513 0.0
C6052 C 0.15836 0.91613 0.48533 0.0
C6053 C 0.1635 0.91664 0.47214 0.0
C6054 C 0.17829 0.94527 0.50132 0.0
C6055 C 0.1482 0.90544 0.48884 0.0
C6056 C 0.16943 0.92157 0.53187 0.0
C6057 C 0.16164 0.93236 0.53643 0.0
C6058 C 0.16857 0.91737 0.51843 0.0
C6059 C 0.15969 0.92413 0.50956 0.0
C6060 C 0.15013 0.93321 0.51484 0.0
C6061 C 0.15133 0.93738 0.52823 0.0
C6062 C 0.17861 0.90724 0.51328 0.0
C6063 C 0.14001 0.94009 0.50589 0.0
H6064 H 0.18527 0.94277 0.47548 0.0
H6065 H 0.16029 0.90927 0.46477 0.0
H6066 H 0.16996 0.95104 0.50595 0.0
H6067 H 0.1837 0.93996 0.50951 0.0
H6068 H 0.18536 0.95252 0.49661 0.0
H6069 H 0.14226 0.90243 0.47988 0.0
H6070 H 0.15357 0.8964 0.49256 0.0
H6071 H 0.14122 0.90884 0.49684 0.0
H6072 H 0.17729 0.91754 0.53827 0.0
H6073 H 0.14505 0.94551 0.53189 0.0
H6074 H 0.18707 0.91262 0.50838 0.0
H6075 H 0.17394 0.90056 0.50568 0.0
H6076 H 0.18275 0.90099 0.52155 0.0
H6077 H 0.1449 0.94873 0.50079 0.0
H6078 H 0.13135 0.94397 0.51178 0.0
H6079 H 0.13625 0.93314 0.49802 0.0
C6080 C 0.06889 0.82691 0.48958 0.0
C6081 C 0.07213 0.8347 0.47835 0.0
C6082 C 0.07502 0.82918 0.50198 0.0
C6083 C 0.08451 0.83974 0.5033 0.0
C6084 C 0.08803 0.84755 0.49192 0.0
C6085 C 0.08183 0.84486 0.47947 0.0
C6086 C 0.07117 0.82028 0.5137 0.0
C6087 C 0.09785 0.85906 0.49293 0.0
C6088 C 0.08497 0.84523 0.54028 0.0
C6089 C 0.09417 0.83519 0.54377 0.0
C6090 C 0.08318 0.84878 0.52672 0.0
C6091 C 0.09069 0.84198 0.5167 0.0
C6092 C 0.10163 0.83376 0.52052 0.0
C6093 C 0.10319 0.83039 0.53408 0.0
C6094 C 0.07189 0.85818 0.52302 0.0
C6095 C 0.11021 0.82668 0.51022 0.0
H6096 H 0.06147 0.81898 0.48865 0.0
H6097 H 0.08419 0.85099 0.47077 0.0
H6098 H 0.08025 0.8154 0.51795 0.0
H6099 H 0.06651 0.82641 0.52176 0.0
H6100 H 0.06394 0.81228 0.51079 0.0
H6101 H 0.1021 0.86171 0.48295 0.0
H6102 H 0.09253 0.86801 0.4969 0.0
H6103 H 0.10621 0.85673 0.49992 0.0
H6104 H 0.07811 0.8491 0.54782 0.0
H6105 H 0.11055 0.82284 0.53689 0.0
H6106 H 0.06283 0.8522 0.52044 0.0
H6107 H 0.07461 0.86431 0.51412 0.0
H6108 H 0.0693 0.86497 0.5315 0.0
H6109 H 0.10477 0.81768 0.50649 0.0
H6110 H 0.11992 0.82332 0.5146 0.0
H6111 H 0.11228 0.83329 0.50149 0.0
C6112 C 0.15121 0.06727 0.48319 0.0
C6113 C 0.16 0.07343 0.47406 0.0
C6114 C 0.15041 0.07173 0.49652 0.0
C6115 C 0.15885 0.08235 0.50076 0.0
C6116 C 0.16595 0.08997 0.49104 0.0
C6117 C 0.16644 0.0854 0.4777 0.0
C6118 C 0.14217 0.06376 0.50643 0.0
C6119 C 0.17465 0.1017 0.49509 0.0
C6120 C 0.16347 0.0911 0.53784 0.0
C6121 C 0.1748 0.08329 0.54089 0.0
C6122 C 0.15779 0.09077 0.52486 0.0
C6123 C 0.16365 0.08244 0.51489 0.0
C6124 C 0.17468 0.07408 0.51824 0.0
C6125 C 0.18006 0.07462 0.53115 0.0
C6126 C 0.146 0.09978 0.52176 0.0
C6127 C 0.18116 0.0648 0.50807 0.0
H6128 H 0.14585 0.05824 0.48026 0.0
H6129 H 0.17304 0.09036 0.47058 0.0
H6130 H 0.14871 0.05625 0.51144 0.0
H6131 H 0.13789 0.07039 0.51432 0.0
H6132 H 0.13384 0.05831 0.50136 0.0
H6133 H 0.17709 0.10821 0.48635 0.0
H6134 H 0.16962 0.10784 0.50291 0.0
H6135 H 0.18421 0.09786 0.49937 0.0
H6136 H 0.15943 0.09787 0.54537 0.0
H6137 H 0.18869 0.0684 0.53358 0.0
H6138 H 0.13908 0.0951 0.51437 0.0
H6139 H 0.14976 0.10931 0.51737 0.0
H6140 H 0.14027 0.10229 0.53101 0.0
H6141 H 0.17361 0.05765 0.50404 0.0
H6142 H 0.18957 0.05889 0.51242 0.0
H6143 H 0.18514 0.07072 0.4995 0.0
C6144 C 0.9197 0.16134 0.5396 0.0
C6145 C 0.91136 0.17228 0.54255 0.0
C6146 C 0.92164 0.15734 0.52619 0.0
C6147 C 0.91523 0.16463 0.51576 0.0
C6148 C 0.905 0.17394 0.51899 0.0
C6149 C 0.90321 0.17769 0.53242 0.0
C6150 C 0.93201 0.14674 0.5231 0.0
C6151 C 0.89759 0.18166 0.50824 0.0
C6152 C 0.93902 0.17759 0.48926 0.0
C6153 C 0.93501 0.17051 0.4778 0.0
C6154 C 0.93266 0.17562 0.50158 0.0
C6155 C 0.92212 0.16607 0.5026 0.0
C6156 C 0.91801 0.1588 0.49106 0.0
C6157 C 0.92446 0.16122 0.47868 0.0
C6158 C 0.93721 0.18393 0.51349 0.0
C6159 C 0.90718 0.14821 0.4918 0.0
H6160 H 0.92582 0.15694 0.54748 0.0
H6161 H 0.89644 0.1859 0.5348 0.0
H6162 H 0.92906 0.14082 0.51412 0.0
H6163 H 0.94177 0.15167 0.52091 0.0
H6164 H 0.93345 0.13982 0.53174 0.0
H6165 H 0.88819 0.1862 0.51219 0.0
H6166 H 0.90413 0.18988 0.50448 0.0
H6167 H 0.89506 0.17509 0.4996 0.0
H6168 H 0.94711 0.18486 0.48853 0.0
H6169 H 0.92151 0.15561 0.46981 0.0
H6170 H 0.94108 0.17726 0.52154 0.0
H6171 H 0.92862 0.18967 0.51768 0.0
H6172 H 0.94528 0.19117 0.51081 0.0
H6173 H 0.91158 0.13883 0.49591 0.0
H6174 H 0.90294 0.14594 0.48172 0.0
H6175 H 0.89889 0.15129 0.49859 0.0
C6176 C 0.85147 0.94086 0.48191 0.0
C6177 C 0.84376 0.93452 0.47195 0.0
C6178 C 0.85194 0.93574 0.495 0.0
C6179 C 0.84442 0.9241 0.49814 0.0
C6180 C 0.83863 0.91645 0.48762 0.0
C6181 C 0.83832 0.92179 0.47455 0.0
C6182 C 0.85866 0.94398 0.50582 0.0
C6183 C 0.83108 0.90363 0.49048 0.0
C6184 C 0.83989 0.91456 0.53507 0.0
C6185 C 0.82784 0.92127 0.53798 0.0
C6186 C 0.84552 0.91518 0.52208 0.0
C6187 C 0.83893 0.92276 0.51196 0.0
C6188 C 0.8269 0.92973 0.51504 0.0
C6189 C 0.82155 0.92887 0.52795 0.0
C6190 C 0.8582 0.90741 0.51914 0.0
C6191 C 0.81956 0.93816 0.50471 0.0
H6192 H 0.85613 0.95049 0.47981 0.0
H6193 H 0.83263 0.91666 0.4668 0.0
H6194 H 0.851 0.95029 0.51091 0.0
H6195 H 0.86335 0.93742 0.51352 0.0
H6196 H 0.86648 0.95072 0.50157 0.0
H6197 H 0.83011 0.89733 0.48131 0.0
H6198 H 0.83618 0.89772 0.49845 0.0
H6199 H 0.82083 0.90614 0.49409 0.0
H6200 H 0.84469 0.90856 0.5428 0.0
H6201 H 0.81232 0.93422 0.5302 0.0
H6202 H 0.86503 0.91315 0.51245 0.0
H6203 H 0.85553 0.89795 0.51389 0.0
H6204 H 0.86368 0.90476 0.5285 0.0
H6205 H 0.82628 0.94616 0.50082 0.0
H6206 H 0.81041 0.94302 0.50887 0.0
H6207 H 0.8165 0.9318 0.49608 0.0
C6208 C 0.46744 0.0935 0.16678 0.0
C6209 C 0.46455 0.08676 0.17882 0.0
C6210 C 0.48051 0.09321 0.16132 0.0
C6211 C 0.49068 0.08568 0.16789 0.0
C6212 C 0.48763 0.07868 0.17991 0.0
C6213 C 0.47469 0.0794 0.18522 0.0
C6214 C 0.48328 0.10088 0.14854 0.0
C6215 C 0.49802 0.0703 0.18723 0.0
C6216 C 0.52061 0.06761 0.15499 0.0
C6217 C 0.5306 0.07376 0.16283 0.0
C6218 C 0.50754 0.07279 0.15463 0.0
C6219 C 0.50448 0.08433 0.16233 0.0
C6220 C 0.51506 0.09187 0.16817 0.0
C6221 C 0.52809 0.08643 0.16844 0.0
C6222 C 0.49666 0.06474 0.14779 0.0
C6223 C 0.51227 0.10466 0.17579 0.0
H6224 H 0.4596 0.09922 0.16182 0.0
H6225 H 0.47246 0.07403 0.19444 0.0
H6226 H 0.49383 0.10446 0.14805 0.0
H6227 H 0.48148 0.09418 0.13981 0.0
H6228 H 0.47644 0.10964 0.14754 0.0
H6229 H 0.49385 0.0653 0.1963 0.0
H6230 H 0.50205 0.06242 0.18045 0.0
H6231 H 0.50655 0.07672 0.19042 0.0
H6232 H 0.52267 0.05804 0.15019 0.0
H6233 H 0.53587 0.09142 0.17421 0.0
H6234 H 0.48934 0.07147 0.14277 0.0
H6235 H 0.49114 0.05878 0.15543 0.0
H6236 H 0.50088 0.0577 0.14022 0.0
H6237 H 0.50425 0.11059 0.17078 0.0
H6238 H 0.52145 0.11094 0.17669 0.0
H6239 H 0.50875 0.10213 0.18606 0.0
C6240 C 0.91961 0.46606 0.16087 0.0
C6241 C 0.91122 0.46331 0.17182 0.0
C6242 C 0.92183 0.47943 0.15686 0.0
C6243 C 0.91567 0.49 0.16415 0.0
C6244 C 0.90538 0.487 0.17348 0.0
C6245 C 0.90328 0.47362 0.17722 0.0
C6246 C 0.93223 0.48229 0.14623 0.0
C6247 C 0.89824 0.49792 0.18122 0.0
C6248 C 0.93999 0.51606 0.17702 0.0
C6249 C 0.93613 0.5276 0.16999 0.0
C6250 C 0.93342 0.50385 0.17505 0.0
C6251 C 0.92282 0.50302 0.16555 0.0
C6252 C 0.91887 0.51465 0.15832 0.0
C6253 C 0.92553 0.52691 0.16074 0.0
C6254 C 0.9378 0.49185 0.18332 0.0
C6255 C 0.90799 0.5141 0.14777 0.0
H6256 H 0.92555 0.45805 0.15648 0.0
H6257 H 0.89646 0.47139 0.18543 0.0
H6258 H 0.92947 0.49133 0.14032 0.0
H6259 H 0.94206 0.48425 0.15113 0.0
H6260 H 0.93346 0.47361 0.13931 0.0
H6261 H 0.88878 0.49417 0.18584 0.0
H6262 H 0.90491 0.50156 0.1894 0.0
H6263 H 0.89585 0.5066 0.17466 0.0
H6264 H 0.94814 0.51665 0.18424 0.0
H6265 H 0.9227 0.53584 0.15516 0.0
H6266 H 0.94153 0.48376 0.17662 0.0
H6267 H 0.92916 0.48779 0.18907 0.0
H6268 H 0.94592 0.49439 0.19055 0.0
H6269 H 0.91228 0.50988 0.13838 0.0
H6270 H 0.90395 0.52426 0.14549 0.0
H6271 H 0.89958 0.50748 0.15088 0.0
C6272 C 0.49026 0.9401 0.17805 0.0
C6273 C 0.4786 0.93584 0.17145 0.0
C6274 C 0.50252 0.93362 0.17604 0.0
C6275 C 0.50326 0.92267 0.16695 0.0
C6276 C 0.49154 0.91835 0.16009 0.0
C6277 C 0.47924 0.92495 0.16254 0.0
C6278 C 0.51463 0.93843 0.18389 0.0
C6279 C 0.492 0.90709 0.14995 0.0
C6280 C 0.54018 0.91934 0.16192 0.0
C6281 C 0.54312 0.9114 0.17316 0.0
C6282 C 0.52675 0.92138 0.158 0.0
C6283 C 0.51629 0.9155 0.16568 0.0
C6284 C 0.51944 0.90563 0.1754 0.0
C6285 C 0.53288 0.9037 0.17903 0.0
C6286 C 0.52373 0.93132 0.14699 0.0
C6287 C 0.50865 0.89881 0.18358 0.0
H6288 H 0.48975 0.94845 0.18504 0.0
H6289 H 0.47022 0.92179 0.15728 0.0
H6290 H 0.51885 0.93008 0.18996 0.0
H6291 H 0.52259 0.9419 0.1769 0.0
H6292 H 0.51217 0.94685 0.1908 0.0
H6293 H 0.48182 0.90297 0.14788 0.0
H6294 H 0.49618 0.91101 0.14039 0.0
H6295 H 0.49863 0.89879 0.15334 0.0
H6296 H 0.54812 0.92509 0.15715 0.0
H6297 H 0.53523 0.89719 0.18746 0.0
H6298 H 0.52182 0.94135 0.15149 0.0
H6299 H 0.5146 0.9283 0.14132 0.0
H6300 H 0.53231 0.93225 0.1399 0.0
H6301 H 0.50507 0.90582 0.1915 0.0
H6302 H 0.51248 0.88958 0.18856 0.0
H6303 H 0.4999 0.89609 0.17723 0.0
C6304 C 0.08626 0.53645 0.1603 0.0
C6305 C 0.09495 0.53968 0.17088 0.0
C6306 C 0.0841 0.52293 0.15681 0.0
C6307 C 0.09064 0.51269 0.16423 0.0
C6308 C 0.10118 0.51613 0.17312 0.0
C6309 C 0.10319 0.52966 0.17636 0.0
C6310 C 0.07336 0.51959 0.14665 0.0
C6311 C 0.10874 0.50557 0.18095 0.0
C6312 C 0.06693 0.48681 0.17856 0.0
C6313 C 0.07053 0.47516 0.17159 0.0
C6314 C 0.07345 0.49899 0.17616 0.0
C6315 C 0.0837 0.49963 0.16629 0.0
C6316 C 0.08744 0.48787 0.15918 0.0
C6317 C 0.08085 0.47566 0.16202 0.0
C6318 C 0.0693 0.51115 0.18431 0.0
C6319 C 0.09799 0.48819 0.1483 0.0
H6320 H 0.08005 0.54423 0.15586 0.0
H6321 H 0.11022 0.53225 0.1843 0.0
H6322 H 0.07606 0.51041 0.14092 0.0
H6323 H 0.06375 0.51763 0.15196 0.0
H6324 H 0.07175 0.52803 0.13952 0.0
H6325 H 0.11833 0.50958 0.18504 0.0
H6326 H 0.10244 0.50218 0.18952 0.0
H6327 H 0.11096 0.49668 0.17461 0.0
H6328 H 0.05901 0.48638 0.18604 0.0
H6329 H 0.08347 0.46664 0.1565 0.0
H6330 H 0.06531 0.51907 0.17757 0.0
H6331 H 0.07813 0.51538 0.18967 0.0
H6332 H 0.06145 0.50874 0.19188 0.0
H6333 H 0.09339 0.49211 0.13893 0.0
H6334 H 0.10205 0.478 0.14618 0.0
H6335 H 0.10644 0.49496 0.15096 0.0
C6336 C 0.47469 0.93346 0.82787 0.0
C6337 C 0.46535 0.92401 0.83246 0.0
C6338 C 0.48776 0.93378 0.83289 0.0
C6339 C 0.49166 0.92439 0.84287 0.0
C6340 C 0.48202 0.91538 0.84825 0.0
C6341 C 0.46888 0.91528 0.84293 0.0
C6342 C 0.49757 0.9438 0.82697 0.0
C6343 C 0.48566 0.90537 0.85903 0.0
C6344 C 0.52863 0.92118 0.83772 0.0
C6345 C 0.53287 0.93243 0.84502 0.0
C6346 C 0.51522 0.91685 0.83849 0.0
C6347 C 0.50606 0.92393 0.8468 0.0
C6348 C 0.51097 0.93367 0.8559 0.0
C6349 C 0.52433 0.93797 0.85475 0.0
C6350 C 0.51045 0.90609 0.82893 0.0
C6351 C 0.50169 0.94094 0.86543 0.0
H6352 H 0.47187 0.94035 0.81989 0.0
H6353 H 0.46165 0.90792 0.84645 0.0
H6354 H 0.50187 0.95019 0.83503 0.0
H6355 H 0.506 0.93841 0.82205 0.0
H6356 H 0.49279 0.95047 0.8194 0.0
H6357 H 0.47668 0.90239 0.86496 0.0
H6358 H 0.48978 0.89619 0.85424 0.0
H6359 H 0.4934 0.90941 0.86596 0.0
H6360 H 0.5353 0.91675 0.83032 0.0
H6361 H 0.52774 0.94647 0.86068 0.0
H6362 H 0.50554 0.91091 0.82014 0.0
H6363 H 0.50293 0.89949 0.83384 0.0
H6364 H 0.51892 0.89982 0.82522 0.0
H6365 H 0.49649 0.94915 0.85996 0.0
H6366 H 0.50734 0.94546 0.87394 0.0
H6367 H 0.49391 0.93405 0.86947 0.0
C6368 C 0.06826 0.51733 0.82723 0.0
C6369 C 0.07151 0.52886 0.83456 0.0
C6370 C 0.0747 0.50513 0.8297 0.0
C6371 C 0.08451 0.50432 0.84 0.0
C6372 C 0.08795 0.51599 0.84743 0.0
C6373 C 0.08145 0.52823 0.84452 0.0
C6374 C 0.0709 0.49309 0.8212 0.0
C6375 C 0.09806 0.5155 0.85872 0.0
C6376 C 0.0865 0.46746 0.84593 0.0
C6377 C 0.0956 0.46419 0.83571 0.0
C6378 C 0.08429 0.48098 0.84937 0.0
C6379 C 0.09124 0.49119 0.84226 0.0
C6380 C 0.10211 0.48768 0.83382 0.0
C6381 C 0.10413 0.47415 0.83059 0.0
C6382 C 0.07314 0.48438 0.85903 0.0
C6383 C 0.1101 0.49821 0.82637 0.0
H6384 H 0.06064 0.51788 0.81945 0.0
H6385 H 0.08381 0.53716 0.85031 0.0
H6386 H 0.07995 0.48893 0.81618 0.0
H6387 H 0.06662 0.48507 0.82765 0.0
H6388 H 0.06339 0.49561 0.81334 0.0
H6389 H 0.10206 0.52565 0.8611 0.0
H6390 H 0.09307 0.51151 0.86786 0.0
H6391 H 0.10659 0.50873 0.85632 0.0
H6392 H 0.08004 0.45972 0.85006 0.0
H6393 H 0.11143 0.47153 0.82293 0.0
H6394 H 0.0638 0.48648 0.85329 0.0
H6395 H 0.07567 0.49349 0.86495 0.0
H6396 H 0.0711 0.47592 0.86603 0.0
H6397 H 0.10424 0.50166 0.81752 0.0
H6398 H 0.11985 0.49415 0.82273 0.0
H6399 H 0.11207 0.50708 0.83283 0.0
C6400 C 0.47548 0.08309 0.83765 0.0
C6401 C 0.4714 0.07164 0.84472 0.0
C6402 C 0.48886 0.08752 0.8384 0.0
C6403 C 0.49815 0.08033 0.84649 0.0
C6404 C 0.49338 0.07038 0.85543 0.0
C6405 C 0.48005 0.066 0.85431 0.0
C6406 C 0.49345 0.09844 0.82895 0.0
C6407 C 0.50279 0.0629 0.86467 0.0
C6408 C 0.52921 0.07094 0.827 0.0
C6409 C 0.5387 0.08019 0.83168 0.0
C6410 C 0.51618 0.07068 0.83211 0.0
C6411 C 0.51247 0.07993 0.84229 0.0
C6412 C 0.52221 0.08884 0.84765 0.0
C6413 C 0.53534 0.08882 0.84231 0.0
C6414 C 0.50624 0.06084 0.82613 0.0
C6415 C 0.51873 0.09854 0.85878 0.0
H6416 H 0.46873 0.0876 0.83037 0.0
H6417 H 0.47675 0.05736 0.86008 0.0
H6418 H 0.50133 0.10476 0.83364 0.0
H6419 H 0.49781 0.09375 0.81981 0.0
H6420 H 0.48495 0.10496 0.8258 0.0
H6421 H 0.49727 0.05821 0.87316 0.0
H6422 H 0.50789 0.05479 0.85894 0.0
H6423 H 0.51064 0.06968 0.86874 0.0
H6424 H 0.53189 0.06412 0.81892 0.0
H6425 H 0.54273 0.09596 0.84595 0.0
H6426 H 0.49774 0.06635 0.82146 0.0
H6427 H 0.50205 0.05428 0.8341 0.0
H6428 H 0.51086 0.05431 0.81833 0.0
H6429 H 0.50916 0.10382 0.85659 0.0
H6430 H 0.52676 0.10613 0.86039 0.0
H6431 H 0.5173 0.09288 0.86828 0.0
C6432 C 0.93958 0.48947 0.82664 0.0
C6433 C 0.93606 0.478 0.83394 0.0
C6434 C 0.93311 0.5017 0.82883 0.0
C6435 C 0.92297 0.50261 0.83881 0.0
C6436 C 0.9193 0.49102 0.84624 0.0
C6437 C 0.92585 0.47874 0.84361 0.0
C6438 C 0.93717 0.51366 0.82034 0.0
C6439 C 0.90888 0.49162 0.85724 0.0
C6440 C 0.92064 0.53955 0.84403 0.0
C6441 C 0.91185 0.54258 0.83349 0.0
C6442 C 0.92279 0.5261 0.8478 0.0
C6443 C 0.91611 0.51573 0.84067 0.0
C6444 C 0.90548 0.51903 0.83183 0.0
C6445 C 0.9035 0.53249 0.82831 0.0
C6446 C 0.93363 0.52293 0.85789 0.0
C6447 C 0.89778 0.50833 0.82433 0.0
H6448 H 0.94741 0.48884 0.81909 0.0
H6449 H 0.92329 0.46985 0.84938 0.0
H6450 H 0.92829 0.51777 0.815 0.0
H6451 H 0.94126 0.52174 0.82685 0.0
H6452 H 0.94492 0.51106 0.81274 0.0
H6453 H 0.90481 0.48149 0.8596 0.0
H6454 H 0.91362 0.4957 0.86647 0.0
H6455 H 0.90043 0.49837 0.85453 0.0
H6456 H 0.92694 0.54739 0.84823 0.0
H6457 H 0.89641 0.53493 0.82039 0.0
H6458 H 0.94317 0.5208 0.8525 0.0
H6459 H 0.93096 0.51389 0.86386 0.0
H6460 H 0.93538 0.53151 0.86481 0.0
H6461 H 0.90395 0.50472 0.81576 0.0
H6462 H 0.88815 0.51229 0.82028 0.0
H6463 H 0.89561 0.49959 0.83089 0.0
C6464 C 0.16275 0.46976 0.09039 0.0
C6465 C 0.17529 0.4678 0.09652 0.0
C6466 C 0.15809 0.48285 0.08779 0.0
C6467 C 0.16636 0.49397 0.09107 0.0
C6468 C 0.1778 0.492 0.09925 0.0
C6469 C 0.18208 0.4789 0.10196 0.0
C6470 C 0.14516 0.48473 0.08012 0.0
C6471 C 0.18665 0.50359 0.10347 0.0
C6472 C 0.17397 0.51817 0.06301 0.0
C6473 C 0.1693 0.5304 0.06817 0.0
C6474 C 0.17248 0.50621 0.07016 0.0
C6475 C 0.16577 0.50634 0.08273 0.0
C6476 C 0.1603 0.51854 0.08768 0.0
C6477 C 0.16236 0.53052 0.08044 0.0
C6478 C 0.1788 0.49357 0.06451 0.0
C6479 C 0.15261 0.51918 0.10073 0.0
H6480 H 0.15721 0.46121 0.08654 0.0
H6481 H 0.19149 0.47739 0.10725 0.0
H6482 H 0.14004 0.49414 0.08325 0.0
H6483 H 0.14738 0.48547 0.06922 0.0
H6484 H 0.13825 0.4761 0.08168 0.0
H6485 H 0.19435 0.5005 0.11094 0.0
H6486 H 0.19189 0.50772 0.09452 0.0
H6487 H 0.18049 0.51175 0.10788 0.0
H6488 H 0.17937 0.51801 0.05355 0.0
H6489 H 0.15855 0.53994 0.08438 0.0
H6490 H 0.171 0.48578 0.0629 0.0
H6491 H 0.18627 0.48947 0.07171 0.0
H6492 H 0.18397 0.49536 0.05478 0.0
H6493 H 0.14887 0.50919 0.10399 0.0
H6494 H 0.14392 0.52613 0.09975 0.0
H6495 H 0.15923 0.52331 0.1087 0.0
C6496 C 0.15257 0.48206 0.93824 0.0
C6497 C 0.16226 0.4731 0.93331 0.0
C6498 C 0.15162 0.49515 0.93314 0.0
C6499 C 0.1608 0.49933 0.92313 0.0
C6500 C 0.16894 0.48963 0.9166 0.0
C6501 C 0.16958 0.47651 0.92179 0.0
C6502 C 0.14229 0.50499 0.93991 0.0
C6503 C 0.17849 0.49358 0.90553 0.0
C6504 C 0.1649 0.53614 0.91306 0.0
C6505 C 0.17544 0.53993 0.92161 0.0
C6506 C 0.1596 0.523 0.91357 0.0
C6507 C 0.16503 0.51365 0.92286 0.0
C6508 C 0.17516 0.51779 0.93197 0.0
C6509 C 0.18021 0.53084 0.9312 0.0
C6510 C 0.14875 0.51906 0.90375 0.0
C6511 C 0.18112 0.50831 0.94227 0.0
H6512 H 0.1466 0.47928 0.94693 0.0
H6513 H 0.17692 0.46952 0.91781 0.0
H6514 H 0.14792 0.51056 0.94777 0.0
H6515 H 0.13834 0.51244 0.9326 0.0
H6516 H 0.13371 0.49978 0.94479 0.0
H6517 H 0.18186 0.4847 0.89965 0.0
H6518 H 0.17372 0.50091 0.89862 0.0
H6519 H 0.18749 0.49844 0.91 0.0
H6520 H 0.16126 0.54318 0.90558 0.0
H6521 H 0.18824 0.53386 0.93793 0.0
H6522 H 0.14174 0.51159 0.90814 0.0
H6523 H 0.15348 0.51446 0.89477 0.0
H6524 H 0.14291 0.52796 0.90038 0.0
H6525 H 0.1731 0.50427 0.94886 0.0
H6526 H 0.18877 0.51328 0.94872 0.0
H6527 H 0.18598 0.49968 0.93714 0.0
C6528 C 0.46745 0.16276 0.91547 0.0
C6529 C 0.46317 0.17172 0.92544 0.0
C6530 C 0.48078 0.15797 0.91539 0.0
C6531 C 0.48984 0.16238 0.92547 0.0
C6532 C 0.48509 0.17052 0.93616 0.0
C6533 C 0.47182 0.17504 0.936 0.0
C6534 C 0.48529 0.14899 0.90404 0.0
C6535 C 0.49426 0.17533 0.9473 0.0
C6536 C 0.52387 0.15174 0.93685 0.0
C6537 C 0.53144 0.16274 0.93241 0.0
C6538 C 0.5105 0.15007 0.93272 0.0
C6539 C 0.50454 0.15999 0.92448 0.0
C6540 C 0.51273 0.17003 0.91852 0.0
C6541 C 0.52621 0.17121 0.9225 0.0
C6542 C 0.50232 0.13874 0.93859 0.0
C6543 C 0.50682 0.18069 0.90951 0.0
H6544 H 0.46072 0.16024 0.90727 0.0
H6545 H 0.46839 0.18189 0.94376 0.0
H6546 H 0.48916 0.1553 0.89571 0.0
H6547 H 0.49344 0.14208 0.90724 0.0
H6548 H 0.47676 0.14297 0.90007 0.0
H6549 H 0.48882 0.18132 0.955 0.0
H6550 H 0.49906 0.16666 0.95238 0.0
H6551 H 0.50239 0.18168 0.94304 0.0
H6552 H 0.52805 0.14503 0.94436 0.0
H6553 H 0.53213 0.17968 0.91902 0.0
H6554 H 0.49468 0.13513 0.93131 0.0
H6555 H 0.49696 0.14238 0.94767 0.0
H6556 H 0.50883 0.13018 0.9416 0.0
H6557 H 0.49984 0.17615 0.9021 0.0
H6558 H 0.51473 0.18635 0.90402 0.0
H6559 H 0.50098 0.18792 0.91569 0.0
C6560 C 0.85692 0.52585 0.93779 0.0
C6561 C 0.84739 0.53488 0.93264 0.0
C6562 C 0.85759 0.51261 0.93305 0.0
C6563 C 0.8483 0.50835 0.92317 0.0
C6564 C 0.84034 0.51803 0.91639 0.0
C6565 C 0.83999 0.53129 0.92122 0.0
C6566 C 0.86673 0.50277 0.94006 0.0
C6567 C 0.83069 0.51397 0.90544 0.0
C6568 C 0.84349 0.47142 0.91388 0.0
C6569 C 0.83287 0.46801 0.92249 0.0
C6570 C 0.84905 0.48445 0.91414 0.0
C6571 C 0.84382 0.4941 0.92323 0.0
C6572 C 0.8336 0.49035 0.93242 0.0
C6573 C 0.82828 0.47739 0.9319 0.0
C6574 C 0.85998 0.48797 0.90424 0.0
C6575 C 0.82785 0.50015 0.94252 0.0
H6576 H 0.86296 0.52875 0.94639 0.0
H6577 H 0.83277 0.53831 0.91705 0.0
H6578 H 0.86101 0.49753 0.94809 0.0
H6579 H 0.87051 0.49505 0.93296 0.0
H6580 H 0.87542 0.50794 0.94479 0.0
H6581 H 0.82745 0.52275 0.89935 0.0
H6582 H 0.8353 0.50638 0.89871 0.0
H6583 H 0.82162 0.50938 0.91006 0.0
H6584 H 0.84699 0.46416 0.90654 0.0
H6585 H 0.82019 0.47467 0.93868 0.0
H6586 H 0.86714 0.49539 0.90848 0.0
H6587 H 0.85534 0.49248 0.89516 0.0
H6588 H 0.86564 0.47889 0.90105 0.0
H6589 H 0.83596 0.50419 0.94901 0.0
H6590 H 0.82013 0.49547 0.9491 0.0
H6591 H 0.82314 0.50876 0.93722 0.0
C6592 C 0.47803 0.83695 0.92283 0.0
C6593 C 0.47424 0.84404 0.93437 0.0
C6594 C 0.49136 0.83749 0.91822 0.0
C6595 C 0.50089 0.84535 0.92533 0.0
C6596 C 0.49644 0.85432 0.9354 0.0
C6597 C 0.48315 0.85342 0.93996 0.0
C6598 C 0.49563 0.82812 0.9071 0.0
C6599 C 0.50613 0.86338 0.94274 0.0
C6600 C 0.53187 0.82534 0.93393 0.0
C6601 C 0.54125 0.83003 0.92457 0.0
C6602 C 0.51891 0.83063 0.93448 0.0
C6603 C 0.51517 0.84097 0.92544 0.0
C6604 C 0.52485 0.84637 0.91648 0.0
C6605 C 0.53787 0.84079 0.91614 0.0
C6606 C 0.50906 0.82466 0.94443 0.0
C6607 C 0.52137 0.8575 0.9068 0.0
H6608 H 0.47108 0.82985 0.91835 0.0
H6609 H 0.48008 0.85922 0.94867 0.0
H6610 H 0.5032 0.83299 0.90052 0.0
H6611 H 0.50032 0.81903 0.91156 0.0
H6612 H 0.48694 0.82489 0.90087 0.0
H6613 H 0.50082 0.87191 0.94761 0.0
H6614 H 0.51133 0.85753 0.95069 0.0
H6615 H 0.51389 0.86739 0.9358 0.0
H6616 H 0.53457 0.81714 0.94059 0.0
H6617 H 0.54514 0.84439 0.90885 0.0
H6618 H 0.50044 0.82012 0.93901 0.0
H6619 H 0.50505 0.83263 0.95111 0.0
H6620 H 0.51371 0.81678 0.95083 0.0
H6621 H 0.51699 0.85305 0.89756 0.0
H6622 H 0.53046 0.86328 0.90385 0.0
H6623 H 0.51386 0.86452 0.91112 0.0
C6624 C 0.83735 0.47505 0.0838 0.0
C6625 C 0.84455 0.47119 0.07236 0.0
C6626 C 0.83822 0.48828 0.08862 0.0
C6627 C 0.84653 0.49765 0.08182 0.0
C6628 C 0.8556 0.49303 0.07191 0.0
C6629 C 0.85436 0.47985 0.06712 0.0
C6630 C 0.82873 0.49271 0.09957 0.0
C6631 C 0.86517 0.50251 0.06496 0.0
C6632 C 0.82742 0.52911 0.07301 0.0
C6633 C 0.83196 0.53825 0.08267 0.0
C6634 C 0.83251 0.51607 0.0724 0.0
C6635 C 0.84251 0.51202 0.0817 0.0
C6636 C 0.84783 0.52148 0.09095 0.0
C6637 C 0.84244 0.53458 0.09134 0.0
C6638 C 0.82666 0.50649 0.06214 0.0
C6639 C 0.85863 0.51769 0.10088 0.0
H6640 H 0.82992 0.46828 0.08802 0.0
H6641 H 0.86024 0.47672 0.05849 0.0
H6642 H 0.83368 0.50002 0.10637 0.0
H6643 H 0.8199 0.49776 0.09497 0.0
H6644 H 0.82506 0.48405 0.10559 0.0
H6645 H 0.87368 0.49699 0.06029 0.0
H6646 H 0.85972 0.50796 0.05689 0.0
H6647 H 0.8692 0.51007 0.07209 0.0
H6648 H 0.81946 0.53204 0.06616 0.0
H6649 H 0.84593 0.54167 0.09885 0.0
H6650 H 0.82181 0.49787 0.0673 0.0
H6651 H 0.83475 0.50243 0.05563 0.0
H6652 H 0.81904 0.51136 0.05559 0.0
H6653 H 0.85384 0.51352 0.11005 0.0
H6654 H 0.86462 0.52661 0.10392 0.0
H6655 H 0.86551 0.50994 0.09676 0.0
C6656 C 0.47213 0.84272 0.09048 0.0
C6657 C 0.46868 0.83177 0.08231 0.0
C6658 C 0.48521 0.84815 0.09007 0.0
C6659 C 0.49488 0.84243 0.08129 0.0
C6660 C 0.49109 0.83186 0.07253 0.0
C6661 C 0.47807 0.82672 0.07316 0.0
C6662 C 0.48876 0.8595 0.09947 0.0
C6663 C 0.50092 0.82554 0.06278 0.0
C6664 C 0.52689 0.85436 0.06635 0.0
C6665 C 0.53577 0.84508 0.07213 0.0
C6666 C 0.51362 0.85544 0.07094 0.0
C6667 C 0.50917 0.84676 0.08126 0.0
C6668 C 0.5187 0.83905 0.08854 0.0
C6669 C 0.532 0.83832 0.08388 0.0
C6670 C 0.50394 0.86433 0.06339 0.0
C6671 C 0.51443 0.83001 0.09992 0.0
H6672 H 0.46486 0.8466 0.09761 0.0
H6673 H 0.47532 0.81839 0.06668 0.0
H6674 H 0.49311 0.85526 0.10881 0.0
H6675 H 0.49631 0.86636 0.09497 0.0
H6676 H 0.47971 0.86541 0.10227 0.0
H6677 H 0.49624 0.8175 0.0566 0.0
H6678 H 0.505 0.83329 0.05588 0.0
H6679 H 0.5095 0.82111 0.06835 0.0
H6680 H 0.52994 0.8599 0.05747 0.0
H6681 H 0.53893 0.8313 0.08851 0.0
H6682 H 0.49622 0.86857 0.07024 0.0
H6683 H 0.49868 0.85828 0.05563 0.0
H6684 H 0.50926 0.8727 0.05827 0.0
H6685 H 0.50688 0.83507 0.10637 0.0
H6686 H 0.52313 0.82695 0.10622 0.0
H6687 H 0.50973 0.8208 0.09573 0.0
C6688 C 0.52909 0.18019 0.07357 0.0
C6689 C 0.53904 0.17453 0.08175 0.0
C6690 C 0.51623 0.17471 0.07289 0.0
C6691 C 0.51312 0.16316 0.08062 0.0
C6692 C 0.52323 0.15705 0.0886 0.0
C6693 C 0.5362 0.16278 0.08898 0.0
C6694 C 0.50589 0.18156 0.06407 0.0
C6695 C 0.52041 0.14459 0.09675 0.0
C6696 C 0.4759 0.16513 0.08336 0.0
C6697 C 0.47249 0.15943 0.07095 0.0
C6698 C 0.48919 0.1645 0.08808 0.0
C6699 C 0.4991 0.15803 0.08015 0.0
C6700 C 0.49511 0.15021 0.06899 0.0
C6701 C 0.48182 0.15111 0.06442 0.0
C6702 C 0.49296 0.17251 0.10038 0.0
C6703 C 0.50524 0.14264 0.06064 0.0
H6704 H 0.53133 0.18915 0.06777 0.0
H6705 H 0.54391 0.15836 0.09528 0.0
H6706 H 0.502 0.17442 0.05646 0.0
H6707 H 0.49725 0.18497 0.07025 0.0
H6708 H 0.51004 0.19043 0.05871 0.0
H6709 H 0.52799 0.14314 0.10482 0.0
H6710 H 0.51025 0.14496 0.10135 0.0
H6711 H 0.52075 0.13569 0.09004 0.0
H6712 H 0.46864 0.17132 0.08864 0.0
H6713 H 0.47907 0.14626 0.05505 0.0
H6714 H 0.4968 0.1825 0.09721 0.0
H6715 H 0.50104 0.16741 0.10615 0.0
H6716 H 0.48416 0.17411 0.10707 0.0
H6717 H 0.51037 0.14975 0.05374 0.0
H6718 H 0.50035 0.13471 0.05448 0.0
H6719 H 0.51301 0.13794 0.06711 0.0
C6720 C 0.58667 0.65973 0.97038 0.0
C6721 C 0.59546 0.67027 0.96727 0.0
C6722 C 0.58426 0.65628 0.98387 0.0
C6723 C 0.59067 0.6637 0.9942 0.0
C6724 C 0.6013 0.67253 0.99091 0.0
C6725 C 0.60355 0.67575 0.97742 0.0
C6726 C 0.57342 0.6462 0.98704 0.0
C6727 C 0.60873 0.68034 1.00158 0.0
C6728 C 0.56664 0.67814 0.01971 0.0
C6729 C 0.56999 0.67113 0.03141 0.0
C6730 C 0.57333 0.67572 0.00764 0.0
C6731 C 0.58355 0.66578 0.00715 0.0
C6732 C 0.58705 0.65864 0.01897 0.0
C6733 C 0.58027 0.6615 0.03107 0.0
C6734 C 0.56944 0.68391 0.99543 0.0
C6735 C 0.59756 0.64771 0.01879 0.0
H6736 H 0.58058 0.6553 0.96251 0.0
H6737 H 0.61065 0.68364 0.97493 0.0
H6738 H 0.57594 0.64046 0.99627 0.0
H6739 H 0.56381 0.65157 0.98886 0.0
H6740 H 0.57189 0.63907 0.97859 0.0
H6741 H 0.61841 0.68437 0.99773 0.0
H6742 H 0.60243 0.68895 0.00486 0.0
H6743 H 0.61077 0.674 0.01052 0.0
H6744 H 0.55875 0.68567 0.02003 0.0
H6745 H 0.58272 0.65595 0.04012 0.0
H6746 H 0.56556 0.67719 0.98742 0.0
H6747 H 0.57835 0.68924 0.99138 0.0
H6748 H 0.56157 0.6915 0.99771 0.0
H6749 H 0.59298 0.63837 0.01476 0.0
H6750 H 0.60141 0.64554 0.02905 0.0
H6751 H 0.60614 0.65035 0.01219 0.0
C6752 C 0.33722 0.58337 0.03214 0.0
C6753 C 0.34428 0.57176 0.03576 0.0
C6754 C 0.33797 0.58831 0.01894 0.0
C6755 C 0.34601 0.58147 0.00938 0.0
C6756 C 0.35494 0.57132 0.01373 0.0
C6757 C 0.35383 0.56642 0.02688 0.0
C6758 C 0.32863 0.59951 0.01479 0.0
C6759 C 0.36418 0.56424 0.00402 0.0
C6760 C 0.32659 0.57362 0.97784 0.0
C6761 C 0.33149 0.58318 0.96877 0.0
C6762 C 0.33162 0.57277 0.99088 0.0
C6763 C 0.34189 0.58172 0.99503 0.0
C6764 C 0.34748 0.59091 0.98568 0.0
C6765 C 0.34218 0.59154 0.97256 0.0
C6766 C 0.32548 0.56257 1.00036 0.0
C6767 C 0.35852 0.60052 0.98962 0.0
H6768 H 0.32998 0.58765 0.03907 0.0
H6769 H 0.3596 0.55766 0.02982 0.0
H6770 H 0.33359 0.60628 0.00747 0.0
H6771 H 0.31963 0.59514 0.00986 0.0
H6772 H 0.32524 0.60551 0.02358 0.0
H6773 H 0.37264 0.55925 0.00934 0.0
H6774 H 0.35843 0.55641 0.99852 0.0
H6775 H 0.36831 0.57137 0.99651 0.0
H6776 H 0.31846 0.56702 0.97481 0.0
H6777 H 0.34593 0.59897 0.96553 0.0
H6778 H 0.32075 0.56779 0.00901 0.0
H6779 H 0.33339 0.55582 0.00438 0.0
H6780 H 0.3177 0.55628 0.9954 0.0
H6781 H 0.35397 0.60962 0.99417 0.0
H6782 H 0.36445 0.60374 0.98072 0.0
H6783 H 0.36543 0.59601 0.99712 0.0
C6784 C 0.42613 0.34402 0.02769 0.0
C6785 C 0.43679 0.33482 0.02796 0.0
C6786 C 0.41942 0.34692 0.01557 0.0
C6787 C 0.42321 0.34004 0.00367 0.0
C6788 C 0.43388 0.33059 0.00407 0.0
C6789 C 0.4406 0.32826 0.01614 0.0
C6790 C 0.40829 0.35722 0.01568 0.0
C6791 C 0.43814 0.3227 0.99177 0.0
C6792 C 0.40328 0.32892 0.97435 0.0
C6793 C 0.41113 0.33447 0.96405 0.0
C6794 C 0.4055 0.33246 0.98777 0.0
C6795 C 0.41583 0.34172 0.99081 0.0
C6796 C 0.42184 0.34922 0.9803 0.0
C6797 C 0.41951 0.3454 0.96689 0.0
C6798 C 0.39839 0.32468 0.99866 0.0
C6799 C 0.43218 0.35988 0.98324 0.0
H6800 H 0.42325 0.34918 0.03685 0.0
H6801 H 0.44879 0.32106 0.01638 0.0
H6802 H 0.40664 0.36178 0.00564 0.0
H6803 H 0.39882 0.35233 0.01894 0.0
H6804 H 0.41053 0.36535 0.023 0.0
H6805 H 0.44627 0.31537 0.99401 0.0
H6806 H 0.42945 0.31709 0.98759 0.0
H6807 H 0.44182 0.32964 0.98388 0.0
H6808 H 0.39643 0.32074 0.97206 0.0
H6809 H 0.42538 0.34993 0.9589 0.0
H6810 H 0.39552 0.33141 0.00705 0.0
H6811 H 0.40528 0.31689 1.00272 0.0
H6812 H 0.38921 0.3196 0.99481 0.0
H6813 H 0.4295 0.36555 0.99247 0.0
H6814 H 0.43319 0.36702 0.97471 0.0
H6815 H 0.4421 0.35505 0.98493 0.0
C6816 C 0.67035 0.42232 0.02919 0.0
C6817 C 0.66359 0.43418 0.03257 0.0
C6818 C 0.66959 0.41719 0.01607 0.0
C6819 C 0.66186 0.42412 0.00631 0.0
C6820 C 0.6532 0.43461 0.0104 0.0
C6821 C 0.6543 0.43966 0.02349 0.0
C6822 C 0.6786 0.40564 0.01219 0.0
C6823 C 0.64432 0.44184 1.00047 0.0
C6824 C 0.6817 0.43105 0.97482 0.0
C6825 C 0.67648 0.42166 0.96576 0.0
C6826 C 0.6767 0.43211 0.98786 0.0
C6827 C 0.66611 0.42354 0.99201 0.0
C6828 C 0.66025 0.41449 0.98269 0.0
C6829 C 0.66553 0.41365 0.96957 0.0
C6830 C 0.68315 0.44214 0.9973 0.0
C6831 C 0.6489 0.40526 0.98665 0.0
H6832 H 0.67737 0.41792 0.03628 0.0
H6833 H 0.64874 0.44862 0.02625 0.0
H6834 H 0.67352 0.39895 0.00486 0.0
H6835 H 0.68782 0.40965 0.00735 0.0
H6836 H 0.68165 0.39964 0.0211 0.0
H6837 H 0.63598 0.44721 0.00562 0.0
H6838 H 0.65039 0.44937 0.99492 0.0
H6839 H 0.64002 0.43474 0.99303 0.0
H6840 H 0.69004 0.43739 0.97178 0.0
H6841 H 0.66153 0.40634 0.96255 0.0
H6842 H 0.68766 0.43682 0.00601 0.0
H6843 H 0.67547 0.4492 1.00124 0.0
H6844 H 0.69117 0.44813 0.99235 0.0
H6845 H 0.65313 0.39611 0.9914 0.0
H6846 H 0.64296 0.40207 0.97774 0.0
H6847 H 0.64205 0.41009 0.99401 0.0
C6848 C 0.58756 0.34513 0.038 0.0
C6849 C 0.59624 0.33443 0.04084 0.0
C6850 C 0.5852 0.34895 0.0246 0.0
C6851 C 0.59154 0.34174 0.01408 0.0
C6852 C 0.60208 0.33271 0.01715 0.0
C6853 C 0.60428 0.32913 0.03056 0.0
C6854 C 0.57448 0.35924 0.02168 0.0
C6855 C 0.60943 0.3251 0.00629 0.0
C6856 C 0.56743 0.32818 0.98816 0.0
C6857 C 0.57094 0.33539 0.97663 0.0
C6858 C 0.57409 0.33026 1.00031 0.0
C6859 C 0.58441 0.34006 1.00108 0.0
C6860 C 0.58805 0.34744 0.98944 0.0
C6861 C 0.58131 0.3449 0.97724 0.0
C6862 C 0.57005 0.32185 0.01232 0.0
C6863 C 0.59866 0.35826 0.98991 0.0
H6864 H 0.58151 0.34942 0.04598 0.0
H6865 H 0.6113 0.3211 0.03285 0.0
H6866 H 0.57707 0.36518 0.0126 0.0
H6867 H 0.5648 0.35403 0.01973 0.0
H6868 H 0.57303 0.36617 0.03031 0.0
H6869 H 0.61905 0.32084 0.01005 0.0
H6870 H 0.60302 0.31666 1.00276 0.0
H6871 H 0.61157 0.33165 0.99754 0.0
H6872 H 0.55947 0.32074 0.98764 0.0
H6873 H 0.58387 0.35061 0.96832 0.0
H6874 H 0.56621 0.32842 0.02047 0.0
H6875 H 0.57889 0.31632 0.01629 0.0
H6876 H 0.56211 0.3144 0.00984 0.0
H6877 H 0.59416 0.36754 0.99415 0.0
H6878 H 0.60257 0.36063 0.97972 0.0
H6879 H 0.60719 0.35536 0.99647 0.0
C6880 C 0.67835 0.56615 0.98762 0.0
C6881 C 0.67143 0.56968 0.97592 0.0
C6882 C 0.67625 0.57302 0.99965 0.0
C6883 C 0.66672 0.58362 1.00011 0.0
C6884 C 0.65963 0.58727 0.98829 0.0
C6885 C 0.66218 0.5803 0.97622 0.0
C6886 C 0.68439 0.56894 0.01184 0.0
C6887 C 0.64909 0.59817 0.98844 0.0
C6888 C 0.6614 0.58746 0.03692 0.0
C6889 C 0.67231 0.59588 0.03975 0.0
C6890 C 0.65762 0.58502 0.02352 0.0
C6891 C 0.6651 0.59101 0.01298 0.0
C6892 C 0.6744 0.60132 0.01599 0.0
C6893 C 0.67793 0.60362 0.0294 0.0
C6894 C 0.64705 0.57456 0.02064 0.0
C6895 C 0.68232 0.6083 0.00509 0.0
H6896 H 0.6856 0.55801 0.98733 0.0
H6897 H 0.65671 0.5829 0.96716 0.0
H6898 H 0.6901 0.57768 0.01575 0.0
H6899 H 0.6776 0.56541 0.01994 0.0
H6900 H 0.69165 0.56076 0.00958 0.0
H6901 H 0.647 0.60202 0.97817 0.0
H6902 H 0.63961 0.59397 0.99256 0.0
H6903 H 0.65209 0.6067 0.99496 0.0
H6904 H 0.65683 0.58167 0.04494 0.0
H6905 H 0.68611 0.61046 0.03166 0.0
H6906 H 0.65199 0.56472 0.01889 0.0
H6907 H 0.64127 0.57719 0.01147 0.0
H6908 H 0.63999 0.57345 0.02922 0.0
H6909 H 0.6906 0.60161 1.00173 0.0
H6910 H 0.68682 0.61784 0.00876 0.0
H6911 H 0.6759 0.6105 0.99625 0.0
C6912 C 0.4185 0.66146 0.04102 0.0
C6913 C 0.40989 0.67222 0.04384 0.0
C6914 C 0.42094 0.65767 0.02762 0.0
C6915 C 0.41475 0.66499 0.01708 0.0
C6916 C 0.40428 0.67411 0.02011 0.0
C6917 C 0.40198 0.67764 0.03352 0.0
C6918 C 0.43157 0.64728 0.02474 0.0
C6919 C 0.3971 0.68186 0.00922 0.0
C6920 C 0.43913 0.6784 0.99134 0.0
C6921 C 0.43558 0.67131 0.97975 0.0
C6922 C 0.43242 0.67631 0.00346 0.0
C6923 C 0.42198 0.66663 0.00413 0.0
C6924 C 0.41831 0.65936 0.99244 0.0
C6925 C 0.4251 0.66189 0.98028 0.0
C6926 C 0.43651 0.68462 0.01553 0.0
C6927 C 0.40758 0.64865 0.99281 0.0
H6928 H 0.42444 0.65706 0.04903 0.0
H6929 H 0.39501 0.68571 0.03578 0.0
H6930 H 0.42899 0.64141 0.01561 0.0
H6931 H 0.44132 0.6524 0.02289 0.0
H6932 H 0.43288 0.6403 0.03335 0.0
H6933 H 0.38751 0.68623 0.01293 0.0
H6934 H 0.40364 0.69021 0.00577 0.0
H6935 H 0.39494 0.67536 1.00043 0.0
H6936 H 0.44717 0.68576 0.99089 0.0
H6937 H 0.4225 0.65627 0.97131 0.0
H6938 H 0.44024 0.67796 0.02365 0.0
H6939 H 0.42771 0.69022 0.0195 0.0
H6940 H 0.44454 0.692 0.01312 0.0
H6941 H 0.41196 0.63931 0.99705 0.0
H6942 H 0.4037 0.64634 0.98259 0.0
H6943 H 0.39904 0.65161 0.99933 0.0
C6944 C 0.33788 0.42147 0.97562 0.0
C6945 C 0.34529 0.43279 0.97179 0.0
C6946 C 0.33876 0.41653 0.98881 0.0
C6947 C 0.34727 0.42309 0.99816 0.0
C6948 C 0.35651 0.43285 0.99356 0.0
C6949 C 0.35529 0.43774 0.98041 0.0
C6950 C 0.32909 0.40572 0.99322 0.0
C6951 C 0.36625 0.43957 1.00302 0.0
C6952 C 0.3286 0.43184 0.02992 0.0
C6953 C 0.33313 0.42205 0.03892 0.0
C6954 C 0.33357 0.43252 0.01684 0.0
C6955 C 0.34341 0.42312 0.01259 0.0
C6956 C 0.34869 0.41371 0.0219 0.0
C6957 C 0.34345 0.41328 0.03505 0.0
C6958 C 0.32777 0.44295 0.00741 0.0
C6959 C 0.35929 0.40365 0.01788 0.0
H6960 H 0.3303 0.41746 0.96888 0.0
H6961 H 0.36132 0.44627 0.97731 0.0
H6962 H 0.33396 0.39878 1.00045 0.0
H6963 H 0.32038 0.41046 0.99834 0.0
H6964 H 0.32527 0.39982 0.98454 0.0
H6965 H 0.37481 0.44414 0.99748 0.0
H6966 H 0.36098 0.44768 0.00858 0.0
H6967 H 0.37022 0.43231 0.0105 0.0
H6968 H 0.32075 0.43875 0.03301 0.0
H6969 H 0.34691 0.40566 0.04203 0.0
H6970 H 0.32268 0.43793 0.99885 0.0
H6971 H 0.33591 0.44933 0.00326 0.0
H6972 H 0.32035 0.44961 0.01246 0.0
H6973 H 0.35432 0.39465 0.01358 0.0
H6974 H 0.36528 0.40036 0.02671 0.0
H6975 H 0.3662 0.40779 0.01016 0.0
C6976 C 0.977 0.60133 0.67786 0.0
C6977 C 0.96619 0.59485 0.67154 0.0
C6978 C 0.99022 0.59894 0.67376 0.0
C6979 C 0.99259 0.58995 0.66302 0.0
C6980 C 0.98165 0.5855 0.65506 0.0
C6981 C 0.96844 0.58786 0.65952 0.0
C6982 C 1.00159 0.60439 0.68221 0.0
C6983 C 0.9839 0.57684 0.64285 0.0
C6984 C 0.02948 0.58025 0.65928 0.0
C6985 C 0.02985 0.5685 0.66705 0.0
C6986 C 0.01725 0.58701 0.657 0.0
C6987 C 0.00532 0.58213 0.6631 0.0
C6988 C 0.00572 0.57017 0.67083 0.0
C6989 C 0.01791 0.56345 0.67252 0.0
C6990 C 0.01733 0.59945 0.64835 0.0
C6991 C 0.99339 0.56467 0.67785 0.0
H6992 H 0.97522 0.60722 0.68686 0.0
H6993 H 0.96007 0.58315 0.65437 0.0
H6994 H 0.00595 0.59614 0.68833 0.0
H6995 H 0.00968 0.60843 0.67571 0.0
H6996 H 0.99818 0.61247 0.68911 0.0
H6997 H 0.97518 0.57731 0.63588 0.0
H6998 H 0.99313 0.57998 0.63742 0.0
H6999 H 0.98523 0.56623 0.64602 0.0
H7000 H 0.03869 0.58409 0.6549 0.0
H7001 H 0.01816 0.55441 0.6786 0.0
H7002 H 0.0211 0.60806 0.65434 0.0
H7003 H 0.00721 0.60198 0.64441 0.0
H7004 H 0.02432 0.59813 0.63973 0.0
H7005 H 0.98916 0.57235 0.68474 0.0
H7006 H 0.9956 0.55548 0.6838 0.0
H7007 H 0.98553 0.56214 0.67037 0.0
C7008 C 0.43973 0.0231 0.65324 0.0
C7009 C 0.43436 0.03125 0.6634 0.0
C7010 C 0.43533 0.00983 0.65159 0.0
C7011 C 0.42573 0.00458 0.66064 0.0
C7012 C 0.41883 0.0134 0.66946 0.0
C7013 C 0.42322 0.02675 0.67071 0.0
C7014 C 0.44235 1.00096 0.64151 0.0
C7015 C 0.40824 0.00827 0.67902 0.0
C7016 C 0.41666 0.96743 0.66349 0.0
C7017 C 0.42557 0.96348 0.67366 0.0
C7018 C 0.4169 0.98069 0.65851 0.0
C7019 C 0.4262 0.99003 0.66395 0.0
C7020 C 0.43579 0.98568 0.67355 0.0
C7021 C 0.43536 0.97248 0.67821 0.0
C7022 C 0.40672 0.98479 0.64806 0.0
C7023 C 0.4461 0.99515 0.67952 0.0
H7024 H 0.44814 0.02674 0.64733 0.0
H7025 H 0.41894 0.03313 0.67844 0.0
H7026 H 0.45067 0.99551 0.64655 0.0
H7027 H 0.43533 0.99337 0.6373 0.0
H7028 H 0.44669 0.00695 0.63315 0.0
H7029 H 0.40215 0.0166 0.68329 0.0
H7030 H 0.40145 1.00108 0.67388 0.0
H7031 H 0.4132 1.00287 0.68743 0.0
H7032 H 0.40906 0.96045 0.65999 0.0
H7033 H 0.44238 0.96932 0.68594 0.0
H7034 H 0.41065 0.99281 0.64139 0.0
H7035 H 0.39761 0.9887 0.65317 0.0
H7036 H 0.40364 0.97606 0.64181 0.0
H7037 H 0.45237 0.99959 0.67145 0.0
H7038 H 0.45288 0.99004 0.68678 0.0
H7039 H 0.44097 0.00351 0.68482 0.0
C7040 C 0.03847 0.41552 0.66392 0.0
C7041 C 0.04197 0.42411 0.67453 0.0
C7042 C 0.02542 0.41587 0.6584 0.0
C7043 C 0.01584 0.42499 0.66372 0.0
C7044 C 0.01971 0.4342 0.67387 0.0
C7045 C 0.0327 0.43364 0.67909 0.0
C7046 C 0.02181 0.40603 0.64746 0.0
C7047 C 0.00998 0.44432 0.67973 0.0
C7048 C 0.98379 0.43955 0.6515 0.0
C7049 C 0.97497 0.43415 0.66107 0.0
C7050 C 0.99702 0.43485 0.65045 0.0
C7051 C 1.00152 0.42486 0.65949 0.0
C7052 C 0.99205 0.41793 0.66756 0.0
C7053 C 0.97877 0.42266 0.66824 0.0
C7054 C 0.00663 0.44198 0.64114 0.0
C7055 C 0.99637 0.4069 0.67702 0.0
H7056 H 0.04566 0.40811 0.66042 0.0
H7057 H 0.0355 0.44042 0.68715 0.0
H7058 H 0.01753 0.39684 0.65209 0.0
H7059 H 0.0142 0.41024 0.64048 0.0
H7060 H 0.03083 0.40302 0.6416 0.0
H7061 H 0.01472 0.4508 0.6875 0.0
H7062 H 0.00598 0.45091 0.67168 0.0
H7063 H 1.00134 0.43904 0.6844 0.0
H7064 H 0.98071 0.44822 0.64566 0.0
H7065 H 0.97188 0.41833 0.67549 0.0
H7066 H 0.01429 0.43493 0.63714 0.0
H7067 H 0.01195 0.44999 0.64679 0.0
H7068 H 1.00123 0.44673 0.6326 0.0
H7069 H 0.00381 0.4002 0.67213 0.0
H7070 H 0.98768 0.40079 0.68046 0.0
H7071 H 1.00123 0.41145 0.68597 0.0
C7072 C 0.5666 0.98851 0.67891 0.0
C7073 C 0.57087 0.97696 0.67214 0.0
C7074 C 0.57293 1.00085 0.67691 0.0
C7075 C 0.58374 1.00178 0.66767 0.0
C7076 C 0.58811 0.99015 0.6607 0.0
C7077 C 0.58167 0.97777 0.66312 0.0
C7078 C 0.5681 0.01287 0.6849 0.0
C7079 C 0.59927 0.9908 0.65045 0.0
C7080 C 0.5867 0.03874 0.6622 0.0
C7081 C 0.59488 0.04189 0.67321 0.0
C7082 C 0.58459 0.02525 0.65857 0.0
C7083 C 0.59067 0.01492 0.66628 0.0
C7084 C 0.60068 0.01826 0.67581 0.0
C7085 C 0.60266 0.03176 0.67916 0.0
C7086 C 0.57443 0.02203 0.64781 0.0
C7087 C 0.60768 0.00762 0.68405 0.0
H7088 H 0.55832 0.98786 0.68598 0.0
H7089 H 0.58484 0.96884 0.65774 0.0
H7090 H 0.57649 0.01713 0.69088 0.0
H7091 H 0.56448 0.02083 0.67799 0.0
H7092 H 0.55978 0.01028 0.69189 0.0
H7093 H 0.60331 0.98067 0.64807 0.0
H7094 H 0.59528 0.99527 0.64104 0.0
H7095 H 0.60763 0.9973 0.65394 0.0
H7096 H 0.58087 0.04659 0.6574 0.0
H7097 H 0.60932 0.03427 0.68742 0.0
H7098 H 0.56453 0.02006 0.65256 0.0
H7099 H 0.57741 0.01288 0.64216 0.0
H7100 H 0.57324 0.03052 0.64067 0.0
H7101 H 0.6008 0.00414 0.69212 0.0
H7102 H 0.61696 0.01156 0.68884 0.0
H7103 H 0.61033 0.99879 0.67779 0.0
C7104 C 0.02891 0.42227 0.33945 0.0
C7105 C 0.03179 0.43493 0.34489 0.0
C7106 C 0.01575 0.41716 0.33988 0.0
C7107 C 0.00543 0.42497 0.34583 0.0
C7108 C 0.00886 0.43652 0.35334 0.0
C7109 C 0.02203 0.44144 0.35271 0.0
C7110 C 0.01257 0.40444 0.33229 0.0
C7111 C 0.99827 0.44487 0.36029 0.0
C7112 C 0.97547 0.4299 0.32317 0.0
C7113 C 0.96553 0.42211 0.32937 0.0
C7114 C 0.98836 0.43088 0.32856 0.0
C7115 C 0.99152 0.42383 0.34052 0.0
C7116 C 0.98145 0.41617 0.34709 0.0
C7117 C 0.96847 0.41542 0.34142 0.0
C7118 C 0.99863 0.43943 0.32128 0.0
C7119 C 0.98442 0.40839 0.35975 0.0
H7120 H 0.03651 0.41703 0.33365 0.0
H7121 H 0.02436 0.45103 0.35734 0.0
H7122 H 0.00465 0.39858 0.33751 0.0
H7123 H 0.00874 0.40708 0.32215 0.0
H7124 H 0.02164 0.39804 0.33104 0.0
H7125 H 1.00274 0.45145 0.36812 0.0
H7126 H 0.9932 0.45136 0.35276 0.0
H7127 H 0.9905 0.43839 0.36499 0.0
H7128 H 0.97317 0.43525 0.31396 0.0
H7129 H 0.9608 0.40931 0.34618 0.0
H7130 H 0.00728 0.43314 0.31812 0.0
H7131 H 1.0025 0.44738 0.32806 0.0
H7132 H 0.99441 0.44436 0.31219 0.0
H7133 H 0.98936 0.39878 0.35703 0.0
H7134 H 0.97508 0.40601 0.36539 0.0
H7135 H 0.99136 0.41399 0.36645 0.0
C7136 C 0.56847 0.02544 0.35576 0.0
C7137 C 0.57324 0.03366 0.34536 0.0
C7138 C 0.57307 0.0122 0.35713 0.0
C7139 C 0.58232 0.0071 0.34764 0.0
C7140 C 0.58875 0.01606 0.3386 0.0
C7141 C 0.58415 0.02936 0.33761 0.0
C7142 C 0.56639 1.00318 0.36732 0.0
C7143 C 0.59885 0.01112 0.32842 0.0
C7144 C 0.5912 0.97 0.34377 0.0
C7145 C 0.5819 0.96624 0.33388 0.0
C7146 C 0.59123 0.9832 0.34894 0.0
C7147 C 0.5817 0.99261 0.34407 0.0
C7148 C 0.57173 0.98844 0.33478 0.0
C7149 C 0.57198 0.97533 0.32985 0.0
C7150 C 0.6017 0.9872 0.35915 0.0
C7151 C 0.5612 0.99801 0.32939 0.0
H7152 H 0.56023 0.02891 0.36199 0.0
H7153 H 0.58796 0.03578 0.32967 0.0
H7154 H 0.55761 0.99817 0.3626 0.0
H7155 H 0.57336 0.99526 0.3709 0.0
H7156 H 0.56271 0.00904 0.37609 0.0
H7157 H 0.60508 0.0195 0.32444 0.0
H7158 H 0.60558 0.0034 0.33283 0.0
H7159 H 0.59342 0.00645 0.31987 0.0
H7160 H 0.59887 0.96291 0.34688 0.0
H7161 H 0.56468 0.97232 0.32232 0.0
H7162 H 0.59671 0.9906 0.36852 0.0
H7163 H 0.60772 0.99577 0.35535 0.0
H7164 H 0.6086 0.97878 0.36163 0.0
H7165 H 0.55529 1.00236 0.33778 0.0
H7166 H 0.55409 0.99302 0.32236 0.0
H7167 H 0.56611 0.00643 0.32398 0.0
C7168 C 0.97788 0.58344 0.33861 0.0
C7169 C 0.97473 0.57091 0.34419 0.0
C7170 C 0.9911 0.58837 0.33919 0.0
C7171 C 1.00119 0.58052 0.34548 0.0
C7172 C 0.99744 0.5692 0.35319 0.0
C7173 C 0.98422 0.56443 0.35235 0.0
C7174 C 0.99461 0.60085 0.33136 0.0
C7175 C 0.00777 0.56091 0.36057 0.0
C7176 C 0.03123 0.57459 0.32319 0.0
C7177 C 0.04112 0.58272 0.32903 0.0
C7178 C 0.01835 0.57376 0.32862 0.0
C7179 C 0.01518 0.58126 0.3403 0.0
C7180 C 0.02524 0.58914 0.34661 0.0
C7181 C 0.03819 0.58978 0.34087 0.0
C7182 C 0.00807 0.565 0.3216 0.0
C7183 C 0.0223 0.59729 0.35904 0.0
H7184 H 0.97047 0.58868 0.33256 0.0
H7185 H 0.98167 0.55497 0.35712 0.0
H7186 H 1.0025 0.60673 0.33661 0.0
H7187 H 0.99862 0.5979 0.32137 0.0
H7188 H 0.98566 0.60734 0.32978 0.0
H7189 H 1.00305 0.55468 0.36855 0.0
H7190 H 0.01282 0.55407 0.35335 0.0
H7191 H 0.01557 0.56741 0.36518 0.0
H7192 H 0.03353 0.56893 0.31416 0.0
H7193 H 0.04582 0.59614 0.34535 0.0
H7194 H 0.99941 0.57118 0.31828 0.0
H7195 H 0.00422 0.55724 0.32862 0.0
H7196 H 0.01228 0.55981 0.31265 0.0
H7197 H 0.0177 0.60699 0.35603 0.0
H7198 H 0.03163 0.59953 0.36475 0.0
H7199 H 0.0151 0.59207 0.36577 0.0
C7200 C 0.44051 0.98772 0.33096 0.0
C7201 C 0.43616 0.97606 0.33749 0.0
C7202 C 0.43375 0.99989 0.33256 0.0
C7203 C 0.42242 1.00055 0.34118 0.0
C7204 C 0.41806 0.98885 0.34804 0.0
C7205 C 0.42493 0.97663 0.34599 0.0
C7206 C 0.43863 0.01198 0.32471 0.0
C7207 C 0.4064 0.98925 0.35773 0.0
C7208 C 0.41773 0.03747 0.34519 0.0
C7209 C 0.4101 0.0399 0.33362 0.0
C7210 C 0.42008 0.02421 0.34947 0.0
C7211 C 0.41485 0.01339 0.34182 0.0
C7212 C 0.40526 0.016 0.33165 0.0
C7213 C 0.40299 0.02928 0.32769 0.0
C7214 C 0.42967 0.02176 0.36094 0.0
C7215 C 0.39914 0.00481 0.32343 0.0
H7216 H 0.44912 0.98727 0.32429 0.0
H7217 H 0.4217 0.96763 0.35121 0.0
H7218 H 0.43045 0.0159 0.31823 0.0
H7219 H 0.44162 0.02012 0.3317 0.0
H7220 H 0.4474 0.00959 0.31821 0.0
H7221 H 0.40253 0.97902 0.35999 0.0
H7222 H 0.40981 0.99389 0.36728 0.0
H7223 H 0.39804 0.99549 0.35381 0.0
H7224 H 0.423 0.0457 0.35001 0.0
H7225 H 0.3967 0.03123 0.31899 0.0
H7226 H 0.43993 0.02011 0.35688 0.0
H7227 H 0.42674 0.01266 0.36668 0.0
H7228 H 0.43003 0.03051 0.36787 0.0
H7229 H 0.40662 1.00126 0.31595 0.0
H7230 H 0.39005 0.00824 0.31792 0.0
H7231 H 0.39638 0.99614 0.32987 0.0
C7232 C 0.68805 0.97663 0.57843 0.0
C7233 C 0.68089 0.9668 0.58553 0.0
C7234 C 0.68308 0.98967 0.57702 0.0
C7235 C 0.67063 0.99312 0.583 0.0
C7236 C 0.66332 0.9833 0.59028 0.0
C7237 C 0.66851 0.97016 0.5914 0.0
C7238 C 0.69116 0.99969 0.56891 0.0
C7239 C 0.65019 0.98669 0.59707 0.0
C7240 C 0.67036 0.03075 0.58297 0.0
C7241 C 0.66529 0.03302 0.57002 0.0
C7242 C 0.67039 0.01773 0.58845 0.0
C7243 C 0.66532 0.00689 0.58073 0.0
C7244 C 0.65837 0.00956 0.56862 0.0
C7245 C 0.65844 0.02262 0.56341 0.0
C7246 C 0.67739 0.01535 0.60168 0.0
C7247 C 0.65254 0.99837 0.56019 0.0
H7248 H 0.69755 0.97408 0.57374 0.0
H7249 H 0.66303 0.96262 0.59703 0.0
H7250 H 0.68509 0.00341 0.56032 0.0
H7251 H 0.69381 0.00848 0.57523 0.0
H7252 H 0.70061 0.99531 0.56488 0.0
H7253 H 0.64474 0.97755 0.60044 0.0
H7254 H 0.65224 0.99306 0.606 0.0
H7255 H 0.64357 0.99254 0.59028 0.0
H7256 H 0.67542 0.03882 0.58827 0.0
H7257 H 0.65411 0.02442 0.55357 0.0
H7258 H 0.68784 0.01196 0.59975 0.0
H7259 H 0.67223 0.00738 0.60752 0.0
H7260 H 0.67783 0.02467 0.60781 0.0
H7261 H 0.66079 0.99329 0.55465 0.0
H7262 H 0.64519 1.00223 0.55272 0.0
H7263 H 0.64752 0.99073 0.56656 0.0
C7264 C 0.6698 0.97922 0.42277 0.0
C7265 C 0.66303 0.97532 0.43446 0.0
C7266 C 0.66873 0.99247 0.41803 0.0
C7267 C 0.66064 1.0018 0.42514 0.0
C7268 C 0.65203 0.99717 0.43545 0.0
C7269 C 0.65348 0.98398 0.44015 0.0
C7270 C 0.67775 0.99693 0.4067 0.0
C7271 C 0.64274 0.00662 0.44281 0.0
C7272 C 0.67955 0.03367 0.43286 0.0
C7273 C 0.67439 0.04267 0.42337 0.0
C7274 C 0.67477 0.02054 0.43375 0.0
C7275 C 0.66444 0.01624 0.42493 0.0
C7276 C 0.65854 0.02553 0.41587 0.0
C7277 C 0.66363 0.03873 0.41517 0.0
C7278 C 0.68126 0.01113 0.44378 0.0
C7279 C 0.64739 0.02144 0.40646 0.0
H7280 H 0.67703 0.97245 0.41822 0.0
H7281 H 0.64793 0.98081 0.44898 0.0
H7282 H 0.67248 0.00417 0.40007 0.0
H7283 H 0.6867 1.00206 0.41094 0.0
H7284 H 0.68125 0.98828 0.40056 0.0
H7285 H 0.63451 1.00107 0.44792 0.0
H7286 H 0.64854 0.01217 0.45056 0.0
H7287 H 0.63831 0.0141 0.43583 0.0
H7288 H 0.68773 0.03681 0.43934 0.0
H7289 H 0.65967 0.04571 0.40779 0.0
H7290 H 0.68602 1.00257 0.43845 0.0
H7291 H 0.67356 0.00697 0.45068 0.0
H7292 H 0.68909 0.01619 0.44994 0.0
H7293 H 0.65184 0.01705 0.39723 0.0
H7294 H 0.64122 0.03025 0.40343 0.0
H7295 H 0.64072 0.01377 0.41105 0.0
C7296 C 0.02314 0.65479 0.4384 0.0
C7297 C 0.03277 0.66309 0.4323 0.0
C7298 C 0.01 0.65415 0.43342 0.0
C7299 C 0.00644 0.66216 0.42224 0.0
C7300 C 0.01666 0.66874 0.4148 0.0
C7301 C 0.0298 0.66914 0.41995 0.0
C7302 C 0.99954 0.64655 0.44134 0.0
C7303 C 0.01334 0.67696 0.40251 0.0
C7304 C 0.96954 0.6661 0.41233 0.0
C7305 C 0.96619 0.67774 0.41953 0.0
C7306 C 0.98263 0.6607 0.41306 0.0
C7307 C 0.99239 0.66711 0.42123 0.0
C7308 C 0.98881 0.6786 0.42884 0.0
C7309 C 0.97581 0.68373 0.42786 0.0
C7310 C 0.98606 0.64852 0.40472 0.0
C7311 C 0.99874 0.68568 0.43794 0.0
H7312 H 0.02555 0.64973 0.44774 0.0
H7313 H 0.0373 0.67535 0.41505 0.0
H7314 H 0.99428 0.65362 0.44819 0.0
H7315 H 0.9919 0.64201 0.4346 0.0
H7316 H 0.00416 0.63849 0.44753 0.0
H7317 H 0.02241 0.67881 0.39626 0.0
H7318 H 0.00561 0.67186 0.3963 0.0
H7319 H 0.00921 0.68682 0.4057 0.0
H7320 H 0.96211 0.6615 0.40581 0.0
H7321 H 0.97318 0.69262 0.4336 0.0
H7322 H 0.99301 0.64169 0.41014 0.0
H7323 H 0.99117 0.65183 0.39538 0.0
H7324 H 0.9769 0.64282 0.40183 0.0
H7325 H 1.00266 0.67858 0.44559 0.0
H7326 H 0.99421 0.69439 0.44326 0.0
H7327 H 0.00742 0.68936 0.43199 0.0
C7328 C 0.35079 0.02498 0.44023 0.0
C7329 C 0.34155 0.03393 0.43446 0.0
C7330 C 0.35201 0.01182 0.43541 0.0
C7331 C 0.34356 0.00753 0.42483 0.0
C7332 C 0.33594 0.01716 0.4176 0.0
C7333 C 0.33501 0.03035 0.42253 0.0
C7334 C 0.36077 1.00203 0.44298 0.0
C7335 C 0.32719 0.01307 0.40592 0.0
C7336 C 0.34037 0.97047 0.41536 0.0
C7337 C 0.32934 0.96678 0.4233 0.0
C7338 C 0.34547 0.98368 0.41584 0.0
C7339 C 0.33932 0.99323 0.42446 0.0
C7340 C 0.32859 0.98924 0.43293 0.0
C7341 C 0.32378 0.97611 0.43223 0.0
C7342 C 0.35694 0.98748 0.4067 0.0
C7343 C 0.32182 0.99894 0.4425 0.0
H7344 H 0.3562 0.0279 0.44923 0.0
H7345 H 0.32806 0.03735 0.41788 0.0
H7346 H 0.35455 0.99656 0.45045 0.0
H7347 H 0.36525 0.9945 0.43608 0.0
H7348 H 0.36897 0.00729 0.44846 0.0
H7349 H 0.32432 0.02187 0.39967 0.0
H7350 H 0.3324 0.0056 0.3995 0.0
H7351 H 0.31786 0.00835 0.4098 0.0
H7352 H 0.34462 0.96325 0.40839 0.0
H7353 H 0.31537 0.97319 0.43852 0.0
H7354 H 0.36366 0.99501 0.41144 0.0
H7355 H 0.35282 0.99199 0.39737 0.0
H7356 H 0.36298 0.97854 0.40382 0.0
H7357 H 0.3293 1.00315 0.44962 0.0
H7358 H 0.3137 0.9941 0.44845 0.0
H7359 H 0.31738 0.00744 0.43682 0.0
C7360 C 0.97813 0.33777 0.42286 0.0
C7361 C 0.97532 0.34309 0.43559 0.0
C7362 C 0.99135 0.33775 0.41789 0.0
C7363 C 1.00184 0.3431 0.4259 0.0
C7364 C 0.99863 0.35034 0.4377 0.0
C7365 C 0.98538 0.35023 0.44243 0.0
C7366 C 0.99431 0.33041 0.40496 0.0
C7367 C 0.00942 0.35653 0.44638 0.0
C7368 C 0.03197 0.3204 0.42976 0.0
C7369 C 0.04195 0.32721 0.42254 0.0
C7370 C 0.01896 0.32552 0.4308 0.0
C7371 C 0.01571 0.33779 0.42434 0.0
C7372 C 0.02574 0.34483 0.41708 0.0
C7373 C 0.03883 0.33947 0.41631 0.0
C7374 C 0.0087 0.31775 0.43891 0.0
C7375 C 0.0226 0.35778 0.40985 0.0
H7376 H 0.97033 0.33248 0.41738 0.0
H7377 H 0.98315 0.35474 0.4521 0.0
H7378 H 1.00243 0.33552 0.39927 0.0
H7379 H 0.99779 0.32007 0.40732 0.0
H7380 H 0.98524 0.32966 0.3985 0.0
H7381 H 0.00521 0.36411 0.45342 0.0
H7382 H 0.01431 0.34852 0.45241 0.0
H7383 H 0.0173 0.36138 0.44016 0.0
H7384 H 0.03436 0.311 0.43473 0.0
H7385 H 0.04651 0.34468 0.4106 0.0
H7386 H 1.00008 0.31489 0.43244 0.0
H7387 H 0.00475 0.32411 0.44718 0.0
H7388 H 0.01296 0.30844 0.44338 0.0
H7389 H 0.01681 0.35549 0.4006 0.0
H7390 H 0.03188 0.36325 0.40691 0.0
H7391 H 0.0163 0.36448 0.41614 0.0
C7392 C 0.34319 0.03614 0.59171 0.0
C7393 C 0.33285 0.03978 0.58286 0.0
C7394 C 0.34851 0.02301 0.59154 0.0
C7395 C 0.34326 0.01348 0.58233 0.0
C7396 C 0.33344 0.01749 0.57282 0.0
C7397 C 0.32841 0.03056 0.57322 0.0
C7398 C 0.35912 0.01925 0.60169 0.0
C7399 C 0.32768 0.00782 0.56259 0.0
C7400 C 0.3551 0.98088 0.56861 0.0
C7401 C 0.34513 0.9724 0.57384 0.0
C7402 C 0.35633 0.99416 0.57313 0.0
C7403 C 0.34711 0.99905 0.58276 0.0
C7404 C 0.33859 0.9899 0.58959 0.0
C7405 C 0.33772 0.97656 0.58505 0.0
C7406 C 0.36609 0.00342 0.56614 0.0
C7407 C 0.32892 0.99463 0.60025 0.0
H7408 H 0.34659 0.04328 0.59921 0.0
H7409 H 0.32054 0.03347 0.56625 0.0
H7410 H 0.35416 0.01516 0.6108 0.0
H7411 H 0.36604 0.01145 0.59774 0.0
H7412 H 0.36509 0.02817 0.60477 0.0
H7413 H 0.32027 0.01269 0.55581 0.0
H7414 H 0.33585 0.00355 0.55632 0.0
H7415 H 0.32261 0.99936 0.56779 0.0
H7416 H 0.36111 0.97753 0.56016 0.0
H7417 H 0.33015 0.96994 0.58924 0.0
H7418 H 0.37005 0.01111 0.57318 0.0
H7419 H 0.36082 0.00873 0.55786 0.0
H7420 H 0.37464 0.99775 0.56174 0.0
H7421 H 0.3338 1.00203 0.60701 0.0
H7422 H 0.32505 0.98612 0.60637 0.0
H7423 H 0.32024 0.99966 0.59536 0.0
C7424 C 0.97467 0.32785 0.57121 0.0
C7425 C 0.96542 0.33269 0.58062 0.0
C7426 C 0.98783 0.33264 0.57086 0.0
C7427 C 0.99189 0.34264 0.58015 0.0
C7428 C 0.98233 0.34829 0.58909 0.0
C7429 C 0.96911 0.3432 0.58924 0.0
C7430 C 0.99755 0.32643 0.56093 0.0
C7431 C 0.98615 0.35912 0.59898 0.0
C7432 C 0.02874 0.33681 0.58358 0.0
C7433 C 0.03317 0.34389 0.57227 0.0
C7434 C 0.01532 0.33788 0.58784 0.0
C7435 C 0.00636 0.34629 0.58062 0.0
C7436 C 0.01148 0.35517 0.5708 0.0
C7437 C 0.02484 0.35372 0.56657 0.0
C7438 C 0.01033 0.32855 0.59868 0.0
C7439 C 1.00243 0.3648 0.56338 0.0
H7440 H 0.97172 0.31985 0.56441 0.0
H7441 H 0.96194 0.3469 0.59656 0.0
H7442 H 1.00201 0.33433 0.55446 0.0
H7443 H 0.00588 0.32141 0.56639 0.0
H7444 H 0.99265 0.31888 0.55432 0.0
H7445 H 0.97727 0.36525 0.60187 0.0
H7446 H 0.99017 0.35437 0.60823 0.0
H7447 H 0.99403 0.36586 0.59488 0.0
H7448 H 0.03525 0.32934 0.58814 0.0
H7449 H 0.0284 0.35949 0.55803 0.0
H7450 H 0.00526 0.31981 0.59395 0.0
H7451 H 1.00289 0.33368 0.6052 0.0
H7452 H 0.0187 0.32474 0.60502 0.0
H7453 H 0.99715 0.35933 0.55521 0.0
H7454 H 0.00825 0.37314 0.55878 0.0
H7455 H 0.99469 0.36907 0.57019 0.0
C7456 C 0.97623 0.66932 0.58188 0.0
C7457 C 0.97188 0.66224 0.57054 0.0
C7458 C 0.98953 0.66802 0.58639 0.0
C7459 C 0.99846 0.65939 0.5794 0.0
C7460 C 0.99331 0.65045 0.56964 0.0
C7461 C 0.98008 0.65214 0.56513 0.0
C7462 C 0.99453 0.6774 0.5972 0.0
C7463 C 1.00229 0.64052 0.56253 0.0
C7464 C 0.03023 0.67762 0.56995 0.0
C7465 C 0.03934 0.67306 0.57963 0.0
C7466 C 0.01711 0.67274 0.56948 0.0
C7467 C 0.01295 0.66293 0.57894 0.0
C7468 C 0.0224 0.65751 0.58813 0.0
C7469 C 0.03558 0.66269 0.58839 0.0
C7470 C 0.00752 0.67871 0.55928 0.0
C7471 C 0.01851 0.64685 0.59817 0.0
H7472 H 0.9698 0.67698 0.58623 0.0
H7473 H 0.97655 0.64636 0.55658 0.0
H7474 H 1.00175 0.6722 0.60391 0.0
H7475 H 0.99986 0.68598 0.59245 0.0
H7476 H 0.98613 0.68145 0.60335 0.0
H7477 H 0.99637 0.63216 0.55808 0.0
H7478 H 0.00772 0.64571 0.55429 0.0
H7479 H 0.00989 0.63629 0.56952 0.0
H7480 H 0.03325 0.68549 0.56304 0.0
H7481 H 0.04265 0.65919 0.59591 0.0
H7482 H 0.99908 0.68379 0.5645 0.0
H7483 H 1.00321 0.67066 0.5529 0.0
H7484 H 0.01249 0.68615 0.55261 0.0
H7485 H 0.01475 0.65176 0.60744 0.0
H7486 H 0.02733 0.64059 0.60098 0.0
H7487 H 0.01045 0.6402 0.59425 0.0
loop_
_geom_bond_atom_site_label_1
_geom_bond_atom_site_label_2
_geom_bond_distance
_geom_bond_site_symmetry_2
_ccdc_geom_bond_type
Co0 O1 2.216 . S
Co0 O2 2.091 . S
Co0 O4 2.004 . S
Co0 O10 2.021 . S
Co0 O12 2.137 . S
Co0 O13 2.244 . S
O1 Co0 2.216 . S
O1 C8 1.247 . S
O2 Co0 2.091 . S
O2 C8 1.261 . S
C3 O12 1.247 . S
C3 O13 1.272 . S
O4 Co0 2.004 . S
O4 C9 1.259 . S
Co5 O6 2.061 . S
Co5 O11 2.052 . S
Co5 O13 2.135 . S
O6 Co5 2.061 . S
O6 C9 1.235 . S
C7 O10 1.238 . S
C7 O11 1.241 . S
C8 O1 1.247 . S
C8 O2 1.261 . S
C9 O4 1.259 . S
C9 O6 1.235 . S
O10 Co0 2.021 . S
O10 C7 1.238 . S
O11 Co5 2.052 . S
O11 C7 1.241 . S
O12 Co0 2.137 . S
O12 C3 1.247 . S
O13 Co0 2.244 . S
O13 C3 1.272 . S
O13 Co5 2.135 . S
Co14 O15 2.216 . S
Co14 O16 2.091 . S
Co14 O18 2.004 . S
Co14 O24 2.021 . S
Co14 O26 2.137 . S
Co14 O27 2.244 . S
O15 Co14 2.216 . S
O15 C22 1.247 . S
O16 Co14 2.091 . S
O16 C22 1.261 . S
C17 O26 1.247 . S
C17 O27 1.272 . S
O18 Co14 2.004 . S
O18 C23 1.259 . S
Co19 O20 2.061 . S
Co19 O25 2.052 . S
Co19 O27 2.135 . S
O20 Co19 2.061 . S
O20 C23 1.235 . S
C21 O24 1.238 . S
C21 O25 1.241 . S
C22 O15 1.247 . S
C22 O16 1.261 . S
C23 O18 1.259 . S
C23 O20 1.235 . S
O24 Co14 2.021 . S
O24 C21 1.238 . S
O25 Co19 2.052 . S
O25 C21 1.241 . S
O26 Co14 2.137 . S
O26 C17 1.247 . S
O27 Co14 2.244 . S
O27 C17 1.272 . S
O27 Co19 2.135 . S
Co28 O29 2.216 . S
Co28 O30 2.091 . S
Co28 O32 2.004 . S
Co28 O38 2.021 . S
Co28 O40 2.137 . S
Co28 O41 2.244 . S
O29 Co28 2.216 . S
O29 C36 1.247 . S
O30 Co28 2.091 . S
O30 C36 1.261 . S
C31 O40 1.247 . S
C31 O41 1.272 . S
O32 Co28 2.004 . S
O32 C37 1.259 . S
Co33 O34 2.061 . S
Co33 O39 2.052 . S
Co33 O41 2.135 . S
O34 Co33 2.061 . S
O34 C37 1.235 . S
C35 O38 1.238 . S
C35 O39 1.241 . S
C36 O29 1.247 . S
C36 O30 1.261 . S
C37 O32 1.259 . S
C37 O34 1.235 . S
O38 Co28 2.021 . S
O38 C35 1.238 . S
O39 Co33 2.052 . S
O39 C35 1.241 . S
O40 Co28 2.137 . S
O40 C31 1.247 . S
O41 Co28 2.244 . S
O41 C31 1.272 . S
O41 Co33 2.135 . S
Co42 O43 2.216 . S
Co42 O44 2.091 . S
Co42 O46 2.004 . S
Co42 O52 2.021 . S
Co42 O54 2.137 . S
Co42 O55 2.244 . S
O43 Co42 2.216 . S
O43 C50 1.247 . S
O44 Co42 2.091 . S
O44 C50 1.261 . S
C45 O54 1.247 . S
C45 O55 1.272 . S
O46 Co42 2.004 . S
O46 C51 1.259 . S
Co47 O48 2.061 . S
Co47 O53 2.052 . S
Co47 O55 2.135 . S
O48 Co47 2.061 . S
O48 C51 1.235 . S
C49 O52 1.238 . S
C49 O53 1.241 . S
C50 O43 1.247 . S
C50 O44 1.261 . S
C51 O46 1.259 . S
C51 O48 1.235 . S
O52 Co42 2.021 . S
O52 C49 1.238 . S
O53 Co47 2.052 . S
O53 C49 1.241 . S
O54 Co42 2.137 . S
O54 C45 1.247 . S
O55 Co42 2.244 . S
O55 C45 1.272 . S
O55 Co47 2.135 . S
Co56 O57 2.216 . S
Co56 O58 2.091 . S
Co56 O60 2.004 . S
Co56 O66 2.021 . S
Co56 O68 2.137 . S
Co56 O69 2.244 . S
O57 Co56 2.216 . S
O57 C64 1.247 . S
O58 Co56 2.091 . S
O58 C64 1.261 . S
C59 O68 1.247 . S
C59 O69 1.272 . S
O60 Co56 2.004 . S
O60 C65 1.259 . S
Co61 O62 2.061 . S
Co61 O67 2.052 . S
Co61 O69 2.135 . S
O62 Co61 2.061 . S
O62 C65 1.235 . S
C63 O66 1.238 . S
C63 O67 1.241 . S
C64 O57 1.247 . S
C64 O58 1.261 . S
C65 O60 1.259 . S
C65 O62 1.235 . S
O66 Co56 2.021 . S
O66 C63 1.238 . S
O67 Co61 2.052 . S
O67 C63 1.241 . S
O68 Co56 2.137 . S
O68 C59 1.247 . S
O69 Co56 2.244 . S
O69 C59 1.272 . S
O69 Co61 2.135 . S
Co70 O71 2.216 . S
Co70 O72 2.091 . S
Co70 O74 2.004 . S
Co70 O80 2.021 . S
Co70 O82 2.137 . S
Co70 O83 2.244 . S
O71 Co70 2.216 . S
O71 C78 1.247 . S
O72 Co70 2.091 . S
O72 C78 1.261 . S
C73 O82 1.247 . S
C73 O83 1.272 . S
O74 Co70 2.004 . S
O74 C79 1.259 . S
Co75 O76 2.061 . S
Co75 O81 2.052 . S
Co75 O83 2.135 . S
O76 Co75 2.061 . S
O76 C79 1.235 . S
C77 O80 1.238 . S
C77 O81 1.241 . S
C78 O71 1.247 . S
C78 O72 1.261 . S
C79 O74 1.259 . S
C79 O76 1.235 . S
O80 Co70 2.021 . S
O80 C77 1.238 . S
O81 Co75 2.052 . S
O81 C77 1.241 . S
O82 Co70 2.137 . S
O82 C73 1.247 . S
O83 Co70 2.244 . S
O83 C73 1.272 . S
O83 Co75 2.135 . S
Co84 O85 2.216 . S
Co84 O86 2.091 . S
Co84 O88 2.004 . S
Co84 O94 2.021 . S
Co84 O96 2.137 . S
Co84 O97 2.244 . S
O85 Co84 2.216 . S
O85 C92 1.247 . S
O86 Co84 2.091 . S
O86 C92 1.261 . S
C87 O96 1.247 . S
C87 O97 1.272 . S
O88 Co84 2.004 . S
O88 C93 1.259 . S
Co89 O90 2.061 . S
Co89 O95 2.052 . S
Co89 O97 2.135 . S
O90 Co89 2.061 . S
O90 C93 1.235 . S
C91 O94 1.238 . S
C91 O95 1.241 . S
C92 O85 1.247 . S
C92 O86 1.261 . S
C93 O88 1.259 . S
C93 O90 1.235 . S
O94 Co84 2.021 . S
O94 C91 1.238 . S
O95 Co89 2.052 . S
O95 C91 1.241 . S
O96 Co84 2.137 . S
O96 C87 1.247 . S
O97 Co84 2.244 . S
O97 C87 1.272 . S
O97 Co89 2.135 . S
Co98 O99 2.216 . S
Co98 O100 2.091 . S
Co98 O102 2.004 . S
Co98 O108 2.021 . S
Co98 O110 2.137 . S
Co98 O111 2.244 . S
O99 Co98 2.216 . S
O99 C106 1.247 . S
O100 Co98 2.091 . S
O100 C106 1.261 . S
C101 O110 1.247 . S
C101 O111 1.272 . S
O102 Co98 2.004 . S
O102 C107 1.259 . S
Co103 O104 2.061 . S
Co103 O109 2.052 . S
Co103 O111 2.135 . S
O104 Co103 2.061 . S
O104 C107 1.235 . S
C105 O108 1.238 . S
C105 O109 1.241 . S
C106 O99 1.247 . S
C106 O100 1.261 . S
C107 O102 1.259 . S
C107 O104 1.235 . S
O108 Co98 2.021 . S
O108 C105 1.238 . S
O109 Co103 2.052 . S
O109 C105 1.241 . S
O110 Co98 2.137 . S
O110 C101 1.247 . S
O111 Co98 2.244 . S
O111 C101 1.272 . S
O111 Co103 2.135 . S
Co112 O113 2.216 . S
Co112 O114 2.091 . S
Co112 O116 2.004 . S
Co112 O122 2.021 . S
Co112 O124 2.137 . S
Co112 O125 2.244 . S
O113 Co112 2.216 . S
O113 C120 1.247 . S
O114 Co112 2.091 . S
O114 C120 1.261 . S
C115 O124 1.247 . S
C115 O125 1.272 . S
O116 Co112 2.004 . S
O116 C121 1.259 . S
Co117 O118 2.061 . S
Co117 O123 2.052 . S
Co117 O125 2.135 . S
O118 Co117 2.061 . S
O118 C121 1.235 . S
C119 O122 1.238 . S
C119 O123 1.241 . S
C120 O113 1.247 . S
C120 O114 1.261 . S
C121 O116 1.259 . S
C121 O118 1.235 . S
O122 Co112 2.021 . S
O122 C119 1.238 . S
O123 Co117 2.052 . S
O123 C119 1.241 . S
O124 Co112 2.137 . S
O124 C115 1.247 . S
O125 Co112 2.244 . S
O125 C115 1.272 . S
O125 Co117 2.135 . S
Co126 O127 2.216 . S
Co126 O128 2.091 . S
Co126 O130 2.004 . S
Co126 O136 2.021 . S
Co126 O138 2.137 . S
Co126 O139 2.244 . S
O127 Co126 2.216 . S
O127 C134 1.247 . S
O128 Co126 2.091 . S
O128 C134 1.261 . S
C129 O138 1.247 . S
C129 O139 1.272 . S
O130 Co126 2.004 . S
O130 C135 1.259 . S
Co131 O132 2.061 . S
Co131 O137 2.052 . S
Co131 O139 2.135 . S
O132 Co131 2.061 . S
O132 C135 1.235 . S
C133 O136 1.238 . S
C133 O137 1.241 . S
C134 O127 1.247 . S
C134 O128 1.261 . S
C135 O130 1.259 . S
C135 O132 1.235 . S
O136 Co126 2.021 . S
O136 C133 1.238 . S
O137 Co131 2.052 . S
O137 C133 1.241 . S
O138 Co126 2.137 . S
O138 C129 1.247 . S
O139 Co126 2.244 . S
O139 C129 1.272 . S
O139 Co131 2.135 . S
Co140 O141 2.216 . S
Co140 O142 2.091 . S
Co140 O144 2.004 . S
Co140 O150 2.021 . S
Co140 O152 2.137 . S
Co140 O153 2.244 . S
O141 Co140 2.216 . S
O141 C148 1.247 . S
O142 Co140 2.091 . S
O142 C148 1.261 . S
C143 O152 1.247 . S
C143 O153 1.272 . S
O144 Co140 2.004 . S
O144 C149 1.259 . S
Co145 O146 2.061 . S
Co145 O151 2.052 . S
Co145 O153 2.135 . S
O146 Co145 2.061 . S
O146 C149 1.235 . S
C147 O150 1.238 . S
C147 O151 1.241 . S
C148 O141 1.247 . S
C148 O142 1.261 . S
C149 O144 1.259 . S
C149 O146 1.235 . S
O150 Co140 2.021 . S
O150 C147 1.238 . S
O151 Co145 2.052 . S
O151 C147 1.241 . S
O152 Co140 2.137 . S
O152 C143 1.247 . S
O153 Co140 2.244 . S
O153 C143 1.272 . S
O153 Co145 2.135 . S
Co154 O155 2.216 . S
Co154 O156 2.091 . S
Co154 O158 2.004 . S
Co154 O164 2.021 . S
Co154 O166 2.137 . S
Co154 O167 2.244 . S
O155 Co154 2.216 . S
O155 C162 1.247 . S
O156 Co154 2.091 . S
O156 C162 1.261 . S
C157 O166 1.247 . S
C157 O167 1.272 . S
O158 Co154 2.004 . S
O158 C163 1.259 . S
Co159 O160 2.061 . S
Co159 O165 2.052 . S
Co159 O167 2.135 . S
O160 Co159 2.061 . S
O160 C163 1.235 . S
C161 O164 1.238 . S
C161 O165 1.241 . S
C162 O155 1.247 . S
C162 O156 1.261 . S
C163 O158 1.259 . S
C163 O160 1.235 . S
O164 Co154 2.021 . S
O164 C161 1.238 . S
O165 Co159 2.052 . S
O165 C161 1.241 . S
O166 Co154 2.137 . S
O166 C157 1.247 . S
O167 Co154 2.244 . S
O167 C157 1.272 . S
O167 Co159 2.135 . S
Co168 O169 2.216 . S
Co168 O170 2.091 . S
Co168 O172 2.004 . S
Co168 O178 2.021 . S
Co168 O180 2.137 . S
Co168 O181 2.244 . S
O169 Co168 2.216 . S
O169 C176 1.247 . S
O170 Co168 2.091 . S
O170 C176 1.261 . S
C171 O180 1.247 . S
C171 O181 1.272 . S
O172 Co168 2.004 . S
O172 C177 1.259 . S
Co173 O174 2.061 . S
Co173 O179 2.052 . S
Co173 O181 2.135 . S
O174 Co173 2.061 . S
O174 C177 1.235 . S
C175 O178 1.238 . S
C175 O179 1.241 . S
C176 O169 1.247 . S
C176 O170 1.261 . S
C177 O172 1.259 . S
C177 O174 1.235 . S
O178 Co168 2.021 . S
O178 C175 1.238 . S
O179 Co173 2.052 . S
O179 C175 1.241 . S
O180 Co168 2.137 . S
O180 C171 1.247 . S
O181 Co168 2.244 . S
O181 C171 1.272 . S
O181 Co173 2.135 . S
Co182 O183 2.216 . S
Co182 O184 2.091 . S
Co182 O186 2.004 . S
Co182 O192 2.021 . S
Co182 O194 2.137 . S
Co182 O195 2.244 . S
O183 Co182 2.216 . S
O183 C190 1.247 . S
O184 Co182 2.091 . S
O184 C190 1.261 . S
C185 O194 1.247 . S
C185 O195 1.272 . S
O186 Co182 2.004 . S
O186 C191 1.259 . S
Co187 O188 2.061 . S
Co187 O193 2.052 . S
Co187 O195 2.135 . S
O188 Co187 2.061 . S
O188 C191 1.235 . S
C189 O192 1.238 . S
C189 O193 1.241 . S
C190 O183 1.247 . S
C190 O184 1.261 . S
C191 O186 1.259 . S
C191 O188 1.235 . S
O192 Co182 2.021 . S
O192 C189 1.238 . S
O193 Co187 2.052 . S
O193 C189 1.241 . S
O194 Co182 2.137 . S
O194 C185 1.247 . S
O195 Co182 2.244 . S
O195 C185 1.272 . S
O195 Co187 2.135 . S
Co196 O197 2.216 . S
Co196 O198 2.091 . S
Co196 O200 2.004 . S
Co196 O206 2.021 . S
Co196 O208 2.137 . S
Co196 O209 2.244 . S
O197 Co196 2.216 . S
O197 C204 1.247 . S
O198 Co196 2.091 . S
O198 C204 1.261 . S
C199 O208 1.247 . S
C199 O209 1.272 . S
O200 Co196 2.004 . S
O200 C205 1.259 . S
Co201 O202 2.061 . S
Co201 O207 2.052 . S
Co201 O209 2.135 . S
O202 Co201 2.061 . S
O202 C205 1.235 . S
C203 O206 1.238 . S
C203 O207 1.241 . S
C204 O197 1.247 . S
C204 O198 1.261 . S
C205 O200 1.259 . S
C205 O202 1.235 . S
O206 Co196 2.021 . S
O206 C203 1.238 . S
O207 Co201 2.052 . S
O207 C203 1.241 . S
O208 Co196 2.137 . S
O208 C199 1.247 . S
O209 Co196 2.244 . S
O209 C199 1.272 . S
O209 Co201 2.135 . S
Co210 O211 2.216 . S
Co210 O212 2.091 . S
Co210 O214 2.004 . S
Co210 O220 2.021 . S
Co210 O222 2.137 . S
Co210 O223 2.244 . S
O211 Co210 2.216 . S
O211 C218 1.247 . S
O212 Co210 2.091 . S
O212 C218 1.261 . S
C213 O222 1.247 . S
C213 O223 1.272 . S
O214 Co210 2.004 . S
O214 C219 1.259 . S
Co215 O216 2.061 . S
Co215 O221 2.052 . S
Co215 O223 2.135 . S
O216 Co215 2.061 . S
O216 C219 1.235 . S
C217 O220 1.238 . S
C217 O221 1.241 . S
C218 O211 1.247 . S
C218 O212 1.261 . S
C219 O214 1.259 . S
C219 O216 1.235 . S
O220 Co210 2.021 . S
O220 C217 1.238 . S
O221 Co215 2.052 . S
O221 C217 1.241 . S
O222 Co210 2.137 . S
O222 C213 1.247 . S
O223 Co210 2.244 . S
O223 C213 1.272 . S
O223 Co215 2.135 . S
Co224 O225 2.216 . S
Co224 O226 2.091 . S
Co224 O228 2.004 . S
Co224 O234 2.021 . S
Co224 O236 2.137 . S
Co224 O237 2.244 . S
O225 Co224 2.216 . S
O225 C232 1.247 . S
O226 Co224 2.091 . S
O226 C232 1.261 . S
C227 O236 1.247 . S
C227 O237 1.272 . S
O228 Co224 2.004 . S
O228 C233 1.259 . S
Co229 O230 2.061 . S
Co229 O235 2.052 . S
Co229 O237 2.135 . S
O230 Co229 2.061 . S
O230 C233 1.235 . S
C231 O234 1.238 . S
C231 O235 1.241 . S
C232 O225 1.247 . S
C232 O226 1.261 . S
C233 O228 1.259 . S
C233 O230 1.235 . S
O234 Co224 2.021 . S
O234 C231 1.238 . S
O235 Co229 2.052 . S
O235 C231 1.241 . S
O236 Co224 2.137 . S
O236 C227 1.247 . S
O237 Co224 2.244 . S
O237 C227 1.272 . S
O237 Co229 2.135 . S
Co238 O239 2.216 . S
Co238 O240 2.091 . S
Co238 O242 2.004 . S
Co238 O248 2.021 . S
Co238 O250 2.137 . S
Co238 O251 2.244 . S
O239 Co238 2.216 . S
O239 C246 1.247 . S
O240 Co238 2.091 . S
O240 C246 1.261 . S
C241 O250 1.247 . S
C241 O251 1.272 . S
O242 Co238 2.004 . S
O242 C247 1.259 . S
Co243 O244 2.061 . S
Co243 O249 2.052 . S
Co243 O251 2.135 . S
O244 Co243 2.061 . S
O244 C247 1.235 . S
C245 O248 1.238 . S
C245 O249 1.241 . S
C246 O239 1.247 . S
C246 O240 1.261 . S
C247 O242 1.259 . S
C247 O244 1.235 . S
O248 Co238 2.021 . S
O248 C245 1.238 . S
O249 Co243 2.052 . S
O249 C245 1.241 . S
O250 Co238 2.137 . S
O250 C241 1.247 . S
O251 Co238 2.244 . S
O251 C241 1.272 . S
O251 Co243 2.135 . S
Co252 O253 2.216 . S
Co252 O254 2.091 . S
Co252 O256 2.004 . S
Co252 O262 2.021 . S
Co252 O264 2.137 . S
Co252 O265 2.244 . S
O253 Co252 2.216 . S
O253 C260 1.247 . S
O254 Co252 2.091 . S
O254 C260 1.261 . S
C255 O264 1.247 . S
C255 O265 1.272 . S
O256 Co252 2.004 . S
O256 C261 1.259 . S
Co257 O258 2.061 . S
Co257 O263 2.052 . S
Co257 O265 2.135 . S
O258 Co257 2.061 . S
O258 C261 1.235 . S
C259 O262 1.238 . S
C259 O263 1.241 . S
C260 O253 1.247 . S
C260 O254 1.261 . S
C261 O256 1.259 . S
C261 O258 1.235 . S
O262 Co252 2.021 . S
O262 C259 1.238 . S
O263 Co257 2.052 . S
O263 C259 1.241 . S
O264 Co252 2.137 . S
O264 C255 1.247 . S
O265 Co252 2.244 . S
O265 C255 1.272 . S
O265 Co257 2.135 . S
Co266 O267 2.216 . S
Co266 O268 2.091 . S
Co266 O270 2.004 . S
Co266 O276 2.021 . S
Co266 O278 2.137 . S
Co266 O279 2.244 . S
O267 Co266 2.216 . S
O267 C274 1.247 . S
O268 Co266 2.091 . S
O268 C274 1.261 . S
C269 O278 1.247 . S
C269 O279 1.272 . S
O270 Co266 2.004 . S
O270 C275 1.259 . S
Co271 O272 2.061 . S
Co271 O277 2.052 . S
Co271 O279 2.135 . S
O272 Co271 2.061 . S
O272 C275 1.235 . S
C273 O276 1.238 . S
C273 O277 1.241 . S
C274 O267 1.247 . S
C274 O268 1.261 . S
C275 O270 1.259 . S
C275 O272 1.235 . S
O276 Co266 2.021 . S
O276 C273 1.238 . S
O277 Co271 2.052 . S
O277 C273 1.241 . S
O278 Co266 2.137 . S
O278 C269 1.247 . S
O279 Co266 2.244 . S
O279 C269 1.272 . S
O279 Co271 2.135 . S
Co280 O281 2.216 . S
Co280 O282 2.091 . S
Co280 O284 2.004 . S
Co280 O290 2.021 . S
Co280 O292 2.137 . S
Co280 O293 2.244 . S
O281 Co280 2.216 . S
O281 C288 1.247 . S
O282 Co280 2.091 . S
O282 C288 1.261 . S
C283 O292 1.247 . S
C283 O293 1.272 . S
O284 Co280 2.004 . S
O284 C289 1.259 . S
Co285 O286 2.061 . S
Co285 O291 2.052 . S
Co285 O293 2.135 . S
O286 Co285 2.061 . S
O286 C289 1.235 . S
C287 O290 1.238 . S
C287 O291 1.241 . S
C288 O281 1.247 . S
C288 O282 1.261 . S
C289 O284 1.259 . S
C289 O286 1.235 . S
O290 Co280 2.021 . S
O290 C287 1.238 . S
O291 Co285 2.052 . S
O291 C287 1.241 . S
O292 Co280 2.137 . S
O292 C283 1.247 . S
O293 Co280 2.244 . S
O293 C283 1.272 . S
O293 Co285 2.135 . S
Co294 O295 2.216 . S
Co294 O296 2.091 . S
Co294 O298 2.004 . S
Co294 O304 2.021 . S
Co294 O306 2.137 . S
Co294 O307 2.244 . S
O295 Co294 2.216 . S
O295 C302 1.247 . S
O296 Co294 2.091 . S
O296 C302 1.261 . S
C297 O306 1.247 . S
C297 O307 1.272 . S
O298 Co294 2.004 . S
O298 C303 1.259 . S
Co299 O300 2.061 . S
Co299 O305 2.052 . S
Co299 O307 2.135 . S
O300 Co299 2.061 . S
O300 C303 1.235 . S
C301 O304 1.238 . S
C301 O305 1.241 . S
C302 O295 1.247 . S
C302 O296 1.261 . S
C303 O298 1.259 . S
C303 O300 1.235 . S
O304 Co294 2.021 . S
O304 C301 1.238 . S
O305 Co299 2.052 . S
O305 C301 1.241 . S
O306 Co294 2.137 . S
O306 C297 1.247 . S
O307 Co294 2.244 . S
O307 C297 1.272 . S
O307 Co299 2.135 . S
Co308 O309 2.216 . S
Co308 O310 2.091 . S
Co308 O312 2.004 . S
Co308 O318 2.021 . S
Co308 O320 2.137 . S
Co308 O321 2.244 . S
O309 Co308 2.216 . S
O309 C316 1.247 . S
O310 Co308 2.091 . S
O310 C316 1.261 . S
C311 O320 1.247 . S
C311 O321 1.272 . S
O312 Co308 2.004 . S
O312 C317 1.259 . S
Co313 O314 2.061 . S
Co313 O319 2.052 . S
Co313 O321 2.135 . S
O314 Co313 2.061 . S
O314 C317 1.235 . S
C315 O318 1.238 . S
C315 O319 1.241 . S
C316 O309 1.247 . S
C316 O310 1.261 . S
C317 O312 1.259 . S
C317 O314 1.235 . S
O318 Co308 2.021 . S
O318 C315 1.238 . S
O319 Co313 2.052 . S
O319 C315 1.241 . S
O320 Co308 2.137 . S
O320 C311 1.247 . S
O321 Co308 2.244 . S
O321 C311 1.272 . S
O321 Co313 2.135 . S
Co322 O323 2.216 . S
Co322 O324 2.091 . S
Co322 O326 2.004 . S
Co322 O332 2.021 . S
Co322 O334 2.137 . S
Co322 O335 2.244 . S
O323 Co322 2.216 . S
O323 C330 1.247 . S
O324 Co322 2.091 . S
O324 C330 1.261 . S
C325 O334 1.247 . S
C325 O335 1.272 . S
O326 Co322 2.004 . S
O326 C331 1.259 . S
Co327 O328 2.061 . S
Co327 O333 2.052 . S
Co327 O335 2.135 . S
O328 Co327 2.061 . S
O328 C331 1.235 . S
C329 O332 1.238 . S
C329 O333 1.241 . S
C330 O323 1.247 . S
C330 O324 1.261 . S
C331 O326 1.259 . S
C331 O328 1.235 . S
O332 Co322 2.021 . S
O332 C329 1.238 . S
O333 Co327 2.052 . S
O333 C329 1.241 . S
O334 Co322 2.137 . S
O334 C325 1.247 . S
O335 Co322 2.244 . S
O335 C325 1.272 . S
O335 Co327 2.135 . S
Co336 O337 2.216 . S
Co336 O338 2.091 . S
Co336 O340 2.004 . S
Co336 O346 2.021 . S
Co336 O348 2.137 . S
Co336 O349 2.244 . S
O337 Co336 2.216 . S
O337 C344 1.247 . S
O338 Co336 2.091 . S
O338 C344 1.261 . S
C339 O348 1.247 . S
C339 O349 1.272 . S
O340 Co336 2.004 . S
O340 C345 1.259 . S
Co341 O342 2.061 . S
Co341 O347 2.052 . S
Co341 O349 2.135 . S
O342 Co341 2.061 . S
O342 C345 1.235 . S
C343 O346 1.238 . S
C343 O347 1.241 . S
C344 O337 1.247 . S
C344 O338 1.261 . S
C345 O340 1.259 . S
C345 O342 1.235 . S
O346 Co336 2.021 . S
O346 C343 1.238 . S
O347 Co341 2.052 . S
O347 C343 1.241 . S
O348 Co336 2.137 . S
O348 C339 1.247 . S
O349 Co336 2.244 . S
O349 C339 1.272 . S
O349 Co341 2.135 . S
Co350 O351 2.216 . S
Co350 O352 2.091 . S
Co350 O354 2.004 . S
Co350 O360 2.021 . S
Co350 O362 2.137 . S
Co350 O363 2.244 . S
O351 Co350 2.216 . S
O351 C358 1.247 . S
O352 Co350 2.091 . S
O352 C358 1.261 . S
C353 O362 1.247 . S
C353 O363 1.272 . S
O354 Co350 2.004 . S
O354 C359 1.259 . S
Co355 O356 2.061 . S
Co355 O361 2.052 . S
Co355 O363 2.135 . S
O356 Co355 2.061 . S
O356 C359 1.235 . S
C357 O360 1.238 . S
C357 O361 1.241 . S
C358 O351 1.247 . S
C358 O352 1.261 . S
C359 O354 1.259 . S
C359 O356 1.235 . S
O360 Co350 2.021 . S
O360 C357 1.238 . S
O361 Co355 2.052 . S
O361 C357 1.241 . S
O362 Co350 2.137 . S
O362 C353 1.247 . S
O363 Co350 2.244 . S
O363 C353 1.272 . S
O363 Co355 2.135 . S
Co364 O365 2.216 . S
Co364 O366 2.091 . S
Co364 O368 2.004 . S
Co364 O374 2.021 . S
Co364 O376 2.137 . S
Co364 O377 2.244 . S
O365 Co364 2.216 . S
O365 C372 1.247 . S
O366 Co364 2.091 . S
O366 C372 1.261 . S
C367 O376 1.247 . S
C367 O377 1.272 . S
O368 Co364 2.004 . S
O368 C373 1.259 . S
Co369 O370 2.061 . S
Co369 O375 2.052 . S
Co369 O377 2.135 . S
O370 Co369 2.061 . S
O370 C373 1.235 . S
C371 O374 1.238 . S
C371 O375 1.241 . S
C372 O365 1.247 . S
C372 O366 1.261 . S
C373 O368 1.259 . S
C373 O370 1.235 . S
O374 Co364 2.021 . S
O374 C371 1.238 . S
O375 Co369 2.052 . S
O375 C371 1.241 . S
O376 Co364 2.137 . S
O376 C367 1.247 . S
O377 Co364 2.244 . S
O377 C367 1.272 . S
O377 Co369 2.135 . S
Co378 O379 2.216 . S
Co378 O380 2.091 . S
Co378 O382 2.004 . S
Co378 O388 2.021 . S
Co378 O390 2.137 . S
Co378 O391 2.244 . S
O379 Co378 2.216 . S
O379 C386 1.247 . S
O380 Co378 2.091 . S
O380 C386 1.261 . S
C381 O390 1.247 . S
C381 O391 1.272 . S
O382 Co378 2.004 . S
O382 C387 1.259 . S
Co383 O384 2.061 . S
Co383 O389 2.052 . S
Co383 O391 2.135 . S
O384 Co383 2.061 . S
O384 C387 1.235 . S
C385 O388 1.238 . S
C385 O389 1.241 . S
C386 O379 1.247 . S
C386 O380 1.261 . S
C387 O382 1.259 . S
C387 O384 1.235 . S
O388 Co378 2.021 . S
O388 C385 1.238 . S
O389 Co383 2.052 . S
O389 C385 1.241 . S
O390 Co378 2.137 . S
O390 C381 1.247 . S
O391 Co378 2.244 . S
O391 C381 1.272 . S
O391 Co383 2.135 . S
Co392 O393 2.216 . S
Co392 O394 2.091 . S
Co392 O396 2.004 . S
Co392 O402 2.021 . S
Co392 O404 2.137 . S
Co392 O405 2.244 . S
O393 Co392 2.216 . S
O393 C400 1.247 . S
O394 Co392 2.091 . S
O394 C400 1.261 . S
C395 O404 1.247 . S
C395 O405 1.272 . S
O396 Co392 2.004 . S
O396 C401 1.259 . S
Co397 O398 2.061 . S
Co397 O403 2.052 . S
Co397 O405 2.135 . S
O398 Co397 2.061 . S
O398 C401 1.235 . S
C399 O402 1.238 . S
C399 O403 1.241 . S
C400 O393 1.247 . S
C400 O394 1.261 . S
C401 O396 1.259 . S
C401 O398 1.235 . S
O402 Co392 2.021 . S
O402 C399 1.238 . S
O403 Co397 2.052 . S
O403 C399 1.241 . S
O404 Co392 2.137 . S
O404 C395 1.247 . S
O405 Co392 2.244 . S
O405 C395 1.272 . S
O405 Co397 2.135 . S
Co406 O407 2.216 . S
Co406 O408 2.091 . S
Co406 O410 2.004 . S
Co406 O416 2.021 . S
Co406 O418 2.137 . S
Co406 O419 2.244 . S
O407 Co406 2.216 . S
O407 C414 1.247 . S
O408 Co406 2.091 . S
O408 C414 1.261 . S
C409 O418 1.247 . S
C409 O419 1.272 . S
O410 Co406 2.004 . S
O410 C415 1.259 . S
Co411 O412 2.061 . S
Co411 O417 2.052 . S
Co411 O419 2.135 . S
O412 Co411 2.061 . S
O412 C415 1.235 . S
C413 O416 1.238 . S
C413 O417 1.241 . S
C414 O407 1.247 . S
C414 O408 1.261 . S
C415 O410 1.259 . S
C415 O412 1.235 . S
O416 Co406 2.021 . S
O416 C413 1.238 . S
O417 Co411 2.052 . S
O417 C413 1.241 . S
O418 Co406 2.137 . S
O418 C409 1.247 . S
O419 Co406 2.244 . S
O419 C409 1.272 . S
O419 Co411 2.135 . S
Co420 O421 2.216 . S
Co420 O422 2.091 . S
Co420 O424 2.004 . S
Co420 O430 2.021 . S
Co420 O432 2.137 . S
Co420 O433 2.244 . S
O421 Co420 2.216 . S
O421 C428 1.247 . S
O422 Co420 2.091 . S
O422 C428 1.261 . S
C423 O432 1.247 . S
C423 O433 1.272 . S
O424 Co420 2.004 . S
O424 C429 1.259 . S
Co425 O426 2.061 . S
Co425 O431 2.052 . S
Co425 O433 2.135 . S
O426 Co425 2.061 . S
O426 C429 1.235 . S
C427 O430 1.238 . S
C427 O431 1.241 . S
C428 O421 1.247 . S
C428 O422 1.261 . S
C429 O424 1.259 . S
C429 O426 1.235 . S
O430 Co420 2.021 . S
O430 C427 1.238 . S
O431 Co425 2.052 . S
O431 C427 1.241 . S
O432 Co420 2.137 . S
O432 C423 1.247 . S
O433 Co420 2.244 . S
O433 C423 1.272 . S
O433 Co425 2.135 . S
Co434 O435 2.216 . S
Co434 O436 2.091 . S
Co434 O438 2.004 . S
Co434 O444 2.021 . S
Co434 O446 2.137 . S
Co434 O447 2.244 . S
O435 Co434 2.216 . S
O435 C442 1.247 . S
O436 Co434 2.091 . S
O436 C442 1.261 . S
C437 O446 1.247 . S
C437 O447 1.272 . S
O438 Co434 2.004 . S
O438 C443 1.259 . S
Co439 O440 2.061 . S
Co439 O445 2.052 . S
Co439 O447 2.135 . S
O440 Co439 2.061 . S
O440 C443 1.235 . S
C441 O444 1.238 . S
C441 O445 1.241 . S
C442 O435 1.247 . S
C442 O436 1.261 . S
C443 O438 1.259 . S
C443 O440 1.235 . S
O444 Co434 2.021 . S
O444 C441 1.238 . S
O445 Co439 2.052 . S
O445 C441 1.241 . S
O446 Co434 2.137 . S
O446 C437 1.247 . S
O447 Co434 2.244 . S
O447 C437 1.272 . S
O447 Co439 2.135 . S
Co448 O449 2.216 . S
Co448 O450 2.091 . S
Co448 O452 2.004 . S
Co448 O458 2.021 . S
Co448 O460 2.137 . S
Co448 O461 2.244 . S
O449 Co448 2.216 . S
O449 C456 1.247 . S
O450 Co448 2.091 . S
O450 C456 1.261 . S
C451 O460 1.247 . S
C451 O461 1.272 . S
O452 Co448 2.004 . S
O452 C457 1.259 . S
Co453 O454 2.061 . S
Co453 O459 2.052 . S
Co453 O461 2.135 . S
O454 Co453 2.061 . S
O454 C457 1.235 . S
C455 O458 1.238 . S
C455 O459 1.241 . S
C456 O449 1.247 . S
C456 O450 1.261 . S
C457 O452 1.259 . S
C457 O454 1.235 . S
O458 Co448 2.021 . S
O458 C455 1.238 . S
O459 Co453 2.052 . S
O459 C455 1.241 . S
O460 Co448 2.137 . S
O460 C451 1.247 . S
O461 Co448 2.244 . S
O461 C451 1.272 . S
O461 Co453 2.135 . S
Co462 O463 2.216 . S
Co462 O464 2.091 . S
Co462 O466 2.004 . S
Co462 O472 2.021 . S
Co462 O474 2.137 . S
Co462 O475 2.244 . S
O463 Co462 2.216 . S
O463 C470 1.247 . S
O464 Co462 2.091 . S
O464 C470 1.261 . S
C465 O474 1.247 . S
C465 O475 1.272 . S
O466 Co462 2.004 . S
O466 C471 1.259 . S
Co467 O468 2.061 . S
Co467 O473 2.052 . S
Co467 O475 2.135 . S
O468 Co467 2.061 . S
O468 C471 1.235 . S
C469 O472 1.238 . S
C469 O473 1.241 . S
C470 O463 1.247 . S
C470 O464 1.261 . S
C471 O466 1.259 . S
C471 O468 1.235 . S
O472 Co462 2.021 . S
O472 C469 1.238 . S
O473 Co467 2.052 . S
O473 C469 1.241 . S
O474 Co462 2.137 . S
O474 C465 1.247 . S
O475 Co462 2.244 . S
O475 C465 1.272 . S
O475 Co467 2.135 . S
Co476 O477 2.216 . S
Co476 O478 2.091 . S
Co476 O480 2.004 . S
Co476 O486 2.021 . S
Co476 O488 2.137 . S
Co476 O489 2.244 . S
O477 Co476 2.216 . S
O477 C484 1.247 . S
O478 Co476 2.091 . S
O478 C484 1.261 . S
C479 O488 1.247 . S
C479 O489 1.272 . S
O480 Co476 2.004 . S
O480 C485 1.259 . S
Co481 O482 2.061 . S
Co481 O487 2.052 . S
Co481 O489 2.135 . S
O482 Co481 2.061 . S
O482 C485 1.235 . S
C483 O486 1.238 . S
C483 O487 1.241 . S
C484 O477 1.247 . S
C484 O478 1.261 . S
C485 O480 1.259 . S
C485 O482 1.235 . S
O486 Co476 2.021 . S
O486 C483 1.238 . S
O487 Co481 2.052 . S
O487 C483 1.241 . S
O488 Co476 2.137 . S
O488 C479 1.247 . S
O489 Co476 2.244 . S
O489 C479 1.272 . S
O489 Co481 2.135 . S
Co490 O491 2.216 . S
Co490 O492 2.091 . S
Co490 O494 2.004 . S
Co490 O500 2.021 . S
Co490 O502 2.137 . S
Co490 O503 2.244 . S
O491 Co490 2.216 . S
O491 C498 1.247 . S
O492 Co490 2.091 . S
O492 C498 1.261 . S
C493 O502 1.247 . S
C493 O503 1.272 . S
O494 Co490 2.004 . S
O494 C499 1.259 . S
Co495 O496 2.061 . S
Co495 O501 2.052 . S
Co495 O503 2.135 . S
O496 Co495 2.061 . S
O496 C499 1.235 . S
C497 O500 1.238 . S
C497 O501 1.241 . S
C498 O491 1.247 . S
C498 O492 1.261 . S
C499 O494 1.259 . S
C499 O496 1.235 . S
O500 Co490 2.021 . S
O500 C497 1.238 . S
O501 Co495 2.052 . S
O501 C497 1.241 . S
O502 Co490 2.137 . S
O502 C493 1.247 . S
O503 Co490 2.244 . S
O503 C493 1.272 . S
O503 Co495 2.135 . S
Co504 O505 2.216 . S
Co504 O506 2.091 . S
Co504 O508 2.004 . S
Co504 O514 2.021 . S
Co504 O516 2.137 . S
Co504 O517 2.244 . S
O505 Co504 2.216 . S
O505 C512 1.247 . S
O506 Co504 2.091 . S
O506 C512 1.261 . S
C507 O516 1.247 . S
C507 O517 1.272 . S
O508 Co504 2.004 . S
O508 C513 1.259 . S
Co509 O510 2.061 . S
Co509 O515 2.052 . S
Co509 O517 2.135 . S
O510 Co509 2.061 . S
O510 C513 1.235 . S
C511 O514 1.238 . S
C511 O515 1.241 . S
C512 O505 1.247 . S
C512 O506 1.261 . S
C513 O508 1.259 . S
C513 O510 1.235 . S
O514 Co504 2.021 . S
O514 C511 1.238 . S
O515 Co509 2.052 . S
O515 C511 1.241 . S
O516 Co504 2.137 . S
O516 C507 1.247 . S
O517 Co504 2.244 . S
O517 C507 1.272 . S
O517 Co509 2.135 . S
Co518 O519 2.216 . S
Co518 O520 2.091 . S
Co518 O522 2.004 . S
Co518 O528 2.021 . S
Co518 O530 2.137 . S
Co518 O531 2.244 . S
O519 Co518 2.216 . S
O519 C526 1.247 . S
O520 Co518 2.091 . S
O520 C526 1.261 . S
C521 O530 1.247 . S
C521 O531 1.272 . S
O522 Co518 2.004 . S
O522 C527 1.259 . S
Co523 O524 2.061 . S
Co523 O529 2.052 . S
Co523 O531 2.135 . S
O524 Co523 2.061 . S
O524 C527 1.235 . S
C525 O528 1.238 . S
C525 O529 1.241 . S
C526 O519 1.247 . S
C526 O520 1.261 . S
C527 O522 1.259 . S
C527 O524 1.235 . S
O528 Co518 2.021 . S
O528 C525 1.238 . S
O529 Co523 2.052 . S
O529 C525 1.241 . S
O530 Co518 2.137 . S
O530 C521 1.247 . S
O531 Co518 2.244 . S
O531 C521 1.272 . S
O531 Co523 2.135 . S
Co532 O533 2.216 . S
Co532 O534 2.091 . S
Co532 O536 2.004 . S
Co532 O542 2.021 . S
Co532 O544 2.137 . S
Co532 O545 2.244 . S
O533 Co532 2.216 . S
O533 C540 1.247 . S
O534 Co532 2.091 . S
O534 C540 1.261 . S
C535 O544 1.247 . S
C535 O545 1.272 . S
O536 Co532 2.004 . S
O536 C541 1.259 . S
Co537 O538 2.061 . S
Co537 O543 2.052 . S
Co537 O545 2.135 . S
O538 Co537 2.061 . S
O538 C541 1.235 . S
C539 O542 1.238 . S
C539 O543 1.241 . S
C540 O533 1.247 . S
C540 O534 1.261 . S
C541 O536 1.259 . S
C541 O538 1.235 . S
O542 Co532 2.021 . S
O542 C539 1.238 . S
O543 Co537 2.052 . S
O543 C539 1.241 . S
O544 Co532 2.137 . S
O544 C535 1.247 . S
O545 Co532 2.244 . S
O545 C535 1.272 . S
O545 Co537 2.135 . S
Co546 O547 2.216 . S
Co546 O548 2.091 . S
Co546 O550 2.004 . S
Co546 O556 2.021 . S
Co546 O558 2.137 . S
Co546 O559 2.244 . S
O547 Co546 2.216 . S
O547 C554 1.247 . S
O548 Co546 2.091 . S
O548 C554 1.261 . S
C549 O558 1.247 . S
C549 O559 1.272 . S
O550 Co546 2.004 . S
O550 C555 1.259 . S
Co551 O552 2.061 . S
Co551 O557 2.052 . S
Co551 O559 2.135 . S
O552 Co551 2.061 . S
O552 C555 1.235 . S
C553 O556 1.238 . S
C553 O557 1.241 . S
C554 O547 1.247 . S
C554 O548 1.261 . S
C555 O550 1.259 . S
C555 O552 1.235 . S
O556 Co546 2.021 . S
O556 C553 1.238 . S
O557 Co551 2.052 . S
O557 C553 1.241 . S
O558 Co546 2.137 . S
O558 C549 1.247 . S
O559 Co546 2.244 . S
O559 C549 1.272 . S
O559 Co551 2.135 . S
Co560 O561 2.216 . S
Co560 O562 2.091 . S
Co560 O564 2.004 . S
Co560 O570 2.021 . S
Co560 O572 2.137 . S
Co560 O573 2.244 . S
O561 Co560 2.216 . S
O561 C568 1.247 . S
O562 Co560 2.091 . S
O562 C568 1.261 . S
C563 O572 1.247 . S
C563 O573 1.272 . S
O564 Co560 2.004 . S
O564 C569 1.259 . S
Co565 O566 2.061 . S
Co565 O571 2.052 . S
Co565 O573 2.135 . S
O566 Co565 2.061 . S
O566 C569 1.235 . S
C567 O570 1.238 . S
C567 O571 1.241 . S
C568 O561 1.247 . S
C568 O562 1.261 . S
C569 O564 1.259 . S
C569 O566 1.235 . S
O570 Co560 2.021 . S
O570 C567 1.238 . S
O571 Co565 2.052 . S
O571 C567 1.241 . S
O572 Co560 2.137 . S
O572 C563 1.247 . S
O573 Co560 2.244 . S
O573 C563 1.272 . S
O573 Co565 2.135 . S
Co574 O575 2.216 . S
Co574 O576 2.091 . S
Co574 O578 2.004 . S
Co574 O584 2.021 . S
Co574 O586 2.137 . S
Co574 O587 2.244 . S
O575 Co574 2.216 . S
O575 C582 1.247 . S
O576 Co574 2.091 . S
O576 C582 1.261 . S
C577 O586 1.247 . S
C577 O587 1.272 . S
O578 Co574 2.004 . S
O578 C583 1.259 . S
Co579 O580 2.061 . S
Co579 O585 2.052 . S
Co579 O587 2.135 . S
O580 Co579 2.061 . S
O580 C583 1.235 . S
C581 O584 1.238 . S
C581 O585 1.241 . S
C582 O575 1.247 . S
C582 O576 1.261 . S
C583 O578 1.259 . S
C583 O580 1.235 . S
O584 Co574 2.021 . S
O584 C581 1.238 . S
O585 Co579 2.052 . S
O585 C581 1.241 . S
O586 Co574 2.137 . S
O586 C577 1.247 . S
O587 Co574 2.244 . S
O587 C577 1.272 . S
O587 Co579 2.135 . S
Co588 O589 2.216 . S
Co588 O590 2.091 . S
Co588 O592 2.004 . S
Co588 O598 2.021 . S
Co588 O600 2.137 . S
Co588 O601 2.244 . S
O589 Co588 2.216 . S
O589 C596 1.247 . S
O590 Co588 2.091 . S
O590 C596 1.261 . S
C591 O600 1.247 . S
C591 O601 1.272 . S
O592 Co588 2.004 . S
O592 C597 1.259 . S
Co593 O594 2.061 . S
Co593 O599 2.052 . S
Co593 O601 2.135 . S
O594 Co593 2.061 . S
O594 C597 1.235 . S
C595 O598 1.238 . S
C595 O599 1.241 . S
C596 O589 1.247 . S
C596 O590 1.261 . S
C597 O592 1.259 . S
C597 O594 1.235 . S
O598 Co588 2.021 . S
O598 C595 1.238 . S
O599 Co593 2.052 . S
O599 C595 1.241 . S
O600 Co588 2.137 . S
O600 C591 1.247 . S
O601 Co588 2.244 . S
O601 C591 1.272 . S
O601 Co593 2.135 . S
Co602 O603 2.216 . S
Co602 O604 2.091 . S
Co602 O606 2.004 . S
Co602 O612 2.021 . S
Co602 O614 2.137 . S
Co602 O615 2.244 . S
O603 Co602 2.216 . S
O603 C610 1.247 . S
O604 Co602 2.091 . S
O604 C610 1.261 . S
C605 O614 1.247 . S
C605 O615 1.272 . S
O606 Co602 2.004 . S
O606 C611 1.259 . S
Co607 O608 2.061 . S
Co607 O613 2.052 . S
Co607 O615 2.135 . S
O608 Co607 2.061 . S
O608 C611 1.235 . S
C609 O612 1.238 . S
C609 O613 1.241 . S
C610 O603 1.247 . S
C610 O604 1.261 . S
C611 O606 1.259 . S
C611 O608 1.235 . S
O612 Co602 2.021 . S
O612 C609 1.238 . S
O613 Co607 2.052 . S
O613 C609 1.241 . S
O614 Co602 2.137 . S
O614 C605 1.247 . S
O615 Co602 2.244 . S
O615 C605 1.272 . S
O615 Co607 2.135 . S
Co616 O617 2.216 . S
Co616 O618 2.091 . S
Co616 O620 2.004 . S
Co616 O626 2.021 . S
Co616 O628 2.137 . S
Co616 O629 2.244 . S
O617 Co616 2.216 . S
O617 C624 1.247 . S
O618 Co616 2.091 . S
O618 C624 1.261 . S
C619 O628 1.247 . S
C619 O629 1.272 . S
O620 Co616 2.004 . S
O620 C625 1.259 . S
Co621 O622 2.061 . S
Co621 O627 2.052 . S
Co621 O629 2.135 . S
O622 Co621 2.061 . S
O622 C625 1.235 . S
C623 O626 1.238 . S
C623 O627 1.241 . S
C624 O617 1.247 . S
C624 O618 1.261 . S
C625 O620 1.259 . S
C625 O622 1.235 . S
O626 Co616 2.021 . S
O626 C623 1.238 . S
O627 Co621 2.052 . S
O627 C623 1.241 . S
O628 Co616 2.137 . S
O628 C619 1.247 . S
O629 Co616 2.244 . S
O629 C619 1.272 . S
O629 Co621 2.135 . S
Co630 O631 2.216 . S
Co630 O632 2.091 . S
Co630 O634 2.004 . S
Co630 O640 2.021 . S
Co630 O642 2.137 . S
Co630 O643 2.244 . S
O631 Co630 2.216 . S
O631 C638 1.247 . S
O632 Co630 2.091 . S
O632 C638 1.261 . S
C633 O642 1.247 . S
C633 O643 1.272 . S
O634 Co630 2.004 . S
O634 C639 1.259 . S
Co635 O636 2.061 . S
Co635 O641 2.052 . S
Co635 O643 2.135 . S
O636 Co635 2.061 . S
O636 C639 1.235 . S
C637 O640 1.238 . S
C637 O641 1.241 . S
C638 O631 1.247 . S
C638 O632 1.261 . S
C639 O634 1.259 . S
C639 O636 1.235 . S
O640 Co630 2.021 . S
O640 C637 1.238 . S
O641 Co635 2.052 . S
O641 C637 1.241 . S
O642 Co630 2.137 . S
O642 C633 1.247 . S
O643 Co630 2.244 . S
O643 C633 1.272 . S
O643 Co635 2.135 . S
Co644 O645 2.216 . S
Co644 O646 2.091 . S
Co644 O648 2.004 . S
Co644 O654 2.021 . S
Co644 O656 2.137 . S
Co644 O657 2.244 . S
O645 Co644 2.216 . S
O645 C652 1.247 . S
O646 Co644 2.091 . S
O646 C652 1.261 . S
C647 O656 1.247 . S
C647 O657 1.272 . S
O648 Co644 2.004 . S
O648 C653 1.259 . S
Co649 O650 2.061 . S
Co649 O655 2.052 . S
Co649 O657 2.135 . S
O650 Co649 2.061 . S
O650 C653 1.235 . S
C651 O654 1.238 . S
C651 O655 1.241 . S
C652 O645 1.247 . S
C652 O646 1.261 . S
C653 O648 1.259 . S
C653 O650 1.235 . S
O654 Co644 2.021 . S
O654 C651 1.238 . S
O655 Co649 2.052 . S
O655 C651 1.241 . S
O656 Co644 2.137 . S
O656 C647 1.247 . S
O657 Co644 2.244 . S
O657 C647 1.272 . S
O657 Co649 2.135 . S
Co658 O659 2.216 . S
Co658 O660 2.091 . S
Co658 O662 2.004 . S
Co658 O668 2.021 . S
Co658 O670 2.137 . S
Co658 O671 2.244 . S
O659 Co658 2.216 . S
O659 C666 1.247 . S
O660 Co658 2.091 . S
O660 C666 1.261 . S
C661 O670 1.247 . S
C661 O671 1.272 . S
O662 Co658 2.004 . S
O662 C667 1.259 . S
Co663 O664 2.061 . S
Co663 O669 2.052 . S
Co663 O671 2.135 . S
O664 Co663 2.061 . S
O664 C667 1.235 . S
C665 O668 1.238 . S
C665 O669 1.241 . S
C666 O659 1.247 . S
C666 O660 1.261 . S
C667 O662 1.259 . S
C667 O664 1.235 . S
O668 Co658 2.021 . S
O668 C665 1.238 . S
O669 Co663 2.052 . S
O669 C665 1.241 . S
O670 Co658 2.137 . S
O670 C661 1.247 . S
O671 Co658 2.244 . S
O671 C661 1.272 . S
O671 Co663 2.135 . S
Co672 O673 2.216 . S
Co672 O674 2.091 . S
Co672 O676 2.004 . S
Co672 O682 2.021 . S
Co672 O684 2.137 . S
Co672 O685 2.244 . S
O673 Co672 2.216 . S
O673 C680 1.247 . S
O674 Co672 2.091 . S
O674 C680 1.261 . S
C675 O684 1.247 . S
C675 O685 1.272 . S
O676 Co672 2.004 . S
O676 C681 1.259 . S
Co677 O678 2.061 . S
Co677 O683 2.052 . S
Co677 O685 2.135 . S
O678 Co677 2.061 . S
O678 C681 1.235 . S
C679 O682 1.238 . S
C679 O683 1.241 . S
C680 O673 1.247 . S
C680 O674 1.261 . S
C681 O676 1.259 . S
C681 O678 1.235 . S
O682 Co672 2.021 . S
O682 C679 1.238 . S
O683 Co677 2.052 . S
O683 C679 1.241 . S
O684 Co672 2.137 . S
O684 C675 1.247 . S
O685 Co672 2.244 . S
O685 C675 1.272 . S
O685 Co677 2.135 . S
Co686 O687 2.216 . S
Co686 O688 2.091 . S
Co686 O690 2.004 . S
Co686 O696 2.021 . S
Co686 O698 2.137 . S
Co686 O699 2.244 . S
O687 Co686 2.216 . S
O687 C694 1.247 . S
O688 Co686 2.091 . S
O688 C694 1.261 . S
C689 O698 1.247 . S
C689 O699 1.272 . S
O690 Co686 2.004 . S
O690 C695 1.259 . S
Co691 O692 2.061 . S
Co691 O697 2.052 . S
Co691 O699 2.135 . S
O692 Co691 2.061 . S
O692 C695 1.235 . S
C693 O696 1.238 . S
C693 O697 1.241 . S
C694 O687 1.247 . S
C694 O688 1.261 . S
C695 O690 1.259 . S
C695 O692 1.235 . S
O696 Co686 2.021 . S
O696 C693 1.238 . S
O697 Co691 2.052 . S
O697 C693 1.241 . S
O698 Co686 2.137 . S
O698 C689 1.247 . S
O699 Co686 2.244 . S
O699 C689 1.272 . S
O699 Co691 2.135 . S
Co700 O701 2.216 . S
Co700 O702 2.091 . S
Co700 O704 2.004 . S
Co700 O710 2.021 . S
Co700 O712 2.137 . S
Co700 O713 2.244 . S
O701 Co700 2.216 . S
O701 C708 1.247 . S
O702 Co700 2.091 . S
O702 C708 1.261 . S
C703 O712 1.247 . S
C703 O713 1.272 . S
O704 Co700 2.004 . S
O704 C709 1.259 . S
Co705 O706 2.061 . S
Co705 O711 2.052 . S
Co705 O713 2.135 . S
O706 Co705 2.061 . S
O706 C709 1.235 . S
C707 O710 1.238 . S
C707 O711 1.241 . S
C708 O701 1.247 . S
C708 O702 1.261 . S
C709 O704 1.259 . S
C709 O706 1.235 . S
O710 Co700 2.021 . S
O710 C707 1.238 . S
O711 Co705 2.052 . S
O711 C707 1.241 . S
O712 Co700 2.137 . S
O712 C703 1.247 . S
O713 Co700 2.244 . S
O713 C703 1.272 . S
O713 Co705 2.135 . S
Co714 O715 2.216 . S
Co714 O716 2.091 . S
Co714 O718 2.004 . S
Co714 O724 2.021 . S
Co714 O726 2.137 . S
Co714 O727 2.244 . S
O715 Co714 2.216 . S
O715 C722 1.247 . S
O716 Co714 2.091 . S
O716 C722 1.261 . S
C717 O726 1.247 . S
C717 O727 1.272 . S
O718 Co714 2.004 . S
O718 C723 1.259 . S
Co719 O720 2.061 . S
Co719 O725 2.052 . S
Co719 O727 2.135 . S
O720 Co719 2.061 . S
O720 C723 1.235 . S
C721 O724 1.238 . S
C721 O725 1.241 . S
C722 O715 1.247 . S
C722 O716 1.261 . S
C723 O718 1.259 . S
C723 O720 1.235 . S
O724 Co714 2.021 . S
O724 C721 1.238 . S
O725 Co719 2.052 . S
O725 C721 1.241 . S
O726 Co714 2.137 . S
O726 C717 1.247 . S
O727 Co714 2.244 . S
O727 C717 1.272 . S
O727 Co719 2.135 . S
Co728 O729 2.216 . S
Co728 O730 2.091 . S
Co728 O732 2.004 . S
Co728 O738 2.021 . S
Co728 O740 2.137 . S
Co728 O741 2.244 . S
O729 Co728 2.216 . S
O729 C736 1.247 . S
O730 Co728 2.091 . S
O730 C736 1.261 . S
C731 O740 1.247 . S
C731 O741 1.272 . S
O732 Co728 2.004 . S
O732 C737 1.259 . S
Co733 O734 2.061 . S
Co733 O739 2.052 . S
Co733 O741 2.135 . S
O734 Co733 2.061 . S
O734 C737 1.235 . S
C735 O738 1.238 . S
C735 O739 1.241 . S
C736 O729 1.247 . S
C736 O730 1.261 . S
C737 O732 1.259 . S
C737 O734 1.235 . S
O738 Co728 2.021 . S
O738 C735 1.238 . S
O739 Co733 2.052 . S
O739 C735 1.241 . S
O740 Co728 2.137 . S
O740 C731 1.247 . S
O741 Co728 2.244 . S
O741 C731 1.272 . S
O741 Co733 2.135 . S
Co742 O743 2.216 . S
Co742 O744 2.091 . S
Co742 O746 2.004 . S
Co742 O752 2.021 . S
Co742 O754 2.137 . S
Co742 O755 2.244 . S
O743 Co742 2.216 . S
O743 C750 1.247 . S
O744 Co742 2.091 . S
O744 C750 1.261 . S
C745 O754 1.247 . S
C745 O755 1.272 . S
O746 Co742 2.004 . S
O746 C751 1.259 . S
Co747 O748 2.061 . S
Co747 O753 2.052 . S
Co747 O755 2.135 . S
O748 Co747 2.061 . S
O748 C751 1.235 . S
C749 O752 1.238 . S
C749 O753 1.241 . S
C750 O743 1.247 . S
C750 O744 1.261 . S
C751 O746 1.259 . S
C751 O748 1.235 . S
O752 Co742 2.021 . S
O752 C749 1.238 . S
O753 Co747 2.052 . S
O753 C749 1.241 . S
O754 Co742 2.137 . S
O754 C745 1.247 . S
O755 Co742 2.244 . S
O755 C745 1.272 . S
O755 Co747 2.135 . S
Co756 O757 2.216 . S
Co756 O758 2.091 . S
Co756 O760 2.004 . S
Co756 O766 2.021 . S
Co756 O768 2.137 . S
Co756 O769 2.244 . S
O757 Co756 2.216 . S
O757 C764 1.247 . S
O758 Co756 2.091 . S
O758 C764 1.261 . S
C759 O768 1.247 . S
C759 O769 1.272 . S
O760 Co756 2.004 . S
O760 C765 1.259 . S
Co761 O762 2.061 . S
Co761 O767 2.052 . S
Co761 O769 2.135 . S
O762 Co761 2.061 . S
O762 C765 1.235 . S
C763 O766 1.238 . S
C763 O767 1.241 . S
C764 O757 1.247 . S
C764 O758 1.261 . S
C765 O760 1.259 . S
C765 O762 1.235 . S
O766 Co756 2.021 . S
O766 C763 1.238 . S
O767 Co761 2.052 . S
O767 C763 1.241 . S
O768 Co756 2.137 . S
O768 C759 1.247 . S
O769 Co756 2.244 . S
O769 C759 1.272 . S
O769 Co761 2.135 . S
Co770 O771 2.216 . S
Co770 O772 2.091 . S
Co770 O774 2.004 . S
Co770 O780 2.021 . S
Co770 O782 2.137 . S
Co770 O783 2.244 . S
O771 Co770 2.216 . S
O771 C778 1.247 . S
O772 Co770 2.091 . S
O772 C778 1.261 . S
C773 O782 1.247 . S
C773 O783 1.272 . S
O774 Co770 2.004 . S
O774 C779 1.259 . S
Co775 O776 2.061 . S
Co775 O781 2.052 . S
Co775 O783 2.135 . S
O776 Co775 2.061 . S
O776 C779 1.235 . S
C777 O780 1.238 . S
C777 O781 1.241 . S
C778 O771 1.247 . S
C778 O772 1.261 . S
C779 O774 1.259 . S
C779 O776 1.235 . S
O780 Co770 2.021 . S
O780 C777 1.238 . S
O781 Co775 2.052 . S
O781 C777 1.241 . S
O782 Co770 2.137 . S
O782 C773 1.247 . S
O783 Co770 2.244 . S
O783 C773 1.272 . S
O783 Co775 2.135 . S
Co784 O785 2.216 . S
Co784 O786 2.091 . S
Co784 O788 2.004 . S
Co784 O794 2.021 . S
Co784 O796 2.137 . S
Co784 O797 2.244 . S
O785 Co784 2.216 . S
O785 C792 1.247 . S
O786 Co784 2.091 . S
O786 C792 1.261 . S
C787 O796 1.247 . S
C787 O797 1.272 . S
O788 Co784 2.004 . S
O788 C793 1.259 . S
Co789 O790 2.061 . S
Co789 O795 2.052 . S
Co789 O797 2.135 . S
O790 Co789 2.061 . S
O790 C793 1.235 . S
C791 O794 1.238 . S
C791 O795 1.241 . S
C792 O785 1.247 . S
C792 O786 1.261 . S
C793 O788 1.259 . S
C793 O790 1.235 . S
O794 Co784 2.021 . S
O794 C791 1.238 . S
O795 Co789 2.052 . S
O795 C791 1.241 . S
O796 Co784 2.137 . S
O796 C787 1.247 . S
O797 Co784 2.244 . S
O797 C787 1.272 . S
O797 Co789 2.135 . S
Co798 O799 2.216 . S
Co798 O800 2.091 . S
Co798 O802 2.004 . S
Co798 O808 2.021 . S
Co798 O810 2.137 . S
Co798 O811 2.244 . S
O799 Co798 2.216 . S
O799 C806 1.247 . S
O800 Co798 2.091 . S
O800 C806 1.261 . S
C801 O810 1.247 . S
C801 O811 1.272 . S
O802 Co798 2.004 . S
O802 C807 1.259 . S
Co803 O804 2.061 . S
Co803 O809 2.052 . S
Co803 O811 2.135 . S
O804 Co803 2.061 . S
O804 C807 1.235 . S
C805 O808 1.238 . S
C805 O809 1.241 . S
C806 O799 1.247 . S
C806 O800 1.261 . S
C807 O802 1.259 . S
C807 O804 1.235 . S
O808 Co798 2.021 . S
O808 C805 1.238 . S
O809 Co803 2.052 . S
O809 C805 1.241 . S
O810 Co798 2.137 . S
O810 C801 1.247 . S
O811 Co798 2.244 . S
O811 C801 1.272 . S
O811 Co803 2.135 . S
Co812 O813 2.216 . S
Co812 O814 2.091 . S
Co812 O816 2.004 . S
Co812 O822 2.021 . S
Co812 O824 2.137 . S
Co812 O825 2.244 . S
O813 Co812 2.216 . S
O813 C820 1.247 . S
O814 Co812 2.091 . S
O814 C820 1.261 . S
C815 O824 1.247 . S
C815 O825 1.272 . S
O816 Co812 2.004 . S
O816 C821 1.259 . S
Co817 O818 2.061 . S
Co817 O823 2.052 . S
Co817 O825 2.135 . S
O818 Co817 2.061 . S
O818 C821 1.235 . S
C819 O822 1.238 . S
C819 O823 1.241 . S
C820 O813 1.247 . S
C820 O814 1.261 . S
C821 O816 1.259 . S
C821 O818 1.235 . S
O822 Co812 2.021 . S
O822 C819 1.238 . S
O823 Co817 2.052 . S
O823 C819 1.241 . S
O824 Co812 2.137 . S
O824 C815 1.247 . S
O825 Co812 2.244 . S
O825 C815 1.272 . S
O825 Co817 2.135 . S
Co826 O827 2.216 . S
Co826 O828 2.091 . S
Co826 O830 2.004 . S
Co826 O836 2.021 . S
Co826 O838 2.137 . S
Co826 O839 2.244 . S
O827 Co826 2.216 . S
O827 C834 1.247 . S
O828 Co826 2.091 . S
O828 C834 1.261 . S
C829 O838 1.247 . S
C829 O839 1.272 . S
O830 Co826 2.004 . S
O830 C835 1.259 . S
Co831 O832 2.061 . S
Co831 O837 2.052 . S
Co831 O839 2.135 . S
O832 Co831 2.061 . S
O832 C835 1.235 . S
C833 O836 1.238 . S
C833 O837 1.241 . S
C834 O827 1.247 . S
C834 O828 1.261 . S
C835 O830 1.259 . S
C835 O832 1.235 . S
O836 Co826 2.021 . S
O836 C833 1.238 . S
O837 Co831 2.052 . S
O837 C833 1.241 . S
O838 Co826 2.137 . S
O838 C829 1.247 . S
O839 Co826 2.244 . S
O839 C829 1.272 . S
O839 Co831 2.135 . S
Co840 O841 2.216 . S
Co840 O842 2.091 . S
Co840 O844 2.004 . S
Co840 O850 2.021 . S
Co840 O852 2.137 . S
Co840 O853 2.244 . S
O841 Co840 2.216 . S
O841 C848 1.247 . S
O842 Co840 2.091 . S
O842 C848 1.261 . S
C843 O852 1.247 . S
C843 O853 1.272 . S
O844 Co840 2.004 . S
O844 C849 1.259 . S
Co845 O846 2.061 . S
Co845 O851 2.052 . S
Co845 O853 2.135 . S
O846 Co845 2.061 . S
O846 C849 1.235 . S
C847 O850 1.238 . S
C847 O851 1.241 . S
C848 O841 1.247 . S
C848 O842 1.261 . S
C849 O844 1.259 . S
C849 O846 1.235 . S
O850 Co840 2.021 . S
O850 C847 1.238 . S
O851 Co845 2.052 . S
O851 C847 1.241 . S
O852 Co840 2.137 . S
O852 C843 1.247 . S
O853 Co840 2.244 . S
O853 C843 1.272 . S
O853 Co845 2.135 . S
Co854 O855 2.216 . S
Co854 O856 2.091 . S
Co854 O858 2.004 . S
Co854 O864 2.021 . S
Co854 O866 2.137 . S
Co854 O867 2.244 . S
O855 Co854 2.216 . S
O855 C862 1.247 . S
O856 Co854 2.091 . S
O856 C862 1.261 . S
C857 O866 1.247 . S
C857 O867 1.272 . S
O858 Co854 2.004 . S
O858 C863 1.259 . S
Co859 O860 2.061 . S
Co859 O865 2.052 . S
Co859 O867 2.135 . S
O860 Co859 2.061 . S
O860 C863 1.235 . S
C861 O864 1.238 . S
C861 O865 1.241 . S
C862 O855 1.247 . S
C862 O856 1.261 . S
C863 O858 1.259 . S
C863 O860 1.235 . S
O864 Co854 2.021 . S
O864 C861 1.238 . S
O865 Co859 2.052 . S
O865 C861 1.241 . S
O866 Co854 2.137 . S
O866 C857 1.247 . S
O867 Co854 2.244 . S
O867 C857 1.272 . S
O867 Co859 2.135 . S
Co868 O869 2.216 . S
Co868 O870 2.091 . S
Co868 O872 2.004 . S
Co868 O878 2.021 . S
Co868 O880 2.137 . S
Co868 O881 2.244 . S
O869 Co868 2.216 . S
O869 C876 1.247 . S
O870 Co868 2.091 . S
O870 C876 1.261 . S
C871 O880 1.247 . S
C871 O881 1.272 . S
O872 Co868 2.004 . S
O872 C877 1.259 . S
Co873 O874 2.061 . S
Co873 O879 2.052 . S
Co873 O881 2.135 . S
O874 Co873 2.061 . S
O874 C877 1.235 . S
C875 O878 1.238 . S
C875 O879 1.241 . S
C876 O869 1.247 . S
C876 O870 1.261 . S
C877 O872 1.259 . S
C877 O874 1.235 . S
O878 Co868 2.021 . S
O878 C875 1.238 . S
O879 Co873 2.052 . S
O879 C875 1.241 . S
O880 Co868 2.137 . S
O880 C871 1.247 . S
O881 Co868 2.244 . S
O881 C871 1.272 . S
O881 Co873 2.135 . S
Co882 O883 2.216 . S
Co882 O884 2.091 . S
Co882 O886 2.004 . S
Co882 O892 2.021 . S
Co882 O894 2.137 . S
Co882 O895 2.244 . S
O883 Co882 2.216 . S
O883 C890 1.247 . S
O884 Co882 2.091 . S
O884 C890 1.261 . S
C885 O894 1.247 . S
C885 O895 1.272 . S
O886 Co882 2.004 . S
O886 C891 1.259 . S
Co887 O888 2.061 . S
Co887 O893 2.052 . S
Co887 O895 2.135 . S
O888 Co887 2.061 . S
O888 C891 1.235 . S
C889 O892 1.238 . S
C889 O893 1.241 . S
C890 O883 1.247 . S
C890 O884 1.261 . S
C891 O886 1.259 . S
C891 O888 1.235 . S
O892 Co882 2.021 . S
O892 C889 1.238 . S
O893 Co887 2.052 . S
O893 C889 1.241 . S
O894 Co882 2.137 . S
O894 C885 1.247 . S
O895 Co882 2.244 . S
O895 C885 1.272 . S
O895 Co887 2.135 . S
Co896 O897 2.216 . S
Co896 O898 2.091 . S
Co896 O900 2.004 . S
Co896 O906 2.021 . S
Co896 O908 2.137 . S
Co896 O909 2.244 . S
O897 Co896 2.216 . S
O897 C904 1.247 . S
O898 Co896 2.091 . S
O898 C904 1.261 . S
C899 O908 1.247 . S
C899 O909 1.272 . S
O900 Co896 2.004 . S
O900 C905 1.259 . S
Co901 O902 2.061 . S
Co901 O907 2.052 . S
Co901 O909 2.135 . S
O902 Co901 2.061 . S
O902 C905 1.235 . S
C903 O906 1.238 . S
C903 O907 1.241 . S
C904 O897 1.247 . S
C904 O898 1.261 . S
C905 O900 1.259 . S
C905 O902 1.235 . S
O906 Co896 2.021 . S
O906 C903 1.238 . S
O907 Co901 2.052 . S
O907 C903 1.241 . S
O908 Co896 2.137 . S
O908 C899 1.247 . S
O909 Co896 2.244 . S
O909 C899 1.272 . S
O909 Co901 2.135 . S
Co910 O911 2.216 . S
Co910 O912 2.091 . S
Co910 O914 2.004 . S
Co910 O920 2.021 . S
Co910 O922 2.137 . S
Co910 O923 2.244 . S
O911 Co910 2.216 . S
O911 C918 1.247 . S
O912 Co910 2.091 . S
O912 C918 1.261 . S
C913 O922 1.247 . S
C913 O923 1.272 . S
O914 Co910 2.004 . S
O914 C919 1.259 . S
Co915 O916 2.061 . S
Co915 O921 2.052 . S
Co915 O923 2.135 . S
O916 Co915 2.061 . S
O916 C919 1.235 . S
C917 O920 1.238 . S
C917 O921 1.241 . S
C918 O911 1.247 . S
C918 O912 1.261 . S
C919 O914 1.259 . S
C919 O916 1.235 . S
O920 Co910 2.021 . S
O920 C917 1.238 . S
O921 Co915 2.052 . S
O921 C917 1.241 . S
O922 Co910 2.137 . S
O922 C913 1.247 . S
O923 Co910 2.244 . S
O923 C913 1.272 . S
O923 Co915 2.135 . S
Co924 O925 2.216 . S
Co924 O926 2.091 . S
Co924 O928 2.004 . S
Co924 O934 2.021 . S
Co924 O936 2.137 . S
Co924 O937 2.244 . S
O925 Co924 2.216 . S
O925 C932 1.247 . S
O926 Co924 2.091 . S
O926 C932 1.261 . S
C927 O936 1.247 . S
C927 O937 1.272 . S
O928 Co924 2.004 . S
O928 C933 1.259 . S
Co929 O930 2.061 . S
Co929 O935 2.052 . S
Co929 O937 2.135 . S
O930 Co929 2.061 . S
O930 C933 1.235 . S
C931 O934 1.238 . S
C931 O935 1.241 . S
C932 O925 1.247 . S
C932 O926 1.261 . S
C933 O928 1.259 . S
C933 O930 1.235 . S
O934 Co924 2.021 . S
O934 C931 1.238 . S
O935 Co929 2.052 . S
O935 C931 1.241 . S
O936 Co924 2.137 . S
O936 C927 1.247 . S
O937 Co924 2.244 . S
O937 C927 1.272 . S
O937 Co929 2.135 . S
Co938 O939 2.216 . S
Co938 O940 2.091 . S
Co938 O942 2.004 . S
Co938 O948 2.021 . S
Co938 O950 2.137 . S
Co938 O951 2.244 . S
O939 Co938 2.216 . S
O939 C946 1.247 . S
O940 Co938 2.091 . S
O940 C946 1.261 . S
C941 O950 1.247 . S
C941 O951 1.272 . S
O942 Co938 2.004 . S
O942 C947 1.259 . S
Co943 O944 2.061 . S
Co943 O949 2.052 . S
Co943 O951 2.135 . S
O944 Co943 2.061 . S
O944 C947 1.235 . S
C945 O948 1.238 . S
C945 O949 1.241 . S
C946 O939 1.247 . S
C946 O940 1.261 . S
C947 O942 1.259 . S
C947 O944 1.235 . S
O948 Co938 2.021 . S
O948 C945 1.238 . S
O949 Co943 2.052 . S
O949 C945 1.241 . S
O950 Co938 2.137 . S
O950 C941 1.247 . S
O951 Co938 2.244 . S
O951 C941 1.272 . S
O951 Co943 2.135 . S
Co952 O953 2.216 . S
Co952 O954 2.091 . S
Co952 O956 2.004 . S
Co952 O962 2.021 . S
Co952 O964 2.137 . S
Co952 O965 2.244 . S
O953 Co952 2.216 . S
O953 C960 1.247 . S
O954 Co952 2.091 . S
O954 C960 1.261 . S
C955 O964 1.247 . S
C955 O965 1.272 . S
O956 Co952 2.004 . S
O956 C961 1.259 . S
Co957 O958 2.061 . S
Co957 O963 2.052 . S
Co957 O965 2.135 . S
O958 Co957 2.061 . S
O958 C961 1.235 . S
C959 O962 1.238 . S
C959 O963 1.241 . S
C960 O953 1.247 . S
C960 O954 1.261 . S
C961 O956 1.259 . S
C961 O958 1.235 . S
O962 Co952 2.021 . S
O962 C959 1.238 . S
O963 Co957 2.052 . S
O963 C959 1.241 . S
O964 Co952 2.137 . S
O964 C955 1.247 . S
O965 Co952 2.244 . S
O965 C955 1.272 . S
O965 Co957 2.135 . S
Co966 O967 2.216 . S
Co966 O968 2.091 . S
Co966 O970 2.004 . S
Co966 O976 2.021 . S
Co966 O978 2.137 . S
Co966 O979 2.244 . S
O967 Co966 2.216 . S
O967 C974 1.247 . S
O968 Co966 2.091 . S
O968 C974 1.261 . S
C969 O978 1.247 . S
C969 O979 1.272 . S
O970 Co966 2.004 . S
O970 C975 1.259 . S
Co971 O972 2.061 . S
Co971 O977 2.052 . S
Co971 O979 2.135 . S
O972 Co971 2.061 . S
O972 C975 1.235 . S
C973 O976 1.238 . S
C973 O977 1.241 . S
C974 O967 1.247 . S
C974 O968 1.261 . S
C975 O970 1.259 . S
C975 O972 1.235 . S
O976 Co966 2.021 . S
O976 C973 1.238 . S
O977 Co971 2.052 . S
O977 C973 1.241 . S
O978 Co966 2.137 . S
O978 C969 1.247 . S
O979 Co966 2.244 . S
O979 C969 1.272 . S
O979 Co971 2.135 . S
Co980 O981 2.216 . S
Co980 O982 2.091 . S
Co980 O984 2.004 . S
Co980 O990 2.021 . S
Co980 O992 2.137 . S
Co980 O993 2.244 . S
O981 Co980 2.216 . S
O981 C988 1.247 . S
O982 Co980 2.091 . S
O982 C988 1.261 . S
C983 O992 1.247 . S
C983 O993 1.272 . S
O984 Co980 2.004 . S
O984 C989 1.259 . S
Co985 O986 2.061 . S
Co985 O991 2.052 . S
Co985 O993 2.135 . S
O986 Co985 2.061 . S
O986 C989 1.235 . S
C987 O990 1.238 . S
C987 O991 1.241 . S
C988 O981 1.247 . S
C988 O982 1.261 . S
C989 O984 1.259 . S
C989 O986 1.235 . S
O990 Co980 2.021 . S
O990 C987 1.238 . S
O991 Co985 2.052 . S
O991 C987 1.241 . S
O992 Co980 2.137 . S
O992 C983 1.247 . S
O993 Co980 2.244 . S
O993 C983 1.272 . S
O993 Co985 2.135 . S
Co994 O995 2.216 . S
Co994 O996 2.091 . S
Co994 O998 2.004 . S
Co994 O1004 2.021 . S
Co994 O1006 2.137 . S
Co994 O1007 2.244 . S
O995 Co994 2.216 . S
O995 C1002 1.247 . S
O996 Co994 2.091 . S
O996 C1002 1.261 . S
C997 O1006 1.247 . S
C997 O1007 1.272 . S
O998 Co994 2.004 . S
O998 C1003 1.259 . S
Co999 O1000 2.061 . S
Co999 O1005 2.052 . S
Co999 O1007 2.135 . S
O1000 Co999 2.061 . S
O1000 C1003 1.235 . S
C1001 O1004 1.238 . S
C1001 O1005 1.241 . S
C1002 O995 1.247 . S
C1002 O996 1.261 . S
C1003 O998 1.259 . S
C1003 O1000 1.235 . S
O1004 Co994 2.021 . S
O1004 C1001 1.238 . S
O1005 Co999 2.052 . S
O1005 C1001 1.241 . S
O1006 Co994 2.137 . S
O1006 C997 1.247 . S
O1007 Co994 2.244 . S
O1007 C997 1.272 . S
O1007 Co999 2.135 . S
Co1008 O1009 2.216 . S
Co1008 O1010 2.091 . S
Co1008 O1012 2.004 . S
Co1008 O1018 2.021 . S
Co1008 O1020 2.137 . S
Co1008 O1021 2.244 . S
O1009 Co1008 2.216 . S
O1009 C1016 1.247 . S
O1010 Co1008 2.091 . S
O1010 C1016 1.261 . S
C1011 O1020 1.247 . S
C1011 O1021 1.272 . S
O1012 Co1008 2.004 . S
O1012 C1017 1.259 . S
Co1013 O1014 2.061 . S
Co1013 O1019 2.052 . S
Co1013 O1021 2.135 . S
O1014 Co1013 2.061 . S
O1014 C1017 1.235 . S
C1015 O1018 1.238 . S
C1015 O1019 1.241 . S
C1016 O1009 1.247 . S
C1016 O1010 1.261 . S
C1017 O1012 1.259 . S
C1017 O1014 1.235 . S
O1018 Co1008 2.021 . S
O1018 C1015 1.238 . S
O1019 Co1013 2.052 . S
O1019 C1015 1.241 . S
O1020 Co1008 2.137 . S
O1020 C1011 1.247 . S
O1021 Co1008 2.244 . S
O1021 C1011 1.272 . S
O1021 Co1013 2.135 . S
Co1022 O1023 2.216 . S
Co1022 O1024 2.091 . S
Co1022 O1026 2.004 . S
Co1022 O1032 2.021 . S
Co1022 O1034 2.137 . S
Co1022 O1035 2.244 . S
O1023 Co1022 2.216 . S
O1023 C1030 1.247 . S
O1024 Co1022 2.091 . S
O1024 C1030 1.261 . S
C1025 O1034 1.247 . S
C1025 O1035 1.272 . S
O1026 Co1022 2.004 . S
O1026 C1031 1.259 . S
Co1027 O1028 2.061 . S
Co1027 O1033 2.052 . S
Co1027 O1035 2.135 . S
O1028 Co1027 2.061 . S
O1028 C1031 1.235 . S
C1029 O1032 1.238 . S
C1029 O1033 1.241 . S
C1030 O1023 1.247 . S
C1030 O1024 1.261 . S
C1031 O1026 1.259 . S
C1031 O1028 1.235 . S
O1032 Co1022 2.021 . S
O1032 C1029 1.238 . S
O1033 Co1027 2.052 . S
O1033 C1029 1.241 . S
O1034 Co1022 2.137 . S
O1034 C1025 1.247 . S
O1035 Co1022 2.244 . S
O1035 C1025 1.272 . S
O1035 Co1027 2.135 . S
Co1036 O1037 2.216 . S
Co1036 O1038 2.091 . S
Co1036 O1040 2.004 . S
Co1036 O1046 2.021 . S
Co1036 O1048 2.137 . S
Co1036 O1049 2.244 . S
O1037 Co1036 2.216 . S
O1037 C1044 1.247 . S
O1038 Co1036 2.091 . S
O1038 C1044 1.261 . S
C1039 O1048 1.247 . S
C1039 O1049 1.272 . S
O1040 Co1036 2.004 . S
O1040 C1045 1.259 . S
Co1041 O1042 2.061 . S
Co1041 O1047 2.052 . S
Co1041 O1049 2.135 . S
O1042 Co1041 2.061 . S
O1042 C1045 1.235 . S
C1043 O1046 1.238 . S
C1043 O1047 1.241 . S
C1044 O1037 1.247 . S
C1044 O1038 1.261 . S
C1045 O1040 1.259 . S
C1045 O1042 1.235 . S
O1046 Co1036 2.021 . S
O1046 C1043 1.238 . S
O1047 Co1041 2.052 . S
O1047 C1043 1.241 . S
O1048 Co1036 2.137 . S
O1048 C1039 1.247 . S
O1049 Co1036 2.244 . S
O1049 C1039 1.272 . S
O1049 Co1041 2.135 . S
Co1050 O1051 2.216 . S
Co1050 O1052 2.091 . S
Co1050 O1054 2.004 . S
Co1050 O1060 2.021 . S
Co1050 O1062 2.137 . S
Co1050 O1063 2.244 . S
O1051 Co1050 2.216 . S
O1051 C1058 1.247 . S
O1052 Co1050 2.091 . S
O1052 C1058 1.261 . S
C1053 O1062 1.247 . S
C1053 O1063 1.272 . S
O1054 Co1050 2.004 . S
O1054 C1059 1.259 . S
Co1055 O1056 2.061 . S
Co1055 O1061 2.052 . S
Co1055 O1063 2.135 . S
O1056 Co1055 2.061 . S
O1056 C1059 1.235 . S
C1057 O1060 1.238 . S
C1057 O1061 1.241 . S
C1058 O1051 1.247 . S
C1058 O1052 1.261 . S
C1059 O1054 1.259 . S
C1059 O1056 1.235 . S
O1060 Co1050 2.021 . S
O1060 C1057 1.238 . S
O1061 Co1055 2.052 . S
O1061 C1057 1.241 . S
O1062 Co1050 2.137 . S
O1062 C1053 1.247 . S
O1063 Co1050 2.244 . S
O1063 C1053 1.272 . S
O1063 Co1055 2.135 . S
Co1064 O1065 2.216 . S
Co1064 O1066 2.091 . S
Co1064 O1068 2.004 . S
Co1064 O1074 2.021 . S
Co1064 O1076 2.137 . S
Co1064 O1077 2.244 . S
O1065 Co1064 2.216 . S
O1065 C1072 1.247 . S
O1066 Co1064 2.091 . S
O1066 C1072 1.261 . S
C1067 O1076 1.247 . S
C1067 O1077 1.272 . S
O1068 Co1064 2.004 . S
O1068 C1073 1.259 . S
Co1069 O1070 2.061 . S
Co1069 O1075 2.052 . S
Co1069 O1077 2.135 . S
O1070 Co1069 2.061 . S
O1070 C1073 1.235 . S
C1071 O1074 1.238 . S
C1071 O1075 1.241 . S
C1072 O1065 1.247 . S
C1072 O1066 1.261 . S
C1073 O1068 1.259 . S
C1073 O1070 1.235 . S
O1074 Co1064 2.021 . S
O1074 C1071 1.238 . S
O1075 Co1069 2.052 . S
O1075 C1071 1.241 . S
O1076 Co1064 2.137 . S
O1076 C1067 1.247 . S
O1077 Co1064 2.244 . S
O1077 C1067 1.272 . S
O1077 Co1069 2.135 . S
Co1078 O1079 2.216 . S
Co1078 O1080 2.091 . S
Co1078 O1082 2.004 . S
Co1078 O1088 2.021 . S
Co1078 O1090 2.137 . S
Co1078 O1091 2.244 . S
O1079 Co1078 2.216 . S
O1079 C1086 1.247 . S
O1080 Co1078 2.091 . S
O1080 C1086 1.261 . S
C1081 O1090 1.247 . S
C1081 O1091 1.272 . S
O1082 Co1078 2.004 . S
O1082 C1087 1.259 . S
Co1083 O1084 2.061 . S
Co1083 O1089 2.052 . S
Co1083 O1091 2.135 . S
O1084 Co1083 2.061 . S
O1084 C1087 1.235 . S
C1085 O1088 1.238 . S
C1085 O1089 1.241 . S
C1086 O1079 1.247 . S
C1086 O1080 1.261 . S
C1087 O1082 1.259 . S
C1087 O1084 1.235 . S
O1088 Co1078 2.021 . S
O1088 C1085 1.238 . S
O1089 Co1083 2.052 . S
O1089 C1085 1.241 . S
O1090 Co1078 2.137 . S
O1090 C1081 1.247 . S
O1091 Co1078 2.244 . S
O1091 C1081 1.272 . S
O1091 Co1083 2.135 . S
Co1092 O1093 2.216 . S
Co1092 O1094 2.091 . S
Co1092 O1096 2.004 . S
Co1092 O1102 2.021 . S
Co1092 O1104 2.137 . S
Co1092 O1105 2.244 . S
O1093 Co1092 2.216 . S
O1093 C1100 1.247 . S
O1094 Co1092 2.091 . S
O1094 C1100 1.261 . S
C1095 O1104 1.247 . S
C1095 O1105 1.272 . S
O1096 Co1092 2.004 . S
O1096 C1101 1.259 . S
Co1097 O1098 2.061 . S
Co1097 O1103 2.052 . S
Co1097 O1105 2.135 . S
O1098 Co1097 2.061 . S
O1098 C1101 1.235 . S
C1099 O1102 1.238 . S
C1099 O1103 1.241 . S
C1100 O1093 1.247 . S
C1100 O1094 1.261 . S
C1101 O1096 1.259 . S
C1101 O1098 1.235 . S
O1102 Co1092 2.021 . S
O1102 C1099 1.238 . S
O1103 Co1097 2.052 . S
O1103 C1099 1.241 . S
O1104 Co1092 2.137 . S
O1104 C1095 1.247 . S
O1105 Co1092 2.244 . S
O1105 C1095 1.272 . S
O1105 Co1097 2.135 . S
Co1106 O1107 2.216 . S
Co1106 O1108 2.091 . S
Co1106 O1110 2.004 . S
Co1106 O1116 2.021 . S
Co1106 O1118 2.137 . S
Co1106 O1119 2.244 . S
O1107 Co1106 2.216 . S
O1107 C1114 1.247 . S
O1108 Co1106 2.091 . S
O1108 C1114 1.261 . S
C1109 O1118 1.247 . S
C1109 O1119 1.272 . S
O1110 Co1106 2.004 . S
O1110 C1115 1.259 . S
Co1111 O1112 2.061 . S
Co1111 O1117 2.052 . S
Co1111 O1119 2.135 . S
O1112 Co1111 2.061 . S
O1112 C1115 1.235 . S
C1113 O1116 1.238 . S
C1113 O1117 1.241 . S
C1114 O1107 1.247 . S
C1114 O1108 1.261 . S
C1115 O1110 1.259 . S
C1115 O1112 1.235 . S
O1116 Co1106 2.021 . S
O1116 C1113 1.238 . S
O1117 Co1111 2.052 . S
O1117 C1113 1.241 . S
O1118 Co1106 2.137 . S
O1118 C1109 1.247 . S
O1119 Co1106 2.244 . S
O1119 C1109 1.272 . S
O1119 Co1111 2.135 . S
Co1120 O1121 2.216 . S
Co1120 O1122 2.091 . S
Co1120 O1124 2.004 . S
Co1120 O1130 2.021 . S
Co1120 O1132 2.137 . S
Co1120 O1133 2.244 . S
O1121 Co1120 2.216 . S
O1121 C1128 1.247 . S
O1122 Co1120 2.091 . S
O1122 C1128 1.261 . S
C1123 O1132 1.247 . S
C1123 O1133 1.272 . S
O1124 Co1120 2.004 . S
O1124 C1129 1.259 . S
Co1125 O1126 2.061 . S
Co1125 O1131 2.052 . S
Co1125 O1133 2.135 . S
O1126 Co1125 2.061 . S
O1126 C1129 1.235 . S
C1127 O1130 1.238 . S
C1127 O1131 1.241 . S
C1128 O1121 1.247 . S
C1128 O1122 1.261 . S
C1129 O1124 1.259 . S
C1129 O1126 1.235 . S
O1130 Co1120 2.021 . S
O1130 C1127 1.238 . S
O1131 Co1125 2.052 . S
O1131 C1127 1.241 . S
O1132 Co1120 2.137 . S
O1132 C1123 1.247 . S
O1133 Co1120 2.244 . S
O1133 C1123 1.272 . S
O1133 Co1125 2.135 . S
Co1134 O1135 2.216 . S
Co1134 O1136 2.091 . S
Co1134 O1138 2.004 . S
Co1134 O1144 2.021 . S
Co1134 O1146 2.137 . S
Co1134 O1147 2.244 . S
O1135 Co1134 2.216 . S
O1135 C1142 1.247 . S
O1136 Co1134 2.091 . S
O1136 C1142 1.261 . S
C1137 O1146 1.247 . S
C1137 O1147 1.272 . S
O1138 Co1134 2.004 . S
O1138 C1143 1.259 . S
Co1139 O1140 2.061 . S
Co1139 O1145 2.052 . S
Co1139 O1147 2.135 . S
O1140 Co1139 2.061 . S
O1140 C1143 1.235 . S
C1141 O1144 1.238 . S
C1141 O1145 1.241 . S
C1142 O1135 1.247 . S
C1142 O1136 1.261 . S
C1143 O1138 1.259 . S
C1143 O1140 1.235 . S
O1144 Co1134 2.021 . S
O1144 C1141 1.238 . S
O1145 Co1139 2.052 . S
O1145 C1141 1.241 . S
O1146 Co1134 2.137 . S
O1146 C1137 1.247 . S
O1147 Co1134 2.244 . S
O1147 C1137 1.272 . S
O1147 Co1139 2.135 . S
Co1148 O1149 2.216 . S
Co1148 O1150 2.091 . S
Co1148 O1152 2.004 . S
Co1148 O1158 2.021 . S
Co1148 O1160 2.137 . S
Co1148 O1161 2.244 . S
O1149 Co1148 2.216 . S
O1149 C1156 1.247 . S
O1150 Co1148 2.091 . S
O1150 C1156 1.261 . S
C1151 O1160 1.247 . S
C1151 O1161 1.272 . S
O1152 Co1148 2.004 . S
O1152 C1157 1.259 . S
Co1153 O1154 2.061 . S
Co1153 O1159 2.052 . S
Co1153 O1161 2.135 . S
O1154 Co1153 2.061 . S
O1154 C1157 1.235 . S
C1155 O1158 1.238 . S
C1155 O1159 1.241 . S
C1156 O1149 1.247 . S
C1156 O1150 1.261 . S
C1157 O1152 1.259 . S
C1157 O1154 1.235 . S
O1158 Co1148 2.021 . S
O1158 C1155 1.238 . S
O1159 Co1153 2.052 . S
O1159 C1155 1.241 . S
O1160 Co1148 2.137 . S
O1160 C1151 1.247 . S
O1161 Co1148 2.244 . S
O1161 C1151 1.272 . S
O1161 Co1153 2.135 . S
Co1162 O1163 2.216 . S
Co1162 O1164 2.091 . S
Co1162 O1166 2.004 . S
Co1162 O1172 2.021 . S
Co1162 O1174 2.137 . S
Co1162 O1175 2.244 . S
O1163 Co1162 2.216 . S
O1163 C1170 1.247 . S
O1164 Co1162 2.091 . S
O1164 C1170 1.261 . S
C1165 O1174 1.247 . S
C1165 O1175 1.272 . S
O1166 Co1162 2.004 . S
O1166 C1171 1.259 . S
Co1167 O1168 2.061 . S
Co1167 O1173 2.052 . S
Co1167 O1175 2.135 . S
O1168 Co1167 2.061 . S
O1168 C1171 1.235 . S
C1169 O1172 1.238 . S
C1169 O1173 1.241 . S
C1170 O1163 1.247 . S
C1170 O1164 1.261 . S
C1171 O1166 1.259 . S
C1171 O1168 1.235 . S
O1172 Co1162 2.021 . S
O1172 C1169 1.238 . S
O1173 Co1167 2.052 . S
O1173 C1169 1.241 . S
O1174 Co1162 2.137 . S
O1174 C1165 1.247 . S
O1175 Co1162 2.244 . S
O1175 C1165 1.272 . S
O1175 Co1167 2.135 . S
Co1176 O1177 2.216 . S
Co1176 O1178 2.091 . S
Co1176 O1180 2.004 . S
Co1176 O1186 2.021 . S
Co1176 O1188 2.137 . S
Co1176 O1189 2.244 . S
O1177 Co1176 2.216 . S
O1177 C1184 1.247 . S
O1178 Co1176 2.091 . S
O1178 C1184 1.261 . S
C1179 O1188 1.247 . S
C1179 O1189 1.272 . S
O1180 Co1176 2.004 . S
O1180 C1185 1.259 . S
Co1181 O1182 2.061 . S
Co1181 O1187 2.052 . S
Co1181 O1189 2.135 . S
O1182 Co1181 2.061 . S
O1182 C1185 1.235 . S
C1183 O1186 1.238 . S
C1183 O1187 1.241 . S
C1184 O1177 1.247 . S
C1184 O1178 1.261 . S
C1185 O1180 1.259 . S
C1185 O1182 1.235 . S
O1186 Co1176 2.021 . S
O1186 C1183 1.238 . S
O1187 Co1181 2.052 . S
O1187 C1183 1.241 . S
O1188 Co1176 2.137 . S
O1188 C1179 1.247 . S
O1189 Co1176 2.244 . S
O1189 C1179 1.272 . S
O1189 Co1181 2.135 . S
Co1190 O1191 2.216 . S
Co1190 O1192 2.091 . S
Co1190 O1194 2.004 . S
Co1190 O1200 2.021 . S
Co1190 O1202 2.137 . S
Co1190 O1203 2.244 . S
O1191 Co1190 2.216 . S
O1191 C1198 1.247 . S
O1192 Co1190 2.091 . S
O1192 C1198 1.261 . S
C1193 O1202 1.247 . S
C1193 O1203 1.272 . S
O1194 Co1190 2.004 . S
O1194 C1199 1.259 . S
Co1195 O1196 2.061 . S
Co1195 O1201 2.052 . S
Co1195 O1203 2.135 . S
O1196 Co1195 2.061 . S
O1196 C1199 1.235 . S
C1197 O1200 1.238 . S
C1197 O1201 1.241 . S
C1198 O1191 1.247 . S
C1198 O1192 1.261 . S
C1199 O1194 1.259 . S
C1199 O1196 1.235 . S
O1200 Co1190 2.021 . S
O1200 C1197 1.238 . S
O1201 Co1195 2.052 . S
O1201 C1197 1.241 . S
O1202 Co1190 2.137 . S
O1202 C1193 1.247 . S
O1203 Co1190 2.244 . S
O1203 C1193 1.272 . S
O1203 Co1195 2.135 . S
Co1204 O1205 2.216 . S
Co1204 O1206 2.091 . S
Co1204 O1208 2.004 . S
Co1204 O1214 2.021 . S
Co1204 O1216 2.137 . S
Co1204 O1217 2.244 . S
O1205 Co1204 2.216 . S
O1205 C1212 1.247 . S
O1206 Co1204 2.091 . S
O1206 C1212 1.261 . S
C1207 O1216 1.247 . S
C1207 O1217 1.272 . S
O1208 Co1204 2.004 . S
O1208 C1213 1.259 . S
Co1209 O1210 2.061 . S
Co1209 O1215 2.052 . S
Co1209 O1217 2.135 . S
O1210 Co1209 2.061 . S
O1210 C1213 1.235 . S
C1211 O1214 1.238 . S
C1211 O1215 1.241 . S
C1212 O1205 1.247 . S
C1212 O1206 1.261 . S
C1213 O1208 1.259 . S
C1213 O1210 1.235 . S
O1214 Co1204 2.021 . S
O1214 C1211 1.238 . S
O1215 Co1209 2.052 . S
O1215 C1211 1.241 . S
O1216 Co1204 2.137 . S
O1216 C1207 1.247 . S
O1217 Co1204 2.244 . S
O1217 C1207 1.272 . S
O1217 Co1209 2.135 . S
Co1218 O1219 2.216 . S
Co1218 O1220 2.091 . S
Co1218 O1222 2.004 . S
Co1218 O1228 2.021 . S
Co1218 O1230 2.137 . S
Co1218 O1231 2.244 . S
O1219 Co1218 2.216 . S
O1219 C1226 1.247 . S
O1220 Co1218 2.091 . S
O1220 C1226 1.261 . S
C1221 O1230 1.247 . S
C1221 O1231 1.272 . S
O1222 Co1218 2.004 . S
O1222 C1227 1.259 . S
Co1223 O1224 2.061 . S
Co1223 O1229 2.052 . S
Co1223 O1231 2.135 . S
O1224 Co1223 2.061 . S
O1224 C1227 1.235 . S
C1225 O1228 1.238 . S
C1225 O1229 1.241 . S
C1226 O1219 1.247 . S
C1226 O1220 1.261 . S
C1227 O1222 1.259 . S
C1227 O1224 1.235 . S
O1228 Co1218 2.021 . S
O1228 C1225 1.238 . S
O1229 Co1223 2.052 . S
O1229 C1225 1.241 . S
O1230 Co1218 2.137 . S
O1230 C1221 1.247 . S
O1231 Co1218 2.244 . S
O1231 C1221 1.272 . S
O1231 Co1223 2.135 . S
Co1232 O1233 2.216 . S
Co1232 O1234 2.091 . S
Co1232 O1236 2.004 . S
Co1232 O1242 2.021 . S
Co1232 O1244 2.137 . S
Co1232 O1245 2.244 . S
O1233 Co1232 2.216 . S
O1233 C1240 1.247 . S
O1234 Co1232 2.091 . S
O1234 C1240 1.261 . S
C1235 O1244 1.247 . S
C1235 O1245 1.272 . S
O1236 Co1232 2.004 . S
O1236 C1241 1.259 . S
Co1237 O1238 2.061 . S
Co1237 O1243 2.052 . S
Co1237 O1245 2.135 . S
O1238 Co1237 2.061 . S
O1238 C1241 1.235 . S
C1239 O1242 1.238 . S
C1239 O1243 1.241 . S
C1240 O1233 1.247 . S
C1240 O1234 1.261 . S
C1241 O1236 1.259 . S
C1241 O1238 1.235 . S
O1242 Co1232 2.021 . S
O1242 C1239 1.238 . S
O1243 Co1237 2.052 . S
O1243 C1239 1.241 . S
O1244 Co1232 2.137 . S
O1244 C1235 1.247 . S
O1245 Co1232 2.244 . S
O1245 C1235 1.272 . S
O1245 Co1237 2.135 . S
Co1246 O1247 2.216 . S
Co1246 O1248 2.091 . S
Co1246 O1250 2.004 . S
Co1246 O1256 2.021 . S
Co1246 O1258 2.137 . S
Co1246 O1259 2.244 . S
O1247 Co1246 2.216 . S
O1247 C1254 1.247 . S
O1248 Co1246 2.091 . S
O1248 C1254 1.261 . S
C1249 O1258 1.247 . S
C1249 O1259 1.272 . S
O1250 Co1246 2.004 . S
O1250 C1255 1.259 . S
Co1251 O1252 2.061 . S
Co1251 O1257 2.052 . S
Co1251 O1259 2.135 . S
O1252 Co1251 2.061 . S
O1252 C1255 1.235 . S
C1253 O1256 1.238 . S
C1253 O1257 1.241 . S
C1254 O1247 1.247 . S
C1254 O1248 1.261 . S
C1255 O1250 1.259 . S
C1255 O1252 1.235 . S
O1256 Co1246 2.021 . S
O1256 C1253 1.238 . S
O1257 Co1251 2.052 . S
O1257 C1253 1.241 . S
O1258 Co1246 2.137 . S
O1258 C1249 1.247 . S
O1259 Co1246 2.244 . S
O1259 C1249 1.272 . S
O1259 Co1251 2.135 . S
Co1260 O1261 2.216 . S
Co1260 O1262 2.091 . S
Co1260 O1264 2.004 . S
Co1260 O1270 2.021 . S
Co1260 O1272 2.137 . S
Co1260 O1273 2.244 . S
O1261 Co1260 2.216 . S
O1261 C1268 1.247 . S
O1262 Co1260 2.091 . S
O1262 C1268 1.261 . S
C1263 O1272 1.247 . S
C1263 O1273 1.272 . S
O1264 Co1260 2.004 . S
O1264 C1269 1.259 . S
Co1265 O1266 2.061 . S
Co1265 O1271 2.052 . S
Co1265 O1273 2.135 . S
O1266 Co1265 2.061 . S
O1266 C1269 1.235 . S
C1267 O1270 1.238 . S
C1267 O1271 1.241 . S
C1268 O1261 1.247 . S
C1268 O1262 1.261 . S
C1269 O1264 1.259 . S
C1269 O1266 1.235 . S
O1270 Co1260 2.021 . S
O1270 C1267 1.238 . S
O1271 Co1265 2.052 . S
O1271 C1267 1.241 . S
O1272 Co1260 2.137 . S
O1272 C1263 1.247 . S
O1273 Co1260 2.244 . S
O1273 C1263 1.272 . S
O1273 Co1265 2.135 . S
Co1274 O1275 2.216 . S
Co1274 O1276 2.091 . S
Co1274 O1278 2.004 . S
Co1274 O1284 2.021 . S
Co1274 O1286 2.137 . S
Co1274 O1287 2.244 . S
O1275 Co1274 2.216 . S
O1275 C1282 1.247 . S
O1276 Co1274 2.091 . S
O1276 C1282 1.261 . S
C1277 O1286 1.247 . S
C1277 O1287 1.272 . S
O1278 Co1274 2.004 . S
O1278 C1283 1.259 . S
Co1279 O1280 2.061 . S
Co1279 O1285 2.052 . S
Co1279 O1287 2.135 . S
O1280 Co1279 2.061 . S
O1280 C1283 1.235 . S
C1281 O1284 1.238 . S
C1281 O1285 1.241 . S
C1282 O1275 1.247 . S
C1282 O1276 1.261 . S
C1283 O1278 1.259 . S
C1283 O1280 1.235 . S
O1284 Co1274 2.021 . S
O1284 C1281 1.238 . S
O1285 Co1279 2.052 . S
O1285 C1281 1.241 . S
O1286 Co1274 2.137 . S
O1286 C1277 1.247 . S
O1287 Co1274 2.244 . S
O1287 C1277 1.272 . S
O1287 Co1279 2.135 . S
Co1288 O1289 2.216 . S
Co1288 O1290 2.091 . S
Co1288 O1292 2.004 . S
Co1288 O1298 2.021 . S
Co1288 O1300 2.137 . S
Co1288 O1301 2.244 . S
O1289 Co1288 2.216 . S
O1289 C1296 1.247 . S
O1290 Co1288 2.091 . S
O1290 C1296 1.261 . S
C1291 O1300 1.247 . S
C1291 O1301 1.272 . S
O1292 Co1288 2.004 . S
O1292 C1297 1.259 . S
Co1293 O1294 2.061 . S
Co1293 O1299 2.052 . S
Co1293 O1301 2.135 . S
O1294 Co1293 2.061 . S
O1294 C1297 1.235 . S
C1295 O1298 1.238 . S
C1295 O1299 1.241 . S
C1296 O1289 1.247 . S
C1296 O1290 1.261 . S
C1297 O1292 1.259 . S
C1297 O1294 1.235 . S
O1298 Co1288 2.021 . S
O1298 C1295 1.238 . S
O1299 Co1293 2.052 . S
O1299 C1295 1.241 . S
O1300 Co1288 2.137 . S
O1300 C1291 1.247 . S
O1301 Co1288 2.244 . S
O1301 C1291 1.272 . S
O1301 Co1293 2.135 . S
Co1302 O1303 2.216 . S
Co1302 O1304 2.091 . S
Co1302 O1306 2.004 . S
Co1302 O1312 2.021 . S
Co1302 O1314 2.137 . S
Co1302 O1315 2.244 . S
O1303 Co1302 2.216 . S
O1303 C1310 1.247 . S
O1304 Co1302 2.091 . S
O1304 C1310 1.261 . S
C1305 O1314 1.247 . S
C1305 O1315 1.272 . S
O1306 Co1302 2.004 . S
O1306 C1311 1.259 . S
Co1307 O1308 2.061 . S
Co1307 O1313 2.052 . S
Co1307 O1315 2.135 . S
O1308 Co1307 2.061 . S
O1308 C1311 1.235 . S
C1309 O1312 1.238 . S
C1309 O1313 1.241 . S
C1310 O1303 1.247 . S
C1310 O1304 1.261 . S
C1311 O1306 1.259 . S
C1311 O1308 1.235 . S
O1312 Co1302 2.021 . S
O1312 C1309 1.238 . S
O1313 Co1307 2.052 . S
O1313 C1309 1.241 . S
O1314 Co1302 2.137 . S
O1314 C1305 1.247 . S
O1315 Co1302 2.244 . S
O1315 C1305 1.272 . S
O1315 Co1307 2.135 . S
Co1316 O1317 2.216 . S
Co1316 O1318 2.091 . S
Co1316 O1320 2.004 . S
Co1316 O1326 2.021 . S
Co1316 O1328 2.137 . S
Co1316 O1329 2.244 . S
O1317 Co1316 2.216 . S
O1317 C1324 1.247 . S
O1318 Co1316 2.091 . S
O1318 C1324 1.261 . S
C1319 O1328 1.247 . S
C1319 O1329 1.272 . S
O1320 Co1316 2.004 . S
O1320 C1325 1.259 . S
Co1321 O1322 2.061 . S
Co1321 O1327 2.052 . S
Co1321 O1329 2.135 . S
O1322 Co1321 2.061 . S
O1322 C1325 1.235 . S
C1323 O1326 1.238 . S
C1323 O1327 1.241 . S
C1324 O1317 1.247 . S
C1324 O1318 1.261 . S
C1325 O1320 1.259 . S
C1325 O1322 1.235 . S
O1326 Co1316 2.021 . S
O1326 C1323 1.238 . S
O1327 Co1321 2.052 . S
O1327 C1323 1.241 . S
O1328 Co1316 2.137 . S
O1328 C1319 1.247 . S
O1329 Co1316 2.244 . S
O1329 C1319 1.272 . S
O1329 Co1321 2.135 . S
Co1330 O1331 2.216 . S
Co1330 O1332 2.091 . S
Co1330 O1334 2.004 . S
Co1330 O1340 2.021 . S
Co1330 O1342 2.137 . S
Co1330 O1343 2.244 . S
O1331 Co1330 2.216 . S
O1331 C1338 1.247 . S
O1332 Co1330 2.091 . S
O1332 C1338 1.261 . S
C1333 O1342 1.247 . S
C1333 O1343 1.272 . S
O1334 Co1330 2.004 . S
O1334 C1339 1.259 . S
Co1335 O1336 2.061 . S
Co1335 O1341 2.052 . S
Co1335 O1343 2.135 . S
O1336 Co1335 2.061 . S
O1336 C1339 1.235 . S
C1337 O1340 1.238 . S
C1337 O1341 1.241 . S
C1338 O1331 1.247 . S
C1338 O1332 1.261 . S
C1339 O1334 1.259 . S
C1339 O1336 1.235 . S
O1340 Co1330 2.021 . S
O1340 C1337 1.238 . S
O1341 Co1335 2.052 . S
O1341 C1337 1.241 . S
O1342 Co1330 2.137 . S
O1342 C1333 1.247 . S
O1343 Co1330 2.244 . S
O1343 C1333 1.272 . S
O1343 Co1335 2.135 . S
C1344 C1345 1.391 . S
C1344 C1346 1.394 . S
C1344 H1360 0.931 . S
C1345 C1344 1.391 . S
C1345 C1349 1.376 . S
C1346 C1344 1.394 . S
C1346 C1347 1.369 . S
C1346 C1350 1.531 . S
C1347 C1346 1.369 . S
C1347 C1348 1.410 . S
C1347 C1355 1.503 . S
C1348 C1347 1.410 . S
C1348 C1349 1.392 . S
C1348 C1351 1.511 . S
C1349 C1345 1.376 . S
C1349 C1348 1.392 . S
C1349 H1361 0.929 . S
C1350 C1346 1.531 . S
C1350 H1362 0.960 . S
C1350 H1363 0.962 . S
C1350 H1364 0.960 . S
C1351 C1348 1.511 . S
C1351 H1365 0.961 . S
C1351 H1366 0.961 . S
C1351 H1367 0.961 . S
C1352 C1353 1.370 . S
C1352 C1354 1.363 . S
C1352 H1368 0.931 . S
C1353 C1352 1.370 . S
C1353 C1357 1.408 . S
C1354 C1352 1.363 . S
C1354 C1355 1.370 . S
C1354 C1358 1.524 . S
C1355 C1347 1.503 . S
C1355 C1354 1.370 . S
C1355 C1356 1.403 . S
C1356 C1355 1.403 . S
C1356 C1357 1.404 . S
C1356 C1359 1.539 . S
C1357 C1353 1.408 . S
C1357 C1356 1.404 . S
C1357 H1369 0.930 . S
C1358 C1354 1.524 . S
C1358 H1370 0.956 . S
C1358 H1371 0.961 . S
C1358 H1372 0.961 . S
C1359 C1356 1.539 . S
C1359 H1373 0.958 . S
C1359 H1374 0.961 . S
C1359 H1375 0.960 . S
H1360 C1344 0.931 . S
H1361 C1349 0.929 . S
H1362 C1350 0.960 . S
H1363 C1350 0.962 . S
H1364 C1350 0.960 . S
H1365 C1351 0.961 . S
H1366 C1351 0.961 . S
H1367 C1351 0.961 . S
H1368 C1352 0.931 . S
H1369 C1357 0.930 . S
H1370 C1358 0.956 . S
H1371 C1358 0.961 . S
H1372 C1358 0.961 . S
H1373 C1359 0.958 . S
H1374 C1359 0.961 . S
H1375 C1359 0.960 . S
C1376 C1377 1.391 . S
C1376 C1378 1.394 . S
C1376 H1392 0.931 . S
C1377 C1376 1.391 . S
C1377 C1381 1.376 . S
C1378 C1376 1.394 . S
C1378 C1379 1.369 . S
C1378 C1382 1.531 . S
C1379 C1378 1.369 . S
C1379 C1380 1.410 . S
C1379 C1387 1.503 . S
C1380 C1379 1.410 . S
C1380 C1381 1.392 . S
C1380 C1383 1.511 . S
C1381 C1377 1.376 . S
C1381 C1380 1.392 . S
C1381 H1393 0.929 . S
C1382 C1378 1.531 . S
C1382 H1394 0.960 . S
C1382 H1395 0.962 . S
C1382 H1396 0.960 . S
C1383 C1380 1.511 . S
C1383 H1397 0.961 . S
C1383 H1398 0.961 . S
C1383 H1399 0.961 . S
C1384 C1385 1.370 . S
C1384 C1386 1.363 . S
C1384 H1400 0.931 . S
C1385 C1384 1.370 . S
C1385 C1389 1.408 . S
C1386 C1384 1.363 . S
C1386 C1387 1.370 . S
C1386 C1390 1.524 . S
C1387 C1379 1.503 . S
C1387 C1386 1.370 . S
C1387 C1388 1.403 . S
C1388 C1387 1.403 . S
C1388 C1389 1.404 . S
C1388 C1391 1.539 . S
C1389 C1385 1.408 . S
C1389 C1388 1.404 . S
C1389 H1401 0.930 . S
C1390 C1386 1.524 . S
C1390 H1402 0.956 . S
C1390 H1403 0.961 . S
C1390 H1404 0.961 . S
C1391 C1388 1.539 . S
C1391 H1405 0.958 . S
C1391 H1406 0.961 . S
C1391 H1407 0.960 . S
H1392 C1376 0.931 . S
H1393 C1381 0.929 . S
H1394 C1382 0.960 . S
H1395 C1382 0.962 . S
H1396 C1382 0.960 . S
H1397 C1383 0.961 . S
H1398 C1383 0.961 . S
H1399 C1383 0.961 . S
H1400 C1384 0.931 . S
H1401 C1389 0.930 . S
H1402 C1390 0.956 . S
H1403 C1390 0.961 . S
H1404 C1390 0.961 . S
H1405 C1391 0.958 . S
H1406 C1391 0.961 . S
H1407 C1391 0.960 . S
C1408 C1409 1.391 . S
C1408 C1410 1.394 . S
C1408 H1424 0.931 . S
C1409 C1408 1.391 . S
C1409 C1413 1.376 . S
C1410 C1408 1.394 . S
C1410 C1411 1.369 . S
C1410 C1414 1.531 . S
C1411 C1410 1.369 . S
C1411 C1412 1.410 . S
C1411 C1419 1.503 . S
C1412 C1411 1.410 . S
C1412 C1413 1.392 . S
C1412 C1415 1.511 . S
C1413 C1409 1.376 . S
C1413 C1412 1.392 . S
C1413 H1425 0.929 . S
C1414 C1410 1.531 . S
C1414 H1426 0.960 . S
C1414 H1427 0.962 . S
C1414 H1428 0.960 . S
C1415 C1412 1.511 . S
C1415 H1429 0.961 . S
C1415 H1430 0.961 . S
C1415 H1431 0.961 . S
C1416 C1417 1.370 . S
C1416 C1418 1.363 . S
C1416 H1432 0.931 . S
C1417 C1416 1.370 . S
C1417 C1421 1.408 . S
C1418 C1416 1.363 . S
C1418 C1419 1.370 . S
C1418 C1422 1.524 . S
C1419 C1411 1.503 . S
C1419 C1418 1.370 . S
C1419 C1420 1.403 . S
C1420 C1419 1.403 . S
C1420 C1421 1.404 . S
C1420 C1423 1.539 . S
C1421 C1417 1.408 . S
C1421 C1420 1.404 . S
C1421 H1433 0.930 . S
C1422 C1418 1.524 . S
C1422 H1434 0.956 . S
C1422 H1435 0.961 . S
C1422 H1436 0.961 . S
C1423 C1420 1.539 . S
C1423 H1437 0.958 . S
C1423 H1438 0.961 . S
C1423 H1439 0.960 . S
H1424 C1408 0.931 . S
H1425 C1413 0.929 . S
H1426 C1414 0.960 . S
H1427 C1414 0.962 . S
H1428 C1414 0.960 . S
H1429 C1415 0.961 . S
H1430 C1415 0.961 . S
H1431 C1415 0.961 . S
H1432 C1416 0.931 . S
H1433 C1421 0.930 . S
H1434 C1422 0.956 . S
H1435 C1422 0.961 . S
H1436 C1422 0.961 . S
H1437 C1423 0.958 . S
H1438 C1423 0.961 . S
H1439 C1423 0.960 . S
C1440 C1441 1.391 . S
C1440 C1442 1.394 . S
C1440 H1456 0.931 . S
C1441 C1440 1.391 . S
C1441 C1445 1.376 . S
C1442 C1440 1.394 . S
C1442 C1443 1.369 . S
C1442 C1446 1.531 . S
C1443 C1442 1.369 . S
C1443 C1444 1.410 . S
C1443 C1451 1.503 . S
C1444 C1443 1.410 . S
C1444 C1445 1.392 . S
C1444 C1447 1.511 . S
C1445 C1441 1.376 . S
C1445 C1444 1.392 . S
C1445 H1457 0.929 . S
C1446 C1442 1.531 . S
C1446 H1458 0.960 . S
C1446 H1459 0.962 . S
C1446 H1460 0.960 . S
C1447 C1444 1.511 . S
C1447 H1461 0.961 . S
C1447 H1462 0.961 . S
C1447 H1463 0.961 . S
C1448 C1449 1.370 . S
C1448 C1450 1.363 . S
C1448 H1464 0.931 . S
C1449 C1448 1.370 . S
C1449 C1453 1.408 . S
C1450 C1448 1.363 . S
C1450 C1451 1.370 . S
C1450 C1454 1.524 . S
C1451 C1443 1.503 . S
C1451 C1450 1.370 . S
C1451 C1452 1.403 . S
C1452 C1451 1.403 . S
C1452 C1453 1.404 . S
C1452 C1455 1.539 . S
C1453 C1449 1.408 . S
C1453 C1452 1.404 . S
C1453 H1465 0.930 . S
C1454 C1450 1.524 . S
C1454 H1466 0.956 . S
C1454 H1467 0.961 . S
C1454 H1468 0.961 . S
C1455 C1452 1.539 . S
C1455 H1469 0.958 . S
C1455 H1470 0.961 . S
C1455 H1471 0.960 . S
H1456 C1440 0.931 . S
H1457 C1445 0.929 . S
H1458 C1446 0.960 . S
H1459 C1446 0.962 . S
H1460 C1446 0.960 . S
H1461 C1447 0.961 . S
H1462 C1447 0.961 . S
H1463 C1447 0.961 . S
H1464 C1448 0.931 . S
H1465 C1453 0.930 . S
H1466 C1454 0.956 . S
H1467 C1454 0.961 . S
H1468 C1454 0.961 . S
H1469 C1455 0.958 . S
H1470 C1455 0.961 . S
H1471 C1455 0.960 . S
C1472 C1473 1.391 . S
C1472 C1474 1.394 . S
C1472 H1488 0.931 . S
C1473 C1472 1.391 . S
C1473 C1477 1.376 . S
C1474 C1472 1.394 . S
C1474 C1475 1.369 . S
C1474 C1478 1.531 . S
C1475 C1474 1.369 . S
C1475 C1476 1.410 . S
C1475 C1483 1.503 . S
C1476 C1475 1.410 . S
C1476 C1477 1.392 . S
C1476 C1479 1.511 . S
C1477 C1473 1.376 . S
C1477 C1476 1.392 . S
C1477 H1489 0.929 . S
C1478 C1474 1.531 . S
C1478 H1490 0.960 . S
C1478 H1491 0.962 . S
C1478 H1492 0.960 . S
C1479 C1476 1.511 . S
C1479 H1493 0.961 . S
C1479 H1494 0.961 . S
C1479 H1495 0.961 . S
C1480 C1481 1.370 . S
C1480 C1482 1.363 . S
C1480 H1496 0.931 . S
C1481 C1480 1.370 . S
C1481 C1485 1.408 . S
C1482 C1480 1.363 . S
C1482 C1483 1.370 . S
C1482 C1486 1.524 . S
C1483 C1475 1.503 . S
C1483 C1482 1.370 . S
C1483 C1484 1.403 . S
C1484 C1483 1.403 . S
C1484 C1485 1.404 . S
C1484 C1487 1.539 . S
C1485 C1481 1.408 . S
C1485 C1484 1.404 . S
C1485 H1497 0.930 . S
C1486 C1482 1.524 . S
C1486 H1498 0.956 . S
C1486 H1499 0.961 . S
C1486 H1500 0.961 . S
C1487 C1484 1.539 . S
C1487 H1501 0.958 . S
C1487 H1502 0.961 . S
C1487 H1503 0.960 . S
H1488 C1472 0.931 . S
H1489 C1477 0.929 . S
H1490 C1478 0.960 . S
H1491 C1478 0.962 . S
H1492 C1478 0.960 . S
H1493 C1479 0.961 . S
H1494 C1479 0.961 . S
H1495 C1479 0.961 . S
H1496 C1480 0.931 . S
H1497 C1485 0.930 . S
H1498 C1486 0.956 . S
H1499 C1486 0.961 . S
H1500 C1486 0.961 . S
H1501 C1487 0.958 . S
H1502 C1487 0.961 . S
H1503 C1487 0.960 . S
C1504 C1505 1.391 . S
C1504 C1506 1.394 . S
C1504 H1520 0.931 . S
C1505 C1504 1.391 . S
C1505 C1509 1.376 . S
C1506 C1504 1.394 . S
C1506 C1507 1.369 . S
C1506 C1510 1.531 . S
C1507 C1506 1.369 . S
C1507 C1508 1.410 . S
C1507 C1515 1.503 . S
C1508 C1507 1.410 . S
C1508 C1509 1.392 . S
C1508 C1511 1.511 . S
C1509 C1505 1.376 . S
C1509 C1508 1.392 . S
C1509 H1521 0.929 . S
C1510 C1506 1.531 . S
C1510 H1522 0.960 . S
C1510 H1523 0.962 . S
C1510 H1524 0.960 . S
C1511 C1508 1.511 . S
C1511 H1525 0.961 . S
C1511 H1526 0.961 . S
C1511 H1527 0.961 . S
C1512 C1513 1.370 . S
C1512 C1514 1.363 . S
C1512 H1528 0.931 . S
C1513 C1512 1.370 . S
C1513 C1517 1.408 . S
C1514 C1512 1.363 . S
C1514 C1515 1.370 . S
C1514 C1518 1.524 . S
C1515 C1507 1.503 . S
C1515 C1514 1.370 . S
C1515 C1516 1.403 . S
C1516 C1515 1.403 . S
C1516 C1517 1.404 . S
C1516 C1519 1.539 . S
C1517 C1513 1.408 . S
C1517 C1516 1.404 . S
C1517 H1529 0.930 . S
C1518 C1514 1.524 . S
C1518 H1530 0.956 . S
C1518 H1531 0.961 . S
C1518 H1532 0.961 . S
C1519 C1516 1.539 . S
C1519 H1533 0.958 . S
C1519 H1534 0.961 . S
C1519 H1535 0.960 . S
H1520 C1504 0.931 . S
H1521 C1509 0.929 . S
H1522 C1510 0.960 . S
H1523 C1510 0.962 . S
H1524 C1510 0.960 . S
H1525 C1511 0.961 . S
H1526 C1511 0.961 . S
H1527 C1511 0.961 . S
H1528 C1512 0.931 . S
H1529 C1517 0.930 . S
H1530 C1518 0.956 . S
H1531 C1518 0.961 . S
H1532 C1518 0.961 . S
H1533 C1519 0.958 . S
H1534 C1519 0.961 . S
H1535 C1519 0.960 . S
C1536 C1537 1.391 . S
C1536 C1538 1.394 . S
C1536 H1552 0.931 . S
C1537 C1536 1.391 . S
C1537 C1541 1.376 . S
C1538 C1536 1.394 . S
C1538 C1539 1.369 . S
C1538 C1542 1.531 . S
C1539 C1538 1.369 . S
C1539 C1540 1.410 . S
C1539 C1547 1.503 . S
C1540 C1539 1.410 . S
C1540 C1541 1.392 . S
C1540 C1543 1.511 . S
C1541 C1537 1.376 . S
C1541 C1540 1.392 . S
C1541 H1553 0.929 . S
C1542 C1538 1.531 . S
C1542 H1554 0.960 . S
C1542 H1555 0.962 . S
C1542 H1556 0.960 . S
C1543 C1540 1.511 . S
C1543 H1557 0.961 . S
C1543 H1558 0.961 . S
C1543 H1559 0.961 . S
C1544 C1545 1.370 . S
C1544 C1546 1.363 . S
C1544 H1560 0.931 . S
C1545 C1544 1.370 . S
C1545 C1549 1.408 . S
C1546 C1544 1.363 . S
C1546 C1547 1.370 . S
C1546 C1550 1.524 . S
C1547 C1539 1.503 . S
C1547 C1546 1.370 . S
C1547 C1548 1.403 . S
C1548 C1547 1.403 . S
C1548 C1549 1.404 . S
C1548 C1551 1.539 . S
C1549 C1545 1.408 . S
C1549 C1548 1.404 . S
C1549 H1561 0.930 . S
C1550 C1546 1.524 . S
C1550 H1562 0.956 . S
C1550 H1563 0.961 . S
C1550 H1564 0.961 . S
C1551 C1548 1.539 . S
C1551 H1565 0.958 . S
C1551 H1566 0.961 . S
C1551 H1567 0.960 . S
H1552 C1536 0.931 . S
H1553 C1541 0.929 . S
H1554 C1542 0.960 . S
H1555 C1542 0.962 . S
H1556 C1542 0.960 . S
H1557 C1543 0.961 . S
H1558 C1543 0.961 . S
H1559 C1543 0.961 . S
H1560 C1544 0.931 . S
H1561 C1549 0.930 . S
H1562 C1550 0.956 . S
H1563 C1550 0.961 . S
H1564 C1550 0.961 . S
H1565 C1551 0.958 . S
H1566 C1551 0.961 . S
H1567 C1551 0.960 . S
C1568 C1569 1.391 . S
C1568 C1570 1.394 . S
C1568 H1584 0.931 . S
C1569 C1568 1.391 . S
C1569 C1573 1.376 . S
C1570 C1568 1.394 . S
C1570 C1571 1.369 . S
C1570 C1574 1.531 . S
C1571 C1570 1.369 . S
C1571 C1572 1.410 . S
C1571 C1579 1.503 . S
C1572 C1571 1.410 . S
C1572 C1573 1.392 . S
C1572 C1575 1.511 . S
C1573 C1569 1.376 . S
C1573 C1572 1.392 . S
C1573 H1585 0.929 . S
C1574 C1570 1.531 . S
C1574 H1586 0.960 . S
C1574 H1587 0.962 . S
C1574 H1588 0.960 . S
C1575 C1572 1.511 . S
C1575 H1589 0.961 . S
C1575 H1590 0.961 . S
C1575 H1591 0.961 . S
C1576 C1577 1.370 . S
C1576 C1578 1.363 . S
C1576 H1592 0.931 . S
C1577 C1576 1.370 . S
C1577 C1581 1.408 . S
C1578 C1576 1.363 . S
C1578 C1579 1.370 . S
C1578 C1582 1.524 . S
C1579 C1571 1.503 . S
C1579 C1578 1.370 . S
C1579 C1580 1.403 . S
C1580 C1579 1.403 . S
C1580 C1581 1.404 . S
C1580 C1583 1.539 . S
C1581 C1577 1.408 . S
C1581 C1580 1.404 . S
C1581 H1593 0.930 . S
C1582 C1578 1.524 . S
C1582 H1594 0.956 . S
C1582 H1595 0.961 . S
C1582 H1596 0.961 . S
C1583 C1580 1.539 . S
C1583 H1597 0.958 . S
C1583 H1598 0.961 . S
C1583 H1599 0.960 . S
H1584 C1568 0.931 . S
H1585 C1573 0.929 . S
H1586 C1574 0.960 . S
H1587 C1574 0.962 . S
H1588 C1574 0.960 . S
H1589 C1575 0.961 . S
H1590 C1575 0.961 . S
H1591 C1575 0.961 . S
H1592 C1576 0.931 . S
H1593 C1581 0.930 . S
H1594 C1582 0.956 . S
H1595 C1582 0.961 . S
H1596 C1582 0.961 . S
H1597 C1583 0.958 . S
H1598 C1583 0.961 . S
H1599 C1583 0.960 . S
C1600 C1601 1.391 . S
C1600 C1602 1.394 . S
C1600 H1616 0.931 . S
C1601 C1600 1.391 . S
C1601 C1605 1.376 . S
C1602 C1600 1.394 . S
C1602 C1603 1.369 . S
C1602 C1606 1.531 . S
C1603 C1602 1.369 . S
C1603 C1604 1.410 . S
C1603 C1611 1.503 . S
C1604 C1603 1.410 . S
C1604 C1605 1.392 . S
C1604 C1607 1.511 . S
C1605 C1601 1.376 . S
C1605 C1604 1.392 . S
C1605 H1617 0.929 . S
C1606 C1602 1.531 . S
C1606 H1618 0.960 . S
C1606 H1619 0.962 . S
C1606 H1620 0.960 . S
C1607 C1604 1.511 . S
C1607 H1621 0.961 . S
C1607 H1622 0.961 . S
C1607 H1623 0.961 . S
C1608 C1609 1.370 . S
C1608 C1610 1.363 . S
C1608 H1624 0.931 . S
C1609 C1608 1.370 . S
C1609 C1613 1.408 . S
C1610 C1608 1.363 . S
C1610 C1611 1.370 . S
C1610 C1614 1.524 . S
C1611 C1603 1.503 . S
C1611 C1610 1.370 . S
C1611 C1612 1.403 . S
C1612 C1611 1.403 . S
C1612 C1613 1.404 . S
C1612 C1615 1.539 . S
C1613 C1609 1.408 . S
C1613 C1612 1.404 . S
C1613 H1625 0.930 . S
C1614 C1610 1.524 . S
C1614 H1626 0.956 . S
C1614 H1627 0.961 . S
C1614 H1628 0.961 . S
C1615 C1612 1.539 . S
C1615 H1629 0.958 . S
C1615 H1630 0.961 . S
C1615 H1631 0.960 . S
H1616 C1600 0.931 . S
H1617 C1605 0.929 . S
H1618 C1606 0.960 . S
H1619 C1606 0.962 . S
H1620 C1606 0.960 . S
H1621 C1607 0.961 . S
H1622 C1607 0.961 . S
H1623 C1607 0.961 . S
H1624 C1608 0.931 . S
H1625 C1613 0.930 . S
H1626 C1614 0.956 . S
H1627 C1614 0.961 . S
H1628 C1614 0.961 . S
H1629 C1615 0.958 . S
H1630 C1615 0.961 . S
H1631 C1615 0.960 . S
C1632 C1633 1.391 . S
C1632 C1634 1.394 . S
C1632 H1648 0.931 . S
C1633 C1632 1.391 . S
C1633 C1637 1.376 . S
C1634 C1632 1.394 . S
C1634 C1635 1.369 . S
C1634 C1638 1.531 . S
C1635 C1634 1.369 . S
C1635 C1636 1.410 . S
C1635 C1643 1.503 . S
C1636 C1635 1.410 . S
C1636 C1637 1.392 . S
C1636 C1639 1.511 . S
C1637 C1633 1.376 . S
C1637 C1636 1.392 . S
C1637 H1649 0.929 . S
C1638 C1634 1.531 . S
C1638 H1650 0.960 . S
C1638 H1651 0.962 . S
C1638 H1652 0.960 . S
C1639 C1636 1.511 . S
C1639 H1653 0.961 . S
C1639 H1654 0.961 . S
C1639 H1655 0.961 . S
C1640 C1641 1.370 . S
C1640 C1642 1.363 . S
C1640 H1656 0.931 . S
C1641 C1640 1.370 . S
C1641 C1645 1.408 . S
C1642 C1640 1.363 . S
C1642 C1643 1.370 . S
C1642 C1646 1.524 . S
C1643 C1635 1.503 . S
C1643 C1642 1.370 . S
C1643 C1644 1.403 . S
C1644 C1643 1.403 . S
C1644 C1645 1.404 . S
C1644 C1647 1.539 . S
C1645 C1641 1.408 . S
C1645 C1644 1.404 . S
C1645 H1657 0.930 . S
C1646 C1642 1.524 . S
C1646 H1658 0.956 . S
C1646 H1659 0.961 . S
C1646 H1660 0.961 . S
C1647 C1644 1.539 . S
C1647 H1661 0.958 . S
C1647 H1662 0.961 . S
C1647 H1663 0.960 . S
H1648 C1632 0.931 . S
H1649 C1637 0.929 . S
H1650 C1638 0.960 . S
H1651 C1638 0.962 . S
H1652 C1638 0.960 . S
H1653 C1639 0.961 . S
H1654 C1639 0.961 . S
H1655 C1639 0.961 . S
H1656 C1640 0.931 . S
H1657 C1645 0.930 . S
H1658 C1646 0.956 . S
H1659 C1646 0.961 . S
H1660 C1646 0.961 . S
H1661 C1647 0.958 . S
H1662 C1647 0.961 . S
H1663 C1647 0.960 . S
C1664 C1665 1.391 . S
C1664 C1666 1.394 . S
C1664 H1680 0.931 . S
C1665 C1664 1.391 . S
C1665 C1669 1.376 . S
C1666 C1664 1.394 . S
C1666 C1667 1.369 . S
C1666 C1670 1.531 . S
C1667 C1666 1.369 . S
C1667 C1668 1.410 . S
C1667 C1675 1.503 . S
C1668 C1667 1.410 . S
C1668 C1669 1.392 . S
C1668 C1671 1.511 . S
C1669 C1665 1.376 . S
C1669 C1668 1.392 . S
C1669 H1681 0.929 . S
C1670 C1666 1.531 . S
C1670 H1682 0.960 . S
C1670 H1683 0.962 . S
C1670 H1684 0.960 . S
C1671 C1668 1.511 . S
C1671 H1685 0.961 . S
C1671 H1686 0.961 . S
C1671 H1687 0.961 . S
C1672 C1673 1.370 . S
C1672 C1674 1.363 . S
C1672 H1688 0.931 . S
C1673 C1672 1.370 . S
C1673 C1677 1.408 . S
C1674 C1672 1.363 . S
C1674 C1675 1.370 . S
C1674 C1678 1.524 . S
C1675 C1667 1.503 . S
C1675 C1674 1.370 . S
C1675 C1676 1.403 . S
C1676 C1675 1.403 . S
C1676 C1677 1.404 . S
C1676 C1679 1.539 . S
C1677 C1673 1.408 . S
C1677 C1676 1.404 . S
C1677 H1689 0.930 . S
C1678 C1674 1.524 . S
C1678 H1690 0.956 . S
C1678 H1691 0.961 . S
C1678 H1692 0.961 . S
C1679 C1676 1.539 . S
C1679 H1693 0.958 . S
C1679 H1694 0.961 . S
C1679 H1695 0.960 . S
H1680 C1664 0.931 . S
H1681 C1669 0.929 . S
H1682 C1670 0.960 . S
H1683 C1670 0.962 . S
H1684 C1670 0.960 . S
H1685 C1671 0.961 . S
H1686 C1671 0.961 . S
H1687 C1671 0.961 . S
H1688 C1672 0.931 . S
H1689 C1677 0.930 . S
H1690 C1678 0.956 . S
H1691 C1678 0.961 . S
H1692 C1678 0.961 . S
H1693 C1679 0.958 . S
H1694 C1679 0.961 . S
H1695 C1679 0.960 . S
C1696 C1697 1.391 . S
C1696 C1698 1.394 . S
C1696 H1712 0.931 . S
C1697 C1696 1.391 . S
C1697 C1701 1.376 . S
C1698 C1696 1.394 . S
C1698 C1699 1.369 . S
C1698 C1702 1.531 . S
C1699 C1698 1.369 . S
C1699 C1700 1.410 . S
C1699 C1707 1.503 . S
C1700 C1699 1.410 . S
C1700 C1701 1.392 . S
C1700 C1703 1.511 . S
C1701 C1697 1.376 . S
C1701 C1700 1.392 . S
C1701 H1713 0.929 . S
C1702 C1698 1.531 . S
C1702 H1714 0.960 . S
C1702 H1715 0.962 . S
C1702 H1716 0.960 . S
C1703 C1700 1.511 . S
C1703 H1717 0.961 . S
C1703 H1718 0.961 . S
C1703 H1719 0.961 . S
C1704 C1705 1.370 . S
C1704 C1706 1.363 . S
C1704 H1720 0.931 . S
C1705 C1704 1.370 . S
C1705 C1709 1.408 . S
C1706 C1704 1.363 . S
C1706 C1707 1.370 . S
C1706 C1710 1.524 . S
C1707 C1699 1.503 . S
C1707 C1706 1.370 . S
C1707 C1708 1.403 . S
C1708 C1707 1.403 . S
C1708 C1709 1.404 . S
C1708 C1711 1.539 . S
C1709 C1705 1.408 . S
C1709 C1708 1.404 . S
C1709 H1721 0.930 . S
C1710 C1706 1.524 . S
C1710 H1722 0.956 . S
C1710 H1723 0.961 . S
C1710 H1724 0.961 . S
C1711 C1708 1.539 . S
C1711 H1725 0.958 . S
C1711 H1726 0.961 . S
C1711 H1727 0.960 . S
H1712 C1696 0.931 . S
H1713 C1701 0.929 . S
H1714 C1702 0.960 . S
H1715 C1702 0.962 . S
H1716 C1702 0.960 . S
H1717 C1703 0.961 . S
H1718 C1703 0.961 . S
H1719 C1703 0.961 . S
H1720 C1704 0.931 . S
H1721 C1709 0.930 . S
H1722 C1710 0.956 . S
H1723 C1710 0.961 . S
H1724 C1710 0.961 . S
H1725 C1711 0.958 . S
H1726 C1711 0.961 . S
H1727 C1711 0.960 . S
C1728 C1729 1.391 . S
C1728 C1730 1.394 . S
C1728 H1744 0.931 . S
C1729 C1728 1.391 . S
C1729 C1733 1.376 . S
C1730 C1728 1.394 . S
C1730 C1731 1.369 . S
C1730 C1734 1.531 . S
C1731 C1730 1.369 . S
C1731 C1732 1.410 . S
C1731 C1739 1.503 . S
C1732 C1731 1.410 . S
C1732 C1733 1.392 . S
C1732 C1735 1.511 . S
C1733 C1729 1.376 . S
C1733 C1732 1.392 . S
C1733 H1745 0.929 . S
C1734 C1730 1.531 . S
C1734 H1746 0.960 . S
C1734 H1747 0.962 . S
C1734 H1748 0.960 . S
C1735 C1732 1.511 . S
C1735 H1749 0.961 . S
C1735 H1750 0.961 . S
C1735 H1751 0.961 . S
C1736 C1737 1.370 . S
C1736 C1738 1.363 . S
C1736 H1752 0.931 . S
C1737 C1736 1.370 . S
C1737 C1741 1.408 . S
C1738 C1736 1.363 . S
C1738 C1739 1.370 . S
C1738 C1742 1.524 . S
C1739 C1731 1.503 . S
C1739 C1738 1.370 . S
C1739 C1740 1.403 . S
C1740 C1739 1.403 . S
C1740 C1741 1.404 . S
C1740 C1743 1.539 . S
C1741 C1737 1.408 . S
C1741 C1740 1.404 . S
C1741 H1753 0.930 . S
C1742 C1738 1.524 . S
C1742 H1754 0.956 . S
C1742 H1755 0.961 . S
C1742 H1756 0.961 . S
C1743 C1740 1.539 . S
C1743 H1757 0.958 . S
C1743 H1758 0.961 . S
C1743 H1759 0.960 . S
H1744 C1728 0.931 . S
H1745 C1733 0.929 . S
H1746 C1734 0.960 . S
H1747 C1734 0.962 . S
H1748 C1734 0.960 . S
H1749 C1735 0.961 . S
H1750 C1735 0.961 . S
H1751 C1735 0.961 . S
H1752 C1736 0.931 . S
H1753 C1741 0.930 . S
H1754 C1742 0.956 . S
H1755 C1742 0.961 . S
H1756 C1742 0.961 . S
H1757 C1743 0.958 . S
H1758 C1743 0.961 . S
H1759 C1743 0.960 . S
C1760 C1761 1.391 . S
C1760 C1762 1.394 . S
C1760 H1776 0.931 . S
C1761 C1760 1.391 . S
C1761 C1765 1.376 . S
C1762 C1760 1.394 . S
C1762 C1763 1.369 . S
C1762 C1766 1.531 . S
C1763 C1762 1.369 . S
C1763 C1764 1.410 . S
C1763 C1771 1.503 . S
C1764 C1763 1.410 . S
C1764 C1765 1.392 . S
C1764 C1767 1.511 . S
C1765 C1761 1.376 . S
C1765 C1764 1.392 . S
C1765 H1777 0.929 . S
C1766 C1762 1.531 . S
C1766 H1778 0.960 . S
C1766 H1779 0.962 . S
C1766 H1780 0.960 . S
C1767 C1764 1.511 . S
C1767 H1781 0.961 . S
C1767 H1782 0.961 . S
C1767 H1783 0.961 . S
C1768 C1769 1.370 . S
C1768 C1770 1.363 . S
C1768 H1784 0.931 . S
C1769 C1768 1.370 . S
C1769 C1773 1.408 . S
C1770 C1768 1.363 . S
C1770 C1771 1.370 . S
C1770 C1774 1.524 . S
C1771 C1763 1.503 . S
C1771 C1770 1.370 . S
C1771 C1772 1.403 . S
C1772 C1771 1.403 . S
C1772 C1773 1.404 . S
C1772 C1775 1.539 . S
C1773 C1769 1.408 . S
C1773 C1772 1.404 . S
C1773 H1785 0.930 . S
C1774 C1770 1.524 . S
C1774 H1786 0.956 . S
C1774 H1787 0.961 . S
C1774 H1788 0.961 . S
C1775 C1772 1.539 . S
C1775 H1789 0.958 . S
C1775 H1790 0.961 . S
C1775 H1791 0.960 . S
H1776 C1760 0.931 . S
H1777 C1765 0.929 . S
H1778 C1766 0.960 . S
H1779 C1766 0.962 . S
H1780 C1766 0.960 . S
H1781 C1767 0.961 . S
H1782 C1767 0.961 . S
H1783 C1767 0.961 . S
H1784 C1768 0.931 . S
H1785 C1773 0.930 . S
H1786 C1774 0.956 . S
H1787 C1774 0.961 . S
H1788 C1774 0.961 . S
H1789 C1775 0.958 . S
H1790 C1775 0.961 . S
H1791 C1775 0.960 . S
C1792 C1793 1.391 . S
C1792 C1794 1.394 . S
C1792 H1808 0.931 . S
C1793 C1792 1.391 . S
C1793 C1797 1.376 . S
C1794 C1792 1.394 . S
C1794 C1795 1.369 . S
C1794 C1798 1.531 . S
C1795 C1794 1.369 . S
C1795 C1796 1.410 . S
C1795 C1803 1.503 . S
C1796 C1795 1.410 . S
C1796 C1797 1.392 . S
C1796 C1799 1.511 . S
C1797 C1793 1.376 . S
C1797 C1796 1.392 . S
C1797 H1809 0.929 . S
C1798 C1794 1.531 . S
C1798 H1810 0.960 . S
C1798 H1811 0.962 . S
C1798 H1812 0.960 . S
C1799 C1796 1.511 . S
C1799 H1813 0.961 . S
C1799 H1814 0.961 . S
C1799 H1815 0.961 . S
C1800 C1801 1.370 . S
C1800 C1802 1.363 . S
C1800 H1816 0.931 . S
C1801 C1800 1.370 . S
C1801 C1805 1.408 . S
C1802 C1800 1.363 . S
C1802 C1803 1.370 . S
C1802 C1806 1.524 . S
C1803 C1795 1.503 . S
C1803 C1802 1.370 . S
C1803 C1804 1.403 . S
C1804 C1803 1.403 . S
C1804 C1805 1.404 . S
C1804 C1807 1.539 . S
C1805 C1801 1.408 . S
C1805 C1804 1.404 . S
C1805 H1817 0.930 . S
C1806 C1802 1.524 . S
C1806 H1818 0.956 . S
C1806 H1819 0.961 . S
C1806 H1820 0.961 . S
C1807 C1804 1.539 . S
C1807 H1821 0.958 . S
C1807 H1822 0.961 . S
C1807 H1823 0.960 . S
H1808 C1792 0.931 . S
H1809 C1797 0.929 . S
H1810 C1798 0.960 . S
H1811 C1798 0.962 . S
H1812 C1798 0.960 . S
H1813 C1799 0.961 . S
H1814 C1799 0.961 . S
H1815 C1799 0.961 . S
H1816 C1800 0.931 . S
H1817 C1805 0.930 . S
H1818 C1806 0.956 . S
H1819 C1806 0.961 . S
H1820 C1806 0.961 . S
H1821 C1807 0.958 . S
H1822 C1807 0.961 . S
H1823 C1807 0.960 . S
C1824 C1825 1.391 . S
C1824 C1826 1.394 . S
C1824 H1840 0.931 . S
C1825 C1824 1.391 . S
C1825 C1829 1.376 . S
C1826 C1824 1.394 . S
C1826 C1827 1.369 . S
C1826 C1830 1.531 . S
C1827 C1826 1.369 . S
C1827 C1828 1.410 . S
C1827 C1835 1.503 . S
C1828 C1827 1.410 . S
C1828 C1829 1.392 . S
C1828 C1831 1.511 . S
C1829 C1825 1.376 . S
C1829 C1828 1.392 . S
C1829 H1841 0.929 . S
C1830 C1826 1.531 . S
C1830 H1842 0.960 . S
C1830 H1843 0.962 . S
C1830 H1844 0.960 . S
C1831 C1828 1.511 . S
C1831 H1845 0.961 . S
C1831 H1846 0.961 . S
C1831 H1847 0.961 . S
C1832 C1833 1.370 . S
C1832 C1834 1.363 . S
C1832 H1848 0.931 . S
C1833 C1832 1.370 . S
C1833 C1837 1.408 . S
C1834 C1832 1.363 . S
C1834 C1835 1.370 . S
C1834 C1838 1.524 . S
C1835 C1827 1.503 . S
C1835 C1834 1.370 . S
C1835 C1836 1.403 . S
C1836 C1835 1.403 . S
C1836 C1837 1.404 . S
C1836 C1839 1.539 . S
C1837 C1833 1.408 . S
C1837 C1836 1.404 . S
C1837 H1849 0.930 . S
C1838 C1834 1.524 . S
C1838 H1850 0.956 . S
C1838 H1851 0.961 . S
C1838 H1852 0.961 . S
C1839 C1836 1.539 . S
C1839 H1853 0.958 . S
C1839 H1854 0.961 . S
C1839 H1855 0.960 . S
H1840 C1824 0.931 . S
H1841 C1829 0.929 . S
H1842 C1830 0.960 . S
H1843 C1830 0.962 . S
H1844 C1830 0.960 . S
H1845 C1831 0.961 . S
H1846 C1831 0.961 . S
H1847 C1831 0.961 . S
H1848 C1832 0.931 . S
H1849 C1837 0.930 . S
H1850 C1838 0.956 . S
H1851 C1838 0.961 . S
H1852 C1838 0.961 . S
H1853 C1839 0.958 . S
H1854 C1839 0.961 . S
H1855 C1839 0.960 . S
C1856 C1857 1.391 . S
C1856 C1858 1.394 . S
C1856 H1872 0.931 . S
C1857 C1856 1.391 . S
C1857 C1861 1.376 . S
C1858 C1856 1.394 . S
C1858 C1859 1.369 . S
C1858 C1862 1.531 . S
C1859 C1858 1.369 . S
C1859 C1860 1.410 . S
C1859 C1867 1.503 . S
C1860 C1859 1.410 . S
C1860 C1861 1.392 . S
C1860 C1863 1.511 . S
C1861 C1857 1.376 . S
C1861 C1860 1.392 . S
C1861 H1873 0.929 . S
C1862 C1858 1.531 . S
C1862 H1874 0.960 . S
C1862 H1875 0.962 . S
C1862 H1876 0.960 . S
C1863 C1860 1.511 . S
C1863 H1877 0.961 . S
C1863 H1878 0.961 . S
C1863 H1879 0.961 . S
C1864 C1865 1.370 . S
C1864 C1866 1.363 . S
C1864 H1880 0.931 . S
C1865 C1864 1.370 . S
C1865 C1869 1.408 . S
C1866 C1864 1.363 . S
C1866 C1867 1.370 . S
C1866 C1870 1.524 . S
C1867 C1859 1.503 . S
C1867 C1866 1.370 . S
C1867 C1868 1.403 . S
C1868 C1867 1.403 . S
C1868 C1869 1.404 . S
C1868 C1871 1.539 . S
C1869 C1865 1.408 . S
C1869 C1868 1.404 . S
C1869 H1881 0.930 . S
C1870 C1866 1.524 . S
C1870 H1882 0.956 . S
C1870 H1883 0.961 . S
C1870 H1884 0.961 . S
C1871 C1868 1.539 . S
C1871 H1885 0.958 . S
C1871 H1886 0.961 . S
C1871 H1887 0.960 . S
H1872 C1856 0.931 . S
H1873 C1861 0.929 . S
H1874 C1862 0.960 . S
H1875 C1862 0.962 . S
H1876 C1862 0.960 . S
H1877 C1863 0.961 . S
H1878 C1863 0.961 . S
H1879 C1863 0.961 . S
H1880 C1864 0.931 . S
H1881 C1869 0.930 . S
H1882 C1870 0.956 . S
H1883 C1870 0.961 . S
H1884 C1870 0.961 . S
H1885 C1871 0.958 . S
H1886 C1871 0.961 . S
H1887 C1871 0.960 . S
C1888 C1889 1.391 . S
C1888 C1890 1.394 . S
C1888 H1904 0.931 . S
C1889 C1888 1.391 . S
C1889 C1893 1.376 . S
C1890 C1888 1.394 . S
C1890 C1891 1.369 . S
C1890 C1894 1.531 . S
C1891 C1890 1.369 . S
C1891 C1892 1.410 . S
C1891 C1899 1.503 . S
C1892 C1891 1.410 . S
C1892 C1893 1.392 . S
C1892 C1895 1.511 . S
C1893 C1889 1.376 . S
C1893 C1892 1.392 . S
C1893 H1905 0.929 . S
C1894 C1890 1.531 . S
C1894 H1906 0.960 . S
C1894 H1907 0.962 . S
C1894 H1908 0.960 . S
C1895 C1892 1.511 . S
C1895 H1909 0.961 . S
C1895 H1910 0.961 . S
C1895 H1911 0.961 . S
C1896 C1897 1.370 . S
C1896 C1898 1.363 . S
C1896 H1912 0.931 . S
C1897 C1896 1.370 . S
C1897 C1901 1.408 . S
C1898 C1896 1.363 . S
C1898 C1899 1.370 . S
C1898 C1902 1.524 . S
C1899 C1891 1.503 . S
C1899 C1898 1.370 . S
C1899 C1900 1.403 . S
C1900 C1899 1.403 . S
C1900 C1901 1.404 . S
C1900 C1903 1.539 . S
C1901 C1897 1.408 . S
C1901 C1900 1.404 . S
C1901 H1913 0.930 . S
C1902 C1898 1.524 . S
C1902 H1914 0.956 . S
C1902 H1915 0.961 . S
C1902 H1916 0.961 . S
C1903 C1900 1.539 . S
C1903 H1917 0.958 . S
C1903 H1918 0.961 . S
C1903 H1919 0.960 . S
H1904 C1888 0.931 . S
H1905 C1893 0.929 . S
H1906 C1894 0.960 . S
H1907 C1894 0.962 . S
H1908 C1894 0.960 . S
H1909 C1895 0.961 . S
H1910 C1895 0.961 . S
H1911 C1895 0.961 . S
H1912 C1896 0.931 . S
H1913 C1901 0.930 . S
H1914 C1902 0.956 . S
H1915 C1902 0.961 . S
H1916 C1902 0.961 . S
H1917 C1903 0.958 . S
H1918 C1903 0.961 . S
H1919 C1903 0.960 . S
C1920 C1921 1.391 . S
C1920 C1922 1.394 . S
C1920 H1936 0.931 . S
C1921 C1920 1.391 . S
C1921 C1925 1.376 . S
C1922 C1920 1.394 . S
C1922 C1923 1.369 . S
C1922 C1926 1.531 . S
C1923 C1922 1.369 . S
C1923 C1924 1.410 . S
C1923 C1931 1.503 . S
C1924 C1923 1.410 . S
C1924 C1925 1.392 . S
C1924 C1927 1.511 . S
C1925 C1921 1.376 . S
C1925 C1924 1.392 . S
C1925 H1937 0.929 . S
C1926 C1922 1.531 . S
C1926 H1938 0.960 . S
C1926 H1939 0.962 . S
C1926 H1940 0.960 . S
C1927 C1924 1.511 . S
C1927 H1941 0.961 . S
C1927 H1942 0.961 . S
C1927 H1943 0.961 . S
C1928 C1929 1.370 . S
C1928 C1930 1.363 . S
C1928 H1944 0.931 . S
C1929 C1928 1.370 . S
C1929 C1933 1.408 . S
C1930 C1928 1.363 . S
C1930 C1931 1.370 . S
C1930 C1934 1.524 . S
C1931 C1923 1.503 . S
C1931 C1930 1.370 . S
C1931 C1932 1.403 . S
C1932 C1931 1.403 . S
C1932 C1933 1.404 . S
C1932 C1935 1.539 . S
C1933 C1929 1.408 . S
C1933 C1932 1.404 . S
C1933 H1945 0.930 . S
C1934 C1930 1.524 . S
C1934 H1946 0.956 . S
C1934 H1947 0.961 . S
C1934 H1948 0.961 . S
C1935 C1932 1.539 . S
C1935 H1949 0.958 . S
C1935 H1950 0.961 . S
C1935 H1951 0.960 . S
H1936 C1920 0.931 . S
H1937 C1925 0.929 . S
H1938 C1926 0.960 . S
H1939 C1926 0.962 . S
H1940 C1926 0.960 . S
H1941 C1927 0.961 . S
H1942 C1927 0.961 . S
H1943 C1927 0.961 . S
H1944 C1928 0.931 . S
H1945 C1933 0.930 . S
H1946 C1934 0.956 . S
H1947 C1934 0.961 . S
H1948 C1934 0.961 . S
H1949 C1935 0.958 . S
H1950 C1935 0.961 . S
H1951 C1935 0.960 . S
C1952 C1953 1.391 . S
C1952 C1954 1.394 . S
C1952 H1968 0.931 . S
C1953 C1952 1.391 . S
C1953 C1957 1.376 . S
C1954 C1952 1.394 . S
C1954 C1955 1.369 . S
C1954 C1958 1.531 . S
C1955 C1954 1.369 . S
C1955 C1956 1.410 . S
C1955 C1963 1.503 . S
C1956 C1955 1.410 . S
C1956 C1957 1.392 . S
C1956 C1959 1.511 . S
C1957 C1953 1.376 . S
C1957 C1956 1.392 . S
C1957 H1969 0.929 . S
C1958 C1954 1.531 . S
C1958 H1970 0.960 . S
C1958 H1971 0.962 . S
C1958 H1972 0.960 . S
C1959 C1956 1.511 . S
C1959 H1973 0.961 . S
C1959 H1974 0.961 . S
C1959 H1975 0.961 . S
C1960 C1961 1.370 . S
C1960 C1962 1.363 . S
C1960 H1976 0.931 . S
C1961 C1960 1.370 . S
C1961 C1965 1.408 . S
C1962 C1960 1.363 . S
C1962 C1963 1.370 . S
C1962 C1966 1.524 . S
C1963 C1955 1.503 . S
C1963 C1962 1.370 . S
C1963 C1964 1.403 . S
C1964 C1963 1.403 . S
C1964 C1965 1.404 . S
C1964 C1967 1.539 . S
C1965 C1961 1.408 . S
C1965 C1964 1.404 . S
C1965 H1977 0.930 . S
C1966 C1962 1.524 . S
C1966 H1978 0.956 . S
C1966 H1979 0.961 . S
C1966 H1980 0.961 . S
C1967 C1964 1.539 . S
C1967 H1981 0.958 . S
C1967 H1982 0.961 . S
C1967 H1983 0.960 . S
H1968 C1952 0.931 . S
H1969 C1957 0.929 . S
H1970 C1958 0.960 . S
H1971 C1958 0.962 . S
H1972 C1958 0.960 . S
H1973 C1959 0.961 . S
H1974 C1959 0.961 . S
H1975 C1959 0.961 . S
H1976 C1960 0.931 . S
H1977 C1965 0.930 . S
H1978 C1966 0.956 . S
H1979 C1966 0.961 . S
H1980 C1966 0.961 . S
H1981 C1967 0.958 . S
H1982 C1967 0.961 . S
H1983 C1967 0.960 . S
C1984 C1985 1.391 . S
C1984 C1986 1.394 . S
C1984 H2000 0.931 . S
C1985 C1984 1.391 . S
C1985 C1989 1.376 . S
C1986 C1984 1.394 . S
C1986 C1987 1.369 . S
C1986 C1990 1.531 . S
C1987 C1986 1.369 . S
C1987 C1988 1.410 . S
C1987 C1995 1.503 . S
C1988 C1987 1.410 . S
C1988 C1989 1.392 . S
C1988 C1991 1.511 . S
C1989 C1985 1.376 . S
C1989 C1988 1.392 . S
C1989 H2001 0.929 . S
C1990 C1986 1.531 . S
C1990 H2002 0.960 . S
C1990 H2003 0.962 . S
C1990 H2004 0.960 . S
C1991 C1988 1.511 . S
C1991 H2005 0.961 . S
C1991 H2006 0.961 . S
C1991 H2007 0.961 . S
C1992 C1993 1.370 . S
C1992 C1994 1.363 . S
C1992 H2008 0.931 . S
C1993 C1992 1.370 . S
C1993 C1997 1.408 . S
C1994 C1992 1.363 . S
C1994 C1995 1.370 . S
C1994 C1998 1.524 . S
C1995 C1987 1.503 . S
C1995 C1994 1.370 . S
C1995 C1996 1.403 . S
C1996 C1995 1.403 . S
C1996 C1997 1.404 . S
C1996 C1999 1.539 . S
C1997 C1993 1.408 . S
C1997 C1996 1.404 . S
C1997 H2009 0.930 . S
C1998 C1994 1.524 . S
C1998 H2010 0.956 . S
C1998 H2011 0.961 . S
C1998 H2012 0.961 . S
C1999 C1996 1.539 . S
C1999 H2013 0.958 . S
C1999 H2014 0.961 . S
C1999 H2015 0.960 . S
H2000 C1984 0.931 . S
H2001 C1989 0.929 . S
H2002 C1990 0.960 . S
H2003 C1990 0.962 . S
H2004 C1990 0.960 . S
H2005 C1991 0.961 . S
H2006 C1991 0.961 . S
H2007 C1991 0.961 . S
H2008 C1992 0.931 . S
H2009 C1997 0.930 . S
H2010 C1998 0.956 . S
H2011 C1998 0.961 . S
H2012 C1998 0.961 . S
H2013 C1999 0.958 . S
H2014 C1999 0.961 . S
H2015 C1999 0.960 . S
C2016 C2017 1.391 . S
C2016 C2018 1.394 . S
C2016 H2032 0.931 . S
C2017 C2016 1.391 . S
C2017 C2021 1.376 . S
C2018 C2016 1.394 . S
C2018 C2019 1.369 . S
C2018 C2022 1.531 . S
C2019 C2018 1.369 . S
C2019 C2020 1.410 . S
C2019 C2027 1.503 . S
C2020 C2019 1.410 . S
C2020 C2021 1.392 . S
C2020 C2023 1.511 . S
C2021 C2017 1.376 . S
C2021 C2020 1.392 . S
C2021 H2033 0.929 . S
C2022 C2018 1.531 . S
C2022 H2034 0.960 . S
C2022 H2035 0.962 . S
C2022 H2036 0.960 . S
C2023 C2020 1.511 . S
C2023 H2037 0.961 . S
C2023 H2038 0.961 . S
C2023 H2039 0.961 . S
C2024 C2025 1.370 . S
C2024 C2026 1.363 . S
C2024 H2040 0.931 . S
C2025 C2024 1.370 . S
C2025 C2029 1.408 . S
C2026 C2024 1.363 . S
C2026 C2027 1.370 . S
C2026 C2030 1.524 . S
C2027 C2019 1.503 . S
C2027 C2026 1.370 . S
C2027 C2028 1.403 . S
C2028 C2027 1.403 . S
C2028 C2029 1.404 . S
C2028 C2031 1.539 . S
C2029 C2025 1.408 . S
C2029 C2028 1.404 . S
C2029 H2041 0.930 . S
C2030 C2026 1.524 . S
C2030 H2042 0.956 . S
C2030 H2043 0.961 . S
C2030 H2044 0.961 . S
C2031 C2028 1.539 . S
C2031 H2045 0.958 . S
C2031 H2046 0.961 . S
C2031 H2047 0.960 . S
H2032 C2016 0.931 . S
H2033 C2021 0.929 . S
H2034 C2022 0.960 . S
H2035 C2022 0.962 . S
H2036 C2022 0.960 . S
H2037 C2023 0.961 . S
H2038 C2023 0.961 . S
H2039 C2023 0.961 . S
H2040 C2024 0.931 . S
H2041 C2029 0.930 . S
H2042 C2030 0.956 . S
H2043 C2030 0.961 . S
H2044 C2030 0.961 . S
H2045 C2031 0.958 . S
H2046 C2031 0.961 . S
H2047 C2031 0.960 . S
C2048 C2049 1.391 . S
C2048 C2050 1.394 . S
C2048 H2064 0.931 . S
C2049 C2048 1.391 . S
C2049 C2053 1.376 . S
C2050 C2048 1.394 . S
C2050 C2051 1.369 . S
C2050 C2054 1.531 . S
C2051 C2050 1.369 . S
C2051 C2052 1.410 . S
C2051 C2059 1.503 . S
C2052 C2051 1.410 . S
C2052 C2053 1.392 . S
C2052 C2055 1.511 . S
C2053 C2049 1.376 . S
C2053 C2052 1.392 . S
C2053 H2065 0.929 . S
C2054 C2050 1.531 . S
C2054 H2066 0.960 . S
C2054 H2067 0.962 . S
C2054 H2068 0.960 . S
C2055 C2052 1.511 . S
C2055 H2069 0.961 . S
C2055 H2070 0.961 . S
C2055 H2071 0.961 . S
C2056 C2057 1.370 . S
C2056 C2058 1.363 . S
C2056 H2072 0.931 . S
C2057 C2056 1.370 . S
C2057 C2061 1.408 . S
C2058 C2056 1.363 . S
C2058 C2059 1.370 . S
C2058 C2062 1.524 . S
C2059 C2051 1.503 . S
C2059 C2058 1.370 . S
C2059 C2060 1.403 . S
C2060 C2059 1.403 . S
C2060 C2061 1.404 . S
C2060 C2063 1.539 . S
C2061 C2057 1.408 . S
C2061 C2060 1.404 . S
C2061 H2073 0.930 . S
C2062 C2058 1.524 . S
C2062 H2074 0.956 . S
C2062 H2075 0.961 . S
C2062 H2076 0.961 . S
C2063 C2060 1.539 . S
C2063 H2077 0.958 . S
C2063 H2078 0.961 . S
C2063 H2079 0.960 . S
H2064 C2048 0.931 . S
H2065 C2053 0.929 . S
H2066 C2054 0.960 . S
H2067 C2054 0.962 . S
H2068 C2054 0.960 . S
H2069 C2055 0.961 . S
H2070 C2055 0.961 . S
H2071 C2055 0.961 . S
H2072 C2056 0.931 . S
H2073 C2061 0.930 . S
H2074 C2062 0.956 . S
H2075 C2062 0.961 . S
H2076 C2062 0.961 . S
H2077 C2063 0.958 . S
H2078 C2063 0.961 . S
H2079 C2063 0.960 . S
C2080 C2081 1.391 . S
C2080 C2082 1.394 . S
C2080 H2096 0.931 . S
C2081 C2080 1.391 . S
C2081 C2085 1.376 . S
C2082 C2080 1.394 . S
C2082 C2083 1.369 . S
C2082 C2086 1.531 . S
C2083 C2082 1.369 . S
C2083 C2084 1.410 . S
C2083 C2091 1.503 . S
C2084 C2083 1.410 . S
C2084 C2085 1.392 . S
C2084 C2087 1.511 . S
C2085 C2081 1.376 . S
C2085 C2084 1.392 . S
C2085 H2097 0.929 . S
C2086 C2082 1.531 . S
C2086 H2098 0.960 . S
C2086 H2099 0.962 . S
C2086 H2100 0.960 . S
C2087 C2084 1.511 . S
C2087 H2101 0.961 . S
C2087 H2102 0.961 . S
C2087 H2103 0.961 . S
C2088 C2089 1.370 . S
C2088 C2090 1.363 . S
C2088 H2104 0.931 . S
C2089 C2088 1.370 . S
C2089 C2093 1.408 . S
C2090 C2088 1.363 . S
C2090 C2091 1.370 . S
C2090 C2094 1.524 . S
C2091 C2083 1.503 . S
C2091 C2090 1.370 . S
C2091 C2092 1.403 . S
C2092 C2091 1.403 . S
C2092 C2093 1.404 . S
C2092 C2095 1.539 . S
C2093 C2089 1.408 . S
C2093 C2092 1.404 . S
C2093 H2105 0.930 . S
C2094 C2090 1.524 . S
C2094 H2106 0.956 . S
C2094 H2107 0.961 . S
C2094 H2108 0.961 . S
C2095 C2092 1.539 . S
C2095 H2109 0.958 . S
C2095 H2110 0.961 . S
C2095 H2111 0.960 . S
H2096 C2080 0.931 . S
H2097 C2085 0.929 . S
H2098 C2086 0.960 . S
H2099 C2086 0.962 . S
H2100 C2086 0.960 . S
H2101 C2087 0.961 . S
H2102 C2087 0.961 . S
H2103 C2087 0.961 . S
H2104 C2088 0.931 . S
H2105 C2093 0.930 . S
H2106 C2094 0.956 . S
H2107 C2094 0.961 . S
H2108 C2094 0.961 . S
H2109 C2095 0.958 . S
H2110 C2095 0.961 . S
H2111 C2095 0.960 . S
C2112 C2113 1.391 . S
C2112 C2114 1.394 . S
C2112 H2128 0.931 . S
C2113 C2112 1.391 . S
C2113 C2117 1.376 . S
C2114 C2112 1.394 . S
C2114 C2115 1.369 . S
C2114 C2118 1.531 . S
C2115 C2114 1.369 . S
C2115 C2116 1.410 . S
C2115 C2123 1.503 . S
C2116 C2115 1.410 . S
C2116 C2117 1.392 . S
C2116 C2119 1.511 . S
C2117 C2113 1.376 . S
C2117 C2116 1.392 . S
C2117 H2129 0.929 . S
C2118 C2114 1.531 . S
C2118 H2130 0.960 . S
C2118 H2131 0.962 . S
C2118 H2132 0.960 . S
C2119 C2116 1.511 . S
C2119 H2133 0.961 . S
C2119 H2134 0.961 . S
C2119 H2135 0.961 . S
C2120 C2121 1.370 . S
C2120 C2122 1.363 . S
C2120 H2136 0.931 . S
C2121 C2120 1.370 . S
C2121 C2125 1.408 . S
C2122 C2120 1.363 . S
C2122 C2123 1.370 . S
C2122 C2126 1.524 . S
C2123 C2115 1.503 . S
C2123 C2122 1.370 . S
C2123 C2124 1.403 . S
C2124 C2123 1.403 . S
C2124 C2125 1.404 . S
C2124 C2127 1.539 . S
C2125 C2121 1.408 . S
C2125 C2124 1.404 . S
C2125 H2137 0.930 . S
C2126 C2122 1.524 . S
C2126 H2138 0.956 . S
C2126 H2139 0.961 . S
C2126 H2140 0.961 . S
C2127 C2124 1.539 . S
C2127 H2141 0.958 . S
C2127 H2142 0.961 . S
C2127 H2143 0.960 . S
H2128 C2112 0.931 . S
H2129 C2117 0.929 . S
H2130 C2118 0.960 . S
H2131 C2118 0.962 . S
H2132 C2118 0.960 . S
H2133 C2119 0.961 . S
H2134 C2119 0.961 . S
H2135 C2119 0.961 . S
H2136 C2120 0.931 . S
H2137 C2125 0.930 . S
H2138 C2126 0.956 . S
H2139 C2126 0.961 . S
H2140 C2126 0.961 . S
H2141 C2127 0.958 . S
H2142 C2127 0.961 . S
H2143 C2127 0.960 . S
C2144 C2145 1.391 . S
C2144 C2146 1.394 . S
C2144 H2160 0.931 . S
C2145 C2144 1.391 . S
C2145 C2149 1.376 . S
C2146 C2144 1.394 . S
C2146 C2147 1.369 . S
C2146 C2150 1.531 . S
C2147 C2146 1.369 . S
C2147 C2148 1.410 . S
C2147 C2155 1.503 . S
C2148 C2147 1.410 . S
C2148 C2149 1.392 . S
C2148 C2151 1.511 . S
C2149 C2145 1.376 . S
C2149 C2148 1.392 . S
C2149 H2161 0.929 . S
C2150 C2146 1.531 . S
C2150 H2162 0.960 . S
C2150 H2163 0.962 . S
C2150 H2164 0.960 . S
C2151 C2148 1.511 . S
C2151 H2165 0.961 . S
C2151 H2166 0.961 . S
C2151 H2167 0.961 . S
C2152 C2153 1.370 . S
C2152 C2154 1.363 . S
C2152 H2168 0.931 . S
C2153 C2152 1.370 . S
C2153 C2157 1.408 . S
C2154 C2152 1.363 . S
C2154 C2155 1.370 . S
C2154 C2158 1.524 . S
C2155 C2147 1.503 . S
C2155 C2154 1.370 . S
C2155 C2156 1.403 . S
C2156 C2155 1.403 . S
C2156 C2157 1.404 . S
C2156 C2159 1.539 . S
C2157 C2153 1.408 . S
C2157 C2156 1.404 . S
C2157 H2169 0.930 . S
C2158 C2154 1.524 . S
C2158 H2170 0.956 . S
C2158 H2171 0.961 . S
C2158 H2172 0.961 . S
C2159 C2156 1.539 . S
C2159 H2173 0.958 . S
C2159 H2174 0.961 . S
C2159 H2175 0.960 . S
H2160 C2144 0.931 . S
H2161 C2149 0.929 . S
H2162 C2150 0.960 . S
H2163 C2150 0.962 . S
H2164 C2150 0.960 . S
H2165 C2151 0.961 . S
H2166 C2151 0.961 . S
H2167 C2151 0.961 . S
H2168 C2152 0.931 . S
H2169 C2157 0.930 . S
H2170 C2158 0.956 . S
H2171 C2158 0.961 . S
H2172 C2158 0.961 . S
H2173 C2159 0.958 . S
H2174 C2159 0.961 . S
H2175 C2159 0.960 . S
C2176 C2177 1.391 . S
C2176 C2178 1.394 . S
C2176 H2192 0.931 . S
C2177 C2176 1.391 . S
C2177 C2181 1.376 . S
C2178 C2176 1.394 . S
C2178 C2179 1.369 . S
C2178 C2182 1.531 . S
C2179 C2178 1.369 . S
C2179 C2180 1.410 . S
C2179 C2187 1.503 . S
C2180 C2179 1.410 . S
C2180 C2181 1.392 . S
C2180 C2183 1.511 . S
C2181 C2177 1.376 . S
C2181 C2180 1.392 . S
C2181 H2193 0.929 . S
C2182 C2178 1.531 . S
C2182 H2194 0.960 . S
C2182 H2195 0.962 . S
C2182 H2196 0.960 . S
C2183 C2180 1.511 . S
C2183 H2197 0.961 . S
C2183 H2198 0.961 . S
C2183 H2199 0.961 . S
C2184 C2185 1.370 . S
C2184 C2186 1.363 . S
C2184 H2200 0.931 . S
C2185 C2184 1.370 . S
C2185 C2189 1.408 . S
C2186 C2184 1.363 . S
C2186 C2187 1.370 . S
C2186 C2190 1.524 . S
C2187 C2179 1.503 . S
C2187 C2186 1.370 . S
C2187 C2188 1.403 . S
C2188 C2187 1.403 . S
C2188 C2189 1.404 . S
C2188 C2191 1.539 . S
C2189 C2185 1.408 . S
C2189 C2188 1.404 . S
C2189 H2201 0.930 . S
C2190 C2186 1.524 . S
C2190 H2202 0.956 . S
C2190 H2203 0.961 . S
C2190 H2204 0.961 . S
C2191 C2188 1.539 . S
C2191 H2205 0.958 . S
C2191 H2206 0.961 . S
C2191 H2207 0.960 . S
H2192 C2176 0.931 . S
H2193 C2181 0.929 . S
H2194 C2182 0.960 . S
H2195 C2182 0.962 . S
H2196 C2182 0.960 . S
H2197 C2183 0.961 . S
H2198 C2183 0.961 . S
H2199 C2183 0.961 . S
H2200 C2184 0.931 . S
H2201 C2189 0.930 . S
H2202 C2190 0.956 . S
H2203 C2190 0.961 . S
H2204 C2190 0.961 . S
H2205 C2191 0.958 . S
H2206 C2191 0.961 . S
H2207 C2191 0.960 . S
C2208 C2209 1.391 . S
C2208 C2210 1.394 . S
C2208 H2224 0.931 . S
C2209 C2208 1.391 . S
C2209 C2213 1.376 . S
C2210 C2208 1.394 . S
C2210 C2211 1.369 . S
C2210 C2214 1.531 . S
C2211 C2210 1.369 . S
C2211 C2212 1.410 . S
C2211 C2219 1.503 . S
C2212 C2211 1.410 . S
C2212 C2213 1.392 . S
C2212 C2215 1.511 . S
C2213 C2209 1.376 . S
C2213 C2212 1.392 . S
C2213 H2225 0.929 . S
C2214 C2210 1.531 . S
C2214 H2226 0.960 . S
C2214 H2227 0.962 . S
C2214 H2228 0.960 . S
C2215 C2212 1.511 . S
C2215 H2229 0.961 . S
C2215 H2230 0.961 . S
C2215 H2231 0.961 . S
C2216 C2217 1.370 . S
C2216 C2218 1.363 . S
C2216 H2232 0.931 . S
C2217 C2216 1.370 . S
C2217 C2221 1.408 . S
C2218 C2216 1.363 . S
C2218 C2219 1.370 . S
C2218 C2222 1.524 . S
C2219 C2211 1.503 . S
C2219 C2218 1.370 . S
C2219 C2220 1.403 . S
C2220 C2219 1.403 . S
C2220 C2221 1.404 . S
C2220 C2223 1.539 . S
C2221 C2217 1.408 . S
C2221 C2220 1.404 . S
C2221 H2233 0.930 . S
C2222 C2218 1.524 . S
C2222 H2234 0.956 . S
C2222 H2235 0.961 . S
C2222 H2236 0.961 . S
C2223 C2220 1.539 . S
C2223 H2237 0.958 . S
C2223 H2238 0.961 . S
C2223 H2239 0.960 . S
H2224 C2208 0.931 . S
H2225 C2213 0.929 . S
H2226 C2214 0.960 . S
H2227 C2214 0.962 . S
H2228 C2214 0.960 . S
H2229 C2215 0.961 . S
H2230 C2215 0.961 . S
H2231 C2215 0.961 . S
H2232 C2216 0.931 . S
H2233 C2221 0.930 . S
H2234 C2222 0.956 . S
H2235 C2222 0.961 . S
H2236 C2222 0.961 . S
H2237 C2223 0.958 . S
H2238 C2223 0.961 . S
H2239 C2223 0.960 . S
C2240 C2241 1.391 . S
C2240 C2242 1.394 . S
C2240 H2256 0.931 . S
C2241 C2240 1.391 . S
C2241 C2245 1.376 . S
C2242 C2240 1.394 . S
C2242 C2243 1.369 . S
C2242 C2246 1.531 . S
C2243 C2242 1.369 . S
C2243 C2244 1.410 . S
C2243 C2251 1.503 . S
C2244 C2243 1.410 . S
C2244 C2245 1.392 . S
C2244 C2247 1.511 . S
C2245 C2241 1.376 . S
C2245 C2244 1.392 . S
C2245 H2257 0.929 . S
C2246 C2242 1.531 . S
C2246 H2258 0.960 . S
C2246 H2259 0.962 . S
C2246 H2260 0.960 . S
C2247 C2244 1.511 . S
C2247 H2261 0.961 . S
C2247 H2262 0.961 . S
C2247 H2263 0.961 . S
C2248 C2249 1.370 . S
C2248 C2250 1.363 . S
C2248 H2264 0.931 . S
C2249 C2248 1.370 . S
C2249 C2253 1.408 . S
C2250 C2248 1.363 . S
C2250 C2251 1.370 . S
C2250 C2254 1.524 . S
C2251 C2243 1.503 . S
C2251 C2250 1.370 . S
C2251 C2252 1.403 . S
C2252 C2251 1.403 . S
C2252 C2253 1.404 . S
C2252 C2255 1.539 . S
C2253 C2249 1.408 . S
C2253 C2252 1.404 . S
C2253 H2265 0.930 . S
C2254 C2250 1.524 . S
C2254 H2266 0.956 . S
C2254 H2267 0.961 . S
C2254 H2268 0.961 . S
C2255 C2252 1.539 . S
C2255 H2269 0.958 . S
C2255 H2270 0.961 . S
C2255 H2271 0.960 . S
H2256 C2240 0.931 . S
H2257 C2245 0.929 . S
H2258 C2246 0.960 . S
H2259 C2246 0.962 . S
H2260 C2246 0.960 . S
H2261 C2247 0.961 . S
H2262 C2247 0.961 . S
H2263 C2247 0.961 . S
H2264 C2248 0.931 . S
H2265 C2253 0.930 . S
H2266 C2254 0.956 . S
H2267 C2254 0.961 . S
H2268 C2254 0.961 . S
H2269 C2255 0.958 . S
H2270 C2255 0.961 . S
H2271 C2255 0.960 . S
C2272 C2273 1.391 . S
C2272 C2274 1.394 . S
C2272 H2288 0.931 . S
C2273 C2272 1.391 . S
C2273 C2277 1.376 . S
C2274 C2272 1.394 . S
C2274 C2275 1.369 . S
C2274 C2278 1.531 . S
C2275 C2274 1.369 . S
C2275 C2276 1.410 . S
C2275 C2283 1.503 . S
C2276 C2275 1.410 . S
C2276 C2277 1.392 . S
C2276 C2279 1.511 . S
C2277 C2273 1.376 . S
C2277 C2276 1.392 . S
C2277 H2289 0.929 . S
C2278 C2274 1.531 . S
C2278 H2290 0.960 . S
C2278 H2291 0.962 . S
C2278 H2292 0.960 . S
C2279 C2276 1.511 . S
C2279 H2293 0.961 . S
C2279 H2294 0.961 . S
C2279 H2295 0.961 . S
C2280 C2281 1.370 . S
C2280 C2282 1.363 . S
C2280 H2296 0.931 . S
C2281 C2280 1.370 . S
C2281 C2285 1.408 . S
C2282 C2280 1.363 . S
C2282 C2283 1.370 . S
C2282 C2286 1.524 . S
C2283 C2275 1.503 . S
C2283 C2282 1.370 . S
C2283 C2284 1.403 . S
C2284 C2283 1.403 . S
C2284 C2285 1.404 . S
C2284 C2287 1.539 . S
C2285 C2281 1.408 . S
C2285 C2284 1.404 . S
C2285 H2297 0.930 . S
C2286 C2282 1.524 . S
C2286 H2298 0.956 . S
C2286 H2299 0.961 . S
C2286 H2300 0.961 . S
C2287 C2284 1.539 . S
C2287 H2301 0.958 . S
C2287 H2302 0.961 . S
C2287 H2303 0.960 . S
H2288 C2272 0.931 . S
H2289 C2277 0.929 . S
H2290 C2278 0.960 . S
H2291 C2278 0.962 . S
H2292 C2278 0.960 . S
H2293 C2279 0.961 . S
H2294 C2279 0.961 . S
H2295 C2279 0.961 . S
H2296 C2280 0.931 . S
H2297 C2285 0.930 . S
H2298 C2286 0.956 . S
H2299 C2286 0.961 . S
H2300 C2286 0.961 . S
H2301 C2287 0.958 . S
H2302 C2287 0.961 . S
H2303 C2287 0.960 . S
C2304 C2305 1.391 . S
C2304 C2306 1.394 . S
C2304 H2320 0.931 . S
C2305 C2304 1.391 . S
C2305 C2309 1.376 . S
C2306 C2304 1.394 . S
C2306 C2307 1.369 . S
C2306 C2310 1.531 . S
C2307 C2306 1.369 . S
C2307 C2308 1.410 . S
C2307 C2315 1.503 . S
C2308 C2307 1.410 . S
C2308 C2309 1.392 . S
C2308 C2311 1.511 . S
C2309 C2305 1.376 . S
C2309 C2308 1.392 . S
C2309 H2321 0.929 . S
C2310 C2306 1.531 . S
C2310 H2322 0.960 . S
C2310 H2323 0.962 . S
C2310 H2324 0.960 . S
C2311 C2308 1.511 . S
C2311 H2325 0.961 . S
C2311 H2326 0.961 . S
C2311 H2327 0.961 . S
C2312 C2313 1.370 . S
C2312 C2314 1.363 . S
C2312 H2328 0.931 . S
C2313 C2312 1.370 . S
C2313 C2317 1.408 . S
C2314 C2312 1.363 . S
C2314 C2315 1.370 . S
C2314 C2318 1.524 . S
C2315 C2307 1.503 . S
C2315 C2314 1.370 . S
C2315 C2316 1.403 . S
C2316 C2315 1.403 . S
C2316 C2317 1.404 . S
C2316 C2319 1.539 . S
C2317 C2313 1.408 . S
C2317 C2316 1.404 . S
C2317 H2329 0.930 . S
C2318 C2314 1.524 . S
C2318 H2330 0.956 . S
C2318 H2331 0.961 . S
C2318 H2332 0.961 . S
C2319 C2316 1.539 . S
C2319 H2333 0.958 . S
C2319 H2334 0.961 . S
C2319 H2335 0.960 . S
H2320 C2304 0.931 . S
H2321 C2309 0.929 . S
H2322 C2310 0.960 . S
H2323 C2310 0.962 . S
H2324 C2310 0.960 . S
H2325 C2311 0.961 . S
H2326 C2311 0.961 . S
H2327 C2311 0.961 . S
H2328 C2312 0.931 . S
H2329 C2317 0.930 . S
H2330 C2318 0.956 . S
H2331 C2318 0.961 . S
H2332 C2318 0.961 . S
H2333 C2319 0.958 . S
H2334 C2319 0.961 . S
H2335 C2319 0.960 . S
C2336 C2337 1.391 . S
C2336 C2338 1.394 . S
C2336 H2352 0.931 . S
C2337 C2336 1.391 . S
C2337 C2341 1.376 . S
C2338 C2336 1.394 . S
C2338 C2339 1.369 . S
C2338 C2342 1.531 . S
C2339 C2338 1.369 . S
C2339 C2340 1.410 . S
C2339 C2347 1.503 . S
C2340 C2339 1.410 . S
C2340 C2341 1.392 . S
C2340 C2343 1.511 . S
C2341 C2337 1.376 . S
C2341 C2340 1.392 . S
C2341 H2353 0.929 . S
C2342 C2338 1.531 . S
C2342 H2354 0.960 . S
C2342 H2355 0.962 . S
C2342 H2356 0.960 . S
C2343 C2340 1.511 . S
C2343 H2357 0.961 . S
C2343 H2358 0.961 . S
C2343 H2359 0.961 . S
C2344 C2345 1.370 . S
C2344 C2346 1.363 . S
C2344 H2360 0.931 . S
C2345 C2344 1.370 . S
C2345 C2349 1.408 . S
C2346 C2344 1.363 . S
C2346 C2347 1.370 . S
C2346 C2350 1.524 . S
C2347 C2339 1.503 . S
C2347 C2346 1.370 . S
C2347 C2348 1.403 . S
C2348 C2347 1.403 . S
C2348 C2349 1.404 . S
C2348 C2351 1.539 . S
C2349 C2345 1.408 . S
C2349 C2348 1.404 . S
C2349 H2361 0.930 . S
C2350 C2346 1.524 . S
C2350 H2362 0.956 . S
C2350 H2363 0.961 . S
C2350 H2364 0.961 . S
C2351 C2348 1.539 . S
C2351 H2365 0.958 . S
C2351 H2366 0.961 . S
C2351 H2367 0.960 . S
H2352 C2336 0.931 . S
H2353 C2341 0.929 . S
H2354 C2342 0.960 . S
H2355 C2342 0.962 . S
H2356 C2342 0.960 . S
H2357 C2343 0.961 . S
H2358 C2343 0.961 . S
H2359 C2343 0.961 . S
H2360 C2344 0.931 . S
H2361 C2349 0.930 . S
H2362 C2350 0.956 . S
H2363 C2350 0.961 . S
H2364 C2350 0.961 . S
H2365 C2351 0.958 . S
H2366 C2351 0.961 . S
H2367 C2351 0.960 . S
C2368 C2369 1.391 . S
C2368 C2370 1.394 . S
C2368 H2384 0.931 . S
C2369 C2368 1.391 . S
C2369 C2373 1.376 . S
C2370 C2368 1.394 . S
C2370 C2371 1.369 . S
C2370 C2374 1.531 . S
C2371 C2370 1.369 . S
C2371 C2372 1.410 . S
C2371 C2379 1.503 . S
C2372 C2371 1.410 . S
C2372 C2373 1.392 . S
C2372 C2375 1.511 . S
C2373 C2369 1.376 . S
C2373 C2372 1.392 . S
C2373 H2385 0.929 . S
C2374 C2370 1.531 . S
C2374 H2386 0.960 . S
C2374 H2387 0.962 . S
C2374 H2388 0.960 . S
C2375 C2372 1.511 . S
C2375 H2389 0.961 . S
C2375 H2390 0.961 . S
C2375 H2391 0.961 . S
C2376 C2377 1.370 . S
C2376 C2378 1.363 . S
C2376 H2392 0.931 . S
C2377 C2376 1.370 . S
C2377 C2381 1.408 . S
C2378 C2376 1.363 . S
C2378 C2379 1.370 . S
C2378 C2382 1.524 . S
C2379 C2371 1.503 . S
C2379 C2378 1.370 . S
C2379 C2380 1.403 . S
C2380 C2379 1.403 . S
C2380 C2381 1.404 . S
C2380 C2383 1.539 . S
C2381 C2377 1.408 . S
C2381 C2380 1.404 . S
C2381 H2393 0.930 . S
C2382 C2378 1.524 . S
C2382 H2394 0.956 . S
C2382 H2395 0.961 . S
C2382 H2396 0.961 . S
C2383 C2380 1.539 . S
C2383 H2397 0.958 . S
C2383 H2398 0.961 . S
C2383 H2399 0.960 . S
H2384 C2368 0.931 . S
H2385 C2373 0.929 . S
H2386 C2374 0.960 . S
H2387 C2374 0.962 . S
H2388 C2374 0.960 . S
H2389 C2375 0.961 . S
H2390 C2375 0.961 . S
H2391 C2375 0.961 . S
H2392 C2376 0.931 . S
H2393 C2381 0.930 . S
H2394 C2382 0.956 . S
H2395 C2382 0.961 . S
H2396 C2382 0.961 . S
H2397 C2383 0.958 . S
H2398 C2383 0.961 . S
H2399 C2383 0.960 . S
C2400 C2401 1.391 . S
C2400 C2402 1.394 . S
C2400 H2416 0.931 . S
C2401 C2400 1.391 . S
C2401 C2405 1.376 . S
C2402 C2400 1.394 . S
C2402 C2403 1.369 . S
C2402 C2406 1.531 . S
C2403 C2402 1.369 . S
C2403 C2404 1.410 . S
C2403 C2411 1.503 . S
C2404 C2403 1.410 . S
C2404 C2405 1.392 . S
C2404 C2407 1.511 . S
C2405 C2401 1.376 . S
C2405 C2404 1.392 . S
C2405 H2417 0.929 . S
C2406 C2402 1.531 . S
C2406 H2418 0.960 . S
C2406 H2419 0.962 . S
C2406 H2420 0.960 . S
C2407 C2404 1.511 . S
C2407 H2421 0.961 . S
C2407 H2422 0.961 . S
C2407 H2423 0.961 . S
C2408 C2409 1.370 . S
C2408 C2410 1.363 . S
C2408 H2424 0.931 . S
C2409 C2408 1.370 . S
C2409 C2413 1.408 . S
C2410 C2408 1.363 . S
C2410 C2411 1.370 . S
C2410 C2414 1.524 . S
C2411 C2403 1.503 . S
C2411 C2410 1.370 . S
C2411 C2412 1.403 . S
C2412 C2411 1.403 . S
C2412 C2413 1.404 . S
C2412 C2415 1.539 . S
C2413 C2409 1.408 . S
C2413 C2412 1.404 . S
C2413 H2425 0.930 . S
C2414 C2410 1.524 . S
C2414 H2426 0.956 . S
C2414 H2427 0.961 . S
C2414 H2428 0.961 . S
C2415 C2412 1.539 . S
C2415 H2429 0.958 . S
C2415 H2430 0.961 . S
C2415 H2431 0.960 . S
H2416 C2400 0.931 . S
H2417 C2405 0.929 . S
H2418 C2406 0.960 . S
H2419 C2406 0.962 . S
H2420 C2406 0.960 . S
H2421 C2407 0.961 . S
H2422 C2407 0.961 . S
H2423 C2407 0.961 . S
H2424 C2408 0.931 . S
H2425 C2413 0.930 . S
H2426 C2414 0.956 . S
H2427 C2414 0.961 . S
H2428 C2414 0.961 . S
H2429 C2415 0.958 . S
H2430 C2415 0.961 . S
H2431 C2415 0.960 . S
C2432 C2433 1.391 . S
C2432 C2434 1.394 . S
C2432 H2448 0.931 . S
C2433 C2432 1.391 . S
C2433 C2437 1.376 . S
C2434 C2432 1.394 . S
C2434 C2435 1.369 . S
C2434 C2438 1.531 . S
C2435 C2434 1.369 . S
C2435 C2436 1.410 . S
C2435 C2443 1.503 . S
C2436 C2435 1.410 . S
C2436 C2437 1.392 . S
C2436 C2439 1.511 . S
C2437 C2433 1.376 . S
C2437 C2436 1.392 . S
C2437 H2449 0.929 . S
C2438 C2434 1.531 . S
C2438 H2450 0.960 . S
C2438 H2451 0.962 . S
C2438 H2452 0.960 . S
C2439 C2436 1.511 . S
C2439 H2453 0.961 . S
C2439 H2454 0.961 . S
C2439 H2455 0.961 . S
C2440 C2441 1.370 . S
C2440 C2442 1.363 . S
C2440 H2456 0.931 . S
C2441 C2440 1.370 . S
C2441 C2445 1.408 . S
C2442 C2440 1.363 . S
C2442 C2443 1.370 . S
C2442 C2446 1.524 . S
C2443 C2435 1.503 . S
C2443 C2442 1.370 . S
C2443 C2444 1.403 . S
C2444 C2443 1.403 . S
C2444 C2445 1.404 . S
C2444 C2447 1.539 . S
C2445 C2441 1.408 . S
C2445 C2444 1.404 . S
C2445 H2457 0.930 . S
C2446 C2442 1.524 . S
C2446 H2458 0.956 . S
C2446 H2459 0.961 . S
C2446 H2460 0.961 . S
C2447 C2444 1.539 . S
C2447 H2461 0.958 . S
C2447 H2462 0.961 . S
C2447 H2463 0.960 . S
H2448 C2432 0.931 . S
H2449 C2437 0.929 . S
H2450 C2438 0.960 . S
H2451 C2438 0.962 . S
H2452 C2438 0.960 . S
H2453 C2439 0.961 . S
H2454 C2439 0.961 . S
H2455 C2439 0.961 . S
H2456 C2440 0.931 . S
H2457 C2445 0.930 . S
H2458 C2446 0.956 . S
H2459 C2446 0.961 . S
H2460 C2446 0.961 . S
H2461 C2447 0.958 . S
H2462 C2447 0.961 . S
H2463 C2447 0.960 . S
C2464 C2465 1.391 . S
C2464 C2466 1.394 . S
C2464 H2480 0.931 . S
C2465 C2464 1.391 . S
C2465 C2469 1.376 . S
C2466 C2464 1.394 . S
C2466 C2467 1.369 . S
C2466 C2470 1.531 . S
C2467 C2466 1.369 . S
C2467 C2468 1.410 . S
C2467 C2475 1.503 . S
C2468 C2467 1.410 . S
C2468 C2469 1.392 . S
C2468 C2471 1.511 . S
C2469 C2465 1.376 . S
C2469 C2468 1.392 . S
C2469 H2481 0.929 . S
C2470 C2466 1.531 . S
C2470 H2482 0.960 . S
C2470 H2483 0.962 . S
C2470 H2484 0.960 . S
C2471 C2468 1.511 . S
C2471 H2485 0.961 . S
C2471 H2486 0.961 . S
C2471 H2487 0.961 . S
C2472 C2473 1.370 . S
C2472 C2474 1.363 . S
C2472 H2488 0.931 . S
C2473 C2472 1.370 . S
C2473 C2477 1.408 . S
C2474 C2472 1.363 . S
C2474 C2475 1.370 . S
C2474 C2478 1.524 . S
C2475 C2467 1.503 . S
C2475 C2474 1.370 . S
C2475 C2476 1.403 . S
C2476 C2475 1.403 . S
C2476 C2477 1.404 . S
C2476 C2479 1.539 . S
C2477 C2473 1.408 . S
C2477 C2476 1.404 . S
C2477 H2489 0.930 . S
C2478 C2474 1.524 . S
C2478 H2490 0.956 . S
C2478 H2491 0.961 . S
C2478 H2492 0.961 . S
C2479 C2476 1.539 . S
C2479 H2493 0.958 . S
C2479 H2494 0.961 . S
C2479 H2495 0.960 . S
H2480 C2464 0.931 . S
H2481 C2469 0.929 . S
H2482 C2470 0.960 . S
H2483 C2470 0.962 . S
H2484 C2470 0.960 . S
H2485 C2471 0.961 . S
H2486 C2471 0.961 . S
H2487 C2471 0.961 . S
H2488 C2472 0.931 . S
H2489 C2477 0.930 . S
H2490 C2478 0.956 . S
H2491 C2478 0.961 . S
H2492 C2478 0.961 . S
H2493 C2479 0.958 . S
H2494 C2479 0.961 . S
H2495 C2479 0.960 . S
C2496 C2497 1.391 . S
C2496 C2498 1.394 . S
C2496 H2512 0.931 . S
C2497 C2496 1.391 . S
C2497 C2501 1.376 . S
C2498 C2496 1.394 . S
C2498 C2499 1.369 . S
C2498 C2502 1.531 . S
C2499 C2498 1.369 . S
C2499 C2500 1.410 . S
C2499 C2507 1.503 . S
C2500 C2499 1.410 . S
C2500 C2501 1.392 . S
C2500 C2503 1.511 . S
C2501 C2497 1.376 . S
C2501 C2500 1.392 . S
C2501 H2513 0.929 . S
C2502 C2498 1.531 . S
C2502 H2514 0.960 . S
C2502 H2515 0.962 . S
C2502 H2516 0.960 . S
C2503 C2500 1.511 . S
C2503 H2517 0.961 . S
C2503 H2518 0.961 . S
C2503 H2519 0.961 . S
C2504 C2505 1.370 . S
C2504 C2506 1.363 . S
C2504 H2520 0.931 . S
C2505 C2504 1.370 . S
C2505 C2509 1.408 . S
C2506 C2504 1.363 . S
C2506 C2507 1.370 . S
C2506 C2510 1.524 . S
C2507 C2499 1.503 . S
C2507 C2506 1.370 . S
C2507 C2508 1.403 . S
C2508 C2507 1.403 . S
C2508 C2509 1.404 . S
C2508 C2511 1.539 . S
C2509 C2505 1.408 . S
C2509 C2508 1.404 . S
C2509 H2521 0.930 . S
C2510 C2506 1.524 . S
C2510 H2522 0.956 . S
C2510 H2523 0.961 . S
C2510 H2524 0.961 . S
C2511 C2508 1.539 . S
C2511 H2525 0.958 . S
C2511 H2526 0.961 . S
C2511 H2527 0.960 . S
H2512 C2496 0.931 . S
H2513 C2501 0.929 . S
H2514 C2502 0.960 . S
H2515 C2502 0.962 . S
H2516 C2502 0.960 . S
H2517 C2503 0.961 . S
H2518 C2503 0.961 . S
H2519 C2503 0.961 . S
H2520 C2504 0.931 . S
H2521 C2509 0.930 . S
H2522 C2510 0.956 . S
H2523 C2510 0.961 . S
H2524 C2510 0.961 . S
H2525 C2511 0.958 . S
H2526 C2511 0.961 . S
H2527 C2511 0.960 . S
C2528 C2529 1.391 . S
C2528 C2530 1.394 . S
C2528 H2544 0.931 . S
C2529 C2528 1.391 . S
C2529 C2533 1.376 . S
C2530 C2528 1.394 . S
C2530 C2531 1.369 . S
C2530 C2534 1.531 . S
C2531 C2530 1.369 . S
C2531 C2532 1.410 . S
C2531 C2539 1.503 . S
C2532 C2531 1.410 . S
C2532 C2533 1.392 . S
C2532 C2535 1.511 . S
C2533 C2529 1.376 . S
C2533 C2532 1.392 . S
C2533 H2545 0.929 . S
C2534 C2530 1.531 . S
C2534 H2546 0.960 . S
C2534 H2547 0.962 . S
C2534 H2548 0.960 . S
C2535 C2532 1.511 . S
C2535 H2549 0.961 . S
C2535 H2550 0.961 . S
C2535 H2551 0.961 . S
C2536 C2537 1.370 . S
C2536 C2538 1.363 . S
C2536 H2552 0.931 . S
C2537 C2536 1.370 . S
C2537 C2541 1.408 . S
C2538 C2536 1.363 . S
C2538 C2539 1.370 . S
C2538 C2542 1.524 . S
C2539 C2531 1.503 . S
C2539 C2538 1.370 . S
C2539 C2540 1.403 . S
C2540 C2539 1.403 . S
C2540 C2541 1.404 . S
C2540 C2543 1.539 . S
C2541 C2537 1.408 . S
C2541 C2540 1.404 . S
C2541 H2553 0.930 . S
C2542 C2538 1.524 . S
C2542 H2554 0.956 . S
C2542 H2555 0.961 . S
C2542 H2556 0.961 . S
C2543 C2540 1.539 . S
C2543 H2557 0.958 . S
C2543 H2558 0.961 . S
C2543 H2559 0.960 . S
H2544 C2528 0.931 . S
H2545 C2533 0.929 . S
H2546 C2534 0.960 . S
H2547 C2534 0.962 . S
H2548 C2534 0.960 . S
H2549 C2535 0.961 . S
H2550 C2535 0.961 . S
H2551 C2535 0.961 . S
H2552 C2536 0.931 . S
H2553 C2541 0.930 . S
H2554 C2542 0.956 . S
H2555 C2542 0.961 . S
H2556 C2542 0.961 . S
H2557 C2543 0.958 . S
H2558 C2543 0.961 . S
H2559 C2543 0.960 . S
C2560 C2561 1.391 . S
C2560 C2562 1.394 . S
C2560 H2576 0.931 . S
C2561 C2560 1.391 . S
C2561 C2565 1.376 . S
C2562 C2560 1.394 . S
C2562 C2563 1.369 . S
C2562 C2566 1.531 . S
C2563 C2562 1.369 . S
C2563 C2564 1.410 . S
C2563 C2571 1.503 . S
C2564 C2563 1.410 . S
C2564 C2565 1.392 . S
C2564 C2567 1.511 . S
C2565 C2561 1.376 . S
C2565 C2564 1.392 . S
C2565 H2577 0.929 . S
C2566 C2562 1.531 . S
C2566 H2578 0.960 . S
C2566 H2579 0.962 . S
C2566 H2580 0.960 . S
C2567 C2564 1.511 . S
C2567 H2581 0.961 . S
C2567 H2582 0.961 . S
C2567 H2583 0.961 . S
C2568 C2569 1.370 . S
C2568 C2570 1.363 . S
C2568 H2584 0.931 . S
C2569 C2568 1.370 . S
C2569 C2573 1.408 . S
C2570 C2568 1.363 . S
C2570 C2571 1.370 . S
C2570 C2574 1.524 . S
C2571 C2563 1.503 . S
C2571 C2570 1.370 . S
C2571 C2572 1.403 . S
C2572 C2571 1.403 . S
C2572 C2573 1.404 . S
C2572 C2575 1.539 . S
C2573 C2569 1.408 . S
C2573 C2572 1.404 . S
C2573 H2585 0.930 . S
C2574 C2570 1.524 . S
C2574 H2586 0.956 . S
C2574 H2587 0.961 . S
C2574 H2588 0.961 . S
C2575 C2572 1.539 . S
C2575 H2589 0.958 . S
C2575 H2590 0.961 . S
C2575 H2591 0.960 . S
H2576 C2560 0.931 . S
H2577 C2565 0.929 . S
H2578 C2566 0.960 . S
H2579 C2566 0.962 . S
H2580 C2566 0.960 . S
H2581 C2567 0.961 . S
H2582 C2567 0.961 . S
H2583 C2567 0.961 . S
H2584 C2568 0.931 . S
H2585 C2573 0.930 . S
H2586 C2574 0.956 . S
H2587 C2574 0.961 . S
H2588 C2574 0.961 . S
H2589 C2575 0.958 . S
H2590 C2575 0.961 . S
H2591 C2575 0.960 . S
C2592 C2593 1.391 . S
C2592 C2594 1.394 . S
C2592 H2608 0.931 . S
C2593 C2592 1.391 . S
C2593 C2597 1.376 . S
C2594 C2592 1.394 . S
C2594 C2595 1.369 . S
C2594 C2598 1.531 . S
C2595 C2594 1.369 . S
C2595 C2596 1.410 . S
C2595 C2603 1.503 . S
C2596 C2595 1.410 . S
C2596 C2597 1.392 . S
C2596 C2599 1.511 . S
C2597 C2593 1.376 . S
C2597 C2596 1.392 . S
C2597 H2609 0.929 . S
C2598 C2594 1.531 . S
C2598 H2610 0.960 . S
C2598 H2611 0.962 . S
C2598 H2612 0.960 . S
C2599 C2596 1.511 . S
C2599 H2613 0.961 . S
C2599 H2614 0.961 . S
C2599 H2615 0.961 . S
C2600 C2601 1.370 . S
C2600 C2602 1.363 . S
C2600 H2616 0.931 . S
C2601 C2600 1.370 . S
C2601 C2605 1.408 . S
C2602 C2600 1.363 . S
C2602 C2603 1.370 . S
C2602 C2606 1.524 . S
C2603 C2595 1.503 . S
C2603 C2602 1.370 . S
C2603 C2604 1.403 . S
C2604 C2603 1.403 . S
C2604 C2605 1.404 . S
C2604 C2607 1.539 . S
C2605 C2601 1.408 . S
C2605 C2604 1.404 . S
C2605 H2617 0.930 . S
C2606 C2602 1.524 . S
C2606 H2618 0.956 . S
C2606 H2619 0.961 . S
C2606 H2620 0.961 . S
C2607 C2604 1.539 . S
C2607 H2621 0.958 . S
C2607 H2622 0.961 . S
C2607 H2623 0.960 . S
H2608 C2592 0.931 . S
H2609 C2597 0.929 . S
H2610 C2598 0.960 . S
H2611 C2598 0.962 . S
H2612 C2598 0.960 . S
H2613 C2599 0.961 . S
H2614 C2599 0.961 . S
H2615 C2599 0.961 . S
H2616 C2600 0.931 . S
H2617 C2605 0.930 . S
H2618 C2606 0.956 . S
H2619 C2606 0.961 . S
H2620 C2606 0.961 . S
H2621 C2607 0.958 . S
H2622 C2607 0.961 . S
H2623 C2607 0.960 . S
C2624 C2625 1.391 . S
C2624 C2626 1.394 . S
C2624 H2640 0.931 . S
C2625 C2624 1.391 . S
C2625 C2629 1.376 . S
C2626 C2624 1.394 . S
C2626 C2627 1.369 . S
C2626 C2630 1.531 . S
C2627 C2626 1.369 . S
C2627 C2628 1.410 . S
C2627 C2635 1.503 . S
C2628 C2627 1.410 . S
C2628 C2629 1.392 . S
C2628 C2631 1.511 . S
C2629 C2625 1.376 . S
C2629 C2628 1.392 . S
C2629 H2641 0.929 . S
C2630 C2626 1.531 . S
C2630 H2642 0.960 . S
C2630 H2643 0.962 . S
C2630 H2644 0.960 . S
C2631 C2628 1.511 . S
C2631 H2645 0.961 . S
C2631 H2646 0.961 . S
C2631 H2647 0.961 . S
C2632 C2633 1.370 . S
C2632 C2634 1.363 . S
C2632 H2648 0.931 . S
C2633 C2632 1.370 . S
C2633 C2637 1.408 . S
C2634 C2632 1.363 . S
C2634 C2635 1.370 . S
C2634 C2638 1.524 . S
C2635 C2627 1.503 . S
C2635 C2634 1.370 . S
C2635 C2636 1.403 . S
C2636 C2635 1.403 . S
C2636 C2637 1.404 . S
C2636 C2639 1.539 . S
C2637 C2633 1.408 . S
C2637 C2636 1.404 . S
C2637 H2649 0.930 . S
C2638 C2634 1.524 . S
C2638 H2650 0.956 . S
C2638 H2651 0.961 . S
C2638 H2652 0.961 . S
C2639 C2636 1.539 . S
C2639 H2653 0.958 . S
C2639 H2654 0.961 . S
C2639 H2655 0.960 . S
H2640 C2624 0.931 . S
H2641 C2629 0.929 . S
H2642 C2630 0.960 . S
H2643 C2630 0.962 . S
H2644 C2630 0.960 . S
H2645 C2631 0.961 . S
H2646 C2631 0.961 . S
H2647 C2631 0.961 . S
H2648 C2632 0.931 . S
H2649 C2637 0.930 . S
H2650 C2638 0.956 . S
H2651 C2638 0.961 . S
H2652 C2638 0.961 . S
H2653 C2639 0.958 . S
H2654 C2639 0.961 . S
H2655 C2639 0.960 . S
C2656 C2657 1.391 . S
C2656 C2658 1.394 . S
C2656 H2672 0.931 . S
C2657 C2656 1.391 . S
C2657 C2661 1.376 . S
C2658 C2656 1.394 . S
C2658 C2659 1.369 . S
C2658 C2662 1.531 . S
C2659 C2658 1.369 . S
C2659 C2660 1.410 . S
C2659 C2667 1.503 . S
C2660 C2659 1.410 . S
C2660 C2661 1.392 . S
C2660 C2663 1.511 . S
C2661 C2657 1.376 . S
C2661 C2660 1.392 . S
C2661 H2673 0.929 . S
C2662 C2658 1.531 . S
C2662 H2674 0.960 . S
C2662 H2675 0.962 . S
C2662 H2676 0.960 . S
C2663 C2660 1.511 . S
C2663 H2677 0.961 . S
C2663 H2678 0.961 . S
C2663 H2679 0.961 . S
C2664 C2665 1.370 . S
C2664 C2666 1.363 . S
C2664 H2680 0.931 . S
C2665 C2664 1.370 . S
C2665 C2669 1.408 . S
C2666 C2664 1.363 . S
C2666 C2667 1.370 . S
C2666 C2670 1.524 . S
C2667 C2659 1.503 . S
C2667 C2666 1.370 . S
C2667 C2668 1.403 . S
C2668 C2667 1.403 . S
C2668 C2669 1.404 . S
C2668 C2671 1.539 . S
C2669 C2665 1.408 . S
C2669 C2668 1.404 . S
C2669 H2681 0.930 . S
C2670 C2666 1.524 . S
C2670 H2682 0.956 . S
C2670 H2683 0.961 . S
C2670 H2684 0.961 . S
C2671 C2668 1.539 . S
C2671 H2685 0.958 . S
C2671 H2686 0.961 . S
C2671 H2687 0.960 . S
H2672 C2656 0.931 . S
H2673 C2661 0.929 . S
H2674 C2662 0.960 . S
H2675 C2662 0.962 . S
H2676 C2662 0.960 . S
H2677 C2663 0.961 . S
H2678 C2663 0.961 . S
H2679 C2663 0.961 . S
H2680 C2664 0.931 . S
H2681 C2669 0.930 . S
H2682 C2670 0.956 . S
H2683 C2670 0.961 . S
H2684 C2670 0.961 . S
H2685 C2671 0.958 . S
H2686 C2671 0.961 . S
H2687 C2671 0.960 . S
C2688 C2689 1.391 . S
C2688 C2690 1.394 . S
C2688 H2704 0.931 . S
C2689 C2688 1.391 . S
C2689 C2693 1.376 . S
C2690 C2688 1.394 . S
C2690 C2691 1.369 . S
C2690 C2694 1.531 . S
C2691 C2690 1.369 . S
C2691 C2692 1.410 . S
C2691 C2699 1.503 . S
C2692 C2691 1.410 . S
C2692 C2693 1.392 . S
C2692 C2695 1.511 . S
C2693 C2689 1.376 . S
C2693 C2692 1.392 . S
C2693 H2705 0.929 . S
C2694 C2690 1.531 . S
C2694 H2706 0.960 . S
C2694 H2707 0.962 . S
C2694 H2708 0.960 . S
C2695 C2692 1.511 . S
C2695 H2709 0.961 . S
C2695 H2710 0.961 . S
C2695 H2711 0.961 . S
C2696 C2697 1.370 . S
C2696 C2698 1.363 . S
C2696 H2712 0.931 . S
C2697 C2696 1.370 . S
C2697 C2701 1.408 . S
C2698 C2696 1.363 . S
C2698 C2699 1.370 . S
C2698 C2702 1.524 . S
C2699 C2691 1.503 . S
C2699 C2698 1.370 . S
C2699 C2700 1.403 . S
C2700 C2699 1.403 . S
C2700 C2701 1.404 . S
C2700 C2703 1.539 . S
C2701 C2697 1.408 . S
C2701 C2700 1.404 . S
C2701 H2713 0.930 . S
C2702 C2698 1.524 . S
C2702 H2714 0.956 . S
C2702 H2715 0.961 . S
C2702 H2716 0.961 . S
C2703 C2700 1.539 . S
C2703 H2717 0.958 . S
C2703 H2718 0.961 . S
C2703 H2719 0.960 . S
H2704 C2688 0.931 . S
H2705 C2693 0.929 . S
H2706 C2694 0.960 . S
H2707 C2694 0.962 . S
H2708 C2694 0.960 . S
H2709 C2695 0.961 . S
H2710 C2695 0.961 . S
H2711 C2695 0.961 . S
H2712 C2696 0.931 . S
H2713 C2701 0.930 . S
H2714 C2702 0.956 . S
H2715 C2702 0.961 . S
H2716 C2702 0.961 . S
H2717 C2703 0.958 . S
H2718 C2703 0.961 . S
H2719 C2703 0.960 . S
C2720 C2721 1.391 . S
C2720 C2722 1.394 . S
C2720 H2736 0.931 . S
C2721 C2720 1.391 . S
C2721 C2725 1.376 . S
C2722 C2720 1.394 . S
C2722 C2723 1.369 . S
C2722 C2726 1.531 . S
C2723 C2722 1.369 . S
C2723 C2724 1.410 . S
C2723 C2731 1.503 . S
C2724 C2723 1.410 . S
C2724 C2725 1.392 . S
C2724 C2727 1.511 . S
C2725 C2721 1.376 . S
C2725 C2724 1.392 . S
C2725 H2737 0.929 . S
C2726 C2722 1.531 . S
C2726 H2738 0.960 . S
C2726 H2739 0.962 . S
C2726 H2740 0.960 . S
C2727 C2724 1.511 . S
C2727 H2741 0.961 . S
C2727 H2742 0.961 . S
C2727 H2743 0.961 . S
C2728 C2729 1.370 . S
C2728 C2730 1.363 . S
C2728 H2744 0.931 . S
C2729 C2728 1.370 . S
C2729 C2733 1.408 . S
C2730 C2728 1.363 . S
C2730 C2731 1.370 . S
C2730 C2734 1.524 . S
C2731 C2723 1.503 . S
C2731 C2730 1.370 . S
C2731 C2732 1.403 . S
C2732 C2731 1.403 . S
C2732 C2733 1.404 . S
C2732 C2735 1.539 . S
C2733 C2729 1.408 . S
C2733 C2732 1.404 . S
C2733 H2745 0.930 . S
C2734 C2730 1.524 . S
C2734 H2746 0.956 . S
C2734 H2747 0.961 . S
C2734 H2748 0.961 . S
C2735 C2732 1.539 . S
C2735 H2749 0.958 . S
C2735 H2750 0.961 . S
C2735 H2751 0.960 . S
H2736 C2720 0.931 . S
H2737 C2725 0.929 . S
H2738 C2726 0.960 . S
H2739 C2726 0.962 . S
H2740 C2726 0.960 . S
H2741 C2727 0.961 . S
H2742 C2727 0.961 . S
H2743 C2727 0.961 . S
H2744 C2728 0.931 . S
H2745 C2733 0.930 . S
H2746 C2734 0.956 . S
H2747 C2734 0.961 . S
H2748 C2734 0.961 . S
H2749 C2735 0.958 . S
H2750 C2735 0.961 . S
H2751 C2735 0.960 . S
C2752 C2753 1.391 . S
C2752 C2754 1.394 . S
C2752 H2768 0.931 . S
C2753 C2752 1.391 . S
C2753 C2757 1.376 . S
C2754 C2752 1.394 . S
C2754 C2755 1.369 . S
C2754 C2758 1.531 . S
C2755 C2754 1.369 . S
C2755 C2756 1.410 . S
C2755 C2763 1.503 . S
C2756 C2755 1.410 . S
C2756 C2757 1.392 . S
C2756 C2759 1.511 . S
C2757 C2753 1.376 . S
C2757 C2756 1.392 . S
C2757 H2769 0.929 . S
C2758 C2754 1.531 . S
C2758 H2770 0.960 . S
C2758 H2771 0.962 . S
C2758 H2772 0.960 . S
C2759 C2756 1.511 . S
C2759 H2773 0.961 . S
C2759 H2774 0.961 . S
C2759 H2775 0.961 . S
C2760 C2761 1.370 . S
C2760 C2762 1.363 . S
C2760 H2776 0.931 . S
C2761 C2760 1.370 . S
C2761 C2765 1.408 . S
C2762 C2760 1.363 . S
C2762 C2763 1.370 . S
C2762 C2766 1.524 . S
C2763 C2755 1.503 . S
C2763 C2762 1.370 . S
C2763 C2764 1.403 . S
C2764 C2763 1.403 . S
C2764 C2765 1.404 . S
C2764 C2767 1.539 . S
C2765 C2761 1.408 . S
C2765 C2764 1.404 . S
C2765 H2777 0.930 . S
C2766 C2762 1.524 . S
C2766 H2778 0.956 . S
C2766 H2779 0.961 . S
C2766 H2780 0.961 . S
C2767 C2764 1.539 . S
C2767 H2781 0.958 . S
C2767 H2782 0.961 . S
C2767 H2783 0.960 . S
H2768 C2752 0.931 . S
H2769 C2757 0.929 . S
H2770 C2758 0.960 . S
H2771 C2758 0.962 . S
H2772 C2758 0.960 . S
H2773 C2759 0.961 . S
H2774 C2759 0.961 . S
H2775 C2759 0.961 . S
H2776 C2760 0.931 . S
H2777 C2765 0.930 . S
H2778 C2766 0.956 . S
H2779 C2766 0.961 . S
H2780 C2766 0.961 . S
H2781 C2767 0.958 . S
H2782 C2767 0.961 . S
H2783 C2767 0.960 . S
C2784 C2785 1.391 . S
C2784 C2786 1.394 . S
C2784 H2800 0.931 . S
C2785 C2784 1.391 . S
C2785 C2789 1.376 . S
C2786 C2784 1.394 . S
C2786 C2787 1.369 . S
C2786 C2790 1.531 . S
C2787 C2786 1.369 . S
C2787 C2788 1.410 . S
C2787 C2795 1.503 . S
C2788 C2787 1.410 . S
C2788 C2789 1.392 . S
C2788 C2791 1.511 . S
C2789 C2785 1.376 . S
C2789 C2788 1.392 . S
C2789 H2801 0.929 . S
C2790 C2786 1.531 . S
C2790 H2802 0.960 . S
C2790 H2803 0.962 . S
C2790 H2804 0.960 . S
C2791 C2788 1.511 . S
C2791 H2805 0.961 . S
C2791 H2806 0.961 . S
C2791 H2807 0.961 . S
C2792 C2793 1.370 . S
C2792 C2794 1.363 . S
C2792 H2808 0.931 . S
C2793 C2792 1.370 . S
C2793 C2797 1.408 . S
C2794 C2792 1.363 . S
C2794 C2795 1.370 . S
C2794 C2798 1.524 . S
C2795 C2787 1.503 . S
C2795 C2794 1.370 . S
C2795 C2796 1.403 . S
C2796 C2795 1.403 . S
C2796 C2797 1.404 . S
C2796 C2799 1.539 . S
C2797 C2793 1.408 . S
C2797 C2796 1.404 . S
C2797 H2809 0.930 . S
C2798 C2794 1.524 . S
C2798 H2810 0.956 . S
C2798 H2811 0.961 . S
C2798 H2812 0.961 . S
C2799 C2796 1.539 . S
C2799 H2813 0.958 . S
C2799 H2814 0.961 . S
C2799 H2815 0.960 . S
H2800 C2784 0.931 . S
H2801 C2789 0.929 . S
H2802 C2790 0.960 . S
H2803 C2790 0.962 . S
H2804 C2790 0.960 . S
H2805 C2791 0.961 . S
H2806 C2791 0.961 . S
H2807 C2791 0.961 . S
H2808 C2792 0.931 . S
H2809 C2797 0.930 . S
H2810 C2798 0.956 . S
H2811 C2798 0.961 . S
H2812 C2798 0.961 . S
H2813 C2799 0.958 . S
H2814 C2799 0.961 . S
H2815 C2799 0.960 . S
C2816 C2817 1.391 . S
C2816 C2818 1.394 . S
C2816 H2832 0.931 . S
C2817 C2816 1.391 . S
C2817 C2821 1.376 . S
C2818 C2816 1.394 . S
C2818 C2819 1.369 . S
C2818 C2822 1.531 . S
C2819 C2818 1.369 . S
C2819 C2820 1.410 . S
C2819 C2827 1.503 . S
C2820 C2819 1.410 . S
C2820 C2821 1.392 . S
C2820 C2823 1.511 . S
C2821 C2817 1.376 . S
C2821 C2820 1.392 . S
C2821 H2833 0.929 . S
C2822 C2818 1.531 . S
C2822 H2834 0.960 . S
C2822 H2835 0.962 . S
C2822 H2836 0.960 . S
C2823 C2820 1.511 . S
C2823 H2837 0.961 . S
C2823 H2838 0.961 . S
C2823 H2839 0.961 . S
C2824 C2825 1.370 . S
C2824 C2826 1.363 . S
C2824 H2840 0.931 . S
C2825 C2824 1.370 . S
C2825 C2829 1.408 . S
C2826 C2824 1.363 . S
C2826 C2827 1.370 . S
C2826 C2830 1.524 . S
C2827 C2819 1.503 . S
C2827 C2826 1.370 . S
C2827 C2828 1.403 . S
C2828 C2827 1.403 . S
C2828 C2829 1.404 . S
C2828 C2831 1.539 . S
C2829 C2825 1.408 . S
C2829 C2828 1.404 . S
C2829 H2841 0.930 . S
C2830 C2826 1.524 . S
C2830 H2842 0.956 . S
C2830 H2843 0.961 . S
C2830 H2844 0.961 . S
C2831 C2828 1.539 . S
C2831 H2845 0.958 . S
C2831 H2846 0.961 . S
C2831 H2847 0.960 . S
H2832 C2816 0.931 . S
H2833 C2821 0.929 . S
H2834 C2822 0.960 . S
H2835 C2822 0.962 . S
H2836 C2822 0.960 . S
H2837 C2823 0.961 . S
H2838 C2823 0.961 . S
H2839 C2823 0.961 . S
H2840 C2824 0.931 . S
H2841 C2829 0.930 . S
H2842 C2830 0.956 . S
H2843 C2830 0.961 . S
H2844 C2830 0.961 . S
H2845 C2831 0.958 . S
H2846 C2831 0.961 . S
H2847 C2831 0.960 . S
C2848 C2849 1.391 . S
C2848 C2850 1.394 . S
C2848 H2864 0.931 . S
C2849 C2848 1.391 . S
C2849 C2853 1.376 . S
C2850 C2848 1.394 . S
C2850 C2851 1.369 . S
C2850 C2854 1.531 . S
C2851 C2850 1.369 . S
C2851 C2852 1.410 . S
C2851 C2859 1.503 . S
C2852 C2851 1.410 . S
C2852 C2853 1.392 . S
C2852 C2855 1.511 . S
C2853 C2849 1.376 . S
C2853 C2852 1.392 . S
C2853 H2865 0.929 . S
C2854 C2850 1.531 . S
C2854 H2866 0.960 . S
C2854 H2867 0.962 . S
C2854 H2868 0.960 . S
C2855 C2852 1.511 . S
C2855 H2869 0.961 . S
C2855 H2870 0.961 . S
C2855 H2871 0.961 . S
C2856 C2857 1.370 . S
C2856 C2858 1.363 . S
C2856 H2872 0.931 . S
C2857 C2856 1.370 . S
C2857 C2861 1.408 . S
C2858 C2856 1.363 . S
C2858 C2859 1.370 . S
C2858 C2862 1.524 . S
C2859 C2851 1.503 . S
C2859 C2858 1.370 . S
C2859 C2860 1.403 . S
C2860 C2859 1.403 . S
C2860 C2861 1.404 . S
C2860 C2863 1.539 . S
C2861 C2857 1.408 . S
C2861 C2860 1.404 . S
C2861 H2873 0.930 . S
C2862 C2858 1.524 . S
C2862 H2874 0.956 . S
C2862 H2875 0.961 . S
C2862 H2876 0.961 . S
C2863 C2860 1.539 . S
C2863 H2877 0.958 . S
C2863 H2878 0.961 . S
C2863 H2879 0.960 . S
H2864 C2848 0.931 . S
H2865 C2853 0.929 . S
H2866 C2854 0.960 . S
H2867 C2854 0.962 . S
H2868 C2854 0.960 . S
H2869 C2855 0.961 . S
H2870 C2855 0.961 . S
H2871 C2855 0.961 . S
H2872 C2856 0.931 . S
H2873 C2861 0.930 . S
H2874 C2862 0.956 . S
H2875 C2862 0.961 . S
H2876 C2862 0.961 . S
H2877 C2863 0.958 . S
H2878 C2863 0.961 . S
H2879 C2863 0.960 . S
C2880 C2881 1.391 . S
C2880 C2882 1.394 . S
C2880 H2896 0.931 . S
C2881 C2880 1.391 . S
C2881 C2885 1.376 . S
C2882 C2880 1.394 . S
C2882 C2883 1.369 . S
C2882 C2886 1.531 . S
C2883 C2882 1.369 . S
C2883 C2884 1.410 . S
C2883 C2891 1.503 . S
C2884 C2883 1.410 . S
C2884 C2885 1.392 . S
C2884 C2887 1.511 . S
C2885 C2881 1.376 . S
C2885 C2884 1.392 . S
C2885 H2897 0.929 . S
C2886 C2882 1.531 . S
C2886 H2898 0.960 . S
C2886 H2899 0.962 . S
C2886 H2900 0.960 . S
C2887 C2884 1.511 . S
C2887 H2901 0.961 . S
C2887 H2902 0.961 . S
C2887 H2903 0.961 . S
C2888 C2889 1.370 . S
C2888 C2890 1.363 . S
C2888 H2904 0.931 . S
C2889 C2888 1.370 . S
C2889 C2893 1.408 . S
C2890 C2888 1.363 . S
C2890 C2891 1.370 . S
C2890 C2894 1.524 . S
C2891 C2883 1.503 . S
C2891 C2890 1.370 . S
C2891 C2892 1.403 . S
C2892 C2891 1.403 . S
C2892 C2893 1.404 . S
C2892 C2895 1.539 . S
C2893 C2889 1.408 . S
C2893 C2892 1.404 . S
C2893 H2905 0.930 . S
C2894 C2890 1.524 . S
C2894 H2906 0.956 . S
C2894 H2907 0.961 . S
C2894 H2908 0.961 . S
C2895 C2892 1.539 . S
C2895 H2909 0.958 . S
C2895 H2910 0.961 . S
C2895 H2911 0.960 . S
H2896 C2880 0.931 . S
H2897 C2885 0.929 . S
H2898 C2886 0.960 . S
H2899 C2886 0.962 . S
H2900 C2886 0.960 . S
H2901 C2887 0.961 . S
H2902 C2887 0.961 . S
H2903 C2887 0.961 . S
H2904 C2888 0.931 . S
H2905 C2893 0.930 . S
H2906 C2894 0.956 . S
H2907 C2894 0.961 . S
H2908 C2894 0.961 . S
H2909 C2895 0.958 . S
H2910 C2895 0.961 . S
H2911 C2895 0.960 . S
C2912 C2913 1.391 . S
C2912 C2914 1.394 . S
C2912 H2928 0.931 . S
C2913 C2912 1.391 . S
C2913 C2917 1.376 . S
C2914 C2912 1.394 . S
C2914 C2915 1.369 . S
C2914 C2918 1.531 . S
C2915 C2914 1.369 . S
C2915 C2916 1.410 . S
C2915 C2923 1.503 . S
C2916 C2915 1.410 . S
C2916 C2917 1.392 . S
C2916 C2919 1.511 . S
C2917 C2913 1.376 . S
C2917 C2916 1.392 . S
C2917 H2929 0.929 . S
C2918 C2914 1.531 . S
C2918 H2930 0.960 . S
C2918 H2931 0.962 . S
C2918 H2932 0.960 . S
C2919 C2916 1.511 . S
C2919 H2933 0.961 . S
C2919 H2934 0.961 . S
C2919 H2935 0.961 . S
C2920 C2921 1.370 . S
C2920 C2922 1.363 . S
C2920 H2936 0.931 . S
C2921 C2920 1.370 . S
C2921 C2925 1.408 . S
C2922 C2920 1.363 . S
C2922 C2923 1.370 . S
C2922 C2926 1.524 . S
C2923 C2915 1.503 . S
C2923 C2922 1.370 . S
C2923 C2924 1.403 . S
C2924 C2923 1.403 . S
C2924 C2925 1.404 . S
C2924 C2927 1.539 . S
C2925 C2921 1.408 . S
C2925 C2924 1.404 . S
C2925 H2937 0.930 . S
C2926 C2922 1.524 . S
C2926 H2938 0.956 . S
C2926 H2939 0.961 . S
C2926 H2940 0.961 . S
C2927 C2924 1.539 . S
C2927 H2941 0.958 . S
C2927 H2942 0.961 . S
C2927 H2943 0.960 . S
H2928 C2912 0.931 . S
H2929 C2917 0.929 . S
H2930 C2918 0.960 . S
H2931 C2918 0.962 . S
H2932 C2918 0.960 . S
H2933 C2919 0.961 . S
H2934 C2919 0.961 . S
H2935 C2919 0.961 . S
H2936 C2920 0.931 . S
H2937 C2925 0.930 . S
H2938 C2926 0.956 . S
H2939 C2926 0.961 . S
H2940 C2926 0.961 . S
H2941 C2927 0.958 . S
H2942 C2927 0.961 . S
H2943 C2927 0.960 . S
C2944 C2945 1.391 . S
C2944 C2946 1.394 . S
C2944 H2960 0.931 . S
C2945 C2944 1.391 . S
C2945 C2949 1.376 . S
C2946 C2944 1.394 . S
C2946 C2947 1.369 . S
C2946 C2950 1.531 . S
C2947 C2946 1.369 . S
C2947 C2948 1.410 . S
C2947 C2955 1.503 . S
C2948 C2947 1.410 . S
C2948 C2949 1.392 . S
C2948 C2951 1.511 . S
C2949 C2945 1.376 . S
C2949 C2948 1.392 . S
C2949 H2961 0.929 . S
C2950 C2946 1.531 . S
C2950 H2962 0.960 . S
C2950 H2963 0.962 . S
C2950 H2964 0.960 . S
C2951 C2948 1.511 . S
C2951 H2965 0.961 . S
C2951 H2966 0.961 . S
C2951 H2967 0.961 . S
C2952 C2953 1.370 . S
C2952 C2954 1.363 . S
C2952 H2968 0.931 . S
C2953 C2952 1.370 . S
C2953 C2957 1.408 . S
C2954 C2952 1.363 . S
C2954 C2955 1.370 . S
C2954 C2958 1.524 . S
C2955 C2947 1.503 . S
C2955 C2954 1.370 . S
C2955 C2956 1.403 . S
C2956 C2955 1.403 . S
C2956 C2957 1.404 . S
C2956 C2959 1.539 . S
C2957 C2953 1.408 . S
C2957 C2956 1.404 . S
C2957 H2969 0.930 . S
C2958 C2954 1.524 . S
C2958 H2970 0.956 . S
C2958 H2971 0.961 . S
C2958 H2972 0.961 . S
C2959 C2956 1.539 . S
C2959 H2973 0.958 . S
C2959 H2974 0.961 . S
C2959 H2975 0.960 . S
H2960 C2944 0.931 . S
H2961 C2949 0.929 . S
H2962 C2950 0.960 . S
H2963 C2950 0.962 . S
H2964 C2950 0.960 . S
H2965 C2951 0.961 . S
H2966 C2951 0.961 . S
H2967 C2951 0.961 . S
H2968 C2952 0.931 . S
H2969 C2957 0.930 . S
H2970 C2958 0.956 . S
H2971 C2958 0.961 . S
H2972 C2958 0.961 . S
H2973 C2959 0.958 . S
H2974 C2959 0.961 . S
H2975 C2959 0.960 . S
C2976 C2977 1.391 . S
C2976 C2978 1.394 . S
C2976 H2992 0.931 . S
C2977 C2976 1.391 . S
C2977 C2981 1.376 . S
C2978 C2976 1.394 . S
C2978 C2979 1.369 . S
C2978 C2982 1.531 . S
C2979 C2978 1.369 . S
C2979 C2980 1.410 . S
C2979 C2987 1.503 . S
C2980 C2979 1.410 . S
C2980 C2981 1.392 . S
C2980 C2983 1.511 . S
C2981 C2977 1.376 . S
C2981 C2980 1.392 . S
C2981 H2993 0.929 . S
C2982 C2978 1.531 . S
C2982 H2994 0.960 . S
C2982 H2995 0.962 . S
C2982 H2996 0.960 . S
C2983 C2980 1.511 . S
C2983 H2997 0.961 . S
C2983 H2998 0.961 . S
C2983 H2999 0.961 . S
C2984 C2985 1.370 . S
C2984 C2986 1.363 . S
C2984 H3000 0.931 . S
C2985 C2984 1.370 . S
C2985 C2989 1.408 . S
C2986 C2984 1.363 . S
C2986 C2987 1.370 . S
C2986 C2990 1.524 . S
C2987 C2979 1.503 . S
C2987 C2986 1.370 . S
C2987 C2988 1.403 . S
C2988 C2987 1.403 . S
C2988 C2989 1.404 . S
C2988 C2991 1.539 . S
C2989 C2985 1.408 . S
C2989 C2988 1.404 . S
C2989 H3001 0.930 . S
C2990 C2986 1.524 . S
C2990 H3002 0.956 . S
C2990 H3003 0.961 . S
C2990 H3004 0.961 . S
C2991 C2988 1.539 . S
C2991 H3005 0.958 . S
C2991 H3006 0.961 . S
C2991 H3007 0.960 . S
H2992 C2976 0.931 . S
H2993 C2981 0.929 . S
H2994 C2982 0.960 . S
H2995 C2982 0.962 . S
H2996 C2982 0.960 . S
H2997 C2983 0.961 . S
H2998 C2983 0.961 . S
H2999 C2983 0.961 . S
H3000 C2984 0.931 . S
H3001 C2989 0.930 . S
H3002 C2990 0.956 . S
H3003 C2990 0.961 . S
H3004 C2990 0.961 . S
H3005 C2991 0.958 . S
H3006 C2991 0.961 . S
H3007 C2991 0.960 . S
C3008 C3009 1.391 . S
C3008 C3010 1.394 . S
C3008 H3024 0.931 . S
C3009 C3008 1.391 . S
C3009 C3013 1.376 . S
C3010 C3008 1.394 . S
C3010 C3011 1.369 . S
C3010 C3014 1.531 . S
C3011 C3010 1.369 . S
C3011 C3012 1.410 . S
C3011 C3019 1.503 . S
C3012 C3011 1.410 . S
C3012 C3013 1.392 . S
C3012 C3015 1.511 . S
C3013 C3009 1.376 . S
C3013 C3012 1.392 . S
C3013 H3025 0.929 . S
C3014 C3010 1.531 . S
C3014 H3026 0.960 . S
C3014 H3027 0.962 . S
C3014 H3028 0.960 . S
C3015 C3012 1.511 . S
C3015 H3029 0.961 . S
C3015 H3030 0.961 . S
C3015 H3031 0.961 . S
C3016 C3017 1.370 . S
C3016 C3018 1.363 . S
C3016 H3032 0.931 . S
C3017 C3016 1.370 . S
C3017 C3021 1.408 . S
C3018 C3016 1.363 . S
C3018 C3019 1.370 . S
C3018 C3022 1.524 . S
C3019 C3011 1.503 . S
C3019 C3018 1.370 . S
C3019 C3020 1.403 . S
C3020 C3019 1.403 . S
C3020 C3021 1.404 . S
C3020 C3023 1.539 . S
C3021 C3017 1.408 . S
C3021 C3020 1.404 . S
C3021 H3033 0.930 . S
C3022 C3018 1.524 . S
C3022 H3034 0.956 . S
C3022 H3035 0.961 . S
C3022 H3036 0.961 . S
C3023 C3020 1.539 . S
C3023 H3037 0.958 . S
C3023 H3038 0.961 . S
C3023 H3039 0.960 . S
H3024 C3008 0.931 . S
H3025 C3013 0.929 . S
H3026 C3014 0.960 . S
H3027 C3014 0.962 . S
H3028 C3014 0.960 . S
H3029 C3015 0.961 . S
H3030 C3015 0.961 . S
H3031 C3015 0.961 . S
H3032 C3016 0.931 . S
H3033 C3021 0.930 . S
H3034 C3022 0.956 . S
H3035 C3022 0.961 . S
H3036 C3022 0.961 . S
H3037 C3023 0.958 . S
H3038 C3023 0.961 . S
H3039 C3023 0.960 . S
C3040 C3041 1.391 . S
C3040 C3042 1.394 . S
C3040 H3056 0.931 . S
C3041 C3040 1.391 . S
C3041 C3045 1.376 . S
C3042 C3040 1.394 . S
C3042 C3043 1.369 . S
C3042 C3046 1.531 . S
C3043 C3042 1.369 . S
C3043 C3044 1.410 . S
C3043 C3051 1.503 . S
C3044 C3043 1.410 . S
C3044 C3045 1.392 . S
C3044 C3047 1.511 . S
C3045 C3041 1.376 . S
C3045 C3044 1.392 . S
C3045 H3057 0.929 . S
C3046 C3042 1.531 . S
C3046 H3058 0.960 . S
C3046 H3059 0.962 . S
C3046 H3060 0.960 . S
C3047 C3044 1.511 . S
C3047 H3061 0.961 . S
C3047 H3062 0.961 . S
C3047 H3063 0.961 . S
C3048 C3049 1.370 . S
C3048 C3050 1.363 . S
C3048 H3064 0.931 . S
C3049 C3048 1.370 . S
C3049 C3053 1.408 . S
C3050 C3048 1.363 . S
C3050 C3051 1.370 . S
C3050 C3054 1.524 . S
C3051 C3043 1.503 . S
C3051 C3050 1.370 . S
C3051 C3052 1.403 . S
C3052 C3051 1.403 . S
C3052 C3053 1.404 . S
C3052 C3055 1.539 . S
C3053 C3049 1.408 . S
C3053 C3052 1.404 . S
C3053 H3065 0.930 . S
C3054 C3050 1.524 . S
C3054 H3066 0.956 . S
C3054 H3067 0.961 . S
C3054 H3068 0.961 . S
C3055 C3052 1.539 . S
C3055 H3069 0.958 . S
C3055 H3070 0.961 . S
C3055 H3071 0.960 . S
H3056 C3040 0.931 . S
H3057 C3045 0.929 . S
H3058 C3046 0.960 . S
H3059 C3046 0.962 . S
H3060 C3046 0.960 . S
H3061 C3047 0.961 . S
H3062 C3047 0.961 . S
H3063 C3047 0.961 . S
H3064 C3048 0.931 . S
H3065 C3053 0.930 . S
H3066 C3054 0.956 . S
H3067 C3054 0.961 . S
H3068 C3054 0.961 . S
H3069 C3055 0.958 . S
H3070 C3055 0.961 . S
H3071 C3055 0.960 . S
C3072 C3073 1.391 . S
C3072 C3074 1.394 . S
C3072 H3088 0.931 . S
C3073 C3072 1.391 . S
C3073 C3077 1.376 . S
C3074 C3072 1.394 . S
C3074 C3075 1.369 . S
C3074 C3078 1.531 . S
C3075 C3074 1.369 . S
C3075 C3076 1.410 . S
C3075 C3083 1.503 . S
C3076 C3075 1.410 . S
C3076 C3077 1.392 . S
C3076 C3079 1.511 . S
C3077 C3073 1.376 . S
C3077 C3076 1.392 . S
C3077 H3089 0.929 . S
C3078 C3074 1.531 . S
C3078 H3090 0.960 . S
C3078 H3091 0.962 . S
C3078 H3092 0.960 . S
C3079 C3076 1.511 . S
C3079 H3093 0.961 . S
C3079 H3094 0.961 . S
C3079 H3095 0.961 . S
C3080 C3081 1.370 . S
C3080 C3082 1.363 . S
C3080 H3096 0.931 . S
C3081 C3080 1.370 . S
C3081 C3085 1.408 . S
C3082 C3080 1.363 . S
C3082 C3083 1.370 . S
C3082 C3086 1.524 . S
C3083 C3075 1.503 . S
C3083 C3082 1.370 . S
C3083 C3084 1.403 . S
C3084 C3083 1.403 . S
C3084 C3085 1.404 . S
C3084 C3087 1.539 . S
C3085 C3081 1.408 . S
C3085 C3084 1.404 . S
C3085 H3097 0.930 . S
C3086 C3082 1.524 . S
C3086 H3098 0.956 . S
C3086 H3099 0.961 . S
C3086 H3100 0.961 . S
C3087 C3084 1.539 . S
C3087 H3101 0.958 . S
C3087 H3102 0.961 . S
C3087 H3103 0.960 . S
H3088 C3072 0.931 . S
H3089 C3077 0.929 . S
H3090 C3078 0.960 . S
H3091 C3078 0.962 . S
H3092 C3078 0.960 . S
H3093 C3079 0.961 . S
H3094 C3079 0.961 . S
H3095 C3079 0.961 . S
H3096 C3080 0.931 . S
H3097 C3085 0.930 . S
H3098 C3086 0.956 . S
H3099 C3086 0.961 . S
H3100 C3086 0.961 . S
H3101 C3087 0.958 . S
H3102 C3087 0.961 . S
H3103 C3087 0.960 . S
C3104 C3105 1.391 . S
C3104 C3106 1.394 . S
C3104 H3120 0.931 . S
C3105 C3104 1.391 . S
C3105 C3109 1.376 . S
C3106 C3104 1.394 . S
C3106 C3107 1.369 . S
C3106 C3110 1.531 . S
C3107 C3106 1.369 . S
C3107 C3108 1.410 . S
C3107 C3115 1.503 . S
C3108 C3107 1.410 . S
C3108 C3109 1.392 . S
C3108 C3111 1.511 . S
C3109 C3105 1.376 . S
C3109 C3108 1.392 . S
C3109 H3121 0.929 . S
C3110 C3106 1.531 . S
C3110 H3122 0.960 . S
C3110 H3123 0.962 . S
C3110 H3124 0.960 . S
C3111 C3108 1.511 . S
C3111 H3125 0.961 . S
C3111 H3126 0.961 . S
C3111 H3127 0.961 . S
C3112 C3113 1.370 . S
C3112 C3114 1.363 . S
C3112 H3128 0.931 . S
C3113 C3112 1.370 . S
C3113 C3117 1.408 . S
C3114 C3112 1.363 . S
C3114 C3115 1.370 . S
C3114 C3118 1.524 . S
C3115 C3107 1.503 . S
C3115 C3114 1.370 . S
C3115 C3116 1.403 . S
C3116 C3115 1.403 . S
C3116 C3117 1.404 . S
C3116 C3119 1.539 . S
C3117 C3113 1.408 . S
C3117 C3116 1.404 . S
C3117 H3129 0.930 . S
C3118 C3114 1.524 . S
C3118 H3130 0.956 . S
C3118 H3131 0.961 . S
C3118 H3132 0.961 . S
C3119 C3116 1.539 . S
C3119 H3133 0.958 . S
C3119 H3134 0.961 . S
C3119 H3135 0.960 . S
H3120 C3104 0.931 . S
H3121 C3109 0.929 . S
H3122 C3110 0.960 . S
H3123 C3110 0.962 . S
H3124 C3110 0.960 . S
H3125 C3111 0.961 . S
H3126 C3111 0.961 . S
H3127 C3111 0.961 . S
H3128 C3112 0.931 . S
H3129 C3117 0.930 . S
H3130 C3118 0.956 . S
H3131 C3118 0.961 . S
H3132 C3118 0.961 . S
H3133 C3119 0.958 . S
H3134 C3119 0.961 . S
H3135 C3119 0.960 . S
C3136 C3137 1.391 . S
C3136 C3138 1.394 . S
C3136 H3152 0.931 . S
C3137 C3136 1.391 . S
C3137 C3141 1.376 . S
C3138 C3136 1.394 . S
C3138 C3139 1.369 . S
C3138 C3142 1.531 . S
C3139 C3138 1.369 . S
C3139 C3140 1.410 . S
C3139 C3147 1.503 . S
C3140 C3139 1.410 . S
C3140 C3141 1.392 . S
C3140 C3143 1.511 . S
C3141 C3137 1.376 . S
C3141 C3140 1.392 . S
C3141 H3153 0.929 . S
C3142 C3138 1.531 . S
C3142 H3154 0.960 . S
C3142 H3155 0.962 . S
C3142 H3156 0.960 . S
C3143 C3140 1.511 . S
C3143 H3157 0.961 . S
C3143 H3158 0.961 . S
C3143 H3159 0.961 . S
C3144 C3145 1.370 . S
C3144 C3146 1.363 . S
C3144 H3160 0.931 . S
C3145 C3144 1.370 . S
C3145 C3149 1.408 . S
C3146 C3144 1.363 . S
C3146 C3147 1.370 . S
C3146 C3150 1.524 . S
C3147 C3139 1.503 . S
C3147 C3146 1.370 . S
C3147 C3148 1.403 . S
C3148 C3147 1.403 . S
C3148 C3149 1.404 . S
C3148 C3151 1.539 . S
C3149 C3145 1.408 . S
C3149 C3148 1.404 . S
C3149 H3161 0.930 . S
C3150 C3146 1.524 . S
C3150 H3162 0.956 . S
C3150 H3163 0.961 . S
C3150 H3164 0.961 . S
C3151 C3148 1.539 . S
C3151 H3165 0.958 . S
C3151 H3166 0.961 . S
C3151 H3167 0.960 . S
H3152 C3136 0.931 . S
H3153 C3141 0.929 . S
H3154 C3142 0.960 . S
H3155 C3142 0.962 . S
H3156 C3142 0.960 . S
H3157 C3143 0.961 . S
H3158 C3143 0.961 . S
H3159 C3143 0.961 . S
H3160 C3144 0.931 . S
H3161 C3149 0.930 . S
H3162 C3150 0.956 . S
H3163 C3150 0.961 . S
H3164 C3150 0.961 . S
H3165 C3151 0.958 . S
H3166 C3151 0.961 . S
H3167 C3151 0.960 . S
C3168 C3169 1.391 . S
C3168 C3170 1.394 . S
C3168 H3184 0.931 . S
C3169 C3168 1.391 . S
C3169 C3173 1.376 . S
C3170 C3168 1.394 . S
C3170 C3171 1.369 . S
C3170 C3174 1.531 . S
C3171 C3170 1.369 . S
C3171 C3172 1.410 . S
C3171 C3179 1.503 . S
C3172 C3171 1.410 . S
C3172 C3173 1.392 . S
C3172 C3175 1.511 . S
C3173 C3169 1.376 . S
C3173 C3172 1.392 . S
C3173 H3185 0.929 . S
C3174 C3170 1.531 . S
C3174 H3186 0.960 . S
C3174 H3187 0.962 . S
C3174 H3188 0.960 . S
C3175 C3172 1.511 . S
C3175 H3189 0.961 . S
C3175 H3190 0.961 . S
C3175 H3191 0.961 . S
C3176 C3177 1.370 . S
C3176 C3178 1.363 . S
C3176 H3192 0.931 . S
C3177 C3176 1.370 . S
C3177 C3181 1.408 . S
C3178 C3176 1.363 . S
C3178 C3179 1.370 . S
C3178 C3182 1.524 . S
C3179 C3171 1.503 . S
C3179 C3178 1.370 . S
C3179 C3180 1.403 . S
C3180 C3179 1.403 . S
C3180 C3181 1.404 . S
C3180 C3183 1.539 . S
C3181 C3177 1.408 . S
C3181 C3180 1.404 . S
C3181 H3193 0.930 . S
C3182 C3178 1.524 . S
C3182 H3194 0.956 . S
C3182 H3195 0.961 . S
C3182 H3196 0.961 . S
C3183 C3180 1.539 . S
C3183 H3197 0.958 . S
C3183 H3198 0.961 . S
C3183 H3199 0.960 . S
H3184 C3168 0.931 . S
H3185 C3173 0.929 . S
H3186 C3174 0.960 . S
H3187 C3174 0.962 . S
H3188 C3174 0.960 . S
H3189 C3175 0.961 . S
H3190 C3175 0.961 . S
H3191 C3175 0.961 . S
H3192 C3176 0.931 . S
H3193 C3181 0.930 . S
H3194 C3182 0.956 . S
H3195 C3182 0.961 . S
H3196 C3182 0.961 . S
H3197 C3183 0.958 . S
H3198 C3183 0.961 . S
H3199 C3183 0.960 . S
C3200 C3201 1.391 . S
C3200 C3202 1.394 . S
C3200 H3216 0.931 . S
C3201 C3200 1.391 . S
C3201 C3205 1.376 . S
C3202 C3200 1.394 . S
C3202 C3203 1.369 . S
C3202 C3206 1.531 . S
C3203 C3202 1.369 . S
C3203 C3204 1.410 . S
C3203 C3211 1.503 . S
C3204 C3203 1.410 . S
C3204 C3205 1.392 . S
C3204 C3207 1.511 . S
C3205 C3201 1.376 . S
C3205 C3204 1.392 . S
C3205 H3217 0.929 . S
C3206 C3202 1.531 . S
C3206 H3218 0.960 . S
C3206 H3219 0.962 . S
C3206 H3220 0.960 . S
C3207 C3204 1.511 . S
C3207 H3221 0.961 . S
C3207 H3222 0.961 . S
C3207 H3223 0.961 . S
C3208 C3209 1.370 . S
C3208 C3210 1.363 . S
C3208 H3224 0.931 . S
C3209 C3208 1.370 . S
C3209 C3213 1.408 . S
C3210 C3208 1.363 . S
C3210 C3211 1.370 . S
C3210 C3214 1.524 . S
C3211 C3203 1.503 . S
C3211 C3210 1.370 . S
C3211 C3212 1.403 . S
C3212 C3211 1.403 . S
C3212 C3213 1.404 . S
C3212 C3215 1.539 . S
C3213 C3209 1.408 . S
C3213 C3212 1.404 . S
C3213 H3225 0.930 . S
C3214 C3210 1.524 . S
C3214 H3226 0.956 . S
C3214 H3227 0.961 . S
C3214 H3228 0.961 . S
C3215 C3212 1.539 . S
C3215 H3229 0.958 . S
C3215 H3230 0.961 . S
C3215 H3231 0.960 . S
H3216 C3200 0.931 . S
H3217 C3205 0.929 . S
H3218 C3206 0.960 . S
H3219 C3206 0.962 . S
H3220 C3206 0.960 . S
H3221 C3207 0.961 . S
H3222 C3207 0.961 . S
H3223 C3207 0.961 . S
H3224 C3208 0.931 . S
H3225 C3213 0.930 . S
H3226 C3214 0.956 . S
H3227 C3214 0.961 . S
H3228 C3214 0.961 . S
H3229 C3215 0.958 . S
H3230 C3215 0.961 . S
H3231 C3215 0.960 . S
C3232 C3233 1.391 . S
C3232 C3234 1.394 . S
C3232 H3248 0.931 . S
C3233 C3232 1.391 . S
C3233 C3237 1.376 . S
C3234 C3232 1.394 . S
C3234 C3235 1.369 . S
C3234 C3238 1.531 . S
C3235 C3234 1.369 . S
C3235 C3236 1.410 . S
C3235 C3243 1.503 . S
C3236 C3235 1.410 . S
C3236 C3237 1.392 . S
C3236 C3239 1.511 . S
C3237 C3233 1.376 . S
C3237 C3236 1.392 . S
C3237 H3249 0.929 . S
C3238 C3234 1.531 . S
C3238 H3250 0.960 . S
C3238 H3251 0.962 . S
C3238 H3252 0.960 . S
C3239 C3236 1.511 . S
C3239 H3253 0.961 . S
C3239 H3254 0.961 . S
C3239 H3255 0.961 . S
C3240 C3241 1.370 . S
C3240 C3242 1.363 . S
C3240 H3256 0.931 . S
C3241 C3240 1.370 . S
C3241 C3245 1.408 . S
C3242 C3240 1.363 . S
C3242 C3243 1.370 . S
C3242 C3246 1.524 . S
C3243 C3235 1.503 . S
C3243 C3242 1.370 . S
C3243 C3244 1.403 . S
C3244 C3243 1.403 . S
C3244 C3245 1.404 . S
C3244 C3247 1.539 . S
C3245 C3241 1.408 . S
C3245 C3244 1.404 . S
C3245 H3257 0.930 . S
C3246 C3242 1.524 . S
C3246 H3258 0.956 . S
C3246 H3259 0.961 . S
C3246 H3260 0.961 . S
C3247 C3244 1.539 . S
C3247 H3261 0.958 . S
C3247 H3262 0.961 . S
C3247 H3263 0.960 . S
H3248 C3232 0.931 . S
H3249 C3237 0.929 . S
H3250 C3238 0.960 . S
H3251 C3238 0.962 . S
H3252 C3238 0.960 . S
H3253 C3239 0.961 . S
H3254 C3239 0.961 . S
H3255 C3239 0.961 . S
H3256 C3240 0.931 . S
H3257 C3245 0.930 . S
H3258 C3246 0.956 . S
H3259 C3246 0.961 . S
H3260 C3246 0.961 . S
H3261 C3247 0.958 . S
H3262 C3247 0.961 . S
H3263 C3247 0.960 . S
C3264 C3265 1.391 . S
C3264 C3266 1.394 . S
C3264 H3280 0.931 . S
C3265 C3264 1.391 . S
C3265 C3269 1.376 . S
C3266 C3264 1.394 . S
C3266 C3267 1.369 . S
C3266 C3270 1.531 . S
C3267 C3266 1.369 . S
C3267 C3268 1.410 . S
C3267 C3275 1.503 . S
C3268 C3267 1.410 . S
C3268 C3269 1.392 . S
C3268 C3271 1.511 . S
C3269 C3265 1.376 . S
C3269 C3268 1.392 . S
C3269 H3281 0.929 . S
C3270 C3266 1.531 . S
C3270 H3282 0.960 . S
C3270 H3283 0.962 . S
C3270 H3284 0.960 . S
C3271 C3268 1.511 . S
C3271 H3285 0.961 . S
C3271 H3286 0.961 . S
C3271 H3287 0.961 . S
C3272 C3273 1.370 . S
C3272 C3274 1.363 . S
C3272 H3288 0.931 . S
C3273 C3272 1.370 . S
C3273 C3277 1.408 . S
C3274 C3272 1.363 . S
C3274 C3275 1.370 . S
C3274 C3278 1.524 . S
C3275 C3267 1.503 . S
C3275 C3274 1.370 . S
C3275 C3276 1.403 . S
C3276 C3275 1.403 . S
C3276 C3277 1.404 . S
C3276 C3279 1.539 . S
C3277 C3273 1.408 . S
C3277 C3276 1.404 . S
C3277 H3289 0.930 . S
C3278 C3274 1.524 . S
C3278 H3290 0.956 . S
C3278 H3291 0.961 . S
C3278 H3292 0.961 . S
C3279 C3276 1.539 . S
C3279 H3293 0.958 . S
C3279 H3294 0.961 . S
C3279 H3295 0.960 . S
H3280 C3264 0.931 . S
H3281 C3269 0.929 . S
H3282 C3270 0.960 . S
H3283 C3270 0.962 . S
H3284 C3270 0.960 . S
H3285 C3271 0.961 . S
H3286 C3271 0.961 . S
H3287 C3271 0.961 . S
H3288 C3272 0.931 . S
H3289 C3277 0.930 . S
H3290 C3278 0.956 . S
H3291 C3278 0.961 . S
H3292 C3278 0.961 . S
H3293 C3279 0.958 . S
H3294 C3279 0.961 . S
H3295 C3279 0.960 . S
C3296 C3297 1.391 . S
C3296 C3298 1.394 . S
C3296 H3312 0.931 . S
C3297 C3296 1.391 . S
C3297 C3301 1.376 . S
C3298 C3296 1.394 . S
C3298 C3299 1.369 . S
C3298 C3302 1.531 . S
C3299 C3298 1.369 . S
C3299 C3300 1.410 . S
C3299 C3307 1.503 . S
C3300 C3299 1.410 . S
C3300 C3301 1.392 . S
C3300 C3303 1.511 . S
C3301 C3297 1.376 . S
C3301 C3300 1.392 . S
C3301 H3313 0.929 . S
C3302 C3298 1.531 . S
C3302 H3314 0.960 . S
C3302 H3315 0.962 . S
C3302 H3316 0.960 . S
C3303 C3300 1.511 . S
C3303 H3317 0.961 . S
C3303 H3318 0.961 . S
C3303 H3319 0.961 . S
C3304 C3305 1.370 . S
C3304 C3306 1.363 . S
C3304 H3320 0.931 . S
C3305 C3304 1.370 . S
C3305 C3309 1.408 . S
C3306 C3304 1.363 . S
C3306 C3307 1.370 . S
C3306 C3310 1.524 . S
C3307 C3299 1.503 . S
C3307 C3306 1.370 . S
C3307 C3308 1.403 . S
C3308 C3307 1.403 . S
C3308 C3309 1.404 . S
C3308 C3311 1.539 . S
C3309 C3305 1.408 . S
C3309 C3308 1.404 . S
C3309 H3321 0.930 . S
C3310 C3306 1.524 . S
C3310 H3322 0.956 . S
C3310 H3323 0.961 . S
C3310 H3324 0.961 . S
C3311 C3308 1.539 . S
C3311 H3325 0.958 . S
C3311 H3326 0.961 . S
C3311 H3327 0.960 . S
H3312 C3296 0.931 . S
H3313 C3301 0.929 . S
H3314 C3302 0.960 . S
H3315 C3302 0.962 . S
H3316 C3302 0.960 . S
H3317 C3303 0.961 . S
H3318 C3303 0.961 . S
H3319 C3303 0.961 . S
H3320 C3304 0.931 . S
H3321 C3309 0.930 . S
H3322 C3310 0.956 . S
H3323 C3310 0.961 . S
H3324 C3310 0.961 . S
H3325 C3311 0.958 . S
H3326 C3311 0.961 . S
H3327 C3311 0.960 . S
C3328 C3329 1.391 . S
C3328 C3330 1.394 . S
C3328 H3344 0.931 . S
C3329 C3328 1.391 . S
C3329 C3333 1.376 . S
C3330 C3328 1.394 . S
C3330 C3331 1.369 . S
C3330 C3334 1.531 . S
C3331 C3330 1.369 . S
C3331 C3332 1.410 . S
C3331 C3339 1.503 . S
C3332 C3331 1.410 . S
C3332 C3333 1.392 . S
C3332 C3335 1.511 . S
C3333 C3329 1.376 . S
C3333 C3332 1.392 . S
C3333 H3345 0.929 . S
C3334 C3330 1.531 . S
C3334 H3346 0.960 . S
C3334 H3347 0.962 . S
C3334 H3348 0.960 . S
C3335 C3332 1.511 . S
C3335 H3349 0.961 . S
C3335 H3350 0.961 . S
C3335 H3351 0.961 . S
C3336 C3337 1.370 . S
C3336 C3338 1.363 . S
C3336 H3352 0.931 . S
C3337 C3336 1.370 . S
C3337 C3341 1.408 . S
C3338 C3336 1.363 . S
C3338 C3339 1.370 . S
C3338 C3342 1.524 . S
C3339 C3331 1.503 . S
C3339 C3338 1.370 . S
C3339 C3340 1.403 . S
C3340 C3339 1.403 . S
C3340 C3341 1.404 . S
C3340 C3343 1.539 . S
C3341 C3337 1.408 . S
C3341 C3340 1.404 . S
C3341 H3353 0.930 . S
C3342 C3338 1.524 . S
C3342 H3354 0.956 . S
C3342 H3355 0.961 . S
C3342 H3356 0.961 . S
C3343 C3340 1.539 . S
C3343 H3357 0.958 . S
C3343 H3358 0.961 . S
C3343 H3359 0.960 . S
H3344 C3328 0.931 . S
H3345 C3333 0.929 . S
H3346 C3334 0.960 . S
H3347 C3334 0.962 . S
H3348 C3334 0.960 . S
H3349 C3335 0.961 . S
H3350 C3335 0.961 . S
H3351 C3335 0.961 . S
H3352 C3336 0.931 . S
H3353 C3341 0.930 . S
H3354 C3342 0.956 . S
H3355 C3342 0.961 . S
H3356 C3342 0.961 . S
H3357 C3343 0.958 . S
H3358 C3343 0.961 . S
H3359 C3343 0.960 . S
C3360 C3361 1.391 . S
C3360 C3362 1.394 . S
C3360 H3376 0.931 . S
C3361 C3360 1.391 . S
C3361 C3365 1.376 . S
C3362 C3360 1.394 . S
C3362 C3363 1.369 . S
C3362 C3366 1.531 . S
C3363 C3362 1.369 . S
C3363 C3364 1.410 . S
C3363 C3371 1.503 . S
C3364 C3363 1.410 . S
C3364 C3365 1.392 . S
C3364 C3367 1.511 . S
C3365 C3361 1.376 . S
C3365 C3364 1.392 . S
C3365 H3377 0.929 . S
C3366 C3362 1.531 . S
C3366 H3378 0.960 . S
C3366 H3379 0.962 . S
C3366 H3380 0.960 . S
C3367 C3364 1.511 . S
C3367 H3381 0.961 . S
C3367 H3382 0.961 . S
C3367 H3383 0.961 . S
C3368 C3369 1.370 . S
C3368 C3370 1.363 . S
C3368 H3384 0.931 . S
C3369 C3368 1.370 . S
C3369 C3373 1.408 . S
C3370 C3368 1.363 . S
C3370 C3371 1.370 . S
C3370 C3374 1.524 . S
C3371 C3363 1.503 . S
C3371 C3370 1.370 . S
C3371 C3372 1.403 . S
C3372 C3371 1.403 . S
C3372 C3373 1.404 . S
C3372 C3375 1.539 . S
C3373 C3369 1.408 . S
C3373 C3372 1.404 . S
C3373 H3385 0.930 . S
C3374 C3370 1.524 . S
C3374 H3386 0.956 . S
C3374 H3387 0.961 . S
C3374 H3388 0.961 . S
C3375 C3372 1.539 . S
C3375 H3389 0.958 . S
C3375 H3390 0.961 . S
C3375 H3391 0.960 . S
H3376 C3360 0.931 . S
H3377 C3365 0.929 . S
H3378 C3366 0.960 . S
H3379 C3366 0.962 . S
H3380 C3366 0.960 . S
H3381 C3367 0.961 . S
H3382 C3367 0.961 . S
H3383 C3367 0.961 . S
H3384 C3368 0.931 . S
H3385 C3373 0.930 . S
H3386 C3374 0.956 . S
H3387 C3374 0.961 . S
H3388 C3374 0.961 . S
H3389 C3375 0.958 . S
H3390 C3375 0.961 . S
H3391 C3375 0.960 . S
C3392 C3393 1.391 . S
C3392 C3394 1.394 . S
C3392 H3408 0.931 . S
C3393 C3392 1.391 . S
C3393 C3397 1.376 . S
C3394 C3392 1.394 . S
C3394 C3395 1.369 . S
C3394 C3398 1.531 . S
C3395 C3394 1.369 . S
C3395 C3396 1.410 . S
C3395 C3403 1.503 . S
C3396 C3395 1.410 . S
C3396 C3397 1.392 . S
C3396 C3399 1.511 . S
C3397 C3393 1.376 . S
C3397 C3396 1.392 . S
C3397 H3409 0.929 . S
C3398 C3394 1.531 . S
C3398 H3410 0.960 . S
C3398 H3411 0.962 . S
C3398 H3412 0.960 . S
C3399 C3396 1.511 . S
C3399 H3413 0.961 . S
C3399 H3414 0.961 . S
C3399 H3415 0.961 . S
C3400 C3401 1.370 . S
C3400 C3402 1.363 . S
C3400 H3416 0.931 . S
C3401 C3400 1.370 . S
C3401 C3405 1.408 . S
C3402 C3400 1.363 . S
C3402 C3403 1.370 . S
C3402 C3406 1.524 . S
C3403 C3395 1.503 . S
C3403 C3402 1.370 . S
C3403 C3404 1.403 . S
C3404 C3403 1.403 . S
C3404 C3405 1.404 . S
C3404 C3407 1.539 . S
C3405 C3401 1.408 . S
C3405 C3404 1.404 . S
C3405 H3417 0.930 . S
C3406 C3402 1.524 . S
C3406 H3418 0.956 . S
C3406 H3419 0.961 . S
C3406 H3420 0.961 . S
C3407 C3404 1.539 . S
C3407 H3421 0.958 . S
C3407 H3422 0.961 . S
C3407 H3423 0.960 . S
H3408 C3392 0.931 . S
H3409 C3397 0.929 . S
H3410 C3398 0.960 . S
H3411 C3398 0.962 . S
H3412 C3398 0.960 . S
H3413 C3399 0.961 . S
H3414 C3399 0.961 . S
H3415 C3399 0.961 . S
H3416 C3400 0.931 . S
H3417 C3405 0.930 . S
H3418 C3406 0.956 . S
H3419 C3406 0.961 . S
H3420 C3406 0.961 . S
H3421 C3407 0.958 . S
H3422 C3407 0.961 . S
H3423 C3407 0.960 . S
C3424 C3425 1.391 . S
C3424 C3426 1.394 . S
C3424 H3440 0.931 . S
C3425 C3424 1.391 . S
C3425 C3429 1.376 . S
C3426 C3424 1.394 . S
C3426 C3427 1.369 . S
C3426 C3430 1.531 . S
C3427 C3426 1.369 . S
C3427 C3428 1.410 . S
C3427 C3435 1.503 . S
C3428 C3427 1.410 . S
C3428 C3429 1.392 . S
C3428 C3431 1.511 . S
C3429 C3425 1.376 . S
C3429 C3428 1.392 . S
C3429 H3441 0.929 . S
C3430 C3426 1.531 . S
C3430 H3442 0.960 . S
C3430 H3443 0.962 . S
C3430 H3444 0.960 . S
C3431 C3428 1.511 . S
C3431 H3445 0.961 . S
C3431 H3446 0.961 . S
C3431 H3447 0.961 . S
C3432 C3433 1.370 . S
C3432 C3434 1.363 . S
C3432 H3448 0.931 . S
C3433 C3432 1.370 . S
C3433 C3437 1.408 . S
C3434 C3432 1.363 . S
C3434 C3435 1.370 . S
C3434 C3438 1.524 . S
C3435 C3427 1.503 . S
C3435 C3434 1.370 . S
C3435 C3436 1.403 . S
C3436 C3435 1.403 . S
C3436 C3437 1.404 . S
C3436 C3439 1.539 . S
C3437 C3433 1.408 . S
C3437 C3436 1.404 . S
C3437 H3449 0.930 . S
C3438 C3434 1.524 . S
C3438 H3450 0.956 . S
C3438 H3451 0.961 . S
C3438 H3452 0.961 . S
C3439 C3436 1.539 . S
C3439 H3453 0.958 . S
C3439 H3454 0.961 . S
C3439 H3455 0.960 . S
H3440 C3424 0.931 . S
H3441 C3429 0.929 . S
H3442 C3430 0.960 . S
H3443 C3430 0.962 . S
H3444 C3430 0.960 . S
H3445 C3431 0.961 . S
H3446 C3431 0.961 . S
H3447 C3431 0.961 . S
H3448 C3432 0.931 . S
H3449 C3437 0.930 . S
H3450 C3438 0.956 . S
H3451 C3438 0.961 . S
H3452 C3438 0.961 . S
H3453 C3439 0.958 . S
H3454 C3439 0.961 . S
H3455 C3439 0.960 . S
C3456 C3457 1.391 . S
C3456 C3458 1.394 . S
C3456 H3472 0.931 . S
C3457 C3456 1.391 . S
C3457 C3461 1.376 . S
C3458 C3456 1.394 . S
C3458 C3459 1.369 . S
C3458 C3462 1.531 . S
C3459 C3458 1.369 . S
C3459 C3460 1.410 . S
C3459 C3467 1.503 . S
C3460 C3459 1.410 . S
C3460 C3461 1.392 . S
C3460 C3463 1.511 . S
C3461 C3457 1.376 . S
C3461 C3460 1.392 . S
C3461 H3473 0.929 . S
C3462 C3458 1.531 . S
C3462 H3474 0.960 . S
C3462 H3475 0.962 . S
C3462 H3476 0.960 . S
C3463 C3460 1.511 . S
C3463 H3477 0.961 . S
C3463 H3478 0.961 . S
C3463 H3479 0.961 . S
C3464 C3465 1.370 . S
C3464 C3466 1.363 . S
C3464 H3480 0.931 . S
C3465 C3464 1.370 . S
C3465 C3469 1.408 . S
C3466 C3464 1.363 . S
C3466 C3467 1.370 . S
C3466 C3470 1.524 . S
C3467 C3459 1.503 . S
C3467 C3466 1.370 . S
C3467 C3468 1.403 . S
C3468 C3467 1.403 . S
C3468 C3469 1.404 . S
C3468 C3471 1.539 . S
C3469 C3465 1.408 . S
C3469 C3468 1.404 . S
C3469 H3481 0.930 . S
C3470 C3466 1.524 . S
C3470 H3482 0.956 . S
C3470 H3483 0.961 . S
C3470 H3484 0.961 . S
C3471 C3468 1.539 . S
C3471 H3485 0.958 . S
C3471 H3486 0.961 . S
C3471 H3487 0.960 . S
H3472 C3456 0.931 . S
H3473 C3461 0.929 . S
H3474 C3462 0.960 . S
H3475 C3462 0.962 . S
H3476 C3462 0.960 . S
H3477 C3463 0.961 . S
H3478 C3463 0.961 . S
H3479 C3463 0.961 . S
H3480 C3464 0.931 . S
H3481 C3469 0.930 . S
H3482 C3470 0.956 . S
H3483 C3470 0.961 . S
H3484 C3470 0.961 . S
H3485 C3471 0.958 . S
H3486 C3471 0.961 . S
H3487 C3471 0.960 . S
C3488 C3489 1.391 . S
C3488 C3490 1.394 . S
C3488 H3504 0.931 . S
C3489 C3488 1.391 . S
C3489 C3493 1.376 . S
C3490 C3488 1.394 . S
C3490 C3491 1.369 . S
C3490 C3494 1.531 . S
C3491 C3490 1.369 . S
C3491 C3492 1.410 . S
C3491 C3499 1.503 . S
C3492 C3491 1.410 . S
C3492 C3493 1.392 . S
C3492 C3495 1.511 . S
C3493 C3489 1.376 . S
C3493 C3492 1.392 . S
C3493 H3505 0.929 . S
C3494 C3490 1.531 . S
C3494 H3506 0.960 . S
C3494 H3507 0.962 . S
C3494 H3508 0.960 . S
C3495 C3492 1.511 . S
C3495 H3509 0.961 . S
C3495 H3510 0.961 . S
C3495 H3511 0.961 . S
C3496 C3497 1.370 . S
C3496 C3498 1.363 . S
C3496 H3512 0.931 . S
C3497 C3496 1.370 . S
C3497 C3501 1.408 . S
C3498 C3496 1.363 . S
C3498 C3499 1.370 . S
C3498 C3502 1.524 . S
C3499 C3491 1.503 . S
C3499 C3498 1.370 . S
C3499 C3500 1.403 . S
C3500 C3499 1.403 . S
C3500 C3501 1.404 . S
C3500 C3503 1.539 . S
C3501 C3497 1.408 . S
C3501 C3500 1.404 . S
C3501 H3513 0.930 . S
C3502 C3498 1.524 . S
C3502 H3514 0.956 . S
C3502 H3515 0.961 . S
C3502 H3516 0.961 . S
C3503 C3500 1.539 . S
C3503 H3517 0.958 . S
C3503 H3518 0.961 . S
C3503 H3519 0.960 . S
H3504 C3488 0.931 . S
H3505 C3493 0.929 . S
H3506 C3494 0.960 . S
H3507 C3494 0.962 . S
H3508 C3494 0.960 . S
H3509 C3495 0.961 . S
H3510 C3495 0.961 . S
H3511 C3495 0.961 . S
H3512 C3496 0.931 . S
H3513 C3501 0.930 . S
H3514 C3502 0.956 . S
H3515 C3502 0.961 . S
H3516 C3502 0.961 . S
H3517 C3503 0.958 . S
H3518 C3503 0.961 . S
H3519 C3503 0.960 . S
C3520 C3521 1.391 . S
C3520 C3522 1.394 . S
C3520 H3536 0.931 . S
C3521 C3520 1.391 . S
C3521 C3525 1.376 . S
C3522 C3520 1.394 . S
C3522 C3523 1.369 . S
C3522 C3526 1.531 . S
C3523 C3522 1.369 . S
C3523 C3524 1.410 . S
C3523 C3531 1.503 . S
C3524 C3523 1.410 . S
C3524 C3525 1.392 . S
C3524 C3527 1.511 . S
C3525 C3521 1.376 . S
C3525 C3524 1.392 . S
C3525 H3537 0.929 . S
C3526 C3522 1.531 . S
C3526 H3538 0.960 . S
C3526 H3539 0.962 . S
C3526 H3540 0.960 . S
C3527 C3524 1.511 . S
C3527 H3541 0.961 . S
C3527 H3542 0.961 . S
C3527 H3543 0.961 . S
C3528 C3529 1.370 . S
C3528 C3530 1.363 . S
C3528 H3544 0.931 . S
C3529 C3528 1.370 . S
C3529 C3533 1.408 . S
C3530 C3528 1.363 . S
C3530 C3531 1.370 . S
C3530 C3534 1.524 . S
C3531 C3523 1.503 . S
C3531 C3530 1.370 . S
C3531 C3532 1.403 . S
C3532 C3531 1.403 . S
C3532 C3533 1.404 . S
C3532 C3535 1.539 . S
C3533 C3529 1.408 . S
C3533 C3532 1.404 . S
C3533 H3545 0.930 . S
C3534 C3530 1.524 . S
C3534 H3546 0.956 . S
C3534 H3547 0.961 . S
C3534 H3548 0.961 . S
C3535 C3532 1.539 . S
C3535 H3549 0.958 . S
C3535 H3550 0.961 . S
C3535 H3551 0.960 . S
H3536 C3520 0.931 . S
H3537 C3525 0.929 . S
H3538 C3526 0.960 . S
H3539 C3526 0.962 . S
H3540 C3526 0.960 . S
H3541 C3527 0.961 . S
H3542 C3527 0.961 . S
H3543 C3527 0.961 . S
H3544 C3528 0.931 . S
H3545 C3533 0.930 . S
H3546 C3534 0.956 . S
H3547 C3534 0.961 . S
H3548 C3534 0.961 . S
H3549 C3535 0.958 . S
H3550 C3535 0.961 . S
H3551 C3535 0.960 . S
C3552 C3553 1.391 . S
C3552 C3554 1.394 . S
C3552 H3568 0.931 . S
C3553 C3552 1.391 . S
C3553 C3557 1.376 . S
C3554 C3552 1.394 . S
C3554 C3555 1.369 . S
C3554 C3558 1.531 . S
C3555 C3554 1.369 . S
C3555 C3556 1.410 . S
C3555 C3563 1.503 . S
C3556 C3555 1.410 . S
C3556 C3557 1.392 . S
C3556 C3559 1.511 . S
C3557 C3553 1.376 . S
C3557 C3556 1.392 . S
C3557 H3569 0.929 . S
C3558 C3554 1.531 . S
C3558 H3570 0.960 . S
C3558 H3571 0.962 . S
C3558 H3572 0.960 . S
C3559 C3556 1.511 . S
C3559 H3573 0.961 . S
C3559 H3574 0.961 . S
C3559 H3575 0.961 . S
C3560 C3561 1.370 . S
C3560 C3562 1.363 . S
C3560 H3576 0.931 . S
C3561 C3560 1.370 . S
C3561 C3565 1.408 . S
C3562 C3560 1.363 . S
C3562 C3563 1.370 . S
C3562 C3566 1.524 . S
C3563 C3555 1.503 . S
C3563 C3562 1.370 . S
C3563 C3564 1.403 . S
C3564 C3563 1.403 . S
C3564 C3565 1.404 . S
C3564 C3567 1.539 . S
C3565 C3561 1.408 . S
C3565 C3564 1.404 . S
C3565 H3577 0.930 . S
C3566 C3562 1.524 . S
C3566 H3578 0.956 . S
C3566 H3579 0.961 . S
C3566 H3580 0.961 . S
C3567 C3564 1.539 . S
C3567 H3581 0.958 . S
C3567 H3582 0.961 . S
C3567 H3583 0.960 . S
H3568 C3552 0.931 . S
H3569 C3557 0.929 . S
H3570 C3558 0.960 . S
H3571 C3558 0.962 . S
H3572 C3558 0.960 . S
H3573 C3559 0.961 . S
H3574 C3559 0.961 . S
H3575 C3559 0.961 . S
H3576 C3560 0.931 . S
H3577 C3565 0.930 . S
H3578 C3566 0.956 . S
H3579 C3566 0.961 . S
H3580 C3566 0.961 . S
H3581 C3567 0.958 . S
H3582 C3567 0.961 . S
H3583 C3567 0.960 . S
C3584 C3585 1.391 . S
C3584 C3586 1.394 . S
C3584 H3600 0.931 . S
C3585 C3584 1.391 . S
C3585 C3589 1.376 . S
C3586 C3584 1.394 . S
C3586 C3587 1.369 . S
C3586 C3590 1.531 . S
C3587 C3586 1.369 . S
C3587 C3588 1.410 . S
C3587 C3595 1.503 . S
C3588 C3587 1.410 . S
C3588 C3589 1.392 . S
C3588 C3591 1.511 . S
C3589 C3585 1.376 . S
C3589 C3588 1.392 . S
C3589 H3601 0.929 . S
C3590 C3586 1.531 . S
C3590 H3602 0.960 . S
C3590 H3603 0.962 . S
C3590 H3604 0.960 . S
C3591 C3588 1.511 . S
C3591 H3605 0.961 . S
C3591 H3606 0.961 . S
C3591 H3607 0.961 . S
C3592 C3593 1.370 . S
C3592 C3594 1.363 . S
C3592 H3608 0.931 . S
C3593 C3592 1.370 . S
C3593 C3597 1.408 . S
C3594 C3592 1.363 . S
C3594 C3595 1.370 . S
C3594 C3598 1.524 . S
C3595 C3587 1.503 . S
C3595 C3594 1.370 . S
C3595 C3596 1.403 . S
C3596 C3595 1.403 . S
C3596 C3597 1.404 . S
C3596 C3599 1.539 . S
C3597 C3593 1.408 . S
C3597 C3596 1.404 . S
C3597 H3609 0.930 . S
C3598 C3594 1.524 . S
C3598 H3610 0.956 . S
C3598 H3611 0.961 . S
C3598 H3612 0.961 . S
C3599 C3596 1.539 . S
C3599 H3613 0.958 . S
C3599 H3614 0.961 . S
C3599 H3615 0.960 . S
H3600 C3584 0.931 . S
H3601 C3589 0.929 . S
H3602 C3590 0.960 . S
H3603 C3590 0.962 . S
H3604 C3590 0.960 . S
H3605 C3591 0.961 . S
H3606 C3591 0.961 . S
H3607 C3591 0.961 . S
H3608 C3592 0.931 . S
H3609 C3597 0.930 . S
H3610 C3598 0.956 . S
H3611 C3598 0.961 . S
H3612 C3598 0.961 . S
H3613 C3599 0.958 . S
H3614 C3599 0.961 . S
H3615 C3599 0.960 . S
C3616 C3617 1.391 . S
C3616 C3618 1.394 . S
C3616 H3632 0.931 . S
C3617 C3616 1.391 . S
C3617 C3621 1.376 . S
C3618 C3616 1.394 . S
C3618 C3619 1.369 . S
C3618 C3622 1.531 . S
C3619 C3618 1.369 . S
C3619 C3620 1.410 . S
C3619 C3627 1.503 . S
C3620 C3619 1.410 . S
C3620 C3621 1.392 . S
C3620 C3623 1.511 . S
C3621 C3617 1.376 . S
C3621 C3620 1.392 . S
C3621 H3633 0.929 . S
C3622 C3618 1.531 . S
C3622 H3634 0.960 . S
C3622 H3635 0.962 . S
C3622 H3636 0.960 . S
C3623 C3620 1.511 . S
C3623 H3637 0.961 . S
C3623 H3638 0.961 . S
C3623 H3639 0.961 . S
C3624 C3625 1.370 . S
C3624 C3626 1.363 . S
C3624 H3640 0.931 . S
C3625 C3624 1.370 . S
C3625 C3629 1.408 . S
C3626 C3624 1.363 . S
C3626 C3627 1.370 . S
C3626 C3630 1.524 . S
C3627 C3619 1.503 . S
C3627 C3626 1.370 . S
C3627 C3628 1.403 . S
C3628 C3627 1.403 . S
C3628 C3629 1.404 . S
C3628 C3631 1.539 . S
C3629 C3625 1.408 . S
C3629 C3628 1.404 . S
C3629 H3641 0.930 . S
C3630 C3626 1.524 . S
C3630 H3642 0.956 . S
C3630 H3643 0.961 . S
C3630 H3644 0.961 . S
C3631 C3628 1.539 . S
C3631 H3645 0.958 . S
C3631 H3646 0.961 . S
C3631 H3647 0.960 . S
H3632 C3616 0.931 . S
H3633 C3621 0.929 . S
H3634 C3622 0.960 . S
H3635 C3622 0.962 . S
H3636 C3622 0.960 . S
H3637 C3623 0.961 . S
H3638 C3623 0.961 . S
H3639 C3623 0.961 . S
H3640 C3624 0.931 . S
H3641 C3629 0.930 . S
H3642 C3630 0.956 . S
H3643 C3630 0.961 . S
H3644 C3630 0.961 . S
H3645 C3631 0.958 . S
H3646 C3631 0.961 . S
H3647 C3631 0.960 . S
C3648 C3649 1.391 . S
C3648 C3650 1.394 . S
C3648 H3664 0.931 . S
C3649 C3648 1.391 . S
C3649 C3653 1.376 . S
C3650 C3648 1.394 . S
C3650 C3651 1.369 . S
C3650 C3654 1.531 . S
C3651 C3650 1.369 . S
C3651 C3652 1.410 . S
C3651 C3659 1.503 . S
C3652 C3651 1.410 . S
C3652 C3653 1.392 . S
C3652 C3655 1.511 . S
C3653 C3649 1.376 . S
C3653 C3652 1.392 . S
C3653 H3665 0.929 . S
C3654 C3650 1.531 . S
C3654 H3666 0.960 . S
C3654 H3667 0.962 . S
C3654 H3668 0.960 . S
C3655 C3652 1.511 . S
C3655 H3669 0.961 . S
C3655 H3670 0.961 . S
C3655 H3671 0.961 . S
C3656 C3657 1.370 . S
C3656 C3658 1.363 . S
C3656 H3672 0.931 . S
C3657 C3656 1.370 . S
C3657 C3661 1.408 . S
C3658 C3656 1.363 . S
C3658 C3659 1.370 . S
C3658 C3662 1.524 . S
C3659 C3651 1.503 . S
C3659 C3658 1.370 . S
C3659 C3660 1.403 . S
C3660 C3659 1.403 . S
C3660 C3661 1.404 . S
C3660 C3663 1.539 . S
C3661 C3657 1.408 . S
C3661 C3660 1.404 . S
C3661 H3673 0.930 . S
C3662 C3658 1.524 . S
C3662 H3674 0.956 . S
C3662 H3675 0.961 . S
C3662 H3676 0.961 . S
C3663 C3660 1.539 . S
C3663 H3677 0.958 . S
C3663 H3678 0.961 . S
C3663 H3679 0.960 . S
H3664 C3648 0.931 . S
H3665 C3653 0.929 . S
H3666 C3654 0.960 . S
H3667 C3654 0.962 . S
H3668 C3654 0.960 . S
H3669 C3655 0.961 . S
H3670 C3655 0.961 . S
H3671 C3655 0.961 . S
H3672 C3656 0.931 . S
H3673 C3661 0.930 . S
H3674 C3662 0.956 . S
H3675 C3662 0.961 . S
H3676 C3662 0.961 . S
H3677 C3663 0.958 . S
H3678 C3663 0.961 . S
H3679 C3663 0.960 . S
C3680 C3681 1.391 . S
C3680 C3682 1.394 . S
C3680 H3696 0.931 . S
C3681 C3680 1.391 . S
C3681 C3685 1.376 . S
C3682 C3680 1.394 . S
C3682 C3683 1.369 . S
C3682 C3686 1.531 . S
C3683 C3682 1.369 . S
C3683 C3684 1.410 . S
C3683 C3691 1.503 . S
C3684 C3683 1.410 . S
C3684 C3685 1.392 . S
C3684 C3687 1.511 . S
C3685 C3681 1.376 . S
C3685 C3684 1.392 . S
C3685 H3697 0.929 . S
C3686 C3682 1.531 . S
C3686 H3698 0.960 . S
C3686 H3699 0.962 . S
C3686 H3700 0.960 . S
C3687 C3684 1.511 . S
C3687 H3701 0.961 . S
C3687 H3702 0.961 . S
C3687 H3703 0.961 . S
C3688 C3689 1.370 . S
C3688 C3690 1.363 . S
C3688 H3704 0.931 . S
C3689 C3688 1.370 . S
C3689 C3693 1.408 . S
C3690 C3688 1.363 . S
C3690 C3691 1.370 . S
C3690 C3694 1.524 . S
C3691 C3683 1.503 . S
C3691 C3690 1.370 . S
C3691 C3692 1.403 . S
C3692 C3691 1.403 . S
C3692 C3693 1.404 . S
C3692 C3695 1.539 . S
C3693 C3689 1.408 . S
C3693 C3692 1.404 . S
C3693 H3705 0.930 . S
C3694 C3690 1.524 . S
C3694 H3706 0.956 . S
C3694 H3707 0.961 . S
C3694 H3708 0.961 . S
C3695 C3692 1.539 . S
C3695 H3709 0.958 . S
C3695 H3710 0.961 . S
C3695 H3711 0.960 . S
H3696 C3680 0.931 . S
H3697 C3685 0.929 . S
H3698 C3686 0.960 . S
H3699 C3686 0.962 . S
H3700 C3686 0.960 . S
H3701 C3687 0.961 . S
H3702 C3687 0.961 . S
H3703 C3687 0.961 . S
H3704 C3688 0.931 . S
H3705 C3693 0.930 . S
H3706 C3694 0.956 . S
H3707 C3694 0.961 . S
H3708 C3694 0.961 . S
H3709 C3695 0.958 . S
H3710 C3695 0.961 . S
H3711 C3695 0.960 . S
C3712 C3713 1.391 . S
C3712 C3714 1.394 . S
C3712 H3728 0.931 . S
C3713 C3712 1.391 . S
C3713 C3717 1.376 . S
C3714 C3712 1.394 . S
C3714 C3715 1.369 . S
C3714 C3718 1.531 . S
C3715 C3714 1.369 . S
C3715 C3716 1.410 . S
C3715 C3723 1.503 . S
C3716 C3715 1.410 . S
C3716 C3717 1.392 . S
C3716 C3719 1.511 . S
C3717 C3713 1.376 . S
C3717 C3716 1.392 . S
C3717 H3729 0.929 . S
C3718 C3714 1.531 . S
C3718 H3730 0.960 . S
C3718 H3731 0.962 . S
C3718 H3732 0.960 . S
C3719 C3716 1.511 . S
C3719 H3733 0.961 . S
C3719 H3734 0.961 . S
C3719 H3735 0.961 . S
C3720 C3721 1.370 . S
C3720 C3722 1.363 . S
C3720 H3736 0.931 . S
C3721 C3720 1.370 . S
C3721 C3725 1.408 . S
C3722 C3720 1.363 . S
C3722 C3723 1.370 . S
C3722 C3726 1.524 . S
C3723 C3715 1.503 . S
C3723 C3722 1.370 . S
C3723 C3724 1.403 . S
C3724 C3723 1.403 . S
C3724 C3725 1.404 . S
C3724 C3727 1.539 . S
C3725 C3721 1.408 . S
C3725 C3724 1.404 . S
C3725 H3737 0.930 . S
C3726 C3722 1.524 . S
C3726 H3738 0.956 . S
C3726 H3739 0.961 . S
C3726 H3740 0.961 . S
C3727 C3724 1.539 . S
C3727 H3741 0.958 . S
C3727 H3742 0.961 . S
C3727 H3743 0.960 . S
H3728 C3712 0.931 . S
H3729 C3717 0.929 . S
H3730 C3718 0.960 . S
H3731 C3718 0.962 . S
H3732 C3718 0.960 . S
H3733 C3719 0.961 . S
H3734 C3719 0.961 . S
H3735 C3719 0.961 . S
H3736 C3720 0.931 . S
H3737 C3725 0.930 . S
H3738 C3726 0.956 . S
H3739 C3726 0.961 . S
H3740 C3726 0.961 . S
H3741 C3727 0.958 . S
H3742 C3727 0.961 . S
H3743 C3727 0.960 . S
C3744 C3745 1.391 . S
C3744 C3746 1.394 . S
C3744 H3760 0.931 . S
C3745 C3744 1.391 . S
C3745 C3749 1.376 . S
C3746 C3744 1.394 . S
C3746 C3747 1.369 . S
C3746 C3750 1.531 . S
C3747 C3746 1.369 . S
C3747 C3748 1.410 . S
C3747 C3755 1.503 . S
C3748 C3747 1.410 . S
C3748 C3749 1.392 . S
C3748 C3751 1.511 . S
C3749 C3745 1.376 . S
C3749 C3748 1.392 . S
C3749 H3761 0.929 . S
C3750 C3746 1.531 . S
C3750 H3762 0.960 . S
C3750 H3763 0.962 . S
C3750 H3764 0.960 . S
C3751 C3748 1.511 . S
C3751 H3765 0.961 . S
C3751 H3766 0.961 . S
C3751 H3767 0.961 . S
C3752 C3753 1.370 . S
C3752 C3754 1.363 . S
C3752 H3768 0.931 . S
C3753 C3752 1.370 . S
C3753 C3757 1.408 . S
C3754 C3752 1.363 . S
C3754 C3755 1.370 . S
C3754 C3758 1.524 . S
C3755 C3747 1.503 . S
C3755 C3754 1.370 . S
C3755 C3756 1.403 . S
C3756 C3755 1.403 . S
C3756 C3757 1.404 . S
C3756 C3759 1.539 . S
C3757 C3753 1.408 . S
C3757 C3756 1.404 . S
C3757 H3769 0.930 . S
C3758 C3754 1.524 . S
C3758 H3770 0.956 . S
C3758 H3771 0.961 . S
C3758 H3772 0.961 . S
C3759 C3756 1.539 . S
C3759 H3773 0.958 . S
C3759 H3774 0.961 . S
C3759 H3775 0.960 . S
H3760 C3744 0.931 . S
H3761 C3749 0.929 . S
H3762 C3750 0.960 . S
H3763 C3750 0.962 . S
H3764 C3750 0.960 . S
H3765 C3751 0.961 . S
H3766 C3751 0.961 . S
H3767 C3751 0.961 . S
H3768 C3752 0.931 . S
H3769 C3757 0.930 . S
H3770 C3758 0.956 . S
H3771 C3758 0.961 . S
H3772 C3758 0.961 . S
H3773 C3759 0.958 . S
H3774 C3759 0.961 . S
H3775 C3759 0.960 . S
C3776 C3777 1.391 . S
C3776 C3778 1.394 . S
C3776 H3792 0.931 . S
C3777 C3776 1.391 . S
C3777 C3781 1.376 . S
C3778 C3776 1.394 . S
C3778 C3779 1.369 . S
C3778 C3782 1.531 . S
C3779 C3778 1.369 . S
C3779 C3780 1.410 . S
C3779 C3787 1.503 . S
C3780 C3779 1.410 . S
C3780 C3781 1.392 . S
C3780 C3783 1.511 . S
C3781 C3777 1.376 . S
C3781 C3780 1.392 . S
C3781 H3793 0.929 . S
C3782 C3778 1.531 . S
C3782 H3794 0.960 . S
C3782 H3795 0.962 . S
C3782 H3796 0.960 . S
C3783 C3780 1.511 . S
C3783 H3797 0.961 . S
C3783 H3798 0.961 . S
C3783 H3799 0.961 . S
C3784 C3785 1.370 . S
C3784 C3786 1.363 . S
C3784 H3800 0.931 . S
C3785 C3784 1.370 . S
C3785 C3789 1.408 . S
C3786 C3784 1.363 . S
C3786 C3787 1.370 . S
C3786 C3790 1.524 . S
C3787 C3779 1.503 . S
C3787 C3786 1.370 . S
C3787 C3788 1.403 . S
C3788 C3787 1.403 . S
C3788 C3789 1.404 . S
C3788 C3791 1.539 . S
C3789 C3785 1.408 . S
C3789 C3788 1.404 . S
C3789 H3801 0.930 . S
C3790 C3786 1.524 . S
C3790 H3802 0.956 . S
C3790 H3803 0.961 . S
C3790 H3804 0.961 . S
C3791 C3788 1.539 . S
C3791 H3805 0.958 . S
C3791 H3806 0.961 . S
C3791 H3807 0.960 . S
H3792 C3776 0.931 . S
H3793 C3781 0.929 . S
H3794 C3782 0.960 . S
H3795 C3782 0.962 . S
H3796 C3782 0.960 . S
H3797 C3783 0.961 . S
H3798 C3783 0.961 . S
H3799 C3783 0.961 . S
H3800 C3784 0.931 . S
H3801 C3789 0.930 . S
H3802 C3790 0.956 . S
H3803 C3790 0.961 . S
H3804 C3790 0.961 . S
H3805 C3791 0.958 . S
H3806 C3791 0.961 . S
H3807 C3791 0.960 . S
C3808 C3809 1.391 . S
C3808 C3810 1.394 . S
C3808 H3824 0.931 . S
C3809 C3808 1.391 . S
C3809 C3813 1.376 . S
C3810 C3808 1.394 . S
C3810 C3811 1.369 . S
C3810 C3814 1.531 . S
C3811 C3810 1.369 . S
C3811 C3812 1.410 . S
C3811 C3819 1.503 . S
C3812 C3811 1.410 . S
C3812 C3813 1.392 . S
C3812 C3815 1.511 . S
C3813 C3809 1.376 . S
C3813 C3812 1.392 . S
C3813 H3825 0.929 . S
C3814 C3810 1.531 . S
C3814 H3826 0.960 . S
C3814 H3827 0.962 . S
C3814 H3828 0.960 . S
C3815 C3812 1.511 . S
C3815 H3829 0.961 . S
C3815 H3830 0.961 . S
C3815 H3831 0.961 . S
C3816 C3817 1.370 . S
C3816 C3818 1.363 . S
C3816 H3832 0.931 . S
C3817 C3816 1.370 . S
C3817 C3821 1.408 . S
C3818 C3816 1.363 . S
C3818 C3819 1.370 . S
C3818 C3822 1.524 . S
C3819 C3811 1.503 . S
C3819 C3818 1.370 . S
C3819 C3820 1.403 . S
C3820 C3819 1.403 . S
C3820 C3821 1.404 . S
C3820 C3823 1.539 . S
C3821 C3817 1.408 . S
C3821 C3820 1.404 . S
C3821 H3833 0.930 . S
C3822 C3818 1.524 . S
C3822 H3834 0.956 . S
C3822 H3835 0.961 . S
C3822 H3836 0.961 . S
C3823 C3820 1.539 . S
C3823 H3837 0.958 . S
C3823 H3838 0.961 . S
C3823 H3839 0.960 . S
H3824 C3808 0.931 . S
H3825 C3813 0.929 . S
H3826 C3814 0.960 . S
H3827 C3814 0.962 . S
H3828 C3814 0.960 . S
H3829 C3815 0.961 . S
H3830 C3815 0.961 . S
H3831 C3815 0.961 . S
H3832 C3816 0.931 . S
H3833 C3821 0.930 . S
H3834 C3822 0.956 . S
H3835 C3822 0.961 . S
H3836 C3822 0.961 . S
H3837 C3823 0.958 . S
H3838 C3823 0.961 . S
H3839 C3823 0.960 . S
C3840 C3841 1.391 . S
C3840 C3842 1.394 . S
C3840 H3856 0.931 . S
C3841 C3840 1.391 . S
C3841 C3845 1.376 . S
C3842 C3840 1.394 . S
C3842 C3843 1.369 . S
C3842 C3846 1.531 . S
C3843 C3842 1.369 . S
C3843 C3844 1.410 . S
C3843 C3851 1.503 . S
C3844 C3843 1.410 . S
C3844 C3845 1.392 . S
C3844 C3847 1.511 . S
C3845 C3841 1.376 . S
C3845 C3844 1.392 . S
C3845 H3857 0.929 . S
C3846 C3842 1.531 . S
C3846 H3858 0.960 . S
C3846 H3859 0.962 . S
C3846 H3860 0.960 . S
C3847 C3844 1.511 . S
C3847 H3861 0.961 . S
C3847 H3862 0.961 . S
C3847 H3863 0.961 . S
C3848 C3849 1.370 . S
C3848 C3850 1.363 . S
C3848 H3864 0.931 . S
C3849 C3848 1.370 . S
C3849 C3853 1.408 . S
C3850 C3848 1.363 . S
C3850 C3851 1.370 . S
C3850 C3854 1.524 . S
C3851 C3843 1.503 . S
C3851 C3850 1.370 . S
C3851 C3852 1.403 . S
C3852 C3851 1.403 . S
C3852 C3853 1.404 . S
C3852 C3855 1.539 . S
C3853 C3849 1.408 . S
C3853 C3852 1.404 . S
C3853 H3865 0.930 . S
C3854 C3850 1.524 . S
C3854 H3866 0.956 . S
C3854 H3867 0.961 . S
C3854 H3868 0.961 . S
C3855 C3852 1.539 . S
C3855 H3869 0.958 . S
C3855 H3870 0.961 . S
C3855 H3871 0.960 . S
H3856 C3840 0.931 . S
H3857 C3845 0.929 . S
H3858 C3846 0.960 . S
H3859 C3846 0.962 . S
H3860 C3846 0.960 . S
H3861 C3847 0.961 . S
H3862 C3847 0.961 . S
H3863 C3847 0.961 . S
H3864 C3848 0.931 . S
H3865 C3853 0.930 . S
H3866 C3854 0.956 . S
H3867 C3854 0.961 . S
H3868 C3854 0.961 . S
H3869 C3855 0.958 . S
H3870 C3855 0.961 . S
H3871 C3855 0.960 . S
C3872 C3873 1.391 . S
C3872 C3874 1.394 . S
C3872 H3888 0.931 . S
C3873 C3872 1.391 . S
C3873 C3877 1.376 . S
C3874 C3872 1.394 . S
C3874 C3875 1.369 . S
C3874 C3878 1.531 . S
C3875 C3874 1.369 . S
C3875 C3876 1.410 . S
C3875 C3883 1.503 . S
C3876 C3875 1.410 . S
C3876 C3877 1.392 . S
C3876 C3879 1.511 . S
C3877 C3873 1.376 . S
C3877 C3876 1.392 . S
C3877 H3889 0.929 . S
C3878 C3874 1.531 . S
C3878 H3890 0.960 . S
C3878 H3891 0.962 . S
C3878 H3892 0.960 . S
C3879 C3876 1.511 . S
C3879 H3893 0.961 . S
C3879 H3894 0.961 . S
C3879 H3895 0.961 . S
C3880 C3881 1.370 . S
C3880 C3882 1.363 . S
C3880 H3896 0.931 . S
C3881 C3880 1.370 . S
C3881 C3885 1.408 . S
C3882 C3880 1.363 . S
C3882 C3883 1.370 . S
C3882 C3886 1.524 . S
C3883 C3875 1.503 . S
C3883 C3882 1.370 . S
C3883 C3884 1.403 . S
C3884 C3883 1.403 . S
C3884 C3885 1.404 . S
C3884 C3887 1.539 . S
C3885 C3881 1.408 . S
C3885 C3884 1.404 . S
C3885 H3897 0.930 . S
C3886 C3882 1.524 . S
C3886 H3898 0.956 . S
C3886 H3899 0.961 . S
C3886 H3900 0.961 . S
C3887 C3884 1.539 . S
C3887 H3901 0.958 . S
C3887 H3902 0.961 . S
C3887 H3903 0.960 . S
H3888 C3872 0.931 . S
H3889 C3877 0.929 . S
H3890 C3878 0.960 . S
H3891 C3878 0.962 . S
H3892 C3878 0.960 . S
H3893 C3879 0.961 . S
H3894 C3879 0.961 . S
H3895 C3879 0.961 . S
H3896 C3880 0.931 . S
H3897 C3885 0.930 . S
H3898 C3886 0.956 . S
H3899 C3886 0.961 . S
H3900 C3886 0.961 . S
H3901 C3887 0.958 . S
H3902 C3887 0.961 . S
H3903 C3887 0.960 . S
C3904 C3905 1.391 . S
C3904 C3906 1.394 . S
C3904 H3920 0.931 . S
C3905 C3904 1.391 . S
C3905 C3909 1.376 . S
C3906 C3904 1.394 . S
C3906 C3907 1.369 . S
C3906 C3910 1.531 . S
C3907 C3906 1.369 . S
C3907 C3908 1.410 . S
C3907 C3915 1.503 . S
C3908 C3907 1.410 . S
C3908 C3909 1.392 . S
C3908 C3911 1.511 . S
C3909 C3905 1.376 . S
C3909 C3908 1.392 . S
C3909 H3921 0.929 . S
C3910 C3906 1.531 . S
C3910 H3922 0.960 . S
C3910 H3923 0.962 . S
C3910 H3924 0.960 . S
C3911 C3908 1.511 . S
C3911 H3925 0.961 . S
C3911 H3926 0.961 . S
C3911 H3927 0.961 . S
C3912 C3913 1.370 . S
C3912 C3914 1.363 . S
C3912 H3928 0.931 . S
C3913 C3912 1.370 . S
C3913 C3917 1.408 . S
C3914 C3912 1.363 . S
C3914 C3915 1.370 . S
C3914 C3918 1.524 . S
C3915 C3907 1.503 . S
C3915 C3914 1.370 . S
C3915 C3916 1.403 . S
C3916 C3915 1.403 . S
C3916 C3917 1.404 . S
C3916 C3919 1.539 . S
C3917 C3913 1.408 . S
C3917 C3916 1.404 . S
C3917 H3929 0.930 . S
C3918 C3914 1.524 . S
C3918 H3930 0.956 . S
C3918 H3931 0.961 . S
C3918 H3932 0.961 . S
C3919 C3916 1.539 . S
C3919 H3933 0.958 . S
C3919 H3934 0.961 . S
C3919 H3935 0.960 . S
H3920 C3904 0.931 . S
H3921 C3909 0.929 . S
H3922 C3910 0.960 . S
H3923 C3910 0.962 . S
H3924 C3910 0.960 . S
H3925 C3911 0.961 . S
H3926 C3911 0.961 . S
H3927 C3911 0.961 . S
H3928 C3912 0.931 . S
H3929 C3917 0.930 . S
H3930 C3918 0.956 . S
H3931 C3918 0.961 . S
H3932 C3918 0.961 . S
H3933 C3919 0.958 . S
H3934 C3919 0.961 . S
H3935 C3919 0.960 . S
C3936 C3937 1.391 . S
C3936 C3938 1.394 . S
C3936 H3952 0.931 . S
C3937 C3936 1.391 . S
C3937 C3941 1.376 . S
C3938 C3936 1.394 . S
C3938 C3939 1.369 . S
C3938 C3942 1.531 . S
C3939 C3938 1.369 . S
C3939 C3940 1.410 . S
C3939 C3947 1.503 . S
C3940 C3939 1.410 . S
C3940 C3941 1.392 . S
C3940 C3943 1.511 . S
C3941 C3937 1.376 . S
C3941 C3940 1.392 . S
C3941 H3953 0.929 . S
C3942 C3938 1.531 . S
C3942 H3954 0.960 . S
C3942 H3955 0.962 . S
C3942 H3956 0.960 . S
C3943 C3940 1.511 . S
C3943 H3957 0.961 . S
C3943 H3958 0.961 . S
C3943 H3959 0.961 . S
C3944 C3945 1.370 . S
C3944 C3946 1.363 . S
C3944 H3960 0.931 . S
C3945 C3944 1.370 . S
C3945 C3949 1.408 . S
C3946 C3944 1.363 . S
C3946 C3947 1.370 . S
C3946 C3950 1.524 . S
C3947 C3939 1.503 . S
C3947 C3946 1.370 . S
C3947 C3948 1.403 . S
C3948 C3947 1.403 . S
C3948 C3949 1.404 . S
C3948 C3951 1.539 . S
C3949 C3945 1.408 . S
C3949 C3948 1.404 . S
C3949 H3961 0.930 . S
C3950 C3946 1.524 . S
C3950 H3962 0.956 . S
C3950 H3963 0.961 . S
C3950 H3964 0.961 . S
C3951 C3948 1.539 . S
C3951 H3965 0.958 . S
C3951 H3966 0.961 . S
C3951 H3967 0.960 . S
H3952 C3936 0.931 . S
H3953 C3941 0.929 . S
H3954 C3942 0.960 . S
H3955 C3942 0.962 . S
H3956 C3942 0.960 . S
H3957 C3943 0.961 . S
H3958 C3943 0.961 . S
H3959 C3943 0.961 . S
H3960 C3944 0.931 . S
H3961 C3949 0.930 . S
H3962 C3950 0.956 . S
H3963 C3950 0.961 . S
H3964 C3950 0.961 . S
H3965 C3951 0.958 . S
H3966 C3951 0.961 . S
H3967 C3951 0.960 . S
C3968 C3969 1.391 . S
C3968 C3970 1.394 . S
C3968 H3984 0.931 . S
C3969 C3968 1.391 . S
C3969 C3973 1.376 . S
C3970 C3968 1.394 . S
C3970 C3971 1.369 . S
C3970 C3974 1.531 . S
C3971 C3970 1.369 . S
C3971 C3972 1.410 . S
C3971 C3979 1.503 . S
C3972 C3971 1.410 . S
C3972 C3973 1.392 . S
C3972 C3975 1.511 . S
C3973 C3969 1.376 . S
C3973 C3972 1.392 . S
C3973 H3985 0.929 . S
C3974 C3970 1.531 . S
C3974 H3986 0.960 . S
C3974 H3987 0.962 . S
C3974 H3988 0.960 . S
C3975 C3972 1.511 . S
C3975 H3989 0.961 . S
C3975 H3990 0.961 . S
C3975 H3991 0.961 . S
C3976 C3977 1.370 . S
C3976 C3978 1.363 . S
C3976 H3992 0.931 . S
C3977 C3976 1.370 . S
C3977 C3981 1.408 . S
C3978 C3976 1.363 . S
C3978 C3979 1.370 . S
C3978 C3982 1.524 . S
C3979 C3971 1.503 . S
C3979 C3978 1.370 . S
C3979 C3980 1.403 . S
C3980 C3979 1.403 . S
C3980 C3981 1.404 . S
C3980 C3983 1.539 . S
C3981 C3977 1.408 . S
C3981 C3980 1.404 . S
C3981 H3993 0.930 . S
C3982 C3978 1.524 . S
C3982 H3994 0.956 . S
C3982 H3995 0.961 . S
C3982 H3996 0.961 . S
C3983 C3980 1.539 . S
C3983 H3997 0.958 . S
C3983 H3998 0.961 . S
C3983 H3999 0.960 . S
H3984 C3968 0.931 . S
H3985 C3973 0.929 . S
H3986 C3974 0.960 . S
H3987 C3974 0.962 . S
H3988 C3974 0.960 . S
H3989 C3975 0.961 . S
H3990 C3975 0.961 . S
H3991 C3975 0.961 . S
H3992 C3976 0.931 . S
H3993 C3981 0.930 . S
H3994 C3982 0.956 . S
H3995 C3982 0.961 . S
H3996 C3982 0.961 . S
H3997 C3983 0.958 . S
H3998 C3983 0.961 . S
H3999 C3983 0.960 . S
C4000 C4001 1.391 . S
C4000 C4002 1.394 . S
C4000 H4016 0.931 . S
C4001 C4000 1.391 . S
C4001 C4005 1.376 . S
C4002 C4000 1.394 . S
C4002 C4003 1.369 . S
C4002 C4006 1.531 . S
C4003 C4002 1.369 . S
C4003 C4004 1.410 . S
C4003 C4011 1.503 . S
C4004 C4003 1.410 . S
C4004 C4005 1.392 . S
C4004 C4007 1.511 . S
C4005 C4001 1.376 . S
C4005 C4004 1.392 . S
C4005 H4017 0.929 . S
C4006 C4002 1.531 . S
C4006 H4018 0.960 . S
C4006 H4019 0.962 . S
C4006 H4020 0.960 . S
C4007 C4004 1.511 . S
C4007 H4021 0.961 . S
C4007 H4022 0.961 . S
C4007 H4023 0.961 . S
C4008 C4009 1.370 . S
C4008 C4010 1.363 . S
C4008 H4024 0.931 . S
C4009 C4008 1.370 . S
C4009 C4013 1.408 . S
C4010 C4008 1.363 . S
C4010 C4011 1.370 . S
C4010 C4014 1.524 . S
C4011 C4003 1.503 . S
C4011 C4010 1.370 . S
C4011 C4012 1.403 . S
C4012 C4011 1.403 . S
C4012 C4013 1.404 . S
C4012 C4015 1.539 . S
C4013 C4009 1.408 . S
C4013 C4012 1.404 . S
C4013 H4025 0.930 . S
C4014 C4010 1.524 . S
C4014 H4026 0.956 . S
C4014 H4027 0.961 . S
C4014 H4028 0.961 . S
C4015 C4012 1.539 . S
C4015 H4029 0.958 . S
C4015 H4030 0.961 . S
C4015 H4031 0.960 . S
H4016 C4000 0.931 . S
H4017 C4005 0.929 . S
H4018 C4006 0.960 . S
H4019 C4006 0.962 . S
H4020 C4006 0.960 . S
H4021 C4007 0.961 . S
H4022 C4007 0.961 . S
H4023 C4007 0.961 . S
H4024 C4008 0.931 . S
H4025 C4013 0.930 . S
H4026 C4014 0.956 . S
H4027 C4014 0.961 . S
H4028 C4014 0.961 . S
H4029 C4015 0.958 . S
H4030 C4015 0.961 . S
H4031 C4015 0.960 . S
C4032 C4033 1.391 . S
C4032 C4034 1.394 . S
C4032 H4048 0.931 . S
C4033 C4032 1.391 . S
C4033 C4037 1.376 . S
C4034 C4032 1.394 . S
C4034 C4035 1.369 . S
C4034 C4038 1.531 . S
C4035 C4034 1.369 . S
C4035 C4036 1.410 . S
C4035 C4043 1.503 . S
C4036 C4035 1.410 . S
C4036 C4037 1.392 . S
C4036 C4039 1.511 . S
C4037 C4033 1.376 . S
C4037 C4036 1.392 . S
C4037 H4049 0.929 . S
C4038 C4034 1.531 . S
C4038 H4050 0.960 . S
C4038 H4051 0.962 . S
C4038 H4052 0.960 . S
C4039 C4036 1.511 . S
C4039 H4053 0.961 . S
C4039 H4054 0.961 . S
C4039 H4055 0.961 . S
C4040 C4041 1.370 . S
C4040 C4042 1.363 . S
C4040 H4056 0.931 . S
C4041 C4040 1.370 . S
C4041 C4045 1.408 . S
C4042 C4040 1.363 . S
C4042 C4043 1.370 . S
C4042 C4046 1.524 . S
C4043 C4035 1.503 . S
C4043 C4042 1.370 . S
C4043 C4044 1.403 . S
C4044 C4043 1.403 . S
C4044 C4045 1.404 . S
C4044 C4047 1.539 . S
C4045 C4041 1.408 . S
C4045 C4044 1.404 . S
C4045 H4057 0.930 . S
C4046 C4042 1.524 . S
C4046 H4058 0.956 . S
C4046 H4059 0.961 . S
C4046 H4060 0.961 . S
C4047 C4044 1.539 . S
C4047 H4061 0.958 . S
C4047 H4062 0.961 . S
C4047 H4063 0.960 . S
H4048 C4032 0.931 . S
H4049 C4037 0.929 . S
H4050 C4038 0.960 . S
H4051 C4038 0.962 . S
H4052 C4038 0.960 . S
H4053 C4039 0.961 . S
H4054 C4039 0.961 . S
H4055 C4039 0.961 . S
H4056 C4040 0.931 . S
H4057 C4045 0.930 . S
H4058 C4046 0.956 . S
H4059 C4046 0.961 . S
H4060 C4046 0.961 . S
H4061 C4047 0.958 . S
H4062 C4047 0.961 . S
H4063 C4047 0.960 . S
C4064 C4065 1.391 . S
C4064 C4066 1.394 . S
C4064 H4080 0.931 . S
C4065 C4064 1.391 . S
C4065 C4069 1.376 . S
C4066 C4064 1.394 . S
C4066 C4067 1.369 . S
C4066 C4070 1.531 . S
C4067 C4066 1.369 . S
C4067 C4068 1.410 . S
C4067 C4075 1.503 . S
C4068 C4067 1.410 . S
C4068 C4069 1.392 . S
C4068 C4071 1.511 . S
C4069 C4065 1.376 . S
C4069 C4068 1.392 . S
C4069 H4081 0.929 . S
C4070 C4066 1.531 . S
C4070 H4082 0.960 . S
C4070 H4083 0.962 . S
C4070 H4084 0.960 . S
C4071 C4068 1.511 . S
C4071 H4085 0.961 . S
C4071 H4086 0.961 . S
C4071 H4087 0.961 . S
C4072 C4073 1.370 . S
C4072 C4074 1.363 . S
C4072 H4088 0.931 . S
C4073 C4072 1.370 . S
C4073 C4077 1.408 . S
C4074 C4072 1.363 . S
C4074 C4075 1.370 . S
C4074 C4078 1.524 . S
C4075 C4067 1.503 . S
C4075 C4074 1.370 . S
C4075 C4076 1.403 . S
C4076 C4075 1.403 . S
C4076 C4077 1.404 . S
C4076 C4079 1.539 . S
C4077 C4073 1.408 . S
C4077 C4076 1.404 . S
C4077 H4089 0.930 . S
C4078 C4074 1.524 . S
C4078 H4090 0.956 . S
C4078 H4091 0.961 . S
C4078 H4092 0.961 . S
C4079 C4076 1.539 . S
C4079 H4093 0.958 . S
C4079 H4094 0.961 . S
C4079 H4095 0.960 . S
H4080 C4064 0.931 . S
H4081 C4069 0.929 . S
H4082 C4070 0.960 . S
H4083 C4070 0.962 . S
H4084 C4070 0.960 . S
H4085 C4071 0.961 . S
H4086 C4071 0.961 . S
H4087 C4071 0.961 . S
H4088 C4072 0.931 . S
H4089 C4077 0.930 . S
H4090 C4078 0.956 . S
H4091 C4078 0.961 . S
H4092 C4078 0.961 . S
H4093 C4079 0.958 . S
H4094 C4079 0.961 . S
H4095 C4079 0.960 . S
C4096 C4097 1.391 . S
C4096 C4098 1.394 . S
C4096 H4112 0.931 . S
C4097 C4096 1.391 . S
C4097 C4101 1.376 . S
C4098 C4096 1.394 . S
C4098 C4099 1.369 . S
C4098 C4102 1.531 . S
C4099 C4098 1.369 . S
C4099 C4100 1.410 . S
C4099 C4107 1.503 . S
C4100 C4099 1.410 . S
C4100 C4101 1.392 . S
C4100 C4103 1.511 . S
C4101 C4097 1.376 . S
C4101 C4100 1.392 . S
C4101 H4113 0.929 . S
C4102 C4098 1.531 . S
C4102 H4114 0.960 . S
C4102 H4115 0.962 . S
C4102 H4116 0.960 . S
C4103 C4100 1.511 . S
C4103 H4117 0.961 . S
C4103 H4118 0.961 . S
C4103 H4119 0.961 . S
C4104 C4105 1.370 . S
C4104 C4106 1.363 . S
C4104 H4120 0.931 . S
C4105 C4104 1.370 . S
C4105 C4109 1.408 . S
C4106 C4104 1.363 . S
C4106 C4107 1.370 . S
C4106 C4110 1.524 . S
C4107 C4099 1.503 . S
C4107 C4106 1.370 . S
C4107 C4108 1.403 . S
C4108 C4107 1.403 . S
C4108 C4109 1.404 . S
C4108 C4111 1.539 . S
C4109 C4105 1.408 . S
C4109 C4108 1.404 . S
C4109 H4121 0.930 . S
C4110 C4106 1.524 . S
C4110 H4122 0.956 . S
C4110 H4123 0.961 . S
C4110 H4124 0.961 . S
C4111 C4108 1.539 . S
C4111 H4125 0.958 . S
C4111 H4126 0.961 . S
C4111 H4127 0.960 . S
H4112 C4096 0.931 . S
H4113 C4101 0.929 . S
H4114 C4102 0.960 . S
H4115 C4102 0.962 . S
H4116 C4102 0.960 . S
H4117 C4103 0.961 . S
H4118 C4103 0.961 . S
H4119 C4103 0.961 . S
H4120 C4104 0.931 . S
H4121 C4109 0.930 . S
H4122 C4110 0.956 . S
H4123 C4110 0.961 . S
H4124 C4110 0.961 . S
H4125 C4111 0.958 . S
H4126 C4111 0.961 . S
H4127 C4111 0.960 . S
C4128 C4129 1.391 . S
C4128 C4130 1.394 . S
C4128 H4144 0.931 . S
C4129 C4128 1.391 . S
C4129 C4133 1.376 . S
C4130 C4128 1.394 . S
C4130 C4131 1.369 . S
C4130 C4134 1.531 . S
C4131 C4130 1.369 . S
C4131 C4132 1.410 . S
C4131 C4139 1.503 . S
C4132 C4131 1.410 . S
C4132 C4133 1.392 . S
C4132 C4135 1.511 . S
C4133 C4129 1.376 . S
C4133 C4132 1.392 . S
C4133 H4145 0.929 . S
C4134 C4130 1.531 . S
C4134 H4146 0.960 . S
C4134 H4147 0.962 . S
C4134 H4148 0.960 . S
C4135 C4132 1.511 . S
C4135 H4149 0.961 . S
C4135 H4150 0.961 . S
C4135 H4151 0.961 . S
C4136 C4137 1.370 . S
C4136 C4138 1.363 . S
C4136 H4152 0.931 . S
C4137 C4136 1.370 . S
C4137 C4141 1.408 . S
C4138 C4136 1.363 . S
C4138 C4139 1.370 . S
C4138 C4142 1.524 . S
C4139 C4131 1.503 . S
C4139 C4138 1.370 . S
C4139 C4140 1.403 . S
C4140 C4139 1.403 . S
C4140 C4141 1.404 . S
C4140 C4143 1.539 . S
C4141 C4137 1.408 . S
C4141 C4140 1.404 . S
C4141 H4153 0.930 . S
C4142 C4138 1.524 . S
C4142 H4154 0.956 . S
C4142 H4155 0.961 . S
C4142 H4156 0.961 . S
C4143 C4140 1.539 . S
C4143 H4157 0.958 . S
C4143 H4158 0.961 . S
C4143 H4159 0.960 . S
H4144 C4128 0.931 . S
H4145 C4133 0.929 . S
H4146 C4134 0.960 . S
H4147 C4134 0.962 . S
H4148 C4134 0.960 . S
H4149 C4135 0.961 . S
H4150 C4135 0.961 . S
H4151 C4135 0.961 . S
H4152 C4136 0.931 . S
H4153 C4141 0.930 . S
H4154 C4142 0.956 . S
H4155 C4142 0.961 . S
H4156 C4142 0.961 . S
H4157 C4143 0.958 . S
H4158 C4143 0.961 . S
H4159 C4143 0.960 . S
C4160 C4161 1.391 . S
C4160 C4162 1.394 . S
C4160 H4176 0.931 . S
C4161 C4160 1.391 . S
C4161 C4165 1.376 . S
C4162 C4160 1.394 . S
C4162 C4163 1.369 . S
C4162 C4166 1.531 . S
C4163 C4162 1.369 . S
C4163 C4164 1.410 . S
C4163 C4171 1.503 . S
C4164 C4163 1.410 . S
C4164 C4165 1.392 . S
C4164 C4167 1.511 . S
C4165 C4161 1.376 . S
C4165 C4164 1.392 . S
C4165 H4177 0.929 . S
C4166 C4162 1.531 . S
C4166 H4178 0.960 . S
C4166 H4179 0.962 . S
C4166 H4180 0.960 . S
C4167 C4164 1.511 . S
C4167 H4181 0.961 . S
C4167 H4182 0.961 . S
C4167 H4183 0.961 . S
C4168 C4169 1.370 . S
C4168 C4170 1.363 . S
C4168 H4184 0.931 . S
C4169 C4168 1.370 . S
C4169 C4173 1.408 . S
C4170 C4168 1.363 . S
C4170 C4171 1.370 . S
C4170 C4174 1.524 . S
C4171 C4163 1.503 . S
C4171 C4170 1.370 . S
C4171 C4172 1.403 . S
C4172 C4171 1.403 . S
C4172 C4173 1.404 . S
C4172 C4175 1.539 . S
C4173 C4169 1.408 . S
C4173 C4172 1.404 . S
C4173 H4185 0.930 . S
C4174 C4170 1.524 . S
C4174 H4186 0.956 . S
C4174 H4187 0.961 . S
C4174 H4188 0.961 . S
C4175 C4172 1.539 . S
C4175 H4189 0.958 . S
C4175 H4190 0.961 . S
C4175 H4191 0.960 . S
H4176 C4160 0.931 . S
H4177 C4165 0.929 . S
H4178 C4166 0.960 . S
H4179 C4166 0.962 . S
H4180 C4166 0.960 . S
H4181 C4167 0.961 . S
H4182 C4167 0.961 . S
H4183 C4167 0.961 . S
H4184 C4168 0.931 . S
H4185 C4173 0.930 . S
H4186 C4174 0.956 . S
H4187 C4174 0.961 . S
H4188 C4174 0.961 . S
H4189 C4175 0.958 . S
H4190 C4175 0.961 . S
H4191 C4175 0.960 . S
C4192 C4193 1.391 . S
C4192 C4194 1.394 . S
C4192 H4208 0.931 . S
C4193 C4192 1.391 . S
C4193 C4197 1.376 . S
C4194 C4192 1.394 . S
C4194 C4195 1.369 . S
C4194 C4198 1.531 . S
C4195 C4194 1.369 . S
C4195 C4196 1.410 . S
C4195 C4203 1.503 . S
C4196 C4195 1.410 . S
C4196 C4197 1.392 . S
C4196 C4199 1.511 . S
C4197 C4193 1.376 . S
C4197 C4196 1.392 . S
C4197 H4209 0.929 . S
C4198 C4194 1.531 . S
C4198 H4210 0.960 . S
C4198 H4211 0.962 . S
C4198 H4212 0.960 . S
C4199 C4196 1.511 . S
C4199 H4213 0.961 . S
C4199 H4214 0.961 . S
C4199 H4215 0.961 . S
C4200 C4201 1.370 . S
C4200 C4202 1.363 . S
C4200 H4216 0.931 . S
C4201 C4200 1.370 . S
C4201 C4205 1.408 . S
C4202 C4200 1.363 . S
C4202 C4203 1.370 . S
C4202 C4206 1.524 . S
C4203 C4195 1.503 . S
C4203 C4202 1.370 . S
C4203 C4204 1.403 . S
C4204 C4203 1.403 . S
C4204 C4205 1.404 . S
C4204 C4207 1.539 . S
C4205 C4201 1.408 . S
C4205 C4204 1.404 . S
C4205 H4217 0.930 . S
C4206 C4202 1.524 . S
C4206 H4218 0.956 . S
C4206 H4219 0.961 . S
C4206 H4220 0.961 . S
C4207 C4204 1.539 . S
C4207 H4221 0.958 . S
C4207 H4222 0.961 . S
C4207 H4223 0.960 . S
H4208 C4192 0.931 . S
H4209 C4197 0.929 . S
H4210 C4198 0.960 . S
H4211 C4198 0.962 . S
H4212 C4198 0.960 . S
H4213 C4199 0.961 . S
H4214 C4199 0.961 . S
H4215 C4199 0.961 . S
H4216 C4200 0.931 . S
H4217 C4205 0.930 . S
H4218 C4206 0.956 . S
H4219 C4206 0.961 . S
H4220 C4206 0.961 . S
H4221 C4207 0.958 . S
H4222 C4207 0.961 . S
H4223 C4207 0.960 . S
C4224 C4225 1.391 . S
C4224 C4226 1.394 . S
C4224 H4240 0.931 . S
C4225 C4224 1.391 . S
C4225 C4229 1.376 . S
C4226 C4224 1.394 . S
C4226 C4227 1.369 . S
C4226 C4230 1.531 . S
C4227 C4226 1.369 . S
C4227 C4228 1.410 . S
C4227 C4235 1.503 . S
C4228 C4227 1.410 . S
C4228 C4229 1.392 . S
C4228 C4231 1.511 . S
C4229 C4225 1.376 . S
C4229 C4228 1.392 . S
C4229 H4241 0.929 . S
C4230 C4226 1.531 . S
C4230 H4242 0.960 . S
C4230 H4243 0.962 . S
C4230 H4244 0.960 . S
C4231 C4228 1.511 . S
C4231 H4245 0.961 . S
C4231 H4246 0.961 . S
C4231 H4247 0.961 . S
C4232 C4233 1.370 . S
C4232 C4234 1.363 . S
C4232 H4248 0.931 . S
C4233 C4232 1.370 . S
C4233 C4237 1.408 . S
C4234 C4232 1.363 . S
C4234 C4235 1.370 . S
C4234 C4238 1.524 . S
C4235 C4227 1.503 . S
C4235 C4234 1.370 . S
C4235 C4236 1.403 . S
C4236 C4235 1.403 . S
C4236 C4237 1.404 . S
C4236 C4239 1.539 . S
C4237 C4233 1.408 . S
C4237 C4236 1.404 . S
C4237 H4249 0.930 . S
C4238 C4234 1.524 . S
C4238 H4250 0.956 . S
C4238 H4251 0.961 . S
C4238 H4252 0.961 . S
C4239 C4236 1.539 . S
C4239 H4253 0.958 . S
C4239 H4254 0.961 . S
C4239 H4255 0.960 . S
H4240 C4224 0.931 . S
H4241 C4229 0.929 . S
H4242 C4230 0.960 . S
H4243 C4230 0.962 . S
H4244 C4230 0.960 . S
H4245 C4231 0.961 . S
H4246 C4231 0.961 . S
H4247 C4231 0.961 . S
H4248 C4232 0.931 . S
H4249 C4237 0.930 . S
H4250 C4238 0.956 . S
H4251 C4238 0.961 . S
H4252 C4238 0.961 . S
H4253 C4239 0.958 . S
H4254 C4239 0.961 . S
H4255 C4239 0.960 . S
C4256 C4257 1.391 . S
C4256 C4258 1.394 . S
C4256 H4272 0.931 . S
C4257 C4256 1.391 . S
C4257 C4261 1.376 . S
C4258 C4256 1.394 . S
C4258 C4259 1.369 . S
C4258 C4262 1.531 . S
C4259 C4258 1.369 . S
C4259 C4260 1.410 . S
C4259 C4267 1.503 . S
C4260 C4259 1.410 . S
C4260 C4261 1.392 . S
C4260 C4263 1.511 . S
C4261 C4257 1.376 . S
C4261 C4260 1.392 . S
C4261 H4273 0.929 . S
C4262 C4258 1.531 . S
C4262 H4274 0.960 . S
C4262 H4275 0.962 . S
C4262 H4276 0.960 . S
C4263 C4260 1.511 . S
C4263 H4277 0.961 . S
C4263 H4278 0.961 . S
C4263 H4279 0.961 . S
C4264 C4265 1.370 . S
C4264 C4266 1.363 . S
C4264 H4280 0.931 . S
C4265 C4264 1.370 . S
C4265 C4269 1.408 . S
C4266 C4264 1.363 . S
C4266 C4267 1.370 . S
C4266 C4270 1.524 . S
C4267 C4259 1.503 . S
C4267 C4266 1.370 . S
C4267 C4268 1.403 . S
C4268 C4267 1.403 . S
C4268 C4269 1.404 . S
C4268 C4271 1.539 . S
C4269 C4265 1.408 . S
C4269 C4268 1.404 . S
C4269 H4281 0.930 . S
C4270 C4266 1.524 . S
C4270 H4282 0.956 . S
C4270 H4283 0.961 . S
C4270 H4284 0.961 . S
C4271 C4268 1.539 . S
C4271 H4285 0.958 . S
C4271 H4286 0.961 . S
C4271 H4287 0.960 . S
H4272 C4256 0.931 . S
H4273 C4261 0.929 . S
H4274 C4262 0.960 . S
H4275 C4262 0.962 . S
H4276 C4262 0.960 . S
H4277 C4263 0.961 . S
H4278 C4263 0.961 . S
H4279 C4263 0.961 . S
H4280 C4264 0.931 . S
H4281 C4269 0.930 . S
H4282 C4270 0.956 . S
H4283 C4270 0.961 . S
H4284 C4270 0.961 . S
H4285 C4271 0.958 . S
H4286 C4271 0.961 . S
H4287 C4271 0.960 . S
C4288 C4289 1.391 . S
C4288 C4290 1.394 . S
C4288 H4304 0.931 . S
C4289 C4288 1.391 . S
C4289 C4293 1.376 . S
C4290 C4288 1.394 . S
C4290 C4291 1.369 . S
C4290 C4294 1.531 . S
C4291 C4290 1.369 . S
C4291 C4292 1.410 . S
C4291 C4299 1.503 . S
C4292 C4291 1.410 . S
C4292 C4293 1.392 . S
C4292 C4295 1.511 . S
C4293 C4289 1.376 . S
C4293 C4292 1.392 . S
C4293 H4305 0.929 . S
C4294 C4290 1.531 . S
C4294 H4306 0.960 . S
C4294 H4307 0.962 . S
C4294 H4308 0.960 . S
C4295 C4292 1.511 . S
C4295 H4309 0.961 . S
C4295 H4310 0.961 . S
C4295 H4311 0.961 . S
C4296 C4297 1.370 . S
C4296 C4298 1.363 . S
C4296 H4312 0.931 . S
C4297 C4296 1.370 . S
C4297 C4301 1.408 . S
C4298 C4296 1.363 . S
C4298 C4299 1.370 . S
C4298 C4302 1.524 . S
C4299 C4291 1.503 . S
C4299 C4298 1.370 . S
C4299 C4300 1.403 . S
C4300 C4299 1.403 . S
C4300 C4301 1.404 . S
C4300 C4303 1.539 . S
C4301 C4297 1.408 . S
C4301 C4300 1.404 . S
C4301 H4313 0.930 . S
C4302 C4298 1.524 . S
C4302 H4314 0.956 . S
C4302 H4315 0.961 . S
C4302 H4316 0.961 . S
C4303 C4300 1.539 . S
C4303 H4317 0.958 . S
C4303 H4318 0.961 . S
C4303 H4319 0.960 . S
H4304 C4288 0.931 . S
H4305 C4293 0.929 . S
H4306 C4294 0.960 . S
H4307 C4294 0.962 . S
H4308 C4294 0.960 . S
H4309 C4295 0.961 . S
H4310 C4295 0.961 . S
H4311 C4295 0.961 . S
H4312 C4296 0.931 . S
H4313 C4301 0.930 . S
H4314 C4302 0.956 . S
H4315 C4302 0.961 . S
H4316 C4302 0.961 . S
H4317 C4303 0.958 . S
H4318 C4303 0.961 . S
H4319 C4303 0.960 . S
C4320 C4321 1.391 . S
C4320 C4322 1.394 . S
C4320 H4336 0.931 . S
C4321 C4320 1.391 . S
C4321 C4325 1.376 . S
C4322 C4320 1.394 . S
C4322 C4323 1.369 . S
C4322 C4326 1.531 . S
C4323 C4322 1.369 . S
C4323 C4324 1.410 . S
C4323 C4331 1.503 . S
C4324 C4323 1.410 . S
C4324 C4325 1.392 . S
C4324 C4327 1.511 . S
C4325 C4321 1.376 . S
C4325 C4324 1.392 . S
C4325 H4337 0.929 . S
C4326 C4322 1.531 . S
C4326 H4338 0.960 . S
C4326 H4339 0.962 . S
C4326 H4340 0.960 . S
C4327 C4324 1.511 . S
C4327 H4341 0.961 . S
C4327 H4342 0.961 . S
C4327 H4343 0.961 . S
C4328 C4329 1.370 . S
C4328 C4330 1.363 . S
C4328 H4344 0.931 . S
C4329 C4328 1.370 . S
C4329 C4333 1.408 . S
C4330 C4328 1.363 . S
C4330 C4331 1.370 . S
C4330 C4334 1.524 . S
C4331 C4323 1.503 . S
C4331 C4330 1.370 . S
C4331 C4332 1.403 . S
C4332 C4331 1.403 . S
C4332 C4333 1.404 . S
C4332 C4335 1.539 . S
C4333 C4329 1.408 . S
C4333 C4332 1.404 . S
C4333 H4345 0.930 . S
C4334 C4330 1.524 . S
C4334 H4346 0.956 . S
C4334 H4347 0.961 . S
C4334 H4348 0.961 . S
C4335 C4332 1.539 . S
C4335 H4349 0.958 . S
C4335 H4350 0.961 . S
C4335 H4351 0.960 . S
H4336 C4320 0.931 . S
H4337 C4325 0.929 . S
H4338 C4326 0.960 . S
H4339 C4326 0.962 . S
H4340 C4326 0.960 . S
H4341 C4327 0.961 . S
H4342 C4327 0.961 . S
H4343 C4327 0.961 . S
H4344 C4328 0.931 . S
H4345 C4333 0.930 . S
H4346 C4334 0.956 . S
H4347 C4334 0.961 . S
H4348 C4334 0.961 . S
H4349 C4335 0.958 . S
H4350 C4335 0.961 . S
H4351 C4335 0.960 . S
C4352 C4353 1.391 . S
C4352 C4354 1.394 . S
C4352 H4368 0.931 . S
C4353 C4352 1.391 . S
C4353 C4357 1.376 . S
C4354 C4352 1.394 . S
C4354 C4355 1.369 . S
C4354 C4358 1.531 . S
C4355 C4354 1.369 . S
C4355 C4356 1.410 . S
C4355 C4363 1.503 . S
C4356 C4355 1.410 . S
C4356 C4357 1.392 . S
C4356 C4359 1.511 . S
C4357 C4353 1.376 . S
C4357 C4356 1.392 . S
C4357 H4369 0.929 . S
C4358 C4354 1.531 . S
C4358 H4370 0.960 . S
C4358 H4371 0.962 . S
C4358 H4372 0.960 . S
C4359 C4356 1.511 . S
C4359 H4373 0.961 . S
C4359 H4374 0.961 . S
C4359 H4375 0.961 . S
C4360 C4361 1.370 . S
C4360 C4362 1.363 . S
C4360 H4376 0.931 . S
C4361 C4360 1.370 . S
C4361 C4365 1.408 . S
C4362 C4360 1.363 . S
C4362 C4363 1.370 . S
C4362 C4366 1.524 . S
C4363 C4355 1.503 . S
C4363 C4362 1.370 . S
C4363 C4364 1.403 . S
C4364 C4363 1.403 . S
C4364 C4365 1.404 . S
C4364 C4367 1.539 . S
C4365 C4361 1.408 . S
C4365 C4364 1.404 . S
C4365 H4377 0.930 . S
C4366 C4362 1.524 . S
C4366 H4378 0.956 . S
C4366 H4379 0.961 . S
C4366 H4380 0.961 . S
C4367 C4364 1.539 . S
C4367 H4381 0.958 . S
C4367 H4382 0.961 . S
C4367 H4383 0.960 . S
H4368 C4352 0.931 . S
H4369 C4357 0.929 . S
H4370 C4358 0.960 . S
H4371 C4358 0.962 . S
H4372 C4358 0.960 . S
H4373 C4359 0.961 . S
H4374 C4359 0.961 . S
H4375 C4359 0.961 . S
H4376 C4360 0.931 . S
H4377 C4365 0.930 . S
H4378 C4366 0.956 . S
H4379 C4366 0.961 . S
H4380 C4366 0.961 . S
H4381 C4367 0.958 . S
H4382 C4367 0.961 . S
H4383 C4367 0.960 . S
C4384 C4385 1.391 . S
C4384 C4386 1.394 . S
C4384 H4400 0.931 . S
C4385 C4384 1.391 . S
C4385 C4389 1.376 . S
C4386 C4384 1.394 . S
C4386 C4387 1.369 . S
C4386 C4390 1.531 . S
C4387 C4386 1.369 . S
C4387 C4388 1.410 . S
C4387 C4395 1.503 . S
C4388 C4387 1.410 . S
C4388 C4389 1.392 . S
C4388 C4391 1.511 . S
C4389 C4385 1.376 . S
C4389 C4388 1.392 . S
C4389 H4401 0.929 . S
C4390 C4386 1.531 . S
C4390 H4402 0.960 . S
C4390 H4403 0.962 . S
C4390 H4404 0.960 . S
C4391 C4388 1.511 . S
C4391 H4405 0.961 . S
C4391 H4406 0.961 . S
C4391 H4407 0.961 . S
C4392 C4393 1.370 . S
C4392 C4394 1.363 . S
C4392 H4408 0.931 . S
C4393 C4392 1.370 . S
C4393 C4397 1.408 . S
C4394 C4392 1.363 . S
C4394 C4395 1.370 . S
C4394 C4398 1.524 . S
C4395 C4387 1.503 . S
C4395 C4394 1.370 . S
C4395 C4396 1.403 . S
C4396 C4395 1.403 . S
C4396 C4397 1.404 . S
C4396 C4399 1.539 . S
C4397 C4393 1.408 . S
C4397 C4396 1.404 . S
C4397 H4409 0.930 . S
C4398 C4394 1.524 . S
C4398 H4410 0.956 . S
C4398 H4411 0.961 . S
C4398 H4412 0.961 . S
C4399 C4396 1.539 . S
C4399 H4413 0.958 . S
C4399 H4414 0.961 . S
C4399 H4415 0.960 . S
H4400 C4384 0.931 . S
H4401 C4389 0.929 . S
H4402 C4390 0.960 . S
H4403 C4390 0.962 . S
H4404 C4390 0.960 . S
H4405 C4391 0.961 . S
H4406 C4391 0.961 . S
H4407 C4391 0.961 . S
H4408 C4392 0.931 . S
H4409 C4397 0.930 . S
H4410 C4398 0.956 . S
H4411 C4398 0.961 . S
H4412 C4398 0.961 . S
H4413 C4399 0.958 . S
H4414 C4399 0.961 . S
H4415 C4399 0.960 . S
C4416 C4417 1.391 . S
C4416 C4418 1.394 . S
C4416 H4432 0.931 . S
C4417 C4416 1.391 . S
C4417 C4421 1.376 . S
C4418 C4416 1.394 . S
C4418 C4419 1.369 . S
C4418 C4422 1.531 . S
C4419 C4418 1.369 . S
C4419 C4420 1.410 . S
C4419 C4427 1.503 1_455 S
C4420 C4419 1.410 . S
C4420 C4421 1.392 . S
C4420 C4423 1.511 . S
C4421 C4417 1.376 . S
C4421 C4420 1.392 . S
C4421 H4433 0.929 . S
C4422 C4418 1.531 . S
C4422 H4434 0.959 . S
C4422 H4435 0.962 . S
C4422 H4436 0.960 . S
C4423 C4420 1.511 . S
C4423 H4437 0.961 . S
C4423 H4438 0.961 1_455 S
C4423 H4439 0.962 . S
C4424 C4425 1.370 . S
C4424 C4426 1.363 . S
C4424 H4440 0.931 . S
C4425 C4424 1.370 . S
C4425 C4429 1.408 . S
C4426 C4424 1.363 . S
C4426 C4427 1.370 . S
C4426 C4430 1.524 . S
C4427 C4419 1.503 1_655 S
C4427 C4426 1.370 . S
C4427 C4428 1.403 . S
C4428 C4427 1.403 . S
C4428 C4429 1.404 . S
C4428 C4431 1.539 . S
C4429 C4425 1.408 . S
C4429 C4428 1.404 . S
C4429 H4441 0.930 . S
C4430 C4426 1.524 . S
C4430 H4442 0.943 1_655 S
C4430 H4443 0.976 . S
C4430 H4444 0.961 . S
C4431 C4428 1.539 . S
C4431 H4445 0.958 . S
C4431 H4446 0.961 . S
C4431 H4447 0.960 . S
H4432 C4416 0.931 . S
H4433 C4421 0.929 . S
H4434 C4422 0.959 . S
H4435 C4422 0.962 . S
H4436 C4422 0.960 . S
H4437 C4423 0.961 . S
H4438 C4423 0.961 1_655 S
H4439 C4423 0.962 . S
H4440 C4424 0.931 . S
H4441 C4429 0.930 . S
H4442 C4430 0.943 1_455 S
H4443 C4430 0.976 . S
H4444 C4430 0.961 . S
H4445 C4431 0.958 . S
H4446 C4431 0.961 . S
H4447 C4431 0.960 . S
C4448 C4449 1.391 . S
C4448 C4450 1.394 . S
C4448 H4464 0.931 . S
C4449 C4448 1.391 . S
C4449 C4453 1.376 . S
C4450 C4448 1.394 . S
C4450 C4451 1.369 . S
C4450 C4454 1.531 . S
C4451 C4450 1.369 . S
C4451 C4452 1.410 . S
C4451 C4459 1.503 1_545 S
C4452 C4451 1.410 . S
C4452 C4453 1.392 . S
C4452 C4455 1.511 . S
C4453 C4449 1.376 . S
C4453 C4452 1.392 . S
C4453 H4465 0.929 . S
C4454 C4450 1.531 . S
C4454 H4466 0.989 . S
C4454 H4467 0.962 . S
C4454 H4468 0.960 . S
C4455 C4452 1.511 . S
C4455 H4469 0.961 . S
C4455 H4470 0.961 1_545 S
C4455 H4471 0.964 . S
C4456 C4457 1.370 . S
C4456 C4458 1.363 . S
C4456 H4472 0.931 . S
C4457 C4456 1.370 . S
C4457 C4461 1.408 . S
C4458 C4456 1.363 . S
C4458 C4459 1.370 . S
C4458 C4462 1.524 . S
C4459 C4451 1.503 1_565 S
C4459 C4458 1.370 . S
C4459 C4460 1.403 . S
C4460 C4459 1.403 . S
C4460 C4461 1.404 . S
C4460 C4463 1.539 . S
C4461 C4457 1.408 . S
C4461 C4460 1.404 . S
C4461 H4473 0.930 . S
C4462 C4458 1.524 . S
C4462 H4474 0.958 . S
C4462 H4475 1.006 . S
C4462 H4476 0.961 . S
C4463 C4460 1.539 . S
C4463 H4477 0.958 . S
C4463 H4478 0.961 . S
C4463 H4479 0.960 . S
H4464 C4448 0.931 . S
H4465 C4453 0.929 . S
H4466 C4454 0.989 . S
H4467 C4454 0.962 . S
H4468 C4454 0.960 . S
H4469 C4455 0.961 . S
H4470 C4455 0.961 1_565 S
H4471 C4455 0.964 . S
H4472 C4456 0.931 . S
H4473 C4461 0.930 . S
H4474 C4462 0.958 . S
H4475 C4462 1.006 . S
H4476 C4462 0.961 . S
H4477 C4463 0.958 . S
H4478 C4463 0.961 . S
H4479 C4463 0.960 . S
C4480 C4481 1.391 . S
C4480 C4482 1.394 . S
C4480 H4496 0.931 . S
C4481 C4480 1.391 . S
C4481 C4485 1.376 . S
C4482 C4480 1.394 . S
C4482 C4483 1.369 . S
C4482 C4486 1.531 . S
C4483 C4482 1.369 . S
C4483 C4484 1.410 . S
C4483 C4491 1.503 1_655 S
C4484 C4483 1.410 . S
C4484 C4485 1.392 . S
C4484 C4487 1.511 . S
C4485 C4481 1.376 . S
C4485 C4484 1.392 . S
C4485 H4497 0.929 . S
C4486 C4482 1.531 . S
C4486 H4498 0.960 1_655 S
C4486 H4499 0.962 . S
C4486 H4500 0.960 . S
C4487 C4484 1.511 . S
C4487 H4501 0.961 . S
C4487 H4502 0.949 1_655 S
C4487 H4503 0.961 . S
C4488 C4489 1.370 . S
C4488 C4490 1.363 . S
C4488 H4504 0.931 . S
C4489 C4488 1.370 . S
C4489 C4493 1.408 . S
C4490 C4488 1.363 . S
C4490 C4491 1.370 . S
C4490 C4494 1.524 . S
C4491 C4483 1.503 1_455 S
C4491 C4490 1.370 . S
C4491 C4492 1.403 . S
C4492 C4491 1.403 . S
C4492 C4493 1.404 . S
C4492 C4495 1.539 . S
C4493 C4489 1.408 . S
C4493 C4492 1.404 . S
C4493 H4505 0.930 . S
C4494 C4490 1.524 . S
C4494 H4506 0.977 . S
C4494 H4507 0.961 1_455 S
C4494 H4508 0.961 . S
C4495 C4492 1.539 . S
C4495 H4509 0.958 . S
C4495 H4510 0.961 . S
C4495 H4511 0.960 . S
H4496 C4480 0.931 . S
H4497 C4485 0.929 . S
H4498 C4486 0.960 1_455 S
H4499 C4486 0.962 . S
H4500 C4486 0.960 . S
H4501 C4487 0.961 . S
H4502 C4487 0.949 1_455 S
H4503 C4487 0.961 . S
H4504 C4488 0.931 . S
H4505 C4493 0.930 . S
H4506 C4494 0.977 . S
H4507 C4494 0.961 1_655 S
H4508 C4494 0.961 . S
H4509 C4495 0.958 . S
H4510 C4495 0.961 . S
H4511 C4495 0.960 . S
C4512 C4513 1.391 . S
C4512 C4514 1.394 . S
C4512 H4528 0.931 . S
C4513 C4512 1.391 . S
C4513 C4517 1.376 . S
C4514 C4512 1.394 . S
C4514 C4515 1.369 . S
C4514 C4518 1.531 . S
C4515 C4514 1.369 . S
C4515 C4516 1.410 . S
C4515 C4523 1.503 1_565 S
C4516 C4515 1.410 . S
C4516 C4517 1.392 . S
C4516 C4519 1.511 . S
C4517 C4513 1.376 . S
C4517 C4516 1.392 . S
C4517 H4529 0.929 . S
C4518 C4514 1.531 . S
C4518 H4530 0.960 1_565 S
C4518 H4531 0.951 1_565 S
C4518 H4532 0.960 . S
C4519 C4516 1.511 . S
C4519 H4533 0.961 . S
C4519 H4534 0.981 . S
C4519 H4535 0.961 . S
C4520 C4521 1.370 . S
C4520 C4522 1.363 . S
C4520 H4536 0.931 . S
C4521 C4520 1.370 . S
C4521 C4525 1.408 . S
C4522 C4520 1.363 . S
C4522 C4523 1.370 . S
C4522 C4526 1.524 . S
C4523 C4515 1.503 1_545 S
C4523 C4522 1.370 . S
C4523 C4524 1.403 . S
C4524 C4523 1.403 . S
C4524 C4525 1.404 . S
C4524 C4527 1.539 . S
C4525 C4521 1.408 . S
C4525 C4524 1.404 . S
C4525 H4537 0.930 . S
C4526 C4522 1.524 . S
C4526 H4538 0.956 . S
C4526 H4539 1.020 . S
C4526 H4540 0.961 . S
C4527 C4524 1.539 . S
C4527 H4541 0.958 . S
C4527 H4542 0.961 . S
C4527 H4543 0.920 1_545 S
H4528 C4512 0.931 . S
H4529 C4517 0.929 . S
H4530 C4518 0.960 1_545 S
H4531 C4518 0.951 1_545 S
H4532 C4518 0.960 . S
H4533 C4519 0.961 . S
H4534 C4519 0.981 . S
H4535 C4519 0.961 . S
H4536 C4520 0.931 . S
H4537 C4525 0.930 . S
H4538 C4526 0.956 . S
H4539 C4526 1.020 . S
H4540 C4526 0.961 . S
H4541 C4527 0.958 . S
H4542 C4527 0.961 . S
H4543 C4527 0.920 1_565 S
C4544 C4545 1.391 . S
C4544 C4546 1.394 . S
C4544 H4560 0.931 . S
C4545 C4544 1.391 . S
C4545 C4549 1.376 . S
C4546 C4544 1.394 . S
C4546 C4547 1.369 . S
C4546 C4550 1.531 . S
C4547 C4546 1.369 . S
C4547 C4548 1.410 . S
C4547 C4555 1.503 1_655 S
C4548 C4547 1.410 . S
C4548 C4549 1.392 . S
C4548 C4551 1.511 . S
C4549 C4545 1.376 . S
C4549 C4548 1.392 . S
C4549 H4561 0.929 . S
C4550 C4546 1.531 . S
C4550 H4562 0.960 1_655 S
C4550 H4563 0.962 . S
C4550 H4564 0.960 . S
C4551 C4548 1.511 . S
C4551 H4565 0.961 . S
C4551 H4566 0.961 . S
C4551 H4567 0.961 . S
C4552 C4553 1.370 . S
C4552 C4554 1.363 . S
C4552 H4568 0.931 . S
C4553 C4552 1.370 . S
C4553 C4557 1.408 . S
C4554 C4552 1.363 . S
C4554 C4555 1.370 . S
C4554 C4558 1.524 . S
C4555 C4547 1.503 1_455 S
C4555 C4554 1.370 . S
C4555 C4556 1.403 . S
C4556 C4555 1.403 . S
C4556 C4557 1.404 . S
C4556 C4559 1.539 . S
C4557 C4553 1.408 . S
C4557 C4556 1.404 . S
C4557 H4569 0.930 . S
C4558 C4554 1.524 . S
C4558 H4570 0.956 . S
C4558 H4571 0.961 1_455 S
C4558 H4572 0.961 . S
C4559 C4556 1.539 . S
C4559 H4573 0.958 . S
C4559 H4574 0.961 . S
C4559 H4575 0.960 1_455 S
H4560 C4544 0.931 . S
H4561 C4549 0.929 . S
H4562 C4550 0.960 1_455 S
H4563 C4550 0.962 . S
H4564 C4550 0.960 . S
H4565 C4551 0.961 . S
H4566 C4551 0.961 . S
H4567 C4551 0.961 . S
H4568 C4552 0.931 . S
H4569 C4557 0.930 . S
H4570 C4558 0.956 . S
H4571 C4558 0.961 1_655 S
H4572 C4558 0.961 . S
H4573 C4559 0.958 . S
H4574 C4559 0.961 . S
H4575 C4559 0.960 1_655 S
C4576 C4577 1.391 . S
C4576 C4578 1.394 . S
C4576 H4592 0.931 . S
C4577 C4576 1.391 . S
C4577 C4581 1.376 . S
C4578 C4576 1.394 . S
C4578 C4579 1.369 . S
C4578 C4582 1.531 . S
C4579 C4578 1.369 . S
C4579 C4580 1.410 . S
C4579 C4587 1.503 1_545 S
C4580 C4579 1.410 . S
C4580 C4581 1.392 . S
C4580 C4583 1.511 . S
C4581 C4577 1.376 . S
C4581 C4580 1.392 . S
C4581 H4593 0.929 . S
C4582 C4578 1.531 . S
C4582 H4594 0.960 1_545 S
C4582 H4595 0.962 . S
C4582 H4596 0.960 . S
C4583 C4580 1.511 . S
C4583 H4597 0.961 . S
C4583 H4598 0.961 1_545 S
C4583 H4599 0.961 . S
C4584 C4585 1.370 . S
C4584 C4586 1.363 . S
C4584 H4600 0.931 . S
C4585 C4584 1.370 . S
C4585 C4589 1.408 . S
C4586 C4584 1.363 . S
C4586 C4587 1.370 . S
C4586 C4590 1.524 . S
C4587 C4579 1.503 1_565 S
C4587 C4586 1.370 . S
C4587 C4588 1.403 . S
C4588 C4587 1.403 . S
C4588 C4589 1.404 . S
C4588 C4591 1.539 . S
C4589 C4585 1.408 . S
C4589 C4588 1.404 . S
C4589 H4601 0.930 . S
C4590 C4586 1.524 . S
C4590 H4602 0.925 1_565 S
C4590 H4603 0.961 1_565 S
C4590 H4604 0.961 . S
C4591 C4588 1.539 . S
C4591 H4605 0.958 . S
C4591 H4606 0.961 . S
C4591 H4607 0.960 . S
H4592 C4576 0.931 . S
H4593 C4581 0.929 . S
H4594 C4582 0.960 1_565 S
H4595 C4582 0.962 . S
H4596 C4582 0.960 . S
H4597 C4583 0.961 . S
H4598 C4583 0.961 1_565 S
H4599 C4583 0.961 . S
H4600 C4584 0.931 . S
H4601 C4589 0.930 . S
H4602 C4590 0.925 1_545 S
H4603 C4590 0.961 1_545 S
H4604 C4590 0.961 . S
H4605 C4591 0.958 . S
H4606 C4591 0.961 . S
H4607 C4591 0.960 . S
C4608 C4609 1.391 . S
C4608 C4610 1.394 . S
C4608 H4624 0.931 . S
C4609 C4608 1.391 . S
C4609 C4613 1.376 . S
C4610 C4608 1.394 . S
C4610 C4611 1.369 . S
C4610 C4614 1.531 . S
C4611 C4610 1.369 . S
C4611 C4612 1.410 . S
C4611 C4619 1.503 1_455 S
C4612 C4611 1.410 . S
C4612 C4613 1.392 . S
C4612 C4615 1.511 . S
C4613 C4609 1.376 . S
C4613 C4612 1.392 . S
C4613 H4625 0.929 . S
C4614 C4610 1.531 . S
C4614 H4626 0.960 1_455 S
C4614 H4627 0.962 . S
C4614 H4628 0.960 . S
C4615 C4612 1.511 . S
C4615 H4629 0.961 . S
C4615 H4630 0.961 . S
C4615 H4631 0.961 . S
C4616 C4617 1.370 . S
C4616 C4618 1.363 . S
C4616 H4632 0.931 . S
C4617 C4616 1.370 . S
C4617 C4621 1.408 . S
C4618 C4616 1.363 . S
C4618 C4619 1.370 . S
C4618 C4622 1.524 . S
C4619 C4611 1.503 1_655 S
C4619 C4618 1.370 . S
C4619 C4620 1.403 . S
C4620 C4619 1.403 . S
C4620 C4621 1.404 . S
C4620 C4623 1.539 . S
C4621 C4617 1.408 . S
C4621 C4620 1.404 . S
C4621 H4633 0.930 . S
C4622 C4618 1.524 . S
C4622 H4634 0.956 . S
C4622 H4635 0.924 1_655 S
C4622 H4636 0.961 . S
C4623 C4620 1.539 . S
C4623 H4637 0.958 . S
C4623 H4638 0.961 . S
C4623 H4639 0.960 1_655 S
H4624 C4608 0.931 . S
H4625 C4613 0.929 . S
H4626 C4614 0.960 1_655 S
H4627 C4614 0.962 . S
H4628 C4614 0.960 . S
H4629 C4615 0.961 . S
H4630 C4615 0.961 . S
H4631 C4615 0.961 . S
H4632 C4616 0.931 . S
H4633 C4621 0.930 . S
H4634 C4622 0.956 . S
H4635 C4622 0.924 1_455 S
H4636 C4622 0.961 . S
H4637 C4623 0.958 . S
H4638 C4623 0.961 . S
H4639 C4623 0.960 1_455 S
C4640 C4641 1.391 . S
C4640 C4642 1.394 . S
C4640 H4656 0.931 . S
C4641 C4640 1.391 . S
C4641 C4645 1.376 . S
C4642 C4640 1.394 . S
C4642 C4643 1.369 . S
C4642 C4646 1.531 . S
C4643 C4642 1.369 . S
C4643 C4644 1.410 . S
C4643 C4651 1.503 1_545 S
C4644 C4643 1.410 . S
C4644 C4645 1.392 . S
C4644 C4647 1.511 . S
C4645 C4641 1.376 . S
C4645 C4644 1.392 . S
C4645 H4657 0.929 . S
C4646 C4642 1.531 . S
C4646 H4658 0.960 1_545 S
C4646 H4659 0.962 . S
C4646 H4660 0.960 . S
C4647 C4644 1.511 . S
C4647 H4661 0.961 . S
C4647 H4662 0.961 . S
C4647 H4663 0.961 . S
C4648 C4649 1.370 . S
C4648 C4650 1.363 . S
C4648 H4664 0.931 . S
C4649 C4648 1.370 . S
C4649 C4653 1.408 . S
C4650 C4648 1.363 . S
C4650 C4651 1.370 . S
C4650 C4654 1.524 . S
C4651 C4643 1.503 1_565 S
C4651 C4650 1.370 . S
C4651 C4652 1.403 . S
C4652 C4651 1.403 . S
C4652 C4653 1.404 . S
C4652 C4655 1.539 . S
C4653 C4649 1.408 . S
C4653 C4652 1.404 . S
C4653 H4665 0.930 . S
C4654 C4650 1.524 . S
C4654 H4666 0.956 1_565 S
C4654 H4667 0.961 1_565 S
C4654 H4668 0.961 . S
C4655 C4652 1.539 . S
C4655 H4669 0.958 . S
C4655 H4670 0.961 . S
C4655 H4671 0.960 . S
H4656 C4640 0.931 . S
H4657 C4645 0.929 . S
H4658 C4646 0.960 1_565 S
H4659 C4646 0.962 . S
H4660 C4646 0.960 . S
H4661 C4647 0.961 . S
H4662 C4647 0.961 . S
H4663 C4647 0.961 . S
H4664 C4648 0.931 . S
H4665 C4653 0.930 . S
H4666 C4654 0.956 1_545 S
H4667 C4654 0.961 1_545 S
H4668 C4654 0.961 . S
H4669 C4655 0.958 . S
H4670 C4655 0.961 . S
H4671 C4655 0.960 . S
C4672 C4673 1.391 . S
C4672 C4674 1.394 . S
C4672 H4688 0.931 . S
C4673 C4672 1.391 . S
C4673 C4677 1.376 . S
C4674 C4672 1.394 . S
C4674 C4675 1.369 . S
C4674 C4678 1.531 . S
C4675 C4674 1.369 . S
C4675 C4676 1.410 . S
C4675 C4683 1.503 1_545 S
C4676 C4675 1.410 . S
C4676 C4677 1.392 . S
C4676 C4679 1.511 . S
C4677 C4673 1.376 . S
C4677 C4676 1.392 . S
C4677 H4689 0.929 . S
C4678 C4674 1.531 . S
C4678 H4690 0.960 1_545 S
C4678 H4691 0.975 . S
C4678 H4692 0.960 . S
C4679 C4676 1.511 . S
C4679 H4693 0.961 . S
C4679 H4694 0.893 1_545 S
C4679 H4695 0.961 . S
C4680 C4681 1.370 . S
C4680 C4682 1.363 . S
C4680 H4696 0.931 . S
C4681 C4680 1.370 . S
C4681 C4685 1.408 . S
C4682 C4680 1.363 . S
C4682 C4683 1.370 . S
C4682 C4686 1.524 . S
C4683 C4675 1.503 1_565 S
C4683 C4682 1.370 . S
C4683 C4684 1.403 . S
C4684 C4683 1.403 . S
C4684 C4685 1.404 . S
C4684 C4687 1.539 . S
C4685 C4681 1.408 . S
C4685 C4684 1.404 . S
C4685 H4697 0.930 . S
C4686 C4682 1.524 . S
C4686 H4698 0.956 . S
C4686 H4699 0.961 . S
C4686 H4700 0.961 . S
C4687 C4684 1.539 . S
C4687 H4701 0.958 . S
C4687 H4702 0.961 . S
C4687 H4703 0.960 1_565 S
H4688 C4672 0.931 . S
H4689 C4677 0.929 . S
H4690 C4678 0.960 1_565 S
H4691 C4678 0.975 . S
H4692 C4678 0.960 . S
H4693 C4679 0.961 . S
H4694 C4679 0.893 1_565 S
H4695 C4679 0.961 . S
H4696 C4680 0.931 . S
H4697 C4685 0.930 . S
H4698 C4686 0.956 . S
H4699 C4686 0.961 . S
H4700 C4686 0.961 . S
H4701 C4687 0.958 . S
H4702 C4687 0.961 . S
H4703 C4687 0.960 1_545 S
C4704 C4705 1.391 . S
C4704 C4706 1.394 . S
C4704 H4720 0.931 . S
C4705 C4704 1.391 . S
C4705 C4709 1.376 . S
C4706 C4704 1.394 . S
C4706 C4707 1.369 . S
C4706 C4710 1.531 . S
C4707 C4706 1.369 . S
C4707 C4708 1.410 . S
C4707 C4715 1.503 1_455 S
C4708 C4707 1.410 . S
C4708 C4709 1.392 . S
C4708 C4711 1.511 . S
C4709 C4705 1.376 . S
C4709 C4708 1.392 . S
C4709 H4721 0.929 . S
C4710 C4706 1.531 . S
C4710 H4722 1.016 . S
C4710 H4723 0.962 . S
C4710 H4724 0.960 . S
C4711 C4708 1.511 . S
C4711 H4725 0.961 . S
C4711 H4726 0.994 . S
C4711 H4727 0.961 . S
C4712 C4713 1.370 . S
C4712 C4714 1.363 . S
C4712 H4728 0.931 . S
C4713 C4712 1.370 . S
C4713 C4717 1.408 . S
C4714 C4712 1.363 . S
C4714 C4715 1.370 . S
C4714 C4718 1.524 . S
C4715 C4707 1.503 1_655 S
C4715 C4714 1.370 . S
C4715 C4716 1.403 . S
C4716 C4715 1.403 . S
C4716 C4717 1.404 . S
C4716 C4719 1.539 . S
C4717 C4713 1.408 . S
C4717 C4716 1.404 . S
C4717 H4729 0.930 . S
C4718 C4714 1.524 . S
C4718 H4730 0.956 . S
C4718 H4731 1.006 . S
C4718 H4732 0.961 . S
C4719 C4716 1.539 . S
C4719 H4733 0.958 . S
C4719 H4734 0.961 . S
C4719 H4735 0.960 1_655 S
H4720 C4704 0.931 . S
H4721 C4709 0.929 . S
H4722 C4710 1.016 . S
H4723 C4710 0.962 . S
H4724 C4710 0.960 . S
H4725 C4711 0.961 . S
H4726 C4711 0.994 . S
H4727 C4711 0.961 . S
H4728 C4712 0.931 . S
H4729 C4717 0.930 . S
H4730 C4718 0.956 . S
H4731 C4718 1.006 . S
H4732 C4718 0.961 . S
H4733 C4719 0.958 . S
H4734 C4719 0.961 . S
H4735 C4719 0.960 1_455 S
C4736 C4737 1.391 . S
C4736 C4738 1.394 . S
C4736 H4752 0.931 . S
C4737 C4736 1.391 . S
C4737 C4741 1.376 . S
C4738 C4736 1.394 . S
C4738 C4739 1.369 . S
C4738 C4742 1.531 . S
C4739 C4738 1.369 . S
C4739 C4740 1.410 . S
C4739 C4747 1.503 1_565 S
C4740 C4739 1.410 . S
C4740 C4741 1.392 . S
C4740 C4743 1.511 . S
C4741 C4737 1.376 . S
C4741 C4740 1.392 . S
C4741 H4753 0.929 . S
C4742 C4738 1.531 . S
C4742 H4754 0.960 1_565 S
C4742 H4755 0.950 1_565 S
C4742 H4756 0.960 . S
C4743 C4740 1.511 . S
C4743 H4757 0.961 . S
C4743 H4758 0.986 . S
C4743 H4759 0.961 . S
C4744 C4745 1.370 . S
C4744 C4746 1.363 . S
C4744 H4760 0.931 . S
C4745 C4744 1.370 . S
C4745 C4749 1.408 . S
C4746 C4744 1.363 . S
C4746 C4747 1.370 . S
C4746 C4750 1.524 . S
C4747 C4739 1.503 1_545 S
C4747 C4746 1.370 . S
C4747 C4748 1.403 . S
C4748 C4747 1.403 . S
C4748 C4749 1.404 . S
C4748 C4751 1.539 . S
C4749 C4745 1.408 . S
C4749 C4748 1.404 . S
C4749 H4761 0.930 . S
C4750 C4746 1.524 . S
C4750 H4762 0.956 . S
C4750 H4763 1.007 . S
C4750 H4764 0.961 . S
C4751 C4748 1.539 . S
C4751 H4765 0.958 . S
C4751 H4766 0.961 . S
C4751 H4767 0.935 1_545 S
H4752 C4736 0.931 . S
H4753 C4741 0.929 . S
H4754 C4742 0.960 1_545 S
H4755 C4742 0.950 1_545 S
H4756 C4742 0.960 . S
H4757 C4743 0.961 . S
H4758 C4743 0.986 . S
H4759 C4743 0.961 . S
H4760 C4744 0.931 . S
H4761 C4749 0.930 . S
H4762 C4750 0.956 . S
H4763 C4750 1.007 . S
H4764 C4750 0.961 . S
H4765 C4751 0.958 . S
H4766 C4751 0.961 . S
H4767 C4751 0.935 1_565 S
C4768 C4769 1.391 . S
C4768 C4770 1.394 . S
C4768 H4784 0.931 . S
C4769 C4768 1.391 . S
C4769 C4773 1.376 . S
C4770 C4768 1.394 . S
C4770 C4771 1.369 . S
C4770 C4774 1.531 . S
C4771 C4770 1.369 . S
C4771 C4772 1.410 . S
C4771 C4779 1.503 1_455 S
C4772 C4771 1.410 . S
C4772 C4773 1.392 . S
C4772 C4775 1.511 . S
C4773 C4769 1.376 . S
C4773 C4772 1.392 . S
C4773 H4785 0.929 . S
C4774 C4770 1.531 . S
C4774 H4786 0.960 1_455 S
C4774 H4787 0.956 1_455 S
C4774 H4788 0.960 . S
C4775 C4772 1.511 . S
C4775 H4789 0.961 . S
C4775 H4790 0.952 . S
C4775 H4791 0.961 . S
C4776 C4777 1.370 . S
C4776 C4778 1.363 . S
C4776 H4792 0.931 . S
C4777 C4776 1.370 . S
C4777 C4781 1.408 . S
C4778 C4776 1.363 . S
C4778 C4779 1.370 . S
C4778 C4782 1.524 . S
C4779 C4771 1.503 1_655 S
C4779 C4778 1.370 . S
C4779 C4780 1.403 . S
C4780 C4779 1.403 . S
C4780 C4781 1.404 . S
C4780 C4783 1.539 . S
C4781 C4777 1.408 . S
C4781 C4780 1.404 . S
C4781 H4793 0.930 . S
C4782 C4778 1.524 . S
C4782 H4794 0.956 . S
C4782 H4795 0.961 . S
C4782 H4796 0.961 . S
C4783 C4780 1.539 . S
C4783 H4797 0.958 . S
C4783 H4798 0.961 . S
C4783 H4799 0.960 1_655 S
H4784 C4768 0.931 . S
H4785 C4773 0.929 . S
H4786 C4774 0.960 1_655 S
H4787 C4774 0.956 1_655 S
H4788 C4774 0.960 . S
H4789 C4775 0.961 . S
H4790 C4775 0.952 . S
H4791 C4775 0.961 . S
H4792 C4776 0.931 . S
H4793 C4781 0.930 . S
H4794 C4782 0.956 . S
H4795 C4782 0.961 . S
H4796 C4782 0.961 . S
H4797 C4783 0.958 . S
H4798 C4783 0.961 . S
H4799 C4783 0.960 1_455 S
C4800 C4801 1.391 . S
C4800 C4802 1.394 . S
C4800 H4816 0.931 . S
C4801 C4800 1.391 . S
C4801 C4805 1.376 . S
C4802 C4800 1.394 . S
C4802 C4803 1.369 . S
C4802 C4806 1.531 . S
C4803 C4802 1.369 . S
C4803 C4804 1.410 . S
C4803 C4811 1.503 1_565 S
C4804 C4803 1.410 . S
C4804 C4805 1.392 . S
C4804 C4807 1.511 . S
C4805 C4801 1.376 . S
C4805 C4804 1.392 . S
C4805 H4817 0.929 . S
C4806 C4802 1.531 . S
C4806 H4818 0.960 1_565 S
C4806 H4819 0.962 . S
C4806 H4820 0.960 . S
C4807 C4804 1.511 . S
C4807 H4821 0.961 . S
C4807 H4822 0.961 1_565 S
C4807 H4823 0.961 . S
C4808 C4809 1.370 . S
C4808 C4810 1.363 . S
C4808 H4824 0.931 . S
C4809 C4808 1.370 . S
C4809 C4813 1.408 . S
C4810 C4808 1.363 . S
C4810 C4811 1.370 . S
C4810 C4814 1.524 . S
C4811 C4803 1.503 1_545 S
C4811 C4810 1.370 . S
C4811 C4812 1.403 . S
C4812 C4811 1.403 . S
C4812 C4813 1.404 . S
C4812 C4815 1.539 . S
C4813 C4809 1.408 . S
C4813 C4812 1.404 . S
C4813 H4825 0.930 . S
C4814 C4810 1.524 . S
C4814 H4826 0.956 1_545 S
C4814 H4827 0.961 1_545 S
C4814 H4828 0.961 . S
C4815 C4812 1.539 . S
C4815 H4829 0.958 . S
C4815 H4830 0.961 . S
C4815 H4831 0.960 . S
H4816 C4800 0.931 . S
H4817 C4805 0.929 . S
H4818 C4806 0.960 1_545 S
H4819 C4806 0.962 . S
H4820 C4806 0.960 . S
H4821 C4807 0.961 . S
H4822 C4807 0.961 1_545 S
H4823 C4807 0.961 . S
H4824 C4808 0.931 . S
H4825 C4813 0.930 . S
H4826 C4814 0.956 1_565 S
H4827 C4814 0.961 1_565 S
H4828 C4814 0.961 . S
H4829 C4815 0.958 . S
H4830 C4815 0.961 . S
H4831 C4815 0.960 . S
C4832 C4833 1.391 . S
C4832 C4834 1.394 . S
C4832 H4848 0.931 . S
C4833 C4832 1.391 . S
C4833 C4837 1.376 . S
C4834 C4832 1.394 . S
C4834 C4835 1.369 . S
C4834 C4838 1.531 . S
C4835 C4834 1.369 . S
C4835 C4836 1.410 . S
C4835 C4843 1.503 1_455 S
C4836 C4835 1.410 . S
C4836 C4837 1.392 . S
C4836 C4839 1.511 . S
C4837 C4833 1.376 . S
C4837 C4836 1.392 . S
C4837 H4849 0.929 . S
C4838 C4834 1.531 . S
C4838 H4850 0.960 1_455 S
C4838 H4851 0.980 . S
C4838 H4852 0.960 . S
C4839 C4836 1.511 . S
C4839 H4853 0.961 . S
C4839 H4854 0.881 1_455 S
C4839 H4855 0.961 . S
C4840 C4841 1.370 . S
C4840 C4842 1.363 . S
C4840 H4856 0.931 . S
C4841 C4840 1.370 . S
C4841 C4845 1.408 . S
C4842 C4840 1.363 . S
C4842 C4843 1.370 . S
C4842 C4846 1.524 . S
C4843 C4835 1.503 1_655 S
C4843 C4842 1.370 . S
C4843 C4844 1.403 . S
C4844 C4843 1.403 . S
C4844 C4845 1.404 . S
C4844 C4847 1.539 . S
C4845 C4841 1.408 . S
C4845 C4844 1.404 . S
C4845 H4857 0.930 . S
C4846 C4842 1.524 . S
C4846 H4858 0.956 . S
C4846 H4859 0.961 . S
C4846 H4860 0.961 . S
C4847 C4844 1.539 . S
C4847 H4861 0.958 . S
C4847 H4862 0.961 . S
C4847 H4863 0.960 1_655 S
H4848 C4832 0.931 . S
H4849 C4837 0.929 . S
H4850 C4838 0.960 1_655 S
H4851 C4838 0.980 . S
H4852 C4838 0.960 . S
H4853 C4839 0.961 . S
H4854 C4839 0.881 1_655 S
H4855 C4839 0.961 . S
H4856 C4840 0.931 . S
H4857 C4845 0.930 . S
H4858 C4846 0.956 . S
H4859 C4846 0.961 . S
H4860 C4846 0.961 . S
H4861 C4847 0.958 . S
H4862 C4847 0.961 . S
H4863 C4847 0.960 1_455 S
C4864 C4865 1.391 . S
C4864 C4866 1.394 . S
C4864 H4880 0.931 . S
C4865 C4864 1.391 . S
C4865 C4869 1.376 . S
C4866 C4864 1.394 . S
C4866 C4867 1.369 . S
C4866 C4870 1.531 . S
C4867 C4866 1.369 . S
C4867 C4868 1.410 . S
C4867 C4875 1.503 1_545 S
C4868 C4867 1.410 . S
C4868 C4869 1.392 . S
C4868 C4871 1.511 . S
C4869 C4865 1.376 . S
C4869 C4868 1.392 . S
C4869 H4881 0.929 . S
C4870 C4866 1.531 . S
C4870 H4882 0.960 1_545 S
C4870 H4883 0.962 . S
C4870 H4884 0.960 . S
C4871 C4868 1.511 . S
C4871 H4885 0.961 . S
C4871 H4886 0.961 1_545 S
C4871 H4887 0.961 . S
C4872 C4873 1.370 . S
C4872 C4874 1.363 . S
C4872 H4888 0.931 . S
C4873 C4872 1.370 . S
C4873 C4877 1.408 . S
C4874 C4872 1.363 . S
C4874 C4875 1.370 . S
C4874 C4878 1.524 . S
C4875 C4867 1.503 1_565 S
C4875 C4874 1.370 . S
C4875 C4876 1.403 . S
C4876 C4875 1.403 . S
C4876 C4877 1.404 . S
C4876 C4879 1.539 . S
C4877 C4873 1.408 . S
C4877 C4876 1.404 . S
C4877 H4889 0.930 . S
C4878 C4874 1.524 . S
C4878 H4890 0.956 . S
C4878 H4891 0.961 . S
C4878 H4892 0.961 . S
C4879 C4876 1.539 . S
C4879 H4893 0.958 . S
C4879 H4894 0.961 . S
C4879 H4895 0.960 1_565 S
H4880 C4864 0.931 . S
H4881 C4869 0.929 . S
H4882 C4870 0.960 1_565 S
H4883 C4870 0.962 . S
H4884 C4870 0.960 . S
H4885 C4871 0.961 . S
H4886 C4871 0.961 1_565 S
H4887 C4871 0.961 . S
H4888 C4872 0.931 . S
H4889 C4877 0.930 . S
H4890 C4878 0.956 . S
H4891 C4878 0.961 . S
H4892 C4878 0.961 . S
H4893 C4879 0.958 . S
H4894 C4879 0.961 . S
H4895 C4879 0.960 1_545 S
C4896 C4897 1.391 . S
C4896 C4898 1.394 . S
C4896 H4912 0.931 . S
C4897 C4896 1.391 . S
C4897 C4901 1.376 . S
C4898 C4896 1.394 . S
C4898 C4899 1.369 . S
C4898 C4902 1.531 . S
C4899 C4898 1.369 . S
C4899 C4900 1.410 . S
C4899 C4907 1.503 1_455 S
C4900 C4899 1.410 . S
C4900 C4901 1.392 . S
C4900 C4903 1.511 . S
C4901 C4897 1.376 . S
C4901 C4900 1.392 . S
C4901 H4913 0.929 . S
C4902 C4898 1.531 . S
C4902 H4914 0.960 . S
C4902 H4915 0.962 . S
C4902 H4916 0.960 . S
C4903 C4900 1.511 . S
C4903 H4917 0.961 . S
C4903 H4918 0.961 1_455 S
C4903 H4919 0.961 . S
C4904 C4905 1.370 . S
C4904 C4906 1.363 . S
C4904 H4920 0.931 . S
C4905 C4904 1.370 . S
C4905 C4909 1.408 . S
C4906 C4904 1.363 . S
C4906 C4907 1.370 . S
C4906 C4910 1.524 . S
C4907 C4899 1.503 1_655 S
C4907 C4906 1.370 . S
C4907 C4908 1.403 . S
C4908 C4907 1.403 . S
C4908 C4909 1.404 . S
C4908 C4911 1.539 . S
C4909 C4905 1.408 . S
C4909 C4908 1.404 . S
C4909 H4921 0.930 . S
C4910 C4906 1.524 . S
C4910 H4922 0.956 1_655 S
C4910 H4923 0.961 1_655 S
C4910 H4924 0.961 . S
C4911 C4908 1.539 . S
C4911 H4925 0.958 . S
C4911 H4926 0.961 . S
C4911 H4927 0.978 . S
H4912 C4896 0.931 . S
H4913 C4901 0.929 . S
H4914 C4902 0.960 . S
H4915 C4902 0.962 . S
H4916 C4902 0.960 . S
H4917 C4903 0.961 . S
H4918 C4903 0.961 1_655 S
H4919 C4903 0.961 . S
H4920 C4904 0.931 . S
H4921 C4909 0.930 . S
H4922 C4910 0.956 1_455 S
H4923 C4910 0.961 1_455 S
H4924 C4910 0.961 . S
H4925 C4911 0.958 . S
H4926 C4911 0.961 . S
H4927 C4911 0.978 . S
C4928 C4929 1.391 . S
C4928 C4930 1.394 . S
C4928 H4944 0.931 . S
C4929 C4928 1.391 . S
C4929 C4933 1.376 . S
C4930 C4928 1.394 . S
C4930 C4931 1.369 . S
C4930 C4934 1.531 . S
C4931 C4930 1.369 . S
C4931 C4932 1.410 . S
C4931 C4939 1.503 1_554 S
C4932 C4931 1.410 . S
C4932 C4933 1.392 . S
C4932 C4935 1.511 . S
C4933 C4929 1.376 . S
C4933 C4932 1.392 . S
C4933 H4945 0.929 . S
C4934 C4930 1.531 . S
C4934 H4946 0.960 1_554 S
C4934 H4947 0.979 . S
C4934 H4948 0.960 . S
C4935 C4932 1.511 . S
C4935 H4949 0.961 . S
C4935 H4950 0.956 1_554 S
C4935 H4951 0.961 . S
C4936 C4937 1.370 . S
C4936 C4938 1.363 . S
C4936 H4952 0.931 . S
C4937 C4936 1.370 . S
C4937 C4941 1.408 . S
C4938 C4936 1.363 . S
C4938 C4939 1.370 . S
C4938 C4942 1.524 . S
C4939 C4931 1.503 1_556 S
C4939 C4938 1.370 . S
C4939 C4940 1.403 . S
C4940 C4939 1.403 . S
C4940 C4941 1.404 . S
C4940 C4943 1.539 . S
C4941 C4937 1.408 . S
C4941 C4940 1.404 . S
C4941 H4953 0.930 . S
C4942 C4938 1.524 . S
C4942 H4954 0.982 . S
C4942 H4955 0.961 1_556 S
C4942 H4956 0.961 . S
C4943 C4940 1.539 . S
C4943 H4957 0.958 . S
C4943 H4958 0.961 . S
C4943 H4959 0.960 . S
H4944 C4928 0.931 . S
H4945 C4933 0.929 . S
H4946 C4934 0.960 1_556 S
H4947 C4934 0.979 . S
H4948 C4934 0.960 . S
H4949 C4935 0.961 . S
H4950 C4935 0.956 1_556 S
H4951 C4935 0.961 . S
H4952 C4936 0.931 . S
H4953 C4941 0.930 . S
H4954 C4942 0.982 . S
H4955 C4942 0.961 1_554 S
H4956 C4942 0.961 . S
H4957 C4943 0.958 . S
H4958 C4943 0.961 . S
H4959 C4943 0.960 . S
C4960 C4961 1.391 . S
C4960 C4962 1.394 . S
C4960 H4976 0.931 . S
C4961 C4960 1.391 . S
C4961 C4965 1.376 . S
C4962 C4960 1.394 . S
C4962 C4963 1.369 . S
C4962 C4966 1.531 . S
C4963 C4962 1.369 . S
C4963 C4964 1.410 . S
C4963 C4971 1.503 1_556 S
C4964 C4963 1.410 . S
C4964 C4965 1.392 . S
C4964 C4967 1.511 . S
C4965 C4961 1.376 . S
C4965 C4964 1.392 . S
C4965 H4977 0.929 . S
C4966 C4962 1.531 . S
C4966 H4978 0.994 . S
C4966 H4979 0.962 . S
C4966 H4980 0.960 . S
C4967 C4964 1.511 . S
C4967 H4981 0.961 . S
C4967 H4982 0.961 1_556 S
C4967 H4983 0.961 . S
C4968 C4969 1.370 . S
C4968 C4970 1.363 . S
C4968 H4984 0.931 . S
C4969 C4968 1.370 . S
C4969 C4973 1.408 . S
C4970 C4968 1.363 . S
C4970 C4971 1.370 . S
C4970 C4974 1.524 . S
C4971 C4963 1.503 1_554 S
C4971 C4970 1.370 . S
C4971 C4972 1.403 . S
C4972 C4971 1.403 . S
C4972 C4973 1.404 . S
C4972 C4975 1.539 . S
C4973 C4969 1.408 . S
C4973 C4972 1.404 . S
C4973 H4985 0.930 . S
C4974 C4970 1.524 . S
C4974 H4986 0.956 . S
C4974 H4987 0.961 . S
C4974 H4988 0.961 . S
C4975 C4972 1.539 . S
C4975 H4989 0.958 . S
C4975 H4990 0.961 . S
C4975 H4991 0.900 1_554 S
H4976 C4960 0.931 . S
H4977 C4965 0.929 . S
H4978 C4966 0.994 . S
H4979 C4966 0.962 . S
H4980 C4966 0.960 . S
H4981 C4967 0.961 . S
H4982 C4967 0.961 1_554 S
H4983 C4967 0.961 . S
H4984 C4968 0.931 . S
H4985 C4973 0.930 . S
H4986 C4974 0.956 . S
H4987 C4974 0.961 . S
H4988 C4974 0.961 . S
H4989 C4975 0.958 . S
H4990 C4975 0.961 . S
H4991 C4975 0.900 1_556 S
C4992 C4993 1.391 . S
C4992 C4994 1.394 . S
C4992 H5008 0.931 . S
C4993 C4992 1.391 . S
C4993 C4997 1.376 . S
C4994 C4992 1.394 . S
C4994 C4995 1.369 . S
C4994 C4998 1.531 . S
C4995 C4994 1.369 . S
C4995 C4996 1.410 . S
C4995 C5003 1.503 1_554 S
C4996 C4995 1.410 . S
C4996 C4997 1.392 . S
C4996 C4999 1.511 . S
C4997 C4993 1.376 . S
C4997 C4996 1.392 . S
C4997 H5009 0.929 . S
C4998 C4994 1.531 . S
C4998 H5010 0.960 1_554 S
C4998 H5011 0.962 . S
C4998 H5012 0.960 . S
C4999 C4996 1.511 . S
C4999 H5013 0.961 . S
C4999 H5014 0.961 . S
C4999 H5015 0.961 . S
C5000 C5001 1.370 . S
C5000 C5002 1.363 . S
C5000 H5016 0.931 . S
C5001 C5000 1.370 . S
C5001 C5005 1.408 . S
C5002 C5000 1.363 . S
C5002 C5003 1.370 . S
C5002 C5006 1.524 . S
C5003 C4995 1.503 1_556 S
C5003 C5002 1.370 . S
C5003 C5004 1.403 . S
C5004 C5003 1.403 . S
C5004 C5005 1.404 . S
C5004 C5007 1.539 . S
C5005 C5001 1.408 . S
C5005 C5004 1.404 . S
C5005 H5017 0.930 . S
C5006 C5002 1.524 . S
C5006 H5018 0.956 . S
C5006 H5019 0.961 1_556 S
C5006 H5020 0.961 . S
C5007 C5004 1.539 . S
C5007 H5021 0.958 . S
C5007 H5022 0.961 . S
C5007 H5023 0.960 1_556 S
H5008 C4992 0.931 . S
H5009 C4997 0.929 . S
H5010 C4998 0.960 1_556 S
H5011 C4998 0.962 . S
H5012 C4998 0.960 . S
H5013 C4999 0.961 . S
H5014 C4999 0.961 . S
H5015 C4999 0.961 . S
H5016 C5000 0.931 . S
H5017 C5005 0.930 . S
H5018 C5006 0.956 . S
H5019 C5006 0.961 1_554 S
H5020 C5006 0.961 . S
H5021 C5007 0.958 . S
H5022 C5007 0.961 . S
H5023 C5007 0.960 1_554 S
C5024 C5025 1.391 . S
C5024 C5026 1.394 . S
C5024 H5040 0.931 . S
C5025 C5024 1.391 . S
C5025 C5029 1.376 . S
C5026 C5024 1.394 . S
C5026 C5027 1.369 . S
C5026 C5030 1.531 . S
C5027 C5026 1.369 . S
C5027 C5028 1.410 . S
C5027 C5035 1.503 1_556 S
C5028 C5027 1.410 . S
C5028 C5029 1.392 . S
C5028 C5031 1.511 . S
C5029 C5025 1.376 . S
C5029 C5028 1.392 . S
C5029 H5041 0.929 . S
C5030 C5026 1.531 . S
C5030 H5042 0.977 . S
C5030 H5043 0.962 . S
C5030 H5044 0.960 . S
C5031 C5028 1.511 . S
C5031 H5045 0.961 . S
C5031 H5046 0.961 1_556 S
C5031 H5047 0.961 . S
C5032 C5033 1.370 . S
C5032 C5034 1.363 . S
C5032 H5048 0.931 . S
C5033 C5032 1.370 . S
C5033 C5037 1.408 . S
C5034 C5032 1.363 . S
C5034 C5035 1.370 . S
C5034 C5038 1.524 . S
C5035 C5027 1.503 1_554 S
C5035 C5034 1.370 . S
C5035 C5036 1.403 . S
C5036 C5035 1.403 . S
C5036 C5037 1.404 . S
C5036 C5039 1.539 . S
C5037 C5033 1.408 . S
C5037 C5036 1.404 . S
C5037 H5049 0.930 . S
C5038 C5034 1.524 . S
C5038 H5050 0.956 . S
C5038 H5051 0.961 . S
C5038 H5052 0.961 . S
C5039 C5036 1.539 . S
C5039 H5053 0.958 . S
C5039 H5054 0.961 . S
C5039 H5055 0.960 1_554 S
H5040 C5024 0.931 . S
H5041 C5029 0.929 . S
H5042 C5030 0.977 . S
H5043 C5030 0.962 . S
H5044 C5030 0.960 . S
H5045 C5031 0.961 . S
H5046 C5031 0.961 1_554 S
H5047 C5031 0.961 . S
H5048 C5032 0.931 . S
H5049 C5037 0.930 . S
H5050 C5038 0.956 . S
H5051 C5038 0.961 . S
H5052 C5038 0.961 . S
H5053 C5039 0.958 . S
H5054 C5039 0.961 . S
H5055 C5039 0.960 1_556 S
C5056 C5057 1.391 . S
C5056 C5058 1.394 . S
C5056 H5072 0.931 . S
C5057 C5056 1.391 . S
C5057 C5061 1.376 . S
C5058 C5056 1.394 . S
C5058 C5059 1.369 . S
C5058 C5062 1.531 . S
C5059 C5058 1.369 . S
C5059 C5060 1.410 . S
C5059 C5067 1.503 1_554 S
C5060 C5059 1.410 . S
C5060 C5061 1.392 . S
C5060 C5063 1.511 . S
C5061 C5057 1.376 . S
C5061 C5060 1.392 . S
C5061 H5073 0.929 . S
C5062 C5058 1.531 . S
C5062 H5074 0.960 1_554 S
C5062 H5075 0.962 . S
C5062 H5076 0.960 . S
C5063 C5060 1.511 . S
C5063 H5077 0.961 . S
C5063 H5078 0.961 . S
C5063 H5079 0.961 . S
C5064 C5065 1.370 . S
C5064 C5066 1.363 . S
C5064 H5080 0.931 . S
C5065 C5064 1.370 . S
C5065 C5069 1.408 . S
C5066 C5064 1.363 . S
C5066 C5067 1.370 . S
C5066 C5070 1.524 . S
C5067 C5059 1.503 1_556 S
C5067 C5066 1.370 . S
C5067 C5068 1.403 . S
C5068 C5067 1.403 . S
C5068 C5069 1.404 . S
C5068 C5071 1.539 . S
C5069 C5065 1.408 . S
C5069 C5068 1.404 . S
C5069 H5081 0.930 . S
C5070 C5066 1.524 . S
C5070 H5082 0.993 . S
C5070 H5083 0.961 1_556 S
C5070 H5084 0.961 . S
C5071 C5068 1.539 . S
C5071 H5085 0.958 . S
C5071 H5086 0.961 . S
C5071 H5087 0.960 1_556 S
H5072 C5056 0.931 . S
H5073 C5061 0.929 . S
H5074 C5062 0.960 1_556 S
H5075 C5062 0.962 . S
H5076 C5062 0.960 . S
H5077 C5063 0.961 . S
H5078 C5063 0.961 . S
H5079 C5063 0.961 . S
H5080 C5064 0.931 . S
H5081 C5069 0.930 . S
H5082 C5070 0.993 . S
H5083 C5070 0.961 1_554 S
H5084 C5070 0.961 . S
H5085 C5071 0.958 . S
H5086 C5071 0.961 . S
H5087 C5071 0.960 1_554 S
C5088 C5089 1.391 . S
C5088 C5090 1.394 . S
C5088 H5104 0.931 . S
C5089 C5088 1.391 . S
C5089 C5093 1.376 . S
C5090 C5088 1.394 . S
C5090 C5091 1.369 . S
C5090 C5094 1.531 . S
C5091 C5090 1.369 . S
C5091 C5092 1.410 . S
C5091 C5099 1.503 1_554 S
C5092 C5091 1.410 . S
C5092 C5093 1.392 . S
C5092 C5095 1.511 . S
C5093 C5089 1.376 . S
C5093 C5092 1.392 . S
C5093 H5105 0.929 . S
C5094 C5090 1.531 . S
C5094 H5106 0.960 1_554 S
C5094 H5107 0.961 1_554 S
C5094 H5108 0.960 . S
C5095 C5092 1.511 . S
C5095 H5109 0.961 . S
C5095 H5110 0.996 . S
C5095 H5111 0.961 . S
C5096 C5097 1.370 . S
C5096 C5098 1.363 . S
C5096 H5112 0.931 . S
C5097 C5096 1.370 . S
C5097 C5101 1.408 . S
C5098 C5096 1.363 . S
C5098 C5099 1.370 . S
C5098 C5102 1.524 . S
C5099 C5091 1.503 1_556 S
C5099 C5098 1.370 . S
C5099 C5100 1.403 . S
C5100 C5099 1.403 . S
C5100 C5101 1.404 . S
C5100 C5103 1.539 . S
C5101 C5097 1.408 . S
C5101 C5100 1.404 . S
C5101 H5113 0.930 . S
C5102 C5098 1.524 . S
C5102 H5114 0.956 . S
C5102 H5115 0.961 1_556 S
C5102 H5116 0.961 . S
C5103 C5100 1.539 . S
C5103 H5117 0.958 . S
C5103 H5118 0.961 . S
C5103 H5119 0.960 . S
H5104 C5088 0.931 . S
H5105 C5093 0.929 . S
H5106 C5094 0.960 1_556 S
H5107 C5094 0.961 1_556 S
H5108 C5094 0.960 . S
H5109 C5095 0.961 . S
H5110 C5095 0.996 . S
H5111 C5095 0.961 . S
H5112 C5096 0.931 . S
H5113 C5101 0.930 . S
H5114 C5102 0.956 . S
H5115 C5102 0.961 1_554 S
H5116 C5102 0.961 . S
H5117 C5103 0.958 . S
H5118 C5103 0.961 . S
H5119 C5103 0.960 . S
C5120 C5121 1.391 . S
C5120 C5122 1.394 . S
C5120 H5136 0.931 . S
C5121 C5120 1.391 . S
C5121 C5125 1.376 . S
C5122 C5120 1.394 . S
C5122 C5123 1.369 . S
C5122 C5126 1.531 . S
C5123 C5122 1.369 . S
C5123 C5124 1.410 . S
C5123 C5131 1.503 1_556 S
C5124 C5123 1.410 . S
C5124 C5125 1.392 . S
C5124 C5127 1.511 . S
C5125 C5121 1.376 . S
C5125 C5124 1.392 . S
C5125 H5137 0.929 . S
C5126 C5122 1.531 . S
C5126 H5138 0.960 1_556 S
C5126 H5139 0.962 . S
C5126 H5140 0.960 . S
C5127 C5124 1.511 . S
C5127 H5141 0.961 . S
C5127 H5142 0.961 . S
C5127 H5143 0.961 . S
C5128 C5129 1.370 . S
C5128 C5130 1.363 . S
C5128 H5144 0.931 . S
C5129 C5128 1.370 . S
C5129 C5133 1.408 . S
C5130 C5128 1.363 . S
C5130 C5131 1.370 . S
C5130 C5134 1.524 . S
C5131 C5123 1.503 1_554 S
C5131 C5130 1.370 . S
C5131 C5132 1.403 . S
C5132 C5131 1.403 . S
C5132 C5133 1.404 . S
C5132 C5135 1.539 . S
C5133 C5129 1.408 . S
C5133 C5132 1.404 . S
C5133 H5145 0.930 . S
C5134 C5130 1.524 . S
C5134 H5146 0.964 . S
C5134 H5147 0.961 1_554 S
C5134 H5148 0.961 . S
C5135 C5132 1.539 . S
C5135 H5149 0.958 . S
C5135 H5150 0.961 . S
C5135 H5151 0.960 1_554 S
H5136 C5120 0.931 . S
H5137 C5125 0.929 . S
H5138 C5126 0.960 1_554 S
H5139 C5126 0.962 . S
H5140 C5126 0.960 . S
H5141 C5127 0.961 . S
H5142 C5127 0.961 . S
H5143 C5127 0.961 . S
H5144 C5128 0.931 . S
H5145 C5133 0.930 . S
H5146 C5134 0.964 . S
H5147 C5134 0.961 1_556 S
H5148 C5134 0.961 . S
H5149 C5135 0.958 . S
H5150 C5135 0.961 . S
H5151 C5135 0.960 1_556 S
C5152 C5153 1.391 . S
C5152 C5154 1.394 . S
C5152 H5168 0.931 . S
C5153 C5152 1.391 . S
C5153 C5157 1.376 . S
C5154 C5152 1.394 . S
C5154 C5155 1.369 . S
C5154 C5158 1.531 . S
C5155 C5154 1.369 . S
C5155 C5156 1.410 . S
C5155 C5163 1.503 1_556 S
C5156 C5155 1.410 . S
C5156 C5157 1.392 . S
C5156 C5159 1.511 . S
C5157 C5153 1.376 . S
C5157 C5156 1.392 . S
C5157 H5169 0.929 . S
C5158 C5154 1.531 . S
C5158 H5170 0.906 1_556 S
C5158 H5171 0.962 . S
C5158 H5172 0.960 . S
C5159 C5156 1.511 . S
C5159 H5173 0.961 . S
C5159 H5174 0.954 1_556 S
C5159 H5175 0.961 . S
C5160 C5161 1.370 . S
C5160 C5162 1.363 . S
C5160 H5176 0.931 . S
C5161 C5160 1.370 . S
C5161 C5165 1.408 . S
C5162 C5160 1.363 . S
C5162 C5163 1.370 . S
C5162 C5166 1.574 . S
C5163 C5155 1.503 1_554 S
C5163 C5162 1.370 . S
C5163 C5164 1.403 . S
C5164 C5163 1.403 . S
C5164 C5165 1.404 . S
C5164 C5167 1.539 . S
C5165 C5161 1.408 . S
C5165 C5164 1.404 . S
C5165 H5177 0.930 . S
C5166 C5162 1.574 . S
C5166 H5178 0.919 1_554 S
C5166 H5179 0.916 1_554 S
C5166 H5180 1.000 . S
C5167 C5164 1.539 . S
C5167 H5181 0.958 . S
C5167 H5182 0.961 . S
C5167 H5183 0.960 . S
H5168 C5152 0.931 . S
H5169 C5157 0.929 . S
H5170 C5158 0.906 1_554 S
H5171 C5158 0.962 . S
H5172 C5158 0.960 . S
H5173 C5159 0.961 . S
H5174 C5159 0.954 1_554 S
H5175 C5159 0.961 . S
H5176 C5160 0.931 . S
H5177 C5165 0.930 . S
H5178 C5166 0.919 1_556 S
H5179 C5166 0.916 1_556 S
H5180 C5166 1.000 . S
H5181 C5167 0.958 . S
H5182 C5167 0.961 . S
H5183 C5167 0.960 . S
C5184 C5185 1.391 . S
C5184 C5186 1.394 . S
C5184 H5200 0.931 . S
C5185 C5184 1.391 . S
C5185 C5189 1.376 . S
C5186 C5184 1.394 . S
C5186 C5187 1.369 . S
C5186 C5190 1.531 . S
C5187 C5186 1.369 . S
C5187 C5188 1.410 . S
C5187 C5195 1.503 . S
C5188 C5187 1.410 . S
C5188 C5189 1.392 . S
C5188 C5191 1.511 . S
C5189 C5185 1.376 . S
C5189 C5188 1.392 . S
C5189 H5201 0.929 . S
C5190 C5186 1.531 . S
C5190 H5202 0.960 . S
C5190 H5203 0.962 . S
C5190 H5204 0.960 . S
C5191 C5188 1.511 . S
C5191 H5205 0.961 . S
C5191 H5206 0.961 . S
C5191 H5207 0.961 . S
C5192 C5193 1.370 . S
C5192 C5194 1.363 . S
C5192 H5208 0.931 . S
C5193 C5192 1.370 . S
C5193 C5197 1.408 . S
C5194 C5192 1.363 . S
C5194 C5195 1.370 . S
C5194 C5198 1.524 . S
C5195 C5187 1.503 . S
C5195 C5194 1.370 . S
C5195 C5196 1.403 . S
C5196 C5195 1.403 . S
C5196 C5197 1.404 . S
C5196 C5199 1.539 . S
C5197 C5193 1.408 . S
C5197 C5196 1.404 . S
C5197 H5209 0.930 . S
C5198 C5194 1.524 . S
C5198 H5210 0.956 . S
C5198 H5211 0.961 . S
C5198 H5212 0.961 . S
C5199 C5196 1.539 . S
C5199 H5213 0.958 . S
C5199 H5214 0.961 . S
C5199 H5215 0.960 . S
H5200 C5184 0.931 . S
H5201 C5189 0.929 . S
H5202 C5190 0.960 . S
H5203 C5190 0.962 . S
H5204 C5190 0.960 . S
H5205 C5191 0.961 . S
H5206 C5191 0.961 . S
H5207 C5191 0.961 . S
H5208 C5192 0.931 . S
H5209 C5197 0.930 . S
H5210 C5198 0.956 . S
H5211 C5198 0.961 . S
H5212 C5198 0.961 . S
H5213 C5199 0.958 . S
H5214 C5199 0.961 . S
H5215 C5199 0.960 . S
C5216 C5217 1.391 . S
C5216 C5218 1.394 . S
C5216 H5232 0.931 . S
C5217 C5216 1.391 . S
C5217 C5221 1.376 . S
C5218 C5216 1.394 . S
C5218 C5219 1.369 . S
C5218 C5222 1.531 . S
C5219 C5218 1.369 . S
C5219 C5220 1.410 . S
C5219 C5227 1.503 . S
C5220 C5219 1.410 . S
C5220 C5221 1.392 . S
C5220 C5223 1.511 . S
C5221 C5217 1.376 . S
C5221 C5220 1.392 . S
C5221 H5233 0.929 . S
C5222 C5218 1.531 . S
C5222 H5234 0.960 . S
C5222 H5235 0.962 . S
C5222 H5236 0.960 . S
C5223 C5220 1.511 . S
C5223 H5237 0.961 . S
C5223 H5238 0.961 . S
C5223 H5239 0.961 . S
C5224 C5225 1.370 . S
C5224 C5226 1.363 . S
C5224 H5240 0.931 . S
C5225 C5224 1.370 . S
C5225 C5229 1.408 . S
C5226 C5224 1.363 . S
C5226 C5227 1.370 . S
C5226 C5230 1.524 . S
C5227 C5219 1.503 . S
C5227 C5226 1.370 . S
C5227 C5228 1.403 . S
C5228 C5227 1.403 . S
C5228 C5229 1.404 . S
C5228 C5231 1.539 . S
C5229 C5225 1.408 . S
C5229 C5228 1.404 . S
C5229 H5241 0.930 . S
C5230 C5226 1.524 . S
C5230 H5242 0.956 . S
C5230 H5243 0.961 . S
C5230 H5244 0.961 . S
C5231 C5228 1.539 . S
C5231 H5245 0.958 . S
C5231 H5246 0.961 . S
C5231 H5247 0.960 . S
H5232 C5216 0.931 . S
H5233 C5221 0.929 . S
H5234 C5222 0.960 . S
H5235 C5222 0.962 . S
H5236 C5222 0.960 . S
H5237 C5223 0.961 . S
H5238 C5223 0.961 . S
H5239 C5223 0.961 . S
H5240 C5224 0.931 . S
H5241 C5229 0.930 . S
H5242 C5230 0.956 . S
H5243 C5230 0.961 . S
H5244 C5230 0.961 . S
H5245 C5231 0.958 . S
H5246 C5231 0.961 . S
H5247 C5231 0.960 . S
C5248 C5249 1.391 . S
C5248 C5250 1.394 . S
C5248 H5264 0.931 . S
C5249 C5248 1.391 . S
C5249 C5253 1.376 . S
C5250 C5248 1.394 . S
C5250 C5251 1.369 . S
C5250 C5254 1.531 . S
C5251 C5250 1.369 . S
C5251 C5252 1.410 . S
C5251 C5259 1.503 . S
C5252 C5251 1.410 . S
C5252 C5253 1.392 . S
C5252 C5255 1.511 . S
C5253 C5249 1.376 . S
C5253 C5252 1.392 . S
C5253 H5265 0.929 . S
C5254 C5250 1.531 . S
C5254 H5266 0.960 . S
C5254 H5267 0.962 . S
C5254 H5268 0.960 . S
C5255 C5252 1.511 . S
C5255 H5269 0.961 . S
C5255 H5270 0.961 . S
C5255 H5271 0.961 . S
C5256 C5257 1.370 . S
C5256 C5258 1.363 . S
C5256 H5272 0.931 . S
C5257 C5256 1.370 . S
C5257 C5261 1.408 . S
C5258 C5256 1.363 . S
C5258 C5259 1.370 . S
C5258 C5262 1.524 . S
C5259 C5251 1.503 . S
C5259 C5258 1.370 . S
C5259 C5260 1.403 . S
C5260 C5259 1.403 . S
C5260 C5261 1.404 . S
C5260 C5263 1.539 . S
C5261 C5257 1.408 . S
C5261 C5260 1.404 . S
C5261 H5273 0.930 . S
C5262 C5258 1.524 . S
C5262 H5274 0.956 . S
C5262 H5275 0.961 . S
C5262 H5276 0.961 . S
C5263 C5260 1.539 . S
C5263 H5277 0.958 . S
C5263 H5278 0.961 . S
C5263 H5279 0.960 . S
H5264 C5248 0.931 . S
H5265 C5253 0.929 . S
H5266 C5254 0.960 . S
H5267 C5254 0.962 . S
H5268 C5254 0.960 . S
H5269 C5255 0.961 . S
H5270 C5255 0.961 . S
H5271 C5255 0.961 . S
H5272 C5256 0.931 . S
H5273 C5261 0.930 . S
H5274 C5262 0.956 . S
H5275 C5262 0.961 . S
H5276 C5262 0.961 . S
H5277 C5263 0.958 . S
H5278 C5263 0.961 . S
H5279 C5263 0.960 . S
C5280 C5281 1.391 . S
C5280 C5282 1.394 . S
C5280 H5296 0.931 . S
C5281 C5280 1.391 . S
C5281 C5285 1.376 . S
C5282 C5280 1.394 . S
C5282 C5283 1.369 . S
C5282 C5286 1.531 . S
C5283 C5282 1.369 . S
C5283 C5284 1.410 . S
C5283 C5291 1.503 . S
C5284 C5283 1.410 . S
C5284 C5285 1.392 . S
C5284 C5287 1.511 . S
C5285 C5281 1.376 . S
C5285 C5284 1.392 . S
C5285 H5297 0.929 . S
C5286 C5282 1.531 . S
C5286 H5298 0.960 . S
C5286 H5299 0.962 . S
C5286 H5300 0.960 . S
C5287 C5284 1.511 . S
C5287 H5301 0.961 . S
C5287 H5302 0.961 . S
C5287 H5303 0.961 . S
C5288 C5289 1.370 . S
C5288 C5290 1.363 . S
C5288 H5304 0.931 . S
C5289 C5288 1.370 . S
C5289 C5293 1.408 . S
C5290 C5288 1.363 . S
C5290 C5291 1.370 . S
C5290 C5294 1.524 . S
C5291 C5283 1.503 . S
C5291 C5290 1.370 . S
C5291 C5292 1.403 . S
C5292 C5291 1.403 . S
C5292 C5293 1.404 . S
C5292 C5295 1.539 . S
C5293 C5289 1.408 . S
C5293 C5292 1.404 . S
C5293 H5305 0.930 . S
C5294 C5290 1.524 . S
C5294 H5306 0.956 . S
C5294 H5307 0.961 . S
C5294 H5308 0.961 . S
C5295 C5292 1.539 . S
C5295 H5309 0.958 . S
C5295 H5310 0.961 . S
C5295 H5311 0.960 . S
H5296 C5280 0.931 . S
H5297 C5285 0.929 . S
H5298 C5286 0.960 . S
H5299 C5286 0.962 . S
H5300 C5286 0.960 . S
H5301 C5287 0.961 . S
H5302 C5287 0.961 . S
H5303 C5287 0.961 . S
H5304 C5288 0.931 . S
H5305 C5293 0.930 . S
H5306 C5294 0.956 . S
H5307 C5294 0.961 . S
H5308 C5294 0.961 . S
H5309 C5295 0.958 . S
H5310 C5295 0.961 . S
H5311 C5295 0.960 . S
C5312 C5313 1.391 . S
C5312 C5314 1.394 . S
C5312 H5328 0.931 . S
C5313 C5312 1.391 . S
C5313 C5317 1.376 . S
C5314 C5312 1.394 . S
C5314 C5315 1.369 . S
C5314 C5318 1.531 . S
C5315 C5314 1.369 . S
C5315 C5316 1.410 . S
C5315 C5323 1.503 . S
C5316 C5315 1.410 . S
C5316 C5317 1.392 . S
C5316 C5319 1.511 . S
C5317 C5313 1.376 . S
C5317 C5316 1.392 . S
C5317 H5329 0.929 . S
C5318 C5314 1.531 . S
C5318 H5330 0.960 . S
C5318 H5331 0.962 . S
C5318 H5332 0.960 . S
C5319 C5316 1.511 . S
C5319 H5333 0.961 . S
C5319 H5334 0.961 . S
C5319 H5335 0.961 . S
C5320 C5321 1.370 . S
C5320 C5322 1.363 . S
C5320 H5336 0.931 . S
C5321 C5320 1.370 . S
C5321 C5325 1.408 . S
C5322 C5320 1.363 . S
C5322 C5323 1.370 . S
C5322 C5326 1.524 . S
C5323 C5315 1.503 . S
C5323 C5322 1.370 . S
C5323 C5324 1.403 . S
C5324 C5323 1.403 . S
C5324 C5325 1.404 . S
C5324 C5327 1.539 . S
C5325 C5321 1.408 . S
C5325 C5324 1.404 . S
C5325 H5337 0.930 . S
C5326 C5322 1.524 . S
C5326 H5338 0.956 . S
C5326 H5339 0.961 . S
C5326 H5340 0.961 . S
C5327 C5324 1.539 . S
C5327 H5341 0.958 . S
C5327 H5342 0.961 . S
C5327 H5343 0.960 . S
H5328 C5312 0.931 . S
H5329 C5317 0.929 . S
H5330 C5318 0.960 . S
H5331 C5318 0.962 . S
H5332 C5318 0.960 . S
H5333 C5319 0.961 . S
H5334 C5319 0.961 . S
H5335 C5319 0.961 . S
H5336 C5320 0.931 . S
H5337 C5325 0.930 . S
H5338 C5326 0.956 . S
H5339 C5326 0.961 . S
H5340 C5326 0.961 . S
H5341 C5327 0.958 . S
H5342 C5327 0.961 . S
H5343 C5327 0.960 . S
C5344 C5345 1.391 . S
C5344 C5346 1.394 . S
C5344 H5360 0.931 . S
C5345 C5344 1.391 . S
C5345 C5349 1.376 . S
C5346 C5344 1.394 . S
C5346 C5347 1.369 . S
C5346 C5350 1.531 . S
C5347 C5346 1.369 . S
C5347 C5348 1.410 . S
C5347 C5355 1.503 . S
C5348 C5347 1.410 . S
C5348 C5349 1.392 . S
C5348 C5351 1.511 . S
C5349 C5345 1.376 . S
C5349 C5348 1.392 . S
C5349 H5361 0.929 . S
C5350 C5346 1.531 . S
C5350 H5362 0.960 . S
C5350 H5363 0.962 . S
C5350 H5364 0.960 . S
C5351 C5348 1.511 . S
C5351 H5365 0.961 . S
C5351 H5366 0.961 . S
C5351 H5367 0.961 . S
C5352 C5353 1.370 . S
C5352 C5354 1.363 . S
C5352 H5368 0.931 . S
C5353 C5352 1.370 . S
C5353 C5357 1.408 . S
C5354 C5352 1.363 . S
C5354 C5355 1.370 . S
C5354 C5358 1.524 . S
C5355 C5347 1.503 . S
C5355 C5354 1.370 . S
C5355 C5356 1.403 . S
C5356 C5355 1.403 . S
C5356 C5357 1.404 . S
C5356 C5359 1.539 . S
C5357 C5353 1.408 . S
C5357 C5356 1.404 . S
C5357 H5369 0.930 . S
C5358 C5354 1.524 . S
C5358 H5370 0.956 . S
C5358 H5371 0.961 . S
C5358 H5372 0.961 . S
C5359 C5356 1.539 . S
C5359 H5373 0.958 . S
C5359 H5374 0.961 . S
C5359 H5375 0.960 . S
H5360 C5344 0.931 . S
H5361 C5349 0.929 . S
H5362 C5350 0.960 . S
H5363 C5350 0.962 . S
H5364 C5350 0.960 . S
H5365 C5351 0.961 . S
H5366 C5351 0.961 . S
H5367 C5351 0.961 . S
H5368 C5352 0.931 . S
H5369 C5357 0.930 . S
H5370 C5358 0.956 . S
H5371 C5358 0.961 . S
H5372 C5358 0.961 . S
H5373 C5359 0.958 . S
H5374 C5359 0.961 . S
H5375 C5359 0.960 . S
C5376 C5377 1.391 . S
C5376 C5378 1.394 . S
C5376 H5392 0.931 . S
C5377 C5376 1.391 . S
C5377 C5381 1.376 . S
C5378 C5376 1.394 . S
C5378 C5379 1.369 . S
C5378 C5382 1.531 . S
C5379 C5378 1.369 . S
C5379 C5380 1.410 . S
C5379 C5387 1.503 . S
C5380 C5379 1.410 . S
C5380 C5381 1.392 . S
C5380 C5383 1.511 . S
C5381 C5377 1.376 . S
C5381 C5380 1.392 . S
C5381 H5393 0.929 . S
C5382 C5378 1.531 . S
C5382 H5394 0.960 . S
C5382 H5395 0.962 . S
C5382 H5396 0.960 . S
C5383 C5380 1.511 . S
C5383 H5397 0.961 . S
C5383 H5398 0.961 . S
C5383 H5399 0.961 . S
C5384 C5385 1.370 . S
C5384 C5386 1.363 . S
C5384 H5400 0.931 . S
C5385 C5384 1.370 . S
C5385 C5389 1.408 . S
C5386 C5384 1.363 . S
C5386 C5387 1.370 . S
C5386 C5390 1.524 . S
C5387 C5379 1.503 . S
C5387 C5386 1.370 . S
C5387 C5388 1.403 . S
C5388 C5387 1.403 . S
C5388 C5389 1.404 . S
C5388 C5391 1.539 . S
C5389 C5385 1.408 . S
C5389 C5388 1.404 . S
C5389 H5401 0.930 . S
C5390 C5386 1.524 . S
C5390 H5402 0.956 . S
C5390 H5403 0.961 . S
C5390 H5404 0.961 . S
C5391 C5388 1.539 . S
C5391 H5405 0.958 . S
C5391 H5406 0.961 . S
C5391 H5407 0.960 . S
H5392 C5376 0.931 . S
H5393 C5381 0.929 . S
H5394 C5382 0.960 . S
H5395 C5382 0.962 . S
H5396 C5382 0.960 . S
H5397 C5383 0.961 . S
H5398 C5383 0.961 . S
H5399 C5383 0.961 . S
H5400 C5384 0.931 . S
H5401 C5389 0.930 . S
H5402 C5390 0.956 . S
H5403 C5390 0.961 . S
H5404 C5390 0.961 . S
H5405 C5391 0.958 . S
H5406 C5391 0.961 . S
H5407 C5391 0.960 . S
C5408 C5409 1.391 . S
C5408 C5410 1.394 . S
C5408 H5424 0.931 . S
C5409 C5408 1.391 . S
C5409 C5413 1.376 . S
C5410 C5408 1.394 . S
C5410 C5411 1.369 . S
C5410 C5414 1.531 . S
C5411 C5410 1.369 . S
C5411 C5412 1.410 . S
C5411 C5419 1.503 . S
C5412 C5411 1.410 . S
C5412 C5413 1.392 . S
C5412 C5415 1.511 . S
C5413 C5409 1.376 . S
C5413 C5412 1.392 . S
C5413 H5425 0.929 . S
C5414 C5410 1.531 . S
C5414 H5426 0.960 . S
C5414 H5427 0.962 . S
C5414 H5428 0.960 . S
C5415 C5412 1.511 . S
C5415 H5429 0.961 . S
C5415 H5430 0.961 . S
C5415 H5431 0.961 . S
C5416 C5417 1.370 . S
C5416 C5418 1.363 . S
C5416 H5432 0.931 . S
C5417 C5416 1.370 . S
C5417 C5421 1.408 . S
C5418 C5416 1.363 . S
C5418 C5419 1.370 . S
C5418 C5422 1.524 . S
C5419 C5411 1.503 . S
C5419 C5418 1.370 . S
C5419 C5420 1.403 . S
C5420 C5419 1.403 . S
C5420 C5421 1.404 . S
C5420 C5423 1.539 . S
C5421 C5417 1.408 . S
C5421 C5420 1.404 . S
C5421 H5433 0.930 . S
C5422 C5418 1.524 . S
C5422 H5434 0.956 . S
C5422 H5435 0.961 . S
C5422 H5436 0.961 . S
C5423 C5420 1.539 . S
C5423 H5437 0.958 . S
C5423 H5438 0.961 . S
C5423 H5439 0.960 . S
H5424 C5408 0.931 . S
H5425 C5413 0.929 . S
H5426 C5414 0.960 . S
H5427 C5414 0.962 . S
H5428 C5414 0.960 . S
H5429 C5415 0.961 . S
H5430 C5415 0.961 . S
H5431 C5415 0.961 . S
H5432 C5416 0.931 . S
H5433 C5421 0.930 . S
H5434 C5422 0.956 . S
H5435 C5422 0.961 . S
H5436 C5422 0.961 . S
H5437 C5423 0.958 . S
H5438 C5423 0.961 . S
H5439 C5423 0.960 . S
C5440 C5441 1.391 . S
C5440 C5442 1.394 . S
C5440 H5456 0.931 . S
C5441 C5440 1.391 . S
C5441 C5445 1.376 . S
C5442 C5440 1.394 . S
C5442 C5443 1.369 . S
C5442 C5446 1.531 . S
C5443 C5442 1.369 . S
C5443 C5444 1.410 . S
C5443 C5451 1.503 . S
C5444 C5443 1.410 . S
C5444 C5445 1.392 . S
C5444 C5447 1.511 . S
C5445 C5441 1.376 . S
C5445 C5444 1.392 . S
C5445 H5457 0.929 . S
C5446 C5442 1.531 . S
C5446 H5458 0.960 . S
C5446 H5459 0.962 . S
C5446 H5460 0.960 . S
C5447 C5444 1.511 . S
C5447 H5461 0.961 . S
C5447 H5462 0.961 . S
C5447 H5463 0.961 . S
C5448 C5449 1.370 . S
C5448 C5450 1.363 . S
C5448 H5464 0.931 . S
C5449 C5448 1.370 . S
C5449 C5453 1.408 . S
C5450 C5448 1.363 . S
C5450 C5451 1.370 . S
C5450 C5454 1.524 . S
C5451 C5443 1.503 . S
C5451 C5450 1.370 . S
C5451 C5452 1.403 . S
C5452 C5451 1.403 . S
C5452 C5453 1.404 . S
C5452 C5455 1.539 . S
C5453 C5449 1.408 . S
C5453 C5452 1.404 . S
C5453 H5465 0.930 . S
C5454 C5450 1.524 . S
C5454 H5466 0.956 . S
C5454 H5467 0.961 . S
C5454 H5468 0.961 . S
C5455 C5452 1.539 . S
C5455 H5469 0.958 . S
C5455 H5470 0.961 . S
C5455 H5471 0.960 . S
H5456 C5440 0.931 . S
H5457 C5445 0.929 . S
H5458 C5446 0.960 . S
H5459 C5446 0.962 . S
H5460 C5446 0.960 . S
H5461 C5447 0.961 . S
H5462 C5447 0.961 . S
H5463 C5447 0.961 . S
H5464 C5448 0.931 . S
H5465 C5453 0.930 . S
H5466 C5454 0.956 . S
H5467 C5454 0.961 . S
H5468 C5454 0.961 . S
H5469 C5455 0.958 . S
H5470 C5455 0.961 . S
H5471 C5455 0.960 . S
C5472 C5473 1.391 . S
C5472 C5474 1.394 . S
C5472 H5488 0.931 . S
C5473 C5472 1.391 . S
C5473 C5477 1.376 . S
C5474 C5472 1.394 . S
C5474 C5475 1.369 . S
C5474 C5478 1.531 . S
C5475 C5474 1.369 . S
C5475 C5476 1.410 . S
C5475 C5483 1.503 . S
C5476 C5475 1.410 . S
C5476 C5477 1.392 . S
C5476 C5479 1.511 . S
C5477 C5473 1.376 . S
C5477 C5476 1.392 . S
C5477 H5489 0.929 . S
C5478 C5474 1.531 . S
C5478 H5490 0.960 . S
C5478 H5491 0.962 . S
C5478 H5492 0.960 . S
C5479 C5476 1.511 . S
C5479 H5493 0.961 . S
C5479 H5494 0.961 . S
C5479 H5495 0.961 . S
C5480 C5481 1.370 . S
C5480 C5482 1.363 . S
C5480 H5496 0.931 . S
C5481 C5480 1.370 . S
C5481 C5485 1.408 . S
C5482 C5480 1.363 . S
C5482 C5483 1.370 . S
C5482 C5486 1.524 . S
C5483 C5475 1.503 . S
C5483 C5482 1.370 . S
C5483 C5484 1.403 . S
C5484 C5483 1.403 . S
C5484 C5485 1.404 . S
C5484 C5487 1.539 . S
C5485 C5481 1.408 . S
C5485 C5484 1.404 . S
C5485 H5497 0.930 . S
C5486 C5482 1.524 . S
C5486 H5498 0.956 . S
C5486 H5499 0.961 . S
C5486 H5500 0.961 . S
C5487 C5484 1.539 . S
C5487 H5501 0.958 . S
C5487 H5502 0.961 . S
C5487 H5503 0.960 . S
H5488 C5472 0.931 . S
H5489 C5477 0.929 . S
H5490 C5478 0.960 . S
H5491 C5478 0.962 . S
H5492 C5478 0.960 . S
H5493 C5479 0.961 . S
H5494 C5479 0.961 . S
H5495 C5479 0.961 . S
H5496 C5480 0.931 . S
H5497 C5485 0.930 . S
H5498 C5486 0.956 . S
H5499 C5486 0.961 . S
H5500 C5486 0.961 . S
H5501 C5487 0.958 . S
H5502 C5487 0.961 . S
H5503 C5487 0.960 . S
C5504 C5505 1.391 . S
C5504 C5506 1.394 . S
C5504 H5520 0.931 . S
C5505 C5504 1.391 . S
C5505 C5509 1.376 . S
C5506 C5504 1.394 . S
C5506 C5507 1.369 . S
C5506 C5510 1.531 . S
C5507 C5506 1.369 . S
C5507 C5508 1.410 . S
C5507 C5515 1.503 . S
C5508 C5507 1.410 . S
C5508 C5509 1.392 . S
C5508 C5511 1.511 . S
C5509 C5505 1.376 . S
C5509 C5508 1.392 . S
C5509 H5521 0.929 . S
C5510 C5506 1.531 . S
C5510 H5522 0.960 . S
C5510 H5523 0.962 . S
C5510 H5524 0.960 . S
C5511 C5508 1.511 . S
C5511 H5525 0.961 . S
C5511 H5526 0.961 . S
C5511 H5527 0.961 . S
C5512 C5513 1.370 . S
C5512 C5514 1.363 . S
C5512 H5528 0.931 . S
C5513 C5512 1.370 . S
C5513 C5517 1.408 . S
C5514 C5512 1.363 . S
C5514 C5515 1.370 . S
C5514 C5518 1.524 . S
C5515 C5507 1.503 . S
C5515 C5514 1.370 . S
C5515 C5516 1.403 . S
C5516 C5515 1.403 . S
C5516 C5517 1.404 . S
C5516 C5519 1.539 . S
C5517 C5513 1.408 . S
C5517 C5516 1.404 . S
C5517 H5529 0.930 . S
C5518 C5514 1.524 . S
C5518 H5530 0.956 . S
C5518 H5531 0.961 . S
C5518 H5532 0.961 . S
C5519 C5516 1.539 . S
C5519 H5533 0.958 . S
C5519 H5534 0.961 . S
C5519 H5535 0.960 . S
H5520 C5504 0.931 . S
H5521 C5509 0.929 . S
H5522 C5510 0.960 . S
H5523 C5510 0.962 . S
H5524 C5510 0.960 . S
H5525 C5511 0.961 . S
H5526 C5511 0.961 . S
H5527 C5511 0.961 . S
H5528 C5512 0.931 . S
H5529 C5517 0.930 . S
H5530 C5518 0.956 . S
H5531 C5518 0.961 . S
H5532 C5518 0.961 . S
H5533 C5519 0.958 . S
H5534 C5519 0.961 . S
H5535 C5519 0.960 . S
C5536 C5537 1.391 . S
C5536 C5538 1.394 . S
C5536 H5552 0.931 . S
C5537 C5536 1.391 . S
C5537 C5541 1.376 . S
C5538 C5536 1.394 . S
C5538 C5539 1.369 . S
C5538 C5542 1.531 . S
C5539 C5538 1.369 . S
C5539 C5540 1.410 . S
C5539 C5547 1.503 . S
C5540 C5539 1.410 . S
C5540 C5541 1.392 . S
C5540 C5543 1.511 . S
C5541 C5537 1.376 . S
C5541 C5540 1.392 . S
C5541 H5553 0.929 . S
C5542 C5538 1.531 . S
C5542 H5554 0.960 . S
C5542 H5555 0.962 . S
C5542 H5556 0.960 . S
C5543 C5540 1.511 . S
C5543 H5557 0.961 . S
C5543 H5558 0.961 . S
C5543 H5559 0.961 . S
C5544 C5545 1.370 . S
C5544 C5546 1.363 . S
C5544 H5560 0.931 . S
C5545 C5544 1.370 . S
C5545 C5549 1.408 . S
C5546 C5544 1.363 . S
C5546 C5547 1.370 . S
C5546 C5550 1.524 . S
C5547 C5539 1.503 . S
C5547 C5546 1.370 . S
C5547 C5548 1.403 . S
C5548 C5547 1.403 . S
C5548 C5549 1.404 . S
C5548 C5551 1.539 . S
C5549 C5545 1.408 . S
C5549 C5548 1.404 . S
C5549 H5561 0.930 . S
C5550 C5546 1.524 . S
C5550 H5562 0.956 . S
C5550 H5563 0.961 . S
C5550 H5564 0.961 . S
C5551 C5548 1.539 . S
C5551 H5565 0.958 . S
C5551 H5566 0.961 . S
C5551 H5567 0.960 . S
H5552 C5536 0.931 . S
H5553 C5541 0.929 . S
H5554 C5542 0.960 . S
H5555 C5542 0.962 . S
H5556 C5542 0.960 . S
H5557 C5543 0.961 . S
H5558 C5543 0.961 . S
H5559 C5543 0.961 . S
H5560 C5544 0.931 . S
H5561 C5549 0.930 . S
H5562 C5550 0.956 . S
H5563 C5550 0.961 . S
H5564 C5550 0.961 . S
H5565 C5551 0.958 . S
H5566 C5551 0.961 . S
H5567 C5551 0.960 . S
C5568 C5569 1.391 . S
C5568 C5570 1.394 . S
C5568 H5584 0.931 . S
C5569 C5568 1.391 . S
C5569 C5573 1.376 . S
C5570 C5568 1.394 . S
C5570 C5571 1.369 . S
C5570 C5574 1.531 . S
C5571 C5570 1.369 . S
C5571 C5572 1.410 . S
C5571 C5579 1.503 . S
C5572 C5571 1.410 . S
C5572 C5573 1.392 . S
C5572 C5575 1.511 . S
C5573 C5569 1.376 . S
C5573 C5572 1.392 . S
C5573 H5585 0.929 . S
C5574 C5570 1.531 . S
C5574 H5586 0.960 . S
C5574 H5587 0.962 . S
C5574 H5588 0.960 . S
C5575 C5572 1.511 . S
C5575 H5589 0.961 . S
C5575 H5590 0.961 . S
C5575 H5591 0.961 . S
C5576 C5577 1.370 . S
C5576 C5578 1.363 . S
C5576 H5592 0.931 . S
C5577 C5576 1.370 . S
C5577 C5581 1.408 . S
C5578 C5576 1.363 . S
C5578 C5579 1.370 . S
C5578 C5582 1.524 . S
C5579 C5571 1.503 . S
C5579 C5578 1.370 . S
C5579 C5580 1.403 . S
C5580 C5579 1.403 . S
C5580 C5581 1.404 . S
C5580 C5583 1.539 . S
C5581 C5577 1.408 . S
C5581 C5580 1.404 . S
C5581 H5593 0.930 . S
C5582 C5578 1.524 . S
C5582 H5594 0.956 . S
C5582 H5595 0.961 . S
C5582 H5596 0.961 . S
C5583 C5580 1.539 . S
C5583 H5597 0.958 . S
C5583 H5598 0.961 . S
C5583 H5599 0.960 . S
H5584 C5568 0.931 . S
H5585 C5573 0.929 . S
H5586 C5574 0.960 . S
H5587 C5574 0.962 . S
H5588 C5574 0.960 . S
H5589 C5575 0.961 . S
H5590 C5575 0.961 . S
H5591 C5575 0.961 . S
H5592 C5576 0.931 . S
H5593 C5581 0.930 . S
H5594 C5582 0.956 . S
H5595 C5582 0.961 . S
H5596 C5582 0.961 . S
H5597 C5583 0.958 . S
H5598 C5583 0.961 . S
H5599 C5583 0.960 . S
C5600 C5601 1.391 . S
C5600 C5602 1.394 . S
C5600 H5616 0.931 . S
C5601 C5600 1.391 . S
C5601 C5605 1.376 . S
C5602 C5600 1.394 . S
C5602 C5603 1.369 . S
C5602 C5606 1.531 . S
C5603 C5602 1.369 . S
C5603 C5604 1.410 . S
C5603 C5611 1.503 . S
C5604 C5603 1.410 . S
C5604 C5605 1.392 . S
C5604 C5607 1.511 . S
C5605 C5601 1.376 . S
C5605 C5604 1.392 . S
C5605 H5617 0.929 . S
C5606 C5602 1.531 . S
C5606 H5618 0.960 . S
C5606 H5619 0.962 . S
C5606 H5620 0.960 . S
C5607 C5604 1.511 . S
C5607 H5621 0.961 . S
C5607 H5622 0.961 . S
C5607 H5623 0.961 . S
C5608 C5609 1.370 . S
C5608 C5610 1.363 . S
C5608 H5624 0.931 . S
C5609 C5608 1.370 . S
C5609 C5613 1.408 . S
C5610 C5608 1.363 . S
C5610 C5611 1.370 . S
C5610 C5614 1.524 . S
C5611 C5603 1.503 . S
C5611 C5610 1.370 . S
C5611 C5612 1.403 . S
C5612 C5611 1.403 . S
C5612 C5613 1.404 . S
C5612 C5615 1.539 . S
C5613 C5609 1.408 . S
C5613 C5612 1.404 . S
C5613 H5625 0.930 . S
C5614 C5610 1.524 . S
C5614 H5626 0.956 . S
C5614 H5627 0.961 . S
C5614 H5628 0.961 . S
C5615 C5612 1.539 . S
C5615 H5629 0.958 . S
C5615 H5630 0.961 . S
C5615 H5631 0.960 . S
H5616 C5600 0.931 . S
H5617 C5605 0.929 . S
H5618 C5606 0.960 . S
H5619 C5606 0.962 . S
H5620 C5606 0.960 . S
H5621 C5607 0.961 . S
H5622 C5607 0.961 . S
H5623 C5607 0.961 . S
H5624 C5608 0.931 . S
H5625 C5613 0.930 . S
H5626 C5614 0.956 . S
H5627 C5614 0.961 . S
H5628 C5614 0.961 . S
H5629 C5615 0.958 . S
H5630 C5615 0.961 . S
H5631 C5615 0.960 . S
C5632 C5633 1.391 . S
C5632 C5634 1.394 . S
C5632 H5648 0.931 . S
C5633 C5632 1.391 . S
C5633 C5637 1.376 . S
C5634 C5632 1.394 . S
C5634 C5635 1.369 . S
C5634 C5638 1.531 . S
C5635 C5634 1.369 . S
C5635 C5636 1.410 . S
C5635 C5643 1.503 . S
C5636 C5635 1.410 . S
C5636 C5637 1.392 . S
C5636 C5639 1.511 . S
C5637 C5633 1.376 . S
C5637 C5636 1.392 . S
C5637 H5649 0.929 . S
C5638 C5634 1.531 . S
C5638 H5650 0.960 . S
C5638 H5651 0.962 . S
C5638 H5652 0.960 . S
C5639 C5636 1.511 . S
C5639 H5653 0.961 . S
C5639 H5654 0.961 . S
C5639 H5655 0.961 . S
C5640 C5641 1.370 . S
C5640 C5642 1.363 . S
C5640 H5656 0.931 . S
C5641 C5640 1.370 . S
C5641 C5645 1.408 . S
C5642 C5640 1.363 . S
C5642 C5643 1.370 . S
C5642 C5646 1.524 . S
C5643 C5635 1.503 . S
C5643 C5642 1.370 . S
C5643 C5644 1.403 . S
C5644 C5643 1.403 . S
C5644 C5645 1.404 . S
C5644 C5647 1.539 . S
C5645 C5641 1.408 . S
C5645 C5644 1.404 . S
C5645 H5657 0.930 . S
C5646 C5642 1.524 . S
C5646 H5658 0.956 . S
C5646 H5659 0.961 . S
C5646 H5660 0.961 . S
C5647 C5644 1.539 . S
C5647 H5661 0.958 . S
C5647 H5662 0.961 . S
C5647 H5663 0.960 . S
H5648 C5632 0.931 . S
H5649 C5637 0.929 . S
H5650 C5638 0.960 . S
H5651 C5638 0.962 . S
H5652 C5638 0.960 . S
H5653 C5639 0.961 . S
H5654 C5639 0.961 . S
H5655 C5639 0.961 . S
H5656 C5640 0.931 . S
H5657 C5645 0.930 . S
H5658 C5646 0.956 . S
H5659 C5646 0.961 . S
H5660 C5646 0.961 . S
H5661 C5647 0.958 . S
H5662 C5647 0.961 . S
H5663 C5647 0.960 . S
C5664 C5665 1.391 . S
C5664 C5666 1.394 . S
C5664 H5680 0.931 . S
C5665 C5664 1.391 . S
C5665 C5669 1.376 . S
C5666 C5664 1.394 . S
C5666 C5667 1.369 . S
C5666 C5670 1.531 . S
C5667 C5666 1.369 . S
C5667 C5668 1.410 . S
C5667 C5675 1.503 . S
C5668 C5667 1.410 . S
C5668 C5669 1.392 . S
C5668 C5671 1.511 . S
C5669 C5665 1.376 . S
C5669 C5668 1.392 . S
C5669 H5681 0.929 . S
C5670 C5666 1.531 . S
C5670 H5682 0.960 . S
C5670 H5683 0.962 . S
C5670 H5684 0.960 . S
C5671 C5668 1.511 . S
C5671 H5685 0.961 . S
C5671 H5686 0.961 . S
C5671 H5687 0.961 . S
C5672 C5673 1.370 . S
C5672 C5674 1.363 . S
C5672 H5688 0.931 . S
C5673 C5672 1.370 . S
C5673 C5677 1.408 . S
C5674 C5672 1.363 . S
C5674 C5675 1.370 . S
C5674 C5678 1.524 . S
C5675 C5667 1.503 . S
C5675 C5674 1.370 . S
C5675 C5676 1.403 . S
C5676 C5675 1.403 . S
C5676 C5677 1.404 . S
C5676 C5679 1.539 . S
C5677 C5673 1.408 . S
C5677 C5676 1.404 . S
C5677 H5689 0.930 . S
C5678 C5674 1.524 . S
C5678 H5690 0.956 . S
C5678 H5691 0.961 . S
C5678 H5692 0.961 . S
C5679 C5676 1.539 . S
C5679 H5693 0.958 . S
C5679 H5694 0.961 . S
C5679 H5695 0.960 . S
H5680 C5664 0.931 . S
H5681 C5669 0.929 . S
H5682 C5670 0.960 . S
H5683 C5670 0.962 . S
H5684 C5670 0.960 . S
H5685 C5671 0.961 . S
H5686 C5671 0.961 . S
H5687 C5671 0.961 . S
H5688 C5672 0.931 . S
H5689 C5677 0.930 . S
H5690 C5678 0.956 . S
H5691 C5678 0.961 . S
H5692 C5678 0.961 . S
H5693 C5679 0.958 . S
H5694 C5679 0.961 . S
H5695 C5679 0.960 . S
C5696 C5697 1.391 . S
C5696 C5698 1.394 . S
C5696 H5712 0.931 . S
C5697 C5696 1.391 . S
C5697 C5701 1.376 . S
C5698 C5696 1.394 . S
C5698 C5699 1.369 . S
C5698 C5702 1.531 . S
C5699 C5698 1.369 . S
C5699 C5700 1.410 . S
C5699 C5707 1.503 . S
C5700 C5699 1.410 . S
C5700 C5701 1.392 . S
C5700 C5703 1.511 . S
C5701 C5697 1.376 . S
C5701 C5700 1.392 . S
C5701 H5713 0.929 . S
C5702 C5698 1.531 . S
C5702 H5714 0.960 . S
C5702 H5715 0.962 . S
C5702 H5716 0.960 . S
C5703 C5700 1.511 . S
C5703 H5717 0.961 . S
C5703 H5718 0.961 . S
C5703 H5719 0.961 . S
C5704 C5705 1.370 . S
C5704 C5706 1.363 . S
C5704 H5720 0.931 . S
C5705 C5704 1.370 . S
C5705 C5709 1.408 . S
C5706 C5704 1.363 . S
C5706 C5707 1.370 . S
C5706 C5710 1.524 . S
C5707 C5699 1.503 . S
C5707 C5706 1.370 . S
C5707 C5708 1.403 . S
C5708 C5707 1.403 . S
C5708 C5709 1.404 . S
C5708 C5711 1.539 . S
C5709 C5705 1.408 . S
C5709 C5708 1.404 . S
C5709 H5721 0.930 . S
C5710 C5706 1.524 . S
C5710 H5722 0.956 . S
C5710 H5723 0.961 . S
C5710 H5724 0.961 . S
C5711 C5708 1.539 . S
C5711 H5725 0.958 . S
C5711 H5726 0.961 . S
C5711 H5727 0.960 . S
H5712 C5696 0.931 . S
H5713 C5701 0.929 . S
H5714 C5702 0.960 . S
H5715 C5702 0.962 . S
H5716 C5702 0.960 . S
H5717 C5703 0.961 . S
H5718 C5703 0.961 . S
H5719 C5703 0.961 . S
H5720 C5704 0.931 . S
H5721 C5709 0.930 . S
H5722 C5710 0.956 . S
H5723 C5710 0.961 . S
H5724 C5710 0.961 . S
H5725 C5711 0.958 . S
H5726 C5711 0.961 . S
H5727 C5711 0.960 . S
C5728 C5729 1.391 . S
C5728 C5730 1.394 . S
C5728 H5744 0.931 . S
C5729 C5728 1.391 . S
C5729 C5733 1.376 . S
C5730 C5728 1.394 . S
C5730 C5731 1.369 . S
C5730 C5734 1.531 . S
C5731 C5730 1.369 . S
C5731 C5732 1.410 . S
C5731 C5739 1.503 . S
C5732 C5731 1.410 . S
C5732 C5733 1.392 . S
C5732 C5735 1.511 . S
C5733 C5729 1.376 . S
C5733 C5732 1.392 . S
C5733 H5745 0.929 . S
C5734 C5730 1.531 . S
C5734 H5746 0.960 . S
C5734 H5747 0.962 . S
C5734 H5748 0.960 . S
C5735 C5732 1.511 . S
C5735 H5749 0.961 . S
C5735 H5750 0.961 . S
C5735 H5751 0.961 . S
C5736 C5737 1.370 . S
C5736 C5738 1.363 . S
C5736 H5752 0.931 . S
C5737 C5736 1.370 . S
C5737 C5741 1.408 . S
C5738 C5736 1.363 . S
C5738 C5739 1.370 . S
C5738 C5742 1.524 . S
C5739 C5731 1.503 . S
C5739 C5738 1.370 . S
C5739 C5740 1.403 . S
C5740 C5739 1.403 . S
C5740 C5741 1.404 . S
C5740 C5743 1.539 . S
C5741 C5737 1.408 . S
C5741 C5740 1.404 . S
C5741 H5753 0.930 . S
C5742 C5738 1.524 . S
C5742 H5754 0.956 . S
C5742 H5755 0.961 . S
C5742 H5756 0.961 . S
C5743 C5740 1.539 . S
C5743 H5757 0.958 . S
C5743 H5758 0.961 . S
C5743 H5759 0.960 . S
H5744 C5728 0.931 . S
H5745 C5733 0.929 . S
H5746 C5734 0.960 . S
H5747 C5734 0.962 . S
H5748 C5734 0.960 . S
H5749 C5735 0.961 . S
H5750 C5735 0.961 . S
H5751 C5735 0.961 . S
H5752 C5736 0.931 . S
H5753 C5741 0.930 . S
H5754 C5742 0.956 . S
H5755 C5742 0.961 . S
H5756 C5742 0.961 . S
H5757 C5743 0.958 . S
H5758 C5743 0.961 . S
H5759 C5743 0.960 . S
C5760 C5761 1.391 . S
C5760 C5762 1.394 . S
C5760 H5776 0.931 . S
C5761 C5760 1.391 . S
C5761 C5765 1.376 . S
C5762 C5760 1.394 . S
C5762 C5763 1.369 . S
C5762 C5766 1.531 . S
C5763 C5762 1.369 . S
C5763 C5764 1.410 . S
C5763 C5771 1.503 . S
C5764 C5763 1.410 . S
C5764 C5765 1.392 . S
C5764 C5767 1.511 . S
C5765 C5761 1.376 . S
C5765 C5764 1.392 . S
C5765 H5777 0.929 . S
C5766 C5762 1.531 . S
C5766 H5778 0.960 . S
C5766 H5779 0.962 . S
C5766 H5780 0.960 . S
C5767 C5764 1.511 . S
C5767 H5781 0.961 . S
C5767 H5782 0.961 . S
C5767 H5783 0.961 . S
C5768 C5769 1.370 . S
C5768 C5770 1.363 . S
C5768 H5784 0.931 . S
C5769 C5768 1.370 . S
C5769 C5773 1.408 . S
C5770 C5768 1.363 . S
C5770 C5771 1.370 . S
C5770 C5774 1.524 . S
C5771 C5763 1.503 . S
C5771 C5770 1.370 . S
C5771 C5772 1.403 . S
C5772 C5771 1.403 . S
C5772 C5773 1.404 . S
C5772 C5775 1.539 . S
C5773 C5769 1.408 . S
C5773 C5772 1.404 . S
C5773 H5785 0.930 . S
C5774 C5770 1.524 . S
C5774 H5786 0.956 . S
C5774 H5787 0.961 . S
C5774 H5788 0.961 . S
C5775 C5772 1.539 . S
C5775 H5789 0.958 . S
C5775 H5790 0.961 . S
C5775 H5791 0.960 . S
H5776 C5760 0.931 . S
H5777 C5765 0.929 . S
H5778 C5766 0.960 . S
H5779 C5766 0.962 . S
H5780 C5766 0.960 . S
H5781 C5767 0.961 . S
H5782 C5767 0.961 . S
H5783 C5767 0.961 . S
H5784 C5768 0.931 . S
H5785 C5773 0.930 . S
H5786 C5774 0.956 . S
H5787 C5774 0.961 . S
H5788 C5774 0.961 . S
H5789 C5775 0.958 . S
H5790 C5775 0.961 . S
H5791 C5775 0.960 . S
C5792 C5793 1.391 . S
C5792 C5794 1.394 . S
C5792 H5808 0.931 . S
C5793 C5792 1.391 . S
C5793 C5797 1.376 . S
C5794 C5792 1.394 . S
C5794 C5795 1.369 . S
C5794 C5798 1.531 . S
C5795 C5794 1.369 . S
C5795 C5796 1.410 . S
C5795 C5803 1.503 . S
C5796 C5795 1.410 . S
C5796 C5797 1.392 . S
C5796 C5799 1.511 . S
C5797 C5793 1.376 . S
C5797 C5796 1.392 . S
C5797 H5809 0.929 . S
C5798 C5794 1.531 . S
C5798 H5810 0.960 . S
C5798 H5811 0.962 . S
C5798 H5812 0.960 . S
C5799 C5796 1.511 . S
C5799 H5813 0.961 . S
C5799 H5814 0.961 . S
C5799 H5815 0.961 . S
C5800 C5801 1.370 . S
C5800 C5802 1.363 . S
C5800 H5816 0.931 . S
C5801 C5800 1.370 . S
C5801 C5805 1.408 . S
C5802 C5800 1.363 . S
C5802 C5803 1.370 . S
C5802 C5806 1.524 . S
C5803 C5795 1.503 . S
C5803 C5802 1.370 . S
C5803 C5804 1.403 . S
C5804 C5803 1.403 . S
C5804 C5805 1.404 . S
C5804 C5807 1.539 . S
C5805 C5801 1.408 . S
C5805 C5804 1.404 . S
C5805 H5817 0.930 . S
C5806 C5802 1.524 . S
C5806 H5818 0.956 . S
C5806 H5819 0.961 . S
C5806 H5820 0.961 . S
C5807 C5804 1.539 . S
C5807 H5821 0.958 . S
C5807 H5822 0.961 . S
C5807 H5823 0.960 . S
H5808 C5792 0.931 . S
H5809 C5797 0.929 . S
H5810 C5798 0.960 . S
H5811 C5798 0.962 . S
H5812 C5798 0.960 . S
H5813 C5799 0.961 . S
H5814 C5799 0.961 . S
H5815 C5799 0.961 . S
H5816 C5800 0.931 . S
H5817 C5805 0.930 . S
H5818 C5806 0.956 . S
H5819 C5806 0.961 . S
H5820 C5806 0.961 . S
H5821 C5807 0.958 . S
H5822 C5807 0.961 . S
H5823 C5807 0.960 . S
C5824 C5825 1.391 . S
C5824 C5826 1.394 . S
C5824 H5840 0.931 . S
C5825 C5824 1.391 . S
C5825 C5829 1.376 . S
C5826 C5824 1.394 . S
C5826 C5827 1.369 . S
C5826 C5830 1.531 . S
C5827 C5826 1.369 . S
C5827 C5828 1.410 . S
C5827 C5835 1.503 . S
C5828 C5827 1.410 . S
C5828 C5829 1.392 . S
C5828 C5831 1.511 . S
C5829 C5825 1.376 . S
C5829 C5828 1.392 . S
C5829 H5841 0.929 . S
C5830 C5826 1.531 . S
C5830 H5842 0.960 . S
C5830 H5843 0.962 . S
C5830 H5844 0.960 . S
C5831 C5828 1.511 . S
C5831 H5845 0.961 . S
C5831 H5846 0.961 . S
C5831 H5847 0.961 . S
C5832 C5833 1.370 . S
C5832 C5834 1.363 . S
C5832 H5848 0.931 . S
C5833 C5832 1.370 . S
C5833 C5837 1.408 . S
C5834 C5832 1.363 . S
C5834 C5835 1.370 . S
C5834 C5838 1.524 . S
C5835 C5827 1.503 . S
C5835 C5834 1.370 . S
C5835 C5836 1.403 . S
C5836 C5835 1.403 . S
C5836 C5837 1.404 . S
C5836 C5839 1.539 . S
C5837 C5833 1.408 . S
C5837 C5836 1.404 . S
C5837 H5849 0.930 . S
C5838 C5834 1.524 . S
C5838 H5850 0.956 . S
C5838 H5851 0.961 . S
C5838 H5852 0.961 . S
C5839 C5836 1.539 . S
C5839 H5853 0.958 . S
C5839 H5854 0.961 . S
C5839 H5855 0.960 . S
H5840 C5824 0.931 . S
H5841 C5829 0.929 . S
H5842 C5830 0.960 . S
H5843 C5830 0.962 . S
H5844 C5830 0.960 . S
H5845 C5831 0.961 . S
H5846 C5831 0.961 . S
H5847 C5831 0.961 . S
H5848 C5832 0.931 . S
H5849 C5837 0.930 . S
H5850 C5838 0.956 . S
H5851 C5838 0.961 . S
H5852 C5838 0.961 . S
H5853 C5839 0.958 . S
H5854 C5839 0.961 . S
H5855 C5839 0.960 . S
C5856 C5857 1.391 . S
C5856 C5858 1.394 . S
C5856 H5872 0.931 . S
C5857 C5856 1.391 . S
C5857 C5861 1.376 . S
C5858 C5856 1.394 . S
C5858 C5859 1.369 . S
C5858 C5862 1.531 . S
C5859 C5858 1.369 . S
C5859 C5860 1.410 . S
C5859 C5867 1.503 . S
C5860 C5859 1.410 . S
C5860 C5861 1.392 . S
C5860 C5863 1.511 . S
C5861 C5857 1.376 . S
C5861 C5860 1.392 . S
C5861 H5873 0.929 . S
C5862 C5858 1.531 . S
C5862 H5874 0.960 . S
C5862 H5875 0.962 . S
C5862 H5876 0.960 . S
C5863 C5860 1.511 . S
C5863 H5877 0.961 . S
C5863 H5878 0.961 . S
C5863 H5879 0.961 . S
C5864 C5865 1.370 . S
C5864 C5866 1.363 . S
C5864 H5880 0.931 . S
C5865 C5864 1.370 . S
C5865 C5869 1.408 . S
C5866 C5864 1.363 . S
C5866 C5867 1.370 . S
C5866 C5870 1.524 . S
C5867 C5859 1.503 . S
C5867 C5866 1.370 . S
C5867 C5868 1.403 . S
C5868 C5867 1.403 . S
C5868 C5869 1.404 . S
C5868 C5871 1.539 . S
C5869 C5865 1.408 . S
C5869 C5868 1.404 . S
C5869 H5881 0.930 . S
C5870 C5866 1.524 . S
C5870 H5882 0.956 . S
C5870 H5883 0.961 . S
C5870 H5884 0.961 . S
C5871 C5868 1.539 . S
C5871 H5885 0.958 . S
C5871 H5886 0.961 . S
C5871 H5887 0.960 . S
H5872 C5856 0.931 . S
H5873 C5861 0.929 . S
H5874 C5862 0.960 . S
H5875 C5862 0.962 . S
H5876 C5862 0.960 . S
H5877 C5863 0.961 . S
H5878 C5863 0.961 . S
H5879 C5863 0.961 . S
H5880 C5864 0.931 . S
H5881 C5869 0.930 . S
H5882 C5870 0.956 . S
H5883 C5870 0.961 . S
H5884 C5870 0.961 . S
H5885 C5871 0.958 . S
H5886 C5871 0.961 . S
H5887 C5871 0.960 . S
C5888 C5889 1.391 . S
C5888 C5890 1.394 . S
C5888 H5904 0.931 . S
C5889 C5888 1.391 . S
C5889 C5893 1.376 . S
C5890 C5888 1.394 . S
C5890 C5891 1.369 . S
C5890 C5894 1.531 . S
C5891 C5890 1.369 . S
C5891 C5892 1.410 . S
C5891 C5899 1.503 . S
C5892 C5891 1.410 . S
C5892 C5893 1.392 . S
C5892 C5895 1.511 . S
C5893 C5889 1.376 . S
C5893 C5892 1.392 . S
C5893 H5905 0.929 . S
C5894 C5890 1.531 . S
C5894 H5906 0.960 . S
C5894 H5907 0.962 . S
C5894 H5908 0.960 . S
C5895 C5892 1.511 . S
C5895 H5909 0.961 . S
C5895 H5910 0.961 . S
C5895 H5911 0.961 . S
C5896 C5897 1.370 . S
C5896 C5898 1.363 . S
C5896 H5912 0.931 . S
C5897 C5896 1.370 . S
C5897 C5901 1.408 . S
C5898 C5896 1.363 . S
C5898 C5899 1.370 . S
C5898 C5902 1.524 . S
C5899 C5891 1.503 . S
C5899 C5898 1.370 . S
C5899 C5900 1.403 . S
C5900 C5899 1.403 . S
C5900 C5901 1.404 . S
C5900 C5903 1.539 . S
C5901 C5897 1.408 . S
C5901 C5900 1.404 . S
C5901 H5913 0.930 . S
C5902 C5898 1.524 . S
C5902 H5914 0.956 . S
C5902 H5915 0.961 . S
C5902 H5916 0.961 . S
C5903 C5900 1.539 . S
C5903 H5917 0.958 . S
C5903 H5918 0.961 . S
C5903 H5919 0.960 . S
H5904 C5888 0.931 . S
H5905 C5893 0.929 . S
H5906 C5894 0.960 . S
H5907 C5894 0.962 . S
H5908 C5894 0.960 . S
H5909 C5895 0.961 . S
H5910 C5895 0.961 . S
H5911 C5895 0.961 . S
H5912 C5896 0.931 . S
H5913 C5901 0.930 . S
H5914 C5902 0.956 . S
H5915 C5902 0.961 . S
H5916 C5902 0.961 . S
H5917 C5903 0.958 . S
H5918 C5903 0.961 . S
H5919 C5903 0.960 . S
C5920 C5921 1.391 . S
C5920 C5922 1.394 . S
C5920 H5936 0.931 . S
C5921 C5920 1.391 . S
C5921 C5925 1.376 . S
C5922 C5920 1.394 . S
C5922 C5923 1.369 . S
C5922 C5926 1.531 . S
C5923 C5922 1.369 . S
C5923 C5924 1.410 . S
C5923 C5931 1.503 . S
C5924 C5923 1.410 . S
C5924 C5925 1.392 . S
C5924 C5927 1.511 . S
C5925 C5921 1.376 . S
C5925 C5924 1.392 . S
C5925 H5937 0.929 . S
C5926 C5922 1.531 . S
C5926 H5938 0.960 . S
C5926 H5939 0.962 . S
C5926 H5940 0.960 . S
C5927 C5924 1.511 . S
C5927 H5941 0.961 . S
C5927 H5942 0.961 . S
C5927 H5943 0.961 . S
C5928 C5929 1.370 . S
C5928 C5930 1.363 . S
C5928 H5944 0.931 . S
C5929 C5928 1.370 . S
C5929 C5933 1.408 . S
C5930 C5928 1.363 . S
C5930 C5931 1.370 . S
C5930 C5934 1.524 . S
C5931 C5923 1.503 . S
C5931 C5930 1.370 . S
C5931 C5932 1.403 . S
C5932 C5931 1.403 . S
C5932 C5933 1.404 . S
C5932 C5935 1.539 . S
C5933 C5929 1.408 . S
C5933 C5932 1.404 . S
C5933 H5945 0.930 . S
C5934 C5930 1.524 . S
C5934 H5946 0.956 . S
C5934 H5947 0.961 . S
C5934 H5948 0.961 . S
C5935 C5932 1.539 . S
C5935 H5949 0.958 . S
C5935 H5950 0.961 . S
C5935 H5951 0.960 . S
H5936 C5920 0.931 . S
H5937 C5925 0.929 . S
H5938 C5926 0.960 . S
H5939 C5926 0.962 . S
H5940 C5926 0.960 . S
H5941 C5927 0.961 . S
H5942 C5927 0.961 . S
H5943 C5927 0.961 . S
H5944 C5928 0.931 . S
H5945 C5933 0.930 . S
H5946 C5934 0.956 . S
H5947 C5934 0.961 . S
H5948 C5934 0.961 . S
H5949 C5935 0.958 . S
H5950 C5935 0.961 . S
H5951 C5935 0.960 . S
C5952 C5953 1.391 . S
C5952 C5954 1.394 . S
C5952 H5968 0.931 . S
C5953 C5952 1.391 . S
C5953 C5957 1.376 . S
C5954 C5952 1.394 . S
C5954 C5955 1.369 . S
C5954 C5958 1.531 . S
C5955 C5954 1.369 . S
C5955 C5956 1.410 . S
C5955 C5963 1.503 . S
C5956 C5955 1.410 . S
C5956 C5957 1.392 . S
C5956 C5959 1.511 . S
C5957 C5953 1.376 . S
C5957 C5956 1.392 . S
C5957 H5969 0.929 . S
C5958 C5954 1.531 . S
C5958 H5970 0.960 . S
C5958 H5971 0.962 . S
C5958 H5972 0.960 . S
C5959 C5956 1.511 . S
C5959 H5973 0.961 . S
C5959 H5974 0.961 . S
C5959 H5975 0.961 . S
C5960 C5961 1.370 . S
C5960 C5962 1.363 . S
C5960 H5976 0.931 . S
C5961 C5960 1.370 . S
C5961 C5965 1.408 . S
C5962 C5960 1.363 . S
C5962 C5963 1.370 . S
C5962 C5966 1.524 . S
C5963 C5955 1.503 . S
C5963 C5962 1.370 . S
C5963 C5964 1.403 . S
C5964 C5963 1.403 . S
C5964 C5965 1.404 . S
C5964 C5967 1.539 . S
C5965 C5961 1.408 . S
C5965 C5964 1.404 . S
C5965 H5977 0.930 . S
C5966 C5962 1.524 . S
C5966 H5978 0.956 . S
C5966 H5979 0.961 . S
C5966 H5980 0.961 . S
C5967 C5964 1.539 . S
C5967 H5981 0.958 . S
C5967 H5982 0.961 . S
C5967 H5983 0.960 . S
H5968 C5952 0.931 . S
H5969 C5957 0.929 . S
H5970 C5958 0.960 . S
H5971 C5958 0.962 . S
H5972 C5958 0.960 . S
H5973 C5959 0.961 . S
H5974 C5959 0.961 . S
H5975 C5959 0.961 . S
H5976 C5960 0.931 . S
H5977 C5965 0.930 . S
H5978 C5966 0.956 . S
H5979 C5966 0.961 . S
H5980 C5966 0.961 . S
H5981 C5967 0.958 . S
H5982 C5967 0.961 . S
H5983 C5967 0.960 . S
C5984 C5985 1.391 . S
C5984 C5986 1.394 . S
C5984 H6000 0.931 . S
C5985 C5984 1.391 . S
C5985 C5989 1.376 . S
C5986 C5984 1.394 . S
C5986 C5987 1.369 . S
C5986 C5990 1.531 . S
C5987 C5986 1.369 . S
C5987 C5988 1.410 . S
C5987 C5995 1.503 . S
C5988 C5987 1.410 . S
C5988 C5989 1.392 . S
C5988 C5991 1.511 . S
C5989 C5985 1.376 . S
C5989 C5988 1.392 . S
C5989 H6001 0.929 . S
C5990 C5986 1.531 . S
C5990 H6002 0.960 . S
C5990 H6003 0.962 . S
C5990 H6004 0.960 . S
C5991 C5988 1.511 . S
C5991 H6005 0.961 . S
C5991 H6006 0.961 . S
C5991 H6007 0.961 . S
C5992 C5993 1.370 . S
C5992 C5994 1.363 . S
C5992 H6008 0.931 . S
C5993 C5992 1.370 . S
C5993 C5997 1.408 . S
C5994 C5992 1.363 . S
C5994 C5995 1.370 . S
C5994 C5998 1.524 . S
C5995 C5987 1.503 . S
C5995 C5994 1.370 . S
C5995 C5996 1.403 . S
C5996 C5995 1.403 . S
C5996 C5997 1.404 . S
C5996 C5999 1.539 . S
C5997 C5993 1.408 . S
C5997 C5996 1.404 . S
C5997 H6009 0.930 . S
C5998 C5994 1.524 . S
C5998 H6010 0.956 . S
C5998 H6011 0.961 . S
C5998 H6012 0.961 . S
C5999 C5996 1.539 . S
C5999 H6013 0.958 . S
C5999 H6014 0.961 . S
C5999 H6015 0.960 . S
H6000 C5984 0.931 . S
H6001 C5989 0.929 . S
H6002 C5990 0.960 . S
H6003 C5990 0.962 . S
H6004 C5990 0.960 . S
H6005 C5991 0.961 . S
H6006 C5991 0.961 . S
H6007 C5991 0.961 . S
H6008 C5992 0.931 . S
H6009 C5997 0.930 . S
H6010 C5998 0.956 . S
H6011 C5998 0.961 . S
H6012 C5998 0.961 . S
H6013 C5999 0.958 . S
H6014 C5999 0.961 . S
H6015 C5999 0.960 . S
C6016 C6017 1.391 . S
C6016 C6018 1.394 . S
C6016 H6032 0.931 . S
C6017 C6016 1.391 . S
C6017 C6021 1.376 . S
C6018 C6016 1.394 . S
C6018 C6019 1.369 . S
C6018 C6022 1.531 . S
C6019 C6018 1.369 . S
C6019 C6020 1.410 . S
C6019 C6027 1.503 . S
C6020 C6019 1.410 . S
C6020 C6021 1.392 . S
C6020 C6023 1.511 . S
C6021 C6017 1.376 . S
C6021 C6020 1.392 . S
C6021 H6033 0.929 . S
C6022 C6018 1.531 . S
C6022 H6034 0.960 . S
C6022 H6035 0.962 . S
C6022 H6036 0.960 . S
C6023 C6020 1.511 . S
C6023 H6037 0.961 . S
C6023 H6038 0.961 . S
C6023 H6039 0.961 . S
C6024 C6025 1.370 . S
C6024 C6026 1.363 . S
C6024 H6040 0.931 . S
C6025 C6024 1.370 . S
C6025 C6029 1.408 . S
C6026 C6024 1.363 . S
C6026 C6027 1.370 . S
C6026 C6030 1.524 . S
C6027 C6019 1.503 . S
C6027 C6026 1.370 . S
C6027 C6028 1.403 . S
C6028 C6027 1.403 . S
C6028 C6029 1.404 . S
C6028 C6031 1.539 . S
C6029 C6025 1.408 . S
C6029 C6028 1.404 . S
C6029 H6041 0.930 . S
C6030 C6026 1.524 . S
C6030 H6042 0.956 . S
C6030 H6043 0.961 . S
C6030 H6044 0.961 . S
C6031 C6028 1.539 . S
C6031 H6045 0.958 . S
C6031 H6046 0.961 . S
C6031 H6047 0.960 . S
H6032 C6016 0.931 . S
H6033 C6021 0.929 . S
H6034 C6022 0.960 . S
H6035 C6022 0.962 . S
H6036 C6022 0.960 . S
H6037 C6023 0.961 . S
H6038 C6023 0.961 . S
H6039 C6023 0.961 . S
H6040 C6024 0.931 . S
H6041 C6029 0.930 . S
H6042 C6030 0.956 . S
H6043 C6030 0.961 . S
H6044 C6030 0.961 . S
H6045 C6031 0.958 . S
H6046 C6031 0.961 . S
H6047 C6031 0.960 . S
C6048 C6049 1.391 . S
C6048 C6050 1.394 . S
C6048 H6064 0.931 . S
C6049 C6048 1.391 . S
C6049 C6053 1.376 . S
C6050 C6048 1.394 . S
C6050 C6051 1.369 . S
C6050 C6054 1.531 . S
C6051 C6050 1.369 . S
C6051 C6052 1.410 . S
C6051 C6059 1.503 . S
C6052 C6051 1.410 . S
C6052 C6053 1.392 . S
C6052 C6055 1.511 . S
C6053 C6049 1.376 . S
C6053 C6052 1.392 . S
C6053 H6065 0.929 . S
C6054 C6050 1.531 . S
C6054 H6066 0.960 . S
C6054 H6067 0.962 . S
C6054 H6068 0.960 . S
C6055 C6052 1.511 . S
C6055 H6069 0.961 . S
C6055 H6070 0.961 . S
C6055 H6071 0.961 . S
C6056 C6057 1.370 . S
C6056 C6058 1.363 . S
C6056 H6072 0.931 . S
C6057 C6056 1.370 . S
C6057 C6061 1.408 . S
C6058 C6056 1.363 . S
C6058 C6059 1.370 . S
C6058 C6062 1.524 . S
C6059 C6051 1.503 . S
C6059 C6058 1.370 . S
C6059 C6060 1.403 . S
C6060 C6059 1.403 . S
C6060 C6061 1.404 . S
C6060 C6063 1.539 . S
C6061 C6057 1.408 . S
C6061 C6060 1.404 . S
C6061 H6073 0.930 . S
C6062 C6058 1.524 . S
C6062 H6074 0.956 . S
C6062 H6075 0.961 . S
C6062 H6076 0.961 . S
C6063 C6060 1.539 . S
C6063 H6077 0.958 . S
C6063 H6078 0.961 . S
C6063 H6079 0.960 . S
H6064 C6048 0.931 . S
H6065 C6053 0.929 . S
H6066 C6054 0.960 . S
H6067 C6054 0.962 . S
H6068 C6054 0.960 . S
H6069 C6055 0.961 . S
H6070 C6055 0.961 . S
H6071 C6055 0.961 . S
H6072 C6056 0.931 . S
H6073 C6061 0.930 . S
H6074 C6062 0.956 . S
H6075 C6062 0.961 . S
H6076 C6062 0.961 . S
H6077 C6063 0.958 . S
H6078 C6063 0.961 . S
H6079 C6063 0.960 . S
C6080 C6081 1.391 . S
C6080 C6082 1.394 . S
C6080 H6096 0.931 . S
C6081 C6080 1.391 . S
C6081 C6085 1.376 . S
C6082 C6080 1.394 . S
C6082 C6083 1.369 . S
C6082 C6086 1.531 . S
C6083 C6082 1.369 . S
C6083 C6084 1.410 . S
C6083 C6091 1.503 . S
C6084 C6083 1.410 . S
C6084 C6085 1.392 . S
C6084 C6087 1.511 . S
C6085 C6081 1.376 . S
C6085 C6084 1.392 . S
C6085 H6097 0.929 . S
C6086 C6082 1.531 . S
C6086 H6098 0.960 . S
C6086 H6099 0.962 . S
C6086 H6100 0.960 . S
C6087 C6084 1.511 . S
C6087 H6101 0.961 . S
C6087 H6102 0.961 . S
C6087 H6103 0.961 . S
C6088 C6089 1.370 . S
C6088 C6090 1.363 . S
C6088 H6104 0.931 . S
C6089 C6088 1.370 . S
C6089 C6093 1.408 . S
C6090 C6088 1.363 . S
C6090 C6091 1.370 . S
C6090 C6094 1.524 . S
C6091 C6083 1.503 . S
C6091 C6090 1.370 . S
C6091 C6092 1.403 . S
C6092 C6091 1.403 . S
C6092 C6093 1.404 . S
C6092 C6095 1.539 . S
C6093 C6089 1.408 . S
C6093 C6092 1.404 . S
C6093 H6105 0.930 . S
C6094 C6090 1.524 . S
C6094 H6106 0.956 . S
C6094 H6107 0.961 . S
C6094 H6108 0.961 . S
C6095 C6092 1.539 . S
C6095 H6109 0.958 . S
C6095 H6110 0.961 . S
C6095 H6111 0.960 . S
H6096 C6080 0.931 . S
H6097 C6085 0.929 . S
H6098 C6086 0.960 . S
H6099 C6086 0.962 . S
H6100 C6086 0.960 . S
H6101 C6087 0.961 . S
H6102 C6087 0.961 . S
H6103 C6087 0.961 . S
H6104 C6088 0.931 . S
H6105 C6093 0.930 . S
H6106 C6094 0.956 . S
H6107 C6094 0.961 . S
H6108 C6094 0.961 . S
H6109 C6095 0.958 . S
H6110 C6095 0.961 . S
H6111 C6095 0.960 . S
C6112 C6113 1.391 . S
C6112 C6114 1.394 . S
C6112 H6128 0.931 . S
C6113 C6112 1.391 . S
C6113 C6117 1.376 . S
C6114 C6112 1.394 . S
C6114 C6115 1.369 . S
C6114 C6118 1.531 . S
C6115 C6114 1.369 . S
C6115 C6116 1.410 . S
C6115 C6123 1.503 . S
C6116 C6115 1.410 . S
C6116 C6117 1.392 . S
C6116 C6119 1.511 . S
C6117 C6113 1.376 . S
C6117 C6116 1.392 . S
C6117 H6129 0.929 . S
C6118 C6114 1.531 . S
C6118 H6130 0.960 . S
C6118 H6131 0.962 . S
C6118 H6132 0.960 . S
C6119 C6116 1.511 . S
C6119 H6133 0.961 . S
C6119 H6134 0.961 . S
C6119 H6135 0.961 . S
C6120 C6121 1.370 . S
C6120 C6122 1.363 . S
C6120 H6136 0.931 . S
C6121 C6120 1.370 . S
C6121 C6125 1.408 . S
C6122 C6120 1.363 . S
C6122 C6123 1.370 . S
C6122 C6126 1.524 . S
C6123 C6115 1.503 . S
C6123 C6122 1.370 . S
C6123 C6124 1.403 . S
C6124 C6123 1.403 . S
C6124 C6125 1.404 . S
C6124 C6127 1.539 . S
C6125 C6121 1.408 . S
C6125 C6124 1.404 . S
C6125 H6137 0.930 . S
C6126 C6122 1.524 . S
C6126 H6138 0.956 . S
C6126 H6139 0.961 . S
C6126 H6140 0.961 . S
C6127 C6124 1.539 . S
C6127 H6141 0.958 . S
C6127 H6142 0.961 . S
C6127 H6143 0.960 . S
H6128 C6112 0.931 . S
H6129 C6117 0.929 . S
H6130 C6118 0.960 . S
H6131 C6118 0.962 . S
H6132 C6118 0.960 . S
H6133 C6119 0.961 . S
H6134 C6119 0.961 . S
H6135 C6119 0.961 . S
H6136 C6120 0.931 . S
H6137 C6125 0.930 . S
H6138 C6126 0.956 . S
H6139 C6126 0.961 . S
H6140 C6126 0.961 . S
H6141 C6127 0.958 . S
H6142 C6127 0.961 . S
H6143 C6127 0.960 . S
C6144 C6145 1.391 . S
C6144 C6146 1.394 . S
C6144 H6160 0.931 . S
C6145 C6144 1.391 . S
C6145 C6149 1.376 . S
C6146 C6144 1.394 . S
C6146 C6147 1.369 . S
C6146 C6150 1.531 . S
C6147 C6146 1.369 . S
C6147 C6148 1.410 . S
C6147 C6155 1.503 . S
C6148 C6147 1.410 . S
C6148 C6149 1.392 . S
C6148 C6151 1.511 . S
C6149 C6145 1.376 . S
C6149 C6148 1.392 . S
C6149 H6161 0.929 . S
C6150 C6146 1.531 . S
C6150 H6162 0.960 . S
C6150 H6163 0.962 . S
C6150 H6164 0.960 . S
C6151 C6148 1.511 . S
C6151 H6165 0.961 . S
C6151 H6166 0.961 . S
C6151 H6167 0.961 . S
C6152 C6153 1.370 . S
C6152 C6154 1.363 . S
C6152 H6168 0.931 . S
C6153 C6152 1.370 . S
C6153 C6157 1.408 . S
C6154 C6152 1.363 . S
C6154 C6155 1.370 . S
C6154 C6158 1.524 . S
C6155 C6147 1.503 . S
C6155 C6154 1.370 . S
C6155 C6156 1.403 . S
C6156 C6155 1.403 . S
C6156 C6157 1.404 . S
C6156 C6159 1.539 . S
C6157 C6153 1.408 . S
C6157 C6156 1.404 . S
C6157 H6169 0.930 . S
C6158 C6154 1.524 . S
C6158 H6170 0.956 . S
C6158 H6171 0.961 . S
C6158 H6172 0.961 . S
C6159 C6156 1.539 . S
C6159 H6173 0.958 . S
C6159 H6174 0.961 . S
C6159 H6175 0.960 . S
H6160 C6144 0.931 . S
H6161 C6149 0.929 . S
H6162 C6150 0.960 . S
H6163 C6150 0.962 . S
H6164 C6150 0.960 . S
H6165 C6151 0.961 . S
H6166 C6151 0.961 . S
H6167 C6151 0.961 . S
H6168 C6152 0.931 . S
H6169 C6157 0.930 . S
H6170 C6158 0.956 . S
H6171 C6158 0.961 . S
H6172 C6158 0.961 . S
H6173 C6159 0.958 . S
H6174 C6159 0.961 . S
H6175 C6159 0.960 . S
C6176 C6177 1.391 . S
C6176 C6178 1.394 . S
C6176 H6192 0.931 . S
C6177 C6176 1.391 . S
C6177 C6181 1.376 . S
C6178 C6176 1.394 . S
C6178 C6179 1.369 . S
C6178 C6182 1.531 . S
C6179 C6178 1.369 . S
C6179 C6180 1.410 . S
C6179 C6187 1.503 . S
C6180 C6179 1.410 . S
C6180 C6181 1.392 . S
C6180 C6183 1.511 . S
C6181 C6177 1.376 . S
C6181 C6180 1.392 . S
C6181 H6193 0.929 . S
C6182 C6178 1.531 . S
C6182 H6194 0.960 . S
C6182 H6195 0.962 . S
C6182 H6196 0.960 . S
C6183 C6180 1.511 . S
C6183 H6197 0.961 . S
C6183 H6198 0.961 . S
C6183 H6199 0.961 . S
C6184 C6185 1.370 . S
C6184 C6186 1.363 . S
C6184 H6200 0.931 . S
C6185 C6184 1.370 . S
C6185 C6189 1.408 . S
C6186 C6184 1.363 . S
C6186 C6187 1.370 . S
C6186 C6190 1.524 . S
C6187 C6179 1.503 . S
C6187 C6186 1.370 . S
C6187 C6188 1.403 . S
C6188 C6187 1.403 . S
C6188 C6189 1.404 . S
C6188 C6191 1.539 . S
C6189 C6185 1.408 . S
C6189 C6188 1.404 . S
C6189 H6201 0.930 . S
C6190 C6186 1.524 . S
C6190 H6202 0.956 . S
C6190 H6203 0.961 . S
C6190 H6204 0.961 . S
C6191 C6188 1.539 . S
C6191 H6205 0.958 . S
C6191 H6206 0.961 . S
C6191 H6207 0.960 . S
H6192 C6176 0.931 . S
H6193 C6181 0.929 . S
H6194 C6182 0.960 . S
H6195 C6182 0.962 . S
H6196 C6182 0.960 . S
H6197 C6183 0.961 . S
H6198 C6183 0.961 . S
H6199 C6183 0.961 . S
H6200 C6184 0.931 . S
H6201 C6189 0.930 . S
H6202 C6190 0.956 . S
H6203 C6190 0.961 . S
H6204 C6190 0.961 . S
H6205 C6191 0.958 . S
H6206 C6191 0.961 . S
H6207 C6191 0.960 . S
C6208 C6209 1.391 . S
C6208 C6210 1.394 . S
C6208 H6224 0.931 . S
C6209 C6208 1.391 . S
C6209 C6213 1.376 . S
C6210 C6208 1.394 . S
C6210 C6211 1.369 . S
C6210 C6214 1.531 . S
C6211 C6210 1.369 . S
C6211 C6212 1.410 . S
C6211 C6219 1.503 . S
C6212 C6211 1.410 . S
C6212 C6213 1.392 . S
C6212 C6215 1.511 . S
C6213 C6209 1.376 . S
C6213 C6212 1.392 . S
C6213 H6225 0.929 . S
C6214 C6210 1.531 . S
C6214 H6226 0.960 . S
C6214 H6227 0.962 . S
C6214 H6228 0.960 . S
C6215 C6212 1.511 . S
C6215 H6229 0.961 . S
C6215 H6230 0.961 . S
C6215 H6231 0.961 . S
C6216 C6217 1.370 . S
C6216 C6218 1.363 . S
C6216 H6232 0.931 . S
C6217 C6216 1.370 . S
C6217 C6221 1.408 . S
C6218 C6216 1.363 . S
C6218 C6219 1.370 . S
C6218 C6222 1.524 . S
C6219 C6211 1.503 . S
C6219 C6218 1.370 . S
C6219 C6220 1.403 . S
C6220 C6219 1.403 . S
C6220 C6221 1.404 . S
C6220 C6223 1.539 . S
C6221 C6217 1.408 . S
C6221 C6220 1.404 . S
C6221 H6233 0.930 . S
C6222 C6218 1.524 . S
C6222 H6234 0.956 . S
C6222 H6235 0.961 . S
C6222 H6236 0.961 . S
C6223 C6220 1.539 . S
C6223 H6237 0.958 . S
C6223 H6238 0.961 . S
C6223 H6239 0.960 . S
H6224 C6208 0.931 . S
H6225 C6213 0.929 . S
H6226 C6214 0.960 . S
H6227 C6214 0.962 . S
H6228 C6214 0.960 . S
H6229 C6215 0.961 . S
H6230 C6215 0.961 . S
H6231 C6215 0.961 . S
H6232 C6216 0.931 . S
H6233 C6221 0.930 . S
H6234 C6222 0.956 . S
H6235 C6222 0.961 . S
H6236 C6222 0.961 . S
H6237 C6223 0.958 . S
H6238 C6223 0.961 . S
H6239 C6223 0.960 . S
C6240 C6241 1.391 . S
C6240 C6242 1.394 . S
C6240 H6256 0.931 . S
C6241 C6240 1.391 . S
C6241 C6245 1.376 . S
C6242 C6240 1.394 . S
C6242 C6243 1.369 . S
C6242 C6246 1.531 . S
C6243 C6242 1.369 . S
C6243 C6244 1.410 . S
C6243 C6251 1.503 . S
C6244 C6243 1.410 . S
C6244 C6245 1.392 . S
C6244 C6247 1.511 . S
C6245 C6241 1.376 . S
C6245 C6244 1.392 . S
C6245 H6257 0.929 . S
C6246 C6242 1.531 . S
C6246 H6258 0.960 . S
C6246 H6259 0.962 . S
C6246 H6260 0.960 . S
C6247 C6244 1.511 . S
C6247 H6261 0.961 . S
C6247 H6262 0.961 . S
C6247 H6263 0.961 . S
C6248 C6249 1.370 . S
C6248 C6250 1.363 . S
C6248 H6264 0.931 . S
C6249 C6248 1.370 . S
C6249 C6253 1.408 . S
C6250 C6248 1.363 . S
C6250 C6251 1.370 . S
C6250 C6254 1.524 . S
C6251 C6243 1.503 . S
C6251 C6250 1.370 . S
C6251 C6252 1.403 . S
C6252 C6251 1.403 . S
C6252 C6253 1.404 . S
C6252 C6255 1.539 . S
C6253 C6249 1.408 . S
C6253 C6252 1.404 . S
C6253 H6265 0.930 . S
C6254 C6250 1.524 . S
C6254 H6266 0.956 . S
C6254 H6267 0.961 . S
C6254 H6268 0.961 . S
C6255 C6252 1.539 . S
C6255 H6269 0.958 . S
C6255 H6270 0.961 . S
C6255 H6271 0.960 . S
H6256 C6240 0.931 . S
H6257 C6245 0.929 . S
H6258 C6246 0.960 . S
H6259 C6246 0.962 . S
H6260 C6246 0.960 . S
H6261 C6247 0.961 . S
H6262 C6247 0.961 . S
H6263 C6247 0.961 . S
H6264 C6248 0.931 . S
H6265 C6253 0.930 . S
H6266 C6254 0.956 . S
H6267 C6254 0.961 . S
H6268 C6254 0.961 . S
H6269 C6255 0.958 . S
H6270 C6255 0.961 . S
H6271 C6255 0.960 . S
C6272 C6273 1.391 . S
C6272 C6274 1.394 . S
C6272 H6288 0.931 . S
C6273 C6272 1.391 . S
C6273 C6277 1.376 . S
C6274 C6272 1.394 . S
C6274 C6275 1.369 . S
C6274 C6278 1.531 . S
C6275 C6274 1.369 . S
C6275 C6276 1.410 . S
C6275 C6283 1.503 . S
C6276 C6275 1.410 . S
C6276 C6277 1.392 . S
C6276 C6279 1.511 . S
C6277 C6273 1.376 . S
C6277 C6276 1.392 . S
C6277 H6289 0.929 . S
C6278 C6274 1.531 . S
C6278 H6290 0.960 . S
C6278 H6291 0.962 . S
C6278 H6292 0.960 . S
C6279 C6276 1.511 . S
C6279 H6293 0.961 . S
C6279 H6294 0.961 . S
C6279 H6295 0.961 . S
C6280 C6281 1.370 . S
C6280 C6282 1.363 . S
C6280 H6296 0.931 . S
C6281 C6280 1.370 . S
C6281 C6285 1.408 . S
C6282 C6280 1.363 . S
C6282 C6283 1.370 . S
C6282 C6286 1.524 . S
C6283 C6275 1.503 . S
C6283 C6282 1.370 . S
C6283 C6284 1.403 . S
C6284 C6283 1.403 . S
C6284 C6285 1.404 . S
C6284 C6287 1.539 . S
C6285 C6281 1.408 . S
C6285 C6284 1.404 . S
C6285 H6297 0.930 . S
C6286 C6282 1.524 . S
C6286 H6298 0.956 . S
C6286 H6299 0.961 . S
C6286 H6300 0.961 . S
C6287 C6284 1.539 . S
C6287 H6301 0.958 . S
C6287 H6302 0.961 . S
C6287 H6303 0.960 . S
H6288 C6272 0.931 . S
H6289 C6277 0.929 . S
H6290 C6278 0.960 . S
H6291 C6278 0.962 . S
H6292 C6278 0.960 . S
H6293 C6279 0.961 . S
H6294 C6279 0.961 . S
H6295 C6279 0.961 . S
H6296 C6280 0.931 . S
H6297 C6285 0.930 . S
H6298 C6286 0.956 . S
H6299 C6286 0.961 . S
H6300 C6286 0.961 . S
H6301 C6287 0.958 . S
H6302 C6287 0.961 . S
H6303 C6287 0.960 . S
C6304 C6305 1.391 . S
C6304 C6306 1.394 . S
C6304 H6320 0.931 . S
C6305 C6304 1.391 . S
C6305 C6309 1.376 . S
C6306 C6304 1.394 . S
C6306 C6307 1.369 . S
C6306 C6310 1.531 . S
C6307 C6306 1.369 . S
C6307 C6308 1.410 . S
C6307 C6315 1.503 . S
C6308 C6307 1.410 . S
C6308 C6309 1.392 . S
C6308 C6311 1.511 . S
C6309 C6305 1.376 . S
C6309 C6308 1.392 . S
C6309 H6321 0.929 . S
C6310 C6306 1.531 . S
C6310 H6322 0.960 . S
C6310 H6323 0.962 . S
C6310 H6324 0.960 . S
C6311 C6308 1.511 . S
C6311 H6325 0.961 . S
C6311 H6326 0.961 . S
C6311 H6327 0.961 . S
C6312 C6313 1.370 . S
C6312 C6314 1.363 . S
C6312 H6328 0.931 . S
C6313 C6312 1.370 . S
C6313 C6317 1.408 . S
C6314 C6312 1.363 . S
C6314 C6315 1.370 . S
C6314 C6318 1.524 . S
C6315 C6307 1.503 . S
C6315 C6314 1.370 . S
C6315 C6316 1.403 . S
C6316 C6315 1.403 . S
C6316 C6317 1.404 . S
C6316 C6319 1.539 . S
C6317 C6313 1.408 . S
C6317 C6316 1.404 . S
C6317 H6329 0.930 . S
C6318 C6314 1.524 . S
C6318 H6330 0.956 . S
C6318 H6331 0.961 . S
C6318 H6332 0.961 . S
C6319 C6316 1.539 . S
C6319 H6333 0.958 . S
C6319 H6334 0.961 . S
C6319 H6335 0.960 . S
H6320 C6304 0.931 . S
H6321 C6309 0.929 . S
H6322 C6310 0.960 . S
H6323 C6310 0.962 . S
H6324 C6310 0.960 . S
H6325 C6311 0.961 . S
H6326 C6311 0.961 . S
H6327 C6311 0.961 . S
H6328 C6312 0.931 . S
H6329 C6317 0.930 . S
H6330 C6318 0.956 . S
H6331 C6318 0.961 . S
H6332 C6318 0.961 . S
H6333 C6319 0.958 . S
H6334 C6319 0.961 . S
H6335 C6319 0.960 . S
C6336 C6337 1.391 . S
C6336 C6338 1.394 . S
C6336 H6352 0.931 . S
C6337 C6336 1.391 . S
C6337 C6341 1.376 . S
C6338 C6336 1.394 . S
C6338 C6339 1.369 . S
C6338 C6342 1.531 . S
C6339 C6338 1.369 . S
C6339 C6340 1.410 . S
C6339 C6347 1.503 . S
C6340 C6339 1.410 . S
C6340 C6341 1.392 . S
C6340 C6343 1.511 . S
C6341 C6337 1.376 . S
C6341 C6340 1.392 . S
C6341 H6353 0.929 . S
C6342 C6338 1.531 . S
C6342 H6354 0.960 . S
C6342 H6355 0.962 . S
C6342 H6356 0.960 . S
C6343 C6340 1.511 . S
C6343 H6357 0.961 . S
C6343 H6358 0.961 . S
C6343 H6359 0.961 . S
C6344 C6345 1.370 . S
C6344 C6346 1.363 . S
C6344 H6360 0.931 . S
C6345 C6344 1.370 . S
C6345 C6349 1.408 . S
C6346 C6344 1.363 . S
C6346 C6347 1.370 . S
C6346 C6350 1.524 . S
C6347 C6339 1.503 . S
C6347 C6346 1.370 . S
C6347 C6348 1.403 . S
C6348 C6347 1.403 . S
C6348 C6349 1.404 . S
C6348 C6351 1.539 . S
C6349 C6345 1.408 . S
C6349 C6348 1.404 . S
C6349 H6361 0.930 . S
C6350 C6346 1.524 . S
C6350 H6362 0.956 . S
C6350 H6363 0.961 . S
C6350 H6364 0.961 . S
C6351 C6348 1.539 . S
C6351 H6365 0.958 . S
C6351 H6366 0.961 . S
C6351 H6367 0.960 . S
H6352 C6336 0.931 . S
H6353 C6341 0.929 . S
H6354 C6342 0.960 . S
H6355 C6342 0.962 . S
H6356 C6342 0.960 . S
H6357 C6343 0.961 . S
H6358 C6343 0.961 . S
H6359 C6343 0.961 . S
H6360 C6344 0.931 . S
H6361 C6349 0.930 . S
H6362 C6350 0.956 . S
H6363 C6350 0.961 . S
H6364 C6350 0.961 . S
H6365 C6351 0.958 . S
H6366 C6351 0.961 . S
H6367 C6351 0.960 . S
C6368 C6369 1.391 . S
C6368 C6370 1.394 . S
C6368 H6384 0.931 . S
C6369 C6368 1.391 . S
C6369 C6373 1.376 . S
C6370 C6368 1.394 . S
C6370 C6371 1.369 . S
C6370 C6374 1.531 . S
C6371 C6370 1.369 . S
C6371 C6372 1.410 . S
C6371 C6379 1.503 . S
C6372 C6371 1.410 . S
C6372 C6373 1.392 . S
C6372 C6375 1.511 . S
C6373 C6369 1.376 . S
C6373 C6372 1.392 . S
C6373 H6385 0.929 . S
C6374 C6370 1.531 . S
C6374 H6386 0.960 . S
C6374 H6387 0.962 . S
C6374 H6388 0.960 . S
C6375 C6372 1.511 . S
C6375 H6389 0.961 . S
C6375 H6390 0.961 . S
C6375 H6391 0.961 . S
C6376 C6377 1.370 . S
C6376 C6378 1.363 . S
C6376 H6392 0.931 . S
C6377 C6376 1.370 . S
C6377 C6381 1.408 . S
C6378 C6376 1.363 . S
C6378 C6379 1.370 . S
C6378 C6382 1.524 . S
C6379 C6371 1.503 . S
C6379 C6378 1.370 . S
C6379 C6380 1.403 . S
C6380 C6379 1.403 . S
C6380 C6381 1.404 . S
C6380 C6383 1.539 . S
C6381 C6377 1.408 . S
C6381 C6380 1.404 . S
C6381 H6393 0.930 . S
C6382 C6378 1.524 . S
C6382 H6394 0.956 . S
C6382 H6395 0.961 . S
C6382 H6396 0.961 . S
C6383 C6380 1.539 . S
C6383 H6397 0.958 . S
C6383 H6398 0.961 . S
C6383 H6399 0.960 . S
H6384 C6368 0.931 . S
H6385 C6373 0.929 . S
H6386 C6374 0.960 . S
H6387 C6374 0.962 . S
H6388 C6374 0.960 . S
H6389 C6375 0.961 . S
H6390 C6375 0.961 . S
H6391 C6375 0.961 . S
H6392 C6376 0.931 . S
H6393 C6381 0.930 . S
H6394 C6382 0.956 . S
H6395 C6382 0.961 . S
H6396 C6382 0.961 . S
H6397 C6383 0.958 . S
H6398 C6383 0.961 . S
H6399 C6383 0.960 . S
C6400 C6401 1.391 . S
C6400 C6402 1.394 . S
C6400 H6416 0.931 . S
C6401 C6400 1.391 . S
C6401 C6405 1.376 . S
C6402 C6400 1.394 . S
C6402 C6403 1.369 . S
C6402 C6406 1.531 . S
C6403 C6402 1.369 . S
C6403 C6404 1.410 . S
C6403 C6411 1.503 . S
C6404 C6403 1.410 . S
C6404 C6405 1.392 . S
C6404 C6407 1.511 . S
C6405 C6401 1.376 . S
C6405 C6404 1.392 . S
C6405 H6417 0.929 . S
C6406 C6402 1.531 . S
C6406 H6418 0.960 . S
C6406 H6419 0.962 . S
C6406 H6420 0.960 . S
C6407 C6404 1.511 . S
C6407 H6421 0.961 . S
C6407 H6422 0.961 . S
C6407 H6423 0.961 . S
C6408 C6409 1.370 . S
C6408 C6410 1.363 . S
C6408 H6424 0.931 . S
C6409 C6408 1.370 . S
C6409 C6413 1.408 . S
C6410 C6408 1.363 . S
C6410 C6411 1.370 . S
C6410 C6414 1.524 . S
C6411 C6403 1.503 . S
C6411 C6410 1.370 . S
C6411 C6412 1.403 . S
C6412 C6411 1.403 . S
C6412 C6413 1.404 . S
C6412 C6415 1.539 . S
C6413 C6409 1.408 . S
C6413 C6412 1.404 . S
C6413 H6425 0.930 . S
C6414 C6410 1.524 . S
C6414 H6426 0.956 . S
C6414 H6427 0.961 . S
C6414 H6428 0.961 . S
C6415 C6412 1.539 . S
C6415 H6429 0.958 . S
C6415 H6430 0.961 . S
C6415 H6431 0.960 . S
H6416 C6400 0.931 . S
H6417 C6405 0.929 . S
H6418 C6406 0.960 . S
H6419 C6406 0.962 . S
H6420 C6406 0.960 . S
H6421 C6407 0.961 . S
H6422 C6407 0.961 . S
H6423 C6407 0.961 . S
H6424 C6408 0.931 . S
H6425 C6413 0.930 . S
H6426 C6414 0.956 . S
H6427 C6414 0.961 . S
H6428 C6414 0.961 . S
H6429 C6415 0.958 . S
H6430 C6415 0.961 . S
H6431 C6415 0.960 . S
C6432 C6433 1.391 . S
C6432 C6434 1.394 . S
C6432 H6448 0.931 . S
C6433 C6432 1.391 . S
C6433 C6437 1.376 . S
C6434 C6432 1.394 . S
C6434 C6435 1.369 . S
C6434 C6438 1.531 . S
C6435 C6434 1.369 . S
C6435 C6436 1.410 . S
C6435 C6443 1.503 . S
C6436 C6435 1.410 . S
C6436 C6437 1.392 . S
C6436 C6439 1.511 . S
C6437 C6433 1.376 . S
C6437 C6436 1.392 . S
C6437 H6449 0.929 . S
C6438 C6434 1.531 . S
C6438 H6450 0.960 . S
C6438 H6451 0.962 . S
C6438 H6452 0.960 . S
C6439 C6436 1.511 . S
C6439 H6453 0.961 . S
C6439 H6454 0.961 . S
C6439 H6455 0.961 . S
C6440 C6441 1.370 . S
C6440 C6442 1.363 . S
C6440 H6456 0.931 . S
C6441 C6440 1.370 . S
C6441 C6445 1.408 . S
C6442 C6440 1.363 . S
C6442 C6443 1.370 . S
C6442 C6446 1.524 . S
C6443 C6435 1.503 . S
C6443 C6442 1.370 . S
C6443 C6444 1.403 . S
C6444 C6443 1.403 . S
C6444 C6445 1.404 . S
C6444 C6447 1.539 . S
C6445 C6441 1.408 . S
C6445 C6444 1.404 . S
C6445 H6457 0.930 . S
C6446 C6442 1.524 . S
C6446 H6458 0.956 . S
C6446 H6459 0.961 . S
C6446 H6460 0.961 . S
C6447 C6444 1.539 . S
C6447 H6461 0.958 . S
C6447 H6462 0.961 . S
C6447 H6463 0.960 . S
H6448 C6432 0.931 . S
H6449 C6437 0.929 . S
H6450 C6438 0.960 . S
H6451 C6438 0.962 . S
H6452 C6438 0.960 . S
H6453 C6439 0.961 . S
H6454 C6439 0.961 . S
H6455 C6439 0.961 . S
H6456 C6440 0.931 . S
H6457 C6445 0.930 . S
H6458 C6446 0.956 . S
H6459 C6446 0.961 . S
H6460 C6446 0.961 . S
H6461 C6447 0.958 . S
H6462 C6447 0.961 . S
H6463 C6447 0.960 . S
C6464 C6465 1.391 . S
C6464 C6466 1.394 . S
C6464 H6480 0.931 . S
C6465 C6464 1.391 . S
C6465 C6469 1.376 . S
C6466 C6464 1.394 . S
C6466 C6467 1.369 . S
C6466 C6470 1.531 . S
C6467 C6466 1.369 . S
C6467 C6468 1.410 . S
C6467 C6475 1.503 . S
C6468 C6467 1.410 . S
C6468 C6469 1.392 . S
C6468 C6471 1.511 . S
C6469 C6465 1.376 . S
C6469 C6468 1.392 . S
C6469 H6481 0.929 . S
C6470 C6466 1.531 . S
C6470 H6482 0.960 . S
C6470 H6483 0.962 . S
C6470 H6484 0.960 . S
C6471 C6468 1.511 . S
C6471 H6485 0.961 . S
C6471 H6486 0.961 . S
C6471 H6487 0.961 . S
C6472 C6473 1.370 . S
C6472 C6474 1.363 . S
C6472 H6488 0.931 . S
C6473 C6472 1.370 . S
C6473 C6477 1.408 . S
C6474 C6472 1.363 . S
C6474 C6475 1.370 . S
C6474 C6478 1.524 . S
C6475 C6467 1.503 . S
C6475 C6474 1.370 . S
C6475 C6476 1.403 . S
C6476 C6475 1.403 . S
C6476 C6477 1.404 . S
C6476 C6479 1.539 . S
C6477 C6473 1.408 . S
C6477 C6476 1.404 . S
C6477 H6489 0.930 . S
C6478 C6474 1.524 . S
C6478 H6490 0.956 . S
C6478 H6491 0.961 . S
C6478 H6492 0.961 . S
C6479 C6476 1.539 . S
C6479 H6493 0.958 . S
C6479 H6494 0.961 . S
C6479 H6495 0.960 . S
H6480 C6464 0.931 . S
H6481 C6469 0.929 . S
H6482 C6470 0.960 . S
H6483 C6470 0.962 . S
H6484 C6470 0.960 . S
H6485 C6471 0.961 . S
H6486 C6471 0.961 . S
H6487 C6471 0.961 . S
H6488 C6472 0.931 . S
H6489 C6477 0.930 . S
H6490 C6478 0.956 . S
H6491 C6478 0.961 . S
H6492 C6478 0.961 . S
H6493 C6479 0.958 . S
H6494 C6479 0.961 . S
H6495 C6479 0.960 . S
C6496 C6497 1.391 . S
C6496 C6498 1.394 . S
C6496 H6512 0.931 . S
C6497 C6496 1.391 . S
C6497 C6501 1.376 . S
C6498 C6496 1.394 . S
C6498 C6499 1.369 . S
C6498 C6502 1.531 . S
C6499 C6498 1.369 . S
C6499 C6500 1.410 . S
C6499 C6507 1.503 . S
C6500 C6499 1.410 . S
C6500 C6501 1.392 . S
C6500 C6503 1.511 . S
C6501 C6497 1.376 . S
C6501 C6500 1.392 . S
C6501 H6513 0.929 . S
C6502 C6498 1.531 . S
C6502 H6514 0.960 . S
C6502 H6515 0.962 . S
C6502 H6516 0.960 . S
C6503 C6500 1.511 . S
C6503 H6517 0.961 . S
C6503 H6518 0.961 . S
C6503 H6519 0.961 . S
C6504 C6505 1.370 . S
C6504 C6506 1.363 . S
C6504 H6520 0.931 . S
C6505 C6504 1.370 . S
C6505 C6509 1.408 . S
C6506 C6504 1.363 . S
C6506 C6507 1.370 . S
C6506 C6510 1.524 . S
C6507 C6499 1.503 . S
C6507 C6506 1.370 . S
C6507 C6508 1.403 . S
C6508 C6507 1.403 . S
C6508 C6509 1.404 . S
C6508 C6511 1.539 . S
C6509 C6505 1.408 . S
C6509 C6508 1.404 . S
C6509 H6521 0.930 . S
C6510 C6506 1.524 . S
C6510 H6522 0.956 . S
C6510 H6523 0.961 . S
C6510 H6524 0.961 . S
C6511 C6508 1.539 . S
C6511 H6525 0.958 . S
C6511 H6526 0.961 . S
C6511 H6527 0.960 . S
H6512 C6496 0.931 . S
H6513 C6501 0.929 . S
H6514 C6502 0.960 . S
H6515 C6502 0.962 . S
H6516 C6502 0.960 . S
H6517 C6503 0.961 . S
H6518 C6503 0.961 . S
H6519 C6503 0.961 . S
H6520 C6504 0.931 . S
H6521 C6509 0.930 . S
H6522 C6510 0.956 . S
H6523 C6510 0.961 . S
H6524 C6510 0.961 . S
H6525 C6511 0.958 . S
H6526 C6511 0.961 . S
H6527 C6511 0.960 . S
C6528 C6529 1.391 . S
C6528 C6530 1.394 . S
C6528 H6544 0.931 . S
C6529 C6528 1.391 . S
C6529 C6533 1.376 . S
C6530 C6528 1.394 . S
C6530 C6531 1.369 . S
C6530 C6534 1.531 . S
C6531 C6530 1.369 . S
C6531 C6532 1.410 . S
C6531 C6539 1.503 . S
C6532 C6531 1.410 . S
C6532 C6533 1.392 . S
C6532 C6535 1.511 . S
C6533 C6529 1.376 . S
C6533 C6532 1.392 . S
C6533 H6545 0.929 . S
C6534 C6530 1.531 . S
C6534 H6546 0.960 . S
C6534 H6547 0.962 . S
C6534 H6548 0.960 . S
C6535 C6532 1.511 . S
C6535 H6549 0.961 . S
C6535 H6550 0.961 . S
C6535 H6551 0.961 . S
C6536 C6537 1.370 . S
C6536 C6538 1.363 . S
C6536 H6552 0.931 . S
C6537 C6536 1.370 . S
C6537 C6541 1.408 . S
C6538 C6536 1.363 . S
C6538 C6539 1.370 . S
C6538 C6542 1.524 . S
C6539 C6531 1.503 . S
C6539 C6538 1.370 . S
C6539 C6540 1.403 . S
C6540 C6539 1.403 . S
C6540 C6541 1.404 . S
C6540 C6543 1.539 . S
C6541 C6537 1.408 . S
C6541 C6540 1.404 . S
C6541 H6553 0.930 . S
C6542 C6538 1.524 . S
C6542 H6554 0.956 . S
C6542 H6555 0.961 . S
C6542 H6556 0.961 . S
C6543 C6540 1.539 . S
C6543 H6557 0.958 . S
C6543 H6558 0.961 . S
C6543 H6559 0.960 . S
H6544 C6528 0.931 . S
H6545 C6533 0.929 . S
H6546 C6534 0.960 . S
H6547 C6534 0.962 . S
H6548 C6534 0.960 . S
H6549 C6535 0.961 . S
H6550 C6535 0.961 . S
H6551 C6535 0.961 . S
H6552 C6536 0.931 . S
H6553 C6541 0.930 . S
H6554 C6542 0.956 . S
H6555 C6542 0.961 . S
H6556 C6542 0.961 . S
H6557 C6543 0.958 . S
H6558 C6543 0.961 . S
H6559 C6543 0.960 . S
C6560 C6561 1.391 . S
C6560 C6562 1.394 . S
C6560 H6576 0.931 . S
C6561 C6560 1.391 . S
C6561 C6565 1.376 . S
C6562 C6560 1.394 . S
C6562 C6563 1.369 . S
C6562 C6566 1.531 . S
C6563 C6562 1.369 . S
C6563 C6564 1.410 . S
C6563 C6571 1.503 . S
C6564 C6563 1.410 . S
C6564 C6565 1.392 . S
C6564 C6567 1.511 . S
C6565 C6561 1.376 . S
C6565 C6564 1.392 . S
C6565 H6577 0.929 . S
C6566 C6562 1.531 . S
C6566 H6578 0.960 . S
C6566 H6579 0.962 . S
C6566 H6580 0.960 . S
C6567 C6564 1.511 . S
C6567 H6581 0.961 . S
C6567 H6582 0.961 . S
C6567 H6583 0.961 . S
C6568 C6569 1.370 . S
C6568 C6570 1.363 . S
C6568 H6584 0.931 . S
C6569 C6568 1.370 . S
C6569 C6573 1.408 . S
C6570 C6568 1.363 . S
C6570 C6571 1.370 . S
C6570 C6574 1.524 . S
C6571 C6563 1.503 . S
C6571 C6570 1.370 . S
C6571 C6572 1.403 . S
C6572 C6571 1.403 . S
C6572 C6573 1.404 . S
C6572 C6575 1.539 . S
C6573 C6569 1.408 . S
C6573 C6572 1.404 . S
C6573 H6585 0.930 . S
C6574 C6570 1.524 . S
C6574 H6586 0.956 . S
C6574 H6587 0.961 . S
C6574 H6588 0.961 . S
C6575 C6572 1.539 . S
C6575 H6589 0.958 . S
C6575 H6590 0.961 . S
C6575 H6591 0.960 . S
H6576 C6560 0.931 . S
H6577 C6565 0.929 . S
H6578 C6566 0.960 . S
H6579 C6566 0.962 . S
H6580 C6566 0.960 . S
H6581 C6567 0.961 . S
H6582 C6567 0.961 . S
H6583 C6567 0.961 . S
H6584 C6568 0.931 . S
H6585 C6573 0.930 . S
H6586 C6574 0.956 . S
H6587 C6574 0.961 . S
H6588 C6574 0.961 . S
H6589 C6575 0.958 . S
H6590 C6575 0.961 . S
H6591 C6575 0.960 . S
C6592 C6593 1.391 . S
C6592 C6594 1.394 . S
C6592 H6608 0.931 . S
C6593 C6592 1.391 . S
C6593 C6597 1.376 . S
C6594 C6592 1.394 . S
C6594 C6595 1.369 . S
C6594 C6598 1.531 . S
C6595 C6594 1.369 . S
C6595 C6596 1.410 . S
C6595 C6603 1.503 . S
C6596 C6595 1.410 . S
C6596 C6597 1.392 . S
C6596 C6599 1.511 . S
C6597 C6593 1.376 . S
C6597 C6596 1.392 . S
C6597 H6609 0.929 . S
C6598 C6594 1.531 . S
C6598 H6610 0.960 . S
C6598 H6611 0.962 . S
C6598 H6612 0.960 . S
C6599 C6596 1.511 . S
C6599 H6613 0.961 . S
C6599 H6614 0.961 . S
C6599 H6615 0.961 . S
C6600 C6601 1.370 . S
C6600 C6602 1.363 . S
C6600 H6616 0.931 . S
C6601 C6600 1.370 . S
C6601 C6605 1.408 . S
C6602 C6600 1.363 . S
C6602 C6603 1.370 . S
C6602 C6606 1.524 . S
C6603 C6595 1.503 . S
C6603 C6602 1.370 . S
C6603 C6604 1.403 . S
C6604 C6603 1.403 . S
C6604 C6605 1.404 . S
C6604 C6607 1.539 . S
C6605 C6601 1.408 . S
C6605 C6604 1.404 . S
C6605 H6617 0.930 . S
C6606 C6602 1.524 . S
C6606 H6618 0.956 . S
C6606 H6619 0.961 . S
C6606 H6620 0.961 . S
C6607 C6604 1.539 . S
C6607 H6621 0.958 . S
C6607 H6622 0.961 . S
C6607 H6623 0.960 . S
H6608 C6592 0.931 . S
H6609 C6597 0.929 . S
H6610 C6598 0.960 . S
H6611 C6598 0.962 . S
H6612 C6598 0.960 . S
H6613 C6599 0.961 . S
H6614 C6599 0.961 . S
H6615 C6599 0.961 . S
H6616 C6600 0.931 . S
H6617 C6605 0.930 . S
H6618 C6606 0.956 . S
H6619 C6606 0.961 . S
H6620 C6606 0.961 . S
H6621 C6607 0.958 . S
H6622 C6607 0.961 . S
H6623 C6607 0.960 . S
C6624 C6625 1.391 . S
C6624 C6626 1.394 . S
C6624 H6640 0.931 . S
C6625 C6624 1.391 . S
C6625 C6629 1.376 . S
C6626 C6624 1.394 . S
C6626 C6627 1.369 . S
C6626 C6630 1.531 . S
C6627 C6626 1.369 . S
C6627 C6628 1.410 . S
C6627 C6635 1.503 . S
C6628 C6627 1.410 . S
C6628 C6629 1.392 . S
C6628 C6631 1.511 . S
C6629 C6625 1.376 . S
C6629 C6628 1.392 . S
C6629 H6641 0.929 . S
C6630 C6626 1.531 . S
C6630 H6642 0.960 . S
C6630 H6643 0.962 . S
C6630 H6644 0.960 . S
C6631 C6628 1.511 . S
C6631 H6645 0.961 . S
C6631 H6646 0.961 . S
C6631 H6647 0.961 . S
C6632 C6633 1.370 . S
C6632 C6634 1.363 . S
C6632 H6648 0.931 . S
C6633 C6632 1.370 . S
C6633 C6637 1.408 . S
C6634 C6632 1.363 . S
C6634 C6635 1.370 . S
C6634 C6638 1.524 . S
C6635 C6627 1.503 . S
C6635 C6634 1.370 . S
C6635 C6636 1.403 . S
C6636 C6635 1.403 . S
C6636 C6637 1.404 . S
C6636 C6639 1.539 . S
C6637 C6633 1.408 . S
C6637 C6636 1.404 . S
C6637 H6649 0.930 . S
C6638 C6634 1.524 . S
C6638 H6650 0.956 . S
C6638 H6651 0.961 . S
C6638 H6652 0.961 . S
C6639 C6636 1.539 . S
C6639 H6653 0.958 . S
C6639 H6654 0.961 . S
C6639 H6655 0.960 . S
H6640 C6624 0.931 . S
H6641 C6629 0.929 . S
H6642 C6630 0.960 . S
H6643 C6630 0.962 . S
H6644 C6630 0.960 . S
H6645 C6631 0.961 . S
H6646 C6631 0.961 . S
H6647 C6631 0.961 . S
H6648 C6632 0.931 . S
H6649 C6637 0.930 . S
H6650 C6638 0.956 . S
H6651 C6638 0.961 . S
H6652 C6638 0.961 . S
H6653 C6639 0.958 . S
H6654 C6639 0.961 . S
H6655 C6639 0.960 . S
C6656 C6657 1.391 . S
C6656 C6658 1.394 . S
C6656 H6672 0.931 . S
C6657 C6656 1.391 . S
C6657 C6661 1.376 . S
C6658 C6656 1.394 . S
C6658 C6659 1.369 . S
C6658 C6662 1.531 . S
C6659 C6658 1.369 . S
C6659 C6660 1.410 . S
C6659 C6667 1.503 . S
C6660 C6659 1.410 . S
C6660 C6661 1.392 . S
C6660 C6663 1.511 . S
C6661 C6657 1.376 . S
C6661 C6660 1.392 . S
C6661 H6673 0.929 . S
C6662 C6658 1.531 . S
C6662 H6674 0.960 . S
C6662 H6675 0.962 . S
C6662 H6676 0.960 . S
C6663 C6660 1.511 . S
C6663 H6677 0.961 . S
C6663 H6678 0.961 . S
C6663 H6679 0.961 . S
C6664 C6665 1.370 . S
C6664 C6666 1.363 . S
C6664 H6680 0.931 . S
C6665 C6664 1.370 . S
C6665 C6669 1.408 . S
C6666 C6664 1.363 . S
C6666 C6667 1.370 . S
C6666 C6670 1.524 . S
C6667 C6659 1.503 . S
C6667 C6666 1.370 . S
C6667 C6668 1.403 . S
C6668 C6667 1.403 . S
C6668 C6669 1.404 . S
C6668 C6671 1.539 . S
C6669 C6665 1.408 . S
C6669 C6668 1.404 . S
C6669 H6681 0.930 . S
C6670 C6666 1.524 . S
C6670 H6682 0.956 . S
C6670 H6683 0.961 . S
C6670 H6684 0.961 . S
C6671 C6668 1.539 . S
C6671 H6685 0.958 . S
C6671 H6686 0.961 . S
C6671 H6687 0.960 . S
H6672 C6656 0.931 . S
H6673 C6661 0.929 . S
H6674 C6662 0.960 . S
H6675 C6662 0.962 . S
H6676 C6662 0.960 . S
H6677 C6663 0.961 . S
H6678 C6663 0.961 . S
H6679 C6663 0.961 . S
H6680 C6664 0.931 . S
H6681 C6669 0.930 . S
H6682 C6670 0.956 . S
H6683 C6670 0.961 . S
H6684 C6670 0.961 . S
H6685 C6671 0.958 . S
H6686 C6671 0.961 . S
H6687 C6671 0.960 . S
C6688 C6689 1.391 . S
C6688 C6690 1.394 . S
C6688 H6704 0.931 . S
C6689 C6688 1.391 . S
C6689 C6693 1.376 . S
C6690 C6688 1.394 . S
C6690 C6691 1.369 . S
C6690 C6694 1.531 . S
C6691 C6690 1.369 . S
C6691 C6692 1.410 . S
C6691 C6699 1.503 . S
C6692 C6691 1.410 . S
C6692 C6693 1.392 . S
C6692 C6695 1.511 . S
C6693 C6689 1.376 . S
C6693 C6692 1.392 . S
C6693 H6705 0.929 . S
C6694 C6690 1.531 . S
C6694 H6706 0.960 . S
C6694 H6707 0.962 . S
C6694 H6708 0.960 . S
C6695 C6692 1.511 . S
C6695 H6709 0.961 . S
C6695 H6710 0.961 . S
C6695 H6711 0.961 . S
C6696 C6697 1.370 . S
C6696 C6698 1.363 . S
C6696 H6712 0.931 . S
C6697 C6696 1.370 . S
C6697 C6701 1.408 . S
C6698 C6696 1.363 . S
C6698 C6699 1.370 . S
C6698 C6702 1.524 . S
C6699 C6691 1.503 . S
C6699 C6698 1.370 . S
C6699 C6700 1.403 . S
C6700 C6699 1.403 . S
C6700 C6701 1.404 . S
C6700 C6703 1.539 . S
C6701 C6697 1.408 . S
C6701 C6700 1.404 . S
C6701 H6713 0.930 . S
C6702 C6698 1.524 . S
C6702 H6714 0.956 . S
C6702 H6715 0.961 . S
C6702 H6716 0.961 . S
C6703 C6700 1.539 . S
C6703 H6717 0.958 . S
C6703 H6718 0.961 . S
C6703 H6719 0.960 . S
H6704 C6688 0.931 . S
H6705 C6693 0.929 . S
H6706 C6694 0.960 . S
H6707 C6694 0.962 . S
H6708 C6694 0.960 . S
H6709 C6695 0.961 . S
H6710 C6695 0.961 . S
H6711 C6695 0.961 . S
H6712 C6696 0.931 . S
H6713 C6701 0.930 . S
H6714 C6702 0.956 . S
H6715 C6702 0.961 . S
H6716 C6702 0.961 . S
H6717 C6703 0.958 . S
H6718 C6703 0.961 . S
H6719 C6703 0.960 . S
C6720 C6721 1.391 . S
C6720 C6722 1.394 . S
C6720 H6736 0.931 . S
C6721 C6720 1.391 . S
C6721 C6725 1.376 . S
C6722 C6720 1.394 . S
C6722 C6723 1.369 . S
C6722 C6726 1.531 . S
C6723 C6722 1.369 . S
C6723 C6724 1.410 . S
C6723 C6731 1.503 . S
C6724 C6723 1.410 . S
C6724 C6725 1.392 . S
C6724 C6727 1.511 . S
C6725 C6721 1.376 . S
C6725 C6724 1.392 . S
C6725 H6737 0.929 . S
C6726 C6722 1.531 . S
C6726 H6738 0.960 . S
C6726 H6739 0.962 . S
C6726 H6740 0.960 . S
C6727 C6724 1.511 . S
C6727 H6741 0.961 . S
C6727 H6742 0.961 . S
C6727 H6743 0.961 . S
C6728 C6729 1.370 . S
C6728 C6730 1.363 . S
C6728 H6744 0.931 . S
C6729 C6728 1.370 . S
C6729 C6733 1.408 . S
C6730 C6728 1.363 . S
C6730 C6731 1.370 1_554 S
C6730 C6734 1.524 1_554 S
C6731 C6723 1.503 . S
C6731 C6730 1.370 1_556 S
C6731 C6732 1.403 1_556 S
C6732 C6731 1.403 1_554 S
C6732 C6733 1.404 . S
C6732 C6735 1.508 1_554 S
C6733 C6729 1.408 . S
C6733 C6732 1.404 . S
C6733 H6745 0.930 . S
C6734 C6730 1.524 1_556 S
C6734 H6746 0.956 . S
C6734 H6747 0.961 . S
C6734 H6748 0.961 1_556 S
C6735 C6732 1.508 1_556 S
C6735 H6749 0.964 . S
C6735 H6750 0.921 1_556 S
C6735 H6751 1.032 . S
H6736 C6720 0.931 . S
H6737 C6725 0.929 . S
H6738 C6726 0.960 . S
H6739 C6726 0.962 . S
H6740 C6726 0.960 . S
H6741 C6727 0.961 . S
H6742 C6727 0.961 . S
H6743 C6727 0.961 . S
H6744 C6728 0.931 . S
H6745 C6733 0.930 . S
H6746 C6734 0.956 . S
H6747 C6734 0.961 . S
H6748 C6734 0.961 1_554 S
H6749 C6735 0.964 . S
H6750 C6735 0.921 1_554 S
H6751 C6735 1.032 . S
C6752 C6753 1.391 . S
C6752 C6754 1.394 . S
C6752 H6768 0.931 . S
C6753 C6752 1.391 . S
C6753 C6757 1.376 . S
C6754 C6752 1.394 . S
C6754 C6755 1.369 1_554 S
C6754 C6758 1.531 1_554 S
C6755 C6754 1.369 1_556 S
C6755 C6756 1.410 1_556 S
C6755 C6763 1.503 . S
C6756 C6755 1.410 1_554 S
C6756 C6757 1.392 . S
C6756 C6759 1.508 1_554 S
C6757 C6753 1.376 . S
C6757 C6756 1.392 . S
C6757 H6769 0.929 . S
C6758 C6754 1.531 1_556 S
C6758 H6770 0.960 . S
C6758 H6771 0.962 . S
C6758 H6772 0.942 1_556 S
C6759 C6756 1.508 1_556 S
C6759 H6773 0.956 1_556 S
C6759 H6774 0.968 . S
C6759 H6775 0.958 . S
C6760 C6761 1.370 . S
C6760 C6762 1.363 . S
C6760 H6776 0.931 . S
C6761 C6760 1.370 . S
C6761 C6765 1.408 . S
C6762 C6760 1.363 . S
C6762 C6763 1.370 . S
C6762 C6766 1.524 . S
C6763 C6755 1.503 . S
C6763 C6762 1.370 . S
C6763 C6764 1.403 . S
C6764 C6763 1.403 . S
C6764 C6765 1.404 . S
C6764 C6767 1.539 . S
C6765 C6761 1.408 . S
C6765 C6764 1.404 . S
C6765 H6777 0.930 . S
C6766 C6762 1.524 . S
C6766 H6778 0.956 . S
C6766 H6779 0.961 . S
C6766 H6780 0.961 . S
C6767 C6764 1.539 . S
C6767 H6781 0.958 . S
C6767 H6782 0.961 . S
C6767 H6783 0.960 . S
H6768 C6752 0.931 . S
H6769 C6757 0.929 . S
H6770 C6758 0.960 . S
H6771 C6758 0.962 . S
H6772 C6758 0.942 1_554 S
H6773 C6759 0.956 1_554 S
H6774 C6759 0.968 . S
H6775 C6759 0.958 . S
H6776 C6760 0.931 . S
H6777 C6765 0.930 . S
H6778 C6766 0.956 . S
H6779 C6766 0.961 . S
H6780 C6766 0.961 . S
H6781 C6767 0.958 . S
H6782 C6767 0.961 . S
H6783 C6767 0.960 . S
C6784 C6785 1.391 . S
C6784 C6786 1.394 . S
C6784 H6800 0.931 . S
C6785 C6784 1.391 . S
C6785 C6789 1.376 . S
C6786 C6784 1.394 . S
C6786 C6787 1.369 1_554 S
C6786 C6790 1.531 1_554 S
C6787 C6786 1.369 1_556 S
C6787 C6788 1.410 1_556 S
C6787 C6795 1.503 . S
C6788 C6787 1.410 1_554 S
C6788 C6789 1.392 . S
C6788 C6791 1.511 1_554 S
C6789 C6785 1.376 . S
C6789 C6788 1.392 . S
C6789 H6801 0.929 . S
C6790 C6786 1.531 1_556 S
C6790 H6802 0.960 . S
C6790 H6803 0.962 . S
C6790 H6804 0.960 1_556 S
C6791 C6788 1.511 1_556 S
C6791 H6805 0.961 1_556 S
C6791 H6806 0.961 . S
C6791 H6807 0.961 . S
C6792 C6793 1.370 . S
C6792 C6794 1.363 . S
C6792 H6808 0.931 . S
C6793 C6792 1.370 . S
C6793 C6797 1.408 . S
C6794 C6792 1.363 . S
C6794 C6795 1.370 . S
C6794 C6798 1.524 . S
C6795 C6787 1.503 . S
C6795 C6794 1.370 . S
C6795 C6796 1.403 . S
C6796 C6795 1.403 . S
C6796 C6797 1.404 . S
C6796 C6799 1.539 . S
C6797 C6793 1.408 . S
C6797 C6796 1.404 . S
C6797 H6809 0.930 . S
C6798 C6794 1.524 . S
C6798 H6810 0.956 . S
C6798 H6811 0.961 . S
C6798 H6812 0.961 . S
C6799 C6796 1.539 . S
C6799 H6813 0.958 . S
C6799 H6814 0.961 . S
C6799 H6815 0.960 . S
H6800 C6784 0.931 . S
H6801 C6789 0.929 . S
H6802 C6790 0.960 . S
H6803 C6790 0.962 . S
H6804 C6790 0.960 1_554 S
H6805 C6791 0.961 1_554 S
H6806 C6791 0.961 . S
H6807 C6791 0.961 . S
H6808 C6792 0.931 . S
H6809 C6797 0.930 . S
H6810 C6798 0.956 . S
H6811 C6798 0.961 . S
H6812 C6798 0.961 . S
H6813 C6799 0.958 . S
H6814 C6799 0.961 . S
H6815 C6799 0.960 . S
C6816 C6817 1.391 . S
C6816 C6818 1.394 . S
C6816 H6832 0.931 . S
C6817 C6816 1.391 . S
C6817 C6821 1.376 . S
C6818 C6816 1.394 . S
C6818 C6819 1.369 1_554 S
C6818 C6822 1.531 1_554 S
C6819 C6818 1.369 1_556 S
C6819 C6820 1.410 1_556 S
C6819 C6827 1.503 . S
C6820 C6819 1.410 1_554 S
C6820 C6821 1.392 . S
C6820 C6823 1.506 1_554 S
C6821 C6817 1.376 . S
C6821 C6820 1.392 . S
C6821 H6833 0.929 . S
C6822 C6818 1.531 1_556 S
C6822 H6834 0.960 . S
C6822 H6835 0.962 . S
C6822 H6836 0.967 . S
C6823 C6820 1.506 1_556 S
C6823 H6837 0.953 1_556 S
C6823 H6838 0.972 . S
C6823 H6839 0.962 . S
C6824 C6825 1.370 . S
C6824 C6826 1.363 . S
C6824 H6840 0.931 . S
C6825 C6824 1.370 . S
C6825 C6829 1.408 . S
C6826 C6824 1.363 . S
C6826 C6827 1.370 . S
C6826 C6830 1.524 . S
C6827 C6819 1.503 . S
C6827 C6826 1.370 . S
C6827 C6828 1.403 . S
C6828 C6827 1.403 . S
C6828 C6829 1.404 . S
C6828 C6831 1.539 . S
C6829 C6825 1.408 . S
C6829 C6828 1.404 . S
C6829 H6841 0.930 . S
C6830 C6826 1.524 . S
C6830 H6842 0.956 . S
C6830 H6843 0.961 . S
C6830 H6844 0.961 . S
C6831 C6828 1.539 . S
C6831 H6845 0.958 . S
C6831 H6846 0.961 . S
C6831 H6847 0.960 . S
H6832 C6816 0.931 . S
H6833 C6821 0.929 . S
H6834 C6822 0.960 . S
H6835 C6822 0.962 . S
H6836 C6822 0.967 . S
H6837 C6823 0.953 1_554 S
H6838 C6823 0.972 . S
H6839 C6823 0.962 . S
H6840 C6824 0.931 . S
H6841 C6829 0.930 . S
H6842 C6830 0.956 . S
H6843 C6830 0.961 . S
H6844 C6830 0.961 . S
H6845 C6831 0.958 . S
H6846 C6831 0.961 . S
H6847 C6831 0.960 . S
C6848 C6849 1.391 . S
C6848 C6850 1.394 . S
C6848 H6864 0.931 . S
C6849 C6848 1.391 . S
C6849 C6853 1.376 . S
C6850 C6848 1.394 . S
C6850 C6851 1.369 . S
C6850 C6854 1.531 . S
C6851 C6850 1.369 . S
C6851 C6852 1.410 . S
C6851 C6859 1.503 . S
C6852 C6851 1.410 . S
C6852 C6853 1.392 . S
C6852 C6855 1.511 . S
C6853 C6849 1.376 . S
C6853 C6852 1.392 . S
C6853 H6865 0.929 . S
C6854 C6850 1.531 . S
C6854 H6866 0.960 . S
C6854 H6867 0.962 . S
C6854 H6868 0.960 . S
C6855 C6852 1.511 . S
C6855 H6869 0.961 . S
C6855 H6870 0.961 . S
C6855 H6871 0.961 . S
C6856 C6857 1.370 . S
C6856 C6858 1.363 . S
C6856 H6872 0.931 . S
C6857 C6856 1.370 . S
C6857 C6861 1.408 . S
C6858 C6856 1.363 . S
C6858 C6859 1.370 1_556 S
C6858 C6862 1.524 1_556 S
C6859 C6851 1.503 . S
C6859 C6858 1.370 1_554 S
C6859 C6860 1.403 1_554 S
C6860 C6859 1.403 1_556 S
C6860 C6861 1.404 . S
C6860 C6863 1.555 . S
C6861 C6857 1.408 . S
C6861 C6860 1.404 . S
C6861 H6873 0.930 . S
C6862 C6858 1.524 1_554 S
C6862 H6874 0.956 . S
C6862 H6875 0.961 . S
C6862 H6876 0.957 . S
C6863 C6860 1.555 . S
C6863 H6877 0.957 . S
C6863 H6878 0.986 . S
C6863 H6879 0.921 1_556 S
H6864 C6848 0.931 . S
H6865 C6853 0.929 . S
H6866 C6854 0.960 . S
H6867 C6854 0.962 . S
H6868 C6854 0.960 . S
H6869 C6855 0.961 . S
H6870 C6855 0.961 . S
H6871 C6855 0.961 . S
H6872 C6856 0.931 . S
H6873 C6861 0.930 . S
H6874 C6862 0.956 . S
H6875 C6862 0.961 . S
H6876 C6862 0.957 . S
H6877 C6863 0.957 . S
H6878 C6863 0.986 . S
H6879 C6863 0.921 1_554 S
C6880 C6881 1.391 . S
C6880 C6882 1.394 . S
C6880 H6896 0.931 . S
C6881 C6880 1.391 . S
C6881 C6885 1.376 . S
C6882 C6880 1.394 . S
C6882 C6883 1.369 1_556 S
C6882 C6886 1.531 1_556 S
C6883 C6882 1.369 1_554 S
C6883 C6884 1.410 1_554 S
C6883 C6891 1.503 . S
C6884 C6883 1.410 1_556 S
C6884 C6885 1.392 . S
C6884 C6887 1.511 1_556 S
C6885 C6881 1.376 . S
C6885 C6884 1.392 . S
C6885 H6897 0.929 . S
C6886 C6882 1.531 1_554 S
C6886 H6898 0.960 . S
C6886 H6899 0.962 . S
C6886 H6900 0.927 1_554 S
C6887 C6884 1.511 1_554 S
C6887 H6901 0.961 1_554 S
C6887 H6902 0.961 . S
C6887 H6903 0.961 . S
C6888 C6889 1.370 . S
C6888 C6890 1.363 . S
C6888 H6904 0.931 . S
C6889 C6888 1.370 . S
C6889 C6893 1.408 . S
C6890 C6888 1.363 . S
C6890 C6891 1.370 . S
C6890 C6894 1.524 . S
C6891 C6883 1.503 . S
C6891 C6890 1.370 . S
C6891 C6892 1.403 . S
C6892 C6891 1.403 . S
C6892 C6893 1.404 . S
C6892 C6895 1.539 . S
C6893 C6889 1.408 . S
C6893 C6892 1.404 . S
C6893 H6905 0.930 . S
C6894 C6890 1.524 . S
C6894 H6906 0.956 . S
C6894 H6907 0.961 . S
C6894 H6908 0.961 . S
C6895 C6892 1.539 . S
C6895 H6909 0.958 . S
C6895 H6910 0.961 . S
C6895 H6911 0.960 . S
H6896 C6880 0.931 . S
H6897 C6885 0.929 . S
H6898 C6886 0.960 . S
H6899 C6886 0.962 . S
H6900 C6886 0.927 1_556 S
H6901 C6887 0.961 1_556 S
H6902 C6887 0.961 . S
H6903 C6887 0.961 . S
H6904 C6888 0.931 . S
H6905 C6893 0.930 . S
H6906 C6894 0.956 . S
H6907 C6894 0.961 . S
H6908 C6894 0.961 . S
H6909 C6895 0.958 . S
H6910 C6895 0.961 . S
H6911 C6895 0.960 . S
C6912 C6913 1.391 . S
C6912 C6914 1.394 . S
C6912 H6928 0.931 . S
C6913 C6912 1.391 . S
C6913 C6917 1.376 . S
C6914 C6912 1.394 . S
C6914 C6915 1.369 . S
C6914 C6918 1.531 . S
C6915 C6914 1.369 . S
C6915 C6916 1.410 . S
C6915 C6923 1.503 . S
C6916 C6915 1.410 . S
C6916 C6917 1.392 . S
C6916 C6919 1.511 . S
C6917 C6913 1.376 . S
C6917 C6916 1.392 . S
C6917 H6929 0.929 . S
C6918 C6914 1.531 . S
C6918 H6930 0.960 . S
C6918 H6931 0.962 . S
C6918 H6932 0.960 . S
C6919 C6916 1.511 . S
C6919 H6933 0.961 . S
C6919 H6934 0.961 . S
C6919 H6935 0.961 . S
C6920 C6921 1.370 . S
C6920 C6922 1.363 . S
C6920 H6936 0.931 . S
C6921 C6920 1.370 . S
C6921 C6925 1.408 . S
C6922 C6920 1.363 . S
C6922 C6923 1.370 1_556 S
C6922 C6926 1.524 1_556 S
C6923 C6915 1.503 . S
C6923 C6922 1.370 1_554 S
C6923 C6924 1.403 1_554 S
C6924 C6923 1.403 1_556 S
C6924 C6925 1.404 . S
C6924 C6927 1.539 1_556 S
C6925 C6921 1.408 . S
C6925 C6924 1.404 . S
C6925 H6937 0.930 . S
C6926 C6922 1.524 1_554 S
C6926 H6938 0.956 . S
C6926 H6939 0.961 . S
C6926 H6940 0.932 1_554 S
C6927 C6924 1.539 1_554 S
C6927 H6941 0.958 . S
C6927 H6942 0.961 1_554 S
C6927 H6943 0.960 . S
H6928 C6912 0.931 . S
H6929 C6917 0.929 . S
H6930 C6918 0.960 . S
H6931 C6918 0.962 . S
H6932 C6918 0.960 . S
H6933 C6919 0.961 . S
H6934 C6919 0.961 . S
H6935 C6919 0.961 . S
H6936 C6920 0.931 . S
H6937 C6925 0.930 . S
H6938 C6926 0.956 . S
H6939 C6926 0.961 . S
H6940 C6926 0.932 1_556 S
H6941 C6927 0.958 . S
H6942 C6927 0.961 1_556 S
H6943 C6927 0.960 . S
C6944 C6945 1.391 . S
C6944 C6946 1.394 . S
C6944 H6960 0.931 . S
C6945 C6944 1.391 . S
C6945 C6949 1.376 . S
C6946 C6944 1.394 . S
C6946 C6947 1.369 1_556 S
C6946 C6950 1.531 1_556 S
C6947 C6946 1.369 1_554 S
C6947 C6948 1.410 1_554 S
C6947 C6955 1.503 . S
C6948 C6947 1.410 1_556 S
C6948 C6949 1.392 . S
C6948 C6951 1.510 1_556 S
C6949 C6945 1.376 . S
C6949 C6948 1.392 . S
C6949 H6961 0.929 . S
C6950 C6946 1.531 1_554 S
C6950 H6962 0.960 . S
C6950 H6963 0.962 . S
C6950 H6964 0.966 . S
C6951 C6948 1.510 1_554 S
C6951 H6965 0.959 1_554 S
C6951 H6966 0.964 . S
C6951 H6967 0.961 . S
C6952 C6953 1.370 . S
C6952 C6954 1.363 . S
C6952 H6968 0.931 . S
C6953 C6952 1.370 . S
C6953 C6957 1.408 . S
C6954 C6952 1.363 . S
C6954 C6955 1.370 . S
C6954 C6958 1.524 . S
C6955 C6947 1.503 . S
C6955 C6954 1.370 . S
C6955 C6956 1.403 . S
C6956 C6955 1.403 . S
C6956 C6957 1.404 . S
C6956 C6959 1.539 . S
C6957 C6953 1.408 . S
C6957 C6956 1.404 . S
C6957 H6969 0.930 . S
C6958 C6954 1.524 . S
C6958 H6970 0.956 . S
C6958 H6971 0.961 . S
C6958 H6972 0.961 . S
C6959 C6956 1.539 . S
C6959 H6973 0.958 . S
C6959 H6974 0.961 . S
C6959 H6975 0.960 . S
H6960 C6944 0.931 . S
H6961 C6949 0.929 . S
H6962 C6950 0.960 . S
H6963 C6950 0.962 . S
H6964 C6950 0.966 . S
H6965 C6951 0.959 1_556 S
H6966 C6951 0.964 . S
H6967 C6951 0.961 . S
H6968 C6952 0.931 . S
H6969 C6957 0.930 . S
H6970 C6958 0.956 . S
H6971 C6958 0.961 . S
H6972 C6958 0.961 . S
H6973 C6959 0.958 . S
H6974 C6959 0.961 . S
H6975 C6959 0.960 . S
C6976 C6977 1.391 . S
C6976 C6978 1.394 . S
C6976 H6992 0.931 . S
C6977 C6976 1.391 . S
C6977 C6981 1.376 . S
C6978 C6976 1.394 . S
C6978 C6979 1.369 . S
C6978 C6982 1.531 . S
C6979 C6978 1.369 . S
C6979 C6980 1.410 . S
C6979 C6987 1.503 . S
C6980 C6979 1.410 . S
C6980 C6981 1.392 . S
C6980 C6983 1.511 . S
C6981 C6977 1.376 . S
C6981 C6980 1.392 . S
C6981 H6993 0.929 . S
C6982 C6978 1.531 . S
C6982 H6994 0.960 . S
C6982 H6995 0.962 . S
C6982 H6996 0.960 . S
C6983 C6980 1.511 . S
C6983 H6997 0.961 . S
C6983 H6998 0.961 . S
C6983 H6999 0.961 . S
C6984 C6985 1.370 . S
C6984 C6986 1.363 . S
C6984 H7000 0.931 . S
C6985 C6984 1.370 . S
C6985 C6989 1.408 . S
C6986 C6984 1.363 . S
C6986 C6987 1.370 1_455 S
C6986 C6990 1.524 1_455 S
C6987 C6979 1.503 . S
C6987 C6986 1.370 1_655 S
C6987 C6988 1.403 1_655 S
C6988 C6987 1.403 1_455 S
C6988 C6989 1.404 . S
C6988 C6991 1.537 . S
C6989 C6985 1.408 . S
C6989 C6988 1.404 . S
C6989 H7001 0.930 . S
C6990 C6986 1.524 1_655 S
C6990 H7002 0.956 . S
C6990 H7003 0.961 . S
C6990 H7004 0.924 1_655 S
C6991 C6988 1.537 . S
C6991 H7005 0.959 1_455 S
C6991 H7006 0.958 . S
C6991 H7007 0.964 1_455 S
H6992 C6976 0.931 . S
H6993 C6981 0.929 . S
H6994 C6982 0.960 . S
H6995 C6982 0.962 . S
H6996 C6982 0.960 . S
H6997 C6983 0.961 . S
H6998 C6983 0.961 . S
H6999 C6983 0.961 . S
H7000 C6984 0.931 . S
H7001 C6989 0.930 . S
H7002 C6990 0.956 . S
H7003 C6990 0.961 . S
H7004 C6990 0.924 1_455 S
H7005 C6991 0.959 1_655 S
H7006 C6991 0.958 . S
H7007 C6991 0.964 1_655 S
C7008 C7009 1.391 . S
C7008 C7010 1.394 . S
C7008 H7024 0.931 . S
C7009 C7008 1.391 . S
C7009 C7013 1.376 . S
C7010 C7008 1.394 . S
C7010 C7011 1.369 1_545 S
C7010 C7014 1.512 1_545 S
C7011 C7010 1.369 1_565 S
C7011 C7012 1.410 1_565 S
C7011 C7019 1.503 . S
C7012 C7011 1.410 1_545 S
C7012 C7013 1.392 . S
C7012 C7015 1.511 1_545 S
C7013 C7009 1.376 . S
C7013 C7012 1.392 . S
C7013 H7025 0.929 . S
C7014 C7010 1.512 1_565 S
C7014 H7026 1.000 . S
C7014 H7027 0.970 . S
C7014 H7028 0.933 1_565 S
C7015 C7012 1.511 1_565 S
C7015 H7029 0.960 . S
C7015 H7030 0.961 . S
C7015 H7031 0.961 . S
C7016 C7017 1.370 . S
C7016 C7018 1.363 . S
C7016 H7032 0.931 . S
C7017 C7016 1.370 . S
C7017 C7021 1.408 . S
C7018 C7016 1.363 . S
C7018 C7019 1.370 . S
C7018 C7022 1.524 . S
C7019 C7011 1.503 . S
C7019 C7018 1.370 . S
C7019 C7020 1.403 . S
C7020 C7019 1.403 . S
C7020 C7021 1.404 . S
C7020 C7023 1.539 . S
C7021 C7017 1.408 . S
C7021 C7020 1.404 . S
C7021 H7033 0.930 . S
C7022 C7018 1.524 . S
C7022 H7034 0.956 . S
C7022 H7035 0.961 . S
C7022 H7036 0.961 . S
C7023 C7020 1.539 . S
C7023 H7037 0.958 . S
C7023 H7038 0.961 . S
C7023 H7039 0.960 . S
H7024 C7008 0.931 . S
H7025 C7013 0.929 . S
H7026 C7014 1.000 . S
H7027 C7014 0.970 . S
H7028 C7014 0.933 1_545 S
H7029 C7015 0.960 . S
H7030 C7015 0.961 . S
H7031 C7015 0.961 . S
H7032 C7016 0.931 . S
H7033 C7021 0.930 . S
H7034 C7022 0.956 . S
H7035 C7022 0.961 . S
H7036 C7022 0.961 . S
H7037 C7023 0.958 . S
H7038 C7023 0.961 . S
H7039 C7023 0.960 . S
C7040 C7041 1.391 . S
C7040 C7042 1.394 . S
C7040 H7056 0.931 . S
C7041 C7040 1.391 . S
C7041 C7045 1.376 . S
C7042 C7040 1.394 . S
C7042 C7043 1.369 . S
C7042 C7046 1.531 . S
C7043 C7042 1.369 . S
C7043 C7044 1.410 . S
C7043 C7051 1.503 . S
C7044 C7043 1.410 . S
C7044 C7045 1.392 . S
C7044 C7047 1.511 . S
C7045 C7041 1.376 . S
C7045 C7044 1.392 . S
C7045 H7057 0.929 . S
C7046 C7042 1.531 . S
C7046 H7058 0.960 . S
C7046 H7059 0.962 . S
C7046 H7060 0.960 . S
C7047 C7044 1.511 . S
C7047 H7061 0.961 . S
C7047 H7062 0.961 . S
C7047 H7063 0.961 . S
C7048 C7049 1.370 . S
C7048 C7050 1.363 . S
C7048 H7064 0.931 . S
C7049 C7048 1.370 . S
C7049 C7053 1.408 . S
C7050 C7048 1.363 . S
C7050 C7051 1.370 1_655 S
C7050 C7054 1.524 1_655 S
C7051 C7043 1.503 . S
C7051 C7050 1.370 1_455 S
C7051 C7052 1.403 1_455 S
C7052 C7051 1.403 1_655 S
C7052 C7053 1.404 . S
C7052 C7055 1.539 1_655 S
C7053 C7049 1.408 . S
C7053 C7052 1.404 . S
C7053 H7065 0.930 . S
C7054 C7050 1.524 1_455 S
C7054 H7066 0.956 . S
C7054 H7067 0.961 . S
C7054 H7068 0.961 1_455 S
C7055 C7052 1.539 1_455 S
C7055 H7069 0.958 . S
C7055 H7070 0.961 1_455 S
C7055 H7071 0.960 . S
H7056 C7040 0.931 . S
H7057 C7045 0.929 . S
H7058 C7046 0.960 . S
H7059 C7046 0.962 . S
H7060 C7046 0.960 . S
H7061 C7047 0.961 . S
H7062 C7047 0.961 . S
H7063 C7047 0.961 . S
H7064 C7048 0.931 . S
H7065 C7053 0.930 . S
H7066 C7054 0.956 . S
H7067 C7054 0.961 . S
H7068 C7054 0.961 1_655 S
H7069 C7055 0.958 . S
H7070 C7055 0.961 1_655 S
H7071 C7055 0.960 . S
C7072 C7073 1.391 . S
C7072 C7074 1.394 . S
C7072 H7088 0.931 . S
C7073 C7072 1.391 . S
C7073 C7077 1.376 . S
C7074 C7072 1.394 . S
C7074 C7075 1.369 1_565 S
C7074 C7078 1.531 1_565 S
C7075 C7074 1.369 1_545 S
C7075 C7076 1.410 1_545 S
C7075 C7083 1.503 . S
C7076 C7075 1.410 1_565 S
C7076 C7077 1.392 . S
C7076 C7079 1.511 1_565 S
C7077 C7073 1.376 . S
C7077 C7076 1.392 . S
C7077 H7089 0.929 . S
C7078 C7074 1.531 1_545 S
C7078 H7090 0.960 . S
C7078 H7091 0.962 . S
C7078 H7092 0.960 1_545 S
C7079 C7076 1.511 1_545 S
C7079 H7093 0.961 1_545 S
C7079 H7094 0.961 . S
C7079 H7095 0.961 . S
C7080 C7081 1.370 . S
C7080 C7082 1.363 . S
C7080 H7096 0.931 . S
C7081 C7080 1.370 . S
C7081 C7085 1.408 . S
C7082 C7080 1.363 . S
C7082 C7083 1.370 . S
C7082 C7086 1.524 . S
C7083 C7075 1.503 . S
C7083 C7082 1.370 . S
C7083 C7084 1.403 . S
C7084 C7083 1.403 . S
C7084 C7085 1.404 . S
C7084 C7087 1.539 . S
C7085 C7081 1.408 . S
C7085 C7084 1.404 . S
C7085 H7097 0.930 . S
C7086 C7082 1.524 . S
C7086 H7098 0.956 . S
C7086 H7099 0.961 . S
C7086 H7100 0.961 . S
C7087 C7084 1.539 . S
C7087 H7101 0.958 . S
C7087 H7102 0.961 . S
C7087 H7103 0.960 . S
H7088 C7072 0.931 . S
H7089 C7077 0.929 . S
H7090 C7078 0.960 . S
H7091 C7078 0.962 . S
H7092 C7078 0.960 1_565 S
H7093 C7079 0.961 1_565 S
H7094 C7079 0.961 . S
H7095 C7079 0.961 . S
H7096 C7080 0.931 . S
H7097 C7085 0.930 . S
H7098 C7086 0.956 . S
H7099 C7086 0.961 . S
H7100 C7086 0.961 . S
H7101 C7087 0.958 . S
H7102 C7087 0.961 . S
H7103 C7087 0.960 . S
C7104 C7105 1.391 . S
C7104 C7106 1.394 . S
C7104 H7120 0.931 . S
C7105 C7104 1.391 . S
C7105 C7109 1.376 . S
C7106 C7104 1.394 . S
C7106 C7107 1.369 1_455 S
C7106 C7110 1.531 1_455 S
C7107 C7106 1.369 1_655 S
C7107 C7108 1.410 1_655 S
C7107 C7115 1.503 . S
C7108 C7107 1.410 1_455 S
C7108 C7109 1.392 . S
C7108 C7111 1.510 1_455 S
C7109 C7105 1.376 . S
C7109 C7108 1.392 . S
C7109 H7121 0.929 . S
C7110 C7106 1.531 1_655 S
C7110 H7122 0.960 . S
C7110 H7123 0.962 . S
C7110 H7124 0.966 . S
C7111 C7108 1.510 1_655 S
C7111 H7125 0.958 1_655 S
C7111 H7126 0.965 . S
C7111 H7127 0.961 . S
C7112 C7113 1.370 . S
C7112 C7114 1.363 . S
C7112 H7128 0.931 . S
C7113 C7112 1.370 . S
C7113 C7117 1.408 . S
C7114 C7112 1.363 . S
C7114 C7115 1.370 . S
C7114 C7118 1.524 . S
C7115 C7107 1.503 . S
C7115 C7114 1.370 . S
C7115 C7116 1.403 . S
C7116 C7115 1.403 . S
C7116 C7117 1.404 . S
C7116 C7119 1.539 . S
C7117 C7113 1.408 . S
C7117 C7116 1.404 . S
C7117 H7129 0.930 . S
C7118 C7114 1.524 . S
C7118 H7130 0.956 . S
C7118 H7131 0.961 . S
C7118 H7132 0.961 . S
C7119 C7116 1.539 . S
C7119 H7133 0.958 . S
C7119 H7134 0.961 . S
C7119 H7135 0.960 . S
H7120 C7104 0.931 . S
H7121 C7109 0.929 . S
H7122 C7110 0.960 . S
H7123 C7110 0.962 . S
H7124 C7110 0.966 . S
H7125 C7111 0.958 1_455 S
H7126 C7111 0.965 . S
H7127 C7111 0.961 . S
H7128 C7112 0.931 . S
H7129 C7117 0.930 . S
H7130 C7118 0.956 . S
H7131 C7118 0.961 . S
H7132 C7118 0.961 . S
H7133 C7119 0.958 . S
H7134 C7119 0.961 . S
H7135 C7119 0.960 . S
C7136 C7137 1.391 . S
C7136 C7138 1.394 . S
C7136 H7152 0.931 . S
C7137 C7136 1.391 . S
C7137 C7141 1.376 . S
C7138 C7136 1.394 . S
C7138 C7139 1.369 1_545 S
C7138 C7142 1.531 1_545 S
C7139 C7138 1.369 1_565 S
C7139 C7140 1.410 1_565 S
C7139 C7147 1.503 . S
C7140 C7139 1.410 1_545 S
C7140 C7141 1.392 . S
C7140 C7143 1.511 1_545 S
C7141 C7137 1.376 . S
C7141 C7140 1.392 . S
C7141 H7153 0.929 . S
C7142 C7138 1.531 1_565 S
C7142 H7154 0.960 . S
C7142 H7155 0.962 . S
C7142 H7156 0.960 1_565 S
C7143 C7140 1.511 1_565 S
C7143 H7157 0.961 1_565 S
C7143 H7158 0.961 . S
C7143 H7159 0.961 . S
C7144 C7145 1.370 . S
C7144 C7146 1.363 . S
C7144 H7160 0.931 . S
C7145 C7144 1.370 . S
C7145 C7149 1.408 . S
C7146 C7144 1.363 . S
C7146 C7147 1.370 . S
C7146 C7150 1.524 . S
C7147 C7139 1.503 . S
C7147 C7146 1.370 . S
C7147 C7148 1.403 . S
C7148 C7147 1.403 . S
C7148 C7149 1.404 . S
C7148 C7151 1.539 . S
C7149 C7145 1.408 . S
C7149 C7148 1.404 . S
C7149 H7161 0.930 . S
C7150 C7146 1.524 . S
C7150 H7162 0.956 . S
C7150 H7163 0.961 . S
C7150 H7164 0.961 . S
C7151 C7148 1.539 . S
C7151 H7165 0.958 . S
C7151 H7166 0.961 . S
C7151 H7167 0.960 . S
H7152 C7136 0.931 . S
H7153 C7141 0.929 . S
H7154 C7142 0.960 . S
H7155 C7142 0.962 . S
H7156 C7142 0.960 1_545 S
H7157 C7143 0.961 1_545 S
H7158 C7143 0.961 . S
H7159 C7143 0.961 . S
H7160 C7144 0.931 . S
H7161 C7149 0.930 . S
H7162 C7150 0.956 . S
H7163 C7150 0.961 . S
H7164 C7150 0.961 . S
H7165 C7151 0.958 . S
H7166 C7151 0.961 . S
H7167 C7151 0.960 . S
C7168 C7169 1.391 . S
C7168 C7170 1.394 . S
C7168 H7184 0.931 . S
C7169 C7168 1.391 . S
C7169 C7173 1.376 . S
C7170 C7168 1.394 . S
C7170 C7171 1.369 1_655 S
C7170 C7174 1.531 1_655 S
C7171 C7170 1.369 1_455 S
C7171 C7172 1.410 1_455 S
C7171 C7179 1.503 . S
C7172 C7171 1.410 1_655 S
C7172 C7173 1.392 . S
C7172 C7175 1.487 1_655 S
C7173 C7169 1.376 . S
C7173 C7172 1.392 . S
C7173 H7185 0.929 . S
C7174 C7170 1.531 1_455 S
C7174 H7186 0.960 . S
C7174 H7187 0.962 . S
C7174 H7188 0.960 1_455 S
C7175 C7172 1.487 1_455 S
C7175 H7189 0.929 1_455 S
C7175 H7190 1.017 . S
C7175 H7191 0.965 . S
C7176 C7177 1.370 . S
C7176 C7178 1.363 . S
C7176 H7192 0.931 . S
C7177 C7176 1.370 . S
C7177 C7181 1.408 . S
C7178 C7176 1.363 . S
C7178 C7179 1.370 . S
C7178 C7182 1.524 . S
C7179 C7171 1.503 . S
C7179 C7178 1.370 . S
C7179 C7180 1.403 . S
C7180 C7179 1.403 . S
C7180 C7181 1.404 . S
C7180 C7183 1.539 . S
C7181 C7177 1.408 . S
C7181 C7180 1.404 . S
C7181 H7193 0.930 . S
C7182 C7178 1.524 . S
C7182 H7194 0.956 . S
C7182 H7195 0.961 . S
C7182 H7196 0.961 . S
C7183 C7180 1.539 . S
C7183 H7197 0.958 . S
C7183 H7198 0.961 . S
C7183 H7199 0.960 . S
H7184 C7168 0.931 . S
H7185 C7173 0.929 . S
H7186 C7174 0.960 . S
H7187 C7174 0.962 . S
H7188 C7174 0.960 1_655 S
H7189 C7175 0.929 1_655 S
H7190 C7175 1.017 . S
H7191 C7175 0.965 . S
H7192 C7176 0.931 . S
H7193 C7181 0.930 . S
H7194 C7182 0.956 . S
H7195 C7182 0.961 . S
H7196 C7182 0.961 . S
H7197 C7183 0.958 . S
H7198 C7183 0.961 . S
H7199 C7183 0.960 . S
C7200 C7201 1.391 . S
C7200 C7202 1.394 . S
C7200 H7216 0.931 . S
C7201 C7200 1.391 . S
C7201 C7205 1.376 . S
C7202 C7200 1.394 . S
C7202 C7203 1.369 1_565 S
C7202 C7206 1.531 1_565 S
C7203 C7202 1.369 1_545 S
C7203 C7204 1.410 1_545 S
C7203 C7211 1.503 . S
C7204 C7203 1.410 1_565 S
C7204 C7205 1.392 . S
C7204 C7207 1.511 1_565 S
C7205 C7201 1.376 . S
C7205 C7204 1.392 . S
C7205 H7217 0.929 . S
C7206 C7202 1.531 1_545 S
C7206 H7218 0.960 . S
C7206 H7219 0.962 . S
C7206 H7220 0.960 1_545 S
C7207 C7204 1.511 1_545 S
C7207 H7221 0.961 1_545 S
C7207 H7222 0.961 . S
C7207 H7223 0.961 . S
C7208 C7209 1.370 . S
C7208 C7210 1.363 . S
C7208 H7224 0.931 . S
C7209 C7208 1.370 . S
C7209 C7213 1.408 . S
C7210 C7208 1.363 . S
C7210 C7211 1.370 . S
C7210 C7214 1.524 . S
C7211 C7203 1.503 . S
C7211 C7210 1.370 . S
C7211 C7212 1.403 . S
C7212 C7211 1.403 . S
C7212 C7213 1.404 . S
C7212 C7215 1.539 . S
C7213 C7209 1.408 . S
C7213 C7212 1.404 . S
C7213 H7225 0.930 . S
C7214 C7210 1.524 . S
C7214 H7226 0.956 . S
C7214 H7227 0.961 . S
C7214 H7228 0.961 . S
C7215 C7212 1.539 . S
C7215 H7229 0.958 . S
C7215 H7230 0.961 . S
C7215 H7231 0.960 . S
H7216 C7200 0.931 . S
H7217 C7205 0.929 . S
H7218 C7206 0.960 . S
H7219 C7206 0.962 . S
H7220 C7206 0.960 1_565 S
H7221 C7207 0.961 1_565 S
H7222 C7207 0.961 . S
H7223 C7207 0.961 . S
H7224 C7208 0.931 . S
H7225 C7213 0.930 . S
H7226 C7214 0.956 . S
H7227 C7214 0.961 . S
H7228 C7214 0.961 . S
H7229 C7215 0.958 . S
H7230 C7215 0.961 . S
H7231 C7215 0.960 . S
C7232 C7233 1.391 . S
C7232 C7234 1.394 . S
C7232 H7248 0.931 . S
C7233 C7232 1.391 . S
C7233 C7237 1.376 . S
C7234 C7232 1.394 . S
C7234 C7235 1.369 . S
C7234 C7238 1.531 . S
C7235 C7234 1.369 . S
C7235 C7236 1.410 . S
C7235 C7243 1.503 . S
C7236 C7235 1.410 . S
C7236 C7237 1.392 . S
C7236 C7239 1.511 . S
C7237 C7233 1.376 . S
C7237 C7236 1.392 . S
C7237 H7249 0.929 . S
C7238 C7234 1.531 . S
C7238 H7250 0.960 . S
C7238 H7251 0.962 . S
C7238 H7252 0.960 . S
C7239 C7236 1.511 . S
C7239 H7253 0.961 . S
C7239 H7254 0.961 . S
C7239 H7255 0.961 . S
C7240 C7241 1.370 . S
C7240 C7242 1.363 . S
C7240 H7256 0.931 . S
C7241 C7240 1.370 . S
C7241 C7245 1.408 . S
C7242 C7240 1.363 . S
C7242 C7243 1.370 1_545 S
C7242 C7246 1.524 1_545 S
C7243 C7235 1.503 . S
C7243 C7242 1.370 1_565 S
C7243 C7244 1.403 1_565 S
C7244 C7243 1.403 1_545 S
C7244 C7245 1.404 . S
C7244 C7247 1.539 . S
C7245 C7241 1.408 . S
C7245 C7244 1.404 . S
C7245 H7257 0.930 . S
C7246 C7242 1.524 1_565 S
C7246 H7258 0.956 . S
C7246 H7259 0.961 . S
C7246 H7260 1.004 . S
C7247 C7244 1.539 . S
C7247 H7261 0.959 . S
C7247 H7262 0.961 . S
C7247 H7263 0.960 1_545 S
H7248 C7232 0.931 . S
H7249 C7237 0.929 . S
H7250 C7238 0.960 . S
H7251 C7238 0.962 . S
H7252 C7238 0.960 . S
H7253 C7239 0.961 . S
H7254 C7239 0.961 . S
H7255 C7239 0.961 . S
H7256 C7240 0.931 . S
H7257 C7245 0.930 . S
H7258 C7246 0.956 . S
H7259 C7246 0.961 . S
H7260 C7246 1.004 . S
H7261 C7247 0.959 . S
H7262 C7247 0.961 . S
H7263 C7247 0.960 1_565 S
C7264 C7265 1.391 . S
C7264 C7266 1.394 . S
C7264 H7280 0.931 . S
C7265 C7264 1.391 . S
C7265 C7269 1.376 . S
C7266 C7264 1.394 . S
C7266 C7267 1.369 1_565 S
C7266 C7270 1.531 1_565 S
C7267 C7266 1.369 1_545 S
C7267 C7268 1.410 1_545 S
C7267 C7275 1.503 . S
C7268 C7267 1.410 1_565 S
C7268 C7269 1.392 . S
C7268 C7271 1.503 1_565 S
C7269 C7265 1.376 . S
C7269 C7268 1.392 . S
C7269 H7281 0.929 . S
C7270 C7266 1.531 1_545 S
C7270 H7282 0.960 . S
C7270 H7283 0.962 . S
C7270 H7284 0.967 . S
C7271 C7268 1.503 1_545 S
C7271 H7285 0.947 1_545 S
C7271 H7286 0.980 . S
C7271 H7287 0.964 . S
C7272 C7273 1.370 . S
C7272 C7274 1.363 . S
C7272 H7288 0.931 . S
C7273 C7272 1.370 . S
C7273 C7277 1.408 . S
C7274 C7272 1.363 . S
C7274 C7275 1.370 . S
C7274 C7278 1.524 . S
C7275 C7267 1.503 . S
C7275 C7274 1.370 . S
C7275 C7276 1.403 . S
C7276 C7275 1.403 . S
C7276 C7277 1.404 . S
C7276 C7279 1.539 . S
C7277 C7273 1.408 . S
C7277 C7276 1.404 . S
C7277 H7289 0.930 . S
C7278 C7274 1.524 . S
C7278 H7290 0.956 . S
C7278 H7291 0.961 . S
C7278 H7292 0.961 . S
C7279 C7276 1.539 . S
C7279 H7293 0.958 . S
C7279 H7294 0.961 . S
C7279 H7295 0.960 . S
H7280 C7264 0.931 . S
H7281 C7269 0.929 . S
H7282 C7270 0.960 . S
H7283 C7270 0.962 . S
H7284 C7270 0.967 . S
H7285 C7271 0.947 1_565 S
H7286 C7271 0.980 . S
H7287 C7271 0.964 . S
H7288 C7272 0.931 . S
H7289 C7277 0.930 . S
H7290 C7278 0.956 . S
H7291 C7278 0.961 . S
H7292 C7278 0.961 . S
H7293 C7279 0.958 . S
H7294 C7279 0.961 . S
H7295 C7279 0.960 . S
C7296 C7297 1.391 . S
C7296 C7298 1.394 . S
C7296 H7312 0.931 . S
C7297 C7296 1.391 . S
C7297 C7301 1.376 . S
C7298 C7296 1.394 . S
C7298 C7299 1.369 1_455 S
C7298 C7302 1.508 1_455 S
C7299 C7298 1.369 1_655 S
C7299 C7300 1.410 1_655 S
C7299 C7307 1.503 . S
C7300 C7299 1.410 1_455 S
C7300 C7301 1.392 . S
C7300 C7303 1.511 1_455 S
C7301 C7297 1.376 . S
C7301 C7300 1.392 . S
C7301 H7313 0.929 . S
C7302 C7298 1.508 1_655 S
C7302 H7314 1.005 . S
C7302 H7315 0.977 . S
C7302 H7316 0.926 1_655 S
C7303 C7300 1.511 1_655 S
C7303 H7317 0.948 1_655 S
C7303 H7318 0.961 . S
C7303 H7319 0.961 . S
C7304 C7305 1.370 . S
C7304 C7306 1.363 . S
C7304 H7320 0.931 . S
C7305 C7304 1.370 . S
C7305 C7309 1.408 . S
C7306 C7304 1.363 . S
C7306 C7307 1.370 . S
C7306 C7310 1.524 . S
C7307 C7299 1.503 . S
C7307 C7306 1.370 . S
C7307 C7308 1.403 . S
C7308 C7307 1.403 . S
C7308 C7309 1.404 . S
C7308 C7311 1.539 . S
C7309 C7305 1.408 . S
C7309 C7308 1.404 . S
C7309 H7321 0.930 . S
C7310 C7306 1.524 . S
C7310 H7322 0.956 . S
C7310 H7323 0.961 . S
C7310 H7324 0.961 . S
C7311 C7308 1.539 . S
C7311 H7325 0.958 . S
C7311 H7326 0.961 . S
C7311 H7327 0.960 . S
H7312 C7296 0.931 . S
H7313 C7301 0.929 . S
H7314 C7302 1.005 . S
H7315 C7302 0.977 . S
H7316 C7302 0.926 1_455 S
H7317 C7303 0.948 1_455 S
H7318 C7303 0.961 . S
H7319 C7303 0.961 . S
H7320 C7304 0.931 . S
H7321 C7309 0.930 . S
H7322 C7310 0.956 . S
H7323 C7310 0.961 . S
H7324 C7310 0.961 . S
H7325 C7311 0.958 . S
H7326 C7311 0.961 . S
H7327 C7311 0.960 . S
C7328 C7329 1.391 . S
C7328 C7330 1.394 . S
C7328 H7344 0.931 . S
C7329 C7328 1.391 . S
C7329 C7333 1.376 . S
C7330 C7328 1.394 . S
C7330 C7331 1.369 1_545 S
C7330 C7334 1.514 1_545 S
C7331 C7330 1.369 1_565 S
C7331 C7332 1.410 1_565 S
C7331 C7339 1.503 . S
C7332 C7331 1.410 1_545 S
C7332 C7333 1.392 . S
C7332 C7335 1.511 1_545 S
C7333 C7329 1.376 . S
C7333 C7332 1.392 . S
C7333 H7345 0.929 . S
C7334 C7330 1.514 1_565 S
C7334 H7346 0.996 . S
C7334 H7347 0.969 . S
C7334 H7348 0.935 1_565 S
C7335 C7332 1.511 1_565 S
C7335 H7349 0.962 . S
C7335 H7350 0.961 . S
C7335 H7351 0.961 . S
C7336 C7337 1.370 . S
C7336 C7338 1.363 . S
C7336 H7352 0.931 . S
C7337 C7336 1.370 . S
C7337 C7341 1.408 . S
C7338 C7336 1.363 . S
C7338 C7339 1.370 . S
C7338 C7342 1.524 . S
C7339 C7331 1.503 . S
C7339 C7338 1.370 . S
C7339 C7340 1.403 . S
C7340 C7339 1.403 . S
C7340 C7341 1.404 . S
C7340 C7343 1.539 . S
C7341 C7337 1.408 . S
C7341 C7340 1.404 . S
C7341 H7353 0.930 . S
C7342 C7338 1.524 . S
C7342 H7354 0.956 . S
C7342 H7355 0.961 . S
C7342 H7356 0.961 . S
C7343 C7340 1.539 . S
C7343 H7357 0.958 . S
C7343 H7358 0.961 . S
C7343 H7359 0.960 . S
H7344 C7328 0.931 . S
H7345 C7333 0.929 . S
H7346 C7334 0.996 . S
H7347 C7334 0.969 . S
H7348 C7334 0.935 1_545 S
H7349 C7335 0.962 . S
H7350 C7335 0.961 . S
H7351 C7335 0.961 . S
H7352 C7336 0.931 . S
H7353 C7341 0.930 . S
H7354 C7342 0.956 . S
H7355 C7342 0.961 . S
H7356 C7342 0.961 . S
H7357 C7343 0.958 . S
H7358 C7343 0.961 . S
H7359 C7343 0.960 . S
C7360 C7361 1.391 . S
C7360 C7362 1.394 . S
C7360 H7376 0.931 . S
C7361 C7360 1.391 . S
C7361 C7365 1.376 . S
C7362 C7360 1.394 . S
C7362 C7363 1.369 1_655 S
C7362 C7366 1.531 1_655 S
C7363 C7362 1.369 1_455 S
C7363 C7364 1.410 1_455 S
C7363 C7371 1.503 . S
C7364 C7363 1.410 1_655 S
C7364 C7365 1.392 . S
C7364 C7367 1.504 1_655 S
C7365 C7361 1.376 . S
C7365 C7364 1.392 . S
C7365 H7377 0.929 . S
C7366 C7362 1.531 1_455 S
C7366 H7378 0.960 . S
C7366 H7379 0.962 . S
C7366 H7380 0.967 . S
C7367 C7364 1.504 1_455 S
C7367 H7381 0.949 1_455 S
C7367 H7382 0.978 . S
C7367 H7383 0.963 . S
C7368 C7369 1.370 . S
C7368 C7370 1.363 . S
C7368 H7384 0.931 . S
C7369 C7368 1.370 . S
C7369 C7373 1.408 . S
C7370 C7368 1.363 . S
C7370 C7371 1.370 . S
C7370 C7374 1.524 . S
C7371 C7363 1.503 . S
C7371 C7370 1.370 . S
C7371 C7372 1.403 . S
C7372 C7371 1.403 . S
C7372 C7373 1.404 . S
C7372 C7375 1.539 . S
C7373 C7369 1.408 . S
C7373 C7372 1.404 . S
C7373 H7385 0.930 . S
C7374 C7370 1.524 . S
C7374 H7386 0.956 . S
C7374 H7387 0.961 . S
C7374 H7388 0.961 . S
C7375 C7372 1.539 . S
C7375 H7389 0.958 . S
C7375 H7390 0.961 . S
C7375 H7391 0.960 . S
H7376 C7360 0.931 . S
H7377 C7365 0.929 . S
H7378 C7366 0.960 . S
H7379 C7366 0.962 . S
H7380 C7366 0.967 . S
H7381 C7367 0.949 1_655 S
H7382 C7367 0.978 . S
H7383 C7367 0.963 . S
H7384 C7368 0.931 . S
H7385 C7373 0.930 . S
H7386 C7374 0.956 . S
H7387 C7374 0.961 . S
H7388 C7374 0.961 . S
H7389 C7375 0.958 . S
H7390 C7375 0.961 . S
H7391 C7375 0.960 . S
C7392 C7393 1.391 . S
C7392 C7394 1.394 . S
C7392 H7408 0.931 . S
C7393 C7392 1.391 . S
C7393 C7397 1.376 . S
C7394 C7392 1.394 . S
C7394 C7395 1.369 . S
C7394 C7398 1.531 . S
C7395 C7394 1.369 . S
C7395 C7396 1.410 . S
C7395 C7403 1.503 . S
C7396 C7395 1.410 . S
C7396 C7397 1.392 . S
C7396 C7399 1.511 . S
C7397 C7393 1.376 . S
C7397 C7396 1.392 . S
C7397 H7409 0.929 . S
C7398 C7394 1.531 . S
C7398 H7410 0.960 . S
C7398 H7411 0.962 . S
C7398 H7412 0.960 . S
C7399 C7396 1.511 . S
C7399 H7413 0.961 . S
C7399 H7414 0.961 . S
C7399 H7415 0.961 . S
C7400 C7401 1.370 . S
C7400 C7402 1.363 . S
C7400 H7416 0.931 . S
C7401 C7400 1.370 . S
C7401 C7405 1.408 . S
C7402 C7400 1.363 . S
C7402 C7403 1.370 1_565 S
C7402 C7406 1.524 1_565 S
C7403 C7395 1.503 . S
C7403 C7402 1.370 1_545 S
C7403 C7404 1.403 1_545 S
C7404 C7403 1.403 1_565 S
C7404 C7405 1.404 . S
C7404 C7407 1.539 1_565 S
C7405 C7401 1.408 . S
C7405 C7404 1.404 . S
C7405 H7417 0.930 . S
C7406 C7402 1.524 1_545 S
C7406 H7418 0.956 . S
C7406 H7419 0.961 . S
C7406 H7420 0.961 1_545 S
C7407 C7404 1.539 1_545 S
C7407 H7421 0.958 . S
C7407 H7422 0.961 1_545 S
C7407 H7423 0.960 . S
H7408 C7392 0.931 . S
H7409 C7397 0.929 . S
H7410 C7398 0.960 . S
H7411 C7398 0.962 . S
H7412 C7398 0.960 . S
H7413 C7399 0.961 . S
H7414 C7399 0.961 . S
H7415 C7399 0.961 . S
H7416 C7400 0.931 . S
H7417 C7405 0.930 . S
H7418 C7406 0.956 . S
H7419 C7406 0.961 . S
H7420 C7406 0.961 1_565 S
H7421 C7407 0.958 . S
H7422 C7407 0.961 1_565 S
H7423 C7407 0.960 . S
C7424 C7425 1.391 . S
C7424 C7426 1.394 . S
C7424 H7440 0.931 . S
C7425 C7424 1.391 . S
C7425 C7429 1.376 . S
C7426 C7424 1.394 . S
C7426 C7427 1.369 . S
C7426 C7430 1.531 . S
C7427 C7426 1.369 . S
C7427 C7428 1.410 . S
C7427 C7435 1.503 . S
C7428 C7427 1.410 . S
C7428 C7429 1.392 . S
C7428 C7431 1.511 . S
C7429 C7425 1.376 . S
C7429 C7428 1.392 . S
C7429 H7441 0.929 . S
C7430 C7426 1.531 . S
C7430 H7442 0.960 . S
C7430 H7443 0.962 . S
C7430 H7444 0.960 . S
C7431 C7428 1.511 . S
C7431 H7445 0.961 . S
C7431 H7446 0.961 . S
C7431 H7447 0.961 . S
C7432 C7433 1.370 . S
C7432 C7434 1.363 . S
C7432 H7448 0.931 . S
C7433 C7432 1.370 . S
C7433 C7437 1.408 . S
C7434 C7432 1.363 . S
C7434 C7435 1.370 1_455 S
C7434 C7438 1.524 1_455 S
C7435 C7427 1.503 . S
C7435 C7434 1.370 1_655 S
C7435 C7436 1.403 1_655 S
C7436 C7435 1.403 1_455 S
C7436 C7437 1.404 . S
C7436 C7439 1.557 . S
C7437 C7433 1.408 . S
C7437 C7436 1.404 . S
C7437 H7449 0.930 . S
C7438 C7434 1.524 1_655 S
C7438 H7450 0.956 . S
C7438 H7451 0.961 . S
C7438 H7452 0.957 1_655 S
C7439 C7436 1.557 . S
C7439 H7453 0.951 1_455 S
C7439 H7454 0.993 . S
C7439 H7455 0.920 1_455 S
H7440 C7424 0.931 . S
H7441 C7429 0.929 . S
H7442 C7430 0.960 . S
H7443 C7430 0.962 . S
H7444 C7430 0.960 . S
H7445 C7431 0.961 . S
H7446 C7431 0.961 . S
H7447 C7431 0.961 . S
H7448 C7432 0.931 . S
H7449 C7437 0.930 . S
H7450 C7438 0.956 . S
H7451 C7438 0.961 . S
H7452 C7438 0.957 1_455 S
H7453 C7439 0.951 1_655 S
H7454 C7439 0.993 . S
H7455 C7439 0.920 1_655 S
C7456 C7457 1.391 . S
C7456 C7458 1.394 . S
C7456 H7472 0.931 . S
C7457 C7456 1.391 . S
C7457 C7461 1.376 . S
C7458 C7456 1.394 . S
C7458 C7459 1.369 1_655 S
C7458 C7462 1.531 1_655 S
C7459 C7458 1.369 1_455 S
C7459 C7460 1.410 1_455 S
C7459 C7467 1.503 . S
C7460 C7459 1.410 1_655 S
C7460 C7461 1.392 . S
C7460 C7463 1.496 1_655 S
C7461 C7457 1.376 . S
C7461 C7460 1.392 . S
C7461 H7473 0.929 . S
C7462 C7458 1.531 1_455 S
C7462 H7474 0.960 . S
C7462 H7475 0.962 . S
C7462 H7476 0.960 1_455 S
C7463 C7460 1.496 1_455 S
C7463 H7477 0.940 1_455 S
C7463 H7478 0.997 . S
C7463 H7479 0.963 . S
C7464 C7465 1.370 . S
C7464 C7466 1.363 . S
C7464 H7480 0.931 . S
C7465 C7464 1.370 . S
C7465 C7469 1.408 . S
C7466 C7464 1.363 . S
C7466 C7467 1.370 . S
C7466 C7470 1.524 . S
C7467 C7459 1.503 . S
C7467 C7466 1.370 . S
C7467 C7468 1.403 . S
C7468 C7467 1.403 . S
C7468 C7469 1.404 . S
C7468 C7471 1.539 . S
C7469 C7465 1.408 . S
C7469 C7468 1.404 . S
C7469 H7481 0.930 . S
C7470 C7466 1.524 . S
C7470 H7482 0.956 . S
C7470 H7483 0.961 . S
C7470 H7484 0.961 . S
C7471 C7468 1.539 . S
C7471 H7485 0.958 . S
C7471 H7486 0.961 . S
C7471 H7487 0.960 . S
H7472 C7456 0.931 . S
H7473 C7461 0.929 . S
H7474 C7462 0.960 . S
H7475 C7462 0.962 . S
H7476 C7462 0.960 1_655 S
H7477 C7463 0.940 1_655 S
H7478 C7463 0.997 . S
H7479 C7463 0.963 . S
H7480 C7464 0.931 . S
H7481 C7469 0.930 . S
H7482 C7470 0.956 . S
H7483 C7470 0.961 . S
H7484 C7470 0.961 . S
H7485 C7471 0.958 . S
H7486 C7471 0.961 . S
H7487 C7471 0.960 . S
C1345 C8 1.240 . S
C1353 C442 1.277 . S
C1377 C22 1.274 . S
C1385 C400 1.274 . S
C1409 C414 1.291 . S
C1417 C36 1.238 . S
C1441 C428 1.281 . S
C1449 C50 1.240 . S
C1473 C358 1.280 . S
C1481 C64 1.240 . S
C1505 C372 1.297 . S
C1513 C78 1.240 . S
C1537 C92 1.217 . S
C1545 C386 1.284 . S
C1569 C344 1.265 . S
C1577 C106 1.267 . S
C1601 C120 1.242 . S
C1609 C624 1.277 . S
C1633 C134 1.250 . S
C1641 C582 1.288 . S
C1665 C148 1.244 . S
C1673 C596 1.288 . S
C1697 C162 1.219 . S
C1705 C610 1.283 . S
C1729 C176 1.268 . S
C1737 C666 1.284 . S
C1761 C190 1.268 . S
C1769 C638 1.284 . S
C1793 C204 1.219 . S
C1801 C652 1.283 . S
C1825 C568 1.295 . S
C1833 C218 1.249 . S
C1857 C232 1.284 . S
C1865 C554 1.277 . S
C1889 C470 1.294 . S
C1897 C246 1.251 . S
C1921 C484 1.287 . S
C1929 C260 1.258 . S
C1953 C274 1.284 . S
C1961 C498 1.276 . S
C1985 C456 1.290 . S
C1993 C288 1.256 . S
C2017 C526 1.267 . S
C2025 C302 1.267 . S
C2049 C316 1.257 . S
C2057 C540 1.274 . S
C2081 C330 1.243 . S
C2089 C512 1.288 . S
C2113 C1114 1.266 . S
C2121 C680 1.267 . S
C2145 C1072 1.276 . S
C2153 C694 1.242 . S
C2177 C708 1.272 . S
C2185 C1086 1.273 . S
C2209 C1100 1.297 . S
C2217 C722 1.244 . S
C2241 C736 1.222 . S
C2249 C1030 1.282 . S
C2273 C750 1.264 . S
C2281 C1044 1.274 . S
C2305 C1058 1.297 . S
C2313 C764 1.243 . S
C2337 C1016 1.290 . S
C2345 C778 1.238 . S
C2369 C1296 1.297 . S
C2377 C792 1.243 . S
C2401 C1254 1.268 . S
C2409 C806 1.248 . S
C2433 C820 1.244 . S
C2441 C1268 1.288 . S
C2465 C834 1.248 . S
C2473 C1282 1.288 . S
C2497 C1338 1.264 . S
C2505 C848 1.267 . S
C2529 C1310 1.292 . S
C2537 C862 1.253 . S
C2561 C1324 1.296 . S
C2569 C876 1.247 . S
C2593 C890 1.278 . S
C2601 C1240 1.281 . S
C2625 C1226 1.278 . S
C2633 C904 1.241 . S
C2657 C918 1.221 . S
C2665 C1142 1.289 . S
C2689 C1156 1.262 . S
C2697 C932 1.266 . S
C2721 C1170 1.283 . S
C2729 C946 1.261 . S
C2753 C1128 1.260 . S
C2761 C960 1.265 . S
C2785 C974 1.219 . S
C2793 C1198 1.283 . S
C2817 C988 1.256 . S
C2825 C1212 1.275 . S
C2849 C1184 1.274 . S
C2857 C1002 1.265 . S
C2881 C3 1.928 . S
C2889 C955 1.907 . S
C2913 C17 1.885 . S
C2921 C913 1.916 . S
C2945 C31 1.887 . S
C2953 C927 1.917 . S
C2977 C45 1.931 . S
C2985 C941 1.910 . S
C3009 C997 1.908 . S
C3017 C59 1.922 . S
C3041 C73 1.922 . S
C3049 C969 1.920 . S
C3073 C983 1.920 . S
C3081 C87 1.921 . S
C3105 C101 1.885 . S
C3113 C899 1.916 . S
C3137 C885 1.885 . S
C3145 C115 1.916 . S
C3169 C129 1.887 . S
C3177 C843 1.918 . S
C3201 C857 1.924 . S
C3209 C143 1.905 . S
C3233 C157 1.931 . S
C3241 C871 1.909 . S
C3265 C171 1.905 . S
C3273 C801 1.922 . S
C3297 C185 1.927 . S
C3305 C815 1.906 . S
C3329 C829 1.890 . S
C3337 C199 1.906 . S
C3361 C787 1.918 . S
C3369 C213 1.921 . S
C3393 C227 1.915 . S
C3401 C773 1.903 . S
C3425 C241 1.886 . S
C3433 C689 1.908 . S
C3457 C255 1.920 . S
C3465 C703 1.921 . S
C3489 C269 1.885 . S
C3497 C717 1.916 . S
C3521 C283 1.918 . S
C3529 C675 1.921 . S
C3553 C745 1.887 . S
C3561 C297 1.907 . S
C3585 C759 1.910 . S
C3593 C311 1.902 . S
C3617 C325 1.896 . S
C3625 C731 1.904 . S
C3649 C345 1.054 . S
C3657 C1297 1.073 . S
C3681 C359 1.109 . S
C3689 C1255 1.092 . S
C3713 C373 1.053 . S
C3721 C1269 1.073 . S
C3745 C387 1.070 . S
C3753 C1283 1.086 . S
C3777 C401 1.115 . S
C3785 C1339 1.100 . S
C3809 C1311 1.068 . S
C3817 C415 1.076 . S
C3841 C429 1.113 . S
C3849 C1325 1.095 . S
C3873 C443 1.101 . S
C3881 C1241 1.088 . S
C3905 C1227 1.115 . S
C3913 C457 1.100 . S
C3937 C1185 1.086 . S
C3945 C471 1.093 . S
C3969 C1199 1.114 . S
C3977 C485 1.100 . S
C4001 C1213 1.098 . S
C4009 C499 1.087 . S
C4033 C513 1.055 . S
C4041 C1143 1.078 . S
C4065 C527 1.052 . S
C4073 C1157 1.075 . S
C4097 C541 1.076 . S
C4105 C1171 1.089 . S
C4129 C1129 1.094 . S
C4137 C555 1.085 . S
C4161 C1115 1.109 . S
C4169 C569 1.093 . S
C4193 C583 1.070 . S
C4201 C1031 1.086 . S
C4225 C1045 1.107 . S
C4233 C597 1.099 . S
C4257 C1059 1.052 . S
C4265 C611 1.074 . S
C4289 C625 1.092 . S
C4297 C1017 1.095 . S
C4321 C639 1.054 . S
C4329 C1087 1.077 . S
C4353 C1101 1.105 . S
C4361 C653 1.099 . S
C4385 C667 1.114 . S
C4393 C1073 1.096 . S
C4417 C9 1.492 . S
C4425 C395 1.531 . S
C4449 C23 1.488 . S
C4457 C409 1.530 . S
C4481 C37 1.533 . S
C4489 C423 1.543 . S
C4513 C51 1.518 . S
C4521 C437 1.540 . S
C4545 C339 1.550 . S
C4553 C65 1.520 . S
C4577 C79 1.529 . S
C4585 C353 1.542 . S
C4609 C367 1.549 . S
C4617 C93 1.520 . S
C4641 C381 1.535 . S
C4649 C107 1.509 . S
C4673 C121 1.503 . S
C4681 C535 1.536 . S
C4705 C549 1.542 . S
C4713 C135 1.516 . S
C4737 C149 1.519 . S
C4745 C507 1.540 . S
C4769 C163 1.513 . S
C4777 C521 1.539 . S
C4801 C177 1.523 . S
C4809 C479 1.540 . S
C4833 C191 1.502 . S
C4841 C493 1.535 . S
C4865 C205 1.490 . S
C4873 C451 1.532 . S
C4897 C465 1.513 . S
C4905 C219 1.497 . S
C4929 C233 1.533 . S
C4937 C633 1.543 . S
C4961 C247 1.477 . S
C4969 C605 1.528 . S
C4993 C619 1.550 . S
C5001 C261 1.520 . S
C5025 C275 1.477 . S
C5033 C577 1.528 . S
C5057 C591 1.550 . S
C5065 C289 1.520 . S
C5089 C303 1.530 . S
C5097 C563 1.543 . S
C5121 C661 1.549 . S
C5129 C317 1.519 . S
C5153 C647 1.523 . S
C5161 C331 1.502 . S
C5185 C681 1.526 . S
C5193 C1067 1.542 . S
C5217 C695 1.528 . S
C5225 C1081 1.542 . S
C5249 C709 1.515 . S
C5257 C1095 1.539 . S
C5281 C1109 1.528 . S
C5289 C723 1.505 . S
C5313 C737 1.526 . S
C5321 C1011 1.541 . S
C5345 C751 1.509 . S
C5353 C1025 1.537 . S
C5377 C765 1.533 . S
C5385 C1039 1.543 . S
C5409 C779 1.532 . S
C5417 C1053 1.543 . S
C5441 C793 1.519 . S
C5449 C1207 1.539 . S
C5473 C1221 1.533 . S
C5481 C807 1.511 . S
C5505 C1179 1.513 . S
C5513 C821 1.497 . S
C5537 C1193 1.546 . S
C5545 C835 1.518 . S
C5569 C849 1.519 . S
C5577 C1151 1.540 . S
C5601 C1165 1.550 . S
C5609 C863 1.520 . S
C5633 C877 1.505 . S
C5641 C1123 1.536 . S
C5665 C1137 1.524 . S
C5673 C891 1.505 . S
C5697 C1305 1.525 . S
C5705 C905 1.506 . S
C5729 C1277 1.544 . S
C5737 C919 1.517 . S
C5761 C933 1.513 . S
C5769 C1291 1.539 . S
C5793 C947 1.523 . S
C5801 C1249 1.541 . S
C5825 C1263 1.513 . S
C5833 C961 1.497 . S
C5857 C975 1.476 . S
C5865 C1235 1.528 . S
C5889 C1333 1.549 . S
C5897 C989 1.520 . S
C5921 C1319 1.513 . S
C5929 C1003 1.497 . S
C5953 C371 1.416 . S
C5961 C7 1.414 . S
C5985 C21 1.415 . S
C5993 C385 1.399 . S
C6017 C343 1.387 . S
C6025 C35 1.406 . S
C6049 C49 1.412 . S
C6057 C357 1.397 . S
C6081 C427 1.407 . S
C6089 C63 1.391 . S
C6113 C441 1.367 . S
C6121 C77 1.385 . S
C6145 C91 1.431 . S
C6153 C399 1.416 . S
C6177 C413 1.364 . S
C6185 C105 1.387 . S
C6209 C119 1.400 . S
C6217 C511 1.414 . S
C6241 C133 1.426 . S
C6249 C525 1.417 . S
C6273 C539 1.403 . S
C6281 C147 1.390 . S
C6305 C161 1.430 . S
C6313 C553 1.416 . S
C6337 C175 1.404 . S
C6345 C455 1.394 . S
C6369 C469 1.427 . S
C6377 C189 1.401 . S
C6401 C483 1.409 . S
C6409 C203 1.413 . S
C6433 C497 1.406 . S
C6441 C217 1.391 . S
C6465 C231 1.410 . S
C6473 C609 1.416 . S
C6497 C637 1.365 . S
C6505 C245 1.386 . S
C6529 C259 1.360 . S
C6537 C651 1.393 . S
C6561 C567 1.363 . S
C6569 C273 1.388 . S
C6593 C665 1.424 . S
C6601 C287 1.415 . S
C6625 C581 1.432 . S
C6633 C301 1.414 . S
C6657 C315 1.366 . S
C6665 C595 1.400 . S
C6689 C329 1.383 . S
C6697 C623 1.389 . S
C6721 C679 1.425 . S
C6729 C1043 1.417 . S
C6753 C1057 1.427 . S
C6761 C693 1.415 . S
C6785 C1015 1.404 . S
C6793 C707 1.412 . S
C6817 C1029 1.435 . S
C6825 C721 1.411 . S
C6849 C735 1.433 . S
C6857 C1099 1.414 . S
C6881 C1113 1.423 . S
C6889 C749 1.399 . S
C6913 C763 1.430 . S
C6921 C1071 1.416 . S
C6945 C1085 1.434 . S
C6953 C777 1.412 . S
C6977 C791 1.379 . S
C6985 C1183 1.388 . S
C7009 C1197 1.370 . S
C7017 C805 1.385 . S
C7041 C819 1.364 . S
C7049 C1211 1.398 . S
C7073 C1225 1.416 . S
C7081 C833 1.395 . S
C7105 C1127 1.434 . S
C7113 C847 1.412 . S
C7137 C1141 1.388 . S
C7145 C861 1.386 . S
C7169 C1155 1.414 . S
C7177 C875 1.414 . S
C7201 C1169 1.411 . S
C7209 C889 1.393 . S
C7233 C903 1.406 . S
C7241 C1281 1.395 . S
C7265 C1309 1.435 . S
C7273 C917 1.410 . S
C7297 C1323 1.367 . S
C7305 C931 1.395 . S
C7329 C1239 1.369 . S
C7337 C945 1.385 . S
C7361 C1337 1.435 . S
C7369 C959 1.410 . S
C7393 C973 1.393 . S
C7401 C1253 1.412 . S
C7425 C987 1.387 . S
C7433 C1267 1.389 . S
C7457 C1295 1.419 . S
C7465 C1001 1.415 . S
