# Generated by pormake.
# Topology fob, (5)-cn, num edge types: 1
# Building blocks:
#     Node 0, Type 0, BuildingBlock: BEQFEK_clean_sbu_0, # of connection points: 5
#     Node 1, Type 0, BuildingBlock: BEQFEK_clean_sbu_0, # of connection points: 5
#     Node 2, Type 0, BuildingBlock: BEQFEK_clean_sbu_0, # of connection points: 5
#     Node 3, Type 0, BuildingBlock: BEQFEK_clean_sbu_0, # of connection points: 5
#     Node 4, Type 0, BuildingBlock: BEQFEK_clean_sbu_0, # of connection points: 5
#     Node 5, Type 0, BuildingBlock: BEQFEK_clean_sbu_0, # of connection points: 5
#     Node 6, Type 0, BuildingBlock: BEQFEK_clean_sbu_0, # of connection points: 5
#     Node 7, Type 0, BuildingBlock: BEQFEK_clean_sbu_0, # of connection points: 5
#     Node 8, Type 0, BuildingBlock: BEQFEK_clean_sbu_0, # of connection points: 5
#     Node 9, Type 0, BuildingBlock: BEQFEK_clean_sbu_0, # of connection points: 5
#     Node 10, Type 0, BuildingBlock: BEQFEK_clean_sbu_0, # of connection points: 5
#     Node 11, Type 0, BuildingBlock: BEQFEK_clean_sbu_0, # of connection points: 5
#     Node 12, Type 0, BuildingBlock: BEQFEK_clean_sbu_0, # of connection points: 5
#     Node 13, Type 0, BuildingBlock: BEQFEK_clean_sbu_0, # of connection points: 5
#     Node 14, Type 0, BuildingBlock: BEQFEK_clean_sbu_0, # of connection points: 5
#     Node 15, Type 0, BuildingBlock: BEQFEK_clean_sbu_0, # of connection points: 5
#     Edge 16, Type (0, 0), BuildingBlock: XIVTED_clean_linker_0, # of connection points: 2
#     Edge 17, Type (0, 0), BuildingBlock: XIVTED_clean_linker_0, # of connection points: 2
#     Edge 18, Type (0, 0), BuildingBlock: XIVTED_clean_linker_0, # of connection points: 2
#     Edge 19, Type (0, 0), BuildingBlock: XIVTED_clean_linker_0, # of connection points: 2
#     Edge 20, Type (0, 0), BuildingBlock: XIVTED_clean_linker_0, # of connection points: 2
#     Edge 21, Type (0, 0), BuildingBlock: XIVTED_clean_linker_0, # of connection points: 2
#     Edge 22, Type (0, 0), BuildingBlock: XIVTED_clean_linker_0, # of connection points: 2
#     Edge 23, Type (0, 0), BuildingBlock: XIVTED_clean_linker_0, # of connection points: 2
#     Edge 24, Type (0, 0), BuildingBlock: XIVTED_clean_linker_0, # of connection points: 2
#     Edge 25, Type (0, 0), BuildingBlock: XIVTED_clean_linker_0, # of connection points: 2
#     Edge 26, Type (0, 0), BuildingBlock: XIVTED_clean_linker_0, # of connection points: 2
#     Edge 27, Type (0, 0), BuildingBlock: XIVTED_clean_linker_0, # of connection points: 2
#     Edge 28, Type (0, 0), BuildingBlock: XIVTED_clean_linker_0, # of connection points: 2
#     Edge 29, Type (0, 0), BuildingBlock: XIVTED_clean_linker_0, # of connection points: 2
#     Edge 30, Type (0, 0), BuildingBlock: XIVTED_clean_linker_0, # of connection points: 2
#     Edge 31, Type (0, 0), BuildingBlock: XIVTED_clean_linker_0, # of connection points: 2
#     Edge 32, Type (0, 0), BuildingBlock: XIVTED_clean_linker_0, # of connection points: 2
#     Edge 33, Type (0, 0), BuildingBlock: XIVTED_clean_linker_0, # of connection points: 2
#     Edge 34, Type (0, 0), BuildingBlock: XIVTED_clean_linker_0, # of connection points: 2
#     Edge 35, Type (0, 0), BuildingBlock: XIVTED_clean_linker_0, # of connection points: 2
#     Edge 36, Type (0, 0), BuildingBlock: XIVTED_clean_linker_0, # of connection points: 2
#     Edge 37, Type (0, 0), BuildingBlock: XIVTED_clean_linker_0, # of connection points: 2
#     Edge 38, Type (0, 0), BuildingBlock: XIVTED_clean_linker_0, # of connection points: 2
#     Edge 39, Type (0, 0), BuildingBlock: XIVTED_clean_linker_0, # of connection points: 2
#     Edge 40, Type (0, 0), BuildingBlock: XIVTED_clean_linker_0, # of connection points: 2
#     Edge 41, Type (0, 0), BuildingBlock: XIVTED_clean_linker_0, # of connection points: 2
#     Edge 42, Type (0, 0), BuildingBlock: XIVTED_clean_linker_0, # of connection points: 2
#     Edge 43, Type (0, 0), BuildingBlock: XIVTED_clean_linker_0, # of connection points: 2
#     Edge 44, Type (0, 0), BuildingBlock: XIVTED_clean_linker_0, # of connection points: 2
#     Edge 45, Type (0, 0), BuildingBlock: XIVTED_clean_linker_0, # of connection points: 2
#     Edge 46, Type (0, 0), BuildingBlock: XIVTED_clean_linker_0, # of connection points: 2
#     Edge 47, Type (0, 0), BuildingBlock: XIVTED_clean_linker_0, # of connection points: 2
#     Edge 48, Type (0, 0), BuildingBlock: XIVTED_clean_linker_0, # of connection points: 2
#     Edge 49, Type (0, 0), BuildingBlock: XIVTED_clean_linker_0, # of connection points: 2
#     Edge 50, Type (0, 0), BuildingBlock: XIVTED_clean_linker_0, # of connection points: 2
#     Edge 51, Type (0, 0), BuildingBlock: XIVTED_clean_linker_0, # of connection points: 2
#     Edge 52, Type (0, 0), BuildingBlock: XIVTED_clean_linker_0, # of connection points: 2
#     Edge 53, Type (0, 0), BuildingBlock: XIVTED_clean_linker_0, # of connection points: 2
#     Edge 54, Type (0, 0), BuildingBlock: XIVTED_clean_linker_0, # of connection points: 2
#     Edge 55, Type (0, 0), BuildingBlock: XIVTED_clean_linker_0, # of connection points: 2
# Relax obj value: 0.090
# Max RMSD: 0.161
# Mean RMSD: 0.161
data_MOF--net-fob--node1-BEQFEK_clean_sbu_0--edge1-XIVTED_clean_linker_0
_symmetry_space_group_name_H-M    P1
_symmetry_Int_Tables_number       1
_symmetry_cell_setting            triclinic
loop_
_symmetry_equiv_pos_as_xyz
'x, y, z'
_cell_length_a     19.894772
_cell_length_b     74.816397
_cell_length_c     55.102546
_cell_angle_alpha  89.963827
_cell_angle_beta   90.400835
_cell_angle_gamma 90.059398
loop_
_atom_site_label
_atom_site_type_symbol
_atom_site_fract_x
_atom_site_fract_y
_atom_site_fract_z
_atom_type_partial_charge
Co0 Co 0.147 0.1038 0.4723 0.0
Co1 Co 0.15249 0.14616 0.46886 0.0
C2 C 0.24943 0.12211 0.44213 0.0
O3 O 0.22459 0.10769 0.45067 0.0
O4 O 0.22695 0.13746 0.44815 0.0
C5 C 0.10401 0.06743 0.46629 0.0
O6 O 0.08913 0.073 0.44428 0.0
C7 C 0.20392 0.18306 0.47708 0.0
C8 C 0.11009 0.19852 0.47249 0.0
C9 C 0.17778 0.20033 0.47803 0.0
N10 N 0.15354 0.17169 0.47162 0.0
N11 N 0.09781 0.18107 0.46877 0.0
C12 C 0.27566 0.17744 0.4801 0.0
H13 H 0.28447 0.16445 0.471 0.0
H14 H 0.28739 0.17577 0.49967 0.0
H15 H 0.30986 0.18774 0.47258 0.0
C16 C 0.15899 0.11241 0.52414 0.0
N17 N 0.15524 0.11758 0.50081 0.0
N18 N 0.15461 0.13515 0.49974 0.0
C19 C 0.1563 0.14174 0.52251 0.0
C20 C 0.15966 0.12754 0.53864 0.0
C21 C 0.16378 0.09334 0.53217 0.0
H22 H 0.19864 0.08597 0.52017 0.0
H23 H 0.18196 0.09226 0.55119 0.0
H24 H 0.11342 0.08702 0.53067 0.0
O25 O 0.0668 0.11065 0.4534 0.0
O26 O 0.06953 0.14022 0.45124 0.0
H27 H 0.13108 0.16281 0.54774 0.0
H28 H 0.19736 0.16794 0.5268 0.0
C29 C 0.14835 0.16108 0.52879 0.0
H30 H 0.11137 0.16743 0.51639 0.0
H31 H 0.05103 0.17552 0.46456 0.0
O32 O 0.13315 0.07812 0.48092 0.0
C33 C 0.04217 0.12536 0.44598 0.0
Co34 Co 0.07871 0.10346 0.78069 0.0
Co35 Co 0.06209 0.14565 0.78274 0.0
C36 C 0.94383 0.12102 0.7865 0.0
O37 O 0.98023 0.10706 0.78422 0.0
O38 O 0.96899 0.13672 0.78559 0.0
C39 C 0.07014 0.06681 0.76226 0.0
O40 O 0.0131 0.07173 0.75213 0.0
C41 C 0.0262 0.18392 0.77257 0.0
C42 C 0.11961 0.19694 0.78547 0.0
C43 C 0.05767 0.20049 0.77494 0.0
N44 N 0.06838 0.17122 0.78101 0.0
N45 N 0.12381 0.17918 0.78878 0.0
C46 C 0.95632 0.18029 0.76361 0.0
H47 H 0.93657 0.1678 0.77163 0.0
H48 H 0.95683 0.17872 0.7436 0.0
H49 H 0.9225 0.19158 0.76816 0.0
C50 C 0.14037 0.11312 0.7339 0.0
N51 N 0.11421 0.11775 0.75544 0.0
N52 N 0.10535 0.13518 0.75583 0.0
C53 C 0.12412 0.14208 0.73431 0.0
C54 C 0.14642 0.12828 0.71965 0.0
C55 C 0.15505 0.09436 0.7262 0.0
H56 H 0.18111 0.08712 0.74108 0.0
H57 H 0.10718 0.08743 0.72188 0.0
H58 H 0.18727 0.09413 0.70983 0.0
O59 O 0.11841 0.10977 0.81208 0.0
O60 O 0.10698 0.13923 0.81357 0.0
H61 H 0.14009 0.17014 0.73869 0.0
H62 H 0.1256 0.16348 0.70765 0.0
C63 C 0.11117 0.16098 0.72674 0.0
H64 H 0.05703 0.16397 0.72885 0.0
H65 H 0.16497 0.17242 0.79619 0.0
O66 O 0.10263 0.07795 0.7752 0.0
C67 C 0.12507 0.12454 0.82319 0.0
Co68 Co 0.86175 0.91583 0.52327 0.0
Co69 Co 0.84956 0.87369 0.52854 0.0
C70 C 0.73331 0.89833 0.53823 0.0
O71 O 0.76686 0.91245 0.53337 0.0
O72 O 0.75893 0.88277 0.53618 0.0
C73 C 0.90971 0.95218 0.52871 0.0
O74 O 0.91981 0.94737 0.55137 0.0
C75 C 0.80729 0.83659 0.51765 0.0
C76 C 0.89316 0.82149 0.53291 0.0
C77 C 0.83314 0.8194 0.52031 0.0
N78 N 0.85058 0.84817 0.528 0.0
N79 N 0.90127 0.83902 0.53735 0.0
C80 C 0.74596 0.84226 0.50381 0.0
H81 H 0.74954 0.85659 0.49873 0.0
H82 H 0.73941 0.83396 0.48726 0.0
H83 H 0.70116 0.84047 0.51544 0.0
C84 C 0.89961 0.9049 0.47373 0.0
N85 N 0.88335 0.90084 0.49676 0.0
N86 N 0.88182 0.88335 0.49925 0.0
C87 C 0.89907 0.87574 0.47807 0.0
C88 C 0.91007 0.8891 0.46113 0.0
C89 C 0.89785 0.92347 0.46359 0.0
H90 H 0.94306 0.93085 0.46995 0.0
H91 H 0.85283 0.93058 0.47038 0.0
H92 H 0.89666 0.9235 0.44347 0.0
O93 O 0.91701 0.91004 0.55229 0.0
O94 O 0.90673 0.88063 0.55577 0.0
H95 H 0.93015 0.84972 0.49002 0.0
H96 H 0.93643 0.85317 0.45775 0.0
C97 C 0.90583 0.85604 0.47406 0.0
H98 H 0.8553 0.85009 0.47141 0.0
H99 H 0.94245 0.8448 0.54618 0.0
O100 O 0.88224 0.94116 0.51409 0.0
C101 C 0.92896 0.8955 0.56349 0.0
Co102 Co 0.85561 0.90144 0.21601 0.0
Co103 Co 0.86457 0.85921 0.21538 0.0
C104 C 0.93208 0.8818 0.1777 0.0
O105 O 0.91259 0.89637 0.18741 0.0
O106 O 0.91787 0.86661 0.18688 0.0
C107 C 0.81009 0.93746 0.21135 0.0
O108 O 0.77449 0.93066 0.19343 0.0
C109 C 0.9174 0.82195 0.2181 0.0
C110 C 0.83022 0.80843 0.23468 0.0
C111 C 0.89545 0.80549 0.22701 0.0
N112 N 0.86777 0.83397 0.22102 0.0
N113 N 0.81566 0.8257 0.23064 0.0
C114 C 0.98333 0.82625 0.20656 0.0
H115 H 0.97791 0.83761 0.19384 0.0
H116 H 0.02009 0.83014 0.22084 0.0
H117 H 0.00299 0.81451 0.19657 0.0
C118 C 0.90306 0.89547 0.26603 0.0
N119 N 0.88741 0.88932 0.24375 0.0
N120 N 0.89218 0.87179 0.24358 0.0
C121 C 0.91192 0.86623 0.26575 0.0
C122 C 0.9192 0.88102 0.28072 0.0
C123 C 0.89417 0.91454 0.27359 0.0
H124 H 0.84246 0.91896 0.2689 0.0
H125 H 0.92983 0.92306 0.26337 0.0
H126 H 0.90258 0.91648 0.29331 0.0
O127 O 0.76367 0.89385 0.20789 0.0
O128 O 0.77007 0.8643 0.20717 0.0
H129 H 0.87287 0.8401 0.27264 0.0
H130 H 0.94548 0.84581 0.29097 0.0
C131 C 0.92205 0.84708 0.27272 0.0
H132 H 0.95515 0.84054 0.25933 0.0
H133 H 0.77051 0.83199 0.23499 0.0
O134 O 0.85131 0.92749 0.22274 0.0
C135 C 0.73662 0.87865 0.20457 0.0
Co136 Co 0.09704 0.59441 0.96452 0.0
Co137 Co 0.1065 0.63676 0.96726 0.0
C138 C 0.1969 0.61531 0.93529 0.0
O139 O 0.17126 0.60043 0.94191 0.0
O140 O 0.17756 0.63016 0.9442 0.0
C141 C 0.04526 0.55878 0.9583 0.0
O142 O 0.00979 0.56635 0.94094 0.0
C143 C 0.15745 0.67358 0.97574 0.0
C144 C 0.06194 0.68774 0.98247 0.0
C145 C 0.13085 0.6903 0.98136 0.0
N146 N 0.10638 0.66184 0.97377 0.0
N147 N 0.04953 0.67045 0.97763 0.0
C148 C 0.22981 0.66834 0.97414 0.0
H149 H 0.2356 0.65377 0.97737 0.0
H150 H 0.26048 0.67591 0.98755 0.0
H151 H 0.24843 0.6714 0.95567 0.0
C152 C 0.1076 0.59894 0.0174 0.0
N153 N 0.10813 0.60577 -0.00518 0.0
N154 N 0.11256 0.6233 -0.0039 0.0
C155 C 0.11551 0.6282 0.01957 0.0
C156 C 0.11216 0.61294 0.03378 0.0
C157 C 0.09573 0.5796 0.02294 0.0
H158 H 0.04909 0.57511 0.01363 0.0
H159 H 0.13811 0.57159 0.01581 0.0
H160 H 0.0906 0.57709 0.04267 0.0
O161 O 0.01338 0.60257 0.94895 0.0
O162 O 0.02089 0.63211 0.95067 0.0
H163 H 0.07456 0.65441 0.02371 0.0
H164 H 0.13104 0.64787 0.04799 0.0
C165 C 0.12154 0.64711 0.02816 0.0
H166 H 0.16365 0.65373 0.01868 0.0
H167 H 0.00217 0.66443 0.97731 0.0
O168 O 0.0889 0.56804 0.9697 0.0
C169 C 0.98988 0.618 0.94431 0.0
Co170 Co 0.16372 0.59457 0.27912 0.0
Co171 Co 0.16557 0.63665 0.27702 0.0
C172 C 0.10226 0.61606 0.31821 0.0
O173 O 0.11599 0.60086 0.30907 0.0
O174 O 0.11755 0.63059 0.30744 0.0
C175 C 0.20456 0.55816 0.28399 0.0
O176 O 0.24491 0.56479 0.30069 0.0
C177 C 0.10748 0.67237 0.26833 0.0
C178 C 0.19943 0.68884 0.26603 0.0
C179 C 0.12992 0.68981 0.26424 0.0
N180 N 0.16138 0.66185 0.27207 0.0
N181 N 0.21604 0.67181 0.27088 0.0
C182 C 0.03717 0.66528 0.2674 0.0
H183 H 0.03736 0.65048 0.26607 0.0
H184 H 0.00945 0.67102 0.25169 0.0
H185 H 0.01079 0.66901 0.28433 0.0
C186 C 0.10575 0.59955 0.23062 0.0
N187 N 0.12659 0.60634 0.25194 0.0
N188 N 0.13099 0.62384 0.25013 0.0
C189 C 0.11534 0.62869 0.22722 0.0
C190 C 0.09836 0.61344 0.21421 0.0
C191 C 0.09769 0.58 0.22568 0.0
H192 H 0.07048 0.57359 0.24089 0.0
H193 H 0.06947 0.57761 0.20854 0.0
H194 H 0.14809 0.57374 0.22436 0.0
O195 O 0.25914 0.60115 0.28331 0.0
O196 O 0.26056 0.63074 0.28166 0.0
H197 H 0.13972 0.64622 0.19725 0.0
H198 H 0.08269 0.65525 0.21914 0.0
C199 C 0.1282 0.6469 0.21689 0.0
H200 H 0.17095 0.65337 0.22642 0.0
H201 H 0.26489 0.66693 0.27297 0.0
O202 O 0.16269 0.56843 0.27346 0.0
C203 C 0.29091 0.6159 0.284 0.0
Co204 Co 0.8388 0.40537 0.02243 0.0
Co205 Co 0.83289 0.36293 0.02093 0.0
C206 C 0.71608 0.38561 0.03734 0.0
O207 O 0.74617 0.40041 0.03338 0.0
O208 O 0.74384 0.37059 0.03293 0.0
C209 C 0.91558 0.43726 0.01989 0.0
O210 O 0.96281 0.42622 0.02726 0.0
C211 C 0.79147 0.32586 0.00753 0.0
C212 C 0.88584 0.31136 0.0155 0.0
C213 C 0.82089 0.30896 0.0069 0.0
N214 N 0.83751 0.33763 0.01581 0.0
N215 N 0.8936 0.32881 0.02058 0.0
C216 C 0.72021 0.33066 0.00158 0.0
H217 H 0.70561 0.34321 0.01073 0.0
H218 H 0.71502 0.33272 0.98173 0.0
H219 H 0.68566 0.31975 0.00708 0.0
C220 C 0.8657 0.39952 0.97071 0.0
N221 N 0.85664 0.39312 0.99327 0.0
N222 N 0.85598 0.37554 0.99256 0.0
C223 C 0.86582 0.37019 0.96952 0.0
C224 C 0.87209 0.38521 0.95498 0.0
C225 C 0.85934 0.41886 0.96401 0.0
H226 H 0.90652 0.42591 0.96901 0.0
H227 H 0.81735 0.425 0.97416 0.0
H228 H 0.84992 0.4207 0.94432 0.0
O229 O 0.89772 0.39756 0.04929 0.0
O230 O 0.89579 0.36796 0.04752 0.0
H231 H 0.90038 0.34327 0.97386 0.0
H232 H 0.88716 0.34988 0.94271 0.0
C233 C 0.86771 0.35111 0.96146 0.0
H234 H 0.81625 0.34545 0.96208 0.0
H235 H 0.93745 0.33476 0.02726 0.0
O236 O 0.85581 0.43142 0.01727 0.0
C237 C 0.91546 0.38238 0.05745 0.0
Co238 Co 0.91092 0.4206 0.71175 0.0
Co239 Co 0.92125 0.378 0.71012 0.0
C240 C 0.04099 0.40167 0.70194 0.0
O241 O 0.00764 0.4161 0.70497 0.0
O242 O 0.01377 0.3863 0.70417 0.0
C243 C 0.84629 0.455 0.70716 0.0
O244 O 0.81548 0.44716 0.6889 0.0
C245 C 0.95608 0.3397 0.72052 0.0
C246 C 0.86117 0.32685 0.70883 0.0
C247 C 0.92385 0.32321 0.71869 0.0
N248 N 0.91365 0.35246 0.71243 0.0
N249 N 0.8573 0.3446 0.70537 0.0
C250 C 0.02681 0.34319 0.72867 0.0
H251 H 0.04588 0.35579 0.72072 0.0
H252 H 0.02834 0.34449 0.74871 0.0
H253 H 0.06 0.33194 0.72342 0.0
C254 C 0.86303 0.41184 0.76076 0.0
N255 N 0.88172 0.40673 0.7384 0.0
N256 N 0.88535 0.38917 0.73775 0.0
C257 C 0.86881 0.38257 0.75965 0.0
C258 C 0.85445 0.39673 0.77496 0.0
C259 C 0.85781 0.4309 0.76875 0.0
H260 H 0.8209 0.43795 0.757 0.0
H261 H 0.90729 0.43756 0.76663 0.0
H262 H 0.84131 0.432 0.78788 0.0
O263 O 0.86309 0.41394 0.68164 0.0
O264 O 0.8704 0.38438 0.68087 0.0
H265 H 0.84425 0.35497 0.75468 0.0
H266 H 0.86266 0.3608 0.78576 0.0
C267 C 0.87644 0.36333 0.76662 0.0
H268 H 0.9294 0.35927 0.76404 0.0
H269 H 0.81579 0.35141 0.69833 0.0
O270 O 0.8917 0.44648 0.71877 0.0
C271 C 0.85191 0.39904 0.67133 0.0
Co272 Co 0.55756 0.09546 0.95821 0.0
Co273 Co 0.56806 0.13756 0.95927 0.0
C274 C 0.62375 0.11532 0.91822 0.0
O275 O 0.60612 0.10052 0.92779 0.0
O276 O 0.61274 0.13025 0.92867 0.0
C277 C 0.50345 0.06071 0.95294 0.0
O278 O 0.46904 0.06882 0.93574 0.0
C279 C 0.63128 0.1734 0.96452 0.0
C280 C 0.54057 0.19012 0.96878 0.0
C281 C 0.60998 0.19095 0.96774 0.0
N282 N 0.57667 0.16277 0.96383 0.0
N283 N 0.52278 0.17289 0.96639 0.0
C284 C 0.70145 0.16691 0.96061 0.0
H285 H 0.70093 0.15361 0.9517 0.0
H286 H 0.72748 0.16559 0.97837 0.0
H287 H 0.72993 0.17663 0.94944 0.0
C288 C 0.61985 0.0999 0.00619 0.0
N289 N 0.59931 0.1068 0.9849 0.0
N290 N 0.6009 0.12437 0.98617 0.0
C291 C 0.62072 0.12921 0.00866 0.0
C292 C 0.63363 0.11383 0.02204 0.0
C293 C 0.62244 0.08029 0.01153 0.0
H294 H 0.64534 0.07314 -0.00397 0.0
H295 H 0.65214 0.0775 0.02823 0.0
H296 H 0.57052 0.07517 0.01387 0.0
O297 O 0.46421 0.10391 0.95462 0.0
O298 O 0.47156 0.1334 0.95534 0.0
H299 H 0.61211 0.14815 0.03826 0.0
H300 H 0.66255 0.15532 0.01308 0.0
C301 C 0.61651 0.14792 0.01821 0.0
H302 H 0.57243 0.15485 0.01021 0.0
H303 H 0.47357 0.16804 0.96643 0.0
O304 O 0.5489 0.06937 0.96426 0.0
C305 C 0.43678 0.11922 0.95375 0.0
Co306 Co 0.65357 0.09531 0.27172 0.0
Co307 Co 0.64699 0.13756 0.26995 0.0
C308 C 0.54401 0.11561 0.29625 0.0
O309 O 0.57099 0.10079 0.29029 0.0
O310 O 0.56769 0.13053 0.28908 0.0
C311 C 0.70267 0.05917 0.27719 0.0
O312 O 0.73825 0.06592 0.29514 0.0
C313 C 0.59308 0.17349 0.26063 0.0
C314 C 0.68615 0.18944 0.25732 0.0
C315 C 0.61669 0.1907 0.25628 0.0
N316 N 0.64619 0.16268 0.26408 0.0
N317 N 0.70162 0.17231 0.26224 0.0
C318 C 0.52202 0.16696 0.25946 0.0
H319 H 0.52068 0.1526 0.25442 0.0
H320 H 0.49228 0.17481 0.24609 0.0
H321 H 0.49881 0.16843 0.2776 0.0
C322 C 0.65984 0.10069 0.21885 0.0
N323 N 0.65508 0.10719 0.24152 0.0
N324 N 0.6521 0.12474 0.24058 0.0
C325 C 0.65452 0.12999 0.21721 0.0
C326 C 0.65962 0.11491 0.20273 0.0
C327 C 0.66791 0.08128 0.21297 0.0
H328 H 0.71085 0.07577 0.22351 0.0
H329 H 0.62187 0.07396 0.2184 0.0
H330 H 0.67727 0.07905 0.19339 0.0
O331 O 0.72959 0.10303 0.29226 0.0
O332 O 0.72536 0.13267 0.29078 0.0
H333 H 0.69214 0.15674 0.21574 0.0
H334 H 0.64566 0.1501 0.18891 0.0
C335 C 0.64837 0.14898 0.20895 0.0
H336 H 0.6022 0.15491 0.21663 0.0
H337 H 0.75009 0.16712 0.264 0.0
O338 O 0.66131 0.06912 0.26583 0.0
C339 C 0.75181 0.11829 0.29862 0.0
Co340 Co 0.36709 0.90572 0.02794 0.0
Co341 Co 0.35937 0.86355 0.02536 0.0
C342 C 0.24013 0.8856 0.03888 0.0
O343 O 0.27239 0.90022 0.03621 0.0
O344 O 0.26747 0.8705 0.03477 0.0
C345 C 0.33849 0.94196 0.01305 0.0
O346 O 0.28154 0.93518 0.00507 0.0
C347 C 0.31738 0.82643 0.0144 0.0
C348 C 0.415 0.81239 0.01592 0.0
C349 C 0.34692 0.80968 0.01196 0.0
N350 N 0.36586 0.83838 0.01969 0.0
N351 N 0.424 0.82988 0.02062 0.0
C352 C 0.24541 0.83135 0.01006 0.0
H353 H 0.2418 0.84522 0.00308 0.0
H354 H 0.22138 0.82207 -0.0031 0.0
H355 H 0.21793 0.83062 0.02748 0.0
C356 C 0.41402 0.90032 0.97775 0.0
N357 N 0.39445 0.89386 -0.00063 0.0
N358 N 0.38792 0.8764 -0.00225 0.0
C359 C 0.40093 0.87128 0.9748 0.0
C360 C 0.41775 0.88632 0.96139 0.0
C361 C 0.4284 0.91958 0.97255 0.0
H362 H 0.45525 0.92573 0.98814 0.0
H363 H 0.38037 0.92675 0.96945 0.0
H364 H 0.45976 0.92104 0.95608 0.0
O365 O 0.42113 0.89823 0.05591 0.0
O366 O 0.41681 0.8686 0.05403 0.0
H367 H 0.42883 0.84377 0.97285 0.0
H368 H 0.39099 0.85223 0.94528 0.0
C369 C 0.3895 0.85276 0.96538 0.0
H370 H 0.33996 0.84782 0.97156 0.0
H371 H 0.46998 0.83606 0.02434 0.0
O372 O 0.38008 0.93186 0.02402 0.0
C373 C 0.43582 0.88294 0.06447 0.0
Co374 Co 0.35184 0.91978 0.71648 0.0
Co375 Co 0.35401 0.87746 0.7144 0.0
C376 C 0.42793 0.90073 0.67821 0.0
O377 O 0.41044 0.91537 0.68825 0.0
O378 O 0.41029 0.88557 0.68676 0.0
C379 C 0.30537 0.95476 0.70959 0.0
O380 O 0.28572 0.94736 0.68912 0.0
C381 C 0.40859 0.84056 0.71977 0.0
C382 C 0.31388 0.8251 0.72039 0.0
C383 C 0.38302 0.82328 0.72186 0.0
N384 N 0.3566 0.85196 0.71744 0.0
N385 N 0.3003 0.84258 0.71774 0.0
C386 C 0.48072 0.84614 0.71859 0.0
H387 H 0.48532 0.85937 0.70963 0.0
H388 H 0.50157 0.84728 0.73723 0.0
H389 H 0.51055 0.83601 0.70865 0.0
C390 C 0.39839 0.91229 0.76621 0.0
N391 N 0.38121 0.90668 0.74386 0.0
N392 N 0.37915 0.88909 0.7436 0.0
C393 C 0.39307 0.88296 0.76608 0.0
C394 C 0.40637 0.89746 0.78107 0.0
C395 C 0.4052 0.93155 0.77314 0.0
H396 H 0.43094 0.93899 0.75846 0.0
H397 H 0.43402 0.93311 0.79033 0.0
H398 H 0.35438 0.93739 0.77539 0.0
O399 O 0.26023 0.91261 0.70703 0.0
O400 O 0.2607 0.88308 0.70599 0.0
H401 H 0.34183 0.85771 0.76363 0.0
H402 H 0.37308 0.86293 0.79351 0.0
C403 C 0.38391 0.86392 0.77384 0.0
H404 H 0.43057 0.85636 0.77014 0.0
H405 H 0.25233 0.84812 0.7163 0.0
O406 O 0.34156 0.94566 0.72417 0.0
C407 C 0.23029 0.89786 0.7034 0.0
Co408 Co 0.65889 0.60352 0.45954 0.0
Co409 Co 0.66228 0.64567 0.45403 0.0
C410 C 0.78716 0.62321 0.45104 0.0
O411 O 0.75552 0.60864 0.45493 0.0
O412 O 0.75709 0.63826 0.45066 0.0
C413 C 0.58964 0.57019 0.46137 0.0
O414 O 0.54604 0.57907 0.44804 0.0
C415 C 0.69711 0.68349 0.46339 0.0
C416 C 0.60613 0.69711 0.44948 0.0
C417 C 0.66763 0.70026 0.46065 0.0
N418 N 0.65468 0.67113 0.45432 0.0
N419 N 0.60076 0.67939 0.44583 0.0
C420 C 0.76163 0.67897 0.47609 0.0
H421 H 0.7611 0.66487 0.48235 0.0
H422 H 0.77007 0.68796 0.49183 0.0
H423 H 0.80388 0.68063 0.46324 0.0
C424 C 0.60557 0.61363 0.50699 0.0
N425 N 0.6234 0.61805 0.48429 0.0
N426 N 0.62403 0.63558 0.48223 0.0
C427 C 0.60589 0.64282 0.5036 0.0
C428 C 0.59449 0.62914 0.52004 0.0
C429 C 0.60667 0.59494 0.51677 0.0
H430 H 0.5694 0.58675 0.50668 0.0
H431 H 0.65715 0.58902 0.514 0.0
H432 H 0.59388 0.59449 0.53632 0.0
O433 O 0.61539 0.60798 0.42799 0.0
O434 O 0.61595 0.63752 0.42442 0.0
H435 H 0.58357 0.6701 0.49491 0.0
H436 H 0.58577 0.66543 0.52699 0.0
C437 C 0.60945 0.66235 0.50933 0.0
H438 H 0.66279 0.66657 0.51017 0.0
H439 H 0.55959 0.67287 0.43802 0.0
O440 O 0.64381 0.5779 0.46801 0.0
C441 C 0.60234 0.6221 0.41603 0.0
Co442 Co 0.60844 0.60641 0.7656 0.0
Co443 Co 0.59855 0.64875 0.77059 0.0
C444 C 0.49319 0.62371 0.79056 0.0
O445 O 0.52247 0.6096 0.78298 0.0
O446 O 0.51678 0.6393 0.78646 0.0
C447 C 0.65669 0.5703 0.77066 0.0
O448 O 0.67067 0.57558 0.79286 0.0
C449 C 0.55004 0.6861 0.76298 0.0
C450 C 0.6443 0.70097 0.76984 0.0
C451 C 0.57761 0.70325 0.76317 0.0
N452 N 0.59878 0.67435 0.76887 0.0
N453 N 0.65472 0.68339 0.77309 0.0
C454 C 0.47834 0.68093 0.75846 0.0
H455 H 0.46698 0.66791 0.7671 0.0
H456 H 0.46941 0.67955 0.73867 0.0
H457 H 0.44394 0.69133 0.76555 0.0
C458 C 0.61455 0.61642 0.71417 0.0
N459 N 0.61144 0.62098 0.73772 0.0
N460 N 0.60953 0.63851 0.73958 0.0
C461 C 0.61245 0.64568 0.71718 0.0
C462 C 0.61531 0.63192 0.70043 0.0
C463 C 0.61169 0.59756 0.70515 0.0
H464 H 0.57244 0.59007 0.71513 0.0
H465 H 0.60039 0.59692 0.68543 0.0
H466 H 0.66076 0.591 0.70875 0.0
O467 O 0.67943 0.61301 0.78887 0.0
O468 O 0.67321 0.64247 0.7923 0.0
H469 H 0.6321 0.66792 0.69309 0.0
H470 H 0.56413 0.67106 0.71408 0.0
C471 C 0.61496 0.66529 0.71188 0.0
H472 H 0.6498 0.672 0.72473 0.0
H473 H 0.70047 0.67752 0.7779 0.0
O474 O 0.62624 0.58097 0.75634 0.0
C475 C 0.69925 0.6276 0.79828 0.0
Co476 Co 0.41885 0.41359 0.52397 0.0
Co477 Co 0.42136 0.37146 0.52923 0.0
C478 C 0.34999 0.39549 0.56485 0.0
O479 O 0.36488 0.40975 0.55342 0.0
O480 O 0.36784 0.38012 0.55719 0.0
C481 C 0.45848 0.44981 0.52663 0.0
O482 O 0.48963 0.44373 0.54604 0.0
C483 C 0.36665 0.33467 0.52548 0.0
C484 C 0.46039 0.31885 0.5264 0.0
C485 C 0.39126 0.31727 0.52412 0.0
N486 N 0.41912 0.3459 0.52802 0.0
N487 N 0.47485 0.33632 0.52875 0.0
C488 C 0.29483 0.34059 0.52565 0.0
H489 H 0.29027 0.35375 0.53477 0.0
H490 H 0.27623 0.34207 0.50675 0.0
H491 H 0.26305 0.33053 0.53496 0.0
C492 C 0.37342 0.40388 0.47504 0.0
N493 N 0.38829 0.39926 0.49802 0.0
N494 N 0.39239 0.38173 0.49957 0.0
C495 C 0.38221 0.37465 0.47737 0.0
C496 C 0.36928 0.38846 0.4612 0.0
C497 C 0.3685 0.42277 0.4663 0.0
H498 H 0.33836 0.43074 0.47924 0.0
H499 H 0.3449 0.4235 0.44801 0.0
H500 H 0.41965 0.42867 0.46555 0.0
O501 O 0.51282 0.40759 0.53188 0.0
O502 O 0.51518 0.37809 0.53529 0.0
H503 H 0.41025 0.35424 0.45141 0.0
H504 H 0.35281 0.34722 0.47453 0.0
C505 C 0.39746 0.35563 0.47088 0.0
H506 H 0.44026 0.35065 0.4819 0.0
H507 H 0.52303 0.34173 0.5305 0.0
O508 O 0.42074 0.43927 0.51459 0.0
C509 C 0.54463 0.39316 0.5359 0.0
Co510 Co 0.33114 0.40037 0.21584 0.0
Co511 Co 0.33542 0.35826 0.21301 0.0
C512 C 0.41383 0.38143 0.17888 0.0
O513 O 0.39328 0.3958 0.18877 0.0
O514 O 0.39654 0.36609 0.18681 0.0
C515 C 0.28955 0.43687 0.21314 0.0
O516 O 0.25331 0.431 0.19478 0.0
C517 C 0.39078 0.32185 0.21679 0.0
C518 C 0.29855 0.30613 0.22335 0.0
C519 C 0.36774 0.3046 0.22141 0.0
N520 N 0.3376 0.33291 0.21625 0.0
N521 N 0.28262 0.3234 0.21988 0.0
C522 C 0.46197 0.32818 0.21516 0.0
H523 H 0.46499 0.34275 0.21886 0.0
H524 H 0.49445 0.32081 0.2282 0.0
H525 H 0.48071 0.32575 0.19653 0.0
C526 C 0.3651 0.39259 0.26656 0.0
N527 N 0.35483 0.38713 0.24362 0.0
N528 N 0.35587 0.36955 0.24285 0.0
C529 C 0.3665 0.36324 0.26546 0.0
C530 C 0.37296 0.37764 0.28113 0.0
C531 C 0.35871 0.41164 0.27458 0.0
H532 H 0.30886 0.41686 0.26888 0.0
H533 H 0.39784 0.4198 0.26553 0.0
H534 H 0.36374 0.41315 0.29451 0.0
O535 O 0.24036 0.39385 0.20476 0.0
O536 O 0.24373 0.36428 0.20245 0.0
H537 H 0.32025 0.33741 0.26625 0.0
H538 H 0.37563 0.34176 0.2918 0.0
C539 C 0.36798 0.34383 0.27204 0.0
H540 H 0.40979 0.33726 0.26237 0.0
H541 H 0.23429 0.32879 0.22063 0.0
O542 O 0.32928 0.42617 0.22398 0.0
C543 C 0.21248 0.37898 0.19985 0.0
H544 H 0.14631 0.23342 0.46103 0.0
H545 H 0.42346 0.28429 0.54133 0.0
H546 H 0.28169 0.2066 0.51051 0.0
H547 H 0.2803 0.31125 0.49498 0.0
H548 H 0.37205 0.2557 0.53041 0.0
H549 H 0.19496 0.26205 0.47321 0.0
C550 C 0.18678 0.23352 0.47429 0.0
C551 C 0.21092 0.21749 0.48433 0.0
C552 C 0.35135 0.26789 0.52283 0.0
C553 C 0.26646 0.25031 0.4986 0.0
C554 C 0.38059 0.28422 0.5291 0.0
C555 C 0.3554 0.30025 0.51943 0.0
C556 C 0.29691 0.26751 0.5065 0.0
C557 C 0.30016 0.29935 0.5035 0.0
C558 C 0.21443 0.24989 0.48127 0.0
C559 C 0.263 0.21847 0.50159 0.0
N560 N 0.27298 0.28325 0.49746 0.0
N561 N 0.28901 0.2346 0.50817 0.0
H562 H 0.97573 0.97804 0.55475 0.0
H563 H 0.03745 0.04175 0.44005 0.0
H564 H 0.90528 0.96579 0.48236 0.0
H565 H 0.11387 0.0529 0.51198 0.0
H566 H 0.98949 0.01382 0.45508 0.0
H567 H 0.02541 0.00565 0.53945 0.0
C568 C 0.97032 0.98119 0.53565 0.0
C569 C 0.93615 0.96953 0.51984 0.0
C570 C 0.01698 0.02233 0.46757 0.0
C571 C -0.00642 1.00118 0.50213 0.0
C572 C 0.04463 0.03828 0.45897 0.0
C573 C 0.07977 0.04975 0.47476 0.0
C574 C 0.02423 0.01778 0.49218 0.0
C575 C 0.08726 0.04451 0.49912 0.0
C576 C -0.00101 0.99695 0.5269 0.0
C577 C 0.93103 0.97435 0.49525 0.0
N578 N 0.05951 0.02896 0.50708 0.0
N579 N 0.9595 0.98978 0.48716 0.0
H580 H 0.03156 0.0432 0.72677 0.0
H581 H 0.33257 0.97433 0.75083 0.0
H582 H 0.18277 0.05146 0.7822 0.0
H583 H 0.21027 0.97453 0.68579 0.0
H584 H 0.2747 1.00144 0.76438 0.0
H585 H 0.09103 0.01631 0.71378 0.0
C586 C 0.07688 0.03928 0.73638 0.0
C587 C 0.10215 0.04962 0.75561 0.0
C588 C 0.26093 0.99558 0.74708 0.0
C589 C 0.17087 0.01889 0.7407 0.0
C590 C 0.29408 0.98015 0.73929 0.0
C591 C 0.27636 0.97213 0.71711 0.0
C592 C 0.20919 1.00293 0.73272 0.0
C593 C 0.22583 0.98023 0.70299 0.0
C594 C 0.11112 0.02399 0.72883 0.0
C595 C 0.16145 0.04391 0.76726 0.0
N596 N 0.19379 0.99508 0.71109 0.0
N597 N 0.19376 0.02894 0.75964 0.0
H598 H 0.89422 0.29149 0.69705 0.0
H599 H 0.08533 0.23219 0.79695 0.0
H600 H 0.00266 0.31373 0.75802 0.0
H601 H 0.98113 0.20997 0.73501 0.0
H602 H 0.05475 0.26215 0.78315 0.0
H603 H 0.92496 0.26151 0.71077 0.0
C604 C 0.92515 0.29008 0.7132 0.0
C605 C 0.94706 0.30519 0.7261 0.0
C606 C 0.03803 0.25072 0.77268 0.0
C607 C 0.98174 0.27086 0.74214 0.0
C608 C 0.05537 0.2336 0.78056 0.0
C609 C 0.03456 0.21849 0.76741 0.0
C610 C 3e-05 0.25282 0.75131 0.0
C611 C -0.00363 0.22113 0.74621 0.0
C612 C 0.9426 0.27295 0.72104 0.0
C613 C 0.98648 0.30255 0.74702 0.0
N614 N 0.98042 0.23796 0.73881 0.0
N615 N 0.00243 0.28572 0.7544 0.0
H616 H 0.90765 0.79149 0.50422 0.0
H617 H 0.59202 0.72808 0.47672 0.0
H618 H 0.70197 0.80779 0.51479 0.0
H619 H 0.79757 0.71319 0.4627 0.0
H620 H 0.63088 0.75739 0.49047 0.0
H621 H 0.86795 0.76267 0.4892 0.0
C622 C 0.85402 0.78904 0.50326 0.0
C623 C 0.80806 0.80221 0.51044 0.0
C624 C 0.66753 0.74768 0.48451 0.0
C625 C 0.76212 0.76912 0.49333 0.0
C626 C 0.64541 0.73094 0.47662 0.0
C627 C 0.69173 0.71797 0.46907 0.0
C628 C 0.73657 0.75156 0.48471 0.0
C629 C 0.76019 0.72247 0.46917 0.0
C630 C 0.83139 0.77258 0.49462 0.0
C631 C 0.7392 0.79827 0.50884 0.0
N632 N 0.78052 0.73887 0.47693 0.0
N633 N 0.71832 0.78206 0.5005 0.0
H634 H 0.72181 0.9619 0.19238 0.0
H635 H 0.79117 0.03475 0.29609 0.0
H636 H 0.86695 0.95486 0.25021 0.0
H637 H 0.6458 0.04176 0.23832 0.0
H638 H 0.81883 0.00535 0.27976 0.0
H639 H 0.69422 0.99131 0.20867 0.0
C640 C 0.74825 0.96657 0.20841 0.0
C641 C 0.79677 0.95586 0.21994 0.0
C642 C 0.78074 0.01329 0.27069 0.0
C643 C 0.76493 0.98952 0.23884 0.0
C644 C 0.76471 0.03008 0.28006 0.0
C645 C 0.71611 0.04078 0.26856 0.0
C646 C 0.74804 0.00714 0.24962 0.0
C647 C 0.6836 0.03399 0.24781 0.0
C648 C 0.73226 0.98337 0.21776 0.0
C649 C 0.82925 0.96264 0.2407 0.0
N650 N 0.7003 0.01764 0.23897 0.0
N651 N 0.81259 0.97901 0.24951 0.0
H652 H 0.03206 0.79966 0.23376 0.0
H653 H -0.00401 0.69879 0.27306 0.0
H654 H 0.84152 0.77208 0.22937 0.0
H655 H 0.17884 0.71935 0.24159 0.0
H656 H 0.939 0.72634 0.26168 0.0
H657 H 0.08771 0.77119 0.24092 0.0
C658 C 0.00189 0.78766 0.23353 0.0
C659 C 0.93194 0.78832 0.23007 0.0
C660 C 0.99144 0.72466 0.25706 0.0
C661 C -0.00457 0.7557 0.23981 0.0
C662 C 0.0241 0.70877 0.26331 0.0
C663 C 0.0923 0.70634 0.25773 0.0
C664 C 0.02755 0.73842 0.24575 0.0
C665 C 0.12625 0.72048 0.24623 0.0
C666 C 0.03381 0.77138 0.23802 0.0
C667 C 0.89559 0.77224 0.23169 0.0
N668 N 0.09369 0.73591 0.24075 0.0
N669 N 0.92766 0.7566 0.23658 0.0
H670 H 0.39772 0.78238 0.98504 0.0
H671 H 0.08922 0.71662 0.0116 0.0
H672 H 0.22549 0.79683 0.02786 0.0
H673 H 0.24871 0.70373 0.96192 0.0
H674 H 0.14128 0.74562 0.01888 0.0
H675 H 0.34709 0.75302 0.97761 0.0
C676 C 0.34899 0.77941 0.99272 0.0
C677 C 0.31508 0.79221 0.00664 0.0
C678 C 0.16523 0.73642 0.0065 0.0
C679 C 0.25724 0.7586 -0.00152 0.0
C680 C 0.13552 0.71982 0.00232 0.0
C681 C 0.16516 0.70752 0.98643 0.0
C682 C 0.22509 0.74089 -0.00538 0.0
C683 C 0.22506 0.71248 0.97489 0.0
C684 C 0.32012 0.76267 0.98846 0.0
C685 C 0.25244 0.78762 0.01637 0.0
N686 N 0.25306 0.72879 0.97922 0.0
N687 N 0.22562 0.77119 0.01212 0.0
H688 H 0.03206 0.45536 0.02956 0.0
H689 H 0.94274 0.53737 0.94223 0.0
H690 H 0.84145 0.46079 0.99243 0.0
H691 H 0.10865 0.53843 0.99314 0.0
H692 H 0.91028 0.50809 0.95781 0.0
H693 H 0.06518 0.48477 0.01438 0.0
C694 C -0.00302 0.46279 0.01832 0.0
C695 C 0.9338 0.45561 0.01229 0.0
C696 C 0.95385 0.51471 0.96555 0.0
C697 C 0.97185 0.4892 -0.00542 0.0
C698 C 0.97274 0.5314 0.95656 0.0
C699 C 0.0286 0.54041 0.96638 0.0
C700 C 0.9913 0.50684 0.9844 0.0
C701 C 0.06528 0.53199 0.98501 0.0
C702 C 0.01598 0.47957 0.00966 0.0
C703 C 0.89046 0.46584 -0.00234 0.0
N704 N 0.04602 0.51567 0.9934 0.0
N705 N 0.91047 0.48206 0.98917 0.0
H706 H 0.2939 0.53305 0.30058 0.0
H707 H 0.20204 0.46234 0.19643 0.0
H708 H 0.13721 0.54116 0.24709 0.0
H709 H 0.35147 0.4528 0.25215 0.0
H710 H 0.17913 0.4915 0.21438 0.0
H711 H 0.31547 0.50357 0.28329 0.0
C712 C 0.26364 0.52859 0.28533 0.0
C713 C 0.21379 0.53964 0.27524 0.0
C714 C 0.21703 0.48305 0.22266 0.0
C715 C 0.23874 0.50595 0.25519 0.0
C716 C 0.23038 0.46641 0.21235 0.0
C717 C 0.27876 0.45508 0.22279 0.0
C718 C 0.25233 0.48844 0.24358 0.0
C719 C 0.31375 0.46108 0.24347 0.0
C720 C 0.27617 0.51177 0.27541 0.0
C721 C 0.17623 0.53313 0.25545 0.0
N722 N 0.29976 0.47734 0.2532 0.0
N723 N 0.1897 0.51676 0.24602 0.0
H724 H 0.7298 0.19619 0.99207 0.0
H725 H 0.72696 0.30208 0.9709 0.0
H726 H 0.57782 0.22377 0.9503 0.0
H727 H 0.85223 0.27595 0.02441 0.0
H728 H 0.68057 0.2731 0.95942 0.0
H729 H 0.78576 0.22482 -0.00032 0.0
C730 C 0.70912 0.20819 0.984 0.0
C731 C 0.64949 0.20759 0.9703 0.0
C732 C 0.71795 0.27372 0.97378 0.0
C733 C 0.71218 0.24041 0.97943 0.0
C734 C 0.74381 0.29034 0.98061 0.0
C735 C 0.79191 0.29157 -0.00073 0.0
C736 C 0.74095 0.25817 0.98545 0.0
C737 C 0.81459 0.27566 0.01013 0.0
C738 C 0.74058 0.22456 0.98862 0.0
C739 C 0.62372 0.22366 0.96097 0.0
N740 N 0.78871 0.25964 0.00316 0.0
N741 N 0.65511 0.2394 0.96573 0.0
H742 H 0.73427 0.54599 0.79527 0.0
H743 H 0.76022 0.47781 0.68385 0.0
H744 H 0.63972 0.55511 0.72561 0.0
H745 H 0.87699 0.47248 0.74977 0.0
H746 H 0.71357 0.50572 0.6992 0.0
H747 H 0.78306 0.51841 0.77957 0.0
C748 C 0.72334 0.54215 0.77671 0.0
C749 C 0.68266 0.55292 0.76176 0.0
C750 C 0.74964 0.49852 0.71028 0.0
C751 C 0.73896 0.52132 0.7436 0.0
C752 C 0.77645 0.48256 0.70151 0.0
C753 C 0.82263 0.47274 0.71554 0.0
C754 C 0.76859 0.50471 0.73338 0.0
C755 C 0.84172 0.47962 0.73828 0.0
C756 C 0.75158 0.52642 0.76772 0.0
C757 C 0.67063 0.54725 0.73783 0.0
N758 N 0.81432 0.49511 0.74655 0.0
N759 N 0.69863 0.53185 0.72951 0.0
H760 H 0.56115 0.04003 0.98862 0.0
H761 H 0.27362 0.96509 0.98223 0.0
H762 H 0.39822 0.04045 0.93644 0.0
H763 H 0.45237 0.96012 0.02659 0.0
H764 H 0.31497 0.99379 0.9673 0.0
H765 H 0.52001 0.01141 0.00414 0.0
C766 C 0.51708 0.03405 0.98029 0.0
C767 C 0.48313 0.04267 0.96118 0.0
C768 C 0.34505 0.98645 0.98037 0.0
C769 C 0.43526 0.01004 0.97908 0.0
C770 C 0.32123 0.9701 0.98903 0.0
C771 C 0.35956 0.96015 0.00569 0.0
C772 C 0.40756 0.99297 0.98848 0.0
C773 C 0.42112 0.96731 0.01374 0.0
C774 C 0.49349 0.01774 0.98921 0.0
C775 C 0.42612 0.0343 0.95117 0.0
N776 N 0.44323 0.98326 0.00504 0.0
N777 N 0.40384 0.01852 0.96031 0.0
H778 H 0.48656 0.29343 0.20058 0.0
H779 H 0.49564 0.20148 0.27507 0.0
H780 H 0.33499 0.27748 0.25191 0.0
H781 H 0.65226 0.21788 0.22607 0.0
H782 H 0.43485 0.22899 0.26593 0.0
H783 H 0.54757 0.26578 0.20911 0.0
C784 C 0.46661 0.28429 0.21393 0.0
C785 C 0.40628 0.28799 0.22595 0.0
C786 C 0.48231 0.22654 0.25703 0.0
C787 C 0.47486 0.25604 0.23528 0.0
C788 C 0.5167 0.21071 0.26205 0.0
C789 C 0.57836 0.20718 0.25087 0.0
C790 C 0.50995 0.23901 0.24083 0.0
C791 C 0.60461 0.22004 0.23497 0.0
C792 C 0.50114 0.26839 0.2186 0.0
C793 C 0.38146 0.27522 0.24228 0.0
N794 N 0.57019 0.23536 0.23035 0.0
N795 N 0.4159 0.25987 0.24651 0.0
H796 H 0.49644 0.81655 0.74946 0.0
H797 H 0.47788 0.71062 0.72942 0.0
H798 H 0.34678 0.79063 0.70468 0.0
H799 H 0.61051 0.73594 0.78133 0.0
H800 H 0.43322 0.73989 0.71847 0.0
H801 H 0.54512 0.78735 0.7588 0.0
C802 C 0.47477 0.80479 0.74111 0.0
C803 C 0.41809 0.80608 0.72593 0.0
C804 C 0.4717 0.73903 0.73242 0.0
C805 C 0.47226 0.77251 0.73716 0.0
C806 C 0.49658 0.72224 0.73897 0.0
C807 C 0.54678 0.72071 0.75686 0.0
C808 C 0.49768 0.75446 0.74363 0.0
C809 C 0.5714 0.73646 0.76759 0.0
C810 C 0.50201 0.78806 0.74674 0.0
C811 C 0.39062 0.79025 0.71642 0.0
N812 N 0.54659 0.75265 0.76085 0.0
N813 N 0.4179 0.77415 0.72218 0.0
H814 H 0.65431 0.5506 0.49655 0.0
H815 H 0.40318 0.46708 0.48725 0.0
H816 H 0.48499 0.54876 0.4472 0.0
H817 H 0.54903 0.47389 0.5449 0.0
H818 H 0.43533 0.49631 0.47101 0.0
H819 H 0.62071 0.52154 0.51281 0.0
C820 C 0.61037 0.54403 0.489 0.0
C821 C 0.57246 0.55213 0.47046 0.0
C822 C 0.46002 0.49143 0.48729 0.0
C823 C 0.53345 0.51889 0.48909 0.0
C824 C 0.44159 0.47476 0.49659 0.0
C825 C 0.4734 0.46801 0.51749 0.0
C826 C 0.51102 0.50136 0.49883 0.0
C827 C 0.52302 0.47855 0.52878 0.0
C828 C 0.59096 0.52748 0.49839 0.0
C829 C 0.51568 0.54303 0.46151 0.0
N830 N 0.5405 0.49463 0.51924 0.0
N831 N 0.49795 0.5269 0.47088 0.0
H832 H 0.31004 0.14973 0.41809 0.0
H833 H 0.49052 0.08705 0.32088 0.0
H834 H 0.29952 0.09206 0.42012 0.0
H835 H 0.47938 0.14458 0.31533 0.0
H836 H 0.42046 0.08835 0.35708 0.0
H837 H 0.37684 0.14785 0.38133 0.0
C838 C 0.3224 0.13665 0.411 0.0
C839 C 0.29873 0.12103 0.42221 0.0
C840 C 0.4329 0.10066 0.34779 0.0
C841 C 0.37457 0.11881 0.37979 0.0
C842 C 0.47248 0.09993 0.32699 0.0
C843 C 0.4914 0.11575 0.3151 0.0
C844 C 0.41237 0.11732 0.35681 0.0
C845 C 0.46652 0.13204 0.32394 0.0
C846 C 0.36015 0.13559 0.38985 0.0
C847 C 0.31657 0.10446 0.41212 0.0
N848 N 0.42887 0.1324 0.34437 0.0
N849 N 0.35315 0.10379 0.39141 0.0
H850 H 0.81314 0.09064 0.32256 0.0
H851 H 0.98494 0.15367 0.42204 0.0
H852 H 0.80227 0.14831 0.32058 0.0
H853 H 0.97957 0.09602 0.42668 0.0
H854 H 0.91615 0.15214 0.3853 0.0
H855 H 0.87832 0.09253 0.36 0.0
C856 C 0.8252 0.10372 0.32979 0.0
C857 C 0.80165 0.11934 0.31849 0.0
C858 C 0.92955 0.13984 0.3945 0.0
C859 C 0.8753 0.12157 0.36162 0.0
C860 C 0.96834 0.1407 0.41561 0.0
C861 C 0.9888 0.12493 0.42731 0.0
C862 C 0.91134 0.1231 0.38503 0.0
C863 C 0.96557 0.10852 0.41817 0.0
C864 C 0.86192 0.10478 0.35132 0.0
C865 C 0.8191 0.13591 0.32871 0.0
N866 N 0.92869 0.10803 0.3974 0.0
N867 N 0.85453 0.13658 0.34981 0.0
H868 H 0.15459 0.15333 0.85214 0.0
H869 H 0.34686 0.09201 0.94614 0.0
H870 H 0.15471 0.09558 0.85146 0.0
H871 H 0.36517 0.14951 0.94325 0.0
H872 H 0.24716 0.0939 0.9204 0.0
H873 H 0.20525 0.15269 0.89263 0.0
C874 C 0.16491 0.14052 0.86054 0.0
C875 C 0.1522 0.12449 0.84813 0.0
C876 C 0.27213 0.10614 0.92583 0.0
C877 C 0.20929 0.12367 0.89447 0.0
C878 C 0.32897 0.10508 0.94063 0.0
C879 C 0.36603 0.12057 0.94593 0.0
C880 C 0.25303 0.12276 0.91616 0.0
C881 C 0.33937 0.13716 0.9389 0.0
C882 C 0.19334 0.14017 0.88372 0.0
C883 C 0.16526 0.10828 0.86009 0.0
N884 N 0.28542 0.1378 0.92376 0.0
N885 N 0.19389 0.1083 0.88246 0.0
H886 H 0.85069 0.14731 0.79453 0.0
H887 H 0.66344 0.08637 0.89129 0.0
H888 H 0.88013 0.09031 0.80104 0.0
H889 H 0.65812 0.14408 0.89018 0.0
H890 H 0.7222 0.08676 0.85249 0.0
H891 H 0.75636 0.14519 0.82232 0.0
C892 C 0.83632 0.13426 0.80127 0.0
C893 C 0.87484 0.11904 0.796 0.0
C894 C 0.70755 0.09932 0.86064 0.0
C895 C 0.76761 0.11662 0.82823 0.0
C896 C 0.67427 0.09912 0.88286 0.0
C897 C 0.65682 0.11523 0.89425 0.0
C898 C 0.72341 0.11574 0.84972 0.0
C899 C 0.67148 0.13133 0.8823 0.0
C900 C 0.78265 0.13309 0.81731 0.0
C901 C 0.85284 0.10247 0.80496 0.0
N902 N 0.70437 0.13117 0.8608 0.0
N903 N 0.8016 0.10175 0.8211 0.0
H904 H 0.47626 0.93017 0.6541 0.0
H905 H 0.64425 0.87176 0.54961 0.0
H906 H 0.46433 0.87261 0.64941 0.0
H907 H 0.67774 0.92846 0.55815 0.0
H908 H 0.5596 0.87302 0.58131 0.0
H909 H 0.5356 0.93065 0.6154 0.0
C910 C 0.48617 0.91763 0.64499 0.0
C911 C 0.46583 0.9013 0.6552 0.0
C912 C 0.58471 0.88525 0.576 0.0
C913 C 0.53285 0.90181 0.61072 0.0
C914 C 0.63274 0.88457 0.55773 0.0
C915 C 0.6693 0.89996 0.55155 0.0
C916 C 0.5733 0.9014 0.58824 0.0
C917 C 0.65145 0.91621 0.56251 0.0
C918 C 0.51971 0.91793 0.62282 0.0
C919 C 0.47955 0.88551 0.64241 0.0
N920 N 0.60557 0.91645 0.58066 0.0
N921 N 0.51233 0.88616 0.62091 0.0
H922 H 0.15687 0.92693 0.68876 0.0
H923 H 0.95794 0.86726 0.59314 0.0
H924 H 0.15367 0.86918 0.68958 0.0
H925 H 0.97754 0.92468 0.58814 0.0
H926 H 0.01149 0.86816 0.63292 0.0
H927 H 0.06894 0.92668 0.65778 0.0
C928 C 0.13656 0.91419 0.68289 0.0
C929 C 0.16426 0.89802 0.69115 0.0
C930 C 0.00381 0.88057 0.62318 0.0
C931 C 0.06459 0.89769 0.65551 0.0
C932 C 0.97372 0.88007 0.60035 0.0
C933 C 0.96411 0.89591 0.5871 0.0
C934 C 0.02481 0.89701 0.63284 0.0
C935 C 0.98474 0.91212 0.59756 0.0
C936 C 0.08665 0.91408 0.66506 0.0
C937 C 0.135 0.88196 0.68326 0.0
N938 N 0.01458 0.91223 0.61978 0.0
N939 N 0.08766 0.8822 0.66546 0.0
H940 H 0.67103 0.84913 0.1868 0.0
H941 H 0.46747 0.91047 0.09499 0.0
H942 H 0.65199 0.90641 0.19387 0.0
H943 H 0.48073 0.85303 0.08843 0.0
H944 H 0.52098 0.90858 0.13469 0.0
H945 H 0.58331 0.8495 0.15572 0.0
C946 C 0.64721 0.86174 0.18232 0.0
C947 C 0.67046 0.87786 0.19237 0.0
C948 C 0.51192 0.89636 0.12466 0.0
C949 C 0.57113 0.87837 0.15653 0.0
C950 C 0.48192 0.89744 0.10183 0.0
C951 C 0.47054 0.8819 0.08816 0.0
C952 C 0.53133 0.87964 0.13386 0.0
C953 C 0.48929 0.86538 0.09821 0.0
C954 C 0.59742 0.86194 0.16441 0.0
C955 C 0.63691 0.89371 0.18614 0.0
N956 N 0.51933 0.8647 0.12039 0.0
N957 N 0.58992 0.89362 0.16821 0.0
H958 H 0.9713 0.85369 0.14935 0.0
H959 H 0.17235 0.91473 0.05648 0.0
H960 H 0.97499 0.91138 0.15268 0.0
H961 H 0.16113 0.85716 0.05177 0.0
H962 H 0.08586 0.91413 0.08761 0.0
H963 H 0.03006 0.855 0.11076 0.0
C964 C 0.98457 0.86665 0.14202 0.0
C965 C 0.96884 0.88245 0.15447 0.0
C966 C 0.10151 0.90165 0.07947 0.0
C967 C 0.03579 0.88403 0.11006 0.0
C968 C 0.15062 0.90198 0.06153 0.0
C969 C 0.17536 0.88593 0.05189 0.0
C970 C 0.07725 0.88516 0.08788 0.0
C971 C 0.14462 0.86986 0.05899 0.0
C972 C 0.01773 0.86739 0.11985 0.0
C973 C 0.98662 0.89884 0.14386 0.0
N974 N 0.09811 0.86986 0.07689 0.0
N975 N 0.01957 0.8992 0.12235 0.0
H976 H 0.24493 0.58697 0.90882 0.0
H977 H 0.41793 0.65044 0.8105 0.0
H978 H 0.25312 0.64458 0.91371 0.0
H979 H 0.44282 0.59308 0.81109 0.0
H980 H 0.34429 0.64798 0.84544 0.0
H981 H 0.30944 0.58851 0.87124 0.0
C982 C 0.26088 0.59992 0.90219 0.0
C983 C 0.24348 0.61567 0.91449 0.0
C984 C 0.36543 0.63591 0.83782 0.0
C985 C 0.31598 0.61751 0.87127 0.0
C986 C 0.4071 0.63728 0.81771 0.0
C987 C 0.43745 0.62196 0.80801 0.0
C988 C 0.3539 0.6191 0.84836 0.0
C989 C 0.42094 0.60527 0.81805 0.0
C990 C 0.29727 0.60078 0.88064 0.0
C991 C 0.26527 0.63207 0.90492 0.0
N992 N 0.38082 0.6043 0.83787 0.0
N993 N 0.30001 0.63255 0.88384 0.0
H994 H 0.74511 0.65554 0.82593 0.0
H995 H 0.9158 0.59104 0.92384 0.0
H996 H 0.75607 0.59806 0.81911 0.0
H997 H 0.93439 0.64858 0.92573 0.0
H998 H 0.84202 0.59368 0.88862 0.0
H999 H 0.80577 0.65348 0.86447 0.0
C1000 C 0.76099 0.64251 0.83235 0.0
C1001 C 0.74528 0.62693 0.81929 0.0
C1002 C 0.86179 0.60573 0.89688 0.0
C1003 C 0.81326 0.6245 0.86354 0.0
C1004 C 0.90349 0.60425 0.91714 0.0
C1005 C 0.9326 0.61958 0.9274 0.0
C1006 C 0.84916 0.62266 0.88688 0.0
C1007 C 0.91393 0.63637 0.91815 0.0
C1008 C 0.79504 0.64134 0.85445 0.0
C1009 C 0.76689 0.61042 0.82855 0.0
N1010 N 0.87407 0.63745 0.89815 0.0
N1011 N 0.79947 0.60964 0.85019 0.0
H1012 H 0.37446 0.64472 0.28971 0.0
H1013 H 0.57238 0.59149 0.39104 0.0
H1014 H 0.36771 0.58734 0.29822 0.0
H1015 H 0.56878 0.64905 0.38463 0.0
H1016 H 0.52093 0.5892 0.3509 0.0
H1017 H 0.47216 0.64572 0.31652 0.0
C1018 C 0.39453 0.63226 0.29669 0.0
C1019 C 0.36119 0.616 0.29258 0.0
C1020 C 0.53209 0.60233 0.35817 0.0
C1021 C 0.47195 0.61711 0.32356 0.0
C1022 C 0.56094 0.60366 0.38118 0.0
C1023 C 0.57338 0.62051 0.39146 0.0
C1024 C 0.51508 0.61795 0.34543 0.0
C1025 C 0.55883 0.63579 0.37763 0.0
C1026 C 0.4502 0.63286 0.31211 0.0
C1027 C 0.39055 0.60026 0.30154 0.0
N1028 N 0.52963 0.63414 0.35544 0.0
N1029 N 0.4433 0.60125 0.31719 0.0
H1030 H 0.87012 0.65102 0.43883 0.0
H1031 H 0.06682 0.58815 0.34772 0.0
H1032 H 0.86101 0.59334 0.44035 0.0
H1033 H 0.06519 0.64582 0.34378 0.0
H1034 H 0.01045 0.58981 0.38682 0.0
H1035 H 0.9638 0.64925 0.4107 0.0
C1036 C 0.88889 0.63796 0.43378 0.0
C1037 C 0.85613 0.6223 0.44134 0.0
C1038 C 0.02297 0.6021 0.3775 0.0
C1039 C 0.96247 0.62023 0.40878 0.0
C1040 C 0.05477 0.60117 0.35507 0.0
C1041 C 0.0697 0.61687 0.34221 0.0
C1042 C 0.00566 0.61884 0.38711 0.0
C1043 C 0.05381 0.63336 0.35286 0.0
C1044 C 0.94217 0.63697 0.41755 0.0
C1045 C 0.88363 0.60578 0.43456 0.0
N1046 N 0.02207 0.6339 0.37457 0.0
N1047 N 0.93424 0.60518 0.41819 0.0
H1048 H 0.45794 0.41159 0.15561 0.0
H1049 H 0.63793 0.35698 0.05006 0.0
H1050 H 0.4588 0.35397 0.15044 0.0
H1051 H 0.65361 0.41425 0.05851 0.0
H1052 H 0.55593 0.35627 0.08267 0.0
H1053 H 0.51762 0.41321 0.11715 0.0
C1054 C 0.47093 0.39927 0.14648 0.0
C1055 C 0.45374 0.3826 0.15641 0.0
C1056 C 0.57662 0.36902 0.07717 0.0
C1057 C 0.52124 0.38441 0.11215 0.0
C1058 C 0.62313 0.36947 0.05839 0.0
C1059 C 0.65389 0.38566 0.05186 0.0
C1060 C 0.56089 0.38485 0.08954 0.0
C1061 C 0.63195 0.40142 0.06313 0.0
C1062 C 0.50462 0.40022 0.12441 0.0
C1063 C 0.47141 0.36711 0.1436 0.0
N1064 N 0.5876 0.40058 0.08172 0.0
N1065 N 0.50428 0.3684 0.12217 0.0
H1066 H 0.95556 0.35242 0.08204 0.0
H1067 H 0.1351 0.40783 0.18727 0.0
H1068 H 0.95898 0.41011 0.08585 0.0
H1069 H 0.14451 0.35032 0.18094 0.0
H1070 H 0.05108 0.40843 0.15494 0.0
H1071 H 0.01037 0.35112 0.12167 0.0
C1072 C 0.9682 0.36482 0.09112 0.0
C1073 C 0.95329 0.38141 0.08048 0.0
C1074 C 0.07076 0.39565 0.16089 0.0
C1075 C 0.01507 0.37999 0.12602 0.0
C1076 C 0.11843 0.39528 0.17949 0.0
C1077 C 0.14844 0.37905 0.18628 0.0
C1078 C 0.05333 0.37969 0.14904 0.0
C1079 C 0.12385 0.36319 0.17589 0.0
C1080 C -0.00106 0.36406 0.11386 0.0
C1081 C 0.97012 0.39703 0.09324 0.0
N1082 N 0.07865 0.36395 0.1574 0.0
N1083 N 0.00035 0.39593 0.11532 0.0
H1084 H 0.81401 0.42754 0.64317 0.0
H1085 H 0.62843 0.36548 0.54789 0.0
H1086 H 0.82085 0.36981 0.64376 0.0
H1087 H 0.61683 0.42315 0.54756 0.0
H1088 H 0.72245 0.36727 0.57628 0.0
H1089 H 0.76145 0.42652 0.60308 0.0
C1090 C 0.80446 0.41465 0.63489 0.0
C1091 C 0.8205 0.39872 0.64706 0.0
C1092 C 0.7002 0.37955 0.56964 0.0
C1093 C 0.76126 0.39748 0.60109 0.0
C1094 C 0.64667 0.37854 0.55331 0.0
C1095 C 0.6131 0.39417 0.54611 0.0
C1096 C 0.71954 0.39627 0.57892 0.0
C1097 C 0.63998 0.41072 0.55322 0.0
C1098 C 0.77505 0.41408 0.6119 0.0
C1099 C 0.80827 0.38242 0.63524 0.0
N1100 N 0.69064 0.41133 0.56978 0.0
N1101 N 0.77873 0.38222 0.61301 0.0
H1102 H 0.10407 0.43103 0.68269 0.0
H1103 H 0.31925 0.3685 0.59651 0.0
H1104 H 0.12855 0.37421 0.6934 0.0
H1105 H 0.30139 0.42562 0.58697 0.0
H1106 H 0.26194 0.37106 0.63528 0.0
H1107 H 0.19246 0.43027 0.65226 0.0
C1108 C 0.12926 0.41848 0.67919 0.0
C1109 C 0.10749 0.40257 0.69017 0.0
C1110 C 0.27091 0.38306 0.6248 0.0
C1111 C 0.2076 0.40156 0.65495 0.0
C1112 C 0.30322 0.38159 0.60253 0.0
C1113 C 0.31442 0.39684 0.58826 0.0
C1114 C 0.24914 0.39988 0.63286 0.0
C1115 C 0.29323 0.41347 0.59721 0.0
C1116 C 0.17938 0.41803 0.66161 0.0
C1117 C 0.14256 0.38675 0.68501 0.0
N1118 N 0.26114 0.41452 0.61884 0.0
N1119 N 0.18989 0.38658 0.66741 0.0
H1120 H 0.06506 0.11051 0.68865 0.0
H1121 H 0.24114 0.14719 0.56842 0.0
H1122 H 0.23385 0.14664 0.69058 0.0
H1123 H 0.07656 0.10969 0.56903 0.0
H1124 H 0.23925 0.14794 0.61297 0.0
H1125 H 0.06872 0.11054 0.64451 0.0
C1126 C 0.1033 0.11835 0.67963 0.0
C1127 C 0.14974 0.12843 0.69302 0.0
C1128 C 0.20365 0.13954 0.60334 0.0
C1129 C 0.15387 0.12879 0.64257 0.0
C1130 C 0.20461 0.13916 0.57803 0.0
C1131 C 0.15919 0.12828 0.56529 0.0
C1132 C 0.15673 0.12898 0.6158 0.0
C1133 C 0.11295 0.11805 0.57832 0.0
C1134 C 0.10523 0.11845 0.65446 0.0
C1135 C 0.19746 0.13867 0.68067 0.0
N1136 N 0.11292 0.11865 0.60289 0.0
N1137 N 0.19844 0.13858 0.65599 0.0
H1138 H 0.83261 0.86851 0.43183 0.0
H1139 H 0.00913 0.8995 0.30884 0.0
H1140 H 0.0015 0.90464 0.43071 0.0
H1141 H 0.84255 0.86276 0.31263 0.0
H1142 H 0.01245 0.90065 0.35343 0.0
H1143 H 0.8408 0.86509 0.38805 0.0
C1144 C 0.87198 0.87557 0.42229 0.0
C1145 C 0.91672 0.88679 0.43473 0.0
C1146 C 0.97559 0.89223 0.34448 0.0
C1147 C 0.92577 0.88326 0.38456 0.0
C1148 C 0.97373 0.89159 0.31916 0.0
C1149 C 0.92561 0.881 0.30731 0.0
C1150 C 0.92877 0.88222 0.35781 0.0
C1151 C 0.88078 0.87095 0.32121 0.0
C1152 C 0.87646 0.87371 0.39728 0.0
C1153 C 0.96596 0.89594 0.42158 0.0
N1154 N 0.88328 0.87186 0.34574 0.0
N1155 N 0.96912 0.89403 0.39708 0.0
H1156 H 0.18995 0.59342 0.06453 0.0
H1157 H 0.01337 0.63135 0.18388 0.0
H1158 H 0.02321 0.63013 0.06274 0.0
H1159 H 0.17378 0.59266 0.18469 0.0
H1160 H 0.01264 0.63038 0.13937 0.0
H1161 H 0.1818 0.59211 0.10879 0.0
C1162 C 0.15154 0.60114 0.07359 0.0
C1163 C 0.10742 0.61195 0.06029 0.0
C1164 C 0.04748 0.62195 0.1493 0.0
C1165 C 0.09772 0.61068 0.11056 0.0
C1166 C 0.04776 0.62251 0.17458 0.0
C1167 C 0.09313 0.61193 0.18771 0.0
C1168 C 0.09338 0.61084 0.13726 0.0
C1169 C 0.1372 0.60076 0.17511 0.0
C1170 C 0.14683 0.60044 0.09875 0.0
C1171 C 0.05855 0.6218 0.07259 0.0
N1172 N 0.13643 0.60056 0.15053 0.0
N1173 N 0.05508 0.62099 0.09713 0.0
H1174 H 0.95952 0.40337 0.92651 0.0
H1175 H 0.76288 0.37969 0.80332 0.0
H1176 H 0.78468 0.36936 0.92355 0.0
H1177 H 0.94318 0.41159 0.80645 0.0
H1178 H 0.76767 0.37631 0.8476 0.0
H1179 H 0.95376 0.40679 0.88236 0.0
C1180 C 0.92034 0.39651 0.91641 0.0
C1181 C 0.87274 0.38602 0.92838 0.0
C1182 C 0.80595 0.38415 0.83862 0.0
C1183 C 0.86512 0.38993 0.87825 0.0
C1184 C 0.80295 0.38612 0.81348 0.0
C1185 C 0.85245 0.39599 0.80155 0.0
C1186 C 0.85896 0.39212 0.85171 0.0
C1187 C 0.90373 0.40404 0.81521 0.0
C1188 C 0.91685 0.39848 0.89131 0.0
C1189 C 0.82271 0.37739 0.91476 0.0
N1190 N 0.9058 0.40189 0.83962 0.0
N1191 N 0.82 0.37959 0.89033 0.0
H1192 H 0.74611 0.13165 0.17201 0.0
H1193 H 0.55741 0.09485 0.05354 0.0
H1194 H 0.57514 0.09626 0.17342 0.0
H1195 H 0.72775 0.13042 0.05044 0.0
H1196 H 0.56782 0.09398 0.09759 0.0
H1197 H 0.74435 0.13053 0.12749 0.0
C1198 C 0.70831 0.12365 0.16282 0.0
C1199 C 0.66058 0.11407 0.17611 0.0
C1200 C 0.60336 0.10189 0.08735 0.0
C1201 C 0.65829 0.11261 0.12564 0.0
C1202 C 0.59773 0.10226 0.06221 0.0
C1203 C 0.64233 0.11257 0.04852 0.0
C1204 C 0.65366 0.11203 0.09889 0.0
C1205 C 0.69257 0.12231 0.06055 0.0
C1206 C 0.7074 0.12296 0.13753 0.0
C1207 C 0.61291 0.10376 0.16366 0.0
N1208 N 0.69685 0.12185 0.08516 0.0
N1209 N 0.61284 0.10333 0.13907 0.0
H1210 H 0.33577 0.91666 0.81399 0.0
H1211 H 0.5008 0.86879 0.92991 0.0
H1212 H 0.49276 0.87724 0.80825 0.0
H1213 H 0.34103 0.90758 0.93289 0.0
H1214 H 0.50341 0.87225 0.8855 0.0
H1215 H 0.34307 0.91466 0.85803 0.0
C1216 C 0.37258 0.90778 0.8221 0.0
C1217 C 0.4141 0.89719 0.80765 0.0
C1218 C 0.46806 0.88005 0.89593 0.0
C1219 C 0.42172 0.89443 0.85798 0.0
C1220 C 0.4665 0.87802 0.92113 0.0
C1221 C 0.42098 0.88801 0.93484 0.0
C1222 C 0.42361 0.89211 0.88461 0.0
C1223 C 0.37751 0.89984 0.92289 0.0
C1224 C 0.37639 0.9065 0.84723 0.0
C1225 C 0.45985 0.88558 0.81895 0.0
N1226 N 0.37987 0.90155 0.89846 0.0
N1227 N 0.46233 0.88443 0.84355 0.0
H1228 H 0.69734 0.61857 0.54869 0.0
H1229 H 0.52556 0.64997 0.67221 0.0
H1230 H 0.50266 0.64368 0.55096 0.0
H1231 H 0.70275 0.617 0.66884 0.0
H1232 H 0.52158 0.65079 0.62771 0.0
H1233 H 0.70537 0.6207 0.59279 0.0
C1234 C 0.65618 0.62448 0.55866 0.0
C1235 C 0.59885 0.63073 0.54653 0.0
C1236 C 0.56145 0.64344 0.63671 0.0
C1237 C 0.6077 0.63341 0.59673 0.0
C1238 C 0.56389 0.64305 0.66198 0.0
C1239 C 0.61443 0.63335 0.67389 0.0
C1240 C 0.61015 0.6341 0.62347 0.0
C1241 C 0.66277 0.62449 0.66012 0.0
C1242 C 0.66077 0.62574 0.58374 0.0
C1243 C 0.54731 0.6386 0.55992 0.0
N1244 N 0.65938 0.62504 0.63557 0.0
N1245 N 0.55279 0.63967 0.58447 0.0
H1246 H 0.28453 0.36177 0.31172 0.0
H1247 H 0.45217 0.40544 0.42975 0.0
H1248 H 0.46564 0.39339 0.31045 0.0
H1249 H 0.28753 0.36803 0.4328 0.0
H1250 H 0.45538 0.40191 0.38572 0.0
H1251 H 0.28359 0.36391 0.35607 0.0
C1252 C 0.32461 0.36892 0.32093 0.0
C1253 C 0.37544 0.37736 0.30773 0.0
C1254 C 0.41835 0.3945 0.39596 0.0
C1255 C 0.37409 0.38022 0.35802 0.0
C1256 C 0.41609 0.39667 0.421 0.0
C1257 C 0.36886 0.38719 0.43462 0.0
C1258 C 0.373 0.38275 0.38456 0.0
C1259 C 0.3243 0.37563 0.4227 0.0
C1260 C 0.32389 0.37025 0.34614 0.0
C1261 C 0.4257 0.38673 0.32021 0.0
N1262 N 0.32732 0.37374 0.39823 0.0
N1263 N 0.42361 0.388 0.34473 0.0
loop_
_geom_bond_atom_site_label_1
_geom_bond_atom_site_label_2
_geom_bond_distance
_geom_bond_site_symmetry_2
_ccdc_geom_bond_type
Co0 O3 1.970 . S
Co0 N17 1.989 . S
Co0 O25 1.967 . S
Co0 O32 1.920 . S
Co1 O4 1.966 . S
Co1 N10 2.022 . S
Co1 N18 1.993 . S
Co1 O26 1.941 . S
C2 O3 1.258 . S
C2 O4 1.263 . S
O3 Co0 1.970 . S
O3 C2 1.258 . S
O4 Co1 1.966 . S
O4 C2 1.263 . S
C5 O6 1.235 . S
C5 O32 1.289 . S
O6 C5 1.235 . S
C7 C9 1.400 . S
C7 N10 1.351 . S
C7 C12 1.501 . S
C8 C9 1.387 . S
C8 N11 1.341 . S
C9 C7 1.400 . S
C9 C8 1.387 . S
N10 Co1 2.022 . S
N10 C7 1.351 . S
N10 N11 1.365 . S
N11 C8 1.341 . S
N11 N10 1.365 . S
N11 H31 0.862 . S
C12 C7 1.501 . S
C12 H13 0.961 . S
C12 H14 0.961 . S
C12 H15 0.960 . S
H13 C12 0.961 . S
H14 C12 0.961 . S
H15 C12 0.960 . S
C16 N17 1.342 . S
C16 C20 1.401 . S
C16 C21 1.499 . S
N17 Co0 1.989 . S
N17 C16 1.342 . S
N17 N18 1.388 . S
N18 Co1 1.993 . S
N18 N17 1.388 . S
N18 C19 1.346 . S
C19 N18 1.346 . S
C19 C20 1.396 . S
C19 C29 1.510 . S
C20 C16 1.401 . S
C20 C19 1.396 . S
C21 C16 1.499 . S
C21 H22 0.959 . S
C21 H23 0.960 . S
C21 H24 0.961 . S
H22 C21 0.959 . S
H23 C21 0.960 . S
H24 C21 0.961 . S
O25 Co0 1.967 . S
O25 C33 1.258 . S
O26 Co1 1.941 . S
O26 C33 1.266 . S
H27 C29 0.959 . S
H28 C29 0.961 . S
C29 C19 1.510 . S
C29 H27 0.959 . S
C29 H28 0.961 . S
C29 H30 0.960 . S
H30 C29 0.960 . S
H31 N11 0.862 . S
O32 Co0 1.920 . S
O32 C5 1.289 . S
C33 O25 1.258 . S
C33 O26 1.266 . S
Co34 O37 1.970 . S
Co34 N51 1.989 . S
Co34 O59 1.967 . S
Co34 O66 1.920 . S
Co35 O38 1.966 . S
Co35 N44 2.022 . S
Co35 N52 1.993 . S
Co35 O60 1.941 . S
C36 O37 1.258 . S
C36 O38 1.263 . S
O37 Co34 1.970 . S
O37 C36 1.258 . S
O38 Co35 1.966 . S
O38 C36 1.263 . S
C39 O40 1.235 . S
C39 O66 1.289 . S
O40 C39 1.235 . S
C41 C43 1.400 . S
C41 N44 1.351 . S
C41 C46 1.501 1_455 S
C42 C43 1.387 . S
C42 N45 1.341 . S
C43 C41 1.400 . S
C43 C42 1.387 . S
N44 Co35 2.022 . S
N44 C41 1.351 . S
N44 N45 1.365 . S
N45 C42 1.341 . S
N45 N44 1.365 . S
N45 H65 0.862 . S
C46 C41 1.501 1_655 S
C46 H47 0.961 . S
C46 H48 0.961 . S
C46 H49 0.960 . S
H47 C46 0.961 . S
H48 C46 0.961 . S
H49 C46 0.960 . S
C50 N51 1.342 . S
C50 C54 1.401 . S
C50 C55 1.499 . S
N51 Co34 1.989 . S
N51 C50 1.342 . S
N51 N52 1.388 . S
N52 Co35 1.993 . S
N52 N51 1.388 . S
N52 C53 1.346 . S
C53 N52 1.346 . S
C53 C54 1.396 . S
C53 C63 1.510 . S
C54 C50 1.401 . S
C54 C53 1.396 . S
C55 C50 1.499 . S
C55 H56 0.959 . S
C55 H57 0.960 . S
C55 H58 0.961 . S
H56 C55 0.959 . S
H57 C55 0.960 . S
H58 C55 0.961 . S
O59 Co34 1.967 . S
O59 C67 1.258 . S
O60 Co35 1.941 . S
O60 C67 1.266 . S
H61 C63 0.959 . S
H62 C63 0.961 . S
C63 C53 1.510 . S
C63 H61 0.959 . S
C63 H62 0.961 . S
C63 H64 0.960 . S
H64 C63 0.960 . S
H65 N45 0.862 . S
O66 Co34 1.920 . S
O66 C39 1.289 . S
C67 O59 1.258 . S
C67 O60 1.266 . S
Co68 O71 1.970 . S
Co68 N85 1.989 . S
Co68 O93 1.967 . S
Co68 O100 1.920 . S
Co69 O72 1.966 . S
Co69 N78 2.022 . S
Co69 N86 1.993 . S
Co69 O94 1.941 . S
C70 O71 1.258 . S
C70 O72 1.263 . S
O71 Co68 1.970 . S
O71 C70 1.258 . S
O72 Co69 1.966 . S
O72 C70 1.263 . S
C73 O74 1.235 . S
C73 O100 1.289 . S
O74 C73 1.235 . S
C75 C77 1.400 . S
C75 N78 1.351 . S
C75 C80 1.501 . S
C76 C77 1.387 . S
C76 N79 1.341 . S
C77 C75 1.400 . S
C77 C76 1.387 . S
N78 Co69 2.022 . S
N78 C75 1.351 . S
N78 N79 1.365 . S
N79 C76 1.341 . S
N79 N78 1.365 . S
N79 H99 0.862 . S
C80 C75 1.501 . S
C80 H81 0.961 . S
C80 H82 0.961 . S
C80 H83 0.960 . S
H81 C80 0.961 . S
H82 C80 0.961 . S
H83 C80 0.960 . S
C84 N85 1.342 . S
C84 C88 1.401 . S
C84 C89 1.499 . S
N85 Co68 1.989 . S
N85 C84 1.342 . S
N85 N86 1.388 . S
N86 Co69 1.993 . S
N86 N85 1.388 . S
N86 C87 1.346 . S
C87 N86 1.346 . S
C87 C88 1.396 . S
C87 C97 1.510 . S
C88 C84 1.401 . S
C88 C87 1.396 . S
C89 C84 1.499 . S
C89 H90 0.959 . S
C89 H91 0.960 . S
C89 H92 0.961 . S
H90 C89 0.959 . S
H91 C89 0.960 . S
H92 C89 0.961 . S
O93 Co68 1.967 . S
O93 C101 1.258 . S
O94 Co69 1.941 . S
O94 C101 1.266 . S
H95 C97 0.959 . S
H96 C97 0.961 . S
C97 C87 1.510 . S
C97 H95 0.959 . S
C97 H96 0.961 . S
C97 H98 0.960 . S
H98 C97 0.960 . S
H99 N79 0.862 . S
O100 Co68 1.920 . S
O100 C73 1.289 . S
C101 O93 1.258 . S
C101 O94 1.266 . S
Co102 O105 1.970 . S
Co102 N119 1.989 . S
Co102 O127 1.967 . S
Co102 O134 1.920 . S
Co103 O106 1.966 . S
Co103 N112 2.022 . S
Co103 N120 1.993 . S
Co103 O128 1.941 . S
C104 O105 1.258 . S
C104 O106 1.263 . S
O105 Co102 1.970 . S
O105 C104 1.258 . S
O106 Co103 1.966 . S
O106 C104 1.263 . S
C107 O108 1.235 . S
C107 O134 1.289 . S
O108 C107 1.235 . S
C109 C111 1.400 . S
C109 N112 1.351 . S
C109 C114 1.501 1_655 S
C110 C111 1.387 . S
C110 N113 1.341 . S
C111 C109 1.400 . S
C111 C110 1.387 . S
N112 Co103 2.022 . S
N112 C109 1.351 . S
N112 N113 1.365 . S
N113 C110 1.341 . S
N113 N112 1.365 . S
N113 H133 0.862 . S
C114 C109 1.501 1_455 S
C114 H115 0.961 . S
C114 H116 0.961 . S
C114 H117 0.960 . S
H115 C114 0.961 . S
H116 C114 0.961 . S
H117 C114 0.960 . S
C118 N119 1.342 . S
C118 C122 1.401 . S
C118 C123 1.499 . S
N119 Co102 1.989 . S
N119 C118 1.342 . S
N119 N120 1.388 . S
N120 Co103 1.993 . S
N120 N119 1.388 . S
N120 C121 1.346 . S
C121 N120 1.346 . S
C121 C122 1.396 . S
C121 C131 1.510 . S
C122 C118 1.401 . S
C122 C121 1.396 . S
C123 C118 1.499 . S
C123 H124 0.959 . S
C123 H125 0.960 . S
C123 H126 0.961 . S
H124 C123 0.959 . S
H125 C123 0.960 . S
H126 C123 0.961 . S
O127 Co102 1.967 . S
O127 C135 1.258 . S
O128 Co103 1.941 . S
O128 C135 1.266 . S
H129 C131 0.959 . S
H130 C131 0.961 . S
C131 C121 1.510 . S
C131 H129 0.959 . S
C131 H130 0.961 . S
C131 H132 0.960 . S
H132 C131 0.960 . S
H133 N113 0.862 . S
O134 Co102 1.920 . S
O134 C107 1.289 . S
C135 O127 1.258 . S
C135 O128 1.266 . S
Co136 O139 1.970 . S
Co136 N153 1.989 1_556 S
Co136 O161 1.967 . S
Co136 O168 1.920 . S
Co137 O140 1.966 . S
Co137 N146 2.022 . S
Co137 N154 1.993 1_556 S
Co137 O162 1.941 . S
C138 O139 1.258 . S
C138 O140 1.263 . S
O139 Co136 1.970 . S
O139 C138 1.258 . S
O140 Co137 1.966 . S
O140 C138 1.263 . S
C141 O142 1.235 . S
C141 O168 1.289 . S
O142 C141 1.235 . S
C143 C145 1.400 . S
C143 N146 1.351 . S
C143 C148 1.501 . S
C144 C145 1.387 . S
C144 N147 1.341 . S
C145 C143 1.400 . S
C145 C144 1.387 . S
N146 Co137 2.022 . S
N146 C143 1.351 . S
N146 N147 1.365 . S
N147 C144 1.341 . S
N147 N146 1.365 . S
N147 H167 0.862 . S
C148 C143 1.501 . S
C148 H149 0.961 . S
C148 H150 0.961 . S
C148 H151 0.960 . S
H149 C148 0.961 . S
H150 C148 0.961 . S
H151 C148 0.960 . S
C152 N153 1.342 . S
C152 C156 1.401 . S
C152 C157 1.499 . S
N153 Co136 1.989 1_554 S
N153 C152 1.342 . S
N153 N154 1.388 . S
N154 Co137 1.993 1_554 S
N154 N153 1.388 . S
N154 C155 1.346 . S
C155 N154 1.346 . S
C155 C156 1.396 . S
C155 C165 1.510 . S
C156 C152 1.401 . S
C156 C155 1.396 . S
C157 C152 1.499 . S
C157 H158 0.959 . S
C157 H159 0.960 . S
C157 H160 0.961 . S
H158 C157 0.959 . S
H159 C157 0.960 . S
H160 C157 0.961 . S
O161 Co136 1.967 . S
O161 C169 1.258 . S
O162 Co137 1.941 . S
O162 C169 1.266 . S
H163 C165 0.959 . S
H164 C165 0.961 . S
C165 C155 1.510 . S
C165 H163 0.959 . S
C165 H164 0.961 . S
C165 H166 0.960 . S
H166 C165 0.960 . S
H167 N147 0.862 . S
O168 Co136 1.920 . S
O168 C141 1.289 . S
C169 O161 1.258 . S
C169 O162 1.266 . S
Co170 O173 1.970 . S
Co170 N187 1.989 . S
Co170 O195 1.967 . S
Co170 O202 1.920 . S
Co171 O174 1.966 . S
Co171 N180 2.022 . S
Co171 N188 1.993 . S
Co171 O196 1.941 . S
C172 O173 1.258 . S
C172 O174 1.263 . S
O173 Co170 1.970 . S
O173 C172 1.258 . S
O174 Co171 1.966 . S
O174 C172 1.263 . S
C175 O176 1.235 . S
C175 O202 1.289 . S
O176 C175 1.235 . S
C177 C179 1.400 . S
C177 N180 1.351 . S
C177 C182 1.501 1_455 S
C178 C179 1.387 . S
C178 N181 1.341 . S
C179 C177 1.400 . S
C179 C178 1.387 . S
N180 Co171 2.022 . S
N180 C177 1.351 . S
N180 N181 1.365 . S
N181 C178 1.341 . S
N181 N180 1.365 . S
N181 H201 0.862 . S
C182 C177 1.501 1_655 S
C182 H183 0.961 . S
C182 H184 0.961 . S
C182 H185 0.960 . S
H183 C182 0.961 . S
H184 C182 0.961 . S
H185 C182 0.960 . S
C186 N187 1.342 . S
C186 C190 1.401 . S
C186 C191 1.499 . S
N187 Co170 1.989 . S
N187 C186 1.342 . S
N187 N188 1.388 . S
N188 Co171 1.993 . S
N188 N187 1.388 . S
N188 C189 1.346 . S
C189 N188 1.346 . S
C189 C190 1.396 . S
C189 C199 1.510 . S
C190 C186 1.401 . S
C190 C189 1.396 . S
C191 C186 1.499 . S
C191 H192 0.959 . S
C191 H193 0.960 . S
C191 H194 0.961 . S
H192 C191 0.959 . S
H193 C191 0.960 . S
H194 C191 0.961 . S
O195 Co170 1.967 . S
O195 C203 1.258 . S
O196 Co171 1.941 . S
O196 C203 1.266 . S
H197 C199 0.959 . S
H198 C199 0.961 . S
C199 C189 1.510 . S
C199 H197 0.959 . S
C199 H198 0.961 . S
C199 H200 0.960 . S
H200 C199 0.960 . S
H201 N181 0.862 . S
O202 Co170 1.920 . S
O202 C175 1.289 . S
C203 O195 1.258 . S
C203 O196 1.266 . S
Co204 O207 1.970 . S
Co204 N221 1.989 1_554 S
Co204 O229 1.967 . S
Co204 O236 1.920 . S
Co205 O208 1.966 . S
Co205 N214 2.022 . S
Co205 N222 1.993 1_554 S
Co205 O230 1.941 . S
C206 O207 1.258 . S
C206 O208 1.263 . S
O207 Co204 1.970 . S
O207 C206 1.258 . S
O208 Co205 1.966 . S
O208 C206 1.263 . S
C209 O210 1.235 . S
C209 O236 1.289 . S
O210 C209 1.235 . S
C211 C213 1.400 . S
C211 N214 1.351 . S
C211 C216 1.501 . S
C212 C213 1.387 . S
C212 N215 1.341 . S
C213 C211 1.400 . S
C213 C212 1.387 . S
N214 Co205 2.022 . S
N214 C211 1.351 . S
N214 N215 1.365 . S
N215 C212 1.341 . S
N215 N214 1.365 . S
N215 H235 0.862 . S
C216 C211 1.501 . S
C216 H217 0.961 . S
C216 H218 0.961 . S
C216 H219 0.960 . S
H217 C216 0.961 . S
H218 C216 0.961 . S
H219 C216 0.960 . S
C220 N221 1.342 . S
C220 C224 1.401 . S
C220 C225 1.499 . S
N221 Co204 1.989 1_556 S
N221 C220 1.342 . S
N221 N222 1.388 . S
N222 Co205 1.993 1_556 S
N222 N221 1.388 . S
N222 C223 1.346 . S
C223 N222 1.346 . S
C223 C224 1.396 . S
C223 C233 1.510 . S
C224 C220 1.401 . S
C224 C223 1.396 . S
C225 C220 1.499 . S
C225 H226 0.959 . S
C225 H227 0.960 . S
C225 H228 0.961 . S
H226 C225 0.959 . S
H227 C225 0.960 . S
H228 C225 0.961 . S
O229 Co204 1.967 . S
O229 C237 1.258 . S
O230 Co205 1.941 . S
O230 C237 1.266 . S
H231 C233 0.959 . S
H232 C233 0.961 . S
C233 C223 1.510 . S
C233 H231 0.959 . S
C233 H232 0.961 . S
C233 H234 0.960 . S
H234 C233 0.960 . S
H235 N215 0.862 . S
O236 Co204 1.920 . S
O236 C209 1.289 . S
C237 O229 1.258 . S
C237 O230 1.266 . S
Co238 O241 1.970 . S
Co238 N255 1.989 . S
Co238 O263 1.967 . S
Co238 O270 1.920 . S
Co239 O242 1.966 . S
Co239 N248 2.022 . S
Co239 N256 1.993 . S
Co239 O264 1.941 . S
C240 O241 1.258 . S
C240 O242 1.263 . S
O241 Co238 1.970 . S
O241 C240 1.258 . S
O242 Co239 1.966 . S
O242 C240 1.263 . S
C243 O244 1.235 . S
C243 O270 1.289 . S
O244 C243 1.235 . S
C245 C247 1.400 . S
C245 N248 1.351 . S
C245 C250 1.501 1_655 S
C246 C247 1.387 . S
C246 N249 1.341 . S
C247 C245 1.400 . S
C247 C246 1.387 . S
N248 Co239 2.022 . S
N248 C245 1.351 . S
N248 N249 1.365 . S
N249 C246 1.341 . S
N249 N248 1.365 . S
N249 H269 0.862 . S
C250 C245 1.501 1_455 S
C250 H251 0.961 . S
C250 H252 0.961 . S
C250 H253 0.960 . S
H251 C250 0.961 . S
H252 C250 0.961 . S
H253 C250 0.960 . S
C254 N255 1.342 . S
C254 C258 1.401 . S
C254 C259 1.499 . S
N255 Co238 1.989 . S
N255 C254 1.342 . S
N255 N256 1.388 . S
N256 Co239 1.993 . S
N256 N255 1.388 . S
N256 C257 1.346 . S
C257 N256 1.346 . S
C257 C258 1.396 . S
C257 C267 1.510 . S
C258 C254 1.401 . S
C258 C257 1.396 . S
C259 C254 1.499 . S
C259 H260 0.959 . S
C259 H261 0.960 . S
C259 H262 0.961 . S
H260 C259 0.959 . S
H261 C259 0.960 . S
H262 C259 0.961 . S
O263 Co238 1.967 . S
O263 C271 1.258 . S
O264 Co239 1.941 . S
O264 C271 1.266 . S
H265 C267 0.959 . S
H266 C267 0.961 . S
C267 C257 1.510 . S
C267 H265 0.959 . S
C267 H266 0.961 . S
C267 H268 0.960 . S
H268 C267 0.960 . S
H269 N249 0.862 . S
O270 Co238 1.920 . S
O270 C243 1.289 . S
C271 O263 1.258 . S
C271 O264 1.266 . S
Co272 O275 1.970 . S
Co272 N289 1.989 1_556 S
Co272 O297 1.967 . S
Co272 O304 1.920 . S
Co273 O276 1.966 . S
Co273 N282 2.022 . S
Co273 N290 1.993 1_556 S
Co273 O298 1.941 . S
C274 O275 1.258 . S
C274 O276 1.263 . S
O275 Co272 1.970 . S
O275 C274 1.258 . S
O276 Co273 1.966 . S
O276 C274 1.263 . S
C277 O278 1.235 . S
C277 O304 1.289 . S
O278 C277 1.235 . S
C279 C281 1.400 . S
C279 N282 1.351 . S
C279 C284 1.501 . S
C280 C281 1.387 . S
C280 N283 1.341 . S
C281 C279 1.400 . S
C281 C280 1.387 . S
N282 Co273 2.022 . S
N282 C279 1.351 . S
N282 N283 1.365 . S
N283 C280 1.341 . S
N283 N282 1.365 . S
N283 H303 0.862 . S
C284 C279 1.501 . S
C284 H285 0.961 . S
C284 H286 0.961 . S
C284 H287 0.960 . S
H285 C284 0.961 . S
H286 C284 0.961 . S
H287 C284 0.960 . S
C288 N289 1.342 . S
C288 C292 1.401 . S
C288 C293 1.499 . S
N289 Co272 1.989 1_554 S
N289 C288 1.342 . S
N289 N290 1.388 . S
N290 Co273 1.993 1_554 S
N290 N289 1.388 . S
N290 C291 1.346 . S
C291 N290 1.346 . S
C291 C292 1.396 . S
C291 C301 1.510 . S
C292 C288 1.401 . S
C292 C291 1.396 . S
C293 C288 1.499 . S
C293 H294 0.959 . S
C293 H295 0.960 . S
C293 H296 0.961 . S
H294 C293 0.959 . S
H295 C293 0.960 . S
H296 C293 0.961 . S
O297 Co272 1.967 . S
O297 C305 1.258 . S
O298 Co273 1.941 . S
O298 C305 1.266 . S
H299 C301 0.959 . S
H300 C301 0.961 . S
C301 C291 1.510 . S
C301 H299 0.959 . S
C301 H300 0.961 . S
C301 H302 0.960 . S
H302 C301 0.960 . S
H303 N283 0.862 . S
O304 Co272 1.920 . S
O304 C277 1.289 . S
C305 O297 1.258 . S
C305 O298 1.266 . S
Co306 O309 1.970 . S
Co306 N323 1.989 . S
Co306 O331 1.967 . S
Co306 O338 1.920 . S
Co307 O310 1.966 . S
Co307 N316 2.022 . S
Co307 N324 1.993 . S
Co307 O332 1.941 . S
C308 O309 1.258 . S
C308 O310 1.263 . S
O309 Co306 1.970 . S
O309 C308 1.258 . S
O310 Co307 1.966 . S
O310 C308 1.263 . S
C311 O312 1.235 . S
C311 O338 1.289 . S
O312 C311 1.235 . S
C313 C315 1.400 . S
C313 N316 1.351 . S
C313 C318 1.501 . S
C314 C315 1.387 . S
C314 N317 1.341 . S
C315 C313 1.400 . S
C315 C314 1.387 . S
N316 Co307 2.022 . S
N316 C313 1.351 . S
N316 N317 1.365 . S
N317 C314 1.341 . S
N317 N316 1.365 . S
N317 H337 0.862 . S
C318 C313 1.501 . S
C318 H319 0.961 . S
C318 H320 0.961 . S
C318 H321 0.960 . S
H319 C318 0.961 . S
H320 C318 0.961 . S
H321 C318 0.960 . S
C322 N323 1.342 . S
C322 C326 1.401 . S
C322 C327 1.499 . S
N323 Co306 1.989 . S
N323 C322 1.342 . S
N323 N324 1.388 . S
N324 Co307 1.993 . S
N324 N323 1.388 . S
N324 C325 1.346 . S
C325 N324 1.346 . S
C325 C326 1.396 . S
C325 C335 1.510 . S
C326 C322 1.401 . S
C326 C325 1.396 . S
C327 C322 1.499 . S
C327 H328 0.959 . S
C327 H329 0.960 . S
C327 H330 0.961 . S
H328 C327 0.959 . S
H329 C327 0.960 . S
H330 C327 0.961 . S
O331 Co306 1.967 . S
O331 C339 1.258 . S
O332 Co307 1.941 . S
O332 C339 1.266 . S
H333 C335 0.959 . S
H334 C335 0.961 . S
C335 C325 1.510 . S
C335 H333 0.959 . S
C335 H334 0.961 . S
C335 H336 0.960 . S
H336 C335 0.960 . S
H337 N317 0.862 . S
O338 Co306 1.920 . S
O338 C311 1.289 . S
C339 O331 1.258 . S
C339 O332 1.266 . S
Co340 O343 1.970 . S
Co340 N357 1.989 1_554 S
Co340 O365 1.967 . S
Co340 O372 1.920 . S
Co341 O344 1.966 . S
Co341 N350 2.022 . S
Co341 N358 1.993 1_554 S
Co341 O366 1.941 . S
C342 O343 1.258 . S
C342 O344 1.263 . S
O343 Co340 1.970 . S
O343 C342 1.258 . S
O344 Co341 1.966 . S
O344 C342 1.263 . S
C345 O346 1.235 . S
C345 O372 1.289 . S
O346 C345 1.235 . S
C347 C349 1.400 . S
C347 N350 1.351 . S
C347 C352 1.501 . S
C348 C349 1.387 . S
C348 N351 1.341 . S
C349 C347 1.400 . S
C349 C348 1.387 . S
N350 Co341 2.022 . S
N350 C347 1.351 . S
N350 N351 1.365 . S
N351 C348 1.341 . S
N351 N350 1.365 . S
N351 H371 0.862 . S
C352 C347 1.501 . S
C352 H353 0.961 . S
C352 H354 0.961 . S
C352 H355 0.960 . S
H353 C352 0.961 . S
H354 C352 0.961 . S
H355 C352 0.960 . S
C356 N357 1.342 . S
C356 C360 1.401 . S
C356 C361 1.499 . S
N357 Co340 1.989 1_556 S
N357 C356 1.342 . S
N357 N358 1.388 . S
N358 Co341 1.993 1_556 S
N358 N357 1.388 . S
N358 C359 1.346 . S
C359 N358 1.346 . S
C359 C360 1.396 . S
C359 C369 1.510 . S
C360 C356 1.401 . S
C360 C359 1.396 . S
C361 C356 1.499 . S
C361 H362 0.959 . S
C361 H363 0.960 . S
C361 H364 0.961 . S
H362 C361 0.959 . S
H363 C361 0.960 . S
H364 C361 0.961 . S
O365 Co340 1.967 . S
O365 C373 1.258 . S
O366 Co341 1.941 . S
O366 C373 1.266 . S
H367 C369 0.959 . S
H368 C369 0.961 . S
C369 C359 1.510 . S
C369 H367 0.959 . S
C369 H368 0.961 . S
C369 H370 0.960 . S
H370 C369 0.960 . S
H371 N351 0.862 . S
O372 Co340 1.920 . S
O372 C345 1.289 . S
C373 O365 1.258 . S
C373 O366 1.266 . S
Co374 O377 1.970 . S
Co374 N391 1.989 . S
Co374 O399 1.967 . S
Co374 O406 1.920 . S
Co375 O378 1.966 . S
Co375 N384 2.022 . S
Co375 N392 1.993 . S
Co375 O400 1.941 . S
C376 O377 1.258 . S
C376 O378 1.263 . S
O377 Co374 1.970 . S
O377 C376 1.258 . S
O378 Co375 1.966 . S
O378 C376 1.263 . S
C379 O380 1.235 . S
C379 O406 1.289 . S
O380 C379 1.235 . S
C381 C383 1.400 . S
C381 N384 1.351 . S
C381 C386 1.501 . S
C382 C383 1.387 . S
C382 N385 1.341 . S
C383 C381 1.400 . S
C383 C382 1.387 . S
N384 Co375 2.022 . S
N384 C381 1.351 . S
N384 N385 1.365 . S
N385 C382 1.341 . S
N385 N384 1.365 . S
N385 H405 0.862 . S
C386 C381 1.501 . S
C386 H387 0.961 . S
C386 H388 0.961 . S
C386 H389 0.960 . S
H387 C386 0.961 . S
H388 C386 0.961 . S
H389 C386 0.960 . S
C390 N391 1.342 . S
C390 C394 1.401 . S
C390 C395 1.499 . S
N391 Co374 1.989 . S
N391 C390 1.342 . S
N391 N392 1.388 . S
N392 Co375 1.993 . S
N392 N391 1.388 . S
N392 C393 1.346 . S
C393 N392 1.346 . S
C393 C394 1.396 . S
C393 C403 1.510 . S
C394 C390 1.401 . S
C394 C393 1.396 . S
C395 C390 1.499 . S
C395 H396 0.959 . S
C395 H397 0.960 . S
C395 H398 0.961 . S
H396 C395 0.959 . S
H397 C395 0.960 . S
H398 C395 0.961 . S
O399 Co374 1.967 . S
O399 C407 1.258 . S
O400 Co375 1.941 . S
O400 C407 1.266 . S
H401 C403 0.959 . S
H402 C403 0.961 . S
C403 C393 1.510 . S
C403 H401 0.959 . S
C403 H402 0.961 . S
C403 H404 0.960 . S
H404 C403 0.960 . S
H405 N385 0.862 . S
O406 Co374 1.920 . S
O406 C379 1.289 . S
C407 O399 1.258 . S
C407 O400 1.266 . S
Co408 O411 1.970 . S
Co408 N425 1.989 . S
Co408 O433 1.967 . S
Co408 O440 1.920 . S
Co409 O412 1.966 . S
Co409 N418 2.022 . S
Co409 N426 1.993 . S
Co409 O434 1.941 . S
C410 O411 1.258 . S
C410 O412 1.263 . S
O411 Co408 1.970 . S
O411 C410 1.258 . S
O412 Co409 1.966 . S
O412 C410 1.263 . S
C413 O414 1.235 . S
C413 O440 1.289 . S
O414 C413 1.235 . S
C415 C417 1.400 . S
C415 N418 1.351 . S
C415 C420 1.501 . S
C416 C417 1.387 . S
C416 N419 1.341 . S
C417 C415 1.400 . S
C417 C416 1.387 . S
N418 Co409 2.022 . S
N418 C415 1.351 . S
N418 N419 1.365 . S
N419 C416 1.341 . S
N419 N418 1.365 . S
N419 H439 0.862 . S
C420 C415 1.501 . S
C420 H421 0.961 . S
C420 H422 0.961 . S
C420 H423 0.960 . S
H421 C420 0.961 . S
H422 C420 0.961 . S
H423 C420 0.960 . S
C424 N425 1.342 . S
C424 C428 1.401 . S
C424 C429 1.499 . S
N425 Co408 1.989 . S
N425 C424 1.342 . S
N425 N426 1.388 . S
N426 Co409 1.993 . S
N426 N425 1.388 . S
N426 C427 1.346 . S
C427 N426 1.346 . S
C427 C428 1.396 . S
C427 C437 1.510 . S
C428 C424 1.401 . S
C428 C427 1.396 . S
C429 C424 1.499 . S
C429 H430 0.959 . S
C429 H431 0.960 . S
C429 H432 0.961 . S
H430 C429 0.959 . S
H431 C429 0.960 . S
H432 C429 0.961 . S
O433 Co408 1.967 . S
O433 C441 1.258 . S
O434 Co409 1.941 . S
O434 C441 1.266 . S
H435 C437 0.959 . S
H436 C437 0.961 . S
C437 C427 1.510 . S
C437 H435 0.959 . S
C437 H436 0.961 . S
C437 H438 0.960 . S
H438 C437 0.960 . S
H439 N419 0.862 . S
O440 Co408 1.920 . S
O440 C413 1.289 . S
C441 O433 1.258 . S
C441 O434 1.266 . S
Co442 O445 1.970 . S
Co442 N459 1.989 . S
Co442 O467 1.967 . S
Co442 O474 1.920 . S
Co443 O446 1.966 . S
Co443 N452 2.022 . S
Co443 N460 1.993 . S
Co443 O468 1.941 . S
C444 O445 1.258 . S
C444 O446 1.263 . S
O445 Co442 1.970 . S
O445 C444 1.258 . S
O446 Co443 1.966 . S
O446 C444 1.263 . S
C447 O448 1.235 . S
C447 O474 1.289 . S
O448 C447 1.235 . S
C449 C451 1.400 . S
C449 N452 1.351 . S
C449 C454 1.501 . S
C450 C451 1.387 . S
C450 N453 1.341 . S
C451 C449 1.400 . S
C451 C450 1.387 . S
N452 Co443 2.022 . S
N452 C449 1.351 . S
N452 N453 1.365 . S
N453 C450 1.341 . S
N453 N452 1.365 . S
N453 H473 0.862 . S
C454 C449 1.501 . S
C454 H455 0.961 . S
C454 H456 0.961 . S
C454 H457 0.960 . S
H455 C454 0.961 . S
H456 C454 0.961 . S
H457 C454 0.960 . S
C458 N459 1.342 . S
C458 C462 1.401 . S
C458 C463 1.499 . S
N459 Co442 1.989 . S
N459 C458 1.342 . S
N459 N460 1.388 . S
N460 Co443 1.993 . S
N460 N459 1.388 . S
N460 C461 1.346 . S
C461 N460 1.346 . S
C461 C462 1.396 . S
C461 C471 1.510 . S
C462 C458 1.401 . S
C462 C461 1.396 . S
C463 C458 1.499 . S
C463 H464 0.959 . S
C463 H465 0.960 . S
C463 H466 0.961 . S
H464 C463 0.959 . S
H465 C463 0.960 . S
H466 C463 0.961 . S
O467 Co442 1.967 . S
O467 C475 1.258 . S
O468 Co443 1.941 . S
O468 C475 1.266 . S
H469 C471 0.959 . S
H470 C471 0.961 . S
C471 C461 1.510 . S
C471 H469 0.959 . S
C471 H470 0.961 . S
C471 H472 0.960 . S
H472 C471 0.960 . S
H473 N453 0.862 . S
O474 Co442 1.920 . S
O474 C447 1.289 . S
C475 O467 1.258 . S
C475 O468 1.266 . S
Co476 O479 1.970 . S
Co476 N493 1.989 . S
Co476 O501 1.967 . S
Co476 O508 1.920 . S
Co477 O480 1.966 . S
Co477 N486 2.022 . S
Co477 N494 1.993 . S
Co477 O502 1.941 . S
C478 O479 1.258 . S
C478 O480 1.263 . S
O479 Co476 1.970 . S
O479 C478 1.258 . S
O480 Co477 1.966 . S
O480 C478 1.263 . S
C481 O482 1.235 . S
C481 O508 1.289 . S
O482 C481 1.235 . S
C483 C485 1.400 . S
C483 N486 1.351 . S
C483 C488 1.501 . S
C484 C485 1.387 . S
C484 N487 1.341 . S
C485 C483 1.400 . S
C485 C484 1.387 . S
N486 Co477 2.022 . S
N486 C483 1.351 . S
N486 N487 1.365 . S
N487 C484 1.341 . S
N487 N486 1.365 . S
N487 H507 0.862 . S
C488 C483 1.501 . S
C488 H489 0.961 . S
C488 H490 0.961 . S
C488 H491 0.960 . S
H489 C488 0.961 . S
H490 C488 0.961 . S
H491 C488 0.960 . S
C492 N493 1.342 . S
C492 C496 1.401 . S
C492 C497 1.499 . S
N493 Co476 1.989 . S
N493 C492 1.342 . S
N493 N494 1.388 . S
N494 Co477 1.993 . S
N494 N493 1.388 . S
N494 C495 1.346 . S
C495 N494 1.346 . S
C495 C496 1.396 . S
C495 C505 1.510 . S
C496 C492 1.401 . S
C496 C495 1.396 . S
C497 C492 1.499 . S
C497 H498 0.959 . S
C497 H499 0.960 . S
C497 H500 0.961 . S
H498 C497 0.959 . S
H499 C497 0.960 . S
H500 C497 0.961 . S
O501 Co476 1.967 . S
O501 C509 1.258 . S
O502 Co477 1.941 . S
O502 C509 1.266 . S
H503 C505 0.959 . S
H504 C505 0.961 . S
C505 C495 1.510 . S
C505 H503 0.959 . S
C505 H504 0.961 . S
C505 H506 0.960 . S
H506 C505 0.960 . S
H507 N487 0.862 . S
O508 Co476 1.920 . S
O508 C481 1.289 . S
C509 O501 1.258 . S
C509 O502 1.266 . S
Co510 O513 1.970 . S
Co510 N527 1.989 . S
Co510 O535 1.967 . S
Co510 O542 1.920 . S
Co511 O514 1.966 . S
Co511 N520 2.022 . S
Co511 N528 1.993 . S
Co511 O536 1.941 . S
C512 O513 1.258 . S
C512 O514 1.263 . S
O513 Co510 1.970 . S
O513 C512 1.258 . S
O514 Co511 1.966 . S
O514 C512 1.263 . S
C515 O516 1.235 . S
C515 O542 1.289 . S
O516 C515 1.235 . S
C517 C519 1.400 . S
C517 N520 1.351 . S
C517 C522 1.501 . S
C518 C519 1.387 . S
C518 N521 1.341 . S
C519 C517 1.400 . S
C519 C518 1.387 . S
N520 Co511 2.022 . S
N520 C517 1.351 . S
N520 N521 1.365 . S
N521 C518 1.341 . S
N521 N520 1.365 . S
N521 H541 0.862 . S
C522 C517 1.501 . S
C522 H523 0.961 . S
C522 H524 0.961 . S
C522 H525 0.960 . S
H523 C522 0.961 . S
H524 C522 0.961 . S
H525 C522 0.960 . S
C526 N527 1.342 . S
C526 C530 1.401 . S
C526 C531 1.499 . S
N527 Co510 1.989 . S
N527 C526 1.342 . S
N527 N528 1.388 . S
N528 Co511 1.993 . S
N528 N527 1.388 . S
N528 C529 1.346 . S
C529 N528 1.346 . S
C529 C530 1.396 . S
C529 C539 1.510 . S
C530 C526 1.401 . S
C530 C529 1.396 . S
C531 C526 1.499 . S
C531 H532 0.959 . S
C531 H533 0.960 . S
C531 H534 0.961 . S
H532 C531 0.959 . S
H533 C531 0.960 . S
H534 C531 0.961 . S
O535 Co510 1.967 . S
O535 C543 1.258 . S
O536 Co511 1.941 . S
O536 C543 1.266 . S
H537 C539 0.959 . S
H538 C539 0.961 . S
C539 C529 1.510 . S
C539 H537 0.959 . S
C539 H538 0.961 . S
C539 H540 0.960 . S
H540 C539 0.960 . S
H541 N521 0.862 . S
O542 Co510 1.920 . S
O542 C515 1.289 . S
C543 O535 1.258 . S
C543 O536 1.266 . S
H544 C550 0.930 . S
H545 C554 0.930 . S
H546 C559 0.929 . S
H547 C557 0.929 . S
H548 C552 0.929 . S
H549 C558 0.929 . S
C550 H544 0.930 . S
C550 C551 1.367 . S
C550 C558 1.378 . S
C551 C550 1.367 . S
C551 C559 1.433 . S
C552 H548 0.929 . S
C552 C554 1.378 . S
C552 C556 1.350 . S
C553 C556 1.463 . S
C553 C558 1.350 . S
C553 N561 1.427 . S
C554 H545 0.930 . S
C554 C552 1.378 . S
C554 C555 1.367 . S
C555 C554 1.367 . S
C555 C557 1.433 . S
C556 C552 1.350 . S
C556 C553 1.463 . S
C556 N560 1.427 . S
C557 H547 0.929 . S
C557 C555 1.433 . S
C557 N560 1.384 . S
C558 H549 0.929 . S
C558 C550 1.378 . S
C558 C553 1.350 . S
C559 H546 0.929 . S
C559 C551 1.433 . S
C559 N561 1.384 . S
N560 C556 1.427 . S
N560 C557 1.384 . S
N561 C553 1.427 . S
N561 C559 1.384 . S
H562 C568 0.930 . S
H563 C572 0.930 . S
H564 C577 0.929 . S
H565 C575 0.929 . S
H566 C570 0.929 . S
H567 C576 0.929 . S
C568 H562 0.930 . S
C568 C569 1.367 . S
C568 C576 1.378 . S
C569 C568 1.367 . S
C569 C577 1.433 . S
C570 H566 0.929 . S
C570 C572 1.378 . S
C570 C574 1.350 . S
C571 C574 1.463 1_665 S
C571 C576 1.350 . S
C571 N579 1.427 . S
C572 H563 0.930 . S
C572 C570 1.378 . S
C572 C573 1.367 . S
C573 C572 1.367 . S
C573 C575 1.433 . S
C574 C570 1.350 . S
C574 C571 1.463 1_445 S
C574 N578 1.427 . S
C575 H565 0.929 . S
C575 C573 1.433 . S
C575 N578 1.384 . S
C576 H567 0.929 . S
C576 C568 1.378 . S
C576 C571 1.350 . S
C577 H564 0.929 . S
C577 C569 1.433 . S
C577 N579 1.384 . S
N578 C574 1.427 . S
N578 C575 1.384 . S
N579 C571 1.427 . S
N579 C577 1.384 . S
H580 C586 0.930 . S
H581 C590 0.930 . S
H582 C595 0.929 . S
H583 C593 0.929 . S
H584 C588 0.929 . S
H585 C594 0.929 . S
C586 H580 0.930 . S
C586 C587 1.367 . S
C586 C594 1.378 . S
C587 C586 1.367 . S
C587 C595 1.433 . S
C588 H584 0.929 . S
C588 C590 1.378 . S
C588 C592 1.350 . S
C589 C592 1.463 1_545 S
C589 C594 1.350 . S
C589 N597 1.427 . S
C590 H581 0.930 . S
C590 C588 1.378 . S
C590 C591 1.367 . S
C591 C590 1.367 . S
C591 C593 1.433 . S
C592 C588 1.350 . S
C592 C589 1.463 1_565 S
C592 N596 1.427 . S
C593 H583 0.929 . S
C593 C591 1.433 . S
C593 N596 1.384 . S
C594 H585 0.929 . S
C594 C586 1.378 . S
C594 C589 1.350 . S
C595 H582 0.929 . S
C595 C587 1.433 . S
C595 N597 1.384 . S
N596 C592 1.427 . S
N596 C593 1.384 . S
N597 C589 1.427 . S
N597 C595 1.384 . S
H598 C604 0.930 . S
H599 C608 0.930 . S
H600 C613 0.929 . S
H601 C611 0.929 . S
H602 C606 0.929 . S
H603 C612 0.929 . S
C604 H598 0.930 . S
C604 C605 1.367 . S
C604 C612 1.378 . S
C605 C604 1.367 . S
C605 C613 1.433 1_655 S
C606 H602 0.929 . S
C606 C608 1.378 . S
C606 C610 1.350 . S
C607 C610 1.463 1_655 S
C607 C612 1.350 . S
C607 N615 1.427 1_655 S
C608 H599 0.930 . S
C608 C606 1.378 . S
C608 C609 1.367 . S
C609 C608 1.367 . S
C609 C611 1.433 1_455 S
C610 C606 1.350 . S
C610 C607 1.463 1_455 S
C610 N614 1.427 1_455 S
C611 H601 0.929 . S
C611 C609 1.433 1_655 S
C611 N614 1.384 . S
C612 H603 0.929 . S
C612 C604 1.378 . S
C612 C607 1.350 . S
C613 H600 0.929 . S
C613 C605 1.433 1_455 S
C613 N615 1.384 . S
N614 C610 1.427 1_655 S
N614 C611 1.384 . S
N615 C607 1.427 1_455 S
N615 C613 1.384 . S
H616 C622 0.930 . S
H617 C626 0.930 . S
H618 C631 0.929 . S
H619 C629 0.929 . S
H620 C624 0.929 . S
H621 C630 0.929 . S
C622 H616 0.930 . S
C622 C623 1.367 . S
C622 C630 1.378 . S
C623 C622 1.367 . S
C623 C631 1.433 . S
C624 H620 0.929 . S
C624 C626 1.378 . S
C624 C628 1.350 . S
C625 C628 1.463 . S
C625 C630 1.350 . S
C625 N633 1.427 . S
C626 H617 0.930 . S
C626 C624 1.378 . S
C626 C627 1.367 . S
C627 C626 1.367 . S
C627 C629 1.433 . S
C628 C624 1.350 . S
C628 C625 1.463 . S
C628 N632 1.427 . S
C629 H619 0.929 . S
C629 C627 1.433 . S
C629 N632 1.384 . S
C630 H621 0.929 . S
C630 C622 1.378 . S
C630 C625 1.350 . S
C631 H618 0.929 . S
C631 C623 1.433 . S
C631 N633 1.384 . S
N632 C628 1.427 . S
N632 C629 1.384 . S
N633 C625 1.427 . S
N633 C631 1.384 . S
H634 C640 0.930 . S
H635 C644 0.930 . S
H636 C649 0.929 . S
H637 C647 0.929 . S
H638 C642 0.929 . S
H639 C648 0.929 . S
C640 H634 0.930 . S
C640 C641 1.367 . S
C640 C648 1.378 . S
C641 C640 1.367 . S
C641 C649 1.433 . S
C642 H638 0.929 . S
C642 C644 1.378 . S
C642 C646 1.350 . S
C643 C646 1.463 1_565 S
C643 C648 1.350 . S
C643 N651 1.427 . S
C644 H635 0.930 . S
C644 C642 1.378 . S
C644 C645 1.367 . S
C645 C644 1.367 . S
C645 C647 1.433 . S
C646 C642 1.350 . S
C646 C643 1.463 1_545 S
C646 N650 1.427 . S
C647 H637 0.929 . S
C647 C645 1.433 . S
C647 N650 1.384 . S
C648 H639 0.929 . S
C648 C640 1.378 . S
C648 C643 1.350 . S
C649 H636 0.929 . S
C649 C641 1.433 . S
C649 N651 1.384 . S
N650 C646 1.427 . S
N650 C647 1.384 . S
N651 C643 1.427 . S
N651 C649 1.384 . S
H652 C658 0.930 . S
H653 C662 0.930 . S
H654 C667 0.929 . S
H655 C665 0.929 . S
H656 C660 0.929 . S
H657 C666 0.929 . S
C658 H652 0.930 . S
C658 C659 1.367 1_455 S
C658 C666 1.378 . S
C659 C658 1.367 1_655 S
C659 C667 1.433 . S
C660 H656 0.929 . S
C660 C662 1.378 . S
C660 C664 1.343 1_655 S
C661 C664 1.462 1_655 S
C661 C666 1.343 1_655 S
C661 N669 1.435 . S
C662 H653 0.930 . S
C662 C660 1.378 . S
C662 C663 1.367 1_655 S
C663 C662 1.367 1_455 S
C663 C665 1.433 . S
C664 C660 1.343 1_455 S
C664 C661 1.462 1_455 S
C664 N668 1.435 . S
C665 H655 0.929 . S
C665 C663 1.433 . S
C665 N668 1.384 . S
C666 H657 0.929 . S
C666 C658 1.378 . S
C666 C661 1.343 1_455 S
C667 H654 0.929 . S
C667 C659 1.433 . S
C667 N669 1.384 . S
N668 C664 1.435 . S
N668 C665 1.384 . S
N669 C661 1.435 . S
N669 C667 1.384 . S
H670 C676 0.930 . S
H671 C680 0.930 . S
H672 C685 0.929 . S
H673 C683 0.929 . S
H674 C678 0.929 . S
H675 C684 0.929 . S
C676 H670 0.930 . S
C676 C677 1.367 1_556 S
C676 C684 1.378 . S
C677 C676 1.367 1_554 S
C677 C685 1.433 . S
C678 H674 0.929 . S
C678 C680 1.378 . S
C678 C682 1.350 1_554 S
C679 C682 1.463 1_554 S
C679 C684 1.350 1_554 S
C679 N687 1.427 . S
C680 H671 0.930 . S
C680 C678 1.378 . S
C680 C681 1.367 1_554 S
C681 C680 1.367 1_556 S
C681 C683 1.433 . S
C682 C678 1.350 1_556 S
C682 C679 1.463 1_556 S
C682 N686 1.427 . S
C683 H673 0.929 . S
C683 C681 1.433 . S
C683 N686 1.384 . S
C684 H675 0.929 . S
C684 C676 1.378 . S
C684 C679 1.350 1_556 S
C685 H672 0.929 . S
C685 C677 1.433 . S
C685 N687 1.384 . S
N686 C682 1.427 . S
N686 C683 1.384 . S
N687 C679 1.427 . S
N687 C685 1.384 . S
H688 C694 0.930 . S
H689 C698 0.930 . S
H690 C703 0.929 . S
H691 C701 0.929 . S
H692 C696 0.929 . S
H693 C702 0.929 . S
C694 H688 0.930 . S
C694 C695 1.367 . S
C694 C702 1.378 . S
C695 C694 1.367 . S
C695 C703 1.433 1_554 S
C696 H692 0.929 . S
C696 C698 1.378 . S
C696 C700 1.350 . S
C697 C700 1.463 1_654 S
C697 C702 1.350 . S
C697 N705 1.427 1_554 S
C698 H689 0.930 . S
C698 C696 1.378 . S
C698 C699 1.367 . S
C699 C698 1.367 . S
C699 C701 1.433 1_556 S
C700 C696 1.350 . S
C700 C697 1.463 1_456 S
C700 N704 1.427 1_556 S
C701 H691 0.929 . S
C701 C699 1.433 1_554 S
C701 N704 1.384 . S
C702 H693 0.929 . S
C702 C694 1.378 . S
C702 C697 1.350 . S
C703 H690 0.929 . S
C703 C695 1.433 1_556 S
C703 N705 1.384 . S
N704 C700 1.427 1_554 S
N704 C701 1.384 . S
N705 C697 1.427 1_556 S
N705 C703 1.384 . S
H706 C712 0.930 . S
H707 C716 0.930 . S
H708 C721 0.929 . S
H709 C719 0.929 . S
H710 C714 0.929 . S
H711 C720 0.929 . S
C712 H706 0.930 . S
C712 C713 1.367 . S
C712 C720 1.378 . S
C713 C712 1.367 . S
C713 C721 1.433 . S
C714 H710 0.929 . S
C714 C716 1.378 . S
C714 C718 1.350 . S
C715 C718 1.463 . S
C715 C720 1.350 . S
C715 N723 1.427 . S
C716 H707 0.930 . S
C716 C714 1.378 . S
C716 C717 1.367 . S
C717 C716 1.367 . S
C717 C719 1.433 . S
C718 C714 1.350 . S
C718 C715 1.463 . S
C718 N722 1.427 . S
C719 H709 0.929 . S
C719 C717 1.433 . S
C719 N722 1.384 . S
C720 H711 0.929 . S
C720 C712 1.378 . S
C720 C715 1.350 . S
C721 H708 0.929 . S
C721 C713 1.433 . S
C721 N723 1.384 . S
N722 C718 1.427 . S
N722 C719 1.384 . S
N723 C715 1.427 . S
N723 C721 1.384 . S
H724 C730 0.930 . S
H725 C734 0.930 . S
H726 C739 0.929 . S
H727 C737 0.929 . S
H728 C732 0.929 . S
H729 C738 0.929 . S
C730 H724 0.930 . S
C730 C731 1.367 1_554 S
C730 C738 1.378 . S
C731 C730 1.367 1_556 S
C731 C739 1.433 . S
C732 H728 0.929 . S
C732 C734 1.378 . S
C732 C736 1.350 1_556 S
C733 C736 1.463 1_556 S
C733 C738 1.350 1_556 S
C733 N741 1.427 . S
C734 H725 0.930 . S
C734 C732 1.378 . S
C734 C735 1.367 1_556 S
C735 C734 1.367 1_554 S
C735 C737 1.433 . S
C736 C732 1.350 1_554 S
C736 C733 1.463 1_554 S
C736 N740 1.427 . S
C737 H727 0.929 . S
C737 C735 1.433 . S
C737 N740 1.384 . S
C738 H729 0.929 . S
C738 C730 1.378 . S
C738 C733 1.350 1_554 S
C739 H726 0.929 . S
C739 C731 1.433 . S
C739 N741 1.384 . S
N740 C736 1.427 . S
N740 C737 1.384 . S
N741 C733 1.427 . S
N741 C739 1.384 . S
H742 C748 0.930 . S
H743 C752 0.930 . S
H744 C757 0.929 . S
H745 C755 0.929 . S
H746 C750 0.929 . S
H747 C756 0.929 . S
C748 H742 0.930 . S
C748 C749 1.367 . S
C748 C756 1.378 . S
C749 C748 1.367 . S
C749 C757 1.433 . S
C750 H746 0.929 . S
C750 C752 1.378 . S
C750 C754 1.350 . S
C751 C754 1.463 . S
C751 C756 1.350 . S
C751 N759 1.427 . S
C752 H743 0.930 . S
C752 C750 1.378 . S
C752 C753 1.367 . S
C753 C752 1.367 . S
C753 C755 1.433 . S
C754 C750 1.350 . S
C754 C751 1.463 . S
C754 N758 1.427 . S
C755 H745 0.929 . S
C755 C753 1.433 . S
C755 N758 1.384 . S
C756 H747 0.929 . S
C756 C748 1.378 . S
C756 C751 1.350 . S
C757 H744 0.929 . S
C757 C749 1.433 . S
C757 N759 1.384 . S
N758 C754 1.427 . S
N758 C755 1.384 . S
N759 C751 1.427 . S
N759 C757 1.384 . S
H760 C766 0.930 . S
H761 C770 0.930 . S
H762 C775 0.929 . S
H763 C773 0.929 . S
H764 C768 0.929 . S
H765 C774 0.929 . S
C766 H760 0.930 . S
C766 C767 1.367 1_554 S
C766 C774 1.378 . S
C767 C766 1.367 1_556 S
C767 C775 1.433 . S
C768 H764 0.929 . S
C768 C770 1.378 . S
C768 C772 1.350 1_556 S
C769 C772 1.463 1_546 S
C769 C774 1.350 1_556 S
C769 N777 1.427 . S
C770 H761 0.930 . S
C770 C768 1.378 . S
C770 C771 1.367 1_556 S
C771 C770 1.367 1_554 S
C771 C773 1.433 . S
C772 C768 1.350 1_554 S
C772 C769 1.463 1_564 S
C772 N776 1.427 . S
C773 H763 0.929 . S
C773 C771 1.433 . S
C773 N776 1.384 . S
C774 H765 0.929 . S
C774 C766 1.378 . S
C774 C769 1.350 1_554 S
C775 H762 0.929 . S
C775 C767 1.433 . S
C775 N777 1.384 . S
N776 C772 1.427 . S
N776 C773 1.384 . S
N777 C769 1.427 . S
N777 C775 1.384 . S
H778 C784 0.930 . S
H779 C788 0.930 . S
H780 C793 0.929 . S
H781 C791 0.929 . S
H782 C786 0.929 . S
H783 C792 0.929 . S
C784 H778 0.930 . S
C784 C785 1.367 . S
C784 C792 1.378 . S
C785 C784 1.367 . S
C785 C793 1.433 . S
C786 H782 0.929 . S
C786 C788 1.378 . S
C786 C790 1.350 . S
C787 C790 1.463 . S
C787 C792 1.350 . S
C787 N795 1.427 . S
C788 H779 0.930 . S
C788 C786 1.378 . S
C788 C789 1.367 . S
C789 C788 1.367 . S
C789 C791 1.433 . S
C790 C786 1.350 . S
C790 C787 1.463 . S
C790 N794 1.427 . S
C791 H781 0.929 . S
C791 C789 1.433 . S
C791 N794 1.384 . S
C792 H783 0.929 . S
C792 C784 1.378 . S
C792 C787 1.350 . S
C793 H780 0.929 . S
C793 C785 1.433 . S
C793 N795 1.384 . S
N794 C790 1.427 . S
N794 C791 1.384 . S
N795 C787 1.427 . S
N795 C793 1.384 . S
H796 C802 0.930 . S
H797 C806 0.930 . S
H798 C811 0.929 . S
H799 C809 0.929 . S
H800 C804 0.929 . S
H801 C810 0.929 . S
C802 H796 0.930 . S
C802 C803 1.367 . S
C802 C810 1.378 . S
C803 C802 1.367 . S
C803 C811 1.433 . S
C804 H800 0.929 . S
C804 C806 1.378 . S
C804 C808 1.350 . S
C805 C808 1.463 . S
C805 C810 1.350 . S
C805 N813 1.427 . S
C806 H797 0.930 . S
C806 C804 1.378 . S
C806 C807 1.367 . S
C807 C806 1.367 . S
C807 C809 1.433 . S
C808 C804 1.350 . S
C808 C805 1.463 . S
C808 N812 1.427 . S
C809 H799 0.929 . S
C809 C807 1.433 . S
C809 N812 1.384 . S
C810 H801 0.929 . S
C810 C802 1.378 . S
C810 C805 1.350 . S
C811 H798 0.929 . S
C811 C803 1.433 . S
C811 N813 1.384 . S
N812 C808 1.427 . S
N812 C809 1.384 . S
N813 C805 1.427 . S
N813 C811 1.384 . S
H814 C820 0.930 . S
H815 C824 0.930 . S
H816 C829 0.929 . S
H817 C827 0.929 . S
H818 C822 0.929 . S
H819 C828 0.929 . S
C820 H814 0.930 . S
C820 C821 1.367 . S
C820 C828 1.378 . S
C821 C820 1.367 . S
C821 C829 1.433 . S
C822 H818 0.929 . S
C822 C824 1.378 . S
C822 C826 1.350 . S
C823 C826 1.463 . S
C823 C828 1.350 . S
C823 N831 1.427 . S
C824 H815 0.930 . S
C824 C822 1.378 . S
C824 C825 1.367 . S
C825 C824 1.367 . S
C825 C827 1.433 . S
C826 C822 1.350 . S
C826 C823 1.463 . S
C826 N830 1.427 . S
C827 H817 0.929 . S
C827 C825 1.433 . S
C827 N830 1.384 . S
C828 H819 0.929 . S
C828 C820 1.378 . S
C828 C823 1.350 . S
C829 H816 0.929 . S
C829 C821 1.433 . S
C829 N831 1.384 . S
N830 C826 1.427 . S
N830 C827 1.384 . S
N831 C823 1.427 . S
N831 C829 1.384 . S
H832 C838 0.930 . S
H833 C842 0.930 . S
H834 C847 0.929 . S
H835 C845 0.929 . S
H836 C840 0.929 . S
H837 C846 0.929 . S
C838 H832 0.930 . S
C838 C839 1.367 . S
C838 C846 1.378 . S
C839 C838 1.367 . S
C839 C847 1.433 . S
C840 H836 0.929 . S
C840 C842 1.378 . S
C840 C844 1.350 . S
C841 C844 1.463 . S
C841 C846 1.350 . S
C841 N849 1.427 . S
C842 H833 0.930 . S
C842 C840 1.378 . S
C842 C843 1.367 . S
C843 C842 1.367 . S
C843 C845 1.433 . S
C844 C840 1.350 . S
C844 C841 1.463 . S
C844 N848 1.427 . S
C845 H835 0.929 . S
C845 C843 1.433 . S
C845 N848 1.384 . S
C846 H837 0.929 . S
C846 C838 1.378 . S
C846 C841 1.350 . S
C847 H834 0.929 . S
C847 C839 1.433 . S
C847 N849 1.384 . S
N848 C844 1.427 . S
N848 C845 1.384 . S
N849 C841 1.427 . S
N849 C847 1.384 . S
H850 C856 0.930 . S
H851 C860 0.930 . S
H852 C865 0.929 . S
H853 C863 0.929 1_455 S
H854 C858 0.929 . S
H855 C864 0.929 . S
C856 H850 0.930 . S
C856 C857 1.367 . S
C856 C864 1.378 . S
C857 C856 1.367 . S
C857 C865 1.433 . S
C858 H854 0.929 . S
C858 C860 1.378 . S
C858 C862 1.350 . S
C859 C862 1.463 . S
C859 C864 1.350 . S
C859 N867 1.427 . S
C860 H851 0.930 . S
C860 C858 1.378 . S
C860 C861 1.367 . S
C861 C860 1.367 . S
C861 C863 1.433 . S
C862 C858 1.350 . S
C862 C859 1.463 . S
C862 N866 1.427 . S
C863 H853 0.929 1_655 S
C863 C861 1.433 . S
C863 N866 1.384 . S
C864 H855 0.929 . S
C864 C856 1.378 . S
C864 C859 1.350 . S
C865 H852 0.929 . S
C865 C857 1.433 . S
C865 N867 1.384 . S
N866 C862 1.427 . S
N866 C863 1.384 . S
N867 C859 1.427 . S
N867 C865 1.384 . S
H868 C874 0.930 . S
H869 C878 0.930 . S
H870 C883 0.929 . S
H871 C881 0.929 . S
H872 C876 0.929 . S
H873 C882 0.929 . S
C874 H868 0.930 . S
C874 C875 1.367 . S
C874 C882 1.378 . S
C875 C874 1.367 . S
C875 C883 1.433 . S
C876 H872 0.929 . S
C876 C878 1.378 . S
C876 C880 1.350 . S
C877 C880 1.463 . S
C877 C882 1.350 . S
C877 N885 1.427 . S
C878 H869 0.930 . S
C878 C876 1.378 . S
C878 C879 1.367 . S
C879 C878 1.367 . S
C879 C881 1.433 . S
C880 C876 1.350 . S
C880 C877 1.463 . S
C880 N884 1.427 . S
C881 H871 0.929 . S
C881 C879 1.433 . S
C881 N884 1.384 . S
C882 H873 0.929 . S
C882 C874 1.378 . S
C882 C877 1.350 . S
C883 H870 0.929 . S
C883 C875 1.433 . S
C883 N885 1.384 . S
N884 C880 1.427 . S
N884 C881 1.384 . S
N885 C877 1.427 . S
N885 C883 1.384 . S
H886 C892 0.930 . S
H887 C896 0.930 . S
H888 C901 0.929 1_455 S
H889 C899 0.929 . S
H890 C894 0.929 . S
H891 C900 0.929 . S
C892 H886 0.930 . S
C892 C893 1.367 . S
C892 C900 1.378 . S
C893 C892 1.367 . S
C893 C901 1.433 . S
C894 H890 0.929 . S
C894 C896 1.378 . S
C894 C898 1.350 . S
C895 C898 1.463 . S
C895 C900 1.350 . S
C895 N903 1.427 . S
C896 H887 0.930 . S
C896 C894 1.378 . S
C896 C897 1.367 . S
C897 C896 1.367 . S
C897 C899 1.433 . S
C898 C894 1.350 . S
C898 C895 1.463 . S
C898 N902 1.427 . S
C899 H889 0.929 . S
C899 C897 1.433 . S
C899 N902 1.384 . S
C900 H891 0.929 . S
C900 C892 1.378 . S
C900 C895 1.350 . S
C901 H888 0.929 1_655 S
C901 C893 1.433 . S
C901 N903 1.384 . S
N902 C898 1.427 . S
N902 C899 1.384 . S
N903 C895 1.427 . S
N903 C901 1.384 . S
H904 C910 0.930 . S
H905 C914 0.930 . S
H906 C919 0.929 . S
H907 C917 0.929 . S
H908 C912 0.929 . S
H909 C918 0.929 . S
C910 H904 0.930 . S
C910 C911 1.367 . S
C910 C918 1.378 . S
C911 C910 1.367 . S
C911 C919 1.433 . S
C912 H908 0.929 . S
C912 C914 1.378 . S
C912 C916 1.350 . S
C913 C916 1.463 . S
C913 C918 1.350 . S
C913 N921 1.427 . S
C914 H905 0.930 . S
C914 C912 1.378 . S
C914 C915 1.367 . S
C915 C914 1.367 . S
C915 C917 1.433 . S
C916 C912 1.350 . S
C916 C913 1.463 . S
C916 N920 1.427 . S
C917 H907 0.929 . S
C917 C915 1.433 . S
C917 N920 1.384 . S
C918 H909 0.929 . S
C918 C910 1.378 . S
C918 C913 1.350 . S
C919 H906 0.929 . S
C919 C911 1.433 . S
C919 N921 1.384 . S
N920 C916 1.427 . S
N920 C917 1.384 . S
N921 C913 1.427 . S
N921 C919 1.384 . S
H922 C928 0.930 . S
H923 C932 0.930 . S
H924 C937 0.929 . S
H925 C935 0.929 . S
H926 C930 0.929 . S
H927 C936 0.929 . S
C928 H922 0.930 . S
C928 C929 1.367 . S
C928 C936 1.378 . S
C929 C928 1.367 . S
C929 C937 1.433 . S
C930 H926 0.929 . S
C930 C932 1.378 . S
C930 C934 1.350 . S
C931 C934 1.463 . S
C931 C936 1.350 . S
C931 N939 1.427 . S
C932 H923 0.930 . S
C932 C930 1.378 . S
C932 C933 1.367 . S
C933 C932 1.367 . S
C933 C935 1.433 . S
C934 C930 1.350 . S
C934 C931 1.463 . S
C934 N938 1.427 . S
C935 H925 0.929 . S
C935 C933 1.433 . S
C935 N938 1.384 . S
C936 H927 0.929 . S
C936 C928 1.378 . S
C936 C931 1.350 . S
C937 H924 0.929 . S
C937 C929 1.433 . S
C937 N939 1.384 . S
N938 C934 1.427 . S
N938 C935 1.384 . S
N939 C931 1.427 . S
N939 C937 1.384 . S
H940 C946 0.930 . S
H941 C950 0.930 . S
H942 C955 0.929 . S
H943 C953 0.929 . S
H944 C948 0.929 . S
H945 C954 0.929 . S
C946 H940 0.930 . S
C946 C947 1.367 . S
C946 C954 1.378 . S
C947 C946 1.367 . S
C947 C955 1.433 . S
C948 H944 0.929 . S
C948 C950 1.378 . S
C948 C952 1.350 . S
C949 C952 1.463 . S
C949 C954 1.350 . S
C949 N957 1.427 . S
C950 H941 0.930 . S
C950 C948 1.378 . S
C950 C951 1.367 . S
C951 C950 1.367 . S
C951 C953 1.433 . S
C952 C948 1.350 . S
C952 C949 1.463 . S
C952 N956 1.427 . S
C953 H943 0.929 . S
C953 C951 1.433 . S
C953 N956 1.384 . S
C954 H945 0.929 . S
C954 C946 1.378 . S
C954 C949 1.350 . S
C955 H942 0.929 . S
C955 C947 1.433 . S
C955 N957 1.384 . S
N956 C952 1.427 . S
N956 C953 1.384 . S
N957 C949 1.427 . S
N957 C955 1.384 . S
H958 C964 0.930 1_655 S
H959 C968 0.930 . S
H960 C973 0.929 . S
H961 C971 0.929 . S
H962 C966 0.929 . S
H963 C972 0.929 . S
C964 H958 0.930 1_455 S
C964 C965 1.367 . S
C964 C972 1.378 . S
C965 C964 1.367 . S
C965 C973 1.433 . S
C966 H962 0.929 . S
C966 C968 1.378 . S
C966 C970 1.350 . S
C967 C970 1.463 . S
C967 C972 1.350 . S
C967 N975 1.427 . S
C968 H959 0.930 . S
C968 C966 1.378 . S
C968 C969 1.367 . S
C969 C968 1.367 . S
C969 C971 1.433 . S
C970 C966 1.350 . S
C970 C967 1.463 . S
C970 N974 1.427 . S
C971 H961 0.929 . S
C971 C969 1.433 . S
C971 N974 1.384 . S
C972 H963 0.929 . S
C972 C964 1.378 . S
C972 C967 1.350 . S
C973 H960 0.929 . S
C973 C965 1.433 . S
C973 N975 1.384 . S
N974 C970 1.427 . S
N974 C971 1.384 . S
N975 C967 1.427 . S
N975 C973 1.384 . S
H976 C982 0.930 . S
H977 C986 0.930 . S
H978 C991 0.929 . S
H979 C989 0.929 . S
H980 C984 0.929 . S
H981 C990 0.929 . S
C982 H976 0.930 . S
C982 C983 1.367 . S
C982 C990 1.378 . S
C983 C982 1.367 . S
C983 C991 1.433 . S
C984 H980 0.929 . S
C984 C986 1.378 . S
C984 C988 1.350 . S
C985 C988 1.463 . S
C985 C990 1.350 . S
C985 N993 1.427 . S
C986 H977 0.930 . S
C986 C984 1.378 . S
C986 C987 1.367 . S
C987 C986 1.367 . S
C987 C989 1.433 . S
C988 C984 1.350 . S
C988 C985 1.463 . S
C988 N992 1.427 . S
C989 H979 0.929 . S
C989 C987 1.433 . S
C989 N992 1.384 . S
C990 H981 0.929 . S
C990 C982 1.378 . S
C990 C985 1.350 . S
C991 H978 0.929 . S
C991 C983 1.433 . S
C991 N993 1.384 . S
N992 C988 1.427 . S
N992 C989 1.384 . S
N993 C985 1.427 . S
N993 C991 1.384 . S
H994 C1000 0.930 . S
H995 C1004 0.930 . S
H996 C1009 0.929 . S
H997 C1007 0.929 . S
H998 C1002 0.929 . S
H999 C1008 0.929 . S
C1000 H994 0.930 . S
C1000 C1001 1.367 . S
C1000 C1008 1.378 . S
C1001 C1000 1.367 . S
C1001 C1009 1.433 . S
C1002 H998 0.929 . S
C1002 C1004 1.378 . S
C1002 C1006 1.350 . S
C1003 C1006 1.463 . S
C1003 C1008 1.350 . S
C1003 N1011 1.427 . S
C1004 H995 0.930 . S
C1004 C1002 1.378 . S
C1004 C1005 1.367 . S
C1005 C1004 1.367 . S
C1005 C1007 1.433 . S
C1006 C1002 1.350 . S
C1006 C1003 1.463 . S
C1006 N1010 1.427 . S
C1007 H997 0.929 . S
C1007 C1005 1.433 . S
C1007 N1010 1.384 . S
C1008 H999 0.929 . S
C1008 C1000 1.378 . S
C1008 C1003 1.350 . S
C1009 H996 0.929 . S
C1009 C1001 1.433 . S
C1009 N1011 1.384 . S
N1010 C1006 1.427 . S
N1010 C1007 1.384 . S
N1011 C1003 1.427 . S
N1011 C1009 1.384 . S
H1012 C1018 0.930 . S
H1013 C1022 0.930 . S
H1014 C1027 0.929 . S
H1015 C1025 0.929 . S
H1016 C1020 0.929 . S
H1017 C1026 0.929 . S
C1018 H1012 0.930 . S
C1018 C1019 1.367 . S
C1018 C1026 1.378 . S
C1019 C1018 1.367 . S
C1019 C1027 1.433 . S
C1020 H1016 0.929 . S
C1020 C1022 1.378 . S
C1020 C1024 1.350 . S
C1021 C1024 1.463 . S
C1021 C1026 1.350 . S
C1021 N1029 1.427 . S
C1022 H1013 0.930 . S
C1022 C1020 1.378 . S
C1022 C1023 1.367 . S
C1023 C1022 1.367 . S
C1023 C1025 1.433 . S
C1024 C1020 1.350 . S
C1024 C1021 1.463 . S
C1024 N1028 1.427 . S
C1025 H1015 0.929 . S
C1025 C1023 1.433 . S
C1025 N1028 1.384 . S
C1026 H1017 0.929 . S
C1026 C1018 1.378 . S
C1026 C1021 1.350 . S
C1027 H1014 0.929 . S
C1027 C1019 1.433 . S
C1027 N1029 1.384 . S
N1028 C1024 1.427 . S
N1028 C1025 1.384 . S
N1029 C1021 1.427 . S
N1029 C1027 1.384 . S
H1030 C1036 0.930 . S
H1031 C1040 0.930 . S
H1032 C1045 0.929 . S
H1033 C1043 0.929 1_455 S
H1034 C1038 0.929 . S
H1035 C1044 0.929 . S
C1036 H1030 0.930 . S
C1036 C1037 1.367 . S
C1036 C1044 1.378 . S
C1037 C1036 1.367 . S
C1037 C1045 1.433 . S
C1038 H1034 0.929 . S
C1038 C1040 1.378 . S
C1038 C1042 1.350 . S
C1039 C1042 1.463 . S
C1039 C1044 1.350 . S
C1039 N1047 1.427 . S
C1040 H1031 0.930 . S
C1040 C1038 1.378 . S
C1040 C1041 1.367 . S
C1041 C1040 1.367 . S
C1041 C1043 1.433 . S
C1042 C1038 1.350 . S
C1042 C1039 1.463 . S
C1042 N1046 1.427 . S
C1043 H1033 0.929 1_655 S
C1043 C1041 1.433 . S
C1043 N1046 1.384 . S
C1044 H1035 0.929 . S
C1044 C1036 1.378 . S
C1044 C1039 1.350 . S
C1045 H1032 0.929 . S
C1045 C1037 1.433 . S
C1045 N1047 1.384 . S
N1046 C1042 1.427 . S
N1046 C1043 1.384 . S
N1047 C1039 1.427 . S
N1047 C1045 1.384 . S
H1048 C1054 0.930 . S
H1049 C1058 0.930 . S
H1050 C1063 0.929 . S
H1051 C1061 0.929 . S
H1052 C1056 0.929 . S
H1053 C1062 0.929 . S
C1054 H1048 0.930 . S
C1054 C1055 1.367 . S
C1054 C1062 1.378 . S
C1055 C1054 1.367 . S
C1055 C1063 1.433 . S
C1056 H1052 0.929 . S
C1056 C1058 1.378 . S
C1056 C1060 1.350 . S
C1057 C1060 1.463 . S
C1057 C1062 1.350 . S
C1057 N1065 1.427 . S
C1058 H1049 0.930 . S
C1058 C1056 1.378 . S
C1058 C1059 1.367 . S
C1059 C1058 1.367 . S
C1059 C1061 1.433 . S
C1060 C1056 1.350 . S
C1060 C1057 1.463 . S
C1060 N1064 1.427 . S
C1061 H1051 0.929 . S
C1061 C1059 1.433 . S
C1061 N1064 1.384 . S
C1062 H1053 0.929 . S
C1062 C1054 1.378 . S
C1062 C1057 1.350 . S
C1063 H1050 0.929 . S
C1063 C1055 1.433 . S
C1063 N1065 1.384 . S
N1064 C1060 1.427 . S
N1064 C1061 1.384 . S
N1065 C1057 1.427 . S
N1065 C1063 1.384 . S
H1066 C1072 0.930 . S
H1067 C1076 0.930 . S
H1068 C1081 0.929 1_655 S
H1069 C1079 0.929 . S
H1070 C1074 0.929 . S
H1071 C1080 0.929 . S
C1072 H1066 0.930 . S
C1072 C1073 1.367 . S
C1072 C1080 1.378 . S
C1073 C1072 1.367 . S
C1073 C1081 1.433 . S
C1074 H1070 0.929 . S
C1074 C1076 1.378 . S
C1074 C1078 1.350 . S
C1075 C1078 1.463 . S
C1075 C1080 1.350 . S
C1075 N1083 1.427 . S
C1076 H1067 0.930 . S
C1076 C1074 1.378 . S
C1076 C1077 1.367 . S
C1077 C1076 1.367 . S
C1077 C1079 1.433 . S
C1078 C1074 1.350 . S
C1078 C1075 1.463 . S
C1078 N1082 1.427 . S
C1079 H1069 0.929 . S
C1079 C1077 1.433 . S
C1079 N1082 1.384 . S
C1080 H1071 0.929 . S
C1080 C1072 1.378 . S
C1080 C1075 1.350 . S
C1081 H1068 0.929 1_455 S
C1081 C1073 1.433 . S
C1081 N1083 1.384 . S
N1082 C1078 1.427 . S
N1082 C1079 1.384 . S
N1083 C1075 1.427 . S
N1083 C1081 1.384 . S
H1084 C1090 0.930 . S
H1085 C1094 0.930 . S
H1086 C1099 0.929 . S
H1087 C1097 0.929 . S
H1088 C1092 0.929 . S
H1089 C1098 0.929 . S
C1090 H1084 0.930 . S
C1090 C1091 1.367 . S
C1090 C1098 1.378 . S
C1091 C1090 1.367 . S
C1091 C1099 1.433 . S
C1092 H1088 0.929 . S
C1092 C1094 1.378 . S
C1092 C1096 1.350 . S
C1093 C1096 1.463 . S
C1093 C1098 1.350 . S
C1093 N1101 1.427 . S
C1094 H1085 0.930 . S
C1094 C1092 1.378 . S
C1094 C1095 1.367 . S
C1095 C1094 1.367 . S
C1095 C1097 1.433 . S
C1096 C1092 1.350 . S
C1096 C1093 1.463 . S
C1096 N1100 1.427 . S
C1097 H1087 0.929 . S
C1097 C1095 1.433 . S
C1097 N1100 1.384 . S
C1098 H1089 0.929 . S
C1098 C1090 1.378 . S
C1098 C1093 1.350 . S
C1099 H1086 0.929 . S
C1099 C1091 1.433 . S
C1099 N1101 1.384 . S
N1100 C1096 1.427 . S
N1100 C1097 1.384 . S
N1101 C1093 1.427 . S
N1101 C1099 1.384 . S
H1102 C1108 0.930 . S
H1103 C1112 0.930 . S
H1104 C1117 0.929 . S
H1105 C1115 0.929 . S
H1106 C1110 0.929 . S
H1107 C1116 0.929 . S
C1108 H1102 0.930 . S
C1108 C1109 1.367 . S
C1108 C1116 1.378 . S
C1109 C1108 1.367 . S
C1109 C1117 1.433 . S
C1110 H1106 0.929 . S
C1110 C1112 1.378 . S
C1110 C1114 1.350 . S
C1111 C1114 1.463 . S
C1111 C1116 1.350 . S
C1111 N1119 1.427 . S
C1112 H1103 0.930 . S
C1112 C1110 1.378 . S
C1112 C1113 1.367 . S
C1113 C1112 1.367 . S
C1113 C1115 1.433 . S
C1114 C1110 1.350 . S
C1114 C1111 1.463 . S
C1114 N1118 1.427 . S
C1115 H1105 0.929 . S
C1115 C1113 1.433 . S
C1115 N1118 1.384 . S
C1116 H1107 0.929 . S
C1116 C1108 1.378 . S
C1116 C1111 1.350 . S
C1117 H1104 0.929 . S
C1117 C1109 1.433 . S
C1117 N1119 1.384 . S
N1118 C1114 1.427 . S
N1118 C1115 1.384 . S
N1119 C1111 1.427 . S
N1119 C1117 1.384 . S
H1120 C1126 0.930 . S
H1121 C1130 0.930 . S
H1122 C1135 0.929 . S
H1123 C1133 0.929 . S
H1124 C1128 0.929 . S
H1125 C1134 0.929 . S
C1126 H1120 0.930 . S
C1126 C1127 1.367 . S
C1126 C1134 1.378 . S
C1127 C1126 1.367 . S
C1127 C1135 1.433 . S
C1128 H1124 0.929 . S
C1128 C1130 1.378 . S
C1128 C1132 1.350 . S
C1129 C1132 1.463 . S
C1129 C1134 1.350 . S
C1129 N1137 1.427 . S
C1130 H1121 0.930 . S
C1130 C1128 1.378 . S
C1130 C1131 1.367 . S
C1131 C1130 1.367 . S
C1131 C1133 1.433 . S
C1132 C1128 1.350 . S
C1132 C1129 1.463 . S
C1132 N1136 1.427 . S
C1133 H1123 0.929 . S
C1133 C1131 1.433 . S
C1133 N1136 1.384 . S
C1134 H1125 0.929 . S
C1134 C1126 1.378 . S
C1134 C1129 1.350 . S
C1135 H1122 0.929 . S
C1135 C1127 1.433 . S
C1135 N1137 1.384 . S
N1136 C1132 1.427 . S
N1136 C1133 1.384 . S
N1137 C1129 1.427 . S
N1137 C1135 1.384 . S
H1138 C1144 0.930 . S
H1139 C1148 0.930 . S
H1140 C1153 0.929 . S
H1141 C1151 0.929 . S
H1142 C1146 0.929 . S
H1143 C1152 0.929 . S
C1144 H1138 0.930 . S
C1144 C1145 1.367 . S
C1144 C1152 1.378 . S
C1145 C1144 1.367 . S
C1145 C1153 1.433 . S
C1146 H1142 0.929 . S
C1146 C1148 1.378 . S
C1146 C1150 1.350 . S
C1147 C1150 1.463 . S
C1147 C1152 1.350 . S
C1147 N1155 1.427 . S
C1148 H1139 0.930 . S
C1148 C1146 1.378 . S
C1148 C1149 1.367 . S
C1149 C1148 1.367 . S
C1149 C1151 1.433 . S
C1150 C1146 1.350 . S
C1150 C1147 1.463 . S
C1150 N1154 1.427 . S
C1151 H1141 0.929 . S
C1151 C1149 1.433 . S
C1151 N1154 1.384 . S
C1152 H1143 0.929 . S
C1152 C1144 1.378 . S
C1152 C1147 1.350 . S
C1153 H1140 0.929 . S
C1153 C1145 1.433 . S
C1153 N1155 1.384 . S
N1154 C1150 1.427 . S
N1154 C1151 1.384 . S
N1155 C1147 1.427 . S
N1155 C1153 1.384 . S
H1156 C1162 0.930 . S
H1157 C1166 0.930 . S
H1158 C1171 0.929 . S
H1159 C1169 0.929 . S
H1160 C1164 0.929 . S
H1161 C1170 0.929 . S
C1162 H1156 0.930 . S
C1162 C1163 1.367 . S
C1162 C1170 1.378 . S
C1163 C1162 1.367 . S
C1163 C1171 1.433 . S
C1164 H1160 0.929 . S
C1164 C1166 1.378 . S
C1164 C1168 1.350 . S
C1165 C1168 1.463 . S
C1165 C1170 1.350 . S
C1165 N1173 1.427 . S
C1166 H1157 0.930 . S
C1166 C1164 1.378 . S
C1166 C1167 1.367 . S
C1167 C1166 1.367 . S
C1167 C1169 1.433 . S
C1168 C1164 1.350 . S
C1168 C1165 1.463 . S
C1168 N1172 1.427 . S
C1169 H1159 0.929 . S
C1169 C1167 1.433 . S
C1169 N1172 1.384 . S
C1170 H1161 0.929 . S
C1170 C1162 1.378 . S
C1170 C1165 1.350 . S
C1171 H1158 0.929 . S
C1171 C1163 1.433 . S
C1171 N1173 1.384 . S
N1172 C1168 1.427 . S
N1172 C1169 1.384 . S
N1173 C1165 1.427 . S
N1173 C1171 1.384 . S
H1174 C1180 0.930 . S
H1175 C1184 0.930 . S
H1176 C1189 0.929 . S
H1177 C1187 0.929 . S
H1178 C1182 0.929 . S
H1179 C1188 0.929 . S
C1180 H1174 0.930 . S
C1180 C1181 1.367 . S
C1180 C1188 1.378 . S
C1181 C1180 1.367 . S
C1181 C1189 1.433 . S
C1182 H1178 0.929 . S
C1182 C1184 1.378 . S
C1182 C1186 1.350 . S
C1183 C1186 1.463 . S
C1183 C1188 1.350 . S
C1183 N1191 1.427 . S
C1184 H1175 0.930 . S
C1184 C1182 1.378 . S
C1184 C1185 1.367 . S
C1185 C1184 1.367 . S
C1185 C1187 1.433 . S
C1186 C1182 1.350 . S
C1186 C1183 1.463 . S
C1186 N1190 1.427 . S
C1187 H1177 0.929 . S
C1187 C1185 1.433 . S
C1187 N1190 1.384 . S
C1188 H1179 0.929 . S
C1188 C1180 1.378 . S
C1188 C1183 1.350 . S
C1189 H1176 0.929 . S
C1189 C1181 1.433 . S
C1189 N1191 1.384 . S
N1190 C1186 1.427 . S
N1190 C1187 1.384 . S
N1191 C1183 1.427 . S
N1191 C1189 1.384 . S
H1192 C1198 0.930 . S
H1193 C1202 0.930 . S
H1194 C1207 0.929 . S
H1195 C1205 0.929 . S
H1196 C1200 0.929 . S
H1197 C1206 0.929 . S
C1198 H1192 0.930 . S
C1198 C1199 1.367 . S
C1198 C1206 1.378 . S
C1199 C1198 1.367 . S
C1199 C1207 1.433 . S
C1200 H1196 0.929 . S
C1200 C1202 1.378 . S
C1200 C1204 1.350 . S
C1201 C1204 1.463 . S
C1201 C1206 1.350 . S
C1201 N1209 1.427 . S
C1202 H1193 0.930 . S
C1202 C1200 1.378 . S
C1202 C1203 1.367 . S
C1203 C1202 1.367 . S
C1203 C1205 1.433 . S
C1204 C1200 1.350 . S
C1204 C1201 1.463 . S
C1204 N1208 1.427 . S
C1205 H1195 0.929 . S
C1205 C1203 1.433 . S
C1205 N1208 1.384 . S
C1206 H1197 0.929 . S
C1206 C1198 1.378 . S
C1206 C1201 1.350 . S
C1207 H1194 0.929 . S
C1207 C1199 1.433 . S
C1207 N1209 1.384 . S
N1208 C1204 1.427 . S
N1208 C1205 1.384 . S
N1209 C1201 1.427 . S
N1209 C1207 1.384 . S
H1210 C1216 0.930 . S
H1211 C1220 0.930 . S
H1212 C1225 0.929 . S
H1213 C1223 0.929 . S
H1214 C1218 0.929 . S
H1215 C1224 0.929 . S
C1216 H1210 0.930 . S
C1216 C1217 1.367 . S
C1216 C1224 1.378 . S
C1217 C1216 1.367 . S
C1217 C1225 1.433 . S
C1218 H1214 0.929 . S
C1218 C1220 1.378 . S
C1218 C1222 1.350 . S
C1219 C1222 1.463 . S
C1219 C1224 1.350 . S
C1219 N1227 1.427 . S
C1220 H1211 0.930 . S
C1220 C1218 1.378 . S
C1220 C1221 1.367 . S
C1221 C1220 1.367 . S
C1221 C1223 1.433 . S
C1222 C1218 1.350 . S
C1222 C1219 1.463 . S
C1222 N1226 1.427 . S
C1223 H1213 0.929 . S
C1223 C1221 1.433 . S
C1223 N1226 1.384 . S
C1224 H1215 0.929 . S
C1224 C1216 1.378 . S
C1224 C1219 1.350 . S
C1225 H1212 0.929 . S
C1225 C1217 1.433 . S
C1225 N1227 1.384 . S
N1226 C1222 1.427 . S
N1226 C1223 1.384 . S
N1227 C1219 1.427 . S
N1227 C1225 1.384 . S
H1228 C1234 0.930 . S
H1229 C1238 0.930 . S
H1230 C1243 0.929 . S
H1231 C1241 0.929 . S
H1232 C1236 0.929 . S
H1233 C1242 0.929 . S
C1234 H1228 0.930 . S
C1234 C1235 1.367 . S
C1234 C1242 1.378 . S
C1235 C1234 1.367 . S
C1235 C1243 1.433 . S
C1236 H1232 0.929 . S
C1236 C1238 1.378 . S
C1236 C1240 1.350 . S
C1237 C1240 1.463 . S
C1237 C1242 1.350 . S
C1237 N1245 1.427 . S
C1238 H1229 0.930 . S
C1238 C1236 1.378 . S
C1238 C1239 1.367 . S
C1239 C1238 1.367 . S
C1239 C1241 1.433 . S
C1240 C1236 1.350 . S
C1240 C1237 1.463 . S
C1240 N1244 1.427 . S
C1241 H1231 0.929 . S
C1241 C1239 1.433 . S
C1241 N1244 1.384 . S
C1242 H1233 0.929 . S
C1242 C1234 1.378 . S
C1242 C1237 1.350 . S
C1243 H1230 0.929 . S
C1243 C1235 1.433 . S
C1243 N1245 1.384 . S
N1244 C1240 1.427 . S
N1244 C1241 1.384 . S
N1245 C1237 1.427 . S
N1245 C1243 1.384 . S
H1246 C1252 0.930 . S
H1247 C1256 0.930 . S
H1248 C1261 0.929 . S
H1249 C1259 0.929 . S
H1250 C1254 0.929 . S
H1251 C1260 0.929 . S
C1252 H1246 0.930 . S
C1252 C1253 1.367 . S
C1252 C1260 1.378 . S
C1253 C1252 1.367 . S
C1253 C1261 1.433 . S
C1254 H1250 0.929 . S
C1254 C1256 1.378 . S
C1254 C1258 1.350 . S
C1255 C1258 1.463 . S
C1255 C1260 1.350 . S
C1255 N1263 1.427 . S
C1256 H1247 0.930 . S
C1256 C1254 1.378 . S
C1256 C1257 1.367 . S
C1257 C1256 1.367 . S
C1257 C1259 1.433 . S
C1258 C1254 1.350 . S
C1258 C1255 1.463 . S
C1258 N1262 1.427 . S
C1259 H1249 0.929 . S
C1259 C1257 1.433 . S
C1259 N1262 1.384 . S
C1260 H1251 0.929 . S
C1260 C1252 1.378 . S
C1260 C1255 1.350 . S
C1261 H1248 0.929 . S
C1261 C1253 1.433 . S
C1261 N1263 1.384 . S
N1262 C1258 1.427 . S
N1262 C1259 1.384 . S
N1263 C1255 1.427 . S
N1263 C1261 1.384 . S
C551 C9 1.446 . S
C555 C485 1.446 . S
C569 C73 1.832 . S
C573 C5 1.832 . S
C587 C39 1.829 . S
C591 C379 1.829 . S
C605 C247 1.445 . S
C609 C43 1.445 . S
C623 C77 1.452 . S
C627 C417 1.452 . S
C641 C107 1.830 . S
C645 C311 1.830 . S
C659 C111 1.465 . S
C663 C179 1.465 . S
C677 C349 1.452 . S
C681 C145 1.452 . S
C695 C209 1.837 . S
C699 C141 1.837 . S
C713 C175 1.837 . S
C717 C515 1.837 . S
C731 C281 1.463 . S
C735 C213 1.463 . S
C749 C447 1.831 . S
C753 C243 1.831 . S
C767 C277 1.829 . S
C771 C345 1.829 . S
C785 C519 1.464 . S
C789 C315 1.464 . S
C803 C383 1.462 . S
C807 C451 1.462 . S
C821 C413 1.834 . S
C825 C481 1.834 . S
C839 C2 1.343 . S
C843 C308 1.344 . S
C857 C339 1.311 . S
C861 C33 1.311 1_655 S
C875 C67 1.314 . S
C879 C305 1.314 . S
C893 C36 1.343 1_655 S
C897 C274 1.344 . S
C911 C376 1.345 . S
C915 C70 1.344 . S
C929 C407 1.311 . S
C933 C101 1.311 1_455 S
C947 C135 1.309 . S
C951 C373 1.309 . S
C965 C104 1.340 1_455 S
C969 C342 1.342 . S
C983 C138 1.344 . S
C987 C444 1.343 . S
C1001 C475 1.308 . S
C1005 C169 1.308 1_655 S
C1019 C203 1.306 . S
C1023 C441 1.306 . S
C1037 C410 1.343 . S
C1041 C172 1.344 1_655 S
C1055 C512 1.345 . S
C1059 C206 1.344 . S
C1073 C237 1.313 1_455 S
C1077 C543 1.313 . S
C1091 C271 1.306 . S
C1095 C509 1.306 . S
C1109 C240 1.343 1_455 S
C1113 C478 1.342 . S
C1127 C54 1.094 . S
C1131 C20 1.097 . S
C1145 C88 1.092 . S
C1149 C122 1.092 . S
C1163 C156 1.094 . S
C1167 C190 1.096 . S
C1181 C224 1.104 . S
C1185 C258 1.103 . S
C1199 C326 1.103 . S
C1203 C292 1.101 . S
C1217 C394 1.102 . S
C1221 C360 1.104 . S
C1235 C428 1.094 . S
C1239 C462 1.096 . S
C1253 C530 1.103 . S
C1257 C496 1.101 . S
