# Generated by pormake.
# Topology unl, (4)-cn, num edge types: 1
# Building blocks:
#     Node 0, Type 0, BuildingBlock: AZAVOO_clean_sbu_0, # of connection points: 4
#     Node 1, Type 0, BuildingBlock: AZAVOO_clean_sbu_0, # of connection points: 4
#     Node 2, Type 0, BuildingBlock: AZAVOO_clean_sbu_0, # of connection points: 4
#     Node 3, Type 0, BuildingBlock: AZAVOO_clean_sbu_0, # of connection points: 4
#     Node 4, Type 0, BuildingBlock: AZAVOO_clean_sbu_0, # of connection points: 4
#     Node 5, Type 0, BuildingBlock: AZAVOO_clean_sbu_0, # of connection points: 4
#     Node 6, Type 0, BuildingBlock: AZAVOO_clean_sbu_0, # of connection points: 4
#     Node 7, Type 0, BuildingBlock: AZAVOO_clean_sbu_0, # of connection points: 4
#     Node 8, Type 0, BuildingBlock: AZAVOO_clean_sbu_0, # of connection points: 4
#     Node 9, Type 0, BuildingBlock: AZAVOO_clean_sbu_0, # of connection points: 4
#     Node 10, Type 0, BuildingBlock: AZAVOO_clean_sbu_0, # of connection points: 4
#     Node 11, Type 0, BuildingBlock: AZAVOO_clean_sbu_0, # of connection points: 4
#     Node 12, Type 0, BuildingBlock: AZAVOO_clean_sbu_0, # of connection points: 4
#     Node 13, Type 0, BuildingBlock: AZAVOO_clean_sbu_0, # of connection points: 4
#     Node 14, Type 0, BuildingBlock: AZAVOO_clean_sbu_0, # of connection points: 4
#     Node 15, Type 0, BuildingBlock: AZAVOO_clean_sbu_0, # of connection points: 4
#     Node 16, Type 0, BuildingBlock: AZAVOO_clean_sbu_0, # of connection points: 4
#     Node 17, Type 0, BuildingBlock: AZAVOO_clean_sbu_0, # of connection points: 4
#     Node 18, Type 0, BuildingBlock: AZAVOO_clean_sbu_0, # of connection points: 4
#     Node 19, Type 0, BuildingBlock: AZAVOO_clean_sbu_0, # of connection points: 4
#     Node 20, Type 0, BuildingBlock: AZAVOO_clean_sbu_0, # of connection points: 4
#     Node 21, Type 0, BuildingBlock: AZAVOO_clean_sbu_0, # of connection points: 4
#     Node 22, Type 0, BuildingBlock: AZAVOO_clean_sbu_0, # of connection points: 4
#     Node 23, Type 0, BuildingBlock: AZAVOO_clean_sbu_0, # of connection points: 4
#     Node 24, Type 0, BuildingBlock: AZAVOO_clean_sbu_0, # of connection points: 4
#     Node 25, Type 0, BuildingBlock: AZAVOO_clean_sbu_0, # of connection points: 4
#     Node 26, Type 0, BuildingBlock: AZAVOO_clean_sbu_0, # of connection points: 4
#     Node 27, Type 0, BuildingBlock: AZAVOO_clean_sbu_0, # of connection points: 4
#     Node 28, Type 0, BuildingBlock: AZAVOO_clean_sbu_0, # of connection points: 4
#     Node 29, Type 0, BuildingBlock: AZAVOO_clean_sbu_0, # of connection points: 4
#     Node 30, Type 0, BuildingBlock: AZAVOO_clean_sbu_0, # of connection points: 4
#     Node 31, Type 0, BuildingBlock: AZAVOO_clean_sbu_0, # of connection points: 4
#     Node 32, Type 0, BuildingBlock: AZAVOO_clean_sbu_0, # of connection points: 4
#     Node 33, Type 0, BuildingBlock: AZAVOO_clean_sbu_0, # of connection points: 4
#     Node 34, Type 0, BuildingBlock: AZAVOO_clean_sbu_0, # of connection points: 4
#     Node 35, Type 0, BuildingBlock: AZAVOO_clean_sbu_0, # of connection points: 4
#     Edge 36, Type (0, 0), BuildingBlock: AJUNOK_clean_linker_0, # of connection points: 2
#     Edge 37, Type (0, 0), BuildingBlock: AJUNOK_clean_linker_0, # of connection points: 2
#     Edge 38, Type (0, 0), BuildingBlock: AJUNOK_clean_linker_0, # of connection points: 2
#     Edge 39, Type (0, 0), BuildingBlock: AJUNOK_clean_linker_0, # of connection points: 2
#     Edge 40, Type (0, 0), BuildingBlock: AJUNOK_clean_linker_0, # of connection points: 2
#     Edge 41, Type (0, 0), BuildingBlock: AJUNOK_clean_linker_0, # of connection points: 2
#     Edge 42, Type (0, 0), BuildingBlock: AJUNOK_clean_linker_0, # of connection points: 2
#     Edge 43, Type (0, 0), BuildingBlock: AJUNOK_clean_linker_0, # of connection points: 2
#     Edge 44, Type (0, 0), BuildingBlock: AJUNOK_clean_linker_0, # of connection points: 2
#     Edge 45, Type (0, 0), BuildingBlock: AJUNOK_clean_linker_0, # of connection points: 2
#     Edge 46, Type (0, 0), BuildingBlock: AJUNOK_clean_linker_0, # of connection points: 2
#     Edge 47, Type (0, 0), BuildingBlock: AJUNOK_clean_linker_0, # of connection points: 2
#     Edge 48, Type (0, 0), BuildingBlock: AJUNOK_clean_linker_0, # of connection points: 2
#     Edge 49, Type (0, 0), BuildingBlock: AJUNOK_clean_linker_0, # of connection points: 2
#     Edge 50, Type (0, 0), BuildingBlock: AJUNOK_clean_linker_0, # of connection points: 2
#     Edge 51, Type (0, 0), BuildingBlock: AJUNOK_clean_linker_0, # of connection points: 2
#     Edge 52, Type (0, 0), BuildingBlock: AJUNOK_clean_linker_0, # of connection points: 2
#     Edge 53, Type (0, 0), BuildingBlock: AJUNOK_clean_linker_0, # of connection points: 2
#     Edge 54, Type (0, 0), BuildingBlock: AJUNOK_clean_linker_0, # of connection points: 2
#     Edge 55, Type (0, 0), BuildingBlock: AJUNOK_clean_linker_0, # of connection points: 2
#     Edge 56, Type (0, 0), BuildingBlock: AJUNOK_clean_linker_0, # of connection points: 2
#     Edge 57, Type (0, 0), BuildingBlock: AJUNOK_clean_linker_0, # of connection points: 2
#     Edge 58, Type (0, 0), BuildingBlock: AJUNOK_clean_linker_0, # of connection points: 2
#     Edge 59, Type (0, 0), BuildingBlock: AJUNOK_clean_linker_0, # of connection points: 2
#     Edge 60, Type (0, 0), BuildingBlock: AJUNOK_clean_linker_0, # of connection points: 2
#     Edge 61, Type (0, 0), BuildingBlock: AJUNOK_clean_linker_0, # of connection points: 2
#     Edge 62, Type (0, 0), BuildingBlock: AJUNOK_clean_linker_0, # of connection points: 2
#     Edge 63, Type (0, 0), BuildingBlock: AJUNOK_clean_linker_0, # of connection points: 2
#     Edge 64, Type (0, 0), BuildingBlock: AJUNOK_clean_linker_0, # of connection points: 2
#     Edge 65, Type (0, 0), BuildingBlock: AJUNOK_clean_linker_0, # of connection points: 2
#     Edge 66, Type (0, 0), BuildingBlock: AJUNOK_clean_linker_0, # of connection points: 2
#     Edge 67, Type (0, 0), BuildingBlock: AJUNOK_clean_linker_0, # of connection points: 2
#     Edge 68, Type (0, 0), BuildingBlock: AJUNOK_clean_linker_0, # of connection points: 2
#     Edge 69, Type (0, 0), BuildingBlock: AJUNOK_clean_linker_0, # of connection points: 2
#     Edge 70, Type (0, 0), BuildingBlock: AJUNOK_clean_linker_0, # of connection points: 2
#     Edge 71, Type (0, 0), BuildingBlock: AJUNOK_clean_linker_0, # of connection points: 2
#     Edge 72, Type (0, 0), BuildingBlock: AJUNOK_clean_linker_0, # of connection points: 2
#     Edge 73, Type (0, 0), BuildingBlock: AJUNOK_clean_linker_0, # of connection points: 2
#     Edge 74, Type (0, 0), BuildingBlock: AJUNOK_clean_linker_0, # of connection points: 2
#     Edge 75, Type (0, 0), BuildingBlock: AJUNOK_clean_linker_0, # of connection points: 2
#     Edge 76, Type (0, 0), BuildingBlock: AJUNOK_clean_linker_0, # of connection points: 2
#     Edge 77, Type (0, 0), BuildingBlock: AJUNOK_clean_linker_0, # of connection points: 2
#     Edge 78, Type (0, 0), BuildingBlock: AJUNOK_clean_linker_0, # of connection points: 2
#     Edge 79, Type (0, 0), BuildingBlock: AJUNOK_clean_linker_0, # of connection points: 2
#     Edge 80, Type (0, 0), BuildingBlock: AJUNOK_clean_linker_0, # of connection points: 2
#     Edge 81, Type (0, 0), BuildingBlock: AJUNOK_clean_linker_0, # of connection points: 2
#     Edge 82, Type (0, 0), BuildingBlock: AJUNOK_clean_linker_0, # of connection points: 2
#     Edge 83, Type (0, 0), BuildingBlock: AJUNOK_clean_linker_0, # of connection points: 2
#     Edge 84, Type (0, 0), BuildingBlock: AJUNOK_clean_linker_0, # of connection points: 2
#     Edge 85, Type (0, 0), BuildingBlock: AJUNOK_clean_linker_0, # of connection points: 2
#     Edge 86, Type (0, 0), BuildingBlock: AJUNOK_clean_linker_0, # of connection points: 2
#     Edge 87, Type (0, 0), BuildingBlock: AJUNOK_clean_linker_0, # of connection points: 2
#     Edge 88, Type (0, 0), BuildingBlock: AJUNOK_clean_linker_0, # of connection points: 2
#     Edge 89, Type (0, 0), BuildingBlock: AJUNOK_clean_linker_0, # of connection points: 2
#     Edge 90, Type (0, 0), BuildingBlock: AJUNOK_clean_linker_0, # of connection points: 2
#     Edge 91, Type (0, 0), BuildingBlock: AJUNOK_clean_linker_0, # of connection points: 2
#     Edge 92, Type (0, 0), BuildingBlock: AJUNOK_clean_linker_0, # of connection points: 2
#     Edge 93, Type (0, 0), BuildingBlock: AJUNOK_clean_linker_0, # of connection points: 2
#     Edge 94, Type (0, 0), BuildingBlock: AJUNOK_clean_linker_0, # of connection points: 2
#     Edge 95, Type (0, 0), BuildingBlock: AJUNOK_clean_linker_0, # of connection points: 2
#     Edge 96, Type (0, 0), BuildingBlock: AJUNOK_clean_linker_0, # of connection points: 2
#     Edge 97, Type (0, 0), BuildingBlock: AJUNOK_clean_linker_0, # of connection points: 2
#     Edge 98, Type (0, 0), BuildingBlock: AJUNOK_clean_linker_0, # of connection points: 2
#     Edge 99, Type (0, 0), BuildingBlock: AJUNOK_clean_linker_0, # of connection points: 2
#     Edge 100, Type (0, 0), BuildingBlock: AJUNOK_clean_linker_0, # of connection points: 2
#     Edge 101, Type (0, 0), BuildingBlock: AJUNOK_clean_linker_0, # of connection points: 2
#     Edge 102, Type (0, 0), BuildingBlock: AJUNOK_clean_linker_0, # of connection points: 2
#     Edge 103, Type (0, 0), BuildingBlock: AJUNOK_clean_linker_0, # of connection points: 2
#     Edge 104, Type (0, 0), BuildingBlock: AJUNOK_clean_linker_0, # of connection points: 2
#     Edge 105, Type (0, 0), BuildingBlock: AJUNOK_clean_linker_0, # of connection points: 2
#     Edge 106, Type (0, 0), BuildingBlock: AJUNOK_clean_linker_0, # of connection points: 2
#     Edge 107, Type (0, 0), BuildingBlock: AJUNOK_clean_linker_0, # of connection points: 2
# Relax obj value: 0.204
# Max RMSD: 0.223
# Mean RMSD: 0.216
data_MOF--net-unl--node1-AZAVOO_clean_sbu_0--edge1-AJUNOK_clean_linker_0
_symmetry_space_group_name_H-M    P1
_symmetry_Int_Tables_number       1
_symmetry_cell_setting            triclinic
loop_
_symmetry_equiv_pos_as_xyz
'x, y, z'
_cell_length_a     47.918013
_cell_length_b     47.303251
_cell_length_c     27.690152
_cell_angle_alpha  90.692804
_cell_angle_beta   90.019687
_cell_angle_gamma 120.38377
loop_
_atom_site_label
_atom_site_type_symbol
_atom_site_fract_x
_atom_site_fract_y
_atom_site_fract_z
_atom_type_partial_charge
Mg0 Mg 0.20008 0.09728 0.05722 0.0
O1 O 0.16948 0.0984 0.11885 0.0
O2 O 0.11803 0.07606 0.09581 0.0
Mg3 Mg 0.11621 0.06231 0.0156 0.0
C4 C 0.14026 0.08999 0.12775 0.0
C5 C 0.25292 0.13599 0.13486 0.0
O6 O 0.2431 0.15681 0.12611 0.0
O7 O 0.17965 0.04224 0.06236 0.0
O8 O 0.13089 0.02409 0.02903 0.0
O9 O 0.20837 0.14577 0.03124 0.0
O10 O 0.16829 0.09751 0.00719 0.0
C11 C 0.15293 0.01904 0.04528 0.0
C12 C 0.18273 0.12882 0.00478 0.0
O13 O 0.24009 0.10898 0.11146 0.0
Mg14 Mg 0.93443 0.12607 0.16964 0.0
O15 O 0.89189 0.08167 0.1313 0.0
O16 O 0.85794 0.0481 0.18703 0.0
Mg17 Mg 0.87673 0.07316 0.26037 0.0
C18 C 0.8664 0.05508 0.14306 0.0
C19 C 0.98197 0.16579 0.09002 0.0
O20 O 0.00046 0.16484 0.12427 0.0
O21 O 0.90254 0.14783 0.18326 0.0
O22 O 0.86736 0.11467 0.23799 0.0
O23 O 0.95849 0.09696 0.17343 0.0
O24 O 0.92613 0.09739 0.23044 0.0
C25 C 0.87815 0.13947 0.21045 0.0
C26 C 0.94161 0.08415 0.21188 0.0
O27 O 0.95174 0.15218 0.09754 0.0
Mg28 Mg 0.89384 0.79558 0.16249 0.0
O29 O 0.92806 0.79876 0.10255 0.0
O30 O 0.9625 0.78432 0.13121 0.0
Mg31 Mg 0.95129 0.77307 0.2115 0.0
C32 C 0.95149 0.79356 0.09658 0.0
C33 C 0.8752 0.82934 0.08581 0.0
O34 O 0.90536 0.85073 0.09705 0.0
O35 O 0.86692 0.73952 0.15701 0.0
O36 O 0.90222 0.72832 0.19195 0.0
O37 O 0.92804 0.84708 0.18635 0.0
O38 O 0.92943 0.80432 0.21412 0.0
C39 C 0.87469 0.71901 0.17257 0.0
C40 C 0.94198 0.83564 0.21327 0.0
O41 O 0.8619 0.80135 0.10564 0.0
Mg42 Mg 0.0883 0.1751 0.34544 0.0
O43 O 0.1097 0.16452 0.4122 0.0
O44 O 0.16259 0.18591 0.40166 0.0
Mg45 Mg 0.1743 0.20748 0.32565 0.0
C46 C 0.13729 0.17042 0.42736 0.0
C47 C 0.03138 0.18126 0.3921 0.0
O48 O 0.0443 0.20842 0.36727 0.0
O49 O 0.11218 0.22949 0.36538 0.0
O50 O 0.16364 0.24821 0.34564 0.0
O51 O 0.07765 0.12782 0.311 0.0
O52 O 0.12342 0.17445 0.30097 0.0
C53 C 0.14107 0.25312 0.35976 0.0
C54 C 0.10612 0.1434 0.29188 0.0
O55 O 0.04357 0.16287 0.38963 0.0
Mg56 Mg 0.84426 0.90375 0.31775 0.0
O57 O 0.84512 0.94287 0.36753 0.0
O58 O 0.83456 0.9767 0.32632 0.0
Mg59 Mg 0.82404 0.95681 0.24863 0.0
C60 C 0.84141 0.9677 0.3657 0.0
C61 C 0.82857 0.85104 0.40277 0.0
O62 O 0.80035 0.83246 0.38183 0.0
O63 O 0.78905 0.87734 0.3195 0.0
O64 O 0.77896 0.91109 0.27688 0.0
O65 O 0.89568 0.93877 0.30171 0.0
O66 O 0.85449 0.93477 0.25939 0.0
C67 C 0.76929 0.88514 0.30153 0.0
C68 C 0.88502 0.95038 0.26912 0.0
O69 O 0.84851 0.87854 0.38476 0.0
Mg70 Mg 0.11704 0.92099 0.3944 0.0
O71 O 0.07413 0.90951 0.34338 0.0
O72 O 0.04772 0.93434 0.37101 0.0
Mg73 Mg 0.07973 0.97074 0.42887 0.0
C74 C 0.05056 0.91504 0.34134 0.0
C75 C 0.1195 0.86684 0.3278 0.0
O76 O 0.08872 0.84919 0.33882 0.0
O77 O 0.15013 0.97025 0.35932 0.0
O78 O 0.11718 0.98774 0.36928 0.0
O79 O 0.08239 0.88211 0.44297 0.0
O80 O 0.09345 0.93338 0.44887 0.0
C81 C 0.14405 0.9904 0.38044 0.0
C82 C 0.07643 0.90341 0.46281 0.0
O83 O 0.13586 0.89608 0.34394 0.0
Mg84 Mg 0.79834 0.92195 0.89093 0.0
O85 O 0.81159 0.89148 0.94033 0.0
O86 O 0.79841 0.84406 0.9035 0.0
Mg87 Mg 0.77663 0.84415 0.83 0.0
C88 C 0.81032 0.86383 0.93943 0.0
C89 C 0.80287 0.95211 0.99688 0.0
O90 O 0.78838 0.92146 0.01071 0.0
O91 O 0.74409 0.88978 0.90677 0.0
O92 O 0.73372 0.84432 0.86592 0.0
O93 O 0.84681 0.94277 0.85643 0.0
O94 O 0.80266 0.89805 0.83077 0.0
C95 C 0.72445 0.86058 0.89174 0.0
C96 C 0.83323 0.918 0.8268 0.0
O97 O 0.80798 0.95837 0.95223 0.0
Mg98 Mg 0.0809 0.85514 0.84988 0.0
O99 O 0.10851 0.89501 0.90651 0.0
O100 O 0.15555 0.93357 0.87658 0.0
Mg101 Mg 0.15828 0.91779 0.79903 0.0
C102 C 0.13542 0.92168 0.91119 0.0
C103 C 0.01966 0.82475 0.91303 0.0
O104 O 0.01169 0.83789 0.87808 0.0
O105 O 0.11511 0.83531 0.86436 0.0
O106 O 0.16036 0.87478 0.83086 0.0
O107 O 0.06044 0.88517 0.82034 0.0
O108 O 0.10529 0.88803 0.7945 0.0
C109 C 0.14497 0.84778 0.85326 0.0
C110 C 0.08577 0.89915 0.79333 0.0
O111 O 0.04654 0.82553 0.91047 0.0
Mg112 Mg 0.09468 0.21385 0.82756 0.0
O113 O 0.06271 0.20916 0.89145 0.0
O114 O 0.02886 0.22647 0.8712 0.0
Mg115 Mg 0.04101 0.24378 0.79259 0.0
C116 C 0.03972 0.21432 0.90174 0.0
C117 C 0.13018 0.18158 0.86781 0.0
O118 O 0.11723 0.16505 0.82755 0.0
O119 O 0.12476 0.26841 0.83886 0.0
O120 O 0.0921 0.28611 0.81344 0.0
O121 O 0.057 0.16416 0.80146 0.0
O122 O 0.06022 0.21061 0.77991 0.0
C123 C 0.11945 0.2916 0.82959 0.0
C124 C 0.04499 0.17909 0.77793 0.0
O125 O 0.12626 0.20542 0.8786 0.0
Mg126 Mg 0.91612 0.83164 0.67178 0.0
O127 O 0.88758 0.83126 0.60536 0.0
O128 O 0.83564 0.81039 0.62408 0.0
Mg129 Mg 0.83152 0.80086 0.70573 0.0
C130 C 0.85856 0.82242 0.59342 0.0
C131 C 0.97204 0.86771 0.60041 0.0
O132 O 0.96274 0.88907 0.60891 0.0
O133 O 0.89233 0.77571 0.66705 0.0
O134 O 0.84252 0.75967 0.69354 0.0
O135 O 0.92676 0.88216 0.693 0.0
O136 O 0.88348 0.83614 0.7155 0.0
C137 C 0.86406 0.75317 0.67944 0.0
C138 C 0.89921 0.86762 0.71474 0.0
O139 O 0.95765 0.84034 0.62187 0.0
Mg140 Mg 0.18144 0.08025 0.66683 0.0
O141 O 0.17561 0.051 0.59823 0.0
O142 O 0.18956 0.01323 0.60976 0.0
Mg143 Mg 0.20377 0.01771 0.69002 0.0
C144 C 0.17952 0.02784 0.58244 0.0
C145 C 0.14903 0.10797 0.60023 0.0
O146 O 0.12427 0.07947 0.612 0.0
O147 O 0.23674 0.10768 0.65773 0.0
O148 O 0.24746 0.0683 0.67653 0.0
O149 O 0.13063 0.04264 0.6892 0.0
O150 O 0.17423 0.04012 0.70701 0.0
C151 C 0.2568 0.09784 0.66528 0.0
C152 C 0.14327 0.02658 0.70742 0.0
O153 O 0.17652 0.11685 0.61913 0.0
Mg154 Mg 0.87854 0.10002 0.61179 0.0
O155 O 0.91677 0.12769 0.55461 0.0
O156 O 0.94884 0.1798 0.57722 0.0
Mg157 Mg 0.93135 0.18543 0.65175 0.0
C158 C 0.9406 0.15627 0.54699 0.0
C159 C 0.86687 0.04457 0.54245 0.0
O160 O 0.89259 0.04987 0.56691 0.0
O161 O 0.8503 0.12524 0.59092 0.0
O162 O 0.88344 0.17565 0.62015 0.0
O163 O 0.91251 0.08765 0.64886 0.0
O164 O 0.91021 0.13238 0.66438 0.0
C165 C 0.8571 0.15467 0.59941 0.0
C166 C 0.92435 0.1157 0.67078 0.0
O167 O 0.8527 0.06015 0.55448 0.0
Mg168 Mg 0.85793 0.40667 0.43976 0.0
O169 O 0.82893 0.42191 0.48983 0.0
O170 O 0.77697 0.39854 0.46562 0.0
Mg171 Mg 0.76993 0.35931 0.41098 0.0
C172 C 0.80059 0.41822 0.49284 0.0
C173 C 0.91285 0.45914 0.51105 0.0
O174 O 0.89722 0.47509 0.50611 0.0
O175 O 0.84095 0.35771 0.47667 0.0
O176 O 0.79121 0.34433 0.47165 0.0
O177 O 0.86231 0.44452 0.38851 0.0
O178 O 0.82111 0.39359 0.38672 0.0
C179 C 0.81302 0.33808 0.45965 0.0
C180 C 0.83459 0.42295 0.37018 0.0
O181 O 0.90231 0.4317 0.48932 0.0
Mg182 Mg 0.5905 0.4358 0.51467 0.0
O183 O 0.55319 0.39962 0.46124 0.0
O184 O 0.50808 0.36371 0.49872 0.0
Mg185 Mg 0.51573 0.38014 0.57827 0.0
C186 C 0.52478 0.3746 0.46038 0.0
C187 C 0.64571 0.46436 0.43908 0.0
O188 O 0.65549 0.44935 0.46819 0.0
O189 O 0.56293 0.46339 0.51783 0.0
O190 O 0.51793 0.42797 0.55638 0.0
O191 O 0.60557 0.39896 0.52646 0.0
O192 O 0.56842 0.40212 0.57 0.0
C193 C 0.53527 0.45535 0.5355 0.0
C194 C 0.58319 0.3866 0.5588 0.0
O195 O 0.62012 0.46484 0.44965 0.0
Mg196 Mg 0.56186 0.14231 0.49831 0.0
O197 O 0.59804 0.15113 0.43827 0.0
O198 O 0.63221 0.13531 0.46317 0.0
Mg199 Mg 0.61954 0.11913 0.54209 0.0
C200 C 0.62203 0.14699 0.4308 0.0
C201 C 0.52522 0.1711 0.44159 0.0
O202 O 0.53923 0.19393 0.4752 0.0
O203 O 0.53691 0.08712 0.48679 0.0
O204 O 0.57109 0.07364 0.51957 0.0
O205 O 0.59415 0.19299 0.52836 0.0
O206 O 0.59632 0.14914 0.54942 0.0
C207 C 0.54393 0.06561 0.49972 0.0
C208 C 0.60805 0.18029 0.55276 0.0
O209 O 0.52924 0.14654 0.44237 0.0
Mg210 Mg 0.7647 0.53868 0.67281 0.0
O211 O 0.78971 0.52923 0.73542 0.0
O212 O 0.83993 0.54318 0.71501 0.0
Mg213 Mg 0.84674 0.56009 0.63646 0.0
C214 C 0.81705 0.53232 0.74567 0.0
C215 C 0.70748 0.50342 0.74221 0.0
O216 O 0.71354 0.48048 0.72801 0.0
O217 O 0.79518 0.59394 0.68606 0.0
O218 O 0.84338 0.60524 0.65779 0.0
O219 O 0.74767 0.48853 0.64217 0.0
O220 O 0.79395 0.53211 0.62307 0.0
C221 C 0.82456 0.61447 0.67523 0.0
C222 C 0.7745 0.50105 0.61848 0.0
O223 O 0.72496 0.53219 0.72585 0.0
Mg224 Mg 0.47015 0.20528 0.66414 0.0
O225 O 0.471 0.24392 0.71502 0.0
O226 O 0.46217 0.27917 0.67458 0.0
Mg227 Mg 0.45204 0.26003 0.59635 0.0
C228 C 0.46816 0.26928 0.71383 0.0
C229 C 0.49354 0.17391 0.74037 0.0
O230 O 0.51763 0.18555 0.70973 0.0
O231 O 0.41557 0.17959 0.66191 0.0
O232 O 0.40522 0.2136 0.62085 0.0
O233 O 0.52211 0.23944 0.65126 0.0
O234 O 0.48269 0.23781 0.60696 0.0
C235 C 0.39564 0.18705 0.64402 0.0
C236 C 0.51298 0.25234 0.61837 0.0
O237 O 0.46923 0.17692 0.73084 0.0
Mg238 Mg 0.76189 0.22651 0.75682 0.0
O239 O 0.72511 0.22669 0.70541 0.0
O240 O 0.6968 0.24579 0.74254 0.0
Mg241 Mg 0.7151 0.25683 0.82089 0.0
C242 C 0.70327 0.23444 0.70491 0.0
C243 C 0.76995 0.19193 0.66583 0.0
O244 O 0.73942 0.17121 0.67534 0.0
O245 O 0.79487 0.28216 0.75421 0.0
O246 O 0.76551 0.29698 0.79928 0.0
O247 O 0.72497 0.17657 0.78378 0.0
O248 O 0.73469 0.22364 0.81624 0.0
C249 C 0.79134 0.30399 0.77647 0.0
C250 C 0.719 0.19228 0.81696 0.0
O251 O 0.78561 0.21733 0.69248 0.0
Mg252 Mg 0.45327 0.24309 0.2092 0.0
O253 O 0.46447 0.21591 0.26616 0.0
O254 O 0.45382 0.16718 0.23835 0.0
Mg255 Mg 0.43455 0.16284 0.16109 0.0
C256 C 0.46377 0.18891 0.27189 0.0
C257 C 0.48529 0.30398 0.2768 0.0
O258 O 0.5084 0.31189 0.2451 0.0
O259 O 0.39886 0.21098 0.22079 0.0
O260 O 0.3899 0.1638 0.18739 0.0
O261 O 0.50317 0.26172 0.17845 0.0
O262 O 0.45913 0.21656 0.15438 0.0
C263 C 0.37971 0.18121 0.20778 0.0
C264 C 0.4898 0.23562 0.15132 0.0
O265 O 0.45829 0.27795 0.26993 0.0
Mg266 Mg 0.75424 0.22873 0.18495 0.0
O267 O 0.77678 0.26361 0.24866 0.0
O268 O 0.82665 0.30392 0.23334 0.0
Mg269 Mg 0.83606 0.29434 0.15486 0.0
C270 C 0.80267 0.28938 0.26181 0.0
C271 C 0.69584 0.20192 0.25488 0.0
O272 O 0.69595 0.22781 0.23796 0.0
O273 O 0.78625 0.20655 0.20072 0.0
O274 O 0.83465 0.24742 0.17829 0.0
O275 O 0.73734 0.26181 0.1536 0.0
O276 O 0.78393 0.26515 0.13752 0.0
C277 C 0.81657 0.21842 0.19397 0.0
C278 C 0.76487 0.27647 0.13166 0.0
O279 O 0.71571 0.19419 0.23769 0.0
Mg280 Mg 0.75168 0.50175 0.16542 0.0
O281 O 0.72234 0.49745 0.23272 0.0
O282 O 0.68923 0.51665 0.21863 0.0
Mg283 Mg 0.69639 0.53228 0.13918 0.0
C284 C 0.70097 0.5041 0.2469 0.0
C285 C 0.76976 0.46185 0.23074 0.0
O286 O 0.7391 0.44184 0.22036 0.0
O287 O 0.78271 0.55743 0.1772 0.0
O288 O 0.74796 0.57345 0.1555 0.0
O289 O 0.71283 0.45236 0.13773 0.0
O290 O 0.7149 0.49914 0.12261 0.0
C291 C 0.77616 0.58002 0.16881 0.0
C292 C 0.69972 0.46773 0.11878 0.0
O293 O 0.78383 0.49046 0.21299 0.0
Mg294 Mg 0.56067 0.13263 0.01042 0.0
O295 O 0.53495 0.13733 0.94466 0.0
O296 O 0.48383 0.12186 0.96177 0.0
Mg297 Mg 0.47783 0.10827 0.04232 0.0
C298 C 0.50724 0.13233 0.93201 0.0
C299 C 0.62714 0.14504 0.97152 0.0
O300 O 0.63609 0.15397 0.01664 0.0
O301 O 0.5328 0.07797 0.00218 0.0
O302 O 0.48269 0.06288 0.02581 0.0
O303 O 0.57677 0.18415 0.03246 0.0
O304 O 0.53073 0.14046 0.05457 0.0
C305 C 0.50378 0.05591 0.01086 0.0
C306 C 0.54912 0.17189 0.05395 0.0
O307 O 0.5982 0.13516 0.95916 0.0
Mg308 Mg 0.86779 0.45231 0.99041 0.0
O309 O 0.86216 0.41969 0.92548 0.0
O310 O 0.8756 0.38276 0.94679 0.0
Mg311 Mg 0.88824 0.3905 0.02766 0.0
C312 C 0.86657 0.39592 0.91505 0.0
C313 C 0.83601 0.48156 0.92571 0.0
O314 O 0.81071 0.45849 0.94808 0.0
O315 O 0.92317 0.47829 0.98221 0.0
O316 O 0.93208 0.43931 0.00968 0.0
O317 O 0.8163 0.41653 0.0132 0.0
O318 O 0.85898 0.414 0.0364 0.0
C319 C 0.94238 0.46804 0.99364 0.0
C320 C 0.82806 0.40098 0.03548 0.0
O321 O 0.86394 0.48677 0.93722 0.0
Mg322 Mg 0.5431 0.41677 0.94447 0.0
O323 O 0.58536 0.44678 0.89347 0.0
O324 O 0.62118 0.49392 0.92914 0.0
Mg325 Mg 0.60131 0.49381 0.00462 0.0
C326 C 0.61204 0.47402 0.89321 0.0
C327 C 0.50615 0.35298 0.88557 0.0
O328 O 0.51114 0.34306 0.92708 0.0
O329 O 0.52129 0.4496 0.9331 0.0
O330 O 0.55696 0.49424 0.97459 0.0
O331 O 0.57133 0.39519 0.97551 0.0
O332 O 0.5728 0.43978 0.00381 0.0
C333 C 0.53065 0.47825 0.95038 0.0
C334 C 0.58345 0.41975 0.00561 0.0
O335 O 0.51545 0.38317 0.88104 0.0
Mg336 Mg 0.54006 0.75685 0.76268 0.0
O337 O 0.50261 0.75315 0.81952 0.0
O338 O 0.45299 0.7306 0.78646 0.0
Mg339 Mg 0.45647 0.70399 0.7201 0.0
C340 C 0.47277 0.74528 0.82143 0.0
C341 C 0.59176 0.80548 0.84124 0.0
O342 O 0.57868 0.82363 0.83343 0.0
O343 O 0.53249 0.70531 0.77391 0.0
O344 O 0.48217 0.69017 0.77436 0.0
O345 O 0.53822 0.79888 0.73027 0.0
O346 O 0.5056 0.74759 0.70679 0.0
C347 C 0.50391 0.68418 0.76121 0.0
C348 C 0.51432 0.77812 0.70332 0.0
O349 O 0.58067 0.7782 0.81888 0.0
Mg350 Mg 0.27274 0.76563 0.85333 0.0
O351 O 0.23577 0.72893 0.7993 0.0
O352 O 0.19311 0.68957 0.83753 0.0
Mg353 Mg 0.20221 0.70303 0.91812 0.0
C354 C 0.20823 0.70264 0.79865 0.0
C355 C 0.32685 0.80437 0.77859 0.0
O356 O 0.34091 0.79291 0.80651 0.0
O357 O 0.2405 0.78756 0.86336 0.0
O358 O 0.19781 0.74824 0.90226 0.0
O359 O 0.29358 0.73302 0.85904 0.0
O360 O 0.25505 0.73029 0.90649 0.0
C361 C 0.21276 0.77643 0.88281 0.0
C362 C 0.27235 0.71805 0.89237 0.0
O363 O 0.29872 0.79862 0.78957 0.0
Mg364 Mg 0.24989 0.50414 0.82644 0.0
O365 O 0.28108 0.50702 0.76219 0.0
O366 O 0.31414 0.48905 0.78382 0.0
Mg367 Mg 0.30558 0.47683 0.86464 0.0
C368 C 0.30314 0.50039 0.75213 0.0
C369 C 0.22455 0.53327 0.74892 0.0
O370 O 0.25436 0.55774 0.75439 0.0
O371 O 0.22068 0.44874 0.82032 0.0
O372 O 0.25444 0.43355 0.84962 0.0
O373 O 0.28691 0.55529 0.85099 0.0
O374 O 0.28641 0.51029 0.87297 0.0
C375 C 0.22665 0.42657 0.83357 0.0
C376 C 0.30043 0.5417 0.87419 0.0
O377 O 0.21506 0.50798 0.77453 0.0
Mg378 Mg 0.42141 0.84244 0.01826 0.0
O379 O 0.45619 0.84458 0.07676 0.0
O380 O 0.50496 0.86229 0.04496 0.0
Mg381 Mg 0.50101 0.87062 0.96431 0.0
C382 C 0.48583 0.85259 0.08098 0.0
C383 C 0.35651 0.81517 0.0747 0.0
O384 O 0.34661 0.79493 0.03739 0.0
O385 O 0.44558 0.898 0.02005 0.0
O386 O 0.49213 0.91277 0.98255 0.0
O387 O 0.40799 0.79103 0.99703 0.0
O388 O 0.44865 0.83577 0.96614 0.0
C389 C 0.47235 0.91992 0.00224 0.0
C390 C 0.43264 0.80436 0.96847 0.0
O391 O 0.38602 0.83773 0.07693 0.0
Mg392 Mg 0.15036 0.5442 0.99466 0.0
O393 O 0.15733 0.58612 0.04433 0.0
O394 O 0.15712 0.62586 0.00209 0.0
Mg395 Mg 0.14779 0.60752 0.92339 0.0
C396 C 0.15941 0.61404 0.04212 0.0
C397 C 0.15887 0.50048 0.07014 0.0
O398 O 0.18083 0.50414 0.03846 0.0
O399 O 0.09734 0.52819 0.98879 0.0
O400 O 0.09654 0.56725 0.94528 0.0
O401 O 0.20355 0.57075 0.98436 0.0
O402 O 0.16905 0.5763 0.93756 0.0
C403 C 0.08202 0.54057 0.96878 0.0
C404 C 0.19849 0.58592 0.94988 0.0
O405 O 0.14163 0.51328 0.06165 0.0
Mg406 Mg 0.43527 0.56369 0.09682 0.0
O407 O 0.40652 0.57089 0.0372 0.0
O408 O 0.38581 0.60029 0.06681 0.0
Mg409 Mg 0.39895 0.6099 0.1471 0.0
C410 C 0.39025 0.58522 0.03184 0.0
C411 C 0.44609 0.52434 0.01078 0.0
O412 O 0.41434 0.50717 0.009 0.0
O413 O 0.47627 0.61696 0.09398 0.0
O414 O 0.45269 0.64161 0.13122 0.0
O415 O 0.39072 0.51809 0.12438 0.0
O416 O 0.40739 0.56846 0.14941 0.0
C417 C 0.47744 0.6424 0.11257 0.0
C418 C 0.38723 0.53781 0.15327 0.0
O419 O 0.45993 0.54785 0.04122 0.0
Mg420 Mg 0.11919 0.58252 0.5401 0.0
O421 O 0.13858 0.5598 0.59173 0.0
O422 O 0.12773 0.51025 0.56756 0.0
Mg423 Mg 0.09915 0.50081 0.49648 0.0
C424 C 0.14071 0.53434 0.59735 0.0
C425 C 0.15954 0.63965 0.61088 0.0
O426 O 0.18164 0.6422 0.58035 0.0
O427 O 0.06663 0.54954 0.56422 0.0
O428 O 0.05679 0.50153 0.53306 0.0
O429 O 0.1654 0.60072 0.49811 0.0
O430 O 0.12043 0.55386 0.48343 0.0
C431 C 0.04741 0.51905 0.55527 0.0
C432 C 0.15035 0.57335 0.47404 0.0
O433 O 0.12998 0.61918 0.60163 0.0
Mg434 Mg 0.42873 0.56234 0.49927 0.0
O435 O 0.45615 0.59756 0.56056 0.0
O436 O 0.50652 0.6343 0.5405 0.0
Mg437 Mg 0.51162 0.62086 0.462 0.0
C438 C 0.4836 0.62218 0.57114 0.0
C439 C 0.37013 0.54045 0.56803 0.0
O440 O 0.36987 0.56437 0.54487 0.0
O441 O 0.45658 0.5357 0.51317 0.0
O442 O 0.50609 0.57238 0.48785 0.0
O443 O 0.41582 0.59873 0.4713 0.0
O444 O 0.45893 0.59651 0.44875 0.0
C445 C 0.48615 0.54442 0.50531 0.0
C446 C 0.4423 0.61088 0.44678 0.0
O447 O 0.39058 0.53212 0.5558 0.0
Mg448 Mg 0.42291 0.84907 0.49932 0.0
O449 O 0.39689 0.84611 0.56937 0.0
O450 O 0.36169 0.86318 0.55975 0.0
Mg451 Mg 0.36376 0.8754 0.47899 0.0
C452 C 0.37577 0.85219 0.58632 0.0
C453 C 0.44565 0.81478 0.56747 0.0
O454 O 0.41472 0.79375 0.56075 0.0
O455 O 0.45293 0.90523 0.50596 0.0
O456 O 0.41556 0.91838 0.48773 0.0
O457 O 0.38417 0.79796 0.47799 0.0
O458 O 0.38262 0.84262 0.46063 0.0
C459 C 0.44478 0.92662 0.49735 0.0
C460 C 0.36861 0.81116 0.46011 0.0
O461 O 0.45851 0.84178 0.545 0.0
Mg462 Mg 0.22106 0.46566 0.34364 0.0
O463 O 0.19358 0.46403 0.27552 0.0
O464 O 0.14194 0.44612 0.2931 0.0
Mg465 Mg 0.13724 0.43826 0.37536 0.0
C466 C 0.16502 0.45644 0.2628 0.0
C467 C 0.28849 0.49583 0.30137 0.0
O468 O 0.2917 0.51566 0.3373 0.0
O469 O 0.19639 0.41012 0.3444 0.0
O470 O 0.1465 0.395 0.36916 0.0
O471 O 0.23375 0.51749 0.35762 0.0
O472 O 0.18951 0.47405 0.38462 0.0
C473 C 0.16816 0.38806 0.35743 0.0
C474 C 0.20637 0.50539 0.37967 0.0
O475 O 0.26126 0.46997 0.29515 0.0
Mg476 Mg 0.55611 0.78903 0.31961 0.0
O477 O 0.55333 0.75585 0.25749 0.0
O478 O 0.56534 0.71885 0.28343 0.0
Mg479 Mg 0.57417 0.72737 0.36513 0.0
C480 C 0.55783 0.73187 0.24947 0.0
C481 C 0.52819 0.82459 0.26204 0.0
O482 O 0.50751 0.8117 0.29754 0.0
O483 O 0.6114 0.81444 0.31688 0.0
O484 O 0.61974 0.77604 0.34866 0.0
O485 O 0.50396 0.75394 0.33643 0.0
O486 O 0.54483 0.75122 0.36828 0.0
C487 C 0.63036 0.80458 0.33144 0.0
C488 C 0.51409 0.73863 0.36296 0.0
O489 O 0.55342 0.82212 0.26264 0.0
Mg490 Mg 0.20545 0.74393 0.29593 0.0
O491 O 0.24648 0.77131 0.24296 0.0
O492 O 0.28399 0.81963 0.2728 0.0
Mg493 Mg 0.26502 0.82415 0.34698 0.0
C494 C 0.27329 0.79798 0.2391 0.0
C495 C 0.18914 0.68918 0.22172 0.0
O496 O 0.21124 0.68863 0.24906 0.0
O497 O 0.18378 0.77624 0.2786 0.0
O498 O 0.22134 0.82366 0.31239 0.0
O499 O 0.23504 0.72519 0.33179 0.0
O500 O 0.23561 0.77043 0.35395 0.0
C501 C 0.19463 0.8064 0.2896 0.0
C502 C 0.24686 0.75111 0.35909 0.0
O503 O 0.17909 0.70863 0.23297 0.0
C504 C 0.12006 0.96082 0.01957 0.0
C505 C 0.15086 0.98818 0.0289 0.0
C506 C 0.11559 0.93756 0.98406 0.0
C507 C 0.14178 0.94101 0.95647 0.0
H508 H 0.09883 0.95924 0.03613 0.0
H509 H 0.09107 0.91852 0.97532 0.0
S510 S 0.22832 0.00275 0.97669 0.0
N511 N 0.20877 0.01323 0.01533 0.0
N512 N 0.20027 0.96957 0.94824 0.0
C513 C 0.17314 0.96558 0.97014 0.0
C514 C 0.17774 0.98904 0.0068 0.0
C515 C 0.02883 0.19035 0.03356 0.0
C516 C 0.99622 0.18034 0.04256 0.0
C517 C 0.04271 0.20201 0.98838 0.0
C518 C 0.02477 0.20458 0.9502 0.0
H519 H 0.04375 0.18852 0.0613 0.0
H520 H 0.06774 0.20876 0.98325 0.0
S521 S 0.93875 0.18287 0.95511 0.0
N522 N 0.9465 0.17468 0.00963 0.0
N523 N 0.97278 0.19694 0.9247 0.0
C524 C 0.9924 0.19562 0.95895 0.0
C525 C 0.97808 0.18339 0.00504 0.0
C526 C 0.81537 0.82237 0.98897 0.0
C527 C 0.82534 0.85537 0.97951 0.0
C528 C 0.83092 0.81398 0.02433 0.0
C529 C 0.85747 0.83828 0.05085 0.0
H530 H 0.79553 0.80283 0.96864 0.0
H531 H 0.82264 0.78831 0.02993 0.0
S532 S 0.89285 0.92827 0.04043 0.0
N533 N 0.86307 0.9124 1.00044 0.0
N534 N 0.89246 0.89679 0.06609 0.0
C535 C 0.86737 0.87134 0.0422 0.0
C536 C 0.85126 0.87984 0.00682 0.0
C537 C 0.98293 0.19393 0.48905 0.0
C538 C 0.96084 0.16176 0.50358 0.0
C539 C 0.00465 0.19995 0.4513 0.0
C540 C 0.0055 0.17407 0.42723 0.0
H541 H 0.98395 0.21474 0.50757 0.0
H542 H 0.02179 0.22514 0.44234 0.0
S543 S 0.95094 0.08525 0.44777 0.0
N544 N 0.93962 0.10351 0.48788 0.0
N545 N 0.98095 0.11507 0.41776 0.0
C546 C 0.98282 0.14178 0.43996 0.0
C547 C 0.96032 0.13556 0.47785 0.0
C548 C 0.81192 0.82161 0.48142 0.0
C549 C 0.8366 0.84149 0.44918 0.0
C550 C 0.81921 0.81505 0.52757 0.0
C551 C 0.85148 0.82775 0.54306 0.0
H552 H 0.78677 0.81196 0.47163 0.0
H553 H 0.79932 0.8003 0.5515 0.0
S554 S 0.92494 0.87861 0.46988 0.0
N555 N 0.89449 0.87205 0.43441 0.0
N556 N 0.90832 0.85951 0.52054 0.0
C557 C 0.87636 0.84655 0.51015 0.0
C558 C 0.86889 0.85349 0.46344 0.0
C559 C 0.14781 0.02191 0.45503 0.0
C560 C 0.15461 -0.00041 0.43155 0.0
C561 C 0.15604 0.03077 0.50347 0.0
C562 C 0.17163 0.01781 0.53087 0.0
H563 H 0.13576 0.03261 0.43579 0.0
H564 H 0.1498 0.04784 0.51953 0.0
S565 S 0.19677 0.95976 0.48604 0.0
N566 N 0.17942 0.96577 0.43889 0.0
N567 N 0.19467 0.98225 0.53035 0.0
C568 C 0.17924 0.9959 0.50774 0.0
C569 C 0.17097 0.98697 0.458 0.0
C570 C 0.82712 0.99713 0.11792 0.0
C571 C 0.84771 0.03006 0.10505 0.0
C572 C 0.81196 0.9723 0.08275 0.0
C573 C 0.81651 0.97933 0.03319 0.0
H574 H 0.82358 0.99015 0.15552 0.0
H575 H 0.79721 0.94728 0.0947 0.0
S576 S 0.86565 0.06213 0.98028 0.0
N577 N 0.87011 0.06868 0.03917 0.0
N578 N 0.84152 0.02221 0.97308 0.0
C579 C 0.83593 0.01239 0.01978 0.0
C580 C 0.85154 0.03766 0.05565 0.0
C581 C 0.99554 0.79797 0.04257 0.0
C582 C 0.96694 0.79917 0.0483 0.0
C583 C 0.01172 0.80505 0.99828 0.0
C584 C 1e-05 0.81363 0.95772 0.0
H585 H 0.00606 0.79223 0.07282 0.0
H586 H 0.03408 0.80463 0.99634 0.0
S587 S 0.92451 0.81754 0.95206 0.0
N588 N 0.92646 0.8076 0.00835 0.0
N589 N 0.95678 0.82083 0.92532 0.0
C590 C 0.97076 0.81371 0.96234 0.0
C591 C 0.95429 0.80655 0.0075 0.0
C592 C 0.13903 0.13762 0.89813 0.0
C593 C 0.14545 0.16997 0.90247 0.0
C594 C 0.15111 0.1248 0.93181 0.0
C595 C 0.17052 0.1439 0.9709 0.0
H596 H 0.12397 0.1217 0.86899 0.0
H597 H 0.14527 0.09963 0.92682 0.0
S598 S 0.19552 0.2305 0.99785 0.0
N599 N 0.17302 0.22125 0.94849 0.0
N600 N 0.19632 0.19704 0.01166 0.0
C601 C 0.17778 0.17652 0.97535 0.0
C602 C 0.16505 0.18957 0.9412 0.0
C603 C 0.01891 0.90853 0.55208 0.0
C604 C -0.00129 0.87579 0.56601 0.0
C605 C 0.04401 0.91717 0.51908 0.0
C606 C 0.04981 0.89341 0.49812 0.0
H607 H 0.01548 0.92783 0.56698 0.0
H608 H 0.05897 0.94277 0.51008 0.0
S609 S 0.00351 0.80399 0.5219 0.0
N610 N 0.98611 0.81938 0.55616 0.0
N611 N 0.03305 0.83546 0.49375 0.0
C612 C 0.02979 0.8605 0.51173 0.0
C613 C 0.00433 0.85174 0.54572 0.0
C614 C 0.17028 0.16361 0.49192 0.0
C615 C 0.13986 0.15715 0.47477 0.0
C616 C 0.1732 0.14888 0.53384 0.0
C617 C 0.14581 0.12686 0.56027 0.0
H618 H 0.1921 0.17953 0.47217 0.0
H619 H 0.19704 0.15383 0.54441 0.0
S620 S 0.0609 0.10431 0.53448 0.0
N621 N 0.08194 0.1292 0.49046 0.0
N622 N 0.08753 0.10147 0.56879 0.0
C623 C 0.11541 0.12134 0.54498 0.0
C624 C 0.11241 0.13649 0.50245 0.0
C625 C 0.86739 0.00053 0.49334 0.0
C626 C 0.85735 0.02362 0.49851 0.0
C627 C 0.86166 0.98235 0.45058 0.0
C628 C 0.84598 0.98679 0.41086 0.0
H629 H 0.88016 0.99664 0.52243 0.0
H630 H 0.87025 0.96514 0.44848 0.0
S631 S 0.81443 0.04407 0.40615 0.0
N632 N 0.83046 0.04971 0.46071 0.0
N633 N 0.81982 0.01567 0.37993 0.0
C634 C 0.8354 0.00956 0.41571 0.0
C635 C 0.84098 0.02788 0.45964 0.0
C636 C 0.83504 0.32588 0.33164 0.0
C637 C 0.80498 0.30187 0.31215 0.0
C638 C 0.83787 0.33711 0.37959 0.0
C639 C 0.81063 0.32514 0.40973 0.0
H640 H 0.85668 0.33594 0.30989 0.0
H641 H 0.8615 0.35572 0.39273 0.0
S642 S 0.72651 0.26155 0.37722 0.0
N643 N 0.74742 0.26614 0.32767 0.0
N644 N 0.75293 0.28724 0.41731 0.0
C645 C 0.78055 0.30095 0.39091 0.0
C646 C 0.77764 0.2894 0.34231 0.0
C647 C 0.64803 0.48798 0.35753 0.0
C648 C 0.662 0.47712 0.39202 0.0
C649 C 0.66116 0.49729 0.31123 0.0
C650 C 0.68883 0.49612 0.2973 0.0
H651 H 0.62624 0.48857 0.36583 0.0
H652 H 0.64898 0.50474 0.28583 0.0
S653 S 0.73646 0.47223 0.3755 0.0
N654 N 0.70642 0.46775 0.40994 0.0
N655 N 0.73104 0.48518 0.3232 0.0
C656 C 0.70374 0.48638 0.33203 0.0
C657 C 0.69038 0.47694 0.37924 0.0
C658 C 0.49533 0.15185 0.36273 0.0
C659 C 0.5072 0.17502 0.40093 0.0
C660 C 0.48051 0.15606 0.32201 0.0
C661 C 0.47686 0.18365 0.31757 0.0
H662 H 0.49811 0.13052 0.36363 0.0
H663 H 0.47256 0.13783 0.29327 0.0
S664 S 0.50141 0.25037 0.40936 0.0
N665 N 0.51252 0.22568 0.43302 0.0
N666 N 0.4847 0.23365 0.35671 0.0
C667 C 0.48757 0.20648 0.35636 0.0
C668 C 0.5027 0.20216 0.3979 0.0
C669 C 0.65844 0.51385 0.84196 0.0
C670 C 0.63445 0.48133 0.85193 0.0
C671 C 0.68138 0.52095 0.80546 0.0
C672 C 0.6816 0.49577 0.7781 0.0
H673 H 0.65971 0.53399 0.86281 0.0
H674 H 0.69961 0.54631 0.7996 0.0
S675 S 0.6239 0.40649 0.78974 0.0
N676 N 0.61217 0.42374 0.83084 0.0
N677 N 0.65522 0.43698 0.76293 0.0
C678 C 0.65745 0.46319 0.78729 0.0
C679 C 0.63391 0.456 0.82395 0.0
C680 C 0.47319 0.15434 0.82392 0.0
C681 C 0.49603 0.16054 0.78747 0.0
C682 C 0.47647 0.14436 0.87007 0.0
C683 C 0.50277 0.14023 0.88177 0.0
H684 H 0.45298 0.15802 0.81728 0.0
H685 H 0.45869 0.14077 0.89713 0.0
S686 S 0.5677 0.15024 0.79794 0.0
N687 N 0.54473 0.1596 0.76538 0.0
N688 N 0.5509 0.14088 0.85177 0.0
C689 C 0.52517 0.14519 0.8451 0.0
C690 C 0.5218 0.15531 0.79811 0.0
C691 C 0.83343 0.3839 0.83989 0.0
C692 C 0.85635 0.38017 0.86662 0.0
C693 C 0.81553 0.36181 0.8026 0.0
C694 C 0.82007 0.33541 0.79077 0.0
H695 H 0.82673 0.40171 0.85096 0.0
H696 H 0.79529 0.36292 0.78728 0.0
S697 S 0.88475 0.32204 0.83849 0.0
N698 N 0.88838 0.35351 0.87027 0.0
N699 N 0.85476 0.31205 0.79995 0.0
C700 C 0.84678 0.3351 0.81126 0.0
C701 C 0.86478 0.35735 0.84966 0.0
C702 C 0.53004 0.37057 0.37113 0.0
C703 C 0.51197 0.35718 0.41343 0.0
C704 C 0.52048 0.3537 0.32688 0.0
C705 C 0.49233 0.32278 0.32279 0.0
H706 H 0.5523 0.39407 0.37216 0.0
H707 H 0.53575 0.3648 0.29581 0.0
S708 S 0.43531 0.27731 0.42178 0.0
N709 N 0.46368 0.31142 0.44783 0.0
N710 N 0.44556 0.27983 0.36442 0.0
C711 C 0.47324 0.30953 0.36426 0.0
C712 C 0.4831 0.32667 0.40958 0.0
C713 C 0.65017 0.19001 0.31037 0.0
C714 C 0.67551 0.18469 0.29721 0.0
C715 C 0.63251 0.17688 0.35269 0.0
C716 C 0.63957 0.15806 0.38413 0.0
H717 H 0.64421 0.20497 0.28822 0.0
H718 H 0.61369 0.18236 0.36134 0.0
S719 S 0.70284 0.13571 0.36518 0.0
N720 N 0.70609 0.15822 0.31809 0.0
N721 N 0.67307 0.13369 0.3978 0.0
C722 C 0.66435 0.1518 0.37074 0.0
C723 C 0.68221 0.16502 0.3273 0.0
C724 C 0.82951 0.46554 0.32444 0.0
C725 C 0.81824 0.43224 0.3335 0.0
C726 C 0.81415 0.47497 0.29045 0.0
C727 C 0.78681 0.45146 0.26445 0.0
H728 H 0.85015 0.48455 0.34416 0.0
H729 H 0.82337 0.50087 0.28529 0.0
S730 S 0.74936 0.36105 0.27162 0.0
N731 N 0.77942 0.37574 0.31109 0.0
N732 N 0.75012 0.39338 0.24825 0.0
C733 C 0.77566 0.41809 0.27249 0.0
C734 C 0.79148 0.4085 0.30673 0.0
C735 C 0.68316 0.17825 0.94104 0.0
C736 C 0.65137 0.1524 0.93358 0.0
C737 C 0.7051 0.19001 0.90301 0.0
C738 C 0.69631 0.1759 0.8565 0.0
H739 H 0.69068 0.19077 0.97574 0.0
H740 H 0.72897 0.21099 0.9098 0.0
S741 S 0.61732 0.10517 0.81933 0.0
N742 N 0.61285 0.1112 0.87703 0.0
N743 N 0.65482 0.13314 0.80566 0.0
C744 C 0.66541 0.14865 0.84911 0.0
C745 C 0.64271 0.13695 0.8877 0.0
C746 C 0.85683 0.51343 0.84956 0.0
C747 C 0.8316 0.49761 0.88297 0.0
C748 C 0.85211 0.52521 0.80593 0.0
C749 C 0.82199 0.52186 0.7939 0.0
H750 H 0.88019 0.51577 0.85626 0.0
H751 H 0.87215 0.53641 0.78102 0.0
S752 S 0.74888 0.48525 0.87147 0.0
N753 N 0.77603 0.48135 0.90277 0.0
N754 N 0.76711 0.50355 0.82111 0.0
C755 C 0.79693 0.50738 0.82809 0.0
C756 C 0.80174 0.49525 0.87246 0.0
C757 C 0.49133 0.34208 0.79775 0.0
C758 C 0.49317 0.3302 0.84333 0.0
C759 C 0.48208 0.32191 0.75638 0.0
C760 C 0.47443 0.28905 0.75881 0.0
H761 H 0.49791 0.36745 0.7936 0.0
H762 H 0.48206 0.33257 0.72198 0.0
S763 S 0.47249 0.24496 0.87009 0.0
N764 N 0.48432 0.28264 0.88885 0.0
N765 N 0.46706 0.24486 0.81124 0.0
C766 C 0.47493 0.27647 0.80445 0.0
C767 C 0.48425 0.29698 0.84662 0.0
C768 C 0.51952 0.66215 0.63532 0.0
C769 C 0.48866 0.63685 0.62052 0.0
C770 C 0.52469 0.6767 0.68139 0.0
C771 C 0.49913 0.66671 0.7144 0.0
H772 H 0.53989 0.67104 0.61105 0.0
H773 H 0.54875 0.69649 0.69061 0.0
S774 S 0.41406 0.60043 0.69509 0.0
N775 N 0.43233 0.60161 0.64402 0.0
N776 N 0.44227 0.62909 0.73017 0.0
C777 C 0.46837 0.64101 0.7006 0.0
C778 C 0.46306 0.62608 0.65386 0.0
C779 C 0.33616 0.84005 0.65328 0.0
C780 C 0.36576 0.84387 0.63744 0.0
C781 C 0.32437 0.82844 0.69958 0.0
C782 C 0.34173 0.82024 0.73207 0.0
H783 H 0.32129 0.84488 0.62916 0.0
H784 H 0.30095 0.82494 0.70931 0.0
S785 S 0.42246 0.82943 0.71034 0.0
N786 N 0.41358 0.84122 0.65963 0.0
N787 N 0.39146 0.8194 0.74634 0.0
C788 C 0.37216 0.8255 0.71757 0.0
C789 C 0.38414 0.83729 0.6704 0.0
C790 C 0.15534 0.50505 0.65841 0.0
C791 C 0.16146 0.53447 0.63719 0.0
C792 C 0.17545 0.50497 0.69526 0.0
C793 C 0.20287 0.53424 0.7115 0.0
H794 H 0.13479 0.48193 0.64662 0.0
H795 H 0.16978 0.48167 0.71044 0.0
S796 S 0.23009 0.6178 0.66642 0.0
N797 N 0.19706 0.59366 0.63484 0.0
N798 N 0.23518 0.59338 0.70284 0.0
C799 C 0.20935 0.56378 0.69027 0.0
C800 C 0.18856 0.56394 0.6535 0.0
C801 C 0.3456 0.83273 0.15487 0.0
C802 C 0.33413 0.81114 0.11473 0.0
C803 C 0.32559 0.82878 0.19422 0.0
C804 C 0.29322 0.80299 0.19529 0.0
H805 H 0.37045 0.85271 0.15639 0.0
H806 H 0.33589 0.84577 0.22446 0.0
S807 S 0.25065 0.74057 0.09799 0.0
N808 N 0.28776 0.76368 0.07767 0.0
N809 N 0.25018 0.75621 0.15136 0.0
C810 C 0.28117 0.78161 0.15482 0.0
C811 C 0.30157 0.78569 0.11468 0.0
C812 C 0.1811 0.4778 0.13026 0.0
C813 C 0.15704 0.48512 0.11745 0.0
C814 C 0.18252 0.46709 0.17665 0.0
C815 C 0.15978 0.46291 0.21219 0.0
H816 H 0.19982 0.48151 0.10489 0.0
H817 H 0.20223 0.46293 0.18504 0.0
S818 S 0.08995 0.47559 0.1958 0.0
N819 N 0.10843 0.48508 0.14315 0.0
N820 N 0.11103 0.46479 0.23025 0.0
C821 C 0.13451 0.46839 0.19913 0.0
C822 C 0.13319 0.47957 0.15187 0.0
C823 C 0.53039 0.7232 0.16948 0.0
C824 C 0.54809 0.71513 0.20155 0.0
C825 C 0.51099 0.70121 0.1331 0.0
C826 C 0.50888 0.67064 0.12732 0.0
H827 H 0.52861 0.74489 0.17558 0.0
H828 H 0.49453 0.7064 0.11352 0.0
S829 S 0.5589 0.643 0.19056 0.0
N830 N 0.56875 0.67842 0.21672 0.0
N831 N 0.53227 0.63717 0.14804 0.0
C832 C 0.53086 0.66503 0.15313 0.0
C833 C 0.5504 0.68725 0.19063 0.0
C834 C 0.20086 0.68428 0.66371 0.0
C835 C 0.16973 0.65672 0.6584 0.0
C836 C 0.21273 0.6991 0.70895 0.0
C837 C 0.19413 0.68679 0.75109 0.0
H838 H 0.21646 0.69433 0.63268 0.0
H839 H 0.23702 0.72009 0.7108 0.0
S840 S 0.11088 0.61476 0.75679 0.0
N841 N 0.1203 0.6176 0.69902 0.0
N842 N 0.14262 0.64525 0.78423 0.0
C843 C 0.16273 0.65935 0.74623 0.0
C844 C 0.15052 0.64442 0.6999 0.0
C845 C 0.34361 0.50282 0.69203 0.0
C846 C 0.31763 0.50775 0.70295 0.0
C847 C 0.3595 0.51209 0.6475 0.0
C848 C 0.35027 0.52692 0.61207 0.0
H849 H 0.35238 0.49244 0.71852 0.0
H850 H 0.37999 0.50873 0.64163 0.0
S851 S 0.28173 0.54237 0.62006 0.0
N852 N 0.28184 0.5262 0.67248 0.0
N853 N 0.31193 0.54385 0.58931 0.0
C854 C 0.32355 0.53082 0.62157 0.0
C855 C 0.3072 0.52118 0.66679 0.0
C856 C 0.46991 0.76485 0.64402 0.0
C857 C 0.4973 0.78868 0.66965 0.0
C858 C 0.45365 0.7737 0.61101 0.0
C859 C 0.46436 0.80675 0.60152 0.0
H860 H 0.46083 0.73901 0.64922 0.0
H861 H 0.43261 0.75434 0.59242 0.0
S862 S 0.53445 0.87889 0.65923 0.0
N863 N 0.53414 0.84705 0.68367 0.0
N864 N 0.50369 0.86357 0.62086 0.0
C865 C 0.49173 0.83095 0.62661 0.0
C866 C 0.50813 0.82194 0.66088 0.0
C867 C 0.3098 0.48612 0.22367 0.0
C868 C 0.31474 0.50547 0.26555 0.0
C869 C 0.3334 0.49629 0.18747 0.0
C870 C 0.36253 0.52635 0.19163 0.0
H871 H 0.28732 0.46318 0.21834 0.0
H872 H 0.3285 0.4809 0.15564 0.0
S873 S 0.38882 0.58464 0.29598 0.0
N874 N 0.35224 0.55506 0.31026 0.0
N875 N 0.39615 0.5742 0.24249 0.0
C876 C 0.36817 0.54542 0.23393 0.0
C877 C 0.34441 0.53498 0.27082 0.0
C878 C 0.53729 0.84182 0.17543 0.0
C879 C 0.51936 0.83624 0.21812 0.0
C880 C 0.52686 0.84816 0.13168 0.0
C881 C 0.498 0.84911 0.12869 0.0
H882 H 0.55898 0.84008 0.17525 0.0
H883 H 0.54101 0.85118 0.09963 0.0
S884 S 0.44438 0.84049 0.23128 0.0
N885 N 0.47292 0.8353 0.2555 0.0
N886 N 0.45332 0.8471 0.17345 0.0
C887 C 0.48073 0.84529 0.17163 0.0
C888 C 0.49141 0.83893 0.21623 0.0
C889 C 0.18229 0.64174 0.17252 0.0
C890 C 0.17869 0.66936 0.17657 0.0
C891 C 0.17553 0.62393 0.12919 0.0
C892 C 0.16528 0.6332 0.0877 0.0
H893 H 0.19072 0.6339 0.20304 0.0
H894 H 0.17903 0.60303 0.12815 0.0
S895 S 0.15179 0.70373 0.07941 0.0
N896 N 0.16371 0.70505 0.13577 0.0
N897 N 0.15132 0.67178 0.05383 0.0
C898 C 0.16121 0.66065 0.09135 0.0
C899 C 0.16773 0.6786 0.1359 0.0
C900 C 0.0927 0.09873 0.23094 0.0
C901 C 0.11633 0.12699 0.25574 0.0
C902 C 0.10072 0.08592 0.19077 0.0
C903 C 0.13279 0.10053 0.17435 0.0
H904 H 0.06747 0.08735 0.24097 0.0
H905 H 0.08148 0.06504 0.17159 0.0
S906 S 0.20439 0.17261 0.23007 0.0
N907 N 0.17357 0.16727 0.26324 0.0
N908 N 0.18871 0.1433 0.18856 0.0
C909 C 0.15692 0.12749 0.20075 0.0
C910 C 0.14868 0.14071 0.24118 0.0
C911 C 0.91858 0.00982 0.28783 0.0
C912 C 0.90493 0.9843 0.25317 0.0
C913 C 0.93179 0.04258 0.27417 0.0
C914 C 0.93276 0.05071 0.22536 0.0
H915 H 0.91713 0.00429 0.32593 0.0
H916 H 0.94041 0.06153 0.30195 0.0
S917 S 0.9013 0.99284 0.12104 0.0
N918 N 0.89334 0.96915 0.16846 0.0
N919 N 0.92004 0.03085 0.14229 0.0
C920 C 0.92069 0.02548 0.19028 0.0
C921 C 0.90624 0.99216 0.20434 0.0
C922 C 0.99332 0.84789 0.25482 0.0
C923 C 0.97108 0.85769 0.24223 0.0
C924 C 0.01964 0.8672 0.28542 0.0
C925 C 0.02452 0.89692 0.30514 0.0
H926 H 0.99043 0.82506 0.24128 0.0
H927 H 0.03567 0.85818 0.29483 0.0
S928 S 0.9743 0.93468 0.28088 0.0
N929 N 0.95654 0.8999 0.24971 0.0
N930 N 0.00588 0.93622 0.30752 0.0
C931 C 0.00303 0.90758 0.29156 0.0
C932 C 0.9764 0.88801 0.25996 0.0
C933 C 0.90045 0.9065 0.77708 0.0
C934 C 0.88529 0.88597 0.73684 0.0
C935 C 0.88416 0.91857 0.80495 0.0
C936 C 0.85228 0.9102 0.79325 0.0
H937 H 0.92418 0.91163 0.78869 0.0
H938 H 0.89585 0.93288 0.83725 0.0
S939 S 0.80493 0.86257 0.68571 0.0
N940 N 0.839 0.86193 0.68255 0.0
N941 N 0.8081 0.88406 0.73495 0.0
C942 C 0.838 0.89176 0.75095 0.0
C943 C 0.85461 0.87972 0.72269 0.0
C944 C 0.13096 0.96903 0.70759 0.0
C945 C 0.12339 0.99255 0.72383 0.0
C946 C 0.11716 0.93822 0.72872 0.0
C947 C 0.09508 0.92962 0.76685 0.0
H948 H 0.14832 0.97469 0.67905 0.0
H949 H 0.12471 0.92137 0.71603 0.0
S950 S 0.06461 0.98143 0.81913 0.0
N951 N 0.0905 0.00456 0.77736 0.0
N952 N 0.06415 0.94626 0.81735 0.0
C953 C 0.0855 0.95209 0.78124 0.0
C954 C 0.09975 0.98369 0.75959 0.0
C955 C 0.97832 0.16326 0.69037 0.0
C956 C 0.95531 0.13015 0.69709 0.0
C957 C 0.00718 0.17854 0.71661 0.0
C958 C 0.01442 0.1612 0.75036 0.0
H959 H 0.97446 0.17756 0.66404 0.0
H960 H 0.02403 0.20421 0.71 0.0
S961 S 0.96292 0.07309 0.77915 0.0
N962 N 0.94195 0.07978 0.73811 0.0
N963 N 0.99676 0.10848 0.78769 0.0
C964 C 0.99214 0.12762 0.75632 0.0
C965 C 0.96248 0.11205 0.72948 0.0
C966 C 0.76229 0.44599 0.58743 0.0
C967 C 0.78261 0.48033 0.58775 0.0
C968 C 0.76844 0.42588 0.55701 0.0
C969 C 0.79546 0.43934 0.52661 0.0
H970 H 0.7412 0.43451 0.61037 0.0
H971 H 0.75197 0.39962 0.55726 0.0
S972 S 0.85489 0.5274 0.51061 0.0
N973 N 0.82985 0.52676 0.55209 0.0
N974 N 0.84186 0.48867 0.49666 0.0
C975 C 0.81601 0.47341 0.52649 0.0
C976 C 0.80948 0.49399 0.55665 0.0
C977 C 0.53915 0.29423 0.55437 0.0
C978 C 0.5347 0.28626 0.60353 0.0
C979 C 0.55699 0.32703 0.54002 0.0
C980 C 0.56981 0.35268 0.57449 0.0
H981 H 0.52832 0.27506 0.52697 0.0
H982 H 0.55927 0.33242 0.50181 0.0
S983 S 0.56391 0.34448 0.70739 0.0
N984 N 0.5449 0.30637 0.68651 0.0
N985 N 0.57668 0.36808 0.65943 0.0
C986 C 0.5656 0.34497 0.62362 0.0
C987 C 0.54846 0.31166 0.6382 0.0
C988 C 0.63142 0.21626 0.62514 0.0
C989 C 0.63552 0.20015 0.58529 0.0
C990 C 0.65448 0.22912 0.66256 0.0
C991 C 0.6825 0.22647 0.66111 0.0
H992 H 0.60932 0.21705 0.62893 0.0
H993 H 0.64939 0.23967 0.69387 0.0
S994 S 0.70685 0.19197 0.55895 0.0
N995 N 0.67105 0.18595 0.54286 0.0
N996 N 0.71492 0.21065 0.61218 0.0
C997 C 0.68799 0.21286 0.61905 0.0
C998 C 0.66429 0.19947 0.58142 0.0
C999 C 0.50576 0.18516 0.06202 0.0
C1000 C 0.53732 0.19287 0.07346 0.0
C1001 C 0.49161 0.20095 0.08544 0.0
C1002 C 0.50836 0.22483 0.12166 0.0
H1003 H 0.49156 0.16622 0.03554 0.0
H1004 H 0.46679 0.19338 0.07628 0.0
S1005 S 0.59311 0.25618 0.16107 0.0
N1006 N 0.58627 0.22784 0.11974 0.0
N1007 N 0.55935 0.2575 0.16485 0.0
C1008 C 0.5408 0.2344 0.13121 0.0
C1009 C 0.55537 0.21836 0.10681 0.0
C1010 C 0.81563 0.3438 0.04497 0.0
C1011 C 0.80729 0.36775 0.05461 0.0
C1012 C 0.80056 0.31392 0.06872 0.0
C1013 C 0.77614 0.30645 0.10285 0.0
H1014 H 0.83432 0.34824 0.0193 0.0
H1015 H 0.80874 0.29678 0.06097 0.0
S1016 S 0.7416 0.35878 0.13505 0.0
N1017 N 0.77052 0.38084 0.09618 0.0
N1018 N 0.74153 0.324 0.14091 0.0
C1019 C 0.76559 0.32906 0.11004 0.0
C1020 C 0.78128 0.35986 0.08578 0.0
C1021 C 0.61761 0.44926 0.07681 0.0
C1022 C 0.6108 0.42711 0.03813 0.0
C1023 C 0.64557 0.46063 0.10477 0.0
C1024 C 0.66782 0.45036 0.09515 0.0
H1025 H 0.60166 0.45867 0.08485 0.0
H1026 H 0.65008 0.47815 0.13351 0.0
S1027 S 0.65993 0.39007 0.0016 0.0
N1028 N 0.62732 0.39311 0.99427 0.0
N1029 N 0.68025 0.41482 0.0473 0.0
C1030 C 0.66041 0.42657 0.05888 0.0
C1031 C 0.63179 0.41488 0.03014 0.0
C1032 C 0.47472 0.79597 0.92966 0.0
C1033 C 0.44185 0.78479 0.93776 0.0
C1034 C 0.48443 0.78181 0.89368 0.0
C1035 C 0.46158 0.75615 0.86394 0.0
H1036 H 0.49319 0.81641 0.95044 0.0
H1037 H 0.51012 0.79219 0.88776 0.0
S1038 S 0.37217 0.71549 0.87473 0.0
N1039 N 0.38628 0.7447 0.91662 0.0
N1040 N 0.40428 0.71794 0.84855 0.0
C1041 C 0.42847 0.74338 0.87378 0.0
C1042 C 0.41865 0.75767 0.91091 0.0
C1043 C 0.26013 0.67566 0.95364 0.0
C1044 C 0.26189 0.68413 0.90485 0.0
C1045 C 0.24206 0.64286 0.9677 0.0
C1046 C 0.22433 0.61788 0.93344 0.0
H1047 H 0.27121 0.69465 0.98127 0.0
H1048 H 0.23966 0.6374 0.00588 0.0
S1049 S 0.22216 0.62738 0.80126 0.0
N1050 N 0.24652 0.66494 0.82206 0.0
N1051 N 0.21082 0.60343 0.84883 0.0
C1052 C 0.22716 0.6259 0.88443 0.0
C1053 C 0.24645 0.65909 0.86999 0.0
C1054 C 0.3487 0.58974 0.9827 0.0
C1055 C 0.37272 0.5809 0.9855 0.0
C1056 C 0.32711 0.57974 0.94345 0.0
C1057 C 0.32879 0.56057 0.9058 0.0
H1058 H 0.34509 0.60263 0.01241 0.0
H1059 H 0.30743 0.58478 0.94458 0.0
S1060 S 0.3916 0.53773 0.88937 0.0
N1061 N 0.40024 0.55687 0.94228 0.0
N1062 N 0.35943 0.53813 0.86892 0.0
C1063 C 0.35453 0.55447 0.90553 0.0
C1064 C 0.37662 0.5647 0.94527 0.0
C1065 C 0.19892 0.56873 0.4543 0.0
C1066 C 0.16727 0.56131 0.44314 0.0
C1067 C 0.21231 0.55162 0.43154 0.0
C1068 C 0.19429 0.52662 0.39738 0.0
H1069 H 0.21262 0.58632 0.48272 0.0
H1070 H 0.23611 0.55669 0.44265 0.0
S1071 S 0.11316 0.50271 0.34891 0.0
N1072 N 0.12028 0.53076 0.39078 0.0
N1073 N 0.1455 0.49882 0.34845 0.0
C1074 C 0.16376 0.52086 0.38341 0.0
C1075 C 0.15023 0.53824 0.40618 0.0
C1076 C 0.4589 0.67019 0.4463 0.0
C1077 C 0.45578 0.64243 0.42205 0.0
C1078 C 0.4769 0.70148 0.42607 0.0
C1079 C 0.49164 0.70561 0.3808 0.0
H1080 H 0.44895 0.66796 0.48211 0.0
H1081 H 0.48027 0.72263 0.44662 0.0
S1082 S 0.4867 0.64014 0.30026 0.0
N1083 N 0.46672 0.62075 0.34911 0.0
N1084 N 0.49897 0.67921 0.31028 0.0
C1085 C 0.48688 0.67782 0.35508 0.0
C1086 C 0.4693 0.64623 0.37596 0.0
C1087 C 0.32964 0.76945 0.40142 0.0
C1088 C 0.33565 0.79111 0.44046 0.0
C1089 C 0.29987 0.7547 0.37657 0.0
C1090 C 0.27547 0.76137 0.39018 0.0
H1091 H 0.34863 0.76533 0.38838 0.0
H1092 H 0.2967 0.73959 0.34498 0.0
S1093 S 0.27723 0.8109 0.49622 0.0
N1094 N 0.31324 0.81427 0.49614 0.0
N1095 N 0.25766 0.78725 0.44924 0.0
C1096 C 0.28047 0.781 0.43141 0.0
C1097 C 0.31054 0.79576 0.45664 0.0
C1098 C 0.30242 0.17929 0.17756 0.0
C1099 C 0.28176 0.14595 0.1657 0.0
C1100 C 0.3333 0.1904 0.19709 0.0
C1101 C 0.34449 0.16852 0.20539 0.0
H1102 H 0.29578 0.19733 0.16844 0.0
H1103 H 0.34942 0.21658 0.20145 0.0
S1104 S 0.29636 0.07791 0.19335 0.0
N1105 N 0.27211 0.0905 0.17308 0.0
N1106 N 0.33013 0.11141 0.20982 0.0
C1107 C 0.32253 0.13475 0.19946 0.0
C1108 C 0.29116 0.12345 0.17948 0.0
C1109 C 0.86298 0.20898 0.1837 0.0
C1110 C 0.83161 0.19793 0.20145 0.0
C1111 C 0.87769 0.19005 0.18738 0.0
C1112 C 0.86192 0.15919 0.2093 0.0
H1113 H 0.87633 0.23234 0.16585 0.0
H1114 H 0.90171 0.1998 0.17256 0.0
S1115 S 0.77999 0.11925 0.26369 0.0
N1116 N 0.78551 0.15435 0.24323 0.0
N1117 N 0.81328 0.11866 0.2504 0.0
C1118 C 0.83077 0.14798 0.22827 0.0
C1119 C 0.81561 0.16731 0.22422 0.0
C1120 C 0.79436 0.63948 0.16007 0.0
C1121 C 0.802 0.61516 0.17144 0.0
C1122 C 0.81803 0.67273 0.15965 0.0
C1123 C 0.85049 0.68334 0.1708 0.0
H1124 H 0.76978 0.63292 0.15109 0.0
H1125 H 0.8106 0.69024 0.15098 0.0
S1126 S 0.88369 0.62979 0.20256 0.0
N1127 N 0.84468 0.60417 0.19382 0.0
N1128 N 0.88927 0.66667 0.19312 0.0
C1129 C 0.85863 0.65935 0.18222 0.0
C1130 C 0.83442 0.62535 0.18258 0.0
C1131 C 0.1831 0.34511 0.34241 0.0
C1132 C 0.16073 0.35353 0.36026 0.0
C1133 C 0.17698 0.31291 0.34421 0.0
C1134 C 0.14814 0.28753 0.36387 0.0
H1135 H 0.2055 0.36343 0.32621 0.0
H1136 H 0.1948 0.30787 0.32877 0.0
S1137 S 0.08273 0.29687 0.41964 0.0
N1138 N 0.10924 0.33398 0.40113 0.0
N1139 N 0.09789 0.2735 0.40464 0.0
C1140 C 0.12594 0.2957 0.38329 0.0
C1141 C 0.13216 0.3286 0.3814 0.0
C1142 C 0.67847 0.85017 0.29075 0.0
C1143 C 0.66582 0.8259 0.32622 0.0
C1144 C 0.71186 0.86894 0.28292 0.0
C1145 C 0.73402 0.86434 0.31039 0.0
H1146 H 0.66244 0.85423 0.26805 0.0
H1147 H 0.72029 0.88703 0.25469 0.0
S1148 S 0.71334 0.80599 0.41106 0.0
N1149 N 0.67811 0.79956 0.39117 0.0
N1150 N 0.74076 0.83505 0.37678 0.0
C1151 C 0.72168 0.84069 0.34684 0.0
C1152 C 0.68766 0.82147 0.3547 0.0
C1153 C 0.14048 0.80189 0.29415 0.0
C1154 C 0.17371 0.82084 0.28415 0.0
C1155 C 0.1222 0.81686 0.30453 0.0
C1156 C 0.13657 0.85124 0.30516 0.0
H1157 H 0.12914 0.7756 0.29812 0.0
H1158 H 0.09731 0.80144 0.31557 0.0
S1159 S 0.22082 0.91098 0.26949 0.0
N1160 N 0.21877 0.87509 0.26699 0.0
N1161 N 0.18452 0.90323 0.2859 0.0
C1162 C 0.16885 0.87008 0.2898 0.0
C1163 C 0.18739 0.85486 0.27944 0.0
C1164 C 0.67589 0.86691 0.88691 0.0
C1165 C 0.68912 0.8468 0.89555 0.0
C1166 C 0.64327 0.85325 0.87328 0.0
C1167 C 0.62292 0.81907 0.8679 0.0
H1168 H 0.69142 0.89331 0.88622 0.0
H1169 H 0.63478 0.86969 0.86319 0.0
S1170 S 0.64409 0.75601 0.89868 0.0
N1171 N 0.6781 0.79124 0.9067 0.0
N1172 N 0.61688 0.76554 0.88161 0.0
C1173 C 0.635 0.79881 0.88214 0.0
C1174 C 0.6681 0.8127 0.89587 0.0
C1175 C 0.16228 0.77987 0.88293 0.0
C1176 C 0.19627 0.79572 0.87994 0.0
C1177 C 0.14581 0.79698 0.87578 0.0
C1178 C 0.16272 0.83061 0.86546 0.0
H1179 H 0.14811 0.75376 0.88921 0.0
H1180 H 0.11962 0.7835 0.87684 0.0
S1181 S 0.25219 0.88447 0.86067 0.0
N1182 N 0.2464 0.84757 0.87065 0.0
N1183 N 0.21573 0.87986 0.85769 0.0
C1184 C 0.19685 0.84708 0.86487 0.0
C1185 C 0.21354 0.82962 0.87195 0.0
C1186 C 0.1699 0.38351 0.81198 0.0
C1187 C 0.19992 0.39188 0.83299 0.0
C1188 C 0.14386 0.35128 0.81227 0.0
C1189 C 0.14666 0.32594 0.83353 0.0
H1190 H 0.16639 0.40197 0.79488 0.0
H1191 H 0.12151 0.34619 0.79485 0.0
S1192 S 0.21949 0.33493 0.89584 0.0
N1193 N 0.23054 0.37214 0.8773 0.0
N1194 N 0.1816 0.31165 0.87788 0.0
C1195 C 0.17638 0.33398 0.85539 0.0
C1196 C 0.20297 0.36685 0.85504 0.0
C1197 C 0.82452 0.69401 0.69431 0.0
C1198 C 0.85549 0.71824 0.67892 0.0
C1199 C 0.81522 0.66083 0.69438 0.0
C1200 C 0.83639 0.65019 0.679 0.0
H1201 H 0.80697 0.70054 0.70626 0.0
H1202 H 0.79092 0.64337 0.7059 0.0
S1203 S 0.92086 0.70374 0.63695 0.0
N1204 N 0.90779 0.72928 0.6492 0.0
N1205 N 0.89043 0.66691 0.6493 0.0
C1206 C 0.86776 0.67418 0.6644 0.0
C1207 C 0.87724 0.70812 0.6643 0.0
C1208 C 0.30415 0.14903 0.63272 0.0
C1209 C 0.29212 0.12102 0.66152 0.0
C1210 C 0.33758 0.17024 0.62729 0.0
C1211 C 0.36032 0.1644 0.6507 0.0
H1212 H 0.28766 0.1543 0.61347 0.0
H1213 H 0.34559 0.19124 0.60419 0.0
S1214 S 0.34112 0.09585 0.73388 0.0
N1215 N 0.30555 0.08963 0.71617 0.0
N1216 N 0.36803 0.12927 0.70615 0.0
C1217 C 0.34848 0.13684 0.68061 0.0
C1218 C 0.31453 0.11526 0.68598 0.0
C1219 C 0.79955 0.13957 0.60824 0.0
C1220 C 0.83149 0.16325 0.59638 0.0
C1221 C 0.77804 0.14902 0.62609 0.0
C1222 C 0.78795 0.18237 0.6326 0.0
H1223 H 0.79221 0.11383 0.60895 0.0
H1224 H 0.7548 0.13016 0.63931 0.0
S1225 S 0.86529 0.2531 0.59217 0.0
N1226 N 0.86914 0.22085 0.58118 0.0
N1227 N 0.8288 0.23859 0.61509 0.0
C1228 C 0.81803 0.20592 0.61411 0.0
C1229 C 0.83978 0.19632 0.59571 0.0
C1230 C 0.99203 0.47015 0.55691 0.0
C1231 C 0.01191 0.50446 0.5606 0.0
C1232 C 0.95929 0.45555 0.54445 0.0
C1233 C 0.94494 0.47459 0.53549 0.0
H1234 H 0.00238 0.4545 0.55994 0.0
H1235 H 0.94567 0.42921 0.53892 0.0
S1236 S 0.98443 0.56486 0.55153 0.0
N1237 N 0.01349 0.5567 0.56254 0.0
N1238 N 0.9517 0.52916 0.53965 0.0
C1239 C 0.96347 0.50857 0.54487 0.0
C1240 C 0.99702 0.52353 0.55745 0.0
C1241 C 0.52878 0.52891 0.4985 0.0
C1242 C 0.49806 0.52148 0.51523 0.0
C1243 C 0.54064 0.50766 0.50578 0.0
C1244 C 0.5224 0.47796 0.53026 0.0
H1245 H 0.54385 0.55123 0.47891 0.0
H1246 H 0.56427 0.51456 0.49154 0.0
S1247 S 0.44096 0.44751 0.58358 0.0
N1248 N 0.44999 0.48271 0.55897 0.0
N1249 N 0.47218 0.44269 0.57281 0.0
C1250 C 0.49179 0.4704 0.54804 0.0
C1251 C 0.47966 0.49212 0.54047 0.0
C1252 C 0.52544 0.00618 0.51283 0.0
C1253 C 0.51889 0.03019 0.49556 0.0
C1254 C 0.50151 0.97288 0.5132 0.0
C1255 C 0.46991 0.96208 0.49649 0.0
H1256 H 0.54917 0.01312 0.52698 0.0
H1257 H 0.50782 0.95555 0.52728 0.0
S1258 S 0.44045 0.01466 0.44482 0.0
N1259 N 0.47857 0.04041 0.45931 0.0
N1260 N 0.43375 0.97816 0.46005 0.0
C1261 C 0.46317 0.98574 0.47815 0.0
C1262 C 0.48757 0.01962 0.4776 0.0
C1263 C 0.46859 0.99671 0.0313 0.0
C1264 C 0.495 0.02118 0.0058 0.0
C1265 C 0.46145 0.96408 0.02998 0.0
C1266 C 0.48038 0.95463 0.00298 0.0
H1267 H 0.45373 0.00287 0.05343 0.0
H1268 H 0.44111 0.94625 0.05078 0.0
S1269 S 0.55055 0.00906 0.92613 0.0
N1270 N 0.53894 0.03346 0.95026 0.0
N1271 N 0.52566 0.97238 0.94766 0.0
C1272 C 0.50639 0.97881 0.97623 0.0
C1273 C 0.51363 0.01198 0.97763 0.0
C1274 C 0.9981 0.48084 0.01382 0.0
C1275 C 0.97785 0.48902 0.98814 0.0
C1276 C 0.03148 0.49775 0.00727 0.0
C1277 C 0.04639 0.52378 0.97474 0.0
H1278 H 0.98809 0.46086 0.03918 0.0
H1279 H 0.04564 0.49011 0.02802 0.0
S1280 S 0.00447 0.55579 0.89941 0.0
N1281 N 0.97509 0.52542 0.92959 0.0
N1282 N 0.03826 0.55763 0.91717 0.0
C1283 C 0.02659 0.53288 0.94946 0.0
C1284 C 0.99229 0.51547 0.95625 0.0
C1285 C 0.5204 0.52422 0.96565 0.0
C1286 C 0.50826 0.49138 0.95112 0.0
C1287 C 0.49979 0.53524 0.98149 0.0
C1288 C 0.4661 0.51399 0.98323 0.0
H1289 H 0.54624 0.5411 0.96803 0.0
H1290 H 0.5106 0.5602 0.99507 0.0
S1291 S 0.42144 0.42763 0.93928 0.0
N1292 N 0.45994 0.4391 0.93216 0.0
N1293 N 0.42111 0.45999 0.96158 0.0
C1294 C 0.45332 0.48215 0.96368 0.0
C1295 C 0.47442 0.47082 0.94761 0.0
loop_
_geom_bond_atom_site_label_1
_geom_bond_atom_site_label_2
_geom_bond_distance
_geom_bond_site_symmetry_2
_ccdc_geom_bond_type
Mg0 O1 2.028 . S
Mg0 O7 1.986 . S
Mg0 O9 2.114 . S
Mg0 O10 2.251 . S
Mg0 O13 2.010 . S
O1 Mg0 2.028 . S
O1 C4 1.250 . S
O2 Mg3 2.028 . S
O2 C4 1.248 . S
Mg3 O2 2.028 . S
Mg3 O8 2.032 . S
Mg3 O10 2.079 . S
C4 O1 1.250 . S
C4 O2 1.248 . S
C5 O6 1.264 . S
C5 O13 1.249 . S
O6 C5 1.264 . S
O7 Mg0 1.986 . S
O7 C11 1.246 . S
O8 Mg3 2.032 . S
O8 C11 1.259 . S
O9 Mg0 2.114 . S
O9 C12 1.252 . S
O10 Mg0 2.251 . S
O10 Mg3 2.079 . S
O10 C12 1.273 . S
C11 O7 1.246 . S
C11 O8 1.259 . S
C12 O9 1.252 . S
C12 O10 1.273 . S
O13 Mg0 2.010 . S
O13 C5 1.249 . S
Mg14 O15 2.028 . S
Mg14 O21 1.986 . S
Mg14 O23 2.114 . S
Mg14 O24 2.251 . S
Mg14 O27 2.010 . S
O15 Mg14 2.028 . S
O15 C18 1.250 . S
O16 Mg17 2.028 . S
O16 C18 1.248 . S
Mg17 O16 2.028 . S
Mg17 O22 2.032 . S
Mg17 O24 2.079 . S
C18 O15 1.250 . S
C18 O16 1.248 . S
C19 O20 1.264 1_655 S
C19 O27 1.249 . S
O20 C19 1.264 1_455 S
O21 Mg14 1.986 . S
O21 C25 1.246 . S
O22 Mg17 2.032 . S
O22 C25 1.259 . S
O23 Mg14 2.114 . S
O23 C26 1.252 . S
O24 Mg14 2.251 . S
O24 Mg17 2.079 . S
O24 C26 1.273 . S
C25 O21 1.246 . S
C25 O22 1.259 . S
C26 O23 1.252 . S
C26 O24 1.273 . S
O27 Mg14 2.010 . S
O27 C19 1.249 . S
Mg28 O29 2.028 . S
Mg28 O35 1.986 . S
Mg28 O37 2.114 . S
Mg28 O38 2.251 . S
Mg28 O41 2.010 . S
O29 Mg28 2.028 . S
O29 C32 1.250 . S
O30 Mg31 2.028 . S
O30 C32 1.248 . S
Mg31 O30 2.028 . S
Mg31 O36 2.032 . S
Mg31 O38 2.079 . S
C32 O29 1.250 . S
C32 O30 1.248 . S
C33 O34 1.264 . S
C33 O41 1.249 . S
O34 C33 1.264 . S
O35 Mg28 1.986 . S
O35 C39 1.246 . S
O36 Mg31 2.032 . S
O36 C39 1.259 . S
O37 Mg28 2.114 . S
O37 C40 1.252 . S
O38 Mg28 2.251 . S
O38 Mg31 2.079 . S
O38 C40 1.273 . S
C39 O35 1.246 . S
C39 O36 1.259 . S
C40 O37 1.252 . S
C40 O38 1.273 . S
O41 Mg28 2.010 . S
O41 C33 1.249 . S
Mg42 O43 2.028 . S
Mg42 O49 1.986 . S
Mg42 O51 2.114 . S
Mg42 O52 2.251 . S
Mg42 O55 2.010 . S
O43 Mg42 2.028 . S
O43 C46 1.250 . S
O44 Mg45 2.028 . S
O44 C46 1.248 . S
Mg45 O44 2.028 . S
Mg45 O50 2.032 . S
Mg45 O52 2.079 . S
C46 O43 1.250 . S
C46 O44 1.248 . S
C47 O48 1.264 1_455 S
C47 O55 1.249 . S
O48 C47 1.264 1_655 S
O49 Mg42 1.986 . S
O49 C53 1.246 . S
O50 Mg45 2.032 . S
O50 C53 1.259 . S
O51 Mg42 2.114 . S
O51 C54 1.252 . S
O52 Mg42 2.251 . S
O52 Mg45 2.079 . S
O52 C54 1.273 . S
C53 O49 1.246 . S
C53 O50 1.259 . S
C54 O51 1.252 . S
C54 O52 1.273 . S
O55 Mg42 2.010 . S
O55 C47 1.249 . S
Mg56 O57 2.028 . S
Mg56 O63 1.986 . S
Mg56 O65 2.114 . S
Mg56 O66 2.251 . S
Mg56 O69 2.010 . S
O57 Mg56 2.028 . S
O57 C60 1.250 . S
O58 Mg59 2.028 . S
O58 C60 1.248 . S
Mg59 O58 2.028 . S
Mg59 O64 2.032 . S
Mg59 O66 2.079 . S
C60 O57 1.250 . S
C60 O58 1.248 . S
C61 O62 1.264 . S
C61 O69 1.249 . S
O62 C61 1.264 . S
O63 Mg56 1.986 . S
O63 C67 1.246 . S
O64 Mg59 2.032 . S
O64 C67 1.259 . S
O65 Mg56 2.114 . S
O65 C68 1.252 . S
O66 Mg56 2.251 . S
O66 Mg59 2.079 . S
O66 C68 1.273 . S
C67 O63 1.246 . S
C67 O64 1.259 . S
C68 O65 1.252 . S
C68 O66 1.273 . S
O69 Mg56 2.010 . S
O69 C61 1.249 . S
Mg70 O71 2.028 . S
Mg70 O77 1.986 . S
Mg70 O79 2.114 . S
Mg70 O80 2.251 . S
Mg70 O83 2.010 . S
O71 Mg70 2.028 . S
O71 C74 1.250 . S
O72 Mg73 2.028 . S
O72 C74 1.248 . S
Mg73 O72 2.028 . S
Mg73 O78 2.032 . S
Mg73 O80 2.079 . S
C74 O71 1.250 . S
C74 O72 1.248 . S
C75 O76 1.264 . S
C75 O83 1.249 . S
O76 C75 1.264 . S
O77 Mg70 1.986 . S
O77 C81 1.246 . S
O78 Mg73 2.032 . S
O78 C81 1.259 . S
O79 Mg70 2.114 . S
O79 C82 1.252 . S
O80 Mg70 2.251 . S
O80 Mg73 2.079 . S
O80 C82 1.273 . S
C81 O77 1.246 . S
C81 O78 1.259 . S
C82 O79 1.252 . S
C82 O80 1.273 . S
O83 Mg70 2.010 . S
O83 C75 1.249 . S
Mg84 O85 2.028 . S
Mg84 O91 1.986 . S
Mg84 O93 2.114 . S
Mg84 O94 2.251 . S
Mg84 O97 2.010 . S
O85 Mg84 2.028 . S
O85 C88 1.250 . S
O86 Mg87 2.028 . S
O86 C88 1.248 . S
Mg87 O86 2.028 . S
Mg87 O92 2.032 . S
Mg87 O94 2.079 . S
C88 O85 1.250 . S
C88 O86 1.248 . S
C89 O90 1.264 1_565 S
C89 O97 1.249 . S
O90 C89 1.264 1_545 S
O91 Mg84 1.986 . S
O91 C95 1.246 . S
O92 Mg87 2.032 . S
O92 C95 1.259 . S
O93 Mg84 2.114 . S
O93 C96 1.252 . S
O94 Mg84 2.251 . S
O94 Mg87 2.079 . S
O94 C96 1.273 . S
C95 O91 1.246 . S
C95 O92 1.259 . S
C96 O93 1.252 . S
C96 O94 1.273 . S
O97 Mg84 2.010 . S
O97 C89 1.249 . S
Mg98 O99 2.028 . S
Mg98 O105 1.986 . S
Mg98 O107 2.114 . S
Mg98 O108 2.251 . S
Mg98 O111 2.010 . S
O99 Mg98 2.028 . S
O99 C102 1.250 . S
O100 Mg101 2.028 . S
O100 C102 1.248 . S
Mg101 O100 2.028 . S
Mg101 O106 2.032 . S
Mg101 O108 2.079 . S
C102 O99 1.250 . S
C102 O100 1.248 . S
C103 O104 1.264 1_455 S
C103 O111 1.249 . S
O104 C103 1.264 1_655 S
O105 Mg98 1.986 . S
O105 C109 1.246 . S
O106 Mg101 2.032 . S
O106 C109 1.259 . S
O107 Mg98 2.114 . S
O107 C110 1.252 . S
O108 Mg98 2.251 . S
O108 Mg101 2.079 . S
O108 C110 1.273 . S
C109 O105 1.246 . S
C109 O106 1.259 . S
C110 O107 1.252 . S
C110 O108 1.273 . S
O111 Mg98 2.010 . S
O111 C103 1.249 . S
Mg112 O113 2.028 . S
Mg112 O119 1.986 . S
Mg112 O121 2.114 . S
Mg112 O122 2.251 . S
Mg112 O125 2.010 . S
O113 Mg112 2.028 . S
O113 C116 1.250 . S
O114 Mg115 2.028 . S
O114 C116 1.248 . S
Mg115 O114 2.028 . S
Mg115 O120 2.032 . S
Mg115 O122 2.079 . S
C116 O113 1.250 . S
C116 O114 1.248 . S
C117 O118 1.264 . S
C117 O125 1.249 . S
O118 C117 1.264 . S
O119 Mg112 1.986 . S
O119 C123 1.246 . S
O120 Mg115 2.032 . S
O120 C123 1.259 . S
O121 Mg112 2.114 . S
O121 C124 1.252 . S
O122 Mg112 2.251 . S
O122 Mg115 2.079 . S
O122 C124 1.273 . S
C123 O119 1.246 . S
C123 O120 1.259 . S
C124 O121 1.252 . S
C124 O122 1.273 . S
O125 Mg112 2.010 . S
O125 C117 1.249 . S
Mg126 O127 2.028 . S
Mg126 O133 1.986 . S
Mg126 O135 2.114 . S
Mg126 O136 2.251 . S
Mg126 O139 2.010 . S
O127 Mg126 2.028 . S
O127 C130 1.250 . S
O128 Mg129 2.028 . S
O128 C130 1.248 . S
Mg129 O128 2.028 . S
Mg129 O134 2.032 . S
Mg129 O136 2.079 . S
C130 O127 1.250 . S
C130 O128 1.248 . S
C131 O132 1.289 . S
C131 O139 1.249 . S
O132 C131 1.289 . S
O133 Mg126 1.986 . S
O133 C137 1.246 . S
O134 Mg129 2.032 . S
O134 C137 1.259 . S
O135 Mg126 2.114 . S
O135 C138 1.252 . S
O136 Mg126 2.251 . S
O136 Mg129 2.079 . S
O136 C138 1.273 . S
C137 O133 1.246 . S
C137 O134 1.259 . S
C138 O135 1.252 . S
C138 O136 1.273 . S
O139 Mg126 2.010 . S
O139 C131 1.249 . S
Mg140 O141 2.028 . S
Mg140 O147 1.986 . S
Mg140 O149 2.114 . S
Mg140 O150 2.251 . S
Mg140 O153 2.010 . S
O141 Mg140 2.028 . S
O141 C144 1.250 . S
O142 Mg143 2.028 . S
O142 C144 1.248 . S
Mg143 O142 2.028 . S
Mg143 O148 2.032 . S
Mg143 O150 2.079 . S
C144 O141 1.250 . S
C144 O142 1.248 . S
C145 O146 1.264 . S
C145 O153 1.249 . S
O146 C145 1.264 . S
O147 Mg140 1.986 . S
O147 C151 1.246 . S
O148 Mg143 2.032 . S
O148 C151 1.259 . S
O149 Mg140 2.114 . S
O149 C152 1.252 . S
O150 Mg140 2.251 . S
O150 Mg143 2.079 . S
O150 C152 1.273 . S
C151 O147 1.246 . S
C151 O148 1.259 . S
C152 O149 1.252 . S
C152 O150 1.273 . S
O153 Mg140 2.010 . S
O153 C145 1.249 . S
Mg154 O155 2.028 . S
Mg154 O161 1.986 . S
Mg154 O163 2.114 . S
Mg154 O164 2.251 . S
Mg154 O167 2.010 . S
O155 Mg154 2.028 . S
O155 C158 1.250 . S
O156 Mg157 2.028 . S
O156 C158 1.248 . S
Mg157 O156 2.028 . S
Mg157 O162 2.032 . S
Mg157 O164 2.079 . S
C158 O155 1.250 . S
C158 O156 1.248 . S
C159 O160 1.264 1_545 S
C159 O167 1.249 . S
O160 C159 1.264 1_565 S
O161 Mg154 1.986 . S
O161 C165 1.246 . S
O162 Mg157 2.032 . S
O162 C165 1.259 . S
O163 Mg154 2.114 . S
O163 C166 1.252 . S
O164 Mg154 2.251 . S
O164 Mg157 2.079 . S
O164 C166 1.273 . S
C165 O161 1.246 . S
C165 O162 1.259 . S
C166 O163 1.252 . S
C166 O164 1.273 . S
O167 Mg154 2.010 . S
O167 C159 1.249 . S
Mg168 O169 2.028 . S
Mg168 O175 1.986 . S
Mg168 O177 2.114 . S
Mg168 O178 2.251 . S
Mg168 O181 2.010 . S
O169 Mg168 2.028 . S
O169 C172 1.250 . S
O170 Mg171 2.028 . S
O170 C172 1.248 . S
Mg171 O170 2.028 . S
Mg171 O176 2.032 . S
Mg171 O178 2.079 . S
C172 O169 1.250 . S
C172 O170 1.248 . S
C173 O174 1.264 . S
C173 O181 1.249 . S
O174 C173 1.264 . S
O175 Mg168 1.986 . S
O175 C179 1.246 . S
O176 Mg171 2.032 . S
O176 C179 1.259 . S
O177 Mg168 2.114 . S
O177 C180 1.252 . S
O178 Mg168 2.251 . S
O178 Mg171 2.079 . S
O178 C180 1.273 . S
C179 O175 1.246 . S
C179 O176 1.259 . S
C180 O177 1.252 . S
C180 O178 1.273 . S
O181 Mg168 2.010 . S
O181 C173 1.249 . S
Mg182 O183 2.028 . S
Mg182 O189 1.986 . S
Mg182 O191 2.114 . S
Mg182 O192 2.251 . S
Mg182 O195 2.010 . S
O183 Mg182 2.028 . S
O183 C186 1.250 . S
O184 Mg185 2.028 . S
O184 C186 1.248 . S
Mg185 O184 2.028 . S
Mg185 O190 2.032 . S
Mg185 O192 2.079 . S
C186 O183 1.250 . S
C186 O184 1.248 . S
C187 O188 1.264 . S
C187 O195 1.249 . S
O188 C187 1.264 . S
O189 Mg182 1.986 . S
O189 C193 1.246 . S
O190 Mg185 2.032 . S
O190 C193 1.259 . S
O191 Mg182 2.114 . S
O191 C194 1.252 . S
O192 Mg182 2.251 . S
O192 Mg185 2.079 . S
O192 C194 1.273 . S
C193 O189 1.246 . S
C193 O190 1.259 . S
C194 O191 1.252 . S
C194 O192 1.273 . S
O195 Mg182 2.010 . S
O195 C187 1.249 . S
Mg196 O197 2.028 . S
Mg196 O203 1.986 . S
Mg196 O205 2.114 . S
Mg196 O206 2.251 . S
Mg196 O209 2.010 . S
O197 Mg196 2.028 . S
O197 C200 1.250 . S
O198 Mg199 2.028 . S
O198 C200 1.248 . S
Mg199 O198 2.028 . S
Mg199 O204 2.032 . S
Mg199 O206 2.079 . S
C200 O197 1.250 . S
C200 O198 1.248 . S
C201 O202 1.264 . S
C201 O209 1.249 . S
O202 C201 1.264 . S
O203 Mg196 1.986 . S
O203 C207 1.246 . S
O204 Mg199 2.032 . S
O204 C207 1.259 . S
O205 Mg196 2.114 . S
O205 C208 1.252 . S
O206 Mg196 2.251 . S
O206 Mg199 2.079 . S
O206 C208 1.273 . S
C207 O203 1.246 . S
C207 O204 1.259 . S
C208 O205 1.252 . S
C208 O206 1.273 . S
O209 Mg196 2.010 . S
O209 C201 1.249 . S
Mg210 O211 2.028 . S
Mg210 O217 1.986 . S
Mg210 O219 2.114 . S
Mg210 O220 2.251 . S
Mg210 O223 2.010 . S
O211 Mg210 2.028 . S
O211 C214 1.250 . S
O212 Mg213 2.028 . S
O212 C214 1.248 . S
Mg213 O212 2.028 . S
Mg213 O218 2.032 . S
Mg213 O220 2.079 . S
C214 O211 1.250 . S
C214 O212 1.248 . S
C215 O216 1.264 . S
C215 O223 1.249 . S
O216 C215 1.264 . S
O217 Mg210 1.986 . S
O217 C221 1.246 . S
O218 Mg213 2.032 . S
O218 C221 1.259 . S
O219 Mg210 2.114 . S
O219 C222 1.252 . S
O220 Mg210 2.251 . S
O220 Mg213 2.079 . S
O220 C222 1.273 . S
C221 O217 1.246 . S
C221 O218 1.259 . S
C222 O219 1.252 . S
C222 O220 1.273 . S
O223 Mg210 2.010 . S
O223 C215 1.249 . S
Mg224 O225 2.028 . S
Mg224 O231 1.986 . S
Mg224 O233 2.114 . S
Mg224 O234 2.251 . S
Mg224 O237 2.010 . S
O225 Mg224 2.028 . S
O225 C228 1.250 . S
O226 Mg227 2.028 . S
O226 C228 1.248 . S
Mg227 O226 2.028 . S
Mg227 O232 2.032 . S
Mg227 O234 2.079 . S
C228 O225 1.250 . S
C228 O226 1.248 . S
C229 O230 1.264 . S
C229 O237 1.249 . S
O230 C229 1.264 . S
O231 Mg224 1.986 . S
O231 C235 1.246 . S
O232 Mg227 2.032 . S
O232 C235 1.259 . S
O233 Mg224 2.114 . S
O233 C236 1.252 . S
O234 Mg224 2.251 . S
O234 Mg227 2.079 . S
O234 C236 1.273 . S
C235 O231 1.246 . S
C235 O232 1.259 . S
C236 O233 1.252 . S
C236 O234 1.273 . S
O237 Mg224 2.010 . S
O237 C229 1.249 . S
Mg238 O239 2.028 . S
Mg238 O245 1.986 . S
Mg238 O247 2.114 . S
Mg238 O248 2.251 . S
Mg238 O251 2.010 . S
O239 Mg238 2.028 . S
O239 C242 1.250 . S
O240 Mg241 2.028 . S
O240 C242 1.248 . S
Mg241 O240 2.028 . S
Mg241 O246 2.032 . S
Mg241 O248 2.079 . S
C242 O239 1.250 . S
C242 O240 1.248 . S
C243 O244 1.264 . S
C243 O251 1.249 . S
O244 C243 1.264 . S
O245 Mg238 1.986 . S
O245 C249 1.246 . S
O246 Mg241 2.032 . S
O246 C249 1.259 . S
O247 Mg238 2.114 . S
O247 C250 1.252 . S
O248 Mg238 2.251 . S
O248 Mg241 2.079 . S
O248 C250 1.273 . S
C249 O245 1.246 . S
C249 O246 1.259 . S
C250 O247 1.252 . S
C250 O248 1.273 . S
O251 Mg238 2.010 . S
O251 C243 1.249 . S
Mg252 O253 2.028 . S
Mg252 O259 1.986 . S
Mg252 O261 2.114 . S
Mg252 O262 2.251 . S
Mg252 O265 2.010 . S
O253 Mg252 2.028 . S
O253 C256 1.250 . S
O254 Mg255 2.028 . S
O254 C256 1.248 . S
Mg255 O254 2.028 . S
Mg255 O260 2.032 . S
Mg255 O262 2.079 . S
C256 O253 1.250 . S
C256 O254 1.248 . S
C257 O258 1.264 . S
C257 O265 1.249 . S
O258 C257 1.264 . S
O259 Mg252 1.986 . S
O259 C263 1.246 . S
O260 Mg255 2.032 . S
O260 C263 1.259 . S
O261 Mg252 2.114 . S
O261 C264 1.252 . S
O262 Mg252 2.251 . S
O262 Mg255 2.079 . S
O262 C264 1.273 . S
C263 O259 1.246 . S
C263 O260 1.259 . S
C264 O261 1.252 . S
C264 O262 1.273 . S
O265 Mg252 2.010 . S
O265 C257 1.249 . S
Mg266 O267 2.028 . S
Mg266 O273 1.986 . S
Mg266 O275 2.114 . S
Mg266 O276 2.251 . S
Mg266 O279 2.010 . S
O267 Mg266 2.028 . S
O267 C270 1.250 . S
O268 Mg269 2.028 . S
O268 C270 1.248 . S
Mg269 O268 2.028 . S
Mg269 O274 2.032 . S
Mg269 O276 2.079 . S
C270 O267 1.250 . S
C270 O268 1.248 . S
C271 O272 1.264 . S
C271 O279 1.249 . S
O272 C271 1.264 . S
O273 Mg266 1.986 . S
O273 C277 1.246 . S
O274 Mg269 2.032 . S
O274 C277 1.259 . S
O275 Mg266 2.114 . S
O275 C278 1.252 . S
O276 Mg266 2.251 . S
O276 Mg269 2.079 . S
O276 C278 1.273 . S
C277 O273 1.246 . S
C277 O274 1.259 . S
C278 O275 1.252 . S
C278 O276 1.273 . S
O279 Mg266 2.010 . S
O279 C271 1.249 . S
Mg280 O281 2.028 . S
Mg280 O287 1.986 . S
Mg280 O289 2.114 . S
Mg280 O290 2.251 . S
Mg280 O293 2.010 . S
O281 Mg280 2.028 . S
O281 C284 1.250 . S
O282 Mg283 2.028 . S
O282 C284 1.248 . S
Mg283 O282 2.028 . S
Mg283 O288 2.032 . S
Mg283 O290 2.079 . S
C284 O281 1.250 . S
C284 O282 1.248 . S
C285 O286 1.264 . S
C285 O293 1.249 . S
O286 C285 1.264 . S
O287 Mg280 1.986 . S
O287 C291 1.246 . S
O288 Mg283 2.032 . S
O288 C291 1.259 . S
O289 Mg280 2.114 . S
O289 C292 1.252 . S
O290 Mg280 2.251 . S
O290 Mg283 2.079 . S
O290 C292 1.273 . S
C291 O287 1.246 . S
C291 O288 1.259 . S
C292 O289 1.252 . S
C292 O290 1.273 . S
O293 Mg280 2.010 . S
O293 C285 1.249 . S
Mg294 O295 2.028 . S
Mg294 O301 1.986 . S
Mg294 O303 2.114 1_556 S
Mg294 O304 2.251 1_556 S
Mg294 O307 2.010 . S
O295 Mg294 2.028 . S
O295 C298 1.250 . S
O296 Mg297 2.028 . S
O296 C298 1.248 . S
Mg297 O296 2.028 . S
Mg297 O302 2.032 . S
Mg297 O304 2.079 1_556 S
C298 O295 1.250 . S
C298 O296 1.248 . S
C299 O300 1.264 . S
C299 O307 1.249 . S
O300 C299 1.264 . S
O301 Mg294 1.986 . S
O301 C305 1.246 . S
O302 Mg297 2.032 . S
O302 C305 1.259 . S
O303 Mg294 2.114 1_554 S
O303 C306 1.252 . S
O304 Mg294 2.251 1_554 S
O304 Mg297 2.079 1_554 S
O304 C306 1.273 . S
C305 O301 1.246 . S
C305 O302 1.259 . S
C306 O303 1.252 . S
C306 O304 1.273 . S
O307 Mg294 2.010 . S
O307 C299 1.249 . S
Mg308 O309 2.028 . S
Mg308 O315 1.986 . S
Mg308 O317 2.114 1_556 S
Mg308 O318 2.251 1_556 S
Mg308 O321 2.010 . S
O309 Mg308 2.028 . S
O309 C312 1.250 . S
O310 Mg311 2.028 . S
O310 C312 1.248 . S
Mg311 O310 2.028 . S
Mg311 O316 2.032 . S
Mg311 O318 2.079 1_556 S
C312 O309 1.250 . S
C312 O310 1.248 . S
C313 O314 1.264 . S
C313 O321 1.249 . S
O314 C313 1.264 . S
O315 Mg308 1.986 . S
O315 C319 1.246 . S
O316 Mg311 2.032 . S
O316 C319 1.259 . S
O317 Mg308 2.114 1_554 S
O317 C320 1.252 . S
O318 Mg308 2.251 1_554 S
O318 Mg311 2.079 1_554 S
O318 C320 1.273 . S
C319 O315 1.246 . S
C319 O316 1.259 . S
C320 O317 1.252 . S
C320 O318 1.273 . S
O321 Mg308 2.010 . S
O321 C313 1.249 . S
Mg322 O323 2.028 . S
Mg322 O329 1.986 . S
Mg322 O331 2.114 . S
Mg322 O332 2.251 1_556 S
Mg322 O335 2.010 . S
O323 Mg322 2.028 . S
O323 C326 1.250 . S
O324 Mg325 2.028 . S
O324 C326 1.248 . S
Mg325 O324 2.028 . S
Mg325 O330 2.032 . S
Mg325 O332 2.079 1_556 S
C326 O323 1.250 . S
C326 O324 1.248 . S
C327 O328 1.264 . S
C327 O335 1.249 . S
O328 C327 1.264 . S
O329 Mg322 1.986 . S
O329 C333 1.246 . S
O330 Mg325 2.032 . S
O330 C333 1.259 . S
O331 Mg322 2.114 . S
O331 C334 1.252 1_556 S
O332 Mg322 2.251 1_554 S
O332 Mg325 2.079 1_554 S
O332 C334 1.273 . S
C333 O329 1.246 . S
C333 O330 1.259 . S
C334 O331 1.252 1_554 S
C334 O332 1.273 . S
O335 Mg322 2.010 . S
O335 C327 1.249 . S
Mg336 O337 2.028 . S
Mg336 O343 1.986 . S
Mg336 O345 2.114 . S
Mg336 O346 2.251 . S
Mg336 O349 2.010 . S
O337 Mg336 2.028 . S
O337 C340 1.250 . S
O338 Mg339 2.028 . S
O338 C340 1.248 . S
Mg339 O338 2.028 . S
Mg339 O344 2.032 . S
Mg339 O346 2.079 . S
C340 O337 1.250 . S
C340 O338 1.248 . S
C341 O342 1.264 . S
C341 O349 1.249 . S
O342 C341 1.264 . S
O343 Mg336 1.986 . S
O343 C347 1.246 . S
O344 Mg339 2.032 . S
O344 C347 1.259 . S
O345 Mg336 2.114 . S
O345 C348 1.252 . S
O346 Mg336 2.251 . S
O346 Mg339 2.079 . S
O346 C348 1.273 . S
C347 O343 1.246 . S
C347 O344 1.259 . S
C348 O345 1.252 . S
C348 O346 1.273 . S
O349 Mg336 2.010 . S
O349 C341 1.249 . S
Mg350 O351 2.028 . S
Mg350 O357 1.986 . S
Mg350 O359 2.114 . S
Mg350 O360 2.251 . S
Mg350 O363 2.010 . S
O351 Mg350 2.028 . S
O351 C354 1.250 . S
O352 Mg353 2.028 . S
O352 C354 1.248 . S
Mg353 O352 2.028 . S
Mg353 O358 2.032 . S
Mg353 O360 2.079 . S
C354 O351 1.250 . S
C354 O352 1.248 . S
C355 O356 1.264 . S
C355 O363 1.249 . S
O356 C355 1.264 . S
O357 Mg350 1.986 . S
O357 C361 1.246 . S
O358 Mg353 2.032 . S
O358 C361 1.259 . S
O359 Mg350 2.114 . S
O359 C362 1.252 . S
O360 Mg350 2.251 . S
O360 Mg353 2.079 . S
O360 C362 1.273 . S
C361 O357 1.246 . S
C361 O358 1.259 . S
C362 O359 1.252 . S
C362 O360 1.273 . S
O363 Mg350 2.010 . S
O363 C355 1.249 . S
Mg364 O365 2.028 . S
Mg364 O371 1.986 . S
Mg364 O373 2.114 . S
Mg364 O374 2.251 . S
Mg364 O377 2.010 . S
O365 Mg364 2.028 . S
O365 C368 1.250 . S
O366 Mg367 2.028 . S
O366 C368 1.248 . S
Mg367 O366 2.028 . S
Mg367 O372 2.032 . S
Mg367 O374 2.079 . S
C368 O365 1.250 . S
C368 O366 1.248 . S
C369 O370 1.264 . S
C369 O377 1.249 . S
O370 C369 1.264 . S
O371 Mg364 1.986 . S
O371 C375 1.246 . S
O372 Mg367 2.032 . S
O372 C375 1.259 . S
O373 Mg364 2.114 . S
O373 C376 1.252 . S
O374 Mg364 2.251 . S
O374 Mg367 2.079 . S
O374 C376 1.273 . S
C375 O371 1.246 . S
C375 O372 1.259 . S
C376 O373 1.252 . S
C376 O374 1.273 . S
O377 Mg364 2.010 . S
O377 C369 1.249 . S
Mg378 O379 2.028 . S
Mg378 O385 1.986 . S
Mg378 O387 2.114 1_554 S
Mg378 O388 2.251 1_554 S
Mg378 O391 2.010 . S
O379 Mg378 2.028 . S
O379 C382 1.250 . S
O380 Mg381 2.028 . S
O380 C382 1.248 . S
Mg381 O380 2.028 . S
Mg381 O386 2.032 . S
Mg381 O388 2.079 1_554 S
C382 O379 1.250 . S
C382 O380 1.248 . S
C383 O384 1.264 . S
C383 O391 1.249 . S
O384 C383 1.264 . S
O385 Mg378 1.986 . S
O385 C389 1.246 . S
O386 Mg381 2.032 . S
O386 C389 1.259 . S
O387 Mg378 2.114 1_556 S
O387 C390 1.252 . S
O388 Mg378 2.251 1_556 S
O388 Mg381 2.079 1_556 S
O388 C390 1.273 . S
C389 O385 1.246 . S
C389 O386 1.259 . S
C390 O387 1.252 . S
C390 O388 1.273 . S
O391 Mg378 2.010 . S
O391 C383 1.249 . S
Mg392 O393 2.028 . S
Mg392 O399 1.986 . S
Mg392 O401 2.114 1_554 S
Mg392 O402 2.251 1_554 S
Mg392 O405 2.010 . S
O393 Mg392 2.028 . S
O393 C396 1.250 . S
O394 Mg395 2.028 . S
O394 C396 1.248 . S
Mg395 O394 2.028 . S
Mg395 O400 2.032 . S
Mg395 O402 2.079 1_554 S
C396 O393 1.250 . S
C396 O394 1.248 . S
C397 O398 1.264 . S
C397 O405 1.249 . S
O398 C397 1.264 . S
O399 Mg392 1.986 . S
O399 C403 1.246 . S
O400 Mg395 2.032 . S
O400 C403 1.259 . S
O401 Mg392 2.114 1_556 S
O401 C404 1.252 . S
O402 Mg392 2.251 1_556 S
O402 Mg395 2.079 1_556 S
O402 C404 1.273 . S
C403 O399 1.246 . S
C403 O400 1.259 . S
C404 O401 1.252 . S
C404 O402 1.273 . S
O405 Mg392 2.010 . S
O405 C397 1.249 . S
Mg406 O407 2.028 . S
Mg406 O413 1.986 . S
Mg406 O415 2.114 . S
Mg406 O416 2.251 . S
Mg406 O419 2.010 . S
O407 Mg406 2.028 . S
O407 C410 1.250 1_554 S
O408 Mg409 2.028 . S
O408 C410 1.248 1_554 S
Mg409 O408 2.028 . S
Mg409 O414 2.032 . S
Mg409 O416 2.079 . S
C410 O407 1.250 1_556 S
C410 O408 1.248 1_556 S
C411 O412 1.264 . S
C411 O419 1.249 . S
O412 C411 1.264 . S
O413 Mg406 1.986 . S
O413 C417 1.246 . S
O414 Mg409 2.032 . S
O414 C417 1.259 . S
O415 Mg406 2.114 . S
O415 C418 1.252 . S
O416 Mg406 2.251 . S
O416 Mg409 2.079 . S
O416 C418 1.273 . S
C417 O413 1.246 . S
C417 O414 1.259 . S
C418 O415 1.252 . S
C418 O416 1.273 . S
O419 Mg406 2.010 . S
O419 C411 1.249 . S
Mg420 O421 2.028 . S
Mg420 O427 1.986 . S
Mg420 O429 2.114 . S
Mg420 O430 2.251 . S
Mg420 O433 2.010 . S
O421 Mg420 2.028 . S
O421 C424 1.250 . S
O422 Mg423 2.028 . S
O422 C424 1.248 . S
Mg423 O422 2.028 . S
Mg423 O428 2.032 . S
Mg423 O430 2.079 . S
C424 O421 1.250 . S
C424 O422 1.248 . S
C425 O426 1.264 . S
C425 O433 1.249 . S
O426 C425 1.264 . S
O427 Mg420 1.986 . S
O427 C431 1.246 . S
O428 Mg423 2.032 . S
O428 C431 1.259 . S
O429 Mg420 2.114 . S
O429 C432 1.252 . S
O430 Mg420 2.251 . S
O430 Mg423 2.079 . S
O430 C432 1.273 . S
C431 O427 1.246 . S
C431 O428 1.259 . S
C432 O429 1.252 . S
C432 O430 1.273 . S
O433 Mg420 2.010 . S
O433 C425 1.249 . S
Mg434 O435 2.028 . S
Mg434 O441 1.986 . S
Mg434 O443 2.114 . S
Mg434 O444 2.251 . S
Mg434 O447 2.010 . S
O435 Mg434 2.028 . S
O435 C438 1.250 . S
O436 Mg437 2.028 . S
O436 C438 1.248 . S
Mg437 O436 2.028 . S
Mg437 O442 2.032 . S
Mg437 O444 2.079 . S
C438 O435 1.250 . S
C438 O436 1.248 . S
C439 O440 1.264 . S
C439 O447 1.249 . S
O440 C439 1.264 . S
O441 Mg434 1.986 . S
O441 C445 1.246 . S
O442 Mg437 2.032 . S
O442 C445 1.259 . S
O443 Mg434 2.114 . S
O443 C446 1.252 . S
O444 Mg434 2.251 . S
O444 Mg437 2.079 . S
O444 C446 1.273 . S
C445 O441 1.246 . S
C445 O442 1.259 . S
C446 O443 1.252 . S
C446 O444 1.273 . S
O447 Mg434 2.010 . S
O447 C439 1.249 . S
Mg448 O449 2.028 . S
Mg448 O455 1.986 . S
Mg448 O457 2.114 . S
Mg448 O458 2.251 . S
Mg448 O461 2.010 . S
O449 Mg448 2.028 . S
O449 C452 1.250 . S
O450 Mg451 2.028 . S
O450 C452 1.248 . S
Mg451 O450 2.028 . S
Mg451 O456 2.032 . S
Mg451 O458 2.079 . S
C452 O449 1.250 . S
C452 O450 1.248 . S
C453 O454 1.264 . S
C453 O461 1.249 . S
O454 C453 1.264 . S
O455 Mg448 1.986 . S
O455 C459 1.246 . S
O456 Mg451 2.032 . S
O456 C459 1.259 . S
O457 Mg448 2.114 . S
O457 C460 1.252 . S
O458 Mg448 2.251 . S
O458 Mg451 2.079 . S
O458 C460 1.273 . S
C459 O455 1.246 . S
C459 O456 1.259 . S
C460 O457 1.252 . S
C460 O458 1.273 . S
O461 Mg448 2.010 . S
O461 C453 1.249 . S
Mg462 O463 2.028 . S
Mg462 O469 1.986 . S
Mg462 O471 2.114 . S
Mg462 O472 2.251 . S
Mg462 O475 2.010 . S
O463 Mg462 2.028 . S
O463 C466 1.250 . S
O464 Mg465 2.028 . S
O464 C466 1.248 . S
Mg465 O464 2.028 . S
Mg465 O470 2.032 . S
Mg465 O472 2.079 . S
C466 O463 1.250 . S
C466 O464 1.248 . S
C467 O468 1.264 . S
C467 O475 1.249 . S
O468 C467 1.264 . S
O469 Mg462 1.986 . S
O469 C473 1.246 . S
O470 Mg465 2.032 . S
O470 C473 1.259 . S
O471 Mg462 2.114 . S
O471 C474 1.252 . S
O472 Mg462 2.251 . S
O472 Mg465 2.079 . S
O472 C474 1.273 . S
C473 O469 1.246 . S
C473 O470 1.259 . S
C474 O471 1.252 . S
C474 O472 1.273 . S
O475 Mg462 2.010 . S
O475 C467 1.249 . S
Mg476 O477 2.028 . S
Mg476 O483 1.986 . S
Mg476 O485 2.114 . S
Mg476 O486 2.251 . S
Mg476 O489 2.010 . S
O477 Mg476 2.028 . S
O477 C480 1.250 . S
O478 Mg479 2.028 . S
O478 C480 1.248 . S
Mg479 O478 2.028 . S
Mg479 O484 2.032 . S
Mg479 O486 2.079 . S
C480 O477 1.250 . S
C480 O478 1.248 . S
C481 O482 1.264 . S
C481 O489 1.249 . S
O482 C481 1.264 . S
O483 Mg476 1.986 . S
O483 C487 1.246 . S
O484 Mg479 2.032 . S
O484 C487 1.259 . S
O485 Mg476 2.114 . S
O485 C488 1.252 . S
O486 Mg476 2.251 . S
O486 Mg479 2.079 . S
O486 C488 1.273 . S
C487 O483 1.246 . S
C487 O484 1.259 . S
C488 O485 1.252 . S
C488 O486 1.273 . S
O489 Mg476 2.010 . S
O489 C481 1.249 . S
Mg490 O491 2.028 . S
Mg490 O497 1.986 . S
Mg490 O499 2.114 . S
Mg490 O500 2.251 . S
Mg490 O503 2.010 . S
O491 Mg490 2.028 . S
O491 C494 1.250 . S
O492 Mg493 2.028 . S
O492 C494 1.248 . S
Mg493 O492 2.028 . S
Mg493 O498 2.032 . S
Mg493 O500 2.079 . S
C494 O491 1.250 . S
C494 O492 1.248 . S
C495 O496 1.264 . S
C495 O503 1.249 . S
O496 C495 1.264 . S
O497 Mg490 1.986 . S
O497 C501 1.246 . S
O498 Mg493 2.032 . S
O498 C501 1.259 . S
O499 Mg490 2.114 . S
O499 C502 1.252 . S
O500 Mg490 2.251 . S
O500 Mg493 2.079 . S
O500 C502 1.273 . S
C501 O497 1.246 . S
C501 O498 1.259 . S
C502 O499 1.252 . S
C502 O500 1.273 . S
O503 Mg490 2.010 . S
O503 C495 1.249 . S
C504 C505 1.369 1_565 S
C504 C506 1.419 . S
C504 H508 0.930 . S
C505 C504 1.369 1_545 S
C505 C514 1.429 . S
C506 C504 1.419 . S
C506 C507 1.363 1_554 S
C506 H509 0.929 . S
C507 C506 1.363 1_556 S
C507 C513 1.428 . S
H508 C504 0.930 . S
H509 C506 0.929 . S
S510 N511 1.613 1_556 S
S510 N512 1.610 1_545 S
N511 S510 1.613 1_554 S
N511 C514 1.350 . S
N512 S510 1.610 1_565 S
N512 C513 1.351 . S
C513 C507 1.428 . S
C513 N512 1.351 . S
C513 C514 1.434 1_566 S
C514 C505 1.429 . S
C514 N511 1.350 . S
C514 C513 1.434 1_544 S
C515 C516 1.369 . S
C515 C517 1.419 1_654 S
C515 H519 0.930 . S
C516 C515 1.369 . S
C516 C525 1.429 1_655 S
C517 C515 1.419 1_456 S
C517 C518 1.363 . S
C517 H520 0.929 . S
C518 C517 1.363 . S
C518 C524 1.428 1_556 S
H519 C515 0.930 . S
H520 C517 0.929 . S
S521 N522 1.613 . S
S521 N523 1.610 . S
N522 S521 1.613 . S
N522 C525 1.350 . S
N523 S521 1.610 . S
N523 C524 1.351 . S
C524 C518 1.428 1_554 S
C524 N523 1.351 . S
C524 C525 1.434 . S
C525 C516 1.429 1_455 S
C525 N522 1.350 . S
C525 C524 1.434 . S
C526 C527 1.369 . S
C526 C528 1.419 1_556 S
C526 H530 0.930 . S
C527 C526 1.369 . S
C527 C536 1.429 1_556 S
C528 C526 1.419 1_554 S
C528 C529 1.363 . S
C528 H531 0.929 . S
C529 C528 1.363 . S
C529 C535 1.428 . S
H530 C526 0.930 . S
H531 C528 0.929 . S
S532 N533 1.613 . S
S532 N534 1.610 . S
N533 S532 1.613 . S
N533 C536 1.350 . S
N534 S532 1.610 . S
N534 C535 1.351 . S
C535 C529 1.428 . S
C535 N534 1.351 . S
C535 C536 1.434 . S
C536 C527 1.429 1_554 S
C536 N533 1.350 . S
C536 C535 1.434 . S
C537 C538 1.369 . S
C537 C539 1.419 . S
C537 H541 0.930 . S
C538 C537 1.369 . S
C538 C547 1.429 . S
C539 C537 1.419 . S
C539 C540 1.363 1_655 S
C539 H542 0.929 . S
C540 C539 1.363 1_455 S
C540 C546 1.428 . S
H541 C537 0.930 . S
H542 C539 0.929 . S
S543 N544 1.613 1_455 S
S543 N545 1.610 . S
N544 S543 1.613 1_655 S
N544 C547 1.350 . S
N545 S543 1.610 . S
N545 C546 1.351 . S
C546 C540 1.428 . S
C546 N545 1.351 . S
C546 C547 1.434 1_455 S
C547 C538 1.429 . S
C547 N544 1.350 . S
C547 C546 1.434 1_655 S
C548 C549 1.369 . S
C548 C550 1.419 . S
C548 H552 0.930 . S
C549 C548 1.369 . S
C549 C558 1.429 . S
C550 C548 1.419 . S
C550 C551 1.363 . S
C550 H553 0.929 . S
C551 C550 1.363 . S
C551 C557 1.428 . S
H552 C548 0.930 . S
H553 C550 0.929 . S
S554 N555 1.613 . S
S554 N556 1.610 . S
N555 S554 1.613 . S
N555 C558 1.350 . S
N556 S554 1.610 . S
N556 C557 1.351 . S
C557 C551 1.428 . S
C557 N556 1.351 . S
C557 C558 1.434 . S
C558 C549 1.429 . S
C558 N555 1.350 . S
C558 C557 1.434 . S
C559 C560 1.369 . S
C559 C561 1.419 1_565 S
C559 H563 0.930 . S
C560 C559 1.369 . S
C560 C569 1.429 1_565 S
C561 C559 1.419 1_545 S
C561 C562 1.363 . S
C561 H564 0.929 . S
C562 C561 1.363 . S
C562 C568 1.428 . S
H563 C559 0.930 . S
H564 C561 0.929 . S
S565 N566 1.613 . S
S565 N567 1.610 . S
N566 S565 1.613 . S
N566 C569 1.350 . S
N567 S565 1.610 . S
N567 C568 1.351 . S
C568 C562 1.428 . S
C568 N567 1.351 . S
C568 C569 1.434 . S
C569 C560 1.429 1_545 S
C569 N566 1.350 . S
C569 C568 1.434 . S
C570 C571 1.369 1_556 S
C570 C572 1.419 . S
C570 H574 0.930 . S
C571 C570 1.369 1_554 S
C571 C580 1.429 . S
C572 C570 1.419 . S
C572 C573 1.363 1_545 S
C572 H575 0.929 . S
C573 C572 1.363 1_565 S
C573 C579 1.428 1_556 S
H574 C570 0.930 . S
H575 C572 0.929 . S
S576 N577 1.613 . S
S576 N578 1.610 . S
N577 S576 1.613 . S
N577 C580 1.350 1_565 S
N578 S576 1.610 . S
N578 C579 1.351 . S
C579 C573 1.428 1_554 S
C579 N578 1.351 . S
C579 C580 1.434 1_565 S
C580 C571 1.429 . S
C580 N577 1.350 1_545 S
C580 C579 1.434 1_545 S
C581 C582 1.390 . S
C581 C583 1.406 1_654 S
C581 H585 0.922 1_655 S
C582 C581 1.390 . S
C582 C591 1.429 1_554 S
C583 C581 1.406 1_456 S
C583 C584 1.363 . S
C583 H586 0.929 1_556 S
C584 C583 1.363 . S
C584 C590 1.428 1_455 S
H585 C581 0.922 1_455 S
H586 C583 0.929 1_554 S
S587 N588 1.613 . S
S587 N589 1.610 . S
N588 S587 1.613 . S
N588 C591 1.350 . S
N589 S587 1.610 . S
N589 C590 1.351 . S
C590 C584 1.428 1_655 S
C590 N589 1.351 . S
C590 C591 1.434 . S
C591 C582 1.429 1_556 S
C591 N588 1.350 . S
C591 C590 1.434 . S
C592 C593 1.369 . S
C592 C594 1.419 . S
C592 H596 0.930 . S
C593 C592 1.369 . S
C593 C602 1.429 . S
C594 C592 1.419 . S
C594 C595 1.363 1_556 S
C594 H597 0.929 . S
C595 C594 1.363 1_554 S
C595 C601 1.428 . S
H596 C592 0.930 . S
H597 C594 0.929 . S
S598 N599 1.613 . S
S598 N600 1.610 . S
N599 S598 1.613 . S
N599 C602 1.350 1_554 S
N600 S598 1.610 . S
N600 C601 1.351 . S
C601 C595 1.428 . S
C601 N600 1.351 . S
C601 C602 1.434 1_554 S
C602 C593 1.429 . S
C602 N599 1.350 1_556 S
C602 C601 1.434 1_556 S
C603 C604 1.369 1_455 S
C603 C605 1.419 . S
C603 H607 0.930 . S
C604 C603 1.369 1_655 S
C604 C613 1.429 . S
C605 C603 1.419 . S
C605 C606 1.363 . S
C605 H608 0.929 . S
C606 C605 1.363 . S
C606 C612 1.428 1_455 S
H607 C603 0.930 . S
H608 C605 0.929 . S
S609 N610 1.613 . S
S609 N611 1.610 . S
N610 S609 1.613 . S
N610 C613 1.350 . S
N611 S609 1.610 . S
N611 C612 1.351 . S
C612 C606 1.428 1_655 S
C612 N611 1.351 . S
C612 C613 1.434 . S
C613 C604 1.429 . S
C613 N610 1.350 . S
C613 C612 1.434 . S
C614 C615 1.369 . S
C614 C616 1.419 . S
C614 H618 0.930 . S
C615 C614 1.369 . S
C615 C624 1.429 . S
C616 C614 1.419 . S
C616 C617 1.363 . S
C616 H619 0.929 . S
C617 C616 1.363 . S
C617 C623 1.428 . S
H618 C614 0.930 . S
H619 C616 0.929 . S
S620 N621 1.613 . S
S620 N622 1.610 . S
N621 S620 1.613 . S
N621 C624 1.350 . S
N622 S620 1.610 . S
N622 C623 1.351 . S
C623 C617 1.428 . S
C623 N622 1.351 . S
C623 C624 1.434 . S
C624 C615 1.429 . S
C624 N621 1.350 . S
C624 C623 1.434 . S
C625 C626 1.369 . S
C625 C627 1.419 1_545 S
C625 H629 0.930 . S
C626 C625 1.369 . S
C626 C635 1.429 1_545 S
C627 C625 1.419 1_565 S
C627 C628 1.363 . S
C627 H630 0.929 . S
C628 C627 1.363 . S
C628 C634 1.428 . S
H629 C625 0.930 . S
H630 C627 0.929 . S
S631 N632 1.613 . S
S631 N633 1.610 . S
N632 S631 1.613 . S
N632 C635 1.350 . S
N633 S631 1.610 . S
N633 C634 1.351 . S
C634 C628 1.428 . S
C634 N633 1.351 . S
C634 C635 1.434 . S
C635 C626 1.429 1_565 S
C635 N632 1.350 . S
C635 C634 1.434 . S
C636 C637 1.369 . S
C636 C638 1.419 . S
C636 H640 0.930 . S
C637 C636 1.369 . S
C637 C646 1.429 . S
C638 C636 1.419 . S
C638 C639 1.363 . S
C638 H641 0.929 . S
C639 C638 1.363 . S
C639 C645 1.428 . S
H640 C636 0.930 . S
H641 C638 0.929 . S
S642 N643 1.613 . S
S642 N644 1.610 . S
N643 S642 1.613 . S
N643 C646 1.350 . S
N644 S642 1.610 . S
N644 C645 1.351 . S
C645 C639 1.428 . S
C645 N644 1.351 . S
C645 C646 1.434 . S
C646 C637 1.429 . S
C646 N643 1.350 . S
C646 C645 1.434 . S
C647 C648 1.369 . S
C647 C649 1.419 . S
C647 H651 0.930 . S
C648 C647 1.369 . S
C648 C657 1.429 . S
C649 C647 1.419 . S
C649 C650 1.363 . S
C649 H652 0.929 . S
C650 C649 1.363 . S
C650 C656 1.428 . S
H651 C647 0.930 . S
H652 C649 0.929 . S
S653 N654 1.613 . S
S653 N655 1.610 . S
N654 S653 1.613 . S
N654 C657 1.350 . S
N655 S653 1.610 . S
N655 C656 1.351 . S
C656 C650 1.428 . S
C656 N655 1.351 . S
C656 C657 1.434 . S
C657 C648 1.429 . S
C657 N654 1.350 . S
C657 C656 1.434 . S
C658 C659 1.369 . S
C658 C660 1.419 . S
C658 H662 0.930 . S
C659 C658 1.369 . S
C659 C668 1.429 . S
C660 C658 1.419 . S
C660 C661 1.363 . S
C660 H663 0.929 . S
C661 C660 1.363 . S
C661 C667 1.428 . S
H662 C658 0.930 . S
H663 C660 0.929 . S
S664 N665 1.613 . S
S664 N666 1.610 . S
N665 S664 1.613 . S
N665 C668 1.350 . S
N666 S664 1.610 . S
N666 C667 1.351 . S
C667 C661 1.428 . S
C667 N666 1.351 . S
C667 C668 1.434 . S
C668 C659 1.429 . S
C668 N665 1.350 . S
C668 C667 1.434 . S
C669 C670 1.369 . S
C669 C671 1.419 . S
C669 H673 0.930 . S
C670 C669 1.369 . S
C670 C679 1.429 . S
C671 C669 1.419 . S
C671 C672 1.363 . S
C671 H674 0.929 . S
C672 C671 1.363 . S
C672 C678 1.428 . S
H673 C669 0.930 . S
H674 C671 0.929 . S
S675 N676 1.613 . S
S675 N677 1.610 . S
N676 S675 1.613 . S
N676 C679 1.350 . S
N677 S675 1.610 . S
N677 C678 1.351 . S
C678 C672 1.428 . S
C678 N677 1.351 . S
C678 C679 1.434 . S
C679 C670 1.429 . S
C679 N676 1.350 . S
C679 C678 1.434 . S
C680 C681 1.369 . S
C680 C682 1.419 . S
C680 H684 0.930 . S
C681 C680 1.369 . S
C681 C690 1.429 . S
C682 C680 1.419 . S
C682 C683 1.363 . S
C682 H685 0.929 . S
C683 C682 1.363 . S
C683 C689 1.428 . S
H684 C680 0.930 . S
H685 C682 0.929 . S
S686 N687 1.613 . S
S686 N688 1.610 . S
N687 S686 1.613 . S
N687 C690 1.350 . S
N688 S686 1.610 . S
N688 C689 1.351 . S
C689 C683 1.428 . S
C689 N688 1.351 . S
C689 C690 1.434 . S
C690 C681 1.429 . S
C690 N687 1.350 . S
C690 C689 1.434 . S
C691 C692 1.369 . S
C691 C693 1.419 . S
C691 H695 0.930 . S
C692 C691 1.369 . S
C692 C701 1.429 . S
C693 C691 1.419 . S
C693 C694 1.363 . S
C693 H696 0.929 . S
C694 C693 1.363 . S
C694 C700 1.428 . S
H695 C691 0.930 . S
H696 C693 0.929 . S
S697 N698 1.613 . S
S697 N699 1.610 . S
N698 S697 1.613 . S
N698 C701 1.350 . S
N699 S697 1.610 . S
N699 C700 1.351 . S
C700 C694 1.428 . S
C700 N699 1.351 . S
C700 C701 1.434 . S
C701 C692 1.429 . S
C701 N698 1.350 . S
C701 C700 1.434 . S
C702 C703 1.369 . S
C702 C704 1.419 . S
C702 H706 0.930 . S
C703 C702 1.369 . S
C703 C712 1.429 . S
C704 C702 1.419 . S
C704 C705 1.363 . S
C704 H707 0.929 . S
C705 C704 1.363 . S
C705 C711 1.428 . S
H706 C702 0.930 . S
H707 C704 0.929 . S
S708 N709 1.613 . S
S708 N710 1.610 . S
N709 S708 1.613 . S
N709 C712 1.350 . S
N710 S708 1.610 . S
N710 C711 1.351 . S
C711 C705 1.428 . S
C711 N710 1.351 . S
C711 C712 1.434 . S
C712 C703 1.429 . S
C712 N709 1.350 . S
C712 C711 1.434 . S
C713 C714 1.369 . S
C713 C715 1.419 . S
C713 H717 0.930 . S
C714 C713 1.369 . S
C714 C723 1.429 . S
C715 C713 1.419 . S
C715 C716 1.363 . S
C715 H718 0.929 . S
C716 C715 1.363 . S
C716 C722 1.428 . S
H717 C713 0.930 . S
H718 C715 0.929 . S
S719 N720 1.613 . S
S719 N721 1.610 . S
N720 S719 1.613 . S
N720 C723 1.350 . S
N721 S719 1.610 . S
N721 C722 1.351 . S
C722 C716 1.428 . S
C722 N721 1.351 . S
C722 C723 1.434 . S
C723 C714 1.429 . S
C723 N720 1.350 . S
C723 C722 1.434 . S
C724 C725 1.369 . S
C724 C726 1.419 . S
C724 H728 0.930 . S
C725 C724 1.369 . S
C725 C734 1.429 . S
C726 C724 1.419 . S
C726 C727 1.363 . S
C726 H729 0.929 . S
C727 C726 1.363 . S
C727 C733 1.428 . S
H728 C724 0.930 . S
H729 C726 0.929 . S
S730 N731 1.613 . S
S730 N732 1.610 . S
N731 S730 1.613 . S
N731 C734 1.350 . S
N732 S730 1.610 . S
N732 C733 1.351 . S
C733 C727 1.428 . S
C733 N732 1.351 . S
C733 C734 1.434 . S
C734 C725 1.429 . S
C734 N731 1.350 . S
C734 C733 1.434 . S
C735 C736 1.369 . S
C735 C737 1.419 . S
C735 H739 0.930 . S
C736 C735 1.369 . S
C736 C745 1.429 . S
C737 C735 1.419 . S
C737 C738 1.363 . S
C737 H740 0.929 . S
C738 C737 1.363 . S
C738 C744 1.428 . S
H739 C735 0.930 . S
H740 C737 0.929 . S
S741 N742 1.613 . S
S741 N743 1.610 . S
N742 S741 1.613 . S
N742 C745 1.350 . S
N743 S741 1.610 . S
N743 C744 1.351 . S
C744 C738 1.428 . S
C744 N743 1.351 . S
C744 C745 1.434 . S
C745 C736 1.429 . S
C745 N742 1.350 . S
C745 C744 1.434 . S
C746 C747 1.369 . S
C746 C748 1.419 . S
C746 H750 0.930 . S
C747 C746 1.369 . S
C747 C756 1.429 . S
C748 C746 1.419 . S
C748 C749 1.363 . S
C748 H751 0.929 . S
C749 C748 1.363 . S
C749 C755 1.428 . S
H750 C746 0.930 . S
H751 C748 0.929 . S
S752 N753 1.613 . S
S752 N754 1.610 . S
N753 S752 1.613 . S
N753 C756 1.350 . S
N754 S752 1.610 . S
N754 C755 1.351 . S
C755 C749 1.428 . S
C755 N754 1.351 . S
C755 C756 1.434 . S
C756 C747 1.429 . S
C756 N753 1.350 . S
C756 C755 1.434 . S
C757 C758 1.369 . S
C757 C759 1.419 . S
C757 H761 0.930 . S
C758 C757 1.369 . S
C758 C767 1.429 . S
C759 C757 1.419 . S
C759 C760 1.363 . S
C759 H762 0.929 . S
C760 C759 1.363 . S
C760 C766 1.428 . S
H761 C757 0.930 . S
H762 C759 0.929 . S
S763 N764 1.613 . S
S763 N765 1.610 . S
N764 S763 1.613 . S
N764 C767 1.350 . S
N765 S763 1.610 . S
N765 C766 1.351 . S
C766 C760 1.428 . S
C766 N765 1.351 . S
C766 C767 1.434 . S
C767 C758 1.429 . S
C767 N764 1.350 . S
C767 C766 1.434 . S
C768 C769 1.369 . S
C768 C770 1.419 . S
C768 H772 0.930 . S
C769 C768 1.369 . S
C769 C778 1.429 . S
C770 C768 1.419 . S
C770 C771 1.363 . S
C770 H773 0.929 . S
C771 C770 1.363 . S
C771 C777 1.428 . S
H772 C768 0.930 . S
H773 C770 0.929 . S
S774 N775 1.613 . S
S774 N776 1.610 . S
N775 S774 1.613 . S
N775 C778 1.350 . S
N776 S774 1.610 . S
N776 C777 1.351 . S
C777 C771 1.428 . S
C777 N776 1.351 . S
C777 C778 1.434 . S
C778 C769 1.429 . S
C778 N775 1.350 . S
C778 C777 1.434 . S
C779 C780 1.369 . S
C779 C781 1.419 . S
C779 H783 0.930 . S
C780 C779 1.369 . S
C780 C789 1.429 . S
C781 C779 1.419 . S
C781 C782 1.363 . S
C781 H784 0.929 . S
C782 C781 1.363 . S
C782 C788 1.428 . S
H783 C779 0.930 . S
H784 C781 0.929 . S
S785 N786 1.613 . S
S785 N787 1.610 . S
N786 S785 1.613 . S
N786 C789 1.350 . S
N787 S785 1.610 . S
N787 C788 1.351 . S
C788 C782 1.428 . S
C788 N787 1.351 . S
C788 C789 1.434 . S
C789 C780 1.429 . S
C789 N786 1.350 . S
C789 C788 1.434 . S
C790 C791 1.369 . S
C790 C792 1.419 . S
C790 H794 0.930 . S
C791 C790 1.369 . S
C791 C800 1.429 . S
C792 C790 1.419 . S
C792 C793 1.363 . S
C792 H795 0.929 . S
C793 C792 1.363 . S
C793 C799 1.428 . S
H794 C790 0.930 . S
H795 C792 0.929 . S
S796 N797 1.613 . S
S796 N798 1.610 . S
N797 S796 1.613 . S
N797 C800 1.350 . S
N798 S796 1.610 . S
N798 C799 1.351 . S
C799 C793 1.428 . S
C799 N798 1.351 . S
C799 C800 1.434 . S
C800 C791 1.429 . S
C800 N797 1.350 . S
C800 C799 1.434 . S
C801 C802 1.369 . S
C801 C803 1.419 . S
C801 H805 0.930 . S
C802 C801 1.369 . S
C802 C811 1.429 . S
C803 C801 1.419 . S
C803 C804 1.363 . S
C803 H806 0.929 . S
C804 C803 1.363 . S
C804 C810 1.428 . S
H805 C801 0.930 . S
H806 C803 0.929 . S
S807 N808 1.613 . S
S807 N809 1.610 . S
N808 S807 1.613 . S
N808 C811 1.350 . S
N809 S807 1.610 . S
N809 C810 1.351 . S
C810 C804 1.428 . S
C810 N809 1.351 . S
C810 C811 1.434 . S
C811 C802 1.429 . S
C811 N808 1.350 . S
C811 C810 1.434 . S
C812 C813 1.369 . S
C812 C814 1.419 . S
C812 H816 0.930 . S
C813 C812 1.369 . S
C813 C822 1.429 . S
C814 C812 1.419 . S
C814 C815 1.363 . S
C814 H817 0.929 . S
C815 C814 1.363 . S
C815 C821 1.428 . S
H816 C812 0.930 . S
H817 C814 0.929 . S
S818 N819 1.613 . S
S818 N820 1.610 . S
N819 S818 1.613 . S
N819 C822 1.350 . S
N820 S818 1.610 . S
N820 C821 1.351 . S
C821 C815 1.428 . S
C821 N820 1.351 . S
C821 C822 1.434 . S
C822 C813 1.429 . S
C822 N819 1.350 . S
C822 C821 1.434 . S
C823 C824 1.369 . S
C823 C825 1.419 . S
C823 H827 0.930 . S
C824 C823 1.369 . S
C824 C833 1.429 . S
C825 C823 1.419 . S
C825 C826 1.363 . S
C825 H828 0.929 . S
C826 C825 1.363 . S
C826 C832 1.428 . S
H827 C823 0.930 . S
H828 C825 0.929 . S
S829 N830 1.613 . S
S829 N831 1.610 . S
N830 S829 1.613 . S
N830 C833 1.350 . S
N831 S829 1.610 . S
N831 C832 1.351 . S
C832 C826 1.428 . S
C832 N831 1.351 . S
C832 C833 1.434 . S
C833 C824 1.429 . S
C833 N830 1.350 . S
C833 C832 1.434 . S
C834 C835 1.369 . S
C834 C836 1.419 . S
C834 H838 0.930 . S
C835 C834 1.369 . S
C835 C844 1.429 . S
C836 C834 1.419 . S
C836 C837 1.363 . S
C836 H839 0.929 . S
C837 C836 1.363 . S
C837 C843 1.428 . S
H838 C834 0.930 . S
H839 C836 0.929 . S
S840 N841 1.613 . S
S840 N842 1.610 . S
N841 S840 1.613 . S
N841 C844 1.350 . S
N842 S840 1.610 . S
N842 C843 1.351 . S
C843 C837 1.428 . S
C843 N842 1.351 . S
C843 C844 1.434 . S
C844 C835 1.429 . S
C844 N841 1.350 . S
C844 C843 1.434 . S
C845 C846 1.369 . S
C845 C847 1.419 . S
C845 H849 0.930 . S
C846 C845 1.369 . S
C846 C855 1.429 . S
C847 C845 1.419 . S
C847 C848 1.363 . S
C847 H850 0.929 . S
C848 C847 1.363 . S
C848 C854 1.428 . S
H849 C845 0.930 . S
H850 C847 0.929 . S
S851 N852 1.613 . S
S851 N853 1.610 . S
N852 S851 1.613 . S
N852 C855 1.350 . S
N853 S851 1.610 . S
N853 C854 1.351 . S
C854 C848 1.428 . S
C854 N853 1.351 . S
C854 C855 1.434 . S
C855 C846 1.429 . S
C855 N852 1.350 . S
C855 C854 1.434 . S
C856 C857 1.369 . S
C856 C858 1.419 . S
C856 H860 0.930 . S
C857 C856 1.369 . S
C857 C866 1.429 . S
C858 C856 1.419 . S
C858 C859 1.363 . S
C858 H861 0.929 . S
C859 C858 1.363 . S
C859 C865 1.428 . S
H860 C856 0.930 . S
H861 C858 0.929 . S
S862 N863 1.613 . S
S862 N864 1.610 . S
N863 S862 1.613 . S
N863 C866 1.350 . S
N864 S862 1.610 . S
N864 C865 1.351 . S
C865 C859 1.428 . S
C865 N864 1.351 . S
C865 C866 1.434 . S
C866 C857 1.429 . S
C866 N863 1.350 . S
C866 C865 1.434 . S
C867 C868 1.369 . S
C867 C869 1.419 . S
C867 H871 0.930 . S
C868 C867 1.369 . S
C868 C877 1.429 . S
C869 C867 1.419 . S
C869 C870 1.363 . S
C869 H872 0.929 . S
C870 C869 1.363 . S
C870 C876 1.428 . S
H871 C867 0.930 . S
H872 C869 0.929 . S
S873 N874 1.613 . S
S873 N875 1.610 . S
N874 S873 1.613 . S
N874 C877 1.350 . S
N875 S873 1.610 . S
N875 C876 1.351 . S
C876 C870 1.428 . S
C876 N875 1.351 . S
C876 C877 1.434 . S
C877 C868 1.429 . S
C877 N874 1.350 . S
C877 C876 1.434 . S
C878 C879 1.369 . S
C878 C880 1.419 . S
C878 H882 0.930 . S
C879 C878 1.369 . S
C879 C888 1.429 . S
C880 C878 1.419 . S
C880 C881 1.363 . S
C880 H883 0.929 . S
C881 C880 1.363 . S
C881 C887 1.428 . S
H882 C878 0.930 . S
H883 C880 0.929 . S
S884 N885 1.613 . S
S884 N886 1.610 . S
N885 S884 1.613 . S
N885 C888 1.350 . S
N886 S884 1.610 . S
N886 C887 1.351 . S
C887 C881 1.428 . S
C887 N886 1.351 . S
C887 C888 1.434 . S
C888 C879 1.429 . S
C888 N885 1.350 . S
C888 C887 1.434 . S
C889 C890 1.369 . S
C889 C891 1.419 . S
C889 H893 0.930 . S
C890 C889 1.369 . S
C890 C899 1.429 . S
C891 C889 1.419 . S
C891 C892 1.363 . S
C891 H894 0.929 . S
C892 C891 1.363 . S
C892 C898 1.428 . S
H893 C889 0.930 . S
H894 C891 0.929 . S
S895 N896 1.613 . S
S895 N897 1.610 . S
N896 S895 1.613 . S
N896 C899 1.350 . S
N897 S895 1.610 . S
N897 C898 1.351 . S
C898 C892 1.428 . S
C898 N897 1.351 . S
C898 C899 1.434 . S
C899 C890 1.429 . S
C899 N896 1.350 . S
C899 C898 1.434 . S
C900 C901 1.369 . S
C900 C902 1.419 . S
C900 H904 0.930 . S
C901 C900 1.369 . S
C901 C910 1.429 . S
C902 C900 1.419 . S
C902 C903 1.363 . S
C902 H905 0.929 . S
C903 C902 1.363 . S
C903 C909 1.428 . S
H904 C900 0.930 . S
H905 C902 0.929 . S
S906 N907 1.613 . S
S906 N908 1.610 . S
N907 S906 1.613 . S
N907 C910 1.350 . S
N908 S906 1.610 . S
N908 C909 1.351 . S
C909 C903 1.428 . S
C909 N908 1.351 . S
C909 C910 1.434 . S
C910 C901 1.429 . S
C910 N907 1.350 . S
C910 C909 1.434 . S
C911 C912 1.369 . S
C911 C913 1.419 1_565 S
C911 H915 0.930 . S
C912 C911 1.369 . S
C912 C921 1.429 . S
C913 C911 1.419 1_545 S
C913 C914 1.363 . S
C913 H916 0.929 . S
C914 C913 1.363 . S
C914 C920 1.428 . S
H915 C911 0.930 . S
H916 C913 0.929 . S
S917 N918 1.613 . S
S917 N919 1.610 1_565 S
N918 S917 1.613 . S
N918 C921 1.350 . S
N919 S917 1.610 1_545 S
N919 C920 1.351 . S
C920 C914 1.428 . S
C920 N919 1.351 . S
C920 C921 1.434 1_545 S
C921 C912 1.429 . S
C921 N918 1.350 . S
C921 C920 1.434 1_565 S
C922 C923 1.369 . S
C922 C924 1.419 1_655 S
C922 H926 0.930 . S
C923 C922 1.369 . S
C923 C932 1.429 . S
C924 C922 1.419 1_455 S
C924 C925 1.363 . S
C924 H927 0.929 . S
C925 C924 1.363 . S
C925 C931 1.428 . S
H926 C922 0.930 . S
H927 C924 0.929 . S
S928 N929 1.613 1_455 S
S928 N930 1.610 . S
N929 S928 1.613 1_655 S
N929 C932 1.350 . S
N930 S928 1.610 . S
N930 C931 1.351 . S
C931 C925 1.428 . S
C931 N930 1.351 . S
C931 C932 1.434 1_455 S
C932 C923 1.429 . S
C932 N929 1.350 . S
C932 C931 1.434 1_655 S
C933 C934 1.369 . S
C933 C935 1.419 . S
C933 H937 0.930 . S
C934 C933 1.369 . S
C934 C943 1.429 . S
C935 C933 1.419 . S
C935 C936 1.363 . S
C935 H938 0.929 . S
C936 C935 1.363 . S
C936 C942 1.428 . S
H937 C933 0.930 . S
H938 C935 0.929 . S
S939 N940 1.613 . S
S939 N941 1.610 . S
N940 S939 1.613 . S
N940 C943 1.350 . S
N941 S939 1.610 . S
N941 C942 1.351 . S
C942 C936 1.428 . S
C942 N941 1.351 . S
C942 C943 1.434 . S
C943 C934 1.429 . S
C943 N940 1.350 . S
C943 C942 1.434 . S
C944 C945 1.369 . S
C944 C946 1.419 1_545 S
C944 H948 0.930 . S
C945 C944 1.369 . S
C945 C954 1.429 . S
C946 C944 1.419 1_565 S
C946 C947 1.363 . S
C946 H949 0.929 . S
C947 C946 1.363 . S
C947 C953 1.428 . S
H948 C944 0.930 . S
H949 C946 0.929 . S
S950 N951 1.613 . S
S950 N952 1.610 1_545 S
N951 S950 1.613 . S
N951 C954 1.350 . S
N952 S950 1.610 1_565 S
N952 C953 1.351 . S
C953 C947 1.428 . S
C953 N952 1.351 . S
C953 C954 1.434 1_565 S
C954 C945 1.429 . S
C954 N951 1.350 . S
C954 C953 1.434 1_545 S
C955 C956 1.369 . S
C955 C957 1.419 1_655 S
C955 H959 0.930 . S
C956 C955 1.369 . S
C956 C965 1.429 . S
C957 C955 1.419 1_455 S
C957 C958 1.363 . S
C957 H960 0.929 . S
C958 C957 1.363 . S
C958 C964 1.428 . S
H959 C955 0.930 . S
H960 C957 0.929 . S
S961 N962 1.613 . S
S961 N963 1.610 1_655 S
N962 S961 1.613 . S
N962 C965 1.350 . S
N963 S961 1.610 1_455 S
N963 C964 1.351 . S
C964 C958 1.428 . S
C964 N963 1.351 . S
C964 C965 1.434 1_455 S
C965 C956 1.429 . S
C965 N962 1.350 . S
C965 C964 1.434 1_655 S
C966 C967 1.369 . S
C966 C968 1.419 . S
C966 H970 0.930 . S
C967 C966 1.369 . S
C967 C976 1.429 . S
C968 C966 1.419 . S
C968 C969 1.363 . S
C968 H971 0.929 . S
C969 C968 1.363 . S
C969 C975 1.428 . S
H970 C966 0.930 . S
H971 C968 0.929 . S
S972 N973 1.613 . S
S972 N974 1.610 . S
N973 S972 1.613 . S
N973 C976 1.350 . S
N974 S972 1.610 . S
N974 C975 1.351 . S
C975 C969 1.428 . S
C975 N974 1.351 . S
C975 C976 1.434 . S
C976 C967 1.429 . S
C976 N973 1.350 . S
C976 C975 1.434 . S
C977 C978 1.369 . S
C977 C979 1.419 . S
C977 H981 0.930 . S
C978 C977 1.369 . S
C978 C987 1.429 . S
C979 C977 1.419 . S
C979 C980 1.363 . S
C979 H982 0.929 . S
C980 C979 1.363 . S
C980 C986 1.428 . S
H981 C977 0.930 . S
H982 C979 0.929 . S
S983 N984 1.613 . S
S983 N985 1.610 . S
N984 S983 1.613 . S
N984 C987 1.350 . S
N985 S983 1.610 . S
N985 C986 1.351 . S
C986 C980 1.428 . S
C986 N985 1.351 . S
C986 C987 1.434 . S
C987 C978 1.429 . S
C987 N984 1.350 . S
C987 C986 1.434 . S
C988 C989 1.369 . S
C988 C990 1.419 . S
C988 H992 0.930 . S
C989 C988 1.369 . S
C989 C998 1.429 . S
C990 C988 1.419 . S
C990 C991 1.363 . S
C990 H993 0.929 . S
C991 C990 1.363 . S
C991 C997 1.428 . S
H992 C988 0.930 . S
H993 C990 0.929 . S
S994 N995 1.613 . S
S994 N996 1.610 . S
N995 S994 1.613 . S
N995 C998 1.350 . S
N996 S994 1.610 . S
N996 C997 1.351 . S
C997 C991 1.428 . S
C997 N996 1.351 . S
C997 C998 1.434 . S
C998 C989 1.429 . S
C998 N995 1.350 . S
C998 C997 1.434 . S
C999 C1000 1.369 . S
C999 C1001 1.419 . S
C999 H1003 0.930 . S
C1000 C999 1.369 . S
C1000 C1009 1.429 . S
C1001 C999 1.419 . S
C1001 C1002 1.363 . S
C1001 H1004 0.929 . S
C1002 C1001 1.363 . S
C1002 C1008 1.428 . S
H1003 C999 0.930 . S
H1004 C1001 0.929 . S
S1005 N1006 1.613 . S
S1005 N1007 1.610 . S
N1006 S1005 1.613 . S
N1006 C1009 1.350 . S
N1007 S1005 1.610 . S
N1007 C1008 1.351 . S
C1008 C1002 1.428 . S
C1008 N1007 1.351 . S
C1008 C1009 1.434 . S
C1009 C1000 1.429 . S
C1009 N1006 1.350 . S
C1009 C1008 1.434 . S
C1010 C1011 1.369 . S
C1010 C1012 1.419 . S
C1010 H1014 0.930 . S
C1011 C1010 1.369 . S
C1011 C1020 1.429 . S
C1012 C1010 1.419 . S
C1012 C1013 1.363 . S
C1012 H1015 0.929 . S
C1013 C1012 1.363 . S
C1013 C1019 1.428 . S
H1014 C1010 0.930 . S
H1015 C1012 0.929 . S
S1016 N1017 1.613 . S
S1016 N1018 1.610 . S
N1017 S1016 1.613 . S
N1017 C1020 1.350 . S
N1018 S1016 1.610 . S
N1018 C1019 1.351 . S
C1019 C1013 1.428 . S
C1019 N1018 1.351 . S
C1019 C1020 1.434 . S
C1020 C1011 1.429 . S
C1020 N1017 1.350 . S
C1020 C1019 1.434 . S
C1021 C1022 1.369 . S
C1021 C1023 1.419 . S
C1021 H1025 0.930 . S
C1022 C1021 1.369 . S
C1022 C1031 1.429 . S
C1023 C1021 1.419 . S
C1023 C1024 1.363 . S
C1023 H1026 0.929 . S
C1024 C1023 1.363 . S
C1024 C1030 1.428 . S
H1025 C1021 0.930 . S
H1026 C1023 0.929 . S
S1027 N1028 1.615 . S
S1027 N1029 1.610 1_556 S
N1028 S1027 1.615 . S
N1028 C1031 1.336 1_556 S
N1029 S1027 1.610 1_554 S
N1029 C1030 1.351 . S
C1030 C1024 1.428 . S
C1030 N1029 1.351 . S
C1030 C1031 1.434 . S
C1031 C1022 1.429 . S
C1031 N1028 1.336 1_554 S
C1031 C1030 1.434 . S
C1032 C1033 1.369 . S
C1032 C1034 1.419 . S
C1032 H1036 0.930 . S
C1033 C1032 1.369 . S
C1033 C1042 1.429 . S
C1034 C1032 1.419 . S
C1034 C1035 1.363 . S
C1034 H1037 0.929 . S
C1035 C1034 1.363 . S
C1035 C1041 1.428 . S
H1036 C1032 0.930 . S
H1037 C1034 0.929 . S
S1038 N1039 1.613 . S
S1038 N1040 1.610 . S
N1039 S1038 1.613 . S
N1039 C1042 1.350 . S
N1040 S1038 1.610 . S
N1040 C1041 1.351 . S
C1041 C1035 1.428 . S
C1041 N1040 1.351 . S
C1041 C1042 1.434 . S
C1042 C1033 1.429 . S
C1042 N1039 1.350 . S
C1042 C1041 1.434 . S
C1043 C1044 1.369 . S
C1043 C1045 1.419 . S
C1043 H1047 0.930 . S
C1044 C1043 1.369 . S
C1044 C1053 1.429 . S
C1045 C1043 1.419 . S
C1045 C1046 1.363 . S
C1045 H1048 0.929 . S
C1046 C1045 1.363 . S
C1046 C1052 1.428 . S
H1047 C1043 0.930 . S
H1048 C1045 0.929 . S
S1049 N1050 1.613 . S
S1049 N1051 1.610 . S
N1050 S1049 1.613 . S
N1050 C1053 1.350 . S
N1051 S1049 1.610 . S
N1051 C1052 1.351 . S
C1052 C1046 1.428 . S
C1052 N1051 1.351 . S
C1052 C1053 1.434 . S
C1053 C1044 1.429 . S
C1053 N1050 1.350 . S
C1053 C1052 1.434 . S
C1054 C1055 1.369 . S
C1054 C1056 1.419 . S
C1054 H1058 0.930 . S
C1055 C1054 1.369 . S
C1055 C1064 1.429 . S
C1056 C1054 1.419 . S
C1056 C1057 1.363 . S
C1056 H1059 0.929 . S
C1057 C1056 1.363 . S
C1057 C1063 1.428 . S
H1058 C1054 0.930 . S
H1059 C1056 0.929 . S
S1060 N1061 1.613 . S
S1060 N1062 1.610 . S
N1061 S1060 1.613 . S
N1061 C1064 1.350 . S
N1062 S1060 1.610 . S
N1062 C1063 1.351 . S
C1063 C1057 1.428 . S
C1063 N1062 1.351 . S
C1063 C1064 1.434 . S
C1064 C1055 1.429 . S
C1064 N1061 1.350 . S
C1064 C1063 1.434 . S
C1065 C1066 1.369 . S
C1065 C1067 1.419 . S
C1065 H1069 0.930 . S
C1066 C1065 1.369 . S
C1066 C1075 1.429 . S
C1067 C1065 1.419 . S
C1067 C1068 1.363 . S
C1067 H1070 0.929 . S
C1068 C1067 1.363 . S
C1068 C1074 1.428 . S
H1069 C1065 0.930 . S
H1070 C1067 0.929 . S
S1071 N1072 1.613 . S
S1071 N1073 1.610 . S
N1072 S1071 1.613 . S
N1072 C1075 1.350 . S
N1073 S1071 1.610 . S
N1073 C1074 1.351 . S
C1074 C1068 1.428 . S
C1074 N1073 1.351 . S
C1074 C1075 1.434 . S
C1075 C1066 1.429 . S
C1075 N1072 1.350 . S
C1075 C1074 1.434 . S
C1076 C1077 1.369 . S
C1076 C1078 1.419 . S
C1076 H1080 0.930 . S
C1077 C1076 1.369 . S
C1077 C1086 1.429 . S
C1078 C1076 1.419 . S
C1078 C1079 1.363 . S
C1078 H1081 0.929 . S
C1079 C1078 1.363 . S
C1079 C1085 1.428 . S
H1080 C1076 0.930 . S
H1081 C1078 0.929 . S
S1082 N1083 1.613 . S
S1082 N1084 1.610 . S
N1083 S1082 1.613 . S
N1083 C1086 1.350 . S
N1084 S1082 1.610 . S
N1084 C1085 1.351 . S
C1085 C1079 1.428 . S
C1085 N1084 1.351 . S
C1085 C1086 1.434 . S
C1086 C1077 1.429 . S
C1086 N1083 1.350 . S
C1086 C1085 1.434 . S
C1087 C1088 1.369 . S
C1087 C1089 1.419 . S
C1087 H1091 0.930 . S
C1088 C1087 1.369 . S
C1088 C1097 1.429 . S
C1089 C1087 1.419 . S
C1089 C1090 1.363 . S
C1089 H1092 0.929 . S
C1090 C1089 1.363 . S
C1090 C1096 1.428 . S
H1091 C1087 0.930 . S
H1092 C1089 0.929 . S
S1093 N1094 1.613 . S
S1093 N1095 1.610 . S
N1094 S1093 1.613 . S
N1094 C1097 1.350 . S
N1095 S1093 1.610 . S
N1095 C1096 1.351 . S
C1096 C1090 1.428 . S
C1096 N1095 1.351 . S
C1096 C1097 1.434 . S
C1097 C1088 1.429 . S
C1097 N1094 1.350 . S
C1097 C1096 1.434 . S
C1098 C1099 1.369 . S
C1098 C1100 1.419 . S
C1098 H1102 0.930 . S
C1099 C1098 1.369 . S
C1099 C1108 1.429 . S
C1100 C1098 1.419 . S
C1100 C1101 1.363 . S
C1100 H1103 0.929 . S
C1101 C1100 1.363 . S
C1101 C1107 1.428 . S
H1102 C1098 0.930 . S
H1103 C1100 0.929 . S
S1104 N1105 1.613 . S
S1104 N1106 1.610 . S
N1105 S1104 1.613 . S
N1105 C1108 1.350 . S
N1106 S1104 1.610 . S
N1106 C1107 1.351 . S
C1107 C1101 1.428 . S
C1107 N1106 1.351 . S
C1107 C1108 1.434 . S
C1108 C1099 1.429 . S
C1108 N1105 1.350 . S
C1108 C1107 1.434 . S
C1109 C1110 1.369 . S
C1109 C1111 1.419 . S
C1109 H1113 0.930 . S
C1110 C1109 1.369 . S
C1110 C1119 1.429 . S
C1111 C1109 1.419 . S
C1111 C1112 1.363 . S
C1111 H1114 0.929 . S
C1112 C1111 1.363 . S
C1112 C1118 1.428 . S
H1113 C1109 0.930 . S
H1114 C1111 0.929 . S
S1115 N1116 1.613 . S
S1115 N1117 1.610 . S
N1116 S1115 1.613 . S
N1116 C1119 1.350 . S
N1117 S1115 1.610 . S
N1117 C1118 1.351 . S
C1118 C1112 1.428 . S
C1118 N1117 1.351 . S
C1118 C1119 1.434 . S
C1119 C1110 1.429 . S
C1119 N1116 1.350 . S
C1119 C1118 1.434 . S
C1120 C1121 1.369 . S
C1120 C1122 1.419 . S
C1120 H1124 0.930 . S
C1121 C1120 1.369 . S
C1121 C1130 1.429 . S
C1122 C1120 1.419 . S
C1122 C1123 1.363 . S
C1122 H1125 0.929 . S
C1123 C1122 1.363 . S
C1123 C1129 1.428 . S
H1124 C1120 0.930 . S
H1125 C1122 0.929 . S
S1126 N1127 1.613 . S
S1126 N1128 1.610 . S
N1127 S1126 1.613 . S
N1127 C1130 1.350 . S
N1128 S1126 1.610 . S
N1128 C1129 1.351 . S
C1129 C1123 1.428 . S
C1129 N1128 1.351 . S
C1129 C1130 1.434 . S
C1130 C1121 1.429 . S
C1130 N1127 1.350 . S
C1130 C1129 1.434 . S
C1131 C1132 1.369 . S
C1131 C1133 1.419 . S
C1131 H1135 0.930 . S
C1132 C1131 1.369 . S
C1132 C1141 1.429 . S
C1133 C1131 1.419 . S
C1133 C1134 1.363 . S
C1133 H1136 0.929 . S
C1134 C1133 1.363 . S
C1134 C1140 1.428 . S
H1135 C1131 0.930 . S
H1136 C1133 0.929 . S
S1137 N1138 1.613 . S
S1137 N1139 1.610 . S
N1138 S1137 1.613 . S
N1138 C1141 1.350 . S
N1139 S1137 1.610 . S
N1139 C1140 1.351 . S
C1140 C1134 1.428 . S
C1140 N1139 1.351 . S
C1140 C1141 1.434 . S
C1141 C1132 1.429 . S
C1141 N1138 1.350 . S
C1141 C1140 1.434 . S
C1142 C1143 1.369 . S
C1142 C1144 1.419 . S
C1142 H1146 0.930 . S
C1143 C1142 1.369 . S
C1143 C1152 1.429 . S
C1144 C1142 1.419 . S
C1144 C1145 1.363 . S
C1144 H1147 0.929 . S
C1145 C1144 1.363 . S
C1145 C1151 1.428 . S
H1146 C1142 0.930 . S
H1147 C1144 0.929 . S
S1148 N1149 1.613 . S
S1148 N1150 1.610 . S
N1149 S1148 1.613 . S
N1149 C1152 1.350 . S
N1150 S1148 1.610 . S
N1150 C1151 1.351 . S
C1151 C1145 1.428 . S
C1151 N1150 1.351 . S
C1151 C1152 1.434 . S
C1152 C1143 1.429 . S
C1152 N1149 1.350 . S
C1152 C1151 1.434 . S
C1153 C1154 1.369 . S
C1153 C1155 1.419 . S
C1153 H1157 0.930 . S
C1154 C1153 1.369 . S
C1154 C1163 1.429 . S
C1155 C1153 1.419 . S
C1155 C1156 1.363 . S
C1155 H1158 0.929 . S
C1156 C1155 1.363 . S
C1156 C1162 1.428 . S
H1157 C1153 0.930 . S
H1158 C1155 0.929 . S
S1159 N1160 1.613 . S
S1159 N1161 1.610 . S
N1160 S1159 1.613 . S
N1160 C1163 1.350 . S
N1161 S1159 1.610 . S
N1161 C1162 1.351 . S
C1162 C1156 1.428 . S
C1162 N1161 1.351 . S
C1162 C1163 1.434 . S
C1163 C1154 1.429 . S
C1163 N1160 1.350 . S
C1163 C1162 1.434 . S
C1164 C1165 1.369 . S
C1164 C1166 1.419 . S
C1164 H1168 0.930 . S
C1165 C1164 1.369 . S
C1165 C1174 1.429 . S
C1166 C1164 1.419 . S
C1166 C1167 1.363 . S
C1166 H1169 0.929 . S
C1167 C1166 1.363 . S
C1167 C1173 1.428 . S
H1168 C1164 0.930 . S
H1169 C1166 0.929 . S
S1170 N1171 1.613 . S
S1170 N1172 1.610 . S
N1171 S1170 1.613 . S
N1171 C1174 1.350 . S
N1172 S1170 1.610 . S
N1172 C1173 1.351 . S
C1173 C1167 1.428 . S
C1173 N1172 1.351 . S
C1173 C1174 1.434 . S
C1174 C1165 1.429 . S
C1174 N1171 1.350 . S
C1174 C1173 1.434 . S
C1175 C1176 1.369 . S
C1175 C1177 1.419 . S
C1175 H1179 0.930 . S
C1176 C1175 1.369 . S
C1176 C1185 1.429 . S
C1177 C1175 1.419 . S
C1177 C1178 1.363 . S
C1177 H1180 0.929 . S
C1178 C1177 1.363 . S
C1178 C1184 1.428 . S
H1179 C1175 0.930 . S
H1180 C1177 0.929 . S
S1181 N1182 1.613 . S
S1181 N1183 1.610 . S
N1182 S1181 1.613 . S
N1182 C1185 1.350 . S
N1183 S1181 1.610 . S
N1183 C1184 1.351 . S
C1184 C1178 1.428 . S
C1184 N1183 1.351 . S
C1184 C1185 1.434 . S
C1185 C1176 1.429 . S
C1185 N1182 1.350 . S
C1185 C1184 1.434 . S
C1186 C1187 1.369 . S
C1186 C1188 1.419 . S
C1186 H1190 0.930 . S
C1187 C1186 1.369 . S
C1187 C1196 1.429 . S
C1188 C1186 1.419 . S
C1188 C1189 1.363 . S
C1188 H1191 0.929 . S
C1189 C1188 1.363 . S
C1189 C1195 1.428 . S
H1190 C1186 0.930 . S
H1191 C1188 0.929 . S
S1192 N1193 1.613 . S
S1192 N1194 1.610 . S
N1193 S1192 1.613 . S
N1193 C1196 1.350 . S
N1194 S1192 1.610 . S
N1194 C1195 1.351 . S
C1195 C1189 1.428 . S
C1195 N1194 1.351 . S
C1195 C1196 1.434 . S
C1196 C1187 1.429 . S
C1196 N1193 1.350 . S
C1196 C1195 1.434 . S
C1197 C1198 1.369 . S
C1197 C1199 1.419 . S
C1197 H1201 0.930 . S
C1198 C1197 1.369 . S
C1198 C1207 1.429 . S
C1199 C1197 1.419 . S
C1199 C1200 1.363 . S
C1199 H1202 0.929 . S
C1200 C1199 1.363 . S
C1200 C1206 1.428 . S
H1201 C1197 0.930 . S
H1202 C1199 0.929 . S
S1203 N1204 1.613 . S
S1203 N1205 1.610 . S
N1204 S1203 1.613 . S
N1204 C1207 1.350 . S
N1205 S1203 1.610 . S
N1205 C1206 1.351 . S
C1206 C1200 1.428 . S
C1206 N1205 1.351 . S
C1206 C1207 1.434 . S
C1207 C1198 1.429 . S
C1207 N1204 1.350 . S
C1207 C1206 1.434 . S
C1208 C1209 1.369 . S
C1208 C1210 1.419 . S
C1208 H1212 0.930 . S
C1209 C1208 1.369 . S
C1209 C1218 1.429 . S
C1210 C1208 1.419 . S
C1210 C1211 1.363 . S
C1210 H1213 0.929 . S
C1211 C1210 1.363 . S
C1211 C1217 1.428 . S
H1212 C1208 0.930 . S
H1213 C1210 0.929 . S
S1214 N1215 1.613 . S
S1214 N1216 1.610 . S
N1215 S1214 1.613 . S
N1215 C1218 1.350 . S
N1216 S1214 1.610 . S
N1216 C1217 1.351 . S
C1217 C1211 1.428 . S
C1217 N1216 1.351 . S
C1217 C1218 1.434 . S
C1218 C1209 1.429 . S
C1218 N1215 1.350 . S
C1218 C1217 1.434 . S
C1219 C1220 1.369 . S
C1219 C1221 1.419 . S
C1219 H1223 0.930 . S
C1220 C1219 1.369 . S
C1220 C1229 1.429 . S
C1221 C1219 1.419 . S
C1221 C1222 1.363 . S
C1221 H1224 0.929 . S
C1222 C1221 1.363 . S
C1222 C1228 1.428 . S
H1223 C1219 0.930 . S
H1224 C1221 0.929 . S
S1225 N1226 1.613 . S
S1225 N1227 1.610 . S
N1226 S1225 1.613 . S
N1226 C1229 1.350 . S
N1227 S1225 1.610 . S
N1227 C1228 1.351 . S
C1228 C1222 1.428 . S
C1228 N1227 1.351 . S
C1228 C1229 1.434 . S
C1229 C1220 1.429 . S
C1229 N1226 1.350 . S
C1229 C1228 1.434 . S
C1230 C1231 1.369 . S
C1230 C1232 1.419 1_455 S
C1230 H1234 0.930 . S
C1231 C1230 1.369 . S
C1231 C1240 1.429 . S
C1232 C1230 1.419 1_655 S
C1232 C1233 1.363 . S
C1232 H1235 0.929 . S
C1233 C1232 1.363 . S
C1233 C1239 1.428 . S
H1234 C1230 0.930 . S
H1235 C1232 0.929 . S
S1236 N1237 1.613 1_655 S
S1236 N1238 1.610 . S
N1237 S1236 1.613 1_455 S
N1237 C1240 1.350 . S
N1238 S1236 1.610 . S
N1238 C1239 1.351 . S
C1239 C1233 1.428 . S
C1239 N1238 1.351 . S
C1239 C1240 1.434 1_655 S
C1240 C1231 1.429 . S
C1240 N1237 1.350 . S
C1240 C1239 1.434 1_455 S
C1241 C1242 1.369 . S
C1241 C1243 1.419 . S
C1241 H1245 0.930 . S
C1242 C1241 1.369 . S
C1242 C1251 1.429 . S
C1243 C1241 1.419 . S
C1243 C1244 1.363 . S
C1243 H1246 0.929 . S
C1244 C1243 1.363 . S
C1244 C1250 1.428 . S
H1245 C1241 0.930 . S
H1246 C1243 0.929 . S
S1247 N1248 1.613 . S
S1247 N1249 1.610 . S
N1248 S1247 1.613 . S
N1248 C1251 1.350 . S
N1249 S1247 1.610 . S
N1249 C1250 1.351 . S
C1250 C1244 1.428 . S
C1250 N1249 1.351 . S
C1250 C1251 1.434 . S
C1251 C1242 1.429 . S
C1251 N1248 1.350 . S
C1251 C1250 1.434 . S
C1252 C1253 1.369 . S
C1252 C1254 1.419 1_545 S
C1252 H1256 0.930 . S
C1253 C1252 1.369 . S
C1253 C1262 1.429 . S
C1254 C1252 1.419 1_565 S
C1254 C1255 1.363 . S
C1254 H1257 0.929 . S
C1255 C1254 1.363 . S
C1255 C1261 1.428 . S
H1256 C1252 0.930 . S
H1257 C1254 0.929 . S
S1258 N1259 1.613 . S
S1258 N1260 1.610 1_545 S
N1259 S1258 1.613 . S
N1259 C1262 1.350 . S
N1260 S1258 1.610 1_565 S
N1260 C1261 1.351 . S
C1261 C1255 1.428 . S
C1261 N1260 1.351 . S
C1261 C1262 1.434 1_565 S
C1262 C1253 1.429 . S
C1262 N1259 1.350 . S
C1262 C1261 1.434 1_545 S
C1263 C1264 1.369 1_554 S
C1263 C1265 1.419 1_545 S
C1263 H1267 0.930 . S
C1264 C1263 1.369 1_556 S
C1264 C1273 1.429 . S
C1265 C1263 1.419 1_565 S
C1265 C1266 1.363 . S
C1265 H1268 0.929 . S
C1266 C1265 1.363 . S
C1266 C1272 1.428 1_554 S
H1267 C1263 0.930 . S
H1268 C1265 0.929 . S
S1269 N1270 1.613 1_565 S
S1269 N1271 1.610 . S
N1270 S1269 1.613 1_545 S
N1270 C1273 1.350 . S
N1271 S1269 1.610 . S
N1271 C1272 1.351 . S
C1272 C1266 1.428 1_556 S
C1272 N1271 1.351 . S
C1272 C1273 1.434 1_565 S
C1273 C1264 1.429 . S
C1273 N1270 1.350 . S
C1273 C1272 1.434 1_545 S
C1274 C1275 1.369 1_554 S
C1274 C1276 1.419 1_655 S
C1274 H1278 0.930 . S
C1275 C1274 1.369 1_556 S
C1275 C1284 1.429 . S
C1276 C1274 1.419 1_455 S
C1276 C1277 1.363 . S
C1276 H1279 0.929 . S
C1277 C1276 1.363 . S
C1277 C1283 1.428 1_554 S
H1278 C1274 0.930 . S
H1279 C1276 0.929 . S
S1280 N1281 1.613 1_455 S
S1280 N1282 1.610 . S
N1281 S1280 1.613 1_655 S
N1281 C1284 1.350 . S
N1282 S1280 1.610 . S
N1282 C1283 1.351 . S
C1283 C1277 1.428 1_556 S
C1283 N1282 1.351 . S
C1283 C1284 1.434 1_455 S
C1284 C1275 1.429 . S
C1284 N1281 1.350 . S
C1284 C1283 1.434 1_655 S
C1285 C1286 1.369 . S
C1285 C1287 1.419 . S
C1285 H1289 0.930 . S
C1286 C1285 1.369 . S
C1286 C1295 1.429 1_556 S
C1287 C1285 1.419 . S
C1287 C1288 1.363 1_556 S
C1287 H1290 0.929 . S
C1288 C1287 1.363 1_554 S
C1288 C1294 1.428 . S
H1289 C1285 0.930 . S
H1290 C1287 0.929 . S
S1291 N1292 1.613 . S
S1291 N1293 1.610 . S
N1292 S1291 1.613 . S
N1292 C1295 1.350 . S
N1293 S1291 1.610 . S
N1293 C1294 1.351 . S
C1294 C1288 1.428 . S
C1294 N1293 1.351 . S
C1294 C1295 1.434 . S
C1295 C1286 1.429 1_554 S
C1295 N1292 1.350 . S
C1295 C1294 1.434 . S
C505 C11 1.248 . S
C507 C102 1.325 . S
C516 C19 1.283 . S
C518 C116 1.361 . S
C527 C88 1.328 . S
C529 C33 1.247 . S
C538 C158 1.326 . S
C540 C47 1.250 . S
C549 C61 1.294 . S
C551 C130 1.361 . S
C560 C81 1.256 . S
C562 C144 1.327 . S
C571 C18 1.208 . S
C573 C89 1.146 . S
C582 C32 1.305 . S
C584 C103 1.230 . S
C593 C117 1.147 . S
C595 C12 1.210 . S
C604 C131 1.147 . S
C606 C82 1.209 . S
C615 C46 1.305 . S
C617 C145 1.238 . S
C626 C159 1.132 . S
C628 C60 1.211 . S
C637 C270 1.326 . S
C639 C179 1.246 . S
C648 C187 1.288 . S
C650 C284 1.362 . S
C659 C201 1.237 . S
C661 C256 1.329 . S
C670 C326 1.326 . S
C672 C215 1.250 . S
C681 C229 1.282 . S
C683 C298 1.362 . S
C692 C312 1.326 . S
C694 C249 1.254 . S
C703 C186 1.207 . S
C705 C257 1.143 . S
C714 C271 1.237 . S
C716 C200 1.302 . S
C725 C180 1.209 . S
C727 C285 1.137 . S
C736 C299 1.145 . S
C738 C250 1.210 . S
C747 C313 1.237 . S
C749 C214 1.305 . S
C758 C327 1.139 . S
C760 C228 1.211 . S
C769 C438 1.328 . S
C771 C347 1.255 . S
C780 C452 1.362 . S
C782 C355 1.283 . S
C791 C424 1.326 . S
C793 C369 1.250 . S
C802 C383 1.239 . S
C804 C494 1.329 . S
C813 C397 1.290 . S
C815 C466 1.360 . S
C824 C480 1.326 . S
C826 C417 1.252 . S
C835 C425 1.145 . S
C837 C354 1.208 . S
C846 C368 1.306 . S
C848 C439 1.233 . S
C857 C348 1.211 . S
C859 C453 1.144 . S
C868 C467 1.148 . S
C870 C418 1.206 . S
C879 C481 1.230 . S
C881 C382 1.305 . S
C890 C495 1.132 . S
C892 C396 1.210 . S
C901 C54 1.594 . S
C903 C4 1.488 . S
C912 C68 1.588 . S
C914 C26 1.579 . S
C923 C40 1.595 . S
C925 C74 1.489 . S
C934 C138 1.494 . S
C936 C96 1.496 . S
C945 C152 1.573 . S
C947 C110 1.565 . S
C956 C166 1.497 . S
C958 C124 1.495 . S
C967 C222 1.600 . S
C969 C172 1.482 . S
C978 C236 1.578 . S
C980 C194 1.587 . S
C989 C208 1.591 . S
C991 C242 1.493 . S
C1000 C306 1.500 . S
C1002 C264 1.489 . S
C1011 C320 1.572 . S
C1013 C278 1.568 . S
C1022 C334 1.492 . S
C1024 C292 1.502 . S
C1033 C390 1.595 . S
C1035 C340 1.488 . S
C1044 C362 1.578 . S
C1046 C404 1.587 . S
C1055 C410 1.495 . S
C1057 C376 1.592 . S
C1066 C432 1.495 . S
C1068 C474 1.495 . S
C1077 C446 1.572 . S
C1079 C488 1.565 . S
C1088 C460 1.495 . S
C1090 C502 1.493 . S
C1099 C5 1.296 . S
C1101 C263 1.423 . S
C1110 C277 1.432 . S
C1112 C25 1.427 . S
C1121 C291 1.454 . S
C1123 C39 1.448 . S
C1132 C473 1.450 . S
C1134 C53 1.452 . S
C1143 C487 1.426 . S
C1145 C67 1.432 . S
C1154 C501 1.417 . S
C1156 C75 1.282 . S
C1165 C95 1.420 . S
C1167 C341 1.290 . S
C1176 C361 1.430 . S
C1178 C109 1.428 . S
C1187 C375 1.448 . S
C1189 C123 1.453 . S
C1198 C137 1.452 . S
C1200 C221 1.450 . S
C1209 C151 1.425 . S
C1211 C235 1.432 . S
C1220 C165 1.418 . S
C1222 C243 1.285 . S
C1231 C431 1.426 . S
C1233 C173 1.294 . S
C1242 C445 1.428 . S
C1244 C193 1.430 . S
C1253 C207 1.449 . S
C1255 C459 1.452 . S
C1264 C305 1.455 . S
C1266 C389 1.448 . S
C1275 C319 1.429 . S
C1277 C403 1.429 . S
C1286 C333 1.420 . S
C1288 C411 1.282 . S
