# Generated by pormake.
# Topology uon, (4)-cn, num edge types: 1
# Building blocks:
#     Node 0, Type 0, BuildingBlock: ESEHIV_clean_sbu_0, # of connection points: 4
#     Node 1, Type 0, BuildingBlock: ESEHIV_clean_sbu_0, # of connection points: 4
#     Node 2, Type 0, BuildingBlock: ESEHIV_clean_sbu_0, # of connection points: 4
#     Node 3, Type 0, BuildingBlock: ESEHIV_clean_sbu_0, # of connection points: 4
#     Node 4, Type 0, BuildingBlock: ESEHIV_clean_sbu_0, # of connection points: 4
#     Node 5, Type 0, BuildingBlock: ESEHIV_clean_sbu_0, # of connection points: 4
#     Edge 6, Type (0, 0), BuildingBlock: MIFKUJ_clean_linker_0, # of connection points: 2
#     Edge 7, Type (0, 0), BuildingBlock: MIFKUJ_clean_linker_0, # of connection points: 2
#     Edge 8, Type (0, 0), BuildingBlock: MIFKUJ_clean_linker_0, # of connection points: 2
#     Edge 9, Type (0, 0), BuildingBlock: MIFKUJ_clean_linker_0, # of connection points: 2
#     Edge 10, Type (0, 0), BuildingBlock: MIFKUJ_clean_linker_0, # of connection points: 2
#     Edge 11, Type (0, 0), BuildingBlock: MIFKUJ_clean_linker_0, # of connection points: 2
#     Edge 12, Type (0, 0), BuildingBlock: MIFKUJ_clean_linker_0, # of connection points: 2
#     Edge 13, Type (0, 0), BuildingBlock: MIFKUJ_clean_linker_0, # of connection points: 2
#     Edge 14, Type (0, 0), BuildingBlock: MIFKUJ_clean_linker_0, # of connection points: 2
#     Edge 15, Type (0, 0), BuildingBlock: MIFKUJ_clean_linker_0, # of connection points: 2
#     Edge 16, Type (0, 0), BuildingBlock: MIFKUJ_clean_linker_0, # of connection points: 2
#     Edge 17, Type (0, 0), BuildingBlock: MIFKUJ_clean_linker_0, # of connection points: 2
# Relax obj value: 0.074
# Max RMSD: 0.073
# Mean RMSD: 0.073
data_MOF--net-uon--node1-ESEHIV_clean_sbu_0--edge1-MIFKUJ_clean_linker_0
_symmetry_space_group_name_H-M    P1
_symmetry_Int_Tables_number       1
_symmetry_cell_setting            triclinic
loop_
_symmetry_equiv_pos_as_xyz
'x, y, z'
_cell_length_a     44.821941
_cell_length_b     44.715649
_cell_length_c     35.447853
_cell_angle_alpha  89.997405
_cell_angle_beta   89.430546
_cell_angle_gamma 119.80112
loop_
_atom_site_label
_atom_site_type_symbol
_atom_site_fract_x
_atom_site_fract_y
_atom_site_fract_z
_atom_type_partial_charge
Cu0 Cu 0.24646 0.44277 0.03943 0.0
N1 N 0.29428 0.47163 0.03377 0.0
N2 N 0.34313 0.50614 1.0023 0.0
C3 C 0.30932 0.48317 0.99969 0.0
C4 C 0.34987 0.50921 0.03955 0.0
C5 C 0.31972 0.48747 0.05895 0.0
O6 O 0.23622 0.40768 1.00056 0.0
C7 C 0.23841 0.49663 0.06083 0.0
O8 O 0.26438 0.50038 0.08105 0.0
H9 H 0.2953 0.47604 0.97347 0.0
H10 H 0.31636 0.48453 0.08924 0.0
N11 N 0.23065 0.42094 0.0866 0.0
N12 N 0.19259 0.39531 0.13393 0.0
C13 C 0.19829 0.40974 0.09924 0.0
C14 C 0.24626 0.41364 0.11447 0.0
C15 C 0.22273 0.39756 0.14359 0.0
C16 C 0.25052 0.38968 1.00752 0.0
O17 O 0.26614 0.39438 0.03994 0.0
H18 H 0.17915 0.41194 0.08298 0.0
H19 H 0.2728 0.41964 0.11377 0.0
O20 O 0.22535 0.47209 0.03693 0.0
H21 H 0.37462 0.52634 0.05183 0.0
H22 H 0.22761 0.38878 0.17005 0.0
Cu23 Cu 0.79382 0.21223 0.32874 0.0
N24 N 0.77852 0.2216 0.28356 0.0
N25 N 0.77497 0.25005 0.23318 0.0
C26 C 0.79255 0.25197 0.26481 0.0
C27 C 0.74895 0.21706 0.23218 0.0
C28 C 0.75121 0.19969 0.26318 0.0
O29 O 0.84414 0.24115 0.32695 0.0
C30 C 0.77644 0.22143 0.4051 0.0
O31 O 0.8018 0.21663 0.41555 0.0
H32 H 0.81486 0.2751 0.27465 0.0
H33 H 0.73408 0.17292 0.27041 0.0
N34 N 0.78015 0.16503 0.33081 0.0
N35 N 0.76058 0.11102 0.35187 0.0
C36 C 0.76844 0.14354 0.36093 0.0
C37 C 0.77966 0.14544 0.30177 0.0
C38 C 0.76764 0.11224 0.31459 0.0
C39 C 0.86483 0.22933 0.32799 0.0
O40 O 0.85274 0.19661 0.33602 0.0
H41 H 0.76529 0.15147 0.3888 0.0
H42 H 0.78766 0.15476 0.27322 0.0
O43 O 0.77078 0.22216 0.37004 0.0
H44 H 0.7297 0.20602 0.21047 0.0
H45 H 0.76489 0.09081 0.29781 0.0
Cu46 Cu 0.58207 0.79721 0.67414 0.0
N47 N 0.55935 0.82267 0.66924 0.0
N48 N 0.52736 0.83989 0.63763 0.0
C49 C 0.53571 0.81498 0.64228 0.0
C50 C 0.54637 0.86422 0.66323 0.0
C51 C 0.56634 0.85368 0.68245 0.0
O52 O 0.61035 0.81094 0.628 0.0
C53 C 0.52784 0.74698 0.71156 0.0
O54 O 0.53286 0.77574 0.7272 0.0
H55 H 0.52609 0.79204 0.62519 0.0
H56 H 0.58608 0.86864 0.70266 0.0
N57 N 0.61055 0.80643 0.71622 0.0
N58 N 0.641 0.79563 0.75859 0.0
C59 C 0.62563 0.78763 0.72457 0.0
C60 C 0.61639 0.82712 0.74607 0.0
C61 C 0.63528 0.82065 0.77213 0.0
C62 C 0.63455 0.84231 0.62945 0.0
O63 O 0.6404 0.85816 0.66202 0.0
H64 H 0.62371 0.76717 0.70665 0.0
H65 H 0.60658 0.84469 0.7494 0.0
O66 O 0.54655 0.7492 0.68304 0.0
H67 H 0.54745 0.88882 0.66624 0.0
H68 H 0.6436 0.8331 0.79919 0.0
Cu69 Cu 0.80089 0.58838 1.00814 0.0
N70 N 0.75308 0.5611 1.01016 0.0
N71 N 0.70276 0.5256 0.98289 0.0
C72 C 0.73501 0.55218 0.97804 0.0
C73 C 0.70019 0.51788 0.02009 0.0
C74 C 0.73143 0.53968 0.03683 0.0
O75 O 0.80809 0.62024 0.9664 0.0
C76 C 0.81696 0.54005 0.03324 0.0
O77 O 0.80775 0.5487 0.0648 0.0
H78 H 0.74637 0.56362 0.95102 0.0
H79 H 0.7386 0.53808 0.06549 0.0
N80 N 0.82176 0.61434 0.05155 0.0
N81 N 0.86405 0.64592 0.0919 0.0
C82 C 0.8559 0.63086 0.05763 0.0
C83 C 0.80761 0.61902 0.08304 0.0
C84 C 0.83366 0.63863 0.10792 0.0
C85 C 0.79862 0.64211 0.97476 0.0
O86 O 0.78951 0.64317 1.00983 0.0
H87 H 0.87434 0.63153 0.03723 0.0
H88 H 0.78031 0.60842 0.08782 0.0
O89 O 0.81696 0.55501 1.00251 0.0
H90 H 0.67836 0.4963 0.03365 0.0
H91 H 0.83031 0.64608 0.136 0.0
Cu92 Cu 0.21614 0.80075 0.34631 0.0
N93 N 0.19541 0.75259 0.34545 0.0
N94 N 0.18015 0.70153 0.31899 0.0
C95 C 0.19019 0.73503 0.313 0.0
C96 C 0.17876 0.69773 0.35687 0.0
C97 C 0.18803 0.72927 0.37316 0.0
O98 O 0.19987 0.81096 0.2995 0.0
C99 C 0.27352 0.81368 0.38463 0.0
O100 O 0.24877 0.79594 0.40915 0.0
H101 H 0.19594 0.74718 0.28543 0.0
H102 H 0.19072 0.73501 0.40298 0.0
N103 N 0.20445 0.81911 0.3879 0.0
N104 N 0.21259 0.859 0.43111 0.0
C105 C 0.22265 0.85264 0.39748 0.0
C106 C 0.18182 0.80354 0.41637 0.0
C107 C 0.18684 0.82811 0.44314 0.0
C108 C 0.17467 0.81672 0.30058 0.0
O109 O 0.16549 0.82382 0.33313 0.0
H110 H 0.24426 0.87162 0.38099 0.0
H111 H 0.16399 0.77615 0.41829 0.0
O112 O 0.26571 0.819 0.35169 0.0
H113 H 0.17254 0.67414 0.37171 0.0
H114 H 0.17311 0.82344 0.46973 0.0
Cu115 Cu 0.44246 0.21731 0.69481 0.0
N116 N 0.47618 0.20392 0.69522 0.0
N117 N 0.51978 0.19804 0.67197 0.0
C118 C 0.49646 0.2081 0.66503 0.0
C119 C 0.51383 0.18705 0.70823 0.0
C120 C 0.48694 0.19067 0.72248 0.0
O121 O 0.41232 0.19158 0.65291 0.0
C122 C 0.485 0.27892 0.72444 0.0
O123 O 0.48468 0.25666 0.74882 0.0
H124 H 0.49457 0.21924 0.63869 0.0
H125 H 0.47648 0.1846 0.75083 0.0
N126 N 0.41454 0.20743 0.73834 0.0
N127 N 0.38198 0.21587 0.78082 0.0
C128 C 0.39765 0.22459 0.74663 0.0
C129 C 0.40923 0.18681 0.7683 0.0
C130 C 0.38921 0.19201 0.79455 0.0
C131 C 0.39628 0.15918 0.65962 0.0
O132 O 0.4011 0.14853 0.69235 0.0
H133 H 0.39831 0.24441 0.72853 0.0
H134 H 0.41971 0.16979 0.77131 0.0
O135 O 0.4678 0.2677 0.69411 0.0
H136 H 0.5278 0.17704 0.72349 0.0
H137 H 0.381 0.17945 0.8218 0.0
H138 H 0.24153 0.38704 0.92981 0.0
H139 H 0.25866 0.35655 0.88401 0.0
H140 H 0.28757 0.31314 0.97561 0.0
H141 H 0.27019 0.34248 0.0209 0.0
H142 H 0.34054 0.34943 0.92033 0.0
H143 H 0.21901 0.26271 0.92947 0.0
H144 H 0.15707 0.24218 0.923 0.0
H145 H 0.17206 0.2683 0.80512 0.0
H146 H 0.23421 0.28944 0.81104 0.0
H147 H 0.37644 0.22295 0.85625 0.0
H148 H 0.34905 0.25181 0.88782 0.0
H149 H 0.31971 0.27327 0.78011 0.0
H150 H 0.34679 0.24395 0.74827 0.0
H151 H 0.26745 0.25379 0.8342 0.0
H152 H 0.38495 0.33657 0.82047 0.0
H153 H 0.4473 0.35892 0.82231 0.0
H154 H 0.4418 0.34575 0.94269 0.0
H155 H 0.37906 0.32273 0.94145 0.0
C156 C 0.25075 0.37032 0.94009 0.0
C157 C 0.25466 0.36744 0.97907 0.0
C158 C 0.2607 0.35307 0.91392 0.0
C159 C 0.27479 0.33285 0.92641 0.0
C160 C 0.27713 0.32882 0.96526 0.0
C161 C 0.26704 0.34565 0.99117 0.0
C162 C 0.28918 0.31727 0.89982 0.0
C163 C 0.32448 0.32841 0.90166 0.0
C164 C 0.2686 0.29077 0.87429 0.0
C165 C 0.2313 0.27806 0.87081 0.0
C166 C 0.20915 0.26441 0.90226 0.0
C167 C 0.174 0.25258 0.89867 0.0
C168 C 0.16065 0.25405 0.8637 0.0
C169 C 0.18244 0.26725 0.83221 0.0
C170 C 0.21762 0.27914 0.83566 0.0
C171 C 0.36377 0.23332 0.83923 0.0
C172 C 0.36403 0.23121 0.79964 0.0
C173 C 0.34827 0.25005 0.85732 0.0
C174 C 0.33254 0.26504 0.83637 0.0
C175 C 0.3317 0.26199 0.79692 0.0
C176 C 0.34747 0.24547 0.77874 0.0
C177 C 0.31854 0.28515 0.85587 0.0
C178 C 0.28354 0.27505 0.85258 0.0
C179 C 0.33947 0.31317 0.87957 0.0
C180 C 0.37725 0.32759 0.88081 0.0
C181 C 0.39698 0.33819 0.84732 0.0
C182 C 0.43241 0.35097 0.84826 0.0
C183 C 0.44856 0.3536 0.8826 0.0
C184 C 0.42926 0.34362 0.9161 0.0
C185 C 0.39373 0.33072 0.9153 0.0
H186 H 0.47601 0.36342 0.88328 0.0
H187 H 0.13343 0.24487 0.86097 0.0
H188 H 0.89667 0.29502 0.29827 0.0
H189 H 0.95405 0.32664 0.26934 0.0
H190 H 0.9723 0.2433 0.29732 0.0
H191 H 0.91531 0.21179 0.32676 0.0
H192 H 0.02994 0.30606 0.30783 0.0
H193 H 0.94647 0.2502 0.20768 0.0
H194 H 0.89357 0.23824 0.17442 0.0
H195 H 0.93589 0.34634 0.1522 0.0
H196 H 0.98899 0.35888 0.18521 0.0
H197 H 0.16836 0.34181 0.18342 0.0
H198 H 0.11411 0.31617 0.21884 0.0
H199 H 0.09096 0.3907 0.17018 0.0
H200 H 0.14453 0.41535 0.13357 0.0
H201 H 0.03571 0.33485 0.17182 0.0
H202 H 0.11816 0.39298 0.26864 0.0
H203 H 0.17058 0.40928 0.30521 0.0
H204 H 0.13066 0.30365 0.33831 0.0
H205 H 0.07828 0.28673 0.30138 0.0
C206 C 0.91306 0.28362 0.29883 0.0
C207 C 0.90116 0.25069 0.31471 0.0
C208 C 0.94584 0.30166 0.28201 0.0
C209 C 0.96739 0.28714 0.2805 0.0
C210 C 0.9562 0.25505 0.29794 0.0
C211 C 0.92348 0.237 0.31474 0.0
C212 C 1.0008 0.30441 0.25924 0.0
C213 C 0.0312 0.31208 0.27801 0.0
C214 C 1.00274 0.31323 0.22057 0.0
C215 C 0.97157 0.30547 0.19902 0.0
C216 C 0.94448 0.27138 0.19557 0.0
C217 C 0.91447 0.2645 0.17675 0.0
C218 C 0.91134 0.2915 0.16117 0.0
C219 C 0.93834 0.32541 0.1641 0.0
C220 C 0.96845 0.33242 0.18275 0.0
C221 C 0.15182 0.35287 0.18052 0.0
C222 C 0.16091 0.38072 0.15574 0.0
C223 C 0.12075 0.3383 0.20099 0.0
C224 C 0.09839 0.35182 0.1981 0.0
C225 C 0.10745 0.37956 0.17311 0.0
C226 C 0.13819 0.3937 0.1521 0.0
C227 C 0.06529 0.33661 0.2203 0.0
C228 C 0.03477 0.32914 0.20169 0.0
C229 C 0.06336 0.32857 0.25934 0.0
C230 C 0.09458 0.33859 0.28188 0.0
C231 C 0.12077 0.37324 0.28344 0.0
C232 C 0.15041 0.38258 0.30428 0.0
C233 C 0.154 0.35749 0.32398 0.0
C234 C 0.12787 0.32304 0.32298 0.0
C235 C 0.0982 0.31357 0.30212 0.0
H236 H 0.17697 0.36476 0.3401 0.0
H237 H 0.88798 0.28614 0.14688 0.0
H238 H 0.76982 0.11063 0.42756 0.0
H239 H 0.74946 0.06026 0.46888 0.0
H240 H 0.70255 0.99326 0.37401 0.0
H241 H 0.72223 0.04353 0.33265 0.0
H242 H 0.66014 0.97122 0.43532 0.0
H243 H 0.77721 1.00407 0.40856 0.0
H244 H 0.83972 0.04381 0.40358 0.0
H245 H 0.84388 0.06281 0.52267 0.0
H246 H 0.78129 0.02354 0.5283 0.0
H247 H 0.61981 0.82574 0.55378 0.0
H248 H 0.64311 0.86569 0.49977 0.0
H249 H 0.70895 0.9476 0.57491 0.0
H250 H 0.68763 0.90791 0.62771 0.0
H251 H 0.74246 0.9568 0.51502 0.0
H252 H 0.62359 0.93012 0.53949 0.0
H253 H 0.56088 0.8907 0.54369 0.0
H254 H 0.56032 0.86033 0.42865 0.0
H255 H 0.62303 0.89936 0.42389 0.0
C256 C 0.75493 0.08524 0.41548 0.0
C257 C 0.74788 0.08128 0.37663 0.0
C258 C 0.74354 0.05638 0.43912 0.0
C259 C 0.72483 0.02285 0.42453 0.0
C260 C 0.71709 0.0188 0.38594 0.0
C261 C 0.72862 0.04764 0.36224 0.0
C262 C 0.71339 0.99212 0.44958 0.0
C263 C 0.67819 0.96783 0.45241 0.0
C264 C 0.73681 0.98758 0.47202 0.0
C265 C 0.7745 0.01106 0.46879 0.0
C266 C 0.79141 0.01691 0.43365 0.0
C267 C 0.82687 0.03932 0.43072 0.0
C268 C 0.84575 0.05587 0.46278 0.0
C269 C 0.82922 0.04998 0.49786 0.0
C270 C 0.79376 0.02762 0.50094 0.0
C271 C 0.63985 0.85206 0.5585 0.0
C272 C 0.65158 0.86357 0.59521 0.0
C273 C 0.65286 0.87509 0.52767 0.0
C274 C 0.67728 0.91016 0.53315 0.0
C275 C 0.69012 0.92092 0.56956 0.0
C276 C 0.67768 0.89801 0.59998 0.0
C277 C 0.68892 0.93648 0.50208 0.0
C278 C 0.72431 0.95998 0.49786 0.0
C279 C 0.66564 0.94038 0.47854 0.0
C280 C 0.62797 0.91729 0.48148 0.0
C281 C 0.61008 0.91487 0.51519 0.0
C282 C 0.57457 0.89258 0.51768 0.0
C283 C 0.55672 0.87285 0.48652 0.0
C284 C 0.57424 0.87552 0.45278 0.0
C285 C 0.60973 0.89772 0.45017 0.0
H286 H 0.52927 0.85565 0.48832 0.0
H287 H 0.8732 0.07322 0.46045 0.0
H288 H 0.78988 0.6315 0.89761 0.0
H289 H 0.76663 0.658 0.85448 0.0
H290 H 0.76669 0.72266 0.94466 0.0
H291 H 0.79025 0.69718 0.98722 0.0
H292 H 0.70108 0.68007 0.90964 0.0
H293 H 0.8206 0.75956 0.87765 0.0
H294 H 0.8783 0.77459 0.85389 0.0
H295 H 0.83547 0.72785 0.74748 0.0
H296 H 0.7774 0.7121 0.77083 0.0
H297 H 0.65226 0.79437 0.83388 0.0
H298 H 0.68068 0.76692 0.86502 0.0
H299 H 0.69599 0.731 0.75761 0.0
H300 H 0.66857 0.75945 0.72602 0.0
H301 H 0.75219 0.75369 0.79615 0.0
H302 H 0.63566 0.66735 0.82518 0.0
H303 H 0.5754 0.64223 0.84678 0.0
H304 H 0.60916 0.69447 0.95269 0.0
H305 H 0.66972 0.71886 0.93214 0.0
C306 C 0.78589 0.65209 0.90784 0.0
C307 C 0.79171 0.66203 0.94595 0.0
C308 C 0.77244 0.66707 0.88326 0.0
C309 C 0.76458 0.69206 0.89652 0.0
C310 C 0.77227 0.70327 0.93388 0.0
C311 C 0.78584 0.68864 0.95817 0.0
C312 C 0.7456 0.70465 0.87314 0.0
C313 C 0.71242 0.69644 0.885 0.0
C314 C 0.75973 0.7248 0.84013 0.0
C315 C 0.79461 0.73427 0.82615 0.0
C316 C 0.82343 0.75216 0.84933 0.0
C317 C 0.85622 0.76089 0.8359 0.0
C318 C 0.86054 0.75207 0.79924 0.0
C319 C 0.83208 0.7346 0.77589 0.0
C320 C 0.79923 0.72579 0.7892 0.0
C321 C 0.66176 0.78085 0.8167 0.0
C322 C 0.65787 0.77922 0.77726 0.0
C323 C 0.67769 0.76466 0.8347 0.0
C324 C 0.69009 0.74626 0.81386 0.0
C325 C 0.68653 0.7448 0.77447 0.0
C326 C 0.67055 0.76097 0.75642 0.0
C327 C 0.70781 0.72973 0.83316 0.0
C328 C 0.74071 0.73714 0.8206 0.0
C329 C 0.6932 0.70812 0.86513 0.0
C330 C 0.65707 0.69518 0.87699 0.0
C331 C 0.63018 0.67362 0.85297 0.0
C332 C 0.59602 0.65925 0.86517 0.0
C333 C 0.58844 0.66689 0.90101 0.0
C334 C 0.61506 0.68861 0.92492 0.0
C335 C 0.6493 0.70246 0.91315 0.0
H336 H 0.56194 0.656 0.91023 0.0
H337 H 0.88594 0.75887 0.78889 0.0
H338 H 0.88539 0.69527 0.14588 0.0
H339 H 0.94253 0.72685 0.17363 0.0
H340 H 0.97724 0.67161 0.10269 0.0
H341 H 0.91991 0.63929 0.0755 0.0
H342 H 0.99924 0.67538 0.17401 0.0
H343 H 1.00084 0.75512 0.08297 0.0
H344 H 0.97932 0.78947 0.05085 0.0
H345 H 0.98641 0.84282 0.15401 0.0
H346 H 1.00752 0.80845 0.18691 0.0
H347 H 0.17061 0.77939 0.23695 0.0
H348 H 0.12285 0.75371 0.19244 0.0
H349 H 0.07498 0.80472 0.24908 0.0
H350 H 0.12281 0.8311 0.29261 0.0
H351 H 0.06334 0.80318 0.17713 0.0
H352 H 0.05427 0.71924 0.26968 0.0
H353 H 0.07381 0.68401 0.30362 0.0
H354 H 0.0797 0.63842 0.19922 0.0
H355 H 0.06053 0.67369 0.16459 0.0
C356 C 0.90507 0.68965 0.1363 0.0
C357 C 0.89793 0.66479 0.10825 0.0
C358 C 0.93789 0.70799 0.15196 0.0
C359 C 0.96444 0.702 0.13992 0.0
C360 C 0.95731 0.67688 0.11231 0.0
C361 C 0.92451 0.6586 0.09654 0.0
C362 C 0.99943 0.72162 0.15657 0.0
C363 C 1.01353 0.70334 0.17408 0.0
C364 C 0.01799 0.75811 0.15722 0.0
C365 C 1.00552 0.77901 0.13747 0.0
C366 C 0.99759 0.77401 0.09887 0.0
C367 C 0.9855 0.79351 0.08052 0.0
C368 C 0.98144 0.81827 0.10039 0.0
C369 C 0.98955 0.82363 0.13866 0.0
C370 C 1.00162 0.80417 0.15716 0.0
C371 C 0.1504 0.78591 0.23922 0.0
C372 C 0.15045 0.80713 0.26859 0.0
C373 C 0.12286 0.77087 0.214 0.0
C374 C 0.09476 0.77655 0.21789 0.0
C375 C 0.09611 0.79967 0.2455 0.0
C376 C 0.12357 0.81476 0.2705 0.0
C377 C 0.06286 0.75697 0.19527 0.0
C378 C 0.04929 0.77523 0.17663 0.0
C379 C 0.04468 0.72045 0.19379 0.0
C380 C 0.05626 0.6993 0.21453 0.0
C381 C 0.05992 0.70185 0.25395 0.0
C382 C 0.07087 0.68184 0.2733 0.0
C383 C 0.07788 0.65893 0.25359 0.0
C384 C 0.07414 0.6561 0.21445 0.0
C385 C 0.06324 0.67609 0.19495 0.0
H386 H 0.08625 0.64339 0.26865 0.0
H387 H 0.97206 0.83333 0.08613 0.0
H388 H 0.35076 0.09209 0.67373 0.0
H389 H 0.32017 0.0459 0.629 0.0
H390 H 0.36098 0.11874 0.53686 0.0
H391 H 0.39229 0.16593 0.58216 0.0
H392 H 0.28954 0.06574 0.5286 0.0
H393 H 0.39785 0.07426 0.5512 0.0
H394 H 0.44618 0.07981 0.58902 0.0
H395 H 0.3791 0.98352 0.64434 0.0
H396 H 0.33019 0.97767 0.60729 0.0
H397 H 0.24406 0.92342 0.40098 0.0
H398 H 0.27471 0.97814 0.43485 0.0
H399 H 0.24882 0.92286 0.54067 0.0
H400 H 0.21837 0.86812 0.50695 0.0
H401 H 0.31762 0.97157 0.53488 0.0
H402 H 0.20863 0.96583 0.51449 0.0
H403 H 0.16077 0.96085 0.47617 0.0
H404 H 0.23055 0.05246 0.4147 0.0
H405 H 0.27894 0.05772 0.45234 0.0
C406 C 0.35317 0.09861 0.64401 0.0
C407 C 0.37439 0.13279 0.63155 0.0
C408 C 0.33558 0.07201 0.61841 0.0
C409 C 0.33872 0.07867 0.57953 0.0
C410 C 0.35834 0.11299 0.56679 0.0
C411 C 0.37616 0.13992 0.59265 0.0
C412 C 0.32267 0.04908 0.55296 0.0
C413 C 0.29613 0.04547 0.52934 0.0
C414 C 0.33092 0.02234 0.55429 0.0
C415 C 0.36027 0.02567 0.57664 0.0
C416 C 0.39332 0.0544 0.57165 0.0
C417 C 0.42084 0.05758 0.59292 0.0
C418 C 0.4157 0.03206 0.61911 0.0
C419 C 0.38303 1.00328 0.62405 0.0
C420 C 0.35541 1.00001 0.6029 0.0
C421 C 0.24483 0.92293 0.43147 0.0
C422 C 0.22874 0.89133 0.45123 0.0
C423 C 0.26218 0.95426 0.45082 0.0
C424 C 0.264 0.9547 0.49036 0.0
C425 C 0.24773 0.92322 0.51017 0.0
C426 C 0.23009 0.89191 0.49087 0.0
C427 C 0.28388 0.98775 0.51115 0.0
C428 C 0.31124 0.99199 0.53373 0.0
C429 C 0.27652 0.01507 0.50854 0.0
C430 C 0.24747 0.01193 0.48592 0.0
C431 C 0.21383 0.98473 0.49256 0.0
C432 C 0.18659 0.9819 0.47102 0.0
C433 C 0.19263 1.00626 0.44294 0.0
C434 C 0.22592 0.03357 0.43642 0.0
C435 C 0.25325 0.0365 0.45786 0.0
H436 H 0.17151 1.00403 0.4263 0.0
H437 H 0.43704 0.03456 0.63553 0.0
H438 H 0.19915 0.6529 0.3243 0.0
H439 H 0.19965 0.61594 0.27378 0.0
H440 H 0.1524 0.65623 0.19909 0.0
H441 H 0.15416 0.69488 0.24901 0.0
H442 H 0.15971 0.5667 0.23391 0.0
H443 H 0.17644 0.65769 0.10907 0.0
H444 H 0.20019 0.71981 0.09655 0.0
H445 H 0.2685 0.74437 0.19012 0.0
H446 H 0.24545 0.68246 0.20287 0.0
H447 H 0.17056 0.4762 0.07547 0.0
H448 H 0.14992 0.50919 0.11224 0.0
H449 H 0.25234 0.59737 0.10997 0.0
H450 H 0.27252 0.56485 0.07311 0.0
H451 H 0.20995 0.62003 0.10974 0.0
H452 H 0.22387 0.53821 0.18224 0.0
H453 H 0.21474 0.48137 0.20199 0.0
H454 H 0.10777 0.4462 0.22259 0.0
H455 H 0.11615 0.50278 0.20231 0.0
C456 C 0.18859 0.6536 0.2972 0.0
C457 C 0.17677 0.67691 0.29057 0.0
C458 C 0.18881 0.63238 0.26823 0.0
C459 C 0.17666 0.63352 0.23207 0.0
C460 C 0.16292 0.65541 0.22618 0.0
C461 C 0.16366 0.67735 0.25483 0.0
C462 C 0.18006 0.61312 0.20041 0.0
C463 C 0.17036 0.57837 0.20666 0.0
C464 C 0.19466 0.6282 0.16486 0.0
C465 C 0.20889 0.66548 0.15719 0.0
C466 C 0.19657 0.67638 0.12689 0.0
C467 C 0.20991 0.71153 0.11977 0.0
C468 C 0.23573 0.73602 0.14262 0.0
C469 C 0.2484 0.72539 0.17254 0.0
C470 C 0.23519 0.69028 0.17974 0.0
C471 C 0.18815 0.50311 0.08137 0.0
C472 C 0.22306 0.51813 0.07117 0.0
C473 C 0.17652 0.52182 0.1029 0.0
C474 C 0.19969 0.55569 0.11459 0.0
C475 C 0.23385 0.57141 0.10147 0.0
C476 C 0.2454 0.5528 0.08022 0.0
C477 C 0.18998 0.57384 0.14345 0.0
C478 C 0.19846 0.60816 0.13668 0.0
C479 C 0.17606 0.55895 0.17922 0.0
C480 C 0.17054 0.52456 0.19031 0.0
C481 C 0.19831 0.51823 0.19056 0.0
C482 C 0.19331 0.48613 0.20195 0.0
C483 C 0.16074 0.46028 0.21363 0.0
C484 C 0.133 0.46633 0.2136 0.0
C485 C 0.13784 0.49839 0.2021 0.0
H486 H 0.15709 0.43559 0.22275 0.0
H487 H 0.24599 0.76321 0.13708 0.0
H488 H 0.58016 0.20076 0.68973 0.0
H489 H 0.62459 0.20481 0.64603 0.0
H490 H 0.5642 0.20434 0.55187 0.0
H491 H 0.51921 0.19906 0.59522 0.0
H492 H 0.5905 0.16417 0.53716 0.0
H493 H 0.63532 0.27951 0.58382 0.0
H494 H 0.65338 0.32436 0.6326 0.0
H495 H 0.72834 0.29901 0.67232 0.0
H496 H 0.7104 0.25366 0.62407 0.0
H497 H 0.71758 0.22434 0.39292 0.0
H498 H 0.67554 0.22095 0.43967 0.0
H499 H 0.73769 0.21627 0.52901 0.0
H500 H 0.78006 0.21984 0.48236 0.0
H501 H 0.71157 0.25811 0.54775 0.0
H502 H 0.66776 0.1438 0.50041 0.0
H503 H 0.64998 0.09901 0.45161 0.0
H504 H 0.57317 0.12235 0.41339 0.0
H505 H 0.59084 0.16765 0.46164 0.0
C506 C 0.5761 0.20118 0.65975 0.0
C507 C 0.54599 0.1998 0.64621 0.0
C508 C 0.60179 0.20387 0.63471 0.0
C509 C 0.59814 0.20543 0.59551 0.0
C510 C 0.56784 0.20339 0.58192 0.0
C511 C 0.54217 0.20067 0.60689 0.0
C512 C 0.62565 0.20904 0.56854 0.0
C513 C 0.61686 0.185 0.53927 0.0
C514 C 0.66037 0.23564 0.57165 0.0
C515 C 0.67127 0.26296 0.60059 0.0
C516 C 0.65547 0.28332 0.60315 0.0
C517 C 0.66572 0.30886 0.63066 0.0
C518 C 0.69192 0.31447 0.65561 0.0
C519 C 0.70801 0.2946 0.65302 0.0
C520 C 0.69783 0.26899 0.62557 0.0
C521 C 0.72254 0.22287 0.42251 0.0
C522 C 0.75225 0.22222 0.43376 0.0
C523 C 0.69832 0.22075 0.44926 0.0
C524 C 0.70311 0.21785 0.48793 0.0
C525 C 0.7333 0.21838 0.49937 0.0
C526 C 0.75751 0.22037 0.47261 0.0
C527 C 0.67626 0.21348 0.51621 0.0
C528 C 0.68519 0.23729 0.54573 0.0
C529 C 0.64165 0.18666 0.51336 0.0
C530 C 0.63085 0.15934 0.48441 0.0
C531 C 0.64726 0.13957 0.48141 0.0
C532 C 0.63717 0.11406 0.45388 0.0
C533 C 0.61052 0.10789 0.42935 0.0
C534 C 0.59384 0.12718 0.43238 0.0
C535 C 0.60387 0.15276 0.45983 0.0
H536 H 0.60274 0.08813 0.40806 0.0
H537 H 0.69982 0.33425 0.67689 0.0
H538 H 0.48135 0.73718 0.76629 0.0
H539 H 0.45203 0.68842 0.8091 0.0
H540 H 0.49135 0.6328 0.74609 0.0
H541 H 0.52228 0.68264 0.70312 0.0
H542 H 0.41028 0.5979 0.78066 0.0
H543 H 0.53281 0.65927 0.8063 0.0
H544 H 0.58735 0.71355 0.81435 0.0
H545 H 0.54501 0.73846 0.91046 0.0
H546 H 0.48952 0.68527 0.90168 0.0
H547 H 0.35098 0.48173 0.93561 0.0
H548 H 0.38581 0.51546 0.88135 0.0
H549 H 0.41876 0.60911 0.94457 0.0
H550 H 0.38585 0.57495 0.99951 0.0
H551 H 0.46866 0.61945 0.90404 0.0
H552 H 0.34902 0.57329 0.87524 0.0
H553 H 0.28877 0.52771 0.86658 0.0
H554 H 0.32046 0.4817 0.78021 0.0
H555 H 0.38098 0.52682 0.7887 0.0
C556 C 0.48355 0.71449 0.76094 0.0
C557 C 0.50467 0.71408 0.73149 0.0
C558 C 0.4666 0.68656 0.78552 0.0
C559 C 0.46989 0.65726 0.78107 0.0
C560 C 0.48864 0.65535 0.74999 0.0
C561 C 0.5062 0.68376 0.72544 0.0
C562 C 0.45619 0.63066 0.81135 0.0
C563 C 0.42336 0.60192 0.80735 0.0
C564 C 0.47274 0.63702 0.84665 0.0
C565 C 0.50669 0.66837 0.85293 0.0
C566 C 0.53481 0.67661 0.82868 0.0
C567 C 0.56592 0.70728 0.83331 0.0
C568 C 0.5696 0.72951 0.86281 0.0
C569 C 0.54211 0.72122 0.88758 0.0
C570 C 0.51076 0.69088 0.88266 0.0
C571 C 0.36612 0.50951 0.93788 0.0
C572 C 0.36574 0.52582 0.97159 0.0
C573 C 0.3858 0.52887 0.90678 0.0
C574 C 0.40438 0.56513 0.90815 0.0
C575 C 0.40478 0.58128 0.94243 0.0
C576 C 0.38593 0.56181 0.97389 0.0
C577 C 0.42221 0.58639 0.87379 0.0
C578 C 0.45578 0.61452 0.87714 0.0
C579 C 0.40586 0.58017 0.8382 0.0
C580 C 0.36952 0.55315 0.83292 0.0
C581 C 0.34314 0.55332 0.85457 0.0
C582 C 0.30895 0.52759 0.84968 0.0
C583 C 0.30081 0.50176 0.82295 0.0
C584 C 0.32682 0.50168 0.80096 0.0
C585 C 0.36106 0.52732 0.80579 0.0
H586 H 0.27433 0.48186 0.81921 0.0
H587 H 0.5938 0.75305 0.86661 0.0
H588 H 0.7746 0.47599 1.00622 0.0
H589 H 0.77102 0.42278 0.0303 0.0
H590 H 0.86507 0.48288 0.09125 0.0
H591 H 0.8682 0.53596 0.06789 0.0
H592 H 0.8543 0.41608 0.0618 0.0
H593 H 0.79867 0.46655 0.13588 0.0
H594 H 0.75928 0.48983 0.14289 0.0
H595 H 0.67474 0.39305 0.10765 0.0
H596 H 0.71384 0.36942 0.09971 0.0
H597 H 0.83568 0.30935 0.22025 0.0
H598 H 0.84613 0.35619 0.17693 0.0
H599 H 0.74057 0.2997 0.14131 0.0
H600 H 0.72959 0.25356 0.18549 0.0
H601 H 0.75664 0.36284 0.15295 0.0
H602 H 0.80932 0.30914 0.08542 0.0
H603 H 0.84777 0.28552 0.073 0.0
H604 H 0.93585 0.38525 0.09097 0.0
H605 H 0.89793 0.40936 0.10436 0.0
C606 C 0.79542 0.47772 0.0231 0.0
C607 C 0.82205 0.50997 0.03464 0.0
C608 C 0.79319 0.44735 0.03718 0.0
C609 C 0.81767 0.44888 0.0628 0.0
C610 C 0.84605 0.48106 0.07136 0.0
C611 C 0.84795 0.51138 0.05782 0.0
C612 C 0.81092 0.41799 0.08532 0.0
C613 C 0.83313 0.40446 0.08193 0.0
C614 C 0.78289 0.4025 0.11105 0.0
C615 C 0.75922 0.41636 0.11679 0.0
C616 C 0.77173 0.45032 0.12937 0.0
C617 C 0.74946 0.46357 0.13352 0.0
C618 C 0.71454 0.44296 0.12561 0.0
C619 C 0.70181 0.409 0.11368 0.0
C620 C 0.72401 0.39567 0.10935 0.0
C621 C 0.81459 0.3069 0.2034 0.0
C622 C 0.78172 0.27746 0.20663 0.0
C623 C 0.82074 0.33361 0.17819 0.0
C624 C 0.79425 0.33148 0.15538 0.0
C625 C 0.76152 0.30206 0.15843 0.0
C626 C 0.75533 0.27544 0.18363 0.0
C627 C 0.80005 0.36045 0.12966 0.0
C628 C 0.77771 0.37395 0.13264 0.0
C629 C 0.82781 0.37559 0.10334 0.0
C630 C 0.85072 0.361 0.09628 0.0
C631 C 0.83687 0.32597 0.08719 0.0
C632 C 0.85858 0.31251 0.07987 0.0
C633 C 0.89422 0.33388 0.08115 0.0
C634 C 0.90823 0.36874 0.08992 0.0
C635 C 0.88664 0.38231 0.09745 0.0
H636 H 0.91099 0.32342 0.07541 0.0
H637 H 0.69734 0.45327 0.12882 0.0
H638 H 0.3247 0.80164 0.35992 0.0
H639 H 0.37598 0.81335 0.39608 0.0
H640 H 0.35156 0.86951 0.47803 0.0
H641 H 0.30073 0.85791 0.44204 0.0
H642 H 0.42122 0.8978 0.46968 0.0
H643 H 0.32149 0.78494 0.48983 0.0
H644 H 0.2753 0.728 0.46938 0.0
H645 H 0.35055 0.70359 0.42642 0.0
H646 H 0.39719 0.76064 0.44614 0.0
H647 H 0.4932 0.87599 0.63895 0.0
H648 H 0.45618 0.87797 0.58987 0.0
H649 H 0.47561 0.80977 0.52105 0.0
H650 H 0.51248 0.80781 0.5696 0.0
H651 H 0.41188 0.78939 0.51825 0.0
H652 H 0.5121 0.90069 0.50156 0.0
H653 H 0.5586 0.95766 0.52152 0.0
H654 H 0.48378 0.98557 0.55683 0.0
H655 H 0.43691 0.92849 0.5376 0.0
C656 C 0.33126 0.81775 0.38473 0.0
C657 C 0.30911 0.8292 0.39809 0.0
C658 C 0.36028 0.82411 0.40563 0.0
C659 C 0.36734 0.84188 0.44015 0.0
C660 C 0.34675 0.8558 0.45158 0.0
C661 C 0.31776 0.84925 0.43094 0.0
C662 C 0.39314 0.84242 0.46677 0.0
C663 C 0.4192 0.87413 0.48037 0.0
C664 C 0.39078 0.81158 0.48053 0.0
C665 C 0.36279 0.77717 0.46906 0.0
C666 C 0.32817 0.76751 0.47579 0.0
C667 C 0.30191 0.73522 0.46436 0.0
C668 C 0.30999 0.71223 0.44651 0.0
C669 C 0.34434 0.72145 0.44018 0.0
C670 C 0.37069 0.75375 0.45147 0.0
C671 C 0.48987 0.86172 0.6132 0.0
C672 C 0.50578 0.8416 0.60854 0.0
C673 C 0.46875 0.86296 0.585 0.0
C674 C 0.46342 0.84448 0.55124 0.0
C675 C 0.47922 0.82433 0.54668 0.0
C676 C 0.50022 0.82304 0.57477 0.0
C677 C 0.4404 0.84487 0.52121 0.0
C678 C 0.4145 0.81322 0.5072 0.0
C679 C 0.44305 0.8758 0.50706 0.0
C680 C 0.47108 0.91019 0.51855 0.0
C681 C 0.50564 0.91888 0.51392 0.0
C682 C 0.53204 0.9512 0.52503 0.0
C683 C 0.52415 0.9752 0.54055 0.0
C684 C 0.48985 0.96694 0.54487 0.0
C685 C 0.46337 0.9346 0.53384 0.0
H686 H 0.54461 1.00023 0.54913 0.0
H687 H 0.28963 0.68725 0.43768 0.0
H688 H 0.46301 0.30545 0.7786 0.0
H689 H 0.49969 0.35637 0.81595 0.0
H690 H 0.58341 0.38348 0.73739 0.0
H691 H 0.54676 0.3317 0.70041 0.0
H692 H 0.60046 0.37679 0.80719 0.0
H693 H 0.54709 0.43475 0.75162 0.0
H694 H 0.49977 0.44368 0.731 0.0
H695 H 0.46682 0.43897 0.84605 0.0
H696 H 0.51352 0.42933 0.86739 0.0
H697 H 0.71855 0.52033 0.9098 0.0
H698 H 0.67947 0.48591 0.86041 0.0
H699 H 0.59384 0.44998 0.93823 0.0
H700 H 0.63311 0.4855 0.98826 0.0
H701 H 0.57883 0.46504 0.86591 0.0
H702 H 0.62592 0.39955 0.92021 0.0
H703 H 0.6721 0.38935 0.94233 0.0
H704 H 0.71514 0.40736 0.83032 0.0
H705 H 0.66949 0.41822 0.80763 0.0
C706 C 0.48868 0.32331 0.76821 0.0
C707 C 0.50187 0.31519 0.73615 0.0
C708 C 0.50967 0.3524 0.78967 0.0
C709 C 0.54426 0.37403 0.77944 0.0
C710 C 0.55674 0.36731 0.74575 0.0
C711 C 0.5357 0.33804 0.72428 0.0
C712 C 0.56825 0.39997 0.80682 0.0
C713 C 0.59608 0.39659 0.81931 0.0
C714 C 0.56184 0.42496 0.82388 0.0
C715 C 0.53364 0.4308 0.8111 0.0
C716 C 0.52954 0.43518 0.77254 0.0
C717 C 0.50285 0.44048 0.76071 0.0
C718 C 0.48023 0.44178 0.78718 0.0
C719 C 0.48436 0.43796 0.82556 0.0
C720 C 0.51095 0.43256 0.83753 0.0
C721 C 0.69141 0.50579 0.91657 0.0
C722 C 0.67907 0.50592 0.95327 0.0
C723 C 0.66905 0.48579 0.88816 0.0
C724 C 0.63376 0.46512 0.89561 0.0
C725 C 0.62102 0.46574 0.93184 0.0
C726 C 0.64351 0.48581 0.96048 0.0
C727 C 0.61076 0.44169 0.86591 0.0
C728 C 0.58318 0.44542 0.8533 0.0
C729 C 0.61709 0.41675 0.8488 0.0
C730 C 0.6445 0.41007 0.86231 0.0
C731 C 0.6454 0.40163 0.90035 0.0
C732 C 0.67145 0.39568 0.91299 0.0
C733 C 0.6966 0.3978 0.88777 0.0
C734 C 0.69568 0.40579 0.84984 0.0
C735 C 0.66971 0.41183 0.83707 0.0
H736 H 0.71674 0.39318 0.8976 0.0
H737 H 0.45957 0.44585 0.77796 0.0
loop_
_geom_bond_atom_site_label_1
_geom_bond_atom_site_label_2
_geom_bond_distance
_geom_bond_site_symmetry_2
_ccdc_geom_bond_type
Cu0 N1 1.999 . S
Cu0 O6 1.974 . S
Cu0 N11 1.985 1_556 S
Cu0 O20 1.959 1_556 S
N1 Cu0 1.999 . S
N1 C3 1.263 . S
N1 C5 1.389 . S
N2 C3 1.358 . S
N2 C4 1.400 . S
C3 N1 1.263 . S
C3 N2 1.358 . S
C3 H9 0.930 . S
C4 N2 1.400 . S
C4 C5 1.351 . S
C4 H21 0.930 . S
C5 N1 1.389 . S
C5 C4 1.351 . S
C5 H10 0.930 . S
O6 Cu0 1.974 . S
O6 C16 1.282 . S
C7 O8 1.261 . S
C7 O20 1.251 . S
O8 C7 1.261 . S
H9 C3 0.930 . S
H10 C5 0.930 . S
N11 Cu0 1.985 1_554 S
N11 C13 1.335 . S
N11 C14 1.390 . S
N12 C13 1.345 . S
N12 C15 1.336 . S
C13 N11 1.335 . S
C13 N12 1.345 . S
C13 H18 0.930 . S
C14 N11 1.390 . S
C14 C15 1.346 . S
C14 H19 0.930 . S
C15 N12 1.336 . S
C15 C14 1.346 . S
C15 H22 0.929 . S
C16 O6 1.282 . S
C16 O17 1.216 . S
O17 C16 1.216 . S
H18 C13 0.930 . S
H19 C14 0.930 . S
O20 Cu0 1.959 1_554 S
O20 C7 1.251 . S
H21 C4 0.930 . S
H22 C15 0.929 . S
Cu23 N24 1.999 . S
Cu23 O29 1.974 . S
Cu23 N34 1.985 . S
Cu23 O43 1.959 . S
N24 Cu23 1.999 . S
N24 C26 1.263 . S
N24 C28 1.389 . S
N25 C26 1.358 . S
N25 C27 1.400 . S
C26 N24 1.263 . S
C26 N25 1.358 . S
C26 H32 0.930 . S
C27 N25 1.400 . S
C27 C28 1.351 . S
C27 H44 0.930 . S
C28 N24 1.389 . S
C28 C27 1.351 . S
C28 H33 0.930 . S
O29 Cu23 1.974 . S
O29 C39 1.282 . S
C30 O31 1.261 . S
C30 O43 1.251 . S
O31 C30 1.261 . S
H32 C26 0.930 . S
H33 C28 0.930 . S
N34 Cu23 1.985 . S
N34 C36 1.335 . S
N34 C37 1.390 . S
N35 C36 1.345 . S
N35 C38 1.336 . S
C36 N34 1.335 . S
C36 N35 1.345 . S
C36 H41 0.930 . S
C37 N34 1.390 . S
C37 C38 1.346 . S
C37 H42 0.930 . S
C38 N35 1.336 . S
C38 C37 1.346 . S
C38 H45 0.929 . S
C39 O29 1.282 . S
C39 O40 1.216 . S
O40 C39 1.216 . S
H41 C36 0.930 . S
H42 C37 0.930 . S
O43 Cu23 1.959 . S
O43 C30 1.251 . S
H44 C27 0.930 . S
H45 C38 0.929 . S
Cu46 N47 1.999 . S
Cu46 O52 1.974 . S
Cu46 N57 1.985 . S
Cu46 O66 1.959 . S
N47 Cu46 1.999 . S
N47 C49 1.263 . S
N47 C51 1.389 . S
N48 C49 1.358 . S
N48 C50 1.400 . S
C49 N47 1.263 . S
C49 N48 1.358 . S
C49 H55 0.930 . S
C50 N48 1.400 . S
C50 C51 1.351 . S
C50 H67 0.930 . S
C51 N47 1.389 . S
C51 C50 1.351 . S
C51 H56 0.930 . S
O52 Cu46 1.974 . S
O52 C62 1.282 . S
C53 O54 1.261 . S
C53 O66 1.251 . S
O54 C53 1.261 . S
H55 C49 0.930 . S
H56 C51 0.930 . S
N57 Cu46 1.985 . S
N57 C59 1.335 . S
N57 C60 1.390 . S
N58 C59 1.345 . S
N58 C61 1.336 . S
C59 N57 1.335 . S
C59 N58 1.345 . S
C59 H64 0.930 . S
C60 N57 1.390 . S
C60 C61 1.346 . S
C60 H65 0.930 . S
C61 N58 1.336 . S
C61 C60 1.346 . S
C61 H68 0.929 . S
C62 O52 1.282 . S
C62 O63 1.216 . S
O63 C62 1.216 . S
H64 C59 0.930 . S
H65 C60 0.930 . S
O66 Cu46 1.959 . S
O66 C53 1.251 . S
H67 C50 0.930 . S
H68 C61 0.929 . S
Cu69 N70 1.999 . S
Cu69 O75 1.974 . S
Cu69 N80 1.985 1_556 S
Cu69 O89 1.959 1_556 S
N70 Cu69 1.999 . S
N70 C72 1.263 . S
N70 C74 1.389 . S
N71 C72 1.358 . S
N71 C73 1.400 . S
C72 N70 1.263 . S
C72 N71 1.358 . S
C72 H78 0.930 . S
C73 N71 1.400 . S
C73 C74 1.351 . S
C73 H90 0.930 . S
C74 N70 1.389 . S
C74 C73 1.351 . S
C74 H79 0.930 . S
O75 Cu69 1.974 . S
O75 C85 1.282 . S
C76 O77 1.261 . S
C76 O89 1.251 . S
O77 C76 1.261 . S
H78 C72 0.930 . S
H79 C74 0.930 . S
N80 Cu69 1.985 1_554 S
N80 C82 1.335 . S
N80 C83 1.390 . S
N81 C82 1.345 . S
N81 C84 1.336 . S
C82 N80 1.335 . S
C82 N81 1.345 . S
C82 H87 0.930 . S
C83 N80 1.390 . S
C83 C84 1.346 . S
C83 H88 0.930 . S
C84 N81 1.336 . S
C84 C83 1.346 . S
C84 H91 0.929 . S
C85 O75 1.282 . S
C85 O86 1.216 . S
O86 C85 1.216 . S
H87 C82 0.930 . S
H88 C83 0.930 . S
O89 Cu69 1.959 1_554 S
O89 C76 1.251 . S
H90 C73 0.930 . S
H91 C84 0.929 . S
Cu92 N93 1.999 . S
Cu92 O98 1.974 . S
Cu92 N103 1.985 . S
Cu92 O112 1.959 . S
N93 Cu92 1.999 . S
N93 C95 1.263 . S
N93 C97 1.389 . S
N94 C95 1.358 . S
N94 C96 1.400 . S
C95 N93 1.263 . S
C95 N94 1.358 . S
C95 H101 0.930 . S
C96 N94 1.400 . S
C96 C97 1.351 . S
C96 H113 0.930 . S
C97 N93 1.389 . S
C97 C96 1.351 . S
C97 H102 0.930 . S
O98 Cu92 1.974 . S
O98 C108 1.282 . S
C99 O100 1.261 . S
C99 O112 1.251 . S
O100 C99 1.261 . S
H101 C95 0.930 . S
H102 C97 0.930 . S
N103 Cu92 1.985 . S
N103 C105 1.335 . S
N103 C106 1.390 . S
N104 C105 1.345 . S
N104 C107 1.336 . S
C105 N103 1.335 . S
C105 N104 1.345 . S
C105 H110 0.930 . S
C106 N103 1.390 . S
C106 C107 1.346 . S
C106 H111 0.930 . S
C107 N104 1.336 . S
C107 C106 1.346 . S
C107 H114 0.929 . S
C108 O98 1.282 . S
C108 O109 1.216 . S
O109 C108 1.216 . S
H110 C105 0.930 . S
H111 C106 0.930 . S
O112 Cu92 1.959 . S
O112 C99 1.251 . S
H113 C96 0.930 . S
H114 C107 0.929 . S
Cu115 N116 1.999 . S
Cu115 O121 1.974 . S
Cu115 N126 1.985 . S
Cu115 O135 1.959 . S
N116 Cu115 1.999 . S
N116 C118 1.263 . S
N116 C120 1.389 . S
N117 C118 1.358 . S
N117 C119 1.400 . S
C118 N116 1.263 . S
C118 N117 1.358 . S
C118 H124 0.930 . S
C119 N117 1.400 . S
C119 C120 1.351 . S
C119 H136 0.930 . S
C120 N116 1.389 . S
C120 C119 1.351 . S
C120 H125 0.930 . S
O121 Cu115 1.974 . S
O121 C131 1.282 . S
C122 O123 1.261 . S
C122 O135 1.251 . S
O123 C122 1.261 . S
H124 C118 0.930 . S
H125 C120 0.930 . S
N126 Cu115 1.985 . S
N126 C128 1.335 . S
N126 C129 1.390 . S
N127 C128 1.345 . S
N127 C130 1.336 . S
C128 N126 1.335 . S
C128 N127 1.345 . S
C128 H133 0.930 . S
C129 N126 1.390 . S
C129 C130 1.346 . S
C129 H134 0.930 . S
C130 N127 1.336 . S
C130 C129 1.346 . S
C130 H137 0.929 . S
C131 O121 1.282 . S
C131 O132 1.216 . S
O132 C131 1.216 . S
H133 C128 0.930 . S
H134 C129 0.930 . S
O135 Cu115 1.959 . S
O135 C122 1.251 . S
H136 C119 0.930 . S
H137 C130 0.929 . S
H138 C156 0.951 . S
H139 C158 0.951 . S
H140 C160 0.950 . S
H141 C161 0.950 . S
H142 C163 0.950 . S
H143 C166 0.950 . S
H144 C167 0.950 . S
H145 C169 0.950 . S
H146 C170 0.950 . S
H147 C171 0.951 . S
H148 C173 0.951 . S
H149 C175 0.950 . S
H150 C176 0.950 . S
H151 C178 0.950 . S
H152 C181 0.950 . S
H153 C182 0.950 . S
H154 C184 0.950 . S
H155 C185 0.950 . S
C156 H138 0.951 . S
C156 C157 1.366 . S
C156 C158 1.388 . S
C157 C156 1.366 . S
C157 C161 1.385 . S
C158 H139 0.951 . S
C158 C156 1.388 . S
C158 C159 1.366 . S
C159 C158 1.366 . S
C159 C160 1.414 . S
C159 C162 1.499 . S
C160 H140 0.950 . S
C160 C159 1.414 . S
C160 C161 1.374 . S
C161 H141 0.950 . S
C161 C157 1.385 . S
C161 C160 1.374 . S
C162 C159 1.499 . S
C162 C163 1.373 . S
C162 C164 1.389 . S
C163 H142 0.950 . S
C163 C162 1.373 . S
C163 C179 1.377 . S
C164 C162 1.389 . S
C164 C165 1.524 . S
C164 C178 1.377 . S
C165 C164 1.524 . S
C165 C166 1.397 . S
C165 C170 1.363 . S
C166 H143 0.950 . S
C166 C165 1.397 . S
C166 C167 1.334 . S
C167 H144 0.950 . S
C167 C166 1.334 . S
C167 C168 1.287 . S
C168 C167 1.287 . S
C168 C169 1.524 . S
C168 H187 0.913 . S
C169 H145 0.950 . S
C169 C168 1.524 . S
C169 C170 1.415 . S
C170 H146 0.950 . S
C170 C165 1.363 . S
C170 C169 1.415 . S
C171 H147 0.951 . S
C171 C172 1.366 . S
C171 C173 1.388 . S
C172 C171 1.366 . S
C172 C176 1.385 . S
C173 H148 0.951 . S
C173 C171 1.388 . S
C173 C174 1.366 . S
C174 C173 1.366 . S
C174 C175 1.414 . S
C174 C177 1.499 . S
C175 H149 0.950 . S
C175 C174 1.414 . S
C175 C176 1.374 . S
C176 H150 0.950 . S
C176 C172 1.385 . S
C176 C175 1.374 . S
C177 C174 1.499 . S
C177 C178 1.373 . S
C177 C179 1.389 . S
C178 H151 0.950 . S
C178 C164 1.377 . S
C178 C177 1.373 . S
C179 C163 1.377 . S
C179 C177 1.389 . S
C179 C180 1.524 . S
C180 C179 1.524 . S
C180 C181 1.397 . S
C180 C185 1.363 . S
C181 H152 0.950 . S
C181 C180 1.397 . S
C181 C182 1.334 . S
C182 H153 0.950 . S
C182 C181 1.334 . S
C182 C183 1.287 . S
C183 C182 1.287 . S
C183 C184 1.524 . S
C183 H186 0.999 . S
C184 H154 0.950 . S
C184 C183 1.524 . S
C184 C185 1.415 . S
C185 H155 0.950 . S
C185 C180 1.363 . S
C185 C184 1.415 . S
H186 C183 0.999 . S
H187 C168 0.913 . S
H188 C206 0.951 . S
H189 C208 0.951 . S
H190 C210 0.950 . S
H191 C211 0.950 . S
H192 C213 0.950 . S
H193 C216 0.950 . S
H194 C217 0.950 . S
H195 C219 0.950 . S
H196 C220 0.950 . S
H197 C221 0.951 . S
H198 C223 0.951 . S
H199 C225 0.950 . S
H200 C226 0.950 . S
H201 C228 0.950 . S
H202 C231 0.950 . S
H203 C232 0.950 . S
H204 C234 0.950 . S
H205 C235 0.950 . S
C206 H188 0.951 . S
C206 C207 1.366 . S
C206 C208 1.388 . S
C207 C206 1.366 . S
C207 C211 1.385 . S
C208 H189 0.951 . S
C208 C206 1.388 . S
C208 C209 1.366 . S
C209 C208 1.366 . S
C209 C210 1.414 . S
C209 C212 1.499 . S
C210 H190 0.950 . S
C210 C209 1.414 . S
C210 C211 1.374 . S
C211 H191 0.950 . S
C211 C207 1.385 . S
C211 C210 1.374 . S
C212 C209 1.499 . S
C212 C213 1.373 . S
C212 C214 1.389 . S
C213 H192 0.950 . S
C213 C212 1.373 . S
C213 C229 1.377 1_655 S
C214 C212 1.389 . S
C214 C215 1.524 . S
C214 C228 1.377 . S
C215 C214 1.524 . S
C215 C216 1.397 . S
C215 C220 1.363 . S
C216 H193 0.950 . S
C216 C215 1.397 . S
C216 C217 1.334 . S
C217 H194 0.950 . S
C217 C216 1.334 . S
C217 C218 1.287 . S
C218 C217 1.287 . S
C218 C219 1.524 . S
C218 H237 0.913 . S
C219 H195 0.950 . S
C219 C218 1.524 . S
C219 C220 1.415 . S
C220 H196 0.950 . S
C220 C215 1.363 . S
C220 C219 1.415 . S
C221 H197 0.951 . S
C221 C222 1.366 . S
C221 C223 1.388 . S
C222 C221 1.366 . S
C222 C226 1.385 . S
C223 H198 0.951 . S
C223 C221 1.388 . S
C223 C224 1.366 . S
C224 C223 1.366 . S
C224 C225 1.414 . S
C224 C227 1.499 . S
C225 H199 0.950 . S
C225 C224 1.414 . S
C225 C226 1.374 . S
C226 H200 0.950 . S
C226 C222 1.385 . S
C226 C225 1.374 . S
C227 C224 1.499 . S
C227 C228 1.373 1_455 S
C227 C229 1.389 . S
C228 H201 0.950 . S
C228 C214 1.377 . S
C228 C227 1.373 1_655 S
C229 C213 1.377 1_455 S
C229 C227 1.389 . S
C229 C230 1.524 . S
C230 C229 1.524 . S
C230 C231 1.397 . S
C230 C235 1.363 . S
C231 H202 0.950 . S
C231 C230 1.397 . S
C231 C232 1.334 . S
C232 H203 0.950 . S
C232 C231 1.334 . S
C232 C233 1.287 . S
C233 C232 1.287 . S
C233 C234 1.524 . S
C233 H236 0.999 . S
C234 H204 0.950 . S
C234 C233 1.524 . S
C234 C235 1.415 . S
C235 H205 0.950 . S
C235 C230 1.363 . S
C235 C234 1.415 . S
H236 C233 0.999 . S
H237 C218 0.913 . S
H238 C256 0.951 . S
H239 C258 0.951 . S
H240 C260 0.950 . S
H241 C261 0.950 . S
H242 C263 0.950 . S
H243 C266 0.950 . S
H244 C267 0.950 . S
H245 C269 0.950 . S
H246 C270 0.950 . S
H247 C271 0.951 . S
H248 C273 0.951 . S
H249 C275 0.950 . S
H250 C276 0.950 . S
H251 C278 0.950 . S
H252 C281 0.950 . S
H253 C282 0.950 . S
H254 C284 0.950 . S
H255 C285 0.950 . S
C256 H238 0.951 . S
C256 C257 1.366 . S
C256 C258 1.388 . S
C257 C256 1.366 . S
C257 C261 1.385 . S
C258 H239 0.951 . S
C258 C256 1.388 . S
C258 C259 1.366 . S
C259 C258 1.366 . S
C259 C260 1.414 . S
C259 C262 1.499 . S
C260 H240 0.950 . S
C260 C259 1.414 . S
C260 C261 1.374 . S
C261 H241 0.950 . S
C261 C257 1.385 . S
C261 C260 1.374 . S
C262 C259 1.499 . S
C262 C263 1.373 1_545 S
C262 C264 1.389 . S
C263 H242 0.950 . S
C263 C262 1.373 1_565 S
C263 C279 1.377 . S
C264 C262 1.389 . S
C264 C265 1.524 . S
C264 C278 1.377 1_545 S
C265 C264 1.524 . S
C265 C266 1.397 . S
C265 C270 1.363 . S
C266 H243 0.950 . S
C266 C265 1.397 . S
C266 C267 1.334 . S
C267 H244 0.950 . S
C267 C266 1.334 . S
C267 C268 1.287 . S
C268 C267 1.287 . S
C268 C269 1.524 . S
C268 H287 0.913 . S
C269 H245 0.950 . S
C269 C268 1.524 . S
C269 C270 1.415 . S
C270 H246 0.950 . S
C270 C265 1.363 . S
C270 C269 1.415 . S
C271 H247 0.951 . S
C271 C272 1.366 . S
C271 C273 1.388 . S
C272 C271 1.366 . S
C272 C276 1.385 . S
C273 H248 0.951 . S
C273 C271 1.388 . S
C273 C274 1.366 . S
C274 C273 1.366 . S
C274 C275 1.414 . S
C274 C277 1.499 . S
C275 H249 0.950 . S
C275 C274 1.414 . S
C275 C276 1.374 . S
C276 H250 0.950 . S
C276 C272 1.385 . S
C276 C275 1.374 . S
C277 C274 1.499 . S
C277 C278 1.373 . S
C277 C279 1.389 . S
C278 H251 0.950 . S
C278 C264 1.377 1_565 S
C278 C277 1.373 . S
C279 C263 1.377 . S
C279 C277 1.389 . S
C279 C280 1.524 . S
C280 C279 1.524 . S
C280 C281 1.397 . S
C280 C285 1.363 . S
C281 H252 0.950 . S
C281 C280 1.397 . S
C281 C282 1.334 . S
C282 H253 0.950 . S
C282 C281 1.334 . S
C282 C283 1.287 . S
C283 C282 1.287 . S
C283 C284 1.524 . S
C283 H286 0.999 . S
C284 H254 0.950 . S
C284 C283 1.524 . S
C284 C285 1.415 . S
C285 H255 0.950 . S
C285 C280 1.363 . S
C285 C284 1.415 . S
H286 C283 0.999 . S
H287 C268 0.913 . S
H288 C306 0.951 . S
H289 C308 0.951 . S
H290 C310 0.950 . S
H291 C311 0.950 . S
H292 C313 0.950 . S
H293 C316 0.950 . S
H294 C317 0.950 . S
H295 C319 0.950 . S
H296 C320 0.950 . S
H297 C321 0.951 . S
H298 C323 0.951 . S
H299 C325 0.950 . S
H300 C326 0.950 . S
H301 C328 0.950 . S
H302 C331 0.950 . S
H303 C332 0.950 . S
H304 C334 0.950 . S
H305 C335 0.950 . S
C306 H288 0.951 . S
C306 C307 1.366 . S
C306 C308 1.388 . S
C307 C306 1.366 . S
C307 C311 1.385 . S
C308 H289 0.951 . S
C308 C306 1.388 . S
C308 C309 1.366 . S
C309 C308 1.366 . S
C309 C310 1.414 . S
C309 C312 1.499 . S
C310 H290 0.950 . S
C310 C309 1.414 . S
C310 C311 1.374 . S
C311 H291 0.950 . S
C311 C307 1.385 . S
C311 C310 1.374 . S
C312 C309 1.499 . S
C312 C313 1.373 . S
C312 C314 1.389 . S
C313 H292 0.950 . S
C313 C312 1.373 . S
C313 C329 1.377 . S
C314 C312 1.389 . S
C314 C315 1.524 . S
C314 C328 1.377 . S
C315 C314 1.524 . S
C315 C316 1.397 . S
C315 C320 1.363 . S
C316 H293 0.950 . S
C316 C315 1.397 . S
C316 C317 1.334 . S
C317 H294 0.950 . S
C317 C316 1.334 . S
C317 C318 1.287 . S
C318 C317 1.287 . S
C318 C319 1.524 . S
C318 H337 0.913 . S
C319 H295 0.950 . S
C319 C318 1.524 . S
C319 C320 1.415 . S
C320 H296 0.950 . S
C320 C315 1.363 . S
C320 C319 1.415 . S
C321 H297 0.951 . S
C321 C322 1.366 . S
C321 C323 1.388 . S
C322 C321 1.366 . S
C322 C326 1.385 . S
C323 H298 0.951 . S
C323 C321 1.388 . S
C323 C324 1.366 . S
C324 C323 1.366 . S
C324 C325 1.414 . S
C324 C327 1.499 . S
C325 H299 0.950 . S
C325 C324 1.414 . S
C325 C326 1.374 . S
C326 H300 0.950 . S
C326 C322 1.385 . S
C326 C325 1.374 . S
C327 C324 1.499 . S
C327 C328 1.373 . S
C327 C329 1.389 . S
C328 H301 0.950 . S
C328 C314 1.377 . S
C328 C327 1.373 . S
C329 C313 1.377 . S
C329 C327 1.389 . S
C329 C330 1.524 . S
C330 C329 1.524 . S
C330 C331 1.397 . S
C330 C335 1.363 . S
C331 H302 0.950 . S
C331 C330 1.397 . S
C331 C332 1.334 . S
C332 H303 0.950 . S
C332 C331 1.334 . S
C332 C333 1.287 . S
C333 C332 1.287 . S
C333 C334 1.524 . S
C333 H336 0.999 . S
C334 H304 0.950 . S
C334 C333 1.524 . S
C334 C335 1.415 . S
C335 H305 0.950 . S
C335 C330 1.363 . S
C335 C334 1.415 . S
H336 C333 0.999 . S
H337 C318 0.913 . S
H338 C356 0.951 . S
H339 C358 0.951 . S
H340 C360 0.950 . S
H341 C361 0.950 . S
H342 C363 0.950 . S
H343 C366 0.950 . S
H344 C367 0.950 . S
H345 C369 0.950 . S
H346 C370 0.950 . S
H347 C371 0.951 . S
H348 C373 0.951 . S
H349 C375 0.950 . S
H350 C376 0.950 . S
H351 C378 0.950 . S
H352 C381 0.950 . S
H353 C382 0.953 1_455 S
H354 C384 0.950 . S
H355 C385 0.950 . S
C356 H338 0.951 . S
C356 C357 1.366 . S
C356 C358 1.388 . S
C357 C356 1.366 . S
C357 C361 1.385 . S
C358 H339 0.951 . S
C358 C356 1.388 . S
C358 C359 1.366 . S
C359 C358 1.366 . S
C359 C360 1.414 . S
C359 C362 1.499 . S
C360 H340 0.950 . S
C360 C359 1.414 . S
C360 C361 1.374 . S
C361 H341 0.950 . S
C361 C357 1.385 . S
C361 C360 1.374 . S
C362 C359 1.499 . S
C362 C363 1.373 . S
C362 C364 1.389 1_655 S
C363 H342 0.950 . S
C363 C362 1.373 . S
C363 C379 1.377 1_655 S
C364 C362 1.389 1_455 S
C364 C365 1.524 . S
C364 C378 1.377 . S
C365 C364 1.524 . S
C365 C366 1.397 . S
C365 C370 1.363 . S
C366 H343 0.950 . S
C366 C365 1.397 . S
C366 C367 1.334 . S
C367 H344 0.950 . S
C367 C366 1.334 . S
C367 C368 1.287 . S
C368 C367 1.287 . S
C368 C369 1.524 . S
C368 H387 0.913 . S
C369 H345 0.950 . S
C369 C368 1.524 . S
C369 C370 1.415 . S
C370 H346 0.950 . S
C370 C365 1.363 . S
C370 C369 1.415 . S
C371 H347 0.951 . S
C371 C372 1.366 . S
C371 C373 1.388 . S
C372 C371 1.366 . S
C372 C376 1.385 . S
C373 H348 0.951 . S
C373 C371 1.388 . S
C373 C374 1.366 . S
C374 C373 1.366 . S
C374 C375 1.414 . S
C374 C377 1.499 . S
C375 H349 0.950 . S
C375 C374 1.414 . S
C375 C376 1.374 . S
C376 H350 0.950 . S
C376 C372 1.385 . S
C376 C375 1.374 . S
C377 C374 1.499 . S
C377 C378 1.373 . S
C377 C379 1.389 . S
C378 H351 0.950 . S
C378 C364 1.377 . S
C378 C377 1.373 . S
C379 C363 1.377 1_455 S
C379 C377 1.389 . S
C379 C380 1.520 1_455 S
C380 C379 1.520 1_655 S
C380 C381 1.403 1_655 S
C380 C385 1.365 . S
C381 H352 0.950 . S
C381 C380 1.403 1_455 S
C381 C382 1.330 1_455 S
C382 H353 0.953 1_655 S
C382 C381 1.330 1_655 S
C382 C383 1.289 . S
C383 C382 1.289 . S
C383 C384 1.524 . S
C383 H386 0.999 . S
C384 H354 0.950 . S
C384 C383 1.524 . S
C384 C385 1.415 . S
C385 H355 0.950 . S
C385 C380 1.365 . S
C385 C384 1.415 . S
H386 C383 0.999 . S
H387 C368 0.913 . S
H388 C406 0.951 . S
H389 C408 0.951 . S
H390 C410 0.950 . S
H391 C411 0.950 . S
H392 C413 0.950 . S
H393 C416 0.950 . S
H394 C417 0.950 . S
H395 C419 0.950 . S
H396 C420 0.950 1_565 S
H397 C421 0.951 . S
H398 C423 0.951 . S
H399 C425 0.950 . S
H400 C426 0.950 . S
H401 C428 0.950 . S
H402 C431 0.950 . S
H403 C432 0.950 . S
H404 C434 0.950 1_545 S
H405 C435 0.950 . S
C406 H388 0.951 . S
C406 C407 1.366 . S
C406 C408 1.388 . S
C407 C406 1.366 . S
C407 C411 1.385 . S
C408 H389 0.951 . S
C408 C406 1.388 . S
C408 C409 1.366 . S
C409 C408 1.366 . S
C409 C410 1.414 . S
C409 C412 1.499 . S
C410 H390 0.950 . S
C410 C409 1.414 . S
C410 C411 1.374 . S
C411 H391 0.950 . S
C411 C407 1.385 . S
C411 C410 1.374 . S
C412 C409 1.499 . S
C412 C413 1.373 . S
C412 C414 1.389 . S
C413 H392 0.950 . S
C413 C412 1.373 . S
C413 C429 1.391 . S
C414 C412 1.389 . S
C414 C415 1.524 . S
C414 C428 1.377 1_545 S
C415 C414 1.524 . S
C415 C416 1.397 . S
C415 C420 1.363 . S
C416 H393 0.950 . S
C416 C415 1.397 . S
C416 C417 1.334 . S
C417 H394 0.950 . S
C417 C416 1.334 . S
C417 C418 1.287 . S
C418 C417 1.287 . S
C418 C419 1.524 . S
C418 H437 0.913 . S
C419 H395 0.950 . S
C419 C418 1.524 . S
C419 C420 1.415 . S
C420 H396 0.950 1_545 S
C420 C415 1.363 . S
C420 C419 1.415 . S
C421 H397 0.951 . S
C421 C422 1.366 . S
C421 C423 1.388 . S
C422 C421 1.366 . S
C422 C426 1.385 . S
C423 H398 0.951 . S
C423 C421 1.388 . S
C423 C424 1.366 . S
C424 C423 1.366 . S
C424 C425 1.414 . S
C424 C427 1.499 . S
C425 H399 0.950 . S
C425 C424 1.414 . S
C425 C426 1.374 . S
C426 H400 0.950 . S
C426 C422 1.385 . S
C426 C425 1.374 . S
C427 C424 1.499 . S
C427 C428 1.373 . S
C427 C429 1.373 1_565 S
C428 H401 0.950 . S
C428 C414 1.377 1_565 S
C428 C427 1.373 . S
C429 C413 1.391 . S
C429 C427 1.373 1_545 S
C429 C430 1.527 1_545 S
C430 C429 1.527 1_565 S
C430 C431 1.397 . S
C430 C435 1.363 1_565 S
C431 H402 0.950 . S
C431 C430 1.397 . S
C431 C432 1.334 . S
C432 H403 0.950 . S
C432 C431 1.334 . S
C432 C433 1.287 . S
C433 C432 1.287 . S
C433 C434 1.524 . S
C433 H436 0.999 . S
C434 H404 0.950 1_565 S
C434 C433 1.524 . S
C434 C435 1.415 1_565 S
C435 H405 0.950 . S
C435 C430 1.363 1_545 S
C435 C434 1.415 1_545 S
H436 C433 0.999 . S
H437 C418 0.913 . S
H438 C456 0.951 . S
H439 C458 0.951 . S
H440 C460 0.950 . S
H441 C461 0.950 . S
H442 C463 0.950 . S
H443 C466 0.950 . S
H444 C467 0.950 . S
H445 C469 0.950 . S
H446 C470 0.950 . S
H447 C471 0.951 . S
H448 C473 0.951 . S
H449 C475 0.950 . S
H450 C476 0.950 . S
H451 C478 0.950 . S
H452 C481 0.950 . S
H453 C482 0.950 . S
H454 C484 0.950 . S
H455 C485 0.950 . S
C456 H438 0.951 . S
C456 C457 1.366 . S
C456 C458 1.388 . S
C457 C456 1.366 . S
C457 C461 1.385 . S
C458 H439 0.951 . S
C458 C456 1.388 . S
C458 C459 1.366 . S
C459 C458 1.366 . S
C459 C460 1.414 . S
C459 C462 1.499 . S
C460 H440 0.950 . S
C460 C459 1.414 . S
C460 C461 1.374 . S
C461 H441 0.950 . S
C461 C457 1.385 . S
C461 C460 1.374 . S
C462 C459 1.499 . S
C462 C463 1.373 . S
C462 C464 1.389 . S
C463 H442 0.950 . S
C463 C462 1.373 . S
C463 C479 1.377 . S
C464 C462 1.389 . S
C464 C465 1.524 . S
C464 C478 1.377 . S
C465 C464 1.524 . S
C465 C466 1.397 . S
C465 C470 1.363 . S
C466 H443 0.950 . S
C466 C465 1.397 . S
C466 C467 1.334 . S
C467 H444 0.950 . S
C467 C466 1.334 . S
C467 C468 1.287 . S
C468 C467 1.287 . S
C468 C469 1.524 . S
C468 H487 0.913 . S
C469 H445 0.950 . S
C469 C468 1.524 . S
C469 C470 1.415 . S
C470 H446 0.950 . S
C470 C465 1.363 . S
C470 C469 1.415 . S
C471 H447 0.951 . S
C471 C472 1.366 . S
C471 C473 1.388 . S
C472 C471 1.366 . S
C472 C476 1.385 . S
C473 H448 0.951 . S
C473 C471 1.388 . S
C473 C474 1.366 . S
C474 C473 1.366 . S
C474 C475 1.414 . S
C474 C477 1.499 . S
C475 H449 0.950 . S
C475 C474 1.414 . S
C475 C476 1.374 . S
C476 H450 0.950 . S
C476 C472 1.385 . S
C476 C475 1.374 . S
C477 C474 1.499 . S
C477 C478 1.373 . S
C477 C479 1.389 . S
C478 H451 0.950 . S
C478 C464 1.377 . S
C478 C477 1.373 . S
C479 C463 1.377 . S
C479 C477 1.389 . S
C479 C480 1.524 . S
C480 C479 1.524 . S
C480 C481 1.397 . S
C480 C485 1.363 . S
C481 H452 0.950 . S
C481 C480 1.397 . S
C481 C482 1.334 . S
C482 H453 0.950 . S
C482 C481 1.334 . S
C482 C483 1.287 . S
C483 C482 1.287 . S
C483 C484 1.524 . S
C483 H486 0.999 . S
C484 H454 0.950 . S
C484 C483 1.524 . S
C484 C485 1.415 . S
C485 H455 0.950 . S
C485 C480 1.363 . S
C485 C484 1.415 . S
H486 C483 0.999 . S
H487 C468 0.913 . S
H488 C506 0.951 . S
H489 C508 0.951 . S
H490 C510 0.950 . S
H491 C511 0.950 . S
H492 C513 0.950 . S
H493 C516 0.950 . S
H494 C517 0.950 . S
H495 C519 0.950 . S
H496 C520 0.950 . S
H497 C521 0.951 . S
H498 C523 0.951 . S
H499 C525 0.950 . S
H500 C526 0.950 . S
H501 C528 0.950 . S
H502 C531 0.950 . S
H503 C532 0.950 . S
H504 C534 0.950 . S
H505 C535 0.950 . S
C506 H488 0.951 . S
C506 C507 1.366 . S
C506 C508 1.388 . S
C507 C506 1.366 . S
C507 C511 1.385 . S
C508 H489 0.951 . S
C508 C506 1.388 . S
C508 C509 1.366 . S
C509 C508 1.366 . S
C509 C510 1.414 . S
C509 C512 1.499 . S
C510 H490 0.950 . S
C510 C509 1.414 . S
C510 C511 1.374 . S
C511 H491 0.950 . S
C511 C507 1.385 . S
C511 C510 1.374 . S
C512 C509 1.499 . S
C512 C513 1.373 . S
C512 C514 1.389 . S
C513 H492 0.950 . S
C513 C512 1.373 . S
C513 C529 1.377 . S
C514 C512 1.389 . S
C514 C515 1.524 . S
C514 C528 1.377 . S
C515 C514 1.524 . S
C515 C516 1.397 . S
C515 C520 1.363 . S
C516 H493 0.950 . S
C516 C515 1.397 . S
C516 C517 1.334 . S
C517 H494 0.950 . S
C517 C516 1.334 . S
C517 C518 1.287 . S
C518 C517 1.287 . S
C518 C519 1.524 . S
C518 H537 0.913 . S
C519 H495 0.950 . S
C519 C518 1.524 . S
C519 C520 1.415 . S
C520 H496 0.950 . S
C520 C515 1.363 . S
C520 C519 1.415 . S
C521 H497 0.951 . S
C521 C522 1.366 . S
C521 C523 1.388 . S
C522 C521 1.366 . S
C522 C526 1.385 . S
C523 H498 0.951 . S
C523 C521 1.388 . S
C523 C524 1.366 . S
C524 C523 1.366 . S
C524 C525 1.414 . S
C524 C527 1.499 . S
C525 H499 0.950 . S
C525 C524 1.414 . S
C525 C526 1.374 . S
C526 H500 0.950 . S
C526 C522 1.385 . S
C526 C525 1.374 . S
C527 C524 1.499 . S
C527 C528 1.373 . S
C527 C529 1.389 . S
C528 H501 0.950 . S
C528 C514 1.377 . S
C528 C527 1.373 . S
C529 C513 1.377 . S
C529 C527 1.389 . S
C529 C530 1.524 . S
C530 C529 1.524 . S
C530 C531 1.397 . S
C530 C535 1.363 . S
C531 H502 0.950 . S
C531 C530 1.397 . S
C531 C532 1.334 . S
C532 H503 0.950 . S
C532 C531 1.334 . S
C532 C533 1.287 . S
C533 C532 1.287 . S
C533 C534 1.524 . S
C533 H536 0.999 . S
C534 H504 0.950 . S
C534 C533 1.524 . S
C534 C535 1.415 . S
C535 H505 0.950 . S
C535 C530 1.363 . S
C535 C534 1.415 . S
H536 C533 0.999 . S
H537 C518 0.913 . S
H538 C556 0.951 . S
H539 C558 0.951 . S
H540 C560 0.950 . S
H541 C561 0.950 . S
H542 C563 0.950 . S
H543 C566 0.950 . S
H544 C567 0.950 . S
H545 C569 0.950 . S
H546 C570 0.950 . S
H547 C571 0.951 . S
H548 C573 0.951 . S
H549 C575 0.950 . S
H550 C576 0.950 . S
H551 C578 0.950 . S
H552 C581 0.950 . S
H553 C582 0.950 . S
H554 C584 0.950 . S
H555 C585 0.950 . S
C556 H538 0.951 . S
C556 C557 1.366 . S
C556 C558 1.388 . S
C557 C556 1.366 . S
C557 C561 1.385 . S
C558 H539 0.951 . S
C558 C556 1.388 . S
C558 C559 1.366 . S
C559 C558 1.366 . S
C559 C560 1.414 . S
C559 C562 1.499 . S
C560 H540 0.950 . S
C560 C559 1.414 . S
C560 C561 1.374 . S
C561 H541 0.950 . S
C561 C557 1.385 . S
C561 C560 1.374 . S
C562 C559 1.499 . S
C562 C563 1.373 . S
C562 C564 1.389 . S
C563 H542 0.950 . S
C563 C562 1.373 . S
C563 C579 1.377 . S
C564 C562 1.389 . S
C564 C565 1.524 . S
C564 C578 1.377 . S
C565 C564 1.524 . S
C565 C566 1.397 . S
C565 C570 1.363 . S
C566 H543 0.950 . S
C566 C565 1.397 . S
C566 C567 1.334 . S
C567 H544 0.950 . S
C567 C566 1.334 . S
C567 C568 1.287 . S
C568 C567 1.287 . S
C568 C569 1.524 . S
C568 H587 0.913 . S
C569 H545 0.950 . S
C569 C568 1.524 . S
C569 C570 1.415 . S
C570 H546 0.950 . S
C570 C565 1.363 . S
C570 C569 1.415 . S
C571 H547 0.951 . S
C571 C572 1.366 . S
C571 C573 1.388 . S
C572 C571 1.366 . S
C572 C576 1.385 . S
C573 H548 0.951 . S
C573 C571 1.388 . S
C573 C574 1.366 . S
C574 C573 1.366 . S
C574 C575 1.414 . S
C574 C577 1.499 . S
C575 H549 0.950 . S
C575 C574 1.414 . S
C575 C576 1.374 . S
C576 H550 0.950 . S
C576 C572 1.385 . S
C576 C575 1.374 . S
C577 C574 1.499 . S
C577 C578 1.373 . S
C577 C579 1.389 . S
C578 H551 0.950 . S
C578 C564 1.377 . S
C578 C577 1.373 . S
C579 C563 1.377 . S
C579 C577 1.389 . S
C579 C580 1.524 . S
C580 C579 1.524 . S
C580 C581 1.397 . S
C580 C585 1.363 . S
C581 H552 0.950 . S
C581 C580 1.397 . S
C581 C582 1.334 . S
C582 H553 0.950 . S
C582 C581 1.334 . S
C582 C583 1.287 . S
C583 C582 1.287 . S
C583 C584 1.524 . S
C583 H586 0.999 . S
C584 H554 0.950 . S
C584 C583 1.524 . S
C584 C585 1.415 . S
C585 H555 0.950 . S
C585 C580 1.363 . S
C585 C584 1.415 . S
H586 C583 0.999 . S
H587 C568 0.913 . S
H588 C606 0.951 . S
H589 C608 0.951 . S
H590 C610 0.950 . S
H591 C611 0.950 . S
H592 C613 0.950 . S
H593 C616 0.950 . S
H594 C617 0.950 . S
H595 C619 0.950 . S
H596 C620 0.950 . S
H597 C621 0.951 . S
H598 C623 0.951 . S
H599 C625 0.950 . S
H600 C626 0.950 . S
H601 C628 0.950 . S
H602 C631 0.950 . S
H603 C632 0.950 . S
H604 C634 0.950 . S
H605 C635 0.950 . S
C606 H588 0.951 . S
C606 C607 1.366 . S
C606 C608 1.388 . S
C607 C606 1.366 . S
C607 C611 1.385 . S
C608 H589 0.951 . S
C608 C606 1.388 . S
C608 C609 1.366 . S
C609 C608 1.366 . S
C609 C610 1.414 . S
C609 C612 1.499 . S
C610 H590 0.950 . S
C610 C609 1.414 . S
C610 C611 1.374 . S
C611 H591 0.950 . S
C611 C607 1.385 . S
C611 C610 1.374 . S
C612 C609 1.499 . S
C612 C613 1.373 . S
C612 C614 1.389 . S
C613 H592 0.950 . S
C613 C612 1.373 . S
C613 C629 1.377 . S
C614 C612 1.389 . S
C614 C615 1.524 . S
C614 C628 1.377 . S
C615 C614 1.524 . S
C615 C616 1.397 . S
C615 C620 1.363 . S
C616 H593 0.950 . S
C616 C615 1.397 . S
C616 C617 1.334 . S
C617 H594 0.950 . S
C617 C616 1.334 . S
C617 C618 1.287 . S
C618 C617 1.287 . S
C618 C619 1.524 . S
C618 H637 0.913 . S
C619 H595 0.950 . S
C619 C618 1.524 . S
C619 C620 1.415 . S
C620 H596 0.950 . S
C620 C615 1.363 . S
C620 C619 1.415 . S
C621 H597 0.951 . S
C621 C622 1.366 . S
C621 C623 1.388 . S
C622 C621 1.366 . S
C622 C626 1.385 . S
C623 H598 0.951 . S
C623 C621 1.388 . S
C623 C624 1.366 . S
C624 C623 1.366 . S
C624 C625 1.414 . S
C624 C627 1.499 . S
C625 H599 0.950 . S
C625 C624 1.414 . S
C625 C626 1.374 . S
C626 H600 0.950 . S
C626 C622 1.385 . S
C626 C625 1.374 . S
C627 C624 1.499 . S
C627 C628 1.373 . S
C627 C629 1.389 . S
C628 H601 0.950 . S
C628 C614 1.377 . S
C628 C627 1.373 . S
C629 C613 1.377 . S
C629 C627 1.389 . S
C629 C630 1.524 . S
C630 C629 1.524 . S
C630 C631 1.397 . S
C630 C635 1.363 . S
C631 H602 0.950 . S
C631 C630 1.397 . S
C631 C632 1.334 . S
C632 H603 0.950 . S
C632 C631 1.334 . S
C632 C633 1.287 . S
C633 C632 1.287 . S
C633 C634 1.524 . S
C633 H636 0.999 . S
C634 H604 0.950 . S
C634 C633 1.524 . S
C634 C635 1.415 . S
C635 H605 0.950 . S
C635 C630 1.363 . S
C635 C634 1.415 . S
H636 C633 0.999 . S
H637 C618 0.913 . S
H638 C656 0.951 . S
H639 C658 0.951 . S
H640 C660 0.950 . S
H641 C661 0.950 . S
H642 C663 0.950 . S
H643 C666 0.950 . S
H644 C667 0.950 . S
H645 C669 0.950 . S
H646 C670 0.950 . S
H647 C671 0.951 . S
H648 C673 0.951 . S
H649 C675 0.950 . S
H650 C676 0.950 . S
H651 C678 0.950 . S
H652 C681 0.950 . S
H653 C682 0.950 . S
H654 C684 0.950 . S
H655 C685 0.950 . S
C656 H638 0.951 . S
C656 C657 1.366 . S
C656 C658 1.388 . S
C657 C656 1.366 . S
C657 C661 1.385 . S
C658 H639 0.951 . S
C658 C656 1.388 . S
C658 C659 1.366 . S
C659 C658 1.366 . S
C659 C660 1.414 . S
C659 C662 1.499 . S
C660 H640 0.950 . S
C660 C659 1.414 . S
C660 C661 1.374 . S
C661 H641 0.950 . S
C661 C657 1.385 . S
C661 C660 1.374 . S
C662 C659 1.499 . S
C662 C663 1.373 . S
C662 C664 1.389 . S
C663 H642 0.950 . S
C663 C662 1.373 . S
C663 C679 1.377 . S
C664 C662 1.389 . S
C664 C665 1.524 . S
C664 C678 1.377 . S
C665 C664 1.524 . S
C665 C666 1.397 . S
C665 C670 1.363 . S
C666 H643 0.950 . S
C666 C665 1.397 . S
C666 C667 1.334 . S
C667 H644 0.950 . S
C667 C666 1.334 . S
C667 C668 1.287 . S
C668 C667 1.287 . S
C668 C669 1.524 . S
C668 H687 0.913 . S
C669 H645 0.950 . S
C669 C668 1.524 . S
C669 C670 1.415 . S
C670 H646 0.950 . S
C670 C665 1.363 . S
C670 C669 1.415 . S
C671 H647 0.951 . S
C671 C672 1.366 . S
C671 C673 1.388 . S
C672 C671 1.366 . S
C672 C676 1.385 . S
C673 H648 0.951 . S
C673 C671 1.388 . S
C673 C674 1.366 . S
C674 C673 1.366 . S
C674 C675 1.414 . S
C674 C677 1.499 . S
C675 H649 0.950 . S
C675 C674 1.414 . S
C675 C676 1.374 . S
C676 H650 0.950 . S
C676 C672 1.385 . S
C676 C675 1.374 . S
C677 C674 1.499 . S
C677 C678 1.373 . S
C677 C679 1.389 . S
C678 H651 0.950 . S
C678 C664 1.377 . S
C678 C677 1.373 . S
C679 C663 1.377 . S
C679 C677 1.389 . S
C679 C680 1.524 . S
C680 C679 1.524 . S
C680 C681 1.397 . S
C680 C685 1.363 . S
C681 H652 0.950 . S
C681 C680 1.397 . S
C681 C682 1.334 . S
C682 H653 0.950 . S
C682 C681 1.334 . S
C682 C683 1.287 . S
C683 C682 1.287 . S
C683 C684 1.524 . S
C683 H686 0.999 . S
C684 H654 0.950 . S
C684 C683 1.524 . S
C684 C685 1.415 . S
C685 H655 0.950 . S
C685 C680 1.363 . S
C685 C684 1.415 . S
H686 C683 0.999 . S
H687 C668 0.913 . S
H688 C706 0.951 . S
H689 C708 0.951 . S
H690 C710 0.950 . S
H691 C711 0.950 . S
H692 C713 0.950 . S
H693 C716 0.950 . S
H694 C717 0.950 . S
H695 C719 0.950 . S
H696 C720 0.950 . S
H697 C721 0.951 . S
H698 C723 0.951 . S
H699 C725 0.950 . S
H700 C726 0.950 . S
H701 C728 0.950 . S
H702 C731 0.950 . S
H703 C732 0.950 . S
H704 C734 0.950 . S
H705 C735 0.950 . S
C706 H688 0.951 . S
C706 C707 1.366 . S
C706 C708 1.388 . S
C707 C706 1.366 . S
C707 C711 1.385 . S
C708 H689 0.951 . S
C708 C706 1.388 . S
C708 C709 1.366 . S
C709 C708 1.366 . S
C709 C710 1.414 . S
C709 C712 1.499 . S
C710 H690 0.950 . S
C710 C709 1.414 . S
C710 C711 1.374 . S
C711 H691 0.950 . S
C711 C707 1.385 . S
C711 C710 1.374 . S
C712 C709 1.499 . S
C712 C713 1.373 . S
C712 C714 1.389 . S
C713 H692 0.950 . S
C713 C712 1.373 . S
C713 C729 1.377 . S
C714 C712 1.389 . S
C714 C715 1.524 . S
C714 C728 1.377 . S
C715 C714 1.524 . S
C715 C716 1.397 . S
C715 C720 1.363 . S
C716 H693 0.950 . S
C716 C715 1.397 . S
C716 C717 1.334 . S
C717 H694 0.950 . S
C717 C716 1.334 . S
C717 C718 1.287 . S
C718 C717 1.287 . S
C718 C719 1.524 . S
C718 H737 0.913 . S
C719 H695 0.950 . S
C719 C718 1.524 . S
C719 C720 1.415 . S
C720 H696 0.950 . S
C720 C715 1.363 . S
C720 C719 1.415 . S
C721 H697 0.951 . S
C721 C722 1.366 . S
C721 C723 1.388 . S
C722 C721 1.366 . S
C722 C726 1.385 . S
C723 H698 0.951 . S
C723 C721 1.388 . S
C723 C724 1.366 . S
C724 C723 1.366 . S
C724 C725 1.414 . S
C724 C727 1.499 . S
C725 H699 0.950 . S
C725 C724 1.414 . S
C725 C726 1.374 . S
C726 H700 0.950 . S
C726 C722 1.385 . S
C726 C725 1.374 . S
C727 C724 1.499 . S
C727 C728 1.373 . S
C727 C729 1.389 . S
C728 H701 0.950 . S
C728 C714 1.377 . S
C728 C727 1.373 . S
C729 C713 1.377 . S
C729 C727 1.389 . S
C729 C730 1.524 . S
C730 C729 1.524 . S
C730 C731 1.397 . S
C730 C735 1.363 . S
C731 H702 0.950 . S
C731 C730 1.397 . S
C731 C732 1.334 . S
C732 H703 0.950 . S
C732 C731 1.334 . S
C732 C733 1.287 . S
C733 C732 1.287 . S
C733 C734 1.524 . S
C733 H736 0.999 . S
C734 H704 0.950 . S
C734 C733 1.524 . S
C734 C735 1.415 . S
C735 H705 0.950 . S
C735 C730 1.363 . S
C735 C734 1.415 . S
H736 C733 0.999 . S
H737 C718 0.913 . S
C157 C16 1.345 . S
C172 N127 1.355 . S
C207 C39 1.345 . S
C222 N12 1.355 . S
C257 N35 1.356 . S
C272 C62 1.346 . S
C307 C85 1.345 . S
C322 N58 1.355 . S
C357 N81 1.355 . S
C372 C108 1.346 . S
C407 C131 1.346 . S
C422 N104 1.355 . S
C457 N94 1.390 . S
C472 C7 1.449 . S
C507 N117 1.390 . S
C522 C30 1.448 . S
C557 C53 1.449 . S
C572 N2 1.389 . S
C607 C76 1.449 . S
C622 N25 1.389 . S
C657 C99 1.449 . S
C672 N48 1.388 . S
C707 C122 1.449 . S
C722 N71 1.390 . S
