# Generated by pormake.
# Topology wkc, (5)-cn, num edge types: 1
# Building blocks:
#     Node 0, Type 0, BuildingBlock: XOMCOT_clean_sbu_1, # of connection points: 5
#     Node 1, Type 0, BuildingBlock: XOMCOT_clean_sbu_1, # of connection points: 5
#     Node 2, Type 0, BuildingBlock: XOMCOT_clean_sbu_1, # of connection points: 5
#     Node 3, Type 0, BuildingBlock: XOMCOT_clean_sbu_1, # of connection points: 5
#     Node 4, Type 0, BuildingBlock: XOMCOT_clean_sbu_1, # of connection points: 5
#     Node 5, Type 0, BuildingBlock: XOMCOT_clean_sbu_1, # of connection points: 5
#     Node 6, Type 0, BuildingBlock: XOMCOT_clean_sbu_1, # of connection points: 5
#     Node 7, Type 0, BuildingBlock: XOMCOT_clean_sbu_1, # of connection points: 5
#     Node 8, Type 0, BuildingBlock: XOMCOT_clean_sbu_1, # of connection points: 5
#     Node 9, Type 0, BuildingBlock: XOMCOT_clean_sbu_1, # of connection points: 5
#     Node 10, Type 0, BuildingBlock: XOMCOT_clean_sbu_1, # of connection points: 5
#     Node 11, Type 0, BuildingBlock: XOMCOT_clean_sbu_1, # of connection points: 5
#     Edge 12, Type (0, 0), BuildingBlock: MIFKUJ_clean_linker_0, # of connection points: 2
#     Edge 13, Type (0, 0), BuildingBlock: MIFKUJ_clean_linker_0, # of connection points: 2
#     Edge 14, Type (0, 0), BuildingBlock: MIFKUJ_clean_linker_0, # of connection points: 2
#     Edge 15, Type (0, 0), BuildingBlock: MIFKUJ_clean_linker_0, # of connection points: 2
#     Edge 16, Type (0, 0), BuildingBlock: MIFKUJ_clean_linker_0, # of connection points: 2
#     Edge 17, Type (0, 0), BuildingBlock: MIFKUJ_clean_linker_0, # of connection points: 2
#     Edge 18, Type (0, 0), BuildingBlock: MIFKUJ_clean_linker_0, # of connection points: 2
#     Edge 19, Type (0, 0), BuildingBlock: MIFKUJ_clean_linker_0, # of connection points: 2
#     Edge 20, Type (0, 0), BuildingBlock: MIFKUJ_clean_linker_0, # of connection points: 2
#     Edge 21, Type (0, 0), BuildingBlock: MIFKUJ_clean_linker_0, # of connection points: 2
#     Edge 22, Type (0, 0), BuildingBlock: MIFKUJ_clean_linker_0, # of connection points: 2
#     Edge 23, Type (0, 0), BuildingBlock: MIFKUJ_clean_linker_0, # of connection points: 2
#     Edge 24, Type (0, 0), BuildingBlock: MIFKUJ_clean_linker_0, # of connection points: 2
#     Edge 25, Type (0, 0), BuildingBlock: MIFKUJ_clean_linker_0, # of connection points: 2
#     Edge 26, Type (0, 0), BuildingBlock: MIFKUJ_clean_linker_0, # of connection points: 2
#     Edge 27, Type (0, 0), BuildingBlock: MIFKUJ_clean_linker_0, # of connection points: 2
#     Edge 28, Type (0, 0), BuildingBlock: MIFKUJ_clean_linker_0, # of connection points: 2
#     Edge 29, Type (0, 0), BuildingBlock: MIFKUJ_clean_linker_0, # of connection points: 2
#     Edge 30, Type (0, 0), BuildingBlock: MIFKUJ_clean_linker_0, # of connection points: 2
#     Edge 31, Type (0, 0), BuildingBlock: MIFKUJ_clean_linker_0, # of connection points: 2
#     Edge 32, Type (0, 0), BuildingBlock: MIFKUJ_clean_linker_0, # of connection points: 2
#     Edge 33, Type (0, 0), BuildingBlock: MIFKUJ_clean_linker_0, # of connection points: 2
#     Edge 34, Type (0, 0), BuildingBlock: MIFKUJ_clean_linker_0, # of connection points: 2
#     Edge 35, Type (0, 0), BuildingBlock: MIFKUJ_clean_linker_0, # of connection points: 2
#     Edge 36, Type (0, 0), BuildingBlock: MIFKUJ_clean_linker_0, # of connection points: 2
#     Edge 37, Type (0, 0), BuildingBlock: MIFKUJ_clean_linker_0, # of connection points: 2
#     Edge 38, Type (0, 0), BuildingBlock: MIFKUJ_clean_linker_0, # of connection points: 2
#     Edge 39, Type (0, 0), BuildingBlock: MIFKUJ_clean_linker_0, # of connection points: 2
#     Edge 40, Type (0, 0), BuildingBlock: MIFKUJ_clean_linker_0, # of connection points: 2
#     Edge 41, Type (0, 0), BuildingBlock: MIFKUJ_clean_linker_0, # of connection points: 2
# Relax obj value: 0.259
# Max RMSD: 0.219
# Mean RMSD: 0.219
data_MOF--net-wkc--node1-XOMCOT_clean_sbu_1--edge1-MIFKUJ_clean_linker_0
_symmetry_space_group_name_H-M    P1
_symmetry_Int_Tables_number       1
_symmetry_cell_setting            triclinic
loop_
_symmetry_equiv_pos_as_xyz
'x, y, z'
_cell_length_a     48.272117
_cell_length_b     48.252975
_cell_length_c     59.763268
_cell_angle_alpha  89.977032
_cell_angle_beta   89.960245
_cell_angle_gamma 119.99193
loop_
_atom_site_label
_atom_site_type_symbol
_atom_site_fract_x
_atom_site_fract_y
_atom_site_fract_z
_atom_type_partial_charge
C0 C 0.31648 0.47865 0.03957 0.0
C1 C 0.32002 0.50548 0.05023 0.0
N2 N 0.29432 0.50845 0.04549 0.0
N3 N 0.28866 0.46474 0.02822 0.0
C4 C 0.27566 0.48341 0.03211 0.0
H5 H 0.33343 0.4702 0.03959 0.0
Co6 Co 0.27533 0.43016 0.00911 0.0
C7 C 0.20705 0.41432 0.00511 0.0
O8 O 0.2104 0.42282 0.98396 0.0
N9 N 0.26293 0.39559 0.98949 0.0
C10 C 0.23895 0.34765 0.97335 0.0
C11 C 0.23547 0.36721 0.98854 0.0
C12 C 0.28268 0.39259 0.97488 0.0
N13 N 0.26883 0.3636 0.96489 0.0
O14 O 0.27653 0.45683 0.98495 0.0
H15 H 0.21479 0.36037 0.99903 0.0
H16 H 0.30731 0.4109 0.97234 0.0
O17 O 0.23081 0.41645 0.01593 0.0
C18 C 0.30445 0.47281 0.97658 0.0
O19 O 0.32731 0.46825 0.98435 0.0
N20 N 0.27651 0.4054 0.03285 0.0
C21 C 0.28654 0.37513 0.06918 0.0
C22 C 0.26487 0.38641 0.07071 0.0
C23 C 0.2604 0.40172 0.05241 0.0
C24 C 0.29755 0.39447 0.03099 0.0
C25 C 0.30266 0.37894 0.04886 0.0
H26 H 0.24544 0.41226 0.05446 0.0
H27 H 0.31134 0.39878 0.01584 0.0
H28 H 0.25373 0.47959 0.02443 0.0
H29 H 0.34014 0.52178 0.06043 0.0
H30 H 0.22141 0.32299 0.9698 0.0
H31 H 0.25268 0.38494 0.08627 0.0
H32 H 0.31964 0.37066 0.04692 0.0
C33 C 0.84132 0.29731 0.21163 0.0
C34 C 0.81882 0.29742 0.22564 0.0
N35 N 0.78951 0.27481 0.21868 0.0
N36 N 0.82647 0.27458 0.19595 0.0
C37 C 0.79496 0.26135 0.20057 0.0
H38 H 0.86683 0.31366 0.21227 0.0
Co39 Co 0.84635 0.26834 0.17145 0.0
C40 C 0.81479 0.19786 0.16608 0.0
O41 O 0.84231 0.20122 0.15953 0.0
N42 N 0.86685 0.26348 0.14583 0.0
C43 C 0.87349 0.25464 0.1101 0.0
C44 C 0.85151 0.24907 0.12668 0.0
C45 C 0.89827 0.27813 0.14019 0.0
N46 N 0.90296 0.27303 0.11863 0.0
O47 O 0.82198 0.27979 0.15224 0.0
H48 H 0.82581 0.23631 0.12463 0.0
H49 H 0.91752 0.29414 0.15097 0.0
O50 O 0.81287 0.22279 0.17066 0.0
C51 C 0.83789 0.30975 0.14841 0.0
O52 O 0.86673 0.32621 0.15702 0.0
N53 N 0.87167 0.25993 0.19133 0.0
C54 C 0.91072 0.25875 0.22544 0.0
C55 C 0.87933 0.23341 0.22281 0.0
C56 C 0.85995 0.23482 0.20604 0.0
C57 C 0.90181 0.28516 0.19416 0.0
C58 C 0.92196 0.2848 0.21073 0.0
H59 H 0.83503 0.2167 0.20611 0.0
H60 H 0.90951 0.30679 0.18458 0.0
H61 H 0.77645 0.24289 0.19037 0.0
H62 H 0.8238 0.31407 0.23922 0.0
H63 H 0.86814 0.24646 0.09295 0.0
H64 H 0.86936 0.21324 0.23419 0.0
H65 H 0.94541 0.30568 0.21287 0.0
C66 C 0.53746 0.82632 0.36739 0.0
C67 C 0.51269 0.80152 0.37876 0.0
N68 N 0.50681 0.77382 0.36921 0.0
N69 N 0.54754 0.81432 0.35095 0.0
C70 C 0.52825 0.78226 0.35238 0.0
H71 H 0.54679 0.85151 0.37051 0.0
Co72 Co 0.57812 0.83747 0.32921 0.0
C73 C 0.62419 0.81416 0.33201 0.0
O74 O 0.64718 0.84364 0.3282 0.0
N75 N 0.60813 0.86101 0.30619 0.0
C76 C 0.63334 0.87088 0.27333 0.0
C77 C 0.6152 0.84769 0.28881 0.0
C78 C 0.62159 0.8923 0.30038 0.0
N79 N 0.63723 0.89902 0.28058 0.0
O80 O 0.54831 0.81107 0.30682 0.0
H81 H 0.60645 0.82235 0.28698 0.0
H82 H 0.6189 0.90981 0.30976 0.0
O83 O 0.59505 0.80789 0.33207 0.0
C84 C 0.53535 0.82511 0.29699 0.0
O85 O 0.54507 0.85511 0.30202 0.0
N86 N 0.60571 0.86436 0.35196 0.0
C87 C 0.63732 0.90477 0.38805 0.0
C88 C 0.63324 0.87394 0.38713 0.0
C89 C 0.61667 0.85384 0.36926 0.0
C90 C 0.60813 0.89367 0.35325 0.0
C91 C 0.62458 0.91459 0.37074 0.0
H92 H 0.61092 0.82923 0.37032 0.0
H93 H 0.59524 0.90006 0.34155 0.0
H94 H 0.52946 0.7655 0.34095 0.0
H95 H 0.49907 0.80379 0.39232 0.0
H96 H 0.64147 0.86692 0.2574 0.0
H97 H 0.64105 0.86467 0.40076 0.0
H98 H 0.62622 0.9378 0.37108 0.0
C99 C 0.7052 0.54397 0.54722 0.0
C100 C 0.70148 0.51816 0.55939 0.0
N101 N 0.72194 0.50926 0.55134 0.0
N102 N 0.72812 0.55155 0.53165 0.0
C103 C 0.73797 0.53003 0.53461 0.0
H104 H 0.69083 0.55528 0.54883 0.0
Co105 Co 0.73685 0.57969 0.50797 0.0
C106 C 0.80782 0.61722 0.5044 0.0
O107 O 0.80602 0.64203 0.49726 0.0
N108 N 0.7441 0.60701 0.48306 0.0
C109 C 0.75453 0.62416 0.44777 0.0
C110 C 0.75892 0.60654 0.46401 0.0
C111 C 0.7304 0.62475 0.47768 0.0
N112 N 0.73635 0.63558 0.45631 0.0
O113 O 0.72687 0.54529 0.48776 0.0
H114 H 0.77091 0.59288 0.46171 0.0
H115 H 0.71505 0.6285 0.48876 0.0
O116 O 0.78213 0.59096 0.50882 0.0
C117 C 0.69799 0.53245 0.4812 0.0
O118 O 0.68066 0.54493 0.48794 0.0
N119 N 0.74404 0.6122 0.52869 0.0
C120 C 0.74341 0.65062 0.56349 0.0
C121 C 0.76902 0.64494 0.56103 0.0
C122 C 0.76857 0.62514 0.54383 0.0
C123 C 0.71863 0.61691 0.53125 0.0
C124 C 0.7181 0.63652 0.54819 0.0
H125 H 0.78694 0.61871 0.5439 0.0
H126 H 0.69757 0.60357 0.52104 0.0
H127 H 0.75484 0.52818 0.52365 0.0
H128 H 0.68421 0.50615 0.57262 0.0
H129 H 0.76266 0.62667 0.43063 0.0
H130 H 0.78863 0.65461 0.57286 0.0
H131 H 0.69707 0.63891 0.55013 0.0
C132 C 0.17397 0.70924 0.70472 0.0
C133 C 0.19786 0.708 0.71642 0.0
N134 N 0.22634 0.73148 0.70882 0.0
N135 N 0.18727 0.73356 0.68997 0.0
C136 C 0.21913 0.74655 0.69273 0.0
H137 H 0.14853 0.69304 0.70647 0.0
Co138 Co 0.16543 0.74338 0.66879 0.0
C139 C 0.19521 0.81375 0.6727 0.0
O140 O 0.16641 0.81017 0.67141 0.0
N141 N 0.14292 0.75171 0.64614 0.0
C142 C 0.13202 0.76966 0.61487 0.0
C143 C 0.15487 0.77544 0.63076 0.0
C144 C 0.1134 0.7308 0.63818 0.0
N145 N 0.10578 0.7414 0.61951 0.0
O146 O 0.18829 0.7357 0.64573 0.0
H147 H 0.17928 0.79496 0.63022 0.0
H148 H 0.09882 0.70692 0.64468 0.0
O149 O 0.19873 0.78921 0.67083 0.0
C150 C 0.17207 0.70665 0.63946 0.0
O151 O 0.14425 0.68813 0.64902 0.0
N152 N 0.14166 0.7485 0.69228 0.0
C153 C 0.10649 0.74784 0.7297 0.0
C154 C 0.13973 0.76778 0.72909 0.0
C155 C 0.15688 0.76744 0.7104 0.0
C156 C 0.10937 0.72834 0.69302 0.0
C157 C 0.09126 0.72817 0.71128 0.0
H158 H 0.18267 0.78127 0.71109 0.0
H159 H 0.09756 0.71059 0.6803 0.0
H160 H 0.23662 0.76637 0.68282 0.0
H161 H 0.19441 0.69035 0.72894 0.0
H162 H 0.13508 0.78479 0.60064 0.0
H163 H 0.1525 0.78271 0.74326 0.0
H164 H 0.0658 0.71127 0.71158 0.0
C165 C 0.46239 0.17061 0.88643 0.0
C166 C 0.4866 0.1941 0.89895 0.0
N167 N 0.49495 0.22265 0.88964 0.0
N168 N 0.45531 0.18426 0.86934 0.0
C169 C 0.47546 0.21603 0.8718 0.0
H170 H 0.45189 0.14514 0.88898 0.0
Co171 Co 0.42889 0.16302 0.84507 0.0
C172 C 0.38698 0.19155 0.84134 0.0
O173 O 0.36306 0.16332 0.83578 0.0
N174 N 0.40338 0.14161 0.8198 0.0
C175 C 0.38502 0.13464 0.7848 0.0
C176 C 0.40109 0.15663 0.80139 0.0
C177 C 0.38942 0.11046 0.81352 0.0
N178 N 0.3778 0.10555 0.79241 0.0
O179 O 0.46354 0.18848 0.82514 0.0
H180 H 0.41164 0.18228 0.79978 0.0
H181 H 0.38867 0.09169 0.8237 0.0
O182 O 0.41464 0.19482 0.84482 0.0
C183 C 0.48197 0.17669 0.82441 0.0
O184 O 0.47435 0.15106 0.83647 0.0
N185 N 0.39634 0.1364 0.86538 0.0
C186 C 0.36157 0.09687 0.90111 0.0
C187 C 0.36434 0.12699 0.89846 0.0
C188 C 0.38255 0.14676 0.88081 0.0
C189 C 0.39371 0.1071 0.86783 0.0
C190 C 0.37605 0.08676 0.8853 0.0
H191 H 0.38763 0.17119 0.88096 0.0
H192 H 0.40794 0.10064 0.85749 0.0
H193 H 0.4774 0.23373 0.8598 0.0
H194 H 0.49807 0.19035 0.91326 0.0
H195 H 0.38048 0.13992 0.76805 0.0
H196 H 0.35472 0.13622 0.9109 0.0
H197 H 0.37527 0.06405 0.88715 0.0
C198 C 0.53676 0.70521 0.78261 0.0
C199 C 0.51217 0.70335 0.76989 0.0
N200 N 0.50658 0.72687 0.77637 0.0
N201 N 0.54687 0.72997 0.79691 0.0
C202 C 0.52803 0.74271 0.79276 0.0
H203 H 0.54593 0.68887 0.78197 0.0
Co204 Co 0.57639 0.73976 0.81968 0.0
C205 C 0.61728 0.81064 0.819 0.0
O206 O 0.64168 0.80767 0.82545 0.0
N207 N 0.6054 0.74852 0.84372 0.0
C208 C 0.62523 0.76188 0.87829 0.0
C209 C 0.60687 0.76543 0.86218 0.0
C210 C 0.62304 0.73477 0.84924 0.0
N211 N 0.63534 0.74253 0.87008 0.0
O212 O 0.54374 0.73298 0.84093 0.0
H213 H 0.5941 0.77839 0.86421 0.0
H214 H 0.62515 0.71749 0.8391 0.0
O215 O 0.58972 0.78557 0.81668 0.0
C216 C 0.53244 0.70586 0.85051 0.0
O217 O 0.54496 0.68785 0.84572 0.0
N218 N 0.60664 0.7433 0.79812 0.0
C219 C 0.6407 0.73661 0.76262 0.0
C220 C 0.63616 0.76309 0.76378 0.0
C221 C 0.61852 0.76566 0.78138 0.0
C222 C 0.61006 0.71698 0.79682 0.0
C223 C 0.62765 0.71354 0.77963 0.0
H224 H 0.6126 0.78438 0.78039 0.0
H225 H 0.5973 0.69744 0.80842 0.0
H226 H 0.52892 0.76212 0.80239 0.0
H227 H 0.49905 0.68564 0.75715 0.0
H228 H 0.62997 0.77197 0.89497 0.0
H229 H 0.64438 0.78068 0.75047 0.0
H230 H 0.62993 0.69233 0.77927 0.0
C231 C 0.83809 0.53536 0.95174 0.0
C232 C 0.81459 0.50895 0.94086 0.0
N233 N 0.78599 0.50504 0.947 0.0
N234 N 0.82436 0.5481 0.96462 0.0
C235 C 0.79257 0.52916 0.96136 0.0
H236 H 0.86352 0.54401 0.95107 0.0
Co237 Co 0.84578 0.58008 0.98586 0.0
C238 C 0.82072 0.62354 0.97668 0.0
O239 O 0.85043 0.64729 0.97678 0.0
N240 N 0.86754 0.61089 0.00855 0.0
C241 C 0.88046 0.64433 0.03743 0.0
C242 C 0.85807 0.62796 0.0211 0.0
C243 C 0.89458 0.6156 0.0188 0.0
N244 N 0.90366 0.63665 0.03594 0.0
O245 O 0.81994 0.55046 0.00863 0.0
H246 H 0.83567 0.62765 0.01937 0.0
H247 H 0.90653 0.60249 0.01441 0.0
O248 O 0.81463 0.59504 0.98116 0.0
C249 C 0.83223 0.53295 0.01267 0.0
O250 O 0.85897 0.53971 0.00239 0.0
N251 N 0.87279 0.60783 0.96272 0.0
C252 C 0.91273 0.64201 0.92675 0.0
C253 C 0.87938 0.6271 0.92478 0.0
C254 C 0.85993 0.60995 0.94281 0.0
C255 C 0.90519 0.62159 0.96464 0.0
C256 C 0.92551 0.63938 0.94718 0.0
H257 H 0.8343 0.59745 0.94045 0.0
H258 H 0.91579 0.61782 0.97921 0.0
H259 H 0.7746 0.53178 0.97043 0.0
H260 H 0.81821 0.49331 0.92976 0.0
H261 H 0.87927 0.66028 0.0496 0.0
H262 H 0.86821 0.62742 0.90915 0.0
H263 H 0.95108 0.65027 0.94958 0.0
C264 C 0.30308 0.83833 0.11862 0.0
C265 C 0.30617 0.81657 0.10563 0.0
N266 N 0.28404 0.78689 0.11221 0.0
N267 N 0.27882 0.82258 0.1332 0.0
C268 C 0.26767 0.79124 0.12892 0.0
H269 H 0.31847 0.86399 0.118 0.0
Co270 Co 0.26832 0.84121 0.1565 0.0
C271 C 0.1973 0.81059 0.15531 0.0
O272 O 0.19939 0.83751 0.16199 0.0
N273 N 0.25901 0.86051 0.18094 0.0
C274 C 0.24355 0.86692 0.21484 0.0
C275 C 0.24053 0.84502 0.19883 0.0
C276 C 0.27352 0.89178 0.18686 0.0
N277 N 0.26444 0.89643 0.20726 0.0
O278 O 0.27354 0.81359 0.177 0.0
H279 H 0.22653 0.81928 0.20047 0.0
H280 H 0.29213 0.91088 0.17728 0.0
O281 O 0.22281 0.809 0.15268 0.0
C282 C 0.29869 0.82693 0.18896 0.0
O283 O 0.31741 0.85811 0.1877 0.0
N284 N 0.2657 0.86934 0.13563 0.0
C285 C 0.27322 0.91248 0.10166 0.0
C286 C 0.24605 0.88193 0.1024 0.0
C287 C 0.2431 0.86045 0.11919 0.0
C288 C 0.2926 0.89873 0.13475 0.0
C289 C 0.29657 0.92086 0.11825 0.0
H290 H 0.22373 0.83618 0.11779 0.0
H291 H 0.31213 0.90433 0.14609 0.0
H292 H 0.24915 0.77206 0.13873 0.0
H293 H 0.32392 0.82227 0.09269 0.0
H294 H 0.23179 0.8614 0.23097 0.0
H295 H 0.22817 0.87395 0.08931 0.0
H296 H 0.31833 0.94393 0.11804 0.0
C297 C 0.49727 0.31302 0.31559 0.0
C298 C 0.52551 0.31648 0.3076 0.0
N299 N 0.5208 0.28727 0.30278 0.0
N300 N 0.47431 0.28184 0.31519 0.0
C301 C 0.48996 0.26668 0.30799 0.0
H302 H 0.49453 0.33192 0.32304 0.0
Co303 Co 0.43541 0.26631 0.33089 0.0
C304 C 0.41876 0.2129 0.29951 0.0
O305 O 0.43099 0.23451 0.28354 0.0
N306 N 0.39834 0.25259 0.34776 0.0
C307 C 0.3568 0.22729 0.37061 0.0
C308 C 0.37891 0.22431 0.35771 0.0
C309 C 0.38763 0.2722 0.35467 0.0
N310 N 0.36245 0.25758 0.36876 0.0
O311 O 0.45646 0.25965 0.35571 0.0
H312 H 0.38131 0.20326 0.3563 0.0
H313 H 0.39936 0.29731 0.35028 0.0
O314 O 0.41962 0.22199 0.31982 0.0
C315 C 0.46494 0.28073 0.371 0.0
O316 O 0.45475 0.30135 0.37002 0.0
N317 N 0.41527 0.27505 0.30675 0.0
C318 C 0.3877 0.28927 0.27065 0.0
C319 C 0.37184 0.259 0.28076 0.0
C320 C 0.38571 0.2526 0.29909 0.0
C321 C 0.42943 0.3054 0.29842 0.0
C322 C 0.41639 0.3129 0.28018 0.0
H323 H 0.37294 0.22924 0.30682 0.0
H324 H 0.45069 0.32425 0.30598 0.0
H325 H 0.48009 0.24106 0.3084 0.0
H326 H 0.54812 0.33856 0.30628 0.0
H327 H 0.33841 0.2087 0.38086 0.0
H328 H 0.34929 0.24015 0.27429 0.0
H329 H 0.42861 0.33711 0.2737 0.0
C330 C 0.169 0.45532 0.43452 0.0
C331 C 0.19278 0.47807 0.42122 0.0
N332 N 0.22093 0.48881 0.4318 0.0
N333 N 0.18214 0.45132 0.45329 0.0
C334 C 0.2138 0.47222 0.4512 0.0
H335 H 0.14368 0.44314 0.43094 0.0
Co336 Co 0.1609 0.4253 0.47782 0.0
C337 C 0.19295 0.38675 0.48469 0.0
O338 O 0.16573 0.36257 0.49164 0.0
N339 N 0.1394 0.40011 0.50332 0.0
C340 C 0.13135 0.38341 0.53878 0.0
C341 C 0.15396 0.40042 0.52269 0.0
C342 C 0.10779 0.38346 0.50842 0.0
N343 N 0.10216 0.37277 0.52982 0.0
O344 O 0.1843 0.46127 0.4972 0.0
H345 H 0.17959 0.41304 0.52517 0.0
H346 H 0.08914 0.38077 0.49725 0.0
O347 O 0.19439 0.41325 0.47959 0.0
C348 C 0.16789 0.47514 0.49946 0.0
O349 O 0.14019 0.46273 0.48913 0.0
N350 N 0.13621 0.39131 0.45793 0.0
C351 C 0.09859 0.35145 0.42312 0.0
C352 C 0.12955 0.35685 0.4269 0.0
C353 C 0.14824 0.37744 0.44395 0.0
C354 C 0.10631 0.38667 0.45426 0.0
C355 C 0.08692 0.36648 0.43727 0.0
H356 H 0.17301 0.38386 0.44454 0.0
H357 H 0.0984 0.40081 0.46334 0.0
H358 H 0.23121 0.47557 0.46388 0.0
H359 H 0.18944 0.48699 0.40542 0.0
H360 H 0.13622 0.3797 0.55585 0.0
H361 H 0.13991 0.34649 0.41608 0.0
H362 H 0.06386 0.36448 0.43433 0.0
C363 C 0.68517 0.16276 0.61466 0.0
C364 C 0.6809 0.18663 0.60573 0.0
N365 N 0.70505 0.21494 0.61267 0.0
N366 N 0.71225 0.17584 0.62702 0.0
C367 C 0.72339 0.20777 0.62574 0.0
H368 H 0.66851 0.13761 0.61274 0.0
Co369 Co 0.72869 0.1563 0.64631 0.0
C370 C 0.78323 0.19972 0.61779 0.0
O371 O 0.76274 0.18935 0.60111 0.0
N372 N 0.74331 0.13674 0.66616 0.0
C373 C 0.76965 0.12365 0.69043 0.0
C374 C 0.77203 0.14688 0.67576 0.0
C375 C 0.72405 0.10758 0.67511 0.0
N376 N 0.7393 0.09887 0.69007 0.0
O377 O 0.72822 0.18296 0.66984 0.0
H378 H 0.79316 0.16978 0.67261 0.0
H379 H 0.69891 0.09346 0.67107 0.0
O380 O 0.77334 0.1888 0.63759 0.0
C381 C 0.70159 0.16752 0.68006 0.0
O382 O 0.68151 0.13805 0.67379 0.0
N383 N 0.72657 0.1276 0.62406 0.0
C384 C 0.71737 0.08273 0.59126 0.0
C385 C 0.74831 0.1052 0.59834 0.0
C386 C 0.75235 0.12679 0.6153 0.0
C387 C 0.69653 0.10328 0.61953 0.0
C388 C 0.69126 0.08103 0.60281 0.0
H389 H 0.77625 0.14285 0.62122 0.0
H390 H 0.67646 0.10112 0.629 0.0
H391 H 0.74414 0.22545 0.63481 0.0
H392 H 0.66128 0.18336 0.59516 0.0
H393 H 0.78888 0.12511 0.70059 0.0
H394 H 0.76927 0.1067 0.59053 0.0
H395 H 0.66697 0.06277 0.59892 0.0
H396 H 0.42729 0.24881 0.86199 0.0
H397 H 0.41246 0.2853 0.87973 0.0
H398 H 0.31559 0.22702 0.85627 0.0
H399 H 0.33032 0.19103 0.83808 0.0
H400 H 0.33244 0.28875 0.85475 0.0
H401 H 0.33889 0.21765 0.90922 0.0
H402 H 0.36694 0.19376 0.92873 0.0
H403 H 0.43801 0.28666 0.95206 0.0
H404 H 0.41058 0.31115 0.93241 0.0
H405 H 0.23982 0.31662 0.93392 0.0
H406 H 0.26476 0.29375 0.91035 0.0
H407 H 0.35685 0.35919 0.93876 0.0
H408 H 0.33194 0.3816 0.96278 0.0
H409 H 0.34801 0.29974 0.93701 0.0
H410 H 0.33839 0.37025 0.88581 0.0
H411 H 0.3112 0.3944 0.86553 0.0
H412 H 0.24696 0.30354 0.83571 0.0
H413 H 0.27347 0.27872 0.85607 0.0
C414 C 0.403 0.24414 0.86019 0.0
C415 C 0.37991 0.21674 0.8488 0.0
C416 C 0.39449 0.26492 0.87048 0.0
C417 C 0.36271 0.25855 0.86977 0.0
C418 C 0.3402 0.2324 0.85719 0.0
C419 C 0.34869 0.21174 0.84683 0.0
C420 C 0.35209 0.27746 0.88335 0.0
C421 C 0.33568 0.29099 0.87275 0.0
C422 C 0.35692 0.28108 0.9068 0.0
C423 C 0.37285 0.26626 0.91919 0.0
C424 C 0.36055 0.23299 0.91845 0.0
C425 C 0.37635 0.21934 0.92952 0.0
C426 C 0.40427 0.23869 0.94159 0.0
C427 C 0.41639 0.27171 0.94269 0.0
C428 C 0.40072 0.28549 0.9316 0.0
C429 C 0.26536 0.32613 0.93519 0.0
C430 C 0.28381 0.35106 0.95023 0.0
C431 C 0.27967 0.31321 0.92155 0.0
C432 C 0.31279 0.32495 0.92258 0.0
C433 C 0.33129 0.34981 0.93758 0.0
C434 C 0.31701 0.36282 0.95117 0.0
C435 C 0.32787 0.31062 0.90846 0.0
C436 C 0.34507 0.29787 0.91898 0.0
C437 C 0.32376 0.30773 0.88494 0.0
C438 C 0.30776 0.32257 0.87262 0.0
C439 C 0.31831 0.35536 0.87506 0.0
C440 C 0.30304 0.36918 0.86353 0.0
C441 C 0.27733 0.3505 0.84938 0.0
C442 C 0.26687 0.31797 0.84669 0.0
C443 C 0.28203 0.30402 0.85821 0.0
H444 H 0.26554 0.36125 0.84046 0.0
H445 H 0.4165 0.22809 0.95012 0.0
H446 H 0.15042 0.4053 0.98762 0.0
H447 H 0.09816 0.38147 0.00611 0.0
H448 H 0.13961 0.36878 0.06642 0.0
H449 H 0.19141 0.39181 0.04803 0.0
H450 H 0.08497 0.31655 0.05823 0.0
H451 H 0.12056 0.42859 0.06122 0.0
H452 H 0.14068 0.48291 0.04613 0.0
H453 H 0.05665 0.44877 0.00536 0.0
H454 H 0.03622 0.39411 0.01999 0.0
H455 H 0.96097 0.28821 0.13547 0.0
H456 H 0.01205 0.31235 0.11535 0.0
H457 H 0.96441 0.31369 0.0547 0.0
H458 H 0.91336 0.28983 0.07477 0.0
H459 H 0.021 0.37101 0.0621 0.0
H460 H 0.9854 0.25854 0.06065 0.0
H461 H 0.96599 0.20503 0.07702 0.0
H462 H 0.05137 0.24146 0.11658 0.0
H463 H 0.0711 0.29532 0.10067 0.0
C464 C 0.14844 0.39752 0.00484 0.0
C465 C 0.17532 0.40067 0.01631 0.0
C466 C 0.11853 0.384 0.01544 0.0
C467 C 0.1149 0.37353 0.03778 0.0
C468 C 0.14169 0.37661 0.0492 0.0
C469 C 0.17147 0.39002 0.03863 0.0
C470 C 0.08324 0.35892 0.04927 0.0
C471 C 0.07121 0.32868 0.05928 0.0
C472 C 0.06484 0.37435 0.05033 0.0
C473 C 0.07703 0.40719 0.04152 0.0
C474 C 0.10649 0.43261 0.0489 0.0
C475 C 0.11793 0.46347 0.04045 0.0
C476 C 0.1 0.46927 0.02475 0.0
C477 C 0.07054 0.44423 0.0175 0.0
C478 C 0.05901 0.4133 0.02587 0.0
C479 C 0.9614 0.29377 0.11788 0.0
C480 C 0.93304 0.28694 0.10672 0.0
C481 C 0.99057 0.30739 0.10636 0.0
C482 C 0.99204 0.31465 0.08346 0.0
C483 C 0.96385 0.30824 0.07234 0.0
C484 C 0.93463 0.29433 0.0838 0.0
C485 C 0.02297 0.32883 0.07112 0.0
C486 C 0.0348 0.35892 0.06097 0.0
C487 C 0.04134 0.31342 0.07009 0.0
C488 C 0.02958 0.28103 0.07963 0.0
C489 C 0.99992 0.2552 0.07298 0.0
C490 C 0.98888 0.2248 0.08215 0.0
C491 C 0.00739 0.21987 0.09787 0.0
C492 C 0.03703 0.24532 0.10442 0.0
C493 C 0.04816 0.27579 0.09532 0.0
H494 H 0.99881 0.1963 0.10495 0.0
H495 H 0.10888 0.49318 0.01823 0.0
H496 H 0.76035 0.18241 0.19025 0.0
H497 H 0.724 0.1309 0.20785 0.0
H498 H 0.77607 0.08959 0.17741 0.0
H499 H 0.81189 0.14055 0.15942 0.0
H500 H 0.71386 0.04713 0.1778 0.0
H501 H 0.79148 0.11929 0.23163 0.0
H502 H 0.8193 0.16958 0.2531 0.0
H503 H 0.73011 0.15058 0.28213 0.0
H504 H 0.70168 0.10031 0.26062 0.0
H505 H 0.68451 0.91902 0.24958 0.0
H506 H 0.70915 0.96927 0.22869 0.0
H507 H 0.64949 0.99821 0.26351 0.0
H508 H 0.62454 0.94792 0.28435 0.0
H509 H 0.71004 0.0471 0.26078 0.0
H510 H 0.63312 0.97212 0.20967 0.0
H511 H 0.60538 0.92202 0.18803 0.0
H512 H 0.6928 0.94629 0.15368 0.0
H513 H 0.72119 0.99636 0.17535 0.0
C514 C 0.76364 0.16219 0.1869 0.0
C515 C 0.78928 0.16576 0.17357 0.0
C516 C 0.74298 0.13279 0.19714 0.0
C517 C 0.74769 0.10648 0.19436 0.0
C518 C 0.772 0.10951 0.17994 0.0
C519 C 0.79255 0.13878 0.16967 0.0
C520 C 0.72884 0.0764 0.20743 0.0
C521 C 0.71319 0.04712 0.19594 0.0
C522 C 0.72729 0.07633 0.23111 0.0
C523 C 0.74442 0.10623 0.24435 0.0
C524 C 0.77778 0.12593 0.2425 0.0
C525 C 0.79366 0.15443 0.25467 0.0
C526 C 0.77647 0.16334 0.26889 0.0
C527 C 0.74337 0.14369 0.27106 0.0
C528 C 0.72737 0.11517 0.25891 0.0
C529 C 0.67641 0.93591 0.2527 0.0
C530 C 0.6524 0.9292 0.26866 0.0
C531 C 0.69056 0.96471 0.24073 0.0
C532 C 0.68091 0.98742 0.24428 0.0
C533 C 0.65736 0.9811 0.26046 0.0
C534 C 0.64319 0.95229 0.27246 0.0
C535 C 0.69552 0.01776 0.23115 0.0
C536 C 0.71038 0.04708 0.24263 0.0
C537 C 0.69636 0.01788 0.20745 0.0
C538 C 0.67933 0.98788 0.19427 0.0
C539 C 0.64648 0.96667 0.19761 0.0
C540 C 0.63063 0.93829 0.18532 0.0
C541 C 0.64733 0.93094 0.16952 0.0
C542 C 0.6799 0.95201 0.16594 0.0
C543 C 0.69588 0.98041 0.1782 0.0
H544 H 0.63502 0.90896 0.16003 0.0
H545 H 0.7888 0.18543 0.27827 0.0
H546 H 0.68669 0.64444 0.46899 0.0
H547 H 0.66391 0.67153 0.44804 0.0
H548 H 0.73219 0.69234 0.39511 0.0
H549 H 0.75597 0.66622 0.41611 0.0
H550 H 0.69091 0.73432 0.43209 0.0
H551 H 0.69211 0.68194 0.34524 0.0
H552 H 0.68884 0.63324 0.32929 0.0
H553 H 0.63647 0.5793 0.38694 0.0
H554 H 0.63901 0.62754 0.40307 0.0
H555 H 0.68375 0.82503 0.34244 0.0
H556 H 0.69769 0.79069 0.36371 0.0
H557 H 0.59857 0.7167 0.36537 0.0
H558 H 0.58404 0.7514 0.34436 0.0
H559 H 0.64736 0.69648 0.35592 0.0
H560 H 0.61988 0.75398 0.40842 0.0
H561 H 0.62197 0.80233 0.42392 0.0
H562 H 0.72256 0.84354 0.43627 0.0
H563 H 0.72124 0.79571 0.42034 0.0
C564 C 0.69736 0.65503 0.45308 0.0
C565 C 0.7233 0.65269 0.44435 0.0
C566 C 0.68408 0.67049 0.44105 0.0
C567 C 0.69607 0.68363 0.4199 0.0
C568 C 0.72222 0.68193 0.41127 0.0
C569 C 0.73573 0.66678 0.42334 0.0
C570 C 0.68117 0.69891 0.40671 0.0
C571 C 0.68128 0.72596 0.41549 0.0
C572 C 0.66813 0.68773 0.38516 0.0
C573 C 0.66602 0.65845 0.37544 0.0
C574 C 0.67977 0.65965 0.35446 0.0
C575 C 0.67806 0.63213 0.3454 0.0
C576 C 0.66254 0.60322 0.35713 0.0
C577 C 0.64859 0.60173 0.37791 0.0
C578 C 0.6502 0.62917 0.38704 0.0
C579 C 0.66482 0.80131 0.34699 0.0
C580 C 0.63268 0.79107 0.34175 0.0
C581 C 0.6729 0.78175 0.35923 0.0
C582 C 0.64915 0.75134 0.36628 0.0
C583 C 0.61723 0.74018 0.36009 0.0
C584 C 0.60899 0.76 0.34807 0.0
C585 C 0.65788 0.73224 0.3811 0.0
C586 C 0.65674 0.70461 0.3726 0.0
C587 C 0.66972 0.74273 0.40298 0.0
C588 C 0.67051 0.77133 0.41298 0.0
C589 C 0.64252 0.77345 0.41424 0.0
C590 C 0.64355 0.80076 0.42313 0.0
C591 C 0.67239 0.82602 0.43104 0.0
C592 C 0.70024 0.82397 0.43012 0.0
C593 C 0.69936 0.79675 0.42116 0.0
H594 H 0.67314 0.84714 0.43791 0.0
H595 H 0.66127 0.58195 0.35009 0.0
H596 H 0.09628 0.75273 0.57623 0.0
H597 H 0.04617 0.72724 0.55549 0.0
H598 H 0.99806 0.66684 0.61214 0.0
H599 H 0.04793 0.69278 0.63339 0.0
H600 H 0.98062 0.63381 0.57046 0.0
H601 H 0.98908 0.72826 0.60426 0.0
H602 H 0.01577 0.78579 0.61323 0.0
H603 H 0.02164 0.80844 0.54327 0.0
H604 H 0.99538 0.75102 0.53387 0.0
H605 H 0.81973 0.58595 0.53805 0.0
H606 H 0.87123 0.60268 0.55599 0.0
H607 H 0.91834 0.67742 0.5067 0.0
H608 H 0.86674 0.66167 0.48941 0.0
H609 H 0.93671 0.70208 0.54522 0.0
H610 H 0.92743 0.60799 0.51079 0.0
H611 H 0.9012 0.55062 0.50138 0.0
H612 H 0.89733 0.52707 0.57104 0.0
H613 H 0.92318 0.58431 0.58089 0.0
C614 C 0.07517 0.73421 0.58446 0.0
C615 C 0.07642 0.72514 0.60669 0.0
C616 C 0.04648 0.71947 0.57245 0.0
C617 C 0.01833 0.69526 0.5823 0.0
C618 C 0.01954 0.68539 0.60418 0.0
C619 C 0.0482 0.70028 0.6163 0.0
C620 C 0.98741 0.68142 0.5701 0.0
C621 C 0.97077 0.6486 0.56509 0.0
C622 C 0.97492 0.70084 0.56274 0.0
C623 C 0.99057 0.73537 0.56836 0.0
C624 C 0.99631 0.74552 0.59078 0.0
C625 C 0.01131 0.77811 0.59595 0.0
C626 C 0.02047 0.80077 0.57883 0.0
C627 C 0.01457 0.79087 0.55651 0.0
C628 C 0.99961 0.75831 0.55126 0.0
C629 C 0.84118 0.60545 0.53073 0.0
C630 C 0.83919 0.62259 0.51235 0.0
C631 C 0.87071 0.61501 0.541 0.0
C632 C 0.8989 0.64137 0.53274 0.0
C633 C 0.89702 0.6572 0.51356 0.0
C634 C 0.86751 0.64806 0.50358 0.0
C635 C 0.92983 0.65433 0.54507 0.0
C636 C 0.94648 0.68712 0.55031 0.0
C637 C 0.94233 0.63484 0.55247 0.0
C638 C 0.92698 0.60043 0.54658 0.0
C639 C 0.92079 0.59057 0.52411 0.0
C640 C 0.90602 0.55807 0.5187 0.0
C641 C 0.89753 0.53521 0.5356 0.0
C642 C 0.90389 0.54481 0.55796 0.0
C643 C 0.91863 0.57728 0.56346 0.0
H644 H 0.88608 0.51007 0.53138 0.0
H645 H 0.03208 0.82598 0.58286 0.0
H646 H 0.19982 0.87201 0.669 0.0
H647 H 0.23803 0.9217 0.68742 0.0
H648 H 0.28814 0.87578 0.71376 0.0
H649 H 0.2497 0.82563 0.69525 0.0
H650 H 0.27374 0.90679 0.74636 0.0
H651 H 0.32371 0.93319 0.67472 0.0
H652 H 0.3266 0.93896 0.63366 0.0
H653 H 0.29296 0.00605 0.63788 0.0
H654 H 0.28942 1.00034 0.67895 0.0
H655 H 0.388 0.05521 0.79673 0.0
H656 H 0.36328 0.00571 0.77487 0.0
H657 H 0.30916 0.03928 0.73773 0.0
H658 H 0.33404 0.08885 0.75937 0.0
H659 H 0.33217 0.01342 0.71008 0.0
H660 H 0.2759 0.98228 0.78056 0.0
H661 H 0.27104 0.97589 0.82157 0.0
H662 H 0.31473 0.91725 0.81941 0.0
H663 H 0.32025 0.92365 0.7784 0.0
C664 C 0.21934 0.8726 0.67832 0.0
C665 C 0.22176 0.84489 0.6806 0.0
C666 C 0.24125 0.9011 0.68883 0.0
C667 C 0.26608 0.90259 0.70193 0.0
C668 C 0.26922 0.87522 0.70369 0.0
C669 C 0.24741 0.84667 0.69295 0.0
C670 C 0.28706 0.9321 0.71496 0.0
C671 C 0.28713 0.93005 0.7384 0.0
C672 C 0.3039 0.96255 0.70465 0.0
C673 C 0.3061 0.96616 0.67993 0.0
C674 C 0.3167 0.949 0.66689 0.0
C675 C 0.31849 0.95229 0.64361 0.0
C676 C 0.30992 0.97282 0.63317 0.0
C677 C 0.29959 0.99015 0.64599 0.0
C678 C 0.29773 0.98693 0.66928 0.0
C679 C 0.3706 0.05191 0.78407 0.0
C680 C 0.36288 0.07597 0.77989 0.0
C681 C 0.35651 0.02359 0.77152 0.0
C682 C 0.33406 0.01851 0.75473 0.0
C683 C 0.32647 0.04259 0.7505 0.0
C684 C 0.34072 0.07096 0.7629 0.0
C685 C 0.31831 0.98822 0.74152 0.0
C686 C 0.3192 0.99014 0.71805 0.0
C687 C 0.30217 0.95766 0.75181 0.0
C688 C 0.29884 0.95377 0.77645 0.0
C689 C 0.28471 0.96824 0.78886 0.0
C690 C 0.2818 0.96458 0.8121 0.0
C691 C 0.29267 0.94627 0.8231 0.0
C692 C 0.30639 0.93149 0.81087 0.0
C693 C 0.30941 0.93512 0.78763 0.0
H694 H 0.29038 0.94345 0.84109 0.0
H695 H 0.31132 0.97533 0.61514 0.0
H696 H 0.82216 0.64421 0.93479 0.0
H697 H 0.78692 0.661 0.91797 0.0
H698 H 0.73086 0.63551 0.97864 0.0
H699 H 0.76553 0.61685 0.99513 0.0
H700 H 0.69271 0.62296 0.94378 0.0
H701 H 0.78959 0.71435 0.96712 0.0
H702 H 0.84794 0.74958 0.97053 0.0
H703 H 0.85577 0.76329 0.89932 0.0
H704 H 0.79749 0.72777 0.89544 0.0
H705 H 0.63084 0.72701 0.91405 0.0
H706 H 0.65937 0.70404 0.93365 0.0
H707 H 0.70739 0.70612 0.87228 0.0
H708 H 0.67872 0.72884 0.8526 0.0
H709 H 0.74827 0.73188 0.9106 0.0
H710 H 0.64954 0.63797 0.88856 0.0
H711 H 0.59085 0.60409 0.88687 0.0
H712 H 0.5864 0.59793 0.95859 0.0
H713 H 0.64507 0.6322 0.96071 0.0
C714 C 0.80192 0.64158 0.94437 0.0
C715 C 0.79645 0.6293 0.96621 0.0
C716 C 0.78195 0.65149 0.93484 0.0
C717 C 0.75676 0.65051 0.94725 0.0
C718 C 0.7503 0.63678 0.96879 0.0
C719 C 0.77 0.6261 0.97819 0.0
C720 C 0.7384 0.66516 0.93788 0.0
C721 C 0.70487 0.64696 0.93687 0.0
C722 C 0.75414 0.6965 0.92871 0.0
C723 C 0.78918 0.71821 0.93098 0.0
C724 C 0.80377 0.72474 0.95217 0.0
C725 C 0.83683 0.74477 0.95419 0.0
C726 C 0.85556 0.75862 0.93515 0.0
C727 C 0.84123 0.75253 0.91405 0.0
C728 C 0.80818 0.73249 0.91194 0.0
C729 C 0.64764 0.72276 0.9048 0.0
C730 C 0.65264 0.72978 0.8818 0.0
C731 C 0.66372 0.70942 0.91596 0.0
C732 C 0.68536 0.70323 0.90439 0.0
C733 C 0.69073 0.71064 0.88151 0.0
C734 C 0.67429 0.72349 0.87027 0.0
C735 C 0.70282 0.68944 0.91612 0.0
C736 C 0.7362 0.70795 0.91765 0.0
C737 C 0.68689 0.6587 0.92608 0.0
C738 C 0.65166 0.63795 0.9248 0.0
C739 C 0.63603 0.62964 0.90398 0.0
C740 C 0.60277 0.61031 0.90294 0.0
C741 C 0.5849 0.59895 0.92261 0.0
C742 C 0.60027 0.6068 0.94336 0.0
C743 C 0.63352 0.62616 0.94449 0.0
H744 H 0.55915 0.58399 0.92177 0.0
H745 H 0.88115 0.7741 0.93675 0.0
H746 H 0.13792 0.80136 0.16418 0.0
H747 H 0.0877 0.76447 0.14564 0.0
H748 H 0.13612 0.72574 0.1072 0.0
H749 H 0.18664 0.76263 0.12581 0.0
H750 H 0.10079 0.7442 0.08096 0.0
H751 H 0.08365 0.68016 0.14609 0.0
H752 H 0.08109 0.66891 0.18651 0.0
H753 H 0.00773 0.69369 0.19456 0.0
H754 H 0.01016 0.70555 0.15422 0.0
H755 H 0.95732 0.63323 0.02696 0.0
H756 H 0.00619 0.65546 0.04896 0.0
H757 H 0.96545 0.69135 0.09724 0.0
H758 H 0.9158 0.66767 0.07606 0.0
H759 H 0.99821 0.66972 0.11834 0.0
H760 H 0.01894 0.73952 0.05531 0.0
H761 H 0.02174 0.75331 0.01531 0.0
H762 H 0.08862 0.72072 0.00386 0.0
H763 H 0.08589 0.70634 0.04376 0.0
C764 C 0.13782 0.78462 0.15207 0.0
C765 C 0.16629 0.78497 0.14647 0.0
C766 C 0.10904 0.76346 0.14152 0.0
C767 C 0.1081 0.74226 0.12506 0.0
C768 C 0.13629 0.74186 0.11988 0.0
C769 C 0.16509 0.76282 0.13063 0.0
C770 C 0.07817 0.7224 0.11221 0.0
C771 C 0.07848 0.72739 0.08905 0.0
C772 C 0.04889 0.70118 0.12286 0.0
C773 C 0.04727 0.69398 0.14714 0.0
C774 C 0.06715 0.68346 0.1565 0.0
C775 C 0.06569 0.67693 0.1794 0.0
C776 C 0.04431 0.68064 0.1931 0.0
C777 C 0.02429 0.69084 0.18392 0.0
C778 C 0.02567 0.69743 0.16103 0.0
C779 C 0.95833 0.64531 0.04242 0.0
C780 C 0.93229 0.64865 0.04951 0.0
C781 C 0.98661 0.6584 0.05491 0.0
C782 C 0.98986 0.67567 0.07459 0.0
C783 C 0.96368 0.67829 0.08207 0.0
C784 C 0.93527 0.66493 0.06973 0.0
C785 C 0.02072 0.69178 0.08708 0.0
C786 C 0.02058 0.6862 0.11018 0.0
C787 C 0.05016 0.71278 0.07642 0.0
C788 C 0.05193 0.72152 0.05245 0.0
C789 C 0.03406 0.73508 0.04422 0.0
C790 C 0.03566 0.74303 0.02158 0.0
C791 C 0.05526 0.7378 0.00704 0.0
C792 C 0.07339 0.7247 0.01513 0.0
C793 C 0.07184 0.71666 0.03776 0.0
H794 H 0.05647 0.74397 0.98951 0.0
H795 H 0.04321 0.67557 0.21082 0.0
H796 H 0.38945 0.15959 0.32692 0.0
H797 H 0.36002 0.10316 0.31515 0.0
H798 H 0.38089 0.13249 0.24614 0.0
H799 H 0.4101 0.18822 0.25757 0.0
H800 H 0.31759 0.08881 0.25265 0.0
H801 H 0.42085 0.10222 0.27262 0.0
H802 H 0.46565 0.11503 0.29829 0.0
H803 H 0.40185 0.04067 0.34302 0.0
H804 H 0.35656 0.02771 0.31773 0.0
H805 H 0.28998 0.95563 0.18886 0.0
H806 H 0.31303 0.00667 0.20837 0.0
H807 H 0.28933 0.9575 0.27184 0.0
H808 H 0.26727 0.90615 0.25236 0.0
H809 H 0.34833 0.00822 0.2732 0.0
H810 H 0.246 0.9908 0.25137 0.0
H811 H 0.20104 0.97788 0.22584 0.0
H812 H 0.26186 0.05957 0.18531 0.0
H813 H 0.30732 0.07274 0.21042 0.0
C814 C 0.38791 0.15393 0.30927 0.0
C815 C 0.40217 0.1785 0.29322 0.0
C816 C 0.37111 0.1217 0.30257 0.0
C817 C 0.3682 0.1136 0.27973 0.0
C818 C 0.38263 0.13812 0.26382 0.0
C819 C 0.39949 0.17008 0.27045 0.0
C820 C 0.34988 0.07979 0.27197 0.0
C821 C 0.3244 0.07122 0.25706 0.0
C822 C 0.35807 0.05653 0.27827 0.0
C823 C 0.38527 0.06427 0.29344 0.0
C824 C 0.41633 0.0888 0.28803 0.0
C825 C 0.44182 0.09605 0.30249 0.0
C826 C 0.43658 0.07875 0.32231 0.0
C827 C 0.40585 0.0541 0.32769 0.0
C828 C 0.38027 0.04678 0.3133 0.0
C829 C 0.2898 0.95553 0.20696 0.0
C830 C 0.27674 0.92659 0.21896 0.0
C831 C 0.30272 0.98483 0.21814 0.0
C832 C 0.30258 0.98603 0.24162 0.0
C833 C 0.28961 0.95724 0.25372 0.0
C834 C 0.27671 0.92783 0.24252 0.0
C835 C 0.31654 0.01746 0.25335 0.0
C836 C 0.34114 0.0256 0.26903 0.0
C837 C 0.30746 0.04037 0.24783 0.0
C838 C 0.28014 0.03263 0.23271 0.0
C839 C 0.24985 0.00589 0.23693 0.0
C840 C 0.22427 0.99854 0.22254 0.0
C841 C 0.22861 0.01786 0.20394 0.0
C842 C 0.25853 0.04462 0.19972 0.0
C843 C 0.28421 0.05206 0.21404 0.0
H844 H 0.20877 0.01212 0.19282 0.0
H845 H 0.45635 0.08438 0.33348 0.0
H846 H 0.24026 0.42012 0.45376 0.0
H847 H 0.27406 0.40234 0.43541 0.0
H848 H 0.23595 0.31993 0.47877 0.0
H849 H 0.20192 0.33737 0.49709 0.0
H850 H 0.30219 0.34685 0.47044 0.0
H851 H 0.20348 0.30685 0.42863 0.0
H852 H 0.16126 0.31152 0.40877 0.0
H853 H 0.23149 0.38144 0.3644 0.0
H854 H 0.2741 0.37669 0.38385 0.0
H855 H 0.32982 0.23813 0.40815 0.0
H856 H 0.30551 0.26411 0.4289 0.0
H857 H 0.33666 0.33721 0.37812 0.0
H858 H 0.35999 0.3107 0.35683 0.0
H859 H 0.27729 0.31892 0.39023 0.0
H860 H 0.37528 0.35133 0.42916 0.0
H861 H 0.41595 0.34379 0.44879 0.0
H862 H 0.34738 0.28834 0.49953 0.0
H863 H 0.30614 0.29516 0.48003 0.0
C864 C 0.23965 0.39865 0.4598 0.0
C865 C 0.21823 0.38006 0.47684 0.0
C866 C 0.25882 0.38839 0.44916 0.0
C867 C 0.25721 0.35957 0.45552 0.0
C868 C 0.23753 0.34219 0.47355 0.0
C869 C 0.21808 0.3522 0.484 0.0
C870 C 0.27404 0.34623 0.44236 0.0
C871 C 0.29667 0.34056 0.45294 0.0
C872 C 0.26725 0.33852 0.41944 0.0
C873 C 0.24191 0.34166 0.40779 0.0
C874 C 0.2099 0.32335 0.41471 0.0
C875 C 0.18591 0.32595 0.4035 0.0
C876 C 0.1937 0.34699 0.38545 0.0
C877 C 0.2255 0.36523 0.37843 0.0
C878 C 0.24955 0.36247 0.38946 0.0
C879 C 0.33125 0.25951 0.40121 0.0
C880 C 0.34709 0.27231 0.38079 0.0
C881 C 0.31764 0.27462 0.41328 0.0
C882 C 0.31973 0.30301 0.40532 0.0
C883 C 0.33493 0.31549 0.38473 0.0
C884 C 0.34849 0.30038 0.37263 0.0
C885 C 0.30558 0.31937 0.41826 0.0
C886 C 0.28328 0.32555 0.40764 0.0
C887 C 0.31276 0.32752 0.44116 0.0
C888 C 0.33754 0.32353 0.45302 0.0
C889 C 0.36881 0.33733 0.44442 0.0
C890 C 0.39197 0.33322 0.45554 0.0
C891 C 0.38424 0.31554 0.47537 0.0
C892 C 0.35333 0.30201 0.48416 0.0
C893 C 0.33006 0.30601 0.47309 0.0
H894 H 0.4022 0.31238 0.48395 0.0
H895 H 0.17509 0.34904 0.37683 0.0
H896 H 0.83556 0.22417 0.64626 0.0
H897 H 0.89249 0.2544 0.63547 0.0
H898 H 0.86541 0.2504 0.56632 0.0
H899 H 0.80935 0.22112 0.57674 0.0
H900 H 0.91039 0.23034 0.57371 0.0
H901 H 0.89164 0.31741 0.59306 0.0
H902 H 0.8765 0.34766 0.6187 0.0
H903 H 0.95144 0.36124 0.66385 0.0
H904 H 0.96673 0.33065 0.63859 0.0
H905 H 0.04356 0.33734 0.5106 0.0
H906 H 0.99199 0.30885 0.52941 0.0
H907 H 0.03874 0.33855 0.59348 0.0
H908 H 0.09042 0.36852 0.57476 0.0
H909 H 0.98668 0.34309 0.59394 0.0
H910 H 0.00938 0.26115 0.57383 0.0
H911 H 0.02494 0.23021 0.54921 0.0
H912 H 0.94341 0.20503 0.50743 0.0
H913 H 0.92759 0.23619 0.53163 0.0
C914 C 0.84182 0.23006 0.62881 0.0
C915 C 0.81779 0.22005 0.6124 0.0
C916 C 0.87431 0.24728 0.62267 0.0
C917 C 0.88316 0.25445 0.60005 0.0
C918 C 0.85919 0.24494 0.58383 0.0
C919 C 0.82702 0.22821 0.58991 0.0
C920 C 0.91716 0.27113 0.59271 0.0
C921 C 0.92707 0.25504 0.57806 0.0
C922 C 0.93921 0.30299 0.59895 0.0
C923 C 0.93005 0.32139 0.61409 0.0
C924 C 0.90468 0.32657 0.60856 0.0
C925 C 0.89612 0.34384 0.623 0.0
C926 C 0.91292 0.35627 0.64294 0.0
C927 C 0.93839 0.35153 0.64843 0.0
C928 C 0.94703 0.33424 0.63406 0.0
C929 C 0.04304 0.3382 0.52867 0.0
C930 C 0.07148 0.35535 0.54104 0.0
C931 C 0.01341 0.32149 0.53947 0.0
C932 C 0.01138 0.32101 0.56295 0.0
C933 C 0.03961 0.33835 0.57538 0.0
C934 C 0.06929 0.35527 0.56458 0.0
C935 C 0.97974 0.30256 0.57436 0.0
C936 C 0.97026 0.31825 0.5898 0.0
C937 C 0.9581 0.27012 0.56904 0.0
C938 C 0.96744 0.25122 0.55447 0.0
C939 C 0.99489 0.2492 0.55931 0.0
C940 C 1.00374 0.23159 0.54543 0.0
C941 C 0.98521 0.21572 0.52674 0.0
C942 C 0.95775 0.21735 0.52191 0.0
C943 C 0.9488 0.23495 0.53571 0.0
H944 H 0.9921 0.2021 0.51602 0.0
H945 H 0.90627 0.36964 0.65409 0.0
H946 H 0.66888 0.86945 0.8269 0.0
H947 H 0.68496 0.91898 0.80637 0.0
H948 H 0.59779 0.87185 0.76797 0.0
H949 H 0.58144 0.822 0.78855 0.0
H950 H 0.65148 0.90273 0.74138 0.0
H951 H 0.60862 0.92884 0.80484 0.0
H952 H 0.60126 0.93542 0.84493 0.0
H953 H 0.70102 0.00506 0.85092 0.0
H954 H 0.7091 0.99856 0.81092 0.0
H955 H 0.68372 0.04308 0.68231 0.0
H956 H 0.65938 0.99531 0.70555 0.0
H957 H 0.73905 0.03957 0.75118 0.0
H958 H 0.76289 0.08824 0.7286 0.0
H959 H 0.68562 0.00948 0.77414 0.0
H960 H 0.72995 0.98128 0.71228 0.0
H961 H 0.73904 0.97442 0.67256 0.0
H962 H 0.63874 0.90844 0.66397 0.0
H963 H 0.62898 0.91524 0.70359 0.0
C964 C 0.65277 0.86975 0.81441 0.0
C965 C 0.62387 0.84174 0.80938 0.0
C966 C 0.662 0.89815 0.80269 0.0
C967 C 0.6426 0.89922 0.78561 0.0
C968 C 0.61315 0.87161 0.78108 0.0
C969 C 0.60371 0.84319 0.79299 0.0
C970 C 0.65433 0.92845 0.77151 0.0
C971 C 0.65835 0.92599 0.74847 0.0
C972 C 0.66428 0.95897 0.78085 0.0
C973 C 0.65951 0.963 0.80491 0.0
C974 C 0.62905 0.94536 0.81474 0.0
C975 C 0.62474 0.94912 0.83744 0.0
C976 C 0.65067 0.97059 0.85047 0.0
C977 C 0.68096 0.98841 0.84081 0.0
C978 C 0.68541 0.98473 0.81812 0.0
C979 C 0.69608 0.043 0.69736 0.0
C980 C 0.72544 0.0699 0.70344 0.0
C981 C 0.68219 0.01534 0.71057 0.0
C982 C 0.69749 0.01352 0.73004 0.0
C983 C 0.72674 0.04026 0.73622 0.0
C984 C 0.74056 0.06808 0.7231 0.0
C985 C 0.68297 0.98383 0.74397 0.0
C986 C 0.67851 0.98621 0.76699 0.0
C987 C 0.67288 0.95322 0.73465 0.0
C988 C 0.67869 0.94903 0.71084 0.0
C989 C 0.7098 0.9655 0.70188 0.0
C990 C 0.71508 0.96159 0.67939 0.0
C991 C 0.68947 0.94108 0.66574 0.0
C992 C 0.65854 0.92436 0.67456 0.0
C993 C 0.65312 0.92821 0.69703 0.0
H994 H 0.69361 0.93808 0.64833 0.0
H995 H 0.64728 0.97347 0.86804 0.0
H996 H 0.23075 0.72795 0.11272 0.0
H997 H 0.22643 0.67757 0.10009 0.0
H998 H 0.32633 0.7281 0.08194 0.0
H999 H 0.33076 0.77812 0.09444 0.0
H1000 H 0.29274 0.68674 0.05022 0.0
H1001 H 0.29972 0.68465 0.13043 0.0
H1002 H 0.2835 0.68687 0.16922 0.0
H1003 H 0.19144 0.60434 0.15716 0.0
H1004 H 0.20697 0.60194 0.11815 0.0
H1005 H 0.33967 0.57025 0.05159 0.0
H1006 H 0.33145 0.61457 0.062 0.0
H1007 H 0.22952 0.55022 0.06417 0.0
H1008 H 0.23766 0.5055 0.0537 0.0
H1009 H 0.25656 0.59455 0.102 0.0
H1010 H 0.25483 0.59458 0.0217 0.0
H1011 H 0.27559 0.59268 0.98437 0.0
H1012 H 0.36245 0.68043 0.99802 0.0
H1013 H 0.34247 0.68255 0.03562 0.0
C1014 C 0.25178 0.72825 0.10611 0.0
C1015 C 0.28107 0.75713 0.10455 0.0
C1016 C 0.24928 0.69947 0.09885 0.0
C1017 C 0.27611 0.699 0.09014 0.0
C1018 C 0.30523 0.72784 0.08842 0.0
C1019 C 0.3077 0.75652 0.09555 0.0
C1020 C 0.27441 0.66859 0.08317 0.0
C1021 C 0.2849 0.66665 0.06159 0.0
C1022 C 0.26368 0.64209 0.09783 0.0
C1023 C 0.25436 0.64336 0.1213 0.0
C1024 C 0.27592 0.66713 0.13599 0.0
C1025 C 0.26687 0.66841 0.15803 0.0
C1026 C 0.23642 0.64582 0.16563 0.0
C1027 C 0.21499 0.62186 0.15123 0.0
C1028 C 0.2239 0.62053 0.12916 0.0
C1029 C 0.31553 0.56544 0.05448 0.0
C1030 C 0.28931 0.5344 0.05187 0.0
C1031 C 0.31085 0.59081 0.0603 0.0
C1032 C 0.27988 0.58566 0.06375 0.0
C1033 C 0.2536 0.55463 0.06155 0.0
C1034 C 0.25826 0.52923 0.05543 0.0
C1035 C 0.27534 0.61307 0.06927 0.0
C1036 C 0.26378 0.61445 0.09054 0.0
C1037 C 0.28551 0.63925 0.05445 0.0
C1038 C 0.29722 0.6386 0.03156 0.0
C1039 C 0.27843 0.61338 0.0168 0.0
C1040 C 0.29006 0.61227 0.99558 0.0
C1041 C 0.32035 0.63638 0.98884 0.0
C1042 C 0.339 0.66175 0.00327 0.0
C1043 C 0.32752 0.66294 0.02453 0.0
H1044 H 0.32934 0.63543 0.97242 0.0
H1045 H 0.22945 0.64683 0.18269 0.0
H1046 H 0.7782 0.29174 0.25963 0.0
H1047 H 0.72835 0.286 0.27341 0.0
H1048 H 0.68063 0.2367 0.21284 0.0
H1049 H 0.73107 0.24414 0.19822 0.0
H1050 H 0.66304 0.27754 0.22213 0.0
H1051 H 0.66733 0.19722 0.26465 0.0
H1052 H 0.69078 0.17279 0.28871 0.0
H1053 H 0.70356 0.2386 0.34142 0.0
H1054 H 0.68058 0.26374 0.31755 0.0
H1055 H 0.51296 0.24199 0.27289 0.0
H1056 H 0.55472 0.2317 0.25839 0.0
H1057 H 0.62379 0.30467 0.30202 0.0
H1058 H 0.58236 0.31536 0.31618 0.0
H1059 H 0.62462 0.24335 0.2998 0.0
H1060 H 0.62482 0.32637 0.25283 0.0
H1061 H 0.59898 0.34739 0.22784 0.0
H1062 H 0.57371 0.26952 0.18232 0.0
H1063 H 0.59901 0.24777 0.20724 0.0
C1064 C 0.75729 0.27981 0.24907 0.0
C1065 C 0.75908 0.26872 0.22762 0.0
C1066 C 0.7285 0.27609 0.25719 0.0
C1067 C 0.70046 0.26048 0.24435 0.0
C1068 C 0.70188 0.24875 0.22313 0.0
C1069 C 0.73084 0.25281 0.21485 0.0
C1070 C 0.67027 0.25817 0.25269 0.0
C1071 C 0.65432 0.26936 0.23896 0.0
C1072 C 0.65876 0.24768 0.27469 0.0
C1073 C 0.67241 0.23252 0.28923 0.0
C1074 C 0.67533 0.20663 0.28131 0.0
C1075 C 0.68852 0.19264 0.29493 0.0
C1076 C 0.69872 0.20418 0.31656 0.0
C1077 C 0.69566 0.22969 0.32465 0.0
C1078 C 0.6825 0.2438 0.31109 0.0
C1079 C 0.53701 0.25553 0.27948 0.0
C1080 C 0.54458 0.27961 0.29548 0.0
C1081 C 0.56077 0.24971 0.2712 0.0
C1082 C 0.59229 0.2675 0.27913 0.0
C1083 C 0.59959 0.2907 0.29572 0.0
C1084 C 0.57603 0.29693 0.30366 0.0
C1085 C 0.61818 0.26329 0.26938 0.0
C1086 C 0.63321 0.25092 0.28287 0.0
C1087 C 0.62845 0.27205 0.24703 0.0
C1088 C 0.61343 0.28523 0.23203 0.0
C1089 C 0.61348 0.31356 0.2376 0.0
C1090 C 0.59899 0.32565 0.22343 0.0
C1091 C 0.58461 0.30974 0.20354 0.0
C1092 C 0.58479 0.28177 0.19775 0.0
C1093 C 0.59921 0.26957 0.21189 0.0
H1094 H 0.57342 0.31914 0.19259 0.0
H1095 H 0.70895 0.19332 0.32708 0.0
H1096 H 0.47307 0.72459 0.34059 0.0
H1097 H 0.42624 0.67268 0.34965 0.0
H1098 H 0.43461 0.70016 0.41907 0.0
H1099 H 0.48153 0.75188 0.41012 0.0
H1100 H 0.42135 0.63731 0.41323 0.0
H1101 H 0.38227 0.7066 0.3866 0.0
H1102 H 0.37786 0.74217 0.35896 0.0
H1103 H 0.34011 0.66628 0.31058 0.0
H1104 H 0.34469 0.63036 0.33788 0.0
H1105 H 0.26855 0.53227 0.45805 0.0
H1106 H 0.3191 0.5779 0.44572 0.0
H1107 H 0.2935 0.54939 0.37694 0.0
H1108 H 0.24249 0.50414 0.38928 0.0
H1109 H 0.31685 0.61039 0.37969 0.0
H1110 H 0.35178 0.53962 0.40552 0.0
H1111 H 0.35705 0.50304 0.43172 0.0
H1112 H 0.40372 0.57929 0.47932 0.0
H1113 H 0.39832 0.61624 0.45353 0.0
C1114 C 0.46523 0.71934 0.35782 0.0
C1115 C 0.48088 0.74235 0.37465 0.0
C1116 C 0.43835 0.68979 0.36295 0.0
C1117 C 0.42678 0.68269 0.385 0.0
C1118 C 0.44309 0.70516 0.40194 0.0
C1119 C 0.46974 0.73476 0.39679 0.0
C1120 C 0.397 0.65244 0.39044 0.0
C1121 C 0.39842 0.63147 0.40605 0.0
C1122 C 0.3673 0.64442 0.38051 0.0
C1123 C 0.36414 0.66589 0.36421 0.0
C1124 C 0.37324 0.69756 0.37002 0.0
C1125 C 0.37067 0.71778 0.35442 0.0
C1126 C 0.3588 0.70653 0.333 0.0
C1127 C 0.34935 0.67498 0.32717 0.0
C1128 C 0.3519 0.65468 0.3427 0.0
C1129 C 0.27391 0.53548 0.44033 0.0
C1130 C 0.2516 0.51456 0.42463 0.0
C1131 C 0.30286 0.56158 0.43326 0.0
C1132 C 0.31044 0.56696 0.41036 0.0
C1133 C 0.28827 0.54586 0.39468 0.0
C1134 C 0.25913 0.51999 0.40173 0.0
C1135 C 0.34096 0.59519 0.4028 0.0
C1136 C 0.33973 0.61589 0.38677 0.0
C1137 C 0.37092 0.60273 0.41212 0.0
C1138 C 0.3744 0.58064 0.42765 0.0
C1139 C 0.36297 0.54854 0.42163 0.0
C1140 C 0.36601 0.52774 0.4364 0.0
C1141 C 0.38065 0.53882 0.45719 0.0
C1142 C 0.39236 0.57074 0.46322 0.0
C1143 C 0.38935 0.59163 0.44852 0.0
H1144 H 0.38298 0.52268 0.4686 0.0
H1145 H 0.35685 0.72222 0.32094 0.0
H1146 H 0.67259 0.45255 0.56488 0.0
H1147 H 0.67454 0.40501 0.57611 0.0
H1148 H 0.77598 0.45387 0.5628 0.0
H1149 H 0.77394 0.50168 0.55113 0.0
H1150 H 0.74887 0.39401 0.54826 0.0
H1151 H 0.74739 0.44299 0.6168 0.0
H1152 H 0.72897 0.46831 0.64434 0.0
H1153 H 0.63755 0.38229 0.648 0.0
H1154 H 0.65525 0.35659 0.62022 0.0
H1155 H 0.76139 0.26996 0.60713 0.0
H1156 H 0.76888 0.32278 0.59745 0.0
H1157 H 0.66661 0.28327 0.59734 0.0
H1158 H 0.65906 0.23062 0.60694 0.0
H1159 H 0.70069 0.34187 0.62074 0.0
H1160 H 0.70325 0.29539 0.54932 0.0
H1161 H 0.72394 0.27111 0.52265 0.0
H1162 H 0.8173 0.3546 0.5263 0.0
H1163 H 0.79723 0.37921 0.55325 0.0
C1164 C 0.69539 0.45333 0.56455 0.0
C1165 C 0.72324 0.48104 0.55749 0.0
C1166 C 0.69649 0.42609 0.57097 0.0
C1167 C 0.72555 0.42604 0.57082 0.0
C1168 C 0.75331 0.4534 0.5632 0.0
C1169 C 0.75215 0.48066 0.55654 0.0
C1170 C 0.72657 0.39727 0.57863 0.0
C1171 C 0.73888 0.38297 0.56429 0.0
C1172 C 0.71336 0.38264 0.59951 0.0
C1173 C 0.70259 0.39794 0.61629 0.0
C1174 C 0.72328 0.42954 0.62335 0.0
C1175 C 0.71298 0.44395 0.63903 0.0
C1176 C 0.68209 0.42694 0.64788 0.0
C1177 C 0.66146 0.39545 0.64112 0.0
C1178 C 0.67163 0.38093 0.62542 0.0
C1179 C 0.74057 0.27268 0.60519 0.0
C1180 C 0.70963 0.24618 0.60769 0.0
C1181 C 0.74486 0.30275 0.59955 0.0
C1182 C 0.71828 0.30686 0.59656 0.0
C1183 C 0.68743 0.28059 0.59953 0.0
C1184 C 0.68313 0.2505 0.60486 0.0
C1185 C 0.72232 0.3384 0.59018 0.0
C1186 C 0.711 0.3532 0.60483 0.0
C1187 C 0.73683 0.35367 0.56978 0.0
C1188 C 0.74883 0.33897 0.55349 0.0
C1189 C 0.72825 0.30845 0.54458 0.0
C1190 C 0.73985 0.29466 0.52938 0.0
C1191 C 0.77194 0.31126 0.52284 0.0
C1192 C 0.79247 0.34174 0.53142 0.0
C1193 C 0.78099 0.35563 0.54664 0.0
H1194 H 0.78088 0.30054 0.51107 0.0
H1195 H 0.67416 0.43814 0.66002 0.0
H1196 H 0.24261 0.71521 0.74814 0.0
H1197 H 0.29448 0.722 0.75835 0.0
H1198 H 0.33378 0.76934 0.69544 0.0
H1199 H 0.28153 0.76133 0.68464 0.0
H1200 H 0.35158 0.72758 0.70272 0.0
H1201 H 0.35358 0.81122 0.74544 0.0
H1202 H 0.33369 0.83688 0.77155 0.0
H1203 H 0.33089 0.77541 0.82454 0.0
H1204 H 0.35033 0.74905 0.79867 0.0
H1205 H 0.50622 0.78296 0.77563 0.0
H1206 H 0.46276 0.79131 0.76261 0.0
H1207 H 0.40576 0.69072 0.7474 0.0
H1208 H 0.44891 0.68234 0.76019 0.0
H1209 H 0.40329 0.76926 0.77631 0.0
H1210 H 0.36025 0.67847 0.70238 0.0
H1211 H 0.3834 0.65802 0.67458 0.0
H1212 H 0.47447 0.74398 0.6807 0.0
H1213 H 0.45177 0.76514 0.70828 0.0
C1214 C 0.26218 0.72697 0.7364 0.0
C1215 C 0.25767 0.73755 0.71549 0.0
C1216 C 0.29203 0.73122 0.74241 0.0
C1217 C 0.31821 0.74652 0.72778 0.0
C1218 C 0.31397 0.75756 0.70704 0.0
C1219 C 0.28406 0.75318 0.70096 0.0
C1220 C 0.34943 0.74929 0.73368 0.0
C1221 C 0.36296 0.73687 0.71876 0.0
C1222 C 0.36482 0.76216 0.75437 0.0
C1223 C 0.35322 0.778 0.77005 0.0
C1224 C 0.34851 0.80301 0.76262 0.0
C1225 C 0.33734 0.81771 0.77739 0.0
C1226 C 0.33097 0.80775 0.79968 0.0
C1227 C 0.33582 0.7831 0.80726 0.0
C1228 C 0.34696 0.7683 0.79256 0.0
C1229 C 0.48439 0.76266 0.76954 0.0
C1230 C 0.48117 0.73204 0.76874 0.0
C1231 C 0.4596 0.76746 0.76208 0.0
C1232 C 0.43117 0.74175 0.75368 0.0
C1233 C 0.42774 0.7111 0.75327 0.0
C1234 C 0.4525 0.70634 0.76057 0.0
C1235 C 0.40469 0.74652 0.74566 0.0
C1236 C 0.39207 0.76031 0.76018 0.0
C1237 C 0.39057 0.73567 0.72435 0.0
C1238 C 0.40433 0.72327 0.70754 0.0
C1239 C 0.38517 0.69308 0.69771 0.0
C1240 C 0.39823 0.68135 0.68201 0.0
C1241 C 0.4304 0.69965 0.67592 0.0
C1242 C 0.44957 0.72977 0.68548 0.0
C1243 C 0.43663 0.74163 0.70117 0.0
H1244 H 0.44047 0.69051 0.66378 0.0
H1245 H 0.32233 0.81916 0.81109 0.0
H1246 H 0.77055 0.4435 0.94159 0.0
H1247 H 0.71864 0.39858 0.93104 0.0
H1248 H 0.67919 0.46147 0.92871 0.0
H1249 H 0.7313 0.50652 0.94005 0.0
H1250 H 0.63689 0.4067 0.94636 0.0
H1251 H 0.69932 0.4358 0.88009 0.0
H1252 H 0.74621 0.44985 0.85622 0.0
H1253 H 0.73561 0.35721 0.86784 0.0
H1254 H 0.68891 0.34275 0.89205 0.0
H1255 H 0.50061 0.28128 0.88611 0.0
H1256 H 0.5482 0.33305 0.89495 0.0
H1257 H 0.59871 0.28417 0.9143 0.0
H1258 H 0.55156 0.23279 0.9056 0.0
H1259 H 0.63281 0.33637 0.88435 0.0
H1260 H 0.57137 0.31081 0.95354 0.0
H1261 H 0.52271 0.29781 0.97504 0.0
H1262 H 0.5298 0.38635 0.95433 0.0
H1263 H 0.57828 0.39967 0.93243 0.0
C1264 C 0.75087 0.44778 0.9387 0.0
C1265 C 0.75504 0.47856 0.94129 0.0
C1266 C 0.72118 0.4221 0.93264 0.0
C1267 C 0.69512 0.42672 0.92848 0.0
C1268 C 0.69896 0.45732 0.93166 0.0
C1269 C 0.72867 0.48302 0.93811 0.0
C1270 C 0.66412 0.39946 0.92072 0.0
C1271 C 0.63596 0.39169 0.93254 0.0
C1272 C 0.66269 0.37977 0.90264 0.0
C1273 C 0.69072 0.38828 0.88802 0.0
C1274 C 0.70711 0.4185 0.87768 0.0
C1275 C 0.73365 0.42653 0.86407 0.0
C1276 C 0.74392 0.40446 0.86055 0.0
C1277 C 0.72764 0.37429 0.8706 0.0
C1278 C 0.7011 0.36615 0.88424 0.0
C1279 C 0.52191 0.28172 0.89228 0.0
C1280 C 0.52233 0.25303 0.89531 0.0
C1281 C 0.54896 0.3112 0.89738 0.0
C1282 C 0.57691 0.31236 0.90532 0.0
C1283 C 0.57737 0.28377 0.90822 0.0
C1284 C 0.55032 0.25441 0.90343 0.0
C1285 C 0.60607 0.34323 0.91041 0.0
C1286 C 0.63383 0.35169 0.89799 0.0
C1287 C 0.60693 0.36377 0.92761 0.0
C1288 C 0.57822 0.35606 0.94115 0.0
C1289 C 0.56242 0.3274 0.95344 0.0
C1290 C 0.5349 0.31999 0.96572 0.0
C1291 C 0.52311 0.34119 0.96599 0.0
C1292 C 0.53892 0.36993 0.95407 0.0
C1293 C 0.56643 0.37743 0.94174 0.0
H1294 H 0.50176 0.33538 0.97547 0.0
H1295 H 0.76447 0.41072 0.85001 0.0
H1296 H 0.32512 0.27023 0.26056 0.0
H1297 H 0.30463 0.28188 0.22648 0.0
H1298 H 0.4007 0.33575 0.20051 0.0
H1299 H 0.42128 0.32392 0.23424 0.0
H1300 H 0.36834 0.36784 0.19583 0.0
H1301 H 0.34977 0.26152 0.18135 0.0
H1302 H 0.328 0.20419 0.18939 0.0
H1303 H 0.23256 0.18934 0.18871 0.0
H1304 H 0.25382 0.24672 0.18098 0.0
H1305 H 0.34535 0.38652 0.08273 0.0
H1306 H 0.35881 0.36858 0.11704 0.0
H1307 H 0.25925 0.31761 0.13601 0.0
H1308 H 0.24535 0.33461 0.10118 0.0
H1309 H 0.28924 0.2834 0.14568 0.0
H1310 H 0.30738 0.389 0.1585 0.0
H1311 H 0.32891 0.44626 0.15035 0.0
H1312 H 0.42471 0.46252 0.15455 0.0
H1313 H 0.40374 0.40523 0.1624 0.0
C1314 C 0.34183 0.2843 0.2475 0.0
C1315 C 0.37486 0.29623 0.25016 0.0
C1316 C 0.3301 0.29097 0.22806 0.0
C1317 C 0.35115 0.30955 0.21094 0.0
C1318 C 0.38406 0.3215 0.21357 0.0
C1319 C 0.39579 0.31483 0.23292 0.0
C1320 C 0.33919 0.3171 0.19033 0.0
C1321 C 0.35128 0.34937 0.18475 0.0
C1322 C 0.31621 0.29298 0.17626 0.0
C1323 C 0.3034 0.25848 0.18084 0.0
C1324 C 0.32416 0.24609 0.18311 0.0
C1325 C 0.31191 0.21357 0.18757 0.0
C1326 C 0.27893 0.19315 0.18963 0.0
C1327 C 0.25811 0.2052 0.18716 0.0
C1328 C 0.27024 0.23771 0.18272 0.0
C1329 C 0.32618 0.37094 0.09392 0.0
C1330 C 0.29425 0.36206 0.08922 0.0
C1331 C 0.33397 0.36099 0.11366 0.0
C1332 C 0.31008 0.34222 0.12922 0.0
C1333 C 0.27805 0.33226 0.12426 0.0
C1334 C 0.2702 0.34218 0.10445 0.0
C1335 C 0.31891 0.33413 0.151 0.0
C1336 C 0.30615 0.30183 0.15684 0.0
C1337 C 0.34125 0.35822 0.16539 0.0
C1338 C 0.35397 0.39276 0.16086 0.0
C1339 C 0.33303 0.40474 0.15753 0.0
C1340 C 0.34514 0.43721 0.15298 0.0
C1341 C 0.37815 0.458 0.15188 0.0
C1342 C 0.39914 0.44638 0.15539 0.0
C1343 C 0.38716 0.41392 0.15991 0.0
H1344 H 0.38748 0.48313 0.14836 0.0
H1345 H 0.26949 0.16798 0.19308 0.0
H1346 H 0.12154 0.35175 0.3811 0.0
H1347 H 0.09091 0.32767 0.34724 0.0
H1348 H 1.00312 0.28852 0.38502 0.0
H1349 H 0.03374 0.31118 0.41937 0.0
H1350 H 0.99911 0.24753 0.35233 0.0
H1351 H 0.03166 0.35924 0.35817 0.0
H1352 H 0.07038 0.4167 0.36287 0.0
H1353 H 0.12002 0.41559 0.30353 0.0
H1354 H 0.08183 0.35796 0.29866 0.0
H1355 H 0.89136 0.2416 0.26875 0.0
H1356 H 0.9248 0.24942 0.30137 0.0
H1357 H 0.00829 0.28727 0.259 0.0
H1358 H 0.97486 0.27936 0.22615 0.0
H1359 H 0.01676 0.32662 0.29293 0.0
H1360 H 0.97951 0.21478 0.2853 0.0
H1361 H 0.93932 0.15769 0.28098 0.0
H1362 H 0.89663 0.15914 0.3437 0.0
H1363 H 0.9363 0.21638 0.34826 0.0
C1364 C 0.09579 0.33722 0.38245 0.0
C1365 C 0.08011 0.33361 0.40303 0.0
C1366 C 0.07827 0.32373 0.36296 0.0
C1367 C 0.04473 0.30685 0.36354 0.0
C1368 C 0.02901 0.30164 0.38418 0.0
C1369 C 0.04654 0.31489 0.40376 0.0
C1370 C 0.02611 0.29702 0.34245 0.0
C1371 C 1.00277 0.2648 0.33938 0.0
C1372 C 0.0313 0.31951 0.32541 0.0
C1373 C 0.0541 0.35423 0.32819 0.0
C1374 C 0.05096 0.3712 0.34621 0.0
C1375 C 0.0728 0.4038 0.3489 0.0
C1376 C 0.0977 0.41977 0.33355 0.0
C1377 C 0.10076 0.40318 0.31543 0.0
C1378 C 0.07902 0.37055 0.31269 0.0
C1379 C 0.91671 0.25078 0.26625 0.0
C1380 C 0.93047 0.25988 0.24483 0.0
C1381 C 0.93582 0.25527 0.28496 0.0
C1382 C 0.96902 0.26873 0.28261 0.0
C1383 C 0.9827 0.27685 0.26118 0.0
C1384 C 0.96361 0.27241 0.24245 0.0
C1385 C 0.98969 0.27705 0.3027 0.0
C1386 C 0.01334 0.30916 0.30568 0.0
C1387 C 0.98455 0.25446 0.31965 0.0
C1388 C 0.96076 0.21996 0.31704 0.0
C1389 C 0.96142 0.203 0.2981 0.0
C1390 C 0.93875 0.17059 0.29562 0.0
C1391 C 0.9154 0.15481 0.31203 0.0
C1392 C 0.91472 0.1714 0.33099 0.0
C1393 C 0.93732 0.20382 0.33355 0.0
H1394 H 0.89786 0.12972 0.31007 0.0
H1395 H 0.11459 0.44501 0.33566 0.0
H1396 H 0.68983 0.91409 0.412 0.0
H1397 H 0.71128 0.94559 0.4463 0.0
H1398 H 0.63842 0.97237 0.44366 0.0
H1399 H 0.61679 0.94096 0.40974 0.0
H1400 H 0.69674 0.02305 0.45367 0.0
H1401 H 0.63071 0.91187 0.47724 0.0
H1402 H 0.61667 0.85519 0.47704 0.0
H1403 H 0.70971 0.88134 0.50259 0.0
H1404 H 0.72445 0.93826 0.50263 0.0
H1405 H 0.67247 0.06667 0.55871 0.0
H1406 H 0.66601 0.03659 0.52457 0.0
H1407 H 0.74493 0.02359 0.54365 0.0
H1408 H 0.7509 0.05288 0.57853 0.0
H1409 H 0.69495 0.96891 0.52476 0.0
H1410 H 0.75842 0.07921 0.50632 0.0
H1411 H 0.77339 0.1361 0.50571 0.0
H1412 H 0.68736 0.11249 0.46979 0.0
H1413 H 0.6716 0.05536 0.47048 0.0
C1414 C 0.67846 0.92677 0.41874 0.0
C1415 C 0.65172 0.92517 0.40807 0.0
C1416 C 0.69076 0.94476 0.43828 0.0
C1417 C 0.67633 0.96118 0.44753 0.0
C1418 C 0.65005 0.96007 0.43669 0.0
C1419 C 0.6378 0.9422 0.41722 0.0
C1420 C 0.68758 0.97882 0.46891 0.0
C1421 C 0.69629 0.01122 0.46922 0.0
C1422 C 0.68803 0.96359 0.48905 0.0
C1423 C 0.67878 0.92931 0.48973 0.0
C1424 C 0.64821 0.90553 0.48273 0.0
C1425 C 0.64013 0.87337 0.48264 0.0
C1426 C 0.66232 0.86468 0.48973 0.0
C1427 C 0.69257 0.88812 0.49706 0.0
C1428 C 0.70079 0.92032 0.49713 0.0
C1429 C 0.68809 0.05691 0.55595 0.0
C1430 C 0.71228 0.0623 0.57135 0.0
C1431 C 0.68458 0.04 0.53628 0.0
C1432 C 0.70537 0.0284 0.53141 0.0
C1433 C 0.72882 0.03261 0.54706 0.0
C1434 C 0.73234 0.04955 0.56686 0.0
C1435 C 0.70289 0.01283 0.50958 0.0
C1436 C 0.69597 0.98091 0.50917 0.0
C1437 C 0.70422 0.02853 0.48926 0.0
C1438 C 0.71375 0.06294 0.48857 0.0
C1439 C 0.74259 0.08611 0.49841 0.0
C1440 C 0.75123 0.11841 0.49803 0.0
C1441 C 0.73132 0.1279 0.48774 0.0
C1442 C 0.70276 0.1051 0.47776 0.0
C1443 C 0.69398 0.07275 0.47811 0.0
H1444 H 0.73804 0.15292 0.48748 0.0
H1445 H 0.65606 0.83978 0.48958 0.0
H1446 H 0.7574 0.64477 0.6069 0.0
H1447 H 0.74628 0.66688 0.64016 0.0
H1448 H 0.7124 0.71683 0.59855 0.0
H1449 H 0.72339 0.69463 0.56508 0.0
H1450 H 0.76303 0.72459 0.65773 0.0
H1451 H 0.64516 0.70951 0.62273 0.0
H1452 H 0.60502 0.67842 0.5938 0.0
H1453 H 0.62779 0.60329 0.59931 0.0
H1454 H 0.66769 0.63372 0.62847 0.0
H1455 H 0.69287 0.78119 0.73887 0.0
H1456 H 0.7153 0.77264 0.70453 0.0
H1457 H 0.64588 0.67185 0.70719 0.0
H1458 H 0.6225 0.68036 0.74071 0.0
H1459 H 0.64886 0.69339 0.66662 0.0
H1460 H 0.72514 0.70166 0.72195 0.0
H1461 H 0.76424 0.7275 0.7524 0.0
H1462 H 0.8226 0.80707 0.70943 0.0
H1463 H 0.7836 0.78187 0.6788 0.0
C1464 C 0.74836 0.66112 0.60476 0.0
C1465 C 0.74104 0.66778 0.58336 0.0
C1466 C 0.74198 0.67371 0.62382 0.0
C1467 C 0.72813 0.69315 0.62185 0.0
C1468 C 0.72266 0.70149 0.60045 0.0
C1469 C 0.72887 0.68875 0.58137 0.0
C1470 C 0.71659 0.70192 0.64216 0.0
C1471 C 0.73814 0.71805 0.65963 0.0
C1472 C 0.684 0.69285 0.64479 0.0
C1473 C 0.65965 0.67407 0.62757 0.0
C1474 C 0.64149 0.68631 0.6178 0.0
C1475 C 0.6188 0.66881 0.60137 0.0
C1476 C 0.61394 0.63896 0.59466 0.0
C1477 C 0.63165 0.62647 0.60446 0.0
C1478 C 0.65432 0.64383 0.62093 0.0
C1479 C 0.68236 0.75723 0.73209 0.0
C1480 C 0.65598 0.73144 0.74266 0.0
C1481 C 0.69537 0.75234 0.71257 0.0
C1482 C 0.68239 0.72156 0.70336 0.0
C1483 C 0.6563 0.69581 0.71399 0.0
C1484 C 0.6432 0.70067 0.73337 0.0
C1485 C 0.69523 0.71596 0.68234 0.0
C1486 C 0.67388 0.70042 0.66466 0.0
C1487 C 0.72782 0.72491 0.6798 0.0
C1488 C 0.75129 0.74005 0.69817 0.0
C1489 C 0.74618 0.72479 0.71905 0.0
C1490 C 0.76835 0.7393 0.73633 0.0
C1491 C 0.79584 0.76895 0.73287 0.0
C1492 C 0.80127 0.78412 0.7121 0.0
C1493 C 0.77915 0.76973 0.69477 0.0
H1494 H 0.81298 0.78014 0.74627 0.0
H1495 H 0.5964 0.62548 0.58191 0.0
H1496 H 0.12176 0.74003 0.77211 0.0
H1497 H 0.0886 0.72761 0.80567 0.0
H1498 H 0.0166 0.73489 0.76769 0.0
H1499 H 0.04968 0.74716 0.73383 0.0
H1500 H 0.03198 0.76368 0.8149 0.0
H1501 H 1.00064 0.66667 0.77273 0.0
H1502 H 0.01163 0.6289 0.75217 0.0
H1503 H 0.05476 0.61535 0.81087 0.0
H1504 H 0.04451 0.6535 0.83167 0.0
H1505 H 0.90548 0.67751 0.89359 0.0
H1506 H 0.93816 0.69982 0.86003 0.0
H1507 H 1.00133 0.66641 0.88252 0.0
H1508 H 0.9677 0.64212 0.91511 0.0
H1509 H 0.98835 0.65192 0.84127 0.0
H1510 H 0.02132 0.74774 0.88391 0.0
H1511 H 0.01387 0.78719 0.90535 0.0
H1512 H 0.9716 0.80492 0.84789 0.0
H1513 H 0.97842 0.76523 0.82618 0.0
C1514 C 0.09922 0.73975 0.771 0.0
C1515 C 0.08823 0.74453 0.7504 0.0
C1516 C 0.0803 0.73256 0.79014 0.0
C1517 C 0.05023 0.7303 0.78904 0.0
C1518 C 0.03984 0.73668 0.7688 0.0
C1519 C 0.0586 0.74346 0.74952 0.0
C1520 C 0.0286 0.71821 0.80855 0.0
C1521 C 0.02198 0.73916 0.82058 0.0
C1522 C 0.01629 0.68644 0.81607 0.0
C1523 C 0.02209 0.66318 0.80368 0.0
C1524 C 0.01272 0.65586 0.78119 0.0
C1525 C 0.01877 0.63434 0.7695 0.0
C1526 C 0.03395 0.61979 0.78019 0.0
C1527 C 0.04304 0.62667 0.8026 0.0
C1528 C 0.03709 0.64821 0.81435 0.0
C1529 C 0.92622 0.67474 0.89134 0.0
C1530 C 0.93388 0.65799 0.90717 0.0
C1531 C 0.94515 0.68791 0.87226 0.0
C1532 C 0.97244 0.68511 0.86883 0.0
C1533 C 0.98043 0.66894 0.88479 0.0
C1534 C 0.96132 0.65539 0.90365 0.0
C1535 C 0.99192 0.6975 0.84815 0.0
C1536 C 0.99811 0.67649 0.83573 0.0
C1537 C 0.00411 0.72933 0.84051 0.0
C1538 C 1.00007 0.75326 0.8535 0.0
C1539 C 0.01021 0.75986 0.8759 0.0
C1540 C 0.00614 0.7823 0.88809 0.0
C1541 C 0.99218 0.79848 0.87801 0.0
C1542 C 0.98236 0.79232 0.85569 0.0
C1543 C 0.98634 0.76988 0.84343 0.0
H1544 H 0.98906 0.81584 0.88747 0.0
H1545 H 0.03861 0.60314 0.77111 0.0
H1546 H 0.32836 0.94696 0.078 0.0
H1547 H 0.33749 0.9811 0.04563 0.0
H1548 H 0.23981 0.96087 0.04886 0.0
H1549 H 0.23039 0.9262 0.08144 0.0
H1550 H 0.25596 0.95709 0.00682 0.0
H1551 H 0.30115 0.03435 0.06449 0.0
H1552 H 0.33371 0.06101 0.09781 0.0
H1553 H 0.41905 0.08183 0.06191 0.0
H1554 H 0.38698 0.05487 0.02845 0.0
H1555 H 0.30429 0.08085 0.92118 0.0
H1556 H 0.2833 0.05162 0.95661 0.0
H1557 H 0.36758 0.04292 0.96339 0.0
H1558 H 0.38842 0.07169 0.92821 0.0
H1559 H 0.35105 0.06594 0.00231 0.0
H1560 H 0.30279 0.98104 0.94669 0.0
H1561 H 0.26934 0.9547 0.91363 0.0
H1562 H 0.18812 0.95024 0.94657 0.0
H1563 H 0.22126 0.97699 0.97973 0.0
C1564 C 0.30893 0.95018 0.07212 0.0
C1565 C 0.27876 0.9342 0.08247 0.0
C1566 C 0.31418 0.9697 0.05356 0.0
C1567 C 0.28951 0.97405 0.04506 0.0
C1568 C 0.25923 0.95799 0.05523 0.0
C1569 C 0.25389 0.93821 0.0738 0.0
C1570 C 0.29548 0.99455 0.02506 0.0
C1571 C 0.27631 0.98118 0.00601 0.0
C1572 C 0.3221 0.02596 0.02392 0.0
C1573 C 0.3416 0.04241 0.04397 0.0
C1574 C 0.32684 0.04443 0.06373 0.0
C1575 C 0.34522 0.05962 0.08265 0.0
C1576 C 0.37842 0.07307 0.08199 0.0
C1577 C 0.39333 0.07141 0.0624 0.0
C1578 C 0.37506 0.05621 0.04343 0.0
C1579 C 0.31815 0.0725 0.93024 0.0
C1580 C 0.34777 0.07818 0.92187 0.0
C1581 C 0.30618 0.05585 0.95039 0.0
C1582 C 0.32395 0.04516 0.96253 0.0
C1583 C 0.35355 0.051 0.95423 0.0
C1584 C 0.36526 0.06716 0.93405 0.0
C1585 C 0.31222 0.02802 0.98405 0.0
C1586 C 0.3303 0.04212 0.00336 0.0
C1587 C 0.28446 0.9975 0.98545 0.0
C1588 C 0.26459 0.98139 0.96556 0.0
C1589 C 0.27788 0.97473 0.9468 0.0
C1590 C 0.25897 0.95967 0.92806 0.0
C1591 C 0.22665 0.95091 0.92797 0.0
C1592 C 0.21317 0.95711 0.94665 0.0
C1593 C 0.232 0.97221 0.96541 0.0
H1594 H 0.21204 0.93923 0.91345 0.0
H1595 H 0.39261 0.08482 0.09666 0.0
H1596 H 0.29414 0.52341 0.97964 0.0
H1597 H 0.32103 0.57287 0.95721 0.0
H1598 H 0.36213 0.52997 0.91523 0.0
H1599 H 0.33617 0.4813 0.93785 0.0
H1600 H 0.3877 0.60828 0.95444 0.0
H1601 H 0.37175 0.55934 0.86311 0.0
H1602 H 0.32862 0.51873 0.83961 0.0
H1603 H 0.25834 0.52384 0.88071 0.0
H1604 H 0.30103 0.56484 0.90428 0.0
H1605 H 0.52194 0.66782 0.88633 0.0
H1606 H 0.473 0.63917 0.90829 0.0
H1607 H 0.4306 0.6849 0.87076 0.0
H1608 H 0.48028 0.71432 0.84877 0.0
H1609 H 0.39336 0.6177 0.87168 0.0
H1610 H 0.44183 0.70185 0.92415 0.0
H1611 H 0.48508 0.74222 0.94772 0.0
H1612 H 0.48905 0.66778 0.98442 0.0
H1613 H 0.44617 0.62696 0.96088 0.0
C1614 C 0.30798 0.52429 0.96509 0.0
C1615 C 0.31294 0.49861 0.96022 0.0
C1616 C 0.32347 0.55254 0.95242 0.0
C1617 C 0.3434 0.55502 0.93444 0.0
C1618 C 0.34651 0.52847 0.92878 0.0
C1619 C 0.33169 0.50067 0.94168 0.0
C1620 C 0.36469 0.58618 0.9234 0.0
C1621 C 0.38862 0.61067 0.93637 0.0
C1622 C 0.36547 0.58957 0.89985 0.0
C1623 C 0.33967 0.56517 0.88552 0.0
C1624 C 0.34713 0.55201 0.86705 0.0
C1625 C 0.32273 0.52886 0.85374 0.0
C1626 C 0.29076 0.51869 0.85868 0.0
C1627 C 0.28311 0.53169 0.87693 0.0
C1628 C 0.3074 0.55485 0.8903 0.0
C1629 C 0.50247 0.67236 0.88309 0.0
C1630 C 0.50485 0.69328 0.86591 0.0
C1631 C 0.47455 0.65606 0.89571 0.0
C1632 C 0.44819 0.66001 0.89126 0.0
C1633 C 0.45077 0.6817 0.87455 0.0
C1634 C 0.47913 0.69858 0.86212 0.0
C1635 C 0.41735 0.63872 0.90269 0.0
C1636 C 0.3918 0.61594 0.88978 0.0
C1637 C 0.41506 0.6369 0.92631 0.0
C1638 C 0.44074 0.66132 0.9407 0.0
C1639 C 0.45202 0.69408 0.93717 0.0
C1640 C 0.47648 0.71705 0.95054 0.0
C1641 C 0.4898 0.70757 0.96756 0.0
C1642 C 0.47867 0.67509 0.97126 0.0
C1643 C 0.45423 0.65202 0.95793 0.0
H1644 H 0.50875 0.7254 0.97788 0.0
H1645 H 0.27192 0.50075 0.84835 0.0
H1646 H 0.84059 0.48187 0.01055 0.0
H1647 H 0.8203 0.43647 0.03565 0.0
H1648 H 0.76813 0.47253 0.0726 0.0
H1649 H 0.78887 0.51894 0.04711 0.0
H1650 H 0.80266 0.45781 0.09999 0.0
H1651 H 0.72622 0.40153 0.04546 0.0
H1652 H 0.7035 0.38435 0.00773 0.0
H1653 H 0.76187 0.34149 0.99732 0.0
H1654 H 0.78543 0.3589 0.03482 0.0
H1655 H 0.77575 0.28742 0.13434 0.0
H1656 H 0.75498 0.31812 0.1146 0.0
H1657 H 0.85 0.40047 0.11329 0.0
H1658 H 0.87052 0.37059 0.133 0.0
H1659 H 0.76793 0.34735 0.07437 0.0
H1660 H 0.85084 0.46716 0.12178 0.0
H1661 H 0.87128 0.48399 0.16007 0.0
H1662 H 0.79225 0.39794 0.18647 0.0
H1663 H 0.77101 0.38078 0.14837 0.0
C1664 C 0.82451 0.48012 0.02384 0.0
C1665 C 0.81657 0.50416 0.027 0.0
C1666 C 0.81256 0.45382 0.03806 0.0
C1667 C 0.79228 0.45073 0.05586 0.0
C1668 C 0.78352 0.47428 0.05883 0.0
C1669 C 0.79533 0.50071 0.0443 0.0
C1670 C 0.78393 0.42477 0.07245 0.0
C1671 C 0.79442 0.43348 0.09454 0.0
C1672 C 0.77198 0.39265 0.0656 0.0
C1673 C 0.7576 0.38155 0.04306 0.0
C1674 C 0.73434 0.38856 0.03511 0.0
C1675 C 0.72131 0.37878 0.01374 0.0
C1676 C 0.73123 0.36183 1.00014 0.0
C1677 C 0.75416 0.35457 0.0079 0.0
C1678 C 0.76731 0.36433 0.02925 0.0
C1679 C 0.7921 0.31207 0.12977 0.0
C1680 C 0.82472 0.32666 0.13541 0.0
C1681 C 0.78022 0.32957 0.11857 0.0
C1682 C 0.80079 0.36186 0.11298 0.0
C1683 C 0.83344 0.37593 0.11801 0.0
C1684 C 0.84521 0.35867 0.12919 0.0
C1685 C 0.78922 0.3813 0.10119 0.0
C1686 C 0.77498 0.37131 0.08007 0.0
C1687 C 0.79702 0.41205 0.1091 0.0
C1688 C 0.80931 0.42267 0.13215 0.0
C1689 C 0.83761 0.45195 0.13575 0.0
C1690 C 0.8494 0.46152 0.15743 0.0
C1691 C 0.83308 0.44205 0.17569 0.0
C1692 C 0.8049 0.41299 0.17231 0.0
C1693 C 0.79298 0.40332 0.15067 0.0
H1694 H 0.84229 0.44947 0.19245 0.0
H1695 H 0.72114 0.35432 0.98359 0.0
H1696 H 0.48706 0.76258 0.29932 0.0
H1697 H 0.43616 0.73863 0.27864 0.0
H1698 H 0.4707 0.82603 0.24084 0.0
H1699 H 0.5209 0.84981 0.2614 0.0
H1700 H 0.39515 0.76135 0.28045 0.0
H1701 H 0.44026 0.81364 0.19062 0.0
H1702 H 0.48203 0.81924 0.16427 0.0
H1703 H 0.48542 0.74138 0.19636 0.0
H1704 H 0.44331 0.73493 0.22272 0.0
H1705 H 0.33164 0.84433 0.22784 0.0
H1706 H 0.35862 0.81907 0.24599 0.0
H1707 H 0.31844 0.74271 0.19747 0.0
H1708 H 0.29069 0.76784 0.17939 0.0
H1709 H 0.38371 0.77299 0.19903 0.0
H1710 H 0.30043 0.72233 0.25054 0.0
H1711 H 0.25818 0.71451 0.27723 0.0
H1712 H 0.32878 0.78386 0.32149 0.0
H1713 H 0.37143 0.79262 0.29492 0.0
C1714 C 0.48402 0.77617 0.28608 0.0
C1715 C 0.50779 0.808 0.28188 0.0
C1716 C 0.45494 0.76256 0.27438 0.0
C1717 C 0.44971 0.78041 0.25804 0.0
C1718 C 0.47432 0.81153 0.25305 0.0
C1719 C 0.50297 0.82521 0.2649 0.0
C1720 C 0.41759 0.76904 0.24815 0.0
C1721 C 0.39235 0.76332 0.26261 0.0
C1722 C 0.41352 0.77033 0.2248 0.0
C1723 C 0.43855 0.7738 0.20869 0.0
C1724 C 0.44966 0.79749 0.19195 0.0
C1725 C 0.47349 0.80088 0.17704 0.0
C1726 C 0.48638 0.78069 0.17864 0.0
C1727 C 0.47545 0.75704 0.19515 0.0
C1728 C 0.45163 0.75353 0.21011 0.0
C1729 C 0.32778 0.82165 0.22144 0.0
C1730 C 0.30918 0.80805 0.20223 0.0
C1731 C 0.34305 0.80711 0.2319 0.0
C1732 C 0.34043 0.77889 0.22318 0.0
C1733 C 0.32056 0.76434 0.20458 0.0
C1734 C 0.30467 0.77863 0.19434 0.0
C1735 C 0.36251 0.76816 0.23154 0.0
C1736 C 0.38592 0.76982 0.21678 0.0
C1737 C 0.36477 0.7629 0.2546 0.0
C1738 C 0.3392 0.75817 0.27064 0.0
C1739 C 0.30696 0.73614 0.26587 0.0
C1740 C 0.28292 0.73151 0.28101 0.0
C1741 C 0.29079 0.74868 0.30104 0.0
C1742 C 0.32272 0.77055 0.30597 0.0
C1743 C 0.34686 0.77532 0.29088 0.0
H1744 H 0.27214 0.74503 0.31275 0.0
H1745 H 0.50485 0.78338 0.16709 0.0
H1746 H 0.47158 0.29843 0.41443 0.0
H1747 H 0.52243 0.33068 0.43373 0.0
H1748 H 0.57214 0.31673 0.37879 0.0
H1749 H 0.52104 0.28379 0.3596 0.0
H1750 H 0.58113 0.33349 0.44707 0.0
H1751 H 0.62608 0.39289 0.36253 0.0
H1752 H 0.60621 0.39697 0.32527 0.0
H1753 H 0.51872 0.38211 0.35487 0.0
H1754 H 0.53826 0.37834 0.39226 0.0
H1755 H 0.71782 0.4885 0.47468 0.0
H1756 H 0.68863 0.43717 0.45464 0.0
H1757 H 0.61516 0.45932 0.43709 0.0
H1758 H 0.64391 0.51005 0.45674 0.0
H1759 H 0.62995 0.43344 0.40215 0.0
H1760 H 0.60814 0.41379 0.48271 0.0
H1761 H 0.62587 0.41431 0.52152 0.0
H1762 H 0.66262 0.353 0.5025 0.0
H1763 H 0.64551 0.35253 0.46349 0.0
C1764 C 0.49319 0.3008 0.40705 0.0
C1765 C 0.49247 0.28867 0.38559 0.0
C1766 C 0.52225 0.31921 0.4181 0.0
C1767 C 0.55109 0.32639 0.40759 0.0
C1768 C 0.55014 0.31138 0.38721 0.0
C1769 C 0.52091 0.29244 0.37631 0.0
C1770 C 0.58104 0.35474 0.41537 0.0
C1771 C 0.59239 0.35517 0.43708 0.0
C1772 C 0.59555 0.38315 0.40246 0.0
C1773 C 0.58347 0.38498 0.38006 0.0
C1774 C 0.60262 0.3905 0.36103 0.0
C1775 C 0.59145 0.39284 0.33993 0.0
C1776 C 0.56128 0.38992 0.33773 0.0
C1777 C 0.54211 0.38443 0.35661 0.0
C1778 C 0.55319 0.38214 0.37774 0.0
C1779 C 0.6957 0.48253 0.4662 0.0
C1780 C 0.68304 0.50318 0.46734 0.0
C1781 C 0.67902 0.4532 0.45487 0.0
C1782 C 0.64965 0.44438 0.44446 0.0
C1783 C 0.63781 0.46565 0.44492 0.0
C1784 C 0.65421 0.49461 0.45628 0.0
C1785 C 0.6297 0.4125 0.43403 0.0
C1786 C 0.61997 0.41145 0.4118 0.0
C1787 C 0.61647 0.3838 0.44663 0.0
C1788 C 0.62587 0.3834 0.47018 0.0
C1789 C 0.62013 0.40054 0.4868 0.0
C1790 C 0.63007 0.40083 0.50882 0.0
C1791 C 0.64544 0.38377 0.51446 0.0
C1792 C 0.65077 0.36626 0.4981 0.0
C1793 C 0.64096 0.36597 0.47604 0.0
H1794 H 0.65315 0.38405 0.5315 0.0
H1795 H 0.55271 0.39183 0.3214 0.0
H1796 H 0.22681 0.51339 0.51938 0.0
H1797 H 0.24365 0.56307 0.54064 0.0
H1798 H 0.15009 0.55217 0.5312 0.0
H1799 H 0.13353 0.5036 0.51002 0.0
H1800 H 0.19489 0.61203 0.523 0.0
H1801 H 0.17373 0.53148 0.58067 0.0
H1802 H 0.18384 0.49213 0.5999 0.0
H1803 H 0.2813 0.56487 0.61163 0.0
H1804 H 0.27182 0.60456 0.59222 0.0
H1805 H 0.13517 0.66079 0.60998 0.0
H1806 H 0.15118 0.63301 0.58351 0.0
H1807 H 0.24972 0.69234 0.6032 0.0
H1808 H 0.23366 0.72099 0.62979 0.0
H1809 H 0.2236 0.62169 0.60342 0.0
H1810 H 0.23683 0.7047 0.55407 0.0
H1811 H 0.22259 0.74218 0.53657 0.0
H1812 H 0.13676 0.66322 0.51001 0.0
H1813 H 0.1502 0.62523 0.52762 0.0
C1814 C 0.20993 0.52168 0.52192 0.0
C1815 C 0.17886 0.50456 0.51297 0.0
C1816 C 0.21956 0.55004 0.53404 0.0
C1817 C 0.19816 0.56146 0.53745 0.0
C1818 C 0.16719 0.54414 0.5286 0.0
C1819 C 0.15769 0.51617 0.51654 0.0
C1820 C 0.20687 0.591 0.55045 0.0
C1821 C 0.20145 0.61428 0.54054 0.0
C1822 C 0.21658 0.59467 0.57312 0.0
C1823 C 0.22221 0.57083 0.58475 0.0
C1824 C 0.19738 0.53899 0.5872 0.0
C1825 C 0.20298 0.51665 0.59815 0.0
C1826 C 0.23323 0.52597 0.6069 0.0
C1827 C 0.25791 0.55767 0.60478 0.0
C1828 C 0.25244 0.58009 0.59381 0.0
C1829 C 0.16033 0.66828 0.60849 0.0
C1830 C 0.1832 0.69305 0.62187 0.0
C1831 C 0.16945 0.65242 0.59333 0.0
C1832 C 0.20162 0.66067 0.59136 0.0
C1833 C 0.22477 0.68573 0.60446 0.0
C1834 C 0.21565 0.70217 0.61946 0.0
C1835 C 0.20982 0.6415 0.57621 0.0
C1836 C 0.21837 0.62019 0.58566 0.0
C1837 C 0.20261 0.63936 0.55314 0.0
C1838 C 0.19455 0.6621 0.54221 0.0
C1839 C 0.21484 0.69531 0.54459 0.0
C1840 C 0.20691 0.71665 0.53464 0.0
C1841 C 0.17879 0.70509 0.52219 0.0
C1842 C 0.15856 0.67215 0.51963 0.0
C1843 C 0.16637 0.65069 0.52956 0.0
H1844 H 0.17268 0.72165 0.51451 0.0
H1845 H 0.23751 0.50864 0.61539 0.0
H1846 H 0.70466 0.22584 0.67898 0.0
H1847 H 0.67294 0.24162 0.70258 0.0
H1848 H 0.64178 0.15652 0.74249 0.0
H1849 H 0.67253 0.14056 0.71881 0.0
H1850 H 0.59215 0.15943 0.72544 0.0
H1851 H 0.69188 0.23184 0.76306 0.0
H1852 H 0.7472 0.2771 0.76489 0.0
H1853 H 0.71604 0.34049 0.73995 0.0
H1854 H 0.66056 0.29549 0.73771 0.0
H1855 H 0.53052 0.16418 0.82735 0.0
H1856 H 0.5739 0.17849 0.80092 0.0
H1857 H 0.5428 0.23342 0.76235 0.0
H1858 H 0.49854 0.2189 0.78898 0.0
H1859 H 0.62156 0.25517 0.77218 0.0
H1860 H 0.51978 0.1806 0.73645 0.0
H1861 H 0.46492 0.13441 0.73818 0.0
H1862 H 0.50145 0.07454 0.76119 0.0
H1863 H 0.55647 0.12056 0.76 0.0
C1864 C 0.69192 0.21125 0.69332 0.0
C1865 C 0.69095 0.18204 0.6972 0.0
C1866 C 0.67368 0.22014 0.70668 0.0
C1867 C 0.65466 0.20002 0.72414 0.0
C1868 C 0.65594 0.17222 0.72898 0.0
C1869 C 0.6737 0.16322 0.71556 0.0
C1870 C 0.63068 0.20539 0.73601 0.0
C1871 C 0.59868 0.18057 0.73547 0.0
C1872 C 0.63885 0.23329 0.74861 0.0
C1873 C 0.67217 0.26024 0.74993 0.0
C1874 C 0.69688 0.25537 0.75776 0.0
C1875 C 0.72825 0.28099 0.75892 0.0
C1876 C 0.73515 0.31163 0.75246 0.0
C1877 C 0.71068 0.31673 0.7449 0.0
C1878 C 0.67927 0.29119 0.74369 0.0
C1879 C 0.53306 0.17976 0.81349 0.0
C1880 C 0.51077 0.18999 0.81004 0.0
C1881 C 0.5581 0.18815 0.79852 0.0
C1882 C 0.56149 0.20695 0.77975 0.0
C1883 C 0.54063 0.21907 0.7769 0.0
C1884 C 0.51534 0.21064 0.79202 0.0
C1885 C 0.58357 0.20894 0.76184 0.0
C1886 C 0.61506 0.23476 0.76139 0.0
C1887 C 0.57511 0.18199 0.74821 0.0
C1888 C 0.54217 0.15406 0.74828 0.0
C1889 C 0.51607 0.15763 0.74202 0.0
C1890 C 0.48496 0.13148 0.74289 0.0
C1891 C 0.47969 0.10157 0.74983 0.0
C1892 C 0.50555 0.09773 0.75583 0.0
C1893 C 0.53671 0.12382 0.75504 0.0
H1894 H 0.45559 0.08137 0.75053 0.0
H1895 H 0.75945 0.33144 0.75338 0.0
loop_
_geom_bond_atom_site_label_1
_geom_bond_atom_site_label_2
_geom_bond_distance
_geom_bond_site_symmetry_2
_ccdc_geom_bond_type
C0 C1 1.351 . S
C0 N3 1.368 . S
C0 H5 0.931 . S
C1 C0 1.351 . S
C1 N2 1.373 . S
C1 H29 0.930 . S
N2 C1 1.373 . S
N2 C4 1.340 . S
N3 C0 1.368 . S
N3 C4 1.321 . S
N3 Co6 2.137 1_554 S
C4 N2 1.340 . S
C4 N3 1.321 . S
C4 H28 0.930 . S
H5 C0 0.931 . S
Co6 N3 2.137 1_556 S
Co6 N9 2.119 . S
Co6 O14 2.051 . S
Co6 O17 2.038 . S
Co6 N20 2.143 1_556 S
C7 O8 1.227 . S
C7 O17 1.265 1_554 S
O8 C7 1.227 . S
N9 Co6 2.119 . S
N9 C11 1.375 . S
N9 C12 1.313 . S
C10 C11 1.338 . S
C10 N13 1.377 . S
C10 H30 0.930 . S
C11 N9 1.375 . S
C11 C10 1.338 . S
C11 H15 0.931 1_556 S
C12 N9 1.313 . S
C12 N13 1.344 . S
C12 H16 0.930 . S
N13 C10 1.377 . S
N13 C12 1.344 . S
O14 Co6 2.051 . S
O14 C18 1.253 . S
H15 C11 0.931 1_554 S
H16 C12 0.930 . S
O17 Co6 2.038 . S
O17 C7 1.265 1_556 S
C18 O14 1.253 . S
C18 O19 1.227 . S
O19 C18 1.227 . S
N20 Co6 2.143 1_554 S
N20 C23 1.346 . S
N20 C24 1.345 . S
C21 C22 1.387 . S
C21 C25 1.391 . S
C22 C21 1.387 . S
C22 C23 1.369 . S
C22 H31 0.929 . S
C23 N20 1.346 . S
C23 C22 1.369 . S
C23 H26 0.928 . S
C24 N20 1.345 . S
C24 C25 1.371 . S
C24 H27 0.931 . S
C25 C21 1.391 . S
C25 C24 1.371 . S
C25 H32 0.930 . S
H26 C23 0.928 . S
H27 C24 0.931 . S
H28 C4 0.930 . S
H29 C1 0.930 . S
H30 C10 0.930 . S
H31 C22 0.929 . S
H32 C25 0.930 . S
C33 C34 1.351 . S
C33 N36 1.368 . S
C33 H38 0.931 . S
C34 C33 1.351 . S
C34 N35 1.373 . S
C34 H62 0.930 . S
N35 C34 1.373 . S
N35 C37 1.340 . S
N36 C33 1.368 . S
N36 C37 1.321 . S
N36 Co39 2.135 . S
C37 N35 1.340 . S
C37 N36 1.321 . S
C37 H61 0.930 . S
H38 C33 0.931 . S
Co39 N36 2.135 . S
Co39 N42 2.121 . S
Co39 O47 2.055 . S
Co39 O50 2.039 . S
Co39 N53 2.140 . S
C40 O41 1.227 . S
C40 O50 1.265 . S
O41 C40 1.227 . S
N42 Co39 2.121 . S
N42 C44 1.375 . S
N42 C45 1.313 . S
C43 C44 1.338 . S
C43 N46 1.377 . S
C43 H63 0.930 . S
C44 N42 1.375 . S
C44 C43 1.338 . S
C44 H48 0.931 . S
C45 N42 1.313 . S
C45 N46 1.344 . S
C45 H49 0.930 . S
N46 C43 1.377 . S
N46 C45 1.344 . S
O47 Co39 2.055 . S
O47 C51 1.253 . S
H48 C44 0.931 . S
H49 C45 0.930 . S
O50 Co39 2.039 . S
O50 C40 1.265 . S
C51 O47 1.253 . S
C51 O52 1.227 . S
O52 C51 1.227 . S
N53 Co39 2.140 . S
N53 C56 1.346 . S
N53 C57 1.345 . S
C54 C55 1.387 . S
C54 C58 1.391 . S
C55 C54 1.387 . S
C55 C56 1.369 . S
C55 H64 0.929 . S
C56 N53 1.346 . S
C56 C55 1.369 . S
C56 H59 0.928 . S
C57 N53 1.345 . S
C57 C58 1.371 . S
C57 H60 0.931 . S
C58 C54 1.391 . S
C58 C57 1.371 . S
C58 H65 0.930 . S
H59 C56 0.928 . S
H60 C57 0.931 . S
H61 C37 0.930 . S
H62 C34 0.930 . S
H63 C43 0.930 . S
H64 C55 0.929 . S
H65 C58 0.930 . S
C66 C67 1.351 . S
C66 N69 1.368 . S
C66 H71 0.931 . S
C67 C66 1.351 . S
C67 N68 1.373 . S
C67 H95 0.930 . S
N68 C67 1.373 . S
N68 C70 1.340 . S
N69 C66 1.368 . S
N69 C70 1.321 . S
N69 Co72 2.135 . S
C70 N68 1.340 . S
C70 N69 1.321 . S
C70 H94 0.930 . S
H71 C66 0.931 . S
Co72 N69 2.135 . S
Co72 N75 2.121 . S
Co72 O80 2.055 . S
Co72 O83 2.039 . S
Co72 N86 2.140 . S
C73 O74 1.227 . S
C73 O83 1.265 . S
O74 C73 1.227 . S
N75 Co72 2.121 . S
N75 C77 1.375 . S
N75 C78 1.313 . S
C76 C77 1.338 . S
C76 N79 1.377 . S
C76 H96 0.930 . S
C77 N75 1.375 . S
C77 C76 1.338 . S
C77 H81 0.931 . S
C78 N75 1.313 . S
C78 N79 1.344 . S
C78 H82 0.930 . S
N79 C76 1.377 . S
N79 C78 1.344 . S
O80 Co72 2.055 . S
O80 C84 1.253 . S
H81 C77 0.931 . S
H82 C78 0.930 . S
O83 Co72 2.039 . S
O83 C73 1.265 . S
C84 O80 1.253 . S
C84 O85 1.227 . S
O85 C84 1.227 . S
N86 Co72 2.140 . S
N86 C89 1.346 . S
N86 C90 1.345 . S
C87 C88 1.387 . S
C87 C91 1.391 . S
C88 C87 1.387 . S
C88 C89 1.369 . S
C88 H97 0.929 . S
C89 N86 1.346 . S
C89 C88 1.369 . S
C89 H92 0.928 . S
C90 N86 1.345 . S
C90 C91 1.371 . S
C90 H93 0.931 . S
C91 C87 1.391 . S
C91 C90 1.371 . S
C91 H98 0.930 . S
H92 C89 0.928 . S
H93 C90 0.931 . S
H94 C70 0.930 . S
H95 C67 0.930 . S
H96 C76 0.930 . S
H97 C88 0.929 . S
H98 C91 0.930 . S
C99 C100 1.351 . S
C99 N102 1.368 . S
C99 H104 0.931 . S
C100 C99 1.351 . S
C100 N101 1.373 . S
C100 H128 0.930 . S
N101 C100 1.373 . S
N101 C103 1.340 . S
N102 C99 1.368 . S
N102 C103 1.321 . S
N102 Co105 2.135 . S
C103 N101 1.340 . S
C103 N102 1.321 . S
C103 H127 0.930 . S
H104 C99 0.931 . S
Co105 N102 2.135 . S
Co105 N108 2.121 . S
Co105 O113 2.055 . S
Co105 O116 2.039 . S
Co105 N119 2.140 . S
C106 O107 1.227 . S
C106 O116 1.265 . S
O107 C106 1.227 . S
N108 Co105 2.121 . S
N108 C110 1.375 . S
N108 C111 1.313 . S
C109 C110 1.338 . S
C109 N112 1.377 . S
C109 H129 0.930 . S
C110 N108 1.375 . S
C110 C109 1.338 . S
C110 H114 0.931 . S
C111 N108 1.313 . S
C111 N112 1.344 . S
C111 H115 0.930 . S
N112 C109 1.377 . S
N112 C111 1.344 . S
O113 Co105 2.055 . S
O113 C117 1.253 . S
H114 C110 0.931 . S
H115 C111 0.930 . S
O116 Co105 2.039 . S
O116 C106 1.265 . S
C117 O113 1.253 . S
C117 O118 1.227 . S
O118 C117 1.227 . S
N119 Co105 2.140 . S
N119 C122 1.346 . S
N119 C123 1.345 . S
C120 C121 1.387 . S
C120 C124 1.391 . S
C121 C120 1.387 . S
C121 C122 1.369 . S
C121 H130 0.929 . S
C122 N119 1.346 . S
C122 C121 1.369 . S
C122 H125 0.928 . S
C123 N119 1.345 . S
C123 C124 1.371 . S
C123 H126 0.931 . S
C124 C120 1.391 . S
C124 C123 1.371 . S
C124 H131 0.930 . S
H125 C122 0.928 . S
H126 C123 0.931 . S
H127 C103 0.930 . S
H128 C100 0.930 . S
H129 C109 0.930 . S
H130 C121 0.929 . S
H131 C124 0.930 . S
C132 C133 1.351 . S
C132 N135 1.368 . S
C132 H137 0.931 . S
C133 C132 1.351 . S
C133 N134 1.373 . S
C133 H161 0.930 . S
N134 C133 1.373 . S
N134 C136 1.340 . S
N135 C132 1.368 . S
N135 C136 1.321 . S
N135 Co138 2.135 . S
C136 N134 1.340 . S
C136 N135 1.321 . S
C136 H160 0.930 . S
H137 C132 0.931 . S
Co138 N135 2.135 . S
Co138 N141 2.121 . S
Co138 O146 2.055 . S
Co138 O149 2.039 . S
Co138 N152 2.140 . S
C139 O140 1.227 . S
C139 O149 1.265 . S
O140 C139 1.227 . S
N141 Co138 2.121 . S
N141 C143 1.375 . S
N141 C144 1.313 . S
C142 C143 1.338 . S
C142 N145 1.377 . S
C142 H162 0.930 . S
C143 N141 1.375 . S
C143 C142 1.338 . S
C143 H147 0.931 . S
C144 N141 1.313 . S
C144 N145 1.344 . S
C144 H148 0.930 . S
N145 C142 1.377 . S
N145 C144 1.344 . S
O146 Co138 2.055 . S
O146 C150 1.253 . S
H147 C143 0.931 . S
H148 C144 0.930 . S
O149 Co138 2.039 . S
O149 C139 1.265 . S
C150 O146 1.253 . S
C150 O151 1.227 . S
O151 C150 1.227 . S
N152 Co138 2.140 . S
N152 C155 1.346 . S
N152 C156 1.345 . S
C153 C154 1.387 . S
C153 C157 1.391 . S
C154 C153 1.387 . S
C154 C155 1.369 . S
C154 H163 0.929 . S
C155 N152 1.346 . S
C155 C154 1.369 . S
C155 H158 0.928 . S
C156 N152 1.345 . S
C156 C157 1.371 . S
C156 H159 0.931 . S
C157 C153 1.391 . S
C157 C156 1.371 . S
C157 H164 0.930 . S
H158 C155 0.928 . S
H159 C156 0.931 . S
H160 C136 0.930 . S
H161 C133 0.930 . S
H162 C142 0.930 . S
H163 C154 0.929 . S
H164 C157 0.930 . S
C165 C166 1.351 . S
C165 N168 1.368 . S
C165 H170 0.931 . S
C166 C165 1.351 . S
C166 N167 1.373 . S
C166 H194 0.930 . S
N167 C166 1.373 . S
N167 C169 1.340 . S
N168 C165 1.368 . S
N168 C169 1.321 . S
N168 Co171 2.135 . S
C169 N167 1.340 . S
C169 N168 1.321 . S
C169 H193 0.930 . S
H170 C165 0.931 . S
Co171 N168 2.135 . S
Co171 N174 2.121 . S
Co171 O179 2.055 . S
Co171 O182 2.039 . S
Co171 N185 2.140 . S
C172 O173 1.227 . S
C172 O182 1.265 . S
O173 C172 1.227 . S
N174 Co171 2.121 . S
N174 C176 1.375 . S
N174 C177 1.313 . S
C175 C176 1.338 . S
C175 N178 1.377 . S
C175 H195 0.930 . S
C176 N174 1.375 . S
C176 C175 1.338 . S
C176 H180 0.931 . S
C177 N174 1.313 . S
C177 N178 1.344 . S
C177 H181 0.930 . S
N178 C175 1.377 . S
N178 C177 1.344 . S
O179 Co171 2.055 . S
O179 C183 1.253 . S
H180 C176 0.931 . S
H181 C177 0.930 . S
O182 Co171 2.039 . S
O182 C172 1.265 . S
C183 O179 1.253 . S
C183 O184 1.227 . S
O184 C183 1.227 . S
N185 Co171 2.140 . S
N185 C188 1.346 . S
N185 C189 1.345 . S
C186 C187 1.387 . S
C186 C190 1.391 . S
C187 C186 1.387 . S
C187 C188 1.369 . S
C187 H196 0.929 . S
C188 N185 1.346 . S
C188 C187 1.369 . S
C188 H191 0.928 . S
C189 N185 1.345 . S
C189 C190 1.371 . S
C189 H192 0.931 . S
C190 C186 1.391 . S
C190 C189 1.371 . S
C190 H197 0.930 . S
H191 C188 0.928 . S
H192 C189 0.931 . S
H193 C169 0.930 . S
H194 C166 0.930 . S
H195 C175 0.930 . S
H196 C187 0.929 . S
H197 C190 0.930 . S
C198 C199 1.351 . S
C198 N201 1.368 . S
C198 H203 0.931 . S
C199 C198 1.351 . S
C199 N200 1.373 . S
C199 H227 0.930 . S
N200 C199 1.373 . S
N200 C202 1.340 . S
N201 C198 1.368 . S
N201 C202 1.321 . S
N201 Co204 2.135 . S
C202 N200 1.340 . S
C202 N201 1.321 . S
C202 H226 0.930 . S
H203 C198 0.931 . S
Co204 N201 2.135 . S
Co204 N207 2.121 . S
Co204 O212 2.055 . S
Co204 O215 2.039 . S
Co204 N218 2.140 . S
C205 O206 1.227 . S
C205 O215 1.265 . S
O206 C205 1.227 . S
N207 Co204 2.121 . S
N207 C209 1.375 . S
N207 C210 1.313 . S
C208 C209 1.338 . S
C208 N211 1.377 . S
C208 H228 0.930 . S
C209 N207 1.375 . S
C209 C208 1.338 . S
C209 H213 0.931 . S
C210 N207 1.313 . S
C210 N211 1.344 . S
C210 H214 0.930 . S
N211 C208 1.377 . S
N211 C210 1.344 . S
O212 Co204 2.055 . S
O212 C216 1.253 . S
H213 C209 0.931 . S
H214 C210 0.930 . S
O215 Co204 2.039 . S
O215 C205 1.265 . S
C216 O212 1.253 . S
C216 O217 1.227 . S
O217 C216 1.227 . S
N218 Co204 2.140 . S
N218 C221 1.346 . S
N218 C222 1.345 . S
C219 C220 1.387 . S
C219 C223 1.391 . S
C220 C219 1.387 . S
C220 C221 1.369 . S
C220 H229 0.929 . S
C221 N218 1.346 . S
C221 C220 1.369 . S
C221 H224 0.928 . S
C222 N218 1.345 . S
C222 C223 1.371 . S
C222 H225 0.931 . S
C223 C219 1.391 . S
C223 C222 1.371 . S
C223 H230 0.930 . S
H224 C221 0.928 . S
H225 C222 0.931 . S
H226 C202 0.930 . S
H227 C199 0.930 . S
H228 C208 0.930 . S
H229 C220 0.929 . S
H230 C223 0.930 . S
C231 C232 1.351 . S
C231 N234 1.368 . S
C231 H236 0.931 . S
C232 C231 1.351 . S
C232 N233 1.373 . S
C232 H260 0.930 . S
N233 C232 1.373 . S
N233 C235 1.340 . S
N234 C231 1.368 . S
N234 C235 1.321 . S
N234 Co237 2.135 . S
C235 N233 1.340 . S
C235 N234 1.321 . S
C235 H259 0.930 . S
H236 C231 0.931 . S
Co237 N234 2.135 . S
Co237 N240 2.121 1_556 S
Co237 O245 2.055 1_556 S
Co237 O248 2.039 . S
Co237 N251 2.140 . S
C238 O239 1.227 . S
C238 O248 1.265 . S
O239 C238 1.227 . S
N240 Co237 2.121 1_554 S
N240 C242 1.375 1_554 S
N240 C243 1.313 . S
C241 C242 1.338 1_554 S
C241 N244 1.377 . S
C241 H261 0.930 . S
C242 N240 1.375 1_556 S
C242 C241 1.338 1_556 S
C242 H246 0.931 . S
C243 N240 1.313 . S
C243 N244 1.344 . S
C243 H247 0.930 . S
N244 C241 1.377 . S
N244 C243 1.344 . S
O245 Co237 2.055 1_554 S
O245 C249 1.253 . S
H246 C242 0.931 . S
H247 C243 0.930 . S
O248 Co237 2.039 . S
O248 C238 1.265 . S
C249 O245 1.253 . S
C249 O250 1.227 . S
O250 C249 1.227 . S
N251 Co237 2.140 . S
N251 C254 1.346 . S
N251 C255 1.345 . S
C252 C253 1.387 . S
C252 C256 1.391 . S
C253 C252 1.387 . S
C253 C254 1.369 . S
C253 H262 0.929 . S
C254 N251 1.346 . S
C254 C253 1.369 . S
C254 H257 0.928 . S
C255 N251 1.345 . S
C255 C256 1.371 . S
C255 H258 0.931 . S
C256 C252 1.391 . S
C256 C255 1.371 . S
C256 H263 0.930 . S
H257 C254 0.928 . S
H258 C255 0.931 . S
H259 C235 0.930 . S
H260 C232 0.930 . S
H261 C241 0.930 . S
H262 C253 0.929 . S
H263 C256 0.930 . S
C264 C265 1.351 . S
C264 N267 1.368 . S
C264 H269 0.931 . S
C265 C264 1.351 . S
C265 N266 1.373 . S
C265 H293 0.930 . S
N266 C265 1.373 . S
N266 C268 1.340 . S
N267 C264 1.368 . S
N267 C268 1.321 . S
N267 Co270 2.135 . S
C268 N266 1.340 . S
C268 N267 1.321 . S
C268 H292 0.930 . S
H269 C264 0.931 . S
Co270 N267 2.135 . S
Co270 N273 2.121 . S
Co270 O278 2.055 . S
Co270 O281 2.039 . S
Co270 N284 2.140 . S
C271 O272 1.227 . S
C271 O281 1.265 . S
O272 C271 1.227 . S
N273 Co270 2.121 . S
N273 C275 1.375 . S
N273 C276 1.313 . S
C274 C275 1.338 . S
C274 N277 1.377 . S
C274 H294 0.930 . S
C275 N273 1.375 . S
C275 C274 1.338 . S
C275 H279 0.931 . S
C276 N273 1.313 . S
C276 N277 1.344 . S
C276 H280 0.930 . S
N277 C274 1.377 . S
N277 C276 1.344 . S
O278 Co270 2.055 . S
O278 C282 1.253 . S
H279 C275 0.931 . S
H280 C276 0.930 . S
O281 Co270 2.039 . S
O281 C271 1.265 . S
C282 O278 1.253 . S
C282 O283 1.227 . S
O283 C282 1.227 . S
N284 Co270 2.140 . S
N284 C287 1.346 . S
N284 C288 1.345 . S
C285 C286 1.387 . S
C285 C289 1.391 . S
C286 C285 1.387 . S
C286 C287 1.369 . S
C286 H295 0.929 . S
C287 N284 1.346 . S
C287 C286 1.369 . S
C287 H290 0.928 . S
C288 N284 1.345 . S
C288 C289 1.371 . S
C288 H291 0.931 . S
C289 C285 1.391 . S
C289 C288 1.371 . S
C289 H296 0.930 . S
H290 C287 0.928 . S
H291 C288 0.931 . S
H292 C268 0.930 . S
H293 C265 0.930 . S
H294 C274 0.930 . S
H295 C286 0.929 . S
H296 C289 0.930 . S
C297 C298 1.351 . S
C297 N300 1.368 . S
C297 H302 0.931 . S
C298 C297 1.351 . S
C298 N299 1.373 . S
C298 H326 0.930 . S
N299 C298 1.373 . S
N299 C301 1.340 . S
N300 C297 1.368 . S
N300 C301 1.321 . S
N300 Co303 2.135 . S
C301 N299 1.340 . S
C301 N300 1.321 . S
C301 H325 0.930 . S
H302 C297 0.931 . S
Co303 N300 2.135 . S
Co303 N306 2.121 . S
Co303 O311 2.055 . S
Co303 O314 2.039 . S
Co303 N317 2.140 . S
C304 O305 1.227 . S
C304 O314 1.265 . S
O305 C304 1.227 . S
N306 Co303 2.121 . S
N306 C308 1.375 . S
N306 C309 1.313 . S
C307 C308 1.338 . S
C307 N310 1.377 . S
C307 H327 0.930 . S
C308 N306 1.375 . S
C308 C307 1.338 . S
C308 H312 0.931 . S
C309 N306 1.313 . S
C309 N310 1.344 . S
C309 H313 0.930 . S
N310 C307 1.377 . S
N310 C309 1.344 . S
O311 Co303 2.055 . S
O311 C315 1.253 . S
H312 C308 0.931 . S
H313 C309 0.930 . S
O314 Co303 2.039 . S
O314 C304 1.265 . S
C315 O311 1.253 . S
C315 O316 1.227 . S
O316 C315 1.227 . S
N317 Co303 2.140 . S
N317 C320 1.346 . S
N317 C321 1.345 . S
C318 C319 1.387 . S
C318 C322 1.391 . S
C319 C318 1.387 . S
C319 C320 1.369 . S
C319 H328 0.929 . S
C320 N317 1.346 . S
C320 C319 1.369 . S
C320 H323 0.928 . S
C321 N317 1.345 . S
C321 C322 1.371 . S
C321 H324 0.931 . S
C322 C318 1.391 . S
C322 C321 1.371 . S
C322 H329 0.930 . S
H323 C320 0.928 . S
H324 C321 0.931 . S
H325 C301 0.930 . S
H326 C298 0.930 . S
H327 C307 0.930 . S
H328 C319 0.929 . S
H329 C322 0.930 . S
C330 C331 1.351 . S
C330 N333 1.368 . S
C330 H335 0.931 . S
C331 C330 1.351 . S
C331 N332 1.373 . S
C331 H359 0.930 . S
N332 C331 1.373 . S
N332 C334 1.340 . S
N333 C330 1.368 . S
N333 C334 1.321 . S
N333 Co336 2.135 . S
C334 N332 1.340 . S
C334 N333 1.321 . S
C334 H358 0.930 . S
H335 C330 0.931 . S
Co336 N333 2.135 . S
Co336 N339 2.121 . S
Co336 O344 2.055 . S
Co336 O347 2.039 . S
Co336 N350 2.140 . S
C337 O338 1.227 . S
C337 O347 1.265 . S
O338 C337 1.227 . S
N339 Co336 2.121 . S
N339 C341 1.375 . S
N339 C342 1.313 . S
C340 C341 1.338 . S
C340 N343 1.377 . S
C340 H360 0.930 . S
C341 N339 1.375 . S
C341 C340 1.338 . S
C341 H345 0.931 . S
C342 N339 1.313 . S
C342 N343 1.344 . S
C342 H346 0.930 . S
N343 C340 1.377 . S
N343 C342 1.344 . S
O344 Co336 2.055 . S
O344 C348 1.253 . S
H345 C341 0.931 . S
H346 C342 0.930 . S
O347 Co336 2.039 . S
O347 C337 1.265 . S
C348 O344 1.253 . S
C348 O349 1.227 . S
O349 C348 1.227 . S
N350 Co336 2.140 . S
N350 C353 1.346 . S
N350 C354 1.345 . S
C351 C352 1.387 . S
C351 C355 1.391 . S
C352 C351 1.387 . S
C352 C353 1.369 . S
C352 H361 0.929 . S
C353 N350 1.346 . S
C353 C352 1.369 . S
C353 H356 0.928 . S
C354 N350 1.345 . S
C354 C355 1.371 . S
C354 H357 0.931 . S
C355 C351 1.391 . S
C355 C354 1.371 . S
C355 H362 0.930 . S
H356 C353 0.928 . S
H357 C354 0.931 . S
H358 C334 0.930 . S
H359 C331 0.930 . S
H360 C340 0.930 . S
H361 C352 0.929 . S
H362 C355 0.930 . S
C363 C364 1.351 . S
C363 N366 1.368 . S
C363 H368 0.931 . S
C364 C363 1.351 . S
C364 N365 1.373 . S
C364 H392 0.930 . S
N365 C364 1.373 . S
N365 C367 1.340 . S
N366 C363 1.368 . S
N366 C367 1.321 . S
N366 Co369 2.135 . S
C367 N365 1.340 . S
C367 N366 1.321 . S
C367 H391 0.930 . S
H368 C363 0.931 . S
Co369 N366 2.135 . S
Co369 N372 2.121 . S
Co369 O377 2.055 . S
Co369 O380 2.039 . S
Co369 N383 2.140 . S
C370 O371 1.227 . S
C370 O380 1.265 . S
O371 C370 1.227 . S
N372 Co369 2.121 . S
N372 C374 1.375 . S
N372 C375 1.313 . S
C373 C374 1.338 . S
C373 N376 1.377 . S
C373 H393 0.930 . S
C374 N372 1.375 . S
C374 C373 1.338 . S
C374 H378 0.931 . S
C375 N372 1.313 . S
C375 N376 1.344 . S
C375 H379 0.930 . S
N376 C373 1.377 . S
N376 C375 1.344 . S
O377 Co369 2.055 . S
O377 C381 1.253 . S
H378 C374 0.931 . S
H379 C375 0.930 . S
O380 Co369 2.039 . S
O380 C370 1.265 . S
C381 O377 1.253 . S
C381 O382 1.227 . S
O382 C381 1.227 . S
N383 Co369 2.140 . S
N383 C386 1.346 . S
N383 C387 1.345 . S
C384 C385 1.387 . S
C384 C388 1.391 . S
C385 C384 1.387 . S
C385 C386 1.369 . S
C385 H394 0.929 . S
C386 N383 1.346 . S
C386 C385 1.369 . S
C386 H389 0.928 . S
C387 N383 1.345 . S
C387 C388 1.371 . S
C387 H390 0.931 . S
C388 C384 1.391 . S
C388 C387 1.371 . S
C388 H395 0.930 . S
H389 C386 0.928 . S
H390 C387 0.931 . S
H391 C367 0.930 . S
H392 C364 0.930 . S
H393 C373 0.930 . S
H394 C385 0.929 . S
H395 C388 0.930 . S
H396 C414 0.951 . S
H397 C416 0.951 . S
H398 C418 0.950 . S
H399 C419 0.950 . S
H400 C421 0.950 . S
H401 C424 0.950 . S
H402 C425 0.950 . S
H403 C427 0.950 . S
H404 C428 0.950 . S
H405 C429 0.951 . S
H406 C431 0.951 . S
H407 C433 0.950 . S
H408 C434 0.950 . S
H409 C436 0.950 . S
H410 C439 0.950 . S
H411 C440 0.950 . S
H412 C442 0.950 . S
H413 C443 0.950 . S
C414 H396 0.951 . S
C414 C415 1.366 . S
C414 C416 1.388 . S
C415 C414 1.366 . S
C415 C419 1.385 . S
C416 H397 0.951 . S
C416 C414 1.388 . S
C416 C417 1.366 . S
C417 C416 1.366 . S
C417 C418 1.414 . S
C417 C420 1.499 . S
C418 H398 0.950 . S
C418 C417 1.414 . S
C418 C419 1.374 . S
C419 H399 0.950 . S
C419 C415 1.385 . S
C419 C418 1.374 . S
C420 C417 1.499 . S
C420 C421 1.373 . S
C420 C422 1.389 . S
C421 H400 0.950 . S
C421 C420 1.373 . S
C421 C437 1.377 . S
C422 C420 1.389 . S
C422 C423 1.524 . S
C422 C436 1.377 . S
C423 C422 1.524 . S
C423 C424 1.397 . S
C423 C428 1.363 . S
C424 H401 0.950 . S
C424 C423 1.397 . S
C424 C425 1.334 . S
C425 H402 0.950 . S
C425 C424 1.334 . S
C425 C426 1.287 . S
C426 C425 1.287 . S
C426 C427 1.524 . S
C426 H445 0.913 . S
C427 H403 0.950 . S
C427 C426 1.524 . S
C427 C428 1.415 . S
C428 H404 0.950 . S
C428 C423 1.363 . S
C428 C427 1.415 . S
C429 H405 0.951 . S
C429 C430 1.366 . S
C429 C431 1.388 . S
C430 C429 1.366 . S
C430 C434 1.385 . S
C431 H406 0.951 . S
C431 C429 1.388 . S
C431 C432 1.366 . S
C432 C431 1.366 . S
C432 C433 1.414 . S
C432 C435 1.499 . S
C433 H407 0.950 . S
C433 C432 1.414 . S
C433 C434 1.374 . S
C434 H408 0.950 . S
C434 C430 1.385 . S
C434 C433 1.374 . S
C435 C432 1.499 . S
C435 C436 1.373 . S
C435 C437 1.389 . S
C436 H409 0.950 . S
C436 C422 1.377 . S
C436 C435 1.373 . S
C437 C421 1.377 . S
C437 C435 1.389 . S
C437 C438 1.524 . S
C438 C437 1.524 . S
C438 C439 1.397 . S
C438 C443 1.363 . S
C439 H410 0.950 . S
C439 C438 1.397 . S
C439 C440 1.334 . S
C440 H411 0.950 . S
C440 C439 1.334 . S
C440 C441 1.287 . S
C441 C440 1.287 . S
C441 C442 1.524 . S
C441 H444 0.999 . S
C442 H412 0.950 . S
C442 C441 1.524 . S
C442 C443 1.415 . S
C443 H413 0.950 . S
C443 C438 1.363 . S
C443 C442 1.415 . S
H444 C441 0.999 . S
H445 C426 0.913 . S
H446 C464 0.951 1_556 S
H447 C466 0.951 . S
H448 C468 0.950 . S
H449 C469 0.950 . S
H450 C471 0.950 . S
H451 C474 0.950 . S
H452 C475 0.950 . S
H453 C477 0.950 . S
H454 C478 0.950 . S
H455 C479 0.951 . S
H456 C481 0.951 . S
H457 C483 0.950 . S
H458 C484 0.950 . S
H459 C486 0.950 . S
H460 C489 0.950 1_655 S
H461 C490 0.950 . S
H462 C492 0.950 . S
H463 C493 0.950 . S
C464 H446 0.951 1_554 S
C464 C465 1.366 . S
C464 C466 1.388 . S
C465 C464 1.366 . S
C465 C469 1.385 . S
C466 H447 0.951 . S
C466 C464 1.388 . S
C466 C467 1.366 . S
C467 C466 1.366 . S
C467 C468 1.414 . S
C467 C470 1.499 . S
C468 H448 0.950 . S
C468 C467 1.414 . S
C468 C469 1.374 . S
C469 H449 0.950 . S
C469 C465 1.385 . S
C469 C468 1.374 . S
C470 C467 1.499 . S
C470 C471 1.373 . S
C470 C472 1.389 . S
C471 H450 0.950 . S
C471 C470 1.373 . S
C471 C487 1.377 . S
C472 C470 1.389 . S
C472 C473 1.524 . S
C472 C486 1.377 . S
C473 C472 1.524 . S
C473 C474 1.397 . S
C473 C478 1.363 . S
C474 H451 0.950 . S
C474 C473 1.397 . S
C474 C475 1.334 . S
C475 H452 0.950 . S
C475 C474 1.334 . S
C475 C476 1.287 . S
C476 C475 1.287 . S
C476 C477 1.524 . S
C476 H495 0.913 . S
C477 H453 0.950 . S
C477 C476 1.524 . S
C477 C478 1.415 . S
C478 H454 0.950 . S
C478 C473 1.363 . S
C478 C477 1.415 . S
C479 H455 0.951 . S
C479 C480 1.366 . S
C479 C481 1.388 1_655 S
C480 C479 1.366 . S
C480 C484 1.385 . S
C481 H456 0.951 . S
C481 C479 1.388 1_455 S
C481 C482 1.366 . S
C482 C481 1.366 . S
C482 C483 1.414 1_455 S
C482 C485 1.499 . S
C483 H457 0.950 . S
C483 C482 1.414 1_655 S
C483 C484 1.374 . S
C484 H458 0.950 . S
C484 C480 1.385 . S
C484 C483 1.374 . S
C485 C482 1.499 . S
C485 C486 1.373 . S
C485 C487 1.389 . S
C486 H459 0.950 . S
C486 C472 1.377 . S
C486 C485 1.373 . S
C487 C471 1.377 . S
C487 C485 1.389 . S
C487 C488 1.524 . S
C488 C487 1.524 . S
C488 C489 1.397 . S
C488 C493 1.363 . S
C489 H460 0.950 1_455 S
C489 C488 1.397 . S
C489 C490 1.334 1_455 S
C490 H461 0.950 . S
C490 C489 1.334 1_655 S
C490 C491 1.287 1_655 S
C491 C490 1.287 1_455 S
C491 C492 1.524 . S
C491 H494 0.999 1_455 S
C492 H462 0.950 . S
C492 C491 1.524 . S
C492 C493 1.415 . S
C493 H463 0.950 . S
C493 C488 1.363 . S
C493 C492 1.415 . S
H494 C491 0.999 1_655 S
H495 C476 0.913 . S
H496 C514 0.951 . S
H497 C516 0.951 . S
H498 C518 0.950 . S
H499 C519 0.950 . S
H500 C521 0.950 . S
H501 C524 0.950 . S
H502 C525 0.950 . S
H503 C527 0.950 . S
H504 C528 0.950 . S
H505 C529 0.951 . S
H506 C531 0.951 . S
H507 C533 0.947 . S
H508 C534 0.950 . S
H509 C536 0.950 . S
H510 C539 0.950 . S
H511 C540 0.950 . S
H512 C542 0.950 . S
H513 C543 0.950 1_545 S
C514 H496 0.951 . S
C514 C515 1.366 . S
C514 C516 1.388 . S
C515 C514 1.366 . S
C515 C519 1.385 . S
C516 H497 0.951 . S
C516 C514 1.388 . S
C516 C517 1.366 . S
C517 C516 1.366 . S
C517 C518 1.414 . S
C517 C520 1.499 . S
C518 H498 0.950 . S
C518 C517 1.414 . S
C518 C519 1.374 . S
C519 H499 0.950 . S
C519 C515 1.385 . S
C519 C518 1.374 . S
C520 C517 1.499 . S
C520 C521 1.373 . S
C520 C522 1.389 . S
C521 H500 0.950 . S
C521 C520 1.373 . S
C521 C537 1.377 . S
C522 C520 1.389 . S
C522 C523 1.524 . S
C522 C536 1.377 . S
C523 C522 1.524 . S
C523 C524 1.397 . S
C523 C528 1.363 . S
C524 H501 0.950 . S
C524 C523 1.397 . S
C524 C525 1.334 . S
C525 H502 0.950 . S
C525 C524 1.334 . S
C525 C526 1.287 . S
C526 C525 1.287 . S
C526 C527 1.524 . S
C526 H545 0.913 . S
C527 H503 0.950 . S
C527 C526 1.524 . S
C527 C528 1.415 . S
C528 H504 0.950 . S
C528 C523 1.363 . S
C528 C527 1.415 . S
C529 H505 0.951 . S
C529 C530 1.366 . S
C529 C531 1.388 . S
C530 C529 1.366 . S
C530 C534 1.385 . S
C531 H506 0.951 . S
C531 C529 1.388 . S
C531 C532 1.366 1_565 S
C532 C531 1.366 1_545 S
C532 C533 1.415 . S
C532 C535 1.499 . S
C533 H507 0.947 . S
C533 C532 1.415 . S
C533 C534 1.376 1_545 S
C534 H508 0.950 . S
C534 C530 1.385 . S
C534 C533 1.376 1_565 S
C535 C532 1.499 . S
C535 C536 1.373 . S
C535 C537 1.389 . S
C536 H509 0.950 . S
C536 C522 1.377 . S
C536 C535 1.373 . S
C537 C521 1.377 . S
C537 C535 1.389 . S
C537 C538 1.524 . S
C538 C537 1.524 . S
C538 C539 1.397 1_545 S
C538 C543 1.363 1_545 S
C539 H510 0.950 . S
C539 C538 1.397 1_565 S
C539 C540 1.334 . S
C540 H511 0.950 . S
C540 C539 1.334 . S
C540 C541 1.287 . S
C541 C540 1.287 . S
C541 C542 1.524 . S
C541 H544 0.999 . S
C542 H512 0.950 . S
C542 C541 1.524 . S
C542 C543 1.415 . S
C543 H513 0.950 1_565 S
C543 C538 1.363 1_565 S
C543 C542 1.415 . S
H544 C541 0.999 . S
H545 C526 0.913 . S
H546 C564 0.951 . S
H547 C566 0.951 . S
H548 C568 0.950 . S
H549 C569 0.950 . S
H550 C571 0.950 . S
H551 C574 0.950 . S
H552 C575 0.950 . S
H553 C577 0.950 . S
H554 C578 0.950 . S
H555 C579 0.951 . S
H556 C581 0.951 . S
H557 C583 0.950 . S
H558 C584 0.950 . S
H559 C586 0.950 . S
H560 C589 0.950 . S
H561 C590 0.950 . S
H562 C592 0.950 . S
H563 C593 0.950 . S
C564 H546 0.951 . S
C564 C565 1.366 . S
C564 C566 1.388 . S
C565 C564 1.366 . S
C565 C569 1.385 . S
C566 H547 0.951 . S
C566 C564 1.388 . S
C566 C567 1.366 . S
C567 C566 1.366 . S
C567 C568 1.414 . S
C567 C570 1.499 . S
C568 H548 0.950 . S
C568 C567 1.414 . S
C568 C569 1.374 . S
C569 H549 0.950 . S
C569 C565 1.385 . S
C569 C568 1.374 . S
C570 C567 1.499 . S
C570 C571 1.373 . S
C570 C572 1.389 . S
C571 H550 0.950 . S
C571 C570 1.373 . S
C571 C587 1.377 . S
C572 C570 1.389 . S
C572 C573 1.524 . S
C572 C586 1.377 . S
C573 C572 1.524 . S
C573 C574 1.397 . S
C573 C578 1.363 . S
C574 H551 0.950 . S
C574 C573 1.397 . S
C574 C575 1.334 . S
C575 H552 0.950 . S
C575 C574 1.334 . S
C575 C576 1.287 . S
C576 C575 1.287 . S
C576 C577 1.524 . S
C576 H595 0.913 . S
C577 H553 0.950 . S
C577 C576 1.524 . S
C577 C578 1.415 . S
C578 H554 0.950 . S
C578 C573 1.363 . S
C578 C577 1.415 . S
C579 H555 0.951 . S
C579 C580 1.366 . S
C579 C581 1.388 . S
C580 C579 1.366 . S
C580 C584 1.385 . S
C581 H556 0.951 . S
C581 C579 1.388 . S
C581 C582 1.366 . S
C582 C581 1.366 . S
C582 C583 1.414 . S
C582 C585 1.499 . S
C583 H557 0.950 . S
C583 C582 1.414 . S
C583 C584 1.374 . S
C584 H558 0.950 . S
C584 C580 1.385 . S
C584 C583 1.374 . S
C585 C582 1.499 . S
C585 C586 1.373 . S
C585 C587 1.389 . S
C586 H559 0.950 . S
C586 C572 1.377 . S
C586 C585 1.373 . S
C587 C571 1.377 . S
C587 C585 1.389 . S
C587 C588 1.524 . S
C588 C587 1.524 . S
C588 C589 1.397 . S
C588 C593 1.363 . S
C589 H560 0.950 . S
C589 C588 1.397 . S
C589 C590 1.334 . S
C590 H561 0.950 . S
C590 C589 1.334 . S
C590 C591 1.287 . S
C591 C590 1.287 . S
C591 C592 1.524 . S
C591 H594 0.999 . S
C592 H562 0.950 . S
C592 C591 1.524 . S
C592 C593 1.415 . S
C593 H563 0.950 . S
C593 C588 1.363 . S
C593 C592 1.415 . S
H594 C591 0.999 . S
H595 C576 0.913 . S
H596 C614 0.951 . S
H597 C616 0.951 . S
H598 C618 0.950 . S
H599 C619 0.950 . S
H600 C621 0.950 . S
H601 C624 0.950 . S
H602 C625 0.950 . S
H603 C627 0.949 . S
H604 C628 0.950 . S
H605 C629 0.951 . S
H606 C631 0.951 . S
H607 C633 0.950 . S
H608 C634 0.950 . S
H609 C636 0.950 . S
H610 C639 0.950 . S
H611 C640 0.950 . S
H612 C642 0.950 . S
H613 C643 0.950 . S
C614 H596 0.951 . S
C614 C615 1.366 . S
C614 C616 1.388 . S
C615 C614 1.366 . S
C615 C619 1.385 . S
C616 H597 0.951 . S
C616 C614 1.388 . S
C616 C617 1.366 1_455 S
C617 C616 1.366 1_655 S
C617 C618 1.414 . S
C617 C620 1.499 . S
C618 H598 0.950 . S
C618 C617 1.414 . S
C618 C619 1.374 1_655 S
C619 H599 0.950 . S
C619 C615 1.385 . S
C619 C618 1.374 1_455 S
C620 C617 1.499 . S
C620 C621 1.373 . S
C620 C622 1.389 . S
C621 H600 0.950 . S
C621 C620 1.373 . S
C621 C637 1.377 . S
C622 C620 1.389 . S
C622 C623 1.524 . S
C622 C636 1.377 . S
C623 C622 1.524 . S
C623 C624 1.397 . S
C623 C628 1.363 . S
C624 H601 0.950 . S
C624 C623 1.397 . S
C624 C625 1.334 . S
C625 H602 0.950 . S
C625 C624 1.334 . S
C625 C626 1.287 . S
C626 C625 1.287 . S
C626 C627 1.524 . S
C626 H645 0.913 1_655 S
C627 H603 0.949 . S
C627 C626 1.524 . S
C627 C628 1.415 . S
C628 H604 0.950 . S
C628 C623 1.363 . S
C628 C627 1.415 . S
C629 H605 0.951 . S
C629 C630 1.366 . S
C629 C631 1.388 . S
C630 C629 1.366 . S
C630 C634 1.385 . S
C631 H606 0.951 . S
C631 C629 1.388 . S
C631 C632 1.366 . S
C632 C631 1.366 . S
C632 C633 1.414 . S
C632 C635 1.499 . S
C633 H607 0.950 . S
C633 C632 1.414 . S
C633 C634 1.374 . S
C634 H608 0.950 . S
C634 C630 1.385 . S
C634 C633 1.374 . S
C635 C632 1.499 . S
C635 C636 1.373 . S
C635 C637 1.389 . S
C636 H609 0.950 . S
C636 C622 1.377 . S
C636 C635 1.373 . S
C637 C621 1.377 . S
C637 C635 1.389 . S
C637 C638 1.524 . S
C638 C637 1.524 . S
C638 C639 1.397 . S
C638 C643 1.363 . S
C639 H610 0.950 . S
C639 C638 1.397 . S
C639 C640 1.334 . S
C640 H611 0.950 . S
C640 C639 1.334 . S
C640 C641 1.287 . S
C641 C640 1.287 . S
C641 C642 1.524 . S
C641 H644 0.999 . S
C642 H612 0.950 . S
C642 C641 1.524 . S
C642 C643 1.415 . S
C643 H613 0.950 . S
C643 C638 1.363 . S
C643 C642 1.415 . S
H644 C641 0.999 . S
H645 C626 0.913 1_455 S
H646 C664 0.951 . S
H647 C666 0.951 . S
H648 C668 0.950 . S
H649 C669 0.950 . S
H650 C671 0.950 . S
H651 C674 0.950 . S
H652 C675 0.950 . S
H653 C677 0.950 . S
H654 C678 0.950 . S
H655 C679 0.951 . S
H656 C681 0.951 . S
H657 C683 0.950 . S
H658 C684 0.950 . S
H659 C686 0.950 . S
H660 C689 0.950 . S
H661 C690 0.950 . S
H662 C692 0.950 . S
H663 C693 0.950 . S
C664 H646 0.951 . S
C664 C665 1.366 . S
C664 C666 1.388 . S
C665 C664 1.366 . S
C665 C669 1.385 . S
C666 H647 0.951 . S
C666 C664 1.388 . S
C666 C667 1.366 . S
C667 C666 1.366 . S
C667 C668 1.414 . S
C667 C670 1.499 . S
C668 H648 0.950 . S
C668 C667 1.414 . S
C668 C669 1.374 . S
C669 H649 0.950 . S
C669 C665 1.385 . S
C669 C668 1.374 . S
C670 C667 1.499 . S
C670 C671 1.373 . S
C670 C672 1.389 . S
C671 H650 0.950 . S
C671 C670 1.373 . S
C671 C687 1.377 . S
C672 C670 1.389 . S
C672 C673 1.524 . S
C672 C686 1.377 . S
C673 C672 1.524 . S
C673 C674 1.397 . S
C673 C678 1.363 . S
C674 H651 0.950 . S
C674 C673 1.397 . S
C674 C675 1.334 . S
C675 H652 0.950 . S
C675 C674 1.334 . S
C675 C676 1.287 . S
C676 C675 1.287 . S
C676 C677 1.524 . S
C676 H695 0.913 . S
C677 H653 0.950 . S
C677 C676 1.524 . S
C677 C678 1.415 . S
C678 H654 0.950 . S
C678 C673 1.363 . S
C678 C677 1.415 . S
C679 H655 0.951 . S
C679 C680 1.366 . S
C679 C681 1.388 1_545 S
C680 C679 1.366 . S
C680 C684 1.385 . S
C681 H656 0.951 . S
C681 C679 1.388 1_565 S
C681 C682 1.366 . S
C682 C681 1.366 . S
C682 C683 1.414 1_565 S
C682 C685 1.499 . S
C683 H657 0.950 . S
C683 C682 1.414 1_545 S
C683 C684 1.374 . S
C684 H658 0.950 . S
C684 C680 1.385 . S
C684 C683 1.374 . S
C685 C682 1.499 . S
C685 C686 1.373 . S
C685 C687 1.389 . S
C686 H659 0.950 . S
C686 C672 1.377 . S
C686 C685 1.373 . S
C687 C671 1.377 . S
C687 C685 1.389 . S
C687 C688 1.524 . S
C688 C687 1.524 . S
C688 C689 1.397 . S
C688 C693 1.363 . S
C689 H660 0.950 . S
C689 C688 1.397 . S
C689 C690 1.334 . S
C690 H661 0.950 . S
C690 C689 1.334 . S
C690 C691 1.287 . S
C691 C690 1.287 . S
C691 C692 1.524 . S
C691 H694 0.999 . S
C692 H662 0.950 . S
C692 C691 1.524 . S
C692 C693 1.415 . S
C693 H663 0.950 . S
C693 C688 1.363 . S
C693 C692 1.415 . S
H694 C691 0.999 . S
H695 C676 0.913 . S
H696 C714 0.951 . S
H697 C716 0.951 . S
H698 C718 0.950 . S
H699 C719 0.950 . S
H700 C721 0.950 . S
H701 C724 0.950 . S
H702 C725 0.950 . S
H703 C727 0.950 . S
H704 C728 0.950 . S
H705 C729 0.951 . S
H706 C731 0.951 . S
H707 C733 0.950 . S
H708 C734 0.950 . S
H709 C736 0.950 . S
H710 C739 0.950 . S
H711 C740 0.950 . S
H712 C742 0.950 . S
H713 C743 0.950 . S
C714 H696 0.951 . S
C714 C715 1.366 . S
C714 C716 1.388 . S
C715 C714 1.366 . S
C715 C719 1.385 . S
C716 H697 0.951 . S
C716 C714 1.388 . S
C716 C717 1.366 . S
C717 C716 1.366 . S
C717 C718 1.414 . S
C717 C720 1.499 . S
C718 H698 0.950 . S
C718 C717 1.414 . S
C718 C719 1.374 . S
C719 H699 0.950 . S
C719 C715 1.385 . S
C719 C718 1.374 . S
C720 C717 1.499 . S
C720 C721 1.373 . S
C720 C722 1.389 . S
C721 H700 0.950 . S
C721 C720 1.373 . S
C721 C737 1.377 . S
C722 C720 1.389 . S
C722 C723 1.524 . S
C722 C736 1.377 . S
C723 C722 1.524 . S
C723 C724 1.397 . S
C723 C728 1.363 . S
C724 H701 0.950 . S
C724 C723 1.397 . S
C724 C725 1.334 . S
C725 H702 0.950 . S
C725 C724 1.334 . S
C725 C726 1.287 . S
C726 C725 1.287 . S
C726 C727 1.524 . S
C726 H745 0.913 . S
C727 H703 0.950 . S
C727 C726 1.524 . S
C727 C728 1.415 . S
C728 H704 0.950 . S
C728 C723 1.363 . S
C728 C727 1.415 . S
C729 H705 0.951 . S
C729 C730 1.366 . S
C729 C731 1.388 . S
C730 C729 1.366 . S
C730 C734 1.385 . S
C731 H706 0.951 . S
C731 C729 1.388 . S
C731 C732 1.366 . S
C732 C731 1.366 . S
C732 C733 1.414 . S
C732 C735 1.499 . S
C733 H707 0.950 . S
C733 C732 1.414 . S
C733 C734 1.374 . S
C734 H708 0.950 . S
C734 C730 1.385 . S
C734 C733 1.374 . S
C735 C732 1.499 . S
C735 C736 1.373 . S
C735 C737 1.389 . S
C736 H709 0.950 . S
C736 C722 1.377 . S
C736 C735 1.373 . S
C737 C721 1.377 . S
C737 C735 1.389 . S
C737 C738 1.524 . S
C738 C737 1.524 . S
C738 C739 1.397 . S
C738 C743 1.363 . S
C739 H710 0.950 . S
C739 C738 1.397 . S
C739 C740 1.334 . S
C740 H711 0.950 . S
C740 C739 1.334 . S
C740 C741 1.287 . S
C741 C740 1.287 . S
C741 C742 1.524 . S
C741 H744 0.999 . S
C742 H712 0.950 . S
C742 C741 1.524 . S
C742 C743 1.415 . S
C743 H713 0.950 . S
C743 C738 1.363 . S
C743 C742 1.415 . S
H744 C741 0.999 . S
H745 C726 0.913 . S
H746 C764 0.951 . S
H747 C766 0.951 . S
H748 C768 0.950 . S
H749 C769 0.950 . S
H750 C771 0.950 . S
H751 C774 0.950 . S
H752 C775 0.950 . S
H753 C777 0.950 . S
H754 C778 0.950 . S
H755 C779 0.951 . S
H756 C781 0.951 . S
H757 C783 0.950 . S
H758 C784 0.950 . S
H759 C786 0.950 . S
H760 C789 0.950 . S
H761 C790 0.950 . S
H762 C792 0.955 . S
H763 C793 0.950 . S
C764 H746 0.951 . S
C764 C765 1.366 . S
C764 C766 1.388 . S
C765 C764 1.366 . S
C765 C769 1.385 . S
C766 H747 0.951 . S
C766 C764 1.388 . S
C766 C767 1.366 . S
C767 C766 1.366 . S
C767 C768 1.414 . S
C767 C770 1.499 . S
C768 H748 0.950 . S
C768 C767 1.414 . S
C768 C769 1.374 . S
C769 H749 0.950 . S
C769 C765 1.385 . S
C769 C768 1.374 . S
C770 C767 1.499 . S
C770 C771 1.373 . S
C770 C772 1.389 . S
C771 H750 0.950 . S
C771 C770 1.373 . S
C771 C787 1.377 . S
C772 C770 1.389 . S
C772 C773 1.524 . S
C772 C786 1.377 . S
C773 C772 1.524 . S
C773 C774 1.397 . S
C773 C778 1.363 . S
C774 H751 0.950 . S
C774 C773 1.397 . S
C774 C775 1.334 . S
C775 H752 0.950 . S
C775 C774 1.334 . S
C775 C776 1.287 . S
C776 C775 1.287 . S
C776 C777 1.524 . S
C776 H795 0.913 . S
C777 H753 0.950 . S
C777 C776 1.524 . S
C777 C778 1.415 . S
C778 H754 0.950 . S
C778 C773 1.363 . S
C778 C777 1.415 . S
C779 H755 0.951 . S
C779 C780 1.366 . S
C779 C781 1.388 1_655 S
C780 C779 1.366 . S
C780 C784 1.385 . S
C781 H756 0.951 . S
C781 C779 1.388 1_455 S
C781 C782 1.366 . S
C782 C781 1.366 . S
C782 C783 1.414 1_455 S
C782 C785 1.499 . S
C783 H757 0.950 . S
C783 C782 1.414 1_655 S
C783 C784 1.374 . S
C784 H758 0.950 . S
C784 C780 1.385 . S
C784 C783 1.374 . S
C785 C782 1.499 . S
C785 C786 1.373 . S
C785 C787 1.389 . S
C786 H759 0.950 . S
C786 C772 1.377 . S
C786 C785 1.373 . S
C787 C771 1.377 . S
C787 C785 1.389 . S
C787 C788 1.524 . S
C788 C787 1.524 . S
C788 C789 1.397 . S
C788 C793 1.363 . S
C789 H760 0.950 . S
C789 C788 1.397 . S
C789 C790 1.334 . S
C790 H761 0.950 . S
C790 C789 1.334 . S
C790 C791 1.287 . S
C791 C790 1.287 . S
C791 C792 1.524 . S
C791 H794 0.996 1_554 S
C792 H762 0.955 . S
C792 C791 1.524 . S
C792 C793 1.415 . S
C793 H763 0.950 . S
C793 C788 1.363 . S
C793 C792 1.415 . S
H794 C791 0.996 1_556 S
H795 C776 0.913 . S
H796 C814 0.951 . S
H797 C816 0.951 . S
H798 C818 0.950 . S
H799 C819 0.950 . S
H800 C821 0.950 . S
H801 C824 0.950 . S
H802 C825 0.950 . S
H803 C827 0.950 . S
H804 C828 0.950 . S
H805 C829 0.951 . S
H806 C831 0.951 . S
H807 C833 0.950 . S
H808 C834 0.950 . S
H809 C836 0.950 . S
H810 C839 0.950 1_565 S
H811 C840 0.950 . S
H812 C842 0.950 . S
H813 C843 0.950 . S
C814 H796 0.951 . S
C814 C815 1.366 . S
C814 C816 1.388 . S
C815 C814 1.366 . S
C815 C819 1.385 . S
C816 H797 0.951 . S
C816 C814 1.388 . S
C816 C817 1.366 . S
C817 C816 1.366 . S
C817 C818 1.414 . S
C817 C820 1.499 . S
C818 H798 0.950 . S
C818 C817 1.414 . S
C818 C819 1.374 . S
C819 H799 0.950 . S
C819 C815 1.385 . S
C819 C818 1.374 . S
C820 C817 1.499 . S
C820 C821 1.373 . S
C820 C822 1.389 . S
C821 H800 0.950 . S
C821 C820 1.373 . S
C821 C837 1.377 . S
C822 C820 1.389 . S
C822 C823 1.524 . S
C822 C836 1.377 . S
C823 C822 1.524 . S
C823 C824 1.397 . S
C823 C828 1.363 . S
C824 H801 0.950 . S
C824 C823 1.397 . S
C824 C825 1.334 . S
C825 H802 0.950 . S
C825 C824 1.334 . S
C825 C826 1.287 . S
C826 C825 1.287 . S
C826 C827 1.524 . S
C826 H845 0.913 . S
C827 H803 0.950 . S
C827 C826 1.524 . S
C827 C828 1.415 . S
C828 H804 0.950 . S
C828 C823 1.363 . S
C828 C827 1.415 . S
C829 H805 0.951 . S
C829 C830 1.366 . S
C829 C831 1.388 1_565 S
C830 C829 1.366 . S
C830 C834 1.385 . S
C831 H806 0.951 . S
C831 C829 1.388 1_545 S
C831 C832 1.366 . S
C832 C831 1.366 . S
C832 C833 1.414 1_545 S
C832 C835 1.499 . S
C833 H807 0.950 . S
C833 C832 1.414 1_565 S
C833 C834 1.374 . S
C834 H808 0.950 . S
C834 C830 1.385 . S
C834 C833 1.374 . S
C835 C832 1.499 . S
C835 C836 1.373 . S
C835 C837 1.389 . S
C836 H809 0.950 . S
C836 C822 1.377 . S
C836 C835 1.373 . S
C837 C821 1.377 . S
C837 C835 1.389 . S
C837 C838 1.524 . S
C838 C837 1.524 . S
C838 C839 1.397 . S
C838 C843 1.363 . S
C839 H810 0.950 1_545 S
C839 C838 1.397 . S
C839 C840 1.334 1_545 S
C840 H811 0.950 . S
C840 C839 1.334 1_565 S
C840 C841 1.287 1_565 S
C841 C840 1.287 1_545 S
C841 C842 1.524 . S
C841 H844 0.999 1_545 S
C842 H812 0.950 . S
C842 C841 1.524 . S
C842 C843 1.415 . S
C843 H813 0.950 . S
C843 C838 1.363 . S
C843 C842 1.415 . S
H844 C841 0.999 1_565 S
H845 C826 0.913 . S
H846 C864 0.951 . S
H847 C866 0.951 . S
H848 C868 0.950 . S
H849 C869 0.950 . S
H850 C871 0.950 . S
H851 C874 0.950 . S
H852 C875 0.950 . S
H853 C877 0.950 . S
H854 C878 0.950 . S
H855 C879 0.951 . S
H856 C881 0.951 . S
H857 C883 0.950 . S
H858 C884 0.950 . S
H859 C886 0.950 . S
H860 C889 0.950 . S
H861 C890 0.950 . S
H862 C892 0.950 . S
H863 C893 0.950 . S
C864 H846 0.951 . S
C864 C865 1.366 . S
C864 C866 1.388 . S
C865 C864 1.366 . S
C865 C869 1.385 . S
C866 H847 0.951 . S
C866 C864 1.388 . S
C866 C867 1.366 . S
C867 C866 1.366 . S
C867 C868 1.414 . S
C867 C870 1.499 . S
C868 H848 0.950 . S
C868 C867 1.414 . S
C868 C869 1.374 . S
C869 H849 0.950 . S
C869 C865 1.385 . S
C869 C868 1.374 . S
C870 C867 1.499 . S
C870 C871 1.373 . S
C870 C872 1.389 . S
C871 H850 0.950 . S
C871 C870 1.373 . S
C871 C887 1.377 . S
C872 C870 1.389 . S
C872 C873 1.524 . S
C872 C886 1.377 . S
C873 C872 1.524 . S
C873 C874 1.397 . S
C873 C878 1.363 . S
C874 H851 0.950 . S
C874 C873 1.397 . S
C874 C875 1.334 . S
C875 H852 0.950 . S
C875 C874 1.334 . S
C875 C876 1.287 . S
C876 C875 1.287 . S
C876 C877 1.524 . S
C876 H895 0.913 . S
C877 H853 0.950 . S
C877 C876 1.524 . S
C877 C878 1.415 . S
C878 H854 0.950 . S
C878 C873 1.363 . S
C878 C877 1.415 . S
C879 H855 0.951 . S
C879 C880 1.366 . S
C879 C881 1.388 . S
C880 C879 1.366 . S
C880 C884 1.385 . S
C881 H856 0.951 . S
C881 C879 1.388 . S
C881 C882 1.366 . S
C882 C881 1.366 . S
C882 C883 1.414 . S
C882 C885 1.499 . S
C883 H857 0.950 . S
C883 C882 1.414 . S
C883 C884 1.374 . S
C884 H858 0.950 . S
C884 C880 1.385 . S
C884 C883 1.374 . S
C885 C882 1.499 . S
C885 C886 1.373 . S
C885 C887 1.389 . S
C886 H859 0.950 . S
C886 C872 1.377 . S
C886 C885 1.373 . S
C887 C871 1.377 . S
C887 C885 1.389 . S
C887 C888 1.524 . S
C888 C887 1.524 . S
C888 C889 1.397 . S
C888 C893 1.363 . S
C889 H860 0.950 . S
C889 C888 1.397 . S
C889 C890 1.334 . S
C890 H861 0.950 . S
C890 C889 1.334 . S
C890 C891 1.287 . S
C891 C890 1.287 . S
C891 C892 1.524 . S
C891 H894 0.999 . S
C892 H862 0.950 . S
C892 C891 1.524 . S
C892 C893 1.415 . S
C893 H863 0.950 . S
C893 C888 1.363 . S
C893 C892 1.415 . S
H894 C891 0.999 . S
H895 C876 0.913 . S
H896 C914 0.951 . S
H897 C916 0.951 . S
H898 C918 0.950 . S
H899 C919 0.950 . S
H900 C921 0.950 . S
H901 C924 0.950 . S
H902 C925 0.950 . S
H903 C927 0.950 . S
H904 C928 0.950 . S
H905 C929 0.951 . S
H906 C931 0.951 . S
H907 C933 0.950 . S
H908 C934 0.950 . S
H909 C936 0.950 . S
H910 C939 0.950 1_455 S
H911 C940 0.950 . S
H912 C942 0.950 . S
H913 C943 0.950 . S
C914 H896 0.951 . S
C914 C915 1.366 . S
C914 C916 1.388 . S
C915 C914 1.366 . S
C915 C919 1.385 . S
C916 H897 0.951 . S
C916 C914 1.388 . S
C916 C917 1.366 . S
C917 C916 1.366 . S
C917 C918 1.414 . S
C917 C920 1.499 . S
C918 H898 0.950 . S
C918 C917 1.414 . S
C918 C919 1.374 . S
C919 H899 0.950 . S
C919 C915 1.385 . S
C919 C918 1.374 . S
C920 C917 1.499 . S
C920 C921 1.373 . S
C920 C922 1.389 . S
C921 H900 0.950 . S
C921 C920 1.373 . S
C921 C937 1.377 . S
C922 C920 1.389 . S
C922 C923 1.524 . S
C922 C936 1.377 . S
C923 C922 1.524 . S
C923 C924 1.397 . S
C923 C928 1.363 . S
C924 H901 0.950 . S
C924 C923 1.397 . S
C924 C925 1.334 . S
C925 H902 0.950 . S
C925 C924 1.334 . S
C925 C926 1.287 . S
C926 C925 1.287 . S
C926 C927 1.524 . S
C926 H945 0.913 . S
C927 H903 0.950 . S
C927 C926 1.524 . S
C927 C928 1.415 . S
C928 H904 0.950 . S
C928 C923 1.363 . S
C928 C927 1.415 . S
C929 H905 0.951 . S
C929 C930 1.366 . S
C929 C931 1.388 1_455 S
C930 C929 1.366 . S
C930 C934 1.385 . S
C931 H906 0.951 . S
C931 C929 1.388 1_655 S
C931 C932 1.366 . S
C932 C931 1.366 . S
C932 C933 1.414 1_655 S
C932 C935 1.499 . S
C933 H907 0.950 . S
C933 C932 1.414 1_455 S
C933 C934 1.374 . S
C934 H908 0.950 . S
C934 C930 1.385 . S
C934 C933 1.374 . S
C935 C932 1.499 . S
C935 C936 1.373 . S
C935 C937 1.389 . S
C936 H909 0.950 . S
C936 C922 1.377 . S
C936 C935 1.373 . S
C937 C921 1.377 . S
C937 C935 1.389 . S
C937 C938 1.524 . S
C938 C937 1.524 . S
C938 C939 1.397 . S
C938 C943 1.363 . S
C939 H910 0.950 1_655 S
C939 C938 1.397 . S
C939 C940 1.334 1_655 S
C940 H911 0.950 . S
C940 C939 1.334 1_455 S
C940 C941 1.287 1_455 S
C941 C940 1.287 1_655 S
C941 C942 1.524 . S
C941 H944 1.008 . S
C942 H912 0.950 . S
C942 C941 1.524 . S
C942 C943 1.415 . S
C943 H913 0.950 . S
C943 C938 1.363 . S
C943 C942 1.415 . S
H944 C941 1.008 . S
H945 C926 0.913 . S
H946 C964 0.951 . S
H947 C966 0.951 . S
H948 C968 0.950 . S
H949 C969 0.950 . S
H950 C971 0.950 . S
H951 C974 0.950 . S
H952 C975 0.950 . S
H953 C977 0.950 . S
H954 C978 0.950 . S
H955 C979 0.951 . S
H956 C981 0.951 . S
H957 C983 0.950 . S
H958 C984 0.950 . S
H959 C986 0.950 . S
H960 C989 0.950 . S
H961 C990 0.950 . S
H962 C992 0.950 . S
H963 C993 0.950 . S
C964 H946 0.951 . S
C964 C965 1.366 . S
C964 C966 1.388 . S
C965 C964 1.366 . S
C965 C969 1.385 . S
C966 H947 0.951 . S
C966 C964 1.388 . S
C966 C967 1.366 . S
C967 C966 1.366 . S
C967 C968 1.414 . S
C967 C970 1.499 . S
C968 H948 0.950 . S
C968 C967 1.414 . S
C968 C969 1.374 . S
C969 H949 0.950 . S
C969 C965 1.385 . S
C969 C968 1.374 . S
C970 C967 1.499 . S
C970 C971 1.373 . S
C970 C972 1.389 . S
C971 H950 0.950 . S
C971 C970 1.373 . S
C971 C987 1.377 . S
C972 C970 1.389 . S
C972 C973 1.524 . S
C972 C986 1.377 . S
C973 C972 1.524 . S
C973 C974 1.397 . S
C973 C978 1.363 . S
C974 H951 0.950 . S
C974 C973 1.397 . S
C974 C975 1.334 . S
C975 H952 0.950 . S
C975 C974 1.334 . S
C975 C976 1.287 . S
C976 C975 1.287 . S
C976 C977 1.524 . S
C976 H995 0.913 . S
C977 H953 0.950 . S
C977 C976 1.524 . S
C977 C978 1.415 . S
C978 H954 0.950 . S
C978 C973 1.363 . S
C978 C977 1.415 . S
C979 H955 0.951 . S
C979 C980 1.366 . S
C979 C981 1.388 1_545 S
C980 C979 1.366 . S
C980 C984 1.385 . S
C981 H956 0.951 . S
C981 C979 1.388 1_565 S
C981 C982 1.366 . S
C982 C981 1.366 . S
C982 C983 1.414 1_565 S
C982 C985 1.499 . S
C983 H957 0.950 . S
C983 C982 1.414 1_545 S
C983 C984 1.374 . S
C984 H958 0.950 . S
C984 C980 1.385 . S
C984 C983 1.374 . S
C985 C982 1.499 . S
C985 C986 1.373 . S
C985 C987 1.389 . S
C986 H959 0.950 . S
C986 C972 1.377 . S
C986 C985 1.373 . S
C987 C971 1.377 . S
C987 C985 1.389 . S
C987 C988 1.524 . S
C988 C987 1.524 . S
C988 C989 1.397 . S
C988 C993 1.363 . S
C989 H960 0.950 . S
C989 C988 1.397 . S
C989 C990 1.334 . S
C990 H961 0.950 . S
C990 C989 1.334 . S
C990 C991 1.287 . S
C991 C990 1.287 . S
C991 C992 1.524 . S
C991 H994 0.999 . S
C992 H962 0.950 . S
C992 C991 1.524 . S
C992 C993 1.415 . S
C993 H963 0.950 . S
C993 C988 1.363 . S
C993 C992 1.415 . S
H994 C991 0.999 . S
H995 C976 0.913 . S
H996 C1014 0.951 . S
H997 C1016 0.951 . S
H998 C1018 0.950 . S
H999 C1019 0.950 . S
H1000 C1021 0.950 . S
H1001 C1024 0.950 . S
H1002 C1025 0.950 . S
H1003 C1027 0.950 . S
H1004 C1028 0.950 . S
H1005 C1029 0.951 . S
H1006 C1031 0.951 . S
H1007 C1033 0.950 . S
H1008 C1034 0.950 . S
H1009 C1036 0.950 . S
H1010 C1039 0.950 . S
H1011 C1040 0.950 1_556 S
H1012 C1042 0.950 . S
H1013 C1043 0.950 . S
C1014 H996 0.951 . S
C1014 C1015 1.366 . S
C1014 C1016 1.388 . S
C1015 C1014 1.366 . S
C1015 C1019 1.385 . S
C1016 H997 0.951 . S
C1016 C1014 1.388 . S
C1016 C1017 1.366 . S
C1017 C1016 1.366 . S
C1017 C1018 1.414 . S
C1017 C1020 1.499 . S
C1018 H998 0.950 . S
C1018 C1017 1.414 . S
C1018 C1019 1.374 . S
C1019 H999 0.950 . S
C1019 C1015 1.385 . S
C1019 C1018 1.374 . S
C1020 C1017 1.499 . S
C1020 C1021 1.373 . S
C1020 C1022 1.389 . S
C1021 H1000 0.950 . S
C1021 C1020 1.373 . S
C1021 C1037 1.377 . S
C1022 C1020 1.389 . S
C1022 C1023 1.524 . S
C1022 C1036 1.377 . S
C1023 C1022 1.524 . S
C1023 C1024 1.397 . S
C1023 C1028 1.363 . S
C1024 H1001 0.950 . S
C1024 C1023 1.397 . S
C1024 C1025 1.334 . S
C1025 H1002 0.950 . S
C1025 C1024 1.334 . S
C1025 C1026 1.287 . S
C1026 C1025 1.287 . S
C1026 C1027 1.524 . S
C1026 H1045 0.913 . S
C1027 H1003 0.950 . S
C1027 C1026 1.524 . S
C1027 C1028 1.415 . S
C1028 H1004 0.950 . S
C1028 C1023 1.363 . S
C1028 C1027 1.415 . S
C1029 H1005 0.951 . S
C1029 C1030 1.366 . S
C1029 C1031 1.388 . S
C1030 C1029 1.366 . S
C1030 C1034 1.385 . S
C1031 H1006 0.951 . S
C1031 C1029 1.388 . S
C1031 C1032 1.366 . S
C1032 C1031 1.366 . S
C1032 C1033 1.414 . S
C1032 C1035 1.499 . S
C1033 H1007 0.950 . S
C1033 C1032 1.414 . S
C1033 C1034 1.374 . S
C1034 H1008 0.950 . S
C1034 C1030 1.385 . S
C1034 C1033 1.374 . S
C1035 C1032 1.499 . S
C1035 C1036 1.373 . S
C1035 C1037 1.389 . S
C1036 H1009 0.950 . S
C1036 C1022 1.377 . S
C1036 C1035 1.373 . S
C1037 C1021 1.377 . S
C1037 C1035 1.389 . S
C1037 C1038 1.524 . S
C1038 C1037 1.524 . S
C1038 C1039 1.397 . S
C1038 C1043 1.363 . S
C1039 H1010 0.950 . S
C1039 C1038 1.397 . S
C1039 C1040 1.334 . S
C1040 H1011 0.950 1_554 S
C1040 C1039 1.334 . S
C1040 C1041 1.287 1_554 S
C1041 C1040 1.287 1_556 S
C1041 C1042 1.524 . S
C1041 H1044 0.999 . S
C1042 H1012 0.950 . S
C1042 C1041 1.524 . S
C1042 C1043 1.415 1_556 S
C1043 H1013 0.950 . S
C1043 C1038 1.363 . S
C1043 C1042 1.415 1_554 S
H1044 C1041 0.999 . S
H1045 C1026 0.913 . S
H1046 C1064 0.951 . S
H1047 C1066 0.951 . S
H1048 C1068 0.950 . S
H1049 C1069 0.950 . S
H1050 C1071 0.950 . S
H1051 C1074 0.950 . S
H1052 C1075 0.950 . S
H1053 C1077 0.950 . S
H1054 C1078 0.950 . S
H1055 C1079 0.951 . S
H1056 C1081 0.951 . S
H1057 C1083 0.950 . S
H1058 C1084 0.950 . S
H1059 C1086 0.950 . S
H1060 C1089 0.950 . S
H1061 C1090 0.950 . S
H1062 C1092 0.950 . S
H1063 C1093 0.950 . S
C1064 H1046 0.951 . S
C1064 C1065 1.366 . S
C1064 C1066 1.388 . S
C1065 C1064 1.366 . S
C1065 C1069 1.385 . S
C1066 H1047 0.951 . S
C1066 C1064 1.388 . S
C1066 C1067 1.366 . S
C1067 C1066 1.366 . S
C1067 C1068 1.414 . S
C1067 C1070 1.499 . S
C1068 H1048 0.950 . S
C1068 C1067 1.414 . S
C1068 C1069 1.374 . S
C1069 H1049 0.950 . S
C1069 C1065 1.385 . S
C1069 C1068 1.374 . S
C1070 C1067 1.499 . S
C1070 C1071 1.373 . S
C1070 C1072 1.389 . S
C1071 H1050 0.950 . S
C1071 C1070 1.373 . S
C1071 C1087 1.377 . S
C1072 C1070 1.389 . S
C1072 C1073 1.524 . S
C1072 C1086 1.377 . S
C1073 C1072 1.524 . S
C1073 C1074 1.397 . S
C1073 C1078 1.363 . S
C1074 H1051 0.950 . S
C1074 C1073 1.397 . S
C1074 C1075 1.334 . S
C1075 H1052 0.950 . S
C1075 C1074 1.334 . S
C1075 C1076 1.287 . S
C1076 C1075 1.287 . S
C1076 C1077 1.524 . S
C1076 H1095 0.913 . S
C1077 H1053 0.950 . S
C1077 C1076 1.524 . S
C1077 C1078 1.415 . S
C1078 H1054 0.950 . S
C1078 C1073 1.363 . S
C1078 C1077 1.415 . S
C1079 H1055 0.951 . S
C1079 C1080 1.366 . S
C1079 C1081 1.388 . S
C1080 C1079 1.366 . S
C1080 C1084 1.385 . S
C1081 H1056 0.951 . S
C1081 C1079 1.388 . S
C1081 C1082 1.366 . S
C1082 C1081 1.366 . S
C1082 C1083 1.414 . S
C1082 C1085 1.499 . S
C1083 H1057 0.950 . S
C1083 C1082 1.414 . S
C1083 C1084 1.374 . S
C1084 H1058 0.950 . S
C1084 C1080 1.385 . S
C1084 C1083 1.374 . S
C1085 C1082 1.499 . S
C1085 C1086 1.373 . S
C1085 C1087 1.389 . S
C1086 H1059 0.950 . S
C1086 C1072 1.377 . S
C1086 C1085 1.373 . S
C1087 C1071 1.377 . S
C1087 C1085 1.389 . S
C1087 C1088 1.524 . S
C1088 C1087 1.524 . S
C1088 C1089 1.397 . S
C1088 C1093 1.363 . S
C1089 H1060 0.950 . S
C1089 C1088 1.397 . S
C1089 C1090 1.334 . S
C1090 H1061 0.950 . S
C1090 C1089 1.334 . S
C1090 C1091 1.287 . S
C1091 C1090 1.287 . S
C1091 C1092 1.524 . S
C1091 H1094 0.999 . S
C1092 H1062 0.950 . S
C1092 C1091 1.524 . S
C1092 C1093 1.415 . S
C1093 H1063 0.950 . S
C1093 C1088 1.363 . S
C1093 C1092 1.415 . S
H1094 C1091 0.999 . S
H1095 C1076 0.913 . S
H1096 C1114 0.951 . S
H1097 C1116 0.951 . S
H1098 C1118 0.950 . S
H1099 C1119 0.950 . S
H1100 C1121 0.950 . S
H1101 C1124 0.950 . S
H1102 C1125 0.950 . S
H1103 C1127 0.950 . S
H1104 C1128 0.950 . S
H1105 C1129 0.951 . S
H1106 C1131 0.951 . S
H1107 C1133 0.950 . S
H1108 C1134 0.950 . S
H1109 C1136 0.950 . S
H1110 C1139 0.950 . S
H1111 C1140 0.950 . S
H1112 C1142 0.950 . S
H1113 C1143 0.950 . S
C1114 H1096 0.951 . S
C1114 C1115 1.366 . S
C1114 C1116 1.388 . S
C1115 C1114 1.366 . S
C1115 C1119 1.385 . S
C1116 H1097 0.951 . S
C1116 C1114 1.388 . S
C1116 C1117 1.366 . S
C1117 C1116 1.366 . S
C1117 C1118 1.414 . S
C1117 C1120 1.499 . S
C1118 H1098 0.950 . S
C1118 C1117 1.414 . S
C1118 C1119 1.374 . S
C1119 H1099 0.950 . S
C1119 C1115 1.385 . S
C1119 C1118 1.374 . S
C1120 C1117 1.499 . S
C1120 C1121 1.373 . S
C1120 C1122 1.389 . S
C1121 H1100 0.950 . S
C1121 C1120 1.373 . S
C1121 C1137 1.377 . S
C1122 C1120 1.389 . S
C1122 C1123 1.524 . S
C1122 C1136 1.377 . S
C1123 C1122 1.524 . S
C1123 C1124 1.397 . S
C1123 C1128 1.363 . S
C1124 H1101 0.950 . S
C1124 C1123 1.397 . S
C1124 C1125 1.334 . S
C1125 H1102 0.950 . S
C1125 C1124 1.334 . S
C1125 C1126 1.287 . S
C1126 C1125 1.287 . S
C1126 C1127 1.524 . S
C1126 H1145 0.913 . S
C1127 H1103 0.950 . S
C1127 C1126 1.524 . S
C1127 C1128 1.415 . S
C1128 H1104 0.950 . S
C1128 C1123 1.363 . S
C1128 C1127 1.415 . S
C1129 H1105 0.951 . S
C1129 C1130 1.366 . S
C1129 C1131 1.388 . S
C1130 C1129 1.366 . S
C1130 C1134 1.385 . S
C1131 H1106 0.951 . S
C1131 C1129 1.388 . S
C1131 C1132 1.366 . S
C1132 C1131 1.366 . S
C1132 C1133 1.414 . S
C1132 C1135 1.499 . S
C1133 H1107 0.950 . S
C1133 C1132 1.414 . S
C1133 C1134 1.374 . S
C1134 H1108 0.950 . S
C1134 C1130 1.385 . S
C1134 C1133 1.374 . S
C1135 C1132 1.499 . S
C1135 C1136 1.373 . S
C1135 C1137 1.389 . S
C1136 H1109 0.950 . S
C1136 C1122 1.377 . S
C1136 C1135 1.373 . S
C1137 C1121 1.377 . S
C1137 C1135 1.389 . S
C1137 C1138 1.524 . S
C1138 C1137 1.524 . S
C1138 C1139 1.397 . S
C1138 C1143 1.363 . S
C1139 H1110 0.950 . S
C1139 C1138 1.397 . S
C1139 C1140 1.334 . S
C1140 H1111 0.950 . S
C1140 C1139 1.334 . S
C1140 C1141 1.287 . S
C1141 C1140 1.287 . S
C1141 C1142 1.524 . S
C1141 H1144 0.999 . S
C1142 H1112 0.950 . S
C1142 C1141 1.524 . S
C1142 C1143 1.415 . S
C1143 H1113 0.950 . S
C1143 C1138 1.363 . S
C1143 C1142 1.415 . S
H1144 C1141 0.999 . S
H1145 C1126 0.913 . S
H1146 C1164 0.951 . S
H1147 C1166 0.951 . S
H1148 C1168 0.950 . S
H1149 C1169 0.950 . S
H1150 C1171 0.950 . S
H1151 C1174 0.950 . S
H1152 C1175 0.950 . S
H1153 C1177 0.950 . S
H1154 C1178 0.950 . S
H1155 C1179 0.951 . S
H1156 C1181 0.951 . S
H1157 C1183 0.950 . S
H1158 C1184 0.950 . S
H1159 C1186 0.950 . S
H1160 C1189 0.950 . S
H1161 C1190 0.950 . S
H1162 C1192 0.950 . S
H1163 C1193 0.950 . S
C1164 H1146 0.951 . S
C1164 C1165 1.366 . S
C1164 C1166 1.388 . S
C1165 C1164 1.366 . S
C1165 C1169 1.385 . S
C1166 H1147 0.951 . S
C1166 C1164 1.388 . S
C1166 C1167 1.366 . S
C1167 C1166 1.366 . S
C1167 C1168 1.414 . S
C1167 C1170 1.499 . S
C1168 H1148 0.950 . S
C1168 C1167 1.414 . S
C1168 C1169 1.374 . S
C1169 H1149 0.950 . S
C1169 C1165 1.385 . S
C1169 C1168 1.374 . S
C1170 C1167 1.499 . S
C1170 C1171 1.373 . S
C1170 C1172 1.389 . S
C1171 H1150 0.950 . S
C1171 C1170 1.373 . S
C1171 C1187 1.377 . S
C1172 C1170 1.389 . S
C1172 C1173 1.524 . S
C1172 C1186 1.377 . S
C1173 C1172 1.524 . S
C1173 C1174 1.397 . S
C1173 C1178 1.363 . S
C1174 H1151 0.950 . S
C1174 C1173 1.397 . S
C1174 C1175 1.334 . S
C1175 H1152 0.950 . S
C1175 C1174 1.334 . S
C1175 C1176 1.287 . S
C1176 C1175 1.287 . S
C1176 C1177 1.524 . S
C1176 H1195 0.913 . S
C1177 H1153 0.950 . S
C1177 C1176 1.524 . S
C1177 C1178 1.415 . S
C1178 H1154 0.950 . S
C1178 C1173 1.363 . S
C1178 C1177 1.415 . S
C1179 H1155 0.951 . S
C1179 C1180 1.366 . S
C1179 C1181 1.388 . S
C1180 C1179 1.366 . S
C1180 C1184 1.385 . S
C1181 H1156 0.951 . S
C1181 C1179 1.388 . S
C1181 C1182 1.366 . S
C1182 C1181 1.366 . S
C1182 C1183 1.414 . S
C1182 C1185 1.499 . S
C1183 H1157 0.950 . S
C1183 C1182 1.414 . S
C1183 C1184 1.374 . S
C1184 H1158 0.950 . S
C1184 C1180 1.385 . S
C1184 C1183 1.374 . S
C1185 C1182 1.499 . S
C1185 C1186 1.373 . S
C1185 C1187 1.389 . S
C1186 H1159 0.950 . S
C1186 C1172 1.377 . S
C1186 C1185 1.373 . S
C1187 C1171 1.377 . S
C1187 C1185 1.389 . S
C1187 C1188 1.524 . S
C1188 C1187 1.524 . S
C1188 C1189 1.397 . S
C1188 C1193 1.363 . S
C1189 H1160 0.950 . S
C1189 C1188 1.397 . S
C1189 C1190 1.334 . S
C1190 H1161 0.950 . S
C1190 C1189 1.334 . S
C1190 C1191 1.287 . S
C1191 C1190 1.287 . S
C1191 C1192 1.524 . S
C1191 H1194 0.999 . S
C1192 H1162 0.950 . S
C1192 C1191 1.524 . S
C1192 C1193 1.415 . S
C1193 H1163 0.950 . S
C1193 C1188 1.363 . S
C1193 C1192 1.415 . S
H1194 C1191 0.999 . S
H1195 C1176 0.913 . S
H1196 C1214 0.951 . S
H1197 C1216 0.951 . S
H1198 C1218 0.950 . S
H1199 C1219 0.950 . S
H1200 C1221 0.950 . S
H1201 C1224 0.950 . S
H1202 C1225 0.950 . S
H1203 C1227 0.950 . S
H1204 C1228 0.950 . S
H1205 C1229 0.951 . S
H1206 C1231 0.951 . S
H1207 C1233 0.950 . S
H1208 C1234 0.950 . S
H1209 C1236 0.950 . S
H1210 C1239 0.950 . S
H1211 C1240 0.950 . S
H1212 C1242 0.950 . S
H1213 C1243 0.950 . S
C1214 H1196 0.951 . S
C1214 C1215 1.366 . S
C1214 C1216 1.388 . S
C1215 C1214 1.366 . S
C1215 C1219 1.385 . S
C1216 H1197 0.951 . S
C1216 C1214 1.388 . S
C1216 C1217 1.366 . S
C1217 C1216 1.366 . S
C1217 C1218 1.414 . S
C1217 C1220 1.499 . S
C1218 H1198 0.950 . S
C1218 C1217 1.414 . S
C1218 C1219 1.374 . S
C1219 H1199 0.950 . S
C1219 C1215 1.385 . S
C1219 C1218 1.374 . S
C1220 C1217 1.499 . S
C1220 C1221 1.373 . S
C1220 C1222 1.389 . S
C1221 H1200 0.950 . S
C1221 C1220 1.373 . S
C1221 C1237 1.377 . S
C1222 C1220 1.389 . S
C1222 C1223 1.524 . S
C1222 C1236 1.377 . S
C1223 C1222 1.524 . S
C1223 C1224 1.397 . S
C1223 C1228 1.363 . S
C1224 H1201 0.950 . S
C1224 C1223 1.397 . S
C1224 C1225 1.334 . S
C1225 H1202 0.950 . S
C1225 C1224 1.334 . S
C1225 C1226 1.287 . S
C1226 C1225 1.287 . S
C1226 C1227 1.524 . S
C1226 H1245 0.913 . S
C1227 H1203 0.950 . S
C1227 C1226 1.524 . S
C1227 C1228 1.415 . S
C1228 H1204 0.950 . S
C1228 C1223 1.363 . S
C1228 C1227 1.415 . S
C1229 H1205 0.951 . S
C1229 C1230 1.366 . S
C1229 C1231 1.388 . S
C1230 C1229 1.366 . S
C1230 C1234 1.385 . S
C1231 H1206 0.951 . S
C1231 C1229 1.388 . S
C1231 C1232 1.366 . S
C1232 C1231 1.366 . S
C1232 C1233 1.414 . S
C1232 C1235 1.499 . S
C1233 H1207 0.950 . S
C1233 C1232 1.414 . S
C1233 C1234 1.374 . S
C1234 H1208 0.950 . S
C1234 C1230 1.385 . S
C1234 C1233 1.374 . S
C1235 C1232 1.499 . S
C1235 C1236 1.373 . S
C1235 C1237 1.389 . S
C1236 H1209 0.950 . S
C1236 C1222 1.377 . S
C1236 C1235 1.373 . S
C1237 C1221 1.377 . S
C1237 C1235 1.389 . S
C1237 C1238 1.524 . S
C1238 C1237 1.524 . S
C1238 C1239 1.397 . S
C1238 C1243 1.363 . S
C1239 H1210 0.950 . S
C1239 C1238 1.397 . S
C1239 C1240 1.334 . S
C1240 H1211 0.950 . S
C1240 C1239 1.334 . S
C1240 C1241 1.287 . S
C1241 C1240 1.287 . S
C1241 C1242 1.524 . S
C1241 H1244 0.999 . S
C1242 H1212 0.950 . S
C1242 C1241 1.524 . S
C1242 C1243 1.415 . S
C1243 H1213 0.950 . S
C1243 C1238 1.363 . S
C1243 C1242 1.415 . S
H1244 C1241 0.999 . S
H1245 C1226 0.913 . S
H1246 C1264 0.951 . S
H1247 C1266 0.951 . S
H1248 C1268 0.950 . S
H1249 C1269 0.950 . S
H1250 C1271 0.950 . S
H1251 C1274 0.950 . S
H1252 C1275 0.950 . S
H1253 C1277 0.950 . S
H1254 C1278 0.950 . S
H1255 C1279 0.951 . S
H1256 C1281 0.951 . S
H1257 C1283 0.950 . S
H1258 C1284 0.950 . S
H1259 C1286 0.950 . S
H1260 C1289 0.950 . S
H1261 C1290 0.950 . S
H1262 C1292 0.950 . S
H1263 C1293 0.950 . S
C1264 H1246 0.951 . S
C1264 C1265 1.366 . S
C1264 C1266 1.388 . S
C1265 C1264 1.366 . S
C1265 C1269 1.385 . S
C1266 H1247 0.951 . S
C1266 C1264 1.388 . S
C1266 C1267 1.366 . S
C1267 C1266 1.366 . S
C1267 C1268 1.414 . S
C1267 C1270 1.499 . S
C1268 H1248 0.950 . S
C1268 C1267 1.414 . S
C1268 C1269 1.374 . S
C1269 H1249 0.950 . S
C1269 C1265 1.385 . S
C1269 C1268 1.374 . S
C1270 C1267 1.499 . S
C1270 C1271 1.373 . S
C1270 C1272 1.389 . S
C1271 H1250 0.950 . S
C1271 C1270 1.373 . S
C1271 C1287 1.377 . S
C1272 C1270 1.389 . S
C1272 C1273 1.524 . S
C1272 C1286 1.377 . S
C1273 C1272 1.524 . S
C1273 C1274 1.397 . S
C1273 C1278 1.363 . S
C1274 H1251 0.950 . S
C1274 C1273 1.397 . S
C1274 C1275 1.334 . S
C1275 H1252 0.950 . S
C1275 C1274 1.334 . S
C1275 C1276 1.287 . S
C1276 C1275 1.287 . S
C1276 C1277 1.524 . S
C1276 H1295 0.913 . S
C1277 H1253 0.950 . S
C1277 C1276 1.524 . S
C1277 C1278 1.415 . S
C1278 H1254 0.950 . S
C1278 C1273 1.363 . S
C1278 C1277 1.415 . S
C1279 H1255 0.951 . S
C1279 C1280 1.366 . S
C1279 C1281 1.388 . S
C1280 C1279 1.366 . S
C1280 C1284 1.385 . S
C1281 H1256 0.951 . S
C1281 C1279 1.388 . S
C1281 C1282 1.366 . S
C1282 C1281 1.366 . S
C1282 C1283 1.414 . S
C1282 C1285 1.499 . S
C1283 H1257 0.950 . S
C1283 C1282 1.414 . S
C1283 C1284 1.374 . S
C1284 H1258 0.950 . S
C1284 C1280 1.385 . S
C1284 C1283 1.374 . S
C1285 C1282 1.499 . S
C1285 C1286 1.373 . S
C1285 C1287 1.389 . S
C1286 H1259 0.950 . S
C1286 C1272 1.377 . S
C1286 C1285 1.373 . S
C1287 C1271 1.377 . S
C1287 C1285 1.389 . S
C1287 C1288 1.524 . S
C1288 C1287 1.524 . S
C1288 C1289 1.397 . S
C1288 C1293 1.363 . S
C1289 H1260 0.950 . S
C1289 C1288 1.397 . S
C1289 C1290 1.334 . S
C1290 H1261 0.950 . S
C1290 C1289 1.334 . S
C1290 C1291 1.287 . S
C1291 C1290 1.287 . S
C1291 C1292 1.524 . S
C1291 H1294 0.999 . S
C1292 H1262 0.950 . S
C1292 C1291 1.524 . S
C1292 C1293 1.415 . S
C1293 H1263 0.950 . S
C1293 C1288 1.363 . S
C1293 C1292 1.415 . S
H1294 C1291 0.999 . S
H1295 C1276 0.913 . S
H1296 C1314 0.951 . S
H1297 C1316 0.951 . S
H1298 C1318 0.950 . S
H1299 C1319 0.950 . S
H1300 C1321 0.950 . S
H1301 C1324 0.950 . S
H1302 C1325 0.950 . S
H1303 C1327 0.950 . S
H1304 C1328 0.950 . S
H1305 C1329 0.951 . S
H1306 C1331 0.951 . S
H1307 C1333 0.950 . S
H1308 C1334 0.950 . S
H1309 C1336 0.950 . S
H1310 C1339 0.950 . S
H1311 C1340 0.950 . S
H1312 C1342 0.950 . S
H1313 C1343 0.950 . S
C1314 H1296 0.951 . S
C1314 C1315 1.366 . S
C1314 C1316 1.388 . S
C1315 C1314 1.366 . S
C1315 C1319 1.385 . S
C1316 H1297 0.951 . S
C1316 C1314 1.388 . S
C1316 C1317 1.366 . S
C1317 C1316 1.366 . S
C1317 C1318 1.414 . S
C1317 C1320 1.499 . S
C1318 H1298 0.950 . S
C1318 C1317 1.414 . S
C1318 C1319 1.374 . S
C1319 H1299 0.950 . S
C1319 C1315 1.385 . S
C1319 C1318 1.374 . S
C1320 C1317 1.499 . S
C1320 C1321 1.373 . S
C1320 C1322 1.389 . S
C1321 H1300 0.950 . S
C1321 C1320 1.373 . S
C1321 C1337 1.377 . S
C1322 C1320 1.389 . S
C1322 C1323 1.524 . S
C1322 C1336 1.377 . S
C1323 C1322 1.524 . S
C1323 C1324 1.397 . S
C1323 C1328 1.363 . S
C1324 H1301 0.950 . S
C1324 C1323 1.397 . S
C1324 C1325 1.334 . S
C1325 H1302 0.950 . S
C1325 C1324 1.334 . S
C1325 C1326 1.287 . S
C1326 C1325 1.287 . S
C1326 C1327 1.524 . S
C1326 H1345 0.913 . S
C1327 H1303 0.950 . S
C1327 C1326 1.524 . S
C1327 C1328 1.415 . S
C1328 H1304 0.950 . S
C1328 C1323 1.363 . S
C1328 C1327 1.415 . S
C1329 H1305 0.951 . S
C1329 C1330 1.366 . S
C1329 C1331 1.388 . S
C1330 C1329 1.366 . S
C1330 C1334 1.385 . S
C1331 H1306 0.951 . S
C1331 C1329 1.388 . S
C1331 C1332 1.366 . S
C1332 C1331 1.366 . S
C1332 C1333 1.414 . S
C1332 C1335 1.499 . S
C1333 H1307 0.950 . S
C1333 C1332 1.414 . S
C1333 C1334 1.374 . S
C1334 H1308 0.950 . S
C1334 C1330 1.385 . S
C1334 C1333 1.374 . S
C1335 C1332 1.499 . S
C1335 C1336 1.373 . S
C1335 C1337 1.389 . S
C1336 H1309 0.950 . S
C1336 C1322 1.377 . S
C1336 C1335 1.373 . S
C1337 C1321 1.377 . S
C1337 C1335 1.389 . S
C1337 C1338 1.524 . S
C1338 C1337 1.524 . S
C1338 C1339 1.397 . S
C1338 C1343 1.363 . S
C1339 H1310 0.950 . S
C1339 C1338 1.397 . S
C1339 C1340 1.334 . S
C1340 H1311 0.950 . S
C1340 C1339 1.334 . S
C1340 C1341 1.287 . S
C1341 C1340 1.287 . S
C1341 C1342 1.524 . S
C1341 H1344 0.999 . S
C1342 H1312 0.950 . S
C1342 C1341 1.524 . S
C1342 C1343 1.415 . S
C1343 H1313 0.950 . S
C1343 C1338 1.363 . S
C1343 C1342 1.415 . S
H1344 C1341 0.999 . S
H1345 C1326 0.913 . S
H1346 C1364 0.951 . S
H1347 C1366 0.951 . S
H1348 C1368 0.947 1_655 S
H1349 C1369 0.950 . S
H1350 C1371 0.950 . S
H1351 C1374 0.950 . S
H1352 C1375 0.950 . S
H1353 C1377 0.950 . S
H1354 C1378 0.950 . S
H1355 C1379 0.951 . S
H1356 C1381 0.951 . S
H1357 C1383 0.947 1_455 S
H1358 C1384 0.950 . S
H1359 C1386 0.950 . S
H1360 C1389 0.950 . S
H1361 C1390 0.950 . S
H1362 C1392 0.950 . S
H1363 C1393 0.950 . S
C1364 H1346 0.951 . S
C1364 C1365 1.366 . S
C1364 C1366 1.388 . S
C1365 C1364 1.366 . S
C1365 C1369 1.385 . S
C1366 H1347 0.951 . S
C1366 C1364 1.388 . S
C1366 C1367 1.366 . S
C1367 C1366 1.366 . S
C1367 C1368 1.414 . S
C1367 C1370 1.499 . S
C1368 H1348 0.947 1_455 S
C1368 C1367 1.414 . S
C1368 C1369 1.374 . S
C1369 H1349 0.950 . S
C1369 C1365 1.385 . S
C1369 C1368 1.374 . S
C1370 C1367 1.499 . S
C1370 C1371 1.373 1_455 S
C1370 C1372 1.389 . S
C1371 H1350 0.950 . S
C1371 C1370 1.373 1_655 S
C1371 C1387 1.377 . S
C1372 C1370 1.389 . S
C1372 C1373 1.524 . S
C1372 C1386 1.377 . S
C1373 C1372 1.524 . S
C1373 C1374 1.397 . S
C1373 C1378 1.363 . S
C1374 H1351 0.950 . S
C1374 C1373 1.397 . S
C1374 C1375 1.334 . S
C1375 H1352 0.950 . S
C1375 C1374 1.334 . S
C1375 C1376 1.287 . S
C1376 C1375 1.287 . S
C1376 C1377 1.524 . S
C1376 H1395 0.913 . S
C1377 H1353 0.950 . S
C1377 C1376 1.524 . S
C1377 C1378 1.415 . S
C1378 H1354 0.950 . S
C1378 C1373 1.363 . S
C1378 C1377 1.415 . S
C1379 H1355 0.951 . S
C1379 C1380 1.366 . S
C1379 C1381 1.388 . S
C1380 C1379 1.366 . S
C1380 C1384 1.385 . S
C1381 H1356 0.951 . S
C1381 C1379 1.388 . S
C1381 C1382 1.366 . S
C1382 C1381 1.366 . S
C1382 C1383 1.414 . S
C1382 C1385 1.499 . S
C1383 H1357 0.947 1_655 S
C1383 C1382 1.414 . S
C1383 C1384 1.374 . S
C1384 H1358 0.950 . S
C1384 C1380 1.385 . S
C1384 C1383 1.374 . S
C1385 C1382 1.499 . S
C1385 C1386 1.373 1_655 S
C1385 C1387 1.389 . S
C1386 H1359 0.950 . S
C1386 C1372 1.377 . S
C1386 C1385 1.373 1_455 S
C1387 C1371 1.377 . S
C1387 C1385 1.389 . S
C1387 C1388 1.524 . S
C1388 C1387 1.524 . S
C1388 C1389 1.397 . S
C1388 C1393 1.363 . S
C1389 H1360 0.950 . S
C1389 C1388 1.397 . S
C1389 C1390 1.334 . S
C1390 H1361 0.950 . S
C1390 C1389 1.334 . S
C1390 C1391 1.287 . S
C1391 C1390 1.287 . S
C1391 C1392 1.524 . S
C1391 H1394 0.999 . S
C1392 H1362 0.950 . S
C1392 C1391 1.524 . S
C1392 C1393 1.415 . S
C1393 H1363 0.950 . S
C1393 C1388 1.363 . S
C1393 C1392 1.415 . S
H1394 C1391 0.999 . S
H1395 C1376 0.913 . S
H1396 C1414 0.951 . S
H1397 C1416 0.951 . S
H1398 C1418 0.950 . S
H1399 C1419 0.950 . S
H1400 C1421 0.950 . S
H1401 C1424 0.950 . S
H1402 C1425 0.950 . S
H1403 C1427 0.950 . S
H1404 C1428 0.950 . S
H1405 C1429 0.951 . S
H1406 C1431 0.951 . S
H1407 C1433 0.950 . S
H1408 C1434 0.950 . S
H1409 C1436 0.950 . S
H1410 C1439 0.950 . S
H1411 C1440 0.950 . S
H1412 C1442 0.950 . S
H1413 C1443 0.950 . S
C1414 H1396 0.951 . S
C1414 C1415 1.366 . S
C1414 C1416 1.388 . S
C1415 C1414 1.366 . S
C1415 C1419 1.385 . S
C1416 H1397 0.951 . S
C1416 C1414 1.388 . S
C1416 C1417 1.366 . S
C1417 C1416 1.366 . S
C1417 C1418 1.414 . S
C1417 C1420 1.499 . S
C1418 H1398 0.950 . S
C1418 C1417 1.414 . S
C1418 C1419 1.374 . S
C1419 H1399 0.950 . S
C1419 C1415 1.385 . S
C1419 C1418 1.374 . S
C1420 C1417 1.499 . S
C1420 C1421 1.373 1_565 S
C1420 C1422 1.389 . S
C1421 H1400 0.950 . S
C1421 C1420 1.373 1_545 S
C1421 C1437 1.377 . S
C1422 C1420 1.389 . S
C1422 C1423 1.524 . S
C1422 C1436 1.377 . S
C1423 C1422 1.524 . S
C1423 C1424 1.397 . S
C1423 C1428 1.363 . S
C1424 H1401 0.950 . S
C1424 C1423 1.397 . S
C1424 C1425 1.334 . S
C1425 H1402 0.950 . S
C1425 C1424 1.334 . S
C1425 C1426 1.287 . S
C1426 C1425 1.287 . S
C1426 C1427 1.524 . S
C1426 H1445 0.913 . S
C1427 H1403 0.950 . S
C1427 C1426 1.524 . S
C1427 C1428 1.415 . S
C1428 H1404 0.950 . S
C1428 C1423 1.363 . S
C1428 C1427 1.415 . S
C1429 H1405 0.951 . S
C1429 C1430 1.366 . S
C1429 C1431 1.388 . S
C1430 C1429 1.366 . S
C1430 C1434 1.385 . S
C1431 H1406 0.951 . S
C1431 C1429 1.388 . S
C1431 C1432 1.366 . S
C1432 C1431 1.366 . S
C1432 C1433 1.414 . S
C1432 C1435 1.499 . S
C1433 H1407 0.950 . S
C1433 C1432 1.414 . S
C1433 C1434 1.374 . S
C1434 H1408 0.950 . S
C1434 C1430 1.385 . S
C1434 C1433 1.374 . S
C1435 C1432 1.499 . S
C1435 C1436 1.373 1_545 S
C1435 C1437 1.389 . S
C1436 H1409 0.950 . S
C1436 C1422 1.377 . S
C1436 C1435 1.373 1_565 S
C1437 C1421 1.377 . S
C1437 C1435 1.389 . S
C1437 C1438 1.524 . S
C1438 C1437 1.524 . S
C1438 C1439 1.397 . S
C1438 C1443 1.363 . S
C1439 H1410 0.950 . S
C1439 C1438 1.397 . S
C1439 C1440 1.334 . S
C1440 H1411 0.950 . S
C1440 C1439 1.334 . S
C1440 C1441 1.287 . S
C1441 C1440 1.287 . S
C1441 C1442 1.524 . S
C1441 H1444 0.999 . S
C1442 H1412 0.950 . S
C1442 C1441 1.524 . S
C1442 C1443 1.415 . S
C1443 H1413 0.950 . S
C1443 C1438 1.363 . S
C1443 C1442 1.415 . S
H1444 C1441 0.999 . S
H1445 C1426 0.913 . S
H1446 C1464 0.951 . S
H1447 C1466 0.951 . S
H1448 C1468 0.950 . S
H1449 C1469 0.950 . S
H1450 C1471 0.950 . S
H1451 C1474 0.950 . S
H1452 C1475 0.950 . S
H1453 C1477 0.950 . S
H1454 C1478 0.950 . S
H1455 C1479 0.951 . S
H1456 C1481 0.951 . S
H1457 C1483 0.950 . S
H1458 C1484 0.950 . S
H1459 C1486 0.950 . S
H1460 C1489 0.950 . S
H1461 C1490 0.950 . S
H1462 C1492 0.950 . S
H1463 C1493 0.950 . S
C1464 H1446 0.951 . S
C1464 C1465 1.366 . S
C1464 C1466 1.388 . S
C1465 C1464 1.366 . S
C1465 C1469 1.385 . S
C1466 H1447 0.951 . S
C1466 C1464 1.388 . S
C1466 C1467 1.366 . S
C1467 C1466 1.366 . S
C1467 C1468 1.414 . S
C1467 C1470 1.499 . S
C1468 H1448 0.950 . S
C1468 C1467 1.414 . S
C1468 C1469 1.374 . S
C1469 H1449 0.950 . S
C1469 C1465 1.385 . S
C1469 C1468 1.374 . S
C1470 C1467 1.499 . S
C1470 C1471 1.373 . S
C1470 C1472 1.389 . S
C1471 H1450 0.950 . S
C1471 C1470 1.373 . S
C1471 C1487 1.377 . S
C1472 C1470 1.389 . S
C1472 C1473 1.524 . S
C1472 C1486 1.377 . S
C1473 C1472 1.524 . S
C1473 C1474 1.397 . S
C1473 C1478 1.363 . S
C1474 H1451 0.950 . S
C1474 C1473 1.397 . S
C1474 C1475 1.334 . S
C1475 H1452 0.950 . S
C1475 C1474 1.334 . S
C1475 C1476 1.287 . S
C1476 C1475 1.287 . S
C1476 C1477 1.524 . S
C1476 H1495 0.913 . S
C1477 H1453 0.950 . S
C1477 C1476 1.524 . S
C1477 C1478 1.415 . S
C1478 H1454 0.950 . S
C1478 C1473 1.363 . S
C1478 C1477 1.415 . S
C1479 H1455 0.951 . S
C1479 C1480 1.366 . S
C1479 C1481 1.388 . S
C1480 C1479 1.366 . S
C1480 C1484 1.385 . S
C1481 H1456 0.951 . S
C1481 C1479 1.388 . S
C1481 C1482 1.366 . S
C1482 C1481 1.366 . S
C1482 C1483 1.414 . S
C1482 C1485 1.499 . S
C1483 H1457 0.950 . S
C1483 C1482 1.414 . S
C1483 C1484 1.374 . S
C1484 H1458 0.950 . S
C1484 C1480 1.385 . S
C1484 C1483 1.374 . S
C1485 C1482 1.499 . S
C1485 C1486 1.373 . S
C1485 C1487 1.389 . S
C1486 H1459 0.950 . S
C1486 C1472 1.377 . S
C1486 C1485 1.373 . S
C1487 C1471 1.377 . S
C1487 C1485 1.389 . S
C1487 C1488 1.524 . S
C1488 C1487 1.524 . S
C1488 C1489 1.397 . S
C1488 C1493 1.363 . S
C1489 H1460 0.950 . S
C1489 C1488 1.397 . S
C1489 C1490 1.334 . S
C1490 H1461 0.950 . S
C1490 C1489 1.334 . S
C1490 C1491 1.287 . S
C1491 C1490 1.287 . S
C1491 C1492 1.524 . S
C1491 H1494 0.999 . S
C1492 H1462 0.950 . S
C1492 C1491 1.524 . S
C1492 C1493 1.415 . S
C1493 H1463 0.950 . S
C1493 C1488 1.363 . S
C1493 C1492 1.415 . S
H1494 C1491 0.999 . S
H1495 C1476 0.913 . S
H1496 C1514 0.951 . S
H1497 C1516 0.951 . S
H1498 C1518 0.950 . S
H1499 C1519 0.950 . S
H1500 C1521 0.950 . S
H1501 C1524 0.950 . S
H1502 C1525 0.950 . S
H1503 C1527 0.930 1_455 S
H1504 C1528 0.950 . S
H1505 C1529 0.951 . S
H1506 C1531 0.951 . S
H1507 C1533 0.950 . S
H1508 C1534 0.950 . S
H1509 C1536 0.950 . S
H1510 C1539 0.950 . S
H1511 C1540 0.950 . S
H1512 C1542 0.930 1_655 S
H1513 C1543 0.950 . S
C1514 H1496 0.951 . S
C1514 C1515 1.366 . S
C1514 C1516 1.388 . S
C1515 C1514 1.366 . S
C1515 C1519 1.385 . S
C1516 H1497 0.951 . S
C1516 C1514 1.388 . S
C1516 C1517 1.366 . S
C1517 C1516 1.366 . S
C1517 C1518 1.414 . S
C1517 C1520 1.499 . S
C1518 H1498 0.950 . S
C1518 C1517 1.414 . S
C1518 C1519 1.374 . S
C1519 H1499 0.950 . S
C1519 C1515 1.385 . S
C1519 C1518 1.374 . S
C1520 C1517 1.499 . S
C1520 C1521 1.373 . S
C1520 C1522 1.390 . S
C1521 H1500 0.950 . S
C1521 C1520 1.373 . S
C1521 C1537 1.371 1_455 S
C1522 C1520 1.390 . S
C1522 C1523 1.529 1_455 S
C1522 C1536 1.371 1_455 S
C1523 C1522 1.529 1_655 S
C1523 C1524 1.397 . S
C1523 C1528 1.363 1_655 S
C1524 H1501 0.950 . S
C1524 C1523 1.397 . S
C1524 C1525 1.334 . S
C1525 H1502 0.950 . S
C1525 C1524 1.334 . S
C1525 C1526 1.287 . S
C1526 C1525 1.287 . S
C1526 C1527 1.537 . S
C1526 H1545 0.913 . S
C1527 H1503 0.930 1_655 S
C1527 C1526 1.537 . S
C1527 C1528 1.425 1_655 S
C1528 H1504 0.950 . S
C1528 C1523 1.363 1_455 S
C1528 C1527 1.425 1_455 S
C1529 H1505 0.951 . S
C1529 C1530 1.366 . S
C1529 C1531 1.388 . S
C1530 C1529 1.366 . S
C1530 C1534 1.385 . S
C1531 H1506 0.951 . S
C1531 C1529 1.388 . S
C1531 C1532 1.366 . S
C1532 C1531 1.366 . S
C1532 C1533 1.414 . S
C1532 C1535 1.499 . S
C1533 H1507 0.950 . S
C1533 C1532 1.414 . S
C1533 C1534 1.374 . S
C1534 H1508 0.950 . S
C1534 C1530 1.385 . S
C1534 C1533 1.374 . S
C1535 C1532 1.499 . S
C1535 C1536 1.373 . S
C1535 C1537 1.390 . S
C1536 H1509 0.950 . S
C1536 C1522 1.371 1_655 S
C1536 C1535 1.373 . S
C1537 C1521 1.371 1_655 S
C1537 C1535 1.390 . S
C1537 C1538 1.529 1_655 S
C1538 C1537 1.529 1_455 S
C1538 C1539 1.397 . S
C1538 C1543 1.363 1_455 S
C1539 H1510 0.950 . S
C1539 C1538 1.397 . S
C1539 C1540 1.334 . S
C1540 H1511 0.950 . S
C1540 C1539 1.334 . S
C1540 C1541 1.287 . S
C1541 C1540 1.287 . S
C1541 C1542 1.537 . S
C1541 H1544 0.999 . S
C1542 H1512 0.930 1_455 S
C1542 C1541 1.537 . S
C1542 C1543 1.425 1_455 S
C1543 H1513 0.950 . S
C1543 C1538 1.363 1_655 S
C1543 C1542 1.425 1_655 S
H1544 C1541 0.999 . S
H1545 C1526 0.913 . S
H1546 C1564 0.951 . S
H1547 C1566 0.951 . S
H1548 C1568 0.950 . S
H1549 C1569 0.950 . S
H1550 C1571 0.950 . S
H1551 C1574 0.950 . S
H1552 C1575 0.950 . S
H1553 C1577 0.950 . S
H1554 C1578 0.950 . S
H1555 C1579 0.951 . S
H1556 C1581 0.951 . S
H1557 C1583 0.950 . S
H1558 C1584 0.950 . S
H1559 C1586 0.950 . S
H1560 C1589 0.950 . S
H1561 C1590 0.950 . S
H1562 C1592 0.950 . S
H1563 C1593 0.950 . S
C1564 H1546 0.951 . S
C1564 C1565 1.366 . S
C1564 C1566 1.388 . S
C1565 C1564 1.366 . S
C1565 C1569 1.385 . S
C1566 H1547 0.951 . S
C1566 C1564 1.388 . S
C1566 C1567 1.366 . S
C1567 C1566 1.366 . S
C1567 C1568 1.414 . S
C1567 C1570 1.499 . S
C1568 H1548 0.950 . S
C1568 C1567 1.414 . S
C1568 C1569 1.374 . S
C1569 H1549 0.950 . S
C1569 C1565 1.385 . S
C1569 C1568 1.374 . S
C1570 C1567 1.499 . S
C1570 C1571 1.373 1_554 S
C1570 C1572 1.389 1_565 S
C1571 H1550 0.950 . S
C1571 C1570 1.373 1_556 S
C1571 C1587 1.377 . S
C1572 C1570 1.389 1_545 S
C1572 C1573 1.524 . S
C1572 C1586 1.377 1_554 S
C1573 C1572 1.524 . S
C1573 C1574 1.397 . S
C1573 C1578 1.363 . S
C1574 H1551 0.950 . S
C1574 C1573 1.397 . S
C1574 C1575 1.334 . S
C1575 H1552 0.950 . S
C1575 C1574 1.334 . S
C1575 C1576 1.287 . S
C1576 C1575 1.287 . S
C1576 C1577 1.524 . S
C1576 H1595 0.913 . S
C1577 H1553 0.950 . S
C1577 C1576 1.524 . S
C1577 C1578 1.415 . S
C1578 H1554 0.950 . S
C1578 C1573 1.363 . S
C1578 C1577 1.415 . S
C1579 H1555 0.951 . S
C1579 C1580 1.366 . S
C1579 C1581 1.388 . S
C1580 C1579 1.366 . S
C1580 C1584 1.385 . S
C1581 H1556 0.951 . S
C1581 C1579 1.388 . S
C1581 C1582 1.366 . S
C1582 C1581 1.366 . S
C1582 C1583 1.414 . S
C1582 C1585 1.499 . S
C1583 H1557 0.950 . S
C1583 C1582 1.414 . S
C1583 C1584 1.374 . S
C1584 H1558 0.950 . S
C1584 C1580 1.385 . S
C1584 C1583 1.374 . S
C1585 C1582 1.499 . S
C1585 C1586 1.373 . S
C1585 C1587 1.389 1_545 S
C1586 H1559 0.950 . S
C1586 C1572 1.377 1_556 S
C1586 C1585 1.373 . S
C1587 C1571 1.377 . S
C1587 C1585 1.389 1_565 S
C1587 C1588 1.524 . S
C1588 C1587 1.524 . S
C1588 C1589 1.397 . S
C1588 C1593 1.363 . S
C1589 H1560 0.950 . S
C1589 C1588 1.397 . S
C1589 C1590 1.334 . S
C1590 H1561 0.950 . S
C1590 C1589 1.334 . S
C1590 C1591 1.287 . S
C1591 C1590 1.287 . S
C1591 C1592 1.524 . S
C1591 H1594 0.999 . S
C1592 H1562 0.950 . S
C1592 C1591 1.524 . S
C1592 C1593 1.415 . S
C1593 H1563 0.950 . S
C1593 C1588 1.363 . S
C1593 C1592 1.415 . S
H1594 C1591 0.999 . S
H1595 C1576 0.913 . S
H1596 C1614 0.951 . S
H1597 C1616 0.951 . S
H1598 C1618 0.950 . S
H1599 C1619 0.950 . S
H1600 C1621 0.950 . S
H1601 C1624 0.950 . S
H1602 C1625 0.950 . S
H1603 C1627 0.950 . S
H1604 C1628 0.950 . S
H1605 C1629 0.951 . S
H1606 C1631 0.951 . S
H1607 C1633 0.950 . S
H1608 C1634 0.950 . S
H1609 C1636 0.950 . S
H1610 C1639 0.950 . S
H1611 C1640 0.950 . S
H1612 C1642 0.950 . S
H1613 C1643 0.950 . S
C1614 H1596 0.951 . S
C1614 C1615 1.366 . S
C1614 C1616 1.388 . S
C1615 C1614 1.366 . S
C1615 C1619 1.385 . S
C1616 H1597 0.951 . S
C1616 C1614 1.388 . S
C1616 C1617 1.366 . S
C1617 C1616 1.366 . S
C1617 C1618 1.414 . S
C1617 C1620 1.499 . S
C1618 H1598 0.950 . S
C1618 C1617 1.414 . S
C1618 C1619 1.374 . S
C1619 H1599 0.950 . S
C1619 C1615 1.385 . S
C1619 C1618 1.374 . S
C1620 C1617 1.499 . S
C1620 C1621 1.373 . S
C1620 C1622 1.389 . S
C1621 H1600 0.950 . S
C1621 C1620 1.373 . S
C1621 C1637 1.377 . S
C1622 C1620 1.389 . S
C1622 C1623 1.524 . S
C1622 C1636 1.377 . S
C1623 C1622 1.524 . S
C1623 C1624 1.397 . S
C1623 C1628 1.363 . S
C1624 H1601 0.950 . S
C1624 C1623 1.397 . S
C1624 C1625 1.334 . S
C1625 H1602 0.950 . S
C1625 C1624 1.334 . S
C1625 C1626 1.287 . S
C1626 C1625 1.287 . S
C1626 C1627 1.524 . S
C1626 H1645 0.913 . S
C1627 H1603 0.950 . S
C1627 C1626 1.524 . S
C1627 C1628 1.415 . S
C1628 H1604 0.950 . S
C1628 C1623 1.363 . S
C1628 C1627 1.415 . S
C1629 H1605 0.951 . S
C1629 C1630 1.366 . S
C1629 C1631 1.388 . S
C1630 C1629 1.366 . S
C1630 C1634 1.385 . S
C1631 H1606 0.951 . S
C1631 C1629 1.388 . S
C1631 C1632 1.366 . S
C1632 C1631 1.366 . S
C1632 C1633 1.414 . S
C1632 C1635 1.499 . S
C1633 H1607 0.950 . S
C1633 C1632 1.414 . S
C1633 C1634 1.374 . S
C1634 H1608 0.950 . S
C1634 C1630 1.385 . S
C1634 C1633 1.374 . S
C1635 C1632 1.499 . S
C1635 C1636 1.373 . S
C1635 C1637 1.389 . S
C1636 H1609 0.950 . S
C1636 C1622 1.377 . S
C1636 C1635 1.373 . S
C1637 C1621 1.377 . S
C1637 C1635 1.389 . S
C1637 C1638 1.524 . S
C1638 C1637 1.524 . S
C1638 C1639 1.397 . S
C1638 C1643 1.363 . S
C1639 H1610 0.950 . S
C1639 C1638 1.397 . S
C1639 C1640 1.334 . S
C1640 H1611 0.950 . S
C1640 C1639 1.334 . S
C1640 C1641 1.287 . S
C1641 C1640 1.287 . S
C1641 C1642 1.524 . S
C1641 H1644 0.999 . S
C1642 H1612 0.950 . S
C1642 C1641 1.524 . S
C1642 C1643 1.415 . S
C1643 H1613 0.950 . S
C1643 C1638 1.363 . S
C1643 C1642 1.415 . S
H1644 C1641 0.999 . S
H1645 C1626 0.913 . S
H1646 C1664 0.951 . S
H1647 C1666 0.951 . S
H1648 C1668 0.950 . S
H1649 C1669 0.950 . S
H1650 C1671 0.950 . S
H1651 C1674 0.950 . S
H1652 C1675 0.950 . S
H1653 C1677 0.950 . S
H1654 C1678 0.950 . S
H1655 C1679 0.951 . S
H1656 C1681 0.951 . S
H1657 C1683 0.950 . S
H1658 C1684 0.950 . S
H1659 C1686 0.950 . S
H1660 C1689 0.950 . S
H1661 C1690 0.950 . S
H1662 C1692 0.950 . S
H1663 C1693 0.950 . S
C1664 H1646 0.951 . S
C1664 C1665 1.366 . S
C1664 C1666 1.388 . S
C1665 C1664 1.366 . S
C1665 C1669 1.385 . S
C1666 H1647 0.951 . S
C1666 C1664 1.388 . S
C1666 C1667 1.366 . S
C1667 C1666 1.366 . S
C1667 C1668 1.414 . S
C1667 C1670 1.499 . S
C1668 H1648 0.950 . S
C1668 C1667 1.414 . S
C1668 C1669 1.374 . S
C1669 H1649 0.950 . S
C1669 C1665 1.385 . S
C1669 C1668 1.374 . S
C1670 C1667 1.499 . S
C1670 C1671 1.373 . S
C1670 C1672 1.389 . S
C1671 H1650 0.950 . S
C1671 C1670 1.373 . S
C1671 C1687 1.377 . S
C1672 C1670 1.389 . S
C1672 C1673 1.524 . S
C1672 C1686 1.377 . S
C1673 C1672 1.524 . S
C1673 C1674 1.397 . S
C1673 C1678 1.363 . S
C1674 H1651 0.950 . S
C1674 C1673 1.397 . S
C1674 C1675 1.334 . S
C1675 H1652 0.950 . S
C1675 C1674 1.334 . S
C1675 C1676 1.287 . S
C1676 C1675 1.287 . S
C1676 C1677 1.524 . S
C1676 H1695 0.913 . S
C1677 H1653 0.950 . S
C1677 C1676 1.524 . S
C1677 C1678 1.415 . S
C1678 H1654 0.950 . S
C1678 C1673 1.363 . S
C1678 C1677 1.415 . S
C1679 H1655 0.951 . S
C1679 C1680 1.366 . S
C1679 C1681 1.388 . S
C1680 C1679 1.366 . S
C1680 C1684 1.385 . S
C1681 H1656 0.951 . S
C1681 C1679 1.388 . S
C1681 C1682 1.366 . S
C1682 C1681 1.366 . S
C1682 C1683 1.414 . S
C1682 C1685 1.499 . S
C1683 H1657 0.950 . S
C1683 C1682 1.414 . S
C1683 C1684 1.374 . S
C1684 H1658 0.950 . S
C1684 C1680 1.385 . S
C1684 C1683 1.374 . S
C1685 C1682 1.499 . S
C1685 C1686 1.373 . S
C1685 C1687 1.389 . S
C1686 H1659 0.950 . S
C1686 C1672 1.377 . S
C1686 C1685 1.373 . S
C1687 C1671 1.377 . S
C1687 C1685 1.389 . S
C1687 C1688 1.524 . S
C1688 C1687 1.524 . S
C1688 C1689 1.397 . S
C1688 C1693 1.363 . S
C1689 H1660 0.950 . S
C1689 C1688 1.397 . S
C1689 C1690 1.334 . S
C1690 H1661 0.950 . S
C1690 C1689 1.334 . S
C1690 C1691 1.287 . S
C1691 C1690 1.287 . S
C1691 C1692 1.524 . S
C1691 H1694 0.999 . S
C1692 H1662 0.950 . S
C1692 C1691 1.524 . S
C1692 C1693 1.415 . S
C1693 H1663 0.950 . S
C1693 C1688 1.363 . S
C1693 C1692 1.415 . S
H1694 C1691 0.999 . S
H1695 C1676 0.913 . S
H1696 C1714 0.951 . S
H1697 C1716 0.951 . S
H1698 C1718 0.950 . S
H1699 C1719 0.950 . S
H1700 C1721 0.950 . S
H1701 C1724 0.950 . S
H1702 C1725 0.950 . S
H1703 C1727 0.950 . S
H1704 C1728 0.950 . S
H1705 C1729 0.951 . S
H1706 C1731 0.951 . S
H1707 C1733 0.950 . S
H1708 C1734 0.950 . S
H1709 C1736 0.950 . S
H1710 C1739 0.950 . S
H1711 C1740 0.950 . S
H1712 C1742 0.950 . S
H1713 C1743 0.950 . S
C1714 H1696 0.951 . S
C1714 C1715 1.366 . S
C1714 C1716 1.388 . S
C1715 C1714 1.366 . S
C1715 C1719 1.385 . S
C1716 H1697 0.951 . S
C1716 C1714 1.388 . S
C1716 C1717 1.366 . S
C1717 C1716 1.366 . S
C1717 C1718 1.414 . S
C1717 C1720 1.499 . S
C1718 H1698 0.950 . S
C1718 C1717 1.414 . S
C1718 C1719 1.374 . S
C1719 H1699 0.950 . S
C1719 C1715 1.385 . S
C1719 C1718 1.374 . S
C1720 C1717 1.499 . S
C1720 C1721 1.373 . S
C1720 C1722 1.389 . S
C1721 H1700 0.950 . S
C1721 C1720 1.373 . S
C1721 C1737 1.377 . S
C1722 C1720 1.389 . S
C1722 C1723 1.524 . S
C1722 C1736 1.377 . S
C1723 C1722 1.524 . S
C1723 C1724 1.397 . S
C1723 C1728 1.363 . S
C1724 H1701 0.950 . S
C1724 C1723 1.397 . S
C1724 C1725 1.334 . S
C1725 H1702 0.950 . S
C1725 C1724 1.334 . S
C1725 C1726 1.287 . S
C1726 C1725 1.287 . S
C1726 C1727 1.524 . S
C1726 H1745 0.913 . S
C1727 H1703 0.950 . S
C1727 C1726 1.524 . S
C1727 C1728 1.415 . S
C1728 H1704 0.950 . S
C1728 C1723 1.363 . S
C1728 C1727 1.415 . S
C1729 H1705 0.951 . S
C1729 C1730 1.366 . S
C1729 C1731 1.388 . S
C1730 C1729 1.366 . S
C1730 C1734 1.385 . S
C1731 H1706 0.951 . S
C1731 C1729 1.388 . S
C1731 C1732 1.366 . S
C1732 C1731 1.366 . S
C1732 C1733 1.414 . S
C1732 C1735 1.499 . S
C1733 H1707 0.950 . S
C1733 C1732 1.414 . S
C1733 C1734 1.374 . S
C1734 H1708 0.950 . S
C1734 C1730 1.385 . S
C1734 C1733 1.374 . S
C1735 C1732 1.499 . S
C1735 C1736 1.373 . S
C1735 C1737 1.389 . S
C1736 H1709 0.950 . S
C1736 C1722 1.377 . S
C1736 C1735 1.373 . S
C1737 C1721 1.377 . S
C1737 C1735 1.389 . S
C1737 C1738 1.524 . S
C1738 C1737 1.524 . S
C1738 C1739 1.397 . S
C1738 C1743 1.363 . S
C1739 H1710 0.950 . S
C1739 C1738 1.397 . S
C1739 C1740 1.334 . S
C1740 H1711 0.950 . S
C1740 C1739 1.334 . S
C1740 C1741 1.287 . S
C1741 C1740 1.287 . S
C1741 C1742 1.524 . S
C1741 H1744 0.999 . S
C1742 H1712 0.950 . S
C1742 C1741 1.524 . S
C1742 C1743 1.415 . S
C1743 H1713 0.950 . S
C1743 C1738 1.363 . S
C1743 C1742 1.415 . S
H1744 C1741 0.999 . S
H1745 C1726 0.913 . S
H1746 C1764 0.951 . S
H1747 C1766 0.951 . S
H1748 C1768 0.950 . S
H1749 C1769 0.950 . S
H1750 C1771 0.950 . S
H1751 C1774 0.950 . S
H1752 C1775 0.950 . S
H1753 C1777 0.950 . S
H1754 C1778 0.950 . S
H1755 C1779 0.951 . S
H1756 C1781 0.951 . S
H1757 C1783 0.950 . S
H1758 C1784 0.950 . S
H1759 C1786 0.950 . S
H1760 C1789 0.950 . S
H1761 C1790 0.950 . S
H1762 C1792 0.950 . S
H1763 C1793 0.950 . S
C1764 H1746 0.951 . S
C1764 C1765 1.366 . S
C1764 C1766 1.388 . S
C1765 C1764 1.366 . S
C1765 C1769 1.385 . S
C1766 H1747 0.951 . S
C1766 C1764 1.388 . S
C1766 C1767 1.366 . S
C1767 C1766 1.366 . S
C1767 C1768 1.414 . S
C1767 C1770 1.499 . S
C1768 H1748 0.950 . S
C1768 C1767 1.414 . S
C1768 C1769 1.374 . S
C1769 H1749 0.950 . S
C1769 C1765 1.385 . S
C1769 C1768 1.374 . S
C1770 C1767 1.499 . S
C1770 C1771 1.373 . S
C1770 C1772 1.389 . S
C1771 H1750 0.950 . S
C1771 C1770 1.373 . S
C1771 C1787 1.377 . S
C1772 C1770 1.389 . S
C1772 C1773 1.524 . S
C1772 C1786 1.377 . S
C1773 C1772 1.524 . S
C1773 C1774 1.397 . S
C1773 C1778 1.363 . S
C1774 H1751 0.950 . S
C1774 C1773 1.397 . S
C1774 C1775 1.334 . S
C1775 H1752 0.950 . S
C1775 C1774 1.334 . S
C1775 C1776 1.287 . S
C1776 C1775 1.287 . S
C1776 C1777 1.524 . S
C1776 H1795 0.913 . S
C1777 H1753 0.950 . S
C1777 C1776 1.524 . S
C1777 C1778 1.415 . S
C1778 H1754 0.950 . S
C1778 C1773 1.363 . S
C1778 C1777 1.415 . S
C1779 H1755 0.951 . S
C1779 C1780 1.366 . S
C1779 C1781 1.388 . S
C1780 C1779 1.366 . S
C1780 C1784 1.385 . S
C1781 H1756 0.951 . S
C1781 C1779 1.388 . S
C1781 C1782 1.366 . S
C1782 C1781 1.366 . S
C1782 C1783 1.414 . S
C1782 C1785 1.499 . S
C1783 H1757 0.950 . S
C1783 C1782 1.414 . S
C1783 C1784 1.374 . S
C1784 H1758 0.950 . S
C1784 C1780 1.385 . S
C1784 C1783 1.374 . S
C1785 C1782 1.499 . S
C1785 C1786 1.373 . S
C1785 C1787 1.389 . S
C1786 H1759 0.950 . S
C1786 C1772 1.377 . S
C1786 C1785 1.373 . S
C1787 C1771 1.377 . S
C1787 C1785 1.389 . S
C1787 C1788 1.524 . S
C1788 C1787 1.524 . S
C1788 C1789 1.397 . S
C1788 C1793 1.363 . S
C1789 H1760 0.950 . S
C1789 C1788 1.397 . S
C1789 C1790 1.334 . S
C1790 H1761 0.950 . S
C1790 C1789 1.334 . S
C1790 C1791 1.287 . S
C1791 C1790 1.287 . S
C1791 C1792 1.524 . S
C1791 H1794 0.999 . S
C1792 H1762 0.950 . S
C1792 C1791 1.524 . S
C1792 C1793 1.415 . S
C1793 H1763 0.950 . S
C1793 C1788 1.363 . S
C1793 C1792 1.415 . S
H1794 C1791 0.999 . S
H1795 C1776 0.913 . S
H1796 C1814 0.951 . S
H1797 C1816 0.951 . S
H1798 C1818 0.950 . S
H1799 C1819 0.950 . S
H1800 C1821 0.950 . S
H1801 C1824 0.950 . S
H1802 C1825 0.950 . S
H1803 C1827 0.950 . S
H1804 C1828 0.950 . S
H1805 C1829 0.951 . S
H1806 C1831 0.951 . S
H1807 C1833 0.950 . S
H1808 C1834 0.950 . S
H1809 C1836 0.950 . S
H1810 C1839 0.950 . S
H1811 C1840 0.950 . S
H1812 C1842 0.950 . S
H1813 C1843 0.950 . S
C1814 H1796 0.951 . S
C1814 C1815 1.366 . S
C1814 C1816 1.388 . S
C1815 C1814 1.366 . S
C1815 C1819 1.385 . S
C1816 H1797 0.951 . S
C1816 C1814 1.388 . S
C1816 C1817 1.366 . S
C1817 C1816 1.366 . S
C1817 C1818 1.414 . S
C1817 C1820 1.499 . S
C1818 H1798 0.950 . S
C1818 C1817 1.414 . S
C1818 C1819 1.374 . S
C1819 H1799 0.950 . S
C1819 C1815 1.385 . S
C1819 C1818 1.374 . S
C1820 C1817 1.499 . S
C1820 C1821 1.373 . S
C1820 C1822 1.389 . S
C1821 H1800 0.950 . S
C1821 C1820 1.373 . S
C1821 C1837 1.377 . S
C1822 C1820 1.389 . S
C1822 C1823 1.524 . S
C1822 C1836 1.377 . S
C1823 C1822 1.524 . S
C1823 C1824 1.397 . S
C1823 C1828 1.363 . S
C1824 H1801 0.950 . S
C1824 C1823 1.397 . S
C1824 C1825 1.334 . S
C1825 H1802 0.950 . S
C1825 C1824 1.334 . S
C1825 C1826 1.287 . S
C1826 C1825 1.287 . S
C1826 C1827 1.524 . S
C1826 H1845 0.913 . S
C1827 H1803 0.950 . S
C1827 C1826 1.524 . S
C1827 C1828 1.415 . S
C1828 H1804 0.950 . S
C1828 C1823 1.363 . S
C1828 C1827 1.415 . S
C1829 H1805 0.951 . S
C1829 C1830 1.366 . S
C1829 C1831 1.388 . S
C1830 C1829 1.366 . S
C1830 C1834 1.385 . S
C1831 H1806 0.951 . S
C1831 C1829 1.388 . S
C1831 C1832 1.366 . S
C1832 C1831 1.366 . S
C1832 C1833 1.414 . S
C1832 C1835 1.499 . S
C1833 H1807 0.950 . S
C1833 C1832 1.414 . S
C1833 C1834 1.374 . S
C1834 H1808 0.950 . S
C1834 C1830 1.385 . S
C1834 C1833 1.374 . S
C1835 C1832 1.499 . S
C1835 C1836 1.373 . S
C1835 C1837 1.389 . S
C1836 H1809 0.950 . S
C1836 C1822 1.377 . S
C1836 C1835 1.373 . S
C1837 C1821 1.377 . S
C1837 C1835 1.389 . S
C1837 C1838 1.524 . S
C1838 C1837 1.524 . S
C1838 C1839 1.397 . S
C1838 C1843 1.363 . S
C1839 H1810 0.950 . S
C1839 C1838 1.397 . S
C1839 C1840 1.334 . S
C1840 H1811 0.950 . S
C1840 C1839 1.334 . S
C1840 C1841 1.287 . S
C1841 C1840 1.287 . S
C1841 C1842 1.524 . S
C1841 H1844 0.999 . S
C1842 H1812 0.950 . S
C1842 C1841 1.524 . S
C1842 C1843 1.415 . S
C1843 H1813 0.950 . S
C1843 C1838 1.363 . S
C1843 C1842 1.415 . S
H1844 C1841 0.999 . S
H1845 C1826 0.913 . S
H1846 C1864 0.951 . S
H1847 C1866 0.951 . S
H1848 C1868 0.950 . S
H1849 C1869 0.950 . S
H1850 C1871 0.950 . S
H1851 C1874 0.950 . S
H1852 C1875 0.950 . S
H1853 C1877 0.950 . S
H1854 C1878 0.950 . S
H1855 C1879 0.951 . S
H1856 C1881 0.951 . S
H1857 C1883 0.950 . S
H1858 C1884 0.950 . S
H1859 C1886 0.950 . S
H1860 C1889 0.950 . S
H1861 C1890 0.950 . S
H1862 C1892 0.950 . S
H1863 C1893 0.950 . S
C1864 H1846 0.951 . S
C1864 C1865 1.366 . S
C1864 C1866 1.388 . S
C1865 C1864 1.366 . S
C1865 C1869 1.385 . S
C1866 H1847 0.951 . S
C1866 C1864 1.388 . S
C1866 C1867 1.366 . S
C1867 C1866 1.366 . S
C1867 C1868 1.414 . S
C1867 C1870 1.499 . S
C1868 H1848 0.950 . S
C1868 C1867 1.414 . S
C1868 C1869 1.374 . S
C1869 H1849 0.950 . S
C1869 C1865 1.385 . S
C1869 C1868 1.374 . S
C1870 C1867 1.499 . S
C1870 C1871 1.373 . S
C1870 C1872 1.389 . S
C1871 H1850 0.950 . S
C1871 C1870 1.373 . S
C1871 C1887 1.377 . S
C1872 C1870 1.389 . S
C1872 C1873 1.524 . S
C1872 C1886 1.377 . S
C1873 C1872 1.524 . S
C1873 C1874 1.397 . S
C1873 C1878 1.363 . S
C1874 H1851 0.950 . S
C1874 C1873 1.397 . S
C1874 C1875 1.334 . S
C1875 H1852 0.950 . S
C1875 C1874 1.334 . S
C1875 C1876 1.287 . S
C1876 C1875 1.287 . S
C1876 C1877 1.524 . S
C1876 H1895 0.913 . S
C1877 H1853 0.950 . S
C1877 C1876 1.524 . S
C1877 C1878 1.415 . S
C1878 H1854 0.950 . S
C1878 C1873 1.363 . S
C1878 C1877 1.415 . S
C1879 H1855 0.951 . S
C1879 C1880 1.366 . S
C1879 C1881 1.388 . S
C1880 C1879 1.366 . S
C1880 C1884 1.385 . S
C1881 H1856 0.951 . S
C1881 C1879 1.388 . S
C1881 C1882 1.366 . S
C1882 C1881 1.366 . S
C1882 C1883 1.414 . S
C1882 C1885 1.499 . S
C1883 H1857 0.950 . S
C1883 C1882 1.414 . S
C1883 C1884 1.374 . S
C1884 H1858 0.950 . S
C1884 C1880 1.385 . S
C1884 C1883 1.374 . S
C1885 C1882 1.499 . S
C1885 C1886 1.373 . S
C1885 C1887 1.389 . S
C1886 H1859 0.950 . S
C1886 C1872 1.377 . S
C1886 C1885 1.373 . S
C1887 C1871 1.377 . S
C1887 C1885 1.389 . S
C1887 C1888 1.524 . S
C1888 C1887 1.524 . S
C1888 C1889 1.397 . S
C1888 C1893 1.363 . S
C1889 H1860 0.950 . S
C1889 C1888 1.397 . S
C1889 C1890 1.334 . S
C1890 H1861 0.950 . S
C1890 C1889 1.334 . S
C1890 C1891 1.287 . S
C1891 C1890 1.287 . S
C1891 C1892 1.524 . S
C1891 H1894 0.999 . S
C1892 H1862 0.950 . S
C1892 C1891 1.524 . S
C1892 C1893 1.415 . S
C1893 H1863 0.950 . S
C1893 C1888 1.363 . S
C1893 C1892 1.415 . S
H1894 C1891 0.999 . S
H1895 C1876 0.913 . S
C415 C172 1.331 . S
C430 N13 1.405 . S
C465 C7 1.331 . S
C480 N46 1.405 . S
C515 C40 1.332 . S
C530 N79 1.405 . S
C565 N112 1.405 . S
C580 C73 1.332 . S
C615 N145 1.405 . S
C630 C106 1.331 . S
C665 C139 1.330 . S
C680 N178 1.405 . S
C715 C238 1.331 . S
C730 N211 1.405 . S
C765 C271 1.331 . S
C780 N244 1.405 . S
C815 C304 1.331 . S
C830 N277 1.405 . S
C865 C337 1.332 . S
C880 N310 1.405 . S
C915 C370 1.331 . S
C930 N343 1.405 . S
C965 C205 1.331 . S
C980 N376 1.406 . S
C1015 N266 1.256 . S
C1030 N2 1.256 . S
C1065 N35 1.254 . S
C1080 N299 1.255 . S
C1115 N68 1.256 . S
C1130 N332 1.255 . S
C1165 N101 1.254 . S
C1180 N365 1.254 . S
C1215 N134 1.254 . S
C1230 N200 1.255 . S
C1265 N233 1.255 . S
C1280 N167 1.255 . S
C1315 C318 1.091 . S
C1330 C21 1.091 . S
C1365 C351 1.091 . S
C1380 C54 1.091 . S
C1415 C87 1.091 . S
C1430 C384 1.091 . S
C1465 C120 1.091 . S
C1480 C219 1.091 . S
C1515 C153 1.091 . S
C1530 C252 1.091 . S
C1565 C285 1.091 . S
C1580 C186 1.091 . S
C1615 C18 0.788 . S
C1630 C216 0.789 . S
C1665 C249 0.789 . S
C1680 C51 0.789 . S
C1715 C84 0.788 . S
C1730 C282 0.788 . S
C1765 C315 0.789 . S
C1780 C117 0.789 . S
C1815 C348 0.788 . S
C1830 C150 0.788 . S
C1865 C381 0.788 . S
C1880 C183 0.789 . S
