# Generated by pormake.
# Topology sxb, (6)-cn, num edge types: 1
# Building blocks:
#     Node 0, Type 0, BuildingBlock: FUNLAD_clean_sbu_0, # of connection points: 6
#     Node 1, Type 0, BuildingBlock: FUNLAD_clean_sbu_0, # of connection points: 6
#     Node 2, Type 0, BuildingBlock: FUNLAD_clean_sbu_0, # of connection points: 6
#     Node 3, Type 0, BuildingBlock: FUNLAD_clean_sbu_0, # of connection points: 6
#     Edge 4, Type (0, 0), BuildingBlock: UVAHIK_clean_linker_0, # of connection points: 2
#     Edge 5, Type (0, 0), BuildingBlock: UVAHIK_clean_linker_0, # of connection points: 2
#     Edge 6, Type (0, 0), BuildingBlock: UVAHIK_clean_linker_0, # of connection points: 2
#     Edge 7, Type (0, 0), BuildingBlock: UVAHIK_clean_linker_0, # of connection points: 2
#     Edge 8, Type (0, 0), BuildingBlock: UVAHIK_clean_linker_0, # of connection points: 2
#     Edge 9, Type (0, 0), BuildingBlock: UVAHIK_clean_linker_0, # of connection points: 2
#     Edge 10, Type (0, 0), BuildingBlock: UVAHIK_clean_linker_0, # of connection points: 2
#     Edge 11, Type (0, 0), BuildingBlock: UVAHIK_clean_linker_0, # of connection points: 2
#     Edge 12, Type (0, 0), BuildingBlock: UVAHIK_clean_linker_0, # of connection points: 2
#     Edge 13, Type (0, 0), BuildingBlock: UVAHIK_clean_linker_0, # of connection points: 2
#     Edge 14, Type (0, 0), BuildingBlock: UVAHIK_clean_linker_0, # of connection points: 2
#     Edge 15, Type (0, 0), BuildingBlock: UVAHIK_clean_linker_0, # of connection points: 2
# Relax obj value: 0.124
# Max RMSD: 0.152
# Mean RMSD: 0.152
data_MOF--net-sxb--node1-FUNLAD_clean_sbu_0--edge1-UVAHIK_clean_linker_0
_symmetry_space_group_name_H-M    P1
_symmetry_Int_Tables_number       1
_symmetry_cell_setting            triclinic
loop_
_symmetry_equiv_pos_as_xyz
'x, y, z'
_cell_length_a     18.80862
_cell_length_b     35.11236
_cell_length_c     52.59605
_cell_angle_alpha  89.676339
_cell_angle_beta   92.437522
_cell_angle_gamma 89.991443
loop_
_atom_site_label
_atom_site_type_symbol
_atom_site_fract_x
_atom_site_fract_y
_atom_site_fract_z
_atom_type_partial_charge
C0 C 0.09346 0.02371 0.01887 0.0
N1 N 0.95765 -0.0067 0.95732 0.0
C2 C 0.01851 0.98469 0.94546 0.0
C3 C 0.01974 0.98523 0.91893 0.0
C4 C 0.95746 -0.00597 0.90448 0.0
C5 C 0.89521 0.0024 0.91713 0.0
C6 C 0.89663 0.00219 0.94372 0.0
Zn7 Zn 0.95858 -0.00718 0.99631 0.0
C8 C 0.02185 0.92106 0.01798 0.0
N9 N -0.03714 0.9916 0.07774 0.0
C10 C 0.02388 0.98273 0.09135 0.0
C11 C 0.90198 0.00019 0.08959 0.0
C12 C 0.90073 -0.00031 0.11611 0.0
C13 C -0.03698 0.99092 0.13058 0.0
C14 C 0.0253 0.98256 0.11793 0.0
Zn15 Zn -0.03807 0.99206 0.03876 0.0
O16 O 0.0602 0.01729 0.99783 0.0
C17 C 0.89866 0.06382 0.01717 0.0
O18 O 0.06368 0.01645 0.03955 0.0
H19 H 0.85419 0.00751 0.07848 0.0
H20 H 0.06629 0.97735 0.95656 0.0
H21 H 0.07158 0.97573 0.08159 0.0
O22 O 0.91176 0.04771 0.99628 0.0
O23 O 0.91508 0.04694 0.03805 0.0
H24 H 0.84894 0.00921 0.95348 0.0
O25 O 0.86028 0.96758 0.03723 0.0
O26 O 0.85686 0.96845 0.9955 0.0
O27 O 0.00869 0.93727 0.03882 0.0
O28 O 0.00549 0.93784 0.99705 0.0
C29 C 0.82705 0.96118 0.01618 0.0
H30 H 0.06861 0.97829 0.9098 0.0
H31 H 0.84628 0.00958 0.90658 0.0
H32 H 0.85186 0.00662 0.12524 0.0
H33 H 0.07422 0.97541 0.12849 0.0
C34 C 0.82684 0.02361 0.51632 0.0
N35 N -0.03624 -0.00692 0.57773 0.0
C36 C 0.94833 0.02586 0.59006 0.0
C37 C 0.94901 0.02671 0.61661 0.0
C38 C -0.03554 -0.00665 0.63057 0.0
C39 C -0.02019 0.95988 0.61743 0.0
C40 C -0.02022 0.96046 0.59087 0.0
Zn41 Zn -0.03816 -0.00723 0.53875 0.0
C42 C 0.89838 0.92127 0.5176 0.0
N43 N 0.95659 0.99223 0.45732 0.0
C44 C 0.94076 0.02488 0.44419 0.0
C45 C -0.02816 0.95943 0.44499 0.0
C46 C -0.02886 0.95858 0.41844 0.0
C47 C 0.95587 0.99196 0.40448 0.0
C48 C 0.94072 0.02545 0.41763 0.0
Zn49 Zn 0.95852 -0.00746 0.49631 0.0
O50 O 0.85997 0.01687 0.53741 0.0
C51 C 0.02201 0.06404 0.51755 0.0
O52 O 0.85674 0.01671 0.49563 0.0
H53 H -0.01509 0.93387 0.45576 0.0
H54 H 0.9351 0.0514 0.57929 0.0
H55 H 0.92826 0.05058 0.4543 0.0
O56 O 0.00879 0.04759 0.5384 0.0
O57 O 0.00582 0.04746 0.49668 0.0
H58 H -0.00756 0.93478 0.58075 0.0
O59 O 0.06029 0.96836 0.49764 0.0
O60 O 0.06372 0.96869 0.53942 0.0
O61 O 0.91131 0.93766 0.49669 0.0
O62 O 0.91483 0.93791 0.53841 0.0
C63 C 0.09352 0.96171 0.51873 0.0
H64 H 0.93632 0.05298 0.62612 0.0
H65 H -0.00747 0.93368 0.6276 0.0
H66 H -0.01632 0.93229 0.40893 0.0
H67 H 0.92814 0.05168 0.40745 0.0
C68 C 0.59444 0.52284 0.01916 0.0
N69 N 0.456 0.49378 0.95836 0.0
C70 C 0.47129 0.52667 0.94591 0.0
C71 C 0.47055 0.52772 0.91936 0.0
C72 C 0.45518 0.49445 0.90555 0.0
C73 C 0.43982 0.46089 0.91883 0.0
C74 C 0.43992 0.46126 0.94537 0.0
Zn75 Zn 0.45863 0.49301 0.99728 0.0
C76 C 0.52078 0.42075 0.01846 0.0
N77 N 0.46559 0.49132 0.07858 0.0
C78 C 0.49494 0.52116 0.09164 0.0
C79 C 0.4374 0.46114 0.09097 0.0
C80 C 0.43727 0.46041 0.11751 0.0
C81 C 0.46736 0.49078 0.13157 0.0
C82 C 0.49686 0.52135 0.11821 0.0
Zn83 Zn 0.46286 0.49207 0.03966 0.0
O84 O 0.56035 0.51709 0.99818 0.0
C85 C 0.4007 0.56432 0.01864 0.0
O86 O 0.56554 0.51498 0.03992 0.0
H87 H 0.41443 0.43765 0.08025 0.0
H88 H 0.48455 0.55212 0.95657 0.0
H89 H 0.51695 0.54492 0.08145 0.0
O90 O 0.41191 0.54785 0.99773 0.0
O91 O 0.41809 0.54757 0.03947 0.0
H92 H 0.42738 0.43549 0.9556 0.0
O93 O 0.36018 0.46916 0.03854 0.0
O94 O 0.35687 0.46897 0.99679 0.0
O95 O 0.50751 0.43663 0.0394 0.0
O96 O 0.50548 0.43811 0.99768 0.0
C97 C 0.32701 0.46229 0.01755 0.0
H98 H 0.48322 0.55406 0.90972 0.0
H99 H 0.42716 0.43476 0.90876 0.0
H100 H 0.4128 0.43649 0.12683 0.0
H101 H 0.52179 0.54512 0.12811 0.0
C102 C 0.32712 0.52287 0.51726 0.0
N103 N 0.46285 0.49323 0.5791 0.0
C104 C 0.40203 0.48452 0.59101 0.0
C105 C 0.4007 0.4852 0.61752 0.0
C106 C 0.46286 0.49425 0.63189 0.0
C107 C 0.52507 0.50271 0.61919 0.0
C108 C 0.52373 0.50235 0.59262 0.0
Zn109 Zn 0.46217 0.4927 0.54019 0.0
C110 C 0.40103 0.42068 0.51897 0.0
N111 N 0.45887 0.4917 0.45894 0.0
C112 C 0.43046 0.52167 0.44552 0.0
C113 C 0.48728 0.46143 0.44693 0.0
C114 C 0.48852 0.46071 0.42041 0.0
C115 C 0.45933 0.4912 0.40599 0.0
C116 C 0.42969 0.52189 0.41897 0.0
Zn117 Zn 0.45963 0.49225 0.49782 0.0
O118 O 0.36059 0.51714 0.5384 0.0
C119 C 0.52076 0.56427 0.51895 0.0
O120 O 0.35676 0.51506 0.4967 0.0
H121 H 0.50949 0.43784 0.45793 0.0
H122 H 0.35435 0.47702 0.57995 0.0
H123 H 0.40824 0.5455 0.45543 0.0
O124 O 0.50868 0.54767 0.53988 0.0
O125 O 0.50419 0.54765 0.49812 0.0
H126 H 0.57137 0.50945 0.58281 0.0
O127 O 0.56245 0.46939 0.49962 0.0
O128 O 0.56381 0.46832 0.54133 0.0
O129 O 0.41514 0.43691 0.49812 0.0
O130 O 0.41559 0.43766 0.53984 0.0
C131 C 0.59467 0.46207 0.52078 0.0
H132 H 0.35188 0.47819 0.62671 0.0
H133 H 0.57388 0.51009 0.62969 0.0
H134 H 0.51306 0.4367 0.4114 0.0
H135 H 0.40545 0.54576 0.40877 0.0
C136 C 0.34968 0.61961 0.04171 0.0
C137 C 0.36529 0.60197 0.01867 0.0
C138 C 0.3133 0.65433 0.04169 0.0
C139 C 0.19322 0.71437 1.0012 0.0
H140 H 0.24758 0.79356 0.04929 0.0
C141 C 0.07464 0.86609 0.99514 0.0
C142 C 0.05821 0.88366 0.01811 0.0
C143 C 0.11149 0.83152 0.99528 0.0
C144 C 0.23122 0.77155 0.03594 0.0
H145 H 0.35607 0.60736 0.97754 0.0
H146 H 0.29336 0.66808 0.97753 0.0
H147 H 0.31457 0.73407 0.04936 0.0
H148 H 0.06697 0.87846 0.05926 0.0
H149 H 0.13061 0.81797 0.05947 0.0
H150 H 0.1099 0.75184 0.98777 0.0
C151 C 0.30828 0.65479 0.99561 0.0
C152 C 0.26965 0.73748 0.03596 0.0
C153 C 0.34466 0.6201 0.99563 0.0
C154 C 0.07885 0.86571 0.04122 0.0
C155 C 0.11578 0.83117 0.04135 0.0
C156 C 0.15482 0.74844 1.00117 0.0
C157 C 0.2917 0.67217 0.01863 0.0
C158 C 0.25113 0.7085 0.01858 0.0
C159 C 0.13284 0.81377 0.01839 0.0
C160 C 0.17337 0.77743 0.01853 0.0
H161 H 0.36466 0.60636 0.0598 0.0
H162 H 0.30072 0.66677 0.05975 0.0
H163 H 0.17681 0.69237 0.98785 0.0
H164 H 0.05978 0.87923 0.977 0.0
H165 H 0.12452 0.81908 0.97726 0.0
C166 C 0.57258 0.36604 0.99511 0.0
C167 C 0.55602 0.38307 0.01826 0.0
C168 C 0.6087 0.33128 0.9949 0.0
C169 C 0.6533 0.24653 0.0344 0.0
H170 H 0.80535 0.23417 0.98758 0.0
C171 C 0.84507 0.11825 0.04027 0.0
C172 C 0.86223 0.10119 0.01721 0.0
C173 C 0.80804 0.15274 0.04033 0.0
C174 C 0.76255 0.23701 1.00057 0.0
H175 H 0.56364 0.37664 0.05934 0.0
H176 H 0.62707 0.3161 0.05895 0.0
H177 H 0.73866 0.29371 0.98776 0.0
H178 H 0.85437 0.10717 0.9761 0.0
H179 H 0.78943 0.16727 0.97622 0.0
H180 H 0.67727 0.18984 0.04724 0.0
C181 C 0.61152 0.32947 0.04096 0.0
C182 C 0.72428 0.27112 1.00067 0.0
C183 C 0.57545 0.36426 0.04118 0.0
C184 C 0.84223 0.11962 0.9942 0.0
C185 C 0.80526 0.15415 0.99427 0.0
C186 C 0.69158 0.21242 0.03431 0.0
C187 C 0.62903 0.31271 0.01782 0.0
C188 C 0.66923 0.27629 0.01759 0.0
C189 C 0.78736 0.17099 0.01733 0.0
C190 C 0.7467 0.20728 0.01742 0.0
H191 H 0.55818 0.3797 0.9771 0.0
H192 H 0.62044 0.31886 0.97675 0.0
H193 H 0.61054 0.24938 0.04742 0.0
H194 H 0.85975 0.10484 0.05834 0.0
H195 H 0.79595 0.16524 0.05843 0.0
C196 C 0.07744 0.11946 0.54071 0.0
C197 C 0.05818 0.10148 0.51762 0.0
C198 C 0.11426 0.15403 0.54084 0.0
C199 C 0.15615 0.23668 0.50029 0.0
H200 H 0.31224 0.25107 0.54989 0.0
C201 C 0.3471 0.36488 0.49579 0.0
C202 C 0.36548 0.38307 0.51888 0.0
C203 C 0.31057 0.33022 0.49562 0.0
C204 C 0.26835 0.24765 0.53609 0.0
H205 H 0.06186 0.10593 0.47653 0.0
H206 H 0.12656 0.16609 0.47678 0.0
H207 H 0.24527 0.19161 0.54963 0.0
H208 H 0.36056 0.37887 0.55995 0.0
H209 H 0.29655 0.31849 0.55963 0.0
H210 H 0.17929 0.29271 0.48673 0.0
C211 C 0.11255 0.15366 0.49479 0.0
C212 C 0.22991 0.21359 0.53595 0.0
C213 C 0.07574 0.11908 0.49465 0.0
C214 C 0.34741 0.36556 0.54183 0.0
C215 C 0.31097 0.33086 0.54165 0.0
C216 C 0.19462 0.27072 0.50042 0.0
C217 C 0.13264 0.17142 0.51789 0.0
C218 C 0.17332 0.20771 0.51807 0.0
C219 C 0.29168 0.31294 0.51854 0.0
C220 C 0.25116 0.27661 0.51832 0.0
H221 H 0.06454 0.10674 0.55875 0.0
H222 H 0.128 0.16724 0.55894 0.0
H223 H 0.11221 0.23329 0.4865 0.0
H224 H 0.36036 0.37754 0.47777 0.0
H225 H 0.29738 0.31688 0.47751 0.0
C226 C 0.84166 0.86586 0.49476 0.0
C227 C 0.86232 0.8838 0.51772 0.0
C228 C 0.80504 0.83123 0.4949 0.0
C229 C 0.69352 0.77173 0.53539 0.0
H230 H 0.73813 0.69195 0.48794 0.0
C231 C 0.57718 0.61977 0.54178 0.0
C232 C 0.55626 0.60188 0.51882 0.0
C233 C 0.61353 0.65449 0.54162 0.0
C234 C 0.72446 0.71412 0.50111 0.0
H235 H 0.86165 0.87912 0.55888 0.0
H236 H 0.79847 0.81854 0.5591 0.0
H237 H 0.80491 0.75146 0.48777 0.0
H238 H 0.5562 0.60677 0.47766 0.0
H239 H 0.61899 0.66747 0.47742 0.0
H240 H 0.61313 0.73436 0.54874 0.0
C241 C 0.80967 0.83151 0.54097 0.0
C242 C 0.76277 0.74821 0.50103 0.0
C243 C 0.84632 0.86612 0.54083 0.0
C244 C 0.5717 0.61972 0.4957 0.0
C245 C 0.60813 0.6544 0.49555 0.0
C246 C 0.65523 0.73763 0.53548 0.0
C247 C 0.78822 0.81377 0.51801 0.0
C248 C 0.74776 0.77742 0.51817 0.0
C249 C 0.62987 0.67206 0.51851 0.0
C250 C 0.67024 0.70843 0.51833 0.0
H251 H 0.85299 0.87876 0.47662 0.0
H252 H 0.78861 0.81852 0.47688 0.0
H253 H 0.67984 0.7939 0.54856 0.0
H254 H 0.56633 0.60674 0.55993 0.0
H255 H 0.63019 0.66715 0.55964 0.0
C256 C 0.20475 0.03474 0.99605 0.0
C257 C 0.17021 0.03171 0.01913 0.0
C258 C 0.27821 0.03014 0.99562 0.0
C259 C 0.44419 0.02056 0.03517 0.0
H260 H 0.48779 0.94281 0.98597 0.0
C261 C 0.71565 0.95026 0.03896 0.0
C262 C 0.75028 0.95323 0.01589 0.0
C263 C 0.6422 0.95491 0.03935 0.0
C264 C 0.47636 0.96457 0.99973 0.0
H265 H 0.18602 0.02661 0.06015 0.0
H266 H 0.31416 0.01847 0.05933 0.0
H267 H 0.36823 0.96964 0.98605 0.0
H268 H 0.73462 0.95827 0.97486 0.0
H269 H 0.60649 0.96652 0.97562 0.0
H270 H 0.55231 0.01549 0.04885 0.0
C271 C 0.28461 0.02406 0.04158 0.0
C272 C 0.40829 0.98022 0.99963 0.0
C273 C 0.21112 0.02871 0.04203 0.0
C274 C 0.70945 0.95622 0.99297 0.0
C275 C 0.63597 0.96093 0.99339 0.0
C276 C 0.51225 0.00491 0.03527 0.0
C277 C 0.31806 0.0226 0.01825 0.0
C278 C 0.39166 0.00839 0.01733 0.0
C279 C 0.60244 0.96246 0.0167 0.0
C280 C 0.52887 0.97673 0.01758 0.0
H281 H 0.17466 0.03763 0.97811 0.0
H282 H 0.30324 0.03014 0.97744 0.0
H283 H 0.43275 0.04232 0.04894 0.0
H284 H 0.74567 0.94737 0.05691 0.0
H285 H 0.6171 0.95497 0.05752 0.0
C286 C 0.21039 0.95447 0.54221 0.0
C287 C 0.17026 0.95362 0.51908 0.0
C288 C 0.28394 0.95906 0.54224 0.0
C289 C 0.44016 0.96183 0.50206 0.0
H290 H 0.4946 0.04784 0.5447 0.0
C291 C 0.7101 0.03098 0.49276 0.0
C292 C 0.75012 0.03175 0.51592 0.0
C293 C 0.63652 0.02647 0.49268 0.0
C294 C 0.48011 0.02378 0.53277 0.0
H295 H 0.17615 0.9515 0.47797 0.0
H296 H 0.30437 0.95963 0.47807 0.0
H297 H 0.37547 0.02097 0.5469 0.0
H298 H 0.74404 0.03381 0.55702 0.0
H299 H 0.61578 0.02581 0.55684 0.0
H300 H 0.54481 0.96464 0.48794 0.0
C301 C 0.27917 0.95717 0.49614 0.0
C302 C 0.41236 0.00813 0.5342 0.0
C303 C 0.20563 0.95259 0.4961 0.0
C304 C 0.71464 0.03278 0.53887 0.0
C305 C 0.64108 0.02827 0.53878 0.0
C306 C 0.50791 0.97748 0.50063 0.0
C307 C 0.31824 0.96263 0.51916 0.0
C308 C 0.39186 0.97698 0.51889 0.0
C309 C 0.60209 0.0229 0.51573 0.0
C310 C 0.52843 0.00862 0.51595 0.0
H311 H 0.18468 0.95473 0.56026 0.0
H312 H 0.31339 0.96219 0.56026 0.0
H313 H 0.42568 0.93776 0.49013 0.0
H314 H 0.73591 0.03073 0.47473 0.0
H315 H 0.60715 0.02339 0.47464 0.0
C316 C 0.70521 0.53392 0.99606 0.0
C317 C 0.67093 0.53125 0.01922 0.0
C318 C 0.77875 0.52983 0.99564 0.0
C319 C 0.94493 0.52185 0.03517 0.0
H320 H -0.01201 0.44181 0.98753 0.0
C321 C 0.21575 0.4515 0.04038 0.0
C322 C 0.25045 0.45402 0.01731 0.0
C323 C 0.14224 0.45584 0.04065 0.0
C324 C -0.02333 0.46419 1.00086 0.0
H325 H 0.68706 0.52767 0.06029 0.0
H326 H 0.81533 0.52032 0.05948 0.0
H327 H 0.86861 0.46895 0.98707 0.0
H328 H 0.23504 0.45761 0.97621 0.0
H329 H 0.10679 0.46537 0.97674 0.0
H330 H 0.05297 0.51706 0.04897 0.0
C331 C 0.78555 0.52519 0.04168 0.0
C332 C 0.90876 0.48003 1.00044 0.0
C333 C 0.712 0.52932 0.04212 0.0
C334 C 0.20977 0.45604 0.99432 0.0
C335 C 0.13625 0.46043 0.9946 0.0
C336 C 0.01283 0.50601 0.0356 0.0
C337 C 0.81883 0.52319 0.01834 0.0
C338 C 0.89238 0.50901 0.01758 0.0
C339 C 0.10261 0.46259 0.01786 0.0
C340 C 0.02918 0.47699 0.01848 0.0
H341 H 0.67495 0.53609 0.97812 0.0
H342 H 0.8037 0.52939 0.97745 0.0
H343 H 0.9336 0.54422 0.04851 0.0
H344 H 0.2457 0.44926 0.05839 0.0
H345 H 0.11699 0.45638 0.05878 0.0
C346 C 0.21015 0.52942 0.49381 0.0
C347 C 0.25047 0.53102 0.51687 0.0
C348 C 0.13662 0.52495 0.49395 0.0
C349 C -0.01915 0.52368 0.53427 0.0
H350 H 0.92704 0.43559 0.49348 0.0
C351 C 0.71095 0.45531 0.54467 0.0
C352 C 0.67127 0.45376 0.52146 0.0
C353 C 0.78457 0.4595 0.54479 0.0
C354 C 0.94138 0.46022 0.5049 0.0
H355 H 0.24505 0.53461 0.55795 0.0
H356 H 0.11684 0.52668 0.55815 0.0
H357 H 0.04596 0.46251 0.49071 0.0
H358 H 0.67779 0.44996 0.48044 0.0
H359 H 0.80616 0.45745 0.4807 0.0
H360 H 0.87623 0.52142 0.54843 0.0
C361 C 0.14187 0.52848 0.54001 0.0
C362 C 0.00898 0.47589 0.50313 0.0
C363 C 0.21538 0.53294 0.53988 0.0
C364 C 0.707 0.45164 0.4986 0.0
C365 C 0.78059 0.45582 0.49875 0.0
C366 C 0.91324 0.50801 0.53603 0.0
C367 C 0.10261 0.52223 0.51713 0.0
C368 C 0.02919 0.50781 0.51774 0.0
C369 C 0.81931 0.46198 0.52175 0.0
C370 C 0.89296 0.47615 0.52137 0.0
H371 H 0.23569 0.52848 0.47574 0.0
H372 H 0.10697 0.52116 0.47603 0.0
H373 H -0.0048 0.54832 0.54568 0.0
H374 H 0.68489 0.45645 0.56263 0.0
H375 H 0.81376 0.46325 0.56281 0.0
C376 C 0.91833 0.96404 0.36229 0.0
C377 C 0.95623 0.99189 0.37633 0.0
C378 C 0.91855 0.96406 0.33571 0.0
C379 C 0.02358 0.99249 0.28236 0.0
H380 H 0.84545 0.98964 0.24253 0.0
C381 C 0.01496 0.01061 0.17311 0.0
C382 C -0.03707 0.99057 0.15873 0.0
C383 C 0.01402 0.01088 0.19967 0.0
C384 C 0.89583 0.98976 0.25328 0.0
H385 H 0.02481 0.04121 0.37375 0.0
H386 H 0.02645 0.04073 0.32719 0.0
H387 H 0.84423 0.98908 0.28886 0.0
H388 H 0.87017 0.95436 0.16068 0.0
H389 H 0.86992 0.95341 0.20702 0.0
H390 H 0.07567 0.99189 0.24705 0.0
C391 C -0.00388 0.01916 0.33678 0.0
C392 C 0.89494 0.98967 0.27984 0.0
C393 C -0.00517 0.01958 0.36334 0.0
C394 C 0.91043 0.97039 0.17137 0.0
C395 C 0.91016 0.97009 0.19794 0.0
C396 C 0.02461 0.99192 0.2558 0.0
C397 C 0.95777 0.99149 0.32274 0.0
C398 C 0.95878 0.99121 0.2946 0.0
C399 C -0.03831 0.99053 0.21249 0.0
C400 C -0.03929 0.99072 0.24085 0.0
H401 H 0.88789 0.94252 0.37188 0.0
H402 H 0.88885 0.94232 0.3253 0.0
H403 H 0.07358 -0.00673 0.29336 0.0
H404 H 0.05557 0.02673 0.16377 0.0
H405 H 0.05375 0.02758 0.21009 0.0
C406 C 0.90548 0.97444 0.86193 0.0
C407 C 0.95755 -0.00556 0.87632 0.0
C408 C 0.90639 0.97423 0.83536 0.0
C409 C 0.02455 -0.00458 0.78176 0.0
H410 H 0.84676 0.99199 0.7417 0.0
C411 C 0.00192 0.02128 0.67276 0.0
C412 C -0.03592 -0.00659 0.65872 0.0
C413 C 0.0017 0.02126 0.69934 0.0
C414 C 0.89677 -0.00725 0.75269 0.0
H415 H 0.05035 0.03061 0.87439 0.0
H416 H 0.05056 0.03166 0.82806 0.0
H417 H 0.84472 -0.0067 0.788 0.0
H418 H 0.89562 0.94405 0.66128 0.0
H419 H 0.89397 0.94451 0.70784 0.0
H420 H 0.07612 -0.00384 0.74617 0.0
C421 C 0.01031 0.01498 0.83713 0.0
C422 C 0.89577 -0.00671 0.77925 0.0
C423 C 0.01006 0.01462 0.8637 0.0
C424 C 0.92555 0.9657 0.6717 0.0
C425 C 0.92425 0.9661 0.69826 0.0
C426 C 0.02541 -0.00444 0.7552 0.0
C427 C 0.95873 -0.00542 0.82256 0.0
C428 C 0.95969 -0.00555 0.79419 0.0
C429 C -0.03746 -0.00621 0.71231 0.0
C430 C -0.03844 -0.00596 0.74044 0.0
H431 H 0.86485 0.95832 0.87125 0.0
H432 H 0.86663 0.95755 0.82494 0.0
H433 H 0.07494 -0.00447 0.7925 0.0
H434 H 0.03231 0.04283 0.66317 0.0
H435 H 0.03136 0.04301 0.70976 0.0
C436 C 0.46953 0.52509 0.36397 0.0
C437 C 0.46011 0.49106 0.37766 0.0
C438 C 0.47016 0.52497 0.33742 0.0
C439 C 0.42021 0.46538 0.28106 0.0
H440 H 0.54419 0.53529 0.24668 0.0
C441 C 0.47552 0.45645 0.17381 0.0
C442 C 0.46754 0.4907 0.15992 0.0
C443 C 0.47457 0.45635 0.20036 0.0
C444 C 0.50906 0.51578 0.25606 0.0
H445 H 0.4433 0.43014 0.37382 0.0
H446 H 0.44813 0.42966 0.32779 0.0
H447 H 0.54369 0.53493 0.29302 0.0
H448 H 0.45157 0.55172 0.16342 0.0
H449 H 0.45256 0.5515 0.20977 0.0
H450 H 0.38736 0.4456 0.24391 0.0
C451 C 0.45332 0.45668 0.33751 0.0
C452 C 0.50839 0.51566 0.28262 0.0
C453 C 0.45172 0.45687 0.36404 0.0
C454 C 0.45931 0.52487 0.17337 0.0
C455 C 0.45948 0.5248 0.19994 0.0
C456 C 0.42174 0.46513 0.25452 0.0
C457 C 0.46236 0.49074 0.32381 0.0
C458 C 0.46369 0.49058 0.2955 0.0
C459 C 0.46675 0.49053 0.21366 0.0
C460 C 0.46591 0.49044 0.24179 0.0
H461 H 0.47722 0.55193 0.37374 0.0
H462 H 0.47618 0.55188 0.32759 0.0
H463 H 0.38407 0.44617 0.29019 0.0
H464 H 0.4834 0.42966 0.16423 0.0
H465 H 0.48106 0.42958 0.21054 0.0
C466 C 0.51484 0.47502 0.67463 0.0
C467 C 0.46269 0.49486 0.66001 0.0
C468 C 0.51393 0.47506 0.70118 0.0
C469 C 0.39564 0.49643 0.75447 0.0
H470 H 0.57348 0.49386 0.79457 0.0
C471 C 0.41782 0.52252 0.86321 0.0
C472 C 0.45579 0.49466 0.87744 0.0
C473 C 0.41819 0.52258 0.83665 0.0
C474 C 0.52347 0.4944 0.78356 0.0
H475 H 0.36973 0.53101 0.6615 0.0
H476 H 0.36951 0.53247 0.70783 0.0
H477 H 0.57553 0.49494 0.74825 0.0
H478 H 0.52471 0.44545 0.87525 0.0
H479 H 0.5266 0.44605 0.82869 0.0
H480 H 0.34405 0.49713 0.79005 0.0
C481 C 0.40983 0.51573 0.69894 0.0
C482 C 0.52448 0.49479 0.75701 0.0
C483 C 0.41008 0.51513 0.67239 0.0
C484 C 0.49467 0.46708 0.86467 0.0
C485 C 0.49611 0.46756 0.83813 0.0
C486 C 0.39477 0.49669 0.78102 0.0
C487 C 0.4615 0.4955 0.71373 0.0
C488 C 0.46054 0.49561 0.74207 0.0
C489 C 0.45764 0.49522 0.82389 0.0
C490 C 0.45864 0.49548 0.79578 0.0
H491 H 0.55554 0.45885 0.66549 0.0
H492 H 0.55377 0.45851 0.71181 0.0
H493 H 0.34527 0.49628 0.74372 0.0
H494 H 0.3872 0.54397 0.87265 0.0
H495 H 0.3884 0.54429 0.82606 0.0
loop_
_geom_bond_atom_site_label_1
_geom_bond_atom_site_label_2
_geom_bond_distance
_geom_bond_site_symmetry_2
_ccdc_geom_bond_type
C0 O16 1.251 1_554 S
C0 O18 1.254 . S
N1 C2 1.335 1_655 S
N1 C6 1.304 1_545 S
N1 Zn7 2.020 1_545 S
C2 N1 1.335 1_455 S
C2 C3 1.379 . S
C2 H20 0.952 . S
C3 C2 1.379 . S
C3 C4 1.390 1_455 S
C3 H30 0.949 . S
C4 C3 1.390 1_655 S
C4 C5 1.357 1_545 S
C5 C4 1.357 1_565 S
C5 C6 1.370 . S
C5 H31 0.950 . S
C6 N1 1.304 1_565 S
C6 C5 1.370 . S
C6 H24 0.948 . S
Zn7 N1 2.020 1_565 S
Zn7 O16 2.039 1_665 S
Zn7 O22 2.034 1_565 S
Zn7 O26 2.025 . S
Zn7 O28 2.024 1_655 S
C8 O27 1.246 . S
C8 O28 1.249 1_554 S
N9 C10 1.308 1_565 S
N9 C11 1.332 1_455 S
N9 Zn15 2.020 1_565 S
C10 N9 1.308 1_545 S
C10 C14 1.370 . S
C10 H21 0.948 . S
C11 N9 1.332 1_655 S
C11 C12 1.379 . S
C11 H19 0.952 . S
C12 C11 1.379 . S
C12 C13 1.390 1_655 S
C12 H32 0.949 . S
C13 C12 1.390 1_455 S
C13 C14 1.357 1_565 S
C14 C10 1.370 . S
C14 C13 1.357 1_545 S
C14 H33 0.950 . S
Zn15 N9 2.020 1_545 S
Zn15 O18 2.025 . S
Zn15 O23 2.024 1_455 S
Zn15 O25 2.039 1_445 S
Zn15 O27 2.034 1_545 S
O16 C0 1.251 1_556 S
O16 Zn7 2.039 1_445 S
C17 O22 1.246 1_554 S
C17 O23 1.249 . S
O18 C0 1.254 . S
O18 Zn15 2.025 . S
H19 C11 0.952 . S
H20 C2 0.952 . S
H21 C10 0.948 . S
O22 Zn7 2.034 1_545 S
O22 C17 1.246 1_556 S
O23 Zn15 2.024 1_655 S
O23 C17 1.249 . S
H24 C6 0.948 . S
O25 Zn15 2.039 1_665 S
O25 C29 1.251 . S
O26 Zn7 2.025 . S
O26 C29 1.254 1_556 S
O27 C8 1.246 . S
O27 Zn15 2.034 1_565 S
O28 Zn7 2.024 1_455 S
O28 C8 1.249 1_556 S
C29 O25 1.251 . S
C29 O26 1.254 1_554 S
H30 C3 0.949 . S
H31 C5 0.950 . S
H32 C12 0.949 . S
H33 C14 0.950 . S
C34 O50 1.251 . S
C34 O52 1.254 . S
N35 C36 1.335 1_455 S
N35 C40 1.304 1_545 S
N35 Zn41 2.020 1_545 S
C36 N35 1.335 1_655 S
C36 C37 1.379 . S
C36 H54 0.952 . S
C37 C36 1.379 . S
C37 C38 1.390 1_655 S
C37 H64 0.949 . S
C38 C37 1.390 1_455 S
C38 C39 1.357 1_545 S
C39 C38 1.357 1_565 S
C39 C40 1.370 . S
C39 H65 0.950 . S
C40 N35 1.304 1_565 S
C40 C39 1.370 . S
C40 H58 0.948 . S
Zn41 N35 2.020 1_565 S
Zn41 O50 2.039 1_465 S
Zn41 O56 2.034 1_565 S
Zn41 O60 2.025 . S
Zn41 O62 2.024 1_455 S
C42 O61 1.246 . S
C42 O62 1.249 . S
N43 C44 1.308 1_565 S
N43 C45 1.332 1_655 S
N43 Zn49 2.020 1_565 S
C44 N43 1.308 1_545 S
C44 C48 1.370 . S
C44 H55 0.948 . S
C45 N43 1.332 1_455 S
C45 C46 1.379 . S
C45 H53 0.952 . S
C46 C45 1.379 . S
C46 C47 1.390 1_455 S
C46 H66 0.949 . S
C47 C46 1.390 1_655 S
C47 C48 1.357 1_565 S
C48 C44 1.370 . S
C48 C47 1.357 1_545 S
C48 H67 0.950 . S
Zn49 N43 2.020 1_545 S
Zn49 O52 2.025 . S
Zn49 O57 2.024 1_655 S
Zn49 O59 2.039 1_645 S
Zn49 O61 2.034 1_545 S
O50 C34 1.251 . S
O50 Zn41 2.039 1_645 S
C51 O56 1.246 . S
C51 O57 1.249 . S
O52 C34 1.254 . S
O52 Zn49 2.025 . S
H53 C45 0.952 . S
H54 C36 0.952 . S
H55 C44 0.948 . S
O56 Zn41 2.034 1_545 S
O56 C51 1.246 . S
O57 Zn49 2.024 1_455 S
O57 C51 1.249 . S
H58 C40 0.948 . S
O59 Zn49 2.039 1_465 S
O59 C63 1.251 . S
O60 Zn41 2.025 . S
O60 C63 1.254 . S
O61 C42 1.246 . S
O61 Zn49 2.034 1_565 S
O62 Zn41 2.024 1_655 S
O62 C42 1.249 . S
C63 O59 1.251 . S
C63 O60 1.254 . S
H64 C37 0.949 . S
H65 C39 0.950 . S
H66 C46 0.949 . S
H67 C48 0.950 . S
C68 O84 1.251 1_554 S
C68 O86 1.254 . S
N69 C70 1.333 . S
N69 C74 1.307 . S
N69 Zn75 2.020 . S
C70 N69 1.333 . S
C70 C71 1.379 . S
C70 H88 0.952 . S
C71 C70 1.379 . S
C71 C72 1.390 . S
C71 H98 0.949 . S
C72 C71 1.390 . S
C72 C73 1.357 . S
C73 C72 1.357 . S
C73 C74 1.370 . S
C73 H99 0.950 . S
C74 N69 1.307 . S
C74 C73 1.370 . S
C74 H92 0.948 . S
Zn75 N69 2.020 . S
Zn75 O84 2.039 . S
Zn75 O90 2.034 . S
Zn75 O94 2.025 . S
Zn75 O96 2.024 . S
C76 O95 1.246 . S
C76 O96 1.249 1_554 S
N77 C78 1.307 . S
N77 C79 1.333 . S
N77 Zn83 2.020 . S
C78 N77 1.307 . S
C78 C82 1.370 . S
C78 H89 0.948 . S
C79 N77 1.333 . S
C79 C80 1.379 . S
C79 H87 0.952 . S
C80 C79 1.379 . S
C80 C81 1.390 . S
C80 H100 0.949 . S
C81 C80 1.390 . S
C81 C82 1.357 . S
C82 C78 1.370 . S
C82 C81 1.357 . S
C82 H101 0.950 . S
Zn83 N77 2.020 . S
Zn83 O86 2.025 . S
Zn83 O91 2.024 . S
Zn83 O93 2.039 . S
Zn83 O95 2.034 . S
O84 C68 1.251 1_556 S
O84 Zn75 2.039 . S
C85 O90 1.246 1_554 S
C85 O91 1.249 . S
O86 C68 1.254 . S
O86 Zn83 2.025 . S
H87 C79 0.952 . S
H88 C70 0.952 . S
H89 C78 0.948 . S
O90 Zn75 2.034 . S
O90 C85 1.246 1_556 S
O91 Zn83 2.024 . S
O91 C85 1.249 . S
H92 C74 0.948 . S
O93 Zn83 2.039 . S
O93 C97 1.251 . S
O94 Zn75 2.025 . S
O94 C97 1.254 1_556 S
O95 C76 1.246 . S
O95 Zn83 2.034 . S
O96 Zn75 2.024 . S
O96 C76 1.249 1_556 S
C97 O93 1.251 . S
C97 O94 1.254 1_554 S
H98 C71 0.949 . S
H99 C73 0.950 . S
H100 C80 0.949 . S
H101 C82 0.950 . S
C102 O118 1.251 . S
C102 O120 1.254 . S
N103 C104 1.333 . S
N103 C108 1.307 . S
N103 Zn109 2.020 . S
C104 N103 1.333 . S
C104 C105 1.379 . S
C104 H122 0.952 . S
C105 C104 1.379 . S
C105 C106 1.390 . S
C105 H132 0.949 . S
C106 C105 1.390 . S
C106 C107 1.357 . S
C107 C106 1.357 . S
C107 C108 1.370 . S
C107 H133 0.950 . S
C108 N103 1.307 . S
C108 C107 1.370 . S
C108 H126 0.948 . S
Zn109 N103 2.020 . S
Zn109 O118 2.039 . S
Zn109 O124 2.034 . S
Zn109 O128 2.025 . S
Zn109 O130 2.024 . S
C110 O129 1.246 . S
C110 O130 1.249 . S
N111 C112 1.307 . S
N111 C113 1.333 . S
N111 Zn117 2.020 . S
C112 N111 1.307 . S
C112 C116 1.370 . S
C112 H123 0.948 . S
C113 N111 1.333 . S
C113 C114 1.379 . S
C113 H121 0.952 . S
C114 C113 1.379 . S
C114 C115 1.390 . S
C114 H134 0.949 . S
C115 C114 1.390 . S
C115 C116 1.357 . S
C116 C112 1.370 . S
C116 C115 1.357 . S
C116 H135 0.950 . S
Zn117 N111 2.020 . S
Zn117 O120 2.025 . S
Zn117 O125 2.024 . S
Zn117 O127 2.039 . S
Zn117 O129 2.034 . S
O118 C102 1.251 . S
O118 Zn109 2.039 . S
C119 O124 1.246 . S
C119 O125 1.249 . S
O120 C102 1.254 . S
O120 Zn117 2.025 . S
H121 C113 0.952 . S
H122 C104 0.952 . S
H123 C112 0.948 . S
O124 Zn109 2.034 . S
O124 C119 1.246 . S
O125 Zn117 2.024 . S
O125 C119 1.249 . S
H126 C108 0.948 . S
O127 Zn117 2.039 . S
O127 C131 1.251 . S
O128 Zn109 2.025 . S
O128 C131 1.254 . S
O129 C110 1.246 . S
O129 Zn117 2.034 . S
O130 Zn109 2.024 . S
O130 C110 1.249 . S
C131 O127 1.251 . S
C131 O128 1.254 . S
H132 C105 0.949 . S
H133 C107 0.950 . S
H134 C114 0.949 . S
H135 C116 0.950 . S
C136 C137 1.349 . S
C136 C138 1.327 . S
C136 H161 0.950 . S
C137 C136 1.349 . S
C137 C153 1.349 1_554 S
C138 C136 1.327 . S
C138 C157 1.429 . S
C138 H162 0.950 . S
C139 C156 1.574 . S
C139 C158 1.368 1_556 S
C139 H163 0.949 . S
H140 C144 0.949 . S
C141 C142 1.349 1_556 S
C141 C143 1.327 . S
C141 H164 0.950 . S
C142 C141 1.349 1_554 S
C142 C154 1.349 . S
C143 C141 1.327 . S
C143 C159 1.429 1_556 S
C143 H165 0.950 . S
C144 H140 0.949 . S
C144 C152 1.574 . S
C144 C160 1.368 . S
H145 C153 0.950 . S
H146 C151 0.950 . S
H147 C152 0.949 . S
H148 C154 0.950 . S
H149 C155 0.950 . S
H150 C156 0.949 . S
C151 H146 0.950 . S
C151 C153 1.327 . S
C151 C157 1.429 1_556 S
C152 C144 1.574 . S
C152 H147 0.949 . S
C152 C158 1.368 . S
C153 C137 1.349 1_556 S
C153 H145 0.950 . S
C153 C151 1.327 . S
C154 C142 1.349 . S
C154 H148 0.950 . S
C154 C155 1.327 . S
C155 H149 0.950 . S
C155 C154 1.327 . S
C155 C159 1.429 . S
C156 C139 1.574 . S
C156 H150 0.949 . S
C156 C160 1.368 1_556 S
C157 C138 1.429 . S
C157 C151 1.429 1_554 S
C157 C158 1.523 . S
C158 C139 1.368 1_554 S
C158 C152 1.368 . S
C158 C157 1.523 . S
C159 C143 1.429 1_554 S
C159 C155 1.429 . S
C159 C160 1.523 . S
C160 C144 1.368 . S
C160 C156 1.368 1_554 S
C160 C159 1.523 . S
H161 C136 0.950 . S
H162 C138 0.950 . S
H163 C139 0.949 . S
H164 C141 0.950 . S
H165 C143 0.950 . S
C166 C167 1.349 1_556 S
C166 C168 1.327 . S
C166 H191 0.950 . S
C167 C166 1.349 1_554 S
C167 C183 1.349 . S
C168 C166 1.327 . S
C168 C187 1.429 1_556 S
C168 H192 0.950 . S
C169 C186 1.574 . S
C169 C188 1.368 . S
C169 H193 0.949 . S
H170 C174 0.949 . S
C171 C172 1.349 . S
C171 C173 1.327 . S
C171 H194 0.950 . S
C172 C171 1.349 . S
C172 C184 1.349 1_554 S
C173 C171 1.327 . S
C173 C189 1.429 . S
C173 H195 0.950 . S
C174 H170 0.949 . S
C174 C182 1.574 . S
C174 C190 1.368 1_556 S
H175 C183 0.950 . S
H176 C181 0.950 . S
H177 C182 0.949 . S
H178 C184 0.950 . S
H179 C185 0.950 . S
H180 C186 0.949 . S
C181 H176 0.950 . S
C181 C183 1.327 . S
C181 C187 1.429 . S
C182 C174 1.574 . S
C182 H177 0.949 . S
C182 C188 1.368 1_556 S
C183 C167 1.349 . S
C183 H175 0.950 . S
C183 C181 1.327 . S
C184 C172 1.349 1_556 S
C184 H178 0.950 . S
C184 C185 1.327 . S
C185 H179 0.950 . S
C185 C184 1.327 . S
C185 C189 1.429 1_556 S
C186 C169 1.574 . S
C186 H180 0.949 . S
C186 C190 1.368 . S
C187 C168 1.429 1_554 S
C187 C181 1.429 . S
C187 C188 1.523 . S
C188 C169 1.368 . S
C188 C182 1.368 1_554 S
C188 C187 1.523 . S
C189 C173 1.429 . S
C189 C185 1.429 1_554 S
C189 C190 1.523 . S
C190 C174 1.368 1_554 S
C190 C186 1.368 . S
C190 C189 1.523 . S
H191 C166 0.950 . S
H192 C168 0.950 . S
H193 C169 0.949 . S
H194 C171 0.950 . S
H195 C173 0.950 . S
C196 C197 1.349 . S
C196 C198 1.327 . S
C196 H221 0.950 . S
C197 C196 1.349 . S
C197 C213 1.349 . S
C198 C196 1.327 . S
C198 C217 1.429 . S
C198 H222 0.950 . S
C199 C216 1.574 . S
C199 C218 1.368 . S
C199 H223 0.949 . S
H200 C204 0.949 . S
C201 C202 1.349 . S
C201 C203 1.327 . S
C201 H224 0.950 . S
C202 C201 1.349 . S
C202 C214 1.349 . S
C203 C201 1.327 . S
C203 C219 1.429 . S
C203 H225 0.950 . S
C204 H200 0.949 . S
C204 C212 1.574 . S
C204 C220 1.368 . S
H205 C213 0.950 . S
H206 C211 0.950 . S
H207 C212 0.949 . S
H208 C214 0.950 . S
H209 C215 0.950 . S
H210 C216 0.949 . S
C211 H206 0.950 . S
C211 C213 1.327 . S
C211 C217 1.429 . S
C212 C204 1.574 . S
C212 H207 0.949 . S
C212 C218 1.368 . S
C213 C197 1.349 . S
C213 H205 0.950 . S
C213 C211 1.327 . S
C214 C202 1.349 . S
C214 H208 0.950 . S
C214 C215 1.327 . S
C215 H209 0.950 . S
C215 C214 1.327 . S
C215 C219 1.429 . S
C216 C199 1.574 . S
C216 H210 0.949 . S
C216 C220 1.368 . S
C217 C198 1.429 . S
C217 C211 1.429 . S
C217 C218 1.523 . S
C218 C199 1.368 . S
C218 C212 1.368 . S
C218 C217 1.523 . S
C219 C203 1.429 . S
C219 C215 1.429 . S
C219 C220 1.523 . S
C220 C204 1.368 . S
C220 C216 1.368 . S
C220 C219 1.523 . S
H221 C196 0.950 . S
H222 C198 0.950 . S
H223 C199 0.949 . S
H224 C201 0.950 . S
H225 C203 0.950 . S
C226 C227 1.349 . S
C226 C228 1.327 . S
C226 H251 0.950 . S
C227 C226 1.349 . S
C227 C243 1.349 . S
C228 C226 1.327 . S
C228 C247 1.429 . S
C228 H252 0.950 . S
C229 C246 1.574 . S
C229 C248 1.368 . S
C229 H253 0.949 . S
H230 C234 0.949 . S
C231 C232 1.349 . S
C231 C233 1.327 . S
C231 H254 0.950 . S
C232 C231 1.349 . S
C232 C244 1.349 . S
C233 C231 1.327 . S
C233 C249 1.429 . S
C233 H255 0.950 . S
C234 H230 0.949 . S
C234 C242 1.574 . S
C234 C250 1.368 . S
H235 C243 0.950 . S
H236 C241 0.950 . S
H237 C242 0.949 . S
H238 C244 0.950 . S
H239 C245 0.950 . S
H240 C246 0.949 . S
C241 H236 0.950 . S
C241 C243 1.327 . S
C241 C247 1.429 . S
C242 C234 1.574 . S
C242 H237 0.949 . S
C242 C248 1.368 . S
C243 C227 1.349 . S
C243 H235 0.950 . S
C243 C241 1.327 . S
C244 C232 1.349 . S
C244 H238 0.950 . S
C244 C245 1.327 . S
C245 H239 0.950 . S
C245 C244 1.327 . S
C245 C249 1.429 . S
C246 C229 1.574 . S
C246 H240 0.949 . S
C246 C250 1.368 . S
C247 C228 1.429 . S
C247 C241 1.429 . S
C247 C248 1.523 . S
C248 C229 1.368 . S
C248 C242 1.368 . S
C248 C247 1.523 . S
C249 C233 1.429 . S
C249 C245 1.429 . S
C249 C250 1.523 . S
C250 C234 1.368 . S
C250 C246 1.368 . S
C250 C249 1.523 . S
H251 C226 0.950 . S
H252 C228 0.950 . S
H253 C229 0.949 . S
H254 C231 0.950 . S
H255 C233 0.950 . S
C256 C257 1.349 1_556 S
C256 C258 1.327 . S
C256 H281 0.950 . S
C257 C256 1.349 1_554 S
C257 C273 1.349 1_545 S
C258 C256 1.327 . S
C258 C277 1.429 1_556 S
C258 H282 0.950 . S
C259 C276 1.574 . S
C259 C278 1.368 1_565 S
C259 H283 0.949 . S
H260 C264 0.949 . S
C261 C262 1.349 . S
C261 C263 1.327 . S
C261 H284 0.950 . S
C262 C261 1.349 . S
C262 C274 1.349 1_564 S
C263 C261 1.327 . S
C263 C279 1.429 . S
C263 H285 0.950 . S
C264 H260 0.949 . S
C264 C272 1.574 . S
C264 C280 1.368 1_546 S
H265 C273 0.950 . S
H266 C271 0.950 . S
H267 C272 0.949 . S
H268 C274 0.950 . S
H269 C275 0.950 . S
H270 C276 0.949 . S
C271 H266 0.950 . S
C271 C273 1.327 . S
C271 C277 1.429 1_565 S
C272 C264 1.574 . S
C272 H267 0.949 . S
C272 C278 1.368 1_556 S
C273 C257 1.349 1_565 S
C273 H265 0.950 . S
C273 C271 1.327 . S
C274 C262 1.349 1_546 S
C274 H268 0.950 . S
C274 C275 1.327 . S
C275 H269 0.950 . S
C275 C274 1.327 . S
C275 C279 1.429 1_546 S
C276 C259 1.574 . S
C276 H270 0.949 . S
C276 C280 1.368 . S
C277 C258 1.429 1_554 S
C277 C271 1.429 1_545 S
C277 C278 1.523 . S
C278 C259 1.368 1_545 S
C278 C272 1.368 1_554 S
C278 C277 1.523 . S
C279 C263 1.429 . S
C279 C275 1.429 1_564 S
C279 C280 1.523 . S
C280 C264 1.368 1_564 S
C280 C276 1.368 . S
C280 C279 1.523 . S
H281 C256 0.950 . S
H282 C258 0.950 . S
H283 C259 0.949 . S
H284 C261 0.950 . S
H285 C263 0.950 . S
C286 C287 1.349 . S
C286 C288 1.327 . S
C286 H311 0.950 . S
C287 C286 1.349 . S
C287 C303 1.349 . S
C288 C286 1.327 . S
C288 C307 1.429 . S
C288 H312 0.950 . S
C289 C306 1.574 . S
C289 C308 1.368 1_545 S
C289 H313 0.949 . S
H290 C294 0.949 . S
C291 C292 1.349 . S
C291 C293 1.327 . S
C291 H314 0.950 . S
C292 C291 1.349 . S
C292 C304 1.349 . S
C293 C291 1.327 . S
C293 C309 1.429 . S
C293 H315 0.950 . S
C294 H290 0.949 . S
C294 C302 1.574 . S
C294 C310 1.368 1_565 S
H295 C303 0.950 . S
H296 C301 0.950 1_545 S
H297 C302 0.949 . S
H298 C304 0.950 . S
H299 C305 0.950 1_565 S
H300 C306 0.949 . S
C301 H296 0.950 1_565 S
C301 C303 1.327 . S
C301 C307 1.429 . S
C302 C294 1.574 . S
C302 H297 0.949 . S
C302 C308 1.368 . S
C303 C287 1.349 . S
C303 H295 0.950 . S
C303 C301 1.327 . S
C304 C292 1.349 . S
C304 H298 0.950 . S
C304 C305 1.327 . S
C305 H299 0.950 1_545 S
C305 C304 1.327 . S
C305 C309 1.429 . S
C306 C289 1.574 . S
C306 H300 0.949 . S
C306 C310 1.368 . S
C307 C288 1.429 . S
C307 C301 1.429 . S
C307 C308 1.523 . S
C308 C289 1.368 1_565 S
C308 C302 1.368 . S
C308 C307 1.523 . S
C309 C293 1.429 . S
C309 C305 1.429 . S
C309 C310 1.523 . S
C310 C294 1.368 1_545 S
C310 C306 1.368 . S
C310 C309 1.523 . S
H311 C286 0.950 . S
H312 C288 0.950 . S
H313 C289 0.949 . S
H314 C291 0.950 . S
H315 C293 0.950 . S
C316 C317 1.349 1_556 S
C316 C318 1.327 . S
C316 H341 0.950 . S
C317 C316 1.349 1_554 S
C317 C333 1.349 . S
C318 C316 1.327 . S
C318 C337 1.429 1_556 S
C318 H342 0.950 . S
C319 C336 1.574 1_655 S
C319 C338 1.368 . S
C319 H343 0.949 . S
H320 C324 0.949 . S
C321 C322 1.349 . S
C321 C323 1.327 . S
C321 H344 0.950 . S
C322 C321 1.349 . S
C322 C334 1.349 1_554 S
C323 C321 1.327 . S
C323 C339 1.429 . S
C323 H345 0.950 . S
C324 H320 0.949 . S
C324 C332 1.574 1_455 S
C324 C340 1.368 1_556 S
H325 C333 0.950 . S
H326 C331 0.950 . S
H327 C332 0.949 . S
H328 C334 0.950 . S
H329 C335 0.950 . S
H330 C336 0.949 . S
C331 H326 0.950 . S
C331 C333 1.327 . S
C331 C337 1.429 . S
C332 C324 1.574 1_655 S
C332 H327 0.949 . S
C332 C338 1.368 1_556 S
C333 C317 1.349 . S
C333 H325 0.950 . S
C333 C331 1.327 . S
C334 C322 1.349 1_556 S
C334 H328 0.950 . S
C334 C335 1.327 . S
C335 H329 0.950 . S
C335 C334 1.327 . S
C335 C339 1.429 1_556 S
C336 C319 1.574 1_455 S
C336 H330 0.949 . S
C336 C340 1.368 . S
C337 C318 1.429 1_554 S
C337 C331 1.429 . S
C337 C338 1.523 . S
C338 C319 1.368 . S
C338 C332 1.368 1_554 S
C338 C337 1.523 . S
C339 C323 1.429 . S
C339 C335 1.429 1_554 S
C339 C340 1.523 . S
C340 C324 1.368 1_554 S
C340 C336 1.368 . S
C340 C339 1.523 . S
H341 C316 0.950 . S
H342 C318 0.950 . S
H343 C319 0.949 . S
H344 C321 0.950 . S
H345 C323 0.950 . S
C346 C347 1.349 . S
C346 C348 1.327 . S
C346 H371 0.950 . S
C347 C346 1.349 . S
C347 C363 1.349 . S
C348 C346 1.327 . S
C348 C367 1.429 . S
C348 H372 0.950 . S
C349 C366 1.574 1_455 S
C349 C368 1.368 . S
C349 H373 0.949 . S
H350 C354 0.949 . S
C351 C352 1.349 . S
C351 C353 1.327 . S
C351 H374 0.950 . S
C352 C351 1.349 . S
C352 C364 1.349 . S
C353 C351 1.327 . S
C353 C369 1.429 . S
C353 H375 0.950 . S
C354 H350 0.949 . S
C354 C362 1.574 1_655 S
C354 C370 1.368 . S
H355 C363 0.950 . S
H356 C361 0.950 . S
H357 C362 0.949 . S
H358 C364 0.950 . S
H359 C365 0.950 . S
H360 C366 0.949 . S
C361 H356 0.950 . S
C361 C363 1.327 . S
C361 C367 1.429 . S
C362 C354 1.574 1_455 S
C362 H357 0.949 . S
C362 C368 1.368 . S
C363 C347 1.349 . S
C363 H355 0.950 . S
C363 C361 1.327 . S
C364 C352 1.349 . S
C364 H358 0.950 . S
C364 C365 1.327 . S
C365 H359 0.950 . S
C365 C364 1.327 . S
C365 C369 1.429 . S
C366 C349 1.574 1_655 S
C366 H360 0.949 . S
C366 C370 1.368 . S
C367 C348 1.429 . S
C367 C361 1.429 . S
C367 C368 1.523 . S
C368 C349 1.368 . S
C368 C362 1.368 . S
C368 C367 1.523 . S
C369 C353 1.429 . S
C369 C365 1.429 . S
C369 C370 1.523 . S
C370 C354 1.368 . S
C370 C366 1.368 . S
C370 C369 1.523 . S
H371 C346 0.950 . S
H372 C348 0.950 . S
H373 C349 0.949 . S
H374 C351 0.950 . S
H375 C353 0.950 . S
C376 C377 1.349 1_655 S
C376 C378 1.327 . S
C376 H401 0.950 . S
C377 C376 1.349 1_455 S
C377 C393 1.349 1_565 S
C378 C376 1.327 . S
C378 C397 1.424 1_655 S
C378 H402 0.950 . S
C379 C396 1.574 . S
C379 C398 1.371 1_545 S
C379 H403 0.949 . S
H380 C384 0.949 . S
C381 C382 1.343 1_445 S
C381 C383 1.327 . S
C381 H404 0.950 . S
C382 C381 1.343 1_665 S
C382 C394 1.355 . S
C383 C381 1.327 . S
C383 C399 1.427 1_445 S
C383 H405 0.950 . S
C384 H380 0.949 . S
C384 C392 1.574 . S
C384 C400 1.368 . S
H385 C393 0.950 . S
H386 C391 0.950 . S
H387 C392 0.949 . S
H388 C394 0.950 . S
H389 C395 0.950 . S
H390 C396 0.949 . S
C391 H386 0.950 . S
C391 C393 1.327 . S
C391 C397 1.433 1_545 S
C392 C384 1.574 . S
C392 H387 0.949 . S
C392 C398 1.366 1_655 S
C393 C377 1.349 1_545 S
C393 H385 0.950 . S
C393 C391 1.327 . S
C394 C382 1.355 . S
C394 H388 0.950 . S
C394 C395 1.327 . S
C395 H389 0.950 . S
C395 C394 1.327 . S
C395 C399 1.430 . S
C396 C379 1.574 . S
C396 H390 0.949 . S
C396 C400 1.369 1_445 S
C397 C378 1.424 1_455 S
C397 C391 1.433 1_565 S
C397 C398 1.523 . S
C398 C379 1.371 1_565 S
C398 C392 1.366 1_455 S
C398 C397 1.523 . S
C399 C383 1.427 1_665 S
C399 C395 1.430 . S
C399 C400 1.523 . S
C400 C384 1.368 . S
C400 C396 1.369 1_665 S
C400 C399 1.523 . S
H401 C376 0.950 . S
H402 C378 0.950 . S
H403 C379 0.949 . S
H404 C381 0.950 . S
H405 C383 0.950 . S
C406 C407 1.349 1_665 S
C406 C408 1.327 . S
C406 H431 0.950 . S
C407 C406 1.349 1_445 S
C407 C423 1.349 . S
C408 C406 1.327 . S
C408 C427 1.424 1_665 S
C408 H432 0.950 . S
C409 C426 1.574 . S
C409 C428 1.371 . S
C409 H433 0.949 . S
H410 C414 0.949 . S
C411 C412 1.343 1_455 S
C411 C413 1.327 . S
C411 H434 0.950 . S
C412 C411 1.343 1_655 S
C412 C424 1.355 1_545 S
C413 C411 1.327 . S
C413 C429 1.427 1_455 S
C413 H435 0.950 . S
C414 H410 0.949 . S
C414 C422 1.574 . S
C414 C430 1.368 1_565 S
H415 C423 0.950 . S
H416 C421 0.950 . S
H417 C422 0.949 . S
H418 C424 0.950 . S
H419 C425 0.950 . S
H420 C426 0.949 . S
C421 H416 0.950 . S
C421 C423 1.327 . S
C421 C427 1.433 . S
C422 C414 1.574 . S
C422 H417 0.949 . S
C422 C428 1.366 1_665 S
C423 C407 1.349 . S
C423 H415 0.950 . S
C423 C421 1.327 . S
C424 C412 1.355 1_565 S
C424 H418 0.950 . S
C424 C425 1.327 . S
C425 H419 0.950 . S
C425 C424 1.327 . S
C425 C429 1.430 1_565 S
C426 C409 1.574 . S
C426 H420 0.949 . S
C426 C430 1.369 1_455 S
C427 C408 1.424 1_445 S
C427 C421 1.433 . S
C427 C428 1.523 . S
C428 C409 1.371 . S
C428 C422 1.366 1_445 S
C428 C427 1.523 . S
C429 C413 1.427 1_655 S
C429 C425 1.430 1_545 S
C429 C430 1.523 . S
C430 C414 1.368 1_545 S
C430 C426 1.369 1_655 S
C430 C429 1.523 . S
H431 C406 0.950 . S
H432 C408 0.950 . S
H433 C409 0.949 . S
H434 C411 0.950 . S
H435 C413 0.950 . S
C436 C437 1.349 . S
C436 C438 1.327 . S
C436 H461 0.950 . S
C437 C436 1.349 . S
C437 C453 1.349 . S
C438 C436 1.327 . S
C438 C457 1.429 . S
C438 H462 0.950 . S
C439 C456 1.574 . S
C439 C458 1.368 . S
C439 H463 0.949 . S
H440 C444 0.949 . S
C441 C442 1.349 . S
C441 C443 1.327 . S
C441 H464 0.950 . S
C442 C441 1.349 . S
C442 C454 1.349 . S
C443 C441 1.327 . S
C443 C459 1.429 . S
C443 H465 0.950 . S
C444 H440 0.949 . S
C444 C452 1.574 . S
C444 C460 1.368 . S
H445 C453 0.950 . S
H446 C451 0.950 . S
H447 C452 0.949 . S
H448 C454 0.950 . S
H449 C455 0.950 . S
H450 C456 0.949 . S
C451 H446 0.950 . S
C451 C453 1.327 . S
C451 C457 1.429 . S
C452 C444 1.574 . S
C452 H447 0.949 . S
C452 C458 1.368 . S
C453 C437 1.349 . S
C453 H445 0.950 . S
C453 C451 1.327 . S
C454 C442 1.349 . S
C454 H448 0.950 . S
C454 C455 1.327 . S
C455 H449 0.950 . S
C455 C454 1.327 . S
C455 C459 1.429 . S
C456 C439 1.574 . S
C456 H450 0.949 . S
C456 C460 1.368 . S
C457 C438 1.429 . S
C457 C451 1.429 . S
C457 C458 1.523 . S
C458 C439 1.368 . S
C458 C452 1.368 . S
C458 C457 1.523 . S
C459 C443 1.429 . S
C459 C455 1.429 . S
C459 C460 1.523 . S
C460 C444 1.368 . S
C460 C456 1.368 . S
C460 C459 1.523 . S
H461 C436 0.950 . S
H462 C438 0.950 . S
H463 C439 0.949 . S
H464 C441 0.950 . S
H465 C443 0.950 . S
C466 C467 1.349 . S
C466 C468 1.327 . S
C466 H491 0.950 . S
C467 C466 1.349 . S
C467 C483 1.349 . S
C468 C466 1.327 . S
C468 C487 1.429 . S
C468 H492 0.950 . S
C469 C486 1.574 . S
C469 C488 1.368 . S
C469 H493 0.949 . S
H470 C474 0.949 . S
C471 C472 1.349 . S
C471 C473 1.327 . S
C471 H494 0.950 . S
C472 C471 1.349 . S
C472 C484 1.349 . S
C473 C471 1.327 . S
C473 C489 1.429 . S
C473 H495 0.950 . S
C474 H470 0.949 . S
C474 C482 1.574 . S
C474 C490 1.368 . S
H475 C483 0.950 . S
H476 C481 0.950 . S
H477 C482 0.949 . S
H478 C484 0.950 . S
H479 C485 0.950 . S
H480 C486 0.949 . S
C481 H476 0.950 . S
C481 C483 1.327 . S
C481 C487 1.429 . S
C482 C474 1.574 . S
C482 H477 0.949 . S
C482 C488 1.368 . S
C483 C467 1.349 . S
C483 H475 0.950 . S
C483 C481 1.327 . S
C484 C472 1.349 . S
C484 H478 0.950 . S
C484 C485 1.327 . S
C485 H479 0.950 . S
C485 C484 1.327 . S
C485 C489 1.429 . S
C486 C469 1.574 . S
C486 H480 0.949 . S
C486 C490 1.368 . S
C487 C468 1.429 . S
C487 C481 1.429 . S
C487 C488 1.523 . S
C488 C469 1.368 . S
C488 C482 1.368 . S
C488 C487 1.523 . S
C489 C473 1.429 . S
C489 C485 1.429 . S
C489 C490 1.523 . S
C490 C474 1.368 . S
C490 C486 1.368 . S
C490 C489 1.523 . S
H491 C466 0.950 . S
H492 C468 0.950 . S
H493 C469 0.949 . S
H494 C471 0.950 . S
H495 C473 0.950 . S
C137 C85 1.580 . S
C142 C8 1.582 . S
C167 C76 1.580 . S
C172 C17 1.578 . S
C197 C51 1.580 . S
C202 C110 1.578 . S
C227 C42 1.580 . S
C232 C119 1.582 . S
C257 C0 0.558 . S
C262 C29 0.558 . S
C287 C63 0.558 . S
C292 C34 0.558 . S
C317 C68 0.558 . S
C322 C97 0.558 . S
C347 C102 0.558 . S
C352 C131 0.558 . S
C377 C47 1.499 1_455 S
C382 C13 1.498 1_655 S
C407 C4 1.499 1_455 S
C412 C38 1.497 1_655 S
C437 C115 1.499 . S
C442 C81 1.499 . S
C467 C106 1.499 . S
C472 C72 1.499 . S
