# Generated by pormake.
# Topology lon, (4)-cn, num edge types: 1
# Building blocks:
#     Node 0, Type 0, BuildingBlock: UXUYUI_clean_sbu_0, # of connection points: 4
#     Node 1, Type 0, BuildingBlock: UXUYUI_clean_sbu_0, # of connection points: 4
#     Node 2, Type 0, BuildingBlock: UXUYUI_clean_sbu_0, # of connection points: 4
#     Node 3, Type 0, BuildingBlock: UXUYUI_clean_sbu_0, # of connection points: 4
#     Edge 4, Type (0, 0), None
#     Edge 5, Type (0, 0), None
#     Edge 6, Type (0, 0), None
#     Edge 7, Type (0, 0), None
#     Edge 8, Type (0, 0), None
#     Edge 9, Type (0, 0), None
#     Edge 10, Type (0, 0), None
#     Edge 11, Type (0, 0), None
# Relax obj value: 0.000
# Max RMSD: 0.004
# Mean RMSD: 0.003
data_MOF--net-lon--node1-UXUYUI_clean_sbu_0--edge1-none
_symmetry_space_group_name_H-M    P1
_symmetry_Int_Tables_number       1
_symmetry_cell_setting            triclinic
loop_
_symmetry_equiv_pos_as_xyz
'x, y, z'
_cell_length_a     22.718727
_cell_length_b     22.727525
_cell_length_c     37.08586
_cell_angle_alpha  90.074846
_cell_angle_beta   90.00081
_cell_angle_gamma 119.99064
loop_
_atom_site_label
_atom_site_type_symbol
_atom_site_fract_x
_atom_site_fract_y
_atom_site_fract_z
_atom_type_partial_charge
Li0 Li 0.35865 0.68138 0.11976 0.0
Li1 Li 0.39525 0.64755 0.06213 0.0
Li2 Li 0.39261 0.75348 0.06443 0.0
Li3 Li 0.28603 0.64072 0.06436 0.0
C4 C 0.50687 0.78444 0.10353 0.0
N5 N 0.62508 0.90263 0.12086 0.0
C6 C 0.56904 0.79656 0.08952 0.0
C7 C 0.50477 0.83209 0.12652 0.0
C8 C 0.62827 0.85672 0.09856 0.0
C9 C 0.56511 0.89163 0.13491 0.0
C10 C 0.26253 0.52762 0.09971 0.0
C11 C 0.18281 0.41652 0.07647 0.0
N12 N 0.14771 0.40149 0.108 0.0
C13 C 0.22616 0.51071 0.13206 0.0
C14 C 0.24117 0.47984 0.07184 0.0
C15 C 0.16809 0.44683 0.13567 0.0
C16 C 0.30307 0.67142 0.18913 0.0
N17 N 0.35966 0.68241 0.17098 0.0
C18 C 0.41867 0.69493 0.22634 0.0
C19 C 0.41686 0.69396 0.18868 0.0
C20 C 0.36077 0.68314 0.24586 0.0
C21 C 0.30237 0.67116 0.22679 0.0
H22 H 0.25835 0.66253 0.1743 0.0
H23 H 0.46104 0.70227 0.17352 0.0
C24 C 0.49524 0.63688 0.0205 0.0
N25 N 0.4441 0.6052 0.04486 0.0
C26 C 0.52991 0.60473 1.00772 0.0
C27 C 0.46064 0.50934 0.04652 0.0
C28 C 0.4267 0.54287 0.05813 0.0
C29 C 0.51275 0.54017 0.02086 0.0
H30 H 0.50924 0.68717 1.01105 0.0
H31 H 0.3866 0.51924 0.07789 0.0
C32 C 0.28033 0.75748 0.1049 0.0
N33 N 0.22029 0.83292 0.12386 0.0
C34 C 0.22738 0.75395 0.08407 0.0
C35 C 0.30275 0.79932 0.13537 0.0
C36 C 0.19768 0.79251 0.09411 0.0
C37 C 0.27174 0.83708 0.1445 0.0
C38 C 0.3722 0.66753 0.99335 0.0
C39 C 0.42117 0.71864 0.97151 0.0
C40 C 0.3402 0.60009 0.98157 0.0
C41 C 0.43847 0.70119 0.93864 0.0
C42 C 0.35893 0.58465 0.94856 0.0
N43 N 0.40736 0.6351 0.92797 0.0
C44 C 0.49978 0.87192 0.03264 0.0
C45 C 0.40769 0.88519 0.05171 0.0
C46 C 0.53464 0.93881 0.02008 0.0
N47 N 0.43748 0.84639 0.04815 0.0
C48 C 0.44078 0.95238 0.03967 0.0
C49 C 0.50512 0.98012 0.02345 0.0
H50 H 0.52218 0.83998 0.02957 0.0
H51 H 0.35812 0.86434 0.0637 0.0
C52 C 0.1427 0.56518 0.07339 0.0
N53 N 0.19374 0.59329 0.04873 0.0
C54 C 0.07494 0.53045 0.06211 0.0
C55 C 0.11349 0.55683 1.00039 0.0
C56 C 0.18046 0.59015 1.01283 0.0
C57 C 0.05977 0.52623 0.02517 0.0
H58 H 0.15461 0.57027 0.10183 0.0
H59 H 0.22185 0.61411 0.99382 0.0
O60 O 0.44826 0.7264 0.0945 0.0
O61 O 0.31903 0.59035 0.09551 0.0
O62 O 0.30995 0.72006 0.09552 0.0
O63 O 0.35518 0.68354 0.02586 0.0
H64 H 0.57141 0.76008 0.07168 0.0
H65 H 0.457 0.82338 0.13753 0.0
H66 H 0.67675 0.86696 0.08781 0.0
H67 H 0.56424 0.92913 0.15255 0.0
H68 H 0.16552 0.37927 0.05501 0.0
H69 H 0.24228 0.54658 0.15408 0.0
H70 H 0.2694 0.49135 0.04695 0.0
H71 H 0.1392 0.43332 0.16048 0.0
H72 H 0.46451 0.70378 0.24003 0.0
H73 H 0.25695 0.66258 0.24084 0.0
H74 H 0.57047 0.63051 0.98829 0.0
H75 H 0.44577 0.45948 0.05719 0.0
H76 H 0.2097 0.72217 0.06027 0.0
H77 H 0.34367 0.80268 0.15179 0.0
H78 H 0.15673 0.79038 0.07822 0.0
H79 H 0.28858 0.8697 0.168 0.0
H80 H 0.4456 0.7712 0.97978 0.0
H81 H 0.30132 0.56011 0.99773 0.0
H82 H 0.47661 0.74023 0.92159 0.0
H83 H 0.33487 0.53257 0.93928 0.0
H84 H 0.58361 0.95746 1.00727 0.0
H85 H 0.41628 0.98237 0.04333 0.0
H86 H 0.03483 0.50846 0.08206 0.0
H87 H 0.10383 0.55459 0.97168 0.0
Li88 Li 0.65585 0.38398 0.5657 0.0
Li89 Li 0.76649 0.38872 0.56605 0.0
Li90 Li 0.65507 0.2764 0.56634 0.0
Li91 Li 0.69457 0.34804 0.62105 0.0
C92 C 0.67882 0.36663 0.49649 0.0
N93 N 0.64761 0.40549 0.43204 0.0
C94 C 0.72883 0.42267 0.47773 0.0
C95 C 0.61322 0.32977 0.48227 0.0
C96 C 0.71197 0.44165 0.44523 0.0
C97 C 0.59835 0.35041 0.44971 0.0
C98 C 0.78559 0.49835 0.61169 0.0
C99 C 0.88105 0.55879 0.65175 0.0
N100 N 0.88744 0.61863 0.64044 0.0
C101 C 0.79264 0.56037 0.60072 0.0
C102 C 0.82975 0.49744 0.63761 0.0
C103 C 0.84464 0.62065 0.61547 0.0
C104 C 0.54462 0.40707 0.55916 0.0
N105 N 0.61006 0.43015 0.54908 0.0
C106 C 0.61077 0.51958 0.51479 0.0
C107 C 0.6437 0.48585 0.52775 0.0
C108 C 0.54275 0.49651 0.52437 0.0
C109 C 0.5099 0.43961 0.54713 0.0
H110 H 0.51942 0.36365 0.57681 0.0
H111 H 0.69617 0.50407 0.5207 0.0
C112 C 0.88726 0.39748 0.53996 0.0
N113 N 0.85765 0.43498 0.54832 0.0
C114 C 0.95392 0.42901 0.52701 0.0
C115 C 0.9582 0.53717 0.53111 0.0
C116 C 0.89133 0.50347 0.54372 0.0
C117 C 0.99062 0.49998 0.52256 0.0
H118 H 0.85892 0.34291 0.54328 0.0
H119 H 0.86629 0.53208 0.54962 0.0
C120 C 0.54016 0.25048 0.60348 0.0
N121 N 0.41304 0.13836 0.614 0.0
C122 C 0.52241 0.21877 0.63716 0.0
C123 C 0.49304 0.22566 0.57527 0.0
C124 C 0.45793 0.16203 0.64191 0.0
C125 C 0.42911 0.16876 0.58109 0.0
C126 C 0.77621 0.28338 0.61378 0.0
C127 C 0.74968 0.21414 0.6205 0.0
C128 C 0.84121 0.33016 0.62623 0.0
C129 C 0.78816 0.19299 0.64023 0.0
C130 C 0.87812 0.30699 0.64582 0.0
N131 N 0.85102 0.23947 0.6524 0.0
C132 C 0.61899 0.17288 0.5144 0.0
C133 C 0.57303 0.13248 0.57236 0.0
C134 C 0.58755 0.10653 0.50095 0.0
N135 N 0.61084 0.1846 0.54946 0.0
C136 C 0.53933 0.06552 0.55989 0.0
C137 C 0.54624 0.05143 0.52366 0.0
H138 H 0.6504 0.21514 0.49689 0.0
H139 H 0.56886 0.14276 0.60038 0.0
C140 C 0.68979 0.39709 0.69022 0.0
N141 N 0.69469 0.34726 0.67254 0.0
C142 C 0.68908 0.3984 0.72788 0.0
C143 C 0.69802 0.29683 0.7285 0.0
C144 C 0.69788 0.29713 0.69085 0.0
C145 C 0.69362 0.34796 0.74749 0.0
H146 H 0.68641 0.43587 0.675 0.0
H147 H 0.69938 0.25678 0.67634 0.0
O148 O 0.69415 0.34779 0.52854 0.0
O149 O 0.73506 0.43895 0.59738 0.0
O150 O 0.60319 0.30584 0.59831 0.0
O151 O 0.73918 0.30483 0.59442 0.0
H152 H 0.77994 0.45154 0.48832 0.0
H153 H 0.57422 0.2858 0.49625 0.0
H154 H 0.75003 0.48519 0.43053 0.0
H155 H 0.54768 0.3226 0.43848 0.0
H156 H 0.91565 0.55883 0.6718 0.0
H157 H 0.75855 0.56193 0.58086 0.0
H158 H 0.82408 0.44992 0.64698 0.0
H159 H 0.85096 0.66904 0.60707 0.0
H160 H 0.6382 0.56274 0.49709 0.0
H161 H 0.45813 0.42078 0.556 0.0
H162 H 0.976 0.39789 0.5201 0.0
H163 H 0.98432 0.59191 0.52848 0.0
H164 H 0.55815 0.23755 0.65933 0.0
H165 H 0.5058 0.24991 0.54915 0.0
H166 H 0.44359 0.13677 0.66777 0.0
H167 H 0.39227 0.14877 0.55945 0.0
H168 H 0.69971 0.17719 0.61081 0.0
H169 H 0.86329 0.3837 0.62052 0.0
H170 H 0.76806 0.13962 0.64584 0.0
H171 H 0.92843 0.34267 0.65567 0.0
H172 H 0.59635 0.09883 0.47312 0.0
H173 H 0.50764 0.02554 0.57855 0.0
H174 H 0.68587 0.43887 0.74152 0.0
H175 H 0.7003 0.2563 0.7426 0.0
Li176 Li 0.39442 0.75508 0.46703 0.0
Li177 Li 0.36229 0.68344 0.41232 0.0
Li178 Li 0.28762 0.6475 0.46766 0.0
Li179 Li 0.39352 0.64276 0.46731 0.0
C180 C 0.30544 0.781 0.42989 0.0
N181 N 0.29046 0.89312 0.41936 0.0
C182 C 0.31941 0.81271 0.39621 0.0
C183 C 0.28314 0.80582 0.45809 0.0
C184 C 0.31167 0.86945 0.39146 0.0
C185 C 0.27612 0.86272 0.45227 0.0
C186 C 0.5086 0.74811 0.41959 0.0
C187 C 0.58689 0.72449 0.38755 0.0
N188 N 0.62732 0.79201 0.38097 0.0
C189 C 0.5513 0.81734 0.41288 0.0
C190 C 0.5268 0.70132 0.40714 0.0
C191 C 0.61094 0.83849 0.39315 0.0
C192 C 0.46185 0.8586 0.51897 0.0
N193 N 0.44199 0.84688 0.48391 0.0
C194 C 0.48957 0.96595 0.47347 0.0
C195 C 0.45632 0.899 0.46101 0.0
C196 C 0.51056 0.98005 0.50971 0.0
C197 C 0.49675 0.92495 0.53242 0.0
H198 H 0.45099 0.81634 0.53649 0.0
H199 H 0.44187 0.88871 0.43299 0.0
C200 C 0.30844 0.63439 0.34315 0.0
N201 N 0.36319 0.68422 0.36082 0.0
C202 C 0.30644 0.63309 0.30548 0.0
C203 C 0.41696 0.73466 0.30487 0.0
C204 C 0.41652 0.73435 0.34251 0.0
C205 C 0.36142 0.68353 0.28588 0.0
H206 H 0.26629 0.59562 0.35837 0.0
H207 H 0.45838 0.7747 0.35702 0.0
C208 C 0.32793 0.66484 0.53688 0.0
N209 N 0.25785 0.62597 0.60132 0.0
C210 C 0.32191 0.6088 0.55563 0.0
C211 C 0.29919 0.70169 0.5511 0.0
C212 C 0.28607 0.58982 0.58814 0.0
C213 C 0.26368 0.68105 0.58365 0.0
C214 C 0.30298 0.53313 0.42168 0.0
C215 C 0.248 0.47111 0.43265 0.0
C216 C 0.34804 0.53404 0.39576 0.0
C217 C 0.23972 0.41083 0.4179 0.0
C218 C 0.33799 0.47269 0.38161 0.0
N219 N 0.28454 0.41286 0.39292 0.0
C220 C 0.15329 0.6244 0.4742 0.0
C221 C 0.17358 0.54562 0.50562 0.0
C222 C 0.08604 0.59187 0.48624 0.0
N223 N 0.19566 0.60132 0.48429 0.0
C224 C 0.10692 0.51189 0.51858 0.0
C225 C 0.06198 0.53496 0.50899 0.0
H226 H 0.17151 0.66782 0.45656 0.0
H227 H 0.20784 0.5274 0.51266 0.0
C228 C 0.50553 0.634 0.49341 0.0
N229 N 0.43842 0.5965 0.48504 0.0
C230 C 0.54065 0.60246 0.50636 0.0
C231 C 0.43677 0.49431 0.50225 0.0
C232 C 0.4036 0.52801 0.48965 0.0
C233 C 0.50638 0.53149 0.5108 0.0
H234 H 0.53177 0.68857 0.49009 0.0
H235 H 0.34994 0.4994 0.48375 0.0
O236 O 0.3131 0.72563 0.43506 0.0
O237 O 0.45011 0.72665 0.43895 0.0
O238 O 0.36211 0.68368 0.50482 0.0
O239 O 0.31186 0.59253 0.43598 0.0
H240 H 0.33636 0.79393 0.37403 0.0
H241 H 0.27165 0.78156 0.48422 0.0
H242 H 0.3226 0.89471 0.36559 0.0
H243 H 0.25927 0.8827 0.47392 0.0
H244 H 0.60151 0.68881 0.3777 0.0
H245 H 0.53829 0.85429 0.42256 0.0
H246 H 0.49534 0.64778 0.41285 0.0
H247 H 0.64422 0.89187 0.38754 0.0
H248 H 0.49787 1.00593 0.45482 0.0
H249 H 0.51324 0.93265 0.56025 0.0
H250 H 0.26274 0.59262 0.29185 0.0
H251 H 0.45977 0.77518 0.29077 0.0
H252 H 0.34415 0.57993 0.54504 0.0
H253 H 0.30416 0.74566 0.53712 0.0
H254 H 0.28058 0.54628 0.60284 0.0
H255 H 0.24081 0.70885 0.59489 0.0
H256 H 0.21236 0.46955 0.4525 0.0
H257 H 0.38991 0.58156 0.38638 0.0
H258 H 0.19764 0.36244 0.42629 0.0
H259 H 0.37256 0.47265 0.36157 0.0
H260 H 0.0531 0.6107 0.47737 0.0
H261 H 0.09118 0.46873 0.53627 0.0
H262 H 0.59386 0.63359 0.51326 0.0
H263 H 0.40814 0.43956 0.50488 0.0
Li264 Li 0.65484 0.27799 0.96893 0.0
Li265 Li 0.66103 0.39075 0.96901 0.0
Li266 Li 0.69298 0.35009 0.91361 0.0
Li267 Li 0.76342 0.38391 0.97124 0.0
C268 C 0.53856 0.274 0.92847 0.0
N269 N 0.40306 0.19857 0.90952 0.0
C270 C 0.48914 0.27751 0.94932 0.0
C271 C 0.51912 0.23219 0.89799 0.0
C272 C 0.42088 0.23896 0.93928 0.0
C273 C 0.45034 0.19443 0.88886 0.0
C274 C 0.72036 0.36399 0.04003 0.0
C275 C 0.78993 0.44695 0.0848 0.0
N276 N 0.78791 0.39654 0.10542 0.0
C277 C 0.71823 0.31292 0.0619 0.0
C278 C 0.75578 0.43145 0.05178 0.0
C279 C 0.75295 0.33042 0.09478 0.0
C280 C 0.64357 0.15961 1.00079 0.0
N281 N 0.6068 0.18508 0.98521 0.0
C282 C 0.50414 0.07903 0.99363 0.0
C283 C 0.53822 0.14621 0.98159 0.0
C284 C 0.54074 0.05135 1.00991 0.0
C285 C 0.61154 0.09272 1.01335 0.0
H286 H 0.6979 0.1916 1.0039 0.0
H287 H 0.5095 0.16701 0.96953 0.0
C288 C 0.5933 0.46634 0.95999 0.0
N289 N 0.61617 0.43818 0.98464 0.0
C290 C 0.56026 0.50106 0.97127 0.0
C291 C 0.57233 0.47458 0.03298 0.0
C292 C 0.60597 0.44126 0.02054 0.0
C293 C 0.54926 0.50523 1.0082 0.0
H294 H 0.60015 0.46129 0.93154 0.0
H295 H 0.62337 0.41726 0.03954 0.0
C296 C 0.7381 0.247 0.92986 0.0
N297 N 0.73801 0.12874 0.91261 0.0
C298 C 0.78808 0.23483 0.94392 0.0
C299 C 0.68835 0.19935 0.90686 0.0
C300 C 0.7871 0.17463 0.93491 0.0
C301 C 0.68909 0.13978 0.89851 0.0
C302 C 0.75068 0.50386 0.93366 0.0
C303 C 0.7312 0.52077 0.90131 0.0
C304 C 0.77718 0.55167 0.96151 0.0
C305 C 0.73707 0.58467 0.89769 0.0
C306 C 0.7822 0.61501 0.95688 0.0
N307 N 0.7621 0.63004 0.92535 0.0
C308 C 0.64738 0.36007 0.84423 0.0
C309 C 0.73862 0.33752 0.84469 0.0
C310 C 0.64693 0.36033 0.80657 0.0
N311 N 0.69297 0.34907 0.86239 0.0
C312 C 0.73946 0.33655 0.80703 0.0
C313 C 0.69335 0.34834 0.78751 0.0
H314 H 0.61155 0.36897 0.85907 0.0
H315 H 0.77447 0.3292 0.85985 0.0
C316 C 0.87407 0.39461 1.0129 0.0
N317 N 0.85462 0.42626 0.98851 0.0
C318 C 0.9409 0.42676 0.02568 0.0
C319 C 0.96705 0.52208 0.98682 0.0
C320 C 0.89958 0.48855 0.97521 0.0
C321 C 0.98831 0.49129 1.01251 0.0
H322 H 0.83775 0.34434 0.02237 0.0
H323 H 0.88312 0.51216 0.95543 0.0
O324 O 0.60561 0.31142 0.93784 0.0
O325 O 0.68735 0.34792 1.00751 0.0
O326 O 0.73757 0.30507 0.93886 0.0
O327 O 0.7444 0.44112 0.93787 0.0
H328 H 0.50325 0.30927 0.97312 0.0
H329 H 0.55667 0.22884 0.88156 0.0
H330 H 0.38206 0.24107 0.95518 0.0
H331 H 0.43455 0.16183 0.86535 0.0
H332 H 0.81793 0.49904 0.09406 0.0
H333 H 0.69011 0.26035 0.05365 0.0
H334 H 0.75688 0.4714 0.03559 0.0
H335 H 0.75206 0.29142 0.11185 0.0
H336 H 0.44965 0.04899 0.98991 0.0
H337 H 0.64187 0.07413 0.02621 0.0
H338 H 0.54219 0.52309 0.95131 0.0
H339 H 0.56486 0.47677 0.06169 0.0
H340 H 0.82694 0.27131 0.96177 0.0
H341 H 0.64934 0.2081 0.89583 0.0
H342 H 0.82529 0.16436 0.94569 0.0
H343 H 0.65072 0.10228 0.88087 0.0
H344 H 0.7114 0.48489 0.8793 0.0
H345 H 0.79393 0.54017 0.98639 0.0
H346 H 0.72168 0.59818 0.87289 0.0
H347 H 0.80222 0.65229 0.97833 0.0
H348 H 0.61011 0.36892 0.79252 0.0
H349 H 0.77643 0.32768 0.79334 0.0
H350 H 0.95565 0.401 0.04514 0.0
H351 H 1.00205 0.57192 0.97612 0.0
loop_
_geom_bond_atom_site_label_1
_geom_bond_atom_site_label_2
_geom_bond_distance
_geom_bond_site_symmetry_2
_ccdc_geom_bond_type
Li0 N17 1.990 . S
Li0 O60 1.956 . S
Li0 O61 1.970 . S
Li0 O62 1.961 . S
Li1 N25 1.990 . S
Li1 O60 1.970 . S
Li1 O61 1.956 . S
Li1 O63 1.961 . S
Li2 N47 1.990 . S
Li2 O60 1.961 . S
Li2 O62 1.956 . S
Li2 O63 1.970 . S
Li3 N53 1.990 . S
Li3 O61 1.961 . S
Li3 O62 1.970 . S
Li3 O63 1.956 . S
C4 C6 1.348 . S
C4 C7 1.356 . S
C4 O60 1.325 . S
N5 C8 1.314 . S
N5 C9 1.279 . S
C6 C4 1.348 . S
C6 C8 1.353 . S
C6 H64 0.929 . S
C7 C4 1.356 . S
C7 C9 1.358 . S
C7 H65 0.930 . S
C8 N5 1.314 . S
C8 C6 1.353 . S
C8 H66 0.930 . S
C9 N5 1.279 . S
C9 C7 1.358 . S
C9 H67 0.930 . S
C10 C13 1.348 . S
C10 C14 1.356 . S
C10 O61 1.325 . S
C11 N12 1.279 . S
C11 C14 1.358 . S
C11 H68 0.930 . S
N12 C11 1.279 . S
N12 C15 1.314 . S
C13 C10 1.348 . S
C13 C15 1.353 . S
C13 H69 0.929 . S
C14 C10 1.356 . S
C14 C11 1.358 . S
C14 H70 0.930 . S
C15 N12 1.314 . S
C15 C13 1.353 . S
C15 H71 0.930 . S
C16 N17 1.314 . S
C16 C21 1.353 . S
C16 H22 0.930 . S
N17 Li0 1.990 . S
N17 C16 1.314 . S
N17 C19 1.279 . S
C18 C19 1.358 . S
C18 C20 1.356 . S
C18 H72 0.930 . S
C19 N17 1.279 . S
C19 C18 1.358 . S
C19 H23 0.930 . S
C20 C18 1.356 . S
C20 C21 1.348 . S
C21 C16 1.353 . S
C21 C20 1.348 . S
C21 H73 0.929 . S
H22 C16 0.930 . S
H23 C19 0.930 . S
C24 N25 1.314 . S
C24 C26 1.353 1_554 S
C24 H30 0.930 1_554 S
N25 Li1 1.990 . S
N25 C24 1.314 . S
N25 C28 1.279 . S
C26 C24 1.353 1_556 S
C26 C29 1.348 1_556 S
C26 H74 0.929 . S
C27 C28 1.358 . S
C27 C29 1.356 . S
C27 H75 0.930 . S
C28 N25 1.279 . S
C28 C27 1.358 . S
C28 H31 0.930 . S
C29 C26 1.348 1_554 S
C29 C27 1.356 . S
H30 C24 0.930 1_556 S
H31 C28 0.930 . S
C32 C34 1.348 . S
C32 C35 1.356 . S
C32 O62 1.325 . S
N33 C36 1.314 . S
N33 C37 1.279 . S
C34 C32 1.348 . S
C34 C36 1.353 . S
C34 H76 0.929 . S
C35 C32 1.356 . S
C35 C37 1.358 . S
C35 H77 0.930 . S
C36 N33 1.314 . S
C36 C34 1.353 . S
C36 H78 0.930 . S
C37 N33 1.279 . S
C37 C35 1.358 . S
C37 H79 0.930 . S
C38 C39 1.348 . S
C38 C40 1.356 . S
C38 O63 1.325 1_556 S
C39 C38 1.348 . S
C39 C41 1.353 . S
C39 H80 0.929 . S
C40 C38 1.356 . S
C40 C42 1.358 . S
C40 H81 0.930 . S
C41 C39 1.353 . S
C41 N43 1.314 . S
C41 H82 0.930 . S
C42 C40 1.358 . S
C42 N43 1.279 . S
C42 H83 0.930 . S
N43 C41 1.314 . S
N43 C42 1.279 . S
C44 C46 1.353 . S
C44 N47 1.314 . S
C44 H50 0.930 . S
C45 N47 1.279 . S
C45 C48 1.358 . S
C45 H51 0.930 . S
C46 C44 1.353 . S
C46 C49 1.348 . S
C46 H84 0.929 . S
N47 Li2 1.990 . S
N47 C44 1.314 . S
N47 C45 1.279 . S
C48 C45 1.358 . S
C48 C49 1.356 . S
C48 H85 0.930 . S
C49 C46 1.348 . S
C49 C48 1.356 . S
H50 C44 0.930 . S
H51 C45 0.930 . S
C52 N53 1.314 . S
C52 C54 1.353 . S
C52 H58 0.930 . S
N53 Li3 1.990 . S
N53 C52 1.314 . S
N53 C56 1.279 1_554 S
C54 C52 1.353 . S
C54 C57 1.348 . S
C54 H86 0.929 . S
C55 C56 1.358 . S
C55 C57 1.356 1_556 S
C55 H87 0.930 . S
C56 N53 1.279 1_556 S
C56 C55 1.358 . S
C56 H59 0.930 . S
C57 C54 1.348 . S
C57 C55 1.356 1_554 S
H58 C52 0.930 . S
H59 C56 0.930 . S
O60 Li0 1.956 . S
O60 Li1 1.970 . S
O60 Li2 1.961 . S
O60 C4 1.325 . S
O61 Li0 1.970 . S
O61 Li1 1.956 . S
O61 Li3 1.961 . S
O61 C10 1.325 . S
O62 Li0 1.961 . S
O62 Li2 1.956 . S
O62 Li3 1.970 . S
O62 C32 1.325 . S
O63 Li1 1.961 . S
O63 Li2 1.970 . S
O63 Li3 1.956 . S
O63 C38 1.325 1_554 S
H64 C6 0.929 . S
H65 C7 0.930 . S
H66 C8 0.930 . S
H67 C9 0.930 . S
H68 C11 0.930 . S
H69 C13 0.929 . S
H70 C14 0.930 . S
H71 C15 0.930 . S
H72 C18 0.930 . S
H73 C21 0.929 . S
H74 C26 0.929 . S
H75 C27 0.930 . S
H76 C34 0.929 . S
H77 C35 0.930 . S
H78 C36 0.930 . S
H79 C37 0.930 . S
H80 C39 0.929 . S
H81 C40 0.930 . S
H82 C41 0.930 . S
H83 C42 0.930 . S
H84 C46 0.929 . S
H85 C48 0.930 . S
H86 C54 0.929 . S
H87 C55 0.930 . S
Li88 N105 1.990 . S
Li88 O148 1.956 . S
Li88 O149 1.970 . S
Li88 O150 1.961 . S
Li89 N113 1.990 . S
Li89 O148 1.970 . S
Li89 O149 1.956 . S
Li89 O151 1.961 . S
Li90 N135 1.990 . S
Li90 O148 1.961 . S
Li90 O150 1.956 . S
Li90 O151 1.970 . S
Li91 N141 1.990 . S
Li91 O149 1.961 . S
Li91 O150 1.970 . S
Li91 O151 1.956 . S
C92 C94 1.348 . S
C92 C95 1.356 . S
C92 O148 1.325 . S
N93 C96 1.314 . S
N93 C97 1.279 . S
C94 C92 1.348 . S
C94 C96 1.353 . S
C94 H152 0.929 . S
C95 C92 1.356 . S
C95 C97 1.358 . S
C95 H153 0.930 . S
C96 N93 1.314 . S
C96 C94 1.353 . S
C96 H154 0.930 . S
C97 N93 1.279 . S
C97 C95 1.358 . S
C97 H155 0.930 . S
C98 C101 1.348 . S
C98 C102 1.356 . S
C98 O149 1.325 . S
C99 N100 1.279 . S
C99 C102 1.358 . S
C99 H156 0.930 . S
N100 C99 1.279 . S
N100 C103 1.314 . S
C101 C98 1.348 . S
C101 C103 1.353 . S
C101 H157 0.929 . S
C102 C98 1.356 . S
C102 C99 1.358 . S
C102 H158 0.930 . S
C103 N100 1.314 . S
C103 C101 1.353 . S
C103 H159 0.930 . S
C104 N105 1.314 . S
C104 C109 1.353 . S
C104 H110 0.930 . S
N105 Li88 1.990 . S
N105 C104 1.314 . S
N105 C107 1.279 . S
C106 C107 1.358 . S
C106 C108 1.356 . S
C106 H160 0.930 . S
C107 N105 1.279 . S
C107 C106 1.358 . S
C107 H111 0.930 . S
C108 C106 1.356 . S
C108 C109 1.348 . S
C109 C104 1.353 . S
C109 C108 1.348 . S
C109 H161 0.929 . S
H110 C104 0.930 . S
H111 C107 0.930 . S
C112 N113 1.314 . S
C112 C114 1.353 . S
C112 H118 0.930 . S
N113 Li89 1.990 . S
N113 C112 1.314 . S
N113 C116 1.279 . S
C114 C112 1.353 . S
C114 C117 1.348 . S
C114 H162 0.929 . S
C115 C116 1.358 . S
C115 C117 1.356 . S
C115 H163 0.930 . S
C116 N113 1.279 . S
C116 C115 1.358 . S
C116 H119 0.930 . S
C117 C114 1.348 . S
C117 C115 1.356 . S
H118 C112 0.930 . S
H119 C116 0.930 . S
C120 C122 1.348 . S
C120 C123 1.356 . S
C120 O150 1.325 . S
N121 C124 1.314 . S
N121 C125 1.279 . S
C122 C120 1.348 . S
C122 C124 1.353 . S
C122 H164 0.929 . S
C123 C120 1.356 . S
C123 C125 1.358 . S
C123 H165 0.930 . S
C124 N121 1.314 . S
C124 C122 1.353 . S
C124 H166 0.930 . S
C125 N121 1.279 . S
C125 C123 1.358 . S
C125 H167 0.930 . S
C126 C127 1.348 . S
C126 C128 1.356 . S
C126 O151 1.325 . S
C127 C126 1.348 . S
C127 C129 1.353 . S
C127 H168 0.929 . S
C128 C126 1.356 . S
C128 C130 1.358 . S
C128 H169 0.930 . S
C129 C127 1.353 . S
C129 N131 1.314 . S
C129 H170 0.930 . S
C130 C128 1.358 . S
C130 N131 1.279 . S
C130 H171 0.930 . S
N131 C129 1.314 . S
N131 C130 1.279 . S
C132 C134 1.353 . S
C132 N135 1.314 . S
C132 H138 0.930 . S
C133 N135 1.279 . S
C133 C136 1.358 . S
C133 H139 0.930 . S
C134 C132 1.353 . S
C134 C137 1.348 . S
C134 H172 0.929 . S
N135 Li90 1.990 . S
N135 C132 1.314 . S
N135 C133 1.279 . S
C136 C133 1.358 . S
C136 C137 1.356 . S
C136 H173 0.930 . S
C137 C134 1.348 . S
C137 C136 1.356 . S
H138 C132 0.930 . S
H139 C133 0.930 . S
C140 N141 1.314 . S
C140 C142 1.353 . S
C140 H146 0.930 . S
N141 Li91 1.990 . S
N141 C140 1.314 . S
N141 C144 1.279 . S
C142 C140 1.353 . S
C142 C145 1.348 . S
C142 H174 0.929 . S
C143 C144 1.358 . S
C143 C145 1.356 . S
C143 H175 0.930 . S
C144 N141 1.279 . S
C144 C143 1.358 . S
C144 H147 0.930 . S
C145 C142 1.348 . S
C145 C143 1.356 . S
H146 C140 0.930 . S
H147 C144 0.930 . S
O148 Li88 1.956 . S
O148 Li89 1.970 . S
O148 Li90 1.961 . S
O148 C92 1.325 . S
O149 Li88 1.970 . S
O149 Li89 1.956 . S
O149 Li91 1.961 . S
O149 C98 1.325 . S
O150 Li88 1.961 . S
O150 Li90 1.956 . S
O150 Li91 1.970 . S
O150 C120 1.325 . S
O151 Li89 1.961 . S
O151 Li90 1.970 . S
O151 Li91 1.956 . S
O151 C126 1.325 . S
H152 C94 0.929 . S
H153 C95 0.930 . S
H154 C96 0.930 . S
H155 C97 0.930 . S
H156 C99 0.930 . S
H157 C101 0.929 . S
H158 C102 0.930 . S
H159 C103 0.930 . S
H160 C106 0.930 . S
H161 C109 0.929 . S
H162 C114 0.929 . S
H163 C115 0.930 . S
H164 C122 0.929 . S
H165 C123 0.930 . S
H166 C124 0.930 . S
H167 C125 0.930 . S
H168 C127 0.929 . S
H169 C128 0.930 . S
H170 C129 0.930 . S
H171 C130 0.930 . S
H172 C134 0.929 . S
H173 C136 0.930 . S
H174 C142 0.929 . S
H175 C143 0.930 . S
Li176 N193 1.990 . S
Li176 O236 1.956 . S
Li176 O237 1.970 . S
Li176 O238 1.961 . S
Li177 N201 1.990 . S
Li177 O236 1.970 . S
Li177 O237 1.956 . S
Li177 O239 1.961 . S
Li178 N223 1.990 . S
Li178 O236 1.961 . S
Li178 O238 1.956 . S
Li178 O239 1.970 . S
Li179 N229 1.990 . S
Li179 O237 1.961 . S
Li179 O238 1.970 . S
Li179 O239 1.956 . S
C180 C182 1.348 . S
C180 C183 1.356 . S
C180 O236 1.325 . S
N181 C184 1.314 . S
N181 C185 1.279 . S
C182 C180 1.348 . S
C182 C184 1.353 . S
C182 H240 0.929 . S
C183 C180 1.356 . S
C183 C185 1.358 . S
C183 H241 0.930 . S
C184 N181 1.314 . S
C184 C182 1.353 . S
C184 H242 0.930 . S
C185 N181 1.279 . S
C185 C183 1.358 . S
C185 H243 0.930 . S
C186 C189 1.348 . S
C186 C190 1.356 . S
C186 O237 1.325 . S
C187 N188 1.279 . S
C187 C190 1.358 . S
C187 H244 0.930 . S
N188 C187 1.279 . S
N188 C191 1.314 . S
C189 C186 1.348 . S
C189 C191 1.353 . S
C189 H245 0.929 . S
C190 C186 1.356 . S
C190 C187 1.358 . S
C190 H246 0.930 . S
C191 N188 1.314 . S
C191 C189 1.353 . S
C191 H247 0.930 . S
C192 N193 1.314 . S
C192 C197 1.353 . S
C192 H198 0.930 . S
N193 Li176 1.990 . S
N193 C192 1.314 . S
N193 C195 1.279 . S
C194 C195 1.358 . S
C194 C196 1.356 . S
C194 H248 0.930 . S
C195 N193 1.279 . S
C195 C194 1.358 . S
C195 H199 0.930 . S
C196 C194 1.356 . S
C196 C197 1.348 . S
C197 C192 1.353 . S
C197 C196 1.348 . S
C197 H249 0.929 . S
H198 C192 0.930 . S
H199 C195 0.930 . S
C200 N201 1.314 . S
C200 C202 1.353 . S
C200 H206 0.930 . S
N201 Li177 1.990 . S
N201 C200 1.314 . S
N201 C204 1.279 . S
C202 C200 1.353 . S
C202 C205 1.348 . S
C202 H250 0.929 . S
C203 C204 1.358 . S
C203 C205 1.356 . S
C203 H251 0.930 . S
C204 N201 1.279 . S
C204 C203 1.358 . S
C204 H207 0.930 . S
C205 C202 1.348 . S
C205 C203 1.356 . S
H206 C200 0.930 . S
H207 C204 0.930 . S
C208 C210 1.348 . S
C208 C211 1.356 . S
C208 O238 1.325 . S
N209 C212 1.314 . S
N209 C213 1.279 . S
C210 C208 1.348 . S
C210 C212 1.353 . S
C210 H252 0.929 . S
C211 C208 1.356 . S
C211 C213 1.358 . S
C211 H253 0.930 . S
C212 N209 1.314 . S
C212 C210 1.353 . S
C212 H254 0.930 . S
C213 N209 1.279 . S
C213 C211 1.358 . S
C213 H255 0.930 . S
C214 C215 1.348 . S
C214 C216 1.356 . S
C214 O239 1.325 . S
C215 C214 1.348 . S
C215 C217 1.353 . S
C215 H256 0.929 . S
C216 C214 1.356 . S
C216 C218 1.358 . S
C216 H257 0.930 . S
C217 C215 1.353 . S
C217 N219 1.314 . S
C217 H258 0.930 . S
C218 C216 1.358 . S
C218 N219 1.279 . S
C218 H259 0.930 . S
N219 C217 1.314 . S
N219 C218 1.279 . S
C220 C222 1.353 . S
C220 N223 1.314 . S
C220 H226 0.930 . S
C221 N223 1.279 . S
C221 C224 1.358 . S
C221 H227 0.930 . S
C222 C220 1.353 . S
C222 C225 1.348 . S
C222 H260 0.929 . S
N223 Li178 1.990 . S
N223 C220 1.314 . S
N223 C221 1.279 . S
C224 C221 1.358 . S
C224 C225 1.356 . S
C224 H261 0.930 . S
C225 C222 1.348 . S
C225 C224 1.356 . S
H226 C220 0.930 . S
H227 C221 0.930 . S
C228 N229 1.314 . S
C228 C230 1.353 . S
C228 H234 0.930 . S
N229 Li179 1.990 . S
N229 C228 1.314 . S
N229 C232 1.279 . S
C230 C228 1.353 . S
C230 C233 1.348 . S
C230 H262 0.929 . S
C231 C232 1.358 . S
C231 C233 1.356 . S
C231 H263 0.930 . S
C232 N229 1.279 . S
C232 C231 1.358 . S
C232 H235 0.930 . S
C233 C230 1.348 . S
C233 C231 1.356 . S
H234 C228 0.930 . S
H235 C232 0.930 . S
O236 Li176 1.956 . S
O236 Li177 1.970 . S
O236 Li178 1.961 . S
O236 C180 1.325 . S
O237 Li176 1.970 . S
O237 Li177 1.956 . S
O237 Li179 1.961 . S
O237 C186 1.325 . S
O238 Li176 1.961 . S
O238 Li178 1.956 . S
O238 Li179 1.970 . S
O238 C208 1.325 . S
O239 Li177 1.961 . S
O239 Li178 1.970 . S
O239 Li179 1.956 . S
O239 C214 1.325 . S
H240 C182 0.929 . S
H241 C183 0.930 . S
H242 C184 0.930 . S
H243 C185 0.930 . S
H244 C187 0.930 . S
H245 C189 0.929 . S
H246 C190 0.930 . S
H247 C191 0.930 . S
H248 C194 0.930 . S
H249 C197 0.929 . S
H250 C202 0.929 . S
H251 C203 0.930 . S
H252 C210 0.929 . S
H253 C211 0.930 . S
H254 C212 0.930 . S
H255 C213 0.930 . S
H256 C215 0.929 . S
H257 C216 0.930 . S
H258 C217 0.930 . S
H259 C218 0.930 . S
H260 C222 0.929 . S
H261 C224 0.930 . S
H262 C230 0.929 . S
H263 C231 0.930 . S
Li264 N281 1.990 . S
Li264 O324 1.956 . S
Li264 O325 1.970 . S
Li264 O326 1.961 . S
Li265 N289 1.990 . S
Li265 O324 1.970 . S
Li265 O325 1.956 . S
Li265 O327 1.961 . S
Li266 N311 1.990 . S
Li266 O324 1.961 . S
Li266 O326 1.956 . S
Li266 O327 1.970 . S
Li267 N317 1.990 . S
Li267 O325 1.961 . S
Li267 O326 1.970 . S
Li267 O327 1.956 . S
C268 C270 1.348 . S
C268 C271 1.356 . S
C268 O324 1.325 . S
N269 C272 1.314 . S
N269 C273 1.279 . S
C270 C268 1.348 . S
C270 C272 1.353 . S
C270 H328 0.929 . S
C271 C268 1.356 . S
C271 C273 1.358 . S
C271 H329 0.930 . S
C272 N269 1.314 . S
C272 C270 1.353 . S
C272 H330 0.930 . S
C273 N269 1.279 . S
C273 C271 1.358 . S
C273 H331 0.930 . S
C274 C277 1.348 . S
C274 C278 1.356 . S
C274 O325 1.325 1_554 S
C275 N276 1.279 . S
C275 C278 1.358 . S
C275 H332 0.930 . S
N276 C275 1.279 . S
N276 C279 1.314 . S
C277 C274 1.348 . S
C277 C279 1.353 . S
C277 H333 0.929 . S
C278 C274 1.356 . S
C278 C275 1.358 . S
C278 H334 0.930 . S
C279 N276 1.314 . S
C279 C277 1.353 . S
C279 H335 0.930 . S
C280 N281 1.314 . S
C280 C285 1.353 . S
C280 H286 0.930 . S
N281 Li264 1.990 . S
N281 C280 1.314 . S
N281 C283 1.279 . S
C282 C283 1.358 . S
C282 C284 1.356 . S
C282 H336 0.930 . S
C283 N281 1.279 . S
C283 C282 1.358 . S
C283 H287 0.930 . S
C284 C282 1.356 . S
C284 C285 1.348 . S
C285 C280 1.353 . S
C285 C284 1.348 . S
C285 H337 0.929 . S
H286 C280 0.930 . S
H287 C283 0.930 . S
C288 N289 1.314 . S
C288 C290 1.353 . S
C288 H294 0.930 . S
N289 Li265 1.990 . S
N289 C288 1.314 . S
N289 C292 1.279 1_556 S
C290 C288 1.353 . S
C290 C293 1.348 . S
C290 H338 0.929 . S
C291 C292 1.358 . S
C291 C293 1.356 1_554 S
C291 H339 0.930 . S
C292 N289 1.279 1_554 S
C292 C291 1.358 . S
C292 H295 0.930 . S
C293 C290 1.348 . S
C293 C291 1.356 1_556 S
H294 C288 0.930 . S
H295 C292 0.930 . S
C296 C298 1.348 . S
C296 C299 1.356 . S
C296 O326 1.325 . S
N297 C300 1.314 . S
N297 C301 1.279 . S
C298 C296 1.348 . S
C298 C300 1.353 . S
C298 H340 0.929 . S
C299 C296 1.356 . S
C299 C301 1.358 . S
C299 H341 0.930 . S
C300 N297 1.314 . S
C300 C298 1.353 . S
C300 H342 0.930 . S
C301 N297 1.279 . S
C301 C299 1.358 . S
C301 H343 0.930 . S
C302 C303 1.348 . S
C302 C304 1.356 . S
C302 O327 1.325 . S
C303 C302 1.348 . S
C303 C305 1.353 . S
C303 H344 0.929 . S
C304 C302 1.356 . S
C304 C306 1.358 . S
C304 H345 0.930 . S
C305 C303 1.353 . S
C305 N307 1.314 . S
C305 H346 0.930 . S
C306 C304 1.358 . S
C306 N307 1.279 . S
C306 H347 0.930 . S
N307 C305 1.314 . S
N307 C306 1.279 . S
C308 C310 1.353 . S
C308 N311 1.314 . S
C308 H314 0.930 . S
C309 N311 1.279 . S
C309 C312 1.358 . S
C309 H315 0.930 . S
C310 C308 1.353 . S
C310 C313 1.348 . S
C310 H348 0.929 . S
N311 Li266 1.990 . S
N311 C308 1.314 . S
N311 C309 1.279 . S
C312 C309 1.358 . S
C312 C313 1.356 . S
C312 H349 0.930 . S
C313 C310 1.348 . S
C313 C312 1.356 . S
H314 C308 0.930 . S
H315 C309 0.930 . S
C316 N317 1.314 . S
C316 C318 1.353 1_556 S
C316 H322 0.930 1_556 S
N317 Li267 1.990 . S
N317 C316 1.314 . S
N317 C320 1.279 . S
C318 C316 1.353 1_554 S
C318 C321 1.348 1_554 S
C318 H350 0.929 . S
C319 C320 1.358 . S
C319 C321 1.356 . S
C319 H351 0.930 . S
C320 N317 1.279 . S
C320 C319 1.358 . S
C320 H323 0.930 . S
C321 C318 1.348 1_556 S
C321 C319 1.356 . S
H322 C316 0.930 1_554 S
H323 C320 0.930 . S
O324 Li264 1.956 . S
O324 Li265 1.970 . S
O324 Li266 1.961 . S
O324 C268 1.325 . S
O325 Li264 1.970 . S
O325 Li265 1.956 . S
O325 Li267 1.961 . S
O325 C274 1.325 1_556 S
O326 Li264 1.961 . S
O326 Li266 1.956 . S
O326 Li267 1.970 . S
O326 C296 1.325 . S
O327 Li265 1.961 . S
O327 Li266 1.970 . S
O327 Li267 1.956 . S
O327 C302 1.325 . S
H328 C270 0.929 . S
H329 C271 0.930 . S
H330 C272 0.930 . S
H331 C273 0.930 . S
H332 C275 0.930 . S
H333 C277 0.929 . S
H334 C278 0.930 . S
H335 C279 0.930 . S
H336 C282 0.930 . S
H337 C285 0.929 . S
H338 C290 0.929 . S
H339 C291 0.930 . S
H340 C298 0.929 . S
H341 C299 0.930 . S
H342 C300 0.930 . S
H343 C301 0.930 . S
H344 C303 0.929 . S
H345 C304 0.930 . S
H346 C305 0.930 . S
H347 C306 0.930 . S
H348 C310 0.929 . S
H349 C312 0.930 . S
H350 C318 0.929 . S
H351 C319 0.930 . S
C20 C205 1.500 . S
C145 C313 1.500 . S
C29 C293 1.492 1_554 S
C225 C117 1.507 1_455 S
C284 C49 1.515 1_546 S
C108 C233 1.507 . S
C57 C321 1.492 1_454 S
C137 C196 1.484 1_545 S
