# Generated by pormake.
# Topology ure, (4)-cn, num edge types: 1
# Building blocks:
#     Node 0, Type 0, BuildingBlock: GALJAG_clean_sbu_0, # of connection points: 4
#     Node 1, Type 0, BuildingBlock: GALJAG_clean_sbu_0, # of connection points: 4
#     Node 2, Type 0, BuildingBlock: GALJAG_clean_sbu_0, # of connection points: 4
#     Node 3, Type 0, BuildingBlock: GALJAG_clean_sbu_0, # of connection points: 4
#     Node 4, Type 0, BuildingBlock: GALJAG_clean_sbu_0, # of connection points: 4
#     Node 5, Type 0, BuildingBlock: GALJAG_clean_sbu_0, # of connection points: 4
#     Node 6, Type 0, BuildingBlock: GALJAG_clean_sbu_0, # of connection points: 4
#     Node 7, Type 0, BuildingBlock: GALJAG_clean_sbu_0, # of connection points: 4
#     Node 8, Type 0, BuildingBlock: GALJAG_clean_sbu_0, # of connection points: 4
#     Node 9, Type 0, BuildingBlock: GALJAG_clean_sbu_0, # of connection points: 4
#     Node 10, Type 0, BuildingBlock: GALJAG_clean_sbu_0, # of connection points: 4
#     Node 11, Type 0, BuildingBlock: GALJAG_clean_sbu_0, # of connection points: 4
#     Node 12, Type 0, BuildingBlock: GALJAG_clean_sbu_0, # of connection points: 4
#     Node 13, Type 0, BuildingBlock: GALJAG_clean_sbu_0, # of connection points: 4
#     Node 14, Type 0, BuildingBlock: GALJAG_clean_sbu_0, # of connection points: 4
#     Node 15, Type 0, BuildingBlock: GALJAG_clean_sbu_0, # of connection points: 4
#     Edge 16, Type (0, 0), BuildingBlock: KIFKEQ_clean_linker_1, # of connection points: 2
#     Edge 17, Type (0, 0), BuildingBlock: KIFKEQ_clean_linker_1, # of connection points: 2
#     Edge 18, Type (0, 0), BuildingBlock: KIFKEQ_clean_linker_1, # of connection points: 2
#     Edge 19, Type (0, 0), BuildingBlock: KIFKEQ_clean_linker_1, # of connection points: 2
#     Edge 20, Type (0, 0), BuildingBlock: KIFKEQ_clean_linker_1, # of connection points: 2
#     Edge 21, Type (0, 0), BuildingBlock: KIFKEQ_clean_linker_1, # of connection points: 2
#     Edge 22, Type (0, 0), BuildingBlock: KIFKEQ_clean_linker_1, # of connection points: 2
#     Edge 23, Type (0, 0), BuildingBlock: KIFKEQ_clean_linker_1, # of connection points: 2
#     Edge 24, Type (0, 0), BuildingBlock: KIFKEQ_clean_linker_1, # of connection points: 2
#     Edge 25, Type (0, 0), BuildingBlock: KIFKEQ_clean_linker_1, # of connection points: 2
#     Edge 26, Type (0, 0), BuildingBlock: KIFKEQ_clean_linker_1, # of connection points: 2
#     Edge 27, Type (0, 0), BuildingBlock: KIFKEQ_clean_linker_1, # of connection points: 2
#     Edge 28, Type (0, 0), BuildingBlock: KIFKEQ_clean_linker_1, # of connection points: 2
#     Edge 29, Type (0, 0), BuildingBlock: KIFKEQ_clean_linker_1, # of connection points: 2
#     Edge 30, Type (0, 0), BuildingBlock: KIFKEQ_clean_linker_1, # of connection points: 2
#     Edge 31, Type (0, 0), BuildingBlock: KIFKEQ_clean_linker_1, # of connection points: 2
#     Edge 32, Type (0, 0), BuildingBlock: KIFKEQ_clean_linker_1, # of connection points: 2
#     Edge 33, Type (0, 0), BuildingBlock: KIFKEQ_clean_linker_1, # of connection points: 2
#     Edge 34, Type (0, 0), BuildingBlock: KIFKEQ_clean_linker_1, # of connection points: 2
#     Edge 35, Type (0, 0), BuildingBlock: KIFKEQ_clean_linker_1, # of connection points: 2
#     Edge 36, Type (0, 0), BuildingBlock: KIFKEQ_clean_linker_1, # of connection points: 2
#     Edge 37, Type (0, 0), BuildingBlock: KIFKEQ_clean_linker_1, # of connection points: 2
#     Edge 38, Type (0, 0), BuildingBlock: KIFKEQ_clean_linker_1, # of connection points: 2
#     Edge 39, Type (0, 0), BuildingBlock: KIFKEQ_clean_linker_1, # of connection points: 2
#     Edge 40, Type (0, 0), BuildingBlock: KIFKEQ_clean_linker_1, # of connection points: 2
#     Edge 41, Type (0, 0), BuildingBlock: KIFKEQ_clean_linker_1, # of connection points: 2
#     Edge 42, Type (0, 0), BuildingBlock: KIFKEQ_clean_linker_1, # of connection points: 2
#     Edge 43, Type (0, 0), BuildingBlock: KIFKEQ_clean_linker_1, # of connection points: 2
#     Edge 44, Type (0, 0), BuildingBlock: KIFKEQ_clean_linker_1, # of connection points: 2
#     Edge 45, Type (0, 0), BuildingBlock: KIFKEQ_clean_linker_1, # of connection points: 2
#     Edge 46, Type (0, 0), BuildingBlock: KIFKEQ_clean_linker_1, # of connection points: 2
#     Edge 47, Type (0, 0), BuildingBlock: KIFKEQ_clean_linker_1, # of connection points: 2
# Relax obj value: 0.290
# Max RMSD: 0.221
# Mean RMSD: 0.173
data_MOF--net-ure--node1-GALJAG_clean_sbu_0--edge1-KIFKEQ_clean_linker_1
_symmetry_space_group_name_H-M    P1
_symmetry_Int_Tables_number       1
_symmetry_cell_setting            triclinic
loop_
_symmetry_equiv_pos_as_xyz
'x, y, z'
_cell_length_a     28.194046
_cell_length_b     32.915505
_cell_length_c     32.871552
_cell_angle_alpha  100.23062
_cell_angle_beta   96.266248
_cell_angle_gamma 96.192289
loop_
_atom_site_label
_atom_site_type_symbol
_atom_site_fract_x
_atom_site_fract_y
_atom_site_fract_z
_atom_type_partial_charge
In0 In 0.31867 0.30044 0.29905 0.0
O1 O 0.27188 0.23693 0.27867 0.0
O2 O 0.26838 0.27951 0.23741 0.0
C3 C 0.32433 0.30279 0.38214 0.0
C4 C 0.39938 0.27573 0.27173 0.0
C5 C 0.31277 0.38213 0.30006 0.0
O6 O 0.28426 0.297 0.35914 0.0
O7 O 0.36039 0.30686 0.36314 0.0
O8 O 0.35195 0.36706 0.30278 0.0
O9 O 0.27564 0.35583 0.29627 0.0
C10 C 0.25499 0.24357 0.24365 0.0
O11 O 0.37935 0.30442 0.25891 0.0
O12 O 0.37798 0.25893 0.29745 0.0
In13 In 0.97661 0.99828 0.4851 0.0
O14 O 0.00668 0.02951 0.55207 0.0
O15 O 0.99349 0.96341 0.53794 0.0
C16 C 0.96815 0.07676 0.4741 0.0
C17 C 0.04088 0.96202 0.44072 0.0
C18 C 0.88522 0.96033 0.46481 0.0
O19 O 0.94587 0.05959 0.49906 0.0
O20 O 0.99554 0.05459 0.45494 0.0
O21 O 0.90702 0.97831 0.4401 0.0
O22 O 0.91007 0.96032 0.49906 0.0
C23 C 0.00746 0.99581 0.56531 0.0
O24 O 0.99611 0.9517 0.43125 0.0
O25 O 0.05307 0.99052 0.4724 0.0
In26 In 0.34711 0.76036 0.79498 0.0
O27 O 0.26736 0.73513 0.77877 0.0
O28 O 0.28741 0.79971 0.80498 0.0
C29 C 0.39627 0.6949 0.78352 0.0
C30 C 0.36957 0.80085 0.73411 0.0
C31 C 0.35691 0.76939 0.87788 0.0
O32 O 0.35269 0.69287 0.76815 0.0
O33 O 0.41568 0.73051 0.80289 0.0
O34 O 0.37469 0.79814 0.86067 0.0
O35 O 0.33537 0.73726 0.85329 0.0
C36 C 0.25389 0.77013 0.79162 0.0
O37 O 0.38746 0.81467 0.77182 0.0
O38 O 0.34265 0.76656 0.72779 0.0
In39 In 0.48767 0.98338 0.01497 0.0
O40 O 0.44571 0.00615 0.96115 0.0
O41 O 0.48859 0.05066 0.00998 0.0
C42 C 0.48052 0.90019 0.99985 0.0
C43 C 0.58191 0.99248 0.00765 0.0
C44 C 0.43837 0.99174 0.0808 0.0
O45 O 0.4633 0.91931 0.97251 0.0
O46 O 0.49997 0.92303 0.03381 0.0
O47 O 0.4817 0.00772 0.0831 0.0
O48 O 0.41931 0.97288 0.04487 0.0
C49 C 0.46183 0.04406 0.97554 0.0
O50 O 0.56679 0.00221 0.04252 0.0
O51 O 0.54954 0.97886 0.97717 0.0
In52 In 0.35012 0.76282 0.26361 0.0
O53 O 0.32019 0.69395 0.24144 0.0
O54 O 0.35198 0.71349 0.30449 0.0
C55 C 0.35084 0.76427 0.18193 0.0
C56 C 0.28449 0.80677 0.29872 0.0
C57 C 0.44172 0.79613 0.29348 0.0
O58 O 0.37549 0.74178 0.20074 0.0
O59 O 0.32444 0.78492 0.20396 0.0
O60 O 0.41619 0.80996 0.26652 0.0
O61 O 0.42069 0.76599 0.30635 0.0
C62 C 0.33154 0.6838 0.27615 0.0
O63 O 0.32889 0.81949 0.30515 0.0
O64 O 0.27321 0.77173 0.27505 0.0
In65 In 0.44533 0.99212 0.43881 0.0
O66 O 0.42326 0.99338 0.50403 0.0
O67 O 0.40843 0.93619 0.46095 0.0
C68 C 0.46382 0.07543 0.44475 0.0
C69 C 0.53452 0.9693 0.44402 0.0
C70 C 0.38939 0.97264 0.36405 0.0
O71 O 0.43069 0.05897 0.46193 0.0
O72 O 0.48753 0.04994 0.42506 0.0
O73 O 0.42101 0.95101 0.37494 0.0
O74 O 0.38344 0.0025 0.39213 0.0
C75 C 0.40786 0.95513 0.49769 0.0
O76 O 0.50493 0.95913 0.41119 0.0
O77 O 0.5193 0.99129 0.47407 0.0
In78 In 0.38409 0.33484 0.77863 0.0
O79 O 0.40789 0.27072 0.77968 0.0
O80 O 0.41822 0.31425 0.83668 0.0
C81 C 0.36942 0.32368 0.69452 0.0
C82 C 0.29339 0.33043 0.79789 0.0
C83 C 0.43882 0.41003 0.79906 0.0
O84 O 0.40491 0.3117 0.71389 0.0
O85 O 0.34146 0.34095 0.71754 0.0
O86 O 0.40778 0.39833 0.82082 0.0
O87 O 0.44455 0.3827 0.7685 0.0
C88 C 0.42102 0.2777 0.81843 0.0
O89 O 0.3203 0.36451 0.80233 0.0
O90 O 0.31212 0.29873 0.78348 0.0
In91 In 0.01618 0.96832 0.94535 0.0
O92 O 0.94307 0.98928 0.9296 0.0
O93 O 0.95813 0.97216 0.98852 0.0
C94 C 0.03311 0.9813 0.86918 0.0
C95 C 0.07796 0.02028 0.00733 0.0
C96 C 0.00887 0.88441 0.93492 0.0
O97 O 0.00659 0.00199 0.89105 0.0
O98 O 0.0526 0.95467 0.88628 0.0
O99 O 0.04906 0.90715 0.9446 0.0
O100 O 0.97327 0.90396 0.93039 0.0
C101 C 0.92826 0.98439 0.96346 0.0
O102 O 0.05676 0.98606 0.01196 0.0
O103 O 0.0698 0.02751 0.97105 0.0
In104 In 0.84605 0.27303 0.75131 0.0
O105 O 0.82844 0.31396 0.8099 0.0
O106 O 0.77708 0.30285 0.75572 0.0
C107 C 0.93838 0.29648 0.78537 0.0
C108 C 0.82617 0.19137 0.75401 0.0
C109 C 0.83819 0.28234 0.67082 0.0
O110 O 0.91477 0.31883 0.76555 0.0
O111 O 0.91515 0.26248 0.78859 0.0
O112 O 0.81054 0.25608 0.68367 0.0
O113 O 0.86985 0.30388 0.6985 0.0
C114 C 0.78822 0.3204 0.79335 0.0
O115 O 0.85677 0.20479 0.73262 0.0
O116 O 0.80544 0.21913 0.77399 0.0
In117 In 0.95989 0.49356 0.93618 0.0
O118 O 0.02634 0.46704 0.91424 0.0
O119 O 0.03166 0.50008 0.97678 0.0
C120 C 0.91625 0.46867 0.85696 0.0
C121 C 0.9195 0.45396 0.99213 0.0
C122 C 0.96795 0.57688 0.93996 0.0
O123 O 0.95203 0.45312 0.87119 0.0
O124 O 0.90114 0.49535 0.88322 0.0
O125 O 0.92787 0.55506 0.9384 0.0
O126 O 0.00367 0.55698 0.94064 0.0
C127 C 0.05234 0.48022 0.94888 0.0
O128 O 0.93007 0.49292 0.99849 0.0
O129 O 0.92646 0.43553 0.95678 0.0
In130 In 0.8861 0.82997 0.27829 0.0
O131 O 0.90865 0.76496 0.27579 0.0
O132 O 0.9226 0.80678 0.33391 0.0
C133 C 0.86895 0.81534 0.19397 0.0
C134 C 0.79703 0.83297 0.30025 0.0
C135 C 0.93917 0.90597 0.29936 0.0
O136 O 0.91089 0.82042 0.21354 0.0
O137 O 0.83583 0.81637 0.21679 0.0
O138 O 0.90837 0.89363 0.32107 0.0
O139 O 0.94541 0.87896 0.26875 0.0
C140 C 0.92382 0.77049 0.3141 0.0
O141 O 0.82146 0.86398 0.29155 0.0
O142 O 0.81761 0.80061 0.29795 0.0
In143 In 0.99056 0.46589 0.49689 0.0
O144 O 0.0696 0.48099 0.52414 0.0
O145 O 0.05216 0.45892 0.45862 0.0
C146 C 0.94595 0.47569 0.56542 0.0
C147 C 0.96661 0.52855 0.4593 0.0
C148 C 0.97726 0.38254 0.48074 0.0
O149 O 0.98887 0.49144 0.56541 0.0
O150 O 0.92463 0.4565 0.53036 0.0
O151 O 0.96022 0.40287 0.45442 0.0
O152 O 7e-05 0.40431 0.51397 0.0
C153 C 0.08461 0.47085 0.48935 0.0
O154 O 0.9488 0.49112 0.44445 0.0
O155 O 0.99423 0.53369 0.49312 0.0
In156 In 0.50563 0.51989 0.00524 0.0
O157 O 0.52418 0.46267 0.96292 0.0
O158 O 0.57622 0.5164 0.97785 0.0
C159 C 0.41049 0.49296 0.99186 0.0
C160 C 0.53348 0.51401 0.08513 0.0
C161 C 0.50883 0.598 0.98971 0.0
O162 O 0.43572 0.49356 0.96251 0.0
O163 O 0.43332 0.50554 0.02788 0.0
O164 O 0.53649 0.58832 0.01824 0.0
O165 O 0.47978 0.5681 0.96837 0.0
C166 C 0.56514 0.4794 0.95851 0.0
O167 O 0.52563 0.54779 0.07422 0.0
O168 O 0.52724 0.48279 0.05564 0.0
In169 In 0.81339 0.8189 0.80572 0.0
O170 O 0.88986 0.84122 0.79625 0.0
O171 O 0.87757 0.78414 0.81754 0.0
C172 C 0.79115 0.89129 0.78507 0.0
C173 C 0.76171 0.75596 0.74766 0.0
C174 C 0.80963 0.82076 0.88773 0.0
O175 O 0.81357 0.86653 0.76308 0.0
O176 O 0.77769 0.87864 0.81652 0.0
O177 O 0.78585 0.79206 0.85994 0.0
O178 O 0.83368 0.84864 0.87396 0.0
C179 C 0.90749 0.81072 0.80749 0.0
O180 O 0.74234 0.77749 0.77547 0.0
O181 O 0.80626 0.76635 0.74933 0.0
In182 In 0.84245 0.2519 0.28087 0.0
O183 O 0.76672 0.21768 0.25831 0.0
O184 O 0.77551 0.28376 0.27664 0.0
C185 C 0.89578 0.18861 0.27618 0.0
C186 C 0.8707 0.29424 0.22285 0.0
C187 C 0.84254 0.26821 0.36377 0.0
O188 O 0.85422 0.18539 0.25619 0.0
O189 O 0.91149 0.22442 0.2973 0.0
O190 O 0.86241 0.2949 0.34534 0.0
O191 O 0.82355 0.23448 0.3404 0.0
C192 C 0.74702 0.25064 0.26319 0.0
O193 O 0.8818 0.3091 0.26144 0.0
O194 O 0.84809 0.25798 0.21444 0.0
In195 In 0.53034 0.46732 0.45667 0.0
O196 O 0.60003 0.49487 0.50145 0.0
O197 O 0.53971 0.52794 0.50416 0.0
C198 C 0.52979 0.38466 0.45409 0.0
C199 C 0.43568 0.46602 0.46207 0.0
C200 C 0.55543 0.48812 0.38539 0.0
O201 O 0.54273 0.41127 0.48728 0.0
O202 O 0.51951 0.39988 0.42217 0.0
O203 O 0.52415 0.50448 0.40506 0.0
O204 O 0.57607 0.46215 0.40263 0.0
C205 C 0.58256 0.52639 0.5185 0.0
O206 O 0.45433 0.47544 0.43131 0.0
O207 O 0.46484 0.45766 0.49035 0.0
H208 H 0.20633 0.25276 0.17001 0.0
H209 H 0.2387 0.16008 0.24302 0.0
H210 H 0.16368 0.19833 0.11388 0.0
H211 H 0.19795 0.1053 0.18627 0.0
H212 H 0.08383 0.01912 0.09062 0.0
H213 H 0.12398 0.07295 0.1485 0.0
H214 H 0.17719 0.14459 0.06089 0.0
H215 H 0.13517 0.0915 0.00321 0.0
C216 C 0.20424 0.2207 0.17407 0.0
C217 C 0.2258 0.21076 0.21099 0.0
C218 C 0.18022 0.18934 0.14166 0.0
C219 C 0.17765 0.14711 0.14508 0.0
C220 C 0.19855 0.13735 0.18249 0.0
C221 C 0.22209 0.1688 0.21509 0.0
C222 C 0.10442 0.04626 0.08378 0.0
C223 C 0.1063 0.05106 0.04233 0.0
C224 C 0.12763 0.07717 0.11702 0.0
C225 C 0.15376 0.11352 0.10965 0.0
C226 C 0.15659 0.11763 0.06801 0.0
C227 C 0.13291 0.08694 0.03482 0.0
H228 H 0.13744 0.96944 0.4636 0.0
H229 H 0.02439 0.90864 0.36551 0.0
H230 H 0.19593 0.93309 0.42748 0.0
H231 H 0.08325 0.87351 0.32816 0.0
H232 H 0.19017 0.78012 0.30072 0.0
H233 H 0.1312 0.81932 0.33313 0.0
H234 H 0.23841 0.92801 0.36907 0.0
H235 H 0.29783 0.88806 0.33815 0.0
C236 C 0.12525 0.94869 0.43397 0.0
C237 C 0.0764 0.94166 0.41742 0.0
C238 C 0.15884 0.92805 0.41306 0.0
C239 C 0.1444 0.90029 0.37487 0.0
C240 C 0.09554 0.89409 0.35786 0.0
C241 C 0.06183 0.91439 0.37907 0.0
C242 C 0.20103 0.8124 0.31554 0.0
C243 C 0.24857 0.83099 0.31725 0.0
C244 C 0.16715 0.83502 0.33383 0.0
C245 C 0.17997 0.87687 0.35378 0.0
C246 C 0.22746 0.89564 0.35466 0.0
C247 C 0.26148 0.87285 0.33679 0.0
H248 H 0.38999 0.8715 0.49361 0.0
H249 H 0.40273 0.98922 0.57904 0.0
H250 H 0.38248 0.83485 0.55104 0.0
H251 H 0.39332 0.9525 0.63664 0.0
H252 H 0.42804 0.87395 0.73601 0.0
H253 H 0.43542 0.9118 0.67874 0.0
H254 H 0.33054 0.81789 0.59846 0.0
H255 H 0.32477 0.77972 0.65468 0.0
C256 C 0.39016 0.88955 0.5246 0.0
C257 C 0.39677 0.93323 0.53177 0.0
C258 C 0.3858 0.86852 0.55763 0.0
C259 C 0.38742 0.89065 0.59867 0.0
C260 C 0.39276 0.93443 0.60562 0.0
C261 C 0.39754 0.95549 0.57255 0.0
C262 C 0.40697 0.86137 0.70597 0.0
C263 C 0.37614 0.82374 0.6998 0.0
C264 C 0.41079 0.8832 0.67325 0.0
C265 C 0.38358 0.86793 0.63383 0.0
C266 C 0.35274 0.8303 0.62799 0.0
C267 C 0.34928 0.80843 0.66042 0.0
H268 H 0.50231 0.12458 0.99833 0.0
H269 H 0.40507 0.04075 0.90117 0.0
H270 H 0.49571 0.18047 0.95982 0.0
H271 H 0.39682 0.09758 0.86295 0.0
H272 H 0.43462 0.28266 0.90251 0.0
H273 H 0.44235 0.22599 0.94019 0.0
H274 H 0.44028 0.14036 0.8237 0.0
H275 H 0.4307 0.19708 0.78589 0.0
C276 C 0.47888 0.11823 0.96892 0.0
C277 C 0.45405 0.07824 0.95284 0.0
C278 C 0.47495 0.15043 0.94686 0.0
C279 C 0.44568 0.1437 0.90824 0.0
C280 C 0.42027 0.10374 0.89232 0.0
C281 C 0.42455 0.07127 0.91436 0.0
C282 C 0.4364 0.25184 0.88498 0.0
C283 C 0.43217 0.24434 0.84127 0.0
C284 C 0.44088 0.21926 0.90658 0.0
C285 C 0.44174 0.17843 0.88502 0.0
C286 C 0.43884 0.17121 0.84128 0.0
C287 C 0.43396 0.2038 0.81963 0.0
H288 H 0.6965 0.33125 0.76646 0.0
H289 H 0.80791 0.36651 0.87212 0.0
H290 H 0.64248 0.37131 0.80541 0.0
H291 H 0.7537 0.40625 0.9112 0.0
H292 H 0.6581 0.50636 0.95146 0.0
H293 H 0.71256 0.46933 0.91012 0.0
H294 H 0.60006 0.3657 0.86703 0.0
H295 H 0.54546 0.40286 0.90806 0.0
C296 C 0.70943 0.34763 0.79797 0.0
C297 C 0.75624 0.34566 0.81639 0.0
C298 C 0.67846 0.37035 0.8203 0.0
C299 C 0.69387 0.39171 0.86134 0.0
C300 C 0.74103 0.39034 0.87948 0.0
C301 C 0.77192 0.36742 0.85723 0.0
C302 C 0.64502 0.47571 0.93306 0.0
C303 C 0.59769 0.45736 0.93304 0.0
C304 C 0.67623 0.45448 0.9096 0.0
C305 C 0.66053 0.41465 0.88548 0.0
C306 C 0.61296 0.39654 0.88505 0.0
C307 C 0.58185 0.41767 0.90872 0.0
H308 H 0.90932 0.37027 0.98795 0.0
H309 H 0.90287 0.4862 0.07131 0.0
H310 H 0.89919 0.33272 0.04423 0.0
H311 H 0.89059 0.4483 0.12772 0.0
H312 H 0.92255 0.37149 0.22957 0.0
H313 H 0.93212 0.41087 0.1737 0.0
H314 H 0.84342 0.31074 0.08602 0.0
H315 H 0.83585 0.27118 0.14094 0.0
C316 C 0.9047 0.38766 0.01817 0.0
C317 C 0.90675 0.43118 0.02516 0.0
C318 C 0.89877 0.36609 0.05055 0.0
C319 C 0.89411 0.38739 0.09072 0.0
C320 C 0.89488 0.43093 0.09742 0.0
C321 C 0.90129 0.45261 0.06499 0.0
C322 C 0.90562 0.3579 0.19822 0.0
C323 C 0.87892 0.3181 0.18958 0.0
C324 C 0.91061 0.38058 0.16627 0.0
C325 C 0.88863 0.364 0.12519 0.0
C326 C 0.86174 0.32426 0.11694 0.0
C327 C 0.85724 0.30155 0.14858 0.0
H328 H 0.01004 0.60812 0.48335 0.0
H329 H 0.90759 0.52871 0.38692 0.0
H330 H 0.00309 0.66597 0.44757 0.0
H331 H 0.89908 0.58751 0.35149 0.0
H332 H 0.93068 0.69032 0.27779 0.0
H333 H 0.94109 0.63157 0.31251 0.0
H334 H 0.9501 0.71348 0.43225 0.0
H335 H 0.94147 0.77217 0.39756 0.0
C336 C 0.98547 0.60314 0.45467 0.0
C337 C 0.9592 0.56382 0.43802 0.0
C338 C 0.98133 0.63648 0.4342 0.0
C339 C 0.95044 0.6316 0.39663 0.0
C340 C 0.92376 0.59227 0.38007 0.0
C341 C 0.92822 0.55866 0.40051 0.0
C342 C 0.93563 0.69578 0.31155 0.0
C343 C 0.9355 0.73588 0.33496 0.0
C344 C 0.941 0.66203 0.33146 0.0
C345 C 0.94608 0.6676 0.37522 0.0
C346 C 0.94692 0.70799 0.39854 0.0
C347 C 0.94193 0.74173 0.37866 0.0
H348 H 0.67341 0.52871 0.55938 0.0
H349 H 0.5518 0.59783 0.55531 0.0
H350 H 0.71612 0.58261 0.61647 0.0
H351 H 0.59466 0.65205 0.61131 0.0
H352 H 0.66609 0.72446 0.73819 0.0
H353 H 0.62312 0.66743 0.6844 0.0
H354 H 0.75447 0.65308 0.62986 0.0
H355 H 0.79737 0.70907 0.68408 0.0
C356 C 0.65592 0.55549 0.57054 0.0
C357 C 0.60928 0.559 0.55279 0.0
C358 C 0.68043 0.58651 0.60315 0.0
C359 C 0.65888 0.62181 0.61866 0.0
C360 C 0.61215 0.6251 0.60078 0.0
C361 C 0.58769 0.5941 0.56836 0.0
C362 C 0.6857 0.70899 0.71475 0.0
C363 C 0.73507 0.72135 0.71537 0.0
C364 C 0.66108 0.67642 0.68376 0.0
C365 C 0.68525 0.65555 0.65261 0.0
C366 C 0.73475 0.66788 0.65358 0.0
C367 C 0.75931 0.70028 0.68455 0.0
H368 H 0.40757 0.31753 0.43561 0.0
H369 H 0.2533 0.29345 0.43174 0.0
H370 H 0.41759 0.32193 0.51071 0.0
H371 H 0.26337 0.29686 0.50719 0.0
H372 H 0.29884 0.35163 0.64742 0.0
H373 H 0.28729 0.34619 0.57197 0.0
H374 H 0.41025 0.27884 0.56225 0.0
H375 H 0.42249 0.28532 0.63793 0.0
C376 C 0.37574 0.3129 0.45081 0.0
C377 C 0.32959 0.30503 0.42776 0.0
C378 C 0.38155 0.31515 0.49389 0.0
C379 C 0.34134 0.30949 0.51502 0.0
C380 C 0.29509 0.30176 0.49194 0.0
C381 C 0.28928 0.29957 0.44872 0.0
C382 C 0.32332 0.33557 0.62914 0.0
C383 C 0.36164 0.31897 0.64859 0.0
C384 C 0.31652 0.33222 0.58586 0.0
C385 C 0.3478 0.31208 0.561 0.0
C386 C 0.38587 0.29508 0.5805 0.0
C387 C 0.39275 0.29855 0.62384 0.0
H388 H 0.07789 0.93377 0.8118 0.0
H389 H -0.00203 0.03901 0.82853 0.0
H390 H 0.07914 0.93836 0.73842 0.0
H391 H -0.00144 0.04325 0.75546 0.0
H392 H 0.03602 0.06142 0.63002 0.0
H393 H 0.04992 0.05947 0.70421 0.0
H394 H 0.02045 0.9252 0.67542 0.0
H395 H 0.00747 0.92716 0.60124 0.0
C396 C 0.06106 0.95812 0.7999 0.0
C397 C 0.03784 0.98603 0.82587 0.0
C398 C 0.0615 0.9606 0.75786 0.0
C399 C 0.03896 0.99119 0.74106 0.0
C400 C 0.0169 0.01973 0.76746 0.0
C401 C 0.01631 0.01714 0.80933 0.0
C402 C 0.0331 0.03148 0.63953 0.0
C403 C 0.02034 0.99446 0.60984 0.0
C404 C 0.04081 0.03036 0.68204 0.0
C405 C 0.03593 0.99219 0.69579 0.0
C406 C 0.02497 0.95509 0.66591 0.0
C407 C 0.01725 0.95622 0.6234 0.0
H408 H 0.36599 0.83901 0.93973 0.0
H409 H 0.35377 0.7048 0.91789 0.0
H410 H 0.36718 0.84057 0.0149 0.0
H411 H 0.35521 0.70623 0.99205 0.0
H412 H 0.40477 0.72248 0.129 0.0
H413 H 0.41077 0.7276 0.05663 0.0
H414 H 0.31124 0.81887 0.06357 0.0
H415 H 0.30579 0.81421 0.13637 0.0
C416 C 0.36393 0.81 0.95107 0.0
C417 C 0.36026 0.77184 0.92325 0.0
C418 C 0.36424 0.81082 0.99388 0.0
C419 C 0.3616 0.77351 0.00934 0.0
C420 C 0.35813 0.73553 0.98127 0.0
C421 C 0.35704 0.73471 0.93874 0.0
C422 C 0.38419 0.74365 0.1151 0.0
C423 C 0.3543 0.76751 0.13812 0.0
C424 C 0.38761 0.74658 0.07368 0.0
C425 C 0.36121 0.77344 0.05438 0.0
C426 C 0.33226 0.79814 0.07772 0.0
C427 C 0.32876 0.79513 0.11921 0.0
H428 H 0.38939 0.90786 0.2994 0.0
H429 H 0.35068 0.03223 0.32836 0.0
H430 H 0.38525 0.91274 0.22585 0.0
H431 H 0.34724 0.03722 0.25489 0.0
H432 H 0.45668 0.04711 0.15426 0.0
H433 H 0.42556 0.04035 0.21951 0.0
H434 H 0.33626 0.92649 0.15791 0.0
H435 H 0.36662 0.93386 0.09207 0.0
C436 C 0.37825 0.93561 0.28983 0.0
C437 C 0.37114 0.96992 0.31966 0.0
C438 C 0.37581 0.93838 0.2477 0.0
C439 C 0.3668 0.97568 0.23492 0.0
C440 C 0.35476 0.00831 0.2641 0.0
C441 C 0.35645 0.00531 0.3061 0.0
C442 C 0.42951 0.02123 0.15443 0.0
C443 C 0.41406 0.99104 0.11824 0.0
C444 C 0.41147 0.01746 0.19167 0.0
C445 C 0.37837 0.98295 0.19367 0.0
C446 C 0.36157 0.95346 0.15711 0.0
C447 C 0.37883 0.95777 0.11952 0.0
H448 H 0.45462 0.31056 0.22064 0.0
H449 H 0.45118 0.21859 0.29951 0.0
H450 H 0.53738 0.30038 0.21065 0.0
H451 H 0.53402 0.20888 0.29002 0.0
H452 H 0.67662 0.18368 0.2453 0.0
H453 H 0.58949 0.18511 0.2393 0.0
H454 H 0.61268 0.31949 0.25952 0.0
H455 H 0.69917 0.31806 0.2651 0.0
C456 C 0.4713 0.28773 0.2353 0.0
C457 C 0.44665 0.26555 0.26104 0.0
C458 C 0.51868 0.28205 0.22974 0.0
C459 C 0.5422 0.25404 0.24978 0.0
C460 C 0.51667 0.23034 0.27382 0.0
C461 C 0.46932 0.23607 0.27943 0.0
C462 C 0.66294 0.21342 0.2479 0.0
C463 C 0.69456 0.25076 0.25588 0.0
C464 C 0.61319 0.21425 0.24463 0.0
C465 C 0.59436 0.2524 0.24893 0.0
C466 C 0.62607 0.28959 0.25548 0.0
C467 C 0.67564 0.28877 0.259 0.0
H468 H 0.97884 0.33752 0.54137 0.0
H469 H 0.96222 0.32465 0.40736 0.0
H470 H 0.97066 0.26248 0.53454 0.0
H471 H 0.95477 0.24836 0.40037 0.0
H472 H 0.01414 0.12173 0.42413 0.0
H473 H 0.01008 0.19489 0.41992 0.0
H474 H 0.90759 0.20171 0.50862 0.0
H475 H 0.9111 0.12889 0.51238 0.0
C476 C 0.9732 0.31849 0.51034 0.0
C477 C 0.97074 0.33679 0.47488 0.0
C478 C 0.96827 0.27547 0.50644 0.0
C479 C 0.96172 0.24958 0.46693 0.0
C480 C 0.95989 0.26772 0.4312 0.0
C481 C 0.96392 0.31117 0.43516 0.0
C482 C 0.99012 0.13875 0.44207 0.0
C483 C 0.96325 0.11977 0.46882 0.0
C484 C 0.98761 0.18048 0.4395 0.0
C485 C 0.95866 0.20395 0.46406 0.0
C486 C 0.93041 0.1844 0.4895 0.0
C487 C 0.93255 0.14274 0.49175 0.0
H488 H 0.97733 0.86274 0.78482 0.0
H489 H 0.95333 0.74793 0.83051 0.0
H490 H 0.06112 0.85266 0.78077 0.0
H491 H 0.03759 0.73834 0.82743 0.0
H492 H 0.17441 0.71163 0.76838 0.0
H493 H 0.09057 0.72203 0.77376 0.0
H494 H 0.13553 0.85244 0.82534 0.0
H495 H 0.21882 0.84226 0.81917 0.0
C496 C 0.99009 0.8355 0.79427 0.0
C497 C 0.95878 0.80587 0.80754 0.0
C498 C 0.03813 0.82985 0.79219 0.0
C499 C 0.05584 0.79454 0.8035 0.0
C500 C 0.02472 0.76541 0.8177 0.0
C501 C 0.9766 0.77103 0.81972 0.0
C502 C 0.16623 0.74251 0.78062 0.0
C503 C 0.20304 0.77614 0.7932 0.0
C504 C 0.11836 0.74841 0.78405 0.0
C505 C 0.10653 0.78805 0.80007 0.0
C506 C 0.14344 0.82165 0.81243 0.0
C507 C 0.19116 0.81576 0.809 0.0
H508 H 0.56304 0.66673 0.03683 0.0
H509 H 0.45288 0.62748 0.9306 0.0
H510 H 0.55545 0.73906 0.03441 0.0
H511 H 0.4453 0.7005 0.92817 0.0
H512 H 0.4763 0.84419 0.92616 0.0
H513 H 0.48481 0.76967 0.91859 0.0
H514 H 0.49168 0.78042 0.05212 0.0
H515 H 0.48418 0.85394 0.05954 0.0
C516 C 0.53745 0.67358 0.01271 0.0
C517 C 0.50795 0.64149 0.9844 0.0
C518 C 0.53287 0.71505 0.01147 0.0
C519 C 0.49868 0.72545 0.98191 0.0
C520 C 0.47134 0.69342 0.95174 0.0
C521 C 0.4757 0.65168 0.95315 0.0
C522 C 0.47935 0.8303 0.95368 0.0
C523 C 0.48012 0.85474 0.99346 0.0
C524 C 0.48423 0.78781 0.94939 0.0
C525 C 0.49005 0.76947 0.98488 0.0
C526 C 0.48875 0.79385 0.0243 0.0
C527 C 0.48416 0.83594 0.02854 0.0
H528 H 0.74305 0.89711 0.30154 0.0
H529 H 0.7377 0.76946 0.31797 0.0
H530 H 0.65766 0.89506 0.30841 0.0
H531 H 0.65247 0.76705 0.32426 0.0
H532 H 0.50392 0.77376 0.35282 0.0
H533 H 0.59149 0.78931 0.36349 0.0
H534 H 0.58381 0.8649 0.26855 0.0
H535 H 0.49662 0.8509 0.25946 0.0
C536 C 0.72369 0.86875 0.30703 0.0
C537 C 0.74686 0.83334 0.30891 0.0
C538 C 0.67469 0.86746 0.31072 0.0
C539 C 0.648 0.8309 0.31692 0.0
C540 C 0.67189 0.79604 0.32038 0.0
C541 C 0.72076 0.79727 0.31643 0.0
C542 C 0.52105 0.79441 0.33494 0.0
C543 C 0.49359 0.81067 0.30493 0.0
C544 C 0.57121 0.80308 0.34078 0.0
C545 C 0.59488 0.8277 0.3163 0.0
C546 C 0.56701 0.84606 0.2882 0.0
C547 C 0.5169 0.83781 0.28275 0.0
H548 H 0.42665 0.1378 0.49304 0.0
H549 H 0.52331 0.11558 0.40052 0.0
H550 H 0.44334 0.21286 0.49549 0.0
H551 H 0.53984 0.19033 0.40293 0.0
H552 H 0.51171 0.32226 0.38553 0.0
H553 H 0.49506 0.24754 0.38355 0.0
H554 H 0.51384 0.26986 0.51817 0.0
H555 H 0.53069 0.34471 0.52019 0.0
C556 C 0.45145 0.14894 0.47329 0.0
C557 C 0.47375 0.12084 0.44666 0.0
C558 C 0.46117 0.19186 0.47483 0.0
C559 C 0.49292 0.20742 0.44941 0.0
C560 C 0.51492 0.17924 0.42262 0.0
C561 C 0.50564 0.13645 0.42143 0.0
C562 C 0.51278 0.31119 0.4147 0.0
C563 C 0.52299 0.3393 0.45304 0.0
C564 C 0.50325 0.26842 0.41356 0.0
C565 C 0.5032 0.25287 0.45072 0.0
C566 C 0.51335 0.28099 0.48905 0.0
C567 C 0.52345 0.32376 0.4902 0.0
H568 H 0.24417 0.39442 0.82684 0.0
H569 H 0.22912 0.26065 0.78838 0.0
H570 H 0.15864 0.39016 0.83468 0.0
H571 H 0.14398 0.25642 0.79561 0.0
H572 H -0.00245 0.36329 0.77361 0.0
H573 H 0.08501 0.37448 0.7864 0.0
H574 H 0.08417 0.26523 0.84255 0.0
H575 H 0.99649 0.25355 0.82885 0.0
C576 C 0.22268 0.36411 0.82047 0.0
C577 C 0.24308 0.32788 0.80657 0.0
C578 C 0.17378 0.36169 0.82493 0.0
C579 C 0.14452 0.32299 0.81579 0.0
C580 C 0.16558 0.28668 0.80357 0.0
C581 C 0.21433 0.2891 0.79904 0.0
C582 C 0.01599 0.34215 0.78944 0.0
C583 C 0.99032 0.30721 0.79968 0.0
C584 C 0.06616 0.34868 0.79699 0.0
C585 C 0.09157 0.3204 0.81498 0.0
C586 C 0.06562 0.28709 0.82788 0.0
C587 C 0.01544 0.28051 0.82022 0.0
H588 H 0.07808 0.83203 0.92847 0.0
H589 H 0.92601 0.8337 0.93274 0.0
H590 H 0.06766 0.75709 0.92623 0.0
H591 H 0.91563 0.75994 0.93383 0.0
H592 H 0.90175 0.61987 0.90579 0.0
H593 H 0.9122 0.69283 0.89943 0.0
H594 H 0.05553 0.70814 0.96723 0.0
H595 H 0.04586 0.63452 0.97057 0.0
C596 C 0.04249 0.81637 0.92933 0.0
C597 C 0.00295 0.83873 0.93139 0.0
C598 C 0.03645 0.77343 0.92847 0.0
C599 C 0.99086 0.75208 0.93055 0.0
C600 C 0.95123 0.77468 0.93164 0.0
C601 C 0.95718 0.81728 0.9315 0.0
C602 C 0.93536 0.63904 0.91938 0.0
C603 C 0.97293 0.62172 0.9388 0.0
C604 C 0.94142 0.68099 0.91592 0.0
C605 C 0.98481 0.70688 0.93282 0.0
C606 C 0.02204 0.68932 0.95286 0.0
C607 C 0.01636 0.64715 0.95531 0.0
H608 H 0.23558 0.42102 0.27719 0.0
H609 H 0.38703 0.44459 0.32436 0.0
H610 H 0.2358 0.49502 0.27424 0.0
H611 H 0.38722 0.51804 0.32158 0.0
H612 H 0.36234 0.65361 0.34517 0.0
H613 H 0.3535 0.58127 0.3544 0.0
H614 H 0.27361 0.54341 0.23118 0.0
H615 H 0.2824 0.61582 0.22191 0.0
C616 C 0.26873 0.44204 0.28722 0.0
C617 C 0.31135 0.42702 0.30067 0.0
C618 C 0.26892 0.48428 0.28537 0.0
C619 C 0.31155 0.5123 0.29759 0.0
C620 C 0.35372 0.49735 0.31226 0.0
C621 C 0.35367 0.45518 0.31356 0.0
C622 C 0.34256 0.6299 0.32017 0.0
C623 C 0.32335 0.64036 0.28269 0.0
C624 C 0.33763 0.58848 0.32543 0.0
C625 C 0.31302 0.55665 0.29346 0.0
C626 C 0.29241 0.56729 0.25651 0.0
C627 C 0.29771 0.60871 0.2511 0.0
H628 H 0.8744 0.12823 0.72195 0.0
H629 H 0.75608 0.15395 0.7914 0.0
H630 H 0.86073 0.05539 0.72787 0.0
H631 H 0.74107 0.08057 0.7961 0.0
H632 H 0.76955 0.9578 0.83906 0.0
H633 H 0.77469 0.03003 0.83006 0.0
H634 H 0.80785 0.99265 0.70453 0.0
H635 H 0.80457 0.92079 0.71432 0.0
C636 C 0.84506 0.11817 0.73808 0.0
C637 C 0.81638 0.14682 0.75627 0.0
C638 C 0.83694 0.07628 0.74122 0.0
C639 C 0.79959 0.06188 0.76231 0.0
C640 C 0.77051 0.09057 0.78009 0.0
C641 C 0.77892 0.1326 0.77721 0.0
C642 C 0.77715 0.96499 0.80933 0.0
C643 C 0.7868 0.93371 0.77741 0.0
C644 C 0.78003 0.00642 0.8041 0.0
C645 C 0.79219 0.01739 0.76667 0.0
C646 C 0.79951 0.98559 0.7341 0.0
C647 C 0.79717 0.94431 0.73952 0.0
H648 H 0.35083 0.48121 0.0496 0.0
H649 H 0.35148 0.47956 0.91798 0.0
H650 H 0.26321 0.47034 0.03927 0.0
H651 H 0.26377 0.47029 0.90774 0.0
H652 H 0.10342 0.43255 0.89721 0.0
H653 H 0.18967 0.42752 0.90783 0.0
H654 H 0.20302 0.51291 0.02593 0.0
H655 H 0.11715 0.51657 0.01608 0.0
C656 C 0.33217 0.47827 0.01841 0.0
C657 C 0.35784 0.48169 0.98467 0.0
C658 C 0.28197 0.4723 0.0125 0.0
C659 C 0.25638 0.47013 0.9728 0.0
C660 C 0.28223 0.47153 0.93869 0.0
C661 C 0.33252 0.47709 0.94456 0.0
C662 C 0.12487 0.44986 0.92559 0.0
C663 C 0.1037 0.47507 0.95578 0.0
C664 C 0.17423 0.44714 0.93156 0.0
C665 C 0.20332 0.46984 0.96766 0.0
C666 C 0.18169 0.49436 0.99811 0.0
C667 C 0.13244 0.49676 0.99234 0.0
H668 H 0.96183 0.17771 0.33927 0.0
H669 H 0.88467 0.1163 0.21963 0.0
H670 H 0.99123 0.11208 0.34894 0.0
H671 H 0.91446 0.0513 0.22908 0.0
H672 H 0.98573 0.94246 0.24413 0.0
H673 H 0.99179 0.01598 0.23957 0.0
H674 H 0.93861 0.04395 0.35832 0.0
H675 H 0.93164 0.97022 0.36253 0.0
C676 C 0.95234 0.15053 0.31458 0.0
C677 C 0.92087 0.1519 0.27873 0.0
C678 C 0.96892 0.11306 0.32028 0.0
C679 C 0.95508 0.07672 0.28985 0.0
C680 C 0.92618 0.07894 0.25286 0.0
C681 C 0.90891 0.11606 0.24752 0.0
C682 C 0.97691 0.96444 0.26997 0.0
C683 C 0.95729 0.95053 0.30334 0.0
C684 C 0.98025 0.0065 0.26724 0.0
C685 C 0.96486 0.03543 0.29819 0.0
C686 C 0.95068 0.02228 0.33397 0.0
C687 C 0.94663 0.98006 0.33639 0.0
H688 H 0.88579 0.96792 0.03041 0.0
H689 H 0.85919 0.01282 0.9153 0.0
H690 H 0.80249 0.97284 0.04217 0.0
H691 H 0.77629 0.01874 0.9275 0.0
H692 H 0.62009 0.97069 0.93588 0.0
H693 H 0.70447 0.9716 0.92669 0.0
H694 H 0.74491 0.02182 0.05814 0.0
H695 H 0.65981 0.01995 0.06753 0.0
C696 C 0.8623 0.97943 0.00796 0.0
C697 C 0.87892 0.99005 0.97199 0.0
C698 C 0.81467 0.98244 0.01479 0.0
C699 C 0.78278 0.9962 0.9858 0.0
C700 C 0.79979 0.00756 0.9502 0.0
C701 C 0.84735 0.00442 0.94332 0.0
C702 C 0.64694 0.98214 0.96283 0.0
C703 C 0.63339 0.99522 0.00246 0.0
C704 C 0.69535 0.98291 0.9575 0.0
C705 C 0.73142 0.99692 0.99165 0.0
C706 C 0.7179 0.01047 0.03129 0.0
C707 C 0.66927 0.00963 0.03665 0.0
H708 H 0.46546 0.68196 0.84273 0.0
H709 H 0.37926 0.62273 0.72636 0.0
H710 H 0.49406 0.61548 0.84988 0.0
H711 H 0.40873 0.55681 0.73288 0.0
H712 H 0.48062 0.44667 0.74153 0.0
H713 H 0.48606 0.52042 0.73793 0.0
H714 H 0.44279 0.54769 0.8608 0.0
H715 H 0.43663 0.47381 0.86428 0.0
C716 C 0.45389 0.65504 0.81806 0.0
C717 C 0.4202 0.6573 0.78393 0.0
C718 C 0.4701 0.61708 0.82227 0.0
C719 C 0.45383 0.58115 0.79183 0.0
C720 C 0.42241 0.58416 0.75651 0.0
C721 C 0.40534 0.62177 0.75283 0.0
C722 C 0.47399 0.46855 0.76842 0.0
C723 C 0.4573 0.45444 0.80287 0.0
C724 C 0.47689 0.51072 0.76622 0.0
C725 C 0.46402 0.53952 0.79874 0.0
C726 C 0.45288 0.5261 0.83526 0.0
C727 C 0.44926 0.4838 0.83722 0.0
H728 H 0.12388 0.44788 0.4181 0.0
H729 H 0.16122 0.49419 0.55052 0.0
H730 H 0.20864 0.44531 0.41082 0.0
H731 H 0.24622 0.49246 0.54311 0.0
H732 H 0.38654 0.44005 0.52161 0.0
H733 H 0.30114 0.4408 0.52749 0.0
H734 H 0.28303 0.49183 0.41514 0.0
H735 H 0.36821 0.49031 0.4089 0.0
C736 C 0.15028 0.45781 0.4456 0.0
C737 C 0.13604 0.4712 0.4849 0.0
C738 C 0.1988 0.45649 0.44139 0.0
C739 C 0.23404 0.46856 0.47641 0.0
C740 C 0.21979 0.48236 0.51566 0.0
C741 C 0.17121 0.48366 0.51987 0.0
C742 C 0.36425 0.45141 0.49821 0.0
C743 C 0.38394 0.46542 0.46499 0.0
C744 C 0.31546 0.45204 0.50168 0.0
C745 C 0.28551 0.46677 0.47202 0.0
C746 C 0.30513 0.48006 0.43834 0.0
C747 C 0.35391 0.47935 0.43485 0.0
H748 H 0.77119 0.75959 0.92562 0.0
H749 H 0.85636 0.88076 0.9516 0.0
H750 H 0.78465 0.75619 0.99978 0.0
H751 H 0.87017 0.87704 0.02528 0.0
H752 H 0.93356 0.8299 0.14055 0.0
H753 H 0.91638 0.83088 0.0662 0.0
H754 H 0.76536 0.79489 0.07015 0.0
H755 H 0.78239 0.79419 0.1446 0.0
C756 C 0.79228 0.78564 0.94719 0.0
C757 C 0.81296 0.82029 0.9328 0.0
C758 C 0.80003 0.78365 0.98954 0.0
C759 C 0.82897 0.8161 0.01809 0.0
C760 C 0.8484 0.85127 0.00383 0.0
C761 C 0.84017 0.85349 0.9617 0.0
C762 C 0.89678 0.82179 0.12545 0.0
C763 C 0.8593 0.81203 0.14834 0.0
C764 C 0.88692 0.82266 0.08303 0.0
C765 C 0.8395 0.81327 0.06258 0.0
C766 C 0.80224 0.80213 0.08514 0.0
C767 C 0.812 0.80181 0.12771 0.0
H768 H 0.51896 0.54613 0.3463 0.0
H769 H 0.60705 0.44646 0.32917 0.0
H770 H 0.52106 0.55319 0.27424 0.0
H771 H 0.6099 0.454 0.25662 0.0
H772 H 0.53939 0.44384 0.11838 0.0
H773 H 0.55299 0.4397 0.19218 0.0
H774 H 0.57164 0.57403 0.2251 0.0
H775 H 0.55684 0.57805 0.15161 0.0
C776 C 0.53959 0.52623 0.3273 0.0
C777 C 0.56282 0.49573 0.3434 0.0
C778 C 0.541 0.53041 0.28595 0.0
C779 C 0.56564 0.50415 0.25956 0.0
C780 C 0.59023 0.47445 0.27603 0.0
C781 C 0.58896 0.47037 0.31764 0.0
C782 C 0.54689 0.47244 0.14142 0.0
C783 C 0.54646 0.51124 0.12928 0.0
C784 C 0.555 0.4701 0.18369 0.0
C785 C 0.56299 0.50655 0.2146 0.0
C786 C 0.5647 0.54535 0.20216 0.0
C787 C 0.55638 0.54766 0.16003 0.0
H788 H 0.82584 0.20842 0.40862 0.0
H789 H 0.85725 0.34177 0.42134 0.0
H790 H 0.82233 0.21627 0.48274 0.0
H791 H 0.8532 0.3499 0.49664 0.0
H792 H 0.89644 0.33409 0.63521 0.0
H793 H 0.89544 0.33516 0.56097 0.0
H794 H 0.77131 0.24086 0.53283 0.0
H795 H 0.77273 0.23938 0.60665 0.0
C796 C 0.83154 0.23957 0.42732 0.0
C797 C 0.8415 0.27452 0.40919 0.0
C798 C 0.8293 0.2441 0.46988 0.0
C799 C 0.83672 0.28374 0.49558 0.0
C800 C 0.84723 0.31892 0.47762 0.0
C801 C 0.84946 0.31433 0.43463 0.0
C802 C 0.86879 0.3138 0.61308 0.0
C803 C 0.83514 0.2861 0.62658 0.0
C804 C 0.86813 0.31455 0.5706 0.0
C805 C 0.834 0.28743 0.54092 0.0
C806 C 0.79888 0.26137 0.55481 0.0
C807 C 0.79952 0.26064 0.59713 0.0
H808 H 0.96451 0.53437 0.6363 0.0
H809 H 0.88224 0.41482 0.58286 0.0
H810 H 0.9405 0.52855 0.70447 0.0
H811 H 0.85953 0.40832 0.65174 0.0
H812 H 0.93079 0.4051 0.79599 0.0
H813 H 0.92248 0.40474 0.72096 0.0
H814 H 0.85972 0.51939 0.7415 0.0
H815 H 0.8668 0.51921 0.81622 0.0
C816 C 0.94051 0.50726 0.63907 0.0
C817 C 0.92506 0.47515 0.60449 0.0
C818 C 0.92666 0.50396 0.67794 0.0
C819 C 0.89811 0.46802 0.68314 0.0
C820 C 0.88137 0.43637 0.64832 0.0
C821 C 0.89417 0.44021 0.60906 0.0
C822 C 0.91368 0.42936 0.78421 0.0
C823 C 0.89999 0.4624 0.81183 0.0
C824 C 0.90879 0.4291 0.74137 0.0
C825 C 0.89095 0.46232 0.72574 0.0
C826 C 0.8737 0.49355 0.75295 0.0
C827 C 0.87766 0.49333 0.79563 0.0
H828 H 0.82331 0.95953 0.39463 0.0
H829 H 0.82917 0.93072 0.51816 0.0
H830 H 0.73563 0.95185 0.38847 0.0
H831 H 0.74156 0.92269 0.51186 0.0
H832 H 0.57495 0.92164 0.38367 0.0
H833 H 0.65844 0.90739 0.38681 0.0
H834 H 0.6884 0.9775 0.51276 0.0
H835 H 0.60507 0.99113 0.51019 0.0
C836 C 0.8058 0.95052 0.42001 0.0
C837 C 0.83299 0.9465 0.45718 0.0
C838 C 0.75559 0.94596 0.41645 0.0
C839 C 0.73184 0.93749 0.45007 0.0
C840 C 0.759 0.93006 0.48581 0.0
C841 C 0.80912 0.93442 0.4893 0.0
C842 C 0.59931 0.93364 0.41216 0.0
C843 C 0.58372 0.95789 0.44659 0.0
C844 C 0.64703 0.92553 0.41381 0.0
C845 C 0.67994 0.9414 0.4498 0.0
C846 C 0.66376 0.96433 0.48472 0.0
C847 C 0.61613 0.97245 0.48314 0.0
loop_
_geom_bond_atom_site_label_1
_geom_bond_atom_site_label_2
_geom_bond_distance
_geom_bond_site_symmetry_2
_ccdc_geom_bond_type
In0 O1 2.294 . S
In0 O2 2.326 . S
In0 O6 2.266 . S
In0 O7 2.326 . S
In0 O8 2.266 . S
In0 O9 2.326 . S
In0 O11 2.294 . S
In0 O12 2.326 . S
O1 In0 2.294 . S
O1 C10 1.240 . S
O2 In0 2.326 . S
O2 C10 1.252 . S
C3 O6 1.252 . S
C3 O7 1.260 . S
C4 O11 1.240 . S
C4 O12 1.252 . S
C5 O8 1.252 . S
C5 O9 1.260 . S
O6 In0 2.266 . S
O6 C3 1.252 . S
O7 In0 2.326 . S
O7 C3 1.260 . S
O8 In0 2.266 . S
O8 C5 1.252 . S
O9 In0 2.326 . S
O9 C5 1.260 . S
C10 O1 1.240 . S
C10 O2 1.252 . S
O11 In0 2.294 . S
O11 C4 1.240 . S
O12 In0 2.326 . S
O12 C4 1.252 . S
In13 O14 2.294 1_655 S
In13 O15 2.329 1_545 S
In13 O19 2.263 1_655 S
In13 O20 2.323 . S
In13 O21 2.267 1_545 S
In13 O22 2.324 . S
In13 O24 2.296 1_645 S
In13 O25 2.327 1_645 S
O14 In13 2.294 1_455 S
O14 C23 1.240 1_545 S
O15 In13 2.329 1_565 S
O15 C23 1.252 1_655 S
C16 O19 1.252 1_655 S
C16 O20 1.260 . S
C17 O24 1.240 . S
C17 O25 1.252 . S
C18 O21 1.245 1_545 S
C18 O22 1.266 . S
O19 In13 2.263 1_455 S
O19 C16 1.252 1_455 S
O20 In13 2.323 . S
O20 C16 1.260 . S
O21 In13 2.267 1_565 S
O21 C18 1.245 1_565 S
O22 In13 2.324 . S
O22 C18 1.266 . S
C23 O14 1.240 1_565 S
C23 O15 1.252 1_455 S
O24 In13 2.296 1_465 S
O24 C17 1.240 . S
O25 In13 2.327 1_465 S
O25 C17 1.252 . S
In26 O27 2.294 . S
In26 O28 2.326 . S
In26 O32 2.266 . S
In26 O33 2.326 . S
In26 O34 2.266 . S
In26 O35 2.326 . S
In26 O37 2.294 . S
In26 O38 2.326 . S
O27 In26 2.294 . S
O27 C36 1.240 . S
O28 In26 2.326 . S
O28 C36 1.252 . S
C29 O32 1.252 . S
C29 O33 1.260 . S
C30 O37 1.240 . S
C30 O38 1.252 . S
C31 O34 1.252 . S
C31 O35 1.260 . S
O32 In26 2.266 . S
O32 C29 1.252 . S
O33 In26 2.326 . S
O33 C29 1.260 . S
O34 In26 2.266 . S
O34 C31 1.252 . S
O35 In26 2.326 . S
O35 C31 1.260 . S
C36 O27 1.240 . S
C36 O28 1.252 . S
O37 In26 2.294 . S
O37 C30 1.240 . S
O38 In26 2.326 . S
O38 C30 1.252 . S
In39 O40 2.294 1_554 S
In39 O41 2.323 1_564 S
In39 O45 2.266 1_554 S
In39 O46 2.326 . S
In39 O47 2.266 . S
In39 O48 2.326 . S
In39 O50 2.294 . S
In39 O51 2.326 1_554 S
O40 In39 2.294 1_556 S
O40 C49 1.240 1_565 S
O41 In39 2.323 1_546 S
O41 C49 1.258 . S
C42 O45 1.252 1_554 S
C42 O46 1.260 . S
C43 O50 1.240 1_556 S
C43 O51 1.252 . S
C44 O47 1.252 . S
C44 O48 1.260 . S
O45 In39 2.266 1_556 S
O45 C42 1.252 1_556 S
O46 In39 2.326 . S
O46 C42 1.260 . S
O47 In39 2.266 . S
O47 C44 1.252 . S
O48 In39 2.326 . S
O48 C44 1.260 . S
C49 O40 1.240 1_545 S
C49 O41 1.258 . S
O50 In39 2.294 . S
O50 C43 1.240 1_554 S
O51 In39 2.326 1_556 S
O51 C43 1.252 . S
In52 O53 2.294 . S
In52 O54 2.326 . S
In52 O58 2.266 . S
In52 O59 2.326 . S
In52 O60 2.266 . S
In52 O61 2.326 . S
In52 O63 2.294 . S
In52 O64 2.326 . S
O53 In52 2.294 . S
O53 C62 1.240 . S
O54 In52 2.326 . S
O54 C62 1.252 . S
C55 O58 1.252 . S
C55 O59 1.260 . S
C56 O63 1.240 . S
C56 O64 1.252 . S
C57 O60 1.252 . S
C57 O61 1.260 . S
O58 In52 2.266 . S
O58 C55 1.252 . S
O59 In52 2.326 . S
O59 C55 1.260 . S
O60 In52 2.266 . S
O60 C57 1.252 . S
O61 In52 2.326 . S
O61 C57 1.260 . S
C62 O53 1.240 . S
C62 O54 1.252 . S
O63 In52 2.294 . S
O63 C56 1.240 . S
O64 In52 2.326 . S
O64 C56 1.252 . S
In65 O66 2.298 . S
In65 O67 2.326 1_545 S
In65 O71 2.266 . S
In65 O72 2.326 . S
In65 O73 2.266 1_545 S
In65 O74 2.326 . S
In65 O76 2.294 1_545 S
In65 O77 2.326 . S
O66 In65 2.298 . S
O66 C75 1.228 1_545 S
O67 In65 2.326 1_565 S
O67 C75 1.252 . S
C68 O71 1.252 . S
C68 O72 1.260 . S
C69 O76 1.240 1_545 S
C69 O77 1.252 . S
C70 O73 1.257 . S
C70 O74 1.255 1_565 S
O71 In65 2.266 . S
O71 C68 1.252 . S
O72 In65 2.326 . S
O72 C68 1.260 . S
O73 In65 2.266 1_565 S
O73 C70 1.257 . S
O74 In65 2.326 . S
O74 C70 1.255 1_545 S
C75 O66 1.228 1_565 S
C75 O67 1.252 . S
O76 In65 2.294 1_565 S
O76 C69 1.240 1_565 S
O77 In65 2.326 . S
O77 C69 1.252 . S
In78 O79 2.294 . S
In78 O80 2.326 . S
In78 O84 2.266 . S
In78 O85 2.326 . S
In78 O86 2.266 . S
In78 O87 2.326 . S
In78 O89 2.294 . S
In78 O90 2.326 . S
O79 In78 2.294 . S
O79 C88 1.240 . S
O80 In78 2.326 . S
O80 C88 1.252 . S
C81 O84 1.252 . S
C81 O85 1.260 . S
C82 O89 1.240 . S
C82 O90 1.252 . S
C83 O86 1.252 . S
C83 O87 1.260 . S
O84 In78 2.266 . S
O84 C81 1.252 . S
O85 In78 2.326 . S
O85 C81 1.260 . S
O86 In78 2.266 . S
O86 C83 1.252 . S
O87 In78 2.326 . S
O87 C83 1.260 . S
C88 O79 1.240 . S
C88 O80 1.252 . S
O89 In78 2.294 . S
O89 C82 1.240 . S
O90 In78 2.326 . S
O90 C82 1.252 . S
In91 O92 2.295 . S
In91 O93 2.327 . S
In91 O97 2.266 . S
In91 O98 2.325 1_655 S
In91 O99 2.266 1_655 S
In91 O100 2.326 . S
In91 O102 2.296 1_655 S
In91 O103 2.326 1_665 S
O92 In91 2.295 . S
O92 C101 1.240 . S
O93 In91 2.327 . S
O93 C101 1.252 . S
C94 O97 1.252 1_455 S
C94 O98 1.260 . S
C95 O102 1.230 1_545 S
C95 O103 1.252 . S
C96 O99 1.252 . S
C96 O100 1.260 1_455 S
O97 In91 2.266 . S
O97 C94 1.252 1_655 S
O98 In91 2.325 1_455 S
O98 C94 1.260 . S
O99 In91 2.266 1_455 S
O99 C96 1.252 . S
O100 In91 2.326 . S
O100 C96 1.260 1_655 S
C101 O92 1.240 . S
C101 O93 1.252 . S
O102 In91 2.296 1_455 S
O102 C95 1.230 1_565 S
O103 In91 2.326 1_445 S
O103 C95 1.252 . S
In104 O105 2.294 . S
In104 O106 2.326 . S
In104 O110 2.266 . S
In104 O111 2.326 . S
In104 O112 2.266 . S
In104 O113 2.326 . S
In104 O115 2.294 . S
In104 O116 2.326 . S
O105 In104 2.294 . S
O105 C114 1.240 . S
O106 In104 2.326 . S
O106 C114 1.252 . S
C107 O110 1.252 . S
C107 O111 1.260 . S
C108 O115 1.240 . S
C108 O116 1.252 . S
C109 O112 1.252 . S
C109 O113 1.260 . S
O110 In104 2.266 . S
O110 C107 1.252 . S
O111 In104 2.326 . S
O111 C107 1.260 . S
O112 In104 2.266 . S
O112 C109 1.252 . S
O113 In104 2.326 . S
O113 C109 1.260 . S
C114 O105 1.240 . S
C114 O106 1.252 . S
O115 In104 2.294 . S
O115 C108 1.240 . S
O116 In104 2.326 . S
O116 C108 1.252 . S
In117 O118 2.296 . S
In117 O119 2.327 1_556 S
In117 O123 2.266 . S
In117 O124 2.324 1_455 S
In117 O125 2.265 1_455 S
In117 O126 2.326 . S
In117 O128 2.293 1_455 S
In117 O129 2.326 1_455 S
O118 In117 2.296 . S
O118 C127 1.240 . S
O119 In117 2.327 1_554 S
O119 C127 1.252 1_554 S
C120 O123 1.252 1_655 S
C120 O124 1.260 . S
C121 O128 1.240 . S
C121 O129 1.252 . S
C122 O125 1.252 . S
C122 O126 1.260 1_655 S
O123 In117 2.266 . S
O123 C120 1.252 1_455 S
O124 In117 2.324 1_655 S
O124 C120 1.260 . S
O125 In117 2.265 1_655 S
O125 C122 1.252 . S
O126 In117 2.326 . S
O126 C122 1.260 1_455 S
C127 O118 1.240 . S
C127 O119 1.252 1_556 S
O128 In117 2.293 1_655 S
O128 C121 1.240 . S
O129 In117 2.326 1_655 S
O129 C121 1.252 . S
In130 O131 2.294 . S
In130 O132 2.326 . S
In130 O136 2.266 . S
In130 O137 2.326 . S
In130 O138 2.266 . S
In130 O139 2.326 . S
In130 O141 2.294 . S
In130 O142 2.326 . S
O131 In130 2.294 . S
O131 C140 1.240 . S
O132 In130 2.326 . S
O132 C140 1.252 . S
C133 O136 1.252 . S
C133 O137 1.260 . S
C134 O141 1.240 . S
C134 O142 1.252 . S
C135 O138 1.252 . S
C135 O139 1.260 . S
O136 In130 2.266 . S
O136 C133 1.252 . S
O137 In130 2.326 . S
O137 C133 1.260 . S
O138 In130 2.266 . S
O138 C135 1.252 . S
O139 In130 2.326 . S
O139 C135 1.260 . S
C140 O131 1.240 . S
C140 O132 1.252 . S
O141 In130 2.294 . S
O141 C134 1.240 . S
O142 In130 2.326 . S
O142 C134 1.252 . S
In143 O144 2.294 . S
In143 O145 2.326 . S
In143 O149 2.266 . S
In143 O150 2.326 1_455 S
In143 O151 2.266 1_455 S
In143 O152 2.326 . S
In143 O154 2.294 1_455 S
In143 O155 2.326 . S
O144 In143 2.294 . S
O144 C153 1.240 . S
O145 In143 2.326 . S
O145 C153 1.252 . S
C146 O149 1.252 1_655 S
C146 O150 1.260 . S
C147 O154 1.240 . S
C147 O155 1.252 1_655 S
C148 O151 1.252 . S
C148 O152 1.260 1_655 S
O149 In143 2.266 . S
O149 C146 1.252 1_455 S
O150 In143 2.326 1_655 S
O150 C146 1.260 . S
O151 In143 2.266 1_655 S
O151 C148 1.252 . S
O152 In143 2.326 . S
O152 C148 1.260 1_455 S
C153 O144 1.240 . S
C153 O145 1.252 . S
O154 In143 2.294 1_655 S
O154 C147 1.240 . S
O155 In143 2.326 . S
O155 C147 1.252 1_455 S
In156 O157 2.294 1_554 S
In156 O158 2.326 . S
In156 O162 2.266 1_554 S
In156 O163 2.326 . S
In156 O164 2.266 . S
In156 O165 2.326 1_554 S
In156 O167 2.294 . S
In156 O168 2.326 . S
O157 In156 2.294 1_556 S
O157 C166 1.240 . S
O158 In156 2.326 . S
O158 C166 1.252 1_554 S
C159 O162 1.252 1_554 S
C159 O163 1.260 . S
C160 O167 1.240 . S
C160 O168 1.252 . S
C161 O164 1.252 . S
C161 O165 1.260 1_554 S
O162 In156 2.266 1_556 S
O162 C159 1.252 1_556 S
O163 In156 2.326 . S
O163 C159 1.260 . S
O164 In156 2.266 . S
O164 C161 1.252 . S
O165 In156 2.326 1_556 S
O165 C161 1.260 1_556 S
C166 O157 1.240 . S
C166 O158 1.252 1_556 S
O167 In156 2.294 . S
O167 C160 1.240 . S
O168 In156 2.326 . S
O168 C160 1.252 . S
In169 O170 2.294 . S
In169 O171 2.326 . S
In169 O175 2.266 . S
In169 O176 2.326 . S
In169 O177 2.266 . S
In169 O178 2.326 . S
In169 O180 2.294 . S
In169 O181 2.326 . S
O170 In169 2.294 . S
O170 C179 1.240 . S
O171 In169 2.326 . S
O171 C179 1.252 . S
C172 O175 1.252 . S
C172 O176 1.260 . S
C173 O180 1.240 . S
C173 O181 1.252 . S
C174 O177 1.252 . S
C174 O178 1.260 . S
O175 In169 2.266 . S
O175 C172 1.252 . S
O176 In169 2.326 . S
O176 C172 1.260 . S
O177 In169 2.266 . S
O177 C174 1.252 . S
O178 In169 2.326 . S
O178 C174 1.260 . S
C179 O170 1.240 . S
C179 O171 1.252 . S
O180 In169 2.294 . S
O180 C173 1.240 . S
O181 In169 2.326 . S
O181 C173 1.252 . S
In182 O183 2.294 . S
In182 O184 2.326 . S
In182 O188 2.266 . S
In182 O189 2.326 . S
In182 O190 2.266 . S
In182 O191 2.326 . S
In182 O193 2.294 . S
In182 O194 2.326 . S
O183 In182 2.294 . S
O183 C192 1.240 . S
O184 In182 2.326 . S
O184 C192 1.252 . S
C185 O188 1.252 . S
C185 O189 1.260 . S
C186 O193 1.240 . S
C186 O194 1.252 . S
C187 O190 1.252 . S
C187 O191 1.260 . S
O188 In182 2.266 . S
O188 C185 1.252 . S
O189 In182 2.326 . S
O189 C185 1.260 . S
O190 In182 2.266 . S
O190 C187 1.252 . S
O191 In182 2.326 . S
O191 C187 1.260 . S
C192 O183 1.240 . S
C192 O184 1.252 . S
O193 In182 2.294 . S
O193 C186 1.240 . S
O194 In182 2.326 . S
O194 C186 1.252 . S
In195 O196 2.294 . S
In195 O197 2.326 . S
In195 O201 2.266 . S
In195 O202 2.326 . S
In195 O203 2.266 . S
In195 O204 2.326 . S
In195 O206 2.294 . S
In195 O207 2.326 . S
O196 In195 2.294 . S
O196 C205 1.240 . S
O197 In195 2.326 . S
O197 C205 1.252 . S
C198 O201 1.252 . S
C198 O202 1.260 . S
C199 O206 1.240 . S
C199 O207 1.252 . S
C200 O203 1.252 . S
C200 O204 1.260 . S
O201 In195 2.266 . S
O201 C198 1.252 . S
O202 In195 2.326 . S
O202 C198 1.260 . S
O203 In195 2.266 . S
O203 C200 1.252 . S
O204 In195 2.326 . S
O204 C200 1.260 . S
C205 O196 1.240 . S
C205 O197 1.252 . S
O206 In195 2.294 . S
O206 C199 1.240 . S
O207 In195 2.326 . S
O207 C199 1.252 . S
H208 C216 0.950 . S
H209 C221 0.950 . S
H210 C218 0.950 . S
H211 C220 0.950 . S
H212 C222 0.950 . S
H213 C224 0.950 . S
H214 C226 0.950 . S
H215 C227 0.950 1_556 S
C216 H208 0.950 . S
C216 C217 1.386 . S
C216 C218 1.391 . S
C217 C216 1.386 . S
C217 C221 1.393 . S
C218 H210 0.950 . S
C218 C216 1.391 . S
C218 C219 1.400 . S
C219 C218 1.400 . S
C219 C220 1.398 . S
C219 C225 1.491 . S
C220 H211 0.950 . S
C220 C219 1.398 . S
C220 C221 1.391 . S
C221 H209 0.950 . S
C221 C217 1.393 . S
C221 C220 1.391 . S
C222 H212 0.950 . S
C222 C223 1.386 . S
C222 C224 1.391 . S
C223 C222 1.386 . S
C223 C227 1.393 . S
C224 H213 0.950 . S
C224 C222 1.391 . S
C224 C225 1.400 . S
C225 C219 1.491 . S
C225 C224 1.400 . S
C225 C226 1.398 . S
C226 H214 0.950 . S
C226 C225 1.398 . S
C226 C227 1.391 . S
C227 H215 0.950 1_554 S
C227 C223 1.393 . S
C227 C226 1.391 . S
H228 C236 0.950 . S
H229 C241 0.950 . S
H230 C238 0.950 . S
H231 C240 0.950 . S
H232 C242 0.950 . S
H233 C244 0.950 . S
H234 C246 0.950 . S
H235 C247 0.950 . S
C236 H228 0.950 . S
C236 C237 1.386 . S
C236 C238 1.391 . S
C237 C236 1.386 . S
C237 C241 1.393 . S
C238 H230 0.950 . S
C238 C236 1.391 . S
C238 C239 1.400 . S
C239 C238 1.400 . S
C239 C240 1.398 . S
C239 C245 1.491 . S
C240 H231 0.950 . S
C240 C239 1.398 . S
C240 C241 1.391 . S
C241 H229 0.950 . S
C241 C237 1.393 . S
C241 C240 1.391 . S
C242 H232 0.950 . S
C242 C243 1.386 . S
C242 C244 1.391 . S
C243 C242 1.386 . S
C243 C247 1.393 . S
C244 H233 0.950 . S
C244 C242 1.391 . S
C244 C245 1.400 . S
C245 C239 1.491 . S
C245 C244 1.400 . S
C245 C246 1.398 . S
C246 H234 0.950 . S
C246 C245 1.398 . S
C246 C247 1.391 . S
C247 H235 0.950 . S
C247 C243 1.393 . S
C247 C246 1.391 . S
H248 C256 0.950 . S
H249 C261 0.950 . S
H250 C258 0.950 . S
H251 C260 0.950 . S
H252 C262 0.950 . S
H253 C264 0.950 . S
H254 C266 0.950 . S
H255 C267 0.950 . S
C256 H248 0.950 . S
C256 C257 1.386 . S
C256 C258 1.391 . S
C257 C256 1.386 . S
C257 C261 1.393 . S
C258 H250 0.950 . S
C258 C256 1.391 . S
C258 C259 1.400 . S
C259 C258 1.400 . S
C259 C260 1.398 . S
C259 C265 1.491 . S
C260 H251 0.950 . S
C260 C259 1.398 . S
C260 C261 1.391 . S
C261 H249 0.950 . S
C261 C257 1.393 . S
C261 C260 1.391 . S
C262 H252 0.950 . S
C262 C263 1.386 . S
C262 C264 1.391 . S
C263 C262 1.386 . S
C263 C267 1.393 . S
C264 H253 0.950 . S
C264 C262 1.391 . S
C264 C265 1.400 . S
C265 C259 1.491 . S
C265 C264 1.400 . S
C265 C266 1.398 . S
C266 H254 0.950 . S
C266 C265 1.398 . S
C266 C267 1.391 . S
C267 H255 0.950 . S
C267 C263 1.393 . S
C267 C266 1.391 . S
H268 C276 0.950 . S
H269 C281 0.950 . S
H270 C278 0.950 . S
H271 C280 0.950 . S
H272 C282 0.950 . S
H273 C284 0.950 . S
H274 C286 0.950 . S
H275 C287 0.950 . S
C276 H268 0.950 . S
C276 C277 1.386 . S
C276 C278 1.391 . S
C277 C276 1.386 . S
C277 C281 1.393 . S
C278 H270 0.950 . S
C278 C276 1.391 . S
C278 C279 1.400 . S
C279 C278 1.400 . S
C279 C280 1.398 . S
C279 C285 1.491 . S
C280 H271 0.950 . S
C280 C279 1.398 . S
C280 C281 1.391 . S
C281 H269 0.950 . S
C281 C277 1.393 . S
C281 C280 1.391 . S
C282 H272 0.950 . S
C282 C283 1.386 . S
C282 C284 1.391 . S
C283 C282 1.386 . S
C283 C287 1.393 . S
C284 H273 0.950 . S
C284 C282 1.391 . S
C284 C285 1.400 . S
C285 C279 1.491 . S
C285 C284 1.400 . S
C285 C286 1.398 . S
C286 H274 0.950 . S
C286 C285 1.398 . S
C286 C287 1.391 . S
C287 H275 0.950 . S
C287 C283 1.393 . S
C287 C286 1.391 . S
H288 C296 0.950 . S
H289 C301 0.950 . S
H290 C298 0.950 . S
H291 C300 0.950 . S
H292 C302 0.950 . S
H293 C304 0.950 . S
H294 C306 0.950 . S
H295 C307 0.950 . S
C296 H288 0.950 . S
C296 C297 1.386 . S
C296 C298 1.391 . S
C297 C296 1.386 . S
C297 C301 1.393 . S
C298 H290 0.950 . S
C298 C296 1.391 . S
C298 C299 1.400 . S
C299 C298 1.400 . S
C299 C300 1.398 . S
C299 C305 1.491 . S
C300 H291 0.950 . S
C300 C299 1.398 . S
C300 C301 1.391 . S
C301 H289 0.950 . S
C301 C297 1.393 . S
C301 C300 1.391 . S
C302 H292 0.950 . S
C302 C303 1.386 . S
C302 C304 1.391 . S
C303 C302 1.386 . S
C303 C307 1.393 . S
C304 H293 0.950 . S
C304 C302 1.391 . S
C304 C305 1.400 . S
C305 C299 1.491 . S
C305 C304 1.400 . S
C305 C306 1.398 . S
C306 H294 0.950 . S
C306 C305 1.398 . S
C306 C307 1.391 . S
C307 H295 0.950 . S
C307 C303 1.393 . S
C307 C306 1.391 . S
H308 C316 0.950 1_556 S
H309 C321 0.950 . S
H310 C318 0.950 . S
H311 C320 0.950 . S
H312 C322 0.950 . S
H313 C324 0.950 . S
H314 C326 0.950 . S
H315 C327 0.950 . S
C316 H308 0.950 1_554 S
C316 C317 1.386 . S
C316 C318 1.391 . S
C317 C316 1.386 . S
C317 C321 1.393 . S
C318 H310 0.950 . S
C318 C316 1.391 . S
C318 C319 1.400 . S
C319 C318 1.400 . S
C319 C320 1.398 . S
C319 C325 1.491 . S
C320 H311 0.950 . S
C320 C319 1.398 . S
C320 C321 1.391 . S
C321 H309 0.950 . S
C321 C317 1.393 . S
C321 C320 1.391 . S
C322 H312 0.950 . S
C322 C323 1.386 . S
C322 C324 1.391 . S
C323 C322 1.386 . S
C323 C327 1.393 . S
C324 H313 0.950 . S
C324 C322 1.391 . S
C324 C325 1.400 . S
C325 C319 1.491 . S
C325 C324 1.400 . S
C325 C326 1.398 . S
C326 H314 0.950 . S
C326 C325 1.398 . S
C326 C327 1.391 . S
C327 H315 0.950 . S
C327 C323 1.393 . S
C327 C326 1.391 . S
H328 C336 0.950 . S
H329 C341 0.950 . S
H330 C338 0.950 . S
H331 C340 0.950 . S
H332 C342 0.950 . S
H333 C344 0.950 . S
H334 C346 0.950 . S
H335 C347 0.950 . S
C336 H328 0.950 . S
C336 C337 1.386 . S
C336 C338 1.391 . S
C337 C336 1.386 . S
C337 C341 1.393 . S
C338 H330 0.950 . S
C338 C336 1.391 . S
C338 C339 1.400 . S
C339 C338 1.400 . S
C339 C340 1.398 . S
C339 C345 1.491 . S
C340 H331 0.950 . S
C340 C339 1.398 . S
C340 C341 1.391 . S
C341 H329 0.950 . S
C341 C337 1.393 . S
C341 C340 1.391 . S
C342 H332 0.950 . S
C342 C343 1.386 . S
C342 C344 1.391 . S
C343 C342 1.386 . S
C343 C347 1.393 . S
C344 H333 0.950 . S
C344 C342 1.391 . S
C344 C345 1.400 . S
C345 C339 1.491 . S
C345 C344 1.400 . S
C345 C346 1.398 . S
C346 H334 0.950 . S
C346 C345 1.398 . S
C346 C347 1.391 . S
C347 H335 0.950 . S
C347 C343 1.393 . S
C347 C346 1.391 . S
H348 C356 0.950 . S
H349 C361 0.950 . S
H350 C358 0.950 . S
H351 C360 0.950 . S
H352 C362 0.950 . S
H353 C364 0.950 . S
H354 C366 0.950 . S
H355 C367 0.950 . S
C356 H348 0.950 . S
C356 C357 1.386 . S
C356 C358 1.391 . S
C357 C356 1.386 . S
C357 C361 1.393 . S
C358 H350 0.950 . S
C358 C356 1.391 . S
C358 C359 1.400 . S
C359 C358 1.400 . S
C359 C360 1.398 . S
C359 C365 1.491 . S
C360 H351 0.950 . S
C360 C359 1.398 . S
C360 C361 1.391 . S
C361 H349 0.950 . S
C361 C357 1.393 . S
C361 C360 1.391 . S
C362 H352 0.950 . S
C362 C363 1.386 . S
C362 C364 1.391 . S
C363 C362 1.386 . S
C363 C367 1.393 . S
C364 H353 0.950 . S
C364 C362 1.391 . S
C364 C365 1.400 . S
C365 C359 1.491 . S
C365 C364 1.400 . S
C365 C366 1.398 . S
C366 H354 0.950 . S
C366 C365 1.398 . S
C366 C367 1.391 . S
C367 H355 0.950 . S
C367 C363 1.393 . S
C367 C366 1.391 . S
H368 C376 0.950 . S
H369 C381 0.950 . S
H370 C378 0.950 . S
H371 C380 0.950 . S
H372 C382 0.950 . S
H373 C384 0.950 . S
H374 C386 0.950 . S
H375 C387 0.950 . S
C376 H368 0.950 . S
C376 C377 1.386 . S
C376 C378 1.391 . S
C377 C376 1.386 . S
C377 C381 1.393 . S
C378 H370 0.950 . S
C378 C376 1.391 . S
C378 C379 1.400 . S
C379 C378 1.400 . S
C379 C380 1.398 . S
C379 C385 1.491 . S
C380 H371 0.950 . S
C380 C379 1.398 . S
C380 C381 1.391 . S
C381 H369 0.950 . S
C381 C377 1.393 . S
C381 C380 1.391 . S
C382 H372 0.950 . S
C382 C383 1.386 . S
C382 C384 1.391 . S
C383 C382 1.386 . S
C383 C387 1.393 . S
C384 H373 0.950 . S
C384 C382 1.391 . S
C384 C385 1.400 . S
C385 C379 1.491 . S
C385 C384 1.400 . S
C385 C386 1.398 . S
C386 H374 0.950 . S
C386 C385 1.398 . S
C386 C387 1.391 . S
C387 H375 0.950 . S
C387 C383 1.393 . S
C387 C386 1.391 . S
H388 C396 0.950 1_655 S
H389 C401 0.950 . S
H390 C398 0.950 1_655 S
H391 C400 0.950 . S
H392 C402 0.950 1_545 S
H393 C404 0.950 1_545 S
H394 C406 0.950 . S
H395 C407 0.950 . S
C396 H388 0.950 1_455 S
C396 C397 1.386 . S
C396 C398 1.391 . S
C397 C396 1.386 . S
C397 C401 1.393 1_565 S
C398 H390 0.950 1_455 S
C398 C396 1.391 . S
C398 C399 1.400 . S
C399 C398 1.400 . S
C399 C400 1.398 1_565 S
C399 C405 1.491 . S
C400 H391 0.950 . S
C400 C399 1.398 1_545 S
C400 C401 1.391 . S
C401 H389 0.950 . S
C401 C397 1.393 1_545 S
C401 C400 1.391 . S
C402 H392 0.950 1_565 S
C402 C403 1.386 . S
C402 C404 1.391 . S
C403 C402 1.386 . S
C403 C407 1.393 1_455 S
C404 H393 0.950 1_565 S
C404 C402 1.391 . S
C404 C405 1.400 . S
C405 C399 1.491 . S
C405 C404 1.400 . S
C405 C406 1.398 1_455 S
C406 H394 0.950 . S
C406 C405 1.398 1_655 S
C406 C407 1.391 . S
C407 H395 0.950 . S
C407 C403 1.393 1_655 S
C407 C406 1.391 . S
H408 C416 0.950 . S
H409 C421 0.950 . S
H410 C418 0.950 . S
H411 C420 0.950 1_554 S
H412 C422 0.950 . S
H413 C424 0.950 . S
H414 C426 0.950 . S
H415 C427 0.950 . S
C416 H408 0.950 . S
C416 C417 1.386 . S
C416 C418 1.391 . S
C417 C416 1.386 . S
C417 C421 1.393 . S
C418 H410 0.950 . S
C418 C416 1.391 . S
C418 C419 1.400 1_556 S
C419 C418 1.400 1_554 S
C419 C420 1.398 1_554 S
C419 C425 1.491 . S
C420 H411 0.950 1_556 S
C420 C419 1.398 1_556 S
C420 C421 1.391 . S
C421 H409 0.950 . S
C421 C417 1.393 . S
C421 C420 1.391 . S
C422 H412 0.950 . S
C422 C423 1.386 . S
C422 C424 1.391 . S
C423 C422 1.386 . S
C423 C427 1.393 . S
C424 H413 0.950 . S
C424 C422 1.391 . S
C424 C425 1.400 . S
C425 C419 1.491 . S
C425 C424 1.400 . S
C425 C426 1.398 . S
C426 H414 0.950 . S
C426 C425 1.398 . S
C426 C427 1.391 . S
C427 H415 0.950 . S
C427 C423 1.393 . S
C427 C426 1.391 . S
H428 C436 0.950 . S
H429 C441 0.950 . S
H430 C438 0.950 . S
H431 C440 0.950 . S
H432 C442 0.950 . S
H433 C444 0.950 . S
H434 C446 0.950 . S
H435 C447 0.950 . S
C436 H428 0.950 . S
C436 C437 1.386 . S
C436 C438 1.391 . S
C437 C436 1.386 . S
C437 C441 1.393 1_565 S
C438 H430 0.950 . S
C438 C436 1.391 . S
C438 C439 1.400 . S
C439 C438 1.400 . S
C439 C440 1.398 1_565 S
C439 C445 1.491 . S
C440 H431 0.950 . S
C440 C439 1.398 1_545 S
C440 C441 1.391 . S
C441 H429 0.950 . S
C441 C437 1.393 1_545 S
C441 C440 1.391 . S
C442 H432 0.950 . S
C442 C443 1.386 1_545 S
C442 C444 1.391 . S
C443 C442 1.386 1_565 S
C443 C447 1.393 . S
C444 H433 0.950 . S
C444 C442 1.391 . S
C444 C445 1.400 1_545 S
C445 C439 1.491 . S
C445 C444 1.400 1_565 S
C445 C446 1.398 . S
C446 H434 0.950 . S
C446 C445 1.398 . S
C446 C447 1.391 . S
C447 H435 0.950 . S
C447 C443 1.393 . S
C447 C446 1.391 . S
H448 C456 0.950 . S
H449 C461 0.950 . S
H450 C458 0.950 . S
H451 C460 0.950 . S
H452 C462 0.950 . S
H453 C464 0.950 . S
H454 C466 0.950 . S
H455 C467 0.950 . S
C456 H448 0.950 . S
C456 C457 1.386 . S
C456 C458 1.391 . S
C457 C456 1.386 . S
C457 C461 1.393 . S
C458 H450 0.950 . S
C458 C456 1.391 . S
C458 C459 1.400 . S
C459 C458 1.400 . S
C459 C460 1.398 . S
C459 C465 1.491 . S
C460 H451 0.950 . S
C460 C459 1.398 . S
C460 C461 1.391 . S
C461 H449 0.950 . S
C461 C457 1.393 . S
C461 C460 1.391 . S
C462 H452 0.950 . S
C462 C463 1.386 . S
C462 C464 1.391 . S
C463 C462 1.386 . S
C463 C467 1.393 . S
C464 H453 0.950 . S
C464 C462 1.391 . S
C464 C465 1.400 . S
C465 C459 1.491 . S
C465 C464 1.400 . S
C465 C466 1.398 . S
C466 H454 0.950 . S
C466 C465 1.398 . S
C466 C467 1.391 . S
C467 H455 0.950 . S
C467 C463 1.393 . S
C467 C466 1.391 . S
H468 C476 0.950 . S
H469 C481 0.950 . S
H470 C478 0.950 . S
H471 C480 0.950 . S
H472 C482 0.950 . S
H473 C484 0.950 . S
H474 C486 0.950 . S
H475 C487 0.950 . S
C476 H468 0.950 . S
C476 C477 1.386 . S
C476 C478 1.391 . S
C477 C476 1.386 . S
C477 C481 1.393 1_655 S
C478 H470 0.950 . S
C478 C476 1.391 . S
C478 C479 1.400 . S
C479 C478 1.400 . S
C479 C480 1.398 1_655 S
C479 C485 1.491 . S
C480 H471 0.950 . S
C480 C479 1.398 1_455 S
C480 C481 1.391 . S
C481 H469 0.950 . S
C481 C477 1.393 1_455 S
C481 C480 1.391 . S
C482 H472 0.950 . S
C482 C483 1.388 . S
C482 C484 1.391 . S
C483 C482 1.388 . S
C483 C487 1.389 1_455 S
C484 H473 0.950 . S
C484 C482 1.391 . S
C484 C485 1.400 1_455 S
C485 C479 1.491 . S
C485 C484 1.400 1_655 S
C485 C486 1.398 . S
C486 H474 0.950 . S
C486 C485 1.398 . S
C486 C487 1.391 . S
C487 H475 0.950 . S
C487 C483 1.389 1_655 S
C487 C486 1.391 . S
H488 C496 0.950 . S
H489 C501 0.950 . S
H490 C498 0.950 . S
H491 C500 0.950 . S
H492 C502 0.950 . S
H493 C504 0.950 . S
H494 C506 0.950 . S
H495 C507 0.950 . S
C496 H488 0.950 . S
C496 C497 1.386 . S
C496 C498 1.391 1_655 S
C497 C496 1.386 . S
C497 C501 1.393 . S
C498 H490 0.950 . S
C498 C496 1.391 1_455 S
C498 C499 1.400 . S
C499 C498 1.400 . S
C499 C500 1.398 . S
C499 C505 1.491 . S
C500 H491 0.950 . S
C500 C499 1.398 . S
C500 C501 1.391 1_455 S
C501 H489 0.950 . S
C501 C497 1.393 . S
C501 C500 1.391 1_655 S
C502 H492 0.950 . S
C502 C503 1.386 . S
C502 C504 1.391 . S
C503 C502 1.386 . S
C503 C507 1.393 . S
C504 H493 0.950 . S
C504 C502 1.391 . S
C504 C505 1.400 . S
C505 C499 1.491 . S
C505 C504 1.400 . S
C505 C506 1.398 . S
C506 H494 0.950 . S
C506 C505 1.398 . S
C506 C507 1.391 . S
C507 H495 0.950 . S
C507 C503 1.393 . S
C507 C506 1.391 . S
H508 C516 0.950 . S
H509 C521 0.950 . S
H510 C518 0.950 . S
H511 C520 0.950 . S
H512 C522 0.950 . S
H513 C524 0.950 . S
H514 C526 0.950 . S
H515 C527 0.950 . S
C516 H508 0.950 . S
C516 C517 1.386 . S
C516 C518 1.391 . S
C517 C516 1.386 . S
C517 C521 1.393 1_554 S
C518 H510 0.950 . S
C518 C516 1.391 . S
C518 C519 1.400 . S
C519 C518 1.400 . S
C519 C520 1.398 1_554 S
C519 C525 1.491 . S
C520 H511 0.950 . S
C520 C519 1.398 1_556 S
C520 C521 1.391 . S
C521 H509 0.950 . S
C521 C517 1.393 1_556 S
C521 C520 1.391 . S
C522 H512 0.950 . S
C522 C523 1.386 1_556 S
C522 C524 1.391 . S
C523 C522 1.386 1_554 S
C523 C527 1.393 . S
C524 H513 0.950 . S
C524 C522 1.391 . S
C524 C525 1.400 1_556 S
C525 C519 1.491 . S
C525 C524 1.400 1_554 S
C525 C526 1.398 . S
C526 H514 0.950 . S
C526 C525 1.398 . S
C526 C527 1.391 . S
C527 H515 0.950 . S
C527 C523 1.393 . S
C527 C526 1.391 . S
H528 C536 0.950 . S
H529 C541 0.950 . S
H530 C538 0.950 . S
H531 C540 0.950 . S
H532 C542 0.950 . S
H533 C544 0.950 . S
H534 C546 0.950 . S
H535 C547 0.950 . S
C536 H528 0.950 . S
C536 C537 1.386 . S
C536 C538 1.391 . S
C537 C536 1.386 . S
C537 C541 1.393 . S
C538 H530 0.950 . S
C538 C536 1.391 . S
C538 C539 1.400 . S
C539 C538 1.400 . S
C539 C540 1.398 . S
C539 C545 1.491 . S
C540 H531 0.950 . S
C540 C539 1.398 . S
C540 C541 1.391 . S
C541 H529 0.950 . S
C541 C537 1.393 . S
C541 C540 1.391 . S
C542 H532 0.950 . S
C542 C543 1.386 . S
C542 C544 1.391 . S
C543 C542 1.386 . S
C543 C547 1.393 . S
C544 H533 0.950 . S
C544 C542 1.391 . S
C544 C545 1.400 . S
C545 C539 1.491 . S
C545 C544 1.400 . S
C545 C546 1.398 . S
C546 H534 0.950 . S
C546 C545 1.398 . S
C546 C547 1.391 . S
C547 H535 0.950 . S
C547 C543 1.393 . S
C547 C546 1.391 . S
H548 C556 0.950 . S
H549 C561 0.950 . S
H550 C558 0.950 . S
H551 C560 0.950 . S
H552 C562 0.950 . S
H553 C564 0.950 . S
H554 C566 0.950 . S
H555 C567 0.950 . S
C556 H548 0.950 . S
C556 C557 1.386 . S
C556 C558 1.391 . S
C557 C556 1.386 . S
C557 C561 1.393 . S
C558 H550 0.950 . S
C558 C556 1.391 . S
C558 C559 1.400 . S
C559 C558 1.400 . S
C559 C560 1.398 . S
C559 C565 1.491 . S
C560 H551 0.950 . S
C560 C559 1.398 . S
C560 C561 1.391 . S
C561 H549 0.950 . S
C561 C557 1.393 . S
C561 C560 1.391 . S
C562 H552 0.950 . S
C562 C563 1.386 . S
C562 C564 1.391 . S
C563 C562 1.386 . S
C563 C567 1.393 . S
C564 H553 0.950 . S
C564 C562 1.391 . S
C564 C565 1.400 . S
C565 C559 1.491 . S
C565 C564 1.400 . S
C565 C566 1.398 . S
C566 H554 0.950 . S
C566 C565 1.398 . S
C566 C567 1.391 . S
C567 H555 0.950 . S
C567 C563 1.393 . S
C567 C566 1.391 . S
H568 C576 0.950 . S
H569 C581 0.950 . S
H570 C578 0.950 . S
H571 C580 0.950 . S
H572 C582 0.950 1_655 S
H573 C584 0.950 . S
H574 C586 0.950 . S
H575 C587 0.950 . S
C576 H568 0.950 . S
C576 C577 1.386 . S
C576 C578 1.391 . S
C577 C576 1.386 . S
C577 C581 1.393 . S
C578 H570 0.950 . S
C578 C576 1.391 . S
C578 C579 1.400 . S
C579 C578 1.400 . S
C579 C580 1.398 . S
C579 C585 1.491 . S
C580 H571 0.950 . S
C580 C579 1.398 . S
C580 C581 1.391 . S
C581 H569 0.950 . S
C581 C577 1.393 . S
C581 C580 1.391 . S
C582 H572 0.950 1_455 S
C582 C583 1.386 1_455 S
C582 C584 1.391 . S
C583 C582 1.386 1_655 S
C583 C587 1.393 1_655 S
C584 H573 0.950 . S
C584 C582 1.391 . S
C584 C585 1.400 . S
C585 C579 1.491 . S
C585 C584 1.400 . S
C585 C586 1.398 . S
C586 H574 0.950 . S
C586 C585 1.398 . S
C586 C587 1.391 . S
C587 H575 0.950 . S
C587 C583 1.393 1_455 S
C587 C586 1.391 . S
H588 C596 0.950 . S
H589 C601 0.950 . S
H590 C598 0.950 . S
H591 C600 0.950 . S
H592 C602 0.950 . S
H593 C604 0.950 . S
H594 C606 0.950 . S
H595 C607 0.950 . S
C596 H588 0.950 . S
C596 C597 1.386 . S
C596 C598 1.391 . S
C597 C596 1.386 . S
C597 C601 1.393 1_455 S
C598 H590 0.950 . S
C598 C596 1.391 . S
C598 C599 1.412 . S
C599 C598 1.412 . S
C599 C600 1.386 1_455 S
C599 C605 1.492 1_455 S
C600 H591 0.950 . S
C600 C599 1.386 1_655 S
C600 C601 1.391 . S
C601 H589 0.950 . S
C601 C597 1.393 1_655 S
C601 C600 1.391 . S
C602 H592 0.950 . S
C602 C603 1.386 . S
C602 C604 1.391 . S
C603 C602 1.386 . S
C603 C607 1.393 1_655 S
C604 H593 0.950 . S
C604 C602 1.391 . S
C604 C605 1.400 . S
C605 C599 1.492 1_655 S
C605 C604 1.400 . S
C605 C606 1.398 1_655 S
C606 H594 0.950 . S
C606 C605 1.398 1_455 S
C606 C607 1.391 . S
C607 H595 0.950 . S
C607 C603 1.393 1_455 S
C607 C606 1.391 . S
H608 C616 0.950 . S
H609 C621 0.950 . S
H610 C618 0.950 . S
H611 C620 0.950 . S
H612 C622 0.950 . S
H613 C624 0.950 . S
H614 C626 0.950 . S
H615 C627 0.950 . S
C616 H608 0.950 . S
C616 C617 1.386 . S
C616 C618 1.391 . S
C617 C616 1.386 . S
C617 C621 1.393 . S
C618 H610 0.950 . S
C618 C616 1.391 . S
C618 C619 1.400 . S
C619 C618 1.400 . S
C619 C620 1.398 . S
C619 C625 1.491 . S
C620 H611 0.950 . S
C620 C619 1.398 . S
C620 C621 1.391 . S
C621 H609 0.950 . S
C621 C617 1.393 . S
C621 C620 1.391 . S
C622 H612 0.950 . S
C622 C623 1.386 . S
C622 C624 1.391 . S
C623 C622 1.386 . S
C623 C627 1.393 . S
C624 H613 0.950 . S
C624 C622 1.391 . S
C624 C625 1.400 . S
C625 C619 1.491 . S
C625 C624 1.400 . S
C625 C626 1.398 . S
C626 H614 0.950 . S
C626 C625 1.398 . S
C626 C627 1.391 . S
C627 H615 0.950 . S
C627 C623 1.393 . S
C627 C626 1.391 . S
H628 C636 0.950 . S
H629 C641 0.950 . S
H630 C638 0.950 . S
H631 C640 0.950 . S
H632 C642 0.950 . S
H633 C644 0.956 . S
H634 C646 0.950 . S
H635 C647 0.950 . S
C636 H628 0.950 . S
C636 C637 1.386 . S
C636 C638 1.391 . S
C637 C636 1.386 . S
C637 C641 1.393 . S
C638 H630 0.950 . S
C638 C636 1.391 . S
C638 C639 1.400 . S
C639 C638 1.400 . S
C639 C640 1.398 . S
C639 C645 1.491 . S
C640 H631 0.950 . S
C640 C639 1.398 . S
C640 C641 1.391 . S
C641 H629 0.950 . S
C641 C637 1.393 . S
C641 C640 1.391 . S
C642 H632 0.950 . S
C642 C643 1.386 . S
C642 C644 1.379 1_565 S
C643 C642 1.386 . S
C643 C647 1.393 . S
C644 H633 0.956 . S
C644 C642 1.379 1_545 S
C644 C645 1.406 . S
C645 C639 1.491 . S
C645 C644 1.406 . S
C645 C646 1.398 1_545 S
C646 H634 0.950 . S
C646 C645 1.398 1_565 S
C646 C647 1.391 . S
C647 H635 0.950 . S
C647 C643 1.393 . S
C647 C646 1.391 . S
H648 C656 0.950 . S
H649 C661 0.950 . S
H650 C658 0.950 . S
H651 C660 0.950 . S
H652 C662 0.950 . S
H653 C664 0.950 . S
H654 C666 0.950 . S
H655 C667 0.950 . S
C656 H648 0.950 . S
C656 C657 1.386 . S
C656 C658 1.391 . S
C657 C656 1.386 . S
C657 C661 1.393 1_554 S
C658 H650 0.950 . S
C658 C656 1.391 . S
C658 C659 1.400 . S
C659 C658 1.400 . S
C659 C660 1.398 1_554 S
C659 C665 1.491 . S
C660 H651 0.950 . S
C660 C659 1.398 1_556 S
C660 C661 1.391 . S
C661 H649 0.950 . S
C661 C657 1.393 1_556 S
C661 C660 1.391 . S
C662 H652 0.950 . S
C662 C663 1.386 . S
C662 C664 1.391 . S
C663 C662 1.386 . S
C663 C667 1.393 1_556 S
C664 H653 0.950 . S
C664 C662 1.391 . S
C664 C665 1.400 1_556 S
C665 C659 1.491 . S
C665 C664 1.400 1_554 S
C665 C666 1.398 . S
C666 H654 0.950 . S
C666 C665 1.398 . S
C666 C667 1.391 . S
C667 H655 0.950 . S
C667 C663 1.393 1_554 S
C667 C666 1.391 . S
H668 C676 0.950 . S
H669 C681 0.950 . S
H670 C678 0.950 . S
H671 C680 0.950 . S
H672 C682 0.950 . S
H673 C684 0.950 . S
H674 C686 0.950 . S
H675 C687 0.950 . S
C676 H668 0.950 . S
C676 C677 1.386 . S
C676 C678 1.391 . S
C677 C676 1.386 . S
C677 C681 1.393 . S
C678 H670 0.950 . S
C678 C676 1.391 . S
C678 C679 1.400 . S
C679 C678 1.400 . S
C679 C680 1.398 . S
C679 C685 1.491 . S
C680 H671 0.950 . S
C680 C679 1.398 . S
C680 C681 1.391 . S
C681 H669 0.950 . S
C681 C677 1.393 . S
C681 C680 1.391 . S
C682 H672 0.950 . S
C682 C683 1.386 . S
C682 C684 1.391 . S
C683 C682 1.386 . S
C683 C687 1.393 . S
C684 H673 0.950 . S
C684 C682 1.391 . S
C684 C685 1.400 1_565 S
C685 C679 1.491 . S
C685 C684 1.400 1_545 S
C685 C686 1.398 . S
C686 H674 0.950 . S
C686 C685 1.398 . S
C686 C687 1.391 1_545 S
C687 H675 0.950 . S
C687 C683 1.393 . S
C687 C686 1.391 1_565 S
H688 C696 0.950 . S
H689 C701 0.950 . S
H690 C698 0.950 . S
H691 C700 0.950 . S
H692 C702 0.950 . S
H693 C704 0.950 . S
H694 C706 0.952 . S
H695 C707 0.965 . S
C696 H688 0.950 . S
C696 C697 1.386 1_554 S
C696 C698 1.391 . S
C697 C696 1.386 1_556 S
C697 C701 1.393 1_565 S
C698 H690 0.950 . S
C698 C696 1.391 . S
C698 C699 1.400 1_554 S
C699 C698 1.400 1_556 S
C699 C700 1.398 1_565 S
C699 C705 1.491 . S
C700 H691 0.950 . S
C700 C699 1.398 1_545 S
C700 C701 1.391 . S
C701 H689 0.950 . S
C701 C697 1.393 1_545 S
C701 C700 1.391 . S
C702 H692 0.950 . S
C702 C703 1.386 1_545 S
C702 C704 1.391 . S
C703 C702 1.386 1_565 S
C703 C707 1.380 1_556 S
C704 H693 0.950 . S
C704 C702 1.391 . S
C704 C705 1.400 1_545 S
C705 C699 1.491 . S
C705 C704 1.400 1_565 S
C705 C706 1.396 1_556 S
C706 H694 0.952 . S
C706 C705 1.396 1_554 S
C706 C707 1.389 . S
C707 H695 0.965 . S
C707 C703 1.380 1_554 S
C707 C706 1.389 . S
H708 C716 0.950 . S
H709 C721 0.950 . S
H710 C718 0.950 . S
H711 C720 0.950 . S
H712 C722 0.950 . S
H713 C724 0.950 . S
H714 C726 0.950 . S
H715 C727 0.950 . S
C716 H708 0.950 . S
C716 C717 1.386 . S
C716 C718 1.391 . S
C717 C716 1.386 . S
C717 C721 1.393 . S
C718 H710 0.950 . S
C718 C716 1.391 . S
C718 C719 1.400 . S
C719 C718 1.400 . S
C719 C720 1.398 . S
C719 C725 1.491 . S
C720 H711 0.950 . S
C720 C719 1.398 . S
C720 C721 1.391 . S
C721 H709 0.950 . S
C721 C717 1.393 . S
C721 C720 1.391 . S
C722 H712 0.950 . S
C722 C723 1.386 . S
C722 C724 1.391 . S
C723 C722 1.386 . S
C723 C727 1.393 . S
C724 H713 0.950 . S
C724 C722 1.391 . S
C724 C725 1.400 . S
C725 C719 1.491 . S
C725 C724 1.400 . S
C725 C726 1.398 . S
C726 H714 0.950 . S
C726 C725 1.398 . S
C726 C727 1.391 . S
C727 H715 0.950 . S
C727 C723 1.393 . S
C727 C726 1.391 . S
H728 C736 0.950 . S
H729 C741 0.950 . S
H730 C738 0.950 . S
H731 C740 0.950 . S
H732 C742 0.950 . S
H733 C744 0.950 . S
H734 C746 0.950 . S
H735 C747 0.950 . S
C736 H728 0.950 . S
C736 C737 1.386 . S
C736 C738 1.391 . S
C737 C736 1.386 . S
C737 C741 1.393 . S
C738 H730 0.950 . S
C738 C736 1.391 . S
C738 C739 1.400 . S
C739 C738 1.400 . S
C739 C740 1.398 . S
C739 C745 1.491 . S
C740 H731 0.950 . S
C740 C739 1.398 . S
C740 C741 1.391 . S
C741 H729 0.950 . S
C741 C737 1.393 . S
C741 C740 1.391 . S
C742 H732 0.950 . S
C742 C743 1.386 . S
C742 C744 1.391 . S
C743 C742 1.386 . S
C743 C747 1.393 . S
C744 H733 0.950 . S
C744 C742 1.391 . S
C744 C745 1.400 . S
C745 C739 1.491 . S
C745 C744 1.400 . S
C745 C746 1.398 . S
C746 H734 0.950 . S
C746 C745 1.398 . S
C746 C747 1.391 . S
C747 H735 0.950 . S
C747 C743 1.393 . S
C747 C746 1.391 . S
H748 C756 0.950 . S
H749 C761 0.950 . S
H750 C758 0.950 1_554 S
H751 C760 0.950 . S
H752 C762 0.950 . S
H753 C764 0.950 . S
H754 C766 0.950 . S
H755 C767 0.950 . S
C756 H748 0.950 . S
C756 C757 1.386 . S
C756 C758 1.391 . S
C757 C756 1.386 . S
C757 C761 1.393 . S
C758 H750 0.950 1_556 S
C758 C756 1.391 . S
C758 C759 1.400 1_556 S
C759 C758 1.400 1_554 S
C759 C760 1.398 1_554 S
C759 C765 1.491 . S
C760 H751 0.950 . S
C760 C759 1.398 1_556 S
C760 C761 1.391 . S
C761 H749 0.950 . S
C761 C757 1.393 . S
C761 C760 1.391 . S
C762 H752 0.950 . S
C762 C763 1.386 . S
C762 C764 1.391 . S
C763 C762 1.386 . S
C763 C767 1.393 . S
C764 H753 0.950 . S
C764 C762 1.391 . S
C764 C765 1.400 . S
C765 C759 1.491 . S
C765 C764 1.400 . S
C765 C766 1.398 . S
C766 H754 0.950 . S
C766 C765 1.398 . S
C766 C767 1.391 . S
C767 H755 0.950 . S
C767 C763 1.393 . S
C767 C766 1.391 . S
H768 C776 0.950 . S
H769 C781 0.950 . S
H770 C778 0.950 . S
H771 C780 0.950 . S
H772 C782 0.950 . S
H773 C784 0.950 . S
H774 C786 0.950 . S
H775 C787 0.950 . S
C776 H768 0.950 . S
C776 C777 1.386 . S
C776 C778 1.391 . S
C777 C776 1.386 . S
C777 C781 1.393 . S
C778 H770 0.950 . S
C778 C776 1.391 . S
C778 C779 1.400 . S
C779 C778 1.400 . S
C779 C780 1.398 . S
C779 C785 1.491 . S
C780 H771 0.950 . S
C780 C779 1.398 . S
C780 C781 1.391 . S
C781 H769 0.950 . S
C781 C777 1.393 . S
C781 C780 1.391 . S
C782 H772 0.950 . S
C782 C783 1.386 . S
C782 C784 1.391 . S
C783 C782 1.386 . S
C783 C787 1.393 . S
C784 H773 0.950 . S
C784 C782 1.391 . S
C784 C785 1.400 . S
C785 C779 1.491 . S
C785 C784 1.400 . S
C785 C786 1.398 . S
C786 H774 0.950 . S
C786 C785 1.398 . S
C786 C787 1.391 . S
C787 H775 0.950 . S
C787 C783 1.393 . S
C787 C786 1.391 . S
H788 C796 0.950 . S
H789 C801 0.950 . S
H790 C798 0.950 . S
H791 C800 0.950 . S
H792 C802 0.950 . S
H793 C804 0.950 . S
H794 C806 0.950 . S
H795 C807 0.950 . S
C796 H788 0.950 . S
C796 C797 1.386 . S
C796 C798 1.391 . S
C797 C796 1.386 . S
C797 C801 1.393 . S
C798 H790 0.950 . S
C798 C796 1.391 . S
C798 C799 1.400 . S
C799 C798 1.400 . S
C799 C800 1.398 . S
C799 C805 1.491 . S
C800 H791 0.950 . S
C800 C799 1.398 . S
C800 C801 1.391 . S
C801 H789 0.950 . S
C801 C797 1.393 . S
C801 C800 1.391 . S
C802 H792 0.950 . S
C802 C803 1.386 . S
C802 C804 1.391 . S
C803 C802 1.386 . S
C803 C807 1.393 . S
C804 H793 0.950 . S
C804 C802 1.391 . S
C804 C805 1.400 . S
C805 C799 1.491 . S
C805 C804 1.400 . S
C805 C806 1.398 . S
C806 H794 0.950 . S
C806 C805 1.398 . S
C806 C807 1.391 . S
C807 H795 0.950 . S
C807 C803 1.393 . S
C807 C806 1.391 . S
H808 C816 0.950 1_455 S
H809 C821 0.950 . S
H810 C818 0.950 1_455 S
H811 C820 0.950 . S
H812 C822 0.950 . S
H813 C824 0.950 . S
H814 C826 0.950 1_455 S
H815 C827 0.950 . S
C816 H808 0.950 1_655 S
C816 C817 1.386 . S
C816 C818 1.391 . S
C817 C816 1.386 . S
C817 C821 1.393 . S
C818 H810 0.950 1_655 S
C818 C816 1.391 . S
C818 C819 1.400 . S
C819 C818 1.400 . S
C819 C820 1.398 . S
C819 C825 1.491 . S
C820 H811 0.950 . S
C820 C819 1.398 . S
C820 C821 1.391 . S
C821 H809 0.950 . S
C821 C817 1.393 . S
C821 C820 1.391 . S
C822 H812 0.950 . S
C822 C823 1.386 . S
C822 C824 1.391 . S
C823 C822 1.386 . S
C823 C827 1.393 . S
C824 H813 0.950 . S
C824 C822 1.391 . S
C824 C825 1.400 . S
C825 C819 1.491 . S
C825 C824 1.400 . S
C825 C826 1.398 . S
C826 H814 0.950 1_655 S
C826 C825 1.398 . S
C826 C827 1.391 . S
C827 H815 0.950 . S
C827 C823 1.393 . S
C827 C826 1.391 . S
H828 C836 0.950 . S
H829 C841 0.950 . S
H830 C838 0.950 . S
H831 C840 0.950 . S
H832 C842 0.950 . S
H833 C844 0.950 . S
H834 C846 0.950 . S
H835 C847 0.950 . S
C836 H828 0.950 . S
C836 C837 1.386 1_545 S
C836 C838 1.391 . S
C837 C836 1.386 1_565 S
C837 C841 1.393 . S
C838 H830 0.950 . S
C838 C836 1.391 . S
C838 C839 1.400 . S
C839 C838 1.400 . S
C839 C840 1.398 1_545 S
C839 C845 1.491 . S
C840 H831 0.950 . S
C840 C839 1.398 1_565 S
C840 C841 1.391 . S
C841 H829 0.950 . S
C841 C837 1.393 . S
C841 C840 1.391 . S
C842 H832 0.950 . S
C842 C843 1.386 1_565 S
C842 C844 1.391 . S
C843 C842 1.386 1_545 S
C843 C847 1.393 . S
C844 H833 0.950 . S
C844 C842 1.391 . S
C844 C845 1.400 1_565 S
C845 C839 1.491 . S
C845 C844 1.400 1_545 S
C845 C846 1.398 . S
C846 H834 0.950 . S
C846 C845 1.398 . S
C846 C847 1.391 . S
C847 H835 0.950 . S
C847 C843 1.393 . S
C847 C846 1.391 . S
C217 C10 1.943 . S
C223 C95 1.943 1_554 S
C237 C17 1.928 . S
C243 C56 1.928 . S
C257 C75 1.949 . S
C263 C30 1.977 . S
C277 C49 1.969 . S
C283 C88 1.949 . S
C297 C114 1.896 . S
C303 C166 1.893 . S
C317 C121 1.966 1_554 S
C323 C186 1.986 . S
C337 C147 1.964 . S
C343 C140 1.937 . S
C357 C205 1.842 . S
C363 C173 1.836 . S
C377 C3 1.325 . S
C383 C81 1.330 . S
C397 C94 0.790 . S
C403 C23 0.814 . S
C417 C31 1.713 . S
C423 C55 1.722 . S
C437 C70 1.054 . S
C443 C44 1.065 . S
C457 C4 1.603 . S
C463 C192 1.614 . S
C477 C148 1.719 . S
C483 C16 1.713 1_455 S
C497 C179 1.506 . S
C503 C36 1.515 . S
C517 C161 1.693 . S
C523 C42 1.682 . S
C537 C134 1.188 . S
C543 C57 1.216 . S
C557 C68 1.309 . S
C563 C198 1.296 . S
C577 C82 1.105 . S
C583 C107 1.129 . S
C597 C96 1.290 . S
C603 C122 1.301 . S
C617 C5 0.816 . S
C623 C62 0.815 . S
C637 C108 0.865 . S
C643 C172 0.875 . S
C657 C159 0.996 . S
C663 C127 0.990 . S
C677 C185 1.059 . S
C683 C135 1.027 . S
C697 C101 1.364 . S
C703 C43 1.359 . S
C717 C29 1.113 . S
C723 C83 1.082 . S
C737 C153 1.541 . S
C743 C199 1.536 . S
C757 C174 1.294 . S
C763 C133 1.308 . S
C777 C200 0.797 . S
C783 C160 0.775 . S
C797 C187 1.724 . S
C803 C109 1.720 . S
C817 C146 1.074 . S
C823 C120 1.027 . S
C837 C18 1.177 1_565 S
C843 C69 1.161 . S
