# Generated by pormake.
# Topology vbk, (5)-cn, num edge types: 1
# Building blocks:
#     Node 0, Type 0, BuildingBlock: BEQFEK_clean_sbu_0, # of connection points: 5
#     Node 1, Type 0, BuildingBlock: BEQFEK_clean_sbu_0, # of connection points: 5
#     Node 2, Type 0, BuildingBlock: BEQFEK_clean_sbu_0, # of connection points: 5
#     Node 3, Type 0, BuildingBlock: BEQFEK_clean_sbu_0, # of connection points: 5
#     Node 4, Type 0, BuildingBlock: BEQFEK_clean_sbu_0, # of connection points: 5
#     Node 5, Type 0, BuildingBlock: BEQFEK_clean_sbu_0, # of connection points: 5
#     Node 6, Type 0, BuildingBlock: BEQFEK_clean_sbu_0, # of connection points: 5
#     Node 7, Type 0, BuildingBlock: BEQFEK_clean_sbu_0, # of connection points: 5
#     Node 8, Type 0, BuildingBlock: BEQFEK_clean_sbu_0, # of connection points: 5
#     Node 9, Type 0, BuildingBlock: BEQFEK_clean_sbu_0, # of connection points: 5
#     Node 10, Type 0, BuildingBlock: BEQFEK_clean_sbu_0, # of connection points: 5
#     Node 11, Type 0, BuildingBlock: BEQFEK_clean_sbu_0, # of connection points: 5
#     Node 12, Type 0, BuildingBlock: BEQFEK_clean_sbu_0, # of connection points: 5
#     Node 13, Type 0, BuildingBlock: BEQFEK_clean_sbu_0, # of connection points: 5
#     Node 14, Type 0, BuildingBlock: BEQFEK_clean_sbu_0, # of connection points: 5
#     Node 15, Type 0, BuildingBlock: BEQFEK_clean_sbu_0, # of connection points: 5
#     Edge 16, Type (0, 0), BuildingBlock: EZIPEK_clean_linker_0, # of connection points: 2
#     Edge 17, Type (0, 0), BuildingBlock: EZIPEK_clean_linker_0, # of connection points: 2
#     Edge 18, Type (0, 0), BuildingBlock: EZIPEK_clean_linker_0, # of connection points: 2
#     Edge 19, Type (0, 0), BuildingBlock: EZIPEK_clean_linker_0, # of connection points: 2
#     Edge 20, Type (0, 0), BuildingBlock: EZIPEK_clean_linker_0, # of connection points: 2
#     Edge 21, Type (0, 0), BuildingBlock: EZIPEK_clean_linker_0, # of connection points: 2
#     Edge 22, Type (0, 0), BuildingBlock: EZIPEK_clean_linker_0, # of connection points: 2
#     Edge 23, Type (0, 0), BuildingBlock: EZIPEK_clean_linker_0, # of connection points: 2
#     Edge 24, Type (0, 0), BuildingBlock: EZIPEK_clean_linker_0, # of connection points: 2
#     Edge 25, Type (0, 0), BuildingBlock: EZIPEK_clean_linker_0, # of connection points: 2
#     Edge 26, Type (0, 0), BuildingBlock: EZIPEK_clean_linker_0, # of connection points: 2
#     Edge 27, Type (0, 0), BuildingBlock: EZIPEK_clean_linker_0, # of connection points: 2
#     Edge 28, Type (0, 0), BuildingBlock: EZIPEK_clean_linker_0, # of connection points: 2
#     Edge 29, Type (0, 0), BuildingBlock: EZIPEK_clean_linker_0, # of connection points: 2
#     Edge 30, Type (0, 0), BuildingBlock: EZIPEK_clean_linker_0, # of connection points: 2
#     Edge 31, Type (0, 0), BuildingBlock: EZIPEK_clean_linker_0, # of connection points: 2
#     Edge 32, Type (0, 0), BuildingBlock: EZIPEK_clean_linker_0, # of connection points: 2
#     Edge 33, Type (0, 0), BuildingBlock: EZIPEK_clean_linker_0, # of connection points: 2
#     Edge 34, Type (0, 0), BuildingBlock: EZIPEK_clean_linker_0, # of connection points: 2
#     Edge 35, Type (0, 0), BuildingBlock: EZIPEK_clean_linker_0, # of connection points: 2
#     Edge 36, Type (0, 0), BuildingBlock: EZIPEK_clean_linker_0, # of connection points: 2
#     Edge 37, Type (0, 0), BuildingBlock: EZIPEK_clean_linker_0, # of connection points: 2
#     Edge 38, Type (0, 0), BuildingBlock: EZIPEK_clean_linker_0, # of connection points: 2
#     Edge 39, Type (0, 0), BuildingBlock: EZIPEK_clean_linker_0, # of connection points: 2
#     Edge 40, Type (0, 0), BuildingBlock: EZIPEK_clean_linker_0, # of connection points: 2
#     Edge 41, Type (0, 0), BuildingBlock: EZIPEK_clean_linker_0, # of connection points: 2
#     Edge 42, Type (0, 0), BuildingBlock: EZIPEK_clean_linker_0, # of connection points: 2
#     Edge 43, Type (0, 0), BuildingBlock: EZIPEK_clean_linker_0, # of connection points: 2
#     Edge 44, Type (0, 0), BuildingBlock: EZIPEK_clean_linker_0, # of connection points: 2
#     Edge 45, Type (0, 0), BuildingBlock: EZIPEK_clean_linker_0, # of connection points: 2
#     Edge 46, Type (0, 0), BuildingBlock: EZIPEK_clean_linker_0, # of connection points: 2
#     Edge 47, Type (0, 0), BuildingBlock: EZIPEK_clean_linker_0, # of connection points: 2
#     Edge 48, Type (0, 0), BuildingBlock: EZIPEK_clean_linker_0, # of connection points: 2
#     Edge 49, Type (0, 0), BuildingBlock: EZIPEK_clean_linker_0, # of connection points: 2
#     Edge 50, Type (0, 0), BuildingBlock: EZIPEK_clean_linker_0, # of connection points: 2
#     Edge 51, Type (0, 0), BuildingBlock: EZIPEK_clean_linker_0, # of connection points: 2
#     Edge 52, Type (0, 0), BuildingBlock: EZIPEK_clean_linker_0, # of connection points: 2
#     Edge 53, Type (0, 0), BuildingBlock: EZIPEK_clean_linker_0, # of connection points: 2
#     Edge 54, Type (0, 0), BuildingBlock: EZIPEK_clean_linker_0, # of connection points: 2
#     Edge 55, Type (0, 0), BuildingBlock: EZIPEK_clean_linker_0, # of connection points: 2
# Relax obj value: 0.033
# Max RMSD: 0.062
# Mean RMSD: 0.062
data_MOF--net-vbk--node1-BEQFEK_clean_sbu_0--edge1-EZIPEK_clean_linker_0
_symmetry_space_group_name_H-M    P1
_symmetry_Int_Tables_number       1
_symmetry_cell_setting            triclinic
loop_
_symmetry_equiv_pos_as_xyz
'x, y, z'
_cell_length_a     61.044252
_cell_length_b     31.081287
_cell_length_c     20.14196
_cell_angle_alpha  90.006177
_cell_angle_beta   89.990343
_cell_angle_gamma 89.991573
loop_
_atom_site_label
_atom_site_type_symbol
_atom_site_fract_x
_atom_site_fract_y
_atom_site_fract_z
_atom_type_partial_charge
Co0 Co 0.0947 0.14384 0.14185 0.0
Co1 Co 0.14636 0.15418 0.14459 0.0
C2 C 0.12476 0.07677 0.08567 0.0
O3 O 0.10575 0.09011 0.10166 0.0
O4 O 0.14208 0.09777 0.09991 0.0
C5 C 0.05086 0.11941 0.11224 0.0
O6 O 0.06012 0.10272 0.0593 0.0
C7 C 0.19296 0.13772 0.18134 0.0
C8 C 0.20608 0.20394 0.17884 0.0
C9 C 0.21167 0.16194 0.19425 0.0
N10 N 0.17693 0.16459 0.16119 0.0
N11 N 0.18505 0.20397 0.15897 0.0
C12 C 0.1901 0.09021 0.18904 0.0
H13 H 0.1856 0.07607 0.14033 0.0
H14 H 0.17634 0.08382 0.22369 0.0
H15 H 0.20528 0.07471 0.20767 0.0
C16 C 0.10015 0.16858 0.28184 0.0
N17 N 0.1086 0.15601 0.22315 0.0
N18 N 0.13008 0.15926 0.22519 0.0
C19 C 0.13591 0.17363 0.28581 0.0
C20 C 0.11721 0.18035 0.32341 0.0
C21 C 0.07621 0.17506 0.29416 0.0
H22 H 0.06954 0.1977 0.25667 0.0
H23 H 0.06757 0.1439 0.28816 0.0
H24 H 0.07307 0.18784 0.34473 0.0
O25 O 0.10005 0.19016 0.07678 0.0
O26 O 0.13633 0.19829 0.0799 0.0
H27 H 0.16357 0.21519 0.27613 0.0
H28 H 0.15982 0.19383 0.35876 0.0
C29 C 0.15862 0.18642 0.30497 0.0
H30 H 0.16985 0.15972 0.29326 0.0
H31 H 0.17602 0.23113 0.14562 0.0
O32 O 0.06259 0.13868 0.15499 0.0
C33 C 0.11755 0.20839 0.05705 0.0
Co34 Co 0.41327 0.84985 0.6329 0.0
Co35 Co 0.36163 0.8427 0.64322 0.0
C36 C 0.38358 0.9196 0.58296 0.0
O37 O 0.40261 0.90497 0.59583 0.0
O38 O 0.36622 0.89934 0.59918 0.0
C39 C 0.45691 0.88532 0.64215 0.0
O40 O 0.44694 0.92249 0.64893 0.0
C41 C 0.31669 0.8594 0.6954 0.0
C42 C 0.30012 0.79874 0.6681 0.0
C43 C 0.29692 0.83757 0.70012 0.0
N44 N 0.33107 0.8343 0.66257 0.0
N45 N 0.32092 0.79827 0.64598 0.0
C46 C 0.32187 0.9029 0.72273 0.0
H47 H 0.33982 0.90867 0.72217 0.0
H48 H 0.31542 0.90582 0.77407 0.0
H49 H 0.31364 0.92768 0.69189 0.0
C50 C 0.40975 0.82344 0.77325 0.0
N51 N 0.40064 0.83739 0.71621 0.0
N52 N 0.37915 0.8353 0.72115 0.0
C53 C 0.37403 0.82025 0.78193 0.0
C54 C 0.39314 0.81204 0.81679 0.0
C55 C 0.43372 0.81548 0.78208 0.0
H56 H 0.43948 0.79281 0.74324 0.0
H57 H 0.44273 0.84617 0.77543 0.0
H58 H 0.43741 0.80209 0.83193 0.0
O59 O 0.40584 0.80476 0.56794 0.0
O60 O 0.3696 0.79861 0.57604 0.0
H61 H 0.34355 0.78757 0.76781 0.0
H62 H 0.3512 0.79414 0.85395 0.0
C63 C 0.35138 0.80946 0.8042 0.0
H64 H 0.34186 0.83968 0.80697 0.0
H65 H 0.32835 0.77289 0.6206 0.0
O66 O 0.44574 0.85098 0.63714 0.0
C67 C 0.38783 0.78762 0.55045 0.0
Co68 Co 0.09562 0.85277 0.87516 0.0
Co69 Co 0.14735 0.84488 0.86942 0.0
C70 C 0.12546 0.92304 0.92459 0.0
O71 O 0.10645 0.90826 0.91168 0.0
O72 O 0.14287 0.90232 0.91047 0.0
C73 C 0.05104 0.87868 0.89944 0.0
O74 O 0.05966 0.89936 0.94996 0.0
C75 C 0.19366 0.86241 0.83116 0.0
C76 C 0.20729 0.79658 0.8342 0.0
C77 C 0.2125 0.83866 0.81818 0.0
N78 N 0.17788 0.83519 0.85193 0.0
N79 N 0.1863 0.79605 0.85446 0.0
C80 C 0.19046 0.9098 0.8231 0.0
H81 H 0.18673 0.9242 0.87224 0.0
H82 H 0.1761 0.91577 0.79053 0.0
H83 H 0.20525 0.92542 0.80199 0.0
C84 C 0.10088 0.82442 0.73575 0.0
N85 N 0.1093 0.8389 0.79351 0.0
N86 N 0.13082 0.83794 0.79009 0.0
C87 C 0.13669 0.82377 0.72943 0.0
C88 C 0.11802 0.8142 0.6933 0.0
C89 C 0.07708 0.81545 0.72488 0.0
H90 H 0.0709 0.79446 0.76532 0.0
H91 H 0.06784 0.84616 0.72702 0.0
H92 H 0.07414 0.79979 0.67616 0.0
O93 O 0.10186 0.80818 0.94304 0.0
O94 O 0.13808 0.80078 0.93564 0.0
H95 H 0.16606 0.78665 0.73578 0.0
H96 H 0.16075 0.80839 0.65422 0.0
C97 C 0.15968 0.8149 0.7083 0.0
H98 H 0.16981 0.84324 0.72006 0.0
H99 H 0.17751 0.76871 0.86837 0.0
O100 O 0.06331 0.85662 0.86146 0.0
C101 C 0.11974 0.79078 0.96174 0.0
Co102 Co 0.41323 0.14127 0.37121 0.0
Co103 Co 0.36155 0.15182 0.36505 0.0
C104 C 0.38254 0.07297 0.42127 0.0
O105 O 0.40175 0.08722 0.40995 0.0
O106 O 0.36537 0.09371 0.40457 0.0
C107 C 0.45699 0.10451 0.36199 0.0
O108 O 0.44717 0.06695 0.35983 0.0
C109 C 0.3163 0.1391 0.31315 0.0
C110 C 0.30012 0.19843 0.34836 0.0
C111 C 0.29659 0.16133 0.31203 0.0
N112 N 0.33096 0.16226 0.34816 0.0
N113 N 0.32105 0.19753 0.36939 0.0
C114 C 0.32112 0.09691 0.28078 0.0
H115 H 0.33898 0.09021 0.28139 0.0
H116 H 0.31492 0.09701 0.22896 0.0
H117 H 0.31238 0.07103 0.30798 0.0
C118 C 0.40898 0.16713 0.23114 0.0
N119 N 0.40002 0.15451 0.28908 0.0
N120 N 0.3786 0.15947 0.28621 0.0
C121 C 0.37339 0.17558 0.22612 0.0
C122 C 0.39236 0.1809 0.18938 0.0
C123 C 0.43307 0.17131 0.21952 0.0
H124 H 0.44001 0.1946 0.2556 0.0
H125 H 0.44105 0.13975 0.22822 0.0
H126 H 0.43666 0.18232 0.16822 0.0
O127 O 0.40727 0.18716 0.43568 0.0
O128 O 0.37094 0.19355 0.43445 0.0
H129 H 0.35137 0.20989 0.1603 0.0
H130 H 0.34072 0.16187 0.19791 0.0
C131 C 0.35107 0.19055 0.2066 0.0
H132 H 0.34381 0.21007 0.24703 0.0
H133 H 0.32871 0.22144 0.39738 0.0
O134 O 0.44568 0.1388 0.36446 0.0
C135 C 0.38967 0.20405 0.4571 0.0
Co136 Co 0.91311 0.85096 0.8703 0.0
Co137 Co 0.86136 0.84537 0.85773 0.0
C138 C 0.8827 0.92154 0.91782 0.0
O139 O 0.90164 0.90499 0.90991 0.0
O140 O 0.86531 0.90324 0.89696 0.0
C141 C 0.95709 0.88674 0.85836 0.0
O142 O 0.94728 0.9236 0.84678 0.0
C143 C 0.81528 0.86055 0.81352 0.0
C144 C 0.80237 0.79421 0.8189 0.0
C145 C 0.79682 0.83569 0.80043 0.0
N146 N 0.83117 0.83449 0.83689 0.0
N147 N 0.82318 0.79506 0.84068 0.0
C148 C 0.81797 0.9079 0.80358 0.0
H149 H 0.82155 0.92328 0.8521 0.0
H150 H 0.83226 0.91387 0.77075 0.0
H151 H 0.80302 0.92254 0.7818 0.0
C152 C 0.90981 0.82551 0.72934 0.0
N153 N 0.90063 0.83921 0.7864 0.0
N154 N 0.87915 0.83741 0.78084 0.0
C155 C 0.87409 0.8231 0.71958 0.0
C156 C 0.89324 0.81483 0.68522 0.0
C157 C 0.93376 0.81719 0.72082 0.0
H158 H 0.93944 0.79482 0.76016 0.0
H159 H 0.94282 0.84784 0.7269 0.0
H160 H 0.93744 0.80337 0.67124 0.0
O161 O 0.90581 0.8048 0.93267 0.0
O162 O 0.86938 0.8032 0.928 0.0
H163 H 0.84524 0.78448 0.72594 0.0
H164 H 0.85112 0.80361 0.6433 0.0
C165 C 0.85149 0.81212 0.6968 0.0
H166 H 0.84075 0.84016 0.70511 0.0
H167 H 0.83214 0.76844 0.85679 0.0
O168 O 0.94573 0.85293 0.86719 0.0
C169 C 0.88748 0.79008 0.95204 0.0
Co170 Co 0.59509 0.14067 0.36234 0.0
Co171 Co 0.64656 0.15435 0.36314 0.0
C172 C 0.62609 0.07422 0.41607 0.0
O173 O 0.60687 0.08735 0.40227 0.0
O174 O 0.64312 0.096 0.40163 0.0
C175 C 0.55122 0.11628 0.39154 0.0
O176 O 0.56025 0.10282 0.44698 0.0
C177 C 0.69213 0.14274 0.31536 0.0
C178 C 0.70835 0.20061 0.35569 0.0
C179 C 0.712 0.16431 0.31751 0.0
N180 N 0.67728 0.16543 0.35032 0.0
N181 N 0.68718 0.19983 0.37468 0.0
C182 C 0.68736 0.10148 0.28017 0.0
H183 H 0.66945 0.09528 0.27874 0.0
H184 H 0.69408 0.10259 0.22899 0.0
H185 H 0.69563 0.07473 0.30669 0.0
C186 C 0.60096 0.16743 0.22347 0.0
N187 N 0.60935 0.15504 0.2823 0.0
N188 N 0.63068 0.16142 0.28216 0.0
C189 C 0.6364 0.1784 0.22305 0.0
C190 C 0.61785 0.18264 0.18403 0.0
C191 C 0.57698 0.17008 0.20887 0.0
H192 H 0.56914 0.19257 0.24447 0.0
H193 H 0.56945 0.13791 0.21589 0.0
H194 H 0.57391 0.1813 0.15739 0.0
O195 O 0.59908 0.18698 0.42827 0.0
O196 O 0.63537 0.19533 0.43125 0.0
H197 H 0.65837 0.21647 0.16229 0.0
H198 H 0.66943 0.16761 0.19592 0.0
C199 C 0.65863 0.19534 0.20669 0.0
H200 H 0.66531 0.21357 0.24939 0.0
H201 H 0.67939 0.2232 0.40345 0.0
O202 O 0.56313 0.13353 0.34718 0.0
C203 C 0.61619 0.20475 0.45181 0.0
Co204 Co 0.91298 0.14618 0.12779 0.0
Co205 Co 0.86133 0.15082 0.14033 0.0
C206 C 0.88323 0.07518 0.0791 0.0
O207 O 0.90209 0.09143 0.08955 0.0
O208 O 0.86562 0.09387 0.09746 0.0
C209 C 0.95657 0.11073 0.14093 0.0
O210 O 0.94656 0.07386 0.15058 0.0
C211 C 0.81494 0.13564 0.18294 0.0
C212 C 0.80274 0.20261 0.18155 0.0
C213 C 0.79671 0.16094 0.19729 0.0
N214 N 0.83115 0.16162 0.16144 0.0
N215 N 0.82357 0.20145 0.16004 0.0
C216 C 0.81713 0.08796 0.1901 0.0
H217 H 0.8208 0.07369 0.14084 0.0
H218 H 0.83119 0.08059 0.2231 0.0
H219 H 0.80194 0.07339 0.21039 0.0
C220 C 0.90952 0.17297 0.26795 0.0
N221 N 0.90048 0.1581 0.21139 0.0
N222 N 0.87902 0.15756 0.21777 0.0
C223 C 0.87386 0.1707 0.27958 0.0
C224 C 0.8929 0.18158 0.31299 0.0
C225 C 0.93322 0.18418 0.27512 0.0
H226 H 0.93824 0.20543 0.23354 0.0
H227 H 0.94312 0.15433 0.27192 0.0
H228 H 0.93658 0.20034 0.32319 0.0
O229 O 0.90554 0.19143 0.06393 0.0
O230 O 0.86924 0.19487 0.07248 0.0
H231 H 0.84395 0.20633 0.27886 0.0
H232 H 0.85081 0.18361 0.35858 0.0
C233 C 0.85109 0.17795 0.30416 0.0
H234 H 0.84112 0.14927 0.29268 0.0
H235 H 0.83285 0.2281 0.14584 0.0
O236 O 0.94543 0.1448 0.13232 0.0
C237 C 0.88722 0.20714 0.04652 0.0
Co238 Co 0.59509 0.85415 0.63333 0.0
Co239 Co 0.64666 0.84235 0.63363 0.0
C240 C 0.62518 0.92139 0.57851 0.0
O241 O 0.60612 0.9084 0.59463 0.0
O242 O 0.64235 0.89956 0.59127 0.0
C243 C 0.55091 0.87759 0.60563 0.0
O244 O 0.55963 0.89329 0.55115 0.0
C245 C 0.69249 0.85595 0.67966 0.0
C246 C 0.70825 0.79583 0.64591 0.0
C247 C 0.71218 0.83364 0.68008 0.0
N248 N 0.67746 0.83216 0.64717 0.0
N249 N 0.68713 0.79647 0.62662 0.0
C250 C 0.68799 0.89874 0.7106 0.0
H251 H 0.6701 0.90509 0.71242 0.0
H252 H 0.69506 0.89993 0.76135 0.0
H253 H 0.69608 0.92416 0.68067 0.0
C254 C 0.60093 0.82802 0.77256 0.0
N255 N 0.60927 0.84058 0.71371 0.0
N256 N 0.63071 0.83614 0.71468 0.0
C257 C 0.6366 0.82062 0.77455 0.0
C258 C 0.61801 0.81487 0.81302 0.0
C259 C 0.57698 0.82317 0.78623 0.0
H260 H 0.56973 0.80072 0.74947 0.0
H261 H 0.56881 0.85483 0.78027 0.0
H262 H 0.57394 0.81087 0.83714 0.0
O263 O 0.59991 0.80848 0.56641 0.0
O264 O 0.63613 0.7993 0.56785 0.0
H265 H 0.66603 0.78597 0.75311 0.0
H266 H 0.65978 0.7897 0.84071 0.0
C267 C 0.65925 0.80697 0.79255 0.0
H268 H 0.66949 0.83618 0.79697 0.0
H269 H 0.67916 0.77202 0.60059 0.0
O270 O 0.5631 0.8594 0.64833 0.0
C271 C 0.61719 0.78999 0.54543 0.0
Co272 Co 0.59358 0.64484 0.12839 0.0
Co273 Co 0.6451 0.65236 0.13904 0.0
C274 C 0.62357 0.57553 0.07772 0.0
O275 O 0.60451 0.59001 0.09072 0.0
O276 O 0.6409 0.5958 0.09427 0.0
C277 C 0.55005 0.60889 0.13955 0.0
O278 O 0.56012 0.57189 0.14728 0.0
C279 C 0.69114 0.63561 0.1823 0.0
C280 C 0.70412 0.70198 0.18087 0.0
C281 C 0.70959 0.6601 0.1973 0.0
N282 N 0.67535 0.66227 0.15996 0.0
N283 N 0.6834 0.70172 0.15844 0.0
C284 C 0.68832 0.58808 0.18978 0.0
H285 H 0.68416 0.57391 0.14081 0.0
H286 H 0.67434 0.58159 0.22359 0.0
H287 H 0.7034 0.5727 0.20938 0.0
C288 C 0.59693 0.67086 0.26897 0.0
N289 N 0.60609 0.65704 0.21191 0.0
N290 N 0.62756 0.65892 0.21712 0.0
C291 C 0.63265 0.67346 0.27827 0.0
C292 C 0.61351 0.68185 0.31287 0.0
C293 C 0.57298 0.67928 0.27745 0.0
H294 H 0.56388 0.64864 0.27164 0.0
H295 H 0.56931 0.69329 0.32691 0.0
H296 H 0.56732 0.70155 0.23795 0.0
O297 O 0.60083 0.69038 0.06395 0.0
O298 O 0.63704 0.69667 0.07231 0.0
H299 H 0.66116 0.7131 0.27304 0.0
H300 H 0.65568 0.69195 0.35479 0.0
C301 C 0.65525 0.68462 0.30087 0.0
H302 H 0.66621 0.65716 0.29085 0.0
H303 H 0.6745 0.72875 0.14371 0.0
O304 O 0.56114 0.64321 0.13293 0.0
C305 C 0.61881 0.70771 0.04676 0.0
Co306 Co 0.91263 0.35168 0.63231 0.0
Co307 Co 0.86072 0.34381 0.63486 0.0
C308 C 0.88323 0.42105 0.57863 0.0
O309 O 0.90209 0.40665 0.5942 0.0
O310 O 0.86568 0.40055 0.59211 0.0
C311 C 0.9555 0.389 0.65367 0.0
O312 O 0.94473 0.42523 0.66147 0.0
C313 C 0.81408 0.36093 0.6726 0.0
C314 C 0.80071 0.29494 0.66803 0.0
C315 C 0.79528 0.33678 0.68492 0.0
N316 N 0.83001 0.33413 0.65142 0.0
N317 N 0.82172 0.29492 0.64794 0.0
C318 C 0.81711 0.40829 0.6818 0.0
H319 H 0.8218 0.42297 0.63364 0.0
H320 H 0.83079 0.41403 0.71697 0.0
H321 H 0.80193 0.42378 0.70054 0.0
C322 C 0.9068 0.32509 0.77161 0.0
N323 N 0.89861 0.33892 0.71327 0.0
N324 N 0.87707 0.33699 0.71516 0.0
C325 C 0.87097 0.32253 0.77547 0.0
C326 C 0.88951 0.31425 0.81291 0.0
C327 C 0.93057 0.31658 0.78373 0.0
H328 H 0.93708 0.29556 0.74381 0.0
H329 H 0.93964 0.34743 0.78175 0.0
H330 H 0.93335 0.30121 0.83275 0.0
O331 O 0.9065 0.30632 0.56637 0.0
O332 O 0.87013 0.30016 0.56847 0.0
H333 H 0.84242 0.28341 0.76552 0.0
H334 H 0.84671 0.30394 0.84838 0.0
C335 C 0.84803 0.31156 0.7947 0.0
H336 H 0.83742 0.33931 0.78352 0.0
H337 H 0.83064 0.26781 0.63364 0.0
O338 O 0.94505 0.35433 0.64265 0.0
C339 C 0.88883 0.28917 0.54595 0.0
Co340 Co 0.59379 0.35377 0.866 0.0
Co341 Co 0.64559 0.34378 0.85854 0.0
C342 C 0.62463 0.42241 0.91516 0.0
O343 O 0.60545 0.40786 0.90447 0.0
O344 O 0.64181 0.40193 0.89787 0.0
C345 C 0.55084 0.3928 0.85086 0.0
O346 O 0.56163 0.42916 0.84511 0.0
C347 C 0.6907 0.35717 0.8057 0.0
C348 C 0.70725 0.29818 0.84061 0.0
C349 C 0.71054 0.33535 0.80423 0.0
N350 N 0.67621 0.33368 0.84091 0.0
N351 N 0.68634 0.29861 0.86193 0.0
C352 C 0.68562 0.39934 0.77366 0.0
H353 H 0.66773 0.40571 0.77464 0.0
H354 H 0.69171 0.39946 0.72172 0.0
H355 H 0.6943 0.42531 0.80083 0.0
C356 C 0.59783 0.3266 0.72639 0.0
N357 N 0.6069 0.34008 0.78372 0.0
N358 N 0.62834 0.33566 0.78021 0.0
C359 C 0.63346 0.31919 0.72024 0.0
C360 C 0.61439 0.31298 0.68429 0.0
C361 C 0.57374 0.32139 0.71579 0.0
H362 H 0.56563 0.35308 0.72143 0.0
H363 H 0.57008 0.30821 0.66578 0.0
H364 H 0.56699 0.29957 0.75432 0.0
O365 O 0.5999 0.30789 0.93074 0.0
O366 O 0.6363 0.3022 0.92845 0.0
H367 H 0.65554 0.28558 0.65375 0.0
H368 H 0.66595 0.33382 0.69141 0.0
C369 C 0.65582 0.30484 0.70014 0.0
H370 H 0.66331 0.28544 0.7403 0.0
H371 H 0.67885 0.27456 0.89007 0.0
O372 O 0.56128 0.35773 0.85841 0.0
C373 C 0.61767 0.29138 0.95173 0.0
Co374 Co 0.91117 0.64361 0.36399 0.0
Co375 Co 0.85927 0.65426 0.36672 0.0
C376 C 0.88152 0.57556 0.41932 0.0
O377 O 0.90051 0.58968 0.40473 0.0
O378 O 0.86411 0.59634 0.40543 0.0
C379 C 0.95558 0.61077 0.33539 0.0
O380 O 0.94602 0.57653 0.31038 0.0
C381 C 0.81357 0.64041 0.31948 0.0
C382 C 0.7968 0.69699 0.36211 0.0
C383 C 0.79347 0.66118 0.3226 0.0
N384 N 0.82824 0.66315 0.35512 0.0
N385 N 0.81797 0.69669 0.38095 0.0
C386 C 0.81873 0.59996 0.28258 0.0
H387 H 0.8367 0.59458 0.28055 0.0
H388 H 0.81186 0.60156 0.23162 0.0
H389 H 0.81084 0.57243 0.30826 0.0
C390 C 0.90356 0.66758 0.22224 0.0
N391 N 0.89625 0.6562 0.28301 0.0
N392 N 0.87484 0.66194 0.28507 0.0
C393 C 0.8682 0.67804 0.22624 0.0
C394 C 0.88609 0.68197 0.18476 0.0
C395 C 0.92702 0.67087 0.20271 0.0
H396 H 0.93363 0.70159 0.22224 0.0
H397 H 0.93632 0.64346 0.22337 0.0
H398 H 0.92879 0.67108 0.14784 0.0
O399 O 0.90585 0.68955 0.42917 0.0
O400 O 0.86959 0.69646 0.43398 0.0
H401 H 0.83933 0.71211 0.25622 0.0
H402 H 0.84564 0.71694 0.16898 0.0
C403 C 0.8458 0.69487 0.21227 0.0
H404 H 0.83513 0.66716 0.20041 0.0
H405 H 0.82555 0.71998 0.41035 0.0
O406 O 0.94386 0.64153 0.3571 0.0
C407 C 0.88874 0.70683 0.45324 0.0
Co408 Co 0.41293 0.35275 0.86913 0.0
Co409 Co 0.36122 0.3401 0.8669 0.0
C410 C 0.38182 0.41947 0.92199 0.0
O411 O 0.40109 0.40602 0.90928 0.0
O412 O 0.36477 0.39813 0.9063 0.0
C413 C 0.45593 0.39255 0.86258 0.0
O414 O 0.4455 0.42861 0.87499 0.0
C415 C 0.31513 0.3558 0.8258 0.0
C416 C 0.30087 0.29096 0.83773 0.0
C417 C 0.29603 0.3322 0.81622 0.0
N418 N 0.33067 0.32931 0.85018 0.0
N419 N 0.3219 0.29075 0.85782 0.0
C420 C 0.31878 0.40244 0.81145 0.0
H421 H 0.32234 0.4195 0.85862 0.0
H422 H 0.33336 0.40605 0.77896 0.0
H423 H 0.30424 0.41725 0.78754 0.0
C424 C 0.40757 0.32736 0.72929 0.0
N425 N 0.39903 0.33946 0.78807 0.0
N426 N 0.37768 0.3334 0.78708 0.0
C427 C 0.37207 0.3169 0.72758 0.0
C428 C 0.39074 0.31262 0.68915 0.0
C429 C 0.43158 0.32434 0.71545 0.0
H430 H 0.4393 0.35617 0.72402 0.0
H431 H 0.43479 0.31387 0.66366 0.0
H432 H 0.43913 0.30107 0.75042 0.0
O433 O 0.40791 0.30627 0.93395 0.0
O434 O 0.37159 0.29848 0.93518 0.0
H435 H 0.34594 0.27292 0.74648 0.0
H436 H 0.34923 0.2865 0.65978 0.0
C437 C 0.34999 0.29914 0.71126 0.0
H438 H 0.33775 0.32496 0.71672 0.0
H439 H 0.33044 0.264 0.87546 0.0
O440 O 0.4453 0.35755 0.85718 0.0
C441 C 0.39062 0.28866 0.95647 0.0
Co442 Co 0.09455 0.645 0.38012 0.0
Co443 Co 0.14621 0.64873 0.36544 0.0
C444 C 0.12421 0.57302 0.42594 0.0
O445 O 0.10537 0.58941 0.41601 0.0
O446 O 0.1418 0.59203 0.40873 0.0
C447 C 0.05081 0.61625 0.34433 0.0
O448 O 0.06103 0.58932 0.30468 0.0
C449 C 0.19162 0.63148 0.31561 0.0
C450 C 0.20677 0.69517 0.33178 0.0
C451 C 0.21085 0.6546 0.30659 0.0
N452 N 0.17667 0.65755 0.34419 0.0
N453 N 0.18601 0.69538 0.35424 0.0
C454 C 0.18742 0.58594 0.29565 0.0
H455 H 0.16966 0.57845 0.29826 0.0
H456 H 0.19366 0.58026 0.24461 0.0
H457 H 0.19649 0.56418 0.32961 0.0
C458 C 0.09809 0.67417 0.23877 0.0
N459 N 0.10678 0.6579 0.29519 0.0
N460 N 0.12822 0.65559 0.28832 0.0
C461 C 0.13356 0.66836 0.2265 0.0
C462 C 0.1148 0.6811 0.1934 0.0
C463 C 0.07521 0.69076 0.23292 0.0
H464 H 0.07202 0.71316 0.27463 0.0
H465 H 0.06352 0.66364 0.23586 0.0
H466 H 0.07255 0.70791 0.18527 0.0
O467 O 0.10262 0.68963 0.44483 0.0
O468 O 0.13878 0.69372 0.43284 0.0
H469 H 0.16506 0.69806 0.2308 0.0
H470 H 0.15679 0.68237 0.14822 0.0
C471 C 0.15641 0.67315 0.20144 0.0
H472 H 0.16493 0.64197 0.20711 0.0
H473 H 0.17802 0.7218 0.37514 0.0
O474 O 0.06194 0.64221 0.3795 0.0
C475 C 0.12104 0.70563 0.46074 0.0
Co476 Co 0.4119 0.64043 0.13769 0.0
Co477 Co 0.36038 0.65154 0.13808 0.0
C478 C 0.3822 0.57268 0.08337 0.0
O479 O 0.40119 0.58586 0.09966 0.0
O480 O 0.36497 0.59443 0.09575 0.0
C481 C 0.45587 0.61723 0.10869 0.0
O482 O 0.4468 0.60111 0.05503 0.0
C483 C 0.31451 0.63274 0.17768 0.0
C484 C 0.29952 0.69718 0.16896 0.0
C485 C 0.29521 0.65539 0.18888 0.0
N486 N 0.32968 0.66035 0.15414 0.0
N487 N 0.32047 0.69863 0.14828 0.0
C488 C 0.31874 0.58607 0.19017 0.0
H489 H 0.32247 0.56997 0.14231 0.0
H490 H 0.33339 0.5826 0.22239 0.0
H491 H 0.30441 0.5702 0.21361 0.0
C492 C 0.40604 0.6667 0.27691 0.0
N493 N 0.39776 0.65382 0.21817 0.0
N494 N 0.37634 0.65845 0.21881 0.0
C495 C 0.37038 0.67469 0.2782 0.0
C496 C 0.38893 0.68044 0.31682 0.0
C497 C 0.42998 0.6715 0.29073 0.0
H498 H 0.43722 0.69429 0.25442 0.0
H499 H 0.43818 0.63993 0.28413 0.0
H500 H 0.43299 0.68343 0.34187 0.0
O501 O 0.40661 0.68588 0.0706 0.0
O502 O 0.37035 0.69492 0.0721 0.0
H503 H 0.34366 0.71767 0.26132 0.0
H504 H 0.34665 0.70124 0.34697 0.0
C505 C 0.34792 0.69049 0.29457 0.0
H506 H 0.33614 0.66421 0.28632 0.0
H507 H 0.32868 0.72608 0.13182 0.0
O508 O 0.44396 0.63579 0.15175 0.0
C509 C 0.3893 0.70428 0.04964 0.0
Co510 Co 0.09354 0.35045 0.63919 0.0
Co511 Co 0.14549 0.34345 0.64844 0.0
C512 C 0.12354 0.41961 0.58721 0.0
O513 O 0.10457 0.40444 0.5993 0.0
O514 O 0.14104 0.40019 0.60459 0.0
C515 C 0.0504 0.38851 0.64674 0.0
O516 O 0.06091 0.42516 0.6408 0.0
C517 C 0.19129 0.35796 0.69722 0.0
C518 C 0.20632 0.29541 0.67195 0.0
C519 C 0.21062 0.33454 0.7018 0.0
N520 N 0.17611 0.33344 0.66663 0.0
N521 N 0.18536 0.29627 0.65126 0.0
C522 C 0.1873 0.40245 0.72254 0.0
H523 H 0.16958 0.41043 0.72057 0.0
H524 H 0.19346 0.40536 0.7742 0.0
H525 H 0.19657 0.42566 0.6915 0.0
C526 C 0.09773 0.32607 0.77998 0.0
N527 N 0.10669 0.33909 0.72221 0.0
N528 N 0.12819 0.3372 0.7268 0.0
C529 C 0.13347 0.32329 0.78808 0.0
C530 C 0.11444 0.3155 0.82358 0.0
C531 C 0.07379 0.31811 0.78968 0.0
H532 H 0.06789 0.29531 0.75122 0.0
H533 H 0.06474 0.34878 0.78322 0.0
H534 H 0.07028 0.30487 0.83975 0.0
O535 O 0.10037 0.30436 0.57516 0.0
O536 O 0.13671 0.29935 0.58202 0.0
H537 H 0.16375 0.28966 0.77559 0.0
H538 H 0.15651 0.29952 0.86132 0.0
C539 C 0.15618 0.313 0.81031 0.0
H540 H 0.16583 0.3431 0.80998 0.0
H541 H 0.17722 0.27102 0.62769 0.0
O542 O 0.06104 0.35335 0.64796 0.0
C543 C 0.11846 0.28776 0.55708 0.0
C544 C 0.25211 0.15768 0.17935 0.0
C545 C 0.23362 0.1488 0.21957 0.0
C546 C 0.25817 0.13328 0.3133 0.0
C547 C 0.2759 0.15066 0.2768 0.0
N548 N 0.28967 0.18226 0.17573 0.0
N549 N 0.21884 0.12895 0.32654 0.0
C550 C 0.27296 0.163 0.20957 0.0
C551 C 0.23658 0.13593 0.28676 0.0
N552 N 0.24962 0.16111 0.11215 0.0
N553 N 0.26199 0.11449 0.37353 0.0
H554 H 0.20287 0.12928 0.30886 0.0
H555 H 0.21988 0.12516 0.37781 0.0
H556 H 0.27764 0.11239 0.39415 0.0
H557 H 0.25013 0.09755 0.39992 0.0
H558 H 0.26274 0.16383 0.07934 0.0
H559 H 0.23451 0.15667 0.08885 0.0
H560 H 0.28779 0.19634 0.12917 0.0
H561 H 0.30506 0.1872 0.19655 0.0
C562 C 0.23713 0.86391 0.7247 0.0
C563 C 0.23428 0.85238 0.79249 0.0
C564 C 0.27369 0.83961 0.80331 0.0
C565 C 0.27648 0.85 0.73523 0.0
N566 N 0.26241 0.88342 0.63645 0.0
N567 N 0.25029 0.84316 0.90055 0.0
C568 C 0.25868 0.86622 0.69785 0.0
C569 C 0.25281 0.84509 0.83321 0.0
N570 N 0.21932 0.86992 0.68486 0.0
N571 N 0.29059 0.822 0.83837 0.0
H572 H 0.23512 0.84766 0.92347 0.0
H573 H 0.26339 0.84162 0.93359 0.0
H574 H 0.30605 0.81737 0.81796 0.0
H575 H 0.28886 0.80915 0.88582 0.0
H576 H 0.22026 0.87265 0.63341 0.0
H577 H 0.2034 0.87005 0.70293 0.0
H578 H 0.25047 0.89943 0.60901 0.0
H579 H 0.27805 0.88522 0.6157 0.0
C580 C 0.73574 0.83326 0.78269 0.0
C581 C 0.73296 0.84429 0.71484 0.0
C582 C 0.77231 0.85886 0.70534 0.0
C583 C 0.77499 0.84795 0.77342 0.0
N584 N 0.75854 0.83844 0.88089 0.0
N585 N 0.74723 0.87804 0.61646 0.0
C586 C 0.75638 0.83994 0.81342 0.0
C587 C 0.75083 0.86081 0.6779 0.0
N588 N 0.71918 0.81366 0.8167 0.0
N589 N 0.79023 0.86464 0.66581 0.0
H590 H 0.73166 0.87955 0.59513 0.0
H591 H 0.75921 0.89429 0.58951 0.0
H592 H 0.80614 0.86439 0.6841 0.0
H593 H 0.7894 0.86719 0.61433 0.0
H594 H 0.72104 0.80077 0.86409 0.0
H595 H 0.70415 0.80668 0.79507 0.0
H596 H 0.74525 0.83644 0.91318 0.0
H597 H 0.77351 0.84384 0.90456 0.0
C598 C 0.75043 0.13591 0.31876 0.0
C599 C 0.73279 0.15398 0.28258 0.0
C600 C 0.75624 0.15893 0.18415 0.0
C601 C 0.77474 0.14912 0.22368 0.0
N602 N 0.78977 0.12974 0.33045 0.0
N603 N 0.71937 0.18717 0.18221 0.0
C604 C 0.77193 0.13718 0.29129 0.0
C605 C 0.7357 0.16612 0.21524 0.0
N606 N 0.74662 0.11775 0.37944 0.0
N607 N 0.75843 0.16167 0.11678 0.0
H608 H 0.70444 0.19459 0.20425 0.0
H609 H 0.72138 0.20078 0.13535 0.0
H610 H 0.77332 0.15594 0.09285 0.0
H611 H 0.74518 0.16504 0.08462 0.0
H612 H 0.75839 0.10039 0.40559 0.0
H613 H 0.73106 0.11667 0.40085 0.0
H614 H 0.78892 0.12639 0.38183 0.0
H615 H 0.80567 0.12939 0.31205 0.0
C616 C 0.73368 0.63457 0.29206 0.0
C617 C 0.73131 0.6474 0.22465 0.0
C618 C 0.77031 0.66481 0.21928 0.0
C619 C 0.77288 0.65139 0.28617 0.0
N620 N 0.75846 0.61353 0.38073 0.0
N621 N 0.74842 0.66089 0.11917 0.0
C622 C 0.75502 0.63271 0.3206 0.0
C623 C 0.75008 0.65757 0.1866 0.0
N624 N 0.71561 0.62689 0.33012 0.0
N625 N 0.78654 0.68741 0.18842 0.0
H626 H 0.73375 0.65516 0.09406 0.0
H627 H 0.76195 0.66468 0.08815 0.0
H628 H 0.80097 0.69594 0.21236 0.0
H629 H 0.78471 0.7016 0.14189 0.0
H630 H 0.71619 0.62286 0.38141 0.0
H631 H 0.6998 0.62706 0.31103 0.0
H632 H 0.74651 0.59579 0.4055 0.0
H633 H 0.77389 0.61204 0.40289 0.0
C634 C 0.77051 0.36142 0.77881 0.0
C635 C 0.77337 0.3497 0.71106 0.0
C636 C 0.73401 0.33549 0.70126 0.0
C637 C 0.73118 0.34663 0.76904 0.0
N638 N 0.74524 0.38123 0.86692 0.0
N639 N 0.75717 0.33916 0.60351 0.0
C640 C 0.74897 0.36347 0.80589 0.0
C641 C 0.7548 0.34144 0.67087 0.0
N642 N 0.78832 0.36789 0.8185 0.0
N643 N 0.71726 0.31671 0.66695 0.0
H644 H 0.77223 0.34408 0.58015 0.0
H645 H 0.74399 0.33695 0.57083 0.0
H646 H 0.70194 0.31128 0.68787 0.0
H647 H 0.71907 0.30347 0.61977 0.0
H648 H 0.78739 0.37076 0.86993 0.0
H649 H 0.80424 0.36813 0.80042 0.0
H650 H 0.75714 0.39777 0.89375 0.0
H651 H 0.72963 0.38291 0.88792 0.0
C652 C 0.2497 0.35826 0.69496 0.0
C653 C 0.23165 0.34585 0.73472 0.0
C654 C 0.2558 0.34198 0.83187 0.0
C655 C 0.27427 0.34568 0.7897 0.0
N656 N 0.28903 0.35679 0.67977 0.0
N657 N 0.21741 0.32369 0.84101 0.0
C658 C 0.27132 0.35456 0.721 0.0
C659 C 0.23459 0.33781 0.80351 0.0
N660 N 0.24611 0.37333 0.63218 0.0
N661 N 0.25863 0.34249 0.89916 0.0
H662 H 0.20168 0.32032 0.82193 0.0
H663 H 0.21905 0.31242 0.88944 0.0
H664 H 0.27402 0.34618 0.92106 0.0
H665 H 0.2457 0.34377 0.93282 0.0
H666 H 0.25834 0.38671 0.60262 0.0
H667 H 0.23042 0.37618 0.61206 0.0
H668 H 0.28785 0.35749 0.62822 0.0
H669 H 0.30505 0.35562 0.69697 0.0
C670 C 0.23405 0.6485 0.20372 0.0
C671 C 0.2315 0.6417 0.27297 0.0
C672 C 0.27115 0.6321 0.28492 0.0
C673 C 0.27376 0.64078 0.21603 0.0
N674 N 0.25772 0.64314 0.10719 0.0
N675 N 0.2463 0.61516 0.3756 0.0
C676 C 0.25513 0.64411 0.17456 0.0
C677 C 0.24967 0.6293 0.31218 0.0
N678 N 0.21661 0.66156 0.16647 0.0
N679 N 0.28909 0.62915 0.32504 0.0
H680 H 0.2307 0.61305 0.39655 0.0
H681 H 0.25857 0.60188 0.40508 0.0
H682 H 0.30499 0.62889 0.30669 0.0
H683 H 0.28829 0.62878 0.37667 0.0
H684 H 0.21791 0.67212 0.11758 0.0
H685 H 0.20092 0.66437 0.18602 0.0
H686 H 0.24469 0.64167 0.07392 0.0
H687 H 0.27305 0.63936 0.08491 0.0
C688 C 0.9944 0.09916 0.18721 0.0
C689 C 0.98073 0.11224 0.13393 0.0
C690 C 0.01299 0.13446 0.07018 0.0
C691 C 0.02675 0.11738 0.12046 0.0
N692 N 0.03067 0.07682 0.222 0.0
N693 N 0.97713 0.13373 0.01919 0.0
C694 C 0.0175 0.09796 0.17783 0.0
C695 C 0.99005 0.12752 0.07383 0.0
N696 N 0.98541 0.08935 0.24749 0.0
N697 N 0.02171 0.15894 0.02033 0.0
H698 H 0.96031 0.1279 0.01901 0.0
H699 H 0.98342 0.14045 0.97224 0.0
H700 H 0.03838 0.16588 0.01675 0.0
H701 H 0.01217 0.17598 0.98645 0.0
H702 H 0.99468 0.08434 0.29019 0.0
H703 H 0.96858 0.08982 0.25633 0.0
H704 H 0.02464 0.05818 0.26087 0.0
H705 H 0.04762 0.07461 0.21646 0.0
C706 C 0.51276 0.86063 0.56793 0.0
C707 C 0.52688 0.87937 0.6158 0.0
C708 C 0.49509 0.89847 0.68442 0.0
C709 C 0.48099 0.88369 0.63328 0.0
N710 N 0.47639 0.85897 0.52041 0.0
N711 N 0.53154 0.92246 0.71454 0.0
C712 C 0.48981 0.86702 0.57334 0.0
C713 C 0.51808 0.89997 0.67284 0.0
N714 N 0.52117 0.83514 0.51877 0.0
N715 N 0.48661 0.90969 0.7448 0.0
H716 H 0.54841 0.92489 0.70731 0.0
H717 H 0.52578 0.94191 0.75286 0.0
H718 H 0.46987 0.90901 0.75514 0.0
H719 H 0.49624 0.91609 0.7863 0.0
H720 H 0.51143 0.81695 0.4869 0.0
H721 H 0.53785 0.82864 0.51395 0.0
H722 H 0.48225 0.85119 0.47333 0.0
H723 H 0.45952 0.86424 0.52149 0.0
C724 C 0.98966 0.87238 0.93095 0.0
C725 C 0.98117 0.88519 0.86835 0.0
C726 C 0.0186 0.89704 0.82748 0.0
C727 C 0.02703 0.88026 0.88794 0.0
N728 N 0.0206 0.84405 0.9921 0.0
N729 N 0.98738 0.90391 0.7537 0.0
C730 C 0.01256 0.86575 0.93831 0.0
C731 C 0.9956 0.89597 0.81563 0.0
N732 N 0.97595 0.86831 0.9843 0.0
N733 N 0.03247 0.91566 0.78258 0.0
H734 H 0.97066 0.90407 0.74332 0.0
H735 H 0.99715 0.90696 0.71157 0.0
H736 H 0.04937 0.91754 0.78967 0.0
H737 H 0.0271 0.93257 0.74103 0.0
H738 H 0.98152 0.86368 0.03265 0.0
H739 H 0.95912 0.87379 0.98158 0.0
H740 H 0.01064 0.82864 0.02672 0.0
H741 H 0.03723 0.83773 0.99881 0.0
C742 C 0.5181 0.09073 0.32816 0.0
C743 C 0.52713 0.11365 0.38271 0.0
C744 C 0.49026 0.12627 0.42669 0.0
C745 C 0.48114 0.10703 0.36903 0.0
N746 N 0.48616 0.07711 0.25963 0.0
N747 N 0.52169 0.16124 0.47602 0.0
C748 C 0.495 0.0909 0.31824 0.0
C749 C 0.51318 0.13366 0.42984 0.0
N750 N 0.53149 0.06737 0.28736 0.0
N751 N 0.47715 0.1359 0.47975 0.0
H752 H 0.53834 0.16853 0.47897 0.0
H753 H 0.51202 0.18025 0.50695 0.0
H754 H 0.46033 0.13005 0.48035 0.0
H755 H 0.48328 0.14566 0.52561 0.0
H756 H 0.52566 0.04634 0.2512 0.0
H757 H 0.54844 0.06601 0.29335 0.0
H758 H 0.49553 0.0695 0.21803 0.0
H759 H 0.46934 0.07674 0.25059 0.0
C760 C 0.48906 0.59498 0.17428 0.0
C761 C 0.47995 0.6153 0.11748 0.0
C762 C 0.51675 0.62663 0.07231 0.0
C763 C 0.52592 0.61036 0.132 0.0
N764 N 0.52098 0.58531 0.24435 0.0
N765 N 0.48516 0.65857 0.01919 0.0
C766 C 0.51213 0.59619 0.18432 0.0
C767 C 0.4938 0.63338 0.0683 0.0
N768 N 0.47581 0.573 0.21723 0.0
N769 N 0.52982 0.63397 0.01834 0.0
H770 H 0.46847 0.66534 0.01538 0.0
H771 H 0.49474 0.6763 0.98627 0.0
H772 H 0.54667 0.62835 0.01841 0.0
H773 H 0.52367 0.64146 0.9715 0.0
H774 H 0.48176 0.55373 0.25548 0.0
H775 H 0.45888 0.57079 0.21118 0.0
H776 H 0.5116 0.57944 0.28659 0.0
H777 H 0.53778 0.58569 0.2536 0.0
C778 C 0.01411 0.37239 0.59393 0.0
C779 C 0.02613 0.3881 0.64919 0.0
C780 C 0.99182 0.40195 0.70929 0.0
C781 C 0.97981 0.38903 0.65229 0.0
N782 N 0.9793 0.36984 0.5362 0.0
N783 N 0.0269 0.42205 0.75683 0.0
C784 C 0.99089 0.37611 0.59356 0.0
C785 C 0.0151 0.40429 0.70602 0.0
N786 N 0.02489 0.35401 0.54155 0.0
N787 N 0.98101 0.4102 0.7674 0.0
H788 H 0.04398 0.42202 0.75818 0.0
H789 H 0.01987 0.43913 0.79585 0.0
H790 H 0.964 0.40925 0.77164 0.0
H791 H 0.98884 0.41487 0.81272 0.0
H792 H 0.017 0.337 0.50397 0.0
H793 H 0.04191 0.35326 0.5375 0.0
H794 H 0.98658 0.3651 0.49003 0.0
H795 H 0.96234 0.37335 0.53318 0.0
C796 C 0.49249 0.37416 0.91183 0.0
C797 C 0.4802 0.39225 0.85891 0.0
C798 C 0.51421 0.40814 0.79846 0.0
C799 C 0.52652 0.39291 0.8535 0.0
N800 N 0.52759 0.36906 0.96748 0.0
N801 N 0.47892 0.4307 0.75505 0.0
C802 C 0.51572 0.37773 0.91142 0.0
C803 C 0.49095 0.41066 0.80325 0.0
N804 N 0.48196 0.35359 0.96271 0.0
N805 N 0.52469 0.41837 0.74054 0.0
H806 H 0.46183 0.43108 0.75487 0.0
H807 H 0.48579 0.44923 0.71738 0.0
H808 H 0.54165 0.41702 0.73509 0.0
H809 H 0.51658 0.42496 0.69625 0.0
H810 H 0.49003 0.33502 0.99811 0.0
H811 H 0.46496 0.35263 0.96738 0.0
H812 H 0.52054 0.36248 0.01343 0.0
H813 H 0.54457 0.37234 0.97 0.0
C814 C 0.99181 0.57776 0.36798 0.0
C815 C 0.97997 0.613 0.34082 0.0
C816 C 0.01435 0.65368 0.33123 0.0
C817 C 0.02643 0.61612 0.34785 0.0
N818 N 0.02666 0.54138 0.38084 0.0
N819 N 0.98079 0.68272 0.2874 0.0
C820 C 0.01514 0.57774 0.36534 0.0
C821 C 0.99144 0.65057 0.3204 0.0
N822 N 0.98088 0.5456 0.40043 0.0
N823 N 0.02451 0.69273 0.32633 0.0
H824 H 0.96408 0.68251 0.27858 0.0
H825 H 0.98884 0.70782 0.2633 0.0
H826 H 0.04119 0.69723 0.33294 0.0
H827 H 0.01599 0.72168 0.32244 0.0
H828 H 0.98871 0.52135 0.42706 0.0
H829 H 0.96395 0.54561 0.40727 0.0
H830 H 0.01944 0.51113 0.38495 0.0
H831 H 0.04362 0.54095 0.38676 0.0
C832 C 0.11782 0.03935 0.97736 0.0
C833 C 0.1264 0.03811 0.0431 0.0
C834 C 0.13446 0.96146 0.03072 0.0
C835 C 0.12708 0.96322 0.96382 0.0
N836 N 0.11545 0.00477 0.86946 0.0
N837 N 0.14612 0.00031 0.1289 0.0
C838 C 0.11981 0.00248 0.93597 0.0
C839 C 0.13593 -3e-05 0.06844 0.0
N840 N 0.10751 0.07555 0.95465 0.0
N841 N 0.13862 0.92258 0.05969 0.0
H842 H 0.14636 0.02715 0.15995 0.0
H843 H 0.15564 0.9749 0.14635 0.0
H844 H 0.13696 0.89365 0.03431 0.0
H845 H 0.14167 0.91858 0.11017 0.0
H846 H 0.09858 0.07664 0.91065 0.0
H847 H 0.10663 0.1041 0.98159 0.0
H848 H 0.11234 0.03342 0.84443 0.0
H849 H 0.11682 0.9783 0.83784 0.0
C850 C 0.37221 0.9966 0.5659 0.0
C851 C 0.3818 0.95841 0.5405 0.0
C852 C 0.38771 0.99364 0.43265 0.0
C853 C 0.38036 0.0329 0.46033 0.0
N854 N 0.36768 0.07378 0.55479 0.0
N855 N 0.39979 0.92041 0.45082 0.0
C856 C 0.3729 0.03488 0.52715 0.0
C857 C 0.38987 0.95689 0.47414 0.0
N858 N 0.36262 0.9964 0.62727 0.0
N859 N 0.39191 0.99128 0.36602 0.0
H860 H 0.40043 0.89165 0.47726 0.0
H861 H 0.40852 0.91907 0.40648 0.0
H862 H 0.39034 0.01765 0.33429 0.0
H863 H 0.39507 0.96268 0.34091 0.0
H864 H 0.35301 0.0215 0.64524 0.0
H865 H 0.36309 0.96993 0.65903 0.0
H866 H 0.36482 0.07827 0.60526 0.0
H867 H 0.36768 0.10254 0.52817 0.0
C868 C 0.89022 0.00016 0.93151 0.0
C869 C 0.88096 0.96172 0.95688 0.0
C870 C 0.87321 0.99744 0.06331 0.0
C871 C 0.88181 0.03622 0.03702 0.0
N872 N 0.89492 0.07715 0.9431 0.0
N873 N 0.86157 0.92387 0.04371 0.0
C874 C 0.88937 0.0383 0.97029 0.0
C875 C 0.87164 0.96051 0.02166 0.0
N876 N 0.9001 3e-05 0.87051 0.0
N877 N 0.86768 0.99536 0.12908 0.0
H878 H 0.86146 0.89509 0.01717 0.0
H879 H 0.85219 0.92236 0.08678 0.0
H880 H 0.86862 0.02176 0.16093 0.0
H881 H 0.86363 0.96703 0.15366 0.0
H882 H 0.90979 0.02511 0.85292 0.0
H883 H 0.8996 0.97372 0.8384 0.0
H884 H 0.89799 0.08177 0.89278 0.0
H885 H 0.89485 0.10586 0.96977 0.0
C886 C 0.63591 0.03631 0.52203 0.0
C887 C 0.62833 0.03427 0.45533 0.0
C888 C 0.6185 0.95852 0.47001 0.0
C889 C 0.62699 0.95998 0.53581 0.0
N890 N 0.64707 0.99758 0.62101 0.0
N891 N 0.61664 0.99227 0.36149 0.0
C892 C 0.6369 0.99798 0.56053 0.0
C893 C 0.62084 0.99498 0.42807 0.0
N894 N 0.64087 0.07525 0.54996 0.0
N895 N 0.60793 0.92249 0.44772 0.0
H896 H 0.61843 0.01836 0.32934 0.0
H897 H 0.61337 0.96351 0.33694 0.0
H898 H 0.60681 0.89411 0.47498 0.0
H899 H 0.59902 0.92143 0.40369 0.0
H900 H 0.6439 0.07947 0.60041 0.0
H901 H 0.64028 0.10421 0.52393 0.0
H902 H 0.6568 0.02271 0.63828 0.0
H903 H 0.64706 0.97084 0.65228 0.0
C904 C 0.63516 0.49869 0.05987 0.0
C905 C 0.6254 0.53683 0.03493 0.0
C906 C 0.61926 0.50168 0.92708 0.0
C907 C 0.62679 0.46245 0.95437 0.0
N908 N 0.63981 0.42155 0.04834 0.0
N909 N 0.60702 0.57475 0.94589 0.0
C910 C 0.63445 0.46045 0.02098 0.0
C911 C 0.61713 0.53836 0.96879 0.0
N912 N 0.64494 0.49887 0.12096 0.0
N913 N 0.61484 0.50411 0.86058 0.0
H914 H 0.6064 0.60348 0.97242 0.0
H915 H 0.59814 0.57604 0.90184 0.0
H916 H 0.61637 0.4778 0.82871 0.0
H917 H 0.61154 0.53272 0.83568 0.0
H918 H 0.65468 0.47384 0.1385 0.0
H919 H 0.64449 0.52525 0.15291 0.0
H920 H 0.64283 0.41703 0.09871 0.0
H921 H 0.63975 0.39282 0.02165 0.0
C922 C 0.89108 0.46019 0.47228 0.0
C923 C 0.8819 0.46041 0.53733 0.0
C924 C 0.87188 0.53634 0.52436 0.0
C925 C 0.87996 0.53529 0.45815 0.0
N926 N 0.89309 0.49477 0.36447 0.0
N927 N 0.86089 0.4964 0.62229 0.0
C928 C 0.8884 0.49678 0.43084 0.0
C929 C 0.8713 0.4977 0.5622 0.0
N930 N 0.90256 0.42523 0.45005 0.0
N931 N 0.86602 0.57471 0.55257 0.0
H932 H 0.8615 0.46988 0.65391 0.0
H933 H 0.85051 0.52065 0.63916 0.0
H934 H 0.86617 0.60385 0.52701 0.0
H935 H 0.86261 0.57842 0.60289 0.0
H936 H 0.91197 0.42543 0.40693 0.0
H937 H 0.90399 0.39661 0.47648 0.0
H938 H 0.897 0.46639 0.33972 0.0
H939 H 0.89103 0.52088 0.3325 0.0
C940 C 0.37155 0.45768 0.02723 0.0
C941 C 0.3795 0.45951 0.96092 0.0
C942 C 0.38929 0.53527 0.97538 0.0
C943 C 0.38054 0.53399 0.04089 0.0
N944 N 0.36022 0.49666 0.12584 0.0
N945 N 0.39176 0.50108 0.86729 0.0
C946 C 0.37052 0.49608 0.06556 0.0
C947 C 0.38718 0.49865 0.93368 0.0
N948 N 0.36626 0.41886 0.05498 0.0
N949 N 0.39987 0.57131 0.95316 0.0
H950 H 0.39017 0.47485 0.8353 0.0
H951 H 0.39519 0.52971 0.8426 0.0
H952 H 0.40075 0.59986 0.98009 0.0
H953 H 0.40899 0.57228 0.90952 0.0
H954 H 0.36295 0.4147 0.10527 0.0
H955 H 0.36677 0.38989 0.02895 0.0
H956 H 0.35035 0.47169 0.14297 0.0
H957 H 0.3603 0.52337 0.15716 0.0
C958 C 0.12202 0.49291 0.43588 0.0
C959 C 0.12557 0.53335 0.46614 0.0
C960 C 0.1309 0.49845 0.57427 0.0
C961 C 0.1251 0.45854 0.54533 0.0
N962 N 0.11239 0.41792 0.45044 0.0
N963 N 0.12957 0.57609 0.56535 0.0
C964 C 0.11989 0.45577 0.47657 0.0
C965 C 0.12912 0.53655 0.53568 0.0
N966 N 0.12103 0.48998 0.36821 0.0
N967 N 0.13793 0.5 0.63866 0.0
H968 H 0.12762 0.60458 0.5388 0.0
H969 H 0.12981 0.58061 0.61656 0.0
H970 H 0.13856 0.47295 0.66927 0.0
H971 H 0.14466 0.52742 0.66027 0.0
H972 H 0.12083 0.4609 0.34258 0.0
H973 H 0.12224 0.51678 0.3372 0.0
H974 H 0.10606 0.41509 0.40266 0.0
H975 H 0.11093 0.38974 0.47805 0.0
C976 C 0.11773 0.2435 0.87721 0.0
C977 C 0.11283 0.28789 0.88342 0.0
C978 C 0.10883 0.27956 0.00392 0.0
C979 C 0.11633 0.23651 0.99812 0.0
N980 N 0.13084 0.17883 0.93063 0.0
N981 N 0.105 0.34963 0.95155 0.0
C982 C 0.12163 0.21886 0.93514 0.0
C983 C 0.10859 0.30635 0.9465 0.0
N984 N 0.11811 0.22466 0.81582 0.0
N985 N 0.10191 0.29461 0.06414 0.0
H986 H 0.10403 0.36975 0.91018 0.0
H987 H 0.10418 0.36604 0.99653 0.0
H988 H 0.10276 0.2763 0.10749 0.0
H989 H 0.09414 0.32413 0.07061 0.0
H990 H 0.11925 0.19157 0.80856 0.0
H991 H 0.11509 0.24157 0.77205 0.0
H992 H 0.13736 0.16641 0.88685 0.0
H993 H 0.1337 0.15917 0.97161 0.0
C994 C 0.38326 0.77749 0.42874 0.0
C995 C 0.38788 0.75927 0.49175 0.0
C996 C 0.39365 0.68869 0.44027 0.0
C997 C 0.39042 0.70773 0.37703 0.0
N998 N 0.38734 0.7716 0.30961 0.0
N999 N 0.4002 0.69953 0.55814 0.0
C1000 C 0.38678 0.75259 0.37084 0.0
C1001 C 0.39397 0.71541 0.49773 0.0
N1002 N 0.37508 0.81837 0.42422 0.0
N1003 N 0.39576 0.64504 0.44541 0.0
H1004 H 0.39973 0.71787 0.60152 0.0
H1005 H 0.40705 0.66916 0.56474 0.0
H1006 H 0.3962 0.62479 0.40411 0.0
H1007 H 0.39577 0.62859 0.49042 0.0
H1008 H 0.36917 0.83159 0.38022 0.0
H1009 H 0.37234 0.83794 0.46542 0.0
H1010 H 0.38709 0.80479 0.30259 0.0
H1011 H 0.39025 0.75451 0.26592 0.0
C1012 C 0.10743 0.72158 0.01551 0.0
C1013 C 0.11924 0.76096 0.01935 0.0
C1014 C 0.12374 0.75105 0.13912 0.0
C1015 C 0.11428 0.70962 0.13418 0.0
N1016 N 0.09869 0.65309 0.06763 0.0
N1017 N 0.143 0.80794 0.0829 0.0
C1018 C 0.10644 0.69422 0.07234 0.0
C1019 C 0.12875 0.77409 0.08049 0.0
N1020 N 0.09733 0.71024 0.95753 0.0
N1021 N 0.12739 0.76901 0.20013 0.0
H1022 H 0.1478 0.8253 0.04134 0.0
H1023 H 0.15201 0.8158 0.12512 0.0
H1024 H 0.1234 0.75359 0.2445 0.0
H1025 H 0.13212 0.80095 0.20662 0.0
H1026 H 0.08641 0.68465 0.95355 0.0
H1027 H 0.09909 0.72775 0.91367 0.0
H1028 H 0.09496 0.63813 0.0228 0.0
H1029 H 0.09721 0.63282 0.10869 0.0
C1030 C 0.39593 0.24065 0.6358 0.0
C1031 C 0.39269 0.28562 0.62882 0.0
C1032 C 0.38688 0.27724 0.50904 0.0
C1033 C 0.39097 0.23252 0.51565 0.0
N1034 N 0.40209 0.17179 0.58271 0.0
N1035 N 0.3882 0.34817 0.55984 0.0
C1036 C 0.39643 0.21432 0.57824 0.0
C1037 C 0.3891 0.30437 0.56561 0.0
N1038 N 0.39754 0.22283 0.69777 0.0
N1039 N 0.38061 0.29352 0.44889 0.0
H1040 H 0.38963 0.36876 0.60055 0.0
H1041 H 0.38767 0.36439 0.51469 0.0
H1042 H 0.37979 0.27486 0.4059 0.0
H1043 H 0.37506 0.32485 0.44193 0.0
H1044 H 0.39695 0.1899 0.70687 0.0
H1045 H 0.39808 0.24097 0.74128 0.0
H1046 H 0.40899 0.15798 0.62487 0.0
H1047 H 0.40115 0.15039 0.54298 0.0
C1048 C 0.8839 0.69042 0.06116 0.0
C1049 C 0.8873 0.70919 0.12449 0.0
C1050 C 0.89183 0.78033 0.07402 0.0
C1051 C 0.88717 0.76198 0.011 0.0
N1052 N 0.87664 0.70138 0.94367 0.0
N1053 N 0.892 0.77199 0.19362 0.0
C1054 C 0.88255 0.71749 0.00428 0.0
C1055 C 0.89069 0.75414 0.13159 0.0
N1056 N 0.88246 0.64666 0.05555 0.0
N1057 N 0.89747 0.82287 0.07873 0.0
H1058 H 0.89212 0.75393 0.23722 0.0
H1059 H 0.89159 0.80493 0.20268 0.0
H1060 H 0.89688 0.84418 0.03878 0.0
H1061 H 0.9039 0.83689 0.12141 0.0
H1062 H 0.88214 0.63035 0.01046 0.0
H1063 H 0.88307 0.62611 0.09647 0.0
H1064 H 0.87084 0.67027 0.9363 0.0
H1065 H 0.8763 0.72008 0.90067 0.0
C1066 C 0.60875 0.2148 0.57274 0.0
C1067 C 0.61393 0.23326 0.51013 0.0
C1068 C 0.61534 0.30507 0.56053 0.0
C1069 C 0.61224 0.28606 0.62382 0.0
N1070 N 0.60823 0.2229 0.69241 0.0
N1071 N 0.62348 0.2948 0.44345 0.0
C1072 C 0.60933 0.24097 0.63052 0.0
C1073 C 0.61757 0.27815 0.5037 0.0
N1074 N 0.60337 0.17213 0.57704 0.0
N1075 N 0.6158 0.34891 0.55497 0.0
H1076 H 0.62424 0.27629 0.40028 0.0
H1077 H 0.62877 0.3263 0.43655 0.0
H1078 H 0.61435 0.36934 0.59586 0.0
H1079 H 0.61596 0.36523 0.50988 0.0
H1080 H 0.59675 0.15803 0.6194 0.0
H1081 H 0.60418 0.15094 0.53701 0.0
H1082 H 0.60904 0.18993 0.70113 0.0
H1083 H 0.60798 0.24086 0.7361 0.0
C1084 C 0.88051 0.21875 0.92591 0.0
C1085 C 0.88678 0.23596 0.98832 0.0
C1086 C 0.89499 0.30538 0.93596 0.0
C1087 C 0.89031 0.28692 0.87317 0.0
N1088 N 0.88367 0.22378 0.80647 0.0
N1089 N 0.90224 0.29361 0.05318 0.0
C1090 C 0.88453 0.24291 0.86759 0.0
C1091 C 0.89477 0.27871 0.99347 0.0
N1092 N 0.87046 0.17949 0.9222 0.0
N1093 N 0.89903 0.34853 0.94068 0.0
H1094 H 0.90119 0.2757 0.09689 0.0
H1095 H 0.91052 0.32265 0.05889 0.0
H1096 H 0.89989 0.36861 0.89926 0.0
H1097 H 0.90022 0.36494 0.98558 0.0
H1098 H 0.86338 0.1676 0.87889 0.0
H1099 H 0.8674 0.16022 0.96347 0.0
H1100 H 0.88187 0.19075 0.79971 0.0
H1101 H 0.887 0.24017 0.76243 0.0
C1102 C 0.60755 0.71914 0.49257 0.0
C1103 C 0.61549 0.76187 0.48647 0.0
C1104 C 0.61706 0.75417 0.3656 0.0
C1105 C 0.61178 0.70997 0.37223 0.0
N1106 N 0.60316 0.64894 0.44096 0.0
N1107 N 0.6305 0.81879 0.41851 0.0
C1108 C 0.60717 0.69205 0.43545 0.0
C1109 C 0.62102 0.77903 0.42334 0.0
N1110 N 0.60037 0.70463 0.55282 0.0
N1111 N 0.61773 0.77262 0.30397 0.0
H1112 H 0.63338 0.83861 0.45931 0.0
H1113 H 0.63719 0.83082 0.37472 0.0
H1114 H 0.61464 0.75553 0.26041 0.0
H1115 H 0.6192 0.80562 0.29625 0.0
H1116 H 0.59228 0.67546 0.55945 0.0
H1117 H 0.6013 0.72309 0.59601 0.0
H1118 H 0.60208 0.63281 0.48612 0.0
H1119 H 0.60208 0.62864 0.39983 0.0
C1120 C 0.62341 0.71782 0.92507 0.0
C1121 C 0.61881 0.73609 0.98807 0.0
C1122 C 0.61326 0.80673 0.93655 0.0
C1123 C 0.61647 0.78765 0.87332 0.0
N1124 N 0.61941 0.72372 0.80593 0.0
N1125 N 0.60664 0.79597 0.05443 0.0
C1126 C 0.61997 0.74275 0.86716 0.0
C1127 C 0.61284 0.78003 0.99404 0.0
N1128 N 0.63153 0.67691 0.92055 0.0
N1129 N 0.61124 0.8504 0.94165 0.0
H1130 H 0.60703 0.7776 0.09779 0.0
H1131 H 0.5999 0.82644 0.06106 0.0
H1132 H 0.61087 0.87063 0.90031 0.0
H1133 H 0.61123 0.86687 0.98664 0.0
H1134 H 0.63743 0.66364 0.87656 0.0
H1135 H 0.63425 0.65734 0.96176 0.0
H1136 H 0.61954 0.69052 0.79896 0.0
H1137 H 0.61663 0.74081 0.76219 0.0
C1138 C 0.88763 0.25368 0.36577 0.0
C1139 C 0.89404 0.20993 0.37219 0.0
C1140 C 0.89635 0.21756 0.49325 0.0
C1141 C 0.88989 0.26119 0.4868 0.0
N1142 N 0.88083 0.32254 0.41881 0.0
N1143 N 0.90736 0.15114 0.43851 0.0
C1144 C 0.88586 0.2797 0.42351 0.0
C1145 C 0.89931 0.19215 0.43502 0.0
N1146 N 0.88293 0.27002 0.30425 0.0
N1147 N 0.89892 0.20031 0.55525 0.0
H1148 H 0.90941 0.13172 0.39671 0.0
H1149 H 0.91333 0.13703 0.48166 0.0
H1150 H 0.89694 0.2183 0.5986 0.0
H1151 H 0.90172 0.16787 0.5645 0.0
H1152 H 0.87541 0.29954 0.29596 0.0
H1153 H 0.88606 0.25343 0.26028 0.0
H1154 H 0.88027 0.33973 0.37459 0.0
H1155 H 0.8779 0.34196 0.46004 0.0
C1156 C 0.6197 0.19112 0.06041 0.0
C1157 C 0.61594 0.2097 0.12368 0.0
C1158 C 0.61132 0.28084 0.07312 0.0
C1159 C 0.61676 0.26285 0.01036 0.0
N1160 N 0.62772 0.2023 0.94345 0.0
N1161 N 0.61053 0.27227 0.19271 0.0
C1162 C 0.62142 0.21833 0.00374 0.0
C1163 C 0.61223 0.25454 0.13069 0.0
N1164 N 0.62118 0.14737 0.05465 0.0
N1165 N 0.6053 0.32317 0.07775 0.0
H1166 H 0.61035 0.25413 0.23622 0.0
H1167 H 0.61074 0.30522 0.20184 0.0
H1168 H 0.60599 0.34463 0.03804 0.0
H1169 H 0.59839 0.33677 0.12006 0.0
H1170 H 0.62182 0.13116 0.00951 0.0
H1171 H 0.62019 0.12674 0.0954 0.0
H1172 H 0.63368 0.17127 0.9364 0.0
H1173 H 0.62814 0.22092 0.90037 0.0
C1174 C 0.889 0.78027 0.50499 0.0
C1175 C 0.89122 0.73507 0.51164 0.0
C1176 C 0.89614 0.74233 0.63184 0.0
C1177 C 0.89485 0.7877 0.62492 0.0
N1178 N 0.8934 0.85073 0.55576 0.0
N1179 N 0.90031 0.67302 0.57849 0.0
C1180 C 0.89233 0.80695 0.56157 0.0
C1181 C 0.89594 0.71613 0.57419 0.0
N1182 N 0.88337 0.79745 0.44487 0.0
N1183 N 0.89644 0.72414 0.69373 0.0
H1184 H 0.89922 0.65203 0.53825 0.0
H1185 H 0.90651 0.65833 0.62097 0.0
H1186 H 0.89718 0.74199 0.73747 0.0
H1187 H 0.8944 0.69136 0.70227 0.0
H1188 H 0.8792 0.8296 0.43791 0.0
H1189 H 0.8816 0.77886 0.40206 0.0
H1190 H 0.89367 0.8669 0.51054 0.0
H1191 H 0.89573 0.87096 0.5965 0.0
C1192 C 0.38896 0.2154 0.00874 0.0
C1193 C 0.39254 0.2603 0.01504 0.0
C1194 C 0.39731 0.25279 0.13538 0.0
C1195 C 0.39448 0.20767 0.12879 0.0
N1196 N 0.39086 0.14471 0.06023 0.0
N1197 N 0.40292 0.32166 0.08177 0.0
C1198 C 0.3913 0.18856 0.06562 0.0
C1199 C 0.3977 0.27891 0.07757 0.0
N1200 N 0.38302 0.19865 0.94858 0.0
N1201 N 0.39854 0.27091 0.19722 0.0
H1202 H 0.40189 0.34286 0.0418 0.0
H1203 H 0.40958 0.3359 0.12396 0.0
H1204 H 0.39904 0.25298 0.24092 0.0
H1205 H 0.39764 0.30386 0.20597 0.0
H1206 H 0.37783 0.16708 0.94175 0.0
H1207 H 0.38212 0.21714 0.90543 0.0
H1208 H 0.39062 0.12831 0.01521 0.0
H1209 H 0.3924 0.12436 0.10117 0.0
C1210 C 0.12536 0.74382 0.63809 0.0
C1211 C 0.1173 0.78644 0.63329 0.0
C1212 C 0.11147 0.77653 0.51375 0.0
C1213 C 0.12179 0.73563 0.51788 0.0
N1214 N 0.14314 0.68486 0.58201 0.0
N1215 N 0.10473 0.84568 0.56638 0.0
C1216 C 0.13021 0.72071 0.57937 0.0
C1217 C 0.11083 0.80349 0.57102 0.0
N1218 N 0.12768 0.72481 0.69891 0.0
N1219 N 0.1023 0.78952 0.45518 0.0
H1220 H 0.10359 0.86586 0.60764 0.0
H1221 H 0.1021 0.86143 0.52146 0.0
H1222 H 0.10378 0.7719 0.41129 0.0
H1223 H 0.09237 0.8166 0.45073 0.0
H1224 H 0.13137 0.69231 0.705 0.0
H1225 H 0.12359 0.74021 0.74323 0.0
H1226 H 0.15141 0.67527 0.62477 0.0
H1227 H 0.14757 0.66719 0.54027 0.0
C1228 C 0.39007 0.7397 0.86968 0.0
C1229 C 0.39488 0.7841 0.87633 0.0
C1230 C 0.39846 0.7754 0.99693 0.0
C1231 C 0.39099 0.73236 0.99066 0.0
N1232 N 0.37694 0.67471 0.92232 0.0
N1233 N 0.40247 0.84563 0.94516 0.0
C1234 C 0.38602 0.71482 0.92735 0.0
C1235 C 0.39892 0.80236 0.93969 0.0
N1236 N 0.38984 0.72114 0.80809 0.0
N1237 N 0.40515 0.79031 0.05747 0.0
H1238 H 0.40362 0.86586 0.90396 0.0
H1239 H 0.4031 0.8619 0.99027 0.0
H1240 H 0.40416 0.77189 0.10069 0.0
H1241 H 0.41289 0.81981 0.06437 0.0
H1242 H 0.38872 0.68808 0.80043 0.0
H1243 H 0.39293 0.73829 0.76459 0.0
H1244 H 0.37067 0.66226 0.87826 0.0
H1245 H 0.37395 0.65499 0.96317 0.0
C1246 C 0.1211 0.25202 0.37791 0.0
C1247 C 0.11581 0.20779 0.38353 0.0
C1248 C 0.11067 0.21627 0.50361 0.0
C1249 C 0.11848 0.25915 0.49854 0.0
N1250 N 0.13478 0.31572 0.43248 0.0
N1251 N 0.10723 0.14616 0.45114 0.0
C1252 C 0.12484 0.27636 0.43619 0.0
C1253 C 0.11094 0.18941 0.44626 0.0
N1254 N 0.12183 0.27116 0.31679 0.0
N1255 N 0.10298 0.2014 0.56306 0.0
H1256 H 0.10676 0.12592 0.40983 0.0
H1257 H 0.10593 0.12988 0.49612 0.0
H1258 H 0.10357 0.21958 0.60659 0.0
H1259 H 0.09489 0.17214 0.5686 0.0
H1260 H 0.12332 0.30426 0.3101 0.0
H1261 H 0.11863 0.25465 0.27276 0.0
H1262 H 0.14192 0.32756 0.38921 0.0
H1263 H 0.13771 0.33511 0.4737 0.0
loop_
_geom_bond_atom_site_label_1
_geom_bond_atom_site_label_2
_geom_bond_distance
_geom_bond_site_symmetry_2
_ccdc_geom_bond_type
Co0 O3 1.970 . S
Co0 N17 1.989 . S
Co0 O25 1.967 . S
Co0 O32 1.920 . S
Co1 O4 1.966 . S
Co1 N10 2.022 . S
Co1 N18 1.993 . S
Co1 O26 1.941 . S
C2 O3 1.258 . S
C2 O4 1.263 . S
O3 Co0 1.970 . S
O3 C2 1.258 . S
O4 Co1 1.966 . S
O4 C2 1.263 . S
C5 O6 1.235 . S
C5 O32 1.289 . S
O6 C5 1.235 . S
C7 C9 1.400 . S
C7 N10 1.351 . S
C7 C12 1.501 . S
C8 C9 1.387 . S
C8 N11 1.341 . S
C9 C7 1.400 . S
C9 C8 1.387 . S
N10 Co1 2.022 . S
N10 C7 1.351 . S
N10 N11 1.365 . S
N11 C8 1.341 . S
N11 N10 1.365 . S
N11 H31 0.862 . S
C12 C7 1.501 . S
C12 H13 0.961 . S
C12 H14 0.961 . S
C12 H15 0.960 . S
H13 C12 0.961 . S
H14 C12 0.961 . S
H15 C12 0.960 . S
C16 N17 1.342 . S
C16 C20 1.401 . S
C16 C21 1.499 . S
N17 Co0 1.989 . S
N17 C16 1.342 . S
N17 N18 1.388 . S
N18 Co1 1.993 . S
N18 N17 1.388 . S
N18 C19 1.346 . S
C19 N18 1.346 . S
C19 C20 1.396 . S
C19 C29 1.510 . S
C20 C16 1.401 . S
C20 C19 1.396 . S
C21 C16 1.499 . S
C21 H22 0.959 . S
C21 H23 0.960 . S
C21 H24 0.961 . S
H22 C21 0.959 . S
H23 C21 0.960 . S
H24 C21 0.961 . S
O25 Co0 1.967 . S
O25 C33 1.258 . S
O26 Co1 1.941 . S
O26 C33 1.266 . S
H27 C29 0.959 . S
H28 C29 0.961 . S
C29 C19 1.510 . S
C29 H27 0.959 . S
C29 H28 0.961 . S
C29 H30 0.960 . S
H30 C29 0.960 . S
H31 N11 0.862 . S
O32 Co0 1.920 . S
O32 C5 1.289 . S
C33 O25 1.258 . S
C33 O26 1.266 . S
Co34 O37 1.970 . S
Co34 N51 1.989 . S
Co34 O59 1.967 . S
Co34 O66 1.920 . S
Co35 O38 1.966 . S
Co35 N44 2.022 . S
Co35 N52 1.993 . S
Co35 O60 1.941 . S
C36 O37 1.258 . S
C36 O38 1.263 . S
O37 Co34 1.970 . S
O37 C36 1.258 . S
O38 Co35 1.966 . S
O38 C36 1.263 . S
C39 O40 1.235 . S
C39 O66 1.289 . S
O40 C39 1.235 . S
C41 C43 1.400 . S
C41 N44 1.351 . S
C41 C46 1.501 . S
C42 C43 1.387 . S
C42 N45 1.341 . S
C43 C41 1.400 . S
C43 C42 1.387 . S
N44 Co35 2.022 . S
N44 C41 1.351 . S
N44 N45 1.365 . S
N45 C42 1.341 . S
N45 N44 1.365 . S
N45 H65 0.862 . S
C46 C41 1.501 . S
C46 H47 0.961 . S
C46 H48 0.961 . S
C46 H49 0.960 . S
H47 C46 0.961 . S
H48 C46 0.961 . S
H49 C46 0.960 . S
C50 N51 1.342 . S
C50 C54 1.401 . S
C50 C55 1.499 . S
N51 Co34 1.989 . S
N51 C50 1.342 . S
N51 N52 1.388 . S
N52 Co35 1.993 . S
N52 N51 1.388 . S
N52 C53 1.346 . S
C53 N52 1.346 . S
C53 C54 1.396 . S
C53 C63 1.510 . S
C54 C50 1.401 . S
C54 C53 1.396 . S
C55 C50 1.499 . S
C55 H56 0.959 . S
C55 H57 0.960 . S
C55 H58 0.961 . S
H56 C55 0.959 . S
H57 C55 0.960 . S
H58 C55 0.961 . S
O59 Co34 1.967 . S
O59 C67 1.258 . S
O60 Co35 1.941 . S
O60 C67 1.266 . S
H61 C63 0.959 . S
H62 C63 0.961 . S
C63 C53 1.510 . S
C63 H61 0.959 . S
C63 H62 0.961 . S
C63 H64 0.960 . S
H64 C63 0.960 . S
H65 N45 0.862 . S
O66 Co34 1.920 . S
O66 C39 1.289 . S
C67 O59 1.258 . S
C67 O60 1.266 . S
Co68 O71 1.970 . S
Co68 N85 1.989 . S
Co68 O93 1.967 . S
Co68 O100 1.920 . S
Co69 O72 1.966 . S
Co69 N78 2.022 . S
Co69 N86 1.993 . S
Co69 O94 1.941 . S
C70 O71 1.258 . S
C70 O72 1.263 . S
O71 Co68 1.970 . S
O71 C70 1.258 . S
O72 Co69 1.966 . S
O72 C70 1.263 . S
C73 O74 1.235 . S
C73 O100 1.289 . S
O74 C73 1.235 . S
C75 C77 1.400 . S
C75 N78 1.351 . S
C75 C80 1.501 . S
C76 C77 1.387 . S
C76 N79 1.341 . S
C77 C75 1.400 . S
C77 C76 1.387 . S
N78 Co69 2.022 . S
N78 C75 1.351 . S
N78 N79 1.365 . S
N79 C76 1.341 . S
N79 N78 1.365 . S
N79 H99 0.862 . S
C80 C75 1.501 . S
C80 H81 0.961 . S
C80 H82 0.961 . S
C80 H83 0.960 . S
H81 C80 0.961 . S
H82 C80 0.961 . S
H83 C80 0.960 . S
C84 N85 1.342 . S
C84 C88 1.401 . S
C84 C89 1.499 . S
N85 Co68 1.989 . S
N85 C84 1.342 . S
N85 N86 1.388 . S
N86 Co69 1.993 . S
N86 N85 1.388 . S
N86 C87 1.346 . S
C87 N86 1.346 . S
C87 C88 1.396 . S
C87 C97 1.510 . S
C88 C84 1.401 . S
C88 C87 1.396 . S
C89 C84 1.499 . S
C89 H90 0.959 . S
C89 H91 0.960 . S
C89 H92 0.961 . S
H90 C89 0.959 . S
H91 C89 0.960 . S
H92 C89 0.961 . S
O93 Co68 1.967 . S
O93 C101 1.258 . S
O94 Co69 1.941 . S
O94 C101 1.266 . S
H95 C97 0.959 . S
H96 C97 0.961 . S
C97 C87 1.510 . S
C97 H95 0.959 . S
C97 H96 0.961 . S
C97 H98 0.960 . S
H98 C97 0.960 . S
H99 N79 0.862 . S
O100 Co68 1.920 . S
O100 C73 1.289 . S
C101 O93 1.258 . S
C101 O94 1.266 . S
Co102 O105 1.970 . S
Co102 N119 1.989 . S
Co102 O127 1.967 . S
Co102 O134 1.920 . S
Co103 O106 1.966 . S
Co103 N112 2.022 . S
Co103 N120 1.993 . S
Co103 O128 1.941 . S
C104 O105 1.258 . S
C104 O106 1.263 . S
O105 Co102 1.970 . S
O105 C104 1.258 . S
O106 Co103 1.966 . S
O106 C104 1.263 . S
C107 O108 1.235 . S
C107 O134 1.289 . S
O108 C107 1.235 . S
C109 C111 1.400 . S
C109 N112 1.351 . S
C109 C114 1.501 . S
C110 C111 1.387 . S
C110 N113 1.341 . S
C111 C109 1.400 . S
C111 C110 1.387 . S
N112 Co103 2.022 . S
N112 C109 1.351 . S
N112 N113 1.365 . S
N113 C110 1.341 . S
N113 N112 1.365 . S
N113 H133 0.862 . S
C114 C109 1.501 . S
C114 H115 0.961 . S
C114 H116 0.961 . S
C114 H117 0.960 . S
H115 C114 0.961 . S
H116 C114 0.961 . S
H117 C114 0.960 . S
C118 N119 1.342 . S
C118 C122 1.401 . S
C118 C123 1.499 . S
N119 Co102 1.989 . S
N119 C118 1.342 . S
N119 N120 1.388 . S
N120 Co103 1.993 . S
N120 N119 1.388 . S
N120 C121 1.346 . S
C121 N120 1.346 . S
C121 C122 1.396 . S
C121 C131 1.510 . S
C122 C118 1.401 . S
C122 C121 1.396 . S
C123 C118 1.499 . S
C123 H124 0.959 . S
C123 H125 0.960 . S
C123 H126 0.961 . S
H124 C123 0.959 . S
H125 C123 0.960 . S
H126 C123 0.961 . S
O127 Co102 1.967 . S
O127 C135 1.258 . S
O128 Co103 1.941 . S
O128 C135 1.266 . S
H129 C131 0.959 . S
H130 C131 0.961 . S
C131 C121 1.510 . S
C131 H129 0.959 . S
C131 H130 0.961 . S
C131 H132 0.960 . S
H132 C131 0.960 . S
H133 N113 0.862 . S
O134 Co102 1.920 . S
O134 C107 1.289 . S
C135 O127 1.258 . S
C135 O128 1.266 . S
Co136 O139 1.970 . S
Co136 N153 1.989 . S
Co136 O161 1.967 . S
Co136 O168 1.920 . S
Co137 O140 1.966 . S
Co137 N146 2.022 . S
Co137 N154 1.993 . S
Co137 O162 1.941 . S
C138 O139 1.258 . S
C138 O140 1.263 . S
O139 Co136 1.970 . S
O139 C138 1.258 . S
O140 Co137 1.966 . S
O140 C138 1.263 . S
C141 O142 1.235 . S
C141 O168 1.289 . S
O142 C141 1.235 . S
C143 C145 1.400 . S
C143 N146 1.351 . S
C143 C148 1.501 . S
C144 C145 1.387 . S
C144 N147 1.341 . S
C145 C143 1.400 . S
C145 C144 1.387 . S
N146 Co137 2.022 . S
N146 C143 1.351 . S
N146 N147 1.365 . S
N147 C144 1.341 . S
N147 N146 1.365 . S
N147 H167 0.862 . S
C148 C143 1.501 . S
C148 H149 0.961 . S
C148 H150 0.961 . S
C148 H151 0.960 . S
H149 C148 0.961 . S
H150 C148 0.961 . S
H151 C148 0.960 . S
C152 N153 1.342 . S
C152 C156 1.401 . S
C152 C157 1.499 . S
N153 Co136 1.989 . S
N153 C152 1.342 . S
N153 N154 1.388 . S
N154 Co137 1.993 . S
N154 N153 1.388 . S
N154 C155 1.346 . S
C155 N154 1.346 . S
C155 C156 1.396 . S
C155 C165 1.510 . S
C156 C152 1.401 . S
C156 C155 1.396 . S
C157 C152 1.499 . S
C157 H158 0.959 . S
C157 H159 0.960 . S
C157 H160 0.961 . S
H158 C157 0.959 . S
H159 C157 0.960 . S
H160 C157 0.961 . S
O161 Co136 1.967 . S
O161 C169 1.258 . S
O162 Co137 1.941 . S
O162 C169 1.266 . S
H163 C165 0.959 . S
H164 C165 0.961 . S
C165 C155 1.510 . S
C165 H163 0.959 . S
C165 H164 0.961 . S
C165 H166 0.960 . S
H166 C165 0.960 . S
H167 N147 0.862 . S
O168 Co136 1.920 . S
O168 C141 1.289 . S
C169 O161 1.258 . S
C169 O162 1.266 . S
Co170 O173 1.970 . S
Co170 N187 1.989 . S
Co170 O195 1.967 . S
Co170 O202 1.920 . S
Co171 O174 1.966 . S
Co171 N180 2.022 . S
Co171 N188 1.993 . S
Co171 O196 1.941 . S
C172 O173 1.258 . S
C172 O174 1.263 . S
O173 Co170 1.970 . S
O173 C172 1.258 . S
O174 Co171 1.966 . S
O174 C172 1.263 . S
C175 O176 1.235 . S
C175 O202 1.289 . S
O176 C175 1.235 . S
C177 C179 1.400 . S
C177 N180 1.351 . S
C177 C182 1.501 . S
C178 C179 1.387 . S
C178 N181 1.341 . S
C179 C177 1.400 . S
C179 C178 1.387 . S
N180 Co171 2.022 . S
N180 C177 1.351 . S
N180 N181 1.365 . S
N181 C178 1.341 . S
N181 N180 1.365 . S
N181 H201 0.862 . S
C182 C177 1.501 . S
C182 H183 0.961 . S
C182 H184 0.961 . S
C182 H185 0.960 . S
H183 C182 0.961 . S
H184 C182 0.961 . S
H185 C182 0.960 . S
C186 N187 1.342 . S
C186 C190 1.401 . S
C186 C191 1.499 . S
N187 Co170 1.989 . S
N187 C186 1.342 . S
N187 N188 1.388 . S
N188 Co171 1.993 . S
N188 N187 1.388 . S
N188 C189 1.346 . S
C189 N188 1.346 . S
C189 C190 1.396 . S
C189 C199 1.510 . S
C190 C186 1.401 . S
C190 C189 1.396 . S
C191 C186 1.499 . S
C191 H192 0.959 . S
C191 H193 0.960 . S
C191 H194 0.961 . S
H192 C191 0.959 . S
H193 C191 0.960 . S
H194 C191 0.961 . S
O195 Co170 1.967 . S
O195 C203 1.258 . S
O196 Co171 1.941 . S
O196 C203 1.266 . S
H197 C199 0.959 . S
H198 C199 0.961 . S
C199 C189 1.510 . S
C199 H197 0.959 . S
C199 H198 0.961 . S
C199 H200 0.960 . S
H200 C199 0.960 . S
H201 N181 0.862 . S
O202 Co170 1.920 . S
O202 C175 1.289 . S
C203 O195 1.258 . S
C203 O196 1.266 . S
Co204 O207 1.970 . S
Co204 N221 1.989 . S
Co204 O229 1.967 . S
Co204 O236 1.920 . S
Co205 O208 1.966 . S
Co205 N214 2.022 . S
Co205 N222 1.993 . S
Co205 O230 1.941 . S
C206 O207 1.258 . S
C206 O208 1.263 . S
O207 Co204 1.970 . S
O207 C206 1.258 . S
O208 Co205 1.966 . S
O208 C206 1.263 . S
C209 O210 1.235 . S
C209 O236 1.289 . S
O210 C209 1.235 . S
C211 C213 1.400 . S
C211 N214 1.351 . S
C211 C216 1.501 . S
C212 C213 1.387 . S
C212 N215 1.341 . S
C213 C211 1.400 . S
C213 C212 1.387 . S
N214 Co205 2.022 . S
N214 C211 1.351 . S
N214 N215 1.365 . S
N215 C212 1.341 . S
N215 N214 1.365 . S
N215 H235 0.862 . S
C216 C211 1.501 . S
C216 H217 0.961 . S
C216 H218 0.961 . S
C216 H219 0.960 . S
H217 C216 0.961 . S
H218 C216 0.961 . S
H219 C216 0.960 . S
C220 N221 1.342 . S
C220 C224 1.401 . S
C220 C225 1.499 . S
N221 Co204 1.989 . S
N221 C220 1.342 . S
N221 N222 1.388 . S
N222 Co205 1.993 . S
N222 N221 1.388 . S
N222 C223 1.346 . S
C223 N222 1.346 . S
C223 C224 1.396 . S
C223 C233 1.510 . S
C224 C220 1.401 . S
C224 C223 1.396 . S
C225 C220 1.499 . S
C225 H226 0.959 . S
C225 H227 0.960 . S
C225 H228 0.961 . S
H226 C225 0.959 . S
H227 C225 0.960 . S
H228 C225 0.961 . S
O229 Co204 1.967 . S
O229 C237 1.258 . S
O230 Co205 1.941 . S
O230 C237 1.266 . S
H231 C233 0.959 . S
H232 C233 0.961 . S
C233 C223 1.510 . S
C233 H231 0.959 . S
C233 H232 0.961 . S
C233 H234 0.960 . S
H234 C233 0.960 . S
H235 N215 0.862 . S
O236 Co204 1.920 . S
O236 C209 1.289 . S
C237 O229 1.258 . S
C237 O230 1.266 . S
Co238 O241 1.970 . S
Co238 N255 1.989 . S
Co238 O263 1.967 . S
Co238 O270 1.920 . S
Co239 O242 1.966 . S
Co239 N248 2.022 . S
Co239 N256 1.993 . S
Co239 O264 1.941 . S
C240 O241 1.258 . S
C240 O242 1.263 . S
O241 Co238 1.970 . S
O241 C240 1.258 . S
O242 Co239 1.966 . S
O242 C240 1.263 . S
C243 O244 1.235 . S
C243 O270 1.289 . S
O244 C243 1.235 . S
C245 C247 1.400 . S
C245 N248 1.351 . S
C245 C250 1.501 . S
C246 C247 1.387 . S
C246 N249 1.341 . S
C247 C245 1.400 . S
C247 C246 1.387 . S
N248 Co239 2.022 . S
N248 C245 1.351 . S
N248 N249 1.365 . S
N249 C246 1.341 . S
N249 N248 1.365 . S
N249 H269 0.862 . S
C250 C245 1.501 . S
C250 H251 0.961 . S
C250 H252 0.961 . S
C250 H253 0.960 . S
H251 C250 0.961 . S
H252 C250 0.961 . S
H253 C250 0.960 . S
C254 N255 1.342 . S
C254 C258 1.401 . S
C254 C259 1.499 . S
N255 Co238 1.989 . S
N255 C254 1.342 . S
N255 N256 1.388 . S
N256 Co239 1.993 . S
N256 N255 1.388 . S
N256 C257 1.346 . S
C257 N256 1.346 . S
C257 C258 1.396 . S
C257 C267 1.510 . S
C258 C254 1.401 . S
C258 C257 1.396 . S
C259 C254 1.499 . S
C259 H260 0.959 . S
C259 H261 0.960 . S
C259 H262 0.961 . S
H260 C259 0.959 . S
H261 C259 0.960 . S
H262 C259 0.961 . S
O263 Co238 1.967 . S
O263 C271 1.258 . S
O264 Co239 1.941 . S
O264 C271 1.266 . S
H265 C267 0.959 . S
H266 C267 0.961 . S
C267 C257 1.510 . S
C267 H265 0.959 . S
C267 H266 0.961 . S
C267 H268 0.960 . S
H268 C267 0.960 . S
H269 N249 0.862 . S
O270 Co238 1.920 . S
O270 C243 1.289 . S
C271 O263 1.258 . S
C271 O264 1.266 . S
Co272 O275 1.970 . S
Co272 N289 1.989 . S
Co272 O297 1.967 . S
Co272 O304 1.920 . S
Co273 O276 1.966 . S
Co273 N282 2.022 . S
Co273 N290 1.993 . S
Co273 O298 1.941 . S
C274 O275 1.258 . S
C274 O276 1.263 . S
O275 Co272 1.970 . S
O275 C274 1.258 . S
O276 Co273 1.966 . S
O276 C274 1.263 . S
C277 O278 1.235 . S
C277 O304 1.289 . S
O278 C277 1.235 . S
C279 C281 1.400 . S
C279 N282 1.351 . S
C279 C284 1.501 . S
C280 C281 1.387 . S
C280 N283 1.341 . S
C281 C279 1.400 . S
C281 C280 1.387 . S
N282 Co273 2.022 . S
N282 C279 1.351 . S
N282 N283 1.365 . S
N283 C280 1.341 . S
N283 N282 1.365 . S
N283 H303 0.862 . S
C284 C279 1.501 . S
C284 H285 0.961 . S
C284 H286 0.961 . S
C284 H287 0.960 . S
H285 C284 0.961 . S
H286 C284 0.961 . S
H287 C284 0.960 . S
C288 N289 1.342 . S
C288 C292 1.401 . S
C288 C293 1.499 . S
N289 Co272 1.989 . S
N289 C288 1.342 . S
N289 N290 1.388 . S
N290 Co273 1.993 . S
N290 N289 1.388 . S
N290 C291 1.346 . S
C291 N290 1.346 . S
C291 C292 1.396 . S
C291 C301 1.510 . S
C292 C288 1.401 . S
C292 C291 1.396 . S
C293 C288 1.499 . S
C293 H294 0.959 . S
C293 H295 0.960 . S
C293 H296 0.961 . S
H294 C293 0.959 . S
H295 C293 0.960 . S
H296 C293 0.961 . S
O297 Co272 1.967 . S
O297 C305 1.258 . S
O298 Co273 1.941 . S
O298 C305 1.266 . S
H299 C301 0.959 . S
H300 C301 0.961 . S
C301 C291 1.510 . S
C301 H299 0.959 . S
C301 H300 0.961 . S
C301 H302 0.960 . S
H302 C301 0.960 . S
H303 N283 0.862 . S
O304 Co272 1.920 . S
O304 C277 1.289 . S
C305 O297 1.258 . S
C305 O298 1.266 . S
Co306 O309 1.970 . S
Co306 N323 1.989 . S
Co306 O331 1.967 . S
Co306 O338 1.920 . S
Co307 O310 1.966 . S
Co307 N316 2.022 . S
Co307 N324 1.993 . S
Co307 O332 1.941 . S
C308 O309 1.258 . S
C308 O310 1.263 . S
O309 Co306 1.970 . S
O309 C308 1.258 . S
O310 Co307 1.966 . S
O310 C308 1.263 . S
C311 O312 1.235 . S
C311 O338 1.289 . S
O312 C311 1.235 . S
C313 C315 1.400 . S
C313 N316 1.351 . S
C313 C318 1.501 . S
C314 C315 1.387 . S
C314 N317 1.341 . S
C315 C313 1.400 . S
C315 C314 1.387 . S
N316 Co307 2.022 . S
N316 C313 1.351 . S
N316 N317 1.365 . S
N317 C314 1.341 . S
N317 N316 1.365 . S
N317 H337 0.862 . S
C318 C313 1.501 . S
C318 H319 0.961 . S
C318 H320 0.961 . S
C318 H321 0.960 . S
H319 C318 0.961 . S
H320 C318 0.961 . S
H321 C318 0.960 . S
C322 N323 1.342 . S
C322 C326 1.401 . S
C322 C327 1.499 . S
N323 Co306 1.989 . S
N323 C322 1.342 . S
N323 N324 1.388 . S
N324 Co307 1.993 . S
N324 N323 1.388 . S
N324 C325 1.346 . S
C325 N324 1.346 . S
C325 C326 1.396 . S
C325 C335 1.510 . S
C326 C322 1.401 . S
C326 C325 1.396 . S
C327 C322 1.499 . S
C327 H328 0.959 . S
C327 H329 0.960 . S
C327 H330 0.961 . S
H328 C327 0.959 . S
H329 C327 0.960 . S
H330 C327 0.961 . S
O331 Co306 1.967 . S
O331 C339 1.258 . S
O332 Co307 1.941 . S
O332 C339 1.266 . S
H333 C335 0.959 . S
H334 C335 0.961 . S
C335 C325 1.510 . S
C335 H333 0.959 . S
C335 H334 0.961 . S
C335 H336 0.960 . S
H336 C335 0.960 . S
H337 N317 0.862 . S
O338 Co306 1.920 . S
O338 C311 1.289 . S
C339 O331 1.258 . S
C339 O332 1.266 . S
Co340 O343 1.970 . S
Co340 N357 1.989 . S
Co340 O365 1.967 . S
Co340 O372 1.920 . S
Co341 O344 1.966 . S
Co341 N350 2.022 . S
Co341 N358 1.993 . S
Co341 O366 1.941 . S
C342 O343 1.258 . S
C342 O344 1.263 . S
O343 Co340 1.970 . S
O343 C342 1.258 . S
O344 Co341 1.966 . S
O344 C342 1.263 . S
C345 O346 1.235 . S
C345 O372 1.289 . S
O346 C345 1.235 . S
C347 C349 1.400 . S
C347 N350 1.351 . S
C347 C352 1.501 . S
C348 C349 1.387 . S
C348 N351 1.341 . S
C349 C347 1.400 . S
C349 C348 1.387 . S
N350 Co341 2.022 . S
N350 C347 1.351 . S
N350 N351 1.365 . S
N351 C348 1.341 . S
N351 N350 1.365 . S
N351 H371 0.862 . S
C352 C347 1.501 . S
C352 H353 0.961 . S
C352 H354 0.961 . S
C352 H355 0.960 . S
H353 C352 0.961 . S
H354 C352 0.961 . S
H355 C352 0.960 . S
C356 N357 1.342 . S
C356 C360 1.401 . S
C356 C361 1.499 . S
N357 Co340 1.989 . S
N357 C356 1.342 . S
N357 N358 1.388 . S
N358 Co341 1.993 . S
N358 N357 1.388 . S
N358 C359 1.346 . S
C359 N358 1.346 . S
C359 C360 1.396 . S
C359 C369 1.510 . S
C360 C356 1.401 . S
C360 C359 1.396 . S
C361 C356 1.499 . S
C361 H362 0.959 . S
C361 H363 0.960 . S
C361 H364 0.961 . S
H362 C361 0.959 . S
H363 C361 0.960 . S
H364 C361 0.961 . S
O365 Co340 1.967 . S
O365 C373 1.258 . S
O366 Co341 1.941 . S
O366 C373 1.266 . S
H367 C369 0.959 . S
H368 C369 0.961 . S
C369 C359 1.510 . S
C369 H367 0.959 . S
C369 H368 0.961 . S
C369 H370 0.960 . S
H370 C369 0.960 . S
H371 N351 0.862 . S
O372 Co340 1.920 . S
O372 C345 1.289 . S
C373 O365 1.258 . S
C373 O366 1.266 . S
Co374 O377 1.970 . S
Co374 N391 1.989 . S
Co374 O399 1.967 . S
Co374 O406 1.920 . S
Co375 O378 1.966 . S
Co375 N384 2.022 . S
Co375 N392 1.993 . S
Co375 O400 1.941 . S
C376 O377 1.258 . S
C376 O378 1.263 . S
O377 Co374 1.970 . S
O377 C376 1.258 . S
O378 Co375 1.966 . S
O378 C376 1.263 . S
C379 O380 1.235 . S
C379 O406 1.289 . S
O380 C379 1.235 . S
C381 C383 1.400 . S
C381 N384 1.351 . S
C381 C386 1.501 . S
C382 C383 1.387 . S
C382 N385 1.341 . S
C383 C381 1.400 . S
C383 C382 1.387 . S
N384 Co375 2.022 . S
N384 C381 1.351 . S
N384 N385 1.365 . S
N385 C382 1.341 . S
N385 N384 1.365 . S
N385 H405 0.862 . S
C386 C381 1.501 . S
C386 H387 0.961 . S
C386 H388 0.961 . S
C386 H389 0.960 . S
H387 C386 0.961 . S
H388 C386 0.961 . S
H389 C386 0.960 . S
C390 N391 1.342 . S
C390 C394 1.401 . S
C390 C395 1.499 . S
N391 Co374 1.989 . S
N391 C390 1.342 . S
N391 N392 1.388 . S
N392 Co375 1.993 . S
N392 N391 1.388 . S
N392 C393 1.346 . S
C393 N392 1.346 . S
C393 C394 1.396 . S
C393 C403 1.510 . S
C394 C390 1.401 . S
C394 C393 1.396 . S
C395 C390 1.499 . S
C395 H396 0.959 . S
C395 H397 0.960 . S
C395 H398 0.961 . S
H396 C395 0.959 . S
H397 C395 0.960 . S
H398 C395 0.961 . S
O399 Co374 1.967 . S
O399 C407 1.258 . S
O400 Co375 1.941 . S
O400 C407 1.266 . S
H401 C403 0.959 . S
H402 C403 0.961 . S
C403 C393 1.510 . S
C403 H401 0.959 . S
C403 H402 0.961 . S
C403 H404 0.960 . S
H404 C403 0.960 . S
H405 N385 0.862 . S
O406 Co374 1.920 . S
O406 C379 1.289 . S
C407 O399 1.258 . S
C407 O400 1.266 . S
Co408 O411 1.970 . S
Co408 N425 1.989 . S
Co408 O433 1.967 . S
Co408 O440 1.920 . S
Co409 O412 1.966 . S
Co409 N418 2.022 . S
Co409 N426 1.993 . S
Co409 O434 1.941 . S
C410 O411 1.258 . S
C410 O412 1.263 . S
O411 Co408 1.970 . S
O411 C410 1.258 . S
O412 Co409 1.966 . S
O412 C410 1.263 . S
C413 O414 1.235 . S
C413 O440 1.289 . S
O414 C413 1.235 . S
C415 C417 1.400 . S
C415 N418 1.351 . S
C415 C420 1.501 . S
C416 C417 1.387 . S
C416 N419 1.341 . S
C417 C415 1.400 . S
C417 C416 1.387 . S
N418 Co409 2.022 . S
N418 C415 1.351 . S
N418 N419 1.365 . S
N419 C416 1.341 . S
N419 N418 1.365 . S
N419 H439 0.862 . S
C420 C415 1.501 . S
C420 H421 0.961 . S
C420 H422 0.961 . S
C420 H423 0.960 . S
H421 C420 0.961 . S
H422 C420 0.961 . S
H423 C420 0.960 . S
C424 N425 1.342 . S
C424 C428 1.401 . S
C424 C429 1.499 . S
N425 Co408 1.989 . S
N425 C424 1.342 . S
N425 N426 1.388 . S
N426 Co409 1.993 . S
N426 N425 1.388 . S
N426 C427 1.346 . S
C427 N426 1.346 . S
C427 C428 1.396 . S
C427 C437 1.510 . S
C428 C424 1.401 . S
C428 C427 1.396 . S
C429 C424 1.499 . S
C429 H430 0.959 . S
C429 H431 0.960 . S
C429 H432 0.961 . S
H430 C429 0.959 . S
H431 C429 0.960 . S
H432 C429 0.961 . S
O433 Co408 1.967 . S
O433 C441 1.258 . S
O434 Co409 1.941 . S
O434 C441 1.266 . S
H435 C437 0.959 . S
H436 C437 0.961 . S
C437 C427 1.510 . S
C437 H435 0.959 . S
C437 H436 0.961 . S
C437 H438 0.960 . S
H438 C437 0.960 . S
H439 N419 0.862 . S
O440 Co408 1.920 . S
O440 C413 1.289 . S
C441 O433 1.258 . S
C441 O434 1.266 . S
Co442 O445 1.970 . S
Co442 N459 1.989 . S
Co442 O467 1.967 . S
Co442 O474 1.920 . S
Co443 O446 1.966 . S
Co443 N452 2.022 . S
Co443 N460 1.993 . S
Co443 O468 1.941 . S
C444 O445 1.258 . S
C444 O446 1.263 . S
O445 Co442 1.970 . S
O445 C444 1.258 . S
O446 Co443 1.966 . S
O446 C444 1.263 . S
C447 O448 1.235 . S
C447 O474 1.289 . S
O448 C447 1.235 . S
C449 C451 1.400 . S
C449 N452 1.351 . S
C449 C454 1.501 . S
C450 C451 1.387 . S
C450 N453 1.341 . S
C451 C449 1.400 . S
C451 C450 1.387 . S
N452 Co443 2.022 . S
N452 C449 1.351 . S
N452 N453 1.365 . S
N453 C450 1.341 . S
N453 N452 1.365 . S
N453 H473 0.862 . S
C454 C449 1.501 . S
C454 H455 0.961 . S
C454 H456 0.961 . S
C454 H457 0.960 . S
H455 C454 0.961 . S
H456 C454 0.961 . S
H457 C454 0.960 . S
C458 N459 1.342 . S
C458 C462 1.401 . S
C458 C463 1.499 . S
N459 Co442 1.989 . S
N459 C458 1.342 . S
N459 N460 1.388 . S
N460 Co443 1.993 . S
N460 N459 1.388 . S
N460 C461 1.346 . S
C461 N460 1.346 . S
C461 C462 1.396 . S
C461 C471 1.510 . S
C462 C458 1.401 . S
C462 C461 1.396 . S
C463 C458 1.499 . S
C463 H464 0.959 . S
C463 H465 0.960 . S
C463 H466 0.961 . S
H464 C463 0.959 . S
H465 C463 0.960 . S
H466 C463 0.961 . S
O467 Co442 1.967 . S
O467 C475 1.258 . S
O468 Co443 1.941 . S
O468 C475 1.266 . S
H469 C471 0.959 . S
H470 C471 0.961 . S
C471 C461 1.510 . S
C471 H469 0.959 . S
C471 H470 0.961 . S
C471 H472 0.960 . S
H472 C471 0.960 . S
H473 N453 0.862 . S
O474 Co442 1.920 . S
O474 C447 1.289 . S
C475 O467 1.258 . S
C475 O468 1.266 . S
Co476 O479 1.970 . S
Co476 N493 1.989 . S
Co476 O501 1.967 . S
Co476 O508 1.920 . S
Co477 O480 1.966 . S
Co477 N486 2.022 . S
Co477 N494 1.993 . S
Co477 O502 1.941 . S
C478 O479 1.258 . S
C478 O480 1.263 . S
O479 Co476 1.970 . S
O479 C478 1.258 . S
O480 Co477 1.966 . S
O480 C478 1.263 . S
C481 O482 1.235 . S
C481 O508 1.289 . S
O482 C481 1.235 . S
C483 C485 1.400 . S
C483 N486 1.351 . S
C483 C488 1.501 . S
C484 C485 1.387 . S
C484 N487 1.341 . S
C485 C483 1.400 . S
C485 C484 1.387 . S
N486 Co477 2.022 . S
N486 C483 1.351 . S
N486 N487 1.365 . S
N487 C484 1.341 . S
N487 N486 1.365 . S
N487 H507 0.862 . S
C488 C483 1.501 . S
C488 H489 0.961 . S
C488 H490 0.961 . S
C488 H491 0.960 . S
H489 C488 0.961 . S
H490 C488 0.961 . S
H491 C488 0.960 . S
C492 N493 1.342 . S
C492 C496 1.401 . S
C492 C497 1.499 . S
N493 Co476 1.989 . S
N493 C492 1.342 . S
N493 N494 1.388 . S
N494 Co477 1.993 . S
N494 N493 1.388 . S
N494 C495 1.346 . S
C495 N494 1.346 . S
C495 C496 1.396 . S
C495 C505 1.510 . S
C496 C492 1.401 . S
C496 C495 1.396 . S
C497 C492 1.499 . S
C497 H498 0.959 . S
C497 H499 0.960 . S
C497 H500 0.961 . S
H498 C497 0.959 . S
H499 C497 0.960 . S
H500 C497 0.961 . S
O501 Co476 1.967 . S
O501 C509 1.258 . S
O502 Co477 1.941 . S
O502 C509 1.266 . S
H503 C505 0.959 . S
H504 C505 0.961 . S
C505 C495 1.510 . S
C505 H503 0.959 . S
C505 H504 0.961 . S
C505 H506 0.960 . S
H506 C505 0.960 . S
H507 N487 0.862 . S
O508 Co476 1.920 . S
O508 C481 1.289 . S
C509 O501 1.258 . S
C509 O502 1.266 . S
Co510 O513 1.970 . S
Co510 N527 1.989 . S
Co510 O535 1.967 . S
Co510 O542 1.920 . S
Co511 O514 1.966 . S
Co511 N520 2.022 . S
Co511 N528 1.993 . S
Co511 O536 1.941 . S
C512 O513 1.258 . S
C512 O514 1.263 . S
O513 Co510 1.970 . S
O513 C512 1.258 . S
O514 Co511 1.966 . S
O514 C512 1.263 . S
C515 O516 1.235 . S
C515 O542 1.289 . S
O516 C515 1.235 . S
C517 C519 1.400 . S
C517 N520 1.351 . S
C517 C522 1.501 . S
C518 C519 1.387 . S
C518 N521 1.341 . S
C519 C517 1.400 . S
C519 C518 1.387 . S
N520 Co511 2.022 . S
N520 C517 1.351 . S
N520 N521 1.365 . S
N521 C518 1.341 . S
N521 N520 1.365 . S
N521 H541 0.862 . S
C522 C517 1.501 . S
C522 H523 0.961 . S
C522 H524 0.961 . S
C522 H525 0.960 . S
H523 C522 0.961 . S
H524 C522 0.961 . S
H525 C522 0.960 . S
C526 N527 1.342 . S
C526 C530 1.401 . S
C526 C531 1.499 . S
N527 Co510 1.989 . S
N527 C526 1.342 . S
N527 N528 1.388 . S
N528 Co511 1.993 . S
N528 N527 1.388 . S
N528 C529 1.346 . S
C529 N528 1.346 . S
C529 C530 1.396 . S
C529 C539 1.510 . S
C530 C526 1.401 . S
C530 C529 1.396 . S
C531 C526 1.499 . S
C531 H532 0.959 . S
C531 H533 0.960 . S
C531 H534 0.961 . S
H532 C531 0.959 . S
H533 C531 0.960 . S
H534 C531 0.961 . S
O535 Co510 1.967 . S
O535 C543 1.258 . S
O536 Co511 1.941 . S
O536 C543 1.266 . S
H537 C539 0.959 . S
H538 C539 0.961 . S
C539 C529 1.510 . S
C539 H537 0.959 . S
C539 H538 0.961 . S
C539 H540 0.960 . S
H540 C539 0.960 . S
H541 N521 0.862 . S
O542 Co510 1.920 . S
O542 C515 1.289 . S
C543 O535 1.258 . S
C543 O536 1.266 . S
C544 C545 1.363 . S
C544 C550 1.379 . S
C544 N552 1.356 . S
C545 C544 1.363 . S
C545 C551 1.363 . S
C546 C547 1.363 . S
C546 C551 1.379 . S
C546 N553 1.356 . S
C547 C546 1.363 . S
C547 C550 1.363 . S
N548 C550 1.356 . S
N548 H560 0.984 . S
N548 H561 0.985 . S
N549 C551 1.356 . S
N549 H554 0.984 . S
N549 H555 0.985 . S
C550 C544 1.379 . S
C550 C547 1.363 . S
C550 N548 1.356 . S
C551 C545 1.363 . S
C551 C546 1.379 . S
C551 N549 1.356 . S
N552 C544 1.356 . S
N552 H558 0.984 . S
N552 H559 0.984 . S
N553 C546 1.356 . S
N553 H556 0.984 . S
N553 H557 0.985 . S
H554 N549 0.984 . S
H555 N549 0.985 . S
H556 N553 0.984 . S
H557 N553 0.985 . S
H558 N552 0.984 . S
H559 N552 0.984 . S
H560 N548 0.984 . S
H561 N548 0.985 . S
C562 C563 1.363 . S
C562 C568 1.379 . S
C562 N570 1.356 . S
C563 C562 1.363 . S
C563 C569 1.363 . S
C564 C565 1.363 . S
C564 C569 1.379 . S
C564 N571 1.356 . S
C565 C564 1.363 . S
C565 C568 1.363 . S
N566 C568 1.356 . S
N566 H578 0.984 . S
N566 H579 0.985 . S
N567 C569 1.356 . S
N567 H572 0.984 . S
N567 H573 0.985 . S
C568 C562 1.379 . S
C568 C565 1.363 . S
C568 N566 1.356 . S
C569 C563 1.363 . S
C569 C564 1.379 . S
C569 N567 1.356 . S
N570 C562 1.356 . S
N570 H576 0.984 . S
N570 H577 0.984 . S
N571 C564 1.356 . S
N571 H574 0.984 . S
N571 H575 0.985 . S
H572 N567 0.984 . S
H573 N567 0.985 . S
H574 N571 0.984 . S
H575 N571 0.985 . S
H576 N570 0.984 . S
H577 N570 0.984 . S
H578 N566 0.984 . S
H579 N566 0.985 . S
C580 C581 1.363 . S
C580 C586 1.379 . S
C580 N588 1.356 . S
C581 C580 1.363 . S
C581 C587 1.363 . S
C582 C583 1.363 . S
C582 C587 1.379 . S
C582 N589 1.356 . S
C583 C582 1.363 . S
C583 C586 1.363 . S
N584 C586 1.356 . S
N584 H596 0.984 . S
N584 H597 0.985 . S
N585 C587 1.356 . S
N585 H590 0.984 . S
N585 H591 0.985 . S
C586 C580 1.379 . S
C586 C583 1.363 . S
C586 N584 1.356 . S
C587 C581 1.363 . S
C587 C582 1.379 . S
C587 N585 1.356 . S
N588 C580 1.356 . S
N588 H594 0.984 . S
N588 H595 0.984 . S
N589 C582 1.356 . S
N589 H592 0.984 . S
N589 H593 0.985 . S
H590 N585 0.984 . S
H591 N585 0.985 . S
H592 N589 0.984 . S
H593 N589 0.985 . S
H594 N588 0.984 . S
H595 N588 0.984 . S
H596 N584 0.984 . S
H597 N584 0.985 . S
C598 C599 1.363 . S
C598 C604 1.379 . S
C598 N606 1.356 . S
C599 C598 1.363 . S
C599 C605 1.363 . S
C600 C601 1.363 . S
C600 C605 1.379 . S
C600 N607 1.356 . S
C601 C600 1.363 . S
C601 C604 1.363 . S
N602 C604 1.356 . S
N602 H614 0.984 . S
N602 H615 0.985 . S
N603 C605 1.356 . S
N603 H608 0.984 . S
N603 H609 0.985 . S
C604 C598 1.379 . S
C604 C601 1.363 . S
C604 N602 1.356 . S
C605 C599 1.363 . S
C605 C600 1.379 . S
C605 N603 1.356 . S
N606 C598 1.356 . S
N606 H612 0.984 . S
N606 H613 0.984 . S
N607 C600 1.356 . S
N607 H610 0.984 . S
N607 H611 0.985 . S
H608 N603 0.984 . S
H609 N603 0.985 . S
H610 N607 0.984 . S
H611 N607 0.985 . S
H612 N606 0.984 . S
H613 N606 0.984 . S
H614 N602 0.984 . S
H615 N602 0.985 . S
C616 C617 1.363 . S
C616 C622 1.379 . S
C616 N624 1.356 . S
C617 C616 1.363 . S
C617 C623 1.363 . S
C618 C619 1.363 . S
C618 C623 1.379 . S
C618 N625 1.356 . S
C619 C618 1.363 . S
C619 C622 1.363 . S
N620 C622 1.356 . S
N620 H632 0.984 . S
N620 H633 0.985 . S
N621 C623 1.356 . S
N621 H626 0.984 . S
N621 H627 0.985 . S
C622 C616 1.379 . S
C622 C619 1.363 . S
C622 N620 1.356 . S
C623 C617 1.363 . S
C623 C618 1.379 . S
C623 N621 1.356 . S
N624 C616 1.356 . S
N624 H630 0.984 . S
N624 H631 0.984 . S
N625 C618 1.356 . S
N625 H628 0.984 . S
N625 H629 0.985 . S
H626 N621 0.984 . S
H627 N621 0.985 . S
H628 N625 0.984 . S
H629 N625 0.985 . S
H630 N624 0.984 . S
H631 N624 0.984 . S
H632 N620 0.984 . S
H633 N620 0.985 . S
C634 C635 1.363 . S
C634 C640 1.379 . S
C634 N642 1.356 . S
C635 C634 1.363 . S
C635 C641 1.363 . S
C636 C637 1.363 . S
C636 C641 1.379 . S
C636 N643 1.356 . S
C637 C636 1.363 . S
C637 C640 1.363 . S
N638 C640 1.356 . S
N638 H650 0.984 . S
N638 H651 0.985 . S
N639 C641 1.356 . S
N639 H644 0.984 . S
N639 H645 0.985 . S
C640 C634 1.379 . S
C640 C637 1.363 . S
C640 N638 1.356 . S
C641 C635 1.363 . S
C641 C636 1.379 . S
C641 N639 1.356 . S
N642 C634 1.356 . S
N642 H648 0.984 . S
N642 H649 0.984 . S
N643 C636 1.356 . S
N643 H646 0.984 . S
N643 H647 0.985 . S
H644 N639 0.984 . S
H645 N639 0.985 . S
H646 N643 0.984 . S
H647 N643 0.985 . S
H648 N642 0.984 . S
H649 N642 0.984 . S
H650 N638 0.984 . S
H651 N638 0.985 . S
C652 C653 1.363 . S
C652 C658 1.379 . S
C652 N660 1.356 . S
C653 C652 1.363 . S
C653 C659 1.363 . S
C654 C655 1.363 . S
C654 C659 1.379 . S
C654 N661 1.356 . S
C655 C654 1.363 . S
C655 C658 1.363 . S
N656 C658 1.356 . S
N656 H668 0.984 . S
N656 H669 0.985 . S
N657 C659 1.356 . S
N657 H662 0.984 . S
N657 H663 0.985 . S
C658 C652 1.379 . S
C658 C655 1.363 . S
C658 N656 1.356 . S
C659 C653 1.363 . S
C659 C654 1.379 . S
C659 N657 1.356 . S
N660 C652 1.356 . S
N660 H666 0.984 . S
N660 H667 0.984 . S
N661 C654 1.356 . S
N661 H664 0.984 . S
N661 H665 0.985 . S
H662 N657 0.984 . S
H663 N657 0.985 . S
H664 N661 0.984 . S
H665 N661 0.985 . S
H666 N660 0.984 . S
H667 N660 0.984 . S
H668 N656 0.984 . S
H669 N656 0.985 . S
C670 C671 1.363 . S
C670 C676 1.379 . S
C670 N678 1.356 . S
C671 C670 1.363 . S
C671 C677 1.363 . S
C672 C673 1.363 . S
C672 C677 1.379 . S
C672 N679 1.356 . S
C673 C672 1.363 . S
C673 C676 1.363 . S
N674 C676 1.356 . S
N674 H686 0.984 . S
N674 H687 0.985 . S
N675 C677 1.356 . S
N675 H680 0.984 . S
N675 H681 0.985 . S
C676 C670 1.379 . S
C676 C673 1.363 . S
C676 N674 1.356 . S
C677 C671 1.363 . S
C677 C672 1.379 . S
C677 N675 1.356 . S
N678 C670 1.356 . S
N678 H684 0.984 . S
N678 H685 0.984 . S
N679 C672 1.356 . S
N679 H682 0.984 . S
N679 H683 0.985 . S
H680 N675 0.984 . S
H681 N675 0.985 . S
H682 N679 0.984 . S
H683 N679 0.985 . S
H684 N678 0.984 . S
H685 N678 0.984 . S
H686 N674 0.984 . S
H687 N674 0.985 . S
C688 C689 1.363 . S
C688 C694 1.379 1_655 S
C688 N696 1.356 . S
C689 C688 1.363 . S
C689 C695 1.363 . S
C690 C691 1.363 . S
C690 C695 1.379 1_455 S
C690 N697 1.356 . S
C691 C690 1.363 . S
C691 C694 1.363 . S
N692 C694 1.356 . S
N692 H704 0.984 . S
N692 H705 0.985 . S
N693 C695 1.356 . S
N693 H698 0.984 . S
N693 H699 0.985 . S
C694 C688 1.379 1_455 S
C694 C691 1.363 . S
C694 N692 1.356 . S
C695 C689 1.363 . S
C695 C690 1.379 1_655 S
C695 N693 1.356 . S
N696 C688 1.356 . S
N696 H702 0.984 . S
N696 H703 0.984 . S
N697 C690 1.356 . S
N697 H700 0.984 . S
N697 H701 0.985 . S
H698 N693 0.984 . S
H699 N693 0.985 . S
H700 N697 0.984 . S
H701 N697 0.985 . S
H702 N696 0.984 . S
H703 N696 0.984 . S
H704 N692 0.984 . S
H705 N692 0.985 . S
C706 C707 1.363 . S
C706 C712 1.379 . S
C706 N714 1.356 . S
C707 C706 1.363 . S
C707 C713 1.363 . S
C708 C709 1.363 . S
C708 C713 1.379 . S
C708 N715 1.356 . S
C709 C708 1.363 . S
C709 C712 1.363 . S
N710 C712 1.356 . S
N710 H722 0.984 . S
N710 H723 0.985 . S
N711 C713 1.356 . S
N711 H716 0.984 . S
N711 H717 0.985 . S
C712 C706 1.379 . S
C712 C709 1.363 . S
C712 N710 1.356 . S
C713 C707 1.363 . S
C713 C708 1.379 . S
C713 N711 1.356 . S
N714 C706 1.356 . S
N714 H720 0.984 . S
N714 H721 0.984 . S
N715 C708 1.356 . S
N715 H718 0.984 . S
N715 H719 0.985 . S
H716 N711 0.984 . S
H717 N711 0.985 . S
H718 N715 0.984 . S
H719 N715 0.985 . S
H720 N714 0.984 . S
H721 N714 0.984 . S
H722 N710 0.984 . S
H723 N710 0.985 . S
C724 C725 1.363 . S
C724 C730 1.379 1_655 S
C724 N732 1.356 . S
C725 C724 1.363 . S
C725 C731 1.363 . S
C726 C727 1.363 . S
C726 C731 1.379 1_455 S
C726 N733 1.356 . S
C727 C726 1.363 . S
C727 C730 1.363 . S
N728 C730 1.356 . S
N728 H740 0.984 . S
N728 H741 0.985 . S
N729 C731 1.356 . S
N729 H734 0.984 . S
N729 H735 0.985 . S
C730 C724 1.379 1_455 S
C730 C727 1.363 . S
C730 N728 1.356 . S
C731 C725 1.363 . S
C731 C726 1.379 1_655 S
C731 N729 1.356 . S
N732 C724 1.356 . S
N732 H738 0.984 . S
N732 H739 0.984 . S
N733 C726 1.356 . S
N733 H736 0.984 . S
N733 H737 0.985 . S
H734 N729 0.984 . S
H735 N729 0.985 . S
H736 N733 0.984 . S
H737 N733 0.985 . S
H738 N732 0.984 . S
H739 N732 0.984 . S
H740 N728 0.984 . S
H741 N728 0.985 . S
C742 C743 1.363 . S
C742 C748 1.379 . S
C742 N750 1.356 . S
C743 C742 1.363 . S
C743 C749 1.363 . S
C744 C745 1.363 . S
C744 C749 1.379 . S
C744 N751 1.356 . S
C745 C744 1.363 . S
C745 C748 1.363 . S
N746 C748 1.356 . S
N746 H758 0.984 . S
N746 H759 0.985 . S
N747 C749 1.356 . S
N747 H752 0.984 . S
N747 H753 0.985 . S
C748 C742 1.379 . S
C748 C745 1.363 . S
C748 N746 1.356 . S
C749 C743 1.363 . S
C749 C744 1.379 . S
C749 N747 1.356 . S
N750 C742 1.356 . S
N750 H756 0.984 . S
N750 H757 0.984 . S
N751 C744 1.356 . S
N751 H754 0.984 . S
N751 H755 0.985 . S
H752 N747 0.984 . S
H753 N747 0.985 . S
H754 N751 0.984 . S
H755 N751 0.985 . S
H756 N750 0.984 . S
H757 N750 0.984 . S
H758 N746 0.984 . S
H759 N746 0.985 . S
C760 C761 1.363 . S
C760 C766 1.379 . S
C760 N768 1.356 . S
C761 C760 1.363 . S
C761 C767 1.363 . S
C762 C763 1.363 . S
C762 C767 1.379 . S
C762 N769 1.356 . S
C763 C762 1.363 . S
C763 C766 1.363 . S
N764 C766 1.356 . S
N764 H776 0.984 . S
N764 H777 0.985 . S
N765 C767 1.356 . S
N765 H770 0.984 . S
N765 H771 0.985 . S
C766 C760 1.379 . S
C766 C763 1.363 . S
C766 N764 1.356 . S
C767 C761 1.363 . S
C767 C762 1.379 . S
C767 N765 1.356 . S
N768 C760 1.356 . S
N768 H774 0.984 . S
N768 H775 0.984 . S
N769 C762 1.356 . S
N769 H772 0.984 . S
N769 H773 0.985 . S
H770 N765 0.984 . S
H771 N765 0.985 . S
H772 N769 0.984 . S
H773 N769 0.985 . S
H774 N768 0.984 . S
H775 N768 0.984 . S
H776 N764 0.984 . S
H777 N764 0.985 . S
C778 C779 1.363 . S
C778 C784 1.379 1_455 S
C778 N786 1.356 . S
C779 C778 1.363 . S
C779 C785 1.363 . S
C780 C781 1.363 . S
C780 C785 1.379 1_655 S
C780 N787 1.356 . S
C781 C780 1.363 . S
C781 C784 1.363 . S
N782 C784 1.356 . S
N782 H794 0.984 . S
N782 H795 0.985 . S
N783 C785 1.356 . S
N783 H788 0.984 . S
N783 H789 0.985 . S
C784 C778 1.379 1_655 S
C784 C781 1.363 . S
C784 N782 1.356 . S
C785 C779 1.363 . S
C785 C780 1.379 1_455 S
C785 N783 1.356 . S
N786 C778 1.356 . S
N786 H792 0.984 . S
N786 H793 0.984 . S
N787 C780 1.356 . S
N787 H790 0.984 . S
N787 H791 0.985 . S
H788 N783 0.984 . S
H789 N783 0.985 . S
H790 N787 0.984 . S
H791 N787 0.985 . S
H792 N786 0.984 . S
H793 N786 0.984 . S
H794 N782 0.984 . S
H795 N782 0.985 . S
C796 C797 1.363 . S
C796 C802 1.379 . S
C796 N804 1.356 . S
C797 C796 1.363 . S
C797 C803 1.363 . S
C798 C799 1.363 . S
C798 C803 1.379 . S
C798 N805 1.356 . S
C799 C798 1.363 . S
C799 C802 1.363 . S
N800 C802 1.356 . S
N800 H812 0.984 . S
N800 H813 0.985 . S
N801 C803 1.356 . S
N801 H806 0.984 . S
N801 H807 0.985 . S
C802 C796 1.379 . S
C802 C799 1.363 . S
C802 N800 1.356 . S
C803 C797 1.363 . S
C803 C798 1.379 . S
C803 N801 1.356 . S
N804 C796 1.356 . S
N804 H810 0.984 . S
N804 H811 0.984 . S
N805 C798 1.356 . S
N805 H808 0.984 . S
N805 H809 0.985 . S
H806 N801 0.984 . S
H807 N801 0.985 . S
H808 N805 0.984 . S
H809 N805 0.985 . S
H810 N804 0.984 . S
H811 N804 0.984 . S
H812 N800 0.984 . S
H813 N800 0.985 . S
C814 C815 1.363 . S
C814 C820 1.379 1_655 S
C814 N822 1.356 . S
C815 C814 1.363 . S
C815 C821 1.363 . S
C816 C817 1.363 . S
C816 C821 1.379 1_455 S
C816 N823 1.356 . S
C817 C816 1.363 . S
C817 C820 1.363 . S
N818 C820 1.356 . S
N818 H830 0.984 . S
N818 H831 0.985 . S
N819 C821 1.356 . S
N819 H824 0.984 . S
N819 H825 0.985 . S
C820 C814 1.379 1_455 S
C820 C817 1.363 . S
C820 N818 1.356 . S
C821 C815 1.363 . S
C821 C816 1.379 1_655 S
C821 N819 1.356 . S
N822 C814 1.356 . S
N822 H828 0.984 . S
N822 H829 0.984 . S
N823 C816 1.356 . S
N823 H826 0.984 . S
N823 H827 0.985 . S
H824 N819 0.984 . S
H825 N819 0.985 . S
H826 N823 0.984 . S
H827 N823 0.985 . S
H828 N822 0.984 . S
H829 N822 0.984 . S
H830 N818 0.984 . S
H831 N818 0.985 . S
C832 C833 1.363 1_556 S
C832 C838 1.379 . S
C832 N840 1.356 . S
C833 C832 1.363 1_554 S
C833 C839 1.363 1_545 S
C834 C835 1.363 1_554 S
C834 C839 1.379 . S
C834 N841 1.356 . S
C835 C834 1.363 1_556 S
C835 C838 1.363 1_565 S
N836 C838 1.356 . S
N836 H848 0.984 . S
N836 H849 0.985 1_545 S
N837 C839 1.356 . S
N837 H842 0.984 1_565 S
N837 H843 0.985 . S
C838 C832 1.379 . S
C838 C835 1.363 1_545 S
C838 N836 1.356 . S
C839 C833 1.363 1_565 S
C839 C834 1.379 . S
C839 N837 1.356 . S
N840 C832 1.356 . S
N840 H846 0.984 . S
N840 H847 0.984 1_556 S
N841 C834 1.356 . S
N841 H844 0.984 1_554 S
N841 H845 0.985 . S
H842 N837 0.984 1_545 S
H843 N837 0.985 . S
H844 N841 0.984 1_556 S
H845 N841 0.985 . S
H846 N840 0.984 . S
H847 N840 0.984 1_554 S
H848 N836 0.984 . S
H849 N836 0.985 1_565 S
C850 C851 1.363 1_545 S
C850 C856 1.379 . S
C850 N858 1.356 . S
C851 C850 1.363 1_565 S
C851 C857 1.363 . S
C852 C853 1.363 1_565 S
C852 C857 1.379 . S
C852 N859 1.356 . S
C853 C852 1.363 1_545 S
C853 C856 1.363 . S
N854 C856 1.356 . S
N854 H866 0.984 . S
N854 H867 0.985 . S
N855 C857 1.356 . S
N855 H860 0.984 . S
N855 H861 0.985 . S
C856 C850 1.379 . S
C856 C853 1.363 . S
C856 N854 1.356 . S
C857 C851 1.363 . S
C857 C852 1.379 . S
C857 N855 1.356 . S
N858 C850 1.356 . S
N858 H864 0.984 . S
N858 H865 0.984 1_545 S
N859 C852 1.356 . S
N859 H862 0.984 1_565 S
N859 H863 0.985 . S
H860 N855 0.984 . S
H861 N855 0.985 . S
H862 N859 0.984 1_545 S
H863 N859 0.985 . S
H864 N858 0.984 . S
H865 N858 0.984 1_565 S
H866 N854 0.984 . S
H867 N854 0.985 . S
C868 C869 1.347 1_545 S
C868 C874 1.394 . S
C868 N876 1.352 1_545 S
C869 C868 1.347 1_565 S
C869 C875 1.363 1_556 S
C870 C871 1.347 1_565 S
C870 C875 1.394 . S
C870 N877 1.352 1_565 S
C871 C870 1.347 1_545 S
C871 C874 1.363 1_554 S
N872 C874 1.356 1_554 S
N872 H884 0.984 1_554 S
N872 H885 0.985 . S
N873 C875 1.356 1_556 S
N873 H878 0.984 . S
N873 H879 0.985 1_556 S
C874 C868 1.394 . S
C874 C871 1.363 1_556 S
C874 N872 1.356 1_556 S
C875 C869 1.363 1_554 S
C875 C870 1.394 . S
C875 N873 1.356 1_554 S
N876 C868 1.352 1_565 S
N876 H882 0.984 1_565 S
N876 H883 0.984 . S
N877 C870 1.352 1_545 S
N877 H880 0.984 . S
N877 H881 0.985 1_545 S
H878 N873 0.984 . S
H879 N873 0.985 1_554 S
H880 N877 0.984 . S
H881 N877 0.985 1_565 S
H882 N876 0.984 1_545 S
H883 N876 0.984 . S
H884 N872 0.984 1_556 S
H885 N872 0.985 . S
C886 C887 1.363 . S
C886 C892 1.379 1_545 S
C886 N894 1.356 . S
C887 C886 1.363 . S
C887 C893 1.363 . S
C888 C889 1.363 . S
C888 C893 1.379 1_565 S
C888 N895 1.356 . S
C889 C888 1.363 . S
C889 C892 1.363 . S
N890 C892 1.356 . S
N890 H902 0.984 . S
N890 H903 0.985 . S
N891 C893 1.356 . S
N891 H896 0.984 . S
N891 H897 0.985 . S
C892 C886 1.379 1_565 S
C892 C889 1.363 . S
C892 N890 1.356 . S
C893 C887 1.363 . S
C893 C888 1.379 1_545 S
C893 N891 1.356 . S
N894 C886 1.356 . S
N894 H900 0.984 . S
N894 H901 0.984 . S
N895 C888 1.356 . S
N895 H898 0.984 . S
N895 H899 0.985 . S
H896 N891 0.984 . S
H897 N891 0.985 . S
H898 N895 0.984 . S
H899 N895 0.985 . S
H900 N894 0.984 . S
H901 N894 0.984 . S
H902 N890 0.984 . S
H903 N890 0.985 . S
C904 C905 1.363 . S
C904 C910 1.379 . S
C904 N912 1.356 . S
C905 C904 1.363 . S
C905 C911 1.363 1_554 S
C906 C907 1.363 . S
C906 C911 1.379 . S
C906 N913 1.356 . S
C907 C906 1.363 . S
C907 C910 1.363 1_556 S
N908 C910 1.356 . S
N908 H920 0.984 . S
N908 H921 0.985 1_554 S
N909 C911 1.356 . S
N909 H914 0.984 1_556 S
N909 H915 0.985 . S
C910 C904 1.379 . S
C910 C907 1.363 1_554 S
C910 N908 1.356 . S
C911 C905 1.363 1_556 S
C911 C906 1.379 . S
C911 N909 1.356 . S
N912 C904 1.356 . S
N912 H918 0.984 . S
N912 H919 0.984 . S
N913 C906 1.356 . S
N913 H916 0.984 . S
N913 H917 0.985 . S
H914 N909 0.984 1_554 S
H915 N909 0.985 . S
H916 N913 0.984 . S
H917 N913 0.985 . S
H918 N912 0.984 . S
H919 N912 0.984 . S
H920 N908 0.984 . S
H921 N908 0.985 1_556 S
C922 C923 1.363 . S
C922 C928 1.379 . S
C922 N930 1.356 . S
C923 C922 1.363 . S
C923 C929 1.363 . S
C924 C925 1.363 . S
C924 C929 1.379 . S
C924 N931 1.356 . S
C925 C924 1.363 . S
C925 C928 1.363 . S
N926 C928 1.356 . S
N926 H938 0.984 . S
N926 H939 0.985 . S
N927 C929 1.356 . S
N927 H932 0.984 . S
N927 H933 0.985 . S
C928 C922 1.379 . S
C928 C925 1.363 . S
C928 N926 1.356 . S
C929 C923 1.363 . S
C929 C924 1.379 . S
C929 N927 1.356 . S
N930 C922 1.356 . S
N930 H936 0.984 . S
N930 H937 0.984 . S
N931 C924 1.356 . S
N931 H934 0.984 . S
N931 H935 0.985 . S
H932 N927 0.984 . S
H933 N927 0.985 . S
H934 N931 0.984 . S
H935 N931 0.985 . S
H936 N930 0.984 . S
H937 N930 0.984 . S
H938 N926 0.984 . S
H939 N926 0.985 . S
C940 C941 1.363 1_554 S
C940 C946 1.379 . S
C940 N948 1.356 . S
C941 C940 1.363 1_556 S
C941 C947 1.363 . S
C942 C943 1.363 1_556 S
C942 C947 1.379 . S
C942 N949 1.356 . S
C943 C942 1.363 1_554 S
C943 C946 1.363 . S
N944 C946 1.356 . S
N944 H956 0.984 . S
N944 H957 0.985 . S
N945 C947 1.356 . S
N945 H950 0.984 . S
N945 H951 0.985 . S
C946 C940 1.379 . S
C946 C943 1.363 . S
C946 N944 1.356 . S
C947 C941 1.363 . S
C947 C942 1.379 . S
C947 N945 1.356 . S
N948 C940 1.356 . S
N948 H954 0.984 . S
N948 H955 0.984 1_554 S
N949 C942 1.356 . S
N949 H952 0.984 1_556 S
N949 H953 0.985 . S
H950 N945 0.984 . S
H951 N945 0.985 . S
H952 N949 0.984 1_554 S
H953 N949 0.985 . S
H954 N948 0.984 . S
H955 N948 0.984 1_556 S
H956 N944 0.984 . S
H957 N944 0.985 . S
C958 C959 1.363 . S
C958 C964 1.379 . S
C958 N966 1.356 . S
C959 C958 1.363 . S
C959 C965 1.363 . S
C960 C961 1.363 . S
C960 C965 1.379 . S
C960 N967 1.356 . S
C961 C960 1.363 . S
C961 C964 1.363 . S
N962 C964 1.356 . S
N962 H974 0.984 . S
N962 H975 0.985 . S
N963 C965 1.356 . S
N963 H968 0.984 . S
N963 H969 0.985 . S
C964 C958 1.379 . S
C964 C961 1.363 . S
C964 N962 1.356 . S
C965 C959 1.363 . S
C965 C960 1.379 . S
C965 N963 1.356 . S
N966 C958 1.356 . S
N966 H972 0.984 . S
N966 H973 0.984 . S
N967 C960 1.356 . S
N967 H970 0.984 . S
N967 H971 0.985 . S
H968 N963 0.984 . S
H969 N963 0.985 . S
H970 N967 0.984 . S
H971 N967 0.985 . S
H972 N966 0.984 . S
H973 N966 0.984 . S
H974 N962 0.984 . S
H975 N962 0.985 . S
C976 C977 1.363 . S
C976 C982 1.379 . S
C976 N984 1.356 . S
C977 C976 1.363 . S
C977 C983 1.363 . S
C978 C979 1.363 . S
C978 C983 1.379 . S
C978 N985 1.356 . S
C979 C978 1.363 . S
C979 C982 1.363 . S
N980 C982 1.356 . S
N980 H992 0.984 . S
N980 H993 0.985 1_556 S
N981 C983 1.356 . S
N981 H986 0.984 . S
N981 H987 0.985 . S
C982 C976 1.379 . S
C982 C979 1.363 . S
C982 N980 1.356 . S
C983 C977 1.363 . S
C983 C978 1.379 . S
C983 N981 1.356 . S
N984 C976 1.356 . S
N984 H990 0.984 . S
N984 H991 0.984 . S
N985 C978 1.356 . S
N985 H988 0.984 1_556 S
N985 H989 0.985 . S
H986 N981 0.984 . S
H987 N981 0.985 . S
H988 N985 0.984 1_554 S
H989 N985 0.985 . S
H990 N984 0.984 . S
H991 N984 0.984 . S
H992 N980 0.984 . S
H993 N980 0.985 1_554 S
C994 C995 1.363 . S
C994 C1000 1.379 . S
C994 N1002 1.356 . S
C995 C994 1.363 . S
C995 C1001 1.363 . S
C996 C997 1.363 . S
C996 C1001 1.379 . S
C996 N1003 1.356 . S
C997 C996 1.363 . S
C997 C1000 1.363 . S
N998 C1000 1.356 . S
N998 H1010 0.984 . S
N998 H1011 0.985 . S
N999 C1001 1.356 . S
N999 H1004 0.984 . S
N999 H1005 0.985 . S
C1000 C994 1.379 . S
C1000 C997 1.363 . S
C1000 N998 1.356 . S
C1001 C995 1.363 . S
C1001 C996 1.379 . S
C1001 N999 1.356 . S
N1002 C994 1.356 . S
N1002 H1008 0.984 . S
N1002 H1009 0.984 . S
N1003 C996 1.356 . S
N1003 H1006 0.984 . S
N1003 H1007 0.985 . S
H1004 N999 0.984 . S
H1005 N999 0.985 . S
H1006 N1003 0.984 . S
H1007 N1003 0.985 . S
H1008 N1002 0.984 . S
H1009 N1002 0.984 . S
H1010 N998 0.984 . S
H1011 N998 0.985 . S
C1012 C1013 1.363 . S
C1012 C1018 1.379 . S
C1012 N1020 1.356 1_554 S
C1013 C1012 1.363 . S
C1013 C1019 1.363 . S
C1014 C1015 1.363 . S
C1014 C1019 1.379 . S
C1014 N1021 1.356 . S
C1015 C1014 1.363 . S
C1015 C1018 1.363 . S
N1016 C1018 1.356 . S
N1016 H1028 0.984 . S
N1016 H1029 0.985 . S
N1017 C1019 1.356 . S
N1017 H1022 0.984 . S
N1017 H1023 0.985 . S
C1018 C1012 1.379 . S
C1018 C1015 1.363 . S
C1018 N1016 1.356 . S
C1019 C1013 1.363 . S
C1019 C1014 1.379 . S
C1019 N1017 1.356 . S
N1020 C1012 1.356 1_556 S
N1020 H1026 0.984 . S
N1020 H1027 0.984 . S
N1021 C1014 1.356 . S
N1021 H1024 0.984 . S
N1021 H1025 0.985 . S
H1022 N1017 0.984 . S
H1023 N1017 0.985 . S
H1024 N1021 0.984 . S
H1025 N1021 0.985 . S
H1026 N1020 0.984 . S
H1027 N1020 0.984 . S
H1028 N1016 0.984 . S
H1029 N1016 0.985 . S
C1030 C1031 1.363 . S
C1030 C1036 1.379 . S
C1030 N1038 1.356 . S
C1031 C1030 1.363 . S
C1031 C1037 1.363 . S
C1032 C1033 1.363 . S
C1032 C1037 1.379 . S
C1032 N1039 1.356 . S
C1033 C1032 1.363 . S
C1033 C1036 1.363 . S
N1034 C1036 1.356 . S
N1034 H1046 0.984 . S
N1034 H1047 0.985 . S
N1035 C1037 1.356 . S
N1035 H1040 0.984 . S
N1035 H1041 0.985 . S
C1036 C1030 1.379 . S
C1036 C1033 1.363 . S
C1036 N1034 1.356 . S
C1037 C1031 1.363 . S
C1037 C1032 1.379 . S
C1037 N1035 1.356 . S
N1038 C1030 1.356 . S
N1038 H1044 0.984 . S
N1038 H1045 0.984 . S
N1039 C1032 1.356 . S
N1039 H1042 0.984 . S
N1039 H1043 0.985 . S
H1040 N1035 0.984 . S
H1041 N1035 0.985 . S
H1042 N1039 0.984 . S
H1043 N1039 0.985 . S
H1044 N1038 0.984 . S
H1045 N1038 0.984 . S
H1046 N1034 0.984 . S
H1047 N1034 0.985 . S
C1048 C1049 1.363 . S
C1048 C1054 1.379 . S
C1048 N1056 1.356 . S
C1049 C1048 1.363 . S
C1049 C1055 1.363 . S
C1050 C1051 1.363 . S
C1050 C1055 1.379 . S
C1050 N1057 1.356 . S
C1051 C1050 1.363 . S
C1051 C1054 1.363 . S
N1052 C1054 1.356 1_556 S
N1052 H1064 0.984 . S
N1052 H1065 0.985 . S
N1053 C1055 1.356 . S
N1053 H1058 0.984 . S
N1053 H1059 0.985 . S
C1054 C1048 1.379 . S
C1054 C1051 1.363 . S
C1054 N1052 1.356 1_554 S
C1055 C1049 1.363 . S
C1055 C1050 1.379 . S
C1055 N1053 1.356 . S
N1056 C1048 1.356 . S
N1056 H1062 0.984 . S
N1056 H1063 0.984 . S
N1057 C1050 1.356 . S
N1057 H1060 0.984 . S
N1057 H1061 0.985 . S
H1058 N1053 0.984 . S
H1059 N1053 0.985 . S
H1060 N1057 0.984 . S
H1061 N1057 0.985 . S
H1062 N1056 0.984 . S
H1063 N1056 0.984 . S
H1064 N1052 0.984 . S
H1065 N1052 0.985 . S
C1066 C1067 1.363 . S
C1066 C1072 1.379 . S
C1066 N1074 1.356 . S
C1067 C1066 1.363 . S
C1067 C1073 1.363 . S
C1068 C1069 1.363 . S
C1068 C1073 1.379 . S
C1068 N1075 1.356 . S
C1069 C1068 1.363 . S
C1069 C1072 1.363 . S
N1070 C1072 1.356 . S
N1070 H1082 0.984 . S
N1070 H1083 0.985 . S
N1071 C1073 1.356 . S
N1071 H1076 0.984 . S
N1071 H1077 0.985 . S
C1072 C1066 1.379 . S
C1072 C1069 1.363 . S
C1072 N1070 1.356 . S
C1073 C1067 1.363 . S
C1073 C1068 1.379 . S
C1073 N1071 1.356 . S
N1074 C1066 1.356 . S
N1074 H1080 0.984 . S
N1074 H1081 0.984 . S
N1075 C1068 1.356 . S
N1075 H1078 0.984 . S
N1075 H1079 0.985 . S
H1076 N1071 0.984 . S
H1077 N1071 0.985 . S
H1078 N1075 0.984 . S
H1079 N1075 0.985 . S
H1080 N1074 0.984 . S
H1081 N1074 0.984 . S
H1082 N1070 0.984 . S
H1083 N1070 0.985 . S
C1084 C1085 1.363 . S
C1084 C1090 1.379 . S
C1084 N1092 1.356 . S
C1085 C1084 1.363 . S
C1085 C1091 1.363 . S
C1086 C1087 1.363 . S
C1086 C1091 1.379 . S
C1086 N1093 1.356 . S
C1087 C1086 1.363 . S
C1087 C1090 1.363 . S
N1088 C1090 1.356 . S
N1088 H1100 0.984 . S
N1088 H1101 0.985 . S
N1089 C1091 1.356 1_554 S
N1089 H1094 0.984 . S
N1089 H1095 0.985 . S
C1090 C1084 1.379 . S
C1090 C1087 1.363 . S
C1090 N1088 1.356 . S
C1091 C1085 1.363 . S
C1091 C1086 1.379 . S
C1091 N1089 1.356 1_556 S
N1092 C1084 1.356 . S
N1092 H1098 0.984 . S
N1092 H1099 0.984 . S
N1093 C1086 1.356 . S
N1093 H1096 0.984 . S
N1093 H1097 0.985 . S
H1094 N1089 0.984 . S
H1095 N1089 0.985 . S
H1096 N1093 0.984 . S
H1097 N1093 0.985 . S
H1098 N1092 0.984 . S
H1099 N1092 0.984 . S
H1100 N1088 0.984 . S
H1101 N1088 0.985 . S
C1102 C1103 1.363 . S
C1102 C1108 1.379 . S
C1102 N1110 1.356 . S
C1103 C1102 1.363 . S
C1103 C1109 1.363 . S
C1104 C1105 1.363 . S
C1104 C1109 1.379 . S
C1104 N1111 1.356 . S
C1105 C1104 1.363 . S
C1105 C1108 1.363 . S
N1106 C1108 1.356 . S
N1106 H1118 0.984 . S
N1106 H1119 0.985 . S
N1107 C1109 1.356 . S
N1107 H1112 0.984 . S
N1107 H1113 0.985 . S
C1108 C1102 1.379 . S
C1108 C1105 1.363 . S
C1108 N1106 1.356 . S
C1109 C1103 1.363 . S
C1109 C1104 1.379 . S
C1109 N1107 1.356 . S
N1110 C1102 1.356 . S
N1110 H1116 0.984 . S
N1110 H1117 0.984 . S
N1111 C1104 1.356 . S
N1111 H1114 0.984 . S
N1111 H1115 0.985 . S
H1112 N1107 0.984 . S
H1113 N1107 0.985 . S
H1114 N1111 0.984 . S
H1115 N1111 0.985 . S
H1116 N1110 0.984 . S
H1117 N1110 0.984 . S
H1118 N1106 0.984 . S
H1119 N1106 0.985 . S
C1120 C1121 1.363 . S
C1120 C1126 1.379 . S
C1120 N1128 1.356 . S
C1121 C1120 1.363 . S
C1121 C1127 1.363 . S
C1122 C1123 1.363 . S
C1122 C1127 1.379 . S
C1122 N1129 1.356 . S
C1123 C1122 1.363 . S
C1123 C1126 1.363 . S
N1124 C1126 1.356 . S
N1124 H1136 0.984 . S
N1124 H1137 0.985 . S
N1125 C1127 1.356 1_554 S
N1125 H1130 0.984 . S
N1125 H1131 0.985 . S
C1126 C1120 1.379 . S
C1126 C1123 1.363 . S
C1126 N1124 1.356 . S
C1127 C1121 1.363 . S
C1127 C1122 1.379 . S
C1127 N1125 1.356 1_556 S
N1128 C1120 1.356 . S
N1128 H1134 0.984 . S
N1128 H1135 0.984 . S
N1129 C1122 1.356 . S
N1129 H1132 0.984 . S
N1129 H1133 0.985 . S
H1130 N1125 0.984 . S
H1131 N1125 0.985 . S
H1132 N1129 0.984 . S
H1133 N1129 0.985 . S
H1134 N1128 0.984 . S
H1135 N1128 0.984 . S
H1136 N1124 0.984 . S
H1137 N1124 0.985 . S
C1138 C1139 1.363 . S
C1138 C1144 1.379 . S
C1138 N1146 1.356 . S
C1139 C1138 1.363 . S
C1139 C1145 1.363 . S
C1140 C1141 1.363 . S
C1140 C1145 1.379 . S
C1140 N1147 1.356 . S
C1141 C1140 1.363 . S
C1141 C1144 1.363 . S
N1142 C1144 1.356 . S
N1142 H1154 0.984 . S
N1142 H1155 0.985 . S
N1143 C1145 1.356 . S
N1143 H1148 0.984 . S
N1143 H1149 0.985 . S
C1144 C1138 1.379 . S
C1144 C1141 1.363 . S
C1144 N1142 1.356 . S
C1145 C1139 1.363 . S
C1145 C1140 1.379 . S
C1145 N1143 1.356 . S
N1146 C1138 1.356 . S
N1146 H1152 0.984 . S
N1146 H1153 0.984 . S
N1147 C1140 1.356 . S
N1147 H1150 0.984 . S
N1147 H1151 0.985 . S
H1148 N1143 0.984 . S
H1149 N1143 0.985 . S
H1150 N1147 0.984 . S
H1151 N1147 0.985 . S
H1152 N1146 0.984 . S
H1153 N1146 0.984 . S
H1154 N1142 0.984 . S
H1155 N1142 0.985 . S
C1156 C1157 1.363 . S
C1156 C1162 1.379 . S
C1156 N1164 1.356 . S
C1157 C1156 1.363 . S
C1157 C1163 1.363 . S
C1158 C1159 1.363 . S
C1158 C1163 1.379 . S
C1158 N1165 1.356 . S
C1159 C1158 1.363 . S
C1159 C1162 1.363 . S
N1160 C1162 1.356 1_556 S
N1160 H1172 0.984 . S
N1160 H1173 0.985 . S
N1161 C1163 1.356 . S
N1161 H1166 0.984 . S
N1161 H1167 0.985 . S
C1162 C1156 1.379 . S
C1162 C1159 1.363 . S
C1162 N1160 1.356 1_554 S
C1163 C1157 1.363 . S
C1163 C1158 1.379 . S
C1163 N1161 1.356 . S
N1164 C1156 1.356 . S
N1164 H1170 0.984 . S
N1164 H1171 0.984 . S
N1165 C1158 1.356 . S
N1165 H1168 0.984 . S
N1165 H1169 0.985 . S
H1166 N1161 0.984 . S
H1167 N1161 0.985 . S
H1168 N1165 0.984 . S
H1169 N1165 0.985 . S
H1170 N1164 0.984 . S
H1171 N1164 0.984 . S
H1172 N1160 0.984 . S
H1173 N1160 0.985 . S
C1174 C1175 1.363 . S
C1174 C1180 1.379 . S
C1174 N1182 1.356 . S
C1175 C1174 1.363 . S
C1175 C1181 1.363 . S
C1176 C1177 1.363 . S
C1176 C1181 1.379 . S
C1176 N1183 1.356 . S
C1177 C1176 1.363 . S
C1177 C1180 1.363 . S
N1178 C1180 1.356 . S
N1178 H1190 0.984 . S
N1178 H1191 0.985 . S
N1179 C1181 1.356 . S
N1179 H1184 0.984 . S
N1179 H1185 0.985 . S
C1180 C1174 1.379 . S
C1180 C1177 1.363 . S
C1180 N1178 1.356 . S
C1181 C1175 1.363 . S
C1181 C1176 1.379 . S
C1181 N1179 1.356 . S
N1182 C1174 1.356 . S
N1182 H1188 0.984 . S
N1182 H1189 0.984 . S
N1183 C1176 1.356 . S
N1183 H1186 0.984 . S
N1183 H1187 0.985 . S
H1184 N1179 0.984 . S
H1185 N1179 0.985 . S
H1186 N1183 0.984 . S
H1187 N1183 0.985 . S
H1188 N1182 0.984 . S
H1189 N1182 0.984 . S
H1190 N1178 0.984 . S
H1191 N1178 0.985 . S
C1192 C1193 1.363 . S
C1192 C1198 1.379 . S
C1192 N1200 1.356 1_554 S
C1193 C1192 1.363 . S
C1193 C1199 1.363 . S
C1194 C1195 1.363 . S
C1194 C1199 1.379 . S
C1194 N1201 1.356 . S
C1195 C1194 1.363 . S
C1195 C1198 1.363 . S
N1196 C1198 1.356 . S
N1196 H1208 0.984 . S
N1196 H1209 0.985 . S
N1197 C1199 1.356 . S
N1197 H1202 0.984 . S
N1197 H1203 0.985 . S
C1198 C1192 1.379 . S
C1198 C1195 1.363 . S
C1198 N1196 1.356 . S
C1199 C1193 1.363 . S
C1199 C1194 1.379 . S
C1199 N1197 1.356 . S
N1200 C1192 1.356 1_556 S
N1200 H1206 0.984 . S
N1200 H1207 0.984 . S
N1201 C1194 1.356 . S
N1201 H1204 0.984 . S
N1201 H1205 0.985 . S
H1202 N1197 0.984 . S
H1203 N1197 0.985 . S
H1204 N1201 0.984 . S
H1205 N1201 0.985 . S
H1206 N1200 0.984 . S
H1207 N1200 0.984 . S
H1208 N1196 0.984 . S
H1209 N1196 0.985 . S
C1210 C1211 1.363 . S
C1210 C1216 1.379 . S
C1210 N1218 1.356 . S
C1211 C1210 1.363 . S
C1211 C1217 1.363 . S
C1212 C1213 1.363 . S
C1212 C1217 1.379 . S
C1212 N1219 1.356 . S
C1213 C1212 1.363 . S
C1213 C1216 1.363 . S
N1214 C1216 1.356 . S
N1214 H1226 0.984 . S
N1214 H1227 0.985 . S
N1215 C1217 1.356 . S
N1215 H1220 0.984 . S
N1215 H1221 0.985 . S
C1216 C1210 1.379 . S
C1216 C1213 1.363 . S
C1216 N1214 1.356 . S
C1217 C1211 1.363 . S
C1217 C1212 1.379 . S
C1217 N1215 1.356 . S
N1218 C1210 1.356 . S
N1218 H1224 0.984 . S
N1218 H1225 0.984 . S
N1219 C1212 1.356 . S
N1219 H1222 0.984 . S
N1219 H1223 0.985 . S
H1220 N1215 0.984 . S
H1221 N1215 0.985 . S
H1222 N1219 0.984 . S
H1223 N1219 0.985 . S
H1224 N1218 0.984 . S
H1225 N1218 0.984 . S
H1226 N1214 0.984 . S
H1227 N1214 0.985 . S
C1228 C1229 1.363 . S
C1228 C1234 1.379 . S
C1228 N1236 1.356 . S
C1229 C1228 1.363 . S
C1229 C1235 1.363 . S
C1230 C1231 1.363 . S
C1230 C1235 1.379 . S
C1230 N1237 1.356 1_556 S
C1231 C1230 1.363 . S
C1231 C1234 1.363 . S
N1232 C1234 1.356 . S
N1232 H1244 0.984 . S
N1232 H1245 0.985 . S
N1233 C1235 1.356 . S
N1233 H1238 0.984 . S
N1233 H1239 0.985 . S
C1234 C1228 1.379 . S
C1234 C1231 1.363 . S
C1234 N1232 1.356 . S
C1235 C1229 1.363 . S
C1235 C1230 1.379 . S
C1235 N1233 1.356 . S
N1236 C1228 1.356 . S
N1236 H1242 0.984 . S
N1236 H1243 0.984 . S
N1237 C1230 1.356 1_554 S
N1237 H1240 0.984 . S
N1237 H1241 0.985 . S
H1238 N1233 0.984 . S
H1239 N1233 0.985 . S
H1240 N1237 0.984 . S
H1241 N1237 0.985 . S
H1242 N1236 0.984 . S
H1243 N1236 0.984 . S
H1244 N1232 0.984 . S
H1245 N1232 0.985 . S
C1246 C1247 1.363 . S
C1246 C1252 1.379 . S
C1246 N1254 1.356 . S
C1247 C1246 1.363 . S
C1247 C1253 1.363 . S
C1248 C1249 1.363 . S
C1248 C1253 1.379 . S
C1248 N1255 1.356 . S
C1249 C1248 1.363 . S
C1249 C1252 1.363 . S
N1250 C1252 1.356 . S
N1250 H1262 0.984 . S
N1250 H1263 0.985 . S
N1251 C1253 1.356 . S
N1251 H1256 0.984 . S
N1251 H1257 0.985 . S
C1252 C1246 1.379 . S
C1252 C1249 1.363 . S
C1252 N1250 1.356 . S
C1253 C1247 1.363 . S
C1253 C1248 1.379 . S
C1253 N1251 1.356 . S
N1254 C1246 1.356 . S
N1254 H1260 0.984 . S
N1254 H1261 0.984 . S
N1255 C1248 1.356 . S
N1255 H1258 0.984 . S
N1255 H1259 0.985 . S
H1256 N1251 0.984 . S
H1257 N1251 0.985 . S
H1258 N1255 0.984 . S
H1259 N1255 0.985 . S
H1260 N1254 0.984 . S
H1261 N1254 0.984 . S
H1262 N1250 0.984 . S
H1263 N1250 0.985 . S
C545 C9 1.479 . S
C547 C111 1.479 . S
C563 C77 1.479 . S
C565 C43 1.479 . S
C581 C247 1.479 . S
C583 C145 1.479 . S
C599 C179 1.479 . S
C601 C213 1.479 . S
C617 C281 1.479 . S
C619 C383 1.479 . S
C635 C315 1.479 . S
C637 C349 1.479 . S
C653 C519 1.479 . S
C655 C417 1.479 . S
C671 C451 1.479 . S
C673 C485 1.479 . S
C689 C209 1.495 . S
C691 C5 1.495 . S
C707 C243 1.495 . S
C709 C39 1.495 . S
C725 C141 1.495 . S
C727 C73 1.495 . S
C743 C175 1.495 . S
C745 C107 1.495 . S
C761 C481 1.495 . S
C763 C277 1.495 . S
C779 C515 1.495 . S
C781 C311 1.495 . S
C797 C413 1.495 . S
C799 C345 1.495 . S
C815 C379 1.495 . S
C817 C447 1.495 . S
C833 C2 1.544 . S
C835 C70 1.544 . S
C851 C36 1.544 . S
C853 C104 1.544 . S
C869 C138 1.544 . S
C871 C206 1.544 . S
C887 C172 1.544 . S
C889 C240 1.544 . S
C905 C274 1.544 . S
C907 C342 1.544 . S
C923 C308 1.544 . S
C925 C376 1.544 . S
C941 C410 1.544 . S
C943 C478 1.544 . S
C959 C444 1.544 . S
C961 C512 1.544 . S
C977 C530 1.405 . S
C979 C33 1.407 1_556 S
C995 C67 1.407 . S
C997 C496 1.405 . S
C1013 C101 1.407 1_554 S
C1015 C462 1.405 . S
C1031 C428 1.405 . S
C1033 C135 1.407 . S
C1049 C394 1.405 . S
C1051 C169 1.407 1_554 S
C1067 C203 1.407 . S
C1069 C360 1.405 . S
C1085 C237 1.407 1_556 S
C1087 C326 1.405 . S
C1103 C271 1.407 . S
C1105 C292 1.405 . S
C1121 C305 1.407 1_556 S
C1123 C258 1.405 . S
C1139 C224 1.405 . S
C1141 C339 1.407 . S
C1157 C190 1.405 . S
C1159 C373 1.407 1_554 S
C1175 C407 1.407 . S
C1177 C156 1.405 . S
C1193 C441 1.407 1_554 S
C1195 C122 1.405 . S
C1211 C88 1.405 . S
C1213 C475 1.407 . S
C1229 C54 1.405 . S
C1231 C509 1.407 1_556 S
C1247 C20 1.405 . S
C1249 C543 1.407 . S
