# Generated by pormake.
# Topology ecf, (8)-cn, num edge types: 1
# Building blocks:
#     Node 0, Type 0, BuildingBlock: TAGTUT_clean_sbu_1, # of connection points: 8
#     Node 1, Type 0, BuildingBlock: TAGTUT_clean_sbu_1, # of connection points: 8
#     Node 2, Type 0, BuildingBlock: TAGTUT_clean_sbu_1, # of connection points: 8
#     Node 3, Type 0, BuildingBlock: TAGTUT_clean_sbu_1, # of connection points: 8
#     Node 4, Type 0, BuildingBlock: TAGTUT_clean_sbu_1, # of connection points: 8
#     Node 5, Type 0, BuildingBlock: TAGTUT_clean_sbu_1, # of connection points: 8
#     Edge 6, Type (0, 0), BuildingBlock: TEMPAE_clean_linker_10, # of connection points: 2
#     Edge 7, Type (0, 0), BuildingBlock: TEMPAE_clean_linker_10, # of connection points: 2
#     Edge 8, Type (0, 0), BuildingBlock: TEMPAE_clean_linker_10, # of connection points: 2
#     Edge 9, Type (0, 0), BuildingBlock: TEMPAE_clean_linker_10, # of connection points: 2
#     Edge 10, Type (0, 0), BuildingBlock: TEMPAE_clean_linker_10, # of connection points: 2
#     Edge 11, Type (0, 0), BuildingBlock: TEMPAE_clean_linker_10, # of connection points: 2
#     Edge 12, Type (0, 0), BuildingBlock: TEMPAE_clean_linker_10, # of connection points: 2
#     Edge 13, Type (0, 0), BuildingBlock: TEMPAE_clean_linker_10, # of connection points: 2
#     Edge 14, Type (0, 0), BuildingBlock: TEMPAE_clean_linker_10, # of connection points: 2
#     Edge 15, Type (0, 0), BuildingBlock: TEMPAE_clean_linker_10, # of connection points: 2
#     Edge 16, Type (0, 0), BuildingBlock: TEMPAE_clean_linker_10, # of connection points: 2
#     Edge 17, Type (0, 0), BuildingBlock: TEMPAE_clean_linker_10, # of connection points: 2
#     Edge 18, Type (0, 0), BuildingBlock: TEMPAE_clean_linker_10, # of connection points: 2
#     Edge 19, Type (0, 0), BuildingBlock: TEMPAE_clean_linker_10, # of connection points: 2
#     Edge 20, Type (0, 0), BuildingBlock: TEMPAE_clean_linker_10, # of connection points: 2
#     Edge 21, Type (0, 0), BuildingBlock: TEMPAE_clean_linker_10, # of connection points: 2
#     Edge 22, Type (0, 0), BuildingBlock: TEMPAE_clean_linker_10, # of connection points: 2
#     Edge 23, Type (0, 0), BuildingBlock: TEMPAE_clean_linker_10, # of connection points: 2
#     Edge 24, Type (0, 0), BuildingBlock: TEMPAE_clean_linker_10, # of connection points: 2
#     Edge 25, Type (0, 0), BuildingBlock: TEMPAE_clean_linker_10, # of connection points: 2
#     Edge 26, Type (0, 0), BuildingBlock: TEMPAE_clean_linker_10, # of connection points: 2
#     Edge 27, Type (0, 0), BuildingBlock: TEMPAE_clean_linker_10, # of connection points: 2
#     Edge 28, Type (0, 0), BuildingBlock: TEMPAE_clean_linker_10, # of connection points: 2
#     Edge 29, Type (0, 0), BuildingBlock: TEMPAE_clean_linker_10, # of connection points: 2
# Relax obj value: 0.207
# Max RMSD: 0.207
# Mean RMSD: 0.189
data_MOF--net-ecf--node1-TAGTUT_clean_sbu_1--edge1-TEMPAE_clean_linker_10
_symmetry_space_group_name_H-M    P1
_symmetry_Int_Tables_number       1
_symmetry_cell_setting            triclinic
loop_
_symmetry_equiv_pos_as_xyz
'x, y, z'
_cell_length_a     33.889924
_cell_length_b     34.130213
_cell_length_c     27.847857
_cell_angle_alpha  96.439561
_cell_angle_beta   91.697969
_cell_angle_gamma 119.76591
loop_
_atom_site_label
_atom_site_type_symbol
_atom_site_fract_x
_atom_site_fract_y
_atom_site_fract_z
_atom_type_partial_charge
C0 C 0.05285 0.19829 0.17559 0.0
C1 C 0.13084 0.32831 0.13786 0.0
C2 C 0.2784 0.31707 0.17395 0.0
Mg3 Mg 0.11133 0.29456 0.23503 0.0
O4 O 0.15337 0.27381 0.23498 0.0
Mg5 Mg 0.16631 0.25678 0.16808 0.0
Mg6 Mg 0.21485 0.32556 0.25954 0.0
O7 O 0.27554 0.37869 0.28301 0.0
Mg8 Mg 0.32969 0.3767 0.27785 0.0
Mg9 Mg 0.26235 0.39809 0.34846 0.0
C10 C 0.15117 0.33039 0.34574 0.0
C11 C 0.20566 0.4158 0.26737 0.0
O12 O 0.08829 0.19889 0.15899 0.0
O13 O 0.05512 0.23102 0.20513 0.0
O14 O 0.1452 0.30026 0.12931 0.0
O15 O 0.11979 0.33606 0.17959 0.0
O16 O 0.11917 0.31923 0.31207 0.0
O17 O 0.18919 0.33211 0.33625 0.0
C18 C 0.21914 0.23441 0.24973 0.0
O19 O 0.23297 0.27296 0.27597 0.0
O20 O 0.19245 0.22049 0.21024 0.0
O21 O 0.33426 0.46323 0.35081 0.0
O22 O 0.37538 0.44861 0.29697 0.0
O23 O 0.29405 0.36207 0.38684 0.0
C24 C 0.37034 0.476 0.32824 0.0
O25 O 0.33653 0.34552 0.33774 0.0
O26 O 0.31467 0.33866 0.2041 0.0
C27 C 0.31996 0.34527 0.3783 0.0
O28 O 0.24101 0.31639 0.18423 0.0
O29 O 0.1958 0.37785 0.2422 0.0
O30 O 0.23036 0.43077 0.308 0.0
C31 C 0.88218 0.34987 0.67525 0.0
C32 C 0.96464 0.28528 0.63154 0.0
C33 C 0.80757 0.1339 0.67523 0.0
Mg34 Mg 0.94605 0.32456 0.72939 0.0
O35 O 0.89084 0.26976 0.72717 0.0
Mg36 Mg 0.8539 0.23906 0.66302 0.0
Mg37 Mg 0.88409 0.21519 0.75392 0.0
O38 O 0.87604 0.15999 0.78048 0.0
Mg39 Mg 0.81544 0.11545 0.7835 0.0
Mg40 Mg 0.91466 0.18895 0.84385 0.0
C41 C 0.95708 0.30005 0.83594 0.0
C42 C 0.97826 0.21362 0.7531 0.0
O43 O 0.85938 0.30831 0.65423 0.0
O44 O 0.91658 0.36398 0.70674 0.0
O45 O 0.92117 0.25806 0.62223 0.0
O46 O 0.98141 0.31221 0.67175 0.0
O47 O 0.96945 0.32886 0.80544 0.0
O48 O 0.92398 0.2586 0.82491 0.0
C49 C 0.78603 0.21034 0.7505 0.0
O50 O 0.81588 0.20648 0.77579 0.0
O51 O 0.79235 0.22137 0.70757 0.0
O52 O 0.89874 0.11463 0.85399 0.0
O53 O 0.8301 0.06795 0.8109 0.0
O54 O 0.85339 0.17311 0.88959 0.0
C55 C 0.86405 0.07462 0.83916 0.0
O56 O 0.78721 0.13463 0.84308 0.0
O57 O 0.79022 0.10846 0.70835 0.0
C58 C 0.80967 0.15297 0.8847 0.0
O59 O 0.84569 0.17172 0.68303 0.0
O60 O 0.95072 0.22243 0.73062 0.0
O61 O 0.97203 0.2013 0.79544 0.0
C62 C 0.51491 0.88064 0.18402 0.0
C63 C 0.65534 0.96658 0.14697 0.0
C64 C 0.67226 0.82199 0.18108 0.0
Mg65 Mg 0.60884 0.94756 0.24263 0.0
O66 O 0.61154 0.89399 0.23859 0.0
Mg67 Mg 0.60053 0.8573 0.17317 0.0
Mg68 Mg 0.66482 0.89071 0.26573 0.0
O69 O 0.7171 0.88579 0.29229 0.0
Mg70 Mg 0.70642 0.82653 0.28949 0.0
Mg71 Mg 0.73054 0.92268 0.35761 0.0
C72 C 0.65823 0.96153 0.34908 0.0
C73 C 0.75829 0.98656 0.27125 0.0
O74 O 0.53299 0.85867 0.16324 0.0
O75 O 0.53729 0.91541 0.217 0.0
O76 O 0.64043 0.9236 0.13633 0.0
O77 O 0.64869 0.98335 0.18716 0.0
O78 O 0.6373 0.97283 0.31899 0.0
O79 O 0.66577 0.92841 0.33766 0.0
C80 C 0.57504 0.7903 0.25644 0.0
O81 O 0.61077 0.82136 0.28327 0.0
O82 O 0.56473 0.79569 0.21389 0.0
O83 O 0.79334 0.91177 0.36853 0.0
O84 O 0.77268 0.84562 0.31984 0.0
O85 O 0.69199 0.85905 0.39743 0.0
C86 C 0.8007 0.8796 0.3512 0.0
O87 O 0.6652 0.7947 0.34527 0.0
O88 O 0.68584 0.80457 0.21169 0.0
C89 C 0.671 0.81533 0.3883 0.0
O90 O 0.66588 0.85543 0.19376 0.0
O91 O 0.71969 0.95853 0.24706 0.0
O92 O 0.76892 0.98109 0.31364 0.0
C93 C 0.92937 0.74583 0.68661 0.0
C94 C 0.82614 0.62027 0.62309 0.0
C95 C 0.70374 0.66449 0.66667 0.0
Mg96 Mg 0.86103 0.65964 0.72768 0.0
O97 O 0.83372 0.69617 0.73286 0.0
Mg98 Mg 0.81795 0.71138 0.67039 0.0
Mg99 Mg 0.77244 0.65932 0.75229 0.0
O100 O 0.71112 0.61895 0.77029 0.0
Mg101 Mg 0.66369 0.6314 0.76518 0.0
Mg102 Mg 0.72874 0.60683 0.83367 0.0
C103 C 0.83824 0.65121 0.83579 0.0
C104 C 0.75697 0.55644 0.74715 0.0
O105 O 0.89764 0.75283 0.6703 0.0
O106 O 0.92148 0.71246 0.70912 0.0
O107 O 0.81958 0.65392 0.62276 0.0
O108 O 0.83783 0.61132 0.6625 0.0
O109 O 0.86126 0.64632 0.80219 0.0
O110 O 0.8049 0.65813 0.8263 0.0
C111 C 0.79742 0.76483 0.7615 0.0
O112 O 0.77789 0.72812 0.78091 0.0
O113 O 0.81484 0.76642 0.721 0.0
O114 O 0.65155 0.55325 0.83235 0.0
O115 O 0.61046 0.5672 0.77898 0.0
O116 O 0.71909 0.66417 0.87395 0.0
C117 C 0.61366 0.54245 0.80837 0.0
O118 O 0.67974 0.68281 0.82437 0.0
O119 O 0.67091 0.65149 0.69388 0.0
C120 C 0.70182 0.68884 0.86487 0.0
O121 O 0.74107 0.66519 0.67963 0.0
O122 O 0.76931 0.59125 0.7251 0.0
O123 O 0.74099 0.55447 0.78854 0.0
C124 C 0.18277 0.94 0.20127 0.0
C125 C 0.18992 0.83467 0.12505 0.0
C126 C 0.02285 0.71883 0.1561 0.0
Mg127 Mg 0.19554 0.86329 0.23313 0.0
O128 O 0.13272 0.84164 0.23528 0.0
Mg129 Mg 0.09756 0.83186 0.17175 0.0
Mg130 Mg 0.10565 0.77883 0.24837 0.0
O131 O 0.08238 0.71632 0.2602 0.0
Mg132 Mg 0.02523 0.66557 0.24212 0.0
Mg133 Mg 0.11843 0.72498 0.32204 0.0
C134 C 0.18673 0.83602 0.3392 0.0
C135 C 0.19004 0.75881 0.24045 0.0
O136 O 0.14189 0.91175 0.18102 0.0
O137 O 0.2076 0.92743 0.22254 0.0
O138 O 0.15062 0.83111 0.12389 0.0
O139 O 0.21331 0.84228 0.16527 0.0
O140 O 0.21261 0.85757 0.30724 0.0
O141 O 0.1446 0.80424 0.32722 0.0
C142 C 0.03228 0.81223 0.26011 0.0
O143 O 0.04798 0.78858 0.27683 0.0
O144 O 0.04569 0.83124 0.22197 0.0
O145 O 0.09611 0.64817 0.30518 0.0
O146 O 0.04428 0.61486 0.23959 0.0
O147 O 0.0523 0.70469 0.36202 0.0
C148 C 0.07174 0.61433 0.27164 0.0
O149 O 0.99211 0.66309 0.30576 0.0
O150 O 0.00467 0.68319 0.17732 0.0
C151 C 0.00902 0.68001 0.34967 0.0
O152 O 0.0623 0.75364 0.17257 0.0
O153 O 0.16579 0.77252 0.21981 0.0
O154 O 0.17979 0.74166 0.27983 0.0
C155 C 0.20909 0.14555 0.6662 0.0
C156 C 0.34719 0.20227 0.65097 0.0
C157 C 0.32706 0.03879 0.66582 0.0
Mg158 Mg 0.29464 0.18132 0.73949 0.0
O159 O 0.27452 0.11835 0.73001 0.0
Mg160 Mg 0.27028 0.09246 0.65988 0.0
Mg161 Mg 0.32255 0.10744 0.75719 0.0
O162 O 0.37246 0.09935 0.78329 0.0
Mg163 Mg 0.37384 0.04501 0.77047 0.0
Mg164 Mg 0.38353 0.1297 0.8522 0.0
C165 C 0.31388 0.17193 0.85026 0.0
C166 C 0.41228 0.20794 0.78384 0.0
O167 O 0.21381 0.1122 0.64678 0.0
O168 O 0.2356 0.17469 0.70226 0.0
O169 O 0.32111 0.15983 0.63589 0.0
O170 O 0.3473 0.21931 0.69414 0.0
O171 O 0.30636 0.19287 0.8187 0.0
O172 O 0.31766 0.13624 0.83722 0.0
C173 C 0.23135 0.01156 0.7256 0.0
O174 O 0.26487 0.03463 0.75881 0.0
O175 O 0.22564 0.02743 0.688 0.0
O176 O 0.45119 0.126 0.8553 0.0
O177 O 0.44439 0.07305 0.79422 0.0
O178 O 0.3431 0.05904 0.87956 0.0
C179 C 0.46784 0.10477 0.82977 0.0
O180 O 0.33483 0.00338 0.82222 0.0
O181 O 0.34483 0.02351 0.69462 0.0
C182 C 0.3284 0.01675 0.86434 0.0
O183 O 0.32644 0.07608 0.67934 0.0
O184 O 0.37838 0.18025 0.753 0.0
O185 O 0.421 0.19678 0.82332 0.0
C186 C 0.1343 0.41664 0.25218 0.0
C187 C 0.18195 0.43931 0.25386 0.0
C188 C 0.11081 0.44033 0.24865 0.0
C189 C 0.13595 0.4878 0.24748 0.0
C190 C 0.18398 0.51035 0.24639 0.0
C191 C 0.20661 0.48577 0.25025 0.0
C192 C 0.0596 0.41525 0.24975 0.0
C193 C 0.21166 0.56088 0.24414 0.0
C194 C 0.07835 0.55426 0.21961 0.0
C195 C 0.08062 0.57623 0.26615 0.0
C196 C 0.09478 0.52385 0.21284 0.0
C197 C 0.11307 0.51495 0.25374 0.0
C198 C 0.11241 0.53458 0.30107 0.0
C199 C 0.09662 0.56549 0.30667 0.0
C200 C 0.09547 0.50401 0.16181 0.0
C201 C 0.13043 0.52465 0.34564 0.0
H202 H 0.11561 0.38102 0.25698 0.0
H203 H 0.24359 0.50307 0.25221 0.0
H204 H 0.05103 0.42595 0.28516 0.0
H205 H 0.04318 0.42388 0.22092 0.0
H206 H 0.0448 0.37764 0.24482 0.0
H207 H 0.2477 0.57198 0.23783 0.0
H208 H 0.19629 0.56998 0.21473 0.0
H209 H 0.21147 0.58022 0.27886 0.0
H210 H 0.06636 0.56291 0.18816 0.0
H211 H 0.09797 0.58226 0.34264 0.0
H212 H 0.08823 0.46841 0.15997 0.0
H213 H 0.13001 0.52452 0.14991 0.0
H214 H 0.07034 0.50468 0.13585 0.0
H215 H 0.11464 0.48727 0.34514 0.0
H216 H 0.12364 0.53944 0.37982 0.0
H217 H 0.16786 0.53903 0.34581 0.0
C218 C 0.53364 0.09169 0.82266 0.0
C219 C 0.51742 0.12155 0.83616 0.0
C220 C 0.58001 0.1083 0.8169 0.0
C221 C 0.61069 0.15599 0.82386 0.0
C222 C 0.59515 0.18611 0.84112 0.0
C223 C 0.54863 0.16846 0.84746 0.0
C224 C 0.59542 0.07494 0.79976 0.0
C225 C 0.62669 0.23717 0.84889 0.0
C226 C 0.73692 0.19519 0.81979 0.0
C227 C 0.74233 0.19999 0.77057 0.0
C228 C 0.69466 0.18225 0.83824 0.0
C229 C 0.65698 0.17403 0.80674 0.0
C230 C 0.6627 0.1805 0.7575 0.0
C231 C 0.70522 0.19338 0.74005 0.0
C232 C 0.69003 0.17631 0.89107 0.0
C233 C 0.62345 0.17245 0.72274 0.0
H234 H 0.50962 0.05536 0.81425 0.0
H235 H 0.53621 0.19172 0.85756 0.0
H236 H 0.60342 0.07776 0.7615 0.0
H237 H 0.62703 0.08299 0.8218 0.0
H238 H 0.56886 0.03912 0.80179 0.0
H239 H 0.61166 0.25524 0.87002 0.0
H240 H 0.66002 0.24656 0.86805 0.0
H241 H 0.63345 0.24941 0.81311 0.0
H242 H 0.76564 0.20124 0.84393 0.0
H243 H 0.70901 0.19715 0.70206 0.0
H244 H 0.66674 0.13982 0.894 0.0
H245 H 0.67463 0.1957 0.90839 0.0
H246 H 0.72342 0.18782 0.91169 0.0
H247 H 0.5964 0.13597 0.71826 0.0
H248 H 0.63419 0.18154 0.68638 0.0
H249 H 0.6081 0.1928 0.73758 0.0
C250 C 0.39195 0.5579 0.34568 0.0
C251 C 0.40479 0.52506 0.33353 0.0
C252 C 0.42116 0.60372 0.34051 0.0
C253 C 0.46434 0.6169 0.32349 0.0
C254 C 0.47905 0.58469 0.31547 0.0
C255 C 0.4489 0.53901 0.32018 0.0
C256 C 0.40431 0.63712 0.34951 0.0
C257 C 0.52535 0.59777 0.29851 0.0
C258 C 0.51125 0.70934 0.24294 0.0
C259 C 0.54536 0.74672 0.2746 0.0
C260 C 0.4841 0.66726 0.25887 0.0
C261 C 0.49134 0.6623 0.30763 0.0
C262 C 0.52493 0.70009 0.34017 0.0
C263 C 0.55141 0.74196 0.32329 0.0
C264 C 0.44819 0.62781 0.22315 0.0
C265 C 0.53358 0.69609 0.39242 0.0
H266 H 0.35788 0.54734 0.356 0.0
H267 H 0.4592 0.51383 0.31139 0.0
H268 H 0.43114 0.66968 0.37081 0.0
H269 H 0.39614 0.64499 0.31422 0.0
H270 H 0.37313 0.62333 0.36912 0.0
H271 H 0.53381 0.57033 0.29984 0.0
H272 H 0.52588 0.60486 0.26053 0.0
H273 H 0.55237 0.62935 0.32113 0.0
H274 H 0.50612 0.71268 0.20534 0.0
H275 H 0.57687 0.77095 0.34832 0.0
H276 H 0.4143 0.61381 0.23745 0.0
H277 H 0.45635 0.59998 0.21818 0.0
H278 H 0.44566 0.63784 0.18709 0.0
H279 H 0.50103 0.67961 0.40937 0.0
H280 H 0.55696 0.72981 0.41438 0.0
H281 H 0.54902 0.67415 0.39387 0.0
C282 C 0.81576 0.36053 0.65768 0.0
C283 C 0.86297 0.37995 0.66951 0.0
C284 C 0.79482 0.38718 0.66278 0.0
C285 C 0.82187 0.43457 0.67906 0.0
C286 C 0.87 0.45499 0.68679 0.0
C287 C 0.88995 0.42734 0.68257 0.0
C288 C 0.74338 0.3638 0.65489 0.0
C289 C 0.90015 0.50568 0.70268 0.0
C290 C 0.77272 0.51348 0.67829 0.0
C291 C 0.76681 0.52031 0.72756 0.0
C292 C 0.78959 0.48475 0.6614 0.0
C293 C 0.7998 0.46167 0.69448 0.0
C294 C 0.79077 0.46596 0.74354 0.0
C295 C 0.77454 0.4953 0.75948 0.0
C296 C 0.79799 0.48033 0.60867 0.0
C297 C 0.80007 0.44103 0.77979 0.0
H298 H 0.79451 0.32388 0.64784 0.0
H299 H 0.92646 0.44261 0.69136 0.0
H300 H 0.72934 0.3607 0.69066 0.0
H301 H 0.73239 0.38398 0.63555 0.0
H302 H 0.72821 0.32902 0.63394 0.0
H303 H 0.93693 0.51701 0.70105 0.0
H304 H 0.89097 0.52495 0.67952 0.0
H305 H 0.89488 0.51456 0.74059 0.0
H306 H 0.76505 0.53134 0.65312 0.0
H307 H 0.76981 0.5001 0.79758 0.0
H308 H 0.78033 0.44389 0.59235 0.0
H309 H 0.83504 0.49425 0.6058 0.0
H310 H 0.78607 0.49862 0.5871 0.0
H311 H 0.7831 0.40405 0.7658 0.0
H312 H 0.78796 0.44533 0.81558 0.0
H313 H 0.83732 0.45402 0.78527 0.0
C314 C 0.24123 0.77211 0.17322 0.0
C315 C 0.23401 0.76822 0.22221 0.0
C316 C 0.28501 0.78746 0.15769 0.0
C317 C 0.32204 0.79866 0.192 0.0
C318 C 0.3142 0.79197 0.24085 0.0
C319 C 0.27034 0.77684 0.25531 0.0
C320 C 0.29193 0.79273 0.10501 0.0
C321 C 0.35258 0.8027 0.27848 0.0
C322 C 0.43652 0.81353 0.16243 0.0
C323 C 0.46493 0.8609 0.17512 0.0
C324 C 0.38912 0.7927 0.16436 0.0
C325 C 0.36967 0.82004 0.17837 0.0
C326 C 0.39768 0.86819 0.18664 0.0
C327 C 0.44512 0.88805 0.18557 0.0
C328 C 0.36075 0.74126 0.15588 0.0
C329 C 0.37797 0.89858 0.20017 0.0
H330 H 0.21285 0.76397 0.14725 0.0
H331 H 0.26498 0.77371 0.29321 0.0
H332 H 0.31762 0.82855 0.1019 0.0
H333 H 0.30558 0.77107 0.08936 0.0
H334 H 0.25973 0.78308 0.08299 0.0
H335 H 0.34015 0.79249 0.31401 0.0
H336 H 0.37114 0.78496 0.26574 0.0
H337 H 0.37745 0.83989 0.28407 0.0
H338 H 0.45158 0.79224 0.15451 0.0
H339 H 0.46687 0.9247 0.19485 0.0
H340 H 0.32706 0.72936 0.13592 0.0
H341 H 0.35443 0.72858 0.19146 0.0
H342 H 0.37839 0.72571 0.1353 0.0
H343 H 0.34704 0.88813 0.17544 0.0
H344 H 0.40295 0.93506 0.19877 0.0
H345 H 0.36755 0.89515 0.23757 0.0
C346 C 0.48138 0.27801 0.76815 0.0
C347 C 0.43618 0.25623 0.77927 0.0
C348 C 0.50638 0.32563 0.77139 0.0
C349 C 0.48579 0.35145 0.78781 0.0
C350 C 0.43971 0.3292 0.7981 0.0
C351 C 0.41525 0.2816 0.79311 0.0
C352 C 0.55519 0.34836 0.75888 0.0
C353 C 0.41701 0.35559 0.81686 0.0
C354 C 0.57163 0.47148 0.84572 0.0
C355 C 0.57482 0.49602 0.80756 0.0
C356 C 0.54061 0.42453 0.84079 0.0
C357 C 0.51326 0.40177 0.79621 0.0
C358 C 0.51455 0.42677 0.75858 0.0
C359 C 0.54497 0.47384 0.76498 0.0
C360 C 0.53884 0.39895 0.8823 0.0
C361 C 0.48627 0.40342 0.71035 0.0
H362 H 0.49733 0.2579 0.75801 0.0
H363 H 0.38037 0.26431 0.80238 0.0
H364 H 0.56054 0.3725 0.73284 0.0
H365 H 0.57866 0.3684 0.79211 0.0
H366 H 0.56468 0.32325 0.74278 0.0
H367 H 0.3802 0.3329 0.8207 0.0
H368 H 0.43433 0.37563 0.85289 0.0
H369 H 0.4203 0.3802 0.79221 0.0
H370 H 0.59451 0.48866 0.87874 0.0
H371 H 0.54757 0.4926 0.73515 0.0
H372 H 0.55355 0.3768 0.87249 0.0
H373 H 0.50293 0.3765 0.88949 0.0
H374 H 0.55821 0.42234 0.91622 0.0
H375 H 0.49881 0.38206 0.69113 0.0
H376 H 0.48793 0.42819 0.68664 0.0
H377 H 0.45002 0.38034 0.7158 0.0
C378 C 0.26697 0.2034 0.22492 0.0
C379 C 0.23982 0.20768 0.25952 0.0
C380 C 0.27023 0.16418 0.21751 0.0
C381 C 0.24631 0.12972 0.24635 0.0
C382 C 0.22567 0.13779 0.28689 0.0
C383 C 0.22208 0.17703 0.29272 0.0
C384 C 0.29295 0.15694 0.17426 0.0
C385 C 0.20173 0.10225 0.31965 0.0
C386 C 0.17619 0.00756 0.18761 0.0
C387 C 0.20189 0.98947 0.20493 0.0
C388 C 0.19193 0.05423 0.19854 0.0
C389 C 0.23379 0.08269 0.22801 0.0
C390 C 0.26135 0.06527 0.24262 0.0
C391 C 0.24526 0.01884 0.23043 0.0
C392 C 0.16259 0.07259 0.1808 0.0
C393 C 0.30604 0.09464 0.27412 0.0
H394 H 0.28074 0.22791 0.19969 0.0
H395 H 0.20126 0.18105 0.31949 0.0
H396 H 0.31065 0.1381 0.18221 0.0
H397 H 0.2665 0.13628 0.14336 0.0
H398 H 0.31796 0.18985 0.16272 0.0
H399 H 0.19556 0.11711 0.3542 0.0
H400 H 0.16824 0.07509 0.30088 0.0
H401 H 0.22204 0.08607 0.32812 0.0
H402 H 0.14313 0.98516 0.16728 0.0
H403 H 0.26598 0.00539 0.24331 0.0
H404 H 0.18329 0.10307 0.16301 0.0
H405 H 0.14888 0.08329 0.21213 0.0
H406 H 0.13338 0.04685 0.1546 0.0
H407 H 0.32549 0.12912 0.26335 0.0
H408 H 0.32789 0.07884 0.27262 0.0
H409 H 0.29886 0.09898 0.31237 0.0
C410 C 0.04897 0.20868 0.75295 0.0
C411 C 0.01471 0.21158 0.72716 0.0
C412 C 0.07915 0.19872 0.72868 0.0
C413 C 0.07459 0.19082 0.67717 0.0
C414 C 0.0417 0.19626 0.65078 0.0
C415 C 0.01237 0.20704 0.67622 0.0
C416 C 0.11494 0.19508 0.75847 0.0
C417 C 0.03655 0.19048 0.596 0.0
C418 C 0.18217 0.19624 0.64239 0.0
C419 C 0.17191 0.15193 0.64802 0.0
C420 C 0.14836 0.20837 0.6442 0.0
C421 C 0.10381 0.17544 0.65258 0.0
C422 C 0.09188 0.12906 0.64993 0.0
C423 C 0.12643 0.11772 0.64797 0.0
C424 C 0.1618 0.25763 0.64407 0.0
C425 C 0.04383 0.09257 0.65552 0.0
H426 H 0.0514 0.21288 0.7923 0.0
H427 H 0.98618 0.20967 0.65593 0.0
H428 H 0.10788 0.15939 0.75261 0.0
H429 H 0.14929 0.21706 0.7469 0.0
H430 H 0.11581 0.20527 0.79798 0.0
H431 H -0.00014 0.17241 0.58199 0.0
H432 H 0.05264 0.22475 0.58441 0.0
H433 H 0.05262 0.17167 0.57889 0.0
H434 H 0.21746 0.22246 0.64133 0.0
H435 H 0.11852 0.08334 0.65171 0.0
H436 H 0.16716 0.27447 0.68209 0.0
H437 H 0.13437 0.26026 0.62462 0.0
H438 H 0.19394 0.27636 0.62681 0.0
H439 H 0.03773 0.09444 0.69444 0.0
H440 H 0.03793 0.0579 0.64262 0.0
H441 H 0.01867 0.09791 0.63506 0.0
C442 C 0.99554 0.11559 0.17034 0.0
C443 C 0.00655 0.15933 0.16189 0.0
C444 C 0.95027 0.08346 0.17685 0.0
C445 C 0.91631 0.09621 0.17573 0.0
C446 C 0.92656 0.13832 0.16118 0.0
C447 C 0.97153 0.1691 0.15367 0.0
C448 C 0.93995 0.03798 0.19039 0.0
C449 C 0.89194 0.15387 0.16045 0.0
C450 C 0.79376 0.01193 0.19514 0.0
C451 C 0.79504 0.02009 0.24592 0.0
C452 C 0.83281 0.0366 0.17136 0.0
C453 C 0.87373 0.0705 0.19907 0.0
C454 C 0.87425 0.0809 0.24991 0.0
C455 C 0.83496 0.05536 0.27272 0.0
C456 C 0.83075 0.02445 0.11717 0.0
C457 C 0.91682 0.11799 0.28059 0.0
H458 H 0.02266 0.10809 0.17669 0.0
H459 H 0.98021 0.203 0.14673 0.0
H460 H 0.93756 0.03866 0.23011 0.0
H461 H 0.90663 0.01032 0.17179 0.0
H462 H 0.96699 0.02988 0.18096 0.0
H463 H 0.90102 0.18081 0.13697 0.0
H464 H 0.85715 0.12504 0.14786 0.0
H465 H 0.8911 0.16836 0.19788 0.0
H466 H 0.76313 0.98434 0.17414 0.0
H467 H 0.83602 0.06186 0.31189 0.0
H468 H 0.84581 0.00225 0.10996 0.0
H469 H 0.85077 0.05528 0.09971 0.0
H470 H 0.79504 0.00569 0.09983 0.0
H471 H 0.94418 0.10913 0.27915 0.0
H472 H 0.9108 0.12315 0.3192 0.0
H473 H 0.92953 0.15076 0.26615 0.0
C474 C 0.81817 -0.00012 0.86676 0.0
C475 C 0.86076 0.0335 0.85519 0.0
C476 C 0.8083 0.95489 0.86661 0.0
C477 C 0.8418 0.94345 0.85418 0.0
C478 C 0.88697 0.9787 0.85021 0.0
C479 C 0.89599 0.02366 0.85036 0.0
C480 C 0.76043 0.91879 0.8737 0.0
C481 C 0.92437 0.96803 0.84032 0.0
C482 C 0.81064 0.81836 0.83762 0.0
C483 C 0.80275 0.80774 0.78686 0.0
C484 C 0.82341 0.8624 0.86081 0.0
C485 C 0.82693 0.89581 0.83238 0.0
C486 C 0.81604 0.88394 0.78134 0.0
C487 C 0.80473 0.84036 0.7593 0.0
C488 C 0.83327 0.87246 0.91538 0.0
C489 C 0.8171 0.91753 0.74954 0.0
H490 H 0.79128 0.00799 0.87199 0.0
H491 H 0.92916 0.04984 0.84227 0.0
H492 H 0.74257 0.89785 0.83816 0.0
H493 H 0.76136 0.89568 0.89813 0.0
H494 H 0.74031 0.93389 0.88927 0.0
H495 H 0.95875 -0.00108 0.8491 0.0
H496 H 0.92191 0.9415 0.86178 0.0
H497 H 0.92062 0.95453 0.80127 0.0
H498 H 0.80896 0.79303 0.85906 0.0
H499 H 0.79798 0.83193 0.72009 0.0
H500 H 0.80044 0.85889 0.93195 0.0
H501 H 0.85451 0.90948 0.9289 0.0
H502 H 0.85083 0.8548 0.92811 0.0
H503 H 0.79604 0.93211 0.7634 0.0
H504 H 0.80417 0.90162 0.71117 0.0
H505 H 0.85263 0.94614 0.75025 0.0
C506 C 0.83734 0.838 0.37739 0.0
C507 C 0.84215 0.87943 0.36748 0.0
C508 C 0.87367 0.82969 0.3742 0.0
C509 C 0.91555 0.86385 0.36092 0.0
C510 C 0.92263 0.90823 0.35909 0.0
C511 C 0.88538 0.91553 0.36193 0.0
C512 C 0.86506 0.78235 0.37801 0.0
C513 C 0.96792 0.94628 0.34817 0.0
C514 C 0.00721 0.8324 0.33764 0.0
C515 C 0.00029 0.82117 0.28695 0.0
C516 C 0.98085 0.84769 0.36269 0.0
C517 C 0.94575 0.84984 0.33632 0.0
C518 C 0.93778 0.83683 0.28519 0.0
C519 C 0.96568 0.82342 0.26114 0.0
C520 C 0.99107 0.86156 0.41701 0.0
C521 C 0.89988 0.83726 0.2556 0.0
H522 H 0.80382 0.81042 0.38272 0.0
H523 H 0.88911 0.94775 0.35486 0.0
H524 H 0.86161 0.76421 0.34108 0.0
H525 H 0.89416 0.78406 0.39929 0.0
H526 H 0.83335 0.76202 0.39535 0.0
H527 H 0.97131 0.98022 0.35911 0.0
H528 H -0.00343 0.9452 0.36715 0.0
H529 H 0.97083 0.94214 0.30856 0.0
H530 H 0.03452 0.83119 0.35748 0.0
H531 H 0.96054 0.81472 0.22191 0.0
H532 H 0.97157 0.83102 0.4351 0.0
H533 H 0.98151 0.8873 0.43035 0.0
H534 H 0.02792 0.87565 0.42822 0.0
H535 H 0.86666 0.81634 0.27004 0.0
H536 H 0.89691 0.8238 0.21663 0.0
H537 H 0.9062 0.87261 0.25816 0.0
C538 C 0.17291 0.95034 0.76586 0.0
C539 C 0.19929 0.96381 0.72701 0.0
C540 C 0.13188 0.90856 0.75953 0.0
C541 C 0.11806 0.88095 0.71344 0.0
C542 C 0.14789 0.89198 0.6766 0.0
C543 C 0.18842 0.93362 0.68394 0.0
C544 C 0.10126 0.89643 0.80015 0.0
C545 C 0.13481 0.86314 0.62726 0.0
C546 C 0.0105 0.767 0.69748 0.0
C547 C 0.97774 0.77882 0.6844 0.0
C548 C 0.05657 0.79987 0.70671 0.0
C549 C 0.07018 0.84517 0.70112 0.0
C550 C 0.03803 0.85673 0.68392 0.0
C551 C 0.99179 0.82324 0.67602 0.0
C552 C 0.09015 0.78656 0.72481 0.0
C553 C 0.05226 0.90482 0.67575 0.0
H554 H 0.18193 0.97403 0.79915 0.0
H555 H 0.2095 0.94445 0.65419 0.0
H556 H 0.07314 0.90328 0.79224 0.0
H557 H 0.08559 0.85962 0.80314 0.0
H558 H 0.12015 0.91673 0.83563 0.0
H559 H 0.16553 0.8696 0.60859 0.0
H560 H 0.11442 0.82621 0.62968 0.0
H561 H 0.1137 0.87197 0.60457 0.0
H562 H -5e-05 0.73233 0.70296 0.0
H563 H 0.96663 0.83231 0.66556 0.0
H564 H 0.10301 0.80252 0.76312 0.0
H565 H 0.12014 0.79929 0.70347 0.0
H566 H 0.07452 0.74902 0.72293 0.0
H567 H 0.06611 0.92809 0.71078 0.0
H568 H 0.02337 0.90746 0.65981 0.0
H569 H 0.0798 0.91688 0.6511 0.0
C570 C 0.24676 0.27129 0.08897 0.0
C571 C 0.28072 0.29017 0.12838 0.0
C572 C 0.25127 0.24819 0.04569 0.0
C573 C 0.29046 0.24334 0.04151 0.0
C574 C 0.32384 0.26085 0.08188 0.0
C575 C 0.31872 0.28399 0.12423 0.0
C576 C 0.21466 0.23009 0.00379 0.0
C577 C 0.36603 0.25652 0.07986 0.0
C578 C 0.29279 0.16035 0.93658 0.0
C579 C 0.3146 0.18956 0.90231 0.0
C580 C 0.2848 0.17713 0.98208 0.0
C581 C 0.29905 0.22424 0.9938 0.0
C582 C 0.32285 0.25393 0.96004 0.0
C583 C 0.33017 0.23634 0.91514 0.0
C584 C 0.25971 0.14418 0.01694 0.0
C585 C 0.3397 0.30441 0.97072 0.0
H586 H 0.21721 0.27552 0.0914 0.0
H587 H 0.34513 0.2976 0.15432 0.0
H588 H 0.22893 0.24907 0.97292 0.0
H589 H 0.20286 0.19365 0.99107 0.0
H590 H 0.18479 0.23336 0.01366 0.0
H591 H 0.38699 0.26858 0.11548 0.0
H592 H 0.35639 0.22049 0.06817 0.0
H593 H 0.38741 0.27682 0.05266 0.0
H594 H 0.2799 0.12412 0.92691 0.0
H595 H 0.34706 0.25933 0.88909 0.0
H596 H 0.22665 0.14265 0.02204 0.0
H597 H 0.27973 0.15618 0.05305 0.0
H598 H 0.25293 0.10921 0.00387 0.0
H599 H 0.31039 0.3099 0.976 0.0
H600 H 0.3583 0.3231 0.94109 0.0
H601 H 0.36284 0.31944 0.0049 0.0
C602 C 0.98138 0.26115 0.54842 0.0
C603 C -0.00317 0.28871 0.594 0.0
C604 C 0.01119 0.26786 0.51169 0.0
C605 C 0.05765 0.30332 0.52022 0.0
C606 C 0.07382 0.32982 0.56682 0.0
C607 C 0.04351 0.32209 0.60294 0.0
C608 C 0.99251 0.23792 0.46306 0.0
C609 C 0.1228 0.36797 0.57794 0.0
C610 C 0.14103 0.30514 0.42827 0.0
C611 C 0.13829 0.3329 0.39627 0.0
C612 C 0.11604 0.29601 0.46948 0.0
C613 C 0.08798 0.31547 0.47929 0.0
C614 C 0.08771 0.34592 0.44872 0.0
C615 C 0.11237 0.35384 0.40762 0.0
C616 C 0.1175 0.26332 0.50074 0.0
C617 C 0.05945 0.3685 0.45799 0.0
H618 H 0.94571 0.23494 0.54096 0.0
H619 H 0.05637 0.34354 0.63794 0.0
H620 H 0.99256 0.25861 0.435 0.0
H621 H 0.01462 0.22369 0.45215 0.0
H622 H 0.95709 0.20928 0.46342 0.0
H623 H 0.1311 0.38311 0.61688 0.0
H624 H 0.14646 0.35542 0.5681 0.0
H625 H 0.12918 0.39525 0.55578 0.0
H626 H 0.15996 0.28786 0.41918 0.0
H627 H 0.10956 0.37483 0.38275 0.0
H628 H 0.08397 0.2312 0.4955 0.0
H629 H 0.12366 0.2778 0.5397 0.0
H630 H 0.14445 0.25496 0.49174 0.0
H631 H 0.02264 0.34222 0.45303 0.0
H632 H 0.06555 0.39384 0.43315 0.0
H633 H 0.06728 0.38596 0.496 0.0
C634 C 0.69695 0.98495 0.07175 0.0
C635 C 0.67869 -0.00218 0.11092 0.0
C636 C 0.71779 0.01414 0.03699 0.0
C637 C 0.71976 0.05693 0.04099 0.0
C638 C 0.70141 0.07004 0.08044 0.0
C639 C 0.68152 0.04061 0.11503 0.0
C640 C 0.73789 -0.00073 0.99606 0.0
C641 C 0.70219 0.11496 0.08578 0.0
C642 C 0.80963 0.14583 0.97317 0.0
C643 C 0.78489 0.13846 0.92848 0.0
C644 C 0.78855 0.12063 0.01065 0.0
C645 C 0.74131 0.088 0.00401 0.0
C646 C 0.7153 0.08349 0.96083 0.0
C647 C 0.7374 0.10848 0.92351 0.0
C648 C 0.81759 0.12668 0.05598 0.0
C649 C 0.66459 0.0501 0.95268 0.0
H650 H 0.69524 0.95218 0.06841 0.0
H651 H 0.66725 0.05085 0.14491 0.0
H652 H 0.72188 -0.0011 0.96055 0.0
H653 H 0.77501 0.024 0.99749 0.0
H654 H 0.73311 0.96482 0.99764 0.0
H655 H 0.68611 0.11998 0.1183 0.0
H656 H 0.73791 0.14363 0.08854 0.0
H657 H 0.6839 0.11671 0.0531 0.0
H658 H 0.84627 0.16885 0.97772 0.0
H659 H 0.71777 0.10233 0.88926 0.0
H660 H 0.81781 0.0946 0.05853 0.0
H661 H 0.80301 0.13388 0.08866 0.0
H662 H 0.8534 0.15476 0.05643 0.0
H663 H 0.65854 0.01476 0.94768 0.0
H664 H 0.64842 0.05471 0.92012 0.0
H665 H 0.6475 0.05388 0.98479 0.0
C666 C 0.65492 0.67807 0.60984 0.0
C667 C 0.69763 0.68222 0.62207 0.0
C668 C 0.64783 0.69763 0.57133 0.0
C669 C 0.68409 0.72176 0.54337 0.0
C670 C 0.72688 0.72478 0.55395 0.0
C671 C 0.73322 0.70503 0.5933 0.0
C672 C 0.60168 0.69348 0.56148 0.0
C673 C 0.76617 0.74966 0.52429 0.0
C674 C 0.65363 0.74305 0.41989 0.0
C675 C 0.66515 0.78904 0.42936 0.0
C676 C 0.65956 0.72075 0.45653 0.0
C677 C 0.67713 0.74476 0.50406 0.0
C678 C 0.68626 0.79026 0.51459 0.0
C679 C 0.68014 0.81181 0.47721 0.0
C680 C 0.64874 0.67202 0.44382 0.0
C681 C 0.70389 0.81671 0.56511 0.0
H682 H 0.6267 0.66011 0.6311 0.0
H683 H 0.76612 0.70821 0.60194 0.0
H684 H 0.6053 0.72786 0.56685 0.0
H685 H 0.58775 0.67829 0.52321 0.0
H686 H 0.57651 0.67219 0.58558 0.0
H687 H 0.79639 0.74693 0.53536 0.0
H688 H 0.75549 0.73578 0.48519 0.0
H689 H 0.77638 0.78628 0.52842 0.0
H690 H 0.64205 0.72494 0.38318 0.0
H691 H 0.68926 0.84729 0.48512 0.0
H692 H 0.62493 0.65027 0.46857 0.0
H693 H 0.68054 0.67048 0.44868 0.0
H694 H 0.63321 0.65741 0.4058 0.0
H695 H 0.67997 0.79808 0.59152 0.0
H696 H 0.70835 0.85142 0.56764 0.0
H697 H 0.73727 0.82 0.5761 0.0
C698 C 0.85818 0.69255 0.9213 0.0
C699 C 0.85823 0.65928 0.88672 0.0
C700 C 0.88546 0.70765 0.96614 0.0
C701 C 0.91284 0.68847 0.97713 0.0
C702 C 0.91151 0.6536 0.94304 0.0
C703 C 0.88467 0.63982 0.89828 0.0
C704 C 0.88602 0.74509 1.00111 0.0
C705 C 0.93889 0.63108 0.95359 0.0
C706 C 0.01466 0.74336 0.07516 0.0
C707 C 0.99511 0.71789 0.11281 0.0
C708 C 0.98789 0.73594 0.03146 0.0
C709 C 0.94064 0.70231 0.02535 0.0
C710 C 0.92052 0.67856 0.06439 0.0
C711 C 0.94776 0.68681 0.10737 0.0
C712 C 0.01056 0.76265 0.99104 0.0
C713 C 0.87058 0.64228 0.05986 0.0
H714 H 0.83867 0.70851 0.91232 0.0
H715 H 0.88514 0.61433 0.87168 0.0
H716 H 0.87578 0.73332 0.03661 0.0
H717 H 0.92122 0.77487 0.00777 0.0
H718 H 0.86279 0.75642 0.9873 0.0
H719 H 0.93386 0.60425 0.92349 0.0
H720 H 0.97578 0.657 0.95984 0.0
H721 H 0.92897 0.61535 0.98724 0.0
H722 H 0.05106 0.76748 0.07894 0.0
H723 H 0.93189 0.66743 0.13645 0.0
H724 H 0.9904 0.77717 0.9769 0.0
H725 H 0.0118 0.73954 0.96052 0.0
H726 H 0.04597 0.79081 0.00307 0.0
H727 H 0.84896 0.65584 0.0474 0.0
H728 H 0.85941 0.62921 0.09469 0.0
H729 H 0.86431 0.6132 0.03223 0.0
C730 C 0.29189 0.96249 0.61306 0.0
C731 C 0.30236 0.00834 0.61871 0.0
C732 C 0.26938 0.93228 0.56987 0.0
C733 C 0.25755 0.94793 0.53001 0.0
C734 C 0.26679 0.99376 0.53556 0.0
C735 C 0.28882 0.02334 0.57982 0.0
C736 C 0.25871 0.88348 0.56673 0.0
C737 C 0.25365 0.01155 0.49446 0.0
C738 C 0.25104 0.88615 0.40393 0.0
C739 C 0.2038 0.85789 0.39095 0.0
C740 C 0.26854 0.9154 0.44861 0.0
C741 C 0.23832 0.91696 0.48191 0.0
C742 C 0.1905 0.88752 0.46969 0.0
C743 C 0.17393 0.85824 0.42469 0.0
C744 C 0.31964 0.94558 0.45964 0.0
C745 C 0.15592 0.88655 0.50312 0.0
H746 H 0.30097 0.94968 0.64285 0.0
H747 H 0.2962 0.05833 0.58356 0.0
H748 H 0.22205 0.85977 0.55424 0.0
H749 H 0.27892 0.87699 0.53962 0.0
H750 H 0.26651 0.87542 0.60212 0.0
H751 H 0.26162 0.04732 0.50466 0.0
H752 H 0.27204 0.00991 0.46266 0.0
H753 H 0.21651 0.98964 0.48303 0.0
H754 H 0.27459 0.88651 0.37823 0.0
H755 H 0.13737 0.83729 0.41509 0.0
H756 H 0.33118 0.93808 0.49335 0.0
H757 H 0.32878 0.98192 0.46602 0.0
H758 H 0.3386 0.94093 0.42976 0.0
H759 H 0.13943 0.8534 0.51723 0.0
H760 H 0.12854 0.88849 0.48247 0.0
H761 H 0.1708 0.91454 0.53427 0.0
C762 C 0.73808 0.74137 0.94236 0.0
C763 C 0.70361 0.72245 0.90382 0.0
C764 C 0.73513 0.76661 0.98381 0.0
C765 C 0.69618 0.7716 0.98678 0.0
C766 C 0.66367 0.75639 0.94609 0.0
C767 C 0.66807 0.73227 0.90468 0.0
C768 C 0.77152 0.78424 0.02594 0.0
C769 C 0.6216 0.7609 0.94802 0.0
C770 C 0.65667 0.76249 0.11202 0.0
C771 C 0.67115 0.80796 0.12939 0.0
C772 C 0.66269 0.75003 0.06451 0.0
C773 C 0.68517 0.78431 0.03469 0.0
C774 C 0.69871 0.83021 0.05166 0.0
C775 C 0.69068 0.8414 0.09882 0.0
C776 C 0.64674 0.70045 0.047 0.0
C777 C 0.72361 0.86761 0.02108 0.0
H778 H 0.76625 0.73479 0.94099 0.0
H779 H 0.6416 0.71801 0.87455 0.0
H780 H 0.77989 0.8188 0.04298 0.0
H781 H 0.75868 0.76128 0.05397 0.0
H782 H 0.8033 0.78569 0.01453 0.0
H783 H 0.60481 0.75571 0.91114 0.0
H784 H 0.59676 0.73478 0.96866 0.0
H785 H 0.62995 0.79482 0.96702 0.0
H786 H 0.64159 0.73691 0.13598 0.0
H787 H 0.70238 0.87678 0.11283 0.0
H788 H 0.67672 0.69615 0.04134 0.0
H789 H 0.62557 0.68913 0.01164 0.0
H790 H 0.62641 0.6778 0.07325 0.0
H791 H 0.75482 0.86778 0.00979 0.0
H792 H 0.7337 0.90188 0.04081 0.0
H793 H 0.70172 0.86135 0.98746 0.0
C794 C 0.94022 0.6188 0.37893 0.0
C795 C 0.97729 0.66374 0.38728 0.0
C796 C 0.91009 0.6008 0.41415 0.0
C797 C 0.91646 0.62884 0.45829 0.0
C798 C 0.95381 0.67434 0.46705 0.0
C799 C 0.98433 0.69109 0.43157 0.0
C800 C 0.8716 0.5518 0.4042 0.0
C801 C 0.96115 0.70546 0.51362 0.0
C802 C 0.82036 0.61208 0.53353 0.0
C803 C 0.83439 0.60223 0.57624 0.0
C804 C 0.84504 0.61784 0.493 0.0
C805 C 0.8832 0.61146 0.49476 0.0
C806 C 0.89248 0.59389 0.53457 0.0
C807 C 0.868 0.58969 0.57523 0.0
C808 C 0.8338 0.63638 0.45114 0.0
C809 C 0.93151 0.58449 0.53671 0.0
H810 H 0.93531 0.59717 0.34504 0.0
H811 H 0.01311 0.72567 0.43803 0.0
H812 H 0.87319 0.53295 0.43349 0.0
H813 H 0.83821 0.55041 0.40405 0.0
H814 H 0.87275 0.53393 0.36884 0.0
H815 H 0.99135 0.74004 0.51443 0.0
H816 H 0.9305 0.70887 0.51815 0.0
H817 H 0.96595 0.69054 0.54514 0.0
H818 H 0.79371 0.62093 0.53389 0.0
H819 H 0.87878 0.58158 0.60791 0.0
H820 H 0.83473 0.61847 0.41583 0.0
H821 H 0.85979 0.67303 0.45286 0.0
H822 H 0.79963 0.63331 0.45221 0.0
H823 H 0.93392 0.5685 0.50081 0.0
H824 H 0.92777 0.56185 0.56409 0.0
H825 H 0.96408 0.61717 0.54693 0.0
C826 C 0.30537 0.94063 0.88919 0.0
C827 C 0.3066 0.98262 0.8977 0.0
C828 C 0.28805 0.90918 0.92222 0.0
C829 C 0.27084 0.91963 0.96434 0.0
C830 C 0.27104 0.96151 0.97262 0.0
C831 C 0.28928 0.99266 0.9394 0.0
C832 C 0.2891 0.86529 0.9126 0.0
C833 C 0.25224 0.9736 0.01679 0.0
C834 C 0.1857 0.83241 0.03544 0.0
C835 C 0.21236 0.84256 0.07953 0.0
C836 C 0.205 0.85474 0.9958 0.0
C837 C 0.25226 0.88707 1.00006 0.0
C838 C 0.28026 0.89271 0.04204 0.0
C839 C 0.25989 0.87062 0.08155 0.0
C840 C 0.17385 0.84746 0.95166 0.0
C841 C 0.33108 0.92564 0.04737 0.0
H842 H 0.31915 0.93277 0.85728 0.0
H843 H 0.28999 0.02493 0.94612 0.0
H844 H 0.3109 0.86399 0.94218 0.0
H845 H 0.25431 0.83556 0.91238 0.0
H846 H 0.30252 0.86173 0.87745 0.0
H847 H 0.25367 0.00687 0.01711 0.0
H848 H 0.21621 0.94672 0.01806 0.0
H849 H 0.27195 0.97531 0.05027 0.0
H850 H 0.14896 0.8103 0.0334 0.0
H851 H 0.28081 0.87871 0.11539 0.0
H852 H 0.1891 0.84447 0.91774 0.0
H853 H 0.16903 0.87738 0.95219 0.0
H854 H 0.13974 0.81644 0.95073 0.0
H855 H 0.34611 0.92324 0.01309 0.0
H856 H 0.34885 0.91932 0.07712 0.0
H857 H 0.33756 0.96102 0.05582 0.0
C858 C 0.3653 0.2123 0.56601 0.0
C859 C 0.36831 0.23236 0.61384 0.0
C860 C 0.36669 0.23497 0.52672 0.0
C861 C 0.37294 0.27939 0.53571 0.0
C862 C 0.38324 0.30242 0.58395 0.0
C863 C 0.38064 0.27849 0.62273 0.0
C864 C 0.35536 0.20897 0.47593 0.0
C865 C 0.39209 0.35058 0.59466 0.0
C866 C 0.37836 0.33655 0.42478 0.0
C867 C 0.33338 0.32772 0.41778 0.0
C868 C 0.39243 0.32249 0.46409 0.0
C869 C 0.36024 0.29777 0.49594 0.0
C870 C 0.31457 0.28834 0.48855 0.0
C871 C 0.30192 0.30416 0.44997 0.0
C872 C 0.44166 0.33445 0.47184 0.0
C873 C 0.27882 0.261 0.52099 0.0
H874 H 0.35697 0.17699 0.55886 0.0
H875 H 0.384 0.29462 0.65963 0.0
H876 H 0.31959 0.19803 0.46302 0.0
H877 H 0.37773 0.23074 0.4503 0.0
H878 H 0.35867 0.17807 0.47457 0.0
H879 H 0.40601 0.36585 0.63294 0.0
H880 H 0.41636 0.37242 0.57028 0.0
H881 H 0.35969 0.35064 0.58791 0.0
H882 H 0.40287 0.35557 0.40025 0.0
H883 H 0.26717 0.29744 0.44444 0.0
H884 H 0.44381 0.30299 0.47063 0.0
H885 H 0.45679 0.35454 0.50836 0.0
H886 H 0.46255 0.35453 0.44416 0.0
H887 H 0.27576 0.22704 0.52063 0.0
H888 H 0.24468 0.25588 0.50957 0.0
H889 H 0.28913 0.27856 0.55901 0.0
C890 C 0.09032 0.36384 0.10123 0.0
C891 C 0.1187 0.34485 0.09626 0.0
C892 C 0.06714 0.36639 0.06019 0.0
C893 C 0.07288 0.34981 0.01359 0.0
C894 C 0.10557 0.33575 0.00827 0.0
C895 C 0.12838 0.33377 0.04975 0.0
C896 C 0.03371 0.38317 0.06685 0.0
C897 C 0.11296 0.31815 0.9591 0.0
C898 C 0.97209 0.28484 0.91832 0.0
C899 C 0.98412 0.31472 0.88379 0.0
C900 C -0.00017 0.29679 0.96181 0.0
C901 C 0.04015 0.3401 0.97141 0.0
C902 C 0.05095 0.37164 0.9383 0.0
C903 C 0.02297 0.35845 0.89464 0.0
C904 C 0.98702 0.26216 0.99643 0.0
C905 C 0.09313 0.41843 0.94772 0.0
H906 H 0.0834 0.37339 0.13709 0.0
H907 H 0.15107 0.32004 0.04562 0.0
H908 H 0.04137 0.41049 0.04432 0.0
H909 H -0.00149 0.35493 0.0544 0.0
H910 H 0.03453 0.39655 0.10533 0.0
H911 H 0.14316 0.3135 0.96076 0.0
H912 H 0.08235 0.28472 0.94497 0.0
H913 H 0.11762 0.34182 0.93276 0.0
H914 H 0.94153 0.25161 0.91104 0.0
H915 H 0.03229 0.38218 0.86857 0.0
H916 H 0.98597 0.27733 0.0334 0.0
H917 H 0.01329 0.25188 0.99888 0.0
H918 H 0.9533 0.23104 0.98479 0.0
H919 H 0.09798 0.4339 0.9862 0.0
H920 H 0.09154 0.44181 0.92403 0.0
H921 H 0.12363 0.41548 0.94046 0.0
C922 C 0.80708 0.13017 0.58568 0.0
C923 C 0.78291 0.11828 0.62656 0.0
C924 C 0.78527 0.10871 0.5391 0.0
C925 C 0.73824 0.07544 0.53373 0.0
C926 C 0.71294 0.06636 0.57457 0.0
C927 C 0.73575 0.08769 0.62073 0.0
C928 C 0.81332 0.11902 0.49624 0.0
C929 C 0.66247 0.03185 0.56997 0.0
C930 C 0.67629 0.03073 0.4074 0.0
C931 C 0.67718 0.98997 0.39697 0.0
C932 C 0.69576 0.05893 0.45204 0.0
C933 C 0.71687 0.04614 0.48663 0.0
C934 C 0.71745 0.00487 0.47661 0.0
C935 C 0.69715 0.97704 0.43205 0.0
C936 C 0.69393 0.10239 0.46212 0.0
C937 C 0.73976 0.99017 0.51283 0.0
H938 H 0.84358 0.15396 0.59027 0.0
H939 H 0.71694 0.07919 0.65241 0.0
H940 H 0.81721 0.08931 0.48309 0.0
H941 H 0.79584 0.12471 0.46579 0.0
H942 H 0.84791 0.14949 0.50572 0.0
H943 H 0.64671 0.03384 0.6039 0.0
H944 H 0.64427 0.03696 0.5397 0.0
H945 H 0.65731 -0.00303 0.5616 0.0
H946 H 0.66071 0.04091 0.38057 0.0
H947 H 0.69706 0.94518 0.42481 0.0
H948 H 0.72908 0.13225 0.46836 0.0
H949 H 0.67713 0.10249 0.49569 0.0
H950 H 0.6751 0.10675 0.43178 0.0
H951 H 0.77617 0.01688 0.52216 0.0
H952 H 0.73807 0.95752 0.49883 0.0
H953 H 0.72284 0.98595 0.54689 0.0
loop_
_geom_bond_atom_site_label_1
_geom_bond_atom_site_label_2
_geom_bond_distance
_geom_bond_site_symmetry_2
_ccdc_geom_bond_type
C0 O12 1.220 1_655 S
C0 O13 1.296 . S
C1 O14 1.277 . S
C1 O15 1.245 . S
C2 O26 1.247 . S
C2 O28 1.289 . S
Mg3 O4 1.926 . S
Mg3 O13 1.984 1_455 S
Mg3 O15 1.988 . S
Mg3 O16 2.061 . S
O4 Mg3 1.926 . S
O4 Mg5 1.986 . S
O4 Mg6 1.917 . S
Mg5 O4 1.986 . S
Mg5 O12 2.042 . S
Mg5 O14 2.041 . S
Mg5 O20 2.038 . S
Mg5 O28 2.238 . S
Mg6 O4 1.917 . S
Mg6 O7 1.917 . S
Mg6 O17 2.106 . S
Mg6 O19 2.079 . S
Mg6 O28 2.106 . S
Mg6 O29 2.079 . S
O7 Mg6 1.917 . S
O7 Mg8 1.926 . S
O7 Mg9 1.986 . S
Mg8 O7 1.926 . S
Mg8 O22 1.984 . S
Mg8 O25 1.988 . S
Mg8 O26 2.061 . S
Mg9 O7 1.986 . S
Mg9 O17 2.238 . S
Mg9 O21 2.042 . S
Mg9 O23 2.041 . S
Mg9 O30 2.038 . S
C10 O16 1.247 . S
C10 O17 1.289 . S
C11 O29 1.245 . S
C11 O30 1.274 . S
O12 C0 1.220 1_455 S
O12 Mg5 2.042 . S
O13 C0 1.296 . S
O13 Mg3 1.984 1_655 S
O14 C1 1.277 . S
O14 Mg5 2.041 . S
O15 C1 1.245 . S
O15 Mg3 1.988 . S
O16 Mg3 2.061 . S
O16 C10 1.247 . S
O17 Mg6 2.106 . S
O17 Mg9 2.238 . S
O17 C10 1.289 . S
C18 O19 1.245 . S
C18 O20 1.274 . S
O19 Mg6 2.079 . S
O19 C18 1.245 . S
O20 Mg5 2.038 . S
O20 C18 1.274 . S
O21 Mg9 2.042 . S
O21 C24 1.241 . S
O22 Mg8 1.984 . S
O22 C24 1.280 . S
O23 Mg9 2.041 . S
O23 C27 1.277 . S
C24 O21 1.241 . S
C24 O22 1.280 . S
O25 Mg8 1.988 . S
O25 C27 1.245 . S
O26 C2 1.247 . S
O26 Mg8 2.061 . S
C27 O23 1.277 . S
C27 O25 1.245 . S
O28 C2 1.289 . S
O28 Mg5 2.238 . S
O28 Mg6 2.106 . S
O29 Mg6 2.079 . S
O29 C11 1.245 . S
O30 Mg9 2.038 . S
O30 C11 1.274 . S
C31 O43 1.241 . S
C31 O44 1.280 . S
C32 O45 1.277 . S
C32 O46 1.245 . S
C33 O57 1.247 . S
C33 O59 1.289 . S
Mg34 O35 1.926 . S
Mg34 O44 1.984 . S
Mg34 O46 1.988 . S
Mg34 O47 2.061 . S
O35 Mg34 1.926 . S
O35 Mg36 1.986 . S
O35 Mg37 1.917 . S
Mg36 O35 1.986 . S
Mg36 O43 2.042 . S
Mg36 O45 2.041 . S
Mg36 O51 2.038 . S
Mg36 O59 2.238 . S
Mg37 O35 1.917 . S
Mg37 O38 1.917 . S
Mg37 O48 2.106 . S
Mg37 O50 2.079 . S
Mg37 O59 2.106 . S
Mg37 O60 2.079 . S
O38 Mg37 1.917 . S
O38 Mg39 1.926 . S
O38 Mg40 1.986 . S
Mg39 O38 1.926 . S
Mg39 O53 1.984 1_545 S
Mg39 O56 1.988 . S
Mg39 O57 2.061 . S
Mg40 O38 1.986 . S
Mg40 O48 2.238 . S
Mg40 O52 2.042 . S
Mg40 O54 2.041 . S
Mg40 O61 2.038 . S
C41 O47 1.247 . S
C41 O48 1.289 . S
C42 O60 1.245 . S
C42 O61 1.274 . S
O43 C31 1.241 . S
O43 Mg36 2.042 . S
O44 C31 1.280 . S
O44 Mg34 1.984 . S
O45 C32 1.277 . S
O45 Mg36 2.041 . S
O46 C32 1.245 . S
O46 Mg34 1.988 . S
O47 Mg34 2.061 . S
O47 C41 1.247 . S
O48 Mg37 2.106 . S
O48 Mg40 2.238 . S
O48 C41 1.289 . S
C49 O50 1.245 . S
C49 O51 1.274 . S
O50 Mg37 2.079 . S
O50 C49 1.245 . S
O51 Mg36 2.038 . S
O51 C49 1.274 . S
O52 Mg40 2.042 . S
O52 C55 1.241 . S
O53 Mg39 1.984 1_565 S
O53 C55 1.280 1_565 S
O54 Mg40 2.041 . S
O54 C58 1.277 . S
C55 O52 1.241 . S
C55 O53 1.280 1_545 S
O56 Mg39 1.988 . S
O56 C58 1.245 . S
O57 C33 1.247 . S
O57 Mg39 2.061 . S
C58 O54 1.277 . S
C58 O56 1.245 . S
O59 C33 1.289 . S
O59 Mg36 2.238 . S
O59 Mg37 2.106 . S
O60 Mg37 2.079 . S
O60 C42 1.245 . S
O61 Mg40 2.038 . S
O61 C42 1.274 . S
C62 O74 1.241 . S
C62 O75 1.280 . S
C63 O76 1.277 . S
C63 O77 1.245 . S
C64 O88 1.247 . S
C64 O90 1.289 . S
Mg65 O66 1.926 . S
Mg65 O75 1.984 . S
Mg65 O77 1.988 . S
Mg65 O78 2.061 . S
O66 Mg65 1.926 . S
O66 Mg67 1.986 . S
O66 Mg68 1.917 . S
Mg67 O66 1.986 . S
Mg67 O74 2.042 . S
Mg67 O76 2.041 . S
Mg67 O82 2.038 . S
Mg67 O90 2.238 . S
Mg68 O66 1.917 . S
Mg68 O69 1.917 . S
Mg68 O79 2.106 . S
Mg68 O81 2.079 . S
Mg68 O90 2.106 . S
Mg68 O91 2.079 . S
O69 Mg68 1.917 . S
O69 Mg70 1.926 . S
O69 Mg71 1.986 . S
Mg70 O69 1.926 . S
Mg70 O84 1.984 . S
Mg70 O87 1.988 . S
Mg70 O88 2.061 . S
Mg71 O69 1.986 . S
Mg71 O79 2.238 . S
Mg71 O83 2.042 . S
Mg71 O85 2.041 . S
Mg71 O92 2.038 . S
C72 O78 1.247 . S
C72 O79 1.289 . S
C73 O91 1.245 . S
C73 O92 1.274 . S
O74 C62 1.241 . S
O74 Mg67 2.042 . S
O75 C62 1.280 . S
O75 Mg65 1.984 . S
O76 C63 1.277 . S
O76 Mg67 2.041 . S
O77 C63 1.245 . S
O77 Mg65 1.988 . S
O78 Mg65 2.061 . S
O78 C72 1.247 . S
O79 Mg68 2.106 . S
O79 Mg71 2.238 . S
O79 C72 1.289 . S
C80 O81 1.245 . S
C80 O82 1.274 . S
O81 Mg68 2.079 . S
O81 C80 1.245 . S
O82 Mg67 2.038 . S
O82 C80 1.274 . S
O83 Mg71 2.042 . S
O83 C86 1.241 . S
O84 Mg70 1.984 . S
O84 C86 1.280 . S
O85 Mg71 2.041 . S
O85 C89 1.277 . S
C86 O83 1.241 . S
C86 O84 1.280 . S
O87 Mg70 1.988 . S
O87 C89 1.245 . S
O88 C64 1.247 . S
O88 Mg70 2.061 . S
C89 O85 1.277 . S
C89 O87 1.245 . S
O90 C64 1.289 . S
O90 Mg67 2.238 . S
O90 Mg68 2.106 . S
O91 Mg68 2.079 . S
O91 C73 1.245 . S
O92 Mg71 2.038 . S
O92 C73 1.274 . S
C93 O105 1.241 . S
C93 O106 1.280 1_655 S
C94 O107 1.277 . S
C94 O108 1.245 . S
C95 O119 1.247 . S
C95 O121 1.289 . S
Mg96 O97 1.926 . S
Mg96 O106 1.984 1_655 S
Mg96 O108 1.988 . S
Mg96 O109 2.061 . S
O97 Mg96 1.926 . S
O97 Mg98 1.986 . S
O97 Mg99 1.917 . S
Mg98 O97 1.986 . S
Mg98 O105 2.042 . S
Mg98 O107 2.041 . S
Mg98 O113 2.038 . S
Mg98 O121 2.238 . S
Mg99 O97 1.917 . S
Mg99 O100 1.917 . S
Mg99 O110 2.106 . S
Mg99 O112 2.079 . S
Mg99 O121 2.106 . S
Mg99 O122 2.079 . S
O100 Mg99 1.917 . S
O100 Mg101 1.926 . S
O100 Mg102 1.986 . S
Mg101 O100 1.926 . S
Mg101 O115 1.984 . S
Mg101 O118 1.988 . S
Mg101 O119 2.061 . S
Mg102 O100 1.986 . S
Mg102 O110 2.238 . S
Mg102 O114 2.042 . S
Mg102 O116 2.041 . S
Mg102 O123 2.038 . S
C103 O109 1.247 . S
C103 O110 1.289 . S
C104 O122 1.245 . S
C104 O123 1.274 . S
O105 C93 1.241 . S
O105 Mg98 2.042 . S
O106 C93 1.280 1_455 S
O106 Mg96 1.984 1_455 S
O107 C94 1.277 . S
O107 Mg98 2.041 . S
O108 C94 1.245 . S
O108 Mg96 1.988 . S
O109 Mg96 2.061 . S
O109 C103 1.247 . S
O110 Mg99 2.106 . S
O110 Mg102 2.238 . S
O110 C103 1.289 . S
C111 O112 1.245 . S
C111 O113 1.274 . S
O112 Mg99 2.079 . S
O112 C111 1.245 . S
O113 Mg98 2.038 . S
O113 C111 1.274 . S
O114 Mg102 2.042 . S
O114 C117 1.241 . S
O115 Mg101 1.984 . S
O115 C117 1.280 . S
O116 Mg102 2.041 . S
O116 C120 1.277 . S
C117 O114 1.241 . S
C117 O115 1.280 . S
O118 Mg101 1.988 . S
O118 C120 1.245 . S
O119 C95 1.247 . S
O119 Mg101 2.061 . S
C120 O116 1.277 . S
C120 O118 1.245 . S
O121 C95 1.289 . S
O121 Mg98 2.238 . S
O121 Mg99 2.106 . S
O122 Mg99 2.079 . S
O122 C104 1.245 . S
O123 Mg102 2.038 . S
O123 C104 1.274 . S
C124 O136 1.241 . S
C124 O137 1.280 1_565 S
C125 O138 1.277 . S
C125 O139 1.245 . S
C126 O150 1.247 . S
C126 O152 1.289 . S
Mg127 O128 1.926 . S
Mg127 O137 1.984 1_565 S
Mg127 O139 1.988 . S
Mg127 O140 2.061 . S
O128 Mg127 1.926 . S
O128 Mg129 1.986 . S
O128 Mg130 1.917 . S
Mg129 O128 1.986 . S
Mg129 O136 2.042 . S
Mg129 O138 2.041 . S
Mg129 O144 2.038 . S
Mg129 O152 2.238 . S
Mg130 O128 1.917 . S
Mg130 O131 1.917 . S
Mg130 O141 2.106 . S
Mg130 O143 2.079 . S
Mg130 O152 2.106 . S
Mg130 O153 2.079 . S
O131 Mg130 1.917 . S
O131 Mg132 1.926 . S
O131 Mg133 1.986 . S
Mg132 O131 1.926 . S
Mg132 O146 1.984 . S
Mg132 O149 1.988 . S
Mg132 O150 2.061 . S
Mg133 O131 1.986 . S
Mg133 O141 2.238 . S
Mg133 O145 2.042 . S
Mg133 O147 2.041 . S
Mg133 O154 2.038 . S
C134 O140 1.247 . S
C134 O141 1.289 . S
C135 O153 1.245 . S
C135 O154 1.274 . S
O136 C124 1.241 . S
O136 Mg129 2.042 . S
O137 C124 1.280 1_545 S
O137 Mg127 1.984 1_545 S
O138 C125 1.277 . S
O138 Mg129 2.041 . S
O139 C125 1.245 . S
O139 Mg127 1.988 . S
O140 Mg127 2.061 . S
O140 C134 1.247 . S
O141 Mg130 2.106 . S
O141 Mg133 2.238 . S
O141 C134 1.289 . S
C142 O143 1.245 . S
C142 O144 1.274 . S
O143 Mg130 2.079 . S
O143 C142 1.245 . S
O144 Mg129 2.038 . S
O144 C142 1.274 . S
O145 Mg133 2.042 . S
O145 C148 1.241 . S
O146 Mg132 1.984 . S
O146 C148 1.280 . S
O147 Mg133 2.041 . S
O147 C151 1.277 . S
C148 O145 1.241 . S
C148 O146 1.280 . S
O149 Mg132 1.988 . S
O149 C151 1.245 . S
O150 C126 1.247 . S
O150 Mg132 2.061 . S
C151 O147 1.277 . S
C151 O149 1.245 . S
O152 C126 1.289 . S
O152 Mg129 2.238 . S
O152 Mg130 2.106 . S
O153 Mg130 2.079 . S
O153 C135 1.245 . S
O154 Mg133 2.038 . S
O154 C135 1.274 . S
C155 O167 1.241 . S
C155 O168 1.280 . S
C156 O169 1.277 . S
C156 O170 1.245 . S
C157 O181 1.247 . S
C157 O183 1.289 . S
Mg158 O159 1.926 . S
Mg158 O168 1.984 . S
Mg158 O170 1.988 . S
Mg158 O171 2.061 . S
O159 Mg158 1.926 . S
O159 Mg160 1.986 . S
O159 Mg161 1.917 . S
Mg160 O159 1.986 . S
Mg160 O167 2.042 . S
Mg160 O169 2.041 . S
Mg160 O175 2.038 . S
Mg160 O183 2.238 . S
Mg161 O159 1.917 . S
Mg161 O162 1.917 . S
Mg161 O172 2.106 . S
Mg161 O174 2.079 . S
Mg161 O183 2.106 . S
Mg161 O184 2.079 . S
O162 Mg161 1.917 . S
O162 Mg163 1.926 . S
O162 Mg164 1.986 . S
Mg163 O162 1.926 . S
Mg163 O177 1.984 . S
Mg163 O180 1.988 . S
Mg163 O181 2.061 . S
Mg164 O162 1.986 . S
Mg164 O172 2.238 . S
Mg164 O176 2.042 . S
Mg164 O178 2.041 . S
Mg164 O185 2.038 . S
C165 O171 1.247 . S
C165 O172 1.289 . S
C166 O184 1.245 . S
C166 O185 1.274 . S
O167 C155 1.241 . S
O167 Mg160 2.042 . S
O168 C155 1.280 . S
O168 Mg158 1.984 . S
O169 C156 1.277 . S
O169 Mg160 2.041 . S
O170 C156 1.245 . S
O170 Mg158 1.988 . S
O171 Mg158 2.061 . S
O171 C165 1.247 . S
O172 Mg161 2.106 . S
O172 Mg164 2.238 . S
O172 C165 1.289 . S
C173 O174 1.245 . S
C173 O175 1.274 . S
O174 Mg161 2.079 . S
O174 C173 1.245 . S
O175 Mg160 2.038 . S
O175 C173 1.274 . S
O176 Mg164 2.042 . S
O176 C179 1.241 . S
O177 Mg163 1.984 . S
O177 C179 1.280 . S
O178 Mg164 2.041 . S
O178 C182 1.277 . S
C179 O176 1.241 . S
C179 O177 1.280 . S
O180 Mg163 1.988 . S
O180 C182 1.245 . S
O181 C157 1.247 . S
O181 Mg163 2.061 . S
C182 O178 1.277 . S
C182 O180 1.245 . S
O183 C157 1.289 . S
O183 Mg160 2.238 . S
O183 Mg161 2.106 . S
O184 Mg161 2.079 . S
O184 C166 1.245 . S
O185 Mg164 2.038 . S
O185 C166 1.274 . S
C186 C187 1.391 . S
C186 C188 1.394 . S
C186 H202 0.931 . S
C187 C186 1.391 . S
C187 C191 1.376 . S
C188 C186 1.394 . S
C188 C189 1.369 . S
C188 C192 1.531 . S
C189 C188 1.369 . S
C189 C190 1.410 . S
C189 C197 1.503 . S
C190 C189 1.410 . S
C190 C191 1.392 . S
C190 C193 1.511 . S
C191 C187 1.376 . S
C191 C190 1.392 . S
C191 H203 0.929 . S
C192 C188 1.531 . S
C192 H204 0.960 . S
C192 H205 0.962 . S
C192 H206 0.960 . S
C193 C190 1.511 . S
C193 H207 0.961 . S
C193 H208 0.961 . S
C193 H209 0.961 . S
C194 C195 1.370 . S
C194 C196 1.363 . S
C194 H210 0.931 . S
C195 C194 1.370 . S
C195 C199 1.408 . S
C196 C194 1.363 . S
C196 C197 1.370 . S
C196 C200 1.524 . S
C197 C189 1.503 . S
C197 C196 1.370 . S
C197 C198 1.403 . S
C198 C197 1.403 . S
C198 C199 1.404 . S
C198 C201 1.539 . S
C199 C195 1.408 . S
C199 C198 1.404 . S
C199 H211 0.930 . S
C200 C196 1.524 . S
C200 H212 0.956 . S
C200 H213 0.961 . S
C200 H214 0.961 . S
C201 C198 1.539 . S
C201 H215 0.958 . S
C201 H216 0.961 . S
C201 H217 0.960 . S
H202 C186 0.931 . S
H203 C191 0.929 . S
H204 C192 0.960 . S
H205 C192 0.962 . S
H206 C192 0.960 . S
H207 C193 0.961 . S
H208 C193 0.961 . S
H209 C193 0.961 . S
H210 C194 0.931 . S
H211 C199 0.930 . S
H212 C200 0.956 . S
H213 C200 0.961 . S
H214 C200 0.961 . S
H215 C201 0.958 . S
H216 C201 0.961 . S
H217 C201 0.960 . S
C218 C219 1.391 . S
C218 C220 1.394 . S
C218 H234 0.931 . S
C219 C218 1.391 . S
C219 C223 1.376 . S
C220 C218 1.394 . S
C220 C221 1.369 . S
C220 C224 1.531 . S
C221 C220 1.369 . S
C221 C222 1.410 . S
C221 C229 1.503 . S
C222 C221 1.410 . S
C222 C223 1.392 . S
C222 C225 1.511 . S
C223 C219 1.376 . S
C223 C222 1.392 . S
C223 H235 0.929 . S
C224 C220 1.531 . S
C224 H236 0.960 . S
C224 H237 0.962 . S
C224 H238 0.960 . S
C225 C222 1.511 . S
C225 H239 0.961 . S
C225 H240 0.961 . S
C225 H241 0.961 . S
C226 C227 1.370 . S
C226 C228 1.363 . S
C226 H242 0.931 . S
C227 C226 1.370 . S
C227 C231 1.408 . S
C228 C226 1.363 . S
C228 C229 1.370 . S
C228 C232 1.524 . S
C229 C221 1.503 . S
C229 C228 1.370 . S
C229 C230 1.403 . S
C230 C229 1.403 . S
C230 C231 1.404 . S
C230 C233 1.539 . S
C231 C227 1.408 . S
C231 C230 1.404 . S
C231 H243 0.930 . S
C232 C228 1.524 . S
C232 H244 0.956 . S
C232 H245 0.961 . S
C232 H246 0.961 . S
C233 C230 1.539 . S
C233 H247 0.958 . S
C233 H248 0.961 . S
C233 H249 0.960 . S
H234 C218 0.931 . S
H235 C223 0.929 . S
H236 C224 0.960 . S
H237 C224 0.962 . S
H238 C224 0.960 . S
H239 C225 0.961 . S
H240 C225 0.961 . S
H241 C225 0.961 . S
H242 C226 0.931 . S
H243 C231 0.930 . S
H244 C232 0.956 . S
H245 C232 0.961 . S
H246 C232 0.961 . S
H247 C233 0.958 . S
H248 C233 0.961 . S
H249 C233 0.960 . S
C250 C251 1.391 . S
C250 C252 1.394 . S
C250 H266 0.931 . S
C251 C250 1.391 . S
C251 C255 1.376 . S
C252 C250 1.394 . S
C252 C253 1.369 . S
C252 C256 1.531 . S
C253 C252 1.369 . S
C253 C254 1.410 . S
C253 C261 1.503 . S
C254 C253 1.410 . S
C254 C255 1.392 . S
C254 C257 1.511 . S
C255 C251 1.376 . S
C255 C254 1.392 . S
C255 H267 0.929 . S
C256 C252 1.531 . S
C256 H268 0.960 . S
C256 H269 0.962 . S
C256 H270 0.960 . S
C257 C254 1.511 . S
C257 H271 0.961 . S
C257 H272 0.961 . S
C257 H273 0.961 . S
C258 C259 1.370 . S
C258 C260 1.363 . S
C258 H274 0.931 . S
C259 C258 1.370 . S
C259 C263 1.408 . S
C260 C258 1.363 . S
C260 C261 1.370 . S
C260 C264 1.524 . S
C261 C253 1.503 . S
C261 C260 1.370 . S
C261 C262 1.403 . S
C262 C261 1.403 . S
C262 C263 1.404 . S
C262 C265 1.539 . S
C263 C259 1.408 . S
C263 C262 1.404 . S
C263 H275 0.930 . S
C264 C260 1.524 . S
C264 H276 0.956 . S
C264 H277 0.961 . S
C264 H278 0.961 . S
C265 C262 1.539 . S
C265 H279 0.958 . S
C265 H280 0.961 . S
C265 H281 0.960 . S
H266 C250 0.931 . S
H267 C255 0.929 . S
H268 C256 0.960 . S
H269 C256 0.962 . S
H270 C256 0.960 . S
H271 C257 0.961 . S
H272 C257 0.961 . S
H273 C257 0.961 . S
H274 C258 0.931 . S
H275 C263 0.930 . S
H276 C264 0.956 . S
H277 C264 0.961 . S
H278 C264 0.961 . S
H279 C265 0.958 . S
H280 C265 0.961 . S
H281 C265 0.960 . S
C282 C283 1.391 . S
C282 C284 1.394 . S
C282 H298 0.931 . S
C283 C282 1.391 . S
C283 C287 1.376 . S
C284 C282 1.394 . S
C284 C285 1.369 . S
C284 C288 1.531 . S
C285 C284 1.369 . S
C285 C286 1.410 . S
C285 C293 1.503 . S
C286 C285 1.410 . S
C286 C287 1.392 . S
C286 C289 1.511 . S
C287 C283 1.376 . S
C287 C286 1.392 . S
C287 H299 0.929 . S
C288 C284 1.531 . S
C288 H300 0.960 . S
C288 H301 0.962 . S
C288 H302 0.960 . S
C289 C286 1.511 . S
C289 H303 0.961 . S
C289 H304 0.961 . S
C289 H305 0.961 . S
C290 C291 1.370 . S
C290 C292 1.363 . S
C290 H306 0.931 . S
C291 C290 1.370 . S
C291 C295 1.408 . S
C292 C290 1.363 . S
C292 C293 1.370 . S
C292 C296 1.524 . S
C293 C285 1.503 . S
C293 C292 1.370 . S
C293 C294 1.403 . S
C294 C293 1.403 . S
C294 C295 1.404 . S
C294 C297 1.539 . S
C295 C291 1.408 . S
C295 C294 1.404 . S
C295 H307 0.930 . S
C296 C292 1.524 . S
C296 H308 0.956 . S
C296 H309 0.961 . S
C296 H310 0.961 . S
C297 C294 1.539 . S
C297 H311 0.958 . S
C297 H312 0.961 . S
C297 H313 0.960 . S
H298 C282 0.931 . S
H299 C287 0.929 . S
H300 C288 0.960 . S
H301 C288 0.962 . S
H302 C288 0.960 . S
H303 C289 0.961 . S
H304 C289 0.961 . S
H305 C289 0.961 . S
H306 C290 0.931 . S
H307 C295 0.930 . S
H308 C296 0.956 . S
H309 C296 0.961 . S
H310 C296 0.961 . S
H311 C297 0.958 . S
H312 C297 0.961 . S
H313 C297 0.960 . S
C314 C315 1.391 . S
C314 C316 1.394 . S
C314 H330 0.931 . S
C315 C314 1.391 . S
C315 C319 1.376 . S
C316 C314 1.394 . S
C316 C317 1.369 . S
C316 C320 1.531 . S
C317 C316 1.369 . S
C317 C318 1.410 . S
C317 C325 1.503 . S
C318 C317 1.410 . S
C318 C319 1.392 . S
C318 C321 1.511 . S
C319 C315 1.376 . S
C319 C318 1.392 . S
C319 H331 0.929 . S
C320 C316 1.531 . S
C320 H332 0.960 . S
C320 H333 0.962 . S
C320 H334 0.960 . S
C321 C318 1.511 . S
C321 H335 0.961 . S
C321 H336 0.961 . S
C321 H337 0.961 . S
C322 C323 1.370 . S
C322 C324 1.363 . S
C322 H338 0.931 . S
C323 C322 1.370 . S
C323 C327 1.408 . S
C324 C322 1.363 . S
C324 C325 1.370 . S
C324 C328 1.524 . S
C325 C317 1.503 . S
C325 C324 1.370 . S
C325 C326 1.403 . S
C326 C325 1.403 . S
C326 C327 1.404 . S
C326 C329 1.539 . S
C327 C323 1.408 . S
C327 C326 1.404 . S
C327 H339 0.930 . S
C328 C324 1.524 . S
C328 H340 0.956 . S
C328 H341 0.961 . S
C328 H342 0.961 . S
C329 C326 1.539 . S
C329 H343 0.958 . S
C329 H344 0.961 . S
C329 H345 0.960 . S
H330 C314 0.931 . S
H331 C319 0.929 . S
H332 C320 0.960 . S
H333 C320 0.962 . S
H334 C320 0.960 . S
H335 C321 0.961 . S
H336 C321 0.961 . S
H337 C321 0.961 . S
H338 C322 0.931 . S
H339 C327 0.930 . S
H340 C328 0.956 . S
H341 C328 0.961 . S
H342 C328 0.961 . S
H343 C329 0.958 . S
H344 C329 0.961 . S
H345 C329 0.960 . S
C346 C347 1.391 . S
C346 C348 1.394 . S
C346 H362 0.931 . S
C347 C346 1.391 . S
C347 C351 1.376 . S
C348 C346 1.394 . S
C348 C349 1.369 . S
C348 C352 1.531 . S
C349 C348 1.369 . S
C349 C350 1.410 . S
C349 C357 1.503 . S
C350 C349 1.410 . S
C350 C351 1.392 . S
C350 C353 1.511 . S
C351 C347 1.376 . S
C351 C350 1.392 . S
C351 H363 0.929 . S
C352 C348 1.531 . S
C352 H364 0.960 . S
C352 H365 0.962 . S
C352 H366 0.960 . S
C353 C350 1.511 . S
C353 H367 0.961 . S
C353 H368 0.961 . S
C353 H369 0.961 . S
C354 C355 1.370 . S
C354 C356 1.363 . S
C354 H370 0.931 . S
C355 C354 1.370 . S
C355 C359 1.408 . S
C356 C354 1.363 . S
C356 C357 1.370 . S
C356 C360 1.524 . S
C357 C349 1.503 . S
C357 C356 1.370 . S
C357 C358 1.403 . S
C358 C357 1.403 . S
C358 C359 1.404 . S
C358 C361 1.539 . S
C359 C355 1.408 . S
C359 C358 1.404 . S
C359 H371 0.930 . S
C360 C356 1.524 . S
C360 H372 0.956 . S
C360 H373 0.961 . S
C360 H374 0.961 . S
C361 C358 1.539 . S
C361 H375 0.958 . S
C361 H376 0.961 . S
C361 H377 0.960 . S
H362 C346 0.931 . S
H363 C351 0.929 . S
H364 C352 0.960 . S
H365 C352 0.962 . S
H366 C352 0.960 . S
H367 C353 0.961 . S
H368 C353 0.961 . S
H369 C353 0.961 . S
H370 C354 0.931 . S
H371 C359 0.930 . S
H372 C360 0.956 . S
H373 C360 0.961 . S
H374 C360 0.961 . S
H375 C361 0.958 . S
H376 C361 0.961 . S
H377 C361 0.960 . S
C378 C379 1.391 . S
C378 C380 1.394 . S
C378 H394 0.931 . S
C379 C378 1.391 . S
C379 C383 1.376 . S
C380 C378 1.394 . S
C380 C381 1.369 . S
C380 C384 1.531 . S
C381 C380 1.369 . S
C381 C382 1.410 . S
C381 C389 1.503 . S
C382 C381 1.410 . S
C382 C383 1.392 . S
C382 C385 1.511 . S
C383 C379 1.376 . S
C383 C382 1.392 . S
C383 H395 0.929 . S
C384 C380 1.531 . S
C384 H396 0.960 . S
C384 H397 0.962 . S
C384 H398 0.960 . S
C385 C382 1.511 . S
C385 H399 0.961 . S
C385 H400 0.961 . S
C385 H401 0.961 . S
C386 C387 1.370 . S
C386 C388 1.363 . S
C386 H402 0.931 1_545 S
C387 C386 1.370 . S
C387 C391 1.408 . S
C388 C386 1.363 . S
C388 C389 1.370 . S
C388 C392 1.524 . S
C389 C381 1.503 . S
C389 C388 1.370 . S
C389 C390 1.403 . S
C390 C389 1.403 . S
C390 C391 1.404 . S
C390 C393 1.539 . S
C391 C387 1.408 . S
C391 C390 1.404 . S
C391 H403 0.930 . S
C392 C388 1.524 . S
C392 H404 0.956 . S
C392 H405 0.961 . S
C392 H406 0.961 . S
C393 C390 1.539 . S
C393 H407 0.958 . S
C393 H408 0.961 . S
C393 H409 0.960 . S
H394 C378 0.931 . S
H395 C383 0.929 . S
H396 C384 0.960 . S
H397 C384 0.962 . S
H398 C384 0.960 . S
H399 C385 0.961 . S
H400 C385 0.961 . S
H401 C385 0.961 . S
H402 C386 0.931 1_565 S
H403 C391 0.930 . S
H404 C392 0.956 . S
H405 C392 0.961 . S
H406 C392 0.961 . S
H407 C393 0.958 . S
H408 C393 0.961 . S
H409 C393 0.960 . S
C410 C411 1.391 . S
C410 C412 1.394 1_655 S
C410 H426 0.931 . S
C411 C410 1.391 . S
C411 C415 1.376 . S
C412 C410 1.394 1_455 S
C412 C413 1.369 . S
C412 C416 1.531 . S
C413 C412 1.369 . S
C413 C414 1.410 1_455 S
C413 C421 1.503 . S
C414 C413 1.410 1_655 S
C414 C415 1.392 . S
C414 C417 1.511 . S
C415 C411 1.376 . S
C415 C414 1.392 . S
C415 H427 0.929 . S
C416 C412 1.531 . S
C416 H428 0.960 . S
C416 H429 0.962 . S
C416 H430 0.960 . S
C417 C414 1.511 . S
C417 H431 0.961 . S
C417 H432 0.961 1_655 S
C417 H433 0.961 . S
C418 C419 1.370 . S
C418 C420 1.363 . S
C418 H434 0.931 . S
C419 C418 1.370 . S
C419 C423 1.408 . S
C420 C418 1.363 . S
C420 C421 1.370 . S
C420 C424 1.524 . S
C421 C413 1.503 . S
C421 C420 1.370 . S
C421 C422 1.403 . S
C422 C421 1.403 . S
C422 C423 1.404 . S
C422 C425 1.539 . S
C423 C419 1.408 . S
C423 C422 1.404 . S
C423 H435 0.930 . S
C424 C420 1.524 . S
C424 H436 0.956 . S
C424 H437 0.961 . S
C424 H438 0.961 . S
C425 C422 1.539 . S
C425 H439 0.958 . S
C425 H440 0.961 . S
C425 H441 0.960 . S
H426 C410 0.931 . S
H427 C415 0.929 . S
H428 C416 0.960 . S
H429 C416 0.962 . S
H430 C416 0.960 . S
H431 C417 0.961 . S
H432 C417 0.961 1_455 S
H433 C417 0.961 . S
H434 C418 0.931 . S
H435 C423 0.930 . S
H436 C424 0.956 . S
H437 C424 0.961 . S
H438 C424 0.961 . S
H439 C425 0.958 . S
H440 C425 0.961 . S
H441 C425 0.960 . S
C442 C443 1.391 . S
C442 C444 1.394 . S
C442 H458 0.931 1_655 S
C443 C442 1.391 . S
C443 C447 1.376 . S
C444 C442 1.394 . S
C444 C445 1.369 . S
C444 C448 1.531 . S
C445 C444 1.369 . S
C445 C446 1.410 . S
C445 C453 1.503 . S
C446 C445 1.410 . S
C446 C447 1.392 . S
C446 C449 1.511 . S
C447 C443 1.376 . S
C447 C446 1.392 . S
C447 H459 0.929 . S
C448 C444 1.531 . S
C448 H460 0.960 . S
C448 H461 0.962 . S
C448 H462 0.960 . S
C449 C446 1.511 . S
C449 H463 0.961 . S
C449 H464 0.961 . S
C449 H465 0.961 . S
C450 C451 1.370 . S
C450 C452 1.363 . S
C450 H466 0.931 . S
C451 C450 1.370 . S
C451 C455 1.408 . S
C452 C450 1.363 . S
C452 C453 1.370 1_565 S
C452 C456 1.524 . S
C453 C445 1.503 . S
C453 C452 1.370 1_545 S
C453 C454 1.403 . S
C454 C453 1.403 . S
C454 C455 1.404 1_545 S
C454 C457 1.539 . S
C455 C451 1.408 . S
C455 C454 1.404 1_565 S
C455 H467 0.930 . S
C456 C452 1.524 . S
C456 H468 0.956 1_565 S
C456 H469 0.961 1_565 S
C456 H470 0.961 . S
C457 C454 1.539 . S
C457 H471 0.958 . S
C457 H472 0.961 . S
C457 H473 0.960 . S
H458 C442 0.931 1_455 S
H459 C447 0.929 . S
H460 C448 0.960 . S
H461 C448 0.962 . S
H462 C448 0.960 . S
H463 C449 0.961 . S
H464 C449 0.961 . S
H465 C449 0.961 . S
H466 C450 0.931 . S
H467 C455 0.930 . S
H468 C456 0.956 1_545 S
H469 C456 0.961 1_545 S
H470 C456 0.961 . S
H471 C457 0.958 . S
H472 C457 0.961 . S
H473 C457 0.960 . S
C474 C475 1.391 . S
C474 C476 1.394 . S
C474 H490 0.931 . S
C475 C474 1.391 . S
C475 C479 1.376 . S
C476 C474 1.394 . S
C476 C477 1.369 . S
C476 C480 1.531 . S
C477 C476 1.369 . S
C477 C478 1.410 . S
C477 C485 1.503 . S
C478 C477 1.410 . S
C478 C479 1.392 . S
C478 C481 1.511 . S
C479 C475 1.376 . S
C479 C478 1.392 . S
C479 H491 0.929 1_565 S
C480 C476 1.531 . S
C480 H492 0.960 . S
C480 H493 0.962 . S
C480 H494 0.960 . S
C481 C478 1.511 . S
C481 H495 0.961 . S
C481 H496 0.961 . S
C481 H497 0.961 . S
C482 C483 1.370 . S
C482 C484 1.363 . S
C482 H498 0.931 . S
C483 C482 1.370 . S
C483 C487 1.408 . S
C484 C482 1.363 . S
C484 C485 1.370 . S
C484 C488 1.524 . S
C485 C477 1.503 . S
C485 C484 1.370 . S
C485 C486 1.403 . S
C486 C485 1.403 . S
C486 C487 1.404 . S
C486 C489 1.539 . S
C487 C483 1.408 . S
C487 C486 1.404 . S
C487 H499 0.930 . S
C488 C484 1.524 . S
C488 H500 0.956 . S
C488 H501 0.961 . S
C488 H502 0.961 . S
C489 C486 1.539 . S
C489 H503 0.958 . S
C489 H504 0.961 . S
C489 H505 0.960 . S
H490 C474 0.931 . S
H491 C479 0.929 1_545 S
H492 C480 0.960 . S
H493 C480 0.962 . S
H494 C480 0.960 . S
H495 C481 0.961 . S
H496 C481 0.961 . S
H497 C481 0.961 . S
H498 C482 0.931 . S
H499 C487 0.930 . S
H500 C488 0.956 . S
H501 C488 0.961 . S
H502 C488 0.961 . S
H503 C489 0.958 . S
H504 C489 0.961 . S
H505 C489 0.960 . S
C506 C507 1.391 . S
C506 C508 1.394 . S
C506 H522 0.931 . S
C507 C506 1.391 . S
C507 C511 1.376 . S
C508 C506 1.394 . S
C508 C509 1.369 . S
C508 C512 1.531 . S
C509 C508 1.369 . S
C509 C510 1.410 . S
C509 C517 1.503 . S
C510 C509 1.410 . S
C510 C511 1.392 . S
C510 C513 1.511 . S
C511 C507 1.376 . S
C511 C510 1.392 . S
C511 H523 0.929 . S
C512 C508 1.531 . S
C512 H524 0.960 . S
C512 H525 0.962 . S
C512 H526 0.960 . S
C513 C510 1.511 . S
C513 H527 0.961 . S
C513 H528 0.961 . S
C513 H529 0.961 . S
C514 C515 1.370 . S
C514 C516 1.363 1_455 S
C514 H530 0.931 . S
C515 C514 1.370 . S
C515 C519 1.408 . S
C516 C514 1.363 1_655 S
C516 C517 1.370 . S
C516 C520 1.524 . S
C517 C509 1.503 . S
C517 C516 1.370 . S
C517 C518 1.403 1_655 S
C518 C517 1.403 1_455 S
C518 C519 1.404 . S
C518 C521 1.539 . S
C519 C515 1.408 . S
C519 C518 1.404 . S
C519 H531 0.930 . S
C520 C516 1.524 . S
C520 H532 0.956 . S
C520 H533 0.961 . S
C520 H534 0.961 . S
C521 C518 1.539 . S
C521 H535 0.958 . S
C521 H536 0.961 . S
C521 H537 0.960 1_455 S
H522 C506 0.931 . S
H523 C511 0.929 . S
H524 C512 0.960 . S
H525 C512 0.962 . S
H526 C512 0.960 . S
H527 C513 0.961 . S
H528 C513 0.961 . S
H529 C513 0.961 . S
H530 C514 0.931 . S
H531 C519 0.930 . S
H532 C520 0.956 . S
H533 C520 0.961 . S
H534 C520 0.961 . S
H535 C521 0.958 . S
H536 C521 0.961 . S
H537 C521 0.960 1_655 S
C538 C539 1.391 . S
C538 C540 1.394 . S
C538 H554 0.931 . S
C539 C538 1.391 . S
C539 C543 1.376 . S
C540 C538 1.394 . S
C540 C541 1.369 1_545 S
C540 C544 1.531 1_545 S
C541 C540 1.369 1_565 S
C541 C542 1.410 1_565 S
C541 C549 1.503 . S
C542 C541 1.410 1_545 S
C542 C543 1.392 . S
C542 C545 1.511 1_545 S
C543 C539 1.376 . S
C543 C542 1.392 . S
C543 H555 0.929 . S
C544 C540 1.531 1_565 S
C544 H556 0.960 . S
C544 H557 0.962 . S
C544 H558 0.960 1_565 S
C545 C542 1.511 1_565 S
C545 H559 0.961 . S
C545 H560 0.961 . S
C545 H561 0.961 . S
C546 C547 1.370 . S
C546 C548 1.363 . S
C546 H562 0.931 . S
C547 C546 1.370 . S
C547 C551 1.408 . S
C548 C546 1.363 . S
C548 C549 1.370 . S
C548 C552 1.524 . S
C549 C541 1.503 . S
C549 C548 1.370 . S
C549 C550 1.403 . S
C550 C549 1.403 . S
C550 C551 1.404 . S
C550 C553 1.539 . S
C551 C547 1.408 . S
C551 C550 1.404 . S
C551 H563 0.930 1_455 S
C552 C548 1.524 . S
C552 H564 0.956 . S
C552 H565 0.961 . S
C552 H566 0.961 . S
C553 C550 1.539 . S
C553 H567 0.958 . S
C553 H568 0.961 . S
C553 H569 0.960 . S
H554 C538 0.931 . S
H555 C543 0.929 . S
H556 C544 0.960 . S
H557 C544 0.962 . S
H558 C544 0.960 1_545 S
H559 C545 0.961 . S
H560 C545 0.961 . S
H561 C545 0.961 . S
H562 C546 0.931 . S
H563 C551 0.930 1_655 S
H564 C552 0.956 . S
H565 C552 0.961 . S
H566 C552 0.961 . S
H567 C553 0.958 . S
H568 C553 0.961 . S
H569 C553 0.960 . S
C570 C571 1.391 . S
C570 C572 1.394 . S
C570 H586 0.931 . S
C571 C570 1.391 . S
C571 C575 1.376 . S
C572 C570 1.394 . S
C572 C573 1.369 . S
C572 C576 1.531 1_554 S
C573 C572 1.369 . S
C573 C574 1.410 . S
C573 C581 1.503 1_554 S
C574 C573 1.410 . S
C574 C575 1.392 . S
C574 C577 1.511 . S
C575 C571 1.376 . S
C575 C574 1.392 . S
C575 H587 0.929 . S
C576 C572 1.531 1_556 S
C576 H588 0.960 . S
C576 H589 0.962 . S
C576 H590 0.960 . S
C577 C574 1.511 . S
C577 H591 0.961 . S
C577 H592 0.961 . S
C577 H593 0.961 . S
C578 C579 1.370 . S
C578 C580 1.363 . S
C578 H594 0.931 . S
C579 C578 1.370 . S
C579 C583 1.408 . S
C580 C578 1.363 . S
C580 C581 1.370 . S
C580 C584 1.524 . S
C581 C573 1.503 1_556 S
C581 C580 1.370 . S
C581 C582 1.403 . S
C582 C581 1.403 . S
C582 C583 1.404 . S
C582 C585 1.539 . S
C583 C579 1.408 . S
C583 C582 1.404 . S
C583 H595 0.930 . S
C584 C580 1.524 . S
C584 H596 0.956 . S
C584 H597 0.961 1_556 S
C584 H598 0.961 . S
C585 C582 1.539 . S
C585 H599 0.958 . S
C585 H600 0.961 . S
C585 H601 0.960 1_556 S
H586 C570 0.931 . S
H587 C575 0.929 . S
H588 C576 0.960 . S
H589 C576 0.962 . S
H590 C576 0.960 . S
H591 C577 0.961 . S
H592 C577 0.961 . S
H593 C577 0.961 . S
H594 C578 0.931 . S
H595 C583 0.930 . S
H596 C584 0.956 . S
H597 C584 0.961 1_554 S
H598 C584 0.961 . S
H599 C585 0.958 . S
H600 C585 0.961 . S
H601 C585 0.960 1_554 S
C602 C603 1.391 . S
C602 C604 1.394 . S
C602 H618 0.931 . S
C603 C602 1.391 . S
C603 C607 1.376 . S
C604 C602 1.394 . S
C604 C605 1.369 . S
C604 C608 1.531 . S
C605 C604 1.369 . S
C605 C606 1.410 1_655 S
C605 C613 1.503 1_655 S
C606 C605 1.410 1_455 S
C606 C607 1.392 1_455 S
C606 C609 1.511 . S
C607 C603 1.376 . S
C607 C606 1.392 1_655 S
C607 H619 0.929 . S
C608 C604 1.531 . S
C608 H620 0.960 . S
C608 H621 0.962 . S
C608 H622 0.960 . S
C609 C606 1.511 . S
C609 H623 0.961 . S
C609 H624 0.961 . S
C609 H625 0.961 . S
C610 C611 1.370 . S
C610 C612 1.363 . S
C610 H626 0.931 . S
C611 C610 1.370 . S
C611 C615 1.408 . S
C612 C610 1.363 . S
C612 C613 1.370 . S
C612 C616 1.524 . S
C613 C605 1.503 1_455 S
C613 C612 1.370 . S
C613 C614 1.403 . S
C614 C613 1.403 . S
C614 C615 1.404 . S
C614 C617 1.539 . S
C615 C611 1.408 . S
C615 C614 1.404 . S
C615 H627 0.930 . S
C616 C612 1.524 . S
C616 H628 0.956 1_455 S
C616 H629 0.961 . S
C616 H630 0.961 . S
C617 C614 1.539 . S
C617 H631 0.958 . S
C617 H632 0.961 . S
C617 H633 0.960 . S
H618 C602 0.931 . S
H619 C607 0.929 . S
H620 C608 0.960 . S
H621 C608 0.962 . S
H622 C608 0.960 . S
H623 C609 0.961 . S
H624 C609 0.961 . S
H625 C609 0.961 . S
H626 C610 0.931 . S
H627 C615 0.930 . S
H628 C616 0.956 1_655 S
H629 C616 0.961 . S
H630 C616 0.961 . S
H631 C617 0.958 . S
H632 C617 0.961 . S
H633 C617 0.960 . S
C634 C635 1.391 . S
C634 C636 1.394 . S
C634 H650 0.931 . S
C635 C634 1.391 . S
C635 C639 1.376 . S
C636 C634 1.394 . S
C636 C637 1.369 . S
C636 C640 1.531 1_554 S
C637 C636 1.369 . S
C637 C638 1.410 . S
C637 C645 1.503 1_554 S
C638 C637 1.410 . S
C638 C639 1.392 . S
C638 C641 1.511 . S
C639 C635 1.376 . S
C639 C638 1.392 . S
C639 H651 0.929 . S
C640 C636 1.531 1_556 S
C640 H652 0.960 . S
C640 H653 0.962 1_556 S
C640 H654 0.960 . S
C641 C638 1.511 . S
C641 H655 0.961 . S
C641 H656 0.961 1_565 S
C641 H657 0.961 1_554 S
C642 C643 1.370 . S
C642 C644 1.363 . S
C642 H658 0.931 . S
C643 C642 1.370 . S
C643 C647 1.408 1_545 S
C644 C642 1.363 . S
C644 C645 1.370 1_545 S
C644 C648 1.524 1_556 S
C645 C637 1.503 1_556 S
C645 C644 1.370 1_565 S
C645 C646 1.403 . S
C646 C645 1.403 . S
C646 C647 1.404 . S
C646 C649 1.539 . S
C647 C643 1.408 1_565 S
C647 C646 1.404 . S
C647 H659 0.930 . S
C648 C644 1.524 1_554 S
C648 H660 0.956 . S
C648 H661 0.961 . S
C648 H662 0.961 . S
C649 C646 1.539 . S
C649 H663 0.958 . S
C649 H664 0.961 . S
C649 H665 0.960 . S
H650 C634 0.931 . S
H651 C639 0.929 . S
H652 C640 0.960 . S
H653 C640 0.962 1_554 S
H654 C640 0.960 . S
H655 C641 0.961 . S
H656 C641 0.961 1_545 S
H657 C641 0.961 1_556 S
H658 C642 0.931 . S
H659 C647 0.930 . S
H660 C648 0.956 . S
H661 C648 0.961 . S
H662 C648 0.961 . S
H663 C649 0.958 . S
H664 C649 0.961 . S
H665 C649 0.960 . S
C666 C667 1.391 . S
C666 C668 1.394 . S
C666 H682 0.931 . S
C667 C666 1.391 . S
C667 C671 1.376 . S
C668 C666 1.394 . S
C668 C669 1.369 . S
C668 C672 1.531 . S
C669 C668 1.369 . S
C669 C670 1.410 . S
C669 C677 1.503 . S
C670 C669 1.410 . S
C670 C671 1.392 . S
C670 C673 1.511 . S
C671 C667 1.376 . S
C671 C670 1.392 . S
C671 H683 0.929 . S
C672 C668 1.531 . S
C672 H684 0.960 . S
C672 H685 0.962 . S
C672 H686 0.960 . S
C673 C670 1.511 . S
C673 H687 0.961 . S
C673 H688 0.961 . S
C673 H689 0.961 . S
C674 C675 1.370 . S
C674 C676 1.363 . S
C674 H690 0.931 . S
C675 C674 1.370 . S
C675 C679 1.408 . S
C676 C674 1.363 . S
C676 C677 1.370 . S
C676 C680 1.524 . S
C677 C669 1.503 . S
C677 C676 1.370 . S
C677 C678 1.403 . S
C678 C677 1.403 . S
C678 C679 1.404 . S
C678 C681 1.539 . S
C679 C675 1.408 . S
C679 C678 1.404 . S
C679 H691 0.930 . S
C680 C676 1.524 . S
C680 H692 0.956 . S
C680 H693 0.961 . S
C680 H694 0.961 . S
C681 C678 1.539 . S
C681 H695 0.958 . S
C681 H696 0.961 . S
C681 H697 0.960 . S
H682 C666 0.931 . S
H683 C671 0.929 . S
H684 C672 0.960 . S
H685 C672 0.962 . S
H686 C672 0.960 . S
H687 C673 0.961 . S
H688 C673 0.961 . S
H689 C673 0.961 . S
H690 C674 0.931 . S
H691 C679 0.930 . S
H692 C680 0.956 . S
H693 C680 0.961 . S
H694 C680 0.961 . S
H695 C681 0.958 . S
H696 C681 0.961 . S
H697 C681 0.960 . S
C698 C699 1.391 . S
C698 C700 1.394 1_655 S
C698 H714 0.931 . S
C699 C698 1.391 . S
C699 C703 1.376 . S
C700 C698 1.394 1_455 S
C700 C701 1.369 1_455 S
C700 C704 1.531 . S
C701 C700 1.369 1_655 S
C701 C702 1.410 . S
C701 C709 1.503 1_656 S
C702 C701 1.410 . S
C702 C703 1.392 . S
C702 C705 1.511 1_556 S
C703 C699 1.376 . S
C703 C702 1.392 . S
C703 H715 0.929 . S
C704 C700 1.531 . S
C704 H716 0.960 1_556 S
C704 H717 0.962 . S
C704 H718 0.960 . S
C705 C702 1.511 1_554 S
C705 H719 0.961 1_554 S
C705 H720 0.961 . S
C705 H721 0.961 . S
C706 C707 1.370 . S
C706 C708 1.363 . S
C706 H722 0.931 . S
C707 C706 1.370 . S
C707 C711 1.408 . S
C708 C706 1.363 . S
C708 C709 1.370 . S
C708 C712 1.524 1_554 S
C709 C701 1.503 1_454 S
C709 C708 1.370 . S
C709 C710 1.403 . S
C710 C709 1.403 . S
C710 C711 1.404 . S
C710 C713 1.539 1_455 S
C711 C707 1.408 . S
C711 C710 1.404 . S
C711 H723 0.930 . S
C712 C708 1.524 1_556 S
C712 H724 0.956 . S
C712 H725 0.961 . S
C712 H726 0.961 . S
C713 C710 1.539 1_655 S
C713 H727 0.958 . S
C713 H728 0.961 . S
C713 H729 0.960 . S
H714 C698 0.931 . S
H715 C703 0.929 . S
H716 C704 0.960 1_554 S
H717 C704 0.962 . S
H718 C704 0.960 . S
H719 C705 0.961 1_556 S
H720 C705 0.961 . S
H721 C705 0.961 . S
H722 C706 0.931 . S
H723 C711 0.930 . S
H724 C712 0.956 . S
H725 C712 0.961 . S
H726 C712 0.961 . S
H727 C713 0.958 . S
H728 C713 0.961 . S
H729 C713 0.960 . S
C730 C731 1.391 . S
C730 C732 1.394 . S
C730 H746 0.931 . S
C731 C730 1.391 . S
C731 C735 1.376 . S
C732 C730 1.394 . S
C732 C733 1.369 . S
C732 C736 1.531 1_545 S
C733 C732 1.369 . S
C733 C734 1.410 . S
C733 C741 1.515 . S
C734 C733 1.410 . S
C734 C735 1.392 . S
C734 C737 1.511 . S
C735 C731 1.376 . S
C735 C734 1.392 . S
C735 H747 0.929 . S
C736 C732 1.531 1_565 S
C736 H748 0.960 . S
C736 H749 0.962 . S
C736 H750 0.960 . S
C737 C734 1.511 . S
C737 H751 0.961 . S
C737 H752 0.961 . S
C737 H753 0.961 . S
C738 C739 1.370 . S
C738 C740 1.363 1_565 S
C738 H754 0.931 . S
C739 C738 1.370 . S
C739 C743 1.408 . S
C740 C738 1.363 1_545 S
C740 C741 1.364 . S
C740 C744 1.524 . S
C741 C733 1.515 . S
C741 C740 1.364 . S
C741 C742 1.398 1_545 S
C742 C741 1.398 1_565 S
C742 C743 1.404 . S
C742 C745 1.539 . S
C743 C739 1.408 . S
C743 C742 1.404 . S
C743 H755 0.930 . S
C744 C740 1.524 . S
C744 H756 0.956 . S
C744 H757 0.961 . S
C744 H758 0.961 . S
C745 C742 1.539 . S
C745 H759 0.958 . S
C745 H760 0.961 . S
C745 H761 0.960 . S
H746 C730 0.931 . S
H747 C735 0.929 . S
H748 C736 0.960 . S
H749 C736 0.962 . S
H750 C736 0.960 . S
H751 C737 0.961 . S
H752 C737 0.961 . S
H753 C737 0.961 . S
H754 C738 0.931 . S
H755 C743 0.930 . S
H756 C744 0.956 . S
H757 C744 0.961 . S
H758 C744 0.961 . S
H759 C745 0.958 . S
H760 C745 0.961 . S
H761 C745 0.960 . S
C762 C763 1.391 . S
C762 C764 1.394 . S
C762 H778 0.931 . S
C763 C762 1.391 . S
C763 C767 1.376 . S
C764 C762 1.394 . S
C764 C765 1.369 . S
C764 C768 1.531 1_556 S
C765 C764 1.369 . S
C765 C766 1.410 . S
C765 C773 1.503 1_556 S
C766 C765 1.410 . S
C766 C767 1.392 . S
C766 C769 1.511 . S
C767 C763 1.376 . S
C767 C766 1.392 . S
C767 H779 0.929 . S
C768 C764 1.531 1_554 S
C768 H780 0.960 . S
C768 H781 0.962 . S
C768 H782 0.960 . S
C769 C766 1.511 . S
C769 H783 0.961 . S
C769 H784 0.961 . S
C769 H785 0.961 . S
C770 C771 1.370 . S
C770 C772 1.363 . S
C770 H786 0.931 . S
C771 C770 1.370 . S
C771 C775 1.408 . S
C772 C770 1.363 . S
C772 C773 1.370 . S
C772 C776 1.524 . S
C773 C765 1.503 1_554 S
C773 C772 1.370 . S
C773 C774 1.403 . S
C774 C773 1.403 . S
C774 C775 1.404 . S
C774 C777 1.539 . S
C775 C771 1.408 . S
C775 C774 1.404 . S
C775 H787 0.930 . S
C776 C772 1.524 . S
C776 H788 0.956 . S
C776 H789 0.961 1_554 S
C776 H790 0.961 . S
C777 C774 1.539 . S
C777 H791 0.958 . S
C777 H792 0.961 . S
C777 H793 0.960 . S
H778 C762 0.931 . S
H779 C767 0.929 . S
H780 C768 0.960 . S
H781 C768 0.962 . S
H782 C768 0.960 . S
H783 C769 0.961 . S
H784 C769 0.961 . S
H785 C769 0.961 . S
H786 C770 0.931 . S
H787 C775 0.930 . S
H788 C776 0.956 . S
H789 C776 0.961 1_556 S
H790 C776 0.961 . S
H791 C777 0.958 . S
H792 C777 0.961 . S
H793 C777 0.960 . S
C794 C795 1.391 . S
C794 C796 1.394 . S
C794 H810 0.931 . S
C795 C794 1.391 . S
C795 C799 1.376 . S
C796 C794 1.394 . S
C796 C797 1.369 . S
C796 C800 1.531 1_455 S
C797 C796 1.369 . S
C797 C798 1.410 . S
C797 C805 1.503 . S
C798 C797 1.410 . S
C798 C799 1.392 . S
C798 C801 1.511 . S
C799 C795 1.376 . S
C799 C798 1.392 . S
C799 H811 0.929 . S
C800 C796 1.531 1_655 S
C800 H812 0.960 . S
C800 H813 0.962 . S
C800 H814 0.960 . S
C801 C798 1.511 . S
C801 H815 0.961 . S
C801 H816 0.961 . S
C801 H817 0.961 . S
C802 C803 1.370 . S
C802 C804 1.363 . S
C802 H818 0.931 . S
C803 C802 1.370 . S
C803 C807 1.408 . S
C804 C802 1.363 . S
C804 C805 1.370 1_655 S
C804 C808 1.524 . S
C805 C797 1.503 . S
C805 C804 1.370 1_455 S
C805 C806 1.403 . S
C806 C805 1.403 . S
C806 C807 1.404 1_455 S
C806 C809 1.539 . S
C807 C803 1.408 . S
C807 C806 1.404 1_655 S
C807 H819 0.930 . S
C808 C804 1.524 . S
C808 H820 0.956 . S
C808 H821 0.961 1_655 S
C808 H822 0.961 . S
C809 C806 1.539 . S
C809 H823 0.958 . S
C809 H824 0.961 . S
C809 H825 0.960 . S
H810 C794 0.931 . S
H811 C799 0.929 . S
H812 C800 0.960 . S
H813 C800 0.962 . S
H814 C800 0.960 . S
H815 C801 0.961 . S
H816 C801 0.961 . S
H817 C801 0.961 . S
H818 C802 0.931 . S
H819 C807 0.930 . S
H820 C808 0.956 . S
H821 C808 0.961 1_455 S
H822 C808 0.961 . S
H823 C809 0.958 . S
H824 C809 0.961 . S
H825 C809 0.960 . S
C826 C827 1.391 . S
C826 C828 1.394 . S
C826 H842 0.931 . S
C827 C826 1.391 . S
C827 C831 1.376 . S
C828 C826 1.394 . S
C828 C829 1.369 . S
C828 C832 1.531 1_556 S
C829 C828 1.369 . S
C829 C830 1.410 . S
C829 C837 1.503 1_556 S
C830 C829 1.410 . S
C830 C831 1.392 . S
C830 C833 1.511 . S
C831 C827 1.376 . S
C831 C830 1.392 . S
C831 H843 0.929 . S
C832 C828 1.531 1_554 S
C832 H844 0.960 . S
C832 H845 0.962 1_554 S
C832 H846 0.960 . S
C833 C830 1.511 . S
C833 H847 0.961 . S
C833 H848 0.961 . S
C833 H849 0.961 1_556 S
C834 C835 1.370 . S
C834 C836 1.363 . S
C834 H850 0.931 . S
C835 C834 1.370 . S
C835 C839 1.408 1_565 S
C836 C834 1.363 . S
C836 C837 1.370 1_565 S
C836 C840 1.524 1_554 S
C837 C829 1.503 1_554 S
C837 C836 1.370 1_545 S
C837 C838 1.403 . S
C838 C837 1.403 . S
C838 C839 1.404 . S
C838 C841 1.539 . S
C839 C835 1.408 1_545 S
C839 C838 1.404 . S
C839 H851 0.930 . S
C840 C836 1.524 1_556 S
C840 H852 0.956 . S
C840 H853 0.961 . S
C840 H854 0.961 . S
C841 C838 1.539 . S
C841 H855 0.958 . S
C841 H856 0.961 . S
C841 H857 0.960 . S
H842 C826 0.931 . S
H843 C831 0.929 . S
H844 C832 0.960 . S
H845 C832 0.962 1_556 S
H846 C832 0.960 . S
H847 C833 0.961 . S
H848 C833 0.961 . S
H849 C833 0.961 1_554 S
H850 C834 0.931 . S
H851 C839 0.930 . S
H852 C840 0.956 . S
H853 C840 0.961 . S
H854 C840 0.961 . S
H855 C841 0.958 . S
H856 C841 0.961 . S
H857 C841 0.960 . S
C858 C859 1.391 . S
C858 C860 1.394 . S
C858 H874 0.931 . S
C859 C858 1.391 . S
C859 C863 1.376 . S
C860 C858 1.394 . S
C860 C861 1.369 . S
C860 C864 1.531 . S
C861 C860 1.369 . S
C861 C862 1.410 . S
C861 C869 1.503 . S
C862 C861 1.410 . S
C862 C863 1.392 . S
C862 C865 1.511 . S
C863 C859 1.376 . S
C863 C862 1.392 . S
C863 H875 0.929 . S
C864 C860 1.531 . S
C864 H876 0.960 . S
C864 H877 0.962 . S
C864 H878 0.960 . S
C865 C862 1.511 . S
C865 H879 0.961 . S
C865 H880 0.961 . S
C865 H881 0.961 . S
C866 C867 1.370 . S
C866 C868 1.363 . S
C866 H882 0.931 . S
C867 C866 1.370 . S
C867 C871 1.408 . S
C868 C866 1.363 . S
C868 C869 1.370 . S
C868 C872 1.524 . S
C869 C861 1.503 . S
C869 C868 1.370 . S
C869 C870 1.403 . S
C870 C869 1.403 . S
C870 C871 1.404 . S
C870 C873 1.539 . S
C871 C867 1.408 . S
C871 C870 1.404 . S
C871 H883 0.930 . S
C872 C868 1.524 . S
C872 H884 0.956 . S
C872 H885 0.961 . S
C872 H886 0.961 . S
C873 C870 1.539 . S
C873 H887 0.958 . S
C873 H888 0.961 . S
C873 H889 0.960 . S
H874 C858 0.931 . S
H875 C863 0.929 . S
H876 C864 0.960 . S
H877 C864 0.962 . S
H878 C864 0.960 . S
H879 C865 0.961 . S
H880 C865 0.961 . S
H881 C865 0.961 . S
H882 C866 0.931 . S
H883 C871 0.930 . S
H884 C872 0.956 . S
H885 C872 0.961 . S
H886 C872 0.961 . S
H887 C873 0.958 . S
H888 C873 0.961 . S
H889 C873 0.960 . S
C890 C891 1.391 . S
C890 C892 1.394 1_455 S
C890 H906 0.931 . S
C891 C890 1.391 . S
C891 C895 1.376 . S
C892 C890 1.394 1_655 S
C892 C893 1.359 1_554 S
C892 C896 1.531 . S
C893 C892 1.359 1_556 S
C893 C894 1.403 1_656 S
C893 C901 1.518 . S
C894 C893 1.403 1_454 S
C894 C895 1.392 . S
C894 C897 1.511 1_454 S
C895 C891 1.376 . S
C895 C894 1.392 . S
C895 H907 0.929 . S
C896 C892 1.531 . S
C896 H908 0.960 1_554 S
C896 H909 0.962 . S
C896 H910 0.960 . S
C897 C894 1.511 1_656 S
C897 H911 0.961 1_556 S
C897 H912 0.961 . S
C897 H913 0.961 1_655 S
C898 C899 1.370 . S
C898 C900 1.363 . S
C898 H914 0.931 . S
C899 C898 1.370 . S
C899 C903 1.408 . S
C900 C898 1.363 . S
C900 C901 1.370 . S
C900 C904 1.524 1_556 S
C901 C893 1.518 . S
C901 C900 1.370 . S
C901 C902 1.403 . S
C902 C901 1.403 . S
C902 C903 1.404 . S
C902 C905 1.539 1_655 S
C903 C899 1.408 . S
C903 C902 1.404 . S
C903 H915 0.930 . S
C904 C900 1.524 1_554 S
C904 H916 0.956 . S
C904 H917 0.961 . S
C904 H918 0.962 . S
C905 C902 1.539 1_455 S
C905 H919 0.958 . S
C905 H920 0.961 . S
C905 H921 0.960 . S
H906 C890 0.931 . S
H907 C895 0.929 . S
H908 C896 0.960 1_556 S
H909 C896 0.962 . S
H910 C896 0.960 . S
H911 C897 0.961 1_554 S
H912 C897 0.961 . S
H913 C897 0.961 1_455 S
H914 C898 0.931 . S
H915 C903 0.930 . S
H916 C904 0.956 . S
H917 C904 0.961 . S
H918 C904 0.962 . S
H919 C905 0.958 . S
H920 C905 0.961 . S
H921 C905 0.960 . S
C922 C923 1.391 . S
C922 C924 1.394 . S
C922 H938 0.931 . S
C923 C922 1.391 . S
C923 C927 1.376 . S
C924 C922 1.394 . S
C924 C925 1.369 1_545 S
C924 C928 1.531 1_545 S
C925 C924 1.369 1_565 S
C925 C926 1.410 1_565 S
C925 C933 1.503 . S
C926 C925 1.410 1_545 S
C926 C927 1.392 . S
C926 C929 1.511 1_545 S
C927 C923 1.376 . S
C927 C926 1.392 . S
C927 H939 0.929 . S
C928 C924 1.531 1_565 S
C928 H940 0.960 . S
C928 H941 0.962 1_565 S
C928 H942 0.960 . S
C929 C926 1.511 1_565 S
C929 H943 0.961 1_565 S
C929 H944 0.961 . S
C929 H945 0.961 . S
C930 C931 1.370 . S
C930 C932 1.363 . S
C930 H946 0.931 . S
C931 C930 1.370 . S
C931 C935 1.408 . S
C932 C930 1.363 . S
C932 C933 1.370 . S
C932 C936 1.524 1_565 S
C933 C925 1.503 . S
C933 C932 1.370 . S
C933 C934 1.403 . S
C934 C933 1.403 . S
C934 C935 1.404 . S
C934 C937 1.539 . S
C935 C931 1.408 . S
C935 C934 1.404 . S
C935 H947 0.930 . S
C936 C932 1.524 1_545 S
C936 H948 0.956 . S
C936 H949 0.961 . S
C936 H950 0.961 . S
C937 C934 1.539 . S
C937 H951 0.958 . S
C937 H952 0.961 . S
C937 H953 0.960 . S
H938 C922 0.931 . S
H939 C927 0.929 . S
H940 C928 0.960 . S
H941 C928 0.962 1_545 S
H942 C928 0.960 . S
H943 C929 0.961 1_545 S
H944 C929 0.961 . S
H945 C929 0.961 . S
H946 C930 0.931 . S
H947 C935 0.930 . S
H948 C936 0.956 . S
H949 C936 0.961 . S
H950 C936 0.961 . S
H951 C937 0.958 . S
H952 C937 0.961 . S
H953 C937 0.960 . S
C187 C11 1.253 . S
C195 C148 1.340 . S
C219 C179 1.390 . S
C227 C49 1.346 . S
C251 C24 1.360 . S
C259 C80 1.385 . S
C283 C31 1.370 . S
C291 C104 1.301 . S
C315 C135 1.298 . S
C323 C62 1.344 . S
C347 C166 1.329 . S
C355 C117 1.328 . S
C379 C18 1.000 . S
C387 C124 1.015 1_545 S
C411 C42 0.929 . S
C419 C155 1.006 . S
C443 C0 1.059 . S
C451 C73 1.038 . S
C475 C55 1.042 1_565 S
C483 C111 0.952 . S
C507 C86 1.014 . S
C515 C142 0.986 . S
C539 C173 0.963 . S
C547 C93 1.011 1_455 S
C571 C2 1.848 . S
C579 C165 1.894 . S
C603 C32 1.883 . S
C611 C10 1.839 . S
C635 C63 1.721 . S
C643 C58 1.634 . S
C667 C95 1.664 . S
C675 C89 1.704 . S
C699 C103 1.797 . S
C707 C126 1.696 . S
C731 C157 1.602 . S
C739 C134 1.689 . S
C763 C120 1.408 . S
C771 C64 1.369 . S
C795 C151 1.421 . S
C803 C94 1.350 . S
C827 C182 1.510 . S
C835 C125 1.411 . S
C859 C156 1.249 . S
C867 C27 1.348 . S
C891 C1 1.272 . S
C899 C41 1.224 . S
C923 C33 1.435 . S
C931 C72 1.440 . S
