# Generated by pormake.
# Topology uml, (4)-cn, num edge types: 1
# Building blocks:
#     Node 0, Type 0, BuildingBlock: CEKHIL_clean_sbu_0, # of connection points: 4
#     Node 1, Type 0, BuildingBlock: CEKHIL_clean_sbu_0, # of connection points: 4
#     Node 2, Type 0, BuildingBlock: CEKHIL_clean_sbu_0, # of connection points: 4
#     Node 3, Type 0, BuildingBlock: CEKHIL_clean_sbu_0, # of connection points: 4
#     Node 4, Type 0, BuildingBlock: CEKHIL_clean_sbu_0, # of connection points: 4
#     Node 5, Type 0, BuildingBlock: CEKHIL_clean_sbu_0, # of connection points: 4
#     Node 6, Type 0, BuildingBlock: CEKHIL_clean_sbu_0, # of connection points: 4
#     Node 7, Type 0, BuildingBlock: CEKHIL_clean_sbu_0, # of connection points: 4
#     Node 8, Type 0, BuildingBlock: CEKHIL_clean_sbu_0, # of connection points: 4
#     Node 9, Type 0, BuildingBlock: CEKHIL_clean_sbu_0, # of connection points: 4
#     Node 10, Type 0, BuildingBlock: CEKHIL_clean_sbu_0, # of connection points: 4
#     Node 11, Type 0, BuildingBlock: CEKHIL_clean_sbu_0, # of connection points: 4
#     Node 12, Type 0, BuildingBlock: CEKHIL_clean_sbu_0, # of connection points: 4
#     Node 13, Type 0, BuildingBlock: CEKHIL_clean_sbu_0, # of connection points: 4
#     Node 14, Type 0, BuildingBlock: CEKHIL_clean_sbu_0, # of connection points: 4
#     Node 15, Type 0, BuildingBlock: CEKHIL_clean_sbu_0, # of connection points: 4
#     Node 16, Type 0, BuildingBlock: CEKHIL_clean_sbu_0, # of connection points: 4
#     Node 17, Type 0, BuildingBlock: CEKHIL_clean_sbu_0, # of connection points: 4
#     Node 18, Type 0, BuildingBlock: CEKHIL_clean_sbu_0, # of connection points: 4
#     Node 19, Type 0, BuildingBlock: CEKHIL_clean_sbu_0, # of connection points: 4
#     Node 20, Type 0, BuildingBlock: CEKHIL_clean_sbu_0, # of connection points: 4
#     Node 21, Type 0, BuildingBlock: CEKHIL_clean_sbu_0, # of connection points: 4
#     Node 22, Type 0, BuildingBlock: CEKHIL_clean_sbu_0, # of connection points: 4
#     Node 23, Type 0, BuildingBlock: CEKHIL_clean_sbu_0, # of connection points: 4
#     Node 24, Type 0, BuildingBlock: CEKHIL_clean_sbu_0, # of connection points: 4
#     Node 25, Type 0, BuildingBlock: CEKHIL_clean_sbu_0, # of connection points: 4
#     Node 26, Type 0, BuildingBlock: CEKHIL_clean_sbu_0, # of connection points: 4
#     Node 27, Type 0, BuildingBlock: CEKHIL_clean_sbu_0, # of connection points: 4
#     Node 28, Type 0, BuildingBlock: CEKHIL_clean_sbu_0, # of connection points: 4
#     Node 29, Type 0, BuildingBlock: CEKHIL_clean_sbu_0, # of connection points: 4
#     Node 30, Type 0, BuildingBlock: CEKHIL_clean_sbu_0, # of connection points: 4
#     Node 31, Type 0, BuildingBlock: CEKHIL_clean_sbu_0, # of connection points: 4
#     Node 32, Type 0, BuildingBlock: CEKHIL_clean_sbu_0, # of connection points: 4
#     Node 33, Type 0, BuildingBlock: CEKHIL_clean_sbu_0, # of connection points: 4
#     Node 34, Type 0, BuildingBlock: CEKHIL_clean_sbu_0, # of connection points: 4
#     Node 35, Type 0, BuildingBlock: CEKHIL_clean_sbu_0, # of connection points: 4
#     Edge 36, Type (0, 0), BuildingBlock: EZIPEK_clean_linker_0, # of connection points: 2
#     Edge 37, Type (0, 0), BuildingBlock: EZIPEK_clean_linker_0, # of connection points: 2
#     Edge 38, Type (0, 0), BuildingBlock: EZIPEK_clean_linker_0, # of connection points: 2
#     Edge 39, Type (0, 0), BuildingBlock: EZIPEK_clean_linker_0, # of connection points: 2
#     Edge 40, Type (0, 0), BuildingBlock: EZIPEK_clean_linker_0, # of connection points: 2
#     Edge 41, Type (0, 0), BuildingBlock: EZIPEK_clean_linker_0, # of connection points: 2
#     Edge 42, Type (0, 0), BuildingBlock: EZIPEK_clean_linker_0, # of connection points: 2
#     Edge 43, Type (0, 0), BuildingBlock: EZIPEK_clean_linker_0, # of connection points: 2
#     Edge 44, Type (0, 0), BuildingBlock: EZIPEK_clean_linker_0, # of connection points: 2
#     Edge 45, Type (0, 0), BuildingBlock: EZIPEK_clean_linker_0, # of connection points: 2
#     Edge 46, Type (0, 0), BuildingBlock: EZIPEK_clean_linker_0, # of connection points: 2
#     Edge 47, Type (0, 0), BuildingBlock: EZIPEK_clean_linker_0, # of connection points: 2
#     Edge 48, Type (0, 0), BuildingBlock: EZIPEK_clean_linker_0, # of connection points: 2
#     Edge 49, Type (0, 0), BuildingBlock: EZIPEK_clean_linker_0, # of connection points: 2
#     Edge 50, Type (0, 0), BuildingBlock: EZIPEK_clean_linker_0, # of connection points: 2
#     Edge 51, Type (0, 0), BuildingBlock: EZIPEK_clean_linker_0, # of connection points: 2
#     Edge 52, Type (0, 0), BuildingBlock: EZIPEK_clean_linker_0, # of connection points: 2
#     Edge 53, Type (0, 0), BuildingBlock: EZIPEK_clean_linker_0, # of connection points: 2
#     Edge 54, Type (0, 0), BuildingBlock: EZIPEK_clean_linker_0, # of connection points: 2
#     Edge 55, Type (0, 0), BuildingBlock: EZIPEK_clean_linker_0, # of connection points: 2
#     Edge 56, Type (0, 0), BuildingBlock: EZIPEK_clean_linker_0, # of connection points: 2
#     Edge 57, Type (0, 0), BuildingBlock: EZIPEK_clean_linker_0, # of connection points: 2
#     Edge 58, Type (0, 0), BuildingBlock: EZIPEK_clean_linker_0, # of connection points: 2
#     Edge 59, Type (0, 0), BuildingBlock: EZIPEK_clean_linker_0, # of connection points: 2
#     Edge 60, Type (0, 0), BuildingBlock: EZIPEK_clean_linker_0, # of connection points: 2
#     Edge 61, Type (0, 0), BuildingBlock: EZIPEK_clean_linker_0, # of connection points: 2
#     Edge 62, Type (0, 0), BuildingBlock: EZIPEK_clean_linker_0, # of connection points: 2
#     Edge 63, Type (0, 0), BuildingBlock: EZIPEK_clean_linker_0, # of connection points: 2
#     Edge 64, Type (0, 0), BuildingBlock: EZIPEK_clean_linker_0, # of connection points: 2
#     Edge 65, Type (0, 0), BuildingBlock: EZIPEK_clean_linker_0, # of connection points: 2
#     Edge 66, Type (0, 0), BuildingBlock: EZIPEK_clean_linker_0, # of connection points: 2
#     Edge 67, Type (0, 0), BuildingBlock: EZIPEK_clean_linker_0, # of connection points: 2
#     Edge 68, Type (0, 0), BuildingBlock: EZIPEK_clean_linker_0, # of connection points: 2
#     Edge 69, Type (0, 0), BuildingBlock: EZIPEK_clean_linker_0, # of connection points: 2
#     Edge 70, Type (0, 0), BuildingBlock: EZIPEK_clean_linker_0, # of connection points: 2
#     Edge 71, Type (0, 0), BuildingBlock: EZIPEK_clean_linker_0, # of connection points: 2
#     Edge 72, Type (0, 0), BuildingBlock: EZIPEK_clean_linker_0, # of connection points: 2
#     Edge 73, Type (0, 0), BuildingBlock: EZIPEK_clean_linker_0, # of connection points: 2
#     Edge 74, Type (0, 0), BuildingBlock: EZIPEK_clean_linker_0, # of connection points: 2
#     Edge 75, Type (0, 0), BuildingBlock: EZIPEK_clean_linker_0, # of connection points: 2
#     Edge 76, Type (0, 0), BuildingBlock: EZIPEK_clean_linker_0, # of connection points: 2
#     Edge 77, Type (0, 0), BuildingBlock: EZIPEK_clean_linker_0, # of connection points: 2
#     Edge 78, Type (0, 0), BuildingBlock: EZIPEK_clean_linker_0, # of connection points: 2
#     Edge 79, Type (0, 0), BuildingBlock: EZIPEK_clean_linker_0, # of connection points: 2
#     Edge 80, Type (0, 0), BuildingBlock: EZIPEK_clean_linker_0, # of connection points: 2
#     Edge 81, Type (0, 0), BuildingBlock: EZIPEK_clean_linker_0, # of connection points: 2
#     Edge 82, Type (0, 0), BuildingBlock: EZIPEK_clean_linker_0, # of connection points: 2
#     Edge 83, Type (0, 0), BuildingBlock: EZIPEK_clean_linker_0, # of connection points: 2
#     Edge 84, Type (0, 0), BuildingBlock: EZIPEK_clean_linker_0, # of connection points: 2
#     Edge 85, Type (0, 0), BuildingBlock: EZIPEK_clean_linker_0, # of connection points: 2
#     Edge 86, Type (0, 0), BuildingBlock: EZIPEK_clean_linker_0, # of connection points: 2
#     Edge 87, Type (0, 0), BuildingBlock: EZIPEK_clean_linker_0, # of connection points: 2
#     Edge 88, Type (0, 0), BuildingBlock: EZIPEK_clean_linker_0, # of connection points: 2
#     Edge 89, Type (0, 0), BuildingBlock: EZIPEK_clean_linker_0, # of connection points: 2
#     Edge 90, Type (0, 0), BuildingBlock: EZIPEK_clean_linker_0, # of connection points: 2
#     Edge 91, Type (0, 0), BuildingBlock: EZIPEK_clean_linker_0, # of connection points: 2
#     Edge 92, Type (0, 0), BuildingBlock: EZIPEK_clean_linker_0, # of connection points: 2
#     Edge 93, Type (0, 0), BuildingBlock: EZIPEK_clean_linker_0, # of connection points: 2
#     Edge 94, Type (0, 0), BuildingBlock: EZIPEK_clean_linker_0, # of connection points: 2
#     Edge 95, Type (0, 0), BuildingBlock: EZIPEK_clean_linker_0, # of connection points: 2
#     Edge 96, Type (0, 0), BuildingBlock: EZIPEK_clean_linker_0, # of connection points: 2
#     Edge 97, Type (0, 0), BuildingBlock: EZIPEK_clean_linker_0, # of connection points: 2
#     Edge 98, Type (0, 0), BuildingBlock: EZIPEK_clean_linker_0, # of connection points: 2
#     Edge 99, Type (0, 0), BuildingBlock: EZIPEK_clean_linker_0, # of connection points: 2
#     Edge 100, Type (0, 0), BuildingBlock: EZIPEK_clean_linker_0, # of connection points: 2
#     Edge 101, Type (0, 0), BuildingBlock: EZIPEK_clean_linker_0, # of connection points: 2
#     Edge 102, Type (0, 0), BuildingBlock: EZIPEK_clean_linker_0, # of connection points: 2
#     Edge 103, Type (0, 0), BuildingBlock: EZIPEK_clean_linker_0, # of connection points: 2
#     Edge 104, Type (0, 0), BuildingBlock: EZIPEK_clean_linker_0, # of connection points: 2
#     Edge 105, Type (0, 0), BuildingBlock: EZIPEK_clean_linker_0, # of connection points: 2
#     Edge 106, Type (0, 0), BuildingBlock: EZIPEK_clean_linker_0, # of connection points: 2
#     Edge 107, Type (0, 0), BuildingBlock: EZIPEK_clean_linker_0, # of connection points: 2
# Relax obj value: 0.147
# Max RMSD: 0.438
# Mean RMSD: 0.262
data_MOF--net-uml--node1-CEKHIL_clean_sbu_0--edge1-EZIPEK_clean_linker_0
_symmetry_space_group_name_H-M    P1
_symmetry_Int_Tables_number       1
_symmetry_cell_setting            triclinic
loop_
_symmetry_equiv_pos_as_xyz
'x, y, z'
_cell_length_a     67.710112
_cell_length_b     65.258639
_cell_length_c     20.4992
_cell_angle_alpha  90.183367
_cell_angle_beta   90.109265
_cell_angle_gamma 115.84466
loop_
_atom_site_label
_atom_site_type_symbol
_atom_site_fract_x
_atom_site_fract_y
_atom_site_fract_z
_atom_type_partial_charge
Co0 Co 0.37418 0.10986 0.20792 0.0
O1 O 0.39131 0.09347 0.19368 0.0
O2 O 0.40146 0.12953 0.16613 0.0
C3 C 0.36413 0.0986 0.31204 0.0
O4 O 0.36074 0.13234 0.21519 0.0
Co5 Co 0.32455 0.08176 0.22463 0.0
O6 O 0.32404 0.11204 0.22074 0.0
C7 C 0.34276 0.08475 0.09616 0.0
C8 C 0.40531 0.11166 0.16483 0.0
C9 C 0.34117 0.13088 0.21724 0.0
O10 O 0.36069 0.10036 0.11868 0.0
O11 O 0.32642 0.07291 0.13215 0.0
O12 O 0.38312 0.11527 0.29935 0.0
O13 O 0.35303 0.0875 0.26153 0.0
Co14 Co 0.89252 0.26916 0.17843 0.0
O15 O 0.88676 0.26853 0.27087 0.0
O16 O 0.91316 0.26167 0.22704 0.0
C17 C 0.89129 0.30265 0.15545 0.0
O18 O 0.9037 0.26919 0.08568 0.0
Co19 Co 0.85555 0.26452 0.08305 0.0
O20 O 0.87844 0.2706 0.01623 0.0
C21 C 0.85313 0.22338 0.14452 0.0
C22 C 0.90308 0.26344 0.2792 0.0
C23 C 0.89698 0.27081 0.02785 0.0
O24 O 0.87204 0.23544 0.1704 0.0
O25 O 0.84254 0.23197 0.1117 0.0
O26 O 0.90869 0.30217 0.18048 0.0
O27 O 0.87417 0.28308 0.15327 0.0
Co28 Co 0.73296 0.62832 0.17707 0.0
O29 O 0.70144 0.61416 0.17677 0.0
O30 O 0.72183 0.5982 0.13743 0.0
C31 C 0.73756 0.64142 0.28187 0.0
O32 O 0.76627 0.63829 0.16898 0.0
Co33 Co 0.75625 0.68016 0.18729 0.0
O34 O 0.7834 0.676 0.18913 0.0
C35 C 0.74094 0.65988 0.05857 0.0
C36 C 0.7024 0.59742 0.14501 0.0
C37 C 0.78385 0.65715 0.1758 0.0
O38 O 0.73259 0.64052 0.08706 0.0
O39 O 0.751 0.67861 0.08986 0.0
O40 O 0.73406 0.62065 0.26861 0.0
O41 O 0.73571 0.65294 0.23254 0.0
Co42 Co 0.09183 0.36833 0.32343 0.0
O43 O 0.07953 0.38949 0.33597 0.0
O44 O 0.11266 0.39478 0.36934 0.0
C45 C 0.08254 0.35956 0.21698 0.0
O46 O 0.10983 0.35019 0.3196 0.0
Co47 Co 0.05999 0.31803 0.30151 0.0
O48 O 0.08708 0.31333 0.29961 0.0
C49 C 0.06383 0.33698 0.43232 0.0
C50 C 0.09723 0.40158 0.36904 0.0
C51 C 0.10611 0.32927 0.3107 0.0
O52 O 0.07992 0.35478 0.41081 0.0
O53 O 0.05187 0.32028 0.39542 0.0
O54 O 0.09959 0.37806 0.23375 0.0
O55 O 0.06998 0.3486 0.26525 0.0
Co56 Co 0.63955 0.74209 0.31612 0.0
O57 O 0.63035 0.74223 0.2276 0.0
O58 O 0.66023 0.7389 0.25699 0.0
C59 C 0.60635 0.71749 0.35547 0.0
O60 O 0.65349 0.73948 0.40159 0.0
Co61 Co 0.62188 0.7623 0.42426 0.0
O62 O 0.63624 0.74868 0.48217 0.0
C63 C 0.65829 0.7937 0.3463 0.0
C64 C 0.64768 0.73989 0.2102 0.0
C65 C 0.64957 0.74112 0.46212 0.0
O66 O 0.65817 0.77641 0.31547 0.0
O67 O 0.64415 0.79202 0.38966 0.0
O68 O 0.61872 0.71028 0.32396 0.0
O69 O 0.61311 0.73941 0.35539 0.0
Co70 Co 0.26118 0.88706 0.29704 0.0
O71 O 0.29194 0.9064 0.30723 0.0
O72 O 0.27546 0.87123 0.34473 0.0
C73 C 0.25907 0.8946 0.18984 0.0
O74 O 0.22883 0.86255 0.29257 0.0
Co75 Co 0.2322 0.91174 0.2696 0.0
O76 O 0.2084 0.88062 0.26238 0.0
C77 C 0.24578 0.90986 0.40441 0.0
C78 C 0.29335 0.89023 0.34005 0.0
C79 C 0.21022 0.86258 0.27716 0.0
O80 O 0.25563 0.89824 0.38374 0.0
O81 O 0.23623 0.9182 0.36607 0.0
O82 O 0.26577 0.87962 0.20766 0.0
O83 O 0.25658 0.90648 0.23728 0.0
Co84 Co 0.64955 0.90561 0.80417 0.0
O85 O 0.64168 0.90073 0.71296 0.0
O86 O 0.67579 0.91657 0.75097 0.0
C87 C 0.62588 0.92039 0.83184 0.0
O88 O 0.66355 0.91408 0.89446 0.0
Co89 Co 0.61449 0.87874 0.90881 0.0
O90 O 0.63742 0.8983 0.97112 0.0
C91 C 0.63821 0.85639 0.84083 0.0
C92 C 0.66255 0.91001 0.70102 0.0
C93 C 0.6572 0.91067 0.95437 0.0
O94 O 0.64981 0.87494 0.81038 0.0
O95 O 0.62234 0.85385 0.8789 0.0
O96 O 0.64478 0.93281 0.80548 0.0
O97 O 0.6213 0.899 0.83479 0.0
Co98 Co 0.11952 0.73915 0.78952 0.0
O99 O 0.12891 0.7399 0.70017 0.0
O100 O 0.09808 0.74112 0.73008 0.0
C101 C 0.12628 0.7096 0.82249 0.0
O102 O 0.10365 0.73728 0.87589 0.0
Co103 Co 0.1526 0.75059 0.90268 0.0
O104 O 0.12655 0.74066 0.9592 0.0
C105 C 0.15123 0.78826 0.82935 0.0
C106 C 0.11081 0.74075 0.68309 0.0
C107 C 0.10778 0.7373 0.93736 0.0
O108 O 0.1351 0.77375 0.79553 0.0
O109 O 0.16148 0.78252 0.87253 0.0
O110 O 0.10855 0.70627 0.79065 0.0
O111 O 0.14057 0.73074 0.82738 0.0
Co112 Co 0.25216 0.38206 0.83638 0.0
O113 O 0.25598 0.38707 0.7436 0.0
O114 O 0.24238 0.35316 0.7902 0.0
C115 C 0.28602 0.40895 0.86693 0.0
O116 O 0.24625 0.37057 0.93068 0.0
Co117 Co 0.25017 0.41874 0.92268 0.0
O118 O 0.2522 0.40034 0.99632 0.0
C119 C 0.21012 0.38828 0.85478 0.0
C120 C 0.2475 0.36515 0.73688 0.0
C121 C 0.2479 0.37952 0.98789 0.0
O122 O 0.22126 0.3788 0.82904 0.0
O123 O 0.21856 0.40537 0.89335 0.0
O124 O 0.28265 0.38871 0.84799 0.0
O125 O 0.26927 0.41359 0.85984 0.0
Co126 Co 0.91523 0.66465 0.71288 0.0
O127 O 0.91441 0.65609 0.80295 0.0
O128 O 0.92065 0.69055 0.76792 0.0
C129 C 0.93641 0.64795 0.67631 0.0
O130 O 0.91813 0.68035 0.62555 0.0
Co131 Co 0.89583 0.6287 0.60204 0.0
O132 O 0.91088 0.65495 0.54374 0.0
C133 C 0.86692 0.64438 0.67437 0.0
C134 C 0.91848 0.67702 0.81655 0.0
C135 C 0.91717 0.6752 0.56471 0.0
O136 O 0.88271 0.65587 0.71384 0.0
O137 O 0.86904 0.63266 0.62701 0.0
O138 O 0.94514 0.66784 0.70421 0.0
O139 O 0.91521 0.63822 0.67691 0.0
Co140 Co 0.37288 0.27174 0.69517 0.0
O141 O 0.38261 0.27471 0.7846 0.0
O142 O 0.348 0.26297 0.75265 0.0
C143 C 0.39782 0.30576 0.65673 0.0
O144 O 0.35715 0.26645 0.60673 0.0
Co145 Co 0.40341 0.26848 0.58727 0.0
O146 O 0.38381 0.27642 0.53158 0.0
C147 C 0.37449 0.22696 0.65774 0.0
C148 C 0.36209 0.26743 0.80006 0.0
C149 C 0.36382 0.27032 0.5471 0.0
O150 O 0.36788 0.23905 0.6927 0.0
O151 O 0.38939 0.23535 0.61416 0.0
O152 O 0.38125 0.30422 0.69142 0.0
O153 O 0.4009 0.28743 0.65672 0.0
Co154 Co 0.73924 0.1198 0.66809 0.0
O155 O 0.73783 0.12495 0.76059 0.0
O156 O 0.74661 0.09882 0.71817 0.0
C157 C 0.70676 0.11973 0.63768 0.0
O158 O 0.74165 0.1091 0.57584 0.0
Co159 Co 0.74464 0.15813 0.57405 0.0
O160 O 0.74604 0.13721 0.50603 0.0
C161 C 0.78327 0.16211 0.6447 0.0
C162 C 0.74374 0.10876 0.77 0.0
C163 C 0.74462 0.11748 0.51785 0.0
O164 O 0.77168 0.14207 0.66747 0.0
O165 O 0.77519 0.1728 0.60994 0.0
O166 O 0.70754 0.10189 0.66292 0.0
O167 O 0.72515 0.13811 0.64017 0.0
Co168 Co 0.02271 0.43862 0.52978 0.0
O169 O 0.04141 0.42355 0.53918 0.0
O170 O 0.05164 0.45787 0.49794 0.0
C171 C 0.0076 0.43027 0.63091 0.0
O172 O 0.00936 0.46066 0.51303 0.0
Co173 Co 0.97311 0.41316 0.52861 0.0
O174 O 0.97286 0.44346 0.52513 0.0
C175 C 0.99711 0.40962 0.41309 0.0
C176 C 0.05676 0.44143 0.51241 0.0
C177 C 0.99064 0.46119 0.51484 0.0
O178 O 0.01434 0.42521 0.4393 0.0
O179 O 0.97866 0.40138 0.44278 0.0
O180 O 0.02653 0.44746 0.62151 0.0
O181 O 0.99895 0.41747 0.58024 0.0
Co182 Co 0.56658 0.60552 0.50407 0.0
O183 O 0.55987 0.60394 0.59578 0.0
O184 O 0.58757 0.5989 0.55358 0.0
C185 C 0.56382 0.63828 0.4828 0.0
O186 O 0.57875 0.60669 0.41202 0.0
Co187 Co 0.53024 0.60012 0.40519 0.0
O188 O 0.55436 0.60921 0.34137 0.0
C189 C 0.52905 0.55915 0.46521 0.0
C190 C 0.57668 0.59973 0.60497 0.0
C191 C 0.57282 0.60939 0.35408 0.0
O192 O 0.54725 0.57167 0.49414 0.0
O193 O 0.51851 0.56723 0.43015 0.0
O194 O 0.58147 0.63854 0.50836 0.0
O195 O 0.5474 0.61826 0.47824 0.0
Co196 Co 0.40129 0.97657 0.49603 0.0
O197 O 0.37005 0.95781 0.49481 0.0
O198 O 0.39454 0.94718 0.45567 0.0
C199 C 0.4039 0.98877 0.60167 0.0
O200 O 0.43506 0.99173 0.4889 0.0
Co201 Co 0.41762 0.02809 0.50896 0.0
O202 O 0.44701 0.02873 0.51523 0.0
C203 C 0.40461 0.00766 0.37921 0.0
C204 C 0.37397 0.94266 0.46372 0.0
C205 C 0.4507 0.01182 0.49961 0.0
O206 O 0.39936 0.98831 0.40642 0.0
O207 O 0.41185 0.02631 0.41169 0.0
O208 O 0.4034 0.96916 0.58722 0.0
O209 O 0.40019 0.9993 0.55279 0.0
Co210 Co 0.76479 0.6863 0.65522 0.0
O211 O 0.75022 0.70565 0.66097 0.0
O212 O 0.78455 0.7152 0.69232 0.0
C213 C 0.75454 0.67311 0.55215 0.0
O214 O 0.78542 0.67118 0.65701 0.0
Co215 Co 0.73749 0.63502 0.64953 0.0
O216 O 0.76582 0.63331 0.66225 0.0
C217 C 0.74109 0.65746 0.77444 0.0
C218 C 0.7679 0.72011 0.69006 0.0
C219 C 0.7841 0.65101 0.66291 0.0
O220 O 0.75492 0.67566 0.74708 0.0
O221 O 0.73058 0.63888 0.74303 0.0
O222 O 0.77103 0.69273 0.56289 0.0
O223 O 0.74296 0.6632 0.60317 0.0
Co224 Co 0.32142 0.08278 0.67895 0.0
O225 O 0.31732 0.07959 0.58709 0.0
O226 O 0.34927 0.08919 0.63634 0.0
C227 C 0.29166 0.05005 0.70392 0.0
O228 O 0.33071 0.0866 0.77447 0.0
Co229 Co 0.28721 0.09089 0.75586 0.0
O230 O 0.30034 0.08174 0.82964 0.0
C231 C 0.32194 0.12998 0.69403 0.0
C232 C 0.33814 0.08558 0.58204 0.0
C233 C 0.31981 0.08353 0.82778 0.0
O234 O 0.32948 0.1163 0.67308 0.0
O235 O 0.30414 0.12333 0.72652 0.0
O236 O 0.31044 0.05043 0.68895 0.0
O237 O 0.29055 0.06929 0.6962 0.0
Co238 Co 0.92632 0.23951 0.65175 0.0
O239 O 0.9578 0.25567 0.6548 0.0
O240 O 0.93872 0.22124 0.6953 0.0
C241 C 0.92221 0.24733 0.54593 0.0
O242 O 0.89326 0.2179 0.65746 0.0
Co243 Co 0.90019 0.26784 0.6315 0.0
O244 O 0.87463 0.23764 0.62583 0.0
C245 C 0.91647 0.26525 0.76274 0.0
C246 C 0.95768 0.23876 0.68796 0.0
C247 C 0.87515 0.21925 0.64432 0.0
O248 O 0.92475 0.25252 0.7394 0.0
O249 O 0.90683 0.27434 0.72746 0.0
O250 O 0.92697 0.23063 0.56072 0.0
O251 O 0.92246 0.26012 0.59464 0.0
Co252 Co 0.31206 0.24335 0.16019 0.0
O253 O 0.30849 0.23909 0.06743 0.0
O254 O 0.34039 0.25803 0.11816 0.0
C255 C 0.28478 0.25405 0.17617 0.0
O256 O 0.32135 0.25147 0.25459 0.0
Co257 Co 0.27376 0.21144 0.24918 0.0
O258 O 0.29253 0.23131 0.31968 0.0
C259 C 0.30523 0.19544 0.19796 0.0
C260 C 0.32956 0.25095 0.06373 0.0
C261 C 0.31234 0.24586 0.3111 0.0
O262 O 0.31604 0.21477 0.17037 0.0
O263 O 0.28687 0.18991 0.22691 0.0
O264 O 0.30409 0.26832 0.15639 0.0
O265 O 0.28205 0.23316 0.17858 0.0
Co266 Co 0.77167 0.08179 0.13402 0.0
O267 O 0.77541 0.07932 0.04125 0.0
O268 O 0.75344 0.09259 0.08547 0.0
C269 C 0.76737 0.04695 0.16656 0.0
O270 O 0.76358 0.08618 0.22738 0.0
Co271 Co 0.80845 0.08239 0.22607 0.0
O272 O 0.79005 0.08657 0.29473 0.0
C273 C 0.81479 0.12474 0.16216 0.0
C274 C 0.76152 0.08789 0.03309 0.0
C275 C 0.77201 0.08781 0.28485 0.0
O276 O 0.79581 0.11405 0.13539 0.0
O277 O 0.82373 0.115 0.1976 0.0
O278 O 0.75133 0.04948 0.1389 0.0
O279 O 0.78632 0.06449 0.16224 0.0
Co280 Co 0.91883 0.71668 0.1947 0.0
O281 O 0.91619 0.72214 0.09968 0.0
O282 O 0.92765 0.69813 0.13292 0.0
C283 C 0.9583 0.7322 0.19325 0.0
O284 O 0.92222 0.70744 0.28508 0.0
Co285 Co 0.91453 0.73286 0.21055 0.0
O286 O 0.91615 0.73609 0.3089 0.0
C287 C 0.87561 0.69498 0.18487 0.0
C288 C 0.92189 0.70659 0.084 0.0
C289 C 0.92011 0.72 0.32865 0.0
O290 O 0.89054 0.68846 0.19157 0.0
O291 O 0.882 0.71633 0.18599 0.0
O292 O 0.94552 0.71092 0.18561 0.0
O293 O 0.94789 0.74433 0.19849 0.0
Co294 Co 0.56812 0.98367 0.03467 0.0
O295 O 0.56653 0.97702 0.12702 0.0
O296 O 0.5771 0.01145 0.08562 0.0
C297 C 0.58573 0.96304 0.00142 0.0
O298 O 0.57233 0.99701 0.94155 0.0
Co299 Co 0.54336 0.94507 0.93388 0.0
O300 O 0.55923 0.96827 0.86795 0.0
C301 C 0.52013 0.96926 -0.00314 0.0
C302 C 0.57354 0.99871 0.13707 0.0
C303 C 0.56901 0.98934 0.8821 0.0
O304 O 0.53673 0.97961 0.03475 0.0
O305 O 0.51976 0.95502 0.95322 0.0
O306 O 0.59643 0.98263 0.02963 0.0
O307 O 0.56457 0.95505 0.00433 0.0
Co308 Co 0.0584 0.60518 -0.00113 0.0
O309 O 0.06697 0.60553 0.08924 0.0
O310 O 0.03623 0.60649 0.05631 0.0
C311 C 0.09092 0.63193 0.96114 0.0
O312 O 0.04426 0.60585 0.91079 0.0
Co313 Co 0.07938 0.58791 0.89209 0.0
O314 O 0.06261 0.5978 0.8309 0.0
C315 C 0.04594 0.55442 0.97426 0.0
C316 C 0.04868 0.60626 0.10442 0.0
C317 C 0.04789 0.60358 0.85004 0.0
O318 O 0.04269 0.57068 8e-05 0.0
O319 O 0.06116 0.55767 0.93314 0.0
O320 O 0.0772 0.63764 0.99124 0.0
O321 O 0.08584 0.61033 0.96159 0.0
Co322 Co 0.41005 0.45555 0.98785 0.0
O323 O 0.40581 0.45818 0.08013 0.0
O324 O 0.42193 0.43816 0.03738 0.0
C325 C 0.37541 0.44855 0.95455 0.0
O326 O 0.41755 0.4491 0.8957 0.0
Co327 Co 0.4079 0.49125 0.894 0.0
O328 O 0.4093 0.47059 0.82529 0.0
C329 C 0.44939 0.50161 0.96301 0.0
C330 C 0.41591 0.44549 0.08923 0.0
C331 C 0.41595 0.45548 0.83726 0.0
O332 O 0.43986 0.48245 0.99244 0.0
O333 O 0.43941 0.50901 0.92325 0.0
O334 O 0.37974 0.43239 0.97713 0.0
O335 O 0.39141 0.46885 0.95947 0.0
Co336 Co 0.69164 0.75755 0.84655 0.0
O337 O 0.70974 0.74169 0.84734 0.0
O338 O 0.72099 0.77784 0.82019 0.0
C339 C 0.6751 0.74534 0.9434 0.0
O340 O 0.67841 0.78029 0.84109 0.0
Co341 Co 0.64163 0.73159 0.83749 0.0
O342 O 0.64182 0.76188 0.82782 0.0
C343 C 0.66709 0.73691 0.71926 0.0
C344 C 0.72537 0.76043 0.82556 0.0
C345 C 0.65949 0.78009 0.83282 0.0
O346 O 0.68441 0.74855 0.75261 0.0
O347 O 0.64804 0.72722 0.74473 0.0
O348 O 0.69458 0.76217 0.94016 0.0
O349 O 0.66707 0.73463 0.88915 0.0
Co350 Co 0.23429 0.92399 0.82627 0.0
O351 O 0.23292 0.92574 0.91977 0.0
O352 O 0.25041 0.90895 0.86725 0.0
C353 C 0.24358 0.96081 0.80252 0.0
O354 O 0.23858 0.91993 0.72837 0.0
Co355 Co 0.19765 0.93068 0.75237 0.0
O356 O 0.21277 0.92662 0.67464 0.0
C357 C 0.18727 0.88596 0.80634 0.0
C358 C 0.24467 0.91456 0.92272 0.0
C359 C 0.22928 0.92211 0.67511 0.0
O360 O 0.20727 0.89392 0.8256 0.0
O361 O 0.17916 0.89817 0.7789 0.0
O362 O 0.25812 0.9545 0.82343 0.0
O363 O 0.22333 0.94555 0.80852 0.0
Co364 Co 0.06679 0.31791 0.84003 0.0
O365 O 0.03551 0.29991 0.84151 0.0
O366 O 0.05917 0.28739 0.80664 0.0
C367 C 0.07074 0.33335 0.9419 0.0
O368 O 0.10051 0.33206 0.83225 0.0
Co369 Co 0.08336 0.36903 0.83581 0.0
O370 O 0.11293 0.37018 0.83079 0.0
C371 C 0.06771 0.34458 0.71424 0.0
C372 C 0.03879 0.28384 0.81347 0.0
C373 C 0.11627 0.35245 0.82975 0.0
O374 O 0.06414 0.3267 0.74727 0.0
O375 O 0.0748 0.36425 0.74077 0.0
O376 O 0.06955 0.31317 0.93269 0.0
O377 O 0.06646 0.34253 0.8907 0.0
Co378 Co 0.4326 0.03194 0.9765 0.0
O379 O 0.42156 0.05437 0.98213 0.0
O380 O 0.45479 0.05961 0.0138 0.0
C381 C 0.42141 0.01964 0.87307 0.0
O382 O 0.4498 0.01298 0.97812 0.0
Co383 Co 0.4001 0.98202 0.97078 0.0
O384 O 0.42624 0.97602 0.98326 0.0
C385 C 0.40586 0.00525 0.09506 0.0
C386 C 0.4399 0.06713 0.01143 0.0
C387 C 0.44573 0.99187 0.98372 0.0
O388 O 0.42181 0.02204 0.06839 0.0
O389 O 0.39324 0.98751 0.06301 0.0
O390 O 0.43938 0.0379 0.88423 0.0
O391 O 0.40925 0.01083 0.924 0.0
Co392 Co 0.96864 0.41233 0.00768 0.0
O393 O 0.96066 0.41415 0.91804 0.0
O394 O 0.99089 0.41171 0.94846 0.0
C395 C 0.93563 0.38546 0.04211 0.0
O396 O 0.98166 0.40928 0.0958 0.0
Co397 Co 0.94744 0.42938 0.1144 0.0
O398 O 0.96294 0.41756 0.17433 0.0
C399 C 0.98215 0.46311 0.03756 0.0
C400 C 0.97886 0.41357 0.9013 0.0
C401 C 0.97712 0.41087 0.15625 0.0
O402 O 0.98518 0.44675 0.0116 0.0
O403 O 0.9666 0.45997 0.07723 0.0
O404 O 0.94918 0.3799 0.01041 0.0
O405 O 0.94108 0.40714 0.04422 0.0
Co406 Co 0.59329 0.57201 0.97862 0.0
O407 O 0.62472 0.5838 0.98242 0.0
O408 O 0.60158 0.5505 0.02245 0.0
C409 C 0.5911 0.58091 0.87286 0.0
O410 O 0.55955 0.55436 0.98347 0.0
Co411 Co 0.57287 0.60548 0.95741 0.0
O412 O 0.54494 0.57754 0.94931 0.0
C413 C 0.58817 0.60128 0.08859 0.0
C414 C 0.62178 0.56579 0.01544 0.0
C415 C 0.54288 0.55813 0.96824 0.0
O416 O 0.59385 0.58637 0.06568 0.0
O417 O 0.58023 0.612 0.053 0.0
O418 O 0.59278 0.56241 0.8881 0.0
O419 O 0.593 0.59447 0.92126 0.0
Co420 Co 0.99884 0.59524 0.46541 0.0
O421 O 0.99581 0.59463 0.37181 0.0
O422 O 0.02729 0.60443 0.42422 0.0
C423 C 0.97763 0.61353 0.48713 0.0
O424 O 0.00774 0.59815 0.56196 0.0
Co425 Co 0.95716 0.56925 0.5505 0.0
O426 O 0.97693 0.58751 0.62178 0.0
C427 C 0.9799 0.54408 0.49172 0.0
C428 C 0.01681 0.60124 0.36896 0.0
C429 C 0.99775 0.59582 0.61706 0.0
O430 O 0.99425 0.56252 0.46597 0.0
O431 O 0.96331 0.54291 0.52417 0.0
O432 O 0.99805 0.62479 0.47026 0.0
O433 O 0.97051 0.59171 0.48335 0.0
Co434 Co 0.44563 0.42154 0.45414 0.0
O435 O 0.44958 0.41833 0.36197 0.0
O436 O 0.4301 0.43501 0.40377 0.0
C437 C 0.43672 0.38565 0.48798 0.0
O438 O 0.43805 0.42746 0.54673 0.0
Co439 Co 0.47964 0.41716 0.54904 0.0
O440 O 0.46051 0.42075 0.6165 0.0
C441 C 0.49094 0.4608 0.48447 0.0
C442 C 0.43724 0.42867 0.3523 0.0
C443 C 0.44483 0.42606 0.60482 0.0
O444 O 0.47193 0.4521 0.45733 0.0
O445 O 0.49828 0.44922 0.51865 0.0
O446 O 0.42268 0.39058 0.45689 0.0
O447 O 0.45681 0.40138 0.48501 0.0
Co448 Co 0.58949 0.05106 0.50233 0.0
O449 O 0.59291 0.05729 0.40979 0.0
O450 O 0.58332 0.02332 0.45338 0.0
C451 C 0.62108 0.08058 0.53732 0.0
O452 O 0.58466 0.03848 0.59546 0.0
Co453 Co 0.58176 0.08477 0.59095 0.0
O454 O 0.58064 0.06393 0.66207 0.0
C455 C 0.54441 0.05152 0.5184 0.0
C456 C 0.58709 0.03574 0.40112 0.0
C457 C 0.58171 0.0452 0.65241 0.0
O458 O 0.55729 0.04358 0.49557 0.0
O459 O 0.55105 0.06916 0.55506 0.0
O460 O 0.621 0.06202 0.51419 0.0
O461 O 0.60275 0.08224 0.5301 0.0
Co462 Co 0.22475 0.31608 0.36839 0.0
O463 O 0.2209 0.30899 0.46038 0.0
O464 O 0.23482 0.34388 0.41995 0.0
C465 C 0.24086 0.2937 0.33861 0.0
O466 O 0.23144 0.32939 0.27602 0.0
Co467 Co 0.19877 0.27697 0.26847 0.0
O468 O 0.21398 0.30103 0.20324 0.0
C469 C 0.17659 0.30189 0.33038 0.0
C470 C 0.22961 0.33077 0.47097 0.0
C471 C 0.22634 0.32181 0.21695 0.0
O472 O 0.1944 0.31485 0.36072 0.0
O473 O 0.1744 0.28456 0.29629 0.0
O474 O 0.25209 0.31278 0.36881 0.0
O475 O 0.21985 0.28698 0.33896 0.0
Co476 Co 0.71179 0.92846 0.33664 0.0
O477 O 0.71644 0.93011 0.42977 0.0
O478 O 0.68384 0.91693 0.38214 0.0
C479 C 0.7373 0.96432 0.3137 0.0
O480 O 0.7012 0.92517 0.24175 0.0
Co481 Co 0.7484 0.92997 0.24636 0.0
O482 O 0.73144 0.93738 0.17929 0.0
C483 C 0.7198 0.88641 0.30624 0.0
C484 C 0.69532 0.92163 0.43583 0.0
C485 C 0.71094 0.93113 0.18616 0.0
O486 O 0.70955 0.8966 0.33396 0.0
O487 O 0.73689 0.89682 0.27118 0.0
O488 O 0.7178 0.96013 0.33424 0.0
O489 O 0.7417 0.94681 0.31467 0.0
Co490 Co 0.07843 0.75612 0.31632 0.0
O491 O 0.07945 0.76145 0.4089 0.0
O492 O 0.08985 0.73725 0.36106 0.0
C493 C 0.04416 0.7523 0.29583 0.0
O494 O 0.07864 0.74647 0.22102 0.0
Co495 Co 0.07604 0.79363 0.22796 0.0
O496 O 0.06893 0.76942 0.16124 0.0
C497 C 0.11877 0.80081 0.2816 0.0
C498 C 0.08733 0.74668 0.41456 0.0
C499 C 0.07241 0.7518 0.16654 0.0
O500 O 0.10962 0.78079 0.3067 0.0
O501 O 0.108 0.8099 0.25163 0.0
O502 O 0.04706 0.73556 0.32075 0.0
O503 O 0.06154 0.7716 0.2956 0.0
C504 C 0.33927 0.10142 0.47253 0.0
C505 C 0.34809 0.09078 0.51608 0.0
C506 C 0.36862 0.08512 0.42455 0.0
C507 C 0.35672 0.09249 0.38063 0.0
N508 N 0.32426 0.09833 0.3656 0.0
N509 N 0.36944 0.06965 0.5318 0.0
C510 C 0.34016 0.09794 0.40528 0.0
C511 C 0.3625 0.08193 0.49193 0.0
N512 N 0.33004 0.11495 0.49517 0.0
N513 N 0.38535 0.08076 0.40181 0.0
H514 H 0.36523 0.06695 0.58094 0.0
H515 H 0.37807 0.06082 0.51501 0.0
H516 H 0.38911 0.08131 0.3523 0.0
H517 H 0.39603 0.07761 0.43234 0.0
H518 H 0.32459 0.12406 0.46408 0.0
H519 H 0.33034 0.11918 0.54439 0.0
H520 H 0.31104 0.10096 0.38282 0.0
H521 H 0.3225 0.09226 0.31835 0.0
C522 C 0.92891 0.27369 0.44935 0.0
C523 C 0.91758 0.25166 0.47719 0.0
C524 C 0.90009 0.23691 0.37084 0.0
C525 C 0.90934 0.25932 0.34568 0.0
N526 N 0.93038 0.29966 0.3629 0.0
N527 N 0.8891 0.21323 0.46691 0.0
C528 C 0.92307 0.27791 0.3856 0.0
C529 C 0.90235 0.23347 0.43845 0.0
N530 N 0.94609 0.29027 0.48206 0.0
N531 N 0.88924 0.21883 0.33001 0.0
H532 H 0.88962 0.21034 0.51657 0.0
H533 H 0.87608 0.20021 0.44284 0.0
H534 H 0.88715 0.22073 0.28034 0.0
H535 H 0.88406 0.20194 0.34405 0.0
H536 H 0.95636 0.30586 0.4614 0.0
H537 H 0.95158 0.2877 0.52745 0.0
H538 H 0.93821 0.31399 0.3924 0.0
H539 H 0.92725 0.30337 0.3156 0.0
C540 C 0.76407 0.65745 0.45106 0.0
C541 C 0.74916 0.66373 0.48434 0.0
C542 C 0.72612 0.65494 0.38516 0.0
C543 C 0.74193 0.65031 0.35058 0.0
N544 N 0.77729 0.6499 0.34855 0.0
N545 N 0.71753 0.67155 0.48102 0.0
C546 C 0.76121 0.65223 0.38321 0.0
C547 C 0.73054 0.66324 0.45088 0.0
N548 N 0.78076 0.65584 0.48486 0.0
N549 N 0.70646 0.65051 0.35615 0.0
H550 H 0.72001 0.67739 0.52915 0.0
H551 H 0.70528 0.67422 0.45711 0.0
H552 H 0.7027 0.64463 0.30826 0.0
H553 H 0.69325 0.65098 0.38088 0.0
H554 H 0.79047 0.64852 0.46607 0.0
H555 H 0.78388 0.66023 0.53385 0.0
H556 H 0.79294 0.65395 0.36663 0.0
H557 H 0.77551 0.6456 0.29947 0.0
C558 C 0.09426 0.35422 0.03761 0.0
C559 C 0.07307 0.34276 0.00984 0.0
C560 C 0.05727 0.3438 0.11751 0.0
C561 C 0.07853 0.35223 0.14665 0.0
N562 N 0.11671 0.35997 0.13347 0.0
N563 N 0.03393 0.32397 0.02555 0.0
C564 C 0.09686 0.35589 0.10638 0.0
C565 C 0.05441 0.33671 0.05053 0.0
N566 N 0.11204 0.3642 -0.00182 0.0
N567 N 0.04 0.34369 0.15211 0.0
H568 H 0.03118 0.31941 0.97635 0.0
H569 H 0.01993 0.31675 0.05442 0.0
H570 H 0.04142 0.34968 0.19983 0.0
H571 H 0.02474 0.33984 0.13122 0.0
H572 H 0.12777 0.3746 0.01541 0.0
H573 H 0.11033 0.36434 0.948 0.0
H574 H 0.12988 0.3605 0.10608 0.0
H575 H 0.11929 0.3599 0.18355 0.0
C576 C 0.66347 0.72517 0.11903 0.0
C577 C 0.65291 0.73877 0.14002 0.0
C578 C 0.64895 0.74688 0.02593 0.0
C579 C 0.66394 0.73836 0.00716 0.0
N580 N 0.68649 0.71972 0.03674 0.0
N581 N 0.64037 0.76722 0.11002 0.0
C582 C 0.67158 0.7276 0.05407 0.0
C583 C 0.64681 0.75085 0.09258 0.0
N584 N 0.6647 0.70911 0.15922 0.0
N585 N 0.63642 0.75081 0.98037 0.0
H586 H 0.64083 0.77281 0.15772 0.0
H587 H 0.63745 0.77739 0.07584 0.0
H588 H 0.63609 0.74541 0.9326 0.0
H589 H 0.62426 0.75593 0.99215 0.0
H590 H 0.67075 0.69769 0.14395 0.0
H591 H 0.65716 0.70519 0.20471 0.0
H592 H 0.69438 0.71394 0.07065 0.0
H593 H 0.69174 0.7201 0.9887 0.0
C594 C 0.24532 0.88119 0.07479 0.0
C595 C 0.25701 0.89936 0.11935 0.0
C596 C 0.26308 0.92714 0.03177 0.0
C597 C 0.25118 0.90909 0.98753 0.0
N598 N 0.23401 0.86892 0.96302 0.0
N599 N 0.28278 0.93873 0.13432 0.0
C600 C 0.24348 0.8861 0.00771 0.0
C601 C 0.26745 0.92211 0.09624 0.0
N602 N 0.23498 0.85931 0.0971 0.0
N603 N 0.2703 0.94923 0.0121 0.0
H604 H 0.28754 0.93558 0.18013 0.0
H605 H 0.29262 0.95513 0.11794 0.0
H606 H 0.26962 0.95381 0.96374 0.0
H607 H 0.27611 0.96303 0.04421 0.0
H608 H 0.22429 0.84559 0.06925 0.0
H609 H 0.2353 0.85481 0.1456 0.0
H610 H 0.23048 0.852 0.97197 0.0
H611 H 0.23087 0.87164 0.91486 0.0
C612 C 0.67913 0.89792 0.60789 0.0
C613 C 0.6707 0.91278 0.6329 0.0
C614 C 0.67507 0.93094 0.52542 0.0
C615 C 0.68517 0.91733 0.50183 0.0
N616 N 0.69794 0.88866 0.52035 0.0
N617 N 0.66235 0.94479 0.61905 0.0
C618 C 0.68752 0.90105 0.54313 0.0
C619 C 0.66897 0.92956 0.59245 0.0
N620 N 0.67831 0.88023 0.6453 0.0
N621 N 0.67141 0.94527 0.48375 0.0
H622 H 0.65769 0.94423 0.66774 0.0
H623 H 0.6629 0.95899 0.59467 0.0
H624 H 0.67665 0.94763 0.4354 0.0
H625 H 0.66199 0.95378 0.49547 0.0
H626 H 0.68174 0.86715 0.62784 0.0
H627 H 0.67266 0.87766 0.69327 0.0
H628 H 0.70286 0.87876 0.54981 0.0
H629 H 0.70257 0.88907 0.47177 0.0
C630 C 0.07776 0.72756 0.52392 0.0
C631 C 0.09391 0.74197 0.47979 0.0
C632 C 0.12061 0.7564 0.56907 0.0
C633 C 0.10495 0.74098 0.6129 0.0
N634 N 0.07031 0.70791 0.62765 0.0
N635 N 0.13195 0.76574 0.45669 0.0
C636 C 0.08395 0.72541 0.58914 0.0
C637 C 0.11578 0.75487 0.50121 0.0
N638 N 0.05644 0.71615 0.50377 0.0
N639 N 0.13952 0.77353 0.5925 0.0
H640 H 0.12891 0.76491 0.40661 0.0
H641 H 0.14856 0.77366 0.46885 0.0
H642 H 0.14311 0.77614 0.64208 0.0
H643 H 0.15045 0.78664 0.5635 0.0
H644 H 0.04346 0.70759 0.53556 0.0
H645 H 0.05157 0.71636 0.45554 0.0
H646 H 0.05572 0.69484 0.61081 0.0
H647 H 0.07456 0.7051 0.67454 0.0
C648 C 0.25618 0.34938 0.56304 0.0
C649 C 0.23433 0.34 0.53871 0.0
C650 C 0.22088 0.34377 0.64741 0.0
C651 C 0.24288 0.35471 0.67053 0.0
N652 N 0.28171 0.36986 0.64989 0.0
N653 N 0.19629 0.33127 0.55386 0.0
C654 C 0.2606 0.35811 0.62807 0.0
C655 C 0.21677 0.33789 0.58001 0.0
N656 N 0.2726 0.34915 0.52472 0.0
N657 N 0.20389 0.33909 0.68978 0.0
H658 H 0.19295 0.32738 0.50451 0.0
H659 H 0.1831 0.33153 0.57917 0.0
H660 H 0.20614 0.34398 0.73869 0.0
H661 H 0.18752 0.32897 0.6779 0.0
H662 H 0.28838 0.35323 0.54166 0.0
H663 H 0.27011 0.34335 0.47658 0.0
H664 H 0.29536 0.37554 0.61955 0.0
H665 H 0.28562 0.37498 0.69835 0.0
C666 C 0.93868 0.70366 0.90836 0.0
C667 C 0.91962 0.68482 0.88491 0.0
C668 C 0.90366 0.67866 0.9942 0.0
C669 C 0.92162 0.69883 0.01609 0.0
N670 N 0.95511 0.7322 0.9932 0.0
N671 N 0.882 0.65754 0.90184 0.0
C672 C 0.93878 0.7119 0.97282 0.0
C673 C 0.90157 0.67313 0.92684 0.0
N674 N 0.957 0.71299 0.87024 0.0
N675 N 0.88869 0.66455 0.03776 0.0
H676 H 0.87949 0.65348 0.85234 0.0
H677 H 0.8676 0.65038 0.92899 0.0
H678 H 0.88955 0.66797 0.08753 0.0
H679 H 0.87662 0.64845 0.02542 0.0
H680 H 0.97211 0.72516 0.88704 0.0
H681 H 0.95771 0.70713 0.82332 0.0
H682 H 0.96673 0.74371 0.96192 0.0
H683 H 0.9562 0.73827 0.04087 0.0
C684 C 0.35122 0.24458 0.97373 0.0
C685 C 0.34026 0.25702 -0.00072 0.0
C686 C 0.34624 0.27829 0.89694 0.0
C687 C 0.35508 0.26419 0.86909 0.0
N688 N 0.36411 0.23237 0.87747 0.0
N689 N 0.32586 0.28466 0.98552 0.0
C690 C 0.35728 0.24704 0.90671 0.0
C691 C 0.33739 0.27362 0.96098 0.0
N692 N 0.35576 0.2304 0.01359 0.0
N693 N 0.34706 0.29666 0.863 0.0
H694 H 0.32035 0.28282 0.03359 0.0
H695 H 0.32072 0.29473 0.95751 0.0
H696 H 0.35346 0.30063 0.81601 0.0
H697 H 0.3431 0.30906 0.88306 0.0
H698 H 0.3656 0.22252 2e-05 0.0
H699 H 0.35102 0.22778 0.06241 0.0
H700 H 0.36376 0.21795 0.90002 0.0
H701 H 0.36862 0.23357 0.82852 0.0
C702 C 0.73615 0.08083 0.86262 0.0
C703 C 0.7483 0.10304 0.83707 0.0
C704 C 0.76703 0.11578 0.94283 0.0
C705 C 0.75619 0.09318 0.96663 0.0
N706 N 0.73249 0.05349 0.94749 0.0
N707 N 0.7784 0.14043 0.84843 0.0
C708 C 0.74139 0.07547 0.92589 0.0
C709 C 0.76453 0.12023 0.87611 0.0
N710 N 0.71895 0.06516 0.82766 0.0
N711 N 0.7797 0.13306 0.98407 0.0
H712 H 0.7776 0.14407 0.79932 0.0
H713 H 0.79206 0.15271 0.87216 0.0
H714 H 0.78251 0.13044 0.03266 0.0
H715 H 0.78605 0.15022 0.97174 0.0
H716 H 0.70794 0.04952 0.84631 0.0
H717 H 0.71455 0.06849 0.78152 0.0
H718 H 0.72364 0.03949 0.91771 0.0
H719 H 0.73515 0.04907 0.99446 0.0
C720 C 0.99081 0.40086 0.79736 0.0
C721 C 0.98633 0.41728 0.83195 0.0
C722 C 0.99131 0.43906 0.73093 0.0
C723 C 0.99832 0.42428 0.69805 0.0
N724 N 0.00752 0.39251 0.7024 0.0
N725 N 0.98726 0.45468 0.83417 0.0
C726 C 0.99877 0.40548 0.73186 0.0
C727 C 0.98793 0.43711 0.79936 0.0
N728 N 0.98674 0.38057 0.82615 0.0
N729 N 0.98704 0.45449 0.69632 0.0
H730 H 0.98574 0.45436 0.88472 0.0
H731 H 0.99066 0.47048 0.81389 0.0
H732 H 0.98814 0.45536 0.64579 0.0
H733 H 0.97993 0.46434 0.71659 0.0
H734 H 0.98741 0.36696 0.80119 0.0
H735 H 0.9809 0.37663 0.87372 0.0
H736 H 0.01059 0.38023 0.72689 0.0
H737 H 0.01325 0.39516 0.65452 0.0
C738 C 0.57039 0.57268 0.69694 0.0
C739 C 0.58215 0.59481 0.67134 0.0
C740 C 0.60166 0.60752 0.7757 0.0
C741 C 0.5878 0.58612 0.80385 0.0
N742 N 0.55582 0.55004 0.7933 0.0
N743 N 0.60714 0.63428 0.68769 0.0
C744 C 0.57137 0.56911 0.76489 0.0
C745 C 0.59726 0.61255 0.71114 0.0
N746 N 0.55847 0.55495 0.65614 0.0
N747 N 0.61969 0.62256 0.80901 0.0
H748 H 0.60491 0.63839 0.63994 0.0
H749 H 0.6163 0.64837 0.71683 0.0
H750 H 0.62407 0.61924 0.85514 0.0
H751 H 0.63153 0.63737 0.78833 0.0
H752 H 0.55124 0.53801 0.67105 0.0
H753 H 0.55768 0.55694 0.60591 0.0
H754 H 0.54213 0.53819 0.76854 0.0
H755 H 0.55527 0.54743 0.84331 0.0
C756 C 0.43001 0.0035 0.77153 0.0
C757 C 0.41558 0.01036 0.80516 0.0
C758 C 0.39275 0.00263 0.70561 0.0
C759 C 0.40832 0.99773 0.67054 0.0
N760 N 0.44379 0.99744 0.66845 0.0
N761 N 0.38486 0.0197 0.80176 0.0
C762 C 0.42744 0.99919 0.70327 0.0
C763 C 0.39734 0.01075 0.77158 0.0
N764 N 0.44594 1.00042 0.80526 0.0
N765 N 0.37313 0.99859 0.67705 0.0
H766 H 0.38752 0.02552 0.8499 0.0
H767 H 0.37297 0.02296 0.77773 0.0
H768 H 0.36914 0.99264 0.62931 0.0
H769 H 0.36013 0.99935 0.70223 0.0
H770 H 0.45511 0.99262 0.78549 0.0
H771 H 0.44868 0.00376 0.85489 0.0
H772 H 0.45929 1.00121 0.68735 0.0
H773 H 0.44255 0.99433 0.61869 0.0
C774 C 0.56627 0.02614 0.29486 0.0
C775 C 0.58342 0.02571 0.33415 0.0
C776 C 0.59344 0.00659 0.24531 0.0
C777 C 0.5772 0.00836 0.20457 0.0
N778 N 0.54932 0.02147 0.18796 0.0
N779 N 0.61511 0.0183 0.34508 0.0
C780 C 0.56405 0.01875 0.22855 0.0
C781 C 0.59739 0.01652 0.30907 0.0
N782 N 0.55138 0.03258 0.32199 0.0
N783 N 0.60517 0.99546 0.22294 0.0
H784 H 0.61843 0.02533 0.39188 0.0
H785 H 0.62744 0.01438 0.32725 0.0
H786 H 0.60413 0.98961 0.17508 0.0
H787 H 0.61516 0.99096 0.25245 0.0
H788 H 0.53704 0.03084 0.29882 0.0
H789 H 0.55234 0.03803 0.37019 0.0
H790 H 0.54135 0.03152 0.19924 0.0
H791 H 0.54584 0.01466 0.14101 0.0
C792 C 0.03304 0.58679 0.28042 0.0
C793 C 0.0278 0.6042 0.30461 0.0
C794 C 0.03905 0.6245 0.20019 0.0
C795 C 0.04191 0.60583 0.17375 0.0
N796 N 0.03846 0.56766 0.18541 0.0
N797 N 0.02424 0.63895 0.2873 0.0
C798 C 0.03828 0.58665 0.2132 0.0
C799 C 0.03039 0.62289 0.26438 0.0
N800 N 0.03283 0.57026 0.32161 0.0
N801 N 0.04535 0.64406 0.16478 0.0
H802 H 0.01909 0.63907 0.33519 0.0
H803 H 0.02314 0.65145 0.25817 0.0
H804 H 0.0519 0.64588 0.11796 0.0
H805 H 0.04582 0.65911 0.18351 0.0
H806 H 0.03875 0.55851 0.30882 0.0
H807 H 0.0284 0.56938 0.37057 0.0
H808 H 0.03356 0.55221 0.20951 0.0
H809 H 0.04156 0.56666 0.13606 0.0
C810 C 0.43635 0.45941 0.195 0.0
C811 C 0.42158 0.44098 0.15616 0.0
C812 C 0.41807 0.4143 0.24472 0.0
C813 C 0.43158 0.43294 0.28515 0.0
N814 N 0.45211 0.47342 0.30182 0.0
N815 N 0.39612 0.40142 0.14589 0.0
C816 C 0.44019 0.45557 0.26123 0.0
C817 C 0.41194 0.41853 0.18136 0.0
N818 N 0.44756 0.48042 0.16754 0.0
N819 N 0.41108 0.39252 0.26696 0.0
H820 H 0.39126 0.40387 0.09938 0.0
H821 H 0.38659 0.3852 0.16404 0.0
H822 H 0.41383 0.3887 0.31448 0.0
H823 H 0.40358 0.37814 0.23747 0.0
H824 H 0.46039 0.49395 0.1905 0.0
H825 H 0.44534 0.48396 0.1193 0.0
H826 H 0.45654 0.49037 0.29023 0.0
H827 H 0.45657 0.47133 0.34916 0.0
C828 C 0.32408 0.17361 0.14689 0.0
C829 C 0.31615 0.18012 0.20362 0.0
C830 C 0.33031 0.15858 0.2719 0.0
C831 C 0.33763 0.1517 0.21504 0.0
N832 N 0.3482 0.1584 0.10247 0.0
N833 N 0.31668 0.1836 0.32146 0.0
C834 C 0.33673 0.16115 0.15376 0.0
C835 C 0.32066 0.17397 0.26667 0.0
N836 N 0.31853 0.17822 0.08638 0.0
N837 N 0.33267 0.15027 0.33098 0.0
H838 H 0.30995 0.19521 0.32044 0.0
H839 H 0.32178 0.18172 0.36805 0.0
H840 H 0.34228 0.14153 0.33676 0.0
H841 H 0.32494 0.15169 0.37345 0.0
H842 H 0.32197 0.1719 0.04336 0.0
H843 H 0.30873 0.18668 0.07922 0.0
H844 H 0.34988 0.16659 0.05789 0.0
H845 H 0.3578 0.14957 0.10679 0.0
C846 C 0.8261 0.16317 0.214 0.0
C847 C 0.82554 0.15001 0.15791 0.0
C848 C 0.84202 0.18489 0.09235 0.0
C849 C 0.84375 0.19813 0.14938 0.0
N850 N 0.83976 0.20036 0.26569 0.0
N851 N 0.83488 0.14794 0.04575 0.0
C852 C 0.8366 0.18739 0.21063 0.0
C853 C 0.83395 0.16078 0.09752 0.0
N854 N 0.81547 0.15247 0.26957 0.0
N855 N 0.84805 0.1954 0.03316 0.0
H856 H 0.829 0.13029 0.04796 0.0
H857 H 0.84279 0.15472 0.00207 0.0
H858 H 0.85546 0.21304 0.02768 0.0
H859 H 0.8448 0.18677 0.98876 0.0
H860 H 0.81292 0.16093 0.30944 0.0
H861 H 0.80753 0.13483 0.27428 0.0
H862 H 0.8376 0.19378 0.31274 0.0
H863 H 0.84594 0.21805 0.26486 0.0
C864 C 0.84205 0.68224 0.11519 0.0
C865 C 0.85224 0.67912 0.17226 0.0
C866 C 0.81636 0.65083 0.21048 0.0
C867 C 0.80605 0.65858 0.16298 0.0
N868 N 0.80869 0.67996 0.06518 0.0
N869 N 0.84925 0.65982 0.27471 0.0
C870 C 0.81882 0.67343 0.11297 0.0
C871 C 0.83952 0.6628 0.21944 0.0
N872 N 0.85465 0.69353 0.06319 0.0
N873 N 0.80402 0.63212 0.2467 0.0
H874 H 0.86611 0.66821 0.28306 0.0
H875 H 0.84042 0.65014 0.31413 0.0
H876 H 0.78723 0.6227 0.23841 0.0
H877 H 0.81072 0.62461 0.27921 0.0
H878 H 0.8482 0.69467 0.01796 0.0
H879 H 0.87171 0.69981 0.0634 0.0
H880 H 0.81705 0.6929 0.03202 0.0
H881 H 0.79166 0.67296 0.06062 0.0
C882 C 0.13341 0.318 0.25894 0.0
C883 C 0.1246 0.32302 0.31605 0.0
C884 C 0.14827 0.31182 0.3836 0.0
C885 C 0.15867 0.30917 0.32639 0.0
N886 N 0.16449 0.31508 0.21007 0.0
N887 N 0.12534 0.32759 0.43309 0.0
C888 C 0.15218 0.31375 0.26412 0.0
C889 C 0.13266 0.32095 0.37857 0.0
N890 N 0.12363 0.3168 0.19975 0.0
N891 N 0.15241 0.30449 0.44212 0.0
H892 H 0.11341 0.33364 0.43158 0.0
H893 H 0.13223 0.32869 0.4792 0.0
H894 H 0.16314 0.29697 0.44685 0.0
H895 H 0.1438 0.30391 0.48464 0.0
H896 H 0.12802 0.31086 0.15757 0.0
H897 H 0.10977 0.31972 0.19382 0.0
H898 H 0.16188 0.32091 0.16511 0.0
H899 H 0.17872 0.3127 0.21136 0.0
C900 C 0.67919 0.82648 0.27123 0.0
C901 C 0.67654 0.8166 0.33399 0.0
C902 C 0.70764 0.85121 0.37478 0.0
C903 C 0.70972 0.86112 0.31229 0.0
N904 N 0.70356 0.85494 0.19682 0.0
N905 N 0.69089 0.81739 0.44235 0.0
C906 C 0.69748 0.84766 0.25905 0.0
C907 C 0.69167 0.82831 0.38491 0.0
N908 N 0.66352 0.81639 0.22438 0.0
N909 N 0.72101 0.86389 0.42412 0.0
H910 H 0.67932 0.80077 0.45149 0.0
H911 H 0.70243 0.82406 0.47958 0.0
H912 H 0.7337 0.88007 0.4162 0.0
H913 H 0.71937 0.85883 0.47265 0.0
H914 H 0.6635 0.82394 0.17969 0.0
H915 H 0.64928 0.80155 0.23294 0.0
H916 H 0.69617 0.84515 0.15571 0.0
H917 H 0.71797 0.86937 0.18686 0.0
C918 C 0.17632 0.83561 0.21737 0.0
C919 C 0.18914 0.84128 0.27557 0.0
C920 C 0.15583 0.81887 0.3388 0.0
C921 C 0.14322 0.81304 0.2804 0.0
N922 N 0.14295 0.80952 0.16315 0.0
N923 N 0.19199 0.83223 0.3879 0.0
C924 C 0.15397 0.81935 0.21934 0.0
C925 C 0.17919 0.83075 0.33503 0.0
N926 N 0.18515 0.84658 0.16048 0.0
N927 N 0.14554 0.81436 0.39788 0.0
H928 H 0.20903 0.83979 0.38514 0.0
H929 H 0.18581 0.82359 0.43135 0.0
H930 H 0.12852 0.80616 0.40258 0.0
H931 H 0.15378 0.82035 0.44193 0.0
H932 H 0.17589 0.84518 0.11861 0.0
H933 H 0.20148 0.85842 0.1566 0.0
H934 H 0.15058 0.8119 0.11786 0.0
H935 H 0.12673 0.79706 0.16276 0.0
C936 C 0.65399 0.83234 0.89395 0.0
C937 C 0.64515 0.83782 0.83727 0.0
C938 C 0.65129 0.80906 0.77445 0.0
C939 C 0.65754 0.80179 0.83281 0.0
N940 N 0.66426 0.80554 0.9488 0.0
N941 N 0.63417 0.83099 0.72434 0.0
C942 C 0.65897 0.81333 0.89266 0.0
C943 C 0.64369 0.82624 0.77743 0.0
N944 N 0.65825 0.84577 0.94849 0.0
N945 N 0.65305 0.79974 0.71617 0.0
H946 H 0.62845 0.84347 0.72481 0.0
H947 H 0.63051 0.82161 0.68117 0.0
H948 H 0.6586 0.78716 0.71274 0.0
H949 H 0.65085 0.80569 0.671 0.0
H950 H 0.66713 0.84444 0.98844 0.0
H951 H 0.65442 0.85956 0.9522 0.0
H952 H 0.6626 0.81108 0.99525 0.0
H953 H 0.66932 0.79259 0.94944 0.0
C954 C 0.17523 0.84768 0.7544 0.0
C955 C 0.17431 0.86085 0.80863 0.0
C956 C 0.15438 0.82582 0.87119 0.0
C957 C 0.15792 0.81301 0.82012 0.0
N958 N 0.17443 0.81205 0.71687 0.0
N959 N 0.16463 0.86301 0.92047 0.0
C960 C 0.16885 0.82397 0.76232 0.0
C961 C 0.16422 0.85005 0.86752 0.0
N962 N 0.18241 0.85793 0.69541 0.0
N963 N 0.14123 0.81474 0.92254 0.0
H964 H 0.17083 0.8807 0.91839 0.0
H965 H 0.16 0.8564 0.96712 0.0
H966 H 0.13368 0.79704 0.92657 0.0
H967 H 0.13628 0.8229 0.95819 0.0
H968 H 0.18147 0.84896 0.6525 0.0
H969 H 0.1876 0.87532 0.68809 0.0
H970 H 0.18447 0.81956 0.67702 0.0
H971 H 0.1706 0.79483 0.72203 0.0
C972 C 0.14923 0.35092 0.88368 0.0
C973 C 0.13974 0.35661 0.82886 0.0
C974 C 0.17657 0.38236 0.78913 0.0
C975 C 0.18596 0.37704 0.84451 0.0
N976 N 0.18202 0.35202 0.93497 0.0
N977 N 0.14419 0.37283 0.72157 0.0
C978 C 0.17251 0.35995 0.88875 0.0
C979 C 0.15345 0.37079 0.77903 0.0
N980 N 0.13614 0.33792 0.93269 0.0
N981 N 0.18972 0.39894 0.74724 0.0
H982 H 0.12734 0.36431 0.71276 0.0
H983 H 0.15319 0.38115 0.68074 0.0
H984 H 0.20675 0.40728 0.75244 0.0
H985 H 0.18376 0.40546 0.70981 0.0
H986 H 0.14211 0.33597 0.97793 0.0
H987 H 0.11908 0.33003 0.92987 0.0
H988 H 0.17324 0.33795 0.96417 0.0
H989 H 0.19897 0.35829 0.94049 0.0
C990 C 0.8072 0.62968 0.64306 0.0
C991 C 0.80477 0.64837 0.67124 0.0
C992 C 0.84359 0.6653 0.70219 0.0
C993 C 0.84528 0.64526 0.68108 0.0
N994 N 0.82508 0.60509 0.65583 0.0
N995 N 0.81919 0.67914 0.75025 0.0
C996 C 0.82592 0.62635 0.6594 0.0
C997 C 0.82247 0.66468 0.70807 0.0
N998 N 0.79257 0.61578 0.59801 0.0
N999 N 0.86171 0.68539 0.71275 0.0
H1000 H 0.80367 0.67803 0.76046 0.0
H1001 H 0.83151 0.69011 0.78131 0.0
H1002 H 0.8777 0.68797 0.70346 0.0
H1003 H 0.86056 0.7005 0.72302 0.0
H1004 H 0.79498 0.60305 0.57336 0.0
H1005 H 0.77976 0.61873 0.57904 0.0
H1006 H 0.8107 0.5907 0.64411 0.0
H1007 H 0.83774 0.6015 0.67302 0.0
C1008 C 0.37047 0.18903 0.69883 0.0
C1009 C 0.36185 0.20183 0.66301 0.0
C1010 C 0.32785 0.16706 0.64202 0.0
C1011 C 0.33555 0.15473 0.68333 0.0
N1012 N 0.36309 0.15422 0.75752 0.0
N1013 N 0.33149 0.2038 0.60573 0.0
C1014 C 0.35665 0.16575 0.71317 0.0
C1015 C 0.34029 0.19104 0.63607 0.0
N1016 N 0.39188 0.19912 0.71894 0.0
N1017 N 0.30909 0.15569 0.60635 0.0
H1018 H 0.34027 0.2212 0.59749 0.0
H1019 H 0.31503 0.19748 0.59237 0.0
H1020 H 0.29957 0.13814 0.60952 0.0
H1021 H 0.30393 0.16324 0.56958 0.0
H1022 H 0.39994 0.19022 0.73907 0.0
H1023 H 0.40217 0.21629 0.71095 0.0
H1024 H 0.37707 0.1619 0.78653 0.0
H1025 H 0.35357 0.1372 0.76934 0.0
C1026 C 0.82132 0.16779 0.61382 0.0
C1027 C 0.80741 0.17301 0.65579 0.0
C1028 C 0.83956 0.20422 0.70494 0.0
C1029 C 0.85332 0.20013 0.65942 0.0
N1030 N 0.85847 0.17372 0.58772 0.0
N1031 N 0.80311 0.19211 0.75131 0.0
C1032 C 0.84457 0.18042 0.61951 0.0
C1033 C 0.81654 0.18988 0.70492 0.0
N1034 N 0.81226 0.15151 0.5665 0.0
N1035 N 0.84858 0.22238 0.7467 0.0
H1036 H 0.78617 0.18209 0.75146 0.0
H1037 H 0.80871 0.20259 0.79216 0.0
H1038 H 0.8655 0.23212 0.75106 0.0
H1039 H 0.83952 0.22822 0.77583 0.0
H1040 H 0.82129 0.14866 0.5295 0.0
H1041 H 0.79538 0.14161 0.56194 0.0
H1042 H 0.85328 0.1586 0.5613 0.0
H1043 H 0.87543 0.18212 0.594 0.0
C1044 C 0.00212 0.50244 0.54458 0.0
C1045 C 0.98964 0.48329 0.50434 0.0
C1046 C 0.97144 0.50453 0.45283 0.0
C1047 C 0.9843 0.52375 0.49176 0.0
N1048 N 0.01446 0.54266 0.56674 0.0
N1049 N 0.96675 0.46809 0.40923 0.0
C1050 C 1.00054 0.52324 0.5348 0.0
C1051 C 0.97549 0.48489 0.45533 0.0
N1052 N 0.01458 0.50052 0.59467 0.0
N1053 N 0.9552 0.50497 0.41402 0.0
H1054 H 0.97003 0.45389 0.40793 0.0
H1055 H 0.95808 0.46926 0.36854 0.0
H1056 H 0.95258 0.51948 0.4084 0.0
H1057 H 0.94351 0.49063 0.3905 0.0
H1058 H 0.02133 0.51267 0.6314 0.0
H1059 H 0.01712 0.48613 0.60282 0.0
H1060 H 0.02841 0.54418 0.5919 0.0
H1061 H 0.0131 0.55793 0.56452 0.0
C1062 C 0.50992 0.4966 0.41886 0.0
C1063 C 0.50364 0.48601 0.48072 0.0
C1064 C 0.51312 0.52335 0.53185 0.0
C1065 C 0.52036 0.53399 0.47062 0.0
N1066 N 0.52888 0.53151 0.35754 0.0
N1067 N 0.50205 0.48949 0.59803 0.0
C1068 C 0.51964 0.52081 0.41454 0.0
C1069 C 0.50631 0.49947 0.53787 0.0
N1070 N 0.50626 0.48345 0.36399 0.0
N1071 N 0.5114 0.53584 0.58341 0.0
H1072 H 0.49543 0.47199 0.60522 0.0
H1073 H 0.50636 0.49868 0.64157 0.0
H1074 H 0.51608 0.55331 0.58084 0.0
H1075 H 0.50375 0.52874 0.62718 0.0
H1076 H 0.50754 0.48975 0.31681 0.0
H1077 H 0.50086 0.46584 0.36557 0.0
H1078 H 0.53123 0.52317 0.31705 0.0
H1079 H 0.53575 0.54913 0.352 0.0
C1080 C 0.51016 0.04826 0.462 0.0
C1081 C 0.52051 0.03877 0.50431 0.0
C1082 C 0.48479 0.0062 0.52637 0.0
C1083 C 0.47432 0.01705 0.48941 0.0
N1084 N 0.47707 0.04316 0.40361 0.0
N1085 N 0.51886 0.00706 0.56823 0.0
C1086 C 0.48712 0.03648 0.45135 0.0
C1087 C 0.50818 0.01706 0.53335 0.0
N1088 N 0.52231 0.06881 0.43313 0.0
N1089 N 0.47237 0.98589 0.55589 0.0
H1090 H 0.5357 0.01491 0.57722 0.0
H1091 H 0.51146 0.99064 0.58682 0.0
H1092 H 0.45577 0.97636 0.54569 0.0
H1093 H 0.47823 0.97815 0.59009 0.0
H1094 H 0.5155 0.07807 0.40819 0.0
H1095 H 0.53937 0.07726 0.43674 0.0
H1096 H 0.48544 0.05591 0.36996 0.0
H1097 H 0.46033 0.03428 0.39349 0.0
C1098 C 0.46336 0.96513 0.96366 0.0
C1099 C 0.46448 0.9857 0.99066 0.0
C1100 C 0.50296 0.99673 0.01893 0.0
C1101 C 0.50075 0.97466 0.00097 0.0
N1102 N 0.47492 0.93546 0.97968 0.0
N1103 N 0.4838 0.0168 0.06615 0.0
C1104 C 0.47971 0.95805 0.98077 0.0
C1105 C 0.48376 1.00021 0.02531 0.0
N1106 N 0.4476 0.95283 0.91905 0.0
N1107 N 0.52302 0.01489 0.02602 0.0
H1108 H 0.46966 0.01868 0.07731 0.0
H1109 H 0.49727 0.02657 0.09551 0.0
H1110 H 0.53783 0.01444 0.01556 0.0
H1111 H 0.52472 0.03137 0.03429 0.0
H1112 H 0.44743 0.93855 0.89553 0.0
H1113 H 0.4367 0.95847 0.89905 0.0
H1114 H 0.45924 0.92287 0.96885 0.0
H1115 H 0.48558 0.92921 -0.00176 0.0
C1116 C 0.03266 0.52038 0.04818 0.0
C1117 C 0.03026 0.53067 0.9897 0.0
C1118 C 0.99526 0.49765 0.9666 0.0
C1119 C 0.99821 0.48676 0.02291 0.0
N1120 N 0.01992 0.48647 0.11579 0.0
N1121 N 0.01195 0.52746 0.88652 0.0
C1122 C 0.01699 0.4978 0.06341 0.0
C1123 C 0.01232 0.51882 0.94692 0.0
N1124 N 0.04992 0.53228 0.089 0.0
N1125 N 0.97584 0.48809 0.93309 0.0
H1126 H 0.02427 0.54281 0.8701 0.0
H1127 H 1.00056 0.51852 0.85047 0.0
H1128 H 0.96305 0.47249 0.94591 0.0
H1129 H 0.97171 0.49636 0.89587 0.0
H1130 H 0.05158 0.52699 0.13564 0.0
H1131 H 0.06231 0.54827 0.07728 0.0
H1132 H 0.03422 0.4923 0.14355 0.0
H1133 H 0.00819 0.47048 0.13018 0.0
C1134 C 0.48253 0.53487 0.00863 0.0
C1135 C 0.47363 0.51459 0.97098 0.0
C1136 C 0.51103 0.51951 0.94453 0.0
C1137 C 0.51982 0.54051 0.97908 0.0
N1138 N 0.51467 0.56406 0.06143 0.0
N1139 N 0.47886 0.48544 0.91097 0.0
C1140 C 0.50571 0.5469 0.01646 0.0
C1141 C 0.48776 0.50618 0.9417 0.0
N1142 N 0.46882 0.54285 0.03598 0.0
N1143 N 0.52487 0.51264 0.91295 0.0
H1144 H 0.46205 0.47587 0.9041 0.0
H1145 H 0.48789 0.47703 0.89447 0.0
H1146 H 0.54176 0.52031 0.92066 0.0
H1147 H 0.51987 0.49947 0.87891 0.0
H1148 H 0.47425 0.55888 0.05743 0.0
H1149 H 0.45176 0.53393 0.03392 0.0
H1150 H 0.50549 0.56839 0.09462 0.0
H1151 H 0.53154 0.57245 0.07018 0.0
C1152 C 0.44345 0.08732 0.11897 0.0
C1153 C 0.44137 0.08706 0.04978 0.0
C1154 C 0.423 0.11201 0.05675 0.0
C1155 C 0.42308 0.11029 0.12584 0.0
N1156 N 0.44002 0.10414 0.22174 0.0
N1157 N 0.43713 0.10559 0.95365 0.0
C1158 C 0.43582 0.10075 0.1564 0.0
C1159 C 0.43404 0.10188 0.01915 0.0
N1160 N 0.4508 0.07336 0.14949 0.0
N1161 N 0.41091 0.12143 0.02676 0.0
H1162 H 0.44523 0.09817 0.92585 0.0
H1163 H 0.43374 0.11758 0.9287 0.0
H1164 H 0.40322 0.12981 0.05185 0.0
H1165 H 0.40772 0.12012 0.97681 0.0
H1166 H 0.44921 0.07019 0.19943 0.0
H1167 H 0.45785 0.06422 0.1252 0.0
H1168 H 0.4507 0.09924 0.24654 0.0
H1169 H 0.43441 0.11397 0.24953 0.0
C1170 C 0.88861 0.32725 0.06436 0.0
C1171 C 0.89233 0.32466 0.13107 0.0
C1172 C 0.91223 0.36617 0.13963 0.0
C1173 C 0.91536 0.36728 0.07127 0.0
N1174 N 0.90293 0.34956 0.96644 0.0
N1175 N 0.90407 0.34243 0.23609 0.0
C1176 C 0.90221 0.34802 0.03283 0.0
C1177 C 0.90284 0.34447 0.17015 0.0
N1178 N 0.87157 0.31049 0.03249 0.0
N1179 N 0.91731 0.38558 0.1745 0.0
H1180 H 0.89599 0.32681 0.25967 0.0
H1181 H 0.91356 0.35601 0.26653 0.0
H1182 H 0.92109 0.40092 0.15103 0.0
H1183 H 0.91453 0.38581 0.22439 0.0
H1184 H 0.86738 0.31181 0.98429 0.0
H1185 H 0.85979 0.29693 0.058 0.0
H1186 H 0.8955 0.33548 0.93574 0.0
H1187 H 0.91162 0.36502 0.94255 0.0
C1188 C 0.66275 0.57062 0.14899 0.0
C1189 C 0.68222 0.58057 0.11171 0.0
C1190 C 0.65993 0.56941 0.01164 0.0
C1191 C 0.64089 0.56479 0.04898 0.0
N1192 N 0.62398 0.56082 0.15506 0.0
N1193 N 0.69952 0.58914 0.00556 0.0
C1194 C 0.64207 0.56468 0.11829 0.0
C1195 C 0.68093 0.57932 0.04238 0.0
N1196 N 0.66422 0.56728 0.21421 0.0
N1197 N 0.65782 0.56454 0.94642 0.0
H1198 H 0.71528 0.59583 0.02504 0.0
H1199 H 0.6993 0.59167 0.95547 0.0
H1200 H 0.64253 0.55714 0.92331 0.0
H1201 H 0.67078 0.56561 0.91711 0.0
H1202 H 0.65063 0.55836 0.24358 0.0
H1203 H 0.67928 0.57149 0.23721 0.0
H1204 H 0.62462 0.56364 0.20522 0.0
H1205 H 0.6084 0.556 0.1354 0.0
C1206 C 0.08417 0.42547 0.51989 0.0
C1207 C 0.07739 0.4408 0.48955 0.0
C1208 C 0.09426 0.43787 0.38723 0.0
C1209 C 0.09738 0.41949 0.41366 0.0
N1210 N 0.1019 0.40026 0.50915 0.0
N1211 N 0.08708 0.47051 0.40932 0.0
C1212 C 0.0949 0.41505 0.48185 0.0
C1213 C 0.08616 0.45007 0.42801 0.0
N1214 N 0.07964 0.42061 0.5845 0.0
N1215 N 0.09814 0.44293 0.32254 0.0
H1216 H 0.08349 0.48084 0.44139 0.0
H1217 H 0.0943 0.47861 0.36605 0.0
H1218 H 0.10526 0.43501 0.29266 0.0
H1219 H 0.09357 0.45421 0.29834 0.0
H1220 H 0.08212 0.40817 0.60987 0.0
H1221 H 0.07344 0.42968 0.61333 0.0
H1222 H 0.10074 0.39624 0.55843 0.0
H1223 H 0.11025 0.39282 0.48306 0.0
C1224 C 0.57188 0.68094 0.35488 0.0
C1225 C 0.58625 0.70082 0.38894 0.0
C1226 C 0.57597 0.68037 0.49191 0.0
C1227 C 0.56427 0.65982 0.45679 0.0
N1228 N 0.54048 0.64417 0.36439 0.0
N1229 N 0.59046 0.72146 0.48914 0.0
C1230 C 0.55872 0.66111 0.39095 0.0
C1231 C 0.5847 0.70131 0.45758 0.0
N1232 N 0.57111 0.68095 0.28841 0.0
N1233 N 0.57899 0.67978 0.55756 0.0
H1234 H 0.59377 0.73626 0.46317 0.0
H1235 H 0.5887 0.72275 0.53926 0.0
H1236 H 0.57133 0.66477 0.58432 0.0
H1237 H 0.58954 0.69395 0.58436 0.0
H1238 H 0.56269 0.66621 0.26084 0.0
H1239 H 0.57964 0.69574 0.26137 0.0
H1240 H 0.5351 0.64475 0.31707 0.0
H1241 H 0.52917 0.63144 0.39354 0.0
C1242 C 0.31589 0.8974 0.44315 0.0
C1243 C 0.31439 0.89506 0.3742 0.0
C1244 C 0.35398 0.91932 0.36474 0.0
C1245 C 0.35536 0.92262 0.43361 0.0
N1246 N 0.3395 0.90925 0.53893 0.0
N1247 N 0.33258 0.8972 0.27246 0.0
C1248 C 0.33688 0.90966 0.47293 0.0
C1249 C 0.33376 0.90369 0.3363 0.0
N1250 N 0.29723 0.88943 0.47985 0.0
N1251 N 0.37122 0.93239 0.32573 0.0
H1252 H 0.31785 0.88575 0.25108 0.0
H1253 H 0.34632 0.90122 0.24318 0.0
H1254 H 0.38639 0.94404 0.34351 0.0
H1255 H 0.37005 0.93281 0.27513 0.0
H1256 H 0.29705 0.89332 0.52909 0.0
H1257 H 0.28167 0.87976 0.46034 0.0
H1258 H 0.32717 0.89867 0.5701 0.0
H1259 H 0.35478 0.91789 0.56153 0.0
C1260 C 0.58814 0.92832 0.95667 0.0
C1261 C 0.5966 0.95244 0.95849 0.0
C1262 C 0.62068 0.95491 0.86598 0.0
C1263 C 0.61303 0.93092 0.86682 0.0
N1264 N 0.58216 0.89519 0.89172 0.0
N1265 N 0.6237 0.98912 0.91895 0.0
C1266 C 0.5947 0.91763 0.90622 0.0
C1267 C 0.61389 0.96586 0.91518 0.0
N1268 N 0.57476 0.91556 0.00556 0.0
N1269 N 0.63213 0.96699 0.81312 0.0
H1270 H 0.61717 0.99884 0.9426 0.0
H1271 H 0.63893 0.99906 0.8982 0.0
H1272 H 0.63314 0.95912 0.76976 0.0
H1273 H 0.63761 0.98446 0.80755 0.0
H1274 H 0.57005 0.89816 0.01048 0.0
H1275 H 0.57057 0.92271 0.04564 0.0
H1276 H 0.56758 0.88517 0.91572 0.0
H1277 H 0.58422 0.88761 0.84914 0.0
C1278 C 0.13378 0.69065 0.92068 0.0
C1279 C 0.12821 0.6899 0.85387 0.0
C1280 C 0.11242 0.64832 0.85879 0.0
C1281 C 0.11021 0.64968 0.92693 0.0
N1282 N 0.12346 0.67157 0.02536 0.0
N1283 N 0.11698 0.66761 0.75513 0.0
C1284 C 0.12269 0.67071 0.95886 0.0
C1285 C 0.11921 0.66852 0.82137 0.0
N1286 N 0.14997 0.70986 0.94656 0.0
N1287 N 0.10922 0.62819 0.83084 0.0
H1288 H 0.12356 0.68224 0.72641 0.0
H1289 H 0.10822 0.65251 0.72945 0.0
H1290 H 0.10774 0.61448 0.85953 0.0
H1291 H 0.11152 0.62631 0.78135 0.0
H1292 H 0.15526 0.71116 0.99479 0.0
H1293 H 0.16026 0.72304 0.91668 0.0
H1294 H 0.13035 0.68675 0.05182 0.0
H1295 H 0.1165 0.65686 0.05367 0.0
C1296 C 0.34684 0.43117 0.86554 0.0
C1297 C 0.35336 0.44342 0.92538 0.0
C1298 C 0.31547 0.43903 0.93946 0.0
C1299 C 0.30918 0.42616 0.88061 0.0
N1300 N 0.32087 0.41913 0.7759 0.0
N1301 N 0.34499 0.46322 0.01249 0.0
C1302 C 0.32563 0.42541 0.83979 0.0
C1303 C 0.33805 0.44891 0.95983 0.0
N1304 N 0.36037 0.42385 0.83462 0.0
N1305 N 0.29985 0.44115 0.97686 0.0
H1306 H 0.36109 0.47003 0.02978 0.0
H1307 H 0.33529 0.46961 0.03635 0.0
H1308 H 0.28402 0.43645 0.95967 0.0
H1309 H 0.30248 0.44738 0.02447 0.0
H1310 H 0.35557 0.4128 0.7947 0.0
H1311 H 0.37566 0.42701 0.85302 0.0
H1312 H 0.33269 0.42007 0.74201 0.0
H1313 H 0.30558 0.4156 0.75544 0.0
C1314 C 0.93786 0.61621 0.61047 0.0
C1315 C 0.94891 0.63893 0.6338 0.0
C1316 C 0.97664 0.64697 0.54817 0.0
C1317 C 0.96569 0.6241 0.52608 0.0
N1318 N 0.93075 0.5912 0.51759 0.0
N1319 N 0.98369 0.67264 0.63946 0.0
C1320 C 0.94477 0.60991 0.55179 0.0
C1321 C 0.96969 0.65352 0.60684 0.0
N1322 N 0.92178 0.60009 0.64709 0.0
N1323 N 0.99249 0.66293 0.51058 0.0
H1324 H 0.98103 0.67625 0.68718 0.0
H1325 H 0.99963 0.6828 0.62378 0.0
H1326 H 0.99583 0.6594 0.46333 0.0
H1327 H 0.99967 0.68026 0.52168 0.0
H1328 H 0.9145 0.58284 0.63483 0.0
H1329 H 0.91804 0.60343 0.69412 0.0
H1330 H 0.91458 0.58129 0.53176 0.0
H1331 H 0.93423 0.5877 0.47045 0.0
C1332 C 0.4072 0.35868 0.56092 0.0
C1333 C 0.42856 0.36591 0.53434 0.0
C1334 C 0.43142 0.33455 0.59436 0.0
C1335 C 0.40875 0.32549 0.61097 0.0
N1336 N 0.37394 0.32618 0.58575 0.0
N1337 N 0.45963 0.35749 0.51761 0.0
C1338 C 0.39632 0.33666 0.58681 0.0
C1339 C 0.44039 0.35297 0.54876 0.0
N1340 N 0.39733 0.37299 0.56502 0.0
N1341 N 0.44465 0.32636 0.62346 0.0
H1342 H 0.46641 0.3702 0.48269 0.0
H1343 H 0.4677 0.34712 0.52187 0.0
H1344 H 0.43905 0.31356 0.65845 0.0
H1345 H 0.46163 0.33388 0.61757 0.0
H1346 H 0.38248 0.36851 0.58922 0.0
H1347 H 0.40516 0.3902 0.55385 0.0
H1348 H 0.3646 0.33329 0.56291 0.0
H1349 H 0.36482 0.30941 0.59928 0.0
C1350 C 0.64537 0.10263 0.6307 0.0
C1351 C 0.64205 0.09909 0.56266 0.0
C1352 C 0.68173 0.12135 0.54768 0.0
C1353 C 0.68524 0.11854 0.6146 0.0
N1354 N 0.66998 0.10853 0.72242 0.0
N1355 N 0.65731 0.10678 0.45459 0.0
C1356 C 0.66688 0.10991 0.65705 0.0
C1357 C 0.66033 0.1092 0.52052 0.0
N1358 N 0.62816 0.09997 0.66943 0.0
N1359 N 0.69851 0.13613 0.51073 0.0
H1360 H 0.64173 0.09919 0.43331 0.0
H1361 H 0.67026 0.11144 0.42171 0.0
H1362 H 0.71365 0.1465 0.53115 0.0
H1363 H 0.6965 0.14021 0.46283 0.0
H1364 H 0.62953 0.10326 0.7194 0.0
H1365 H 0.61342 0.09805 0.6488 0.0
H1366 H 0.65716 0.09991 0.75467 0.0
H1367 H 0.68555 0.11542 0.74378 0.0
C1368 C 0.75207 0.76686 0.73431 0.0
C1369 C 0.74577 0.76019 0.79974 0.0
C1370 C 0.76642 0.73732 0.79799 0.0
C1371 C 0.76702 0.73887 0.72876 0.0
N1372 N 0.76297 0.7568 0.63081 0.0
N1373 N 0.75064 0.74337 0.89865 0.0
C1374 C 0.76101 0.75454 0.69702 0.0
C1375 C 0.75459 0.74713 0.83338 0.0
N1376 N 0.74951 0.78474 0.70796 0.0
N1377 N 0.77644 0.72593 0.82941 0.0
H1378 H 0.74345 0.75188 0.92585 0.0
H1379 H 0.75396 0.73174 0.92556 0.0
H1380 H 0.78544 0.71878 0.80533 0.0
H1381 H 0.77757 0.72517 0.87986 0.0
H1382 H 0.75489 0.79107 0.66149 0.0
H1383 H 0.7447 0.79521 0.73539 0.0
H1384 H 0.75624 0.76558 0.60325 0.0
H1385 H 0.77075 0.749 0.60318 0.0
C1386 C 0.24521 1.00025 0.79001 0.0
C1387 C 0.25089 0.98288 0.76711 0.0
C1388 C 0.27337 0.00889 0.68253 0.0
C1389 C 0.27255 0.02747 0.71543 0.0
N1390 N 0.25516 0.04083 0.79642 0.0
N1391 N 0.27422 0.97293 0.69562 0.0
C1392 C 0.25739 0.02316 0.76737 0.0
C1393 C 0.266 0.98779 0.71446 0.0
N1394 N 0.22875 0.99508 0.83449 0.0
N1395 N 0.28158 0.01162 0.62067 0.0
H1396 H 0.26948 0.95688 0.71524 0.0
H1397 H 0.2871 0.97734 0.66256 0.0
H1398 H 0.28624 0.02688 0.5953 0.0
H1399 H 0.28135 0.99817 0.59258 0.0
H1400 H 0.22249 0.00641 0.84867 0.0
H1401 H 0.22022 0.97885 0.85399 0.0
H1402 H 0.24694 0.03947 0.84024 0.0
H1403 H 0.26172 0.05702 0.7763 0.0
C1404 C 0.01836 0.26161 0.7137 0.0
C1405 C 0.01979 0.2644 0.78275 0.0
C1406 C 0.97973 0.24289 0.79108 0.0
C1407 C 0.9782 0.24147 0.72184 0.0
N1408 N 0.99581 0.24242 0.61974 0.0
N1409 N 0.00316 0.25138 0.88713 0.0
C1410 C 0.99754 0.24837 0.68418 0.0
C1411 C 1.00084 0.25271 0.8213 0.0
N1412 N 0.03641 0.27298 0.67571 0.0
N1413 N 0.96121 0.2366 0.82791 0.0
H1414 H 0.01854 0.25841 0.90979 0.0
H1415 H 0.99031 0.2415 0.91784 0.0
H1416 H 0.94542 0.22876 0.80855 0.0
H1417 H 0.96148 0.24021 0.87751 0.0
H1418 H 0.03566 0.27427 0.62523 0.0
H1419 H 0.05214 0.2821 0.69446 0.0
H1420 H 0.00926 0.24512 0.5904 0.0
H1421 H 0.98067 0.23265 0.59759 0.0
C1422 C 0.25187 0.24877 0.24664 0.0
C1423 C 0.26965 0.26263 0.20632 0.0
C1424 C 0.26775 0.29689 0.24893 0.0
C1425 C 0.25143 0.28323 0.2945 0.0
N1426 N 0.23045 0.24643 0.34323 0.0
N1427 N 0.2858 0.29771 0.14661 0.0
C1428 C 0.244 0.2592 0.29467 0.0
C1429 C 0.27521 0.28614 0.20121 0.0
N1430 N 0.24123 0.22587 0.23535 0.0
N1431 N 0.27616 0.32012 0.24985 0.0
H1432 H 0.28792 0.28939 0.10555 0.0
H1433 H 0.28967 0.31472 0.13764 0.0
H1434 H 0.26966 0.32936 0.27595 0.0
H1435 H 0.29056 0.33062 0.22576 0.0
H1436 H 0.22706 0.21506 0.25983 0.0
H1437 H 0.24445 0.21823 0.19466 0.0
H1438 H 0.22653 0.22929 0.35036 0.0
H1439 H 0.2249 0.25342 0.38068 0.0
C1440 C 0.76702 0.99205 0.23636 0.0
C1441 C 0.75184 0.98772 0.2883 0.0
C1442 C 0.74864 0.02271 0.26419 0.0
C1443 C 0.76306 0.02707 0.21006 0.0
N1444 N 0.78918 0.01803 0.15158 0.0
N1445 N 0.73913 0.00538 0.37051 0.0
C1446 C 0.77345 0.01249 0.1987 0.0
C1447 C 0.74636 0.00529 0.30837 0.0
N1448 N 0.77534 0.97686 0.22324 0.0
N1449 N 0.7363 0.03438 0.27312 0.0
H1450 H 0.73876 0.99353 0.40519 0.0
H1451 H 0.73619 0.01863 0.38944 0.0
H1452 H 0.73639 0.04691 0.24206 0.0
H1453 H 0.72413 0.02993 0.30859 0.0
H1454 H 0.78362 0.97684 0.18056 0.0
H1455 H 0.77456 0.96463 0.25683 0.0
H1456 H 0.79886 0.00948 0.14445 0.0
H1457 H 0.79336 0.03203 0.12101 0.0
C1458 C 0.01294 0.7304 0.2165 0.0
C1459 C 0.02327 0.74872 0.26202 0.0
C1460 C 0.99468 0.76143 0.23936 0.0
C1461 C 0.98266 0.74118 0.20301 0.0
N1462 N 0.98529 0.71329 0.13193 0.0
N1463 N 0.02184 0.77972 0.32346 0.0
C1464 C 0.9932 0.72756 0.18445 0.0
C1465 C 0.01372 0.76389 0.27457 0.0
N1466 N 0.02149 0.71525 0.20469 0.0
N1467 N 0.98894 0.77904 0.23682 0.0
H1468 H 0.03519 0.78166 0.35255 0.0
H1469 H 0.01389 0.78929 0.33986 0.0
H1470 H 0.97729 0.77936 0.20416 0.0
H1471 H 0.99815 0.79482 0.2586 0.0
H1472 H 0.01296 0.69982 0.18042 0.0
H1473 H 0.03666 0.7172 0.22155 0.0
H1474 H 0.99323 0.7044 0.11086 0.0
H1475 H 0.97221 0.71272 0.10379 0.0
C1476 C 0.34391 0.0709 0.98194 0.0
C1477 C 0.33893 0.08491 0.02552 0.0
C1478 C 0.32988 0.10295 0.9339 0.0
C1479 C 0.33076 0.08624 0.89156 0.0
N1480 N 0.33782 0.05347 0.87421 0.0
N1481 N 0.32341 0.11152 0.04357 0.0
C1482 C 0.33788 0.0701 0.91491 0.0
C1483 C 0.33099 0.10028 0.00168 0.0
N1484 N 0.35427 0.05846 0.00458 0.0
N1485 N 0.32795 0.12142 0.9091 0.0
H1486 H 0.3235 0.1098 0.09399 0.0
H1487 H 0.31514 0.12087 0.02797 0.0
H1488 H 0.32736 0.12403 0.85907 0.0
H1489 H 0.32929 0.13519 0.93775 0.0
H1490 H 0.36016 0.04957 0.97417 0.0
H1491 H 0.35839 0.05844 0.05367 0.0
H1492 H 0.34058 0.0398 0.8901 0.0
H1493 H 0.3338 0.05272 0.82483 0.0
C1494 C 0.92003 0.29083 0.93226 0.0
C1495 C 0.90981 0.27074 0.96974 0.0
C1496 C 0.90646 0.24728 0.87373 0.0
C1497 C 0.91607 0.26734 0.83493 0.0
N1498 N 0.93727 0.30807 0.82985 0.0
N1499 N 0.90037 0.23102 0.9823 0.0
C1500 C 0.9246 0.28915 0.86512 0.0
C1501 C 0.90569 0.24939 0.94244 0.0
N1502 N 0.92468 0.31137 0.9608 0.0
N1503 N 0.89633 0.22624 0.84506 0.0
H1504 H 0.89954 0.23225 0.0329 0.0
H1505 H 0.89905 0.21533 0.96607 0.0
H1506 H 0.89531 0.22355 0.79487 0.0
H1507 H 0.88693 0.21146 0.87087 0.0
H1508 H 0.93001 0.32659 0.93522 0.0
H1509 H 0.92258 0.31293 0.01073 0.0
H1510 H 0.94545 0.32428 0.85008 0.0
H1511 H 0.94115 0.30721 0.78099 0.0
C1512 C 0.73105 0.6715 0.9495 0.0
C1513 C 0.74096 0.65978 0.98551 0.0
C1514 C 0.75108 0.64707 0.88274 0.0
C1515 C 0.73999 0.65748 0.84696 0.0
N1516 N 0.71916 0.67932 0.84374 0.0
N1517 N 0.75925 0.63504 0.98647 0.0
C1518 C 0.73001 0.66977 0.87972 0.0
C1519 C 0.75053 0.64711 0.95207 0.0
N1520 N 0.72238 0.68398 0.98223 0.0
N1521 N 0.76347 0.6384 0.85037 0.0
H1522 H 0.7621 0.63667 0.03652 0.0
H1523 H 0.76288 0.62251 0.96573 0.0
H1524 H 0.76426 0.63774 0.79968 0.0
H1525 H 0.77448 0.63352 0.87324 0.0
H1526 H 0.71656 0.69458 0.96003 0.0
H1527 H 0.72147 0.6843 0.03294 0.0
H1528 H 0.71031 0.68748 0.86328 0.0
H1529 H 0.71817 0.67828 0.79294 0.0
C1530 C 0.07488 0.32931 0.60838 0.0
C1531 C 0.06535 0.342 0.64167 0.0
C1532 C 0.05291 0.35008 0.53611 0.0
C1533 C 0.06077 0.33571 0.50423 0.0
N1534 N 0.07502 0.30781 0.51202 0.0
N1535 N 0.04145 0.36068 0.63778 0.0
C1536 C 0.07016 0.32391 0.54122 0.0
C1537 C 0.05327 0.35136 0.60569 0.0
N1538 N 0.08983 0.32381 0.6394 0.0
N1539 N 0.04547 0.36282 0.49981 0.0
H1540 H 0.04076 0.36133 0.6885 0.0
H1541 H 0.03071 0.36583 0.61436 0.0
H1542 H 0.04387 0.36138 0.44915 0.0
H1543 H 0.04214 0.37571 0.51952 0.0
H1544 H 0.09896 0.31673 0.61546 0.0
H1545 H 0.0951 0.32867 0.68716 0.0
H1546 H 0.07975 0.297 0.5381 0.0
H1547 H 0.07234 0.30379 0.46253 0.0
C1548 C 0.68126 0.75557 0.6098 0.0
C1549 C 0.66891 0.73565 0.64737 0.0
C1550 C 0.65059 0.71518 0.54825 0.0
C1551 C 0.66166 0.73552 0.51293 0.0
N1552 N 0.69387 0.7706 0.50167 0.0
N1553 N 0.64886 0.69466 0.64805 0.0
C1554 C 0.67953 0.75399 0.54099 0.0
C1555 C 0.65596 0.71473 0.61498 0.0
N1556 N 0.69266 0.77643 0.63846 0.0
N1557 N 0.63414 0.69691 0.51879 0.0
H1558 H 0.65328 0.6939 0.69647 0.0
H1559 H 0.64065 0.67881 0.62563 0.0
H1560 H 0.63065 0.6969 0.46912 0.0
H1561 H 0.62367 0.68235 0.54381 0.0
H1562 H 0.69981 0.79146 0.61179 0.0
H1563 H 0.69334 0.7795 0.68834 0.0
H1564 H 0.70828 0.78387 0.51891 0.0
H1565 H 0.69226 0.76948 0.45092 0.0
C1566 C 0.24341 0.93817 0.56379 0.0
C1567 C 0.23789 0.92009 0.60965 0.0
C1568 C 0.23841 0.89497 0.52091 0.0
C1569 C 0.24515 0.91351 0.47625 0.0
N1570 N 0.2612 0.95416 0.46175 0.0
N1571 N 0.23451 0.88245 0.63338 0.0
C1572 C 0.24992 0.93555 0.49984 0.0
C1573 C 0.23719 0.89901 0.5889 0.0
N1574 N 0.2416 0.95763 0.57974 0.0
N1575 N 0.23147 0.87319 0.4984 0.0
H1576 H 0.23211 0.88396 0.68296 0.0
H1577 H 0.23642 0.86787 0.62177 0.0
H1578 H 0.23138 0.86912 0.44939 0.0
H1579 H 0.22379 0.85887 0.52766 0.0
H1580 H 0.24272 0.96981 0.54532 0.0
H1581 H 0.23734 0.96097 0.62585 0.0
H1582 H 0.26696 0.97082 0.47908 0.0
H1583 H 0.26703 0.95298 0.41548 0.0
C1584 C 0.6992 0.91222 0.07735 0.0
C1585 C 0.69779 0.92727 0.12542 0.0
C1586 C 0.67139 0.93387 0.05677 0.0
C1587 C 0.6736 0.91951 0.00781 0.0
N1588 N 0.69365 0.89942 0.96536 0.0
N1589 N 0.68587 0.95569 0.15646 0.0
C1590 C 0.68892 0.91027 0.01591 0.0
C1591 C 0.68479 0.93905 0.11395 0.0
N1592 N 0.70924 0.89858 0.09179 0.0
N1593 N 0.65636 0.94242 0.04859 0.0
H1594 H 0.69559 0.9599 0.19845 0.0
H1595 H 0.67852 0.96651 0.14779 0.0
H1596 H 0.6476 0.94048 0.00523 0.0
H1597 H 0.65195 0.95063 0.08538 0.0
H1598 H 0.70822 0.88514 0.06218 0.0
H1599 H 0.71679 0.89912 0.13638 0.0
H1600 H 0.70665 0.89494 0.96652 0.0
H1601 H 0.68597 0.89648 0.92002 0.0
C1602 C 0.0797 0.72249 0.10037 0.0
C1603 C 0.07186 0.73932 0.10426 0.0
C1604 C 0.07927 0.74779 0.98834 0.0
C1605 C 0.09062 0.73392 0.98693 0.0
N1606 N 0.09399 0.70171 0.03519 0.0
N1607 N 0.05077 0.75427 0.04238 0.0
C1608 C 0.08826 0.71918 0.04042 0.0
C1609 C 0.06718 0.7475 0.04494 0.0
N1610 N 0.07821 0.70891 0.15233 0.0
N1611 N 0.08116 0.76248 0.93885 0.0
H1612 H 0.04032 0.75205 0.08188 0.0
H1613 H 0.04578 0.75896 -0.00094 0.0
H1614 H 0.09011 0.76388 0.89656 0.0
H1615 H 0.07502 0.77458 0.94234 0.0
H1616 H 0.08454 0.69691 0.15126 0.0
H1617 H 0.06916 0.70843 0.19389 0.0
H1618 H 0.09911 0.69735 0.99139 0.0
H1619 H 0.09911 0.69735 0.99139 0.0
C1620 C 0.24602 0.33465 0.10942 0.0
C1621 C 0.23359 0.33788 0.16106 0.0
C1622 C 0.22795 0.36597 0.09415 0.0
C1623 C 0.24289 0.36496 0.04692 0.0
N1624 N 0.26997 0.35182 0.01787 0.0
N1625 N 0.21485 0.35907 0.20525 0.0
C1626 C 0.25303 0.35029 0.05685 0.0
C1627 C 0.2255 0.35453 0.15465 0.0
N1628 N 0.25064 0.31628 0.10898 0.0
N1629 N 0.21485 0.37645 0.07963 0.0
H1630 H 0.21107 0.35008 0.2489 0.0
H1631 H 0.21106 0.37292 0.20549 0.0
H1632 H 0.21502 0.38393 0.03468 0.0
H1633 H 0.20199 0.37545 0.10929 0.0
H1634 H 0.25716 0.31176 0.06843 0.0
H1635 H 0.24621 0.30443 0.14642 0.0
H1636 H 0.27934 0.34303 0.02743 0.0
H1637 H 0.27616 0.3636 0.9802 0.0
C1638 C 0.94001 0.70147 0.47779 0.0
C1639 C 0.92065 0.69285 0.51568 0.0
C1640 C 0.90248 0.7073 0.43756 0.0
C1641 C 0.92153 0.71506 0.3981 0.0
N1642 N 0.96011 0.72543 0.38743 0.0
N1643 N 0.8859 0.69266 0.54233 0.0
C1644 C 0.94092 0.71413 0.42074 0.0
C1645 C 0.90279 0.69773 0.49938 0.0
N1646 N 0.95709 0.69675 0.49518 0.0
N1647 N 0.88356 0.70728 0.41391 0.0
H1648 H 0.88531 0.68498 0.5872 0.0
H1649 H 0.87347 0.69782 0.53619 0.0
H1650 H 0.88258 0.71426 0.36909 0.0
H1651 H 0.8684 0.69904 0.4367 0.0
H1652 H 0.97067 0.70017 0.46577 0.0
H1653 H 0.9572 0.68848 0.5386 0.0
H1654 H 0.97525 0.7269 0.4036 0.0
H1655 H 0.96114 0.73518 0.34617 0.0
C1656 C 0.33187 0.27045 0.48075 0.0
C1657 C 0.34794 0.26231 0.49179 0.0
C1658 C 0.34192 0.24551 0.38232 0.0
C1659 C 0.32615 0.25387 0.37017 0.0
N1660 N 0.30657 0.27522 0.40389 0.0
N1661 N 0.36128 0.23467 0.46341 0.0
C1662 C 0.32113 0.26652 0.4186 0.0
C1663 C 0.35097 0.24775 0.4454 0.0
N1664 N 0.32631 0.28098 0.53021 0.0
N1665 N 0.34858 0.23556 0.33365 0.0
H1666 H 0.36707 0.23475 0.51053 0.0
H1667 H 0.36167 0.22172 0.43438 0.0
H1668 H 0.3418 0.23219 0.28704 0.0
H1669 H 0.36215 0.23208 0.33809 0.0
H1670 H 0.31463 0.28723 0.52671 0.0
H1671 H 0.33213 0.28182 0.57756 0.0
H1672 H 0.30256 0.28547 0.43483 0.0
H1673 H 0.29909 0.27311 0.35819 0.0
C1674 C 0.73879 0.10724 0.39951 0.0
C1675 C 0.74704 0.10444 0.46086 0.0
C1676 C 0.76344 0.08253 0.40496 0.0
C1677 C 0.76074 0.09128 0.34362 0.0
N1678 N 0.74854 0.11655 0.28727 0.0
N1679 N 0.77059 0.0912 0.51924 0.0
C1680 C 0.7489 0.10469 0.34167 0.0
C1681 C 0.7601 0.09232 0.46333 0.0
N1682 N 0.72129 0.11229 0.39644 0.0
N1683 N 0.76889 0.06472 0.40795 0.0
H1684 H 0.76983 0.09887 0.56306 0.0
H1685 H 0.78198 0.08442 0.52006 0.0
H1686 H 0.77013 0.05603 0.36662 0.0
H1687 H 0.76935 0.05684 0.45173 0.0
H1688 H 0.7139 0.11313 0.35246 0.0
H1689 H 0.71257 0.11247 0.43809 0.0
H1690 H 0.74132 0.12778 0.28705 0.0
H1691 H 0.75764 0.11768 0.24551 0.0
C1692 C 0.0084 0.42059 0.23452 0.0
C1693 C 0.98805 0.40444 0.20963 0.0
C1694 C 0.97975 0.38442 0.3142 0.0
C1695 C 0.99774 0.40333 0.34238 0.0
N1696 N 0.03539 0.42979 0.32107 0.0
N1697 N 0.95886 0.3668 0.21557 0.0
C1698 C 0.0142 0.41848 0.30001 0.0
C1699 C 0.97525 0.38478 0.24631 0.0
N1700 N 0.02167 0.43838 0.19655 0.0
N1701 N 0.9672 0.36635 0.35248 0.0
H1702 H 0.95601 0.36704 0.16555 0.0
H1703 H 0.94934 0.35127 0.23758 0.0
H1704 H 0.97209 0.36452 0.39958 0.0
H1705 H 0.95251 0.35305 0.33757 0.0
H1706 H 0.03541 0.45229 0.21454 0.0
H1707 H 0.01833 0.43937 0.14725 0.0
H1708 H 0.04822 0.44016 0.29099 0.0
H1709 H 0.0406 0.42599 0.36534 0.0
C1710 C 0.59827 0.62655 0.18896 0.0
C1711 C 0.589 0.60439 0.16068 0.0
C1712 C 0.58186 0.58796 0.27033 0.0
C1713 C 0.58588 0.6094 0.29646 0.0
N1714 N 0.5993 0.64975 0.28323 0.0
N1715 N 0.56831 0.56358 0.17641 0.0
C1716 C 0.59483 0.62899 0.25656 0.0
C1717 C 0.5802 0.58489 0.20184 0.0
N1718 N 0.61057 0.64505 0.15173 0.0
N1719 N 0.57859 0.57029 0.3111 0.0
H1720 H 0.56442 0.56038 0.1271 0.0
H1721 H 0.55996 0.54929 0.20536 0.0
H1722 H 0.57958 0.57224 0.36172 0.0
H1723 H 0.57726 0.55462 0.29449 0.0
H1724 H 0.61914 0.6614 0.17081 0.0
H1725 H 0.61389 0.64367 0.10267 0.0
H1726 H 0.60361 0.66448 0.25581 0.0
H1727 H 0.59793 0.65186 0.33329 0.0
C1728 C 0.39445 0.01887 0.26936 0.0
C1729 C 0.40511 0.00812 0.30613 0.0
C1730 C 0.41358 0.9934 0.20452 0.0
C1731 C 0.40431 0.00539 0.16754 0.0
N1732 N 0.38949 0.0329 0.16371 0.0
N1733 N 0.43042 0.99101 0.30635 0.0
C1734 C 0.39589 0.01923 0.19968 0.0
C1735 C 0.41615 0.99693 0.27303 0.0
N1736 N 0.38223 0.0279 0.30061 0.0
N1737 N 0.4202 0.97876 0.17425 0.0
H1738 H 0.43405 0.99458 0.35568 0.0
H1739 H 0.44066 0.98504 0.28367 0.0
H1740 H 0.41976 0.97649 0.12382 0.0
H1741 H 0.42453 0.9675 0.19963 0.0
H1742 H 0.37235 0.03397 0.2763 0.0
H1743 H 0.38053 0.02764 0.35117 0.0
H1744 H 0.38563 0.04532 0.18424 0.0
H1745 H 0.38952 0.03292 0.11281 0.0
C1746 C 0.58975 0.00686 0.77899 0.0
C1747 C 0.57377 0.00523 0.82619 0.0
C1748 C 0.56049 0.02601 0.75234 0.0
C1749 C 0.57859 0.03053 0.71029 0.0
N1750 N 0.61327 0.02925 0.69211 0.0
N1751 N 0.54485 0.01515 0.85994 0.0
C1752 C 0.59406 0.02212 0.72597 0.0
C1753 C 0.55961 0.01566 0.81386 0.0
N1754 N 0.60016 0.99314 0.78274 0.0
N1755 N 0.5434 0.03027 0.73186 0.0
H1756 H 0.5426 0.00648 0.90384 0.0
H1757 H 0.53594 0.0247 0.85654 0.0
H1758 H 0.54275 0.03665 0.68574 0.0
H1759 H 0.52876 0.02514 0.75752 0.0
H1760 H 0.61012 0.992 0.74556 0.0
H1761 H 0.59682 0.98108 0.81919 0.0
H1762 H 0.62597 0.02524 0.70619 0.0
H1763 H 0.61747 0.04101 0.65422 0.0
C1764 C 0.0279 0.62067 0.69497 0.0
C1765 C 0.01025 0.59933 0.67913 0.0
C1766 C 0.01316 0.58495 0.78732 0.0
C1767 C 0.03288 0.60469 0.7989 0.0
N1768 N 0.05975 0.64145 0.76405 0.0
N1769 N 0.98946 0.55944 0.70542 0.0
C1770 C 0.04045 0.62266 0.75279 0.0
C1771 C 0.00365 0.58103 0.72421 0.0
N1772 N 0.03225 0.63907 0.656 0.0
N1773 N 0.00358 0.56975 0.8364 0.0
H1774 H 0.98317 0.55527 0.65823 0.0
H1775 H 0.98596 0.54519 0.73442 0.0
H1776 H 0.01004 0.57215 0.88352 0.0
H1777 H 0.98809 0.55608 0.83206 0.0
H1778 H 0.04357 0.65554 0.66812 0.0
H1779 H 0.02322 0.63817 0.6139 0.0
H1780 H 0.06841 0.64392 0.80782 0.0
H1781 H 0.06753 0.65403 0.72938 0.0
C1782 C 0.42484 0.41648 0.71189 0.0
C1783 C 0.43557 0.43265 0.66207 0.0
C1784 C 0.43784 0.46329 0.73495 0.0
C1785 C 0.42408 0.44701 0.78067 0.0
N1786 N 0.40349 0.40748 0.81114 0.0
N1787 N 0.45008 0.47144 0.62343 0.0
C1788 C 0.41734 0.4234 0.76896 0.0
C1789 C 0.44115 0.456 0.6725 0.0
N1790 N 0.42239 0.39463 0.70571 0.0
N1791 N 0.44908 0.48566 0.75293 0.0
H1792 H 0.45387 0.46723 0.57759 0.0
H1793 H 0.45219 0.48821 0.62667 0.0
H1794 H 0.44854 0.4915 0.80001 0.0
H1795 H 0.46106 0.49785 0.72396 0.0
H1796 H 0.41715 0.38283 0.74347 0.0
H1797 H 0.4272 0.3887 0.66436 0.0
H1798 H 0.39552 0.39018 0.79998 0.0
H1799 H 0.399 0.41143 0.85617 0.0
loop_
_geom_bond_atom_site_label_1
_geom_bond_atom_site_label_2
_geom_bond_distance
_geom_bond_site_symmetry_2
_ccdc_geom_bond_type
Co0 O1 2.216 . S
Co0 O2 2.091 . S
Co0 O4 2.004 . S
Co0 O10 2.021 . S
Co0 O12 2.137 . S
Co0 O13 2.244 . S
O1 Co0 2.216 . S
O1 C8 1.247 . S
O2 Co0 2.091 . S
O2 C8 1.261 . S
C3 O12 1.247 . S
C3 O13 1.272 . S
O4 Co0 2.004 . S
O4 C9 1.259 . S
Co5 O6 2.061 . S
Co5 O11 2.052 . S
Co5 O13 2.135 . S
O6 Co5 2.061 . S
O6 C9 1.235 . S
C7 O10 1.238 . S
C7 O11 1.241 . S
C8 O1 1.247 . S
C8 O2 1.261 . S
C9 O4 1.259 . S
C9 O6 1.235 . S
O10 Co0 2.021 . S
O10 C7 1.238 . S
O11 Co5 2.052 . S
O11 C7 1.241 . S
O12 Co0 2.137 . S
O12 C3 1.247 . S
O13 Co0 2.244 . S
O13 C3 1.272 . S
O13 Co5 2.135 . S
Co14 O15 2.216 . S
Co14 O16 2.091 . S
Co14 O18 2.004 . S
Co14 O24 2.021 . S
Co14 O26 2.137 . S
Co14 O27 2.244 . S
O15 Co14 2.216 . S
O15 C22 1.247 . S
O16 Co14 2.091 . S
O16 C22 1.261 . S
C17 O26 1.247 . S
C17 O27 1.272 . S
O18 Co14 2.004 . S
O18 C23 1.259 . S
Co19 O20 2.061 . S
Co19 O25 2.052 . S
Co19 O27 2.135 . S
O20 Co19 2.061 . S
O20 C23 1.235 . S
C21 O24 1.238 . S
C21 O25 1.241 . S
C22 O15 1.247 . S
C22 O16 1.261 . S
C23 O18 1.259 . S
C23 O20 1.235 . S
O24 Co14 2.021 . S
O24 C21 1.238 . S
O25 Co19 2.052 . S
O25 C21 1.241 . S
O26 Co14 2.137 . S
O26 C17 1.247 . S
O27 Co14 2.244 . S
O27 C17 1.272 . S
O27 Co19 2.135 . S
Co28 O29 2.216 . S
Co28 O30 2.091 . S
Co28 O32 2.004 . S
Co28 O38 2.021 . S
Co28 O40 2.137 . S
Co28 O41 2.244 . S
O29 Co28 2.216 . S
O29 C36 1.247 . S
O30 Co28 2.091 . S
O30 C36 1.261 . S
C31 O40 1.247 . S
C31 O41 1.272 . S
O32 Co28 2.004 . S
O32 C37 1.259 . S
Co33 O34 2.061 . S
Co33 O39 2.052 . S
Co33 O41 2.135 . S
O34 Co33 2.061 . S
O34 C37 1.235 . S
C35 O38 1.238 . S
C35 O39 1.241 . S
C36 O29 1.247 . S
C36 O30 1.261 . S
C37 O32 1.259 . S
C37 O34 1.235 . S
O38 Co28 2.021 . S
O38 C35 1.238 . S
O39 Co33 2.052 . S
O39 C35 1.241 . S
O40 Co28 2.137 . S
O40 C31 1.247 . S
O41 Co28 2.244 . S
O41 C31 1.272 . S
O41 Co33 2.135 . S
Co42 O43 2.216 . S
Co42 O44 2.091 . S
Co42 O46 2.004 . S
Co42 O52 2.021 . S
Co42 O54 2.137 . S
Co42 O55 2.244 . S
O43 Co42 2.216 . S
O43 C50 1.247 . S
O44 Co42 2.091 . S
O44 C50 1.261 . S
C45 O54 1.247 . S
C45 O55 1.272 . S
O46 Co42 2.004 . S
O46 C51 1.259 . S
Co47 O48 2.061 . S
Co47 O53 2.052 . S
Co47 O55 2.135 . S
O48 Co47 2.061 . S
O48 C51 1.235 . S
C49 O52 1.238 . S
C49 O53 1.241 . S
C50 O43 1.247 . S
C50 O44 1.261 . S
C51 O46 1.259 . S
C51 O48 1.235 . S
O52 Co42 2.021 . S
O52 C49 1.238 . S
O53 Co47 2.052 . S
O53 C49 1.241 . S
O54 Co42 2.137 . S
O54 C45 1.247 . S
O55 Co42 2.244 . S
O55 C45 1.272 . S
O55 Co47 2.135 . S
Co56 O57 2.216 . S
Co56 O58 2.091 . S
Co56 O60 2.004 . S
Co56 O66 2.021 . S
Co56 O68 2.137 . S
Co56 O69 2.244 . S
O57 Co56 2.216 . S
O57 C64 1.247 . S
O58 Co56 2.091 . S
O58 C64 1.261 . S
C59 O68 1.247 . S
C59 O69 1.272 . S
O60 Co56 2.004 . S
O60 C65 1.259 . S
Co61 O62 2.061 . S
Co61 O67 2.052 . S
Co61 O69 2.135 . S
O62 Co61 2.061 . S
O62 C65 1.235 . S
C63 O66 1.238 . S
C63 O67 1.241 . S
C64 O57 1.247 . S
C64 O58 1.261 . S
C65 O60 1.259 . S
C65 O62 1.235 . S
O66 Co56 2.021 . S
O66 C63 1.238 . S
O67 Co61 2.052 . S
O67 C63 1.241 . S
O68 Co56 2.137 . S
O68 C59 1.247 . S
O69 Co56 2.244 . S
O69 C59 1.272 . S
O69 Co61 2.135 . S
Co70 O71 2.216 . S
Co70 O72 2.091 . S
Co70 O74 2.004 . S
Co70 O80 2.021 . S
Co70 O82 2.137 . S
Co70 O83 2.244 . S
O71 Co70 2.216 . S
O71 C78 1.247 . S
O72 Co70 2.091 . S
O72 C78 1.261 . S
C73 O82 1.247 . S
C73 O83 1.272 . S
O74 Co70 2.004 . S
O74 C79 1.259 . S
Co75 O76 2.061 . S
Co75 O81 2.052 . S
Co75 O83 2.135 . S
O76 Co75 2.061 . S
O76 C79 1.235 . S
C77 O80 1.238 . S
C77 O81 1.241 . S
C78 O71 1.247 . S
C78 O72 1.261 . S
C79 O74 1.259 . S
C79 O76 1.235 . S
O80 Co70 2.021 . S
O80 C77 1.238 . S
O81 Co75 2.052 . S
O81 C77 1.241 . S
O82 Co70 2.137 . S
O82 C73 1.247 . S
O83 Co70 2.244 . S
O83 C73 1.272 . S
O83 Co75 2.135 . S
Co84 O85 2.216 . S
Co84 O86 2.091 . S
Co84 O88 2.004 . S
Co84 O94 2.021 . S
Co84 O96 2.137 . S
Co84 O97 2.244 . S
O85 Co84 2.216 . S
O85 C92 1.247 . S
O86 Co84 2.091 . S
O86 C92 1.261 . S
C87 O96 1.247 . S
C87 O97 1.272 . S
O88 Co84 2.004 . S
O88 C93 1.259 . S
Co89 O90 2.061 . S
Co89 O95 2.052 . S
Co89 O97 2.135 . S
O90 Co89 2.061 . S
O90 C93 1.235 . S
C91 O94 1.238 . S
C91 O95 1.241 . S
C92 O85 1.247 . S
C92 O86 1.261 . S
C93 O88 1.259 . S
C93 O90 1.235 . S
O94 Co84 2.021 . S
O94 C91 1.238 . S
O95 Co89 2.052 . S
O95 C91 1.241 . S
O96 Co84 2.137 . S
O96 C87 1.247 . S
O97 Co84 2.244 . S
O97 C87 1.272 . S
O97 Co89 2.135 . S
Co98 O99 2.216 . S
Co98 O100 2.091 . S
Co98 O102 2.004 . S
Co98 O108 2.021 . S
Co98 O110 2.137 . S
Co98 O111 2.244 . S
O99 Co98 2.216 . S
O99 C106 1.247 . S
O100 Co98 2.091 . S
O100 C106 1.261 . S
C101 O110 1.247 . S
C101 O111 1.272 . S
O102 Co98 2.004 . S
O102 C107 1.259 . S
Co103 O104 2.061 . S
Co103 O109 2.052 . S
Co103 O111 2.135 . S
O104 Co103 2.061 . S
O104 C107 1.235 . S
C105 O108 1.238 . S
C105 O109 1.241 . S
C106 O99 1.247 . S
C106 O100 1.261 . S
C107 O102 1.259 . S
C107 O104 1.235 . S
O108 Co98 2.021 . S
O108 C105 1.238 . S
O109 Co103 2.052 . S
O109 C105 1.241 . S
O110 Co98 2.137 . S
O110 C101 1.247 . S
O111 Co98 2.244 . S
O111 C101 1.272 . S
O111 Co103 2.135 . S
Co112 O113 2.216 . S
Co112 O114 2.091 . S
Co112 O116 2.004 . S
Co112 O122 2.021 . S
Co112 O124 2.137 . S
Co112 O125 2.244 . S
O113 Co112 2.216 . S
O113 C120 1.247 . S
O114 Co112 2.091 . S
O114 C120 1.261 . S
C115 O124 1.247 . S
C115 O125 1.272 . S
O116 Co112 2.004 . S
O116 C121 1.259 . S
Co117 O118 2.061 . S
Co117 O123 2.052 . S
Co117 O125 2.135 . S
O118 Co117 2.061 . S
O118 C121 1.235 . S
C119 O122 1.238 . S
C119 O123 1.241 . S
C120 O113 1.247 . S
C120 O114 1.261 . S
C121 O116 1.259 . S
C121 O118 1.235 . S
O122 Co112 2.021 . S
O122 C119 1.238 . S
O123 Co117 2.052 . S
O123 C119 1.241 . S
O124 Co112 2.137 . S
O124 C115 1.247 . S
O125 Co112 2.244 . S
O125 C115 1.272 . S
O125 Co117 2.135 . S
Co126 O127 2.216 . S
Co126 O128 2.091 . S
Co126 O130 2.004 . S
Co126 O136 2.021 . S
Co126 O138 2.137 . S
Co126 O139 2.244 . S
O127 Co126 2.216 . S
O127 C134 1.247 . S
O128 Co126 2.091 . S
O128 C134 1.261 . S
C129 O138 1.247 . S
C129 O139 1.272 . S
O130 Co126 2.004 . S
O130 C135 1.259 . S
Co131 O132 2.061 . S
Co131 O137 2.052 . S
Co131 O139 2.135 . S
O132 Co131 2.061 . S
O132 C135 1.235 . S
C133 O136 1.238 . S
C133 O137 1.241 . S
C134 O127 1.247 . S
C134 O128 1.261 . S
C135 O130 1.259 . S
C135 O132 1.235 . S
O136 Co126 2.021 . S
O136 C133 1.238 . S
O137 Co131 2.052 . S
O137 C133 1.241 . S
O138 Co126 2.137 . S
O138 C129 1.247 . S
O139 Co126 2.244 . S
O139 C129 1.272 . S
O139 Co131 2.135 . S
Co140 O141 2.216 . S
Co140 O142 2.091 . S
Co140 O144 2.004 . S
Co140 O150 2.021 . S
Co140 O152 2.137 . S
Co140 O153 2.244 . S
O141 Co140 2.216 . S
O141 C148 1.247 . S
O142 Co140 2.091 . S
O142 C148 1.261 . S
C143 O152 1.247 . S
C143 O153 1.272 . S
O144 Co140 2.004 . S
O144 C149 1.259 . S
Co145 O146 2.061 . S
Co145 O151 2.052 . S
Co145 O153 2.135 . S
O146 Co145 2.061 . S
O146 C149 1.235 . S
C147 O150 1.238 . S
C147 O151 1.241 . S
C148 O141 1.247 . S
C148 O142 1.261 . S
C149 O144 1.259 . S
C149 O146 1.235 . S
O150 Co140 2.021 . S
O150 C147 1.238 . S
O151 Co145 2.052 . S
O151 C147 1.241 . S
O152 Co140 2.137 . S
O152 C143 1.247 . S
O153 Co140 2.244 . S
O153 C143 1.272 . S
O153 Co145 2.135 . S
Co154 O155 2.216 . S
Co154 O156 2.091 . S
Co154 O158 2.004 . S
Co154 O164 2.021 . S
Co154 O166 2.137 . S
Co154 O167 2.244 . S
O155 Co154 2.216 . S
O155 C162 1.247 . S
O156 Co154 2.091 . S
O156 C162 1.261 . S
C157 O166 1.247 . S
C157 O167 1.272 . S
O158 Co154 2.004 . S
O158 C163 1.259 . S
Co159 O160 2.061 . S
Co159 O165 2.052 . S
Co159 O167 2.135 . S
O160 Co159 2.061 . S
O160 C163 1.235 . S
C161 O164 1.238 . S
C161 O165 1.241 . S
C162 O155 1.247 . S
C162 O156 1.261 . S
C163 O158 1.259 . S
C163 O160 1.235 . S
O164 Co154 2.021 . S
O164 C161 1.238 . S
O165 Co159 2.052 . S
O165 C161 1.241 . S
O166 Co154 2.137 . S
O166 C157 1.247 . S
O167 Co154 2.244 . S
O167 C157 1.272 . S
O167 Co159 2.135 . S
Co168 O169 2.216 . S
Co168 O170 2.091 . S
Co168 O172 2.004 . S
Co168 O178 2.021 1_455 S
Co168 O180 2.137 . S
Co168 O181 2.244 1_455 S
O169 Co168 2.216 . S
O169 C176 1.247 . S
O170 Co168 2.091 . S
O170 C176 1.261 . S
C171 O180 1.247 1_655 S
C171 O181 1.272 . S
O172 Co168 2.004 . S
O172 C177 1.259 . S
Co173 O174 2.061 . S
Co173 O179 2.052 . S
Co173 O181 2.135 . S
O174 Co173 2.061 . S
O174 C177 1.235 1_655 S
C175 O178 1.238 . S
C175 O179 1.241 . S
C176 O169 1.247 . S
C176 O170 1.261 . S
C177 O172 1.259 . S
C177 O174 1.235 1_455 S
O178 Co168 2.021 1_655 S
O178 C175 1.238 . S
O179 Co173 2.052 . S
O179 C175 1.241 . S
O180 Co168 2.137 . S
O180 C171 1.247 1_455 S
O181 Co168 2.244 1_655 S
O181 C171 1.272 . S
O181 Co173 2.135 . S
Co182 O183 2.216 . S
Co182 O184 2.091 . S
Co182 O186 2.004 . S
Co182 O192 2.021 . S
Co182 O194 2.137 . S
Co182 O195 2.244 . S
O183 Co182 2.216 . S
O183 C190 1.247 . S
O184 Co182 2.091 . S
O184 C190 1.261 . S
C185 O194 1.247 . S
C185 O195 1.272 . S
O186 Co182 2.004 . S
O186 C191 1.259 . S
Co187 O188 2.061 . S
Co187 O193 2.052 . S
Co187 O195 2.135 . S
O188 Co187 2.061 . S
O188 C191 1.235 . S
C189 O192 1.238 . S
C189 O193 1.241 . S
C190 O183 1.247 . S
C190 O184 1.261 . S
C191 O186 1.259 . S
C191 O188 1.235 . S
O192 Co182 2.021 . S
O192 C189 1.238 . S
O193 Co187 2.052 . S
O193 C189 1.241 . S
O194 Co182 2.137 . S
O194 C185 1.247 . S
O195 Co182 2.244 . S
O195 C185 1.272 . S
O195 Co187 2.135 . S
Co196 O197 2.216 . S
Co196 O198 2.091 . S
Co196 O200 2.004 . S
Co196 O206 2.021 . S
Co196 O208 2.137 . S
Co196 O209 2.244 . S
O197 Co196 2.216 . S
O197 C204 1.247 . S
O198 Co196 2.091 . S
O198 C204 1.261 . S
C199 O208 1.247 . S
C199 O209 1.272 . S
O200 Co196 2.004 . S
O200 C205 1.259 . S
Co201 O202 2.061 1_545 S
Co201 O207 2.052 . S
Co201 O209 2.135 1_545 S
O202 Co201 2.061 1_565 S
O202 C205 1.235 . S
C203 O206 1.238 . S
C203 O207 1.241 1_565 S
C204 O197 1.247 . S
C204 O198 1.261 . S
C205 O200 1.259 . S
C205 O202 1.235 . S
O206 Co196 2.021 . S
O206 C203 1.238 . S
O207 Co201 2.052 . S
O207 C203 1.241 1_545 S
O208 Co196 2.137 . S
O208 C199 1.247 . S
O209 Co196 2.244 . S
O209 C199 1.272 . S
O209 Co201 2.135 1_565 S
Co210 O211 2.216 . S
Co210 O212 2.091 . S
Co210 O214 2.004 . S
Co210 O220 2.021 . S
Co210 O222 2.137 . S
Co210 O223 2.244 . S
O211 Co210 2.216 . S
O211 C218 1.247 . S
O212 Co210 2.091 . S
O212 C218 1.261 . S
C213 O222 1.247 . S
C213 O223 1.272 . S
O214 Co210 2.004 . S
O214 C219 1.259 . S
Co215 O216 2.061 . S
Co215 O221 2.052 . S
Co215 O223 2.135 . S
O216 Co215 2.061 . S
O216 C219 1.235 . S
C217 O220 1.238 . S
C217 O221 1.241 . S
C218 O211 1.247 . S
C218 O212 1.261 . S
C219 O214 1.259 . S
C219 O216 1.235 . S
O220 Co210 2.021 . S
O220 C217 1.238 . S
O221 Co215 2.052 . S
O221 C217 1.241 . S
O222 Co210 2.137 . S
O222 C213 1.247 . S
O223 Co210 2.244 . S
O223 C213 1.272 . S
O223 Co215 2.135 . S
Co224 O225 2.216 . S
Co224 O226 2.091 . S
Co224 O228 2.004 . S
Co224 O234 2.021 . S
Co224 O236 2.137 . S
Co224 O237 2.244 . S
O225 Co224 2.216 . S
O225 C232 1.247 . S
O226 Co224 2.091 . S
O226 C232 1.261 . S
C227 O236 1.247 . S
C227 O237 1.272 . S
O228 Co224 2.004 . S
O228 C233 1.259 . S
Co229 O230 2.061 . S
Co229 O235 2.052 . S
Co229 O237 2.135 . S
O230 Co229 2.061 . S
O230 C233 1.235 . S
C231 O234 1.238 . S
C231 O235 1.241 . S
C232 O225 1.247 . S
C232 O226 1.261 . S
C233 O228 1.259 . S
C233 O230 1.235 . S
O234 Co224 2.021 . S
O234 C231 1.238 . S
O235 Co229 2.052 . S
O235 C231 1.241 . S
O236 Co224 2.137 . S
O236 C227 1.247 . S
O237 Co224 2.244 . S
O237 C227 1.272 . S
O237 Co229 2.135 . S
Co238 O239 2.216 . S
Co238 O240 2.091 . S
Co238 O242 2.004 . S
Co238 O248 2.021 . S
Co238 O250 2.137 . S
Co238 O251 2.244 . S
O239 Co238 2.216 . S
O239 C246 1.247 . S
O240 Co238 2.091 . S
O240 C246 1.261 . S
C241 O250 1.247 . S
C241 O251 1.272 . S
O242 Co238 2.004 . S
O242 C247 1.259 . S
Co243 O244 2.061 . S
Co243 O249 2.052 . S
Co243 O251 2.135 . S
O244 Co243 2.061 . S
O244 C247 1.235 . S
C245 O248 1.238 . S
C245 O249 1.241 . S
C246 O239 1.247 . S
C246 O240 1.261 . S
C247 O242 1.259 . S
C247 O244 1.235 . S
O248 Co238 2.021 . S
O248 C245 1.238 . S
O249 Co243 2.052 . S
O249 C245 1.241 . S
O250 Co238 2.137 . S
O250 C241 1.247 . S
O251 Co238 2.244 . S
O251 C241 1.272 . S
O251 Co243 2.135 . S
Co252 O253 2.216 . S
Co252 O254 2.091 . S
Co252 O256 2.004 . S
Co252 O262 2.021 . S
Co252 O264 2.137 . S
Co252 O265 2.244 . S
O253 Co252 2.216 . S
O253 C260 1.247 . S
O254 Co252 2.091 . S
O254 C260 1.261 . S
C255 O264 1.247 . S
C255 O265 1.272 . S
O256 Co252 2.004 . S
O256 C261 1.259 . S
Co257 O258 2.061 . S
Co257 O263 2.052 . S
Co257 O265 2.135 . S
O258 Co257 2.061 . S
O258 C261 1.235 . S
C259 O262 1.238 . S
C259 O263 1.241 . S
C260 O253 1.247 . S
C260 O254 1.261 . S
C261 O256 1.259 . S
C261 O258 1.235 . S
O262 Co252 2.021 . S
O262 C259 1.238 . S
O263 Co257 2.052 . S
O263 C259 1.241 . S
O264 Co252 2.137 . S
O264 C255 1.247 . S
O265 Co252 2.244 . S
O265 C255 1.272 . S
O265 Co257 2.135 . S
Co266 O267 2.216 . S
Co266 O268 2.091 . S
Co266 O270 2.004 . S
Co266 O276 2.021 . S
Co266 O278 2.137 . S
Co266 O279 2.244 . S
O267 Co266 2.216 . S
O267 C274 1.247 . S
O268 Co266 2.091 . S
O268 C274 1.261 . S
C269 O278 1.247 . S
C269 O279 1.272 . S
O270 Co266 2.004 . S
O270 C275 1.259 . S
Co271 O272 2.061 . S
Co271 O277 2.052 . S
Co271 O279 2.135 . S
O272 Co271 2.061 . S
O272 C275 1.235 . S
C273 O276 1.238 . S
C273 O277 1.241 . S
C274 O267 1.247 . S
C274 O268 1.261 . S
C275 O270 1.259 . S
C275 O272 1.235 . S
O276 Co266 2.021 . S
O276 C273 1.238 . S
O277 Co271 2.052 . S
O277 C273 1.241 . S
O278 Co266 2.137 . S
O278 C269 1.247 . S
O279 Co266 2.244 . S
O279 C269 1.272 . S
O279 Co271 2.135 . S
Co280 O281 2.216 . S
Co280 O282 2.091 . S
Co280 O284 2.004 . S
Co280 O290 2.021 . S
Co280 O292 2.137 . S
Co280 O293 2.244 . S
O281 Co280 2.216 . S
O281 C288 1.247 . S
O282 Co280 2.091 . S
O282 C288 1.261 . S
C283 O292 1.247 . S
C283 O293 1.272 . S
O284 Co280 2.004 . S
O284 C289 1.259 . S
Co285 O286 2.061 . S
Co285 O291 2.052 . S
Co285 O293 2.135 . S
O286 Co285 2.061 . S
O286 C289 1.235 . S
C287 O290 1.238 . S
C287 O291 1.241 . S
C288 O281 1.247 . S
C288 O282 1.261 . S
C289 O284 1.259 . S
C289 O286 1.235 . S
O290 Co280 2.021 . S
O290 C287 1.238 . S
O291 Co285 2.052 . S
O291 C287 1.241 . S
O292 Co280 2.137 . S
O292 C283 1.247 . S
O293 Co280 2.244 . S
O293 C283 1.272 . S
O293 Co285 2.135 . S
Co294 O295 2.216 1_545 S
Co294 O296 2.091 . S
Co294 O298 2.004 1_554 S
Co294 O304 2.021 . S
Co294 O306 2.137 1_545 S
Co294 O307 2.244 1_544 S
O295 Co294 2.216 1_565 S
O295 C302 1.247 1_565 S
O296 Co294 2.091 . S
O296 C302 1.261 . S
C297 O306 1.247 1_556 S
C297 O307 1.272 . S
O298 Co294 2.004 1_556 S
O298 C303 1.259 . S
Co299 O300 2.061 . S
Co299 O305 2.052 . S
Co299 O307 2.135 . S
O300 Co299 2.061 . S
O300 C303 1.235 1_565 S
C301 O304 1.238 1_566 S
C301 O305 1.241 . S
C302 O295 1.247 1_545 S
C302 O296 1.261 . S
C303 O298 1.259 . S
C303 O300 1.235 1_545 S
O304 Co294 2.021 . S
O304 C301 1.238 1_544 S
O305 Co299 2.052 . S
O305 C301 1.241 . S
O306 Co294 2.137 1_565 S
O306 C297 1.247 1_554 S
O307 Co294 2.244 1_566 S
O307 C297 1.272 . S
O307 Co299 2.135 . S
Co308 O309 2.216 . S
Co308 O310 2.091 . S
Co308 O312 2.004 1_554 S
Co308 O318 2.021 . S
Co308 O320 2.137 . S
Co308 O321 2.244 1_554 S
O309 Co308 2.216 . S
O309 C316 1.247 . S
O310 Co308 2.091 . S
O310 C316 1.261 . S
C311 O320 1.247 1_556 S
C311 O321 1.272 . S
O312 Co308 2.004 1_556 S
O312 C317 1.259 . S
Co313 O314 2.061 . S
Co313 O319 2.052 . S
Co313 O321 2.135 . S
O314 Co313 2.061 . S
O314 C317 1.235 . S
C315 O318 1.238 1_556 S
C315 O319 1.241 . S
C316 O309 1.247 . S
C316 O310 1.261 . S
C317 O312 1.259 . S
C317 O314 1.235 . S
O318 Co308 2.021 . S
O318 C315 1.238 1_554 S
O319 Co313 2.052 . S
O319 C315 1.241 . S
O320 Co308 2.137 . S
O320 C311 1.247 1_554 S
O321 Co308 2.244 1_556 S
O321 C311 1.272 . S
O321 Co313 2.135 . S
Co322 O323 2.216 . S
Co322 O324 2.091 . S
Co322 O326 2.004 1_554 S
Co322 O332 2.021 . S
Co322 O334 2.137 . S
Co322 O335 2.244 1_554 S
O323 Co322 2.216 . S
O323 C330 1.247 . S
O324 Co322 2.091 . S
O324 C330 1.261 . S
C325 O334 1.247 1_556 S
C325 O335 1.272 . S
O326 Co322 2.004 1_556 S
O326 C331 1.259 . S
Co327 O328 2.061 . S
Co327 O333 2.052 . S
Co327 O335 2.135 . S
O328 Co327 2.061 . S
O328 C331 1.235 . S
C329 O332 1.238 1_556 S
C329 O333 1.241 . S
C330 O323 1.247 . S
C330 O324 1.261 . S
C331 O326 1.259 . S
C331 O328 1.235 . S
O332 Co322 2.021 . S
O332 C329 1.238 1_554 S
O333 Co327 2.052 . S
O333 C329 1.241 . S
O334 Co322 2.137 . S
O334 C325 1.247 1_554 S
O335 Co322 2.244 1_556 S
O335 C325 1.272 . S
O335 Co327 2.135 . S
Co336 O337 2.216 . S
Co336 O338 2.091 . S
Co336 O340 2.004 . S
Co336 O346 2.021 . S
Co336 O348 2.137 . S
Co336 O349 2.244 . S
O337 Co336 2.216 . S
O337 C344 1.247 . S
O338 Co336 2.091 . S
O338 C344 1.261 . S
C339 O348 1.247 . S
C339 O349 1.272 . S
O340 Co336 2.004 . S
O340 C345 1.259 . S
Co341 O342 2.061 . S
Co341 O347 2.052 . S
Co341 O349 2.135 . S
O342 Co341 2.061 . S
O342 C345 1.235 . S
C343 O346 1.238 . S
C343 O347 1.241 . S
C344 O337 1.247 . S
C344 O338 1.261 . S
C345 O340 1.259 . S
C345 O342 1.235 . S
O346 Co336 2.021 . S
O346 C343 1.238 . S
O347 Co341 2.052 . S
O347 C343 1.241 . S
O348 Co336 2.137 . S
O348 C339 1.247 . S
O349 Co336 2.244 . S
O349 C339 1.272 . S
O349 Co341 2.135 . S
Co350 O351 2.216 . S
Co350 O352 2.091 . S
Co350 O354 2.004 . S
Co350 O360 2.021 . S
Co350 O362 2.137 . S
Co350 O363 2.244 . S
O351 Co350 2.216 . S
O351 C358 1.247 . S
O352 Co350 2.091 . S
O352 C358 1.261 . S
C353 O362 1.247 . S
C353 O363 1.272 . S
O354 Co350 2.004 . S
O354 C359 1.259 . S
Co355 O356 2.061 . S
Co355 O361 2.052 . S
Co355 O363 2.135 . S
O356 Co355 2.061 . S
O356 C359 1.235 . S
C357 O360 1.238 . S
C357 O361 1.241 . S
C358 O351 1.247 . S
C358 O352 1.261 . S
C359 O354 1.259 . S
C359 O356 1.235 . S
O360 Co350 2.021 . S
O360 C357 1.238 . S
O361 Co355 2.052 . S
O361 C357 1.241 . S
O362 Co350 2.137 . S
O362 C353 1.247 . S
O363 Co350 2.244 . S
O363 C353 1.272 . S
O363 Co355 2.135 . S
Co364 O365 2.216 . S
Co364 O366 2.091 . S
Co364 O368 2.004 . S
Co364 O374 2.021 . S
Co364 O376 2.137 . S
Co364 O377 2.244 . S
O365 Co364 2.216 . S
O365 C372 1.247 . S
O366 Co364 2.091 . S
O366 C372 1.261 . S
C367 O376 1.247 . S
C367 O377 1.272 . S
O368 Co364 2.004 . S
O368 C373 1.259 . S
Co369 O370 2.061 . S
Co369 O375 2.052 . S
Co369 O377 2.135 . S
O370 Co369 2.061 . S
O370 C373 1.235 . S
C371 O374 1.238 . S
C371 O375 1.241 . S
C372 O365 1.247 . S
C372 O366 1.261 . S
C373 O368 1.259 . S
C373 O370 1.235 . S
O374 Co364 2.021 . S
O374 C371 1.238 . S
O375 Co369 2.052 . S
O375 C371 1.241 . S
O376 Co364 2.137 . S
O376 C367 1.247 . S
O377 Co364 2.244 . S
O377 C367 1.272 . S
O377 Co369 2.135 . S
Co378 O379 2.216 1_556 S
Co378 O380 2.091 1_556 S
Co378 O382 2.004 . S
Co378 O388 2.021 1_546 S
Co378 O390 2.137 . S
Co378 O391 2.244 1_545 S
O379 Co378 2.216 1_554 S
O379 C386 1.247 . S
O380 Co378 2.091 1_554 S
O380 C386 1.261 . S
C381 O390 1.247 1_565 S
C381 O391 1.272 . S
O382 Co378 2.004 . S
O382 C387 1.259 . S
Co383 O384 2.061 . S
Co383 O389 2.052 1_556 S
Co383 O391 2.135 . S
O384 Co383 2.061 . S
O384 C387 1.235 1_565 S
C385 O388 1.238 . S
C385 O389 1.241 . S
C386 O379 1.247 . S
C386 O380 1.261 . S
C387 O382 1.259 . S
C387 O384 1.235 1_545 S
O388 Co378 2.021 1_564 S
O388 C385 1.238 . S
O389 Co383 2.052 1_554 S
O389 C385 1.241 . S
O390 Co378 2.137 . S
O390 C381 1.247 1_545 S
O391 Co378 2.244 1_565 S
O391 C381 1.272 . S
O391 Co383 2.135 . S
Co392 O393 2.216 . S
Co392 O394 2.091 . S
Co392 O396 2.004 1_556 S
Co392 O402 2.021 . S
Co392 O404 2.137 . S
Co392 O405 2.244 1_556 S
O393 Co392 2.216 . S
O393 C400 1.247 . S
O394 Co392 2.091 . S
O394 C400 1.261 . S
C395 O404 1.247 1_554 S
C395 O405 1.272 . S
O396 Co392 2.004 1_554 S
O396 C401 1.259 . S
Co397 O398 2.061 . S
Co397 O403 2.052 . S
Co397 O405 2.135 . S
O398 Co397 2.061 . S
O398 C401 1.235 . S
C399 O402 1.238 1_554 S
C399 O403 1.241 . S
C400 O393 1.247 . S
C400 O394 1.261 . S
C401 O396 1.259 . S
C401 O398 1.235 . S
O402 Co392 2.021 . S
O402 C399 1.238 1_556 S
O403 Co397 2.052 . S
O403 C399 1.241 . S
O404 Co392 2.137 . S
O404 C395 1.247 1_556 S
O405 Co392 2.244 1_554 S
O405 C395 1.272 . S
O405 Co397 2.135 . S
Co406 O407 2.216 1_556 S
Co406 O408 2.091 1_556 S
Co406 O410 2.004 . S
Co406 O416 2.021 1_556 S
Co406 O418 2.137 . S
Co406 O419 2.244 . S
O407 Co406 2.216 1_554 S
O407 C414 1.247 . S
O408 Co406 2.091 1_554 S
O408 C414 1.261 . S
C409 O418 1.247 . S
C409 O419 1.272 . S
O410 Co406 2.004 . S
O410 C415 1.259 . S
Co411 O412 2.061 . S
Co411 O417 2.052 1_556 S
Co411 O419 2.135 . S
O412 Co411 2.061 . S
O412 C415 1.235 . S
C413 O416 1.238 . S
C413 O417 1.241 . S
C414 O407 1.247 . S
C414 O408 1.261 . S
C415 O410 1.259 . S
C415 O412 1.235 . S
O416 Co406 2.021 1_554 S
O416 C413 1.238 . S
O417 Co411 2.052 1_554 S
O417 C413 1.241 . S
O418 Co406 2.137 . S
O418 C409 1.247 . S
O419 Co406 2.244 . S
O419 C409 1.272 . S
O419 Co411 2.135 . S
Co420 O421 2.216 1_455 S
Co420 O422 2.091 . S
Co420 O424 2.004 . S
Co420 O430 2.021 . S
Co420 O432 2.137 1_455 S
Co420 O433 2.244 1_455 S
O421 Co420 2.216 1_655 S
O421 C428 1.247 1_655 S
O422 Co420 2.091 . S
O422 C428 1.261 . S
C423 O432 1.247 . S
C423 O433 1.272 . S
O424 Co420 2.004 . S
O424 C429 1.259 . S
Co425 O426 2.061 . S
Co425 O431 2.052 . S
Co425 O433 2.135 . S
O426 Co425 2.061 . S
O426 C429 1.235 1_655 S
C427 O430 1.238 1_655 S
C427 O431 1.241 . S
C428 O421 1.247 1_455 S
C428 O422 1.261 . S
C429 O424 1.259 . S
C429 O426 1.235 1_455 S
O430 Co420 2.021 . S
O430 C427 1.238 1_455 S
O431 Co425 2.052 . S
O431 C427 1.241 . S
O432 Co420 2.137 1_655 S
O432 C423 1.247 . S
O433 Co420 2.244 1_655 S
O433 C423 1.272 . S
O433 Co425 2.135 . S
Co434 O435 2.216 . S
Co434 O436 2.091 . S
Co434 O438 2.004 . S
Co434 O444 2.021 . S
Co434 O446 2.137 . S
Co434 O447 2.244 . S
O435 Co434 2.216 . S
O435 C442 1.247 . S
O436 Co434 2.091 . S
O436 C442 1.261 . S
C437 O446 1.247 . S
C437 O447 1.272 . S
O438 Co434 2.004 . S
O438 C443 1.259 . S
Co439 O440 2.061 . S
Co439 O445 2.052 . S
Co439 O447 2.135 . S
O440 Co439 2.061 . S
O440 C443 1.235 . S
C441 O444 1.238 . S
C441 O445 1.241 . S
C442 O435 1.247 . S
C442 O436 1.261 . S
C443 O438 1.259 . S
C443 O440 1.235 . S
O444 Co434 2.021 . S
O444 C441 1.238 . S
O445 Co439 2.052 . S
O445 C441 1.241 . S
O446 Co434 2.137 . S
O446 C437 1.247 . S
O447 Co434 2.244 . S
O447 C437 1.272 . S
O447 Co439 2.135 . S
Co448 O449 2.216 . S
Co448 O450 2.091 . S
Co448 O452 2.004 . S
Co448 O458 2.021 . S
Co448 O460 2.137 . S
Co448 O461 2.244 . S
O449 Co448 2.216 . S
O449 C456 1.247 . S
O450 Co448 2.091 . S
O450 C456 1.261 . S
C451 O460 1.247 . S
C451 O461 1.272 . S
O452 Co448 2.004 . S
O452 C457 1.259 . S
Co453 O454 2.061 . S
Co453 O459 2.052 . S
Co453 O461 2.135 . S
O454 Co453 2.061 . S
O454 C457 1.235 . S
C455 O458 1.238 . S
C455 O459 1.241 . S
C456 O449 1.247 . S
C456 O450 1.261 . S
C457 O452 1.259 . S
C457 O454 1.235 . S
O458 Co448 2.021 . S
O458 C455 1.238 . S
O459 Co453 2.052 . S
O459 C455 1.241 . S
O460 Co448 2.137 . S
O460 C451 1.247 . S
O461 Co448 2.244 . S
O461 C451 1.272 . S
O461 Co453 2.135 . S
Co462 O463 2.216 . S
Co462 O464 2.091 . S
Co462 O466 2.004 . S
Co462 O472 2.021 . S
Co462 O474 2.137 . S
Co462 O475 2.244 . S
O463 Co462 2.216 . S
O463 C470 1.247 . S
O464 Co462 2.091 . S
O464 C470 1.261 . S
C465 O474 1.247 . S
C465 O475 1.272 . S
O466 Co462 2.004 . S
O466 C471 1.259 . S
Co467 O468 2.061 . S
Co467 O473 2.052 . S
Co467 O475 2.135 . S
O468 Co467 2.061 . S
O468 C471 1.235 . S
C469 O472 1.238 . S
C469 O473 1.241 . S
C470 O463 1.247 . S
C470 O464 1.261 . S
C471 O466 1.259 . S
C471 O468 1.235 . S
O472 Co462 2.021 . S
O472 C469 1.238 . S
O473 Co467 2.052 . S
O473 C469 1.241 . S
O474 Co462 2.137 . S
O474 C465 1.247 . S
O475 Co462 2.244 . S
O475 C465 1.272 . S
O475 Co467 2.135 . S
Co476 O477 2.216 . S
Co476 O478 2.091 . S
Co476 O480 2.004 . S
Co476 O486 2.021 . S
Co476 O488 2.137 . S
Co476 O489 2.244 . S
O477 Co476 2.216 . S
O477 C484 1.247 . S
O478 Co476 2.091 . S
O478 C484 1.261 . S
C479 O488 1.247 . S
C479 O489 1.272 . S
O480 Co476 2.004 . S
O480 C485 1.259 . S
Co481 O482 2.061 . S
Co481 O487 2.052 . S
Co481 O489 2.135 . S
O482 Co481 2.061 . S
O482 C485 1.235 . S
C483 O486 1.238 . S
C483 O487 1.241 . S
C484 O477 1.247 . S
C484 O478 1.261 . S
C485 O480 1.259 . S
C485 O482 1.235 . S
O486 Co476 2.021 . S
O486 C483 1.238 . S
O487 Co481 2.052 . S
O487 C483 1.241 . S
O488 Co476 2.137 . S
O488 C479 1.247 . S
O489 Co476 2.244 . S
O489 C479 1.272 . S
O489 Co481 2.135 . S
Co490 O491 2.216 . S
Co490 O492 2.091 . S
Co490 O494 2.004 . S
Co490 O500 2.021 . S
Co490 O502 2.137 . S
Co490 O503 2.244 . S
O491 Co490 2.216 . S
O491 C498 1.247 . S
O492 Co490 2.091 . S
O492 C498 1.261 . S
C493 O502 1.247 . S
C493 O503 1.272 . S
O494 Co490 2.004 . S
O494 C499 1.259 . S
Co495 O496 2.061 . S
Co495 O501 2.052 . S
Co495 O503 2.135 . S
O496 Co495 2.061 . S
O496 C499 1.235 . S
C497 O500 1.238 . S
C497 O501 1.241 . S
C498 O491 1.247 . S
C498 O492 1.261 . S
C499 O494 1.259 . S
C499 O496 1.235 . S
O500 Co490 2.021 . S
O500 C497 1.238 . S
O501 Co495 2.052 . S
O501 C497 1.241 . S
O502 Co490 2.137 . S
O502 C493 1.247 . S
O503 Co490 2.244 . S
O503 C493 1.272 . S
O503 Co495 2.135 . S
C504 C505 1.363 . S
C504 C510 1.379 . S
C504 N512 1.356 . S
C505 C504 1.363 . S
C505 C511 1.363 . S
C506 C507 1.363 . S
C506 C511 1.379 . S
C506 N513 1.356 . S
C507 C506 1.363 . S
C507 C510 1.363 . S
N508 C510 1.356 . S
N508 H520 0.984 . S
N508 H521 0.985 . S
N509 C511 1.356 . S
N509 H514 0.984 . S
N509 H515 0.985 . S
C510 C504 1.379 . S
C510 C507 1.363 . S
C510 N508 1.356 . S
C511 C505 1.363 . S
C511 C506 1.379 . S
C511 N509 1.356 . S
N512 C504 1.356 . S
N512 H518 0.984 . S
N512 H519 0.984 . S
N513 C506 1.356 . S
N513 H516 0.984 . S
N513 H517 0.985 . S
H514 N509 0.984 . S
H515 N509 0.985 . S
H516 N513 0.984 . S
H517 N513 0.985 . S
H518 N512 0.984 . S
H519 N512 0.984 . S
H520 N508 0.984 . S
H521 N508 0.985 . S
C522 C523 1.363 . S
C522 C528 1.379 . S
C522 N530 1.356 . S
C523 C522 1.363 . S
C523 C529 1.363 . S
C524 C525 1.363 . S
C524 C529 1.379 . S
C524 N531 1.356 . S
C525 C524 1.363 . S
C525 C528 1.363 . S
N526 C528 1.356 . S
N526 H538 0.984 . S
N526 H539 0.985 . S
N527 C529 1.356 . S
N527 H532 0.984 . S
N527 H533 0.985 . S
C528 C522 1.379 . S
C528 C525 1.363 . S
C528 N526 1.356 . S
C529 C523 1.363 . S
C529 C524 1.379 . S
C529 N527 1.356 . S
N530 C522 1.356 . S
N530 H536 0.984 . S
N530 H537 0.984 . S
N531 C524 1.356 . S
N531 H534 0.984 . S
N531 H535 0.985 . S
H532 N527 0.984 . S
H533 N527 0.985 . S
H534 N531 0.984 . S
H535 N531 0.985 . S
H536 N530 0.984 . S
H537 N530 0.984 . S
H538 N526 0.984 . S
H539 N526 0.985 . S
C540 C541 1.363 . S
C540 C546 1.379 . S
C540 N548 1.356 . S
C541 C540 1.363 . S
C541 C547 1.363 . S
C542 C543 1.363 . S
C542 C547 1.379 . S
C542 N549 1.356 . S
C543 C542 1.363 . S
C543 C546 1.363 . S
N544 C546 1.356 . S
N544 H556 0.984 . S
N544 H557 0.985 . S
N545 C547 1.356 . S
N545 H550 0.984 . S
N545 H551 0.985 . S
C546 C540 1.379 . S
C546 C543 1.363 . S
C546 N544 1.356 . S
C547 C541 1.363 . S
C547 C542 1.379 . S
C547 N545 1.356 . S
N548 C540 1.356 . S
N548 H554 0.984 . S
N548 H555 0.984 . S
N549 C542 1.356 . S
N549 H552 0.984 . S
N549 H553 0.985 . S
H550 N545 0.984 . S
H551 N545 0.985 . S
H552 N549 0.984 . S
H553 N549 0.985 . S
H554 N548 0.984 . S
H555 N548 0.984 . S
H556 N544 0.984 . S
H557 N544 0.985 . S
C558 C559 1.363 . S
C558 C564 1.379 . S
C558 N566 1.356 . S
C559 C558 1.363 . S
C559 C565 1.363 . S
C560 C561 1.363 . S
C560 C565 1.379 . S
C560 N567 1.356 . S
C561 C560 1.363 . S
C561 C564 1.363 . S
N562 C564 1.356 . S
N562 H574 0.984 . S
N562 H575 0.985 . S
N563 C565 1.356 1_556 S
N563 H568 0.984 . S
N563 H569 0.985 1_556 S
C564 C558 1.379 . S
C564 C561 1.363 . S
C564 N562 1.356 . S
C565 C559 1.363 . S
C565 C560 1.379 . S
C565 N563 1.356 1_554 S
N566 C558 1.356 . S
N566 H572 0.984 . S
N566 H573 0.984 1_554 S
N567 C560 1.356 . S
N567 H570 0.984 . S
N567 H571 0.985 . S
H568 N563 0.984 . S
H569 N563 0.985 1_554 S
H570 N567 0.984 . S
H571 N567 0.985 . S
H572 N566 0.984 . S
H573 N566 0.984 1_556 S
H574 N562 0.984 . S
H575 N562 0.985 . S
C576 C577 1.363 . S
C576 C582 1.379 . S
C576 N584 1.356 . S
C577 C576 1.363 . S
C577 C583 1.363 . S
C578 C579 1.363 1_554 S
C578 C583 1.379 . S
C578 N585 1.356 1_554 S
C579 C578 1.363 1_556 S
C579 C582 1.363 1_556 S
N580 C582 1.356 1_556 S
N580 H592 0.984 1_556 S
N580 H593 0.985 . S
N581 C583 1.356 . S
N581 H586 0.984 . S
N581 H587 0.985 . S
C582 C576 1.379 . S
C582 C579 1.363 1_554 S
C582 N580 1.356 1_554 S
C583 C577 1.363 . S
C583 C578 1.379 . S
C583 N581 1.356 . S
N584 C576 1.356 . S
N584 H590 0.984 . S
N584 H591 0.984 . S
N585 C578 1.356 1_556 S
N585 H588 0.984 . S
N585 H589 0.985 . S
H586 N581 0.984 . S
H587 N581 0.985 . S
H588 N585 0.984 . S
H589 N585 0.985 . S
H590 N584 0.984 . S
H591 N584 0.984 . S
H592 N580 0.984 1_554 S
H593 N580 0.985 . S
C594 C595 1.363 . S
C594 C600 1.379 . S
C594 N602 1.356 . S
C595 C594 1.363 . S
C595 C601 1.363 . S
C596 C597 1.363 . S
C596 C601 1.379 . S
C596 N603 1.356 . S
C597 C596 1.363 . S
C597 C600 1.363 . S
N598 C600 1.356 . S
N598 H610 0.984 . S
N598 H611 0.985 1_554 S
N599 C601 1.356 . S
N599 H604 0.984 . S
N599 H605 0.985 . S
C600 C594 1.379 . S
C600 C597 1.363 . S
C600 N598 1.356 . S
C601 C595 1.363 . S
C601 C596 1.379 . S
C601 N599 1.356 . S
N602 C594 1.356 . S
N602 H608 0.984 . S
N602 H609 0.984 . S
N603 C596 1.356 . S
N603 H606 0.984 1_554 S
N603 H607 0.985 . S
H604 N599 0.984 . S
H605 N599 0.985 . S
H606 N603 0.984 1_556 S
H607 N603 0.985 . S
H608 N602 0.984 . S
H609 N602 0.984 . S
H610 N598 0.984 . S
H611 N598 0.985 1_556 S
C612 C613 1.363 . S
C612 C618 1.379 . S
C612 N620 1.356 . S
C613 C612 1.363 . S
C613 C619 1.363 . S
C614 C615 1.363 . S
C614 C619 1.379 . S
C614 N621 1.356 . S
C615 C614 1.363 . S
C615 C618 1.363 . S
N616 C618 1.356 . S
N616 H628 0.984 . S
N616 H629 0.985 . S
N617 C619 1.356 . S
N617 H622 0.984 . S
N617 H623 0.985 . S
C618 C612 1.379 . S
C618 C615 1.363 . S
C618 N616 1.356 . S
C619 C613 1.363 . S
C619 C614 1.379 . S
C619 N617 1.356 . S
N620 C612 1.356 . S
N620 H626 0.984 . S
N620 H627 0.984 . S
N621 C614 1.356 . S
N621 H624 0.984 . S
N621 H625 0.985 . S
H622 N617 0.984 . S
H623 N617 0.985 . S
H624 N621 0.984 . S
H625 N621 0.985 . S
H626 N620 0.984 . S
H627 N620 0.984 . S
H628 N616 0.984 . S
H629 N616 0.985 . S
C630 C631 1.363 . S
C630 C636 1.379 . S
C630 N638 1.356 . S
C631 C630 1.363 . S
C631 C637 1.363 . S
C632 C633 1.363 . S
C632 C637 1.379 . S
C632 N639 1.356 . S
C633 C632 1.363 . S
C633 C636 1.363 . S
N634 C636 1.356 . S
N634 H646 0.984 . S
N634 H647 0.985 . S
N635 C637 1.356 . S
N635 H640 0.984 . S
N635 H641 0.985 . S
C636 C630 1.379 . S
C636 C633 1.363 . S
C636 N634 1.356 . S
C637 C631 1.363 . S
C637 C632 1.379 . S
C637 N635 1.356 . S
N638 C630 1.356 . S
N638 H644 0.984 . S
N638 H645 0.984 . S
N639 C632 1.356 . S
N639 H642 0.984 . S
N639 H643 0.985 . S
H640 N635 0.984 . S
H641 N635 0.985 . S
H642 N639 0.984 . S
H643 N639 0.985 . S
H644 N638 0.984 . S
H645 N638 0.984 . S
H646 N634 0.984 . S
H647 N634 0.985 . S
C648 C649 1.363 . S
C648 C654 1.379 . S
C648 N656 1.356 . S
C649 C648 1.363 . S
C649 C655 1.363 . S
C650 C651 1.363 . S
C650 C655 1.379 . S
C650 N657 1.356 . S
C651 C650 1.363 . S
C651 C654 1.363 . S
N652 C654 1.356 . S
N652 H664 0.984 . S
N652 H665 0.985 . S
N653 C655 1.356 . S
N653 H658 0.984 . S
N653 H659 0.985 . S
C654 C648 1.379 . S
C654 C651 1.363 . S
C654 N652 1.356 . S
C655 C649 1.363 . S
C655 C650 1.379 . S
C655 N653 1.356 . S
N656 C648 1.356 . S
N656 H662 0.984 . S
N656 H663 0.984 . S
N657 C650 1.356 . S
N657 H660 0.984 . S
N657 H661 0.985 . S
H658 N653 0.984 . S
H659 N653 0.985 . S
H660 N657 0.984 . S
H661 N657 0.985 . S
H662 N656 0.984 . S
H663 N656 0.984 . S
H664 N652 0.984 . S
H665 N652 0.985 . S
C666 C667 1.363 . S
C666 C672 1.379 . S
C666 N674 1.356 . S
C667 C666 1.363 . S
C667 C673 1.363 . S
C668 C669 1.363 . S
C668 C673 1.379 . S
C668 N675 1.356 . S
C669 C668 1.363 . S
C669 C672 1.363 . S
N670 C672 1.356 . S
N670 H682 0.984 . S
N670 H683 0.985 1_556 S
N671 C673 1.356 . S
N671 H676 0.984 . S
N671 H677 0.985 . S
C672 C666 1.379 . S
C672 C669 1.363 . S
C672 N670 1.356 . S
C673 C667 1.363 . S
C673 C668 1.379 . S
C673 N671 1.356 . S
N674 C666 1.356 . S
N674 H680 0.984 . S
N674 H681 0.984 . S
N675 C668 1.356 . S
N675 H678 0.984 1_556 S
N675 H679 0.985 . S
H676 N671 0.984 . S
H677 N671 0.985 . S
H678 N675 0.984 1_554 S
H679 N675 0.985 . S
H680 N674 0.984 . S
H681 N674 0.984 . S
H682 N670 0.984 . S
H683 N670 0.985 1_554 S
C684 C685 1.363 . S
C684 C690 1.379 . S
C684 N692 1.356 1_556 S
C685 C684 1.363 . S
C685 C691 1.363 . S
C686 C687 1.363 . S
C686 C691 1.379 . S
C686 N693 1.356 . S
C687 C686 1.363 . S
C687 C690 1.363 . S
N688 C690 1.356 . S
N688 H700 0.984 . S
N688 H701 0.985 . S
N689 C691 1.356 . S
N689 H694 0.984 1_556 S
N689 H695 0.985 . S
C690 C684 1.379 . S
C690 C687 1.363 . S
C690 N688 1.356 . S
C691 C685 1.363 . S
C691 C686 1.379 . S
C691 N689 1.356 . S
N692 C684 1.356 1_554 S
N692 H698 0.984 . S
N692 H699 0.984 . S
N693 C686 1.356 . S
N693 H696 0.984 . S
N693 H697 0.985 . S
H694 N689 0.984 1_554 S
H695 N689 0.985 . S
H696 N693 0.984 . S
H697 N693 0.985 . S
H698 N692 0.984 . S
H699 N692 0.984 . S
H700 N688 0.984 . S
H701 N688 0.985 . S
C702 C703 1.363 . S
C702 C708 1.379 . S
C702 N710 1.356 . S
C703 C702 1.363 . S
C703 C709 1.363 . S
C704 C705 1.363 . S
C704 C709 1.379 . S
C704 N711 1.356 1_556 S
C705 C704 1.363 . S
C705 C708 1.363 . S
N706 C708 1.356 1_554 S
N706 H718 0.984 1_554 S
N706 H719 0.985 . S
N707 C709 1.356 . S
N707 H712 0.984 . S
N707 H713 0.985 . S
C708 C702 1.379 . S
C708 C705 1.363 . S
C708 N706 1.356 1_556 S
C709 C703 1.363 . S
C709 C704 1.379 . S
C709 N707 1.356 . S
N710 C702 1.356 . S
N710 H716 0.984 . S
N710 H717 0.984 . S
N711 C704 1.356 1_554 S
N711 H714 0.984 . S
N711 H715 0.985 1_554 S
H712 N707 0.984 . S
H713 N707 0.985 . S
H714 N711 0.984 . S
H715 N711 0.985 1_556 S
H716 N710 0.984 . S
H717 N710 0.984 . S
H718 N706 0.984 1_556 S
H719 N706 0.985 . S
C720 C721 1.363 . S
C720 C726 1.379 . S
C720 N728 1.356 . S
C721 C720 1.363 . S
C721 C727 1.363 . S
C722 C723 1.363 . S
C722 C727 1.379 . S
C722 N729 1.356 . S
C723 C722 1.363 . S
C723 C726 1.363 . S
N724 C726 1.356 . S
N724 H736 0.984 . S
N724 H737 0.985 . S
N725 C727 1.356 . S
N725 H730 0.984 . S
N725 H731 0.985 . S
C726 C720 1.379 . S
C726 C723 1.363 . S
C726 N724 1.356 . S
C727 C721 1.363 . S
C727 C722 1.379 . S
C727 N725 1.356 . S
N728 C720 1.356 . S
N728 H734 0.984 . S
N728 H735 0.984 . S
N729 C722 1.356 . S
N729 H732 0.984 . S
N729 H733 0.985 . S
H730 N725 0.984 . S
H731 N725 0.985 . S
H732 N729 0.984 . S
H733 N729 0.985 . S
H734 N728 0.984 . S
H735 N728 0.984 . S
H736 N724 0.984 . S
H737 N724 0.985 . S
C738 C739 1.363 . S
C738 C744 1.379 . S
C738 N746 1.356 . S
C739 C738 1.363 . S
C739 C745 1.363 . S
C740 C741 1.363 . S
C740 C745 1.379 . S
C740 N747 1.356 . S
C741 C740 1.363 . S
C741 C744 1.363 . S
N742 C744 1.356 . S
N742 H754 0.984 . S
N742 H755 0.985 . S
N743 C745 1.356 . S
N743 H748 0.984 . S
N743 H749 0.985 . S
C744 C738 1.379 . S
C744 C741 1.363 . S
C744 N742 1.356 . S
C745 C739 1.363 . S
C745 C740 1.379 . S
C745 N743 1.356 . S
N746 C738 1.356 . S
N746 H752 0.984 . S
N746 H753 0.984 . S
N747 C740 1.356 . S
N747 H750 0.984 . S
N747 H751 0.985 . S
H748 N743 0.984 . S
H749 N743 0.985 . S
H750 N747 0.984 . S
H751 N747 0.985 . S
H752 N746 0.984 . S
H753 N746 0.984 . S
H754 N742 0.984 . S
H755 N742 0.985 . S
C756 C757 1.363 . S
C756 C762 1.379 . S
C756 N764 1.356 . S
C757 C756 1.363 . S
C757 C763 1.363 . S
C758 C759 1.363 . S
C758 C763 1.379 . S
C758 N765 1.356 1_565 S
C759 C758 1.363 . S
C759 C762 1.363 . S
N760 C762 1.356 . S
N760 H772 0.984 . S
N760 H773 0.985 . S
N761 C763 1.356 1_545 S
N761 H766 0.984 . S
N761 H767 0.985 . S
C762 C756 1.379 . S
C762 C759 1.363 . S
C762 N760 1.356 . S
C763 C757 1.363 . S
C763 C758 1.379 . S
C763 N761 1.356 1_565 S
N764 C756 1.356 . S
N764 H770 0.984 . S
N764 H771 0.984 . S
N765 C758 1.356 1_545 S
N765 H768 0.984 . S
N765 H769 0.985 . S
H766 N761 0.984 . S
H767 N761 0.985 . S
H768 N765 0.984 . S
H769 N765 0.985 . S
H770 N764 0.984 . S
H771 N764 0.984 . S
H772 N760 0.984 . S
H773 N760 0.985 . S
C774 C775 1.363 . S
C774 C780 1.379 . S
C774 N782 1.356 . S
C775 C774 1.363 . S
C775 C781 1.363 . S
C776 C777 1.363 . S
C776 C781 1.379 . S
C776 N783 1.356 1_545 S
C777 C776 1.363 . S
C777 C780 1.363 . S
N778 C780 1.356 . S
N778 H790 0.984 . S
N778 H791 0.985 . S
N779 C781 1.383 . S
N779 H784 1.007 . S
N779 H785 0.937 1_545 S
C780 C774 1.379 . S
C780 C777 1.363 . S
C780 N778 1.356 . S
C781 C775 1.363 . S
C781 C776 1.379 . S
C781 N779 1.383 . S
N782 C774 1.356 . S
N782 H788 0.984 . S
N782 H789 0.984 . S
N783 C776 1.356 1_565 S
N783 H786 0.984 . S
N783 H787 0.985 . S
H784 N779 1.007 . S
H785 N779 0.937 1_565 S
H786 N783 0.984 . S
H787 N783 0.985 . S
H788 N782 0.984 . S
H789 N782 0.984 . S
H790 N778 0.984 . S
H791 N778 0.985 . S
C792 C793 1.363 . S
C792 C798 1.379 . S
C792 N800 1.356 . S
C793 C792 1.363 . S
C793 C799 1.363 . S
C794 C795 1.363 . S
C794 C799 1.379 . S
C794 N801 1.356 . S
C795 C794 1.363 . S
C795 C798 1.363 . S
N796 C798 1.356 . S
N796 H808 0.984 . S
N796 H809 0.985 . S
N797 C799 1.356 . S
N797 H802 0.984 . S
N797 H803 0.985 . S
C798 C792 1.379 . S
C798 C795 1.363 . S
C798 N796 1.356 . S
C799 C793 1.363 . S
C799 C794 1.379 . S
C799 N797 1.356 . S
N800 C792 1.356 . S
N800 H806 0.984 . S
N800 H807 0.984 . S
N801 C794 1.356 . S
N801 H804 0.984 . S
N801 H805 0.985 . S
H802 N797 0.984 . S
H803 N797 0.985 . S
H804 N801 0.984 . S
H805 N801 0.985 . S
H806 N800 0.984 . S
H807 N800 0.984 . S
H808 N796 0.984 . S
H809 N796 0.985 . S
C810 C811 1.363 . S
C810 C816 1.379 . S
C810 N818 1.356 . S
C811 C810 1.363 . S
C811 C817 1.363 . S
C812 C813 1.363 . S
C812 C817 1.379 . S
C812 N819 1.356 . S
C813 C812 1.363 . S
C813 C816 1.363 . S
N814 C816 1.356 . S
N814 H826 0.984 . S
N814 H827 0.985 . S
N815 C817 1.356 . S
N815 H820 0.984 . S
N815 H821 0.985 . S
C816 C810 1.379 . S
C816 C813 1.363 . S
C816 N814 1.356 . S
C817 C811 1.363 . S
C817 C812 1.379 . S
C817 N815 1.356 . S
N818 C810 1.356 . S
N818 H824 0.984 . S
N818 H825 0.984 . S
N819 C812 1.356 . S
N819 H822 0.984 . S
N819 H823 0.985 . S
H820 N815 0.984 . S
H821 N815 0.985 . S
H822 N819 0.984 . S
H823 N819 0.985 . S
H824 N818 0.984 . S
H825 N818 0.984 . S
H826 N814 0.984 . S
H827 N814 0.985 . S
C828 C829 1.363 . S
C828 C834 1.379 . S
C828 N836 1.356 . S
C829 C828 1.363 . S
C829 C835 1.363 . S
C830 C831 1.363 . S
C830 C835 1.379 . S
C830 N837 1.356 . S
C831 C830 1.363 . S
C831 C834 1.363 . S
N832 C834 1.356 . S
N832 H844 0.984 . S
N832 H845 0.985 . S
N833 C835 1.356 . S
N833 H838 0.984 . S
N833 H839 0.985 . S
C834 C828 1.379 . S
C834 C831 1.363 . S
C834 N832 1.356 . S
C835 C829 1.363 . S
C835 C830 1.379 . S
C835 N833 1.356 . S
N836 C828 1.356 . S
N836 H842 0.984 . S
N836 H843 0.984 . S
N837 C830 1.356 . S
N837 H840 0.984 . S
N837 H841 0.985 . S
H838 N833 0.984 . S
H839 N833 0.985 . S
H840 N837 0.984 . S
H841 N837 0.985 . S
H842 N836 0.984 . S
H843 N836 0.984 . S
H844 N832 0.984 . S
H845 N832 0.985 . S
C846 C847 1.363 . S
C846 C852 1.379 . S
C846 N854 1.356 . S
C847 C846 1.363 . S
C847 C853 1.363 . S
C848 C849 1.363 . S
C848 C853 1.379 . S
C848 N855 1.356 . S
C849 C848 1.363 . S
C849 C852 1.363 . S
N850 C852 1.356 . S
N850 H862 0.984 . S
N850 H863 0.985 . S
N851 C853 1.356 . S
N851 H856 0.984 . S
N851 H857 0.985 . S
C852 C846 1.379 . S
C852 C849 1.363 . S
C852 N850 1.356 . S
C853 C847 1.363 . S
C853 C848 1.379 . S
C853 N851 1.356 . S
N854 C846 1.356 . S
N854 H860 0.984 . S
N854 H861 0.984 . S
N855 C848 1.356 . S
N855 H858 0.984 . S
N855 H859 0.985 . S
H856 N851 0.984 . S
H857 N851 0.985 . S
H858 N855 0.984 . S
H859 N855 0.985 . S
H860 N854 0.984 . S
H861 N854 0.984 . S
H862 N850 0.984 . S
H863 N850 0.985 . S
C864 C865 1.363 . S
C864 C870 1.379 . S
C864 N872 1.356 . S
C865 C864 1.363 . S
C865 C871 1.363 . S
C866 C867 1.363 . S
C866 C871 1.379 . S
C866 N873 1.356 . S
C867 C866 1.363 . S
C867 C870 1.363 . S
N868 C870 1.356 . S
N868 H880 0.984 . S
N868 H881 0.985 . S
N869 C871 1.356 . S
N869 H874 0.984 . S
N869 H875 0.985 . S
C870 C864 1.379 . S
C870 C867 1.363 . S
C870 N868 1.356 . S
C871 C865 1.363 . S
C871 C866 1.379 . S
C871 N869 1.356 . S
N872 C864 1.356 . S
N872 H878 0.984 . S
N872 H879 0.984 . S
N873 C866 1.356 . S
N873 H876 0.984 . S
N873 H877 0.985 . S
H874 N869 0.984 . S
H875 N869 0.985 . S
H876 N873 0.984 . S
H877 N873 0.985 . S
H878 N872 0.984 . S
H879 N872 0.984 . S
H880 N868 0.984 . S
H881 N868 0.985 . S
C882 C883 1.363 . S
C882 C888 1.379 . S
C882 N890 1.356 . S
C883 C882 1.363 . S
C883 C889 1.363 . S
C884 C885 1.363 . S
C884 C889 1.379 . S
C884 N891 1.356 . S
C885 C884 1.363 . S
C885 C888 1.363 . S
N886 C888 1.356 . S
N886 H898 0.984 . S
N886 H899 0.985 . S
N887 C889 1.356 . S
N887 H892 0.984 . S
N887 H893 0.985 . S
C888 C882 1.379 . S
C888 C885 1.363 . S
C888 N886 1.356 . S
C889 C883 1.363 . S
C889 C884 1.379 . S
C889 N887 1.356 . S
N890 C882 1.356 . S
N890 H896 0.984 . S
N890 H897 0.984 . S
N891 C884 1.356 . S
N891 H894 0.984 . S
N891 H895 0.985 . S
H892 N887 0.984 . S
H893 N887 0.985 . S
H894 N891 0.984 . S
H895 N891 0.985 . S
H896 N890 0.984 . S
H897 N890 0.984 . S
H898 N886 0.984 . S
H899 N886 0.985 . S
C900 C901 1.363 . S
C900 C906 1.379 . S
C900 N908 1.356 . S
C901 C900 1.363 . S
C901 C907 1.363 . S
C902 C903 1.363 . S
C902 C907 1.379 . S
C902 N909 1.356 . S
C903 C902 1.363 . S
C903 C906 1.363 . S
N904 C906 1.356 . S
N904 H916 0.984 . S
N904 H917 0.985 . S
N905 C907 1.356 . S
N905 H910 0.984 . S
N905 H911 0.985 . S
C906 C900 1.379 . S
C906 C903 1.363 . S
C906 N904 1.356 . S
C907 C901 1.363 . S
C907 C902 1.379 . S
C907 N905 1.356 . S
N908 C900 1.356 . S
N908 H914 0.984 . S
N908 H915 0.984 . S
N909 C902 1.356 . S
N909 H912 0.984 . S
N909 H913 0.985 . S
H910 N905 0.984 . S
H911 N905 0.985 . S
H912 N909 0.984 . S
H913 N909 0.985 . S
H914 N908 0.984 . S
H915 N908 0.984 . S
H916 N904 0.984 . S
H917 N904 0.985 . S
C918 C919 1.363 . S
C918 C924 1.379 . S
C918 N926 1.356 . S
C919 C918 1.363 . S
C919 C925 1.363 . S
C920 C921 1.363 . S
C920 C925 1.379 . S
C920 N927 1.356 . S
C921 C920 1.363 . S
C921 C924 1.363 . S
N922 C924 1.356 . S
N922 H934 0.984 . S
N922 H935 0.985 . S
N923 C925 1.356 . S
N923 H928 0.984 . S
N923 H929 0.985 . S
C924 C918 1.379 . S
C924 C921 1.363 . S
C924 N922 1.356 . S
C925 C919 1.363 . S
C925 C920 1.379 . S
C925 N923 1.356 . S
N926 C918 1.356 . S
N926 H932 0.984 . S
N926 H933 0.984 . S
N927 C920 1.356 . S
N927 H930 0.984 . S
N927 H931 0.985 . S
H928 N923 0.984 . S
H929 N923 0.985 . S
H930 N927 0.984 . S
H931 N927 0.985 . S
H932 N926 0.984 . S
H933 N926 0.984 . S
H934 N922 0.984 . S
H935 N922 0.985 . S
C936 C937 1.363 . S
C936 C942 1.379 . S
C936 N944 1.356 . S
C937 C936 1.363 . S
C937 C943 1.363 . S
C938 C939 1.363 . S
C938 C943 1.379 . S
C938 N945 1.356 . S
C939 C938 1.363 . S
C939 C942 1.363 . S
N940 C942 1.356 . S
N940 H952 0.984 . S
N940 H953 0.985 . S
N941 C943 1.356 . S
N941 H946 0.984 . S
N941 H947 0.985 . S
C942 C936 1.379 . S
C942 C939 1.363 . S
C942 N940 1.356 . S
C943 C937 1.363 . S
C943 C938 1.379 . S
C943 N941 1.356 . S
N944 C936 1.356 . S
N944 H950 0.984 . S
N944 H951 0.984 . S
N945 C938 1.356 . S
N945 H948 0.984 . S
N945 H949 0.985 . S
H946 N941 0.984 . S
H947 N941 0.985 . S
H948 N945 0.984 . S
H949 N945 0.985 . S
H950 N944 0.984 . S
H951 N944 0.984 . S
H952 N940 0.984 . S
H953 N940 0.985 . S
C954 C955 1.363 . S
C954 C960 1.379 . S
C954 N962 1.356 . S
C955 C954 1.363 . S
C955 C961 1.363 . S
C956 C957 1.363 . S
C956 C961 1.379 . S
C956 N963 1.356 . S
C957 C956 1.363 . S
C957 C960 1.363 . S
N958 C960 1.356 . S
N958 H970 0.984 . S
N958 H971 0.985 . S
N959 C961 1.356 . S
N959 H964 0.984 . S
N959 H965 0.985 . S
C960 C954 1.379 . S
C960 C957 1.363 . S
C960 N958 1.356 . S
C961 C955 1.363 . S
C961 C956 1.379 . S
C961 N959 1.356 . S
N962 C954 1.356 . S
N962 H968 0.984 . S
N962 H969 0.984 . S
N963 C956 1.356 . S
N963 H966 0.984 . S
N963 H967 0.985 . S
H964 N959 0.984 . S
H965 N959 0.985 . S
H966 N963 0.984 . S
H967 N963 0.985 . S
H968 N962 0.984 . S
H969 N962 0.984 . S
H970 N958 0.984 . S
H971 N958 0.985 . S
C972 C973 1.363 . S
C972 C978 1.379 . S
C972 N980 1.356 . S
C973 C972 1.363 . S
C973 C979 1.363 . S
C974 C975 1.363 . S
C974 C979 1.379 . S
C974 N981 1.356 . S
C975 C974 1.363 . S
C975 C978 1.363 . S
N976 C978 1.356 . S
N976 H988 0.984 . S
N976 H989 0.985 . S
N977 C979 1.356 . S
N977 H982 0.984 . S
N977 H983 0.985 . S
C978 C972 1.379 . S
C978 C975 1.363 . S
C978 N976 1.356 . S
C979 C973 1.363 . S
C979 C974 1.379 . S
C979 N977 1.356 . S
N980 C972 1.356 . S
N980 H986 0.984 . S
N980 H987 0.984 . S
N981 C974 1.356 . S
N981 H984 0.984 . S
N981 H985 0.985 . S
H982 N977 0.984 . S
H983 N977 0.985 . S
H984 N981 0.984 . S
H985 N981 0.985 . S
H986 N980 0.984 . S
H987 N980 0.984 . S
H988 N976 0.984 . S
H989 N976 0.985 . S
C990 C991 1.363 . S
C990 C996 1.379 . S
C990 N998 1.356 . S
C991 C990 1.363 . S
C991 C997 1.363 . S
C992 C993 1.363 . S
C992 C997 1.379 . S
C992 N999 1.356 . S
C993 C992 1.363 . S
C993 C996 1.363 . S
N994 C996 1.356 . S
N994 H1006 0.984 . S
N994 H1007 0.985 . S
N995 C997 1.356 . S
N995 H1000 0.984 . S
N995 H1001 0.985 . S
C996 C990 1.379 . S
C996 C993 1.363 . S
C996 N994 1.356 . S
C997 C991 1.363 . S
C997 C992 1.379 . S
C997 N995 1.356 . S
N998 C990 1.356 . S
N998 H1004 0.984 . S
N998 H1005 0.984 . S
N999 C992 1.356 . S
N999 H1002 0.984 . S
N999 H1003 0.985 . S
H1000 N995 0.984 . S
H1001 N995 0.985 . S
H1002 N999 0.984 . S
H1003 N999 0.985 . S
H1004 N998 0.984 . S
H1005 N998 0.984 . S
H1006 N994 0.984 . S
H1007 N994 0.985 . S
C1008 C1009 1.363 . S
C1008 C1014 1.379 . S
C1008 N1016 1.356 . S
C1009 C1008 1.363 . S
C1009 C1015 1.363 . S
C1010 C1011 1.363 . S
C1010 C1015 1.379 . S
C1010 N1017 1.356 . S
C1011 C1010 1.363 . S
C1011 C1014 1.363 . S
N1012 C1014 1.356 . S
N1012 H1024 0.984 . S
N1012 H1025 0.985 . S
N1013 C1015 1.356 . S
N1013 H1018 0.984 . S
N1013 H1019 0.985 . S
C1014 C1008 1.379 . S
C1014 C1011 1.363 . S
C1014 N1012 1.356 . S
C1015 C1009 1.363 . S
C1015 C1010 1.379 . S
C1015 N1013 1.356 . S
N1016 C1008 1.356 . S
N1016 H1022 0.984 . S
N1016 H1023 0.984 . S
N1017 C1010 1.356 . S
N1017 H1020 0.984 . S
N1017 H1021 0.985 . S
H1018 N1013 0.984 . S
H1019 N1013 0.985 . S
H1020 N1017 0.984 . S
H1021 N1017 0.985 . S
H1022 N1016 0.984 . S
H1023 N1016 0.984 . S
H1024 N1012 0.984 . S
H1025 N1012 0.985 . S
C1026 C1027 1.363 . S
C1026 C1032 1.379 . S
C1026 N1034 1.356 . S
C1027 C1026 1.363 . S
C1027 C1033 1.363 . S
C1028 C1029 1.363 . S
C1028 C1033 1.379 . S
C1028 N1035 1.356 . S
C1029 C1028 1.363 . S
C1029 C1032 1.363 . S
N1030 C1032 1.356 . S
N1030 H1042 0.984 . S
N1030 H1043 0.985 . S
N1031 C1033 1.356 . S
N1031 H1036 0.984 . S
N1031 H1037 0.985 . S
C1032 C1026 1.379 . S
C1032 C1029 1.363 . S
C1032 N1030 1.356 . S
C1033 C1027 1.363 . S
C1033 C1028 1.379 . S
C1033 N1031 1.356 . S
N1034 C1026 1.356 . S
N1034 H1040 0.984 . S
N1034 H1041 0.984 . S
N1035 C1028 1.356 . S
N1035 H1038 0.984 . S
N1035 H1039 0.985 . S
H1036 N1031 0.984 . S
H1037 N1031 0.985 . S
H1038 N1035 0.984 . S
H1039 N1035 0.985 . S
H1040 N1034 0.984 . S
H1041 N1034 0.984 . S
H1042 N1030 0.984 . S
H1043 N1030 0.985 . S
C1044 C1045 1.363 1_655 S
C1044 C1050 1.379 . S
C1044 N1052 1.356 . S
C1045 C1044 1.363 1_455 S
C1045 C1051 1.363 . S
C1046 C1047 1.363 1_455 S
C1046 C1051 1.379 . S
C1046 N1053 1.356 . S
C1047 C1046 1.363 1_655 S
C1047 C1050 1.363 . S
N1048 C1050 1.356 . S
N1048 H1060 0.984 . S
N1048 H1061 0.985 . S
N1049 C1051 1.356 . S
N1049 H1054 0.984 . S
N1049 H1055 0.985 . S
C1050 C1044 1.379 . S
C1050 C1047 1.363 . S
C1050 N1048 1.356 . S
C1051 C1045 1.363 . S
C1051 C1046 1.379 . S
C1051 N1049 1.356 . S
N1052 C1044 1.356 . S
N1052 H1058 0.984 . S
N1052 H1059 0.984 . S
N1053 C1046 1.356 . S
N1053 H1056 0.984 . S
N1053 H1057 0.985 . S
H1054 N1049 0.984 . S
H1055 N1049 0.985 . S
H1056 N1053 0.984 . S
H1057 N1053 0.985 . S
H1058 N1052 0.984 . S
H1059 N1052 0.984 . S
H1060 N1048 0.984 . S
H1061 N1048 0.985 . S
C1062 C1063 1.363 . S
C1062 C1068 1.379 . S
C1062 N1070 1.356 . S
C1063 C1062 1.363 . S
C1063 C1069 1.363 . S
C1064 C1065 1.363 . S
C1064 C1069 1.379 . S
C1064 N1071 1.356 . S
C1065 C1064 1.363 . S
C1065 C1068 1.363 . S
N1066 C1068 1.356 . S
N1066 H1078 0.984 . S
N1066 H1079 0.985 . S
N1067 C1069 1.356 . S
N1067 H1072 0.984 . S
N1067 H1073 0.985 . S
C1068 C1062 1.379 . S
C1068 C1065 1.363 . S
C1068 N1066 1.356 . S
C1069 C1063 1.363 . S
C1069 C1064 1.379 . S
C1069 N1067 1.356 . S
N1070 C1062 1.356 . S
N1070 H1076 0.984 . S
N1070 H1077 0.984 . S
N1071 C1064 1.356 . S
N1071 H1074 0.984 . S
N1071 H1075 0.985 . S
H1072 N1067 0.984 . S
H1073 N1067 0.985 . S
H1074 N1071 0.984 . S
H1075 N1071 0.985 . S
H1076 N1070 0.984 . S
H1077 N1070 0.984 . S
H1078 N1066 0.984 . S
H1079 N1066 0.985 . S
C1080 C1081 1.363 . S
C1080 C1086 1.379 . S
C1080 N1088 1.356 . S
C1081 C1080 1.363 . S
C1081 C1087 1.363 . S
C1082 C1083 1.363 . S
C1082 C1087 1.379 1_565 S
C1082 N1089 1.356 . S
C1083 C1082 1.363 . S
C1083 C1086 1.363 1_565 S
N1084 C1086 1.356 1_565 S
N1084 H1096 0.984 1_565 S
N1084 H1097 0.985 . S
N1085 C1087 1.356 . S
N1085 H1090 0.984 . S
N1085 H1091 0.985 . S
C1086 C1080 1.379 . S
C1086 C1083 1.363 1_545 S
C1086 N1084 1.356 1_545 S
C1087 C1081 1.363 . S
C1087 C1082 1.379 1_545 S
C1087 N1085 1.356 . S
N1088 C1080 1.356 . S
N1088 H1094 0.984 . S
N1088 H1095 0.984 . S
N1089 C1082 1.356 . S
N1089 H1092 0.984 . S
N1089 H1093 0.985 . S
H1090 N1085 0.984 . S
H1091 N1085 0.985 . S
H1092 N1089 0.984 . S
H1093 N1089 0.985 . S
H1094 N1088 0.984 . S
H1095 N1088 0.984 . S
H1096 N1084 0.984 1_545 S
H1097 N1084 0.985 . S
C1098 C1099 1.363 1_565 S
C1098 C1104 1.378 1_556 S
C1098 N1106 1.356 . S
C1099 C1098 1.363 1_545 S
C1099 C1105 1.363 . S
C1100 C1101 1.363 1_545 S
C1100 C1105 1.379 1_554 S
C1100 N1107 1.356 . S
C1101 C1100 1.363 1_565 S
C1101 C1104 1.363 . S
N1102 C1104 1.357 . S
N1102 H1114 0.984 . S
N1102 H1115 0.985 . S
N1103 C1105 1.356 . S
N1103 H1108 0.984 . S
N1103 H1109 0.985 . S
C1104 C1098 1.378 1_554 S
C1104 C1101 1.363 . S
C1104 N1102 1.357 . S
C1105 C1099 1.363 . S
C1105 C1100 1.379 1_556 S
C1105 N1103 1.356 . S
N1106 C1098 1.356 . S
N1106 H1112 0.984 . S
N1106 H1113 0.984 . S
N1107 C1100 1.356 . S
N1107 H1110 0.984 . S
N1107 H1111 0.985 . S
H1108 N1103 0.984 . S
H1109 N1103 0.985 . S
H1110 N1107 0.984 . S
H1111 N1107 0.985 . S
H1112 N1106 0.984 . S
H1113 N1106 0.984 . S
H1114 N1102 0.984 . S
H1115 N1102 0.985 . S
C1116 C1117 1.363 . S
C1116 C1122 1.379 1_455 S
C1116 N1124 1.356 . S
C1117 C1116 1.363 . S
C1117 C1123 1.363 1_554 S
C1118 C1119 1.363 . S
C1118 C1123 1.379 1_655 S
C1118 N1125 1.356 . S
C1119 C1118 1.363 . S
C1119 C1122 1.363 1_556 S
N1120 C1122 1.356 . S
N1120 H1132 0.984 . S
N1120 H1133 0.985 . S
N1121 C1123 1.356 . S
N1121 H1126 0.984 . S
N1121 H1127 0.985 . S
C1122 C1116 1.379 1_655 S
C1122 C1119 1.363 1_554 S
C1122 N1120 1.356 . S
C1123 C1117 1.363 1_556 S
C1123 C1118 1.379 1_455 S
C1123 N1121 1.356 . S
N1124 C1116 1.356 . S
N1124 H1130 0.984 . S
N1124 H1131 0.984 . S
N1125 C1118 1.356 . S
N1125 H1128 0.984 . S
N1125 H1129 0.985 . S
H1126 N1121 0.984 . S
H1127 N1121 0.985 . S
H1128 N1125 0.984 . S
H1129 N1125 0.985 . S
H1130 N1124 0.984 . S
H1131 N1124 0.984 . S
H1132 N1120 0.984 . S
H1133 N1120 0.985 . S
C1134 C1135 1.363 . S
C1134 C1140 1.379 . S
C1134 N1142 1.356 . S
C1135 C1134 1.363 . S
C1135 C1141 1.363 1_554 S
C1136 C1137 1.363 . S
C1136 C1141 1.379 . S
C1136 N1143 1.356 . S
C1137 C1136 1.363 . S
C1137 C1140 1.363 1_556 S
N1138 C1140 1.356 . S
N1138 H1150 0.984 . S
N1138 H1151 0.985 . S
N1139 C1141 1.356 . S
N1139 H1144 0.984 . S
N1139 H1145 0.985 . S
C1140 C1134 1.379 . S
C1140 C1137 1.363 1_554 S
C1140 N1138 1.356 . S
C1141 C1135 1.363 1_556 S
C1141 C1136 1.379 . S
C1141 N1139 1.356 . S
N1142 C1134 1.356 . S
N1142 H1148 0.984 . S
N1142 H1149 0.984 . S
N1143 C1136 1.356 . S
N1143 H1146 0.984 . S
N1143 H1147 0.985 . S
H1144 N1139 0.984 . S
H1145 N1139 0.985 . S
H1146 N1143 0.984 . S
H1147 N1143 0.985 . S
H1148 N1142 0.984 . S
H1149 N1142 0.984 . S
H1150 N1138 0.984 . S
H1151 N1138 0.985 . S
C1152 C1153 1.363 . S
C1152 C1158 1.379 . S
C1152 N1160 1.356 . S
C1153 C1152 1.363 . S
C1153 C1159 1.363 . S
C1154 C1155 1.363 . S
C1154 C1159 1.379 . S
C1154 N1161 1.356 . S
C1155 C1154 1.363 . S
C1155 C1158 1.363 . S
N1156 C1158 1.356 . S
N1156 H1168 0.984 . S
N1156 H1169 0.985 . S
N1157 C1159 1.356 . S
N1157 H1162 0.984 1_554 S
N1157 H1163 0.985 1_544 S
C1158 C1152 1.379 . S
C1158 C1155 1.363 . S
C1158 N1156 1.356 . S
C1159 C1153 1.363 . S
C1159 C1154 1.379 . S
C1159 N1157 1.356 . S
N1160 C1152 1.356 . S
N1160 H1166 0.984 . S
N1160 H1167 0.984 . S
N1161 C1154 1.356 . S
N1161 H1164 0.984 . S
N1161 H1165 0.985 . S
H1162 N1157 0.984 1_556 S
H1163 N1157 0.985 1_566 S
H1164 N1161 0.984 . S
H1165 N1161 0.985 . S
H1166 N1160 0.984 . S
H1167 N1160 0.984 . S
H1168 N1156 0.984 . S
H1169 N1156 0.985 . S
C1170 C1171 1.363 . S
C1170 C1176 1.379 . S
C1170 N1178 1.356 . S
C1171 C1170 1.363 . S
C1171 C1177 1.363 . S
C1172 C1173 1.363 . S
C1172 C1177 1.379 . S
C1172 N1179 1.356 . S
C1173 C1172 1.363 . S
C1173 C1176 1.363 . S
N1174 C1176 1.356 1_556 S
N1174 H1186 0.984 . S
N1174 H1187 0.985 . S
N1175 C1177 1.356 . S
N1175 H1180 0.984 . S
N1175 H1181 0.985 . S
C1176 C1170 1.379 . S
C1176 C1173 1.363 . S
C1176 N1174 1.356 1_554 S
C1177 C1171 1.363 . S
C1177 C1172 1.379 . S
C1177 N1175 1.356 . S
N1178 C1170 1.356 . S
N1178 H1184 0.984 . S
N1178 H1185 0.984 . S
N1179 C1172 1.356 . S
N1179 H1182 0.984 . S
N1179 H1183 0.985 . S
H1180 N1175 0.984 . S
H1181 N1175 0.985 . S
H1182 N1179 0.984 . S
H1183 N1179 0.985 . S
H1184 N1178 0.984 . S
H1185 N1178 0.984 . S
H1186 N1174 0.984 . S
H1187 N1174 0.985 . S
C1188 C1189 1.363 . S
C1188 C1194 1.379 . S
C1188 N1196 1.356 . S
C1189 C1188 1.363 . S
C1189 C1195 1.363 . S
C1190 C1191 1.363 . S
C1190 C1195 1.379 . S
C1190 N1197 1.356 1_554 S
C1191 C1190 1.363 . S
C1191 C1194 1.363 . S
N1192 C1194 1.356 . S
N1192 H1204 0.984 . S
N1192 H1205 0.985 . S
N1193 C1195 1.356 . S
N1193 H1198 0.984 . S
N1193 H1199 0.985 . S
C1194 C1188 1.379 . S
C1194 C1191 1.363 . S
C1194 N1192 1.356 . S
C1195 C1189 1.363 . S
C1195 C1190 1.379 . S
C1195 N1193 1.356 . S
N1196 C1188 1.356 . S
N1196 H1202 0.984 . S
N1196 H1203 0.984 . S
N1197 C1190 1.356 1_556 S
N1197 H1200 0.984 . S
N1197 H1201 0.985 . S
H1198 N1193 0.984 . S
H1199 N1193 0.985 . S
H1200 N1197 0.984 . S
H1201 N1197 0.985 . S
H1202 N1196 0.984 . S
H1203 N1196 0.984 . S
H1204 N1192 0.984 . S
H1205 N1192 0.985 . S
C1206 C1207 1.363 . S
C1206 C1212 1.379 . S
C1206 N1214 1.356 . S
C1207 C1206 1.363 . S
C1207 C1213 1.363 . S
C1208 C1209 1.363 . S
C1208 C1213 1.379 . S
C1208 N1215 1.356 . S
C1209 C1208 1.363 . S
C1209 C1212 1.363 . S
N1210 C1212 1.356 . S
N1210 H1222 0.984 . S
N1210 H1223 0.985 . S
N1211 C1213 1.356 . S
N1211 H1216 0.984 . S
N1211 H1217 0.985 . S
C1212 C1206 1.379 . S
C1212 C1209 1.363 . S
C1212 N1210 1.356 . S
C1213 C1207 1.363 . S
C1213 C1208 1.379 . S
C1213 N1211 1.356 . S
N1214 C1206 1.356 . S
N1214 H1220 0.984 . S
N1214 H1221 0.984 . S
N1215 C1208 1.356 . S
N1215 H1218 0.984 . S
N1215 H1219 0.985 . S
H1216 N1211 0.984 . S
H1217 N1211 0.985 . S
H1218 N1215 0.984 . S
H1219 N1215 0.985 . S
H1220 N1214 0.984 . S
H1221 N1214 0.984 . S
H1222 N1210 0.984 . S
H1223 N1210 0.985 . S
C1224 C1225 1.363 . S
C1224 C1230 1.379 . S
C1224 N1232 1.356 . S
C1225 C1224 1.363 . S
C1225 C1231 1.363 . S
C1226 C1227 1.363 . S
C1226 C1231 1.379 . S
C1226 N1233 1.356 . S
C1227 C1226 1.363 . S
C1227 C1230 1.363 . S
N1228 C1230 1.356 . S
N1228 H1240 0.984 . S
N1228 H1241 0.985 . S
N1229 C1231 1.356 . S
N1229 H1234 0.984 . S
N1229 H1235 0.985 . S
C1230 C1224 1.379 . S
C1230 C1227 1.363 . S
C1230 N1228 1.356 . S
C1231 C1225 1.363 . S
C1231 C1226 1.379 . S
C1231 N1229 1.356 . S
N1232 C1224 1.356 . S
N1232 H1238 0.984 . S
N1232 H1239 0.984 . S
N1233 C1226 1.356 . S
N1233 H1236 0.984 . S
N1233 H1237 0.985 . S
H1234 N1229 0.984 . S
H1235 N1229 0.985 . S
H1236 N1233 0.984 . S
H1237 N1233 0.985 . S
H1238 N1232 0.984 . S
H1239 N1232 0.984 . S
H1240 N1228 0.984 . S
H1241 N1228 0.985 . S
C1242 C1243 1.363 . S
C1242 C1248 1.379 . S
C1242 N1250 1.356 . S
C1243 C1242 1.363 . S
C1243 C1249 1.363 . S
C1244 C1245 1.363 . S
C1244 C1249 1.379 . S
C1244 N1251 1.356 . S
C1245 C1244 1.363 . S
C1245 C1248 1.363 . S
N1246 C1248 1.356 . S
N1246 H1258 0.984 . S
N1246 H1259 0.985 . S
N1247 C1249 1.356 . S
N1247 H1252 0.984 . S
N1247 H1253 0.985 . S
C1248 C1242 1.379 . S
C1248 C1245 1.363 . S
C1248 N1246 1.356 . S
C1249 C1243 1.363 . S
C1249 C1244 1.379 . S
C1249 N1247 1.356 . S
N1250 C1242 1.356 . S
N1250 H1256 0.984 . S
N1250 H1257 0.984 . S
N1251 C1244 1.356 . S
N1251 H1254 0.984 . S
N1251 H1255 0.985 . S
H1252 N1247 0.984 . S
H1253 N1247 0.985 . S
H1254 N1251 0.984 . S
H1255 N1251 0.985 . S
H1256 N1250 0.984 . S
H1257 N1250 0.984 . S
H1258 N1246 0.984 . S
H1259 N1246 0.985 . S
C1260 C1261 1.363 . S
C1260 C1266 1.379 . S
C1260 N1268 1.356 1_556 S
C1261 C1260 1.363 . S
C1261 C1267 1.363 . S
C1262 C1263 1.363 . S
C1262 C1267 1.379 . S
C1262 N1269 1.356 . S
C1263 C1262 1.363 . S
C1263 C1266 1.363 . S
N1264 C1266 1.356 . S
N1264 H1276 0.984 . S
N1264 H1277 0.985 . S
N1265 C1267 1.356 . S
N1265 H1270 0.984 . S
N1265 H1271 0.986 . S
C1266 C1260 1.379 . S
C1266 C1263 1.363 . S
C1266 N1264 1.356 . S
C1267 C1261 1.363 . S
C1267 C1262 1.379 . S
C1267 N1265 1.356 . S
N1268 C1260 1.356 1_554 S
N1268 H1274 0.984 . S
N1268 H1275 0.984 . S
N1269 C1262 1.356 . S
N1269 H1272 0.984 . S
N1269 H1273 0.985 . S
H1270 N1265 0.984 . S
H1271 N1265 0.986 . S
H1272 N1269 0.984 . S
H1273 N1269 0.985 . S
H1274 N1268 0.984 . S
H1275 N1268 0.984 . S
H1276 N1264 0.984 . S
H1277 N1264 0.985 . S
C1278 C1279 1.363 . S
C1278 C1284 1.379 . S
C1278 N1286 1.356 . S
C1279 C1278 1.363 . S
C1279 C1285 1.363 . S
C1280 C1281 1.363 . S
C1280 C1285 1.379 . S
C1280 N1287 1.356 . S
C1281 C1280 1.363 . S
C1281 C1284 1.363 . S
N1282 C1284 1.356 1_554 S
N1282 H1294 0.984 . S
N1282 H1295 0.985 . S
N1283 C1285 1.356 . S
N1283 H1288 0.984 . S
N1283 H1289 0.985 . S
C1284 C1278 1.379 . S
C1284 C1281 1.363 . S
C1284 N1282 1.356 1_556 S
C1285 C1279 1.363 . S
C1285 C1280 1.379 . S
C1285 N1283 1.356 . S
N1286 C1278 1.356 . S
N1286 H1292 0.984 . S
N1286 H1293 0.984 . S
N1287 C1280 1.356 . S
N1287 H1290 0.984 . S
N1287 H1291 0.985 . S
H1288 N1283 0.984 . S
H1289 N1283 0.985 . S
H1290 N1287 0.984 . S
H1291 N1287 0.985 . S
H1292 N1286 0.984 . S
H1293 N1286 0.984 . S
H1294 N1282 0.984 . S
H1295 N1282 0.985 . S
C1296 C1297 1.363 . S
C1296 C1302 1.379 . S
C1296 N1304 1.356 . S
C1297 C1296 1.363 . S
C1297 C1303 1.363 . S
C1298 C1299 1.363 . S
C1298 C1303 1.379 . S
C1298 N1305 1.356 . S
C1299 C1298 1.363 . S
C1299 C1302 1.363 . S
N1300 C1302 1.356 . S
N1300 H1312 0.984 . S
N1300 H1313 0.985 . S
N1301 C1303 1.356 1_554 S
N1301 H1306 0.984 . S
N1301 H1307 0.985 . S
C1302 C1296 1.379 . S
C1302 C1299 1.363 . S
C1302 N1300 1.356 . S
C1303 C1297 1.363 . S
C1303 C1298 1.379 . S
C1303 N1301 1.356 1_556 S
N1304 C1296 1.356 . S
N1304 H1310 0.984 . S
N1304 H1311 0.984 . S
N1305 C1298 1.356 . S
N1305 H1308 0.984 . S
N1305 H1309 0.985 . S
H1306 N1301 0.984 . S
H1307 N1301 0.985 . S
H1308 N1305 0.984 . S
H1309 N1305 0.985 . S
H1310 N1304 0.984 . S
H1311 N1304 0.984 . S
H1312 N1300 0.984 . S
H1313 N1300 0.985 . S
C1314 C1315 1.363 . S
C1314 C1320 1.379 . S
C1314 N1322 1.356 . S
C1315 C1314 1.363 . S
C1315 C1321 1.363 . S
C1316 C1317 1.363 . S
C1316 C1321 1.379 . S
C1316 N1323 1.356 . S
C1317 C1316 1.363 . S
C1317 C1320 1.363 . S
N1318 C1320 1.356 . S
N1318 H1330 0.984 . S
N1318 H1331 0.985 . S
N1319 C1321 1.356 . S
N1319 H1324 0.984 . S
N1319 H1325 0.985 . S
C1320 C1314 1.379 . S
C1320 C1317 1.363 . S
C1320 N1318 1.356 . S
C1321 C1315 1.363 . S
C1321 C1316 1.379 . S
C1321 N1319 1.356 . S
N1322 C1314 1.356 . S
N1322 H1328 0.984 . S
N1322 H1329 0.984 . S
N1323 C1316 1.356 . S
N1323 H1326 0.984 . S
N1323 H1327 0.985 1_655 S
H1324 N1319 0.984 . S
H1325 N1319 0.985 . S
H1326 N1323 0.984 . S
H1327 N1323 0.985 1_455 S
H1328 N1322 0.984 . S
H1329 N1322 0.984 . S
H1330 N1318 0.984 . S
H1331 N1318 0.985 . S
C1332 C1333 1.363 . S
C1332 C1338 1.379 . S
C1332 N1340 1.356 . S
C1333 C1332 1.363 . S
C1333 C1339 1.363 . S
C1334 C1335 1.363 . S
C1334 C1339 1.379 . S
C1334 N1341 1.356 . S
C1335 C1334 1.363 . S
C1335 C1338 1.363 . S
N1336 C1338 1.356 . S
N1336 H1348 0.984 . S
N1336 H1349 0.985 . S
N1337 C1339 1.356 . S
N1337 H1342 0.984 . S
N1337 H1343 0.985 . S
C1338 C1332 1.379 . S
C1338 C1335 1.363 . S
C1338 N1336 1.356 . S
C1339 C1333 1.363 . S
C1339 C1334 1.379 . S
C1339 N1337 1.356 . S
N1340 C1332 1.356 . S
N1340 H1346 0.984 . S
N1340 H1347 0.984 . S
N1341 C1334 1.356 . S
N1341 H1344 0.984 . S
N1341 H1345 0.985 . S
H1342 N1337 0.984 . S
H1343 N1337 0.985 . S
H1344 N1341 0.984 . S
H1345 N1341 0.985 . S
H1346 N1340 0.984 . S
H1347 N1340 0.984 . S
H1348 N1336 0.984 . S
H1349 N1336 0.985 . S
C1350 C1351 1.363 . S
C1350 C1356 1.379 . S
C1350 N1358 1.356 . S
C1351 C1350 1.363 . S
C1351 C1357 1.363 . S
C1352 C1353 1.363 . S
C1352 C1357 1.379 . S
C1352 N1359 1.356 . S
C1353 C1352 1.363 . S
C1353 C1356 1.363 . S
N1354 C1356 1.356 . S
N1354 H1366 0.984 . S
N1354 H1367 0.985 . S
N1355 C1357 1.356 . S
N1355 H1360 0.984 . S
N1355 H1361 0.985 . S
C1356 C1350 1.379 . S
C1356 C1353 1.363 . S
C1356 N1354 1.356 . S
C1357 C1351 1.363 . S
C1357 C1352 1.379 . S
C1357 N1355 1.356 . S
N1358 C1350 1.356 . S
N1358 H1364 0.984 . S
N1358 H1365 0.984 . S
N1359 C1352 1.356 . S
N1359 H1362 0.984 . S
N1359 H1363 0.985 . S
H1360 N1355 0.984 . S
H1361 N1355 0.985 . S
H1362 N1359 0.984 . S
H1363 N1359 0.985 . S
H1364 N1358 0.984 . S
H1365 N1358 0.984 . S
H1366 N1354 0.984 . S
H1367 N1354 0.985 . S
C1368 C1369 1.363 . S
C1368 C1374 1.379 . S
C1368 N1376 1.356 . S
C1369 C1368 1.363 . S
C1369 C1375 1.363 . S
C1370 C1371 1.363 . S
C1370 C1375 1.379 . S
C1370 N1377 1.356 . S
C1371 C1370 1.363 . S
C1371 C1374 1.363 . S
N1372 C1374 1.356 . S
N1372 H1384 0.984 . S
N1372 H1385 0.985 . S
N1373 C1375 1.356 . S
N1373 H1378 0.984 . S
N1373 H1379 0.985 . S
C1374 C1368 1.379 . S
C1374 C1371 1.363 . S
C1374 N1372 1.356 . S
C1375 C1369 1.363 . S
C1375 C1370 1.379 . S
C1375 N1373 1.356 . S
N1376 C1368 1.356 . S
N1376 H1382 0.984 . S
N1376 H1383 0.984 . S
N1377 C1370 1.356 . S
N1377 H1380 0.984 . S
N1377 H1381 0.985 . S
H1378 N1373 0.984 . S
H1379 N1373 0.985 . S
H1380 N1377 0.984 . S
H1381 N1377 0.985 . S
H1382 N1376 0.984 . S
H1383 N1376 0.984 . S
H1384 N1372 0.984 . S
H1385 N1372 0.985 . S
C1386 C1387 1.363 1_545 S
C1386 C1392 1.379 . S
C1386 N1394 1.356 1_545 S
C1387 C1386 1.363 1_565 S
C1387 C1393 1.363 . S
C1388 C1389 1.363 . S
C1388 C1393 1.379 1_545 S
C1388 N1395 1.356 . S
C1389 C1388 1.363 . S
C1389 C1392 1.363 . S
N1390 C1392 1.356 . S
N1390 H1402 0.984 . S
N1390 H1403 0.985 . S
N1391 C1393 1.356 . S
N1391 H1396 0.984 . S
N1391 H1397 0.985 . S
C1392 C1386 1.379 . S
C1392 C1389 1.363 . S
C1392 N1390 1.356 . S
C1393 C1387 1.363 . S
C1393 C1388 1.379 1_565 S
C1393 N1391 1.356 . S
N1394 C1386 1.356 1_565 S
N1394 H1400 0.984 . S
N1394 H1401 0.984 . S
N1395 C1388 1.356 . S
N1395 H1398 0.984 . S
N1395 H1399 0.985 . S
H1396 N1391 0.984 . S
H1397 N1391 0.985 . S
H1398 N1395 0.984 . S
H1399 N1395 0.985 . S
H1400 N1394 0.984 . S
H1401 N1394 0.984 . S
H1402 N1390 0.984 . S
H1403 N1390 0.985 . S
C1404 C1405 1.363 . S
C1404 C1410 1.379 1_455 S
C1404 N1412 1.356 . S
C1405 C1404 1.363 . S
C1405 C1411 1.363 . S
C1406 C1407 1.363 . S
C1406 C1411 1.379 1_655 S
C1406 N1413 1.356 . S
C1407 C1406 1.363 . S
C1407 C1410 1.363 . S
N1408 C1410 1.356 . S
N1408 H1420 0.984 . S
N1408 H1421 0.985 . S
N1409 C1411 1.356 . S
N1409 H1414 0.984 . S
N1409 H1415 0.985 . S
C1410 C1404 1.379 1_655 S
C1410 C1407 1.363 . S
C1410 N1408 1.356 . S
C1411 C1405 1.363 . S
C1411 C1406 1.379 1_455 S
C1411 N1409 1.356 . S
N1412 C1404 1.356 . S
N1412 H1418 0.984 . S
N1412 H1419 0.984 . S
N1413 C1406 1.356 . S
N1413 H1416 0.984 . S
N1413 H1417 0.985 . S
H1414 N1409 0.984 . S
H1415 N1409 0.985 . S
H1416 N1413 0.984 . S
H1417 N1413 0.985 . S
H1418 N1412 0.984 . S
H1419 N1412 0.984 . S
H1420 N1408 0.984 . S
H1421 N1408 0.985 . S
C1422 C1423 1.363 . S
C1422 C1428 1.379 . S
C1422 N1430 1.356 . S
C1423 C1422 1.363 . S
C1423 C1429 1.363 . S
C1424 C1425 1.363 . S
C1424 C1429 1.379 . S
C1424 N1431 1.356 . S
C1425 C1424 1.363 . S
C1425 C1428 1.363 . S
N1426 C1428 1.356 . S
N1426 H1438 0.984 . S
N1426 H1439 0.985 . S
N1427 C1429 1.356 . S
N1427 H1432 0.984 . S
N1427 H1433 0.985 . S
C1428 C1422 1.379 . S
C1428 C1425 1.363 . S
C1428 N1426 1.356 . S
C1429 C1423 1.363 . S
C1429 C1424 1.379 . S
C1429 N1427 1.356 . S
N1430 C1422 1.356 . S
N1430 H1436 0.984 . S
N1430 H1437 0.984 . S
N1431 C1424 1.356 . S
N1431 H1434 0.984 . S
N1431 H1435 0.985 . S
H1432 N1427 0.984 . S
H1433 N1427 0.985 . S
H1434 N1431 0.984 . S
H1435 N1431 0.985 . S
H1436 N1430 0.984 . S
H1437 N1430 0.984 . S
H1438 N1426 0.984 . S
H1439 N1426 0.985 . S
C1440 C1441 1.363 . S
C1440 C1446 1.379 1_565 S
C1440 N1448 1.356 . S
C1441 C1440 1.363 . S
C1441 C1447 1.363 1_565 S
C1442 C1443 1.363 . S
C1442 C1447 1.379 . S
C1442 N1449 1.356 . S
C1443 C1442 1.363 . S
C1443 C1446 1.363 . S
N1444 C1446 1.356 . S
N1444 H1456 0.984 . S
N1444 H1457 0.985 . S
N1445 C1447 1.356 1_565 S
N1445 H1450 0.984 . S
N1445 H1451 0.985 . S
C1446 C1440 1.379 1_545 S
C1446 C1443 1.363 . S
C1446 N1444 1.356 . S
C1447 C1441 1.363 1_545 S
C1447 C1442 1.379 . S
C1447 N1445 1.356 1_545 S
N1448 C1440 1.356 . S
N1448 H1454 0.984 . S
N1448 H1455 0.984 . S
N1449 C1442 1.356 . S
N1449 H1452 0.984 . S
N1449 H1453 0.985 . S
H1450 N1445 0.984 . S
H1451 N1445 0.985 . S
H1452 N1449 0.984 . S
H1453 N1449 0.985 . S
H1454 N1448 0.984 . S
H1455 N1448 0.984 . S
H1456 N1444 0.984 . S
H1457 N1444 0.985 . S
C1458 C1459 1.363 . S
C1458 C1464 1.379 1_455 S
C1458 N1466 1.356 . S
C1459 C1458 1.363 . S
C1459 C1465 1.363 . S
C1460 C1461 1.363 . S
C1460 C1465 1.379 1_655 S
C1460 N1467 1.356 . S
C1461 C1460 1.363 . S
C1461 C1464 1.363 . S
N1462 C1464 1.356 . S
N1462 H1474 0.984 . S
N1462 H1475 0.985 . S
N1463 C1465 1.356 . S
N1463 H1468 0.984 . S
N1463 H1469 0.985 . S
C1464 C1458 1.379 1_655 S
C1464 C1461 1.363 . S
C1464 N1462 1.356 . S
C1465 C1459 1.363 . S
C1465 C1460 1.379 1_455 S
C1465 N1463 1.356 . S
N1466 C1458 1.356 . S
N1466 H1472 0.984 . S
N1466 H1473 0.984 . S
N1467 C1460 1.356 . S
N1467 H1470 0.984 . S
N1467 H1471 0.985 . S
H1468 N1463 0.984 . S
H1469 N1463 0.985 . S
H1470 N1467 0.984 . S
H1471 N1467 0.985 . S
H1472 N1466 0.984 . S
H1473 N1466 0.984 . S
H1474 N1462 0.984 . S
H1475 N1462 0.985 . S
C1476 C1477 1.363 . S
C1476 C1482 1.379 . S
C1476 N1484 1.356 . S
C1477 C1476 1.363 . S
C1477 C1483 1.363 . S
C1478 C1479 1.363 . S
C1478 C1483 1.379 . S
C1478 N1485 1.356 . S
C1479 C1478 1.363 . S
C1479 C1482 1.363 . S
N1480 C1482 1.356 . S
N1480 H1492 0.984 . S
N1480 H1493 0.985 . S
N1481 C1483 1.356 . S
N1481 H1486 0.984 1_556 S
N1481 H1487 0.985 . S
C1482 C1476 1.379 . S
C1482 C1479 1.363 . S
C1482 N1480 1.356 . S
C1483 C1477 1.363 . S
C1483 C1478 1.379 . S
C1483 N1481 1.356 . S
N1484 C1476 1.356 . S
N1484 H1490 0.984 . S
N1484 H1491 0.984 1_556 S
N1485 C1478 1.356 . S
N1485 H1488 0.984 . S
N1485 H1489 0.985 . S
H1486 N1481 0.984 1_554 S
H1487 N1481 0.985 . S
H1488 N1485 0.984 . S
H1489 N1485 0.985 . S
H1490 N1484 0.984 . S
H1491 N1484 0.984 1_554 S
H1492 N1480 0.984 . S
H1493 N1480 0.985 . S
C1494 C1495 1.363 . S
C1494 C1500 1.379 . S
C1494 N1502 1.356 1_556 S
C1495 C1494 1.363 . S
C1495 C1501 1.363 . S
C1496 C1497 1.363 . S
C1496 C1501 1.379 . S
C1496 N1503 1.356 . S
C1497 C1496 1.363 . S
C1497 C1500 1.363 . S
N1498 C1500 1.356 . S
N1498 H1510 0.984 . S
N1498 H1511 0.985 . S
N1499 C1501 1.356 . S
N1499 H1504 0.984 1_556 S
N1499 H1505 0.985 . S
C1500 C1494 1.379 . S
C1500 C1497 1.363 . S
C1500 N1498 1.356 . S
C1501 C1495 1.363 . S
C1501 C1496 1.379 . S
C1501 N1499 1.356 . S
N1502 C1494 1.356 1_554 S
N1502 H1508 0.984 . S
N1502 H1509 0.984 . S
N1503 C1496 1.356 . S
N1503 H1506 0.984 . S
N1503 H1507 0.985 . S
H1504 N1499 0.984 1_554 S
H1505 N1499 0.985 . S
H1506 N1503 0.984 . S
H1507 N1503 0.985 . S
H1508 N1502 0.984 . S
H1509 N1502 0.984 . S
H1510 N1498 0.984 . S
H1511 N1498 0.985 . S
C1512 C1513 1.363 . S
C1512 C1518 1.379 . S
C1512 N1520 1.356 . S
C1513 C1512 1.363 . S
C1513 C1519 1.363 . S
C1514 C1515 1.363 . S
C1514 C1519 1.379 . S
C1514 N1521 1.356 . S
C1515 C1514 1.363 . S
C1515 C1518 1.363 . S
N1516 C1518 1.356 . S
N1516 H1528 0.984 . S
N1516 H1529 0.985 . S
N1517 C1519 1.356 1_554 S
N1517 H1522 0.984 . S
N1517 H1523 0.985 . S
C1518 C1512 1.379 . S
C1518 C1515 1.363 . S
C1518 N1516 1.356 . S
C1519 C1513 1.363 . S
C1519 C1514 1.379 . S
C1519 N1517 1.356 1_556 S
N1520 C1512 1.356 . S
N1520 H1526 0.984 . S
N1520 H1527 0.984 1_556 S
N1521 C1514 1.356 . S
N1521 H1524 0.984 . S
N1521 H1525 0.985 . S
H1522 N1517 0.984 . S
H1523 N1517 0.985 . S
H1524 N1521 0.984 . S
H1525 N1521 0.985 . S
H1526 N1520 0.984 . S
H1527 N1520 0.984 1_554 S
H1528 N1516 0.984 . S
H1529 N1516 0.985 . S
C1530 C1531 1.363 . S
C1530 C1536 1.379 . S
C1530 N1538 1.356 . S
C1531 C1530 1.363 . S
C1531 C1537 1.363 . S
C1532 C1533 1.363 . S
C1532 C1537 1.379 . S
C1532 N1539 1.356 . S
C1533 C1532 1.363 . S
C1533 C1536 1.363 . S
N1534 C1536 1.356 . S
N1534 H1546 0.984 . S
N1534 H1547 0.985 . S
N1535 C1537 1.356 . S
N1535 H1540 0.984 . S
N1535 H1541 0.985 . S
C1536 C1530 1.379 . S
C1536 C1533 1.363 . S
C1536 N1534 1.356 . S
C1537 C1531 1.363 . S
C1537 C1532 1.379 . S
C1537 N1535 1.356 . S
N1538 C1530 1.356 . S
N1538 H1544 0.984 . S
N1538 H1545 0.984 . S
N1539 C1532 1.356 . S
N1539 H1542 0.984 . S
N1539 H1543 0.985 . S
H1540 N1535 0.984 . S
H1541 N1535 0.985 . S
H1542 N1539 0.984 . S
H1543 N1539 0.985 . S
H1544 N1538 0.984 . S
H1545 N1538 0.984 . S
H1546 N1534 0.984 . S
H1547 N1534 0.985 . S
C1548 C1549 1.363 . S
C1548 C1554 1.379 . S
C1548 N1556 1.356 . S
C1549 C1548 1.363 . S
C1549 C1555 1.363 . S
C1550 C1551 1.363 . S
C1550 C1555 1.379 . S
C1550 N1557 1.356 . S
C1551 C1550 1.363 . S
C1551 C1554 1.363 . S
N1552 C1554 1.356 . S
N1552 H1564 0.984 . S
N1552 H1565 0.985 . S
N1553 C1555 1.356 . S
N1553 H1558 0.984 . S
N1553 H1559 0.985 . S
C1554 C1548 1.379 . S
C1554 C1551 1.363 . S
C1554 N1552 1.356 . S
C1555 C1549 1.363 . S
C1555 C1550 1.379 . S
C1555 N1553 1.356 . S
N1556 C1548 1.356 . S
N1556 H1562 0.984 . S
N1556 H1563 0.984 . S
N1557 C1550 1.356 . S
N1557 H1560 0.984 . S
N1557 H1561 0.985 . S
H1558 N1553 0.984 . S
H1559 N1553 0.985 . S
H1560 N1557 0.984 . S
H1561 N1557 0.985 . S
H1562 N1556 0.984 . S
H1563 N1556 0.984 . S
H1564 N1552 0.984 . S
H1565 N1552 0.985 . S
C1566 C1567 1.363 . S
C1566 C1572 1.379 . S
C1566 N1574 1.356 . S
C1567 C1566 1.363 . S
C1567 C1573 1.363 . S
C1568 C1569 1.363 . S
C1568 C1573 1.379 . S
C1568 N1575 1.356 . S
C1569 C1568 1.363 . S
C1569 C1572 1.363 . S
N1570 C1572 1.356 . S
N1570 H1582 0.984 . S
N1570 H1583 0.985 . S
N1571 C1573 1.356 . S
N1571 H1576 0.984 . S
N1571 H1577 0.985 . S
C1572 C1566 1.379 . S
C1572 C1569 1.363 . S
C1572 N1570 1.356 . S
C1573 C1567 1.363 . S
C1573 C1568 1.379 . S
C1573 N1571 1.356 . S
N1574 C1566 1.356 . S
N1574 H1580 0.984 . S
N1574 H1581 0.984 . S
N1575 C1568 1.356 . S
N1575 H1578 0.984 . S
N1575 H1579 0.985 . S
H1576 N1571 0.984 . S
H1577 N1571 0.985 . S
H1578 N1575 0.984 . S
H1579 N1575 0.985 . S
H1580 N1574 0.984 . S
H1581 N1574 0.984 . S
H1582 N1570 0.984 . S
H1583 N1570 0.985 . S
C1584 C1585 1.363 . S
C1584 C1590 1.379 . S
C1584 N1592 1.356 . S
C1585 C1584 1.363 . S
C1585 C1591 1.363 . S
C1586 C1587 1.363 . S
C1586 C1591 1.379 . S
C1586 N1593 1.356 . S
C1587 C1586 1.363 . S
C1587 C1590 1.363 . S
N1588 C1590 1.356 . S
N1588 H1600 0.984 . S
N1588 H1601 0.985 1_554 S
N1589 C1591 1.356 . S
N1589 H1594 0.984 . S
N1589 H1595 0.985 . S
C1590 C1584 1.379 . S
C1590 C1587 1.363 . S
C1590 N1588 1.356 . S
C1591 C1585 1.363 . S
C1591 C1586 1.379 . S
C1591 N1589 1.356 . S
N1592 C1584 1.356 . S
N1592 H1598 0.984 . S
N1592 H1599 0.984 . S
N1593 C1586 1.356 . S
N1593 H1596 0.984 1_554 S
N1593 H1597 0.985 . S
H1594 N1589 0.984 . S
H1595 N1589 0.985 . S
H1596 N1593 0.984 1_556 S
H1597 N1593 0.985 . S
H1598 N1592 0.984 . S
H1599 N1592 0.984 . S
H1600 N1588 0.984 . S
H1601 N1588 0.985 1_556 S
C1602 C1603 1.363 . S
C1602 C1608 1.379 . S
C1602 N1610 1.356 . S
C1603 C1602 1.363 . S
C1603 C1609 1.363 . S
C1604 C1605 1.363 . S
C1604 C1609 1.379 . S
C1604 N1611 1.356 . S
C1605 C1604 1.363 . S
C1605 C1608 1.363 . S
N1606 C1608 1.356 1_556 S
N1606 H1618 0.984 . S
N1606 H1619 0.985 . S
N1607 C1609 1.356 . S
N1607 H1612 0.984 . S
N1607 H1613 0.985 . S
C1608 C1602 1.379 . S
C1608 C1605 1.363 . S
C1608 N1606 1.356 1_554 S
C1609 C1603 1.363 . S
C1609 C1604 1.379 . S
C1609 N1607 1.356 . S
N1610 C1602 1.356 . S
N1610 H1616 0.984 . S
N1610 H1617 0.984 . S
N1611 C1604 1.356 . S
N1611 H1614 0.984 1_554 S
N1611 H1615 0.985 . S
H1612 N1607 0.984 . S
H1613 N1607 0.985 . S
H1614 N1611 0.984 1_556 S
H1615 N1611 0.985 . S
H1616 N1610 0.984 . S
H1617 N1610 0.984 . S
H1618 N1606 0.984 . S
H1619 N1606 0.985 . S
C1620 C1621 1.363 . S
C1620 C1626 1.379 . S
C1620 N1628 1.356 . S
C1621 C1620 1.363 . S
C1621 C1627 1.363 . S
C1622 C1623 1.363 . S
C1622 C1627 1.379 . S
C1622 N1629 1.356 1_554 S
C1623 C1622 1.363 . S
C1623 C1626 1.363 . S
N1624 C1626 1.360 . S
N1624 H1636 0.986 . S
N1624 H1637 0.980 1_554 S
N1625 C1627 1.356 . S
N1625 H1630 0.984 . S
N1625 H1631 0.985 . S
C1626 C1620 1.379 . S
C1626 C1623 1.363 . S
C1626 N1624 1.360 . S
C1627 C1621 1.363 . S
C1627 C1622 1.379 . S
C1627 N1625 1.356 . S
N1628 C1620 1.356 . S
N1628 H1634 0.984 . S
N1628 H1635 0.984 . S
N1629 C1622 1.356 1_556 S
N1629 H1632 0.984 . S
N1629 H1633 0.985 1_556 S
H1630 N1625 0.984 . S
H1631 N1625 0.985 . S
H1632 N1629 0.984 . S
H1633 N1629 0.985 1_554 S
H1634 N1628 0.984 . S
H1635 N1628 0.984 . S
H1636 N1624 0.986 . S
H1637 N1624 0.980 1_556 S
C1638 C1639 1.363 . S
C1638 C1644 1.379 . S
C1638 N1646 1.356 . S
C1639 C1638 1.363 . S
C1639 C1645 1.363 . S
C1640 C1641 1.363 . S
C1640 C1645 1.379 . S
C1640 N1647 1.356 . S
C1641 C1640 1.363 . S
C1641 C1644 1.363 . S
N1642 C1644 1.356 . S
N1642 H1654 0.984 . S
N1642 H1655 0.985 . S
N1643 C1645 1.356 . S
N1643 H1648 0.984 . S
N1643 H1649 0.985 . S
C1644 C1638 1.379 . S
C1644 C1641 1.363 . S
C1644 N1642 1.356 . S
C1645 C1639 1.363 . S
C1645 C1640 1.379 . S
C1645 N1643 1.356 . S
N1646 C1638 1.356 . S
N1646 H1652 0.984 . S
N1646 H1653 0.984 . S
N1647 C1640 1.356 . S
N1647 H1650 0.984 . S
N1647 H1651 0.985 . S
H1648 N1643 0.984 . S
H1649 N1643 0.985 . S
H1650 N1647 0.984 . S
H1651 N1647 0.985 . S
H1652 N1646 0.984 . S
H1653 N1646 0.984 . S
H1654 N1642 0.984 . S
H1655 N1642 0.985 . S
C1656 C1657 1.363 . S
C1656 C1662 1.379 . S
C1656 N1664 1.356 . S
C1657 C1656 1.363 . S
C1657 C1663 1.363 . S
C1658 C1659 1.363 . S
C1658 C1663 1.379 . S
C1658 N1665 1.356 . S
C1659 C1658 1.363 . S
C1659 C1662 1.363 . S
N1660 C1662 1.356 . S
N1660 H1672 0.984 . S
N1660 H1673 0.985 . S
N1661 C1663 1.356 . S
N1661 H1666 0.984 . S
N1661 H1667 0.985 . S
C1662 C1656 1.379 . S
C1662 C1659 1.363 . S
C1662 N1660 1.356 . S
C1663 C1657 1.363 . S
C1663 C1658 1.379 . S
C1663 N1661 1.356 . S
N1664 C1656 1.356 . S
N1664 H1670 0.984 . S
N1664 H1671 0.984 . S
N1665 C1658 1.356 . S
N1665 H1668 0.984 . S
N1665 H1669 0.985 . S
H1666 N1661 0.984 . S
H1667 N1661 0.985 . S
H1668 N1665 0.984 . S
H1669 N1665 0.985 . S
H1670 N1664 0.984 . S
H1671 N1664 0.984 . S
H1672 N1660 0.984 . S
H1673 N1660 0.985 . S
C1674 C1675 1.363 . S
C1674 C1680 1.379 . S
C1674 N1682 1.356 . S
C1675 C1674 1.363 . S
C1675 C1681 1.363 . S
C1676 C1677 1.363 . S
C1676 C1681 1.379 . S
C1676 N1683 1.356 . S
C1677 C1676 1.363 . S
C1677 C1680 1.363 . S
N1678 C1680 1.356 . S
N1678 H1690 0.984 . S
N1678 H1691 0.985 . S
N1679 C1681 1.356 . S
N1679 H1684 0.984 . S
N1679 H1685 0.985 . S
C1680 C1674 1.379 . S
C1680 C1677 1.363 . S
C1680 N1678 1.356 . S
C1681 C1675 1.363 . S
C1681 C1676 1.379 . S
C1681 N1679 1.356 . S
N1682 C1674 1.356 . S
N1682 H1688 0.984 . S
N1682 H1689 0.984 . S
N1683 C1676 1.356 . S
N1683 H1686 0.984 . S
N1683 H1687 0.985 . S
H1684 N1679 0.984 . S
H1685 N1679 0.985 . S
H1686 N1683 0.984 . S
H1687 N1683 0.985 . S
H1688 N1682 0.984 . S
H1689 N1682 0.984 . S
H1690 N1678 0.984 . S
H1691 N1678 0.985 . S
C1692 C1693 1.360 1_455 S
C1692 C1698 1.378 1_455 S
C1692 N1700 1.359 . S
C1693 C1692 1.360 1_655 S
C1693 C1699 1.363 . S
C1694 C1695 1.363 . S
C1694 C1699 1.379 . S
C1694 N1701 1.356 . S
C1695 C1694 1.363 . S
C1695 C1698 1.363 . S
N1696 C1698 1.356 1_455 S
N1696 H1708 0.984 . S
N1696 H1709 0.985 . S
N1697 C1699 1.356 . S
N1697 H1702 0.984 . S
N1697 H1703 0.985 . S
C1698 C1692 1.378 1_655 S
C1698 C1695 1.363 . S
C1698 N1696 1.356 1_655 S
C1699 C1693 1.363 . S
C1699 C1694 1.379 . S
C1699 N1697 1.356 . S
N1700 C1692 1.359 . S
N1700 H1706 0.984 . S
N1700 H1707 0.984 . S
N1701 C1694 1.356 . S
N1701 H1704 0.984 . S
N1701 H1705 0.985 . S
H1702 N1697 0.984 . S
H1703 N1697 0.985 . S
H1704 N1701 0.984 . S
H1705 N1701 0.985 . S
H1706 N1700 0.984 . S
H1707 N1700 0.984 . S
H1708 N1696 0.984 . S
H1709 N1696 0.985 . S
C1710 C1711 1.363 . S
C1710 C1716 1.379 . S
C1710 N1718 1.356 . S
C1711 C1710 1.363 . S
C1711 C1717 1.363 . S
C1712 C1713 1.363 . S
C1712 C1717 1.379 . S
C1712 N1719 1.356 . S
C1713 C1712 1.363 . S
C1713 C1716 1.363 . S
N1714 C1716 1.356 . S
N1714 H1726 0.984 . S
N1714 H1727 0.985 . S
N1715 C1717 1.356 . S
N1715 H1720 0.984 . S
N1715 H1721 0.985 . S
C1716 C1710 1.379 . S
C1716 C1713 1.363 . S
C1716 N1714 1.356 . S
C1717 C1711 1.363 . S
C1717 C1712 1.379 . S
C1717 N1715 1.356 . S
N1718 C1710 1.356 . S
N1718 H1724 0.984 . S
N1718 H1725 0.984 . S
N1719 C1712 1.356 . S
N1719 H1722 0.984 . S
N1719 H1723 0.985 . S
H1720 N1715 0.984 . S
H1721 N1715 0.985 . S
H1722 N1719 0.984 . S
H1723 N1719 0.985 . S
H1724 N1718 0.984 . S
H1725 N1718 0.984 . S
H1726 N1714 0.984 . S
H1727 N1714 0.985 . S
C1728 C1729 1.345 1_545 S
C1728 C1734 1.376 1_545 S
C1728 N1736 1.374 . S
C1729 C1728 1.345 1_565 S
C1729 C1735 1.363 . S
C1730 C1731 1.363 . S
C1730 C1735 1.379 . S
C1730 N1737 1.356 . S
C1731 C1730 1.363 . S
C1731 C1734 1.363 . S
N1732 C1734 1.356 1_545 S
N1732 H1744 0.984 . S
N1732 H1745 1.009 . S
N1733 C1735 1.356 . S
N1733 H1738 0.984 . S
N1733 H1739 0.985 . S
C1734 C1728 1.376 1_565 S
C1734 C1731 1.363 . S
C1734 N1732 1.356 1_565 S
C1735 C1729 1.363 . S
C1735 C1730 1.379 . S
C1735 N1733 1.356 . S
N1736 C1728 1.374 . S
N1736 H1742 0.984 . S
N1736 H1743 0.984 . S
N1737 C1730 1.356 . S
N1737 H1740 0.984 . S
N1737 H1741 0.985 . S
H1738 N1733 0.984 . S
H1739 N1733 0.985 . S
H1740 N1737 0.984 . S
H1741 N1737 0.985 . S
H1742 N1736 0.984 . S
H1743 N1736 0.984 . S
H1744 N1732 0.984 . S
H1745 N1732 1.009 . S
C1746 C1747 1.363 . S
C1746 C1752 1.379 . S
C1746 N1754 1.356 1_545 S
C1747 C1746 1.363 . S
C1747 C1753 1.363 . S
C1748 C1749 1.363 . S
C1748 C1753 1.379 . S
C1748 N1755 1.356 . S
C1749 C1748 1.363 . S
C1749 C1752 1.363 . S
N1750 C1752 1.356 1_565 S
N1750 H1762 0.984 . S
N1750 H1763 1.001 . S
N1751 C1753 1.356 . S
N1751 H1756 0.984 . S
N1751 H1757 0.985 . S
C1752 C1746 1.379 . S
C1752 C1749 1.363 . S
C1752 N1750 1.356 1_545 S
C1753 C1747 1.363 . S
C1753 C1748 1.379 . S
C1753 N1751 1.356 . S
N1754 C1746 1.356 1_565 S
N1754 H1760 0.984 . S
N1754 H1761 0.984 1_565 S
N1755 C1748 1.356 . S
N1755 H1758 0.984 . S
N1755 H1759 0.985 . S
H1756 N1751 0.984 . S
H1757 N1751 0.985 . S
H1758 N1755 0.984 . S
H1759 N1755 0.985 . S
H1760 N1754 0.984 . S
H1761 N1754 0.984 1_545 S
H1762 N1750 0.984 . S
H1763 N1750 1.001 . S
C1764 C1765 1.363 . S
C1764 C1770 1.379 . S
C1764 N1772 1.356 . S
C1765 C1764 1.363 . S
C1765 C1771 1.363 . S
C1766 C1767 1.363 . S
C1766 C1771 1.379 . S
C1766 N1773 1.356 1_455 S
C1767 C1766 1.363 . S
C1767 C1770 1.363 . S
N1768 C1770 1.356 . S
N1768 H1780 0.984 . S
N1768 H1781 0.985 . S
N1769 C1771 1.356 1_655 S
N1769 H1774 0.997 . S
N1769 H1775 0.985 . S
C1770 C1764 1.379 . S
C1770 C1767 1.363 . S
C1770 N1768 1.356 . S
C1771 C1765 1.363 . S
C1771 C1766 1.379 . S
C1771 N1769 1.356 1_455 S
N1772 C1764 1.356 . S
N1772 H1778 0.984 . S
N1772 H1779 0.984 . S
N1773 C1766 1.356 1_655 S
N1773 H1776 0.984 . S
N1773 H1777 0.985 . S
H1774 N1769 0.997 . S
H1775 N1769 0.985 . S
H1776 N1773 0.984 . S
H1777 N1773 0.985 . S
H1778 N1772 0.984 . S
H1779 N1772 0.984 . S
H1780 N1768 0.984 . S
H1781 N1768 0.985 . S
C1782 C1783 1.363 . S
C1782 C1788 1.379 . S
C1782 N1790 1.356 . S
C1783 C1782 1.363 . S
C1783 C1789 1.363 . S
C1784 C1785 1.363 . S
C1784 C1789 1.379 . S
C1784 N1791 1.356 . S
C1785 C1784 1.363 . S
C1785 C1788 1.363 . S
N1786 C1788 1.356 . S
N1786 H1798 0.984 . S
N1786 H1799 0.985 . S
N1787 C1789 1.356 . S
N1787 H1792 0.984 . S
N1787 H1793 0.985 . S
C1788 C1782 1.379 . S
C1788 C1785 1.363 . S
C1788 N1786 1.356 . S
C1789 C1783 1.363 . S
C1789 C1784 1.379 . S
C1789 N1787 1.356 . S
N1790 C1782 1.356 . S
N1790 H1796 0.984 . S
N1790 H1797 0.984 . S
N1791 C1784 1.356 . S
N1791 H1794 0.984 . S
N1791 H1795 0.985 . S
H1792 N1787 0.984 . S
H1793 N1787 0.985 . S
H1794 N1791 0.984 . S
H1795 N1791 0.985 . S
H1796 N1790 0.984 . S
H1797 N1790 0.984 . S
H1798 N1786 0.984 . S
H1799 N1786 0.985 . S
C505 C232 1.576 . S
C507 C3 1.534 . S
C523 C241 1.498 . S
C525 C22 1.539 . S
C541 C213 1.680 . S
C543 C31 1.696 . S
C559 C367 1.666 1_554 S
C561 C45 1.657 . S
C577 C64 1.562 . S
C579 C339 1.508 . S
C595 C73 1.483 . S
C597 C358 1.521 1_554 S
C613 C92 1.405 . S
C615 C484 1.414 . S
C631 C498 1.380 . S
C633 C106 1.382 . S
C649 C470 1.414 . S
C651 C120 1.426 . S
C667 C134 1.395 . S
C669 C288 1.403 1_556 S
C685 C260 1.386 1_556 S
C687 C148 1.399 . S
C703 C162 1.353 . S
C705 C274 1.353 1_556 S
C721 C400 1.517 . S
C723 C171 1.475 . S
C739 C190 1.474 . S
C741 C409 1.438 . S
C757 C381 1.597 . S
C759 C199 1.599 . S
C775 C456 1.342 . S
C777 C302 1.338 . S
C793 C428 1.347 . S
C795 C316 1.354 . S
C811 C330 1.316 . S
C813 C442 1.310 . S
C829 C259 1.271 . S
C831 C9 1.248 . S
C847 C273 1.500 . S
C849 C21 1.494 . S
C865 C287 2.355 . S
C867 C37 2.093 . S
C883 C51 1.265 . S
C885 C469 1.281 . S
C901 C63 2.309 . S
C903 C483 2.290 . S
C919 C79 1.405 . S
C921 C497 1.474 . S
C937 C91 1.268 . S
C939 C345 1.242 . S
C955 C357 1.501 . S
C957 C105 1.503 . S
C973 C373 2.076 . S
C975 C119 2.366 . S
C991 C219 1.261 . S
C993 C133 1.280 . S
C1009 C147 2.288 . S
C1011 C231 2.306 . S
C1027 C161 1.490 . S
C1029 C247 1.430 . S
C1045 C177 1.275 . S
C1047 C427 1.361 . S
C1063 C441 1.448 . S
C1065 C189 1.446 . S
C1081 C455 2.036 . S
C1083 C205 1.782 . S
C1099 C387 1.312 . S
C1101 C301 1.374 1_554 S
C1117 C315 2.005 1_554 S
C1119 C399 2.023 1_556 S
C1135 C329 1.474 1_554 S
C1137 C415 1.420 . S
C1153 C386 1.581 . S
C1155 C8 1.579 . S
C1171 C17 1.582 . S
C1173 C395 1.458 . S
C1189 C36 1.662 . S
C1191 C414 1.813 . S
C1207 C176 1.553 . S
C1209 C50 1.547 . S
C1225 C59 1.476 . S
C1227 C185 1.700 . S
C1243 C78 1.647 . S
C1245 C204 1.555 . S
C1261 C297 1.500 . S
C1263 C87 1.531 . S
C1279 C101 1.645 . S
C1281 C311 1.483 . S
C1297 C325 1.693 . S
C1299 C115 1.484 . S
C1315 C129 1.497 . S
C1317 C423 1.465 . S
C1333 C437 1.782 . S
C1335 C143 1.522 . S
C1351 C451 1.403 . S
C1353 C157 1.519 . S
C1369 C344 1.600 . S
C1371 C218 1.600 . S
C1387 C353 1.728 . S
C1389 C227 1.527 . S
C1405 C372 1.707 . S
C1407 C246 1.863 . S
C1423 C255 1.540 . S
C1425 C465 1.539 . S
C1441 C479 1.564 . S
C1443 C269 1.805 . S
C1459 C493 1.768 . S
C1461 C283 1.536 . S
C1477 C7 1.168 1_556 S
C1479 C233 1.102 . S
C1495 C23 1.115 1_556 S
C1497 C245 1.238 . S
C1513 C35 1.358 1_556 S
C1515 C217 1.332 . S
C1531 C371 1.342 . S
C1533 C49 1.328 . S
C1549 C343 1.201 . S
C1551 C65 1.126 . S
C1567 C359 1.118 . S
C1569 C77 1.231 . S
C1585 C485 0.973 . S
C1587 C93 0.967 1_554 S
C1603 C499 1.004 . S
C1605 C107 1.005 1_554 S
C1621 C471 0.980 . S
C1623 C121 0.988 1_554 S
C1639 C135 0.986 . S
C1641 C289 0.992 . S
C1657 C149 0.995 . S
C1659 C261 0.988 . S
C1675 C163 1.002 . S
C1677 C275 1.001 . S
C1693 C401 1.137 . S
C1695 C175 1.215 . S
C1711 C413 1.292 . S
C1713 C191 1.172 . S
C1729 C203 1.404 . S
C1731 C385 1.385 . S
C1747 C303 1.046 . S
C1749 C457 1.060 . S
C1765 C429 1.017 . S
C1767 C317 1.023 . S
C1783 C443 1.045 . S
C1785 C331 1.042 . S
