# Generated by pormake.
# Topology sve, (7)-cn, num edge types: 1
# Building blocks:
#     Node 0, Type 0, BuildingBlock: HICVOG_clean_sbu_0, # of connection points: 7
#     Node 1, Type 0, BuildingBlock: HICVOG_clean_sbu_0, # of connection points: 7
#     Node 2, Type 0, BuildingBlock: HICVOG_clean_sbu_0, # of connection points: 7
#     Node 3, Type 0, BuildingBlock: HICVOG_clean_sbu_0, # of connection points: 7
#     Edge 4, Type (0, 0), BuildingBlock: KIFKEQ_clean_linker_1, # of connection points: 2
#     Edge 5, Type (0, 0), BuildingBlock: KIFKEQ_clean_linker_1, # of connection points: 2
#     Edge 6, Type (0, 0), BuildingBlock: KIFKEQ_clean_linker_1, # of connection points: 2
#     Edge 7, Type (0, 0), BuildingBlock: KIFKEQ_clean_linker_1, # of connection points: 2
#     Edge 8, Type (0, 0), BuildingBlock: KIFKEQ_clean_linker_1, # of connection points: 2
#     Edge 9, Type (0, 0), BuildingBlock: KIFKEQ_clean_linker_1, # of connection points: 2
#     Edge 10, Type (0, 0), BuildingBlock: KIFKEQ_clean_linker_1, # of connection points: 2
#     Edge 11, Type (0, 0), BuildingBlock: KIFKEQ_clean_linker_1, # of connection points: 2
#     Edge 12, Type (0, 0), BuildingBlock: KIFKEQ_clean_linker_1, # of connection points: 2
#     Edge 13, Type (0, 0), BuildingBlock: KIFKEQ_clean_linker_1, # of connection points: 2
#     Edge 14, Type (0, 0), BuildingBlock: KIFKEQ_clean_linker_1, # of connection points: 2
#     Edge 15, Type (0, 0), BuildingBlock: KIFKEQ_clean_linker_1, # of connection points: 2
#     Edge 16, Type (0, 0), BuildingBlock: KIFKEQ_clean_linker_1, # of connection points: 2
#     Edge 17, Type (0, 0), BuildingBlock: KIFKEQ_clean_linker_1, # of connection points: 2
# Relax obj value: 0.266
# Max RMSD: 0.295
# Mean RMSD: 0.258
data_MOF--net-sve--node1-HICVOG_clean_sbu_0--edge1-KIFKEQ_clean_linker_1
_symmetry_space_group_name_H-M    P1
_symmetry_Int_Tables_number       1
_symmetry_cell_setting            triclinic
loop_
_symmetry_equiv_pos_as_xyz
'x, y, z'
_cell_length_a     31.963417
_cell_length_b     28.20552
_cell_length_c     20.571666
_cell_angle_alpha  96.018256
_cell_angle_beta   83.345177
_cell_angle_gamma 89.253922
loop_
_atom_site_label
_atom_site_type_symbol
_atom_site_fract_x
_atom_site_fract_y
_atom_site_fract_z
_atom_type_partial_charge
Zn0 Zn 0.17269 0.31441 0.13644 0.0
C1 C 0.10527 0.40456 0.08765 0.0
N2 N 0.07465 0.38329 0.12349 0.0
C3 C 0.08931 0.33811 0.12039 0.0
N4 N 0.12835 0.33285 0.08648 0.0
N5 N 0.13697 0.37372 0.06213 0.0
C6 C 0.2241 0.45772 0.93864 0.0
O7 O 0.25154 0.42357 0.91402 0.0
O8 O 0.16177 0.25408 0.17888 0.0
Zn9 Zn 0.18133 0.37825 0.98938 0.0
N10 N 0.17694 0.36531 0.20635 0.0
C11 C 0.18907 0.44676 0.23942 0.0
C12 C 0.1863 0.40968 0.18994 0.0
C13 C 0.17109 0.35621 0.27041 0.0
N14 N 0.18294 0.43783 0.30334 0.0
C15 C 0.17401 0.39349 0.32102 0.0
O16 O 0.23853 0.3481 1.00029 0.0
C17 C 0.25364 0.3199 0.03673 0.0
O18 O 0.23093 0.30527 0.08532 0.0
H19 H 0.1917 0.41616 0.13881 0.0
H20 H 0.16508 0.32008 0.28085 0.0
C21 C 0.16352 0.36014 0.853 0.0
C22 C 0.14863 0.33197 0.80018 0.0
C23 C 0.13246 0.27111 0.86993 0.0
C24 C 0.14785 0.29872 0.92158 0.0
N25 N 0.16243 0.34288 0.91262 0.0
N26 N 0.13318 0.28831 0.8107 0.0
H27 H 0.17537 0.39537 0.84713 0.0
C28 C 0.15174 0.21503 0.14892 0.0
O29 O 0.14337 0.21416 0.08783 0.0
O30 O 0.19044 0.44706 0.97282 0.0
H31 H 0.14825 0.28504 0.96859 0.0
H32 H 0.19625 0.48236 0.22718 0.0
H33 H 0.12033 0.23611 0.87664 0.0
Zn34 Zn 0.7276 0.20069 0.07043 0.0
C35 C 0.65353 0.11229 0.97317 0.0
N36 N 0.67865 0.07781 0.98879 0.0
C37 C 0.70892 0.10252 0.0161 0.0
N38 N 0.70265 0.15014 0.01752 0.0
N39 N 0.66765 0.1563 0.98988 0.0
C40 C 0.56858 0.24671 0.98404 0.0
O41 O 0.58863 0.2689 0.02999 0.0
O42 O 0.78758 0.18702 0.09107 0.0
Zn43 Zn 0.65392 0.21063 0.94298 0.0
N44 N 0.68892 0.21317 0.15047 0.0
C45 C 0.62006 0.24289 0.19229 0.0
C46 C 0.65165 0.23288 0.14012 0.0
C47 C 0.69607 0.20267 0.21151 0.0
N48 N 0.62704 0.23278 0.25313 0.0
C49 C 0.66414 0.21297 0.26502 0.0
O50 O 0.67712 0.27521 0.97322 0.0
C51 C 0.70944 0.28999 0.99941 0.0
O52 O 0.73086 0.26325 0.03012 0.0
H53 H 0.64666 0.24029 0.09123 0.0
H54 H 0.72576 0.18587 0.2175 0.0
C55 C 0.67231 0.1935 0.79646 0.0
C56 C 0.70149 0.18175 0.73964 0.0
C57 C 0.75585 0.17444 0.80787 0.0
C58 C 0.72727 0.18661 0.86334 0.0
N59 N 0.6861 0.19538 0.85702 0.0
N60 N 0.74237 0.17238 0.74772 0.0
H61 H 0.63937 0.20067 0.79291 0.0
C62 C 0.81781 0.19223 0.0464 0.0
O63 O 0.80863 0.19944 0.98753 0.0
O64 O 0.58978 0.21908 0.93848 0.0
H65 H 0.73785 0.18919 0.91155 0.0
H66 H 0.59017 0.25849 0.18457 0.0
H67 H 0.78862 0.16706 0.81244 0.0
Zn68 Zn 0.86973 0.71506 0.1183 0.0
C69 C 0.84574 0.59882 1.00208 0.0
N70 N 0.88199 0.58187 0.01894 0.0
C71 C 0.89685 0.62003 0.05255 0.0
N72 N 0.87074 0.65843 0.05685 0.0
N73 N 0.83902 0.64565 0.02337 0.0
C74 C 0.7321 0.67946 0.99363 0.0
O75 O 0.74339 0.68491 0.05325 0.0
O76 O 0.92693 0.72797 0.14442 0.0
Zn77 Zn 0.8194 0.68877 0.96503 0.0
N78 N 0.83009 0.70676 0.19378 0.0
C79 C 0.75854 0.71283 0.24095 0.0
C80 C 0.78916 0.71713 0.18824 0.0
C81 C 0.84202 0.69294 0.25039 0.0
N82 N 0.77032 0.69962 0.2978 0.0
C83 C 0.81134 0.68987 0.30477 0.0
O84 O 0.81945 0.76018 0.99575 0.0
C85 C 0.83222 0.78973 0.03997 0.0
O86 O 0.85137 0.7757 0.08546 0.0
H87 H 0.78062 0.72915 0.14333 0.0
H88 H 0.87493 0.6847 0.25242 0.0
C89 C 0.84492 0.67346 0.82456 0.0
C90 C 0.87501 0.66759 0.76832 0.0
C91 C 0.92963 0.67246 0.83778 0.0
C92 C 0.89977 0.67923 0.89289 0.0
N93 N 0.85813 0.67934 0.88532 0.0
N94 N 0.91662 0.66699 0.77708 0.0
H95 H 0.81149 0.67316 0.82072 0.0
C96 C 0.95193 0.74061 0.09722 0.0
O97 O 0.93891 0.73987 0.03885 0.0
O98 O 0.76057 0.67573 0.94488 0.0
H99 H 0.90962 0.68443 0.94148 0.0
H100 H 0.72574 0.72068 0.23717 0.0
H101 H 0.96291 0.67198 0.84308 0.0
Zn102 Zn 0.37981 0.8749 0.9545 0.0
C103 C 0.33986 0.95722 0.12268 0.0
N104 N 0.36877 0.98697 0.09868 0.0
C105 C 0.39063 0.95967 0.0482 0.0
N106 N 0.37494 0.91544 0.03959 0.0
N107 N 0.34453 0.91367 0.08865 0.0
C108 C 0.2338 0.87864 0.11975 0.0
O109 O 0.24917 0.8819 0.05836 0.0
O110 O 0.439 0.84795 0.93429 0.0
Zn111 Zn 0.31804 0.85823 0.11926 0.0
N112 N 0.36528 0.91461 0.88763 0.0
C113 C 0.33105 0.98524 0.86412 0.0
C114 C 0.34378 0.9563 0.9092 0.0
C115 C 0.37315 0.8998 0.822 0.0
N116 N 0.33879 0.97057 0.79896 0.0
C117 C 0.35922 0.92842 0.77589 0.0
O118 O 0.31028 0.80863 0.0472 0.0
C119 C 0.31776 0.7939 0.98667 0.0
O120 O 0.34215 0.81609 0.94741 0.0
H121 H 0.33572 0.96681 0.96107 0.0
H122 H 0.3885 0.86542 0.80663 0.0
C123 C 0.35054 0.84919 0.2437 0.0
C124 C 0.373 0.82557 0.2866 0.0
C125 C 0.39444 0.76527 0.19895 0.0
C126 C 0.37154 0.78822 0.15743 0.0
N127 N 0.35052 0.82994 0.1801 0.0
N128 N 0.39444 0.78424 0.26226 0.0
H129 H 0.33208 0.88145 0.26063 0.0
C130 C 0.44489 0.81539 0.97074 0.0
O131 O 0.41391 0.80564 0.01448 0.0
O132 O 0.25907 0.87203 0.1614 0.0
H133 H 0.36989 0.77234 0.10777 0.0
H134 H 0.31425 1.01865 0.88077 0.0
H135 H 0.41148 0.73215 0.1814 0.0
H136 H 0.09054 0.44046 0.97441 0.0
H137 H 0.10485 0.48015 0.17841 0.0
H138 H 0.05101 0.51483 0.9718 0.0
H139 H 0.06598 0.55489 0.17615 0.0
H140 H 0.92099 0.59296 0.16523 0.0
H141 H 0.98942 0.5563 0.17307 0.0
H142 H 0.03723 0.60212 0.98525 0.0
H143 H 0.96842 0.63862 0.97794 0.0
C144 C 0.08745 0.46649 0.01745 0.0
C145 C 0.10069 0.45486 0.0765 0.0
C146 C 0.06458 0.5091 0.01629 0.0
C147 C 0.05449 0.54041 0.07435 0.0
C148 C 0.07257 0.53125 0.13098 0.0
C149 C 0.09528 0.48873 0.13207 0.0
C150 C 0.94688 0.59762 0.1277 0.0
C151 C 0.93971 0.61907 0.07153 0.0
C152 C 0.98617 0.57637 0.13178 0.0
C153 C 0.01875 0.5756 0.07915 0.0
C154 C 1.01274 0.60164 0.02623 0.0
C155 C 0.97351 0.62316 0.02249 0.0
H156 H 0.57801 0.15258 0.02457 0.0
H157 H 0.6363 0.04268 0.87995 0.0
H158 H 0.5098 0.11643 0.01708 0.0
H159 H 0.56804 1.00556 0.87282 0.0
H160 H 0.38994 0.04592 1.00216 0.0
H161 H 0.45104 0.08848 0.95789 0.0
H162 H 0.52911 0.96216 0.95736 0.0
H163 H 0.46792 0.92008 1.00193 0.0
C164 C 0.57572 0.12237 0.98816 0.0
C165 C 0.61212 0.10108 0.95172 0.0
C166 C 0.53668 0.10113 0.98434 0.0
C167 C 0.53354 0.05766 0.94484 0.0
C168 C 0.5695 0.03867 0.90421 0.0
C169 C 0.60845 0.06015 0.90778 0.0
C170 C 0.41998 1.02688 0.99036 0.0
C171 C 0.4243 0.97958 1.00476 0.0
C172 C 0.45495 0.05129 0.96531 0.0
C173 C 0.49503 0.02896 0.95471 0.0
C174 C 0.4986 0.9803 0.96402 0.0
C175 C 0.46349 0.95587 0.98907 0.0
H176 H 0.13812 0.31752 0.38261 0.0
H177 H 0.19649 0.45339 0.42377 0.0
H178 H 0.1325 0.30628 0.49778 0.0
H179 H 0.18806 0.4432 0.54022 0.0
H180 H 0.20951 0.38316 0.73423 0.0
H181 H 0.2146 0.39955 0.61954 0.0
H182 H 0.09524 0.33218 0.60049 0.0
H183 H 0.0911 0.31441 0.71417 0.0
C184 C 0.15007 0.34508 0.41554 0.0
C185 C 0.16867 0.38612 0.39248 0.0
C186 C 0.14603 0.33891 0.48251 0.0
C187 C 0.15973 0.37384 0.5288 0.0
C188 C 0.17771 0.41514 0.50611 0.0
C189 C 0.18218 0.42114 0.43902 0.0
C190 C 0.18405 0.3726 0.70582 0.0
C191 C 0.14986 0.34752 0.73331 0.0
C192 C 0.18694 0.38195 0.6399 0.0
C193 C 0.15554 0.36679 0.60019 0.0
C194 C 0.1206 0.34335 0.62879 0.0
C195 C 0.11801 0.3335 0.69423 0.0
H196 H 0.6015 0.20139 0.36333 0.0
H197 H 0.73737 0.20397 0.32407 0.0
H198 H 0.6074 0.19054 0.47764 0.0
H199 H 0.74295 0.19261 0.43832 0.0
H200 H 0.74012 0.12852 0.63129 0.0
H201 H 0.73012 0.13281 0.51677 0.0
H202 H 0.62897 0.23676 0.57677 0.0
H203 H 0.63903 0.23278 0.69196 0.0
C204 C 0.6327 0.19947 0.37874 0.0
C205 C 0.66894 0.20323 0.33368 0.0
C206 C 0.63597 0.19338 0.44452 0.0
C207 C 0.67558 0.1907 0.46714 0.0
C208 C 0.71191 0.19379 0.42218 0.0
C209 C 0.70868 0.20011 0.35631 0.0
C210 C 0.71545 0.1521 0.62034 0.0
C211 C 0.69043 0.18033 0.67119 0.0
C212 C 0.70991 0.15468 0.55452 0.0
C213 C 0.67913 0.18551 0.53755 0.0
C214 C 0.65282 0.21237 0.58828 0.0
C215 C 0.65844 0.2099 0.65446 0.0
H216 H 0.75944 0.65428 0.40151 0.0
H217 H 0.88699 0.70137 0.35765 0.0
H218 H 0.7736 0.64304 0.51276 0.0
H219 H 0.90094 0.68923 0.46819 0.0
H220 H 0.92187 0.62701 0.65699 0.0
H221 H 0.90681 0.62619 0.54354 0.0
H222 H 0.78731 0.6984 0.61072 0.0
H223 H 0.8023 0.70014 0.72394 0.0
C224 C 0.79062 0.66175 0.41509 0.0
C225 C 0.82206 0.67844 0.36992 0.0
C226 C 0.79862 0.65535 0.47894 0.0
C227 C 0.83833 0.66529 0.49913 0.0
C228 C 0.8702 0.68059 0.45366 0.0
C229 C 0.86215 0.68731 0.3899 0.0
C230 C 0.8922 0.64249 0.6478 0.0
C231 C 0.86328 0.66335 0.70013 0.0
C232 C 0.88368 0.64203 0.58271 0.0
C233 C 0.84594 0.66225 0.56831 0.0
C234 C 0.81642 0.68188 0.62043 0.0
C235 C 0.82503 0.68265 0.6856 0.0
H236 H 0.3104 0.95756 0.68711 0.0
H237 H 0.41831 0.86629 0.69984 0.0
H238 H 0.31556 0.93443 0.56952 0.0
H239 H 0.42332 0.84319 0.5816 0.0
H240 H 0.38596 0.77208 0.38539 0.0
H241 H 0.38493 0.79741 0.50204 0.0
H242 H 0.35924 0.94266 0.46693 0.0
H243 H 0.36023 0.91749 0.34986 0.0
C244 C 0.33545 0.93273 0.66496 0.0
C245 C 0.36362 0.91349 0.70368 0.0
C246 C 0.33847 0.91963 0.59721 0.0
C247 C 0.36984 0.88697 0.56597 0.0
C248 C 0.39835 0.86792 0.60431 0.0
C249 C 0.39535 0.88107 0.67235 0.0
C250 C 0.38028 0.80955 0.40221 0.0
C251 C 0.3726 0.8425 0.35778 0.0
C252 C 0.3799 0.82407 0.4693 0.0
C253 C 0.37193 0.87204 0.49401 0.0
C254 C 0.36478 0.90525 0.44968 0.0
C255 C 0.36517 0.89071 0.38237 0.0
H256 H 0.2048 0.20123 0.23999 0.0
H257 H 0.12078 0.12683 0.11693 0.0
H258 H 0.23772 0.12631 0.25551 0.0
H259 H 0.15158 0.05081 0.13661 0.0
H260 H 0.27576 0.96802 0.05443 0.0
H261 H 0.21518 1.02025 0.0843 0.0
H262 H 0.25079 0.04953 0.28107 0.0
H263 H 0.31294 0.99641 0.24904 0.0
C264 C 0.19206 0.16858 0.21858 0.0
C265 C 0.16123 0.16988 0.17529 0.0
C266 C 0.21081 0.12524 0.228 0.0
C267 C 0.19849 0.08224 0.19533 0.0
C268 C 0.16314 0.08333 0.1603 0.0
C269 C 0.14523 0.12683 0.14927 0.0
C270 C 0.26934 0.98344 0.10518 0.0
C271 C 0.29815 0.97712 0.15003 0.0
C272 C 0.23439 1.0138 0.12262 0.0
C273 C 0.22776 0.03976 0.18529 0.0
C274 C 0.2551 0.03066 0.23207 0.0
C275 C 0.29044 0.99997 0.21421 0.0
H276 H 0.021 0.33446 0.21096 0.0
H277 H 0.08481 0.2578 0.03424 0.0
H278 H 0.95829 0.28802 0.19773 0.0
H279 H 0.02298 0.20946 0.02239 0.0
H280 H 0.84781 0.19551 0.16733 0.0
H281 H 0.91831 0.21739 0.1933 0.0
H282 H 0.95748 0.22691 0.98697 0.0
H283 H 0.888 0.20388 0.96122 0.0
C284 C 0.02231 0.30604 0.17096 0.0
C285 C 0.05821 0.29947 0.12425 0.0
C286 C 0.98621 0.27929 0.16322 0.0
C287 C 0.98499 0.24523 0.10831 0.0
C288 C 0.02227 0.23592 0.06465 0.0
C289 C 0.05829 0.26293 0.07225 0.0
C290 C 0.87179 0.20129 0.12743 0.0
C291 C 0.86197 0.19824 0.06219 0.0
C292 C 0.91222 0.21422 0.14236 0.0
C293 C 0.9439 0.22438 0.09243 0.0
C294 C 0.93446 0.21884 0.02691 0.0
C295 C 0.89423 0.20592 0.01207 0.0
H296 H 0.80752 0.83694 0.94015 0.0
H297 H 0.83712 0.86066 0.14046 0.0
H298 H 0.79023 0.92177 0.94275 0.0
H299 H 0.81942 0.94547 0.14303 0.0
H300 H 0.71121 0.06456 0.13104 0.0
H301 H 0.7505 0.9911 0.14022 0.0
H302 H 0.82219 1.00393 0.95204 0.0
H303 H 0.78303 0.07773 0.94369 0.0
C304 C 0.81065 0.86024 0.98456 0.0
C305 C 0.82357 0.84178 0.04011 0.0
C306 C 0.80113 0.909 0.98587 0.0
C307 C 0.80373 0.94049 0.04302 0.0
C308 C 0.81714 0.92219 0.0983 0.0
C309 C 0.8273 0.87354 0.09668 0.0
C310 C 0.73725 0.05329 0.09381 0.0
C311 C 0.74461 0.07721 0.03723 0.0
C312 C 0.7594 1.01081 0.09852 0.0
C313 C 0.78883 0.99112 0.04613 0.0
C314 C 0.79929 1.01784 0.99278 0.0
C315 C 0.7775 0.06063 0.98859 0.0
H316 H 0.01454 0.76103 1.0046 0.0
H317 H 0.98167 0.76683 0.21517 0.0
H318 H 0.07933 0.80191 0.02161 0.0
H319 H 0.04667 0.80888 0.23229 0.0
H320 H 0.19499 0.82728 0.21364 0.0
H321 H 0.12399 0.79615 0.21562 0.0
H322 H 0.09962 0.88186 0.0612 0.0
H323 H 0.1709 0.91181 0.058 0.0
C324 C 0.02117 0.77108 0.05459 0.0
C325 C 0.99292 0.76108 0.10853 0.0
C326 C 0.05809 0.79498 0.06437 0.0
C327 C 0.06755 0.80964 0.12832 0.0
C328 C 0.04004 0.7982 0.18247 0.0
C329 C 1.00297 0.77406 0.17265 0.0
C330 C 0.17395 0.84056 0.18164 0.0
C331 C 0.18847 0.87123 0.13481 0.0
C332 C 0.13335 0.82266 0.18267 0.0
C333 C 0.10677 0.83558 0.13726 0.0
C334 C 0.11995 0.87018 0.09537 0.0
C335 C 0.16055 0.88764 0.0939 0.0
H336 H 0.86116 0.52826 0.90298 0.0
H337 H 0.76282 0.59125 0.04868 0.0
H338 H 0.82228 0.45449 0.89295 0.0
H339 H 0.72337 0.51745 0.03795 0.0
H340 H 0.66373 0.36776 0.97267 0.0
H341 H 0.68941 0.44835 0.95838 0.0
H342 H 0.81368 0.40285 0.99238 0.0
H343 H 0.78829 0.32339 1.00784 0.0
C344 C 0.83013 0.52718 0.93025 0.0
C345 C 0.81484 0.56564 0.97614 0.0
C346 C 0.8081 0.48478 0.92507 0.0
C347 C 0.77022 0.47998 0.96558 0.0
C348 C 0.75244 0.52025 1.00597 0.0
C349 C 0.77473 0.56281 0.01143 0.0
C350 C 0.69651 0.3751 0.97709 0.0
C351 C 0.72395 0.33914 0.99154 0.0
C352 C 0.71112 0.42115 0.96894 0.0
C353 C 0.75363 0.43162 0.97336 0.0
C354 C 0.78089 0.39562 0.98763 0.0
C355 C 0.76622 0.35016 0.99708 0.0
H356 H 0.46164 0.73752 0.03141 0.0
H357 H 0.51984 0.83366 0.89947 0.0
H358 H 0.52893 0.69611 0.02976 0.0
H359 H 0.58777 0.79261 0.89902 0.0
H360 H 0.69961 0.69008 0.87832 0.0
H361 H 0.6283 0.71718 0.86623 0.0
H362 H 0.59357 0.71626 0.07545 0.0
H363 H 0.66423 0.68849 0.08736 0.0
C364 C 0.48883 0.74978 1.00186 0.0
C365 C 0.48555 0.78913 0.96596 0.0
C366 C 0.52741 0.72604 1.00107 0.0
C367 C 0.56371 0.74124 0.96465 0.0
C368 C 0.56024 0.77971 0.927 0.0
C369 C 0.52145 0.80343 0.92758 0.0
C370 C 0.67646 0.69471 0.92147 0.0
C371 C 0.68762 0.6875 0.98392 0.0
C372 C 0.63577 0.71066 0.9146 0.0
C373 C 0.60546 0.71935 0.96994 0.0
C374 C 0.61606 0.70957 0.0317 0.0
C375 C 0.65667 0.69379 0.0386 0.0
H376 H 0.29963 0.49368 0.8939 0.0
H377 H 0.17063 0.53575 0.96492 0.0
H378 H 0.31793 0.57699 0.89241 0.0
H379 H 0.18842 0.61922 0.96054 0.0
H380 H 0.25031 0.75308 0.04866 0.0
H381 H 0.22477 0.67378 0.02517 0.0
H382 H 0.31402 0.65194 0.84932 0.0
H383 H 0.34108 0.73189 0.8748 0.0
C384 C 0.27495 0.52073 0.90796 0.0
C385 C 0.23382 0.50813 0.93058 0.0
C386 C 0.28539 0.56864 0.9065 0.0
C387 C 0.25482 0.60513 0.92696 0.0
C388 C 0.21307 0.59223 0.94587 0.0
C389 C 0.20276 0.54433 0.94818 0.0
C390 C 0.26437 0.73169 1.00448 0.0
C391 C 0.29828 0.7486 0.96414 0.0
C392 C 0.24927 0.68612 0.99054 0.0
C393 C 0.26737 0.656 0.93547 0.0
C394 C 0.29975 0.67387 0.89278 0.0
C395 C 0.31504 0.71982 0.90694 0.0
H396 H 0.51606 0.22493 0.88757 0.0
H397 H 0.51518 0.28378 0.09015 0.0
H398 H 0.43941 0.23969 0.89631 0.0
H399 H 0.43949 0.29789 0.09881 0.0
H400 H 0.29919 0.27137 0.11454 0.0
H401 H 0.37404 0.25008 0.09803 0.0
H402 H 0.38707 0.31238 0.91421 0.0
H403 H 0.31175 0.33412 0.93069 0.0
C404 C 0.4996 0.24075 0.9339 0.0
C405 C 0.52192 0.25334 0.98801 0.0
C406 C 0.45576 0.24942 0.93882 0.0
C407 C 0.43324 0.26993 0.99834 0.0
C408 C 0.45563 0.28167 0.05245 0.0
C409 C 0.49923 0.27377 0.04727 0.0
C410 C 0.31777 0.28042 0.0703 0.0
C411 C 0.29918 0.30486 0.02422 0.0
C412 C 0.36084 0.26827 0.06097 0.0
C413 C 0.3867 0.27969 1.00495 0.0
C414 C 0.36803 0.30278 0.9577 0.0
C415 C 0.32487 0.3155 0.96741 0.0
loop_
_geom_bond_atom_site_label_1
_geom_bond_atom_site_label_2
_geom_bond_distance
_geom_bond_site_symmetry_2
_ccdc_geom_bond_type
Zn0 N4 2.020 . S
Zn0 O8 2.019 . S
Zn0 N10 2.119 . S
Zn0 O18 1.975 . S
C1 N2 1.334 . S
C1 N5 1.336 . S
N2 C1 1.334 . S
N2 C3 1.334 . S
C3 N2 1.334 . S
C3 N4 1.336 . S
N4 Zn0 2.020 . S
N4 C3 1.336 . S
N4 N5 1.354 . S
N5 C1 1.336 . S
N5 N4 1.354 . S
N5 Zn9 2.020 . S
C6 O7 1.244 . S
C6 O30 1.257 1_554 S
O7 C6 1.244 . S
O8 Zn0 2.019 . S
O8 C28 1.257 . S
Zn9 N5 2.020 . S
Zn9 O16 1.975 . S
Zn9 N25 2.119 1_554 S
Zn9 O30 2.019 1_554 S
N10 Zn0 2.119 . S
N10 C12 1.334 . S
N10 C13 1.328 . S
C11 C12 1.391 . S
C11 N14 1.329 . S
C11 H32 0.930 . S
C12 N10 1.334 . S
C12 C11 1.391 . S
C12 H19 0.930 . S
C13 N10 1.328 . S
C13 C15 1.392 . S
C13 H20 0.930 . S
N14 C11 1.329 . S
N14 C15 1.331 . S
C15 C13 1.392 . S
C15 N14 1.331 . S
O16 Zn9 1.975 . S
O16 C17 1.252 . S
C17 O16 1.252 . S
C17 O18 1.252 . S
O18 Zn0 1.975 . S
O18 C17 1.252 . S
H19 C12 0.930 . S
H20 C13 0.930 . S
C21 C22 1.392 . S
C21 N25 1.328 . S
C21 H27 0.930 . S
C22 C21 1.392 . S
C22 N26 1.331 . S
C23 C24 1.391 . S
C23 N26 1.329 . S
C23 H33 0.930 . S
C24 C23 1.391 . S
C24 N25 1.334 . S
C24 H31 0.930 . S
N25 Zn9 2.119 1_556 S
N25 C21 1.328 . S
N25 C24 1.334 . S
N26 C22 1.331 . S
N26 C23 1.329 . S
H27 C21 0.930 . S
C28 O8 1.257 . S
C28 O29 1.244 . S
O29 C28 1.244 . S
O30 C6 1.257 1_556 S
O30 Zn9 2.019 1_556 S
H31 C24 0.930 . S
H32 C11 0.930 . S
H33 C23 0.930 . S
Zn34 N38 2.020 . S
Zn34 O42 2.019 . S
Zn34 N44 2.119 . S
Zn34 O52 1.975 . S
C35 N36 1.334 1_556 S
C35 N39 1.336 . S
N36 C35 1.334 1_554 S
N36 C37 1.334 . S
C37 N36 1.334 . S
C37 N38 1.336 . S
N38 Zn34 2.020 . S
N38 C37 1.336 . S
N38 N39 1.354 1_554 S
N39 C35 1.336 . S
N39 N38 1.354 1_556 S
N39 Zn43 2.020 . S
C40 O41 1.244 1_556 S
C40 O64 1.257 . S
O41 C40 1.244 1_554 S
O42 Zn34 2.019 . S
O42 C62 1.257 . S
Zn43 N39 2.020 . S
Zn43 O50 1.975 1_556 S
Zn43 N59 2.119 . S
Zn43 O64 2.019 . S
N44 Zn34 2.119 . S
N44 C46 1.334 . S
N44 C47 1.328 . S
C45 C46 1.391 . S
C45 N48 1.329 . S
C45 H66 0.930 . S
C46 N44 1.334 . S
C46 C45 1.391 . S
C46 H53 0.930 . S
C47 N44 1.328 . S
C47 C49 1.392 . S
C47 H54 0.930 . S
N48 C45 1.329 . S
N48 C49 1.331 . S
C49 C47 1.392 . S
C49 N48 1.331 . S
O50 Zn43 1.975 1_554 S
O50 C51 1.252 . S
C51 O50 1.252 . S
C51 O52 1.252 . S
O52 Zn34 1.975 . S
O52 C51 1.252 . S
H53 C46 0.930 . S
H54 C47 0.930 . S
C55 C56 1.392 . S
C55 N59 1.328 . S
C55 H61 0.930 . S
C56 C55 1.392 . S
C56 N60 1.331 . S
C57 C58 1.391 . S
C57 N60 1.329 . S
C57 H67 0.930 . S
C58 C57 1.391 . S
C58 N59 1.334 . S
C58 H65 0.930 . S
N59 Zn43 2.119 . S
N59 C55 1.328 . S
N59 C58 1.334 . S
N60 C56 1.331 . S
N60 C57 1.329 . S
H61 C55 0.930 . S
C62 O42 1.257 . S
C62 O63 1.244 1_554 S
O63 C62 1.244 1_556 S
O64 C40 1.257 . S
O64 Zn43 2.019 . S
H65 C58 0.930 . S
H66 C45 0.930 . S
H67 C57 0.930 . S
Zn68 N72 2.020 . S
Zn68 O76 2.019 . S
Zn68 N78 2.119 . S
Zn68 O86 1.975 . S
C69 N70 1.334 1_556 S
C69 N73 1.336 1_556 S
N70 C69 1.334 1_554 S
N70 C71 1.334 . S
C71 N70 1.334 . S
C71 N72 1.336 . S
N72 Zn68 2.020 . S
N72 C71 1.336 . S
N72 N73 1.354 . S
N73 C69 1.336 1_554 S
N73 N72 1.354 . S
N73 Zn77 2.020 1_554 S
C74 O75 1.243 1_556 S
C74 O98 1.257 . S
O75 C74 1.243 1_554 S
O76 Zn68 2.019 . S
O76 C96 1.257 . S
Zn77 N73 2.020 1_556 S
Zn77 O84 1.975 1_556 S
Zn77 N93 2.119 . S
Zn77 O98 2.019 . S
N78 Zn68 2.119 . S
N78 C80 1.334 . S
N78 C81 1.328 . S
C79 C80 1.391 . S
C79 N82 1.329 . S
C79 H100 0.930 . S
C80 N78 1.334 . S
C80 C79 1.391 . S
C80 H87 0.930 . S
C81 N78 1.328 . S
C81 C83 1.392 . S
C81 H88 0.930 . S
N82 C79 1.329 . S
N82 C83 1.331 . S
C83 C81 1.392 . S
C83 N82 1.331 . S
O84 Zn77 1.975 1_554 S
O84 C85 1.252 . S
C85 O84 1.252 . S
C85 O86 1.252 . S
O86 Zn68 1.975 . S
O86 C85 1.252 . S
H87 C80 0.930 . S
H88 C81 0.930 . S
C89 C90 1.392 . S
C89 N93 1.328 . S
C89 H95 0.930 . S
C90 C89 1.392 . S
C90 N94 1.331 . S
C91 C92 1.391 . S
C91 N94 1.329 . S
C91 H101 0.930 . S
C92 C91 1.391 . S
C92 N93 1.334 . S
C92 H99 0.930 . S
N93 Zn77 2.119 . S
N93 C89 1.328 . S
N93 C92 1.334 . S
N94 C90 1.331 . S
N94 C91 1.329 . S
H95 C89 0.930 . S
C96 O76 1.257 . S
C96 O97 1.244 . S
O97 C96 1.244 . S
O98 C74 1.257 . S
O98 Zn77 2.019 . S
H99 C92 0.930 . S
H100 C79 0.930 . S
H101 C91 0.930 . S
Zn102 N106 2.020 . S
Zn102 O110 2.019 . S
Zn102 N112 2.119 . S
Zn102 O120 1.975 . S
C103 N104 1.334 . S
C103 N107 1.336 . S
N104 C103 1.334 . S
N104 C105 1.334 1_554 S
C105 N104 1.334 1_556 S
C105 N106 1.336 . S
N106 Zn102 2.020 . S
N106 C105 1.336 . S
N106 N107 1.354 1_556 S
N107 C103 1.336 . S
N107 N106 1.354 1_554 S
N107 Zn111 2.020 . S
C108 O109 1.244 1_554 S
C108 O132 1.257 . S
O109 C108 1.244 1_556 S
O110 Zn102 2.019 . S
O110 C130 1.257 . S
Zn111 N107 2.020 . S
Zn111 O118 1.975 . S
Zn111 N127 2.119 . S
Zn111 O132 2.019 . S
N112 Zn102 2.119 . S
N112 C114 1.334 . S
N112 C115 1.328 . S
C113 C114 1.391 . S
C113 N116 1.329 . S
C113 H134 0.930 . S
C114 N112 1.334 . S
C114 C113 1.391 . S
C114 H121 0.930 . S
C115 N112 1.328 . S
C115 C117 1.392 . S
C115 H122 0.930 . S
N116 C113 1.329 . S
N116 C117 1.331 . S
C117 C115 1.392 . S
C117 N116 1.331 . S
O118 Zn111 1.975 . S
O118 C119 1.252 1_554 S
C119 O118 1.252 1_556 S
C119 O120 1.252 . S
O120 Zn102 1.975 . S
O120 C119 1.252 . S
H121 C114 0.930 . S
H122 C115 0.930 . S
C123 C124 1.392 . S
C123 N127 1.328 . S
C123 H129 0.930 . S
C124 C123 1.392 . S
C124 N128 1.331 . S
C125 C126 1.391 . S
C125 N128 1.329 . S
C125 H135 0.930 . S
C126 C125 1.391 . S
C126 N127 1.334 . S
C126 H133 0.930 . S
N127 Zn111 2.119 . S
N127 C123 1.328 . S
N127 C126 1.334 . S
N128 C124 1.331 . S
N128 C125 1.329 . S
H129 C123 0.930 . S
C130 O110 1.257 . S
C130 O131 1.244 1_556 S
O131 C130 1.244 1_554 S
O132 C108 1.257 . S
O132 Zn111 2.019 . S
H133 C126 0.930 . S
H134 C113 0.930 . S
H135 C125 0.930 . S
H136 C144 0.950 . S
H137 C149 0.950 . S
H138 C146 0.950 . S
H139 C148 0.950 . S
H140 C150 0.950 . S
H141 C152 0.950 1_455 S
H142 C154 0.950 . S
H143 C155 0.950 . S
C144 H136 0.950 . S
C144 C145 1.386 . S
C144 C146 1.391 1_455 S
C145 C144 1.386 . S
C145 C149 1.393 . S
C146 H138 0.950 . S
C146 C144 1.391 1_655 S
C146 C147 1.400 1_655 S
C147 C146 1.400 1_455 S
C147 C148 1.398 . S
C147 C153 1.491 1_455 S
C148 H139 0.950 . S
C148 C147 1.398 . S
C148 C149 1.391 . S
C149 H137 0.950 . S
C149 C145 1.393 . S
C149 C148 1.391 . S
C150 H140 0.950 . S
C150 C151 1.386 . S
C150 C152 1.391 . S
C151 C150 1.386 . S
C151 C155 1.393 . S
C152 H141 0.950 1_655 S
C152 C150 1.391 . S
C152 C153 1.400 . S
C153 C147 1.491 1_655 S
C153 C152 1.400 . S
C153 C154 1.398 . S
C154 H142 0.950 . S
C154 C153 1.398 . S
C154 C155 1.391 . S
C155 H143 0.950 . S
C155 C151 1.393 . S
C155 C154 1.391 . S
H156 C164 0.950 . S
H157 C169 0.950 . S
H158 C166 0.950 1_565 S
H159 C168 0.950 . S
H160 C170 0.950 . S
H161 C172 0.950 1_545 S
H162 C174 0.950 . S
H163 C175 0.950 . S
C164 H156 0.950 . S
C164 C165 1.386 1_554 S
C164 C166 1.391 . S
C165 C164 1.386 1_556 S
C165 C169 1.393 . S
C166 H158 0.950 1_545 S
C166 C164 1.391 . S
C166 C167 1.400 1_554 S
C167 C166 1.400 1_556 S
C167 C168 1.398 . S
C167 C173 1.491 1_545 S
C168 H159 0.950 . S
C168 C167 1.398 . S
C168 C169 1.391 . S
C169 H157 0.950 . S
C169 C165 1.393 . S
C169 C168 1.391 . S
C170 H160 0.950 . S
C170 C171 1.386 . S
C170 C172 1.391 . S
C171 C170 1.386 . S
C171 C175 1.393 1_556 S
C172 H161 0.950 1_565 S
C172 C170 1.391 . S
C172 C173 1.400 . S
C173 C167 1.491 1_565 S
C173 C172 1.400 . S
C173 C174 1.398 1_556 S
C174 H162 0.950 . S
C174 C173 1.398 1_554 S
C174 C175 1.391 . S
C175 H163 0.950 . S
C175 C171 1.393 1_554 S
C175 C174 1.391 . S
H176 C184 0.950 . S
H177 C189 0.950 . S
H178 C186 0.950 . S
H179 C188 0.950 . S
H180 C190 0.950 . S
H181 C192 0.950 . S
H182 C194 0.950 . S
H183 C195 0.950 . S
C184 H176 0.950 . S
C184 C185 1.386 . S
C184 C186 1.391 . S
C185 C184 1.386 . S
C185 C189 1.393 . S
C186 H178 0.950 . S
C186 C184 1.391 . S
C186 C187 1.400 . S
C187 C186 1.400 . S
C187 C188 1.398 . S
C187 C193 1.491 . S
C188 H179 0.950 . S
C188 C187 1.398 . S
C188 C189 1.391 . S
C189 H177 0.950 . S
C189 C185 1.393 . S
C189 C188 1.391 . S
C190 H180 0.950 . S
C190 C191 1.386 . S
C190 C192 1.391 . S
C191 C190 1.386 . S
C191 C195 1.393 . S
C192 H181 0.950 . S
C192 C190 1.391 . S
C192 C193 1.400 . S
C193 C187 1.491 . S
C193 C192 1.400 . S
C193 C194 1.398 . S
C194 H182 0.950 . S
C194 C193 1.398 . S
C194 C195 1.391 . S
C195 H183 0.950 . S
C195 C191 1.393 . S
C195 C194 1.391 . S
H196 C204 0.950 . S
H197 C209 0.950 . S
H198 C206 0.950 . S
H199 C208 0.950 . S
H200 C210 0.950 . S
H201 C212 0.950 . S
H202 C214 0.950 . S
H203 C215 0.950 . S
C204 H196 0.950 . S
C204 C205 1.386 . S
C204 C206 1.391 . S
C205 C204 1.386 . S
C205 C209 1.393 . S
C206 H198 0.950 . S
C206 C204 1.391 . S
C206 C207 1.400 . S
C207 C206 1.400 . S
C207 C208 1.398 . S
C207 C213 1.491 . S
C208 H199 0.950 . S
C208 C207 1.398 . S
C208 C209 1.391 . S
C209 H197 0.950 . S
C209 C205 1.393 . S
C209 C208 1.391 . S
C210 H200 0.950 . S
C210 C211 1.386 . S
C210 C212 1.391 . S
C211 C210 1.386 . S
C211 C215 1.393 . S
C212 H201 0.950 . S
C212 C210 1.391 . S
C212 C213 1.400 . S
C213 C207 1.491 . S
C213 C212 1.400 . S
C213 C214 1.398 . S
C214 H202 0.950 . S
C214 C213 1.398 . S
C214 C215 1.391 . S
C215 H203 0.950 . S
C215 C211 1.393 . S
C215 C214 1.391 . S
H216 C224 0.950 . S
H217 C229 0.950 . S
H218 C226 0.950 . S
H219 C228 0.950 . S
H220 C230 0.950 . S
H221 C232 0.950 . S
H222 C234 0.950 . S
H223 C235 0.950 . S
C224 H216 0.950 . S
C224 C225 1.386 . S
C224 C226 1.391 . S
C225 C224 1.386 . S
C225 C229 1.393 . S
C226 H218 0.950 . S
C226 C224 1.391 . S
C226 C227 1.400 . S
C227 C226 1.400 . S
C227 C228 1.398 . S
C227 C233 1.491 . S
C228 H219 0.950 . S
C228 C227 1.398 . S
C228 C229 1.391 . S
C229 H217 0.950 . S
C229 C225 1.393 . S
C229 C228 1.391 . S
C230 H220 0.950 . S
C230 C231 1.386 . S
C230 C232 1.391 . S
C231 C230 1.386 . S
C231 C235 1.393 . S
C232 H221 0.950 . S
C232 C230 1.391 . S
C232 C233 1.400 . S
C233 C227 1.491 . S
C233 C232 1.400 . S
C233 C234 1.398 . S
C234 H222 0.950 . S
C234 C233 1.398 . S
C234 C235 1.391 . S
C235 H223 0.950 . S
C235 C231 1.393 . S
C235 C234 1.391 . S
H236 C244 0.950 . S
H237 C249 0.950 . S
H238 C246 0.950 . S
H239 C248 0.950 . S
H240 C250 0.950 . S
H241 C252 0.950 . S
H242 C254 0.950 . S
H243 C255 0.950 . S
C244 H236 0.950 . S
C244 C245 1.386 . S
C244 C246 1.391 . S
C245 C244 1.386 . S
C245 C249 1.393 . S
C246 H238 0.950 . S
C246 C244 1.391 . S
C246 C247 1.400 . S
C247 C246 1.400 . S
C247 C248 1.398 . S
C247 C253 1.491 . S
C248 H239 0.950 . S
C248 C247 1.398 . S
C248 C249 1.391 . S
C249 H237 0.950 . S
C249 C245 1.393 . S
C249 C248 1.391 . S
C250 H240 0.950 . S
C250 C251 1.386 . S
C250 C252 1.391 . S
C251 C250 1.386 . S
C251 C255 1.393 . S
C252 H241 0.950 . S
C252 C250 1.391 . S
C252 C253 1.400 . S
C253 C247 1.491 . S
C253 C252 1.400 . S
C253 C254 1.398 . S
C254 H242 0.950 . S
C254 C253 1.398 . S
C254 C255 1.391 . S
C255 H243 0.950 . S
C255 C251 1.393 . S
C255 C254 1.391 . S
H256 C264 0.950 . S
H257 C269 0.950 . S
H258 C266 0.950 . S
H259 C268 0.950 . S
H260 C270 0.950 1_556 S
H261 C272 0.950 1_556 S
H262 C274 0.950 . S
H263 C275 0.950 . S
C264 H256 0.950 . S
C264 C265 1.386 . S
C264 C266 1.391 . S
C265 C264 1.386 . S
C265 C269 1.393 . S
C266 H258 0.950 . S
C266 C264 1.391 . S
C266 C267 1.400 . S
C267 C266 1.400 . S
C267 C268 1.398 . S
C267 C273 1.491 . S
C268 H259 0.950 . S
C268 C267 1.398 . S
C268 C269 1.391 . S
C269 H257 0.950 . S
C269 C265 1.393 . S
C269 C268 1.391 . S
C270 H260 0.950 1_554 S
C270 C271 1.386 . S
C270 C272 1.391 . S
C271 C270 1.386 . S
C271 C275 1.393 . S
C272 H261 0.950 1_554 S
C272 C270 1.391 . S
C272 C273 1.400 1_565 S
C273 C267 1.491 . S
C273 C272 1.400 1_545 S
C273 C274 1.398 . S
C274 H262 0.950 . S
C274 C273 1.398 . S
C274 C275 1.391 1_545 S
C275 H263 0.950 . S
C275 C271 1.393 . S
C275 C274 1.391 1_565 S
H276 C284 0.950 . S
H277 C289 0.950 . S
H278 C286 0.950 . S
H279 C288 0.950 1_655 S
H280 C290 0.950 . S
H281 C292 0.950 . S
H282 C294 0.950 . S
H283 C295 0.950 . S
C284 H276 0.950 . S
C284 C285 1.386 . S
C284 C286 1.391 1_455 S
C285 C284 1.386 . S
C285 C289 1.393 . S
C286 H278 0.950 . S
C286 C284 1.391 1_655 S
C286 C287 1.400 . S
C287 C286 1.400 . S
C287 C288 1.398 1_655 S
C287 C293 1.491 . S
C288 H279 0.950 1_455 S
C288 C287 1.398 1_455 S
C288 C289 1.391 . S
C289 H277 0.950 . S
C289 C285 1.393 . S
C289 C288 1.391 . S
C290 H280 0.950 . S
C290 C291 1.386 . S
C290 C292 1.391 . S
C291 C290 1.386 . S
C291 C295 1.393 . S
C292 H281 0.950 . S
C292 C290 1.391 . S
C292 C293 1.400 . S
C293 C287 1.491 . S
C293 C292 1.400 . S
C293 C294 1.398 . S
C294 H282 0.950 . S
C294 C293 1.398 . S
C294 C295 1.391 . S
C295 H283 0.950 . S
C295 C291 1.393 . S
C295 C294 1.391 . S
H296 C304 0.950 . S
H297 C309 0.950 . S
H298 C306 0.950 . S
H299 C308 0.950 . S
H300 C310 0.950 . S
H301 C312 0.950 . S
H302 C314 0.950 . S
H303 C315 0.950 . S
C304 H296 0.950 . S
C304 C305 1.386 1_556 S
C304 C306 1.391 . S
C305 C304 1.386 1_554 S
C305 C309 1.393 . S
C306 H298 0.950 . S
C306 C304 1.391 . S
C306 C307 1.400 1_556 S
C307 C306 1.400 1_554 S
C307 C308 1.398 . S
C307 C313 1.491 . S
C308 H299 0.950 . S
C308 C307 1.398 . S
C308 C309 1.391 . S
C309 H297 0.950 . S
C309 C305 1.393 . S
C309 C308 1.391 . S
C310 H300 0.950 . S
C310 C311 1.386 . S
C310 C312 1.391 1_545 S
C311 C310 1.386 . S
C311 C315 1.393 1_554 S
C312 H301 0.950 . S
C312 C310 1.391 1_565 S
C312 C313 1.400 . S
C313 C307 1.491 . S
C313 C312 1.400 . S
C313 C314 1.398 1_554 S
C314 H302 0.950 . S
C314 C313 1.398 1_556 S
C314 C315 1.391 1_565 S
C315 H303 0.950 . S
C315 C311 1.393 1_556 S
C315 C314 1.391 1_545 S
H316 C324 0.948 1_655 S
H317 C329 0.950 . S
H318 C326 0.950 . S
H319 C328 0.950 . S
H320 C330 0.950 . S
H321 C332 0.950 . S
H322 C334 0.950 . S
H323 C335 0.950 . S
C324 H316 0.948 1_455 S
C324 C325 1.386 1_455 S
C324 C326 1.391 . S
C325 C324 1.386 1_655 S
C325 C329 1.393 . S
C326 H318 0.950 . S
C326 C324 1.391 . S
C326 C327 1.400 . S
C327 C326 1.400 . S
C327 C328 1.398 . S
C327 C333 1.491 . S
C328 H319 0.950 . S
C328 C327 1.398 . S
C328 C329 1.391 1_455 S
C329 H317 0.950 . S
C329 C325 1.393 . S
C329 C328 1.391 1_655 S
C330 H320 0.950 . S
C330 C331 1.386 . S
C330 C332 1.391 . S
C331 C330 1.386 . S
C331 C335 1.393 . S
C332 H321 0.950 . S
C332 C330 1.391 . S
C332 C333 1.400 . S
C333 C327 1.491 . S
C333 C332 1.400 . S
C333 C334 1.398 . S
C334 H322 0.950 . S
C334 C333 1.398 . S
C334 C335 1.391 . S
C335 H323 0.950 . S
C335 C331 1.393 . S
C335 C334 1.391 . S
H336 C344 0.950 . S
H337 C349 0.950 . S
H338 C346 0.950 . S
H339 C348 0.950 . S
H340 C350 0.950 . S
H341 C352 0.950 . S
H342 C354 0.950 . S
H343 C355 0.950 . S
C344 H336 0.950 . S
C344 C345 1.386 . S
C344 C346 1.391 . S
C345 C344 1.386 . S
C345 C349 1.393 1_556 S
C346 H338 0.950 . S
C346 C344 1.391 . S
C346 C347 1.400 . S
C347 C346 1.400 . S
C347 C348 1.398 1_556 S
C347 C353 1.491 1_556 S
C348 H339 0.950 . S
C348 C347 1.398 1_554 S
C348 C349 1.391 . S
C349 H337 0.950 . S
C349 C345 1.393 1_554 S
C349 C348 1.391 . S
C350 H340 0.950 . S
C350 C351 1.386 . S
C350 C352 1.391 . S
C351 C350 1.386 . S
C351 C355 1.393 1_554 S
C352 H341 0.950 . S
C352 C350 1.391 . S
C352 C353 1.400 . S
C353 C347 1.491 1_554 S
C353 C352 1.400 . S
C353 C354 1.398 1_554 S
C354 H342 0.950 . S
C354 C353 1.398 1_556 S
C354 C355 1.391 . S
C355 H343 0.950 . S
C355 C351 1.393 1_556 S
C355 C354 1.391 . S
H356 C364 0.950 . S
H357 C369 0.950 . S
H358 C366 0.950 . S
H359 C368 0.950 . S
H360 C370 0.950 . S
H361 C372 0.950 . S
H362 C374 0.950 . S
H363 C375 0.950 . S
C364 H356 0.950 . S
C364 C365 1.386 1_554 S
C364 C366 1.391 . S
C365 C364 1.386 1_556 S
C365 C369 1.393 . S
C366 H358 0.950 . S
C366 C364 1.391 . S
C366 C367 1.400 1_554 S
C367 C366 1.400 1_556 S
C367 C368 1.398 . S
C367 C373 1.491 . S
C368 H359 0.950 . S
C368 C367 1.398 . S
C368 C369 1.391 . S
C369 H357 0.950 . S
C369 C365 1.393 . S
C369 C368 1.391 . S
C370 H360 0.950 . S
C370 C371 1.386 . S
C370 C372 1.391 . S
C371 C370 1.386 . S
C371 C375 1.393 1_556 S
C372 H361 0.950 . S
C372 C370 1.391 . S
C372 C373 1.400 . S
C373 C367 1.491 . S
C373 C372 1.400 . S
C373 C374 1.398 1_556 S
C374 H362 0.950 . S
C374 C373 1.398 1_554 S
C374 C375 1.391 . S
C375 H363 0.950 . S
C375 C371 1.393 1_554 S
C375 C374 1.391 . S
H376 C384 0.950 . S
H377 C389 0.950 . S
H378 C386 0.950 . S
H379 C388 0.950 . S
H380 C390 0.950 . S
H381 C392 0.950 . S
H382 C394 0.950 . S
H383 C395 0.950 1_556 S
C384 H376 0.950 . S
C384 C385 1.386 . S
C384 C386 1.391 . S
C385 C384 1.386 . S
C385 C389 1.393 . S
C386 H378 0.950 . S
C386 C384 1.391 . S
C386 C387 1.400 . S
C387 C386 1.400 . S
C387 C388 1.398 . S
C387 C393 1.491 . S
C388 H379 0.950 . S
C388 C387 1.398 . S
C388 C389 1.391 . S
C389 H377 0.950 . S
C389 C385 1.393 . S
C389 C388 1.391 . S
C390 H380 0.950 . S
C390 C391 1.386 1_554 S
C390 C392 1.391 . S
C391 C390 1.386 1_556 S
C391 C395 1.391 1_556 S
C392 H381 0.950 . S
C392 C390 1.391 . S
C392 C393 1.400 . S
C393 C387 1.491 . S
C393 C392 1.400 . S
C393 C394 1.398 . S
C394 H382 0.950 . S
C394 C393 1.398 . S
C394 C395 1.393 . S
C395 H383 0.950 1_554 S
C395 C391 1.391 1_554 S
C395 C394 1.393 . S
H396 C404 0.950 . S
H397 C409 0.950 . S
H398 C406 0.950 . S
H399 C408 0.950 . S
H400 C410 0.950 . S
H401 C412 0.950 . S
H402 C414 0.950 . S
H403 C415 0.961 . S
C404 H396 0.950 . S
C404 C405 1.393 . S
C404 C406 1.391 . S
C405 C404 1.393 . S
C405 C409 1.385 1_556 S
C406 H398 0.950 . S
C406 C404 1.391 . S
C406 C407 1.400 1_556 S
C407 C406 1.400 1_554 S
C407 C408 1.398 . S
C407 C413 1.491 . S
C408 H399 0.950 . S
C408 C407 1.398 . S
C408 C409 1.391 . S
C409 H397 0.950 . S
C409 C405 1.385 1_554 S
C409 C408 1.391 . S
C410 H400 0.950 . S
C410 C411 1.386 . S
C410 C412 1.391 . S
C411 C410 1.386 . S
C411 C415 1.381 1_554 S
C412 H401 0.950 . S
C412 C410 1.391 . S
C412 C413 1.400 . S
C413 C407 1.491 . S
C413 C412 1.400 . S
C413 C414 1.398 1_554 S
C414 H402 0.950 . S
C414 C413 1.398 1_556 S
C414 C415 1.391 . S
C415 H403 0.961 . S
C415 C411 1.381 1_556 S
C415 C414 1.391 . S
C145 C1 1.767 . S
C151 C71 1.783 . S
C165 C35 1.873 . S
C171 C105 1.876 . S
C185 C15 1.691 . S
C191 C22 1.686 . S
C205 C49 1.650 . S
C211 C56 1.654 . S
C225 C83 1.701 . S
C231 C90 1.708 . S
C245 C117 1.935 . S
C251 C124 1.940 . S
C265 C28 1.267 . S
C271 C103 1.203 . S
C285 C3 1.566 . S
C291 C62 1.746 . S
C305 C85 1.839 . S
C311 C37 1.712 . S
C325 C96 0.764 . S
C331 C108 0.762 . S
C345 C69 1.714 . S
C351 C51 1.908 . S
C365 C130 0.761 . S
C371 C74 0.753 . S
C385 C6 0.930 . S
C391 C119 0.924 . S
C405 C40 1.536 . S
C411 C17 1.540 . S
