# Generated by pormake.
# Topology vbm, (6)-cn, num edge types: 1
# Building blocks:
#     Node 0, Type 0, BuildingBlock: INOVEN_clean_sbu_0, # of connection points: 6
#     Node 1, Type 0, BuildingBlock: INOVEN_clean_sbu_0, # of connection points: 6
#     Node 2, Type 0, BuildingBlock: INOVEN_clean_sbu_0, # of connection points: 6
#     Node 3, Type 0, BuildingBlock: INOVEN_clean_sbu_0, # of connection points: 6
#     Node 4, Type 0, BuildingBlock: INOVEN_clean_sbu_0, # of connection points: 6
#     Node 5, Type 0, BuildingBlock: INOVEN_clean_sbu_0, # of connection points: 6
#     Node 6, Type 0, BuildingBlock: INOVEN_clean_sbu_0, # of connection points: 6
#     Node 7, Type 0, BuildingBlock: INOVEN_clean_sbu_0, # of connection points: 6
#     Node 8, Type 0, BuildingBlock: INOVEN_clean_sbu_0, # of connection points: 6
#     Node 9, Type 0, BuildingBlock: INOVEN_clean_sbu_0, # of connection points: 6
#     Node 10, Type 0, BuildingBlock: INOVEN_clean_sbu_0, # of connection points: 6
#     Node 11, Type 0, BuildingBlock: INOVEN_clean_sbu_0, # of connection points: 6
#     Node 12, Type 0, BuildingBlock: INOVEN_clean_sbu_0, # of connection points: 6
#     Node 13, Type 0, BuildingBlock: INOVEN_clean_sbu_0, # of connection points: 6
#     Node 14, Type 0, BuildingBlock: INOVEN_clean_sbu_0, # of connection points: 6
#     Node 15, Type 0, BuildingBlock: INOVEN_clean_sbu_0, # of connection points: 6
#     Edge 16, Type (0, 0), BuildingBlock: XIVTED_clean_linker_0, # of connection points: 2
#     Edge 17, Type (0, 0), BuildingBlock: XIVTED_clean_linker_0, # of connection points: 2
#     Edge 18, Type (0, 0), BuildingBlock: XIVTED_clean_linker_0, # of connection points: 2
#     Edge 19, Type (0, 0), BuildingBlock: XIVTED_clean_linker_0, # of connection points: 2
#     Edge 20, Type (0, 0), BuildingBlock: XIVTED_clean_linker_0, # of connection points: 2
#     Edge 21, Type (0, 0), BuildingBlock: XIVTED_clean_linker_0, # of connection points: 2
#     Edge 22, Type (0, 0), BuildingBlock: XIVTED_clean_linker_0, # of connection points: 2
#     Edge 23, Type (0, 0), BuildingBlock: XIVTED_clean_linker_0, # of connection points: 2
#     Edge 24, Type (0, 0), BuildingBlock: XIVTED_clean_linker_0, # of connection points: 2
#     Edge 25, Type (0, 0), BuildingBlock: XIVTED_clean_linker_0, # of connection points: 2
#     Edge 26, Type (0, 0), BuildingBlock: XIVTED_clean_linker_0, # of connection points: 2
#     Edge 27, Type (0, 0), BuildingBlock: XIVTED_clean_linker_0, # of connection points: 2
#     Edge 28, Type (0, 0), BuildingBlock: XIVTED_clean_linker_0, # of connection points: 2
#     Edge 29, Type (0, 0), BuildingBlock: XIVTED_clean_linker_0, # of connection points: 2
#     Edge 30, Type (0, 0), BuildingBlock: XIVTED_clean_linker_0, # of connection points: 2
#     Edge 31, Type (0, 0), BuildingBlock: XIVTED_clean_linker_0, # of connection points: 2
#     Edge 32, Type (0, 0), BuildingBlock: XIVTED_clean_linker_0, # of connection points: 2
#     Edge 33, Type (0, 0), BuildingBlock: XIVTED_clean_linker_0, # of connection points: 2
#     Edge 34, Type (0, 0), BuildingBlock: XIVTED_clean_linker_0, # of connection points: 2
#     Edge 35, Type (0, 0), BuildingBlock: XIVTED_clean_linker_0, # of connection points: 2
#     Edge 36, Type (0, 0), BuildingBlock: XIVTED_clean_linker_0, # of connection points: 2
#     Edge 37, Type (0, 0), BuildingBlock: XIVTED_clean_linker_0, # of connection points: 2
#     Edge 38, Type (0, 0), BuildingBlock: XIVTED_clean_linker_0, # of connection points: 2
#     Edge 39, Type (0, 0), BuildingBlock: XIVTED_clean_linker_0, # of connection points: 2
#     Edge 40, Type (0, 0), BuildingBlock: XIVTED_clean_linker_0, # of connection points: 2
#     Edge 41, Type (0, 0), BuildingBlock: XIVTED_clean_linker_0, # of connection points: 2
#     Edge 42, Type (0, 0), BuildingBlock: XIVTED_clean_linker_0, # of connection points: 2
#     Edge 43, Type (0, 0), BuildingBlock: XIVTED_clean_linker_0, # of connection points: 2
#     Edge 44, Type (0, 0), BuildingBlock: XIVTED_clean_linker_0, # of connection points: 2
#     Edge 45, Type (0, 0), BuildingBlock: XIVTED_clean_linker_0, # of connection points: 2
#     Edge 46, Type (0, 0), BuildingBlock: XIVTED_clean_linker_0, # of connection points: 2
#     Edge 47, Type (0, 0), BuildingBlock: XIVTED_clean_linker_0, # of connection points: 2
#     Edge 48, Type (0, 0), BuildingBlock: XIVTED_clean_linker_0, # of connection points: 2
#     Edge 49, Type (0, 0), BuildingBlock: XIVTED_clean_linker_0, # of connection points: 2
#     Edge 50, Type (0, 0), BuildingBlock: XIVTED_clean_linker_0, # of connection points: 2
#     Edge 51, Type (0, 0), BuildingBlock: XIVTED_clean_linker_0, # of connection points: 2
#     Edge 52, Type (0, 0), BuildingBlock: XIVTED_clean_linker_0, # of connection points: 2
#     Edge 53, Type (0, 0), BuildingBlock: XIVTED_clean_linker_0, # of connection points: 2
#     Edge 54, Type (0, 0), BuildingBlock: XIVTED_clean_linker_0, # of connection points: 2
#     Edge 55, Type (0, 0), BuildingBlock: XIVTED_clean_linker_0, # of connection points: 2
#     Edge 56, Type (0, 0), BuildingBlock: XIVTED_clean_linker_0, # of connection points: 2
#     Edge 57, Type (0, 0), BuildingBlock: XIVTED_clean_linker_0, # of connection points: 2
#     Edge 58, Type (0, 0), BuildingBlock: XIVTED_clean_linker_0, # of connection points: 2
#     Edge 59, Type (0, 0), BuildingBlock: XIVTED_clean_linker_0, # of connection points: 2
#     Edge 60, Type (0, 0), BuildingBlock: XIVTED_clean_linker_0, # of connection points: 2
#     Edge 61, Type (0, 0), BuildingBlock: XIVTED_clean_linker_0, # of connection points: 2
#     Edge 62, Type (0, 0), BuildingBlock: XIVTED_clean_linker_0, # of connection points: 2
#     Edge 63, Type (0, 0), BuildingBlock: XIVTED_clean_linker_0, # of connection points: 2
# Relax obj value: 0.061
# Max RMSD: 0.138
# Mean RMSD: 0.138
data_MOF--net-vbm--node1-INOVEN_clean_sbu_0--edge1-XIVTED_clean_linker_0
_symmetry_space_group_name_H-M    P1
_symmetry_Int_Tables_number       1
_symmetry_cell_setting            triclinic
loop_
_symmetry_equiv_pos_as_xyz
'x, y, z'
_cell_length_a     55.925976
_cell_length_b     25.956113
_cell_length_c     55.933431
_cell_angle_alpha  90.12772
_cell_angle_beta   90.079128
_cell_angle_gamma 90.07721
loop_
_atom_site_label
_atom_site_type_symbol
_atom_site_fract_x
_atom_site_fract_y
_atom_site_fract_z
_atom_type_partial_charge
Gd0 Gd 0.1302 0.06985 0.16004 0.0
Gd1 Gd 0.10622 0.1798 0.15634 0.0
C2 C 0.07417 0.08395 0.14475 0.0
C3 C 0.14215 0.98223 0.17834 0.0
C4 C 0.13945 0.92637 0.17421 0.0
C5 C 0.14003 0.9049 0.15115 0.0
C6 C 0.13637 0.89387 0.19394 0.0
C7 C 0.13494 0.81864 0.16779 0.0
C8 C 0.13412 0.84064 0.1908 0.0
C9 C 0.13783 0.85151 0.14798 0.0
C10 C 0.12801 0.09753 0.11323 0.0
C11 C 0.16333 0.17173 0.1659 0.0
C12 C 0.09388 0.27385 0.14709 0.0
C13 C 0.10225 0.3278 0.14972 0.0
C14 C 0.10352 0.35207 0.1722 0.0
C15 C 0.1073 0.35683 0.12917 0.0
C16 C 0.11372 0.43393 0.15335 0.0
C17 C 0.11305 0.40917 0.13095 0.0
C18 C 0.10921 0.40451 0.17398 0.0
C19 C 0.10417 0.12991 0.19909 0.0
O20 O 0.09031 0.05445 0.15554 0.0
O21 O 0.07841 0.1323 0.13915 0.0
O22 O 0.15585 1.00798 0.16351 0.0
O23 O 0.12273 1.00721 0.18445 0.0
O24 O 0.13724 0.05473 0.1209 0.0
O25 O 0.12059 0.12302 0.13102 0.0
O26 O 0.14458 0.20089 0.16123 0.0
O27 O 0.16212 0.1208 0.16768 0.0
O28 O 0.08733 0.24924 0.16642 0.0
O29 O 0.10534 0.24452 0.13186 0.0
O30 O 0.08662 0.15707 0.19054 0.0
O31 O 0.12161 0.13199 0.18499 0.0
H32 H 0.14232 0.92928 0.13562 0.0
H33 H 0.13572 0.90972 0.21187 0.0
H34 H 0.13146 0.81679 0.20643 0.0
H35 H 0.13875 0.83594 0.13003 0.0
H36 H 0.09957 0.33097 0.1884 0.0
H37 H 0.10635 0.33923 0.11161 0.0
H38 H 0.11679 0.43032 0.11472 0.0
H39 H 0.1093 0.42234 0.1915 0.0
Gd40 Gd 0.84914 0.97418 0.14968 0.0
Gd41 Gd 0.87326 0.86355 0.14738 0.0
C42 C 0.90584 0.95947 0.13694 0.0
C43 C 0.83619 0.06284 0.16641 0.0
C44 C 0.8382 0.11822 0.16114 0.0
C45 C 0.85177 0.13629 0.14181 0.0
C46 C 0.82681 0.15368 0.17619 0.0
C47 C 0.8427 0.22528 0.1529 0.0
C48 C 0.82901 0.20662 0.17214 0.0
C49 C 0.85401 0.18938 0.13773 0.0
C50 C 0.85145 0.94251 0.1033 0.0
C51 C 0.81618 0.87249 0.15581 0.0
C52 C 0.88679 0.76944 0.13996 0.0
C53 C 0.8782 0.71563 0.13839 0.0
C54 C 0.86242 0.69473 0.15535 0.0
C55 C 0.88768 0.68336 0.12066 0.0
C56 C 0.86726 0.60906 0.13783 0.0
C57 C 0.88225 0.63075 0.12033 0.0
C58 C 0.857 0.64196 0.15506 0.0
C59 C 0.87521 0.91653 0.18945 0.0
O60 O 0.88907 0.98954 0.14637 0.0
O61 O 0.90212 0.91059 0.13179 0.0
O62 O 0.82282 0.03521 0.15195 0.0
O63 O 0.85599 0.03953 0.17274 0.0
O64 O 0.8421 0.98581 0.1102 0.0
O65 O 0.85883 0.91881 0.12156 0.0
O66 O 0.8345 0.84349 0.14945 0.0
O67 O 0.81788 0.92301 0.15907 0.0
O68 O 0.88662 0.79135 0.16107 0.0
O69 O 0.88093 0.80091 0.12264 0.0
O70 O 0.89281 0.88894 0.18131 0.0
O71 O 0.85779 0.9135 0.1753 0.0
H72 H 0.86072 0.10938 0.13 0.0
H73 H 0.8164 0.14041 0.1913 0.0
H74 H 0.82039 0.23295 0.18444 0.0
H75 H 0.86448 0.20227 0.1226 0.0
H76 H 0.85483 0.71881 0.16923 0.0
H77 H 0.89986 0.69863 0.10739 0.0
H78 H 0.89008 0.60693 0.10649 0.0
H79 H 0.84551 0.62668 0.16891 0.0
Gd80 Gd 0.13124 0.96082 0.39245 0.0
Gd81 Gd 0.10572 0.85907 0.39081 0.0
C82 C 0.07358 0.95429 0.40146 0.0
C83 C 0.14585 0.05487 0.386 0.0
C84 C 0.13809 0.10949 0.38647 0.0
C85 C 0.12925 0.13291 0.40736 0.0
C86 C 0.14144 0.1399 0.36602 0.0
C87 C 0.12831 0.21671 0.38751 0.0
C88 C 0.13657 0.19278 0.36649 0.0
C89 C 0.12443 0.18592 0.40786 0.0
C90 C 0.13193 0.90944 0.43461 0.0
C91 C 0.16289 0.86185 0.3827 0.0
C92 C 0.09057 0.76508 0.39588 0.0
C93 C 0.09827 0.71042 0.39519 0.0
C94 C 0.10762 0.68761 0.37438 0.0
C95 C 0.09446 0.67943 0.41537 0.0
C96 C 0.10826 0.60332 0.39379 0.0
C97 C 0.09944 0.62663 0.41473 0.0
C98 C 0.11253 0.63463 0.37369 0.0
C99 C 0.10508 0.91418 0.34943 0.0
O100 O 0.09185 0.9828 0.39418 0.0
O101 O 0.07581 0.90463 0.40527 0.0
O102 O 0.14762 0.03046 0.40634 0.0
O103 O 0.13757 0.02574 0.36876 0.0
O104 O 0.14987 0.9349 0.42588 0.0
O105 O 0.11413 0.91277 0.42068 0.0
O106 O 0.1442 0.83513 0.38992 0.0
O107 O 0.16174 0.91217 0.37937 0.0
O108 O 0.08952 0.79038 0.37571 0.0
O109 O 0.09835 0.79337 0.41366 0.0
O110 O 0.08687 0.8885 0.35747 0.0
O111 O 0.12271 0.908 0.36317 0.0
H112 H 0.12646 0.11055 0.42344 0.0
H113 H 0.14844 0.12295 0.34975 0.0
H114 H 0.14007 0.21518 0.35056 0.0
H115 H 0.11776 0.20283 0.42426 0.0
H116 H 0.11077 0.71042 0.35851 0.0
H117 H 0.08704 0.69589 0.43156 0.0
H118 H 0.09563 0.60378 0.43045 0.0
H119 H 0.11961 0.61816 0.35737 0.0
Gd120 Gd 0.85065 0.087 0.38381 0.0
Gd121 Gd 0.87597 0.18806 0.38136 0.0
C122 C 0.90804 0.09401 0.39419 0.0
C123 C 0.83592 0.99273 0.37823 0.0
C124 C 0.84303 0.93787 0.38043 0.0
C125 C 0.83126 0.90644 0.3971 0.0
C126 C 0.85966 0.91515 0.36478 0.0
C127 C 0.85169 0.83023 0.38181 0.0
C128 C 0.86397 0.86196 0.36551 0.0
C129 C 0.83557 0.85339 0.39784 0.0
C130 C 0.84963 0.14022 0.42558 0.0
C131 C 0.81881 0.1851 0.37348 0.0
C132 C 0.8914 0.28224 0.3848 0.0
C133 C 0.88427 0.33695 0.38211 0.0
C134 C 0.89662 0.3681 0.36576 0.0
C135 C 0.86693 0.35977 0.39692 0.0
C136 C 0.87545 0.44444 0.37988 0.0
C137 C 0.86256 0.4129 0.3958 0.0
C138 C 0.89222 0.42108 0.36458 0.0
C139 C 0.87686 0.13092 0.3405 0.0
O140 O 0.88998 0.06485 0.38683 0.0
O141 O 0.9056 0.14389 0.39724 0.0
O142 O 0.83301 1.019 0.39797 0.0
O143 O 0.84545 1.02011 0.36109 0.0
O144 O 0.83177 0.11447 0.4168 0.0
O145 O 0.86755 0.13635 0.41188 0.0
O146 O 0.83756 0.21223 0.38027 0.0
O147 O 0.82003 0.13472 0.37039 0.0
O148 O 0.89331 0.25456 0.36535 0.0
O149 O 0.88257 0.25627 0.40278 0.0
O150 O 0.89509 0.15635 0.34871 0.0
O151 O 0.85905 0.13795 0.35389 0.0
H152 H 0.81823 0.92275 0.40926 0.0
H153 H 0.86891 0.93815 0.35156 0.0
H154 H 0.87633 0.84549 0.35273 0.0
H155 H 0.82608 0.83043 0.41091 0.0
H156 H 0.91014 0.3516 0.3542 0.0
H157 H 0.85716 0.33692 0.40982 0.0
H158 H 0.84967 0.42947 0.40801 0.0
H159 H 0.90216 0.44382 0.35178 0.0
Gd160 Gd 0.87345 0.86657 0.88089 0.0
Gd161 Gd 0.8491 0.97611 0.88128 0.0
C162 C 0.81615 0.87521 0.87529 0.0
C163 C 0.88727 0.77168 0.88433 0.0
C164 C 0.87896 0.71828 0.88832 0.0
C165 C 0.85942 0.69739 0.87575 0.0
C166 C 0.89232 0.68618 0.90339 0.0
C167 C 0.868 0.61205 0.89192 0.0
C168 C 0.8869 0.63373 0.90522 0.0
C169 C 0.85399 0.6448 0.87756 0.0
C170 C 0.87601 0.92405 0.84032 0.0
C171 C 0.90554 0.96143 0.89526 0.0
C172 C 0.83601 0.06599 0.86631 0.0
C173 C 0.83838 0.12094 0.8725 0.0
C174 C 0.85586 0.13831 0.88865 0.0
C175 C 0.82352 0.15685 0.8612 0.0
C176 C 0.84401 0.22754 0.88149 0.0
C177 C 0.82627 0.20958 0.86563 0.0
C178 C 0.85865 0.19116 0.8931 0.0
C179 C 0.85082 0.94016 0.92684 0.0
O180 O 0.83462 0.84676 0.88166 0.0
O181 O 0.81779 0.92547 0.87146 0.0
O182 O 0.88131 0.79358 0.86412 0.0
O183 O 0.88701 0.80347 0.90257 0.0
O184 O 0.89359 0.89645 0.84837 0.0
O185 O 0.8582 0.91917 0.85386 0.0
O186 O 0.88874 0.99254 0.88669 0.0
O187 O 0.90223 0.91157 0.89797 0.0
O188 O 0.82282 0.03755 0.88049 0.0
O189 O 0.85556 0.04279 0.85917 0.0
O190 O 0.84147 0.98397 0.92076 0.0
O191 O 0.85851 0.91786 0.90827 0.0
H192 H 0.84882 0.72127 0.86395 0.0
H193 H 0.90746 0.70141 0.91324 0.0
H194 H 0.89778 0.60998 0.91682 0.0
H195 H 0.83941 0.62948 0.86694 0.0
H196 H 0.8675 0.11108 0.89757 0.0
H197 H 0.81003 0.14415 0.84857 0.0
H198 H 0.81492 0.23633 0.85609 0.0
H199 H 0.87229 0.2035 0.90563 0.0
Gd200 Gd 0.10637 0.17859 0.89248 0.0
Gd201 Gd 0.13078 0.06846 0.88894 0.0
C202 C 0.16344 0.1708 0.88267 0.0
C203 C 0.09336 0.27245 0.90152 0.0
C204 C 0.10183 0.32647 0.90089 0.0
C205 C 0.11347 0.34708 0.8808 0.0
C206 C 0.09659 0.35903 0.92022 0.0
C207 C 0.11309 0.43288 0.8989 0.0
C208 C 0.10219 0.41154 0.91929 0.0
C209 C 0.11903 0.39974 0.87982 0.0
C210 C 0.10408 0.12772 0.8499 0.0
C211 C 0.07436 0.08195 0.903 0.0
C212 C 0.14322 0.98029 0.87124 0.0
C213 C 0.14079 0.92468 0.87591 0.0
C214 C 0.1319 0.90611 0.8977 0.0
C215 C 0.1471 0.88959 0.85794 0.0
C216 C 0.13575 0.81742 0.8834 0.0
C217 C 0.14463 0.83656 0.86161 0.0
C218 C 0.12941 0.85294 0.90142 0.0
C219 C 0.12868 0.09788 0.93563 0.0
O220 O 0.14487 0.19969 0.8884 0.0
O221 O 0.1621 0.12002 0.88012 0.0
O222 O 0.08961 0.24938 0.88101 0.0
O223 O 0.1027 0.24204 0.91768 0.0
O224 O 0.08659 0.15506 0.85846 0.0
O225 O 0.12168 0.13001 0.86389 0.0
O226 O 0.09096 0.05266 0.8928 0.0
O227 O 0.0781 0.13059 0.90862 0.0
O228 O 0.15672 1.00686 0.88601 0.0
O229 O 0.12361 1.0045 0.86507 0.0
O230 O 0.13816 0.05511 0.92822 0.0
O231 O 0.12109 0.12234 0.91767 0.0
H232 H 0.11776 0.32282 0.86562 0.0
H233 H 0.08766 0.34401 0.93591 0.0
H234 H 0.09778 0.4355 0.93452 0.0
H235 H 0.12726 0.41473 0.86376 0.0
H236 H 0.12686 0.9327 0.91177 0.0
H237 H 0.15382 0.90324 0.84092 0.0
H238 H 0.14929 0.81061 0.84717 0.0
H239 H 0.12273 0.83966 0.91849 0.0
Gd240 Gd 0.87512 0.19085 0.64758 0.0
Gd241 Gd 0.85006 0.08899 0.64682 0.0
C242 C 0.81811 0.18739 0.65651 0.0
C243 C 0.88986 0.2848 0.6415 0.0
C244 C 0.88226 0.3395 0.64274 0.0
C245 C 0.87823 0.36448 0.66471 0.0
C246 C 0.88112 0.36852 0.62161 0.0
C247 C 0.87319 0.44692 0.64435 0.0
C248 C 0.87656 0.42146 0.62238 0.0
C249 C 0.87369 0.41757 0.66549 0.0
C250 C 0.87583 0.13795 0.68954 0.0
C251 C 0.90761 0.0961 0.63742 0.0
C252 C 0.83564 0.99506 0.65385 0.0
C253 C 0.84327 0.94038 0.65293 0.0
C254 C 0.84733 0.9149 0.63109 0.0
C255 C 0.84436 0.91182 0.6742 0.0
C256 C 0.85231 0.83292 0.65184 0.0
C257 C 0.84888 0.85883 0.67369 0.0
C258 C 0.85184 0.86182 0.63056 0.0
C259 C 0.84883 0.13926 0.60438 0.0
O260 O 0.83657 0.21437 0.64892 0.0
O261 O 0.81961 0.13726 0.66018 0.0
O262 O 0.89242 0.25945 0.66153 0.0
O263 O 0.88081 0.25652 0.62433 0.0
O264 O 0.894 0.16342 0.68128 0.0
O265 O 0.85823 0.143 0.67569 0.0
O266 O 0.88952 0.06752 0.64508 0.0
O267 O 0.90506 0.14546 0.6331 0.0
O268 O 0.83287 1.01963 0.63365 0.0
O269 O 0.8448 0.02406 0.67069 0.0
O270 O 0.831 0.11404 0.61348 0.0
O271 O 0.86681 0.13613 0.61808 0.0
H272 H 0.87917 0.34339 0.68137 0.0
H273 H 0.8843 0.35043 0.60443 0.0
H274 H 0.8759 0.44255 0.60571 0.0
H275 H 0.87141 0.43587 0.68275 0.0
H276 H 0.84643 0.93561 0.61432 0.0
H277 H 0.84115 0.93032 0.69129 0.0
H278 H 0.8495 0.83808 0.69045 0.0
H279 H 0.85415 0.84316 0.61339 0.0
Gd280 Gd 0.10488 0.85825 0.65724 0.0
Gd281 Gd 0.12985 0.96006 0.65545 0.0
C282 C 0.16205 0.86183 0.66487 0.0
C283 C 0.08981 0.76407 0.65256 0.0
C284 C 0.09741 0.70944 0.65354 0.0
C285 C 0.10749 0.68768 0.67422 0.0
C286 C 0.09279 0.67748 0.63379 0.0
C287 C 0.10721 0.60242 0.6556 0.0
C288 C 0.09767 0.62469 0.63476 0.0
C289 C 0.11231 0.63471 0.67524 0.0
C290 C 0.10401 0.9139 0.69855 0.0
C291 C 0.07237 0.95215 0.64536 0.0
C292 C 0.14428 0.0542 0.66203 0.0
C293 C 0.13652 0.10875 0.66156 0.0
C294 C 0.12667 0.13133 0.64096 0.0
C295 C 0.1409 0.13991 0.68164 0.0
C296 C 0.12692 0.21592 0.66024 0.0
C297 C 0.13612 0.1928 0.68103 0.0
C298 C 0.12193 0.18435 0.64031 0.0
C299 C 0.13136 0.90764 0.61349 0.0
O300 O 0.14332 0.83458 0.65815 0.0
O301 O 0.1608 0.9122 0.66807 0.0
O302 O 0.08874 0.78998 0.67261 0.0
O303 O 0.09767 0.79172 0.6347 0.0
O304 O 0.08582 0.88827 0.69035 0.0
O305 O 0.12169 0.90786 0.6849 0.0
O306 O 0.09037 0.98151 0.65274 0.0
O307 O 0.07496 0.90241 0.64208 0.0
O308 O 0.14604 0.02973 0.64165 0.0
O309 O 0.136 0.02518 0.67922 0.0
O310 O 0.14906 0.93365 0.62249 0.0
O311 O 0.11331 0.91112 0.62707 0.0
H312 H 0.11128 0.71132 0.68975 0.0
H313 H 0.08482 0.69319 0.61772 0.0
H314 H 0.09321 0.60107 0.6194 0.0
H315 H 0.11995 0.619 0.69146 0.0
H316 H 0.12304 0.10831 0.62519 0.0
H317 H 0.14867 0.12353 0.69767 0.0
H318 H 0.14046 0.21583 0.69661 0.0
H319 H 0.11451 0.20066 0.62413 0.0
Gd320 Gd 0.62926 0.58459 0.15388 0.0
Gd321 Gd 0.60416 0.68597 0.15615 0.0
C322 C 0.57189 0.59179 0.1431 0.0
C323 C 0.64357 0.49046 0.16023 0.0
C324 C 0.63578 0.43583 0.15877 0.0
C325 C 0.63619 0.4088 0.13695 0.0
C326 C 0.6302 0.40874 0.17978 0.0
C327 C 0.62649 0.32843 0.15734 0.0
C328 C 0.62553 0.35578 0.17906 0.0
C329 C 0.63152 0.3558 0.13624 0.0
C330 C 0.63069 0.6373 0.11213 0.0
C331 C 0.66134 0.68273 0.1637 0.0
C332 C 0.58916 0.78028 0.15252 0.0
C333 C 0.59727 0.83476 0.15369 0.0
C334 C 0.59656 0.86227 0.17537 0.0
C335 C 0.60346 0.86127 0.13269 0.0
C336 C 0.60721 0.94191 0.15487 0.0
C337 C 0.60844 0.91412 0.13328 0.0
C338 C 0.60156 0.91513 0.17597 0.0
C339 C 0.60302 0.6293 0.19699 0.0
O340 O 0.58992 0.56247 0.15028 0.0
O341 O 0.5743 0.6418 0.14057 0.0
O342 O 0.64649 0.51577 0.14026 0.0
O343 O 0.63444 0.51893 0.17724 0.0
O344 O 0.64837 0.61104 0.12086 0.0
O345 O 0.61271 0.63382 0.12578 0.0
O346 O 0.64268 0.70978 0.15676 0.0
O347 O 0.65998 0.63249 0.16707 0.0
O348 O 0.58859 0.75399 0.17243 0.0
O349 O 0.59613 0.75257 0.13425 0.0
O350 O 0.58483 0.65462 0.18872 0.0
O351 O 0.62085 0.63615 0.18363 0.0
H352 H 0.64075 0.42823 0.12046 0.0
H353 H 0.62999 0.42826 0.19692 0.0
H354 H 0.62138 0.33617 0.19562 0.0
H355 H 0.63271 0.33597 0.11923 0.0
H356 H 0.59148 0.84332 0.19184 0.0
H357 H 0.60393 0.84147 0.11563 0.0
H358 H 0.61303 0.93332 0.11674 0.0
H359 H 0.60013 0.93534 0.19286 0.0
Gd360 Gd 0.34948 0.46462 0.14897 0.0
Gd361 Gd 0.37566 0.35599 0.14836 0.0
C362 C 0.40629 0.45363 0.13558 0.0
C363 C 0.33592 0.55409 0.16433 0.0
C364 C 0.33807 0.60954 0.15882 0.0
C365 C 0.35712 0.62901 0.14521 0.0
C366 C 0.32143 0.64395 0.16859 0.0
C367 C 0.34333 0.71716 0.15214 0.0
C368 C 0.32399 0.69711 0.16529 0.0
C369 C 0.3597 0.68231 0.14186 0.0
C370 C 0.35212 0.42954 0.10313 0.0
C371 C 0.31828 0.36122 0.15581 0.0
C372 C 0.39027 0.26172 0.14348 0.0
C373 C 0.38171 0.2079 0.14163 0.0
C374 C 0.36147 0.19063 0.15413 0.0
C375 C 0.39521 0.17222 0.12852 0.0
C376 C 0.36919 0.10198 0.1414 0.0
C377 C 0.38905 0.11991 0.12838 0.0
C378 C 0.35525 0.13824 0.15399 0.0
C379 C 0.37726 0.41267 0.1894 0.0
O380 O 0.38893 0.48292 0.14441 0.0
O381 O 0.40383 0.40375 0.13191 0.0
O382 O 0.32294 0.52574 0.14981 0.0
O383 O 0.35546 0.53097 0.17156 0.0
O384 O 0.34188 0.47236 0.10937 0.0
O385 O 0.36001 0.40785 0.12172 0.0
O386 O 0.33708 0.33385 0.14932 0.0
O387 O 0.31915 0.41179 0.15923 0.0
O388 O 0.38758 0.28464 0.16417 0.0
O389 O 0.38636 0.29234 0.12529 0.0
O390 O 0.3952 0.38596 0.18141 0.0
O391 O 0.35963 0.40698 0.17564 0.0
H392 H 0.37024 0.60309 0.13757 0.0
H393 H 0.3066 0.62973 0.17915 0.0
H394 H 0.3108 0.72254 0.17312 0.0
H395 H 0.37491 0.69626 0.13181 0.0
H396 H 0.35078 0.21741 0.16443 0.0
H397 H 0.411 0.18461 0.11889 0.0
H398 H 0.40042 0.09331 0.11874 0.0
H399 H 0.33963 0.12612 0.16392 0.0
Gd400 Gd 0.63214 0.4792 0.38753 0.0
Gd401 Gd 0.60775 0.36854 0.39134 0.0
C402 C 0.57565 0.46537 0.40125 0.0
C403 C 0.64471 0.56719 0.36982 0.0
C404 C 0.64249 0.62283 0.3746 0.0
C405 C 0.63088 0.64148 0.39508 0.0
C406 C 0.65173 0.6579 0.358 0.0
C407 C 0.63779 0.73021 0.38217 0.0
C408 C 0.64943 0.71098 0.36171 0.0
C409 C 0.62855 0.69471 0.39884 0.0
C410 C 0.62989 0.45035 0.43425 0.0
C411 C 0.66477 0.37687 0.38123 0.0
C412 C 0.59457 0.27496 0.40072 0.0
C413 C 0.60277 0.22081 0.40058 0.0
C414 C 0.61623 0.20026 0.38164 0.0
C415 C 0.59539 0.18808 0.41907 0.0
C416 C 0.61336 0.11412 0.39901 0.0
C417 C 0.60064 0.13543 0.41834 0.0
C418 C 0.62148 0.14743 0.38086 0.0
C419 C 0.60561 0.41872 0.34867 0.0
O420 O 0.59229 0.49461 0.39106 0.0
O421 O 0.57938 0.4169 0.40708 0.0
O422 O 0.65825 0.54061 0.38447 0.0
O423 O 0.62497 0.54308 0.3638 0.0
O424 O 0.63935 0.49314 0.42685 0.0
O425 O 0.62241 0.42569 0.41627 0.0
O426 O 0.64631 0.34794 0.38736 0.0
O427 O 0.66334 0.42757 0.37845 0.0
O428 O 0.59127 0.29718 0.37998 0.0
O429 O 0.60376 0.30592 0.41683 0.0
O430 O 0.58812 0.39116 0.3571 0.0
O431 O 0.62307 0.41678 0.3628 0.0
H432 H 0.62359 0.61491 0.40809 0.0
H433 H 0.66059 0.64419 0.34198 0.0
H434 H 0.6564 0.73692 0.34827 0.0
H435 H 0.6197 0.70803 0.41491 0.0
H436 H 0.62217 0.22472 0.36714 0.0
H437 H 0.58503 0.20309 0.43389 0.0
H438 H 0.59453 0.11132 0.43288 0.0
H439 H 0.63118 0.13246 0.36562 0.0
Gd440 Gd 0.35062 0.57192 0.37958 0.0
Gd441 Gd 0.37519 0.68186 0.38209 0.0
C442 C 0.40683 0.58575 0.39466 0.0
C443 C 0.33816 0.4836 0.36206 0.0
C444 C 0.34059 0.4278 0.36626 0.0
C445 C 0.34261 0.4072 0.38936 0.0
C446 C 0.34083 0.39448 0.34652 0.0
C447 C 0.34458 0.32012 0.37279 0.0
C448 C 0.34281 0.34128 0.34971 0.0
C449 C 0.34458 0.3538 0.3926 0.0
C450 C 0.35253 0.60335 0.42597 0.0
C451 C 0.31795 0.6738 0.3731 0.0
C452 C 0.38818 0.77633 0.3898 0.0
C453 C 0.37921 0.83006 0.38886 0.0
C454 C 0.37455 0.85472 0.36698 0.0
C455 C 0.37724 0.85867 0.41011 0.0
C456 C 0.36728 0.93617 0.38761 0.0
C457 C 0.37127 0.911 0.40952 0.0
C458 C 0.36864 0.90712 0.36637 0.0
C459 C 0.37758 0.62876 0.34012 0.0
O460 O 0.39031 0.55572 0.38467 0.0
O461 O 0.4032 0.63491 0.39919 0.0
O462 O 0.32482 0.50991 0.37702 0.0
O463 O 0.35762 0.50807 0.35561 0.0
O464 O 0.34303 0.5602 0.41891 0.0
O465 O 0.36027 0.62704 0.40785 0.0
O466 O 0.33671 0.70282 0.37816 0.0
O467 O 0.31909 0.62292 0.37102 0.0
O468 O 0.39156 0.75226 0.36949 0.0
O469 O 0.37963 0.74631 0.40655 0.0
O470 O 0.39517 0.65601 0.34863 0.0
O471 O 0.35988 0.63219 0.35389 0.0
H472 H 0.34256 0.4323 0.40486 0.0
H473 H 0.33947 0.40969 0.32853 0.0
H474 H 0.34322 0.31676 0.33403 0.0
H475 H 0.34573 0.33887 0.41062 0.0
H476 H 0.37607 0.83399 0.35023 0.0
H477 H 0.38085 0.84081 0.42722 0.0
H478 H 0.37001 0.93185 0.42626 0.0
H479 H 0.36598 0.92522 0.34915 0.0
Gd480 Gd 0.37597 0.35544 0.88018 0.0
Gd481 Gd 0.35077 0.464 0.88176 0.0
C482 C 0.31842 0.36235 0.8762 0.0
C483 C 0.39036 0.26065 0.88226 0.0
C484 C 0.38201 0.20716 0.88577 0.0
C485 C 0.39725 0.17175 0.89695 0.0
C486 C 0.36008 0.18983 0.87649 0.0
C487 C 0.36945 0.10155 0.88834 0.0
C488 C 0.35383 0.13759 0.87782 0.0
C489 C 0.39108 0.11956 0.89823 0.0
C490 C 0.37747 0.41439 0.83999 0.0
C491 C 0.40748 0.45083 0.89506 0.0
C492 C 0.33705 0.55402 0.86754 0.0
C493 C 0.33922 0.60926 0.87348 0.0
C494 C 0.32083 0.64283 0.86671 0.0
C495 C 0.35981 0.6295 0.88445 0.0
C496 C 0.344 0.71681 0.88055 0.0
C497 C 0.36217 0.68279 0.88797 0.0
C498 C 0.32315 0.69597 0.87021 0.0
C499 C 0.35349 0.42668 0.92704 0.0
O500 O 0.33729 0.33451 0.88199 0.0
O501 O 0.31962 0.41265 0.87237 0.0
O502 O 0.38384 0.28348 0.86246 0.0
O503 O 0.39032 0.2915 0.90084 0.0
O504 O 0.39538 0.38727 0.84762 0.0
O505 O 0.35988 0.40838 0.85373 0.0
O506 O 0.39028 0.48158 0.88702 0.0
O507 O 0.40475 0.40066 0.89719 0.0
O508 O 0.3243 0.52523 0.88197 0.0
O509 O 0.35644 0.5311 0.85975 0.0
O510 O 0.34366 0.47027 0.92141 0.0
O511 O 0.36108 0.40523 0.90821 0.0
H512 H 0.41435 0.18421 0.90405 0.0
H513 H 0.34805 0.21638 0.86769 0.0
H514 H 0.33687 0.12538 0.87034 0.0
H515 H 0.40373 0.09307 0.90617 0.0
H516 H 0.30478 0.62798 0.85825 0.0
H517 H 0.37427 0.60427 0.88981 0.0
H518 H 0.37854 0.69743 0.89582 0.0
H519 H 0.30862 0.72079 0.86468 0.0
Gd520 Gd 0.60439 0.68728 0.8899 0.0
Gd521 Gd 0.62959 0.58605 0.89176 0.0
C522 C 0.66136 0.68411 0.88062 0.0
C523 C 0.58936 0.78149 0.89422 0.0
C524 C 0.59649 0.8361 0.89111 0.0
C525 C 0.58201 0.86849 0.87722 0.0
C526 C 0.61622 0.8575 0.90322 0.0
C527 C 0.60604 0.94325 0.88843 0.0
C528 C 0.62091 0.91052 0.90191 0.0
C529 C 0.58674 0.92135 0.87582 0.0
C530 C 0.60298 0.63113 0.84877 0.0
C531 C 0.5723 0.59303 0.90247 0.0
C532 C 0.64417 0.49177 0.88615 0.0
C533 C 0.63706 0.43697 0.88863 0.0
C534 C 0.65092 0.4045 0.90312 0.0
C535 C 0.61807 0.4155 0.87542 0.0
C536 C 0.62762 0.32965 0.89055 0.0
C537 C 0.61342 0.36241 0.87637 0.0
C538 C 0.64625 0.35159 0.90413 0.0
C539 C 0.63123 0.63929 0.93355 0.0
O540 O 0.64285 0.71134 0.88786 0.0
O541 O 0.65992 0.63371 0.87758 0.0
O542 O 0.58619 0.75384 0.87491 0.0
O543 O 0.59927 0.75551 0.91163 0.0
O544 O 0.58493 0.65677 0.85712 0.0
O545 O 0.6209 0.63749 0.86213 0.0
O546 O 0.59021 0.56411 0.89469 0.0
O547 O 0.57493 0.64274 0.906 0.0
O548 O 0.64749 0.51823 0.90578 0.0
O549 O 0.63425 0.51889 0.86913 0.0
O550 O 0.64899 0.61384 0.9245 0.0
O551 O 0.61311 0.63498 0.9201 0.0
H552 H 0.56656 0.85308 0.8679 0.0
H553 H 0.62776 0.83354 0.91406 0.0
H554 H 0.63611 0.92592 0.91158 0.0
H555 H 0.57474 0.94533 0.86549 0.0
H556 H 0.66584 0.4199 0.91325 0.0
H557 H 0.60707 0.43946 0.86404 0.0
H558 H 0.59874 0.34701 0.86592 0.0
H559 H 0.65778 0.32764 0.91498 0.0
Gd560 Gd 0.37464 0.68366 0.64782 0.0
Gd561 Gd 0.35005 0.57406 0.64927 0.0
C562 C 0.3176 0.67572 0.65583 0.0
C563 C 0.38851 0.77823 0.64233 0.0
C564 C 0.37999 0.83182 0.63959 0.0
C565 C 0.36152 0.85201 0.65381 0.0
C566 C 0.39213 0.8647 0.62387 0.0
C567 C 0.36877 0.93816 0.63781 0.0
C568 C 0.38659 0.91719 0.62294 0.0
C569 C 0.35595 0.90465 0.6529 0.0
C570 C 0.37737 0.62894 0.68925 0.0
C571 C 0.40658 0.58806 0.6355 0.0
C572 C 0.33715 0.48464 0.66511 0.0
C573 C 0.33937 0.42951 0.65915 0.0
C574 C 0.35593 0.41202 0.64215 0.0
C575 C 0.32533 0.39358 0.67146 0.0
C576 C 0.34478 0.32271 0.6504 0.0
C577 C 0.32797 0.34078 0.66715 0.0
C578 C 0.35861 0.3591 0.63781 0.0
C579 C 0.35166 0.60673 0.60309 0.0
O580 O 0.33593 0.70395 0.64884 0.0
O581 O 0.31916 0.62538 0.65953 0.0
O582 O 0.38545 0.75645 0.66319 0.0
O583 O 0.38533 0.74645 0.62436 0.0
O584 O 0.39495 0.65601 0.68076 0.0
O585 O 0.35951 0.63293 0.67569 0.0
O586 O 0.38979 0.55793 0.64485 0.0
O587 O 0.40313 0.63732 0.63124 0.0
O588 O 0.32368 0.51272 0.65104 0.0
O589 O 0.35688 0.50807 0.67173 0.0
O590 O 0.34225 0.56349 0.60993 0.0
O591 O 0.35944 0.6303 0.62132 0.0
H592 H 0.35188 0.82748 0.66613 0.0
H593 H 0.40644 0.85 0.61274 0.0
H594 H 0.39651 0.9415 0.61076 0.0
H595 H 0.34222 0.91938 0.66471 0.0
H596 H 0.36694 0.43924 0.63244 0.0
H597 H 0.31255 0.40635 0.68475 0.0
H598 H 0.31726 0.31407 0.67745 0.0
H599 H 0.37151 0.34672 0.62458 0.0
Gd600 Gd 0.60663 0.36746 0.65472 0.0
Gd601 Gd 0.63038 0.47826 0.65807 0.0
C602 C 0.6637 0.37709 0.66417 0.0
C603 C 0.59394 0.27337 0.64574 0.0
C604 C 0.60245 0.21951 0.64677 0.0
C605 C 0.61216 0.19831 0.66774 0.0
C606 C 0.59917 0.18765 0.62674 0.0
C607 C 0.61375 0.11333 0.64897 0.0
C608 C 0.6048 0.13524 0.62779 0.0
C609 C 0.61775 0.14574 0.66883 0.0
C610 C 0.60436 0.41848 0.69723 0.0
C611 C 0.57435 0.46297 0.64289 0.0
C612 C 0.64248 0.5663 0.67613 0.0
C613 C 0.63996 0.62188 0.67167 0.0
C614 C 0.63312 0.64087 0.64921 0.0
C615 C 0.64428 0.65652 0.69042 0.0
C616 C 0.63521 0.72911 0.66438 0.0
C617 C 0.64195 0.70955 0.68685 0.0
C618 C 0.63078 0.69406 0.64559 0.0
C619 C 0.62866 0.44843 0.6115 0.0
O620 O 0.64519 0.34745 0.65891 0.0
O621 O 0.66216 0.42787 0.66645 0.0
O622 O 0.5896 0.29679 0.66603 0.0
O623 O 0.60368 0.30354 0.62973 0.0
O624 O 0.58688 0.39083 0.68876 0.0
O625 O 0.62184 0.41651 0.68316 0.0
O626 O 0.59055 0.49322 0.65327 0.0
O627 O 0.57847 0.41425 0.63785 0.0
O628 O 0.65609 0.54027 0.66132 0.0
O629 O 0.62291 0.54167 0.68212 0.0
O630 O 0.63786 0.49163 0.61885 0.0
O631 O 0.62112 0.42383 0.62943 0.0
H632 H 0.6149 0.22199 0.68348 0.0
H633 H 0.59173 0.20314 0.61037 0.0
H634 H 0.60194 0.11179 0.612 0.0
H635 H 0.62443 0.13022 0.6855 0.0
H636 H 0.62963 0.61462 0.63453 0.0
H637 H 0.6494 0.64248 0.70793 0.0
H638 H 0.64507 0.73519 0.70183 0.0
H639 H 0.62577 0.70774 0.62801 0.0
H640 H 0.17065 0.27413 0.17392 0.0
H641 H 0.31119 0.25726 0.15337 0.0
H642 H 0.20863 0.13072 0.16452 0.0
H643 H 0.274 0.39981 0.16772 0.0
H644 H 0.2742 0.2102 0.15947 0.0
H645 H 0.20856 0.32003 0.17425 0.0
C646 C 0.187 0.25214 0.17208 0.0
C647 C 0.18646 0.19843 0.1689 0.0
C648 C 0.2741 0.25172 0.16141 0.0
C649 C 0.23001 0.25114 0.16914 0.0
C650 C 0.29526 0.27883 0.15787 0.0
C651 C 0.29574 0.33281 0.15991 0.0
C652 C 0.25311 0.27863 0.1669 0.0
C653 C 0.27447 0.3583 0.16586 0.0
C654 C 0.20867 0.27851 0.1723 0.0
C655 C 0.20822 0.1721 0.16693 0.0
N656 N 0.25396 0.33097 0.16902 0.0
N657 N 0.22915 0.19883 0.16684 0.0
H658 H 0.77185 0.91541 0.16325 0.0
H659 H 0.70607 0.64133 0.16987 0.0
H660 H 0.80822 0.76897 0.15847 0.0
H661 H 0.66883 0.78655 0.16449 0.0
H662 H 0.74402 0.68827 0.1712 0.0
H663 H 0.73404 0.86931 0.16887 0.0
C664 C 0.77192 0.87369 0.16348 0.0
C665 C 0.79319 0.84609 0.16012 0.0
C666 C 0.7275 0.70981 0.16987 0.0
C667 C 0.75015 0.79321 0.16663 0.0
C668 C 0.70586 0.68303 0.1692 0.0
C669 C 0.6843 0.71 0.1668 0.0
C670 C 0.72753 0.76387 0.16821 0.0
C671 C 0.68505 0.76409 0.16606 0.0
C672 C 0.75036 0.84739 0.16668 0.0
C673 C 0.79224 0.79198 0.16069 0.0
N674 N 0.70632 0.78921 0.16662 0.0
N675 N 0.77109 0.76738 0.16379 0.0
H676 H 0.3107 0.77658 0.36635 0.0
H677 H 0.16949 0.75772 0.38256 0.0
H678 H 0.27264 0.63241 0.37302 0.0
H679 H 0.20732 0.90114 0.37218 0.0
H680 H 0.20668 0.71101 0.37659 0.0
H681 H 0.27276 0.82209 0.36558 0.0
C682 C 0.29433 0.75435 0.36751 0.0
C683 C 0.29486 0.70051 0.37004 0.0
C684 C 0.20686 0.75266 0.37549 0.0
C685 C 0.25124 0.75278 0.36926 0.0
C686 C 0.18562 0.77951 0.37898 0.0
C687 C 0.18532 0.83361 0.3781 0.0
C688 C 0.22805 0.77998 0.37119 0.0
C689 C 0.20675 0.85951 0.37314 0.0
C690 C 0.27264 0.7805 0.36703 0.0
C691 C 0.27306 0.6739 0.37114 0.0
N692 N 0.2273 0.83243 0.37003 0.0
N693 N 0.2521 0.7004 0.37098 0.0
H694 H 0.77393 0.14411 0.3672 0.0
H695 H 0.70931 0.41917 0.37403 0.0
H696 H 0.81171 0.28898 0.37242 0.0
H697 H 0.67221 0.27328 0.37775 0.0
H698 H 0.74692 0.37253 0.36832 0.0
H699 H 0.73617 0.19152 0.36565 0.0
C700 C 0.77431 0.18581 0.36779 0.0
C701 C 0.79596 0.21255 0.37021 0.0
C702 C 0.73049 0.35085 0.37029 0.0
C703 C 0.75295 0.26697 0.36855 0.0
C704 C 0.70904 0.37746 0.37353 0.0
C705 C 0.68762 0.35017 0.37665 0.0
C706 C 0.73044 0.29666 0.37006 0.0
C707 C 0.6883 0.29606 0.37573 0.0
C708 C 0.75276 0.21287 0.36698 0.0
C709 C 0.79541 0.26667 0.37083 0.0
N710 N 0.70936 0.27115 0.37262 0.0
N711 N 0.77425 0.29205 0.37016 0.0
H712 H 0.7056 0.64301 0.87123 0.0
H713 H 0.77129 0.91777 0.871 0.0
H714 H 0.66877 0.78804 0.87985 0.0
H715 H 0.80818 0.77171 0.87307 0.0
H716 H 0.73317 0.87125 0.86897 0.0
H717 H 0.7432 0.69021 0.86656 0.0
C718 C 0.70538 0.68471 0.87197 0.0
C719 C 0.68406 0.71153 0.87616 0.0
C720 C 0.74966 0.84951 0.86975 0.0
C721 C 0.72692 0.76574 0.87087 0.0
C722 C 0.7714 0.87604 0.87086 0.0
C723 C 0.79293 0.84866 0.87247 0.0
C724 C 0.74954 0.79532 0.87013 0.0
C725 C 0.79202 0.79454 0.87215 0.0
C726 C 0.72684 0.71165 0.86936 0.0
C727 C 0.68481 0.76565 0.8769 0.0
N728 N 0.77071 0.76972 0.87111 0.0
N729 N 0.7059 0.79094 0.87439 0.0
H730 H 0.27354 0.40338 0.86927 0.0
H731 H 0.20822 0.12872 0.87737 0.0
H732 H 0.31052 0.25879 0.87865 0.0
H733 H 0.17092 0.27437 0.87865 0.0
H734 H 0.246 0.17546 0.87297 0.0
H735 H 0.23559 0.35619 0.86799 0.0
C736 C 0.27373 0.36181 0.87091 0.0
C737 C 0.29526 0.33512 0.8742 0.0
C738 C 0.2295 0.19709 0.87413 0.0
C739 C 0.25203 0.28098 0.87272 0.0
C740 C 0.20794 0.1704 0.87658 0.0
C741 C 0.1864 0.19759 0.87862 0.0
C742 C 0.22945 0.25128 0.87361 0.0
C743 C 0.1871 0.25169 0.87743 0.0
C744 C 0.25208 0.33489 0.87021 0.0
C745 C 0.29441 0.28116 0.87619 0.0
N746 N 0.20827 0.27671 0.87509 0.0
N747 N 0.27318 0.25596 0.87548 0.0
H748 H 0.70853 0.42054 0.66575 0.0
H749 H 0.77436 0.14668 0.66831 0.0
H750 H 0.67175 0.27439 0.67013 0.0
H751 H 0.81054 0.29119 0.65553 0.0
H752 H 0.73701 0.19394 0.67414 0.0
H753 H 0.74673 0.37468 0.66738 0.0
C754 C 0.70847 0.37896 0.6673 0.0
C755 C 0.68694 0.35126 0.66749 0.0
C756 C 0.75318 0.21526 0.67016 0.0
C757 C 0.73042 0.29865 0.66928 0.0
C758 C 0.77448 0.18828 0.66683 0.0
C759 C 0.79553 0.21493 0.66117 0.0
C760 C 0.75298 0.26919 0.66785 0.0
C761 C 0.79468 0.26892 0.65961 0.0
C762 C 0.73026 0.35277 0.66814 0.0
C763 C 0.68791 0.29736 0.66957 0.0
N764 N 0.77374 0.29423 0.66282 0.0
N765 N 0.70927 0.27284 0.67024 0.0
H766 H 0.16889 0.75813 0.66808 0.0
H767 H 0.31039 0.77951 0.65758 0.0
H768 H 0.20724 0.90267 0.66853 0.0
H769 H 0.27302 0.63449 0.66436 0.0
H770 H 0.27294 0.82487 0.66345 0.0
H771 H 0.2068 0.71227 0.66898 0.0
C772 C 0.18531 0.78032 0.66852 0.0
C773 C 0.18492 0.83442 0.66796 0.0
C774 C 0.27289 0.78316 0.66379 0.0
C775 C 0.22844 0.78188 0.66888 0.0
C776 C 0.2943 0.75705 0.66032 0.0
C777 C 0.29484 0.70292 0.66024 0.0
C778 C 0.25172 0.75511 0.66703 0.0
C779 C 0.27341 0.67618 0.66418 0.0
C780 C 0.20696 0.75399 0.66908 0.0
C781 C 0.20673 0.86099 0.66886 0.0
N782 N 0.25265 0.70259 0.66724 0.0
N783 N 0.22764 0.8344 0.66903 0.0
H784 H 0.14349 0.95752 0.32658 0.0
H785 H 0.0655 0.10455 0.22709 0.0
H786 H 0.06679 0.94427 0.32211 0.0
H787 H 0.14181 0.08449 0.22208 0.0
H788 H 0.06546 0.05225 0.26371 0.0
H789 H 0.14318 1.01035 0.29026 0.0
C790 C 0.12657 0.96578 0.31796 0.0
C791 C 0.10514 0.94631 0.32739 0.0
C792 C 0.08222 0.05928 0.25459 0.0
C793 C 0.1046 1.00718 0.28575 0.0
C794 C 0.08225 0.08928 0.23373 0.0
C795 C 0.10368 0.09889 0.22147 0.0
C796 C 0.10384 0.03921 0.2635 0.0
C797 C 0.12486 0.07801 0.2309 0.0
C798 C 0.1264 0.99587 0.29718 0.0
C799 C 0.08375 0.95828 0.31542 0.0
N800 N 0.12441 0.0494 0.25131 0.0
N801 N 0.084 0.98802 0.29533 0.0
H802 H 0.91538 0.10071 0.3138 0.0
H803 H 0.8374 0.96369 0.21129 0.0
H804 H 0.8386 0.08798 0.31686 0.0
H805 H 0.91342 0.94115 0.21839 0.0
H806 H 0.83771 1.01521 0.24805 0.0
H807 H 0.9153 0.04818 0.27725 0.0
C808 C 0.89849 0.08691 0.30676 0.0
C809 C 0.87696 0.09884 0.3184 0.0
C810 C 0.85434 0.99895 0.24164 0.0
C811 C 0.8767 0.03885 0.27639 0.0
C812 C 0.85419 0.96961 0.22059 0.0
C813 C 0.87542 0.94798 0.21174 0.0
C814 C 0.87594 1.00733 0.25394 0.0
C815 C 0.89663 0.95697 0.22459 0.0
C816 C 0.89846 0.05679 0.28592 0.0
C817 C 0.85562 0.07972 0.30849 0.0
N818 N 0.89637 0.98609 0.24494 0.0
N819 N 0.85602 0.05098 0.28804 0.0
H820 H 0.83737 0.09522 0.71243 0.0
H821 H 0.91475 0.95046 0.81283 0.0
H822 H 0.91399 0.10981 0.71756 0.0
H823 H 0.83846 0.97111 0.81773 0.0
H824 H 0.91499 1.003 0.77633 0.0
H825 H 0.83747 0.04384 0.74918 0.0
C826 C 0.85423 0.0876 0.7213 0.0
C827 C 0.87571 0.10697 0.71191 0.0
C828 C 0.8982 0.99613 0.78541 0.0
C829 C 0.87599 0.04775 0.75404 0.0
C830 C 0.89805 0.96604 0.80622 0.0
C831 C 0.87656 0.95636 0.81836 0.0
C832 C 0.87663 1.01624 0.77643 0.0
C833 C 0.85545 0.97761 0.80898 0.0
C834 C 0.85427 0.05835 0.74233 0.0
C835 C 0.89701 0.09584 0.7242 0.0
N836 N 0.856 1.00625 0.78857 0.0
N837 N 0.89663 0.06684 0.74452 0.0
H838 H 0.06522 0.10282 0.82194 0.0
H839 H 0.14249 0.95687 0.72155 0.0
H840 H 0.14149 0.08162 0.82682 0.0
H841 H 0.06582 0.94338 0.72618 0.0
H842 H 0.14239 1.00895 0.75818 0.0
H843 H 0.0649 0.05083 0.78512 0.0
C844 C 0.0819 0.08733 0.81524 0.0
C845 C 0.10341 0.09658 0.8275 0.0
C846 C 0.12557 0.99458 0.75124 0.0
C847 C 0.10323 0.03728 0.78524 0.0
C848 C 0.12561 0.96491 0.73027 0.0
C849 C 0.10413 0.9456 0.72079 0.0
C850 C 0.10384 1.00565 0.76281 0.0
C851 C 0.08281 0.95729 0.7329 0.0
C852 C 0.0817 0.05752 0.79426 0.0
C853 C 0.12449 0.07543 0.818 0.0
N854 N 0.08318 0.98665 0.75318 0.0
N855 N 0.12388 0.04705 0.79746 0.0
H856 H 0.64323 0.46521 0.32628 0.0
H857 H 0.56454 0.59941 0.22391 0.0
H858 H 0.56714 0.44217 0.31994 0.0
H859 H 0.64132 0.58724 0.22061 0.0
H860 H 0.56481 0.54762 0.2606 0.0
H861 H 0.64261 0.51578 0.28937 0.0
C862 C 0.62636 0.4708 0.3171 0.0
C863 C 0.6052 0.44934 0.32621 0.0
C864 C 0.5816 0.55619 0.25184 0.0
C865 C 0.60433 0.50762 0.28384 0.0
C866 C 0.58147 0.58589 0.23093 0.0
C867 C 0.60295 0.59773 0.21917 0.0
C868 C 0.60341 0.53863 0.26132 0.0
C869 C 0.62434 0.57901 0.22905 0.0
C870 C 0.62603 0.49961 0.29597 0.0
C871 C 0.58388 0.45788 0.31352 0.0
N872 N 0.62404 0.55069 0.24955 0.0
N873 N 0.58397 0.4865 0.29307 0.0
H874 H 0.41647 0.60225 0.31274 0.0
H875 H 0.33907 0.45779 0.21167 0.0
H876 H 0.34001 0.58334 0.31671 0.0
H877 H 0.41556 0.44175 0.21726 0.0
H878 H 0.33926 0.51032 0.24815 0.0
H879 H 0.41677 0.54992 0.27603 0.0
C880 C 0.39975 0.58717 0.30586 0.0
C881 C 0.37819 0.59719 0.31784 0.0
C882 C 0.35602 0.49532 0.24145 0.0
C883 C 0.37835 0.53751 0.27568 0.0
C884 C 0.35593 0.46539 0.22056 0.0
C885 C 0.37733 0.44522 0.21139 0.0
C886 C 0.37772 0.50575 0.25327 0.0
C887 C 0.39864 0.45638 0.22372 0.0
C888 C 0.39993 0.55718 0.28494 0.0
C889 C 0.35706 0.57655 0.30811 0.0
N890 N 0.39831 0.48599 0.24393 0.0
N891 N 0.35766 0.54798 0.28763 0.0
H892 H 0.33924 0.46056 0.81813 0.0
H893 H 0.41633 0.60266 0.71665 0.0
H894 H 0.41558 0.44255 0.8119 0.0
H895 H 0.33988 0.58334 0.71251 0.0
H896 H 0.41669 0.55086 0.75341 0.0
H897 H 0.33932 0.51265 0.7816 0.0
C898 C 0.35604 0.46766 0.8091 0.0
C899 C 0.37743 0.44701 0.81809 0.0
C900 C 0.39984 0.55791 0.74445 0.0
C901 C 0.37769 0.50703 0.77617 0.0
C902 C 0.39962 0.58758 0.72349 0.0
C903 C 0.37805 0.59737 0.71146 0.0
C904 C 0.37827 0.53837 0.7537 0.0
C905 C 0.35693 0.57674 0.72115 0.0
C906 C 0.35607 0.49731 0.78818 0.0
C907 C 0.39866 0.45755 0.80559 0.0
N908 N 0.35756 0.54853 0.74169 0.0
N909 N 0.39828 0.4869 0.78536 0.0
H910 H 0.56424 0.6017 0.82189 0.0
H911 H 0.64209 0.4648 0.71962 0.0
H912 H 0.64096 0.58786 0.82518 0.0
H913 H 0.56599 0.4425 0.72603 0.0
H914 H 0.6417 0.51583 0.75648 0.0
H915 H 0.56414 0.54929 0.78526 0.0
C916 C 0.58107 0.5877 0.81488 0.0
C917 C 0.60265 0.59927 0.82661 0.0
C918 C 0.62507 0.49972 0.74991 0.0
C919 C 0.6027 0.53945 0.78455 0.0
C920 C 0.62527 0.47064 0.72881 0.0
C921 C 0.60403 0.44926 0.71971 0.0
C922 C 0.60343 0.50811 0.76205 0.0
C923 C 0.58277 0.45814 0.73242 0.0
C924 C 0.581 0.55764 0.79401 0.0
C925 C 0.62391 0.5799 0.81675 0.0
N926 N 0.58299 0.48705 0.75285 0.0
N927 N 0.62341 0.55126 0.79629 0.0
H928 H 0.16508 0.08166 0.96575 0.0
H929 H 0.09649 0.15864 0.08678 0.0
H930 H 0.09497 0.15003 0.96339 0.0
H931 H 0.1612 0.06946 0.08132 0.0
H932 H 0.09711 0.17033 0.04274 0.0
H933 H 0.16598 0.09334 1.00875 0.0
C934 C 0.14992 0.09988 0.97435 0.0
C935 C 0.12992 0.11473 0.96097 0.0
C936 C 0.11128 0.14883 0.05134 0.0
C937 C 0.13039 0.12691 1.01092 0.0
C938 C 0.11101 0.14246 0.07642 0.0
C939 C 0.1288 0.11286 0.08768 0.0
C940 C 0.12966 0.12602 0.03771 0.0
C941 C 0.14704 0.09227 0.07344 0.0
C942 C 0.15036 0.10635 0.99904 0.0
C943 C 0.1108 0.13831 0.9731 0.0
N944 N 0.14695 0.09914 0.04943 0.0
N945 N 0.11132 0.143 0.99753 0.0
H946 H 0.81293 0.94322 0.95598 0.0
H947 H 0.88493 0.88584 0.07737 0.0
H948 H 0.88666 0.89573 0.95447 0.0
H949 H 0.81657 0.96113 0.07161 0.0
H950 H 0.88451 0.87182 0.03347 0.0
H951 H 0.81217 0.9302 0.99897 0.0
C952 C 0.82889 0.92898 0.96475 0.0
C953 C 0.84983 0.92046 0.95166 0.0
C954 C 0.86948 0.89065 0.04197 0.0
C955 C 0.84951 0.90725 1.00149 0.0
C956 C 0.86965 0.89827 0.06698 0.0
C957 C 0.85075 0.92476 0.07807 0.0
C958 C 0.85011 0.90898 0.02826 0.0
C959 C 0.83155 0.94076 0.06381 0.0
C960 C 0.82854 0.92189 0.98941 0.0
C961 C 0.87007 0.90225 0.96395 0.0
N962 N 0.83177 0.93274 0.03985 0.0
N963 N 0.86955 0.89701 0.98833 0.0
H964 H 0.0919 0.89176 0.46252 0.0
H965 H 0.16905 0.89456 0.58374 0.0
H966 H 0.16882 0.89998 0.46589 0.0
H967 H 0.09198 0.89353 0.58398 0.0
H968 H 0.16861 0.88598 0.54036 0.0
H969 H 0.09081 0.88244 0.50636 0.0
C970 C 0.10855 0.89084 0.47242 0.0
C971 C 0.1305 0.897 0.46053 0.0
C972 C 0.15172 0.88719 0.54977 0.0
C973 C 0.1294 0.88656 0.51062 0.0
C974 C 0.15198 0.89195 0.57464 0.0
C975 C 0.13054 0.8951 0.58754 0.0
C976 C 0.12982 0.88595 0.53741 0.0
C977 C 0.10894 0.89125 0.57474 0.0
C978 C 0.10792 0.88574 0.49745 0.0
C979 C 0.15149 0.89571 0.47428 0.0
N980 N 0.10912 0.88743 0.55034 0.0
N981 N 0.1504 0.89094 0.49846 0.0
H982 H 0.81126 0.15097 0.57423 0.0
H983 H 0.88948 0.1568 0.45403 0.0
H984 H 0.8883 0.15485 0.57538 0.0
H985 H 0.81248 0.15081 0.45636 0.0
H986 H 0.89016 0.1654 0.49793 0.0
H987 H 0.81202 0.16048 0.53091 0.0
C988 C 0.82839 0.15434 0.56534 0.0
C989 C 0.84973 0.15175 0.57847 0.0
C990 C 0.87313 0.16278 0.48878 0.0
C991 C 0.85083 0.16205 0.52843 0.0
C992 C 0.87273 0.15811 0.46372 0.0
C993 C 0.85088 0.15273 0.45152 0.0
C994 C 0.85151 0.16222 0.50166 0.0
C995 C 0.82974 0.15446 0.46499 0.0
C996 C 0.82883 0.15969 0.54052 0.0
C997 C 0.87141 0.15662 0.56595 0.0
N998 N 0.83061 0.15871 0.48921 0.0
N999 N 0.87143 0.16098 0.54159 0.0
H1000 H 0.59099 0.65598 0.08391 0.0
H1001 H 0.66892 0.65219 0.9635 0.0
H1002 H 0.66791 0.64714 0.08138 0.0
H1003 H 0.59186 0.65419 0.96271 0.0
H1004 H 0.66831 0.66127 1.00687 0.0
H1005 H 0.5903 0.66578 0.0401 0.0
C1006 C 0.60773 0.6569 0.0742 0.0
C1007 C 0.62955 0.65036 0.0863 0.0
C1008 C 0.65146 0.66018 0.99733 0.0
C1009 C 0.62891 0.6613 0.03626 0.0
C1010 C 0.65182 0.65511 0.97248 0.0
C1011 C 0.63043 0.65205 0.95945 0.0
C1012 C 0.62951 0.6618 1.00951 0.0
C1013 C 0.60879 0.65634 0.97207 0.0
C1014 C 0.60732 0.66226 0.04919 0.0
C1015 C 0.65068 0.65167 0.07281 0.0
N1016 N 0.60886 0.66043 0.99644 0.0
N1017 N 0.64981 0.65665 0.04863 0.0
H1018 H 0.31506 0.42167 0.95547 0.0
H1019 H 0.38792 0.37906 0.07767 0.0
H1020 H 0.39045 0.38843 0.95506 0.0
H1021 H 0.31647 0.4393 0.07135 0.0
H1022 H 0.38838 0.36439 0.03385 0.0
H1023 H 0.31419 0.4081 0.99847 0.0
C1024 C 0.33139 0.4103 0.96447 0.0
C1025 C 0.35279 0.40589 0.95169 0.0
C1026 C 0.37249 0.37994 0.0422 0.0
C1027 C 0.35227 0.39227 1.00152 0.0
C1028 C 0.37216 0.38788 0.06719 0.0
C1029 C 0.3521 0.41039 0.0781 0.0
C1030 C 0.35248 0.394 0.02832 0.0
C1031 C 0.33232 0.42198 0.06369 0.0
C1032 C 0.33097 0.40294 0.98913 0.0
C1033 C 0.37351 0.39155 0.96429 0.0
N1034 N 0.33305 0.41381 0.03973 0.0
N1035 N 0.37285 0.38603 0.98864 0.0
H1036 H 0.59769 0.38988 0.46008 0.0
H1037 H 0.66576 0.46276 0.58212 0.0
H1038 H 0.66329 0.47611 0.46651 0.0
H1039 H 0.59493 0.39744 0.58326 0.0
H1040 H 0.66718 0.45093 0.53913 0.0
H1041 H 0.59788 0.37732 0.50406 0.0
C1042 C 0.61232 0.40518 0.47064 0.0
C1043 C 0.63048 0.43425 0.45969 0.0
C1044 C 0.6513 0.43859 0.54857 0.0
C1045 C 0.63086 0.42012 0.50958 0.0
C1046 C 0.65056 0.44513 0.57325 0.0
C1047 C 0.63021 0.43119 0.58626 0.0
C1048 C 0.63127 0.41894 0.53636 0.0
C1049 C 0.61103 0.4084 0.57382 0.0
C1050 C 0.61235 0.39833 0.49569 0.0
C1051 C 0.64885 0.45374 0.47417 0.0
N1052 N 0.61185 0.40369 0.54941 0.0
N1053 N 0.64852 0.44644 0.49815 0.0
H1054 H 0.38576 0.66091 0.57674 0.0
H1055 H 0.31546 0.59127 0.45567 0.0
H1056 H 0.31643 0.58914 0.57164 0.0
H1057 H 0.38678 0.6539 0.45376 0.0
H1058 H 0.31423 0.60504 0.49854 0.0
H1059 H 0.38559 0.67227 0.5327 0.0
C1060 C 0.37031 0.64879 0.56646 0.0
C1061 C 0.35107 0.62397 0.57781 0.0
C1062 C 0.33019 0.61642 0.48896 0.0
C1063 C 0.35078 0.63643 0.52778 0.0
C1064 C 0.33082 0.60872 0.46434 0.0
C1065 C 0.35122 0.62141 0.45113 0.0
C1066 C 0.35038 0.63593 0.50096 0.0
C1067 C 0.37062 0.64394 0.46334 0.0
C1068 C 0.37029 0.65488 0.54136 0.0
C1069 C 0.33168 0.60825 0.56367 0.0
N1070 N 0.3699 0.64977 0.4877 0.0
N1071 N 0.3321 0.61454 0.53961 0.0
H1072 H 0.94566 0.90327 0.12662 0.0
H1073 H 0.03529 0.14009 0.13151 0.0
H1074 H 0.92245 0.05889 0.14141 0.0
H1075 H 0.05718 0.98452 0.14804 0.0
H1076 H -0.00566 0.11034 0.12694 0.0
H1077 H 0.98691 0.9329 0.12616 0.0
C1078 C 0.94915 0.94386 0.12951 0.0
C1079 C 0.93049 0.97873 0.1342 0.0
C1080 C 0.00812 0.08274 0.13147 0.0
C1081 C 0.97782 1.0125 0.13364 0.0
C1082 C 0.03158 0.09948 0.13398 0.0
C1083 C 0.04976 0.06465 0.14029 0.0
C1084 C 0.00275 0.0307 0.13498 0.0
C1085 C 0.04373 1.01265 0.14328 0.0
C1086 C 0.97277 0.96052 0.12938 0.0
C1087 C 0.93625 0.03071 0.13784 0.0
N1088 N 0.02064 0.99716 0.14058 0.0
N1089 N 0.95949 0.04609 0.13749 0.0
H1090 H 0.92134 0.99206 0.39337 0.0
H1091 H 0.06042 0.05589 0.39768 0.0
H1092 H 0.94917 0.14579 0.40423 0.0
H1093 H 0.03194 0.9036 0.41056 0.0
H1094 H 0.01962 0.08991 0.39841 0.0
H1095 H 0.96198 0.95822 0.3979 0.0
C1096 C 0.93592 1.01858 0.39685 0.0
C1097 C 0.93188 0.07174 0.39834 0.0
C1098 C 0.02241 0.04911 0.40129 0.0
C1099 C 0.97818 0.03362 0.40329 0.0
C1100 C 0.04566 0.02974 0.40086 0.0
C1101 C 0.04958 0.97689 0.40395 0.0
C1102 C 0.00306 1.01519 0.40452 0.0
C1103 C 0.02979 0.94466 0.40803 0.0
C1104 C 0.95906 0.99932 0.39947 0.0
C1105 C 0.95141 0.10447 0.4029 0.0
N1106 N 0.00736 0.96426 0.40797 0.0
N1107 N 0.97373 0.08491 0.40501 0.0
H1108 H 0.0583 0.98236 0.89812 0.0
H1109 H 0.9215 0.06193 0.89479 0.0
H1110 H 0.03443 0.13674 0.91451 0.0
H1111 H 0.94499 0.9056 0.90713 0.0
H1112 H 0.96294 0.09108 0.89997 0.0
H1113 H 0.01664 0.95333 0.89934 0.0
C1114 C 0.04438 1.00999 0.90219 0.0
C1115 C 0.04986 0.062 0.90612 0.0
C1116 C 0.95885 0.05047 0.90175 0.0
C1117 C 0.00234 0.02939 0.90718 0.0
C1118 C 0.93525 0.03387 0.89876 0.0
C1119 C 0.92976 0.98129 0.90036 0.0
C1120 C 0.97696 1.01409 0.906 0.0
C1121 C 0.94831 0.94655 0.90561 0.0
C1122 C 0.02064 0.99345 0.90291 0.0
C1123 C 0.03108 0.09621 0.91134 0.0
N1124 N 0.9711 0.96351 0.90798 0.0
N1125 N 0.00813 0.07941 0.91144 0.0
H1126 H 0.9489 0.14749 0.62748 0.0
H1127 H 0.03144 0.89934 0.63578 0.0
H1128 H 0.92147 0.99514 0.64231 0.0
H1129 H 0.0585 0.05393 0.64595 0.0
H1130 H -0.00862 0.93376 0.63124 0.0
H1131 H 0.9893 0.11294 0.62719 0.0
C1132 C 0.95131 0.10661 0.63047 0.0
C1133 C 0.93174 0.07409 0.63507 0.0
C1134 C 0.00607 0.96015 0.6344 0.0
C1135 C 0.97803 0.03462 0.63475 0.0
C1136 C 0.02903 0.94067 0.63692 0.0
C1137 C 0.0484 0.9739 0.64137 0.0
C1138 C 0.00239 1.01331 0.63614 0.0
C1139 C 0.04407 0.02698 0.64265 0.0
C1140 C 0.97443 0.08709 0.63041 0.0
C1141 C 0.93603 1.02157 0.63879 0.0
N1142 N 0.02143 0.04514 0.64005 0.0
N1143 N 0.95879 1.00341 0.63859 0.0
H1144 H 0.41988 0.55513 0.13819 0.0
H1145 H 0.55839 0.48975 0.14327 0.0
H1146 H 0.44748 0.4022 0.12505 0.0
H1147 H 0.53114 0.6436 0.13211 0.0
H1148 H 0.51777 0.45608 0.13768 0.0
H1149 H 0.46074 0.58851 0.13681 0.0
C1150 C 0.43446 0.52869 0.13476 0.0
C1151 C 0.43026 0.47581 0.13192 0.0
C1152 C 0.52083 0.49716 0.13625 0.0
C1153 C 0.47693 0.51347 0.13065 0.0
C1154 C 0.54396 0.51633 0.1395 0.0
C1155 C 0.54813 0.5695 0.13832 0.0
C1156 C 0.50188 0.53157 0.1321 0.0
C1157 C 0.52879 0.60229 0.13331 0.0
C1158 C 0.45776 0.54772 0.13397 0.0
C1159 C 0.44985 0.44328 0.12745 0.0
N1160 N 0.50649 0.58283 0.13061 0.0
N1161 N 0.47237 0.46255 0.12725 0.0
H1162 H 0.42284 0.4856 0.39214 0.0
H1163 H 0.5597 0.56503 0.39689 0.0
H1164 H 0.44627 0.64103 0.40736 0.0
H1165 H 0.53558 0.41014 0.41176 0.0
H1166 H 0.51803 0.59397 0.39808 0.0
H1167 H 0.4643 0.4564 0.39669 0.0
C1168 C 0.4366 0.51343 0.39661 0.0
C1169 C 0.43107 0.56578 0.39927 0.0
C1170 C 0.52199 0.55375 0.40131 0.0
C1171 C 0.47829 0.53297 0.40416 0.0
C1172 C 0.54572 0.53727 0.40061 0.0
C1173 C 0.55113 0.48516 0.40417 0.0
C1174 C 0.50364 0.51766 0.40519 0.0
C1175 C 0.53229 0.45076 0.40893 0.0
C1176 C 0.46019 0.4968 0.39924 0.0
C1177 C 0.44962 0.60026 0.4051 0.0
N1178 N 0.50936 0.46752 0.40903 0.0
N1179 N 0.47242 0.58332 0.40709 0.0
H1180 H 0.44782 0.39705 0.90621 0.0
H1181 H 0.53153 0.64424 0.91443 0.0
H1182 H 0.42183 0.55225 0.89602 0.0
H1183 H 0.55818 0.49188 0.89828 0.0
H1184 H 0.49113 0.60971 0.9161 0.0
H1185 H 0.48801 0.43078 0.91164 0.0
C1186 C 0.45046 0.43834 0.9053 0.0
C1187 C 0.43138 0.47193 0.90042 0.0
C1188 C 0.50584 0.58384 0.91234 0.0
C1189 C 0.4775 0.5105 0.90671 0.0
C1190 C 0.52897 0.60336 0.91146 0.0
C1191 C 0.54829 0.57088 0.90598 0.0
C1192 C 0.50198 0.53141 0.90793 0.0
C1193 C 0.5438 0.5183 0.90242 0.0
C1194 C 0.47349 0.45742 0.90834 0.0
C1195 C 0.43601 0.52497 0.89957 0.0
N1196 N 0.52102 0.50015 0.90337 0.0
N1197 N 0.4587 0.54268 0.90262 0.0
H1198 H 0.44627 0.64323 0.62343 0.0
H1199 H 0.53537 0.40615 0.63028 0.0
H1200 H 0.42288 0.48855 0.63997 0.0
H1201 H 0.55762 0.56268 0.64484 0.0
H1202 H 0.49451 0.43581 0.62521 0.0
H1203 H 0.48741 0.61321 0.62244 0.0
C1204 C 0.44969 0.60275 0.62659 0.0
C1205 C 0.43103 0.56832 0.63202 0.0
C1206 C 0.50836 0.46364 0.6294 0.0
C1207 C 0.47822 0.5341 0.63083 0.0
C1208 C 0.53176 0.44694 0.63221 0.0
C1209 C 0.55001 0.48208 0.63814 0.0
C1210 C 0.50311 0.51593 0.63224 0.0
C1211 C 0.54411 0.53431 0.64041 0.0
C1212 C 0.47324 0.58586 0.62614 0.0
C1213 C 0.43669 0.51642 0.63587 0.0
N1214 N 0.52107 0.54973 0.63746 0.0
N1215 N 0.45987 0.50084 0.63526 0.0
H1216 H 0.11079 0.76534 0.13265 0.0
H1217 H 0.14011 0.48675 0.18706 0.0
H1218 H 0.15399 0.74181 0.1957 0.0
H1219 H 0.0974 0.5105 0.1237 0.0
H1220 H 0.14596 0.5799 0.19016 0.0
H1221 H 0.10671 0.67202 0.12841 0.0
C1222 C 0.11958 0.74064 0.14552 0.0
C1223 C 0.1327 0.76174 0.16461 0.0
C1224 C 0.13538 0.56472 0.17553 0.0
C1225 C 0.12782 0.65447 0.16002 0.0
C1226 C 0.13192 0.51147 0.17381 0.0
C1227 C 0.11822 0.4905 0.15509 0.0
C1228 C 0.12503 0.5975 0.15844 0.0
C1229 C 0.10837 0.52464 0.13826 0.0
C1230 C 0.11711 0.68726 0.14316 0.0
C1231 C 0.14337 0.72752 0.18091 0.0
N1232 N 0.11191 0.5763 0.14038 0.0
N1233 N 0.14067 0.67574 0.17825 0.0
H1234 H 0.80884 0.30138 0.15803 0.0
H1235 H 0.89975 0.53199 0.12931 0.0
H1236 H 0.88293 0.27875 0.13925 0.0
H1237 H 0.82589 0.5559 0.14864 0.0
H1238 H 0.89341 0.43918 0.13148 0.0
H1239 H 0.81434 0.3943 0.15365 0.0
C1240 C 0.8263 0.31586 0.15303 0.0
C1241 C 0.84548 0.28191 0.14912 0.0
C1242 C 0.87854 0.46465 0.13518 0.0
C1243 C 0.85183 0.3887 0.14385 0.0
C1244 C 0.8821 0.51783 0.13378 0.0
C1245 C 0.86331 0.55216 0.1387 0.0
C1246 C 0.85601 0.44521 0.14161 0.0
C1247 C 0.84099 0.53113 0.14493 0.0
C1248 C 0.82938 0.36902 0.15041 0.0
C1249 C 0.86754 0.30316 0.14222 0.0
N1250 N 0.83798 0.47912 0.14621 0.0
N1251 N 0.87012 0.35506 0.13991 0.0
H1252 H 0.10927 0.27978 0.35284 0.0
H1253 H 0.12709 0.54017 0.42849 0.0
H1254 H 0.13911 0.28414 0.42402 0.0
H1255 H 0.0982 0.53627 0.35693 0.0
H1256 H 0.13154 0.44653 0.42719 0.0
H1257 H 0.105 0.37348 0.35402 0.0
C1258 C 0.11499 0.30036 0.36871 0.0
C1259 C 0.1246 0.27372 0.38835 0.0
C1260 C 0.12427 0.46613 0.41174 0.0
C1261 C 0.11961 0.38149 0.38986 0.0
C1262 C 0.12163 0.51968 0.4125 0.0
C1263 C 0.1122 0.54641 0.3928 0.0
C1264 C 0.11738 0.43871 0.39115 0.0
C1265 C 0.10582 0.5176 0.37245 0.0
C1266 C 0.11246 0.35396 0.3694 0.0
C1267 C 0.13132 0.3027 0.40856 0.0
N1268 N 0.10845 0.46545 0.37218 0.0
N1269 N 0.12875 0.35486 0.40876 0.0
H1270 H 0.9096 0.51989 0.37466 0.0
H1271 H 0.81762 0.75487 0.38759 0.0
H1272 H 0.83369 0.49983 0.38509 0.0
H1273 H 0.89324 0.77486 0.37533 0.0
H1274 H 0.82324 0.66163 0.3872 0.0
H1275 H 0.90393 0.61308 0.37478 0.0
C1276 C 0.89168 0.53495 0.37678 0.0
C1277 C 0.87208 0.50157 0.37976 0.0
C1278 C 0.83863 0.68636 0.38461 0.0
C1279 C 0.86552 0.60895 0.3803 0.0
C1280 C 0.83546 0.73976 0.385 0.0
C1281 C 0.855 0.77311 0.38161 0.0
C1282 C 0.86151 0.66574 0.3808 0.0
C1283 C 0.8776 0.75089 0.37781 0.0
C1284 C 0.88849 0.58834 0.37701 0.0
C1285 C 0.84939 0.5238 0.38297 0.0
N1286 N 0.88022 0.69873 0.37755 0.0
N1287 N 0.84675 0.57595 0.38314 0.0
H1288 H 0.88638 0.28049 0.88595 0.0
H1289 H 0.82508 0.55953 0.8917 0.0
H1290 H 0.80997 0.30376 0.88519 0.0
H1291 H 0.90137 0.53462 0.89226 0.0
H1292 H 0.819 0.46612 0.89051 0.0
H1293 H 0.89203 0.37336 0.89008 0.0
C1294 C 0.87075 0.30499 0.88691 0.0
C1295 C 0.84765 0.284 0.88517 0.0
C1296 C 0.83707 0.48112 0.891 0.0
C1297 C 0.85403 0.39099 0.88954 0.0
C1298 C 0.84056 0.53452 0.89156 0.0
C1299 C 0.86379 0.55523 0.89212 0.0
C1300 C 0.85694 0.44799 0.8909 0.0
C1301 C 0.88313 0.52066 0.89222 0.0
C1302 C 0.87401 0.35819 0.88909 0.0
C1303 C 0.82813 0.31809 0.8861 0.0
N1304 N 0.87927 0.46895 0.89155 0.0
N1305 N 0.83177 0.36978 0.88817 0.0
H1306 H 0.15152 0.484 0.87909 0.0
H1307 H 0.09923 0.76601 0.90615 0.0
H1308 H 0.08437 0.51167 0.91483 0.0
H1309 H 0.1656 0.73913 0.86888 0.0
H1310 H 0.0943 0.67301 0.9108 0.0
H1311 H 0.15749 0.57713 0.87593 0.0
C1312 C 0.13799 0.50953 0.88623 0.0
C1313 C 0.11741 0.48962 0.89728 0.0
C1314 C 0.10997 0.68743 0.90163 0.0
C1315 C 0.12427 0.5967 0.8939 0.0
C1316 C 0.11289 0.74067 0.8991 0.0
C1317 C 0.13285 0.76074 0.88704 0.0
C1318 C 0.12713 0.65368 0.89206 0.0
C1319 C 0.14973 0.72562 0.87799 0.0
C1320 C 0.14148 0.5628 0.88453 0.0
C1321 C 0.1007 0.52493 0.90649 0.0
N1322 N 0.14648 0.67398 0.88066 0.0
N1323 N 0.10448 0.57654 0.90456 0.0
H1324 H 0.82962 0.75967 0.67907 0.0
H1325 H 0.89595 0.52038 0.61736 0.0
H1326 H 0.8821 0.7755 0.62304 0.0
H1327 H 0.84352 0.50414 0.67341 0.0
H1328 H 0.89089 0.61367 0.61906 0.0
H1329 H 0.83471 0.6663 0.67752 0.0
C1330 C 0.84238 0.74364 0.66656 0.0
C1331 C 0.85552 0.77582 0.65121 0.0
C1332 C 0.88046 0.58975 0.63098 0.0
C1333 C 0.86116 0.66835 0.64911 0.0
C1334 C 0.88321 0.53631 0.62991 0.0
C1335 C 0.87006 0.50402 0.64519 0.0
C1336 C 0.86446 0.61148 0.64748 0.0
C1337 C 0.85422 0.52732 0.66143 0.0
C1338 C 0.84514 0.69017 0.66558 0.0
C1339 C 0.87139 0.75242 0.63505 0.0
N1340 N 0.85185 0.57951 0.66212 0.0
N1341 N 0.87377 0.70024 0.63444 0.0
H1342 H 0.13645 0.2812 0.6228 0.0
H1343 H 0.09828 0.53761 0.6934 0.0
H1344 H 0.1098 0.28109 0.69518 0.0
H1345 H 0.12451 0.53713 0.62087 0.0
H1346 H 0.10298 0.444 0.69466 0.0
H1347 H 0.132 0.37478 0.62175 0.0
C1348 C 0.12944 0.30072 0.63841 0.0
C1349 C 0.12346 0.27293 0.6591 0.0
C1350 C 0.10775 0.46437 0.67848 0.0
C1351 C 0.11865 0.38069 0.65813 0.0
C1352 C 0.10525 0.51796 0.6778 0.0
C1353 C 0.11099 0.54554 0.65698 0.0
C1354 C 0.1161 0.43787 0.65821 0.0
C1355 C 0.11955 0.5176 0.63721 0.0
C1356 C 0.12708 0.35432 0.63786 0.0
C1357 C 0.11491 0.30076 0.67892 0.0
N1358 N 0.12182 0.46547 0.63831 0.0
N1359 N 0.11276 0.35295 0.67794 0.0
H1360 H 0.6308 1.00069 0.18848 0.0
H1361 H 0.60276 0.26961 0.12382 0.0
H1362 H 0.59165 1.01335 0.1222 0.0
H1363 H 0.6428 0.25679 0.18956 0.0
H1364 H 0.59856 0.17586 0.12288 0.0
H1365 H 0.63526 0.09441 0.18927 0.0
C1366 C 0.62309 1.02312 0.17411 0.0
C1367 C 0.61084 0.99887 0.15523 0.0
C1368 C 0.60824 0.19356 0.13754 0.0
C1369 C 0.616 0.1065 0.15596 0.0
C1370 C 0.61074 0.24715 0.13803 0.0
C1371 C 0.62314 0.27138 0.15682 0.0
C1372 C 0.61823 0.16369 0.15594 0.0
C1373 C 0.63278 0.24008 0.1749 0.0
C1374 C 0.62573 0.07668 0.17452 0.0
C1375 C 0.60153 0.0301 0.13694 0.0
N1376 N 0.63015 0.188 0.17399 0.0
N1377 N 0.60426 0.08216 0.1378 0.0
H1378 H 0.35823 0.77252 0.11281 0.0
H1379 H 0.35338 0.04593 0.18 0.0
H1380 H 0.33613 0.79211 0.18616 0.0
H1381 H 0.37287 0.02863 0.10577 0.0
H1382 H 0.34633 0.95325 0.18223 0.0
H1383 H 0.36373 0.86591 0.10974 0.0
C1384 C 0.3546 0.79633 0.1283 0.0
C1385 C 0.34663 0.77412 0.14977 0.0
C1386 C 0.35208 0.96969 0.16541 0.0
C1387 C 0.35275 0.88148 0.1463 0.0
C1388 C 0.35594 1.02285 0.16406 0.0
C1389 C 0.36376 0.04555 0.14265 0.0
C1390 C 0.35606 0.93852 0.14523 0.0
C1391 C 0.36719 1.01304 0.12277 0.0
C1392 C 0.35762 0.84977 0.12649 0.0
C1393 C 0.34194 0.80729 0.16912 0.0
N1394 N 0.36337 0.96134 0.12456 0.0
N1395 N 0.34511 0.85906 0.16694 0.0
H1396 H 0.5823 0.03639 0.41113 0.0
H1397 H 0.67024 0.80724 0.37248 0.0
H1398 H 0.65318 0.06161 0.38302 0.0
H1399 H 0.59904 0.78313 0.39999 0.0
H1400 H 0.66472 0.90015 0.37691 0.0
H1401 H 0.58865 0.94366 0.4082 0.0
C1402 C 0.59931 1.02254 0.40453 0.0
C1403 C 0.61727 0.05724 0.39742 0.0
C1404 C 0.65032 0.87456 0.38204 0.0
C1405 C 0.62454 0.95035 0.39366 0.0
C1406 C 0.6534 0.82138 0.3794 0.0
C1407 C 0.63504 0.78698 0.38577 0.0
C1408 C 0.6287 0.89384 0.39112 0.0
C1409 C 0.61381 0.80787 0.39507 0.0
C1410 C 0.60286 0.9694 0.40271 0.0
C1411 C 0.63872 0.03658 0.38851 0.0
N1412 N 0.61121 0.85979 0.39738 0.0
N1413 N 0.64175 0.98461 0.3869 0.0
H1414 H 0.38781 1.01225 0.41511 0.0
H1415 H 0.32102 0.24372 0.3481 0.0
H1416 H 0.33657 0.98978 0.35822 0.0
H1417 H 0.37245 0.26636 0.40478 0.0
H1418 H 0.32561 0.15068 0.35238 0.0
H1419 H 0.38117 0.10502 0.41274 0.0
C1420 C 0.37497 0.02666 0.40226 0.0
C1421 C 0.36273 0.99282 0.38685 0.0
C1422 C 0.33586 0.17595 0.36394 0.0
C1423 C 0.35533 0.09964 0.38378 0.0
C1424 C 0.33335 0.2292 0.36142 0.0
C1425 C 0.34648 0.2632 0.376 0.0
C1426 C 0.35163 0.15617 0.38117 0.0
C1427 C 0.3618 0.24183 0.39327 0.0
C1428 C 0.37132 0.07982 0.40081 0.0
C1429 C 0.34666 1.01421 0.37027 0.0
N1430 N 0.36401 0.1898 0.3953 0.0
N1431 N 0.34347 0.06613 0.36916 0.0
H1432 H 0.36401 0.77237 0.91763 0.0
H1433 H 0.34812 0.04522 0.85249 0.0
H1434 H 0.33107 0.79156 0.8484 0.0
H1435 H 0.37834 0.02875 0.92312 0.0
H1436 H 0.34093 0.95256 0.85128 0.0
H1437 H 0.36927 0.86591 0.92026 0.0
C1438 C 0.35793 0.79614 0.90296 0.0
C1439 C 0.34703 0.77381 0.88278 0.0
C1440 C 0.34906 0.96917 0.8671 0.0
C1441 C 0.35285 0.88122 0.88576 0.0
C1442 C 0.35301 1.02232 0.86789 0.0
C1443 C 0.36387 0.04521 0.88795 0.0
C1444 C 0.35606 0.93823 0.88646 0.0
C1445 C 0.37023 1.01296 0.90713 0.0
C1446 C 0.36081 0.84964 0.90454 0.0
C1447 C 0.33924 0.80686 0.86447 0.0
N1448 N 0.36629 0.96124 0.90588 0.0
N1449 N 0.34235 0.85867 0.86638 0.0
H1450 H 0.63023 0.2628 0.9286 0.0
H1451 H 0.60216 1.01011 0.85049 0.0
H1452 H 0.61616 0.26615 0.85273 0.0
H1453 H 0.61868 1.00659 0.92585 0.0
H1454 H 0.60681 0.10381 0.851 0.0
H1455 H 0.62562 0.16918 0.92799 0.0
C1456 C 0.62622 0.24392 0.91178 0.0
C1457 C 0.62365 0.27269 0.89067 0.0
C1458 C 0.60947 0.08256 0.86742 0.0
C1459 C 0.61817 0.165 0.88988 0.0
C1460 C 0.60673 0.02898 0.86717 0.0
C1461 C 0.61 1.00018 0.88817 0.0
C1462 C 0.61545 0.10786 0.88886 0.0
C1463 C 0.61627 0.02693 0.90915 0.0
C1464 C 0.6235 0.19036 0.91147 0.0
C1465 C 0.61803 0.24587 0.86951 0.0
N1466 N 0.6187 0.07912 0.90897 0.0
N1467 N 0.61555 0.19368 0.86966 0.0
H1468 H 0.3259 0.99009 0.64165 0.0
H1469 H 0.38689 0.27019 0.64343 0.0
H1470 H 0.40188 1.01621 0.63546 0.0
H1471 H 0.31075 0.2458 0.64917 0.0
H1472 H 0.39243 0.17736 0.63907 0.0
H1473 H 0.31976 0.08341 0.64364 0.0
C1474 C 0.34131 1.01533 0.64074 0.0
C1475 C 0.36446 0.99497 0.63833 0.0
C1476 C 0.37449 0.19227 0.64121 0.0
C1477 C 0.35751 0.10216 0.64045 0.0
C1478 C 0.37128 0.24546 0.64353 0.0
C1479 C 0.3483 0.26617 0.64672 0.0
C1480 C 0.3546 0.15917 0.64208 0.0
C1481 C 0.32884 0.23174 0.64712 0.0
C1482 C 0.33777 0.06869 0.64175 0.0
C1483 C 0.38367 0.02987 0.63693 0.0
N1484 N 0.33243 0.18008 0.64488 0.0
N1485 N 0.37977 0.08153 0.63807 0.0
H1486 H 0.60089 0.78063 0.63855 0.0
H1487 H 0.65036 0.06214 0.67185 0.0
H1488 H 0.66357 0.80709 0.68202 0.0
H1489 H 0.5867 0.03493 0.62992 0.0
H1490 H 0.65612 0.969 0.67498 0.0
H1491 H 0.59638 0.87369 0.63389 0.0
C1492 C 0.61383 0.80592 0.64697 0.0
C1493 C 0.63261 0.78576 0.66077 0.0
C1494 C 0.64094 0.98343 0.66503 0.0
C1495 C 0.62736 0.89277 0.65573 0.0
C1496 C 0.63755 0.03669 0.66333 0.0
C1497 C 0.61801 0.05668 0.65057 0.0
C1498 C 0.62465 0.94969 0.65392 0.0
C1499 C 0.60223 1.02155 0.63964 0.0
C1500 C 0.61115 0.85916 0.64443 0.0
C1501 C 0.6486 0.82072 0.67152 0.0
N1502 N 0.60587 0.96995 0.6416 0.0
N1503 N 0.64559 0.87238 0.6688 0.0
loop_
_geom_bond_atom_site_label_1
_geom_bond_atom_site_label_2
_geom_bond_distance
_geom_bond_site_symmetry_2
_ccdc_geom_bond_type
Gd0 C3 2.818 1_545 S
Gd0 O20 2.377 . S
Gd0 O22 2.448 1_545 S
Gd0 O23 2.506 1_545 S
Gd0 O24 2.435 . S
Gd0 O25 2.717 . S
Gd0 O27 2.395 . S
Gd0 O31 2.327 . S
Gd1 C12 2.818 . S
Gd1 O21 2.395 . S
Gd1 O25 2.327 . S
Gd1 O26 2.377 . S
Gd1 O28 2.448 . S
Gd1 O29 2.506 . S
Gd1 O30 2.435 . S
Gd1 O31 2.717 . S
C2 O20 1.240 . S
C2 O21 1.240 . S
C3 Gd0 2.818 1_565 S
C3 C4 1.510 . S
C3 O22 1.249 . S
C3 O23 1.252 . S
C4 C3 1.510 . S
C4 C5 1.404 . S
C4 C6 1.352 . S
C5 C4 1.404 . S
C5 C9 1.389 . S
C5 H32 0.930 . S
C6 C4 1.352 . S
C6 C8 1.374 . S
C6 H33 0.931 . S
C7 C8 1.359 . S
C7 C9 1.364 . S
C8 C6 1.374 . S
C8 C7 1.359 . S
C8 H34 0.931 . S
C9 C5 1.389 . S
C9 C7 1.364 . S
C9 H35 0.931 . S
C10 O24 1.256 . S
C10 O25 1.257 . S
C11 O26 1.240 . S
C11 O27 1.240 . S
C12 Gd1 2.818 . S
C12 C13 1.510 . S
C12 O28 1.249 . S
C12 O29 1.252 . S
C13 C12 1.510 . S
C13 C14 1.404 . S
C13 C15 1.352 . S
C14 C13 1.404 . S
C14 C18 1.389 . S
C14 H36 0.930 . S
C15 C13 1.352 . S
C15 C17 1.374 . S
C15 H37 0.931 . S
C16 C17 1.359 . S
C16 C18 1.364 . S
C17 C15 1.374 . S
C17 C16 1.359 . S
C17 H38 0.931 . S
C18 C14 1.389 . S
C18 C16 1.364 . S
C18 H39 0.931 . S
C19 O30 1.256 . S
C19 O31 1.257 . S
O20 Gd0 2.377 . S
O20 C2 1.240 . S
O21 Gd1 2.395 . S
O21 C2 1.240 . S
O22 Gd0 2.448 1_565 S
O22 C3 1.249 . S
O23 Gd0 2.506 1_565 S
O23 C3 1.252 . S
O24 Gd0 2.435 . S
O24 C10 1.256 . S
O25 Gd0 2.717 . S
O25 Gd1 2.327 . S
O25 C10 1.257 . S
O26 Gd1 2.377 . S
O26 C11 1.240 . S
O27 Gd0 2.395 . S
O27 C11 1.240 . S
O28 Gd1 2.448 . S
O28 C12 1.249 . S
O29 Gd1 2.506 . S
O29 C12 1.252 . S
O30 Gd1 2.435 . S
O30 C19 1.256 . S
O31 Gd0 2.327 . S
O31 Gd1 2.717 . S
O31 C19 1.257 . S
H32 C5 0.930 . S
H33 C6 0.931 . S
H34 C8 0.931 . S
H35 C9 0.931 . S
H36 C14 0.930 . S
H37 C15 0.931 . S
H38 C17 0.931 . S
H39 C18 0.931 . S
Gd40 C43 2.818 1_565 S
Gd40 O60 2.377 . S
Gd40 O62 2.448 1_565 S
Gd40 O63 2.506 1_565 S
Gd40 O64 2.435 . S
Gd40 O65 2.717 . S
Gd40 O67 2.395 . S
Gd40 O71 2.327 . S
Gd41 C52 2.818 . S
Gd41 O61 2.395 . S
Gd41 O65 2.327 . S
Gd41 O66 2.377 . S
Gd41 O68 2.448 . S
Gd41 O69 2.506 . S
Gd41 O70 2.435 . S
Gd41 O71 2.717 . S
C42 O60 1.240 . S
C42 O61 1.240 . S
C43 Gd40 2.818 1_545 S
C43 C44 1.510 . S
C43 O62 1.249 . S
C43 O63 1.252 . S
C44 C43 1.510 . S
C44 C45 1.404 . S
C44 C46 1.352 . S
C45 C44 1.404 . S
C45 C49 1.389 . S
C45 H72 0.930 . S
C46 C44 1.352 . S
C46 C48 1.374 . S
C46 H73 0.931 . S
C47 C48 1.359 . S
C47 C49 1.364 . S
C48 C46 1.374 . S
C48 C47 1.359 . S
C48 H74 0.931 . S
C49 C45 1.389 . S
C49 C47 1.364 . S
C49 H75 0.931 . S
C50 O64 1.256 . S
C50 O65 1.257 . S
C51 O66 1.240 . S
C51 O67 1.240 . S
C52 Gd41 2.818 . S
C52 C53 1.510 . S
C52 O68 1.249 . S
C52 O69 1.252 . S
C53 C52 1.510 . S
C53 C54 1.404 . S
C53 C55 1.352 . S
C54 C53 1.404 . S
C54 C58 1.389 . S
C54 H76 0.930 . S
C55 C53 1.352 . S
C55 C57 1.374 . S
C55 H77 0.931 . S
C56 C57 1.359 . S
C56 C58 1.364 . S
C57 C55 1.374 . S
C57 C56 1.359 . S
C57 H78 0.931 . S
C58 C54 1.389 . S
C58 C56 1.364 . S
C58 H79 0.931 . S
C59 O70 1.256 . S
C59 O71 1.257 . S
O60 Gd40 2.377 . S
O60 C42 1.240 . S
O61 Gd41 2.395 . S
O61 C42 1.240 . S
O62 Gd40 2.448 1_545 S
O62 C43 1.249 . S
O63 Gd40 2.506 1_545 S
O63 C43 1.252 . S
O64 Gd40 2.435 . S
O64 C50 1.256 . S
O65 Gd40 2.717 . S
O65 Gd41 2.327 . S
O65 C50 1.257 . S
O66 Gd41 2.377 . S
O66 C51 1.240 . S
O67 Gd40 2.395 . S
O67 C51 1.240 . S
O68 Gd41 2.448 . S
O68 C52 1.249 . S
O69 Gd41 2.506 . S
O69 C52 1.252 . S
O70 Gd41 2.435 . S
O70 C59 1.256 . S
O71 Gd40 2.327 . S
O71 Gd41 2.717 . S
O71 C59 1.257 . S
H72 C45 0.930 . S
H73 C46 0.931 . S
H74 C48 0.931 . S
H75 C49 0.931 . S
H76 C54 0.930 . S
H77 C55 0.931 . S
H78 C57 0.931 . S
H79 C58 0.931 . S
Gd80 C83 2.818 1_565 S
Gd80 O100 2.377 . S
Gd80 O102 2.448 1_565 S
Gd80 O103 2.506 1_565 S
Gd80 O104 2.435 . S
Gd80 O105 2.717 . S
Gd80 O107 2.395 . S
Gd80 O111 2.327 . S
Gd81 C92 2.818 . S
Gd81 O101 2.395 . S
Gd81 O105 2.327 . S
Gd81 O106 2.377 . S
Gd81 O108 2.448 . S
Gd81 O109 2.506 . S
Gd81 O110 2.435 . S
Gd81 O111 2.717 . S
C82 O100 1.240 . S
C82 O101 1.240 . S
C83 Gd80 2.818 1_545 S
C83 C84 1.510 . S
C83 O102 1.249 . S
C83 O103 1.252 . S
C84 C83 1.510 . S
C84 C85 1.404 . S
C84 C86 1.352 . S
C85 C84 1.404 . S
C85 C89 1.389 . S
C85 H112 0.930 . S
C86 C84 1.352 . S
C86 C88 1.374 . S
C86 H113 0.931 . S
C87 C88 1.359 . S
C87 C89 1.364 . S
C88 C86 1.374 . S
C88 C87 1.359 . S
C88 H114 0.931 . S
C89 C85 1.389 . S
C89 C87 1.364 . S
C89 H115 0.931 . S
C90 O104 1.256 . S
C90 O105 1.257 . S
C91 O106 1.240 . S
C91 O107 1.240 . S
C92 Gd81 2.818 . S
C92 C93 1.510 . S
C92 O108 1.249 . S
C92 O109 1.252 . S
C93 C92 1.510 . S
C93 C94 1.404 . S
C93 C95 1.352 . S
C94 C93 1.404 . S
C94 C98 1.389 . S
C94 H116 0.930 . S
C95 C93 1.352 . S
C95 C97 1.374 . S
C95 H117 0.931 . S
C96 C97 1.359 . S
C96 C98 1.364 . S
C97 C95 1.374 . S
C97 C96 1.359 . S
C97 H118 0.931 . S
C98 C94 1.389 . S
C98 C96 1.364 . S
C98 H119 0.931 . S
C99 O110 1.256 . S
C99 O111 1.257 . S
O100 Gd80 2.377 . S
O100 C82 1.240 . S
O101 Gd81 2.395 . S
O101 C82 1.240 . S
O102 Gd80 2.448 1_545 S
O102 C83 1.249 . S
O103 Gd80 2.506 1_545 S
O103 C83 1.252 . S
O104 Gd80 2.435 . S
O104 C90 1.256 . S
O105 Gd80 2.717 . S
O105 Gd81 2.327 . S
O105 C90 1.257 . S
O106 Gd81 2.377 . S
O106 C91 1.240 . S
O107 Gd80 2.395 . S
O107 C91 1.240 . S
O108 Gd81 2.448 . S
O108 C92 1.249 . S
O109 Gd81 2.506 . S
O109 C92 1.252 . S
O110 Gd81 2.435 . S
O110 C99 1.256 . S
O111 Gd80 2.327 . S
O111 Gd81 2.717 . S
O111 C99 1.257 . S
H112 C85 0.930 . S
H113 C86 0.931 . S
H114 C88 0.931 . S
H115 C89 0.931 . S
H116 C94 0.930 . S
H117 C95 0.931 . S
H118 C97 0.931 . S
H119 C98 0.931 . S
Gd120 C123 2.818 1_545 S
Gd120 O140 2.377 . S
Gd120 O142 2.448 1_545 S
Gd120 O143 2.506 1_545 S
Gd120 O144 2.435 . S
Gd120 O145 2.717 . S
Gd120 O147 2.395 . S
Gd120 O151 2.327 . S
Gd121 C132 2.818 . S
Gd121 O141 2.395 . S
Gd121 O145 2.327 . S
Gd121 O146 2.377 . S
Gd121 O148 2.448 . S
Gd121 O149 2.506 . S
Gd121 O150 2.435 . S
Gd121 O151 2.717 . S
C122 O140 1.240 . S
C122 O141 1.240 . S
C123 Gd120 2.818 1_565 S
C123 C124 1.510 . S
C123 O142 1.249 . S
C123 O143 1.252 . S
C124 C123 1.510 . S
C124 C125 1.404 . S
C124 C126 1.352 . S
C125 C124 1.404 . S
C125 C129 1.389 . S
C125 H152 0.930 . S
C126 C124 1.352 . S
C126 C128 1.374 . S
C126 H153 0.931 . S
C127 C128 1.359 . S
C127 C129 1.364 . S
C128 C126 1.374 . S
C128 C127 1.359 . S
C128 H154 0.931 . S
C129 C125 1.389 . S
C129 C127 1.364 . S
C129 H155 0.931 . S
C130 O144 1.256 . S
C130 O145 1.257 . S
C131 O146 1.240 . S
C131 O147 1.240 . S
C132 Gd121 2.818 . S
C132 C133 1.510 . S
C132 O148 1.249 . S
C132 O149 1.252 . S
C133 C132 1.510 . S
C133 C134 1.404 . S
C133 C135 1.352 . S
C134 C133 1.404 . S
C134 C138 1.389 . S
C134 H156 0.930 . S
C135 C133 1.352 . S
C135 C137 1.374 . S
C135 H157 0.931 . S
C136 C137 1.359 . S
C136 C138 1.364 . S
C137 C135 1.374 . S
C137 C136 1.359 . S
C137 H158 0.931 . S
C138 C134 1.389 . S
C138 C136 1.364 . S
C138 H159 0.931 . S
C139 O150 1.256 . S
C139 O151 1.257 . S
O140 Gd120 2.377 . S
O140 C122 1.240 . S
O141 Gd121 2.395 . S
O141 C122 1.240 . S
O142 Gd120 2.448 1_565 S
O142 C123 1.249 . S
O143 Gd120 2.506 1_565 S
O143 C123 1.252 . S
O144 Gd120 2.435 . S
O144 C130 1.256 . S
O145 Gd120 2.717 . S
O145 Gd121 2.327 . S
O145 C130 1.257 . S
O146 Gd121 2.377 . S
O146 C131 1.240 . S
O147 Gd120 2.395 . S
O147 C131 1.240 . S
O148 Gd121 2.448 . S
O148 C132 1.249 . S
O149 Gd121 2.506 . S
O149 C132 1.252 . S
O150 Gd121 2.435 . S
O150 C139 1.256 . S
O151 Gd120 2.327 . S
O151 Gd121 2.717 . S
O151 C139 1.257 . S
H152 C125 0.930 . S
H153 C126 0.931 . S
H154 C128 0.931 . S
H155 C129 0.931 . S
H156 C134 0.930 . S
H157 C135 0.931 . S
H158 C137 0.931 . S
H159 C138 0.931 . S
Gd160 C163 2.818 . S
Gd160 O180 2.377 . S
Gd160 O182 2.448 . S
Gd160 O183 2.506 . S
Gd160 O184 2.435 . S
Gd160 O185 2.717 . S
Gd160 O187 2.395 . S
Gd160 O191 2.327 . S
Gd161 C172 2.818 1_565 S
Gd161 O181 2.395 . S
Gd161 O185 2.327 . S
Gd161 O186 2.377 . S
Gd161 O188 2.448 1_565 S
Gd161 O189 2.506 1_565 S
Gd161 O190 2.435 . S
Gd161 O191 2.717 . S
C162 O180 1.240 . S
C162 O181 1.240 . S
C163 Gd160 2.818 . S
C163 C164 1.510 . S
C163 O182 1.249 . S
C163 O183 1.252 . S
C164 C163 1.510 . S
C164 C165 1.404 . S
C164 C166 1.352 . S
C165 C164 1.404 . S
C165 C169 1.389 . S
C165 H192 0.930 . S
C166 C164 1.352 . S
C166 C168 1.374 . S
C166 H193 0.931 . S
C167 C168 1.359 . S
C167 C169 1.364 . S
C168 C166 1.374 . S
C168 C167 1.359 . S
C168 H194 0.931 . S
C169 C165 1.389 . S
C169 C167 1.364 . S
C169 H195 0.931 . S
C170 O184 1.256 . S
C170 O185 1.257 . S
C171 O186 1.240 . S
C171 O187 1.240 . S
C172 Gd161 2.818 1_545 S
C172 C173 1.510 . S
C172 O188 1.249 . S
C172 O189 1.252 . S
C173 C172 1.510 . S
C173 C174 1.404 . S
C173 C175 1.352 . S
C174 C173 1.404 . S
C174 C178 1.389 . S
C174 H196 0.930 . S
C175 C173 1.352 . S
C175 C177 1.374 . S
C175 H197 0.931 . S
C176 C177 1.359 . S
C176 C178 1.364 . S
C177 C175 1.374 . S
C177 C176 1.359 . S
C177 H198 0.931 . S
C178 C174 1.389 . S
C178 C176 1.364 . S
C178 H199 0.931 . S
C179 O190 1.256 . S
C179 O191 1.257 . S
O180 Gd160 2.377 . S
O180 C162 1.240 . S
O181 Gd161 2.395 . S
O181 C162 1.240 . S
O182 Gd160 2.448 . S
O182 C163 1.249 . S
O183 Gd160 2.506 . S
O183 C163 1.252 . S
O184 Gd160 2.435 . S
O184 C170 1.256 . S
O185 Gd160 2.717 . S
O185 Gd161 2.327 . S
O185 C170 1.257 . S
O186 Gd161 2.377 . S
O186 C171 1.240 . S
O187 Gd160 2.395 . S
O187 C171 1.240 . S
O188 Gd161 2.448 1_545 S
O188 C172 1.249 . S
O189 Gd161 2.506 1_545 S
O189 C172 1.252 . S
O190 Gd161 2.435 . S
O190 C179 1.256 . S
O191 Gd160 2.327 . S
O191 Gd161 2.717 . S
O191 C179 1.257 . S
H192 C165 0.930 . S
H193 C166 0.931 . S
H194 C168 0.931 . S
H195 C169 0.931 . S
H196 C174 0.930 . S
H197 C175 0.931 . S
H198 C177 0.931 . S
H199 C178 0.931 . S
Gd200 C203 2.818 . S
Gd200 O220 2.377 . S
Gd200 O222 2.448 . S
Gd200 O223 2.506 . S
Gd200 O224 2.435 . S
Gd200 O225 2.717 . S
Gd200 O227 2.395 . S
Gd200 O231 2.327 . S
Gd201 C212 2.818 1_545 S
Gd201 O221 2.395 . S
Gd201 O225 2.327 . S
Gd201 O226 2.377 . S
Gd201 O228 2.448 1_545 S
Gd201 O229 2.506 1_545 S
Gd201 O230 2.435 . S
Gd201 O231 2.717 . S
C202 O220 1.240 . S
C202 O221 1.240 . S
C203 Gd200 2.818 . S
C203 C204 1.510 . S
C203 O222 1.249 . S
C203 O223 1.252 . S
C204 C203 1.510 . S
C204 C205 1.404 . S
C204 C206 1.352 . S
C205 C204 1.404 . S
C205 C209 1.389 . S
C205 H232 0.930 . S
C206 C204 1.352 . S
C206 C208 1.374 . S
C206 H233 0.931 . S
C207 C208 1.359 . S
C207 C209 1.364 . S
C208 C206 1.374 . S
C208 C207 1.359 . S
C208 H234 0.931 . S
C209 C205 1.389 . S
C209 C207 1.364 . S
C209 H235 0.931 . S
C210 O224 1.256 . S
C210 O225 1.257 . S
C211 O226 1.240 . S
C211 O227 1.240 . S
C212 Gd201 2.818 1_565 S
C212 C213 1.510 . S
C212 O228 1.249 . S
C212 O229 1.252 . S
C213 C212 1.510 . S
C213 C214 1.404 . S
C213 C215 1.352 . S
C214 C213 1.404 . S
C214 C218 1.389 . S
C214 H236 0.930 . S
C215 C213 1.352 . S
C215 C217 1.374 . S
C215 H237 0.931 . S
C216 C217 1.359 . S
C216 C218 1.364 . S
C217 C215 1.374 . S
C217 C216 1.359 . S
C217 H238 0.931 . S
C218 C214 1.389 . S
C218 C216 1.364 . S
C218 H239 0.931 . S
C219 O230 1.256 . S
C219 O231 1.257 . S
O220 Gd200 2.377 . S
O220 C202 1.240 . S
O221 Gd201 2.395 . S
O221 C202 1.240 . S
O222 Gd200 2.448 . S
O222 C203 1.249 . S
O223 Gd200 2.506 . S
O223 C203 1.252 . S
O224 Gd200 2.435 . S
O224 C210 1.256 . S
O225 Gd200 2.717 . S
O225 Gd201 2.327 . S
O225 C210 1.257 . S
O226 Gd201 2.377 . S
O226 C211 1.240 . S
O227 Gd200 2.395 . S
O227 C211 1.240 . S
O228 Gd201 2.448 1_565 S
O228 C212 1.249 . S
O229 Gd201 2.506 1_565 S
O229 C212 1.252 . S
O230 Gd201 2.435 . S
O230 C219 1.256 . S
O231 Gd200 2.327 . S
O231 Gd201 2.717 . S
O231 C219 1.257 . S
H232 C205 0.930 . S
H233 C206 0.931 . S
H234 C208 0.931 . S
H235 C209 0.931 . S
H236 C214 0.930 . S
H237 C215 0.931 . S
H238 C217 0.931 . S
H239 C218 0.931 . S
Gd240 C243 2.818 . S
Gd240 O260 2.377 . S
Gd240 O262 2.448 . S
Gd240 O263 2.506 . S
Gd240 O264 2.435 . S
Gd240 O265 2.717 . S
Gd240 O267 2.395 . S
Gd240 O271 2.327 . S
Gd241 C252 2.818 1_545 S
Gd241 O261 2.395 . S
Gd241 O265 2.327 . S
Gd241 O266 2.377 . S
Gd241 O268 2.448 1_545 S
Gd241 O269 2.506 1_545 S
Gd241 O270 2.435 . S
Gd241 O271 2.717 . S
C242 O260 1.240 . S
C242 O261 1.240 . S
C243 Gd240 2.818 . S
C243 C244 1.510 . S
C243 O262 1.249 . S
C243 O263 1.252 . S
C244 C243 1.510 . S
C244 C245 1.404 . S
C244 C246 1.352 . S
C245 C244 1.404 . S
C245 C249 1.389 . S
C245 H272 0.930 . S
C246 C244 1.352 . S
C246 C248 1.374 . S
C246 H273 0.931 . S
C247 C248 1.359 . S
C247 C249 1.364 . S
C248 C246 1.374 . S
C248 C247 1.359 . S
C248 H274 0.931 . S
C249 C245 1.389 . S
C249 C247 1.364 . S
C249 H275 0.931 . S
C250 O264 1.256 . S
C250 O265 1.257 . S
C251 O266 1.240 . S
C251 O267 1.240 . S
C252 Gd241 2.818 1_565 S
C252 C253 1.510 . S
C252 O268 1.249 . S
C252 O269 1.252 . S
C253 C252 1.510 . S
C253 C254 1.404 . S
C253 C255 1.352 . S
C254 C253 1.404 . S
C254 C258 1.389 . S
C254 H276 0.930 . S
C255 C253 1.352 . S
C255 C257 1.374 . S
C255 H277 0.931 . S
C256 C257 1.359 . S
C256 C258 1.364 . S
C257 C255 1.374 . S
C257 C256 1.359 . S
C257 H278 0.931 . S
C258 C254 1.389 . S
C258 C256 1.364 . S
C258 H279 0.931 . S
C259 O270 1.256 . S
C259 O271 1.257 . S
O260 Gd240 2.377 . S
O260 C242 1.240 . S
O261 Gd241 2.395 . S
O261 C242 1.240 . S
O262 Gd240 2.448 . S
O262 C243 1.249 . S
O263 Gd240 2.506 . S
O263 C243 1.252 . S
O264 Gd240 2.435 . S
O264 C250 1.256 . S
O265 Gd240 2.717 . S
O265 Gd241 2.327 . S
O265 C250 1.257 . S
O266 Gd241 2.377 . S
O266 C251 1.240 . S
O267 Gd240 2.395 . S
O267 C251 1.240 . S
O268 Gd241 2.448 1_565 S
O268 C252 1.249 . S
O269 Gd241 2.506 1_565 S
O269 C252 1.252 . S
O270 Gd241 2.435 . S
O270 C259 1.256 . S
O271 Gd240 2.327 . S
O271 Gd241 2.717 . S
O271 C259 1.257 . S
H272 C245 0.930 . S
H273 C246 0.931 . S
H274 C248 0.931 . S
H275 C249 0.931 . S
H276 C254 0.930 . S
H277 C255 0.931 . S
H278 C257 0.931 . S
H279 C258 0.931 . S
Gd280 C283 2.818 . S
Gd280 O300 2.377 . S
Gd280 O302 2.448 . S
Gd280 O303 2.506 . S
Gd280 O304 2.435 . S
Gd280 O305 2.717 . S
Gd280 O307 2.395 . S
Gd280 O311 2.327 . S
Gd281 C292 2.818 1_565 S
Gd281 O301 2.395 . S
Gd281 O305 2.327 . S
Gd281 O306 2.377 . S
Gd281 O308 2.448 1_565 S
Gd281 O309 2.506 1_565 S
Gd281 O310 2.435 . S
Gd281 O311 2.717 . S
C282 O300 1.240 . S
C282 O301 1.240 . S
C283 Gd280 2.818 . S
C283 C284 1.510 . S
C283 O302 1.249 . S
C283 O303 1.252 . S
C284 C283 1.510 . S
C284 C285 1.404 . S
C284 C286 1.352 . S
C285 C284 1.404 . S
C285 C289 1.389 . S
C285 H312 0.930 . S
C286 C284 1.352 . S
C286 C288 1.374 . S
C286 H313 0.931 . S
C287 C288 1.359 . S
C287 C289 1.364 . S
C288 C286 1.374 . S
C288 C287 1.359 . S
C288 H314 0.931 . S
C289 C285 1.389 . S
C289 C287 1.364 . S
C289 H315 0.931 . S
C290 O304 1.256 . S
C290 O305 1.257 . S
C291 O306 1.240 . S
C291 O307 1.240 . S
C292 Gd281 2.818 1_545 S
C292 C293 1.510 . S
C292 O308 1.249 . S
C292 O309 1.252 . S
C293 C292 1.510 . S
C293 C294 1.404 . S
C293 C295 1.352 . S
C294 C293 1.404 . S
C294 C298 1.389 . S
C294 H316 0.930 . S
C295 C293 1.352 . S
C295 C297 1.374 . S
C295 H317 0.931 . S
C296 C297 1.359 . S
C296 C298 1.364 . S
C297 C295 1.374 . S
C297 C296 1.359 . S
C297 H318 0.931 . S
C298 C294 1.389 . S
C298 C296 1.364 . S
C298 H319 0.931 . S
C299 O310 1.256 . S
C299 O311 1.257 . S
O300 Gd280 2.377 . S
O300 C282 1.240 . S
O301 Gd281 2.395 . S
O301 C282 1.240 . S
O302 Gd280 2.448 . S
O302 C283 1.249 . S
O303 Gd280 2.506 . S
O303 C283 1.252 . S
O304 Gd280 2.435 . S
O304 C290 1.256 . S
O305 Gd280 2.717 . S
O305 Gd281 2.327 . S
O305 C290 1.257 . S
O306 Gd281 2.377 . S
O306 C291 1.240 . S
O307 Gd280 2.395 . S
O307 C291 1.240 . S
O308 Gd281 2.448 1_545 S
O308 C292 1.249 . S
O309 Gd281 2.506 1_545 S
O309 C292 1.252 . S
O310 Gd281 2.435 . S
O310 C299 1.256 . S
O311 Gd280 2.327 . S
O311 Gd281 2.717 . S
O311 C299 1.257 . S
H312 C285 0.930 . S
H313 C286 0.931 . S
H314 C288 0.931 . S
H315 C289 0.931 . S
H316 C294 0.930 . S
H317 C295 0.931 . S
H318 C297 0.931 . S
H319 C298 0.931 . S
Gd320 C323 2.818 . S
Gd320 O340 2.377 . S
Gd320 O342 2.448 . S
Gd320 O343 2.506 . S
Gd320 O344 2.435 . S
Gd320 O345 2.717 . S
Gd320 O347 2.395 . S
Gd320 O351 2.327 . S
Gd321 C332 2.818 . S
Gd321 O341 2.395 . S
Gd321 O345 2.327 . S
Gd321 O346 2.377 . S
Gd321 O348 2.448 . S
Gd321 O349 2.506 . S
Gd321 O350 2.435 . S
Gd321 O351 2.717 . S
C322 O340 1.240 . S
C322 O341 1.240 . S
C323 Gd320 2.818 . S
C323 C324 1.510 . S
C323 O342 1.249 . S
C323 O343 1.252 . S
C324 C323 1.510 . S
C324 C325 1.404 . S
C324 C326 1.352 . S
C325 C324 1.404 . S
C325 C329 1.389 . S
C325 H352 0.930 . S
C326 C324 1.352 . S
C326 C328 1.374 . S
C326 H353 0.931 . S
C327 C328 1.359 . S
C327 C329 1.364 . S
C328 C326 1.374 . S
C328 C327 1.359 . S
C328 H354 0.931 . S
C329 C325 1.389 . S
C329 C327 1.364 . S
C329 H355 0.931 . S
C330 O344 1.256 . S
C330 O345 1.257 . S
C331 O346 1.240 . S
C331 O347 1.240 . S
C332 Gd321 2.818 . S
C332 C333 1.510 . S
C332 O348 1.249 . S
C332 O349 1.252 . S
C333 C332 1.510 . S
C333 C334 1.404 . S
C333 C335 1.352 . S
C334 C333 1.404 . S
C334 C338 1.389 . S
C334 H356 0.930 . S
C335 C333 1.352 . S
C335 C337 1.374 . S
C335 H357 0.931 . S
C336 C337 1.359 . S
C336 C338 1.364 . S
C337 C335 1.374 . S
C337 C336 1.359 . S
C337 H358 0.931 . S
C338 C334 1.389 . S
C338 C336 1.364 . S
C338 H359 0.931 . S
C339 O350 1.256 . S
C339 O351 1.257 . S
O340 Gd320 2.377 . S
O340 C322 1.240 . S
O341 Gd321 2.395 . S
O341 C322 1.240 . S
O342 Gd320 2.448 . S
O342 C323 1.249 . S
O343 Gd320 2.506 . S
O343 C323 1.252 . S
O344 Gd320 2.435 . S
O344 C330 1.256 . S
O345 Gd320 2.717 . S
O345 Gd321 2.327 . S
O345 C330 1.257 . S
O346 Gd321 2.377 . S
O346 C331 1.240 . S
O347 Gd320 2.395 . S
O347 C331 1.240 . S
O348 Gd321 2.448 . S
O348 C332 1.249 . S
O349 Gd321 2.506 . S
O349 C332 1.252 . S
O350 Gd321 2.435 . S
O350 C339 1.256 . S
O351 Gd320 2.327 . S
O351 Gd321 2.717 . S
O351 C339 1.257 . S
H352 C325 0.930 . S
H353 C326 0.931 . S
H354 C328 0.931 . S
H355 C329 0.931 . S
H356 C334 0.930 . S
H357 C335 0.931 . S
H358 C337 0.931 . S
H359 C338 0.931 . S
Gd360 C363 2.818 . S
Gd360 O380 2.377 . S
Gd360 O382 2.448 . S
Gd360 O383 2.506 . S
Gd360 O384 2.435 . S
Gd360 O385 2.717 . S
Gd360 O387 2.395 . S
Gd360 O391 2.327 . S
Gd361 C372 2.818 . S
Gd361 O381 2.395 . S
Gd361 O385 2.327 . S
Gd361 O386 2.377 . S
Gd361 O388 2.448 . S
Gd361 O389 2.506 . S
Gd361 O390 2.435 . S
Gd361 O391 2.717 . S
C362 O380 1.240 . S
C362 O381 1.240 . S
C363 Gd360 2.818 . S
C363 C364 1.510 . S
C363 O382 1.249 . S
C363 O383 1.252 . S
C364 C363 1.510 . S
C364 C365 1.404 . S
C364 C366 1.352 . S
C365 C364 1.404 . S
C365 C369 1.389 . S
C365 H392 0.930 . S
C366 C364 1.352 . S
C366 C368 1.374 . S
C366 H393 0.931 . S
C367 C368 1.359 . S
C367 C369 1.364 . S
C368 C366 1.374 . S
C368 C367 1.359 . S
C368 H394 0.931 . S
C369 C365 1.389 . S
C369 C367 1.364 . S
C369 H395 0.931 . S
C370 O384 1.256 . S
C370 O385 1.257 . S
C371 O386 1.240 . S
C371 O387 1.240 . S
C372 Gd361 2.818 . S
C372 C373 1.510 . S
C372 O388 1.249 . S
C372 O389 1.252 . S
C373 C372 1.510 . S
C373 C374 1.404 . S
C373 C375 1.352 . S
C374 C373 1.404 . S
C374 C378 1.389 . S
C374 H396 0.930 . S
C375 C373 1.352 . S
C375 C377 1.374 . S
C375 H397 0.931 . S
C376 C377 1.359 . S
C376 C378 1.364 . S
C377 C375 1.374 . S
C377 C376 1.359 . S
C377 H398 0.931 . S
C378 C374 1.389 . S
C378 C376 1.364 . S
C378 H399 0.931 . S
C379 O390 1.256 . S
C379 O391 1.257 . S
O380 Gd360 2.377 . S
O380 C362 1.240 . S
O381 Gd361 2.395 . S
O381 C362 1.240 . S
O382 Gd360 2.448 . S
O382 C363 1.249 . S
O383 Gd360 2.506 . S
O383 C363 1.252 . S
O384 Gd360 2.435 . S
O384 C370 1.256 . S
O385 Gd360 2.717 . S
O385 Gd361 2.327 . S
O385 C370 1.257 . S
O386 Gd361 2.377 . S
O386 C371 1.240 . S
O387 Gd360 2.395 . S
O387 C371 1.240 . S
O388 Gd361 2.448 . S
O388 C372 1.249 . S
O389 Gd361 2.506 . S
O389 C372 1.252 . S
O390 Gd361 2.435 . S
O390 C379 1.256 . S
O391 Gd360 2.327 . S
O391 Gd361 2.717 . S
O391 C379 1.257 . S
H392 C365 0.930 . S
H393 C366 0.931 . S
H394 C368 0.931 . S
H395 C369 0.931 . S
H396 C374 0.930 . S
H397 C375 0.931 . S
H398 C377 0.931 . S
H399 C378 0.931 . S
Gd400 C403 2.818 . S
Gd400 O420 2.377 . S
Gd400 O422 2.448 . S
Gd400 O423 2.506 . S
Gd400 O424 2.435 . S
Gd400 O425 2.717 . S
Gd400 O427 2.395 . S
Gd400 O431 2.327 . S
Gd401 C412 2.818 . S
Gd401 O421 2.395 . S
Gd401 O425 2.327 . S
Gd401 O426 2.377 . S
Gd401 O428 2.448 . S
Gd401 O429 2.506 . S
Gd401 O430 2.435 . S
Gd401 O431 2.717 . S
C402 O420 1.240 . S
C402 O421 1.240 . S
C403 Gd400 2.818 . S
C403 C404 1.510 . S
C403 O422 1.249 . S
C403 O423 1.252 . S
C404 C403 1.510 . S
C404 C405 1.404 . S
C404 C406 1.352 . S
C405 C404 1.404 . S
C405 C409 1.389 . S
C405 H432 0.930 . S
C406 C404 1.352 . S
C406 C408 1.374 . S
C406 H433 0.931 . S
C407 C408 1.359 . S
C407 C409 1.364 . S
C408 C406 1.374 . S
C408 C407 1.359 . S
C408 H434 0.931 . S
C409 C405 1.389 . S
C409 C407 1.364 . S
C409 H435 0.931 . S
C410 O424 1.256 . S
C410 O425 1.257 . S
C411 O426 1.240 . S
C411 O427 1.240 . S
C412 Gd401 2.818 . S
C412 C413 1.510 . S
C412 O428 1.249 . S
C412 O429 1.252 . S
C413 C412 1.510 . S
C413 C414 1.404 . S
C413 C415 1.352 . S
C414 C413 1.404 . S
C414 C418 1.389 . S
C414 H436 0.930 . S
C415 C413 1.352 . S
C415 C417 1.374 . S
C415 H437 0.931 . S
C416 C417 1.359 . S
C416 C418 1.364 . S
C417 C415 1.374 . S
C417 C416 1.359 . S
C417 H438 0.931 . S
C418 C414 1.389 . S
C418 C416 1.364 . S
C418 H439 0.931 . S
C419 O430 1.256 . S
C419 O431 1.257 . S
O420 Gd400 2.377 . S
O420 C402 1.240 . S
O421 Gd401 2.395 . S
O421 C402 1.240 . S
O422 Gd400 2.448 . S
O422 C403 1.249 . S
O423 Gd400 2.506 . S
O423 C403 1.252 . S
O424 Gd400 2.435 . S
O424 C410 1.256 . S
O425 Gd400 2.717 . S
O425 Gd401 2.327 . S
O425 C410 1.257 . S
O426 Gd401 2.377 . S
O426 C411 1.240 . S
O427 Gd400 2.395 . S
O427 C411 1.240 . S
O428 Gd401 2.448 . S
O428 C412 1.249 . S
O429 Gd401 2.506 . S
O429 C412 1.252 . S
O430 Gd401 2.435 . S
O430 C419 1.256 . S
O431 Gd400 2.327 . S
O431 Gd401 2.717 . S
O431 C419 1.257 . S
H432 C405 0.930 . S
H433 C406 0.931 . S
H434 C408 0.931 . S
H435 C409 0.931 . S
H436 C414 0.930 . S
H437 C415 0.931 . S
H438 C417 0.931 . S
H439 C418 0.931 . S
Gd440 C443 2.818 . S
Gd440 O460 2.377 . S
Gd440 O462 2.448 . S
Gd440 O463 2.506 . S
Gd440 O464 2.435 . S
Gd440 O465 2.717 . S
Gd440 O467 2.395 . S
Gd440 O471 2.327 . S
Gd441 C452 2.818 . S
Gd441 O461 2.395 . S
Gd441 O465 2.327 . S
Gd441 O466 2.377 . S
Gd441 O468 2.448 . S
Gd441 O469 2.506 . S
Gd441 O470 2.435 . S
Gd441 O471 2.717 . S
C442 O460 1.240 . S
C442 O461 1.240 . S
C443 Gd440 2.818 . S
C443 C444 1.510 . S
C443 O462 1.249 . S
C443 O463 1.252 . S
C444 C443 1.510 . S
C444 C445 1.404 . S
C444 C446 1.352 . S
C445 C444 1.404 . S
C445 C449 1.389 . S
C445 H472 0.930 . S
C446 C444 1.352 . S
C446 C448 1.374 . S
C446 H473 0.931 . S
C447 C448 1.359 . S
C447 C449 1.364 . S
C448 C446 1.374 . S
C448 C447 1.359 . S
C448 H474 0.931 . S
C449 C445 1.389 . S
C449 C447 1.364 . S
C449 H475 0.931 . S
C450 O464 1.256 . S
C450 O465 1.257 . S
C451 O466 1.240 . S
C451 O467 1.240 . S
C452 Gd441 2.818 . S
C452 C453 1.510 . S
C452 O468 1.249 . S
C452 O469 1.252 . S
C453 C452 1.510 . S
C453 C454 1.404 . S
C453 C455 1.352 . S
C454 C453 1.404 . S
C454 C458 1.389 . S
C454 H476 0.930 . S
C455 C453 1.352 . S
C455 C457 1.374 . S
C455 H477 0.931 . S
C456 C457 1.359 . S
C456 C458 1.364 . S
C457 C455 1.374 . S
C457 C456 1.359 . S
C457 H478 0.931 . S
C458 C454 1.389 . S
C458 C456 1.364 . S
C458 H479 0.931 . S
C459 O470 1.256 . S
C459 O471 1.257 . S
O460 Gd440 2.377 . S
O460 C442 1.240 . S
O461 Gd441 2.395 . S
O461 C442 1.240 . S
O462 Gd440 2.448 . S
O462 C443 1.249 . S
O463 Gd440 2.506 . S
O463 C443 1.252 . S
O464 Gd440 2.435 . S
O464 C450 1.256 . S
O465 Gd440 2.717 . S
O465 Gd441 2.327 . S
O465 C450 1.257 . S
O466 Gd441 2.377 . S
O466 C451 1.240 . S
O467 Gd440 2.395 . S
O467 C451 1.240 . S
O468 Gd441 2.448 . S
O468 C452 1.249 . S
O469 Gd441 2.506 . S
O469 C452 1.252 . S
O470 Gd441 2.435 . S
O470 C459 1.256 . S
O471 Gd440 2.327 . S
O471 Gd441 2.717 . S
O471 C459 1.257 . S
H472 C445 0.930 . S
H473 C446 0.931 . S
H474 C448 0.931 . S
H475 C449 0.931 . S
H476 C454 0.930 . S
H477 C455 0.931 . S
H478 C457 0.931 . S
H479 C458 0.931 . S
Gd480 C483 2.818 . S
Gd480 O500 2.377 . S
Gd480 O502 2.448 . S
Gd480 O503 2.506 . S
Gd480 O504 2.435 . S
Gd480 O505 2.717 . S
Gd480 O507 2.395 . S
Gd480 O511 2.327 . S
Gd481 C492 2.818 . S
Gd481 O501 2.395 . S
Gd481 O505 2.327 . S
Gd481 O506 2.377 . S
Gd481 O508 2.448 . S
Gd481 O509 2.506 . S
Gd481 O510 2.435 . S
Gd481 O511 2.717 . S
C482 O500 1.240 . S
C482 O501 1.240 . S
C483 Gd480 2.818 . S
C483 C484 1.510 . S
C483 O502 1.249 . S
C483 O503 1.252 . S
C484 C483 1.510 . S
C484 C485 1.404 . S
C484 C486 1.352 . S
C485 C484 1.404 . S
C485 C489 1.389 . S
C485 H512 0.930 . S
C486 C484 1.352 . S
C486 C488 1.374 . S
C486 H513 0.931 . S
C487 C488 1.359 . S
C487 C489 1.364 . S
C488 C486 1.374 . S
C488 C487 1.359 . S
C488 H514 0.931 . S
C489 C485 1.389 . S
C489 C487 1.364 . S
C489 H515 0.931 . S
C490 O504 1.256 . S
C490 O505 1.257 . S
C491 O506 1.240 . S
C491 O507 1.240 . S
C492 Gd481 2.818 . S
C492 C493 1.510 . S
C492 O508 1.249 . S
C492 O509 1.252 . S
C493 C492 1.510 . S
C493 C494 1.404 . S
C493 C495 1.352 . S
C494 C493 1.404 . S
C494 C498 1.389 . S
C494 H516 0.930 . S
C495 C493 1.352 . S
C495 C497 1.374 . S
C495 H517 0.931 . S
C496 C497 1.359 . S
C496 C498 1.364 . S
C497 C495 1.374 . S
C497 C496 1.359 . S
C497 H518 0.931 . S
C498 C494 1.389 . S
C498 C496 1.364 . S
C498 H519 0.931 . S
C499 O510 1.256 . S
C499 O511 1.257 . S
O500 Gd480 2.377 . S
O500 C482 1.240 . S
O501 Gd481 2.395 . S
O501 C482 1.240 . S
O502 Gd480 2.448 . S
O502 C483 1.249 . S
O503 Gd480 2.506 . S
O503 C483 1.252 . S
O504 Gd480 2.435 . S
O504 C490 1.256 . S
O505 Gd480 2.717 . S
O505 Gd481 2.327 . S
O505 C490 1.257 . S
O506 Gd481 2.377 . S
O506 C491 1.240 . S
O507 Gd480 2.395 . S
O507 C491 1.240 . S
O508 Gd481 2.448 . S
O508 C492 1.249 . S
O509 Gd481 2.506 . S
O509 C492 1.252 . S
O510 Gd481 2.435 . S
O510 C499 1.256 . S
O511 Gd480 2.327 . S
O511 Gd481 2.717 . S
O511 C499 1.257 . S
H512 C485 0.930 . S
H513 C486 0.931 . S
H514 C488 0.931 . S
H515 C489 0.931 . S
H516 C494 0.930 . S
H517 C495 0.931 . S
H518 C497 0.931 . S
H519 C498 0.931 . S
Gd520 C523 2.818 . S
Gd520 O540 2.377 . S
Gd520 O542 2.448 . S
Gd520 O543 2.506 . S
Gd520 O544 2.435 . S
Gd520 O545 2.717 . S
Gd520 O547 2.395 . S
Gd520 O551 2.327 . S
Gd521 C532 2.818 . S
Gd521 O541 2.395 . S
Gd521 O545 2.327 . S
Gd521 O546 2.377 . S
Gd521 O548 2.448 . S
Gd521 O549 2.506 . S
Gd521 O550 2.435 . S
Gd521 O551 2.717 . S
C522 O540 1.240 . S
C522 O541 1.240 . S
C523 Gd520 2.818 . S
C523 C524 1.510 . S
C523 O542 1.249 . S
C523 O543 1.252 . S
C524 C523 1.510 . S
C524 C525 1.404 . S
C524 C526 1.352 . S
C525 C524 1.404 . S
C525 C529 1.389 . S
C525 H552 0.930 . S
C526 C524 1.352 . S
C526 C528 1.374 . S
C526 H553 0.931 . S
C527 C528 1.359 . S
C527 C529 1.364 . S
C528 C526 1.374 . S
C528 C527 1.359 . S
C528 H554 0.931 . S
C529 C525 1.389 . S
C529 C527 1.364 . S
C529 H555 0.931 . S
C530 O544 1.256 . S
C530 O545 1.257 . S
C531 O546 1.240 . S
C531 O547 1.240 . S
C532 Gd521 2.818 . S
C532 C533 1.510 . S
C532 O548 1.249 . S
C532 O549 1.252 . S
C533 C532 1.510 . S
C533 C534 1.404 . S
C533 C535 1.352 . S
C534 C533 1.404 . S
C534 C538 1.389 . S
C534 H556 0.930 . S
C535 C533 1.352 . S
C535 C537 1.374 . S
C535 H557 0.931 . S
C536 C537 1.359 . S
C536 C538 1.364 . S
C537 C535 1.374 . S
C537 C536 1.359 . S
C537 H558 0.931 . S
C538 C534 1.389 . S
C538 C536 1.364 . S
C538 H559 0.931 . S
C539 O550 1.256 . S
C539 O551 1.257 . S
O540 Gd520 2.377 . S
O540 C522 1.240 . S
O541 Gd521 2.395 . S
O541 C522 1.240 . S
O542 Gd520 2.448 . S
O542 C523 1.249 . S
O543 Gd520 2.506 . S
O543 C523 1.252 . S
O544 Gd520 2.435 . S
O544 C530 1.256 . S
O545 Gd520 2.717 . S
O545 Gd521 2.327 . S
O545 C530 1.257 . S
O546 Gd521 2.377 . S
O546 C531 1.240 . S
O547 Gd520 2.395 . S
O547 C531 1.240 . S
O548 Gd521 2.448 . S
O548 C532 1.249 . S
O549 Gd521 2.506 . S
O549 C532 1.252 . S
O550 Gd521 2.435 . S
O550 C539 1.256 . S
O551 Gd520 2.327 . S
O551 Gd521 2.717 . S
O551 C539 1.257 . S
H552 C525 0.930 . S
H553 C526 0.931 . S
H554 C528 0.931 . S
H555 C529 0.931 . S
H556 C534 0.930 . S
H557 C535 0.931 . S
H558 C537 0.931 . S
H559 C538 0.931 . S
Gd560 C563 2.818 . S
Gd560 O580 2.377 . S
Gd560 O582 2.448 . S
Gd560 O583 2.506 . S
Gd560 O584 2.435 . S
Gd560 O585 2.717 . S
Gd560 O587 2.395 . S
Gd560 O591 2.327 . S
Gd561 C572 2.818 . S
Gd561 O581 2.395 . S
Gd561 O585 2.327 . S
Gd561 O586 2.377 . S
Gd561 O588 2.448 . S
Gd561 O589 2.506 . S
Gd561 O590 2.435 . S
Gd561 O591 2.717 . S
C562 O580 1.240 . S
C562 O581 1.240 . S
C563 Gd560 2.818 . S
C563 C564 1.510 . S
C563 O582 1.249 . S
C563 O583 1.252 . S
C564 C563 1.510 . S
C564 C565 1.404 . S
C564 C566 1.352 . S
C565 C564 1.404 . S
C565 C569 1.389 . S
C565 H592 0.930 . S
C566 C564 1.352 . S
C566 C568 1.374 . S
C566 H593 0.931 . S
C567 C568 1.359 . S
C567 C569 1.364 . S
C568 C566 1.374 . S
C568 C567 1.359 . S
C568 H594 0.931 . S
C569 C565 1.389 . S
C569 C567 1.364 . S
C569 H595 0.931 . S
C570 O584 1.256 . S
C570 O585 1.257 . S
C571 O586 1.240 . S
C571 O587 1.240 . S
C572 Gd561 2.818 . S
C572 C573 1.510 . S
C572 O588 1.249 . S
C572 O589 1.252 . S
C573 C572 1.510 . S
C573 C574 1.404 . S
C573 C575 1.352 . S
C574 C573 1.404 . S
C574 C578 1.389 . S
C574 H596 0.930 . S
C575 C573 1.352 . S
C575 C577 1.374 . S
C575 H597 0.931 . S
C576 C577 1.359 . S
C576 C578 1.364 . S
C577 C575 1.374 . S
C577 C576 1.359 . S
C577 H598 0.931 . S
C578 C574 1.389 . S
C578 C576 1.364 . S
C578 H599 0.931 . S
C579 O590 1.256 . S
C579 O591 1.257 . S
O580 Gd560 2.377 . S
O580 C562 1.240 . S
O581 Gd561 2.395 . S
O581 C562 1.240 . S
O582 Gd560 2.448 . S
O582 C563 1.249 . S
O583 Gd560 2.506 . S
O583 C563 1.252 . S
O584 Gd560 2.435 . S
O584 C570 1.256 . S
O585 Gd560 2.717 . S
O585 Gd561 2.327 . S
O585 C570 1.257 . S
O586 Gd561 2.377 . S
O586 C571 1.240 . S
O587 Gd560 2.395 . S
O587 C571 1.240 . S
O588 Gd561 2.448 . S
O588 C572 1.249 . S
O589 Gd561 2.506 . S
O589 C572 1.252 . S
O590 Gd561 2.435 . S
O590 C579 1.256 . S
O591 Gd560 2.327 . S
O591 Gd561 2.717 . S
O591 C579 1.257 . S
H592 C565 0.930 . S
H593 C566 0.931 . S
H594 C568 0.931 . S
H595 C569 0.931 . S
H596 C574 0.930 . S
H597 C575 0.931 . S
H598 C577 0.931 . S
H599 C578 0.931 . S
Gd600 C603 2.818 . S
Gd600 O620 2.377 . S
Gd600 O622 2.448 . S
Gd600 O623 2.506 . S
Gd600 O624 2.435 . S
Gd600 O625 2.717 . S
Gd600 O627 2.395 . S
Gd600 O631 2.327 . S
Gd601 C612 2.818 . S
Gd601 O621 2.395 . S
Gd601 O625 2.327 . S
Gd601 O626 2.377 . S
Gd601 O628 2.448 . S
Gd601 O629 2.506 . S
Gd601 O630 2.435 . S
Gd601 O631 2.717 . S
C602 O620 1.240 . S
C602 O621 1.240 . S
C603 Gd600 2.818 . S
C603 C604 1.510 . S
C603 O622 1.249 . S
C603 O623 1.252 . S
C604 C603 1.510 . S
C604 C605 1.404 . S
C604 C606 1.352 . S
C605 C604 1.404 . S
C605 C609 1.389 . S
C605 H632 0.930 . S
C606 C604 1.352 . S
C606 C608 1.374 . S
C606 H633 0.931 . S
C607 C608 1.359 . S
C607 C609 1.364 . S
C608 C606 1.374 . S
C608 C607 1.359 . S
C608 H634 0.931 . S
C609 C605 1.389 . S
C609 C607 1.364 . S
C609 H635 0.931 . S
C610 O624 1.256 . S
C610 O625 1.257 . S
C611 O626 1.240 . S
C611 O627 1.240 . S
C612 Gd601 2.818 . S
C612 C613 1.510 . S
C612 O628 1.249 . S
C612 O629 1.252 . S
C613 C612 1.510 . S
C613 C614 1.404 . S
C613 C615 1.352 . S
C614 C613 1.404 . S
C614 C618 1.389 . S
C614 H636 0.930 . S
C615 C613 1.352 . S
C615 C617 1.374 . S
C615 H637 0.931 . S
C616 C617 1.359 . S
C616 C618 1.364 . S
C617 C615 1.374 . S
C617 C616 1.359 . S
C617 H638 0.931 . S
C618 C614 1.389 . S
C618 C616 1.364 . S
C618 H639 0.931 . S
C619 O630 1.256 . S
C619 O631 1.257 . S
O620 Gd600 2.377 . S
O620 C602 1.240 . S
O621 Gd601 2.395 . S
O621 C602 1.240 . S
O622 Gd600 2.448 . S
O622 C603 1.249 . S
O623 Gd600 2.506 . S
O623 C603 1.252 . S
O624 Gd600 2.435 . S
O624 C610 1.256 . S
O625 Gd600 2.717 . S
O625 Gd601 2.327 . S
O625 C610 1.257 . S
O626 Gd601 2.377 . S
O626 C611 1.240 . S
O627 Gd600 2.395 . S
O627 C611 1.240 . S
O628 Gd601 2.448 . S
O628 C612 1.249 . S
O629 Gd601 2.506 . S
O629 C612 1.252 . S
O630 Gd601 2.435 . S
O630 C619 1.256 . S
O631 Gd600 2.327 . S
O631 Gd601 2.717 . S
O631 C619 1.257 . S
H632 C605 0.930 . S
H633 C606 0.931 . S
H634 C608 0.931 . S
H635 C609 0.931 . S
H636 C614 0.930 . S
H637 C615 0.931 . S
H638 C617 0.931 . S
H639 C618 0.931 . S
H640 C646 0.930 . S
H641 C650 0.930 . S
H642 C655 0.929 . S
H643 C653 0.929 . S
H644 C648 0.929 . S
H645 C654 0.929 . S
C646 H640 0.930 . S
C646 C647 1.367 . S
C646 C654 1.378 . S
C647 C646 1.367 . S
C647 C655 1.433 . S
C648 H644 0.929 . S
C648 C650 1.378 . S
C648 C652 1.350 . S
C649 C652 1.463 . S
C649 C654 1.350 . S
C649 N657 1.427 . S
C650 H641 0.930 . S
C650 C648 1.378 . S
C650 C651 1.367 . S
C651 C650 1.367 . S
C651 C653 1.433 . S
C652 C648 1.350 . S
C652 C649 1.463 . S
C652 N656 1.427 . S
C653 H643 0.929 . S
C653 C651 1.433 . S
C653 N656 1.384 . S
C654 H645 0.929 . S
C654 C646 1.378 . S
C654 C649 1.350 . S
C655 H642 0.929 . S
C655 C647 1.433 . S
C655 N657 1.384 . S
N656 C652 1.427 . S
N656 C653 1.384 . S
N657 C649 1.427 . S
N657 C655 1.384 . S
H658 C664 0.930 . S
H659 C668 0.930 . S
H660 C673 0.929 . S
H661 C671 0.929 . S
H662 C666 0.929 . S
H663 C672 0.929 . S
C664 H658 0.930 . S
C664 C665 1.367 . S
C664 C672 1.378 . S
C665 C664 1.367 . S
C665 C673 1.433 . S
C666 H662 0.929 . S
C666 C668 1.378 . S
C666 C670 1.350 . S
C667 C670 1.463 . S
C667 C672 1.350 . S
C667 N675 1.427 . S
C668 H659 0.930 . S
C668 C666 1.378 . S
C668 C669 1.367 . S
C669 C668 1.367 . S
C669 C671 1.433 . S
C670 C666 1.350 . S
C670 C667 1.463 . S
C670 N674 1.427 . S
C671 H661 0.929 . S
C671 C669 1.433 . S
C671 N674 1.384 . S
C672 H663 0.929 . S
C672 C664 1.378 . S
C672 C667 1.350 . S
C673 H660 0.929 . S
C673 C665 1.433 . S
C673 N675 1.384 . S
N674 C670 1.427 . S
N674 C671 1.384 . S
N675 C667 1.427 . S
N675 C673 1.384 . S
H676 C682 0.930 . S
H677 C686 0.930 . S
H678 C691 0.929 . S
H679 C689 0.929 . S
H680 C684 0.929 . S
H681 C690 0.929 . S
C682 H676 0.930 . S
C682 C683 1.367 . S
C682 C690 1.378 . S
C683 C682 1.367 . S
C683 C691 1.433 . S
C684 H680 0.929 . S
C684 C686 1.378 . S
C684 C688 1.350 . S
C685 C688 1.463 . S
C685 C690 1.350 . S
C685 N693 1.427 . S
C686 H677 0.930 . S
C686 C684 1.378 . S
C686 C687 1.367 . S
C687 C686 1.367 . S
C687 C689 1.433 . S
C688 C684 1.350 . S
C688 C685 1.463 . S
C688 N692 1.427 . S
C689 H679 0.929 . S
C689 C687 1.433 . S
C689 N692 1.384 . S
C690 H681 0.929 . S
C690 C682 1.378 . S
C690 C685 1.350 . S
C691 H678 0.929 . S
C691 C683 1.433 . S
C691 N693 1.384 . S
N692 C688 1.427 . S
N692 C689 1.384 . S
N693 C685 1.427 . S
N693 C691 1.384 . S
H694 C700 0.930 . S
H695 C704 0.930 . S
H696 C709 0.929 . S
H697 C707 0.929 . S
H698 C702 0.929 . S
H699 C708 0.929 . S
C700 H694 0.930 . S
C700 C701 1.367 . S
C700 C708 1.378 . S
C701 C700 1.367 . S
C701 C709 1.433 . S
C702 H698 0.929 . S
C702 C704 1.378 . S
C702 C706 1.350 . S
C703 C706 1.463 . S
C703 C708 1.350 . S
C703 N711 1.427 . S
C704 H695 0.930 . S
C704 C702 1.378 . S
C704 C705 1.367 . S
C705 C704 1.367 . S
C705 C707 1.433 . S
C706 C702 1.350 . S
C706 C703 1.463 . S
C706 N710 1.427 . S
C707 H697 0.929 . S
C707 C705 1.433 . S
C707 N710 1.384 . S
C708 H699 0.929 . S
C708 C700 1.378 . S
C708 C703 1.350 . S
C709 H696 0.929 . S
C709 C701 1.433 . S
C709 N711 1.384 . S
N710 C706 1.427 . S
N710 C707 1.384 . S
N711 C703 1.427 . S
N711 C709 1.384 . S
H712 C718 0.930 . S
H713 C722 0.930 . S
H714 C727 0.929 . S
H715 C725 0.929 . S
H716 C720 0.929 . S
H717 C726 0.929 . S
C718 H712 0.930 . S
C718 C719 1.367 . S
C718 C726 1.378 . S
C719 C718 1.367 . S
C719 C727 1.433 . S
C720 H716 0.929 . S
C720 C722 1.378 . S
C720 C724 1.350 . S
C721 C724 1.463 . S
C721 C726 1.350 . S
C721 N729 1.427 . S
C722 H713 0.930 . S
C722 C720 1.378 . S
C722 C723 1.367 . S
C723 C722 1.367 . S
C723 C725 1.433 . S
C724 C720 1.350 . S
C724 C721 1.463 . S
C724 N728 1.427 . S
C725 H715 0.929 . S
C725 C723 1.433 . S
C725 N728 1.384 . S
C726 H717 0.929 . S
C726 C718 1.378 . S
C726 C721 1.350 . S
C727 H714 0.929 . S
C727 C719 1.433 . S
C727 N729 1.384 . S
N728 C724 1.427 . S
N728 C725 1.384 . S
N729 C721 1.427 . S
N729 C727 1.384 . S
H730 C736 0.930 . S
H731 C740 0.930 . S
H732 C745 0.929 . S
H733 C743 0.929 . S
H734 C738 0.929 . S
H735 C744 0.929 . S
C736 H730 0.930 . S
C736 C737 1.367 . S
C736 C744 1.378 . S
C737 C736 1.367 . S
C737 C745 1.433 . S
C738 H734 0.929 . S
C738 C740 1.378 . S
C738 C742 1.350 . S
C739 C742 1.463 . S
C739 C744 1.350 . S
C739 N747 1.427 . S
C740 H731 0.930 . S
C740 C738 1.378 . S
C740 C741 1.367 . S
C741 C740 1.367 . S
C741 C743 1.433 . S
C742 C738 1.350 . S
C742 C739 1.463 . S
C742 N746 1.427 . S
C743 H733 0.929 . S
C743 C741 1.433 . S
C743 N746 1.384 . S
C744 H735 0.929 . S
C744 C736 1.378 . S
C744 C739 1.350 . S
C745 H732 0.929 . S
C745 C737 1.433 . S
C745 N747 1.384 . S
N746 C742 1.427 . S
N746 C743 1.384 . S
N747 C739 1.427 . S
N747 C745 1.384 . S
H748 C754 0.930 . S
H749 C758 0.930 . S
H750 C763 0.929 . S
H751 C761 0.929 . S
H752 C756 0.929 . S
H753 C762 0.929 . S
C754 H748 0.930 . S
C754 C755 1.367 . S
C754 C762 1.378 . S
C755 C754 1.367 . S
C755 C763 1.433 . S
C756 H752 0.929 . S
C756 C758 1.378 . S
C756 C760 1.350 . S
C757 C760 1.463 . S
C757 C762 1.350 . S
C757 N765 1.427 . S
C758 H749 0.930 . S
C758 C756 1.378 . S
C758 C759 1.367 . S
C759 C758 1.367 . S
C759 C761 1.433 . S
C760 C756 1.350 . S
C760 C757 1.463 . S
C760 N764 1.427 . S
C761 H751 0.929 . S
C761 C759 1.433 . S
C761 N764 1.384 . S
C762 H753 0.929 . S
C762 C754 1.378 . S
C762 C757 1.350 . S
C763 H750 0.929 . S
C763 C755 1.433 . S
C763 N765 1.384 . S
N764 C760 1.427 . S
N764 C761 1.384 . S
N765 C757 1.427 . S
N765 C763 1.384 . S
H766 C772 0.930 . S
H767 C776 0.930 . S
H768 C781 0.929 . S
H769 C779 0.929 . S
H770 C774 0.929 . S
H771 C780 0.929 . S
C772 H766 0.930 . S
C772 C773 1.367 . S
C772 C780 1.378 . S
C773 C772 1.367 . S
C773 C781 1.433 . S
C774 H770 0.929 . S
C774 C776 1.378 . S
C774 C778 1.350 . S
C775 C778 1.463 . S
C775 C780 1.350 . S
C775 N783 1.427 . S
C776 H767 0.930 . S
C776 C774 1.378 . S
C776 C777 1.367 . S
C777 C776 1.367 . S
C777 C779 1.433 . S
C778 C774 1.350 . S
C778 C775 1.463 . S
C778 N782 1.427 . S
C779 H769 0.929 . S
C779 C777 1.433 . S
C779 N782 1.384 . S
C780 H771 0.929 . S
C780 C772 1.378 . S
C780 C775 1.350 . S
C781 H768 0.929 . S
C781 C773 1.433 . S
C781 N783 1.384 . S
N782 C778 1.427 . S
N782 C779 1.384 . S
N783 C775 1.427 . S
N783 C781 1.384 . S
H784 C790 0.930 1_545 S
H785 C794 0.930 1_565 S
H786 C799 0.929 . S
H787 C797 0.929 . S
H788 C792 0.929 . S
H789 C798 0.929 . S
C790 H784 0.930 1_565 S
C790 C791 1.367 . S
C790 C798 1.378 1_565 S
C791 C790 1.367 . S
C791 C799 1.433 . S
C792 H788 0.929 . S
C792 C794 1.378 1_565 S
C792 C796 1.350 1_565 S
C793 C796 1.463 1_565 S
C793 C798 1.350 1_565 S
C793 N801 1.427 . S
C794 H785 0.930 1_545 S
C794 C792 1.378 1_545 S
C794 C795 1.367 . S
C795 C794 1.367 . S
C795 C797 1.433 . S
C796 C792 1.350 1_545 S
C796 C793 1.463 1_545 S
C796 N800 1.427 . S
C797 H787 0.929 . S
C797 C795 1.433 . S
C797 N800 1.384 . S
C798 H789 0.929 . S
C798 C790 1.378 1_545 S
C798 C793 1.350 1_545 S
C799 H786 0.929 . S
C799 C791 1.433 . S
C799 N801 1.384 . S
N800 C796 1.427 . S
N800 C797 1.384 . S
N801 C793 1.427 . S
N801 C799 1.384 . S
H802 C808 0.930 . S
H803 C812 0.930 . S
H804 C817 0.929 . S
H805 C815 0.929 . S
H806 C810 0.929 1_545 S
H807 C816 0.929 1_565 S
C808 H802 0.930 . S
C808 C809 1.367 . S
C808 C816 1.378 . S
C809 C808 1.367 . S
C809 C817 1.433 . S
C810 H806 0.929 1_565 S
C810 C812 1.378 . S
C810 C814 1.350 . S
C811 C814 1.463 1_545 S
C811 C816 1.350 . S
C811 N819 1.427 . S
C812 H803 0.930 . S
C812 C810 1.378 . S
C812 C813 1.367 . S
C813 C812 1.367 . S
C813 C815 1.433 . S
C814 C810 1.350 . S
C814 C811 1.463 1_565 S
C814 N818 1.427 . S
C815 H805 0.929 . S
C815 C813 1.433 . S
C815 N818 1.384 . S
C816 H807 0.929 1_545 S
C816 C808 1.378 . S
C816 C811 1.350 . S
C817 H804 0.929 . S
C817 C809 1.433 . S
C817 N819 1.384 . S
N818 C814 1.427 . S
N818 C815 1.384 . S
N819 C811 1.427 . S
N819 C817 1.384 . S
H820 C826 0.930 . S
H821 C830 0.930 . S
H822 C835 0.929 . S
H823 C833 0.929 . S
H824 C828 0.929 . S
H825 C834 0.929 . S
C826 H820 0.930 . S
C826 C827 1.367 . S
C826 C834 1.378 . S
C827 C826 1.367 . S
C827 C835 1.433 . S
C828 H824 0.929 . S
C828 C830 1.378 . S
C828 C832 1.350 . S
C829 C832 1.463 1_545 S
C829 C834 1.350 . S
C829 N837 1.427 1_545 S
C830 H821 0.930 . S
C830 C828 1.378 . S
C830 C831 1.367 . S
C831 C830 1.367 . S
C831 C833 1.433 . S
C832 C828 1.350 . S
C832 C829 1.463 1_565 S
C832 N836 1.427 1_565 S
C833 H823 0.929 . S
C833 C831 1.433 . S
C833 N836 1.384 1_565 S
C834 H825 0.929 . S
C834 C826 1.378 . S
C834 C829 1.350 . S
C835 H822 0.929 . S
C835 C827 1.433 . S
C835 N837 1.384 1_545 S
N836 C832 1.427 1_545 S
N836 C833 1.384 1_545 S
N837 C829 1.427 1_565 S
N837 C835 1.384 1_565 S
H838 C844 0.930 . S
H839 C848 0.930 . S
H840 C853 0.929 . S
H841 C851 0.929 . S
H842 C846 0.929 1_545 S
H843 C852 0.929 1_565 S
C844 H838 0.930 . S
C844 C845 1.367 . S
C844 C852 1.378 . S
C845 C844 1.367 . S
C845 C853 1.433 . S
C846 H842 0.929 1_565 S
C846 C848 1.378 . S
C846 C850 1.350 . S
C847 C850 1.463 1_545 S
C847 C852 1.350 . S
C847 N855 1.427 . S
C848 H839 0.930 . S
C848 C846 1.378 . S
C848 C849 1.367 . S
C849 C848 1.367 . S
C849 C851 1.433 . S
C850 C846 1.350 . S
C850 C847 1.463 1_565 S
C850 N854 1.427 . S
C851 H841 0.929 . S
C851 C849 1.433 . S
C851 N854 1.384 . S
C852 H843 0.929 1_545 S
C852 C844 1.378 . S
C852 C847 1.350 . S
C853 H840 0.929 . S
C853 C845 1.433 . S
C853 N855 1.384 . S
N854 C850 1.427 . S
N854 C851 1.384 . S
N855 C847 1.427 . S
N855 C853 1.384 . S
H856 C862 0.930 . S
H857 C866 0.930 . S
H858 C871 0.929 . S
H859 C869 0.929 . S
H860 C864 0.929 . S
H861 C870 0.929 . S
C862 H856 0.930 . S
C862 C863 1.367 . S
C862 C870 1.378 . S
C863 C862 1.367 . S
C863 C871 1.433 . S
C864 H860 0.929 . S
C864 C866 1.378 . S
C864 C868 1.350 . S
C865 C868 1.463 . S
C865 C870 1.350 . S
C865 N873 1.427 . S
C866 H857 0.930 . S
C866 C864 1.378 . S
C866 C867 1.367 . S
C867 C866 1.367 . S
C867 C869 1.433 . S
C868 C864 1.350 . S
C868 C865 1.463 . S
C868 N872 1.427 . S
C869 H859 0.929 . S
C869 C867 1.433 . S
C869 N872 1.384 . S
C870 H861 0.929 . S
C870 C862 1.378 . S
C870 C865 1.350 . S
C871 H858 0.929 . S
C871 C863 1.433 . S
C871 N873 1.384 . S
N872 C868 1.427 . S
N872 C869 1.384 . S
N873 C865 1.427 . S
N873 C871 1.384 . S
H874 C880 0.930 . S
H875 C884 0.930 . S
H876 C889 0.929 . S
H877 C887 0.929 . S
H878 C882 0.929 . S
H879 C888 0.929 . S
C880 H874 0.930 . S
C880 C881 1.367 . S
C880 C888 1.378 . S
C881 C880 1.367 . S
C881 C889 1.433 . S
C882 H878 0.929 . S
C882 C884 1.378 . S
C882 C886 1.350 . S
C883 C886 1.463 . S
C883 C888 1.350 . S
C883 N891 1.427 . S
C884 H875 0.930 . S
C884 C882 1.378 . S
C884 C885 1.367 . S
C885 C884 1.367 . S
C885 C887 1.433 . S
C886 C882 1.350 . S
C886 C883 1.463 . S
C886 N890 1.427 . S
C887 H877 0.929 . S
C887 C885 1.433 . S
C887 N890 1.384 . S
C888 H879 0.929 . S
C888 C880 1.378 . S
C888 C883 1.350 . S
C889 H876 0.929 . S
C889 C881 1.433 . S
C889 N891 1.384 . S
N890 C886 1.427 . S
N890 C887 1.384 . S
N891 C883 1.427 . S
N891 C889 1.384 . S
H892 C898 0.930 . S
H893 C902 0.930 . S
H894 C907 0.929 . S
H895 C905 0.929 . S
H896 C900 0.929 . S
H897 C906 0.929 . S
C898 H892 0.930 . S
C898 C899 1.367 . S
C898 C906 1.378 . S
C899 C898 1.367 . S
C899 C907 1.433 . S
C900 H896 0.929 . S
C900 C902 1.378 . S
C900 C904 1.350 . S
C901 C904 1.463 . S
C901 C906 1.350 . S
C901 N909 1.427 . S
C902 H893 0.930 . S
C902 C900 1.378 . S
C902 C903 1.367 . S
C903 C902 1.367 . S
C903 C905 1.433 . S
C904 C900 1.350 . S
C904 C901 1.463 . S
C904 N908 1.427 . S
C905 H895 0.929 . S
C905 C903 1.433 . S
C905 N908 1.384 . S
C906 H897 0.929 . S
C906 C898 1.378 . S
C906 C901 1.350 . S
C907 H894 0.929 . S
C907 C899 1.433 . S
C907 N909 1.384 . S
N908 C904 1.427 . S
N908 C905 1.384 . S
N909 C901 1.427 . S
N909 C907 1.384 . S
H910 C916 0.930 . S
H911 C920 0.930 . S
H912 C925 0.929 . S
H913 C923 0.929 . S
H914 C918 0.929 . S
H915 C924 0.929 . S
C916 H910 0.930 . S
C916 C917 1.367 . S
C916 C924 1.378 . S
C917 C916 1.367 . S
C917 C925 1.433 . S
C918 H914 0.929 . S
C918 C920 1.378 . S
C918 C922 1.350 . S
C919 C922 1.463 . S
C919 C924 1.350 . S
C919 N927 1.427 . S
C920 H911 0.930 . S
C920 C918 1.378 . S
C920 C921 1.367 . S
C921 C920 1.367 . S
C921 C923 1.433 . S
C922 C918 1.350 . S
C922 C919 1.463 . S
C922 N926 1.427 . S
C923 H913 0.929 . S
C923 C921 1.433 . S
C923 N926 1.384 . S
C924 H915 0.929 . S
C924 C916 1.378 . S
C924 C919 1.350 . S
C925 H912 0.929 . S
C925 C917 1.433 . S
C925 N927 1.384 . S
N926 C922 1.427 . S
N926 C923 1.384 . S
N927 C919 1.427 . S
N927 C925 1.384 . S
H928 C934 0.930 . S
H929 C938 0.930 . S
H930 C943 0.929 . S
H931 C941 0.929 . S
H932 C936 0.929 . S
H933 C942 0.929 . S
C934 H928 0.930 . S
C934 C935 1.367 . S
C934 C942 1.378 . S
C935 C934 1.367 . S
C935 C943 1.433 . S
C936 H932 0.929 . S
C936 C938 1.378 . S
C936 C940 1.350 . S
C937 C940 1.463 1_556 S
C937 C942 1.350 . S
C937 N945 1.427 . S
C938 H929 0.930 . S
C938 C936 1.378 . S
C938 C939 1.367 . S
C939 C938 1.367 . S
C939 C941 1.433 . S
C940 C936 1.350 . S
C940 C937 1.463 1_554 S
C940 N944 1.427 . S
C941 H931 0.929 . S
C941 C939 1.433 . S
C941 N944 1.384 . S
C942 H933 0.929 . S
C942 C934 1.378 . S
C942 C937 1.350 . S
C943 H930 0.929 . S
C943 C935 1.433 . S
C943 N945 1.384 . S
N944 C940 1.427 . S
N944 C941 1.384 . S
N945 C937 1.427 . S
N945 C943 1.384 . S
H946 C952 0.930 . S
H947 C956 0.930 . S
H948 C961 0.929 . S
H949 C959 0.929 . S
H950 C954 0.929 . S
H951 C960 0.929 . S
C952 H946 0.930 . S
C952 C953 1.367 . S
C952 C960 1.378 . S
C953 C952 1.367 . S
C953 C961 1.433 . S
C954 H950 0.929 . S
C954 C956 1.378 . S
C954 C958 1.350 . S
C955 C958 1.463 1_556 S
C955 C960 1.350 . S
C955 N963 1.427 . S
C956 H947 0.930 . S
C956 C954 1.378 . S
C956 C957 1.367 . S
C957 C956 1.367 . S
C957 C959 1.433 . S
C958 C954 1.350 . S
C958 C955 1.463 1_554 S
C958 N962 1.427 . S
C959 H949 0.929 . S
C959 C957 1.433 . S
C959 N962 1.384 . S
C960 H951 0.929 . S
C960 C952 1.378 . S
C960 C955 1.350 . S
C961 H948 0.929 . S
C961 C953 1.433 . S
C961 N963 1.384 . S
N962 C958 1.427 . S
N962 C959 1.384 . S
N963 C955 1.427 . S
N963 C961 1.384 . S
H964 C970 0.930 . S
H965 C974 0.930 . S
H966 C979 0.929 . S
H967 C977 0.929 . S
H968 C972 0.929 . S
H969 C978 0.929 . S
C970 H964 0.930 . S
C970 C971 1.367 . S
C970 C978 1.378 . S
C971 C970 1.367 . S
C971 C979 1.433 . S
C972 H968 0.929 . S
C972 C974 1.378 . S
C972 C976 1.350 . S
C973 C976 1.463 . S
C973 C978 1.350 . S
C973 N981 1.427 . S
C974 H965 0.930 . S
C974 C972 1.378 . S
C974 C975 1.367 . S
C975 C974 1.367 . S
C975 C977 1.433 . S
C976 C972 1.350 . S
C976 C973 1.463 . S
C976 N980 1.427 . S
C977 H967 0.929 . S
C977 C975 1.433 . S
C977 N980 1.384 . S
C978 H969 0.929 . S
C978 C970 1.378 . S
C978 C973 1.350 . S
C979 H966 0.929 . S
C979 C971 1.433 . S
C979 N981 1.384 . S
N980 C976 1.427 . S
N980 C977 1.384 . S
N981 C973 1.427 . S
N981 C979 1.384 . S
H982 C988 0.930 . S
H983 C992 0.930 . S
H984 C997 0.929 . S
H985 C995 0.929 . S
H986 C990 0.929 . S
H987 C996 0.929 . S
C988 H982 0.930 . S
C988 C989 1.367 . S
C988 C996 1.378 . S
C989 C988 1.367 . S
C989 C997 1.433 . S
C990 H986 0.929 . S
C990 C992 1.378 . S
C990 C994 1.350 . S
C991 C994 1.463 . S
C991 C996 1.350 . S
C991 N999 1.427 . S
C992 H983 0.930 . S
C992 C990 1.378 . S
C992 C993 1.367 . S
C993 C992 1.367 . S
C993 C995 1.433 . S
C994 C990 1.350 . S
C994 C991 1.463 . S
C994 N998 1.427 . S
C995 H985 0.929 . S
C995 C993 1.433 . S
C995 N998 1.384 . S
C996 H987 0.929 . S
C996 C988 1.378 . S
C996 C991 1.350 . S
C997 H984 0.929 . S
C997 C989 1.433 . S
C997 N999 1.384 . S
N998 C994 1.427 . S
N998 C995 1.384 . S
N999 C991 1.427 . S
N999 C997 1.384 . S
H1000 C1006 0.930 . S
H1001 C1010 0.930 . S
H1002 C1015 0.929 . S
H1003 C1013 0.929 . S
H1004 C1008 0.929 . S
H1005 C1014 0.929 . S
C1006 H1000 0.930 . S
C1006 C1007 1.367 . S
C1006 C1014 1.378 . S
C1007 C1006 1.367 . S
C1007 C1015 1.433 . S
C1008 H1004 0.929 . S
C1008 C1010 1.378 . S
C1008 C1012 1.350 . S
C1009 C1012 1.463 1_554 S
C1009 C1014 1.350 . S
C1009 N1017 1.427 . S
C1010 H1001 0.930 . S
C1010 C1008 1.378 . S
C1010 C1011 1.367 . S
C1011 C1010 1.367 . S
C1011 C1013 1.433 . S
C1012 C1008 1.350 . S
C1012 C1009 1.463 1_556 S
C1012 N1016 1.427 . S
C1013 H1003 0.929 . S
C1013 C1011 1.433 . S
C1013 N1016 1.384 . S
C1014 H1005 0.929 . S
C1014 C1006 1.378 . S
C1014 C1009 1.350 . S
C1015 H1002 0.929 . S
C1015 C1007 1.433 . S
C1015 N1017 1.384 . S
N1016 C1012 1.427 . S
N1016 C1013 1.384 . S
N1017 C1009 1.427 . S
N1017 C1015 1.384 . S
H1018 C1024 0.930 . S
H1019 C1028 0.930 . S
H1020 C1033 0.929 . S
H1021 C1031 0.929 . S
H1022 C1026 0.929 . S
H1023 C1032 0.929 . S
C1024 H1018 0.930 . S
C1024 C1025 1.367 . S
C1024 C1032 1.378 . S
C1025 C1024 1.367 . S
C1025 C1033 1.433 . S
C1026 H1022 0.929 . S
C1026 C1028 1.378 . S
C1026 C1030 1.350 . S
C1027 C1030 1.463 1_556 S
C1027 C1032 1.350 . S
C1027 N1035 1.427 . S
C1028 H1019 0.930 . S
C1028 C1026 1.378 . S
C1028 C1029 1.367 . S
C1029 C1028 1.367 . S
C1029 C1031 1.433 . S
C1030 C1026 1.350 . S
C1030 C1027 1.463 1_554 S
C1030 N1034 1.427 . S
C1031 H1021 0.929 . S
C1031 C1029 1.433 . S
C1031 N1034 1.384 . S
C1032 H1023 0.929 . S
C1032 C1024 1.378 . S
C1032 C1027 1.350 . S
C1033 H1020 0.929 . S
C1033 C1025 1.433 . S
C1033 N1035 1.384 . S
N1034 C1030 1.427 . S
N1034 C1031 1.384 . S
N1035 C1027 1.427 . S
N1035 C1033 1.384 . S
H1036 C1042 0.930 . S
H1037 C1046 0.930 . S
H1038 C1051 0.929 . S
H1039 C1049 0.929 . S
H1040 C1044 0.929 . S
H1041 C1050 0.929 . S
C1042 H1036 0.930 . S
C1042 C1043 1.367 . S
C1042 C1050 1.378 . S
C1043 C1042 1.367 . S
C1043 C1051 1.433 . S
C1044 H1040 0.929 . S
C1044 C1046 1.378 . S
C1044 C1048 1.350 . S
C1045 C1048 1.463 . S
C1045 C1050 1.350 . S
C1045 N1053 1.427 . S
C1046 H1037 0.930 . S
C1046 C1044 1.378 . S
C1046 C1047 1.367 . S
C1047 C1046 1.367 . S
C1047 C1049 1.433 . S
C1048 C1044 1.350 . S
C1048 C1045 1.463 . S
C1048 N1052 1.427 . S
C1049 H1039 0.929 . S
C1049 C1047 1.433 . S
C1049 N1052 1.384 . S
C1050 H1041 0.929 . S
C1050 C1042 1.378 . S
C1050 C1045 1.350 . S
C1051 H1038 0.929 . S
C1051 C1043 1.433 . S
C1051 N1053 1.384 . S
N1052 C1048 1.427 . S
N1052 C1049 1.384 . S
N1053 C1045 1.427 . S
N1053 C1051 1.384 . S
H1054 C1060 0.930 . S
H1055 C1064 0.930 . S
H1056 C1069 0.929 . S
H1057 C1067 0.929 . S
H1058 C1062 0.929 . S
H1059 C1068 0.929 . S
C1060 H1054 0.930 . S
C1060 C1061 1.367 . S
C1060 C1068 1.378 . S
C1061 C1060 1.367 . S
C1061 C1069 1.433 . S
C1062 H1058 0.929 . S
C1062 C1064 1.378 . S
C1062 C1066 1.350 . S
C1063 C1066 1.463 . S
C1063 C1068 1.350 . S
C1063 N1071 1.427 . S
C1064 H1055 0.930 . S
C1064 C1062 1.378 . S
C1064 C1065 1.367 . S
C1065 C1064 1.367 . S
C1065 C1067 1.433 . S
C1066 C1062 1.350 . S
C1066 C1063 1.463 . S
C1066 N1070 1.427 . S
C1067 H1057 0.929 . S
C1067 C1065 1.433 . S
C1067 N1070 1.384 . S
C1068 H1059 0.929 . S
C1068 C1060 1.378 . S
C1068 C1063 1.350 . S
C1069 H1056 0.929 . S
C1069 C1061 1.433 . S
C1069 N1071 1.384 . S
N1070 C1066 1.427 . S
N1070 C1067 1.384 . S
N1071 C1063 1.427 . S
N1071 C1069 1.384 . S
H1072 C1078 0.930 . S
H1073 C1082 0.930 . S
H1074 C1087 0.929 . S
H1075 C1085 0.929 . S
H1076 C1080 0.929 . S
H1077 C1086 0.929 . S
C1078 H1072 0.930 . S
C1078 C1079 1.367 . S
C1078 C1086 1.378 . S
C1079 C1078 1.367 . S
C1079 C1087 1.433 1_565 S
C1080 H1076 0.929 . S
C1080 C1082 1.378 . S
C1080 C1084 1.350 . S
C1081 C1084 1.463 1_665 S
C1081 C1086 1.350 . S
C1081 N1089 1.427 1_565 S
C1082 H1073 0.930 . S
C1082 C1080 1.378 . S
C1082 C1083 1.367 . S
C1083 C1082 1.367 . S
C1083 C1085 1.433 1_545 S
C1084 C1080 1.350 . S
C1084 C1081 1.463 1_445 S
C1084 N1088 1.427 1_545 S
C1085 H1075 0.929 . S
C1085 C1083 1.433 1_565 S
C1085 N1088 1.384 . S
C1086 H1077 0.929 . S
C1086 C1078 1.378 . S
C1086 C1081 1.350 . S
C1087 H1074 0.929 . S
C1087 C1079 1.433 1_545 S
C1087 N1089 1.384 . S
N1088 C1084 1.427 1_565 S
N1088 C1085 1.384 . S
N1089 C1081 1.427 1_545 S
N1089 C1087 1.384 . S
H1090 C1096 0.930 . S
H1091 C1100 0.930 . S
H1092 C1105 0.929 . S
H1093 C1103 0.929 . S
H1094 C1098 0.929 . S
H1095 C1104 0.929 . S
C1096 H1090 0.930 . S
C1096 C1097 1.367 1_565 S
C1096 C1104 1.378 . S
C1097 C1096 1.367 1_545 S
C1097 C1105 1.433 . S
C1098 H1094 0.929 . S
C1098 C1100 1.378 . S
C1098 C1102 1.350 1_545 S
C1099 C1102 1.463 1_645 S
C1099 C1104 1.350 1_545 S
C1099 N1107 1.427 . S
C1100 H1091 0.930 . S
C1100 C1098 1.378 . S
C1100 C1101 1.367 1_545 S
C1101 C1100 1.367 1_565 S
C1101 C1103 1.433 . S
C1102 C1098 1.350 1_565 S
C1102 C1099 1.463 1_465 S
C1102 N1106 1.427 . S
C1103 H1093 0.929 . S
C1103 C1101 1.433 . S
C1103 N1106 1.384 . S
C1104 H1095 0.929 . S
C1104 C1096 1.378 . S
C1104 C1099 1.350 1_565 S
C1105 H1092 0.929 . S
C1105 C1097 1.433 . S
C1105 N1107 1.384 . S
N1106 C1102 1.427 . S
N1106 C1103 1.384 . S
N1107 C1099 1.427 . S
N1107 C1105 1.384 . S
H1108 C1114 0.930 . S
H1109 C1118 0.930 . S
H1110 C1123 0.929 . S
H1111 C1121 0.929 . S
H1112 C1116 0.929 . S
H1113 C1122 0.929 . S
C1114 H1108 0.930 . S
C1114 C1115 1.367 1_565 S
C1114 C1122 1.378 . S
C1115 C1114 1.367 1_545 S
C1115 C1123 1.433 . S
C1116 H1112 0.929 . S
C1116 C1118 1.378 . S
C1116 C1120 1.350 1_545 S
C1117 C1120 1.463 1_445 S
C1117 C1122 1.350 1_545 S
C1117 N1125 1.427 . S
C1118 H1109 0.930 . S
C1118 C1116 1.378 . S
C1118 C1119 1.367 1_545 S
C1119 C1118 1.367 1_565 S
C1119 C1121 1.433 . S
C1120 C1116 1.350 1_565 S
C1120 C1117 1.463 1_665 S
C1120 N1124 1.427 . S
C1121 H1111 0.929 . S
C1121 C1119 1.433 . S
C1121 N1124 1.384 . S
C1122 H1113 0.929 . S
C1122 C1114 1.378 . S
C1122 C1117 1.350 1_565 S
C1123 H1110 0.929 . S
C1123 C1115 1.433 . S
C1123 N1125 1.384 . S
N1124 C1120 1.427 . S
N1124 C1121 1.384 . S
N1125 C1117 1.427 . S
N1125 C1123 1.384 . S
H1126 C1132 0.930 . S
H1127 C1136 0.930 . S
H1128 C1141 0.929 . S
H1129 C1139 0.929 . S
H1130 C1134 0.929 . S
H1131 C1140 0.929 . S
C1132 H1126 0.930 . S
C1132 C1133 1.367 . S
C1132 C1140 1.378 . S
C1133 C1132 1.367 . S
C1133 C1141 1.433 1_545 S
C1134 H1130 0.929 . S
C1134 C1136 1.378 . S
C1134 C1138 1.350 . S
C1135 C1138 1.463 1_645 S
C1135 C1140 1.350 . S
C1135 N1143 1.427 1_545 S
C1136 H1127 0.930 . S
C1136 C1134 1.378 . S
C1136 C1137 1.367 . S
C1137 C1136 1.367 . S
C1137 C1139 1.433 1_565 S
C1138 C1134 1.350 . S
C1138 C1135 1.463 1_465 S
C1138 N1142 1.427 1_565 S
C1139 H1129 0.929 . S
C1139 C1137 1.433 1_545 S
C1139 N1142 1.384 . S
C1140 H1131 0.929 . S
C1140 C1132 1.378 . S
C1140 C1135 1.350 . S
C1141 H1128 0.929 . S
C1141 C1133 1.433 1_565 S
C1141 N1143 1.384 . S
N1142 C1138 1.427 1_545 S
N1142 C1139 1.384 . S
N1143 C1135 1.427 1_565 S
N1143 C1141 1.384 . S
H1144 C1150 0.930 . S
H1145 C1154 0.930 . S
H1146 C1159 0.929 . S
H1147 C1157 0.929 . S
H1148 C1152 0.929 . S
H1149 C1158 0.929 . S
C1150 H1144 0.930 . S
C1150 C1151 1.367 . S
C1150 C1158 1.378 . S
C1151 C1150 1.367 . S
C1151 C1159 1.433 . S
C1152 H1148 0.929 . S
C1152 C1154 1.378 . S
C1152 C1156 1.350 . S
C1153 C1156 1.463 . S
C1153 C1158 1.350 . S
C1153 N1161 1.427 . S
C1154 H1145 0.930 . S
C1154 C1152 1.378 . S
C1154 C1155 1.367 . S
C1155 C1154 1.367 . S
C1155 C1157 1.433 . S
C1156 C1152 1.350 . S
C1156 C1153 1.463 . S
C1156 N1160 1.427 . S
C1157 H1147 0.929 . S
C1157 C1155 1.433 . S
C1157 N1160 1.384 . S
C1158 H1149 0.929 . S
C1158 C1150 1.378 . S
C1158 C1153 1.350 . S
C1159 H1146 0.929 . S
C1159 C1151 1.433 . S
C1159 N1161 1.384 . S
N1160 C1156 1.427 . S
N1160 C1157 1.384 . S
N1161 C1153 1.427 . S
N1161 C1159 1.384 . S
H1162 C1168 0.930 . S
H1163 C1172 0.930 . S
H1164 C1177 0.929 . S
H1165 C1175 0.929 . S
H1166 C1170 0.929 . S
H1167 C1176 0.929 . S
C1168 H1162 0.930 . S
C1168 C1169 1.367 . S
C1168 C1176 1.378 . S
C1169 C1168 1.367 . S
C1169 C1177 1.433 . S
C1170 H1166 0.929 . S
C1170 C1172 1.378 . S
C1170 C1174 1.350 . S
C1171 C1174 1.463 . S
C1171 C1176 1.350 . S
C1171 N1179 1.427 . S
C1172 H1163 0.930 . S
C1172 C1170 1.378 . S
C1172 C1173 1.367 . S
C1173 C1172 1.367 . S
C1173 C1175 1.433 . S
C1174 C1170 1.350 . S
C1174 C1171 1.463 . S
C1174 N1178 1.427 . S
C1175 H1165 0.929 . S
C1175 C1173 1.433 . S
C1175 N1178 1.384 . S
C1176 H1167 0.929 . S
C1176 C1168 1.378 . S
C1176 C1171 1.350 . S
C1177 H1164 0.929 . S
C1177 C1169 1.433 . S
C1177 N1179 1.384 . S
N1178 C1174 1.427 . S
N1178 C1175 1.384 . S
N1179 C1171 1.427 . S
N1179 C1177 1.384 . S
H1180 C1186 0.930 . S
H1181 C1190 0.930 . S
H1182 C1195 0.929 . S
H1183 C1193 0.929 . S
H1184 C1188 0.929 . S
H1185 C1194 0.929 . S
C1186 H1180 0.930 . S
C1186 C1187 1.367 . S
C1186 C1194 1.378 . S
C1187 C1186 1.367 . S
C1187 C1195 1.433 . S
C1188 H1184 0.929 . S
C1188 C1190 1.378 . S
C1188 C1192 1.350 . S
C1189 C1192 1.463 . S
C1189 C1194 1.350 . S
C1189 N1197 1.427 . S
C1190 H1181 0.930 . S
C1190 C1188 1.378 . S
C1190 C1191 1.367 . S
C1191 C1190 1.367 . S
C1191 C1193 1.433 . S
C1192 C1188 1.350 . S
C1192 C1189 1.463 . S
C1192 N1196 1.427 . S
C1193 H1183 0.929 . S
C1193 C1191 1.433 . S
C1193 N1196 1.384 . S
C1194 H1185 0.929 . S
C1194 C1186 1.378 . S
C1194 C1189 1.350 . S
C1195 H1182 0.929 . S
C1195 C1187 1.433 . S
C1195 N1197 1.384 . S
N1196 C1192 1.427 . S
N1196 C1193 1.384 . S
N1197 C1189 1.427 . S
N1197 C1195 1.384 . S
H1198 C1204 0.930 . S
H1199 C1208 0.930 . S
H1200 C1213 0.929 . S
H1201 C1211 0.929 . S
H1202 C1206 0.929 . S
H1203 C1212 0.929 . S
C1204 H1198 0.930 . S
C1204 C1205 1.367 . S
C1204 C1212 1.378 . S
C1205 C1204 1.367 . S
C1205 C1213 1.433 . S
C1206 H1202 0.929 . S
C1206 C1208 1.378 . S
C1206 C1210 1.350 . S
C1207 C1210 1.463 . S
C1207 C1212 1.350 . S
C1207 N1215 1.427 . S
C1208 H1199 0.930 . S
C1208 C1206 1.378 . S
C1208 C1209 1.367 . S
C1209 C1208 1.367 . S
C1209 C1211 1.433 . S
C1210 C1206 1.350 . S
C1210 C1207 1.463 . S
C1210 N1214 1.427 . S
C1211 H1201 0.929 . S
C1211 C1209 1.433 . S
C1211 N1214 1.384 . S
C1212 H1203 0.929 . S
C1212 C1204 1.378 . S
C1212 C1207 1.350 . S
C1213 H1200 0.929 . S
C1213 C1205 1.433 . S
C1213 N1215 1.384 . S
N1214 C1210 1.427 . S
N1214 C1211 1.384 . S
N1215 C1207 1.427 . S
N1215 C1213 1.384 . S
H1216 C1222 0.930 . S
H1217 C1226 0.930 . S
H1218 C1231 0.929 . S
H1219 C1229 0.929 . S
H1220 C1224 0.929 . S
H1221 C1230 0.929 . S
C1222 H1216 0.930 . S
C1222 C1223 1.367 . S
C1222 C1230 1.378 . S
C1223 C1222 1.367 . S
C1223 C1231 1.433 . S
C1224 H1220 0.929 . S
C1224 C1226 1.378 . S
C1224 C1228 1.350 . S
C1225 C1228 1.463 . S
C1225 C1230 1.350 . S
C1225 N1233 1.427 . S
C1226 H1217 0.930 . S
C1226 C1224 1.378 . S
C1226 C1227 1.367 . S
C1227 C1226 1.367 . S
C1227 C1229 1.433 . S
C1228 C1224 1.350 . S
C1228 C1225 1.463 . S
C1228 N1232 1.427 . S
C1229 H1219 0.929 . S
C1229 C1227 1.433 . S
C1229 N1232 1.384 . S
C1230 H1221 0.929 . S
C1230 C1222 1.378 . S
C1230 C1225 1.350 . S
C1231 H1218 0.929 . S
C1231 C1223 1.433 . S
C1231 N1233 1.384 . S
N1232 C1228 1.427 . S
N1232 C1229 1.384 . S
N1233 C1225 1.427 . S
N1233 C1231 1.384 . S
H1234 C1240 0.930 . S
H1235 C1244 0.930 . S
H1236 C1249 0.929 . S
H1237 C1247 0.929 . S
H1238 C1242 0.929 . S
H1239 C1248 0.929 . S
C1240 H1234 0.930 . S
C1240 C1241 1.367 . S
C1240 C1248 1.378 . S
C1241 C1240 1.367 . S
C1241 C1249 1.433 . S
C1242 H1238 0.929 . S
C1242 C1244 1.378 . S
C1242 C1246 1.350 . S
C1243 C1246 1.463 . S
C1243 C1248 1.350 . S
C1243 N1251 1.427 . S
C1244 H1235 0.930 . S
C1244 C1242 1.378 . S
C1244 C1245 1.367 . S
C1245 C1244 1.367 . S
C1245 C1247 1.433 . S
C1246 C1242 1.350 . S
C1246 C1243 1.463 . S
C1246 N1250 1.427 . S
C1247 H1237 0.929 . S
C1247 C1245 1.433 . S
C1247 N1250 1.384 . S
C1248 H1239 0.929 . S
C1248 C1240 1.378 . S
C1248 C1243 1.350 . S
C1249 H1236 0.929 . S
C1249 C1241 1.433 . S
C1249 N1251 1.384 . S
N1250 C1246 1.427 . S
N1250 C1247 1.384 . S
N1251 C1243 1.427 . S
N1251 C1249 1.384 . S
H1252 C1258 0.930 . S
H1253 C1262 0.930 . S
H1254 C1267 0.929 . S
H1255 C1265 0.929 . S
H1256 C1260 0.929 . S
H1257 C1266 0.929 . S
C1258 H1252 0.930 . S
C1258 C1259 1.367 . S
C1258 C1266 1.378 . S
C1259 C1258 1.367 . S
C1259 C1267 1.433 . S
C1260 H1256 0.929 . S
C1260 C1262 1.378 . S
C1260 C1264 1.350 . S
C1261 C1264 1.463 . S
C1261 C1266 1.350 . S
C1261 N1269 1.427 . S
C1262 H1253 0.930 . S
C1262 C1260 1.378 . S
C1262 C1263 1.367 . S
C1263 C1262 1.367 . S
C1263 C1265 1.433 . S
C1264 C1260 1.350 . S
C1264 C1261 1.463 . S
C1264 N1268 1.427 . S
C1265 H1255 0.929 . S
C1265 C1263 1.433 . S
C1265 N1268 1.384 . S
C1266 H1257 0.929 . S
C1266 C1258 1.378 . S
C1266 C1261 1.350 . S
C1267 H1254 0.929 . S
C1267 C1259 1.433 . S
C1267 N1269 1.384 . S
N1268 C1264 1.427 . S
N1268 C1265 1.384 . S
N1269 C1261 1.427 . S
N1269 C1267 1.384 . S
H1270 C1276 0.930 . S
H1271 C1280 0.930 . S
H1272 C1285 0.929 . S
H1273 C1283 0.929 . S
H1274 C1278 0.929 . S
H1275 C1284 0.929 . S
C1276 H1270 0.930 . S
C1276 C1277 1.367 . S
C1276 C1284 1.378 . S
C1277 C1276 1.367 . S
C1277 C1285 1.433 . S
C1278 H1274 0.929 . S
C1278 C1280 1.378 . S
C1278 C1282 1.350 . S
C1279 C1282 1.463 . S
C1279 C1284 1.350 . S
C1279 N1287 1.427 . S
C1280 H1271 0.930 . S
C1280 C1278 1.378 . S
C1280 C1281 1.367 . S
C1281 C1280 1.367 . S
C1281 C1283 1.433 . S
C1282 C1278 1.350 . S
C1282 C1279 1.463 . S
C1282 N1286 1.427 . S
C1283 H1273 0.929 . S
C1283 C1281 1.433 . S
C1283 N1286 1.384 . S
C1284 H1275 0.929 . S
C1284 C1276 1.378 . S
C1284 C1279 1.350 . S
C1285 H1272 0.929 . S
C1285 C1277 1.433 . S
C1285 N1287 1.384 . S
N1286 C1282 1.427 . S
N1286 C1283 1.384 . S
N1287 C1279 1.427 . S
N1287 C1285 1.384 . S
H1288 C1294 0.930 . S
H1289 C1298 0.930 . S
H1290 C1303 0.929 . S
H1291 C1301 0.929 . S
H1292 C1296 0.929 . S
H1293 C1302 0.929 . S
C1294 H1288 0.930 . S
C1294 C1295 1.367 . S
C1294 C1302 1.378 . S
C1295 C1294 1.367 . S
C1295 C1303 1.433 . S
C1296 H1292 0.929 . S
C1296 C1298 1.378 . S
C1296 C1300 1.350 . S
C1297 C1300 1.463 . S
C1297 C1302 1.350 . S
C1297 N1305 1.427 . S
C1298 H1289 0.930 . S
C1298 C1296 1.378 . S
C1298 C1299 1.367 . S
C1299 C1298 1.367 . S
C1299 C1301 1.433 . S
C1300 C1296 1.350 . S
C1300 C1297 1.463 . S
C1300 N1304 1.427 . S
C1301 H1291 0.929 . S
C1301 C1299 1.433 . S
C1301 N1304 1.384 . S
C1302 H1293 0.929 . S
C1302 C1294 1.378 . S
C1302 C1297 1.350 . S
C1303 H1290 0.929 . S
C1303 C1295 1.433 . S
C1303 N1305 1.384 . S
N1304 C1300 1.427 . S
N1304 C1301 1.384 . S
N1305 C1297 1.427 . S
N1305 C1303 1.384 . S
H1306 C1312 0.930 . S
H1307 C1316 0.930 . S
H1308 C1321 0.929 . S
H1309 C1319 0.929 . S
H1310 C1314 0.929 . S
H1311 C1320 0.929 . S
C1312 H1306 0.930 . S
C1312 C1313 1.367 . S
C1312 C1320 1.378 . S
C1313 C1312 1.367 . S
C1313 C1321 1.433 . S
C1314 H1310 0.929 . S
C1314 C1316 1.378 . S
C1314 C1318 1.350 . S
C1315 C1318 1.463 . S
C1315 C1320 1.350 . S
C1315 N1323 1.427 . S
C1316 H1307 0.930 . S
C1316 C1314 1.378 . S
C1316 C1317 1.367 . S
C1317 C1316 1.367 . S
C1317 C1319 1.433 . S
C1318 C1314 1.350 . S
C1318 C1315 1.463 . S
C1318 N1322 1.427 . S
C1319 H1309 0.929 . S
C1319 C1317 1.433 . S
C1319 N1322 1.384 . S
C1320 H1311 0.929 . S
C1320 C1312 1.378 . S
C1320 C1315 1.350 . S
C1321 H1308 0.929 . S
C1321 C1313 1.433 . S
C1321 N1323 1.384 . S
N1322 C1318 1.427 . S
N1322 C1319 1.384 . S
N1323 C1315 1.427 . S
N1323 C1321 1.384 . S
H1324 C1330 0.930 . S
H1325 C1334 0.930 . S
H1326 C1339 0.929 . S
H1327 C1337 0.929 . S
H1328 C1332 0.929 . S
H1329 C1338 0.929 . S
C1330 H1324 0.930 . S
C1330 C1331 1.367 . S
C1330 C1338 1.378 . S
C1331 C1330 1.367 . S
C1331 C1339 1.433 . S
C1332 H1328 0.929 . S
C1332 C1334 1.378 . S
C1332 C1336 1.350 . S
C1333 C1336 1.463 . S
C1333 C1338 1.350 . S
C1333 N1341 1.427 . S
C1334 H1325 0.930 . S
C1334 C1332 1.378 . S
C1334 C1335 1.367 . S
C1335 C1334 1.367 . S
C1335 C1337 1.433 . S
C1336 C1332 1.350 . S
C1336 C1333 1.463 . S
C1336 N1340 1.427 . S
C1337 H1327 0.929 . S
C1337 C1335 1.433 . S
C1337 N1340 1.384 . S
C1338 H1329 0.929 . S
C1338 C1330 1.378 . S
C1338 C1333 1.350 . S
C1339 H1326 0.929 . S
C1339 C1331 1.433 . S
C1339 N1341 1.384 . S
N1340 C1336 1.427 . S
N1340 C1337 1.384 . S
N1341 C1333 1.427 . S
N1341 C1339 1.384 . S
H1342 C1348 0.930 . S
H1343 C1352 0.930 . S
H1344 C1357 0.929 . S
H1345 C1355 0.929 . S
H1346 C1350 0.929 . S
H1347 C1356 0.929 . S
C1348 H1342 0.930 . S
C1348 C1349 1.367 . S
C1348 C1356 1.378 . S
C1349 C1348 1.367 . S
C1349 C1357 1.433 . S
C1350 H1346 0.929 . S
C1350 C1352 1.378 . S
C1350 C1354 1.350 . S
C1351 C1354 1.463 . S
C1351 C1356 1.350 . S
C1351 N1359 1.427 . S
C1352 H1343 0.930 . S
C1352 C1350 1.378 . S
C1352 C1353 1.367 . S
C1353 C1352 1.367 . S
C1353 C1355 1.433 . S
C1354 C1350 1.350 . S
C1354 C1351 1.463 . S
C1354 N1358 1.427 . S
C1355 H1345 0.929 . S
C1355 C1353 1.433 . S
C1355 N1358 1.384 . S
C1356 H1347 0.929 . S
C1356 C1348 1.378 . S
C1356 C1351 1.350 . S
C1357 H1344 0.929 . S
C1357 C1349 1.433 . S
C1357 N1359 1.384 . S
N1358 C1354 1.427 . S
N1358 C1355 1.384 . S
N1359 C1351 1.427 . S
N1359 C1357 1.384 . S
H1360 C1366 0.930 1_565 S
H1361 C1370 0.930 . S
H1362 C1375 0.929 . S
H1363 C1373 0.929 . S
H1364 C1368 0.929 . S
H1365 C1374 0.929 . S
C1366 H1360 0.930 1_545 S
C1366 C1367 1.367 1_545 S
C1366 C1374 1.378 . S
C1367 C1366 1.367 1_565 S
C1367 C1375 1.433 . S
C1368 H1364 0.929 . S
C1368 C1370 1.378 . S
C1368 C1372 1.350 . S
C1369 C1372 1.463 . S
C1369 C1374 1.350 . S
C1369 N1377 1.427 . S
C1370 H1361 0.930 . S
C1370 C1368 1.378 . S
C1370 C1371 1.367 . S
C1371 C1370 1.367 . S
C1371 C1373 1.433 . S
C1372 C1368 1.350 . S
C1372 C1369 1.463 . S
C1372 N1376 1.427 . S
C1373 H1363 0.929 . S
C1373 C1371 1.433 . S
C1373 N1376 1.384 . S
C1374 H1365 0.929 . S
C1374 C1366 1.378 . S
C1374 C1369 1.350 . S
C1375 H1362 0.929 . S
C1375 C1367 1.433 . S
C1375 N1377 1.384 1_565 S
N1376 C1372 1.427 . S
N1376 C1373 1.384 . S
N1377 C1369 1.427 . S
N1377 C1375 1.384 1_545 S
H1378 C1384 0.930 . S
H1379 C1388 0.930 . S
H1380 C1393 0.929 . S
H1381 C1391 0.929 . S
H1382 C1386 0.929 . S
H1383 C1392 0.929 . S
C1384 H1378 0.930 . S
C1384 C1385 1.367 . S
C1384 C1392 1.378 . S
C1385 C1384 1.367 . S
C1385 C1393 1.433 . S
C1386 H1382 0.929 . S
C1386 C1388 1.378 1_565 S
C1386 C1390 1.350 . S
C1387 C1390 1.463 . S
C1387 C1392 1.350 . S
C1387 N1395 1.427 . S
C1388 H1379 0.930 . S
C1388 C1386 1.378 1_545 S
C1388 C1389 1.367 . S
C1389 C1388 1.367 . S
C1389 C1391 1.433 . S
C1390 C1386 1.350 . S
C1390 C1387 1.463 . S
C1390 N1394 1.427 . S
C1391 H1381 0.929 . S
C1391 C1389 1.433 . S
C1391 N1394 1.384 1_545 S
C1392 H1383 0.929 . S
C1392 C1384 1.378 . S
C1392 C1387 1.350 . S
C1393 H1380 0.929 . S
C1393 C1385 1.433 . S
C1393 N1395 1.384 . S
N1394 C1390 1.427 . S
N1394 C1391 1.384 1_565 S
N1395 C1387 1.427 . S
N1395 C1393 1.384 . S
H1396 C1402 0.930 . S
H1397 C1406 0.930 . S
H1398 C1411 0.929 . S
H1399 C1409 0.929 . S
H1400 C1404 0.929 . S
H1401 C1410 0.929 . S
C1402 H1396 0.930 . S
C1402 C1403 1.367 . S
C1402 C1410 1.378 1_545 S
C1403 C1402 1.367 . S
C1403 C1411 1.433 . S
C1404 H1400 0.929 . S
C1404 C1406 1.378 . S
C1404 C1408 1.350 . S
C1405 C1408 1.463 . S
C1405 C1410 1.350 . S
C1405 N1413 1.427 . S
C1406 H1397 0.930 . S
C1406 C1404 1.378 . S
C1406 C1407 1.367 . S
C1407 C1406 1.367 . S
C1407 C1409 1.433 . S
C1408 C1404 1.350 . S
C1408 C1405 1.463 . S
C1408 N1412 1.427 . S
C1409 H1399 0.929 . S
C1409 C1407 1.433 . S
C1409 N1412 1.384 . S
C1410 H1401 0.929 . S
C1410 C1402 1.378 1_565 S
C1410 C1405 1.350 . S
C1411 H1398 0.929 . S
C1411 C1403 1.433 . S
C1411 N1413 1.384 1_545 S
N1412 C1408 1.427 . S
N1412 C1409 1.384 . S
N1413 C1405 1.427 . S
N1413 C1411 1.384 1_565 S
H1414 C1420 0.930 . S
H1415 C1424 0.930 . S
H1416 C1429 0.929 1_565 S
H1417 C1427 0.929 . S
H1418 C1422 0.929 . S
H1419 C1428 0.929 . S
C1420 H1414 0.930 . S
C1420 C1421 1.367 . S
C1420 C1428 1.378 1_565 S
C1421 C1420 1.367 . S
C1421 C1429 1.433 1_565 S
C1422 H1418 0.929 . S
C1422 C1424 1.378 . S
C1422 C1426 1.350 . S
C1423 C1426 1.463 . S
C1423 C1428 1.350 . S
C1423 N1431 1.427 . S
C1424 H1415 0.930 . S
C1424 C1422 1.378 . S
C1424 C1425 1.367 . S
C1425 C1424 1.367 . S
C1425 C1427 1.433 . S
C1426 C1422 1.350 . S
C1426 C1423 1.463 . S
C1426 N1430 1.427 . S
C1427 H1417 0.929 . S
C1427 C1425 1.433 . S
C1427 N1430 1.384 . S
C1428 H1419 0.929 . S
C1428 C1420 1.378 1_545 S
C1428 C1423 1.350 . S
C1429 H1416 0.929 1_545 S
C1429 C1421 1.433 1_545 S
C1429 N1431 1.384 . S
N1430 C1426 1.427 . S
N1430 C1427 1.384 . S
N1431 C1423 1.427 . S
N1431 C1429 1.384 . S
H1432 C1438 0.930 . S
H1433 C1442 0.930 1_545 S
H1434 C1447 0.929 . S
H1435 C1445 0.929 . S
H1436 C1440 0.929 . S
H1437 C1446 0.929 . S
C1438 H1432 0.930 . S
C1438 C1439 1.367 . S
C1438 C1446 1.378 . S
C1439 C1438 1.367 . S
C1439 C1447 1.433 . S
C1440 H1436 0.929 . S
C1440 C1442 1.378 . S
C1440 C1444 1.350 . S
C1441 C1444 1.463 . S
C1441 C1446 1.350 . S
C1441 N1449 1.427 . S
C1442 H1433 0.930 1_565 S
C1442 C1440 1.378 . S
C1442 C1443 1.367 1_565 S
C1443 C1442 1.367 1_545 S
C1443 C1445 1.433 . S
C1444 C1440 1.350 . S
C1444 C1441 1.463 . S
C1444 N1448 1.427 . S
C1445 H1435 0.929 . S
C1445 C1443 1.433 . S
C1445 N1448 1.384 1_545 S
C1446 H1437 0.929 . S
C1446 C1438 1.378 . S
C1446 C1441 1.350 . S
C1447 H1434 0.929 . S
C1447 C1439 1.433 . S
C1447 N1449 1.384 . S
N1448 C1444 1.427 . S
N1448 C1445 1.384 1_565 S
N1449 C1441 1.427 . S
N1449 C1447 1.384 . S
H1450 C1456 0.930 . S
H1451 C1460 0.930 . S
H1452 C1465 0.929 . S
H1453 C1463 0.929 . S
H1454 C1458 0.929 . S
H1455 C1464 0.929 . S
C1456 H1450 0.930 . S
C1456 C1457 1.367 . S
C1456 C1464 1.378 . S
C1457 C1456 1.367 . S
C1457 C1465 1.433 . S
C1458 H1454 0.929 . S
C1458 C1460 1.378 1_545 S
C1458 C1462 1.350 . S
C1459 C1462 1.463 . S
C1459 C1464 1.350 . S
C1459 N1467 1.427 . S
C1460 H1451 0.930 . S
C1460 C1458 1.378 1_565 S
C1460 C1461 1.367 . S
C1461 C1460 1.367 . S
C1461 C1463 1.433 . S
C1462 C1458 1.350 . S
C1462 C1459 1.463 . S
C1462 N1466 1.427 . S
C1463 H1453 0.929 . S
C1463 C1461 1.433 . S
C1463 N1466 1.384 1_565 S
C1464 H1455 0.929 . S
C1464 C1456 1.378 . S
C1464 C1459 1.350 . S
C1465 H1452 0.929 . S
C1465 C1457 1.433 . S
C1465 N1467 1.384 . S
N1466 C1462 1.427 . S
N1466 C1463 1.384 1_545 S
N1467 C1459 1.427 . S
N1467 C1465 1.384 . S
H1468 C1474 0.930 . S
H1469 C1478 0.930 . S
H1470 C1483 0.929 . S
H1471 C1481 0.929 . S
H1472 C1476 0.929 . S
H1473 C1482 0.929 . S
C1474 H1468 0.930 . S
C1474 C1475 1.367 . S
C1474 C1482 1.378 1_565 S
C1475 C1474 1.367 . S
C1475 C1483 1.433 . S
C1476 H1472 0.929 . S
C1476 C1478 1.378 . S
C1476 C1480 1.350 . S
C1477 C1480 1.463 . S
C1477 C1482 1.350 . S
C1477 N1485 1.427 . S
C1478 H1469 0.930 . S
C1478 C1476 1.378 . S
C1478 C1479 1.367 . S
C1479 C1478 1.367 . S
C1479 C1481 1.433 . S
C1480 C1476 1.350 . S
C1480 C1477 1.463 . S
C1480 N1484 1.427 . S
C1481 H1471 0.929 . S
C1481 C1479 1.433 . S
C1481 N1484 1.384 . S
C1482 H1473 0.929 . S
C1482 C1474 1.378 1_545 S
C1482 C1477 1.350 . S
C1483 H1470 0.929 . S
C1483 C1475 1.433 . S
C1483 N1485 1.384 1_565 S
N1484 C1480 1.427 . S
N1484 C1481 1.384 . S
N1485 C1477 1.427 . S
N1485 C1483 1.384 1_545 S
H1486 C1492 0.930 . S
H1487 C1496 0.930 1_545 S
H1488 C1501 0.929 . S
H1489 C1499 0.929 . S
H1490 C1494 0.929 . S
H1491 C1500 0.929 . S
C1492 H1486 0.930 . S
C1492 C1493 1.367 . S
C1492 C1500 1.378 . S
C1493 C1492 1.367 . S
C1493 C1501 1.433 . S
C1494 H1490 0.929 . S
C1494 C1496 1.378 . S
C1494 C1498 1.350 . S
C1495 C1498 1.463 . S
C1495 C1500 1.350 . S
C1495 N1503 1.427 . S
C1496 H1487 0.930 1_565 S
C1496 C1494 1.378 . S
C1496 C1497 1.367 1_565 S
C1497 C1496 1.367 1_545 S
C1497 C1499 1.433 . S
C1498 C1494 1.350 . S
C1498 C1495 1.463 . S
C1498 N1502 1.427 . S
C1499 H1489 0.929 . S
C1499 C1497 1.433 . S
C1499 N1502 1.384 1_545 S
C1500 H1491 0.929 . S
C1500 C1492 1.378 . S
C1500 C1495 1.350 . S
C1501 H1488 0.929 . S
C1501 C1493 1.433 . S
C1501 N1503 1.384 . S
N1502 C1498 1.427 . S
N1502 C1499 1.384 1_565 S
N1503 C1495 1.427 . S
N1503 C1501 1.384 . S
C647 C11 1.542 . S
C651 C371 1.542 . S
C665 C51 1.540 . S
C669 C331 1.543 . S
C683 C451 1.540 . S
C687 C91 1.544 . S
C701 C131 1.543 . S
C705 C411 1.540 . S
C719 C522 1.544 . S
C723 C162 1.540 . S
C737 C482 1.540 . S
C741 C202 1.544 . S
C755 C602 1.543 . S
C759 C242 1.540 . S
C773 C282 1.542 . S
C777 C562 1.543 . S
C791 C99 1.681 . S
C795 C19 1.680 . S
C809 C139 1.678 . S
C813 C59 1.682 . S
C827 C250 1.680 . S
C831 C170 1.677 . S
C845 C210 1.678 . S
C849 C290 1.682 . S
C863 C419 1.682 . S
C867 C339 1.679 . S
C881 C459 1.677 . S
C885 C379 1.679 . S
C899 C490 1.681 . S
C903 C570 1.679 . S
C917 C530 1.677 . S
C921 C610 1.681 . S
C935 C219 1.527 . S
C939 C10 1.542 . S
C953 C179 1.527 . S
C957 C50 1.542 . S
C971 C90 1.528 . S
C975 C299 1.541 . S
C989 C259 1.539 . S
C993 C130 1.530 . S
C1007 C330 1.538 . S
C1011 C539 1.531 . S
C1025 C499 1.527 . S
C1029 C370 1.542 . S
C1043 C410 1.542 . S
C1047 C619 1.527 . S
C1061 C579 1.542 . S
C1065 C450 1.527 . S
C1079 C42 1.613 . S
C1083 C2 1.612 . S
C1097 C122 1.620 . S
C1101 C82 1.623 . S
C1115 C211 1.623 . S
C1119 C171 1.620 . S
C1133 C251 1.613 . S
C1137 C291 1.613 . S
C1151 C362 1.622 . S
C1155 C322 1.619 . S
C1169 C442 1.624 . S
C1173 C402 1.624 . S
C1187 C491 1.615 . S
C1191 C531 1.618 . S
C1205 C571 1.619 . S
C1209 C611 1.616 . S
C1223 C7 1.642 . S
C1227 C16 1.642 . S
C1241 C47 1.639 . S
C1245 C56 1.639 . S
C1259 C87 1.641 . S
C1263 C96 1.641 . S
C1277 C136 1.635 . S
C1281 C127 1.635 . S
C1295 C176 1.643 . S
C1299 C167 1.643 . S
C1313 C207 1.644 . S
C1317 C216 1.644 . S
C1331 C256 1.635 . S
C1335 C247 1.635 . S
C1349 C296 1.639 . S
C1353 C287 1.639 . S
C1367 C336 1.644 . S
C1371 C327 1.644 . S
C1385 C367 1.638 . S
C1389 C376 1.638 . S
C1403 C416 1.639 . S
C1407 C407 1.639 . S
C1421 C456 1.636 . S
C1425 C447 1.636 . S
C1439 C496 1.644 . S
C1443 C487 1.644 . S
C1457 C536 1.641 . S
C1461 C527 1.641 . S
C1475 C567 1.642 . S
C1479 C576 1.642 . S
C1493 C616 1.644 . S
C1497 C607 1.644 . S
