# Generated by pormake.
# Topology uke, (4)-cn, num edge types: 1
# Building blocks:
#     Node 0, Type 0, BuildingBlock: KUFVIS_clean_sbu_0, # of connection points: 4
#     Node 1, Type 0, BuildingBlock: KUFVIS_clean_sbu_0, # of connection points: 4
#     Node 2, Type 0, BuildingBlock: KUFVIS_clean_sbu_0, # of connection points: 4
#     Node 3, Type 0, BuildingBlock: KUFVIS_clean_sbu_0, # of connection points: 4
#     Node 4, Type 0, BuildingBlock: KUFVIS_clean_sbu_0, # of connection points: 4
#     Node 5, Type 0, BuildingBlock: KUFVIS_clean_sbu_0, # of connection points: 4
#     Node 6, Type 0, BuildingBlock: KUFVIS_clean_sbu_0, # of connection points: 4
#     Node 7, Type 0, BuildingBlock: KUFVIS_clean_sbu_0, # of connection points: 4
#     Node 8, Type 0, BuildingBlock: KUFVIS_clean_sbu_0, # of connection points: 4
#     Node 9, Type 0, BuildingBlock: KUFVIS_clean_sbu_0, # of connection points: 4
#     Node 10, Type 0, BuildingBlock: KUFVIS_clean_sbu_0, # of connection points: 4
#     Node 11, Type 0, BuildingBlock: KUFVIS_clean_sbu_0, # of connection points: 4
#     Node 12, Type 0, BuildingBlock: KUFVIS_clean_sbu_0, # of connection points: 4
#     Node 13, Type 0, BuildingBlock: KUFVIS_clean_sbu_0, # of connection points: 4
#     Node 14, Type 0, BuildingBlock: KUFVIS_clean_sbu_0, # of connection points: 4
#     Node 15, Type 0, BuildingBlock: KUFVIS_clean_sbu_0, # of connection points: 4
#     Node 16, Type 0, BuildingBlock: KUFVIS_clean_sbu_0, # of connection points: 4
#     Node 17, Type 0, BuildingBlock: KUFVIS_clean_sbu_0, # of connection points: 4
#     Node 18, Type 0, BuildingBlock: KUFVIS_clean_sbu_0, # of connection points: 4
#     Node 19, Type 0, BuildingBlock: KUFVIS_clean_sbu_0, # of connection points: 4
#     Node 20, Type 0, BuildingBlock: KUFVIS_clean_sbu_0, # of connection points: 4
#     Node 21, Type 0, BuildingBlock: KUFVIS_clean_sbu_0, # of connection points: 4
#     Node 22, Type 0, BuildingBlock: KUFVIS_clean_sbu_0, # of connection points: 4
#     Node 23, Type 0, BuildingBlock: KUFVIS_clean_sbu_0, # of connection points: 4
#     Node 24, Type 0, BuildingBlock: KUFVIS_clean_sbu_0, # of connection points: 4
#     Node 25, Type 0, BuildingBlock: KUFVIS_clean_sbu_0, # of connection points: 4
#     Node 26, Type 0, BuildingBlock: KUFVIS_clean_sbu_0, # of connection points: 4
#     Node 27, Type 0, BuildingBlock: KUFVIS_clean_sbu_0, # of connection points: 4
#     Node 28, Type 0, BuildingBlock: KUFVIS_clean_sbu_0, # of connection points: 4
#     Node 29, Type 0, BuildingBlock: KUFVIS_clean_sbu_0, # of connection points: 4
#     Node 30, Type 0, BuildingBlock: KUFVIS_clean_sbu_0, # of connection points: 4
#     Node 31, Type 0, BuildingBlock: KUFVIS_clean_sbu_0, # of connection points: 4
#     Edge 32, Type (0, 0), BuildingBlock: CIFDUS_clean_linker_0, # of connection points: 2
#     Edge 33, Type (0, 0), BuildingBlock: CIFDUS_clean_linker_0, # of connection points: 2
#     Edge 34, Type (0, 0), BuildingBlock: CIFDUS_clean_linker_0, # of connection points: 2
#     Edge 35, Type (0, 0), BuildingBlock: CIFDUS_clean_linker_0, # of connection points: 2
#     Edge 36, Type (0, 0), BuildingBlock: CIFDUS_clean_linker_0, # of connection points: 2
#     Edge 37, Type (0, 0), BuildingBlock: CIFDUS_clean_linker_0, # of connection points: 2
#     Edge 38, Type (0, 0), BuildingBlock: CIFDUS_clean_linker_0, # of connection points: 2
#     Edge 39, Type (0, 0), BuildingBlock: CIFDUS_clean_linker_0, # of connection points: 2
#     Edge 40, Type (0, 0), BuildingBlock: CIFDUS_clean_linker_0, # of connection points: 2
#     Edge 41, Type (0, 0), BuildingBlock: CIFDUS_clean_linker_0, # of connection points: 2
#     Edge 42, Type (0, 0), BuildingBlock: CIFDUS_clean_linker_0, # of connection points: 2
#     Edge 43, Type (0, 0), BuildingBlock: CIFDUS_clean_linker_0, # of connection points: 2
#     Edge 44, Type (0, 0), BuildingBlock: CIFDUS_clean_linker_0, # of connection points: 2
#     Edge 45, Type (0, 0), BuildingBlock: CIFDUS_clean_linker_0, # of connection points: 2
#     Edge 46, Type (0, 0), BuildingBlock: CIFDUS_clean_linker_0, # of connection points: 2
#     Edge 47, Type (0, 0), BuildingBlock: CIFDUS_clean_linker_0, # of connection points: 2
#     Edge 48, Type (0, 0), BuildingBlock: CIFDUS_clean_linker_0, # of connection points: 2
#     Edge 49, Type (0, 0), BuildingBlock: CIFDUS_clean_linker_0, # of connection points: 2
#     Edge 50, Type (0, 0), BuildingBlock: CIFDUS_clean_linker_0, # of connection points: 2
#     Edge 51, Type (0, 0), BuildingBlock: CIFDUS_clean_linker_0, # of connection points: 2
#     Edge 52, Type (0, 0), BuildingBlock: CIFDUS_clean_linker_0, # of connection points: 2
#     Edge 53, Type (0, 0), BuildingBlock: CIFDUS_clean_linker_0, # of connection points: 2
#     Edge 54, Type (0, 0), BuildingBlock: CIFDUS_clean_linker_0, # of connection points: 2
#     Edge 55, Type (0, 0), BuildingBlock: CIFDUS_clean_linker_0, # of connection points: 2
#     Edge 56, Type (0, 0), BuildingBlock: CIFDUS_clean_linker_0, # of connection points: 2
#     Edge 57, Type (0, 0), BuildingBlock: CIFDUS_clean_linker_0, # of connection points: 2
#     Edge 58, Type (0, 0), BuildingBlock: CIFDUS_clean_linker_0, # of connection points: 2
#     Edge 59, Type (0, 0), BuildingBlock: CIFDUS_clean_linker_0, # of connection points: 2
#     Edge 60, Type (0, 0), BuildingBlock: CIFDUS_clean_linker_0, # of connection points: 2
#     Edge 61, Type (0, 0), BuildingBlock: CIFDUS_clean_linker_0, # of connection points: 2
#     Edge 62, Type (0, 0), BuildingBlock: CIFDUS_clean_linker_0, # of connection points: 2
#     Edge 63, Type (0, 0), BuildingBlock: CIFDUS_clean_linker_0, # of connection points: 2
#     Edge 64, Type (0, 0), BuildingBlock: CIFDUS_clean_linker_0, # of connection points: 2
#     Edge 65, Type (0, 0), BuildingBlock: CIFDUS_clean_linker_0, # of connection points: 2
#     Edge 66, Type (0, 0), BuildingBlock: CIFDUS_clean_linker_0, # of connection points: 2
#     Edge 67, Type (0, 0), BuildingBlock: CIFDUS_clean_linker_0, # of connection points: 2
#     Edge 68, Type (0, 0), BuildingBlock: CIFDUS_clean_linker_0, # of connection points: 2
#     Edge 69, Type (0, 0), BuildingBlock: CIFDUS_clean_linker_0, # of connection points: 2
#     Edge 70, Type (0, 0), BuildingBlock: CIFDUS_clean_linker_0, # of connection points: 2
#     Edge 71, Type (0, 0), BuildingBlock: CIFDUS_clean_linker_0, # of connection points: 2
#     Edge 72, Type (0, 0), BuildingBlock: CIFDUS_clean_linker_0, # of connection points: 2
#     Edge 73, Type (0, 0), BuildingBlock: CIFDUS_clean_linker_0, # of connection points: 2
#     Edge 74, Type (0, 0), BuildingBlock: CIFDUS_clean_linker_0, # of connection points: 2
#     Edge 75, Type (0, 0), BuildingBlock: CIFDUS_clean_linker_0, # of connection points: 2
#     Edge 76, Type (0, 0), BuildingBlock: CIFDUS_clean_linker_0, # of connection points: 2
#     Edge 77, Type (0, 0), BuildingBlock: CIFDUS_clean_linker_0, # of connection points: 2
#     Edge 78, Type (0, 0), BuildingBlock: CIFDUS_clean_linker_0, # of connection points: 2
#     Edge 79, Type (0, 0), BuildingBlock: CIFDUS_clean_linker_0, # of connection points: 2
#     Edge 80, Type (0, 0), BuildingBlock: CIFDUS_clean_linker_0, # of connection points: 2
#     Edge 81, Type (0, 0), BuildingBlock: CIFDUS_clean_linker_0, # of connection points: 2
#     Edge 82, Type (0, 0), BuildingBlock: CIFDUS_clean_linker_0, # of connection points: 2
#     Edge 83, Type (0, 0), BuildingBlock: CIFDUS_clean_linker_0, # of connection points: 2
#     Edge 84, Type (0, 0), BuildingBlock: CIFDUS_clean_linker_0, # of connection points: 2
#     Edge 85, Type (0, 0), BuildingBlock: CIFDUS_clean_linker_0, # of connection points: 2
#     Edge 86, Type (0, 0), BuildingBlock: CIFDUS_clean_linker_0, # of connection points: 2
#     Edge 87, Type (0, 0), BuildingBlock: CIFDUS_clean_linker_0, # of connection points: 2
#     Edge 88, Type (0, 0), BuildingBlock: CIFDUS_clean_linker_0, # of connection points: 2
#     Edge 89, Type (0, 0), BuildingBlock: CIFDUS_clean_linker_0, # of connection points: 2
#     Edge 90, Type (0, 0), BuildingBlock: CIFDUS_clean_linker_0, # of connection points: 2
#     Edge 91, Type (0, 0), BuildingBlock: CIFDUS_clean_linker_0, # of connection points: 2
#     Edge 92, Type (0, 0), BuildingBlock: CIFDUS_clean_linker_0, # of connection points: 2
#     Edge 93, Type (0, 0), BuildingBlock: CIFDUS_clean_linker_0, # of connection points: 2
#     Edge 94, Type (0, 0), BuildingBlock: CIFDUS_clean_linker_0, # of connection points: 2
#     Edge 95, Type (0, 0), BuildingBlock: CIFDUS_clean_linker_0, # of connection points: 2
# Relax obj value: 0.131
# Max RMSD: 0.214
# Mean RMSD: 0.212
data_MOF--net-uke--node1-KUFVIS_clean_sbu_0--edge1-CIFDUS_clean_linker_0
_symmetry_space_group_name_H-M    P1
_symmetry_Int_Tables_number       1
_symmetry_cell_setting            triclinic
loop_
_symmetry_equiv_pos_as_xyz
'x, y, z'
_cell_length_a     18.42101
_cell_length_b     95.410571
_cell_length_c     45.438016
_cell_angle_alpha  90.023108
_cell_angle_beta   90.017213
_cell_angle_gamma 90.01652
loop_
_atom_site_label
_atom_site_type_symbol
_atom_site_fract_x
_atom_site_fract_y
_atom_site_fract_z
_atom_type_partial_charge
Mn0 Mn 0.11539 0.06805 0.26083 0.0
Mn1 Mn 0.95448 0.08126 0.23976 0.0
C2 C 0.1012 0.07425 0.21221 0.0
C3 C 0.17535 0.0466 0.26879 0.0
C4 C 0.07141 0.09894 0.2693 0.0
O5 O 0.05181 0.06503 0.29659 0.0
O6 O 0.94433 0.07229 0.27939 0.0
C7 C 0.88497 0.05357 0.23162 0.0
N8 N 0.90569 0.06618 0.22037 0.0
C9 C 0.86434 0.05971 0.17199 0.0
C10 C 0.84207 0.04669 0.18309 0.0
C11 C 0.85256 0.0436 0.21303 0.0
C12 C 0.89705 0.06916 0.1915 0.0
H13 H 0.89356 0.05112 0.25456 0.0
C14 C 0.98432 0.06726 0.29987 0.0
O15 O 0.1995 0.05809 0.28084 0.0
O16 O 0.1176 0.04765 0.25308 0.0
N17 N 0.95191 0.09049 0.20247 0.0
C18 C 0.96435 0.1043 0.19672 0.0
C19 C 0.95255 0.10949 0.16817 0.0
C20 C 0.92562 0.10053 0.14616 0.0
C21 C 0.90803 0.08663 0.15323 0.0
C22 C 0.92044 0.08212 0.18212 0.0
H23 H 0.98411 0.11124 0.21371 0.0
O24 O 0.16477 0.07159 0.2228 0.0
O25 O 0.04682 0.07228 0.23024 0.0
O26 O 0.12067 0.08933 0.27144 0.0
O27 O 0.00772 0.09684 0.25856 0.0
C28 C 0.87615 0.07724 0.13307 0.0
C29 C 0.85481 0.06374 0.1424 0.0
H30 H 0.81673 0.039 0.16886 0.0
H31 H 0.83579 0.03356 0.22175 0.0
H32 H 0.96418 0.12034 0.16315 0.0
H33 H 0.91672 0.10455 0.12416 0.0
H34 H 0.86665 0.08037 0.11049 0.0
H35 H 0.82981 0.05665 0.12677 0.0
Mn36 Mn 0.16223 0.20779 0.26065 0.0
Mn37 Mn 0.32255 0.19554 0.23686 0.0
C38 C 0.17156 0.20055 0.21254 0.0
C39 C 0.09596 0.22874 0.26628 0.0
C40 C 0.21384 0.17741 0.27002 0.0
O41 O 0.2295 0.21249 0.29455 0.0
O42 O 0.33523 0.2052 0.27558 0.0
C43 C 0.3849 0.22364 0.22579 0.0
N44 N 0.36549 0.21073 0.21567 0.0
C45 C 0.39814 0.21695 0.16608 0.0
C46 C 0.41898 0.23027 0.17601 0.0
C47 C 0.41222 0.23363 0.206 0.0
C48 C 0.37065 0.20747 0.18679 0.0
H49 H 0.37909 0.22631 0.24877 0.0
C50 C 0.29773 0.21071 0.2963 0.0
O51 O 0.07689 0.21745 0.28048 0.0
O52 O 0.15346 0.22785 0.25044 0.0
N53 N 0.32202 0.18587 0.20002 0.0
C54 C 0.31049 0.17196 0.19507 0.0
C55 C 0.31879 0.16657 0.16648 0.0
C56 C 0.34096 0.17545 0.14352 0.0
C57 C 0.3573 0.18952 0.1496 0.0
C58 C 0.34873 0.19423 0.17858 0.0
H59 H 0.29416 0.16508 0.21275 0.0
O60 O 0.10891 0.20266 0.22441 0.0
O61 O 0.22762 0.20367 0.22888 0.0
O62 O 0.16379 0.18678 0.27333 0.0
O63 O 0.27524 0.17977 0.2575 0.0
C64 C 0.38401 0.19892 0.12829 0.0
C65 C 0.40394 0.21266 0.13648 0.0
H66 H 0.4403 0.23799 0.16083 0.0
H67 H 0.42788 0.24391 0.21381 0.0
H68 H 0.30798 0.15561 0.16215 0.0
H69 H 0.34702 0.17128 0.12148 0.0
H70 H 0.39045 0.19562 0.10562 0.0
H71 H 0.42484 0.21977 0.11994 0.0
Mn72 Mn 0.09939 0.20901 0.99289 0.0
Mn73 Mn 0.94554 0.19629 0.02168 0.0
C74 C 0.09503 0.2038 0.04226 0.0
C75 C 0.16247 0.23002 0.98363 0.0
C76 C 0.05334 0.17815 0.98785 0.0
O77 O 0.02652 0.21227 0.96005 0.0
O78 O 0.92446 0.20493 0.98244 0.0
C79 C 0.87415 0.22366 0.03166 0.0
N80 N 0.9003 0.21135 0.0425 0.0
C81 C 0.87327 0.21833 0.0922 0.0
C82 C 0.84552 0.23104 0.08155 0.0
C83 C 0.84599 0.23371 0.05114 0.0
C84 C 0.90044 0.20871 0.07173 0.0
H85 H 0.87529 0.22583 0.00834 0.0
C86 C 0.95821 0.21014 0.96028 0.0
O87 O 0.18152 0.21843 0.97056 0.0
O88 O 0.10607 0.22939 1.00017 0.0
N89 N 0.95724 0.18772 0.05947 0.0
C90 C 0.98365 0.17476 0.06603 0.0
C91 C 0.98565 0.17032 0.0955 0.0
C92 C 0.96018 0.17922 0.11785 0.0
C93 C 0.93148 0.19237 0.11047 0.0
C94 C 0.92976 0.19612 0.08068 0.0
H95 H 0.00356 0.1679 0.04893 0.0
O96 O 0.1566 0.20536 0.02911 0.0
O97 O 0.0377 0.20587 0.0261 0.0
O98 O 0.10137 0.1877 0.98286 0.0
O99 O 0.99332 0.18047 1.00135 0.0
C100 C 0.90446 0.2019 0.13147 0.0
C101 C 0.87558 0.21489 0.12235 0.0
H102 H 0.82402 0.23885 0.09651 0.0
H103 H 0.82506 0.24353 0.04276 0.0
H104 H 0.00742 0.16011 0.101 0.0
H105 H 0.9627 0.17584 0.14059 0.0
H106 H 0.90562 0.19935 0.15469 0.0
H107 H 0.85516 0.22215 0.13871 0.0
Mn108 Mn 0.14997 0.06814 0.98957 0.0
Mn109 Mn 0.30303 0.08097 0.01905 0.0
C110 C 0.15459 0.07219 0.03961 0.0
C111 C 0.09144 0.04708 0.97686 0.0
C112 C 0.19257 0.09922 0.98687 0.0
O113 O 0.22277 0.06627 0.95615 0.0
O114 O 0.32501 0.07294 0.97926 0.0
C115 C 0.37697 0.05374 0.02747 0.0
N116 N 0.34992 0.06583 0.03899 0.0
C117 C 0.37918 0.05847 0.08824 0.0
C118 C 0.40787 0.04598 0.07688 0.0
C119 C 0.40671 0.0436 0.04637 0.0
C120 C 0.35027 0.06818 0.06834 0.0
H121 H 0.37538 0.0518 0.00406 0.0
C122 C 0.29107 0.0684 0.95649 0.0
O123 O 0.06996 0.05894 0.96563 0.0
O124 O 0.14655 0.04753 0.99417 0.0
N125 N 0.29102 0.08905 0.05729 0.0
C126 C 0.26458 0.10195 0.06449 0.0
C127 C 0.26388 0.10617 0.09411 0.0
C128 C 0.2908 0.09714 0.11596 0.0
C129 C 0.31962 0.08409 0.1079 0.0
C130 C 0.32006 0.08056 0.07799 0.0
H131 H 0.24385 0.10892 0.04778 0.0
O132 O 0.09301 0.07042 0.02651 0.0
O133 O 0.21176 0.07095 0.02296 0.0
O134 O 0.14466 0.08965 0.98187 0.0
O135 O 0.25354 0.09685 0.99962 0.0
C136 C 0.34827 0.07447 0.12835 0.0
C137 C 0.37775 0.06164 0.11854 0.0
H138 H 0.4307 0.03812 0.09139 0.0
H139 H 0.42839 0.03396 0.03745 0.0
H140 H 0.24211 0.11631 0.10012 0.0
H141 H 0.28934 0.10036 0.13882 0.0
H142 H 0.34802 0.07684 0.15167 0.0
H143 H 0.39951 0.05432 0.13447 0.0
Mn144 Mn 0.86407 0.95256 0.72991 0.0
Mn145 Mn 0.77969 0.96117 0.66653 0.0
C146 C 0.80447 0.97351 0.72717 0.0
C147 C 0.86337 0.94163 0.77559 0.0
C148 C 0.9407 0.96459 0.6755 0.0
O149 O 0.86202 0.9343 0.70811 0.0
O150 O 0.80806 0.94077 0.66572 0.0
C151 C 0.64663 0.94412 0.6736 0.0
N152 N 0.67875 0.95687 0.67012 0.0
C153 C 0.5627 0.96836 0.66722 0.0
C154 C 0.52836 0.95535 0.67068 0.0
C155 C 0.57054 0.94318 0.6739 0.0
C156 C 0.63868 0.96862 0.66676 0.0
H157 H 0.67883 0.93473 0.67597 0.0
C158 C 0.83968 0.93173 0.68225 0.0
O159 O 0.92385 0.94411 0.76178 0.0
O160 O 0.80366 0.94488 0.76214 0.0
N161 N 0.7493 0.9803 0.6637 0.0
C162 C 0.79082 0.99203 0.66057 0.0
C163 C 0.75695 1.00516 0.65802 0.0
C164 C 0.68084 0.00607 0.65831 0.0
C165 C 0.63925 0.99383 0.66098 0.0
C166 C 0.67602 0.98103 0.66339 0.0
H167 H 0.84934 0.99137 0.66037 0.0
O168 O 0.85429 0.97134 0.74676 0.0
O169 O 0.78843 0.96296 0.70976 0.0
O170 O 0.9428 0.95961 0.7016 0.0
O171 O 0.88222 0.96608 0.66075 0.0
C172 C 0.56278 0.99382 0.66159 0.0
C173 C 0.52452 0.98109 0.66445 0.0
H174 H 0.4697 0.95459 0.67101 0.0
H175 H 0.54445 0.9331 0.67658 0.0
H176 H 0.78941 0.01455 0.65586 0.0
H177 H 0.65492 0.01622 0.65641 0.0
H178 H 0.53285 1.00355 0.65975 0.0
H179 H 0.46572 0.98121 0.66469 0.0
Mn180 Mn 0.86993 0.82769 0.72711 0.0
Mn181 Mn 0.9693 0.82297 0.66572 0.0
C182 C 0.9378 0.80775 0.72288 0.0
C183 C 0.86369 0.83675 0.77476 0.0
C184 C 0.80758 0.81753 0.66807 0.0
O185 O 0.86864 0.84668 0.70852 0.0
O186 O 0.93654 0.84315 0.66792 0.0
C187 C 0.0967 0.8404 0.68099 0.0
N188 N 0.06813 0.82771 0.67368 0.0
C189 C 0.18633 0.81698 0.67383 0.0
C190 C 0.21711 0.82996 0.68116 0.0
C191 C 0.17207 0.84172 0.68477 0.0
C192 C 0.11103 0.81636 0.66985 0.0
H193 H 0.06221 0.84945 0.68384 0.0
C194 C 0.89651 0.85085 0.68453 0.0
O195 O 0.80486 0.83414 0.75981 0.0
O196 O 0.92474 0.83475 0.76142 0.0
N197 N 0.00388 0.80422 0.66061 0.0
C198 C 0.9651 0.79234 0.65516 0.0
C199 C 0.00143 0.77944 0.65319 0.0
C200 C 0.07722 0.77893 0.65638 0.0
C201 C 0.11615 0.79136 0.66115 0.0
C202 C 0.07696 0.8039 0.66309 0.0
H203 H 0.90675 0.79267 0.653 0.0
O204 O 0.88386 0.80848 0.74107 0.0
O205 O 0.95229 0.81913 0.70775 0.0
O206 O 0.79796 0.82086 0.69515 0.0
O207 O 0.86954 0.81769 0.6555 0.0
C208 C 0.19203 0.79175 0.66493 0.0
C209 C 0.2272 0.80457 0.67094 0.0
H210 H 0.27515 0.83099 0.68436 0.0
H211 H 0.19539 0.85176 0.69055 0.0
H212 H 0.97108 0.7699 0.64934 0.0
H213 H 0.10497 0.76894 0.6551 0.0
H214 H 0.2238 0.78222 0.66351 0.0
H215 H 0.28556 0.80472 0.67388 0.0
Mn216 Mn 0.93039 0.82447 0.99387 0.0
Mn217 Mn 0.82054 0.8185 0.05132 0.0
C218 C 0.88307 0.80227 1.00005 0.0
C219 C 0.93484 0.83286 0.94564 0.0
C220 C 0.98536 0.82046 0.0566 0.0
O221 O 0.90838 0.84388 0.00928 0.0
O222 O 0.8225 0.83926 0.04312 0.0
C223 C 0.68141 0.82638 0.0233 0.0
N224 N 0.72326 0.81665 0.03717 0.0
C225 C 0.62927 0.79923 0.03304 0.0
C226 C 0.5849 0.80911 0.01896 0.0
C227 C 0.61113 0.82274 0.01406 0.0
C228 C 0.69863 0.80349 0.04193 0.0
H229 H 0.70169 0.83682 0.01919 0.0
C230 C 0.86192 0.84782 0.02822 0.0
O231 O 0.99306 0.83265 0.96192 0.0
O232 O 0.87569 0.82834 0.9575 0.0
N233 N 0.813 0.79908 0.0616 0.0
C234 C 0.86317 0.79071 0.0749 0.0
C235 C 0.84569 0.77669 0.08113 0.0
C236 C 0.77683 0.77143 0.07372 0.0
C237 C 0.72574 0.7803 0.06043 0.0
C238 C 0.74591 0.79422 0.0551 0.0
H239 H 0.91627 0.79467 0.08056 0.0
O240 O 0.93803 0.80431 0.98282 0.0
O241 O 0.8559 0.81349 0.01223 0.0
O242 O -0.00056 0.82154 0.02902 0.0
O243 O 0.9207 0.81981 0.06698 0.0
C244 C 0.65595 0.77581 0.05191 0.0
C245 C 0.60779 0.78526 0.03817 0.0
H246 H 0.53084 0.80632 0.01163 0.0
H247 H 0.57739 0.8304 0.00304 0.0
H248 H 0.88536 0.76992 0.09146 0.0
H249 H 0.76385 0.76057 0.07826 0.0
H250 H 0.63901 0.76507 0.05556 0.0
H251 H 0.55456 0.78165 0.03145 0.0
Mn252 Mn 0.81789 0.95443 0.99299 0.0
Mn253 Mn 0.93264 0.96065 0.0488 0.0
C254 C 0.86771 0.97654 0.99733 0.0
C255 C 0.80592 0.9453 0.94582 0.0
C256 C 0.76829 0.95911 0.05595 0.0
O257 O 0.83945 0.93514 0.00925 0.0
O258 O 0.92968 0.93985 0.04114 0.0
C259 C 0.06995 0.95244 0.01976 0.0
N260 N 0.02917 0.96229 0.03377 0.0
C261 C 0.12418 0.97947 0.02912 0.0
C262 C 0.16746 0.96946 0.01488 0.0
C263 C 0.14016 0.95589 0.01015 0.0
C264 C 0.05481 0.97539 0.03835 0.0
H265 H 0.04888 0.94204 0.01584 0.0
C266 C 0.88798 0.93126 0.02738 0.0
O267 O 0.75005 0.9461 0.96327 0.0
O268 O 0.86744 0.94973 0.9559 0.0
N269 N 0.94131 0.98012 0.0585 0.0
C270 C 0.89188 0.98867 0.07176 0.0
C271 C 0.91026 1.00268 0.07761 0.0
C272 C 0.97931 0.00775 0.06994 0.0
C273 C 0.02963 0.99871 0.0567 0.0
C274 C 0.00851 0.9848 0.05166 0.0
H275 H 0.83866 0.98485 0.07766 0.0
O276 O 0.81131 0.97444 0.98088 0.0
O277 O 0.89512 0.96539 0.00977 0.0
O278 O 0.75245 0.95808 0.0286 0.0
O279 O 0.83357 0.95952 0.06569 0.0
C280 C 0.09952 1.003 0.04789 0.0
C281 C 0.14673 0.99339 0.03408 0.0
H282 H 0.22148 0.97211 0.00728 0.0
H283 H 0.17307 0.94814 0.99902 0.0
H284 H 0.87115 0.00959 0.08788 0.0
H285 H 0.99301 0.0186 0.07421 0.0
H286 H 0.11721 0.01371 0.05134 0.0
H287 H 0.20001 0.99686 0.0271 0.0
Mn288 Mn 0.07381 0.56965 0.76221 0.0
Mn289 Mn 0.93012 0.58745 0.7369 0.0
C290 C 0.07107 0.57618 0.71369 0.0
C291 C 0.12145 0.54746 0.7702 0.0
C292 C 0.05311 0.60118 0.77093 0.0
O293 O 0.00203 0.56785 0.7955 0.0
O294 O 0.90546 0.57884 0.77589 0.0
C295 C 0.83644 0.56279 0.72604 0.0
N296 N 0.87164 0.57433 0.71569 0.0
C297 C 0.83531 0.56921 0.66596 0.0
C298 C 0.79818 0.55732 0.67611 0.0
C299 C 0.79879 0.5541 0.70628 0.0
C300 C 0.87181 0.57747 0.68668 0.0
H301 H 0.83749 0.56019 0.74917 0.0
C302 C 0.93693 0.57222 0.7969 0.0
O303 O 0.14892 0.55829 0.78368 0.0
O304 O 0.06587 0.54952 0.75359 0.0
N305 N 0.9454 0.59631 0.69963 0.0
C306 C 0.98033 0.60858 0.69374 0.0
C307 C 0.98329 0.61352 0.66463 0.0
C308 C 0.94981 0.60584 0.64198 0.0
C309 C 0.91214 0.59348 0.64877 0.0
C310 C 0.91016 0.5892 0.67823 0.0
H311 H 0.00628 0.61449 0.71108 0.0
O312 O 0.13133 0.57247 0.72597 0.0
O313 O 0.01319 0.5753 0.73011 0.0
O314 O 0.09232 0.59016 0.77428 0.0
O315 O 0.99157 0.60124 0.7577 0.0
C316 C 0.87599 0.5853 0.6275 0.0
C317 C 0.83779 0.57315 0.63608 0.0
H318 H 0.76922 0.55058 0.66094 0.0
H319 H 0.77058 0.54491 0.71427 0.0
H320 H 0.01182 0.62314 0.65963 0.0
H321 H 0.95287 0.6096 0.61952 0.0
H322 H 0.877 0.58829 0.60451 0.0
H323 H 0.81022 0.56694 0.61953 0.0
Mn324 Mn 0.15933 0.71161 0.75822 0.0
Mn325 Mn 0.29853 0.69051 0.73914 0.0
C326 C 0.16315 0.70325 0.71064 0.0
C327 C 0.1113 0.73406 0.76239 0.0
C328 C 0.1662 0.68032 0.77247 0.0
O329 O 0.22908 0.71413 0.79216 0.0
O330 O 0.32165 0.70079 0.77636 0.0
C331 C 0.40824 0.71225 0.72578 0.0
N332 N 0.37048 0.70061 0.71764 0.0
C333 C 0.43762 0.69873 0.67241 0.0
C334 C 0.4777 0.71064 0.68039 0.0
C335 C 0.46276 0.71746 0.70715 0.0
C336 C 0.38455 0.69394 0.69202 0.0
H337 H 0.39688 0.71748 0.74636 0.0
C338 C 0.29228 0.709 0.79526 0.0
O339 O 0.08472 0.72366 0.77741 0.0
O340 O 0.16878 0.73163 0.74686 0.0
N341 N 0.28638 0.6797 0.70406 0.0
C342 C 0.23737 0.66936 0.69826 0.0
C343 C 0.24187 0.66197 0.67159 0.0
C344 C 0.29701 0.6652 0.65132 0.0
C345 C 0.347 0.67585 0.65786 0.0
C346 C 0.34025 0.68277 0.68491 0.0
H347 H 0.19508 0.66682 0.71382 0.0
O348 O 0.10423 0.70804 0.72233 0.0
O349 O 0.22181 0.70394 0.72715 0.0
O350 O 0.1317 0.69194 0.77338 0.0
O351 O 0.22849 0.67893 0.7606 0.0
C352 C 0.40163 0.68021 0.63818 0.0
C353 C 0.44689 0.69164 0.64545 0.0
H354 H 0.51939 0.71476 0.66597 0.0
H355 H 0.49318 0.7267 0.71337 0.0
H356 H 0.20294 0.65381 0.66665 0.0
H357 H 0.29983 0.65957 0.63065 0.0
H358 H 0.40824 0.67505 0.61711 0.0
H359 H 0.48769 0.69508 0.62987 0.0
Mn360 Mn 0.07044 0.70974 0.49314 0.0
Mn361 Mn 0.92509 0.6906 0.51357 0.0
C362 C 0.06581 0.70173 0.54097 0.0
C363 C 0.12396 0.73175 0.48842 0.0
C364 C 0.05128 0.67868 0.47876 0.0
O365 O 0.00012 0.71294 0.45966 0.0
O366 O 0.90308 0.7012 0.47665 0.0
C367 C 0.82354 0.71358 0.52822 0.0
N368 N 0.85804 0.70151 0.53591 0.0
C369 C 0.79342 0.70037 0.58184 0.0
C370 C 0.75672 0.71275 0.57434 0.0
C371 C 0.77202 0.7194 0.54745 0.0
C372 C 0.84343 0.69497 0.56162 0.0
H373 H 0.83521 0.71869 0.50754 0.0
C374 C 0.93479 0.7088 0.45726 0.0
O375 O 0.1478 0.72107 0.47346 0.0
O376 O 0.0667 0.72982 0.50434 0.0
N377 N 0.93627 0.67966 0.54849 0.0
C378 C 0.98283 0.66887 0.55384 0.0
C379 C 0.97824 0.66159 0.58063 0.0
C380 C 0.92555 0.66542 0.6015 0.0
C381 C 0.87813 0.67655 0.59545 0.0
C382 C 0.88482 0.68333 0.56826 0.0
H383 H 0.02329 0.66589 0.53781 0.0
O384 O 0.12579 0.70565 0.52874 0.0
O385 O 0.00697 0.70301 0.52473 0.0
O386 O 0.09093 0.68969 0.47797 0.0
O387 O 0.98926 0.6782 0.49114 0.0
C388 C 0.82634 0.68153 0.61574 0.0
C389 C 0.78401 0.69342 0.60894 0.0
H390 H 0.71746 0.71734 0.58924 0.0
H391 H 0.74422 0.72899 0.5416 0.0
H392 H 0.01524 0.65305 0.5852 0.0
H393 H 0.92271 0.65987 0.62226 0.0
H394 H 0.81982 0.67648 0.63693 0.0
H395 H 0.74553 0.69733 0.62499 0.0
Mn396 Mn 0.16284 0.57362 0.49768 0.0
Mn397 Mn 0.32152 0.58556 0.52373 0.0
C398 C 0.16725 0.58145 0.54547 0.0
C399 C 0.09465 0.55318 0.49103 0.0
C400 C 0.21888 0.60361 0.48765 0.0
O401 O 0.233 0.56807 0.46566 0.0
O402 O 0.33713 0.57575 0.4853 0.0
C403 C 0.3797 0.55727 0.53621 0.0
N404 N 0.36084 0.57029 0.54582 0.0
C405 C 0.38805 0.56414 0.59598 0.0
C406 C 0.40824 0.55069 0.5866 0.0
C407 C 0.40393 0.54724 0.55659 0.0
C408 C 0.36357 0.57364 0.57471 0.0
H409 H 0.37576 0.55453 0.51321 0.0
C410 C 0.30111 0.56996 0.46449 0.0
O411 O 0.07934 0.56444 0.47601 0.0
O412 O 0.14916 0.55386 0.50864 0.0
N413 N 0.31863 0.59537 0.56038 0.0
C414 C 0.30879 0.60936 0.56487 0.0
C415 C 0.31535 0.61486 0.59345 0.0
C416 C 0.33418 0.60598 0.6169 0.0
C417 C 0.34908 0.59181 0.61134 0.0
C418 C 0.34237 0.58699 0.58236 0.0
H419 H 0.29504 0.61623 0.54682 0.0
O420 O 0.10594 0.57962 0.53226 0.0
O421 O 0.22491 0.57778 0.53054 0.0
O422 O 0.16926 0.59425 0.48358 0.0
O423 O 0.27788 0.60139 0.50204 0.0
C424 C 0.37277 0.58239 0.63321 0.0
C425 C 0.3917 0.56853 0.62557 0.0
H426 H 0.4272 0.54294 0.60224 0.0
H427 H 0.4191 0.53686 0.54919 0.0
H428 H 0.30578 0.62589 0.59739 0.0
H429 H 0.33893 0.61023 0.63893 0.0
H430 H 0.37767 0.58576 0.65589 0.0
H431 H 0.41027 0.56141 0.64254 0.0
Mn432 Mn 0.90349 0.45624 0.24272 0.0
Mn433 Mn 0.80709 0.4604 0.18045 0.0
C434 C 0.85161 0.47777 0.23318 0.0
C435 C 0.9053 0.44912 0.29188 0.0
C436 C 0.97211 0.46042 0.182 0.0
O437 O 0.88973 0.43637 0.22824 0.0
O438 O 0.81592 0.43978 0.18934 0.0
C439 C 0.66472 0.45026 0.20183 0.0
N440 N 0.70599 0.46064 0.18991 0.0
C441 C 0.60299 0.4761 0.18696 0.0
C442 C 0.55925 0.46552 0.19899 0.0
C443 C 0.59032 0.45256 0.20653 0.0
C444 C 0.67674 0.47318 0.18272 0.0
H445 H 0.68846 0.4403 0.20773 0.0
C446 C 0.85194 0.43181 0.20685 0.0
O447 O 0.96449 0.44951 0.27628 0.0
O448 O 0.84555 0.45246 0.27864 0.0
N449 N 0.79396 0.47958 0.16924 0.0
C450 C 0.84397 0.48879 0.15857 0.0
C451 C 0.82203 0.50237 0.15063 0.0
C452 C 0.74889 0.5063 0.15352 0.0
C453 C 0.69825 0.49658 0.16419 0.0
C454 C 0.72325 0.48319 0.17166 0.0
H455 H 0.90025 0.48583 0.15627 0.0
O456 O 0.90376 0.47651 0.25212 0.0
O457 O 0.82922 0.46612 0.22097 0.0
O458 O 0.97862 0.45934 0.20996 0.0
O459 O 0.91072 0.46063 0.16881 0.0
C460 C 0.62407 0.4997 0.16793 0.0
C461 C 0.57646 0.48946 0.17929 0.0
H462 H 0.50188 0.46727 0.20271 0.0
H463 H 0.55698 0.44437 0.21595 0.0
H464 H 0.8614 0.5098 0.14233 0.0
H465 H 0.73223 0.5168 0.14746 0.0
H466 H 0.60314 0.50996 0.16228 0.0
H467 H 0.51962 0.49201 0.18223 0.0
Mn468 Mn 0.8634 0.32446 0.23626 0.0
Mn469 Mn 0.97757 0.32111 0.1791 0.0
C470 C 0.92431 0.30343 0.23055 0.0
C471 C 0.84951 0.33214 0.28465 0.0
C472 C 0.81288 0.31961 0.17336 0.0
O473 O 0.87531 0.34433 0.22166 0.0
O474 O 0.9636 0.34167 0.18787 0.0
C475 C 0.11318 0.33213 0.20528 0.0
N476 N 0.0765 0.32157 0.19166 0.0
C477 C 0.18428 0.30737 0.18919 0.0
C478 C 0.22338 0.31814 0.20297 0.0
C479 C 0.1876 0.33056 0.21114 0.0
C480 C 0.11036 0.30958 0.18372 0.0
H481 H 0.08581 0.34168 0.21157 0.0
C482 C 0.91979 0.34929 0.203 0.0
O483 O 0.79348 0.33085 0.26738 0.0
O484 O 0.91227 0.32921 0.27357 0.0
N485 N 0.9964 0.30206 0.16829 0.0
C486 C 0.94972 0.29231 0.1572 0.0
C487 C 0.97611 0.27903 0.14929 0.0
C488 C 0.05018 0.27593 0.15269 0.0
C489 C 0.09722 0.28615 0.16401 0.0
C490 C 0.06786 0.29922 0.17143 0.0
H491 H 0.89279 0.29465 0.15446 0.0
O492 O 0.86641 0.30432 0.2466 0.0
O493 O 0.9463 0.3152 0.21861 0.0
O494 O 0.79743 0.3203 0.20078 0.0
O495 O 0.87775 0.32025 0.1635 0.0
C496 C 0.17183 0.2838 0.16871 0.0
C497 C 0.21537 0.29441 0.18124 0.0
H498 H 0.2807 0.31694 0.20767 0.0
H499 H 0.21732 0.33889 0.22193 0.0
H500 H 0.93948 0.2712 0.14054 0.0
H501 H 0.0703 0.26566 0.14662 0.0
H502 H 0.19611 0.27381 0.16312 0.0
H503 H 0.27247 0.29242 0.18508 0.0
Mn504 Mn 0.8998 0.32687 0.50581 0.0
Mn505 Mn 0.8024 0.32181 0.56761 0.0
C506 C 0.85065 0.30518 0.51456 0.0
C507 C 0.90152 0.3345 0.45712 0.0
C508 C 0.96722 0.3221 0.56639 0.0
O509 O 0.88417 0.34647 0.52107 0.0
O510 O 0.81039 0.34249 0.55973 0.0
C511 C 0.6602 0.33187 0.5459 0.0
N512 N 0.70155 0.32148 0.55775 0.0
C513 C 0.59892 0.30591 0.56017 0.0
C514 C 0.55509 0.31648 0.54819 0.0
C515 C 0.58593 0.32951 0.54094 0.0
C516 C 0.67255 0.30888 0.5646 0.0
H517 H 0.68377 0.34188 0.54025 0.0
C518 C 0.84599 0.35069 0.5426 0.0
O519 O 0.96064 0.33415 0.47279 0.0
O520 O 0.84192 0.33081 0.47005 0.0
N521 N 0.78981 0.30253 0.57814 0.0
C522 C 0.83979 0.29336 0.589 0.0
C523 C 0.81799 0.27976 0.59683 0.0
C524 C 0.74497 0.27577 0.59376 0.0
C525 C 0.69431 0.28546 0.58298 0.0
C526 C 0.71918 0.29888 0.57558 0.0
H527 H 0.89594 0.29638 0.59153 0.0
O528 O 0.9024 0.30675 0.49555 0.0
O529 O 0.82634 0.3166 0.527 0.0
O530 O 0.97447 0.32366 0.53858 0.0
O531 O 0.90564 0.32162 0.57938 0.0
C532 C 0.62021 0.2823 0.5791 0.0
C533 C 0.57257 0.29251 0.56765 0.0
H534 H 0.49781 0.3147 0.54431 0.0
H535 H 0.55252 0.3377 0.53157 0.0
H536 H 0.85738 0.27236 0.60524 0.0
H537 H 0.7284 0.26526 0.59976 0.0
H538 H 0.59938 0.27202 0.58467 0.0
H539 H 0.51582 0.28992 0.56455 0.0
Mn540 Mn 0.86094 0.45749 0.51384 0.0
Mn541 Mn 0.97157 0.46085 0.57239 0.0
C542 C 0.92016 0.47852 0.52092 0.0
C543 C 0.84976 0.45031 0.46486 0.0
C544 C 0.80676 0.46199 0.57654 0.0
O545 O 0.87376 0.4376 0.52785 0.0
O546 O 0.95788 0.44037 0.56343 0.0
C547 C 0.10854 0.44986 0.54739 0.0
N548 N 0.07117 0.4604 0.56075 0.0
C549 C 0.17901 0.47454 0.56461 0.0
C550 C 0.21881 0.46378 0.5511 0.0
C551 C 0.18334 0.45142 0.54236 0.0
C552 C 0.10471 0.47235 0.56921 0.0
H553 H 0.08143 0.44035 0.5407 0.0
C554 C 0.91619 0.43273 0.54739 0.0
O555 O 0.793 0.45123 0.48181 0.0
O556 O 0.91183 0.45323 0.47662 0.0
N557 N 0.98993 0.47988 0.58352 0.0
C558 C 0.94277 0.4896 0.59435 0.0
C559 C 0.96893 0.50282 0.60289 0.0
C560 C 0.04326 0.50588 0.60037 0.0
C561 C 0.09078 0.4957 0.58927 0.0
C562 C 0.06163 0.48269 0.58122 0.0
H563 H 0.88563 0.48728 0.59645 0.0
O564 O 0.86308 0.47769 0.50435 0.0
O565 O 0.94224 0.46673 0.53264 0.0
O566 O 0.79292 0.46112 0.54898 0.0
O567 O 0.87105 0.46169 0.58704 0.0
C568 C 0.16571 0.49802 0.58541 0.0
C569 C 0.20983 0.48744 0.57315 0.0
H570 H 0.27644 0.46496 0.54706 0.0
H571 H 0.21361 0.44311 0.53178 0.0
H572 H 0.93191 0.51063 0.61144 0.0
H573 H 0.0632 0.5161 0.6069 0.0
H574 H 0.18979 0.50797 0.59143 0.0
H575 H 0.26721 0.48941 0.56999 0.0
Mn576 Mn 0.59553 0.07089 0.75932 0.0
Mn577 Mn 0.44887 0.08869 0.73626 0.0
C578 C 0.59431 0.07917 0.71157 0.0
C579 C 0.64743 0.04879 0.7648 0.0
C580 C 0.57111 0.10212 0.77129 0.0
O581 O 0.52362 0.06767 0.79259 0.0
O582 O 0.42675 0.07867 0.77382 0.0
C583 C 0.36311 0.06333 0.72215 0.0
N584 N 0.3936 0.07566 0.71346 0.0
C585 C 0.35574 0.07193 0.66337 0.0
C586 C 0.32351 0.05924 0.67181 0.0
C587 C 0.32736 0.05491 0.70133 0.0
C588 C 0.39144 0.07978 0.68502 0.0
H589 H 0.36648 0.0599 0.74475 0.0
C590 C 0.45773 0.07156 0.79413 0.0
O591 O 0.67163 0.05943 0.77986 0.0
O592 O 0.59174 0.05092 0.74819 0.0
N593 N 0.45804 0.09913 0.70058 0.0
C594 C 0.47945 0.11273 0.69746 0.0
C595 C 0.47498 0.11916 0.66969 0.0
C596 C 0.44598 0.11172 0.64573 0.0
C597 C 0.419 0.09813 0.65006 0.0
C598 C 0.42446 0.09234 0.67829 0.0
H599 H 0.50072 0.11855 0.71594 0.0
O600 O 0.65379 0.07499 0.72374 0.0
O601 O 0.53547 0.07756 0.72738 0.0
O602 O 0.61106 0.09114 0.77369 0.0
O603 O 0.50878 0.10228 0.75856 0.0
C604 C 0.38432 0.09032 0.62779 0.0
C605 C 0.35321 0.07718 0.63439 0.0
H606 H 0.29551 0.05276 0.65586 0.0
H607 H 0.30286 0.0451 0.708 0.0
H608 H 0.49375 0.12982 0.66678 0.0
H609 H 0.44268 0.11669 0.62435 0.0
H610 H 0.38008 0.09445 0.60565 0.0
H611 H 0.32612 0.07132 0.61715 0.0
Mn612 Mn 0.64785 0.21376 0.76529 0.0
Mn613 Mn 0.79315 0.19692 0.73842 0.0
C614 C 0.65034 0.20764 0.71622 0.0
C615 C 0.59276 0.23529 0.77393 0.0
C616 C 0.67294 0.18228 0.77236 0.0
O617 O 0.72133 0.216 0.79833 0.0
O618 O 0.81747 0.20544 0.77742 0.0
C619 C 0.88261 0.22221 0.72804 0.0
N620 N 0.84914 0.21052 0.71746 0.0
C621 C 0.88414 0.21612 0.66781 0.0
C622 C 0.9194 0.22817 0.6782 0.0
C623 C 0.91857 0.23123 0.70845 0.0
C624 C 0.84902 0.20755 0.68836 0.0
H625 H 0.88146 0.22469 0.75123 0.0
C626 C 0.78727 0.21197 0.79885 0.0
O627 O 0.57048 0.22407 0.78756 0.0
O628 O 0.64918 0.23405 0.75732 0.0
N629 N 0.77875 0.1882 0.70094 0.0
C630 C 0.74749 0.17557 0.69491 0.0
C631 C 0.74625 0.17064 0.66577 0.0
C632 C 0.77782 0.17867 0.64324 0.0
C633 C 0.81211 0.19137 0.65018 0.0
C634 C 0.81263 0.19563 0.67967 0.0
H635 H 0.72328 0.16935 0.71217 0.0
O636 O 0.58985 0.21068 0.72909 0.0
O637 O 0.70843 0.20879 0.73245 0.0
O638 O 0.63333 0.19313 0.77668 0.0
O639 O 0.73412 0.18257 0.75888 0.0
C640 C 0.84672 0.19987 0.62907 0.0
C641 C 0.88242 0.21228 0.63786 0.0
H642 H 0.94719 0.23516 0.66316 0.0
H643 H 0.94538 0.24055 0.71662 0.0
H644 H 0.72055 0.16073 0.66067 0.0
H645 H 0.77611 0.1749 0.62075 0.0
H646 H 0.84662 0.19692 0.60605 0.0
H647 H 0.90894 0.21872 0.62144 0.0
Mn648 Mn 0.5793 0.21272 0.49737 0.0
Mn649 Mn 0.43225 0.19474 0.51948 0.0
C650 C 0.5761 0.20474 0.5452 0.0
C651 C 0.6273 0.23514 0.49129 0.0
C652 C 0.55706 0.18134 0.48586 0.0
O653 O 0.50936 0.21539 0.46339 0.0
O654 O 0.41139 0.20455 0.48157 0.0
C655 C 0.34481 0.22001 0.53247 0.0
N656 N 0.37541 0.20776 0.54162 0.0
C657 C 0.33502 0.21161 0.59133 0.0
C658 C 0.30264 0.22422 0.58241 0.0
C659 C 0.30771 0.22844 0.55286 0.0
C660 C 0.3721 0.20375 0.57011 0.0
H661 H 0.3491 0.22335 0.50984 0.0
C662 C 0.44366 0.21148 0.46133 0.0
O663 O 0.65491 0.22452 0.47716 0.0
O664 O 0.57176 0.23275 0.50776 0.0
N665 N 0.44013 0.18444 0.55539 0.0
C666 C 0.46157 0.17087 0.55886 0.0
C667 C 0.45607 0.16453 0.58669 0.0
C668 C 0.42586 0.17203 0.61032 0.0
C669 C 0.39867 0.18557 0.60557 0.0
C670 C 0.4053 0.19127 0.5773 0.0
H671 H 0.48373 0.165 0.54062 0.0
O672 O 0.63584 0.20914 0.53358 0.0
O673 O 0.51804 0.20602 0.5288 0.0
O674 O 0.59723 0.19234 0.4838 0.0
O675 O 0.49387 0.1812 0.49787 0.0
C676 C 0.3626 0.1934 0.62743 0.0
C677 C 0.3313 0.20647 0.62036 0.0
H678 H 0.27359 0.23071 0.59803 0.0
H679 H 0.28309 0.23818 0.54582 0.0
H680 H 0.47495 0.1539 0.5899 0.0
H681 H 0.42173 0.16713 0.63175 0.0
H682 H 0.35742 0.18934 0.64959 0.0
H683 H 0.30311 0.21233 0.63728 0.0
Mn684 Mn 0.63264 0.06953 0.49148 0.0
Mn685 Mn 0.78719 0.08592 0.50946 0.0
C686 C 0.65136 0.07607 0.53965 0.0
C687 C 0.57511 0.04793 0.48629 0.0
C688 C 0.65838 0.10089 0.48187 0.0
O689 O 0.69427 0.06674 0.45504 0.0
O690 O 0.79793 0.07706 0.4696 0.0
C691 C 0.87716 0.0604 0.51567 0.0
N692 N 0.84824 0.07223 0.52764 0.0
C693 C 0.89832 0.06674 0.57519 0.0
C694 C 0.92907 0.05454 0.56332 0.0
C695 C 0.91839 0.05136 0.53343 0.0
C696 C 0.85769 0.07533 0.55643 0.0
H697 H 0.86847 0.05783 0.4928 0.0
C698 C 0.75965 0.07047 0.45046 0.0
O699 O 0.54854 0.05908 0.47372 0.0
O700 O 0.63569 0.04933 0.50017 0.0
N701 N 0.78578 0.09488 0.54714 0.0
C702 C 0.75693 0.10755 0.55457 0.0
C703 C 0.76467 0.11252 0.58351 0.0
C704 C 0.80254 0.10449 0.60438 0.0
C705 C 0.834 0.09173 0.59591 0.0
C706 C 0.82533 0.08741 0.56667 0.0
H707 H 0.72774 0.11375 0.53861 0.0
O708 O 0.587 0.07313 0.53017 0.0
O709 O 0.70376 0.07453 0.52058 0.0
O710 O 0.6165 0.09017 0.48005 0.0
O711 O 0.72342 0.10039 0.49192 0.0
C712 C 0.87436 0.08321 0.61523 0.0
C713 C 0.90628 0.07069 0.6049 0.0
H714 H 0.96085 0.04753 0.57694 0.0
H715 H 0.94167 0.04193 0.52414 0.0
H716 H 0.74101 0.12247 0.58977 0.0
H717 H 0.80779 0.1083 0.62675 0.0
H718 H 0.88154 0.08622 0.63804 0.0
H719 H 0.93727 0.06424 0.61996 0.0
Mn720 Mn 0.43841 0.95261 0.25419 0.0
Mn721 Mn 0.32695 0.95874 0.1973 0.0
C722 C 0.39022 0.97482 0.24889 0.0
C723 C 0.44567 0.94366 0.30168 0.0
C724 C 0.49173 0.95716 0.19167 0.0
O725 O 0.41728 0.93327 0.23809 0.0
O726 O 0.32919 0.93794 0.20527 0.0
C727 C 0.18818 0.95066 0.22536 0.0
N728 N 0.22971 0.96045 0.21152 0.0
C729 C 0.13467 0.97767 0.21517 0.0
C730 C 0.09063 0.96773 0.22922 0.0
C731 C 0.11755 0.95417 0.23436 0.0
C732 C 0.20443 0.97354 0.20654 0.0
H733 H 0.20895 0.94027 0.22962 0.0
C734 C 0.36973 0.92935 0.21958 0.0
O735 O 0.50321 0.94429 0.28509 0.0
O736 O 0.3855 0.94819 0.2906 0.0
N737 N 0.3189 0.97816 0.18719 0.0
C738 C 0.36898 0.98664 0.17413 0.0
C739 C 0.351 1.00063 0.1679 0.0
C740 C 0.28167 0.00574 0.17498 0.0
C741 C 0.23067 0.99677 0.188 0.0
C742 C 0.25144 0.98288 0.19343 0.0
H743 H 0.42241 0.98279 0.16868 0.0
O744 O 0.44527 0.97267 0.26603 0.0
O745 O 0.36284 0.96366 0.23644 0.0
O746 O 0.50638 0.95605 0.21914 0.0
O747 O 0.42688 0.95757 0.18144 0.0
C748 C 0.16043 1.00111 0.1962 0.0
C749 C 0.1125 0.99157 0.20981 0.0
H750 H 0.03628 0.97041 0.23635 0.0
H751 H 0.08405 0.94646 0.24536 0.0
H752 H 0.39062 0.00749 0.15779 0.0
H753 H 0.26827 0.01658 0.17042 0.0
H754 H 0.143 0.01181 0.19244 0.0
H755 H 0.05893 0.99508 0.21631 0.0
Mn756 Mn 0.31931 0.82261 0.25493 0.0
Mn757 Mn 0.4293 0.81632 0.19765 0.0
C758 C 0.36378 0.80019 0.24851 0.0
C759 C 0.31445 0.83087 0.30327 0.0
C760 C 0.26495 0.81907 0.19195 0.0
O761 O 0.34394 0.84198 0.23987 0.0
O762 O 0.42965 0.83708 0.20614 0.0
C763 C 0.56871 0.8235 0.2263 0.0
N764 N 0.52597 0.81399 0.21216 0.0
C765 C 0.61741 0.7961 0.21664 0.0
C766 C 0.66267 0.80574 0.23101 0.0
C767 C 0.63817 0.81949 0.23587 0.0
C768 C 0.54892 0.80072 0.20744 0.0
H769 H 0.54973 0.83403 0.23038 0.0
C770 C 0.39099 0.84577 0.22103 0.0
O771 O 0.25677 0.83097 0.28667 0.0
O772 O 0.37346 0.82613 0.29163 0.0
N773 N 0.43471 0.79691 0.18706 0.0
C774 C 0.38409 0.78885 0.17318 0.0
C775 C 0.40002 0.77477 0.16674 0.0
C776 C 0.46781 0.76915 0.17455 0.0
C777 C 0.51944 0.77771 0.18841 0.0
C778 C 0.50087 0.79171 0.19389 0.0
H779 H 0.33181 0.79309 0.1672 0.0
O780 O 0.3089 0.80246 0.26564 0.0
O781 O 0.39267 0.81132 0.23658 0.0
O782 O 0.25067 0.82012 0.21951 0.0
O783 O 0.32962 0.81813 0.18168 0.0
C784 C 0.58829 0.77286 0.19728 0.0
C785 C 0.63718 0.78204 0.21145 0.0
H786 H 0.71612 0.80267 0.23858 0.0
H787 H 0.67261 0.82697 0.24711 0.0
H788 H 0.35999 0.76825 0.15594 0.0
H789 H 0.47959 0.75826 0.16984 0.0
H790 H 0.60397 0.76207 0.19354 0.0
H791 H 0.6897 0.77816 0.2184 0.0
Mn792 Mn 0.37023 0.82529 0.52254 0.0
Mn793 Mn 0.26765 0.82075 0.5831 0.0
C794 C 0.30325 0.80519 0.52672 0.0
C795 C 0.37864 0.83409 0.47474 0.0
C796 C 0.43019 0.81607 0.58253 0.0
O797 O 0.36889 0.84444 0.5406 0.0
O798 O 0.29748 0.84107 0.58028 0.0
C799 C 0.13861 0.83732 0.56608 0.0
N800 N 0.16863 0.82485 0.5741 0.0
C801 C 0.05207 0.81347 0.57345 0.0
C802 C 0.01979 0.82621 0.56536 0.0
C803 C 0.06328 0.83818 0.56165 0.0
C804 C 0.1272 0.81331 0.57808 0.0
H805 H 0.17191 0.84653 0.56315 0.0
C806 C 0.33824 0.84875 0.56393 0.0
O807 O 0.43674 0.83172 0.4903 0.0
O808 O 0.31695 0.83196 0.4875 0.0
N809 N 0.2356 0.80186 0.5886 0.0
C810 C 0.27584 0.79024 0.59472 0.0
C811 C 0.24125 0.77718 0.59705 0.0
C812 C 0.16571 0.77622 0.59336 0.0
C813 C 0.12529 0.78838 0.58766 0.0
C814 C 0.16274 0.80111 0.58555 0.0
H815 H 0.33402 0.79092 0.59726 0.0
O816 O 0.35834 0.80589 0.50909 0.0
O817 O 0.28745 0.81665 0.54136 0.0
O818 O 0.44082 0.81897 0.55532 0.0
O819 O 0.3676 0.81616 0.59458 0.0
C820 C 0.04959 0.78831 0.58324 0.0
C821 C 0.01288 0.80087 0.57645 0.0
H822 H 0.9618 0.82689 0.56165 0.0
H823 H 0.03882 0.84804 0.55531 0.0
H824 H 0.27276 0.76785 0.60154 0.0
H825 H 0.13929 0.76611 0.59496 0.0
H826 H 0.01913 0.77862 0.58481 0.0
H827 H 0.95469 0.80067 0.57303 0.0
Mn828 Mn 0.362 0.95107 0.5164 0.0
Mn829 Mn 0.44257 0.95949 0.58072 0.0
C830 C 0.42056 0.97209 0.52022 0.0
C831 C 0.36736 0.94024 0.47062 0.0
C832 C 0.28187 0.96289 0.57016 0.0
O833 O 0.36263 0.93276 0.53798 0.0
O834 O 0.41509 0.93904 0.58081 0.0
C835 C 0.5767 0.9427 0.5743 0.0
N836 N 0.54386 0.95537 0.57784 0.0
C837 C 0.65927 0.96706 0.58162 0.0
C838 C 0.69432 0.95413 0.57813 0.0
C839 C 0.65283 0.94189 0.57444 0.0
C840 C 0.58327 0.96719 0.58163 0.0
H841 H 0.54503 0.93326 0.57155 0.0
C842 C 0.38412 0.93007 0.5639 0.0
O843 O 0.30546 0.94262 0.48346 0.0
O844 O 0.42552 0.94354 0.48507 0.0
N845 N 0.47202 0.97865 0.58427 0.0
C846 C 0.42987 0.99029 0.5875 0.0
C847 C 0.46306 1.00347 0.59049 0.0
C848 C 0.53912 1.00452 0.59056 0.0
C849 C 0.58135 0.99237 0.58789 0.0
C850 C 0.54524 0.97952 0.58501 0.0
H851 H 0.37138 0.98952 0.58741 0.0
O852 O 0.37256 0.96992 0.4999 0.0
O853 O 0.43582 0.96148 0.53755 0.0
O854 O 0.28111 0.95803 0.54391 0.0
O855 O 0.33956 0.96422 0.5855 0.0
C856 C 0.65783 0.9925 0.58771 0.0
C857 C 0.69677 0.97985 0.58483 0.0
H858 H 0.75303 0.95347 0.57813 0.0
H859 H 0.67948 0.93187 0.57172 0.0
H860 H 0.4301 0.01279 0.5927 0.0
H861 H 0.56452 0.01471 0.5928 0.0
H862 H 0.68724 1.00228 0.5899 0.0
H863 H 0.75556 0.98008 0.58494 0.0
Mn864 Mn 0.57801 0.56997 0.26224 0.0
Mn865 Mn 0.43431 0.59035 0.2451 0.0
C866 C 0.57165 0.57904 0.21529 0.0
C867 C 0.62339 0.54696 0.26426 0.0
C868 C 0.56506 0.60097 0.27924 0.0
O869 O 0.50998 0.56699 0.29672 0.0
O870 O 0.41258 0.57903 0.28104 0.0
C871 C 0.32937 0.56818 0.22886 0.0
N872 N 0.36494 0.58027 0.22217 0.0
C873 C 0.29865 0.58275 0.17685 0.0
C874 C 0.26082 0.57036 0.18333 0.0
C875 C 0.27642 0.56303 0.2094 0.0
C876 C 0.35015 0.58745 0.19724 0.0
H877 H 0.34128 0.56255 0.24891 0.0
C878 C 0.44496 0.57122 0.29985 0.0
O879 O 0.65357 0.55699 0.27937 0.0
O880 O 0.5659 0.55015 0.24955 0.0
N881 N 0.44521 0.60207 0.2113 0.0
C882 C 0.49248 0.61284 0.20681 0.0
C883 C 0.48742 0.62079 0.18088 0.0
C884 C 0.43349 0.61766 0.16001 0.0
C885 C 0.38526 0.60655 0.16519 0.0
C886 C 0.3925 0.59908 0.19155 0.0
H887 H 0.53386 0.61531 0.22284 0.0
O888 O 0.63122 0.57404 0.22603 0.0
O889 O 0.51401 0.57791 0.23219 0.0
O890 O 0.60435 0.58984 0.2783 0.0
O891 O 0.50156 0.60179 0.26819 0.0
C892 C 0.33208 0.60227 0.14477 0.0
C893 C 0.28882 0.59037 0.1506 0.0
H894 H 0.22041 0.56629 0.16826 0.0
H895 H 0.24775 0.55343 0.21446 0.0
H896 H 0.52503 0.6293 0.17698 0.0
H897 H 0.43029 0.62372 0.1399 0.0
H898 H 0.32514 0.60785 0.12421 0.0
H899 H 0.2492 0.58701 0.13445 0.0
Mn900 Mn 0.64524 0.70848 0.26102 0.0
Mn901 Mn 0.80408 0.69804 0.23222 0.0
C902 C 0.64885 0.70231 0.21228 0.0
C903 C 0.57852 0.72894 0.27122 0.0
C904 C 0.7055 0.6784 0.26681 0.0
O905 O 0.71677 0.71307 0.29316 0.0
O906 O 0.8213 0.70699 0.27146 0.0
C907 C 0.8585 0.72682 0.2221 0.0
N908 N 0.84029 0.71396 0.21134 0.0
C909 C 0.86371 0.72138 0.16162 0.0
C910 C 0.88324 0.73467 0.17218 0.0
C911 C 0.88052 0.7374 0.20255 0.0
C912 C 0.84167 0.71129 0.18212 0.0
H913 H 0.8557 0.729 0.24539 0.0
C914 C 0.78529 0.71176 0.29339 0.0
O915 O 0.56319 0.71725 0.28472 0.0
O916 O 0.63125 0.72862 0.2528 0.0
N917 N 0.79913 0.68912 0.19457 0.0
C918 C 0.78795 0.67529 0.18855 0.0
C919 C 0.7926 0.67054 0.15933 0.0
C920 C 0.81025 0.68 0.13674 0.0
C921 C 0.82552 0.69401 0.14373 0.0
C922 C 0.82108 0.69806 0.17329 0.0
H923 H 0.77477 0.66798 0.20587 0.0
O924 O 0.58738 0.70364 0.22568 0.0
O925 O 0.7064 0.70549 0.22762 0.0
O926 O 0.65387 0.68725 0.27216 0.0
O927 O 0.76371 0.68154 0.25265 0.0
C928 C 0.84686 0.70402 0.12264 0.0
C929 C 0.86545 0.71773 0.13156 0.0
H930 H 0.9004 0.74285 0.15719 0.0
H931 H 0.89517 0.74765 0.21087 0.0
H932 H 0.78228 0.65964 0.15423 0.0
H933 H 0.81329 0.67632 0.11421 0.0
H934 H 0.84997 0.70124 0.09956 0.0
H935 H 0.88206 0.72532 0.11517 0.0
Mn936 Mn 0.58252 0.71335 0.99238 0.0
Mn937 Mn 0.42435 0.70365 0.0228 0.0
C938 C 0.57732 0.70972 0.04213 0.0
C939 C 0.64973 0.73324 0.97883 0.0
C940 C 0.52534 0.68297 0.99221 0.0
O941 O 0.51112 0.71628 0.9593 0.0
O942 O 0.40653 0.71079 0.98193 0.0
C943 C 0.36393 0.7323 0.02737 0.0
N944 N 0.38484 0.72014 0.04056 0.0
C945 C 0.3601 0.72957 0.08867 0.0
C946 C 0.33775 0.74216 0.07558 0.0
C947 C 0.33969 0.74353 0.0448 0.0
C948 C 0.38361 0.71875 0.07016 0.0
H949 H 0.36627 0.73346 0.00375 0.0
C950 C 0.44259 0.71474 0.95925 0.0
O951 O 0.66576 0.72101 0.9678 0.0
O952 O 0.59546 0.73377 0.99649 0.0
N953 N 0.4318 0.69654 0.06208 0.0
C954 C 0.45144 0.68346 0.07107 0.0
C955 C 0.45055 0.6802 0.10122 0.0
C956 C 0.42899 0.6904 0.12176 0.0
C957 C 0.40672 0.70364 0.11188 0.0
C958 C 0.4075 0.70618 0.08153 0.0
H959 H 0.4685 0.67562 0.0554 0.0
O960 O 0.63928 0.71029 0.02887 0.0
O961 O 0.52028 0.71196 0.02586 0.0
O962 O 0.57618 0.69173 0.98536 0.0
O963 O 0.46683 0.68652 0.00565 0.0
C964 C 0.38345 0.71439 0.13093 0.0
C965 C 0.36046 0.72737 0.11934 0.0
H966 H 0.31928 0.75086 0.08895 0.0
H967 H 0.32292 0.75324 0.03455 0.0
H968 H 0.46721 0.66992 0.10864 0.0
H969 H 0.42936 0.68791 0.14502 0.0
H970 H 0.38294 0.71278 0.15453 0.0
H971 H 0.34288 0.73558 0.13421 0.0
Mn972 Mn 0.66174 0.57426 0.99939 0.0
Mn973 Mn 0.80058 0.59562 0.01749 0.0
C974 C 0.66588 0.58279 0.04676 0.0
C975 C 0.62298 0.55085 0.99606 0.0
C976 C 0.66788 0.6054 0.98345 0.0
O977 O 0.73024 0.57223 0.96497 0.0
O978 O 0.82547 0.5848 0.98109 0.0
C979 C 0.91083 0.57434 0.03304 0.0
N980 N 0.87208 0.586 0.04017 0.0
C981 C 0.93689 0.58865 0.0858 0.0
C982 C 0.97798 0.57672 0.07887 0.0
C983 C 0.96473 0.56951 0.05241 0.0
C984 C 0.88465 0.59307 0.06545 0.0
H985 H 0.9007 0.56881 0.0127 0.0
C986 C 0.7943 0.57696 0.96196 0.0
O987 O 0.58991 0.56071 0.98148 0.0
O988 O 0.67909 0.5545 0.01117 0.0
N989 N 0.78622 0.6069 0.05176 0.0
C990 C 0.73606 0.61713 0.05662 0.0
C991 C 0.73853 0.62483 0.08295 0.0
C992 C 0.79276 0.622 0.10387 0.0
C993 C 0.84389 0.61143 0.09833 0.0
C994 C 0.83917 0.60419 0.07158 0.0
H995 H 0.69439 0.61936 0.04056 0.0
O996 O 0.60748 0.57748 0.03562 0.0
O997 O 0.72379 0.58239 0.02985 0.0
O998 O 0.63082 0.59398 0.9841 0.0
O999 O 0.73104 0.60666 0.99462 0.0
C1000 C 0.89772 0.60745 0.11872 0.0
C1001 C 0.94419 0.59607 0.11246 0.0
H1002 H 0.0191 0.57288 0.09389 0.0
H1003 H 0.99591 0.56025 0.047 0.0
H1004 H 0.6987 0.63293 0.08712 0.0
H1005 H 0.79402 0.62787 0.12428 0.0
H1006 H 0.90278 0.61286 0.13958 0.0
H1007 H 0.9843 0.59292 0.12859 0.0
Mn1008 Mn 0.38342 0.45713 0.73485 0.0
Mn1009 Mn 0.27752 0.46364 0.67621 0.0
C1010 C 0.33879 0.4793 0.7282 0.0
C1011 C 0.38221 0.44879 0.78333 0.0
C1012 C 0.44228 0.46142 0.67271 0.0
O1013 O 0.36081 0.43798 0.71907 0.0
O1014 O 0.2797 0.44283 0.68333 0.0
C1015 C 0.1361 0.45525 0.70155 0.0
N1016 N 0.1791 0.46522 0.68908 0.0
C1017 C 0.08339 0.48235 0.6916 0.0
C1018 C 0.03788 0.47223 0.70427 0.0
C1019 C 0.06441 0.45863 0.70931 0.0
C1020 C 0.15421 0.47835 0.68422 0.0
H1021 H 0.15645 0.44481 0.70559 0.0
C1022 C 0.31716 0.43426 0.69892 0.0
O1023 O 0.44223 0.44881 0.76813 0.0
O1024 O 0.32495 0.45343 0.77028 0.0
N1025 N 0.27032 0.48315 0.6668 0.0
C1026 C 0.32149 0.49174 0.6548 0.0
C1027 C 0.30404 0.50578 0.64886 0.0
C1028 C 0.2341 0.51083 0.65513 0.0
C1029 C 0.182 0.50174 0.66702 0.0
C1030 C 0.20239 0.48782 0.6723 0.0
H1031 H 0.37533 0.48791 0.64994 0.0
O1032 O 0.39252 0.4771 0.74599 0.0
O1033 O 0.31067 0.46823 0.7158 0.0
O1034 O 0.45518 0.45989 0.70034 0.0
O1035 O 0.37832 0.46254 0.6619 0.0
C1036 C 0.11081 0.50597 0.67404 0.0
C1037 C 0.06152 0.49627 0.68631 0.0
H1038 H 0.98263 0.47481 0.71038 0.0
H1039 H 0.02972 0.45079 0.71921 0.0
H1040 H 0.34443 0.51271 0.63952 0.0
H1041 H 0.22094 0.52168 0.65064 0.0
H1042 H 0.09348 0.51666 0.6702 0.0
H1043 H 0.00705 0.49967 0.69176 0.0
Mn1044 Mn 0.35647 0.32999 0.74453 0.0
Mn1045 Mn 0.44854 0.32432 0.68158 0.0
C1046 C 0.4146 0.30891 0.73807 0.0
C1047 C 0.35609 0.33855 0.79257 0.0
C1048 C 0.28431 0.32261 0.6861 0.0
O1049 O 0.36383 0.34927 0.72687 0.0
O1050 O 0.43274 0.34499 0.68685 0.0
C1051 C 0.58937 0.33732 0.69704 0.0
N1052 N 0.5507 0.32596 0.6879 0.0
C1053 C 0.65982 0.31253 0.68059 0.0
C1054 C 0.70089 0.32412 0.68975 0.0
C1055 C 0.66547 0.33654 0.69814 0.0
C1056 C 0.5842 0.31393 0.67992 0.0
H1057 H 0.56227 0.3469 0.70331 0.0
C1058 C 0.39683 0.35325 0.70375 0.0
O1059 O 0.29603 0.33717 0.77777 0.0
O1060 O 0.41582 0.33555 0.77896 0.0
N1061 N 0.46782 0.30499 0.67341 0.0
C1062 C 0.42003 0.29453 0.66701 0.0
C1063 C 0.44649 0.2812 0.65944 0.0
C1064 C 0.52171 0.27882 0.65819 0.0
C1065 C 0.56981 0.28978 0.66476 0.0
C1066 C 0.54026 0.30282 0.67224 0.0
H1067 H 0.36219 0.29634 0.66768 0.0
O1068 O 0.36241 0.31027 0.75697 0.0
O1069 O 0.43283 0.32022 0.72355 0.0
O1070 O 0.27916 0.32502 0.71368 0.0
O1071 O 0.34477 0.32219 0.67241 0.0
C1072 C 0.64588 0.28822 0.66456 0.0
C1073 C 0.69086 0.29959 0.67246 0.0
H1074 H 0.75958 0.32356 0.69066 0.0
H1075 H 0.69679 0.34551 0.70534 0.0
H1076 H 0.40902 0.27279 0.65443 0.0
H1077 H 0.5419 0.26853 0.65232 0.0
H1078 H 0.67032 0.27828 0.65868 0.0
H1079 H 0.74924 0.29822 0.67254 0.0
Mn1080 Mn 0.40087 0.32546 0.01225 0.0
Mn1081 Mn 0.28835 0.32179 0.0699 0.0
C1082 C 0.33831 0.30457 0.01718 0.0
C1083 C 0.41364 0.33378 0.96426 0.0
C1084 C 0.45299 0.31956 0.07459 0.0
O1085 O 0.39154 0.34515 0.02804 0.0
O1086 O 0.30479 0.34239 0.06241 0.0
C1087 C 0.15354 0.33381 0.04508 0.0
N1088 N 0.18916 0.32289 0.05788 0.0
C1089 C 0.07953 0.30921 0.0601 0.0
C1090 C 0.04151 0.32035 0.04717 0.0
C1091 C 0.07875 0.33268 0.03953 0.0
C1092 C 0.1539 0.31098 0.06529 0.0
H1093 H 0.18202 0.3433 0.03921 0.0
C1094 C 0.34877 0.35003 0.04743 0.0
O1095 O 0.47018 0.33205 0.98108 0.0
O1096 O 0.35107 0.33086 0.97555 0.0
N1097 N 0.26726 0.3027 0.07967 0.0
C1098 C 0.31288 0.29259 0.08998 0.0
C1099 C 0.28489 0.27935 0.09731 0.0
C1100 C 0.21031 0.27667 0.09414 0.0
C1101 C 0.16437 0.28726 0.08363 0.0
C1102 C 0.19532 0.30026 0.07677 0.0
H1103 H 0.37021 0.29461 0.09256 0.0
O1104 O 0.39559 0.30548 1.00077 0.0
O1105 O 0.31777 0.31625 0.0299 0.0
O1106 O 0.46768 0.32066 0.04715 0.0
O1107 O 0.38849 0.32023 0.08483 0.0
C1108 C 0.08932 0.28534 0.07919 0.0
C1109 C 0.0469 0.29632 0.06749 0.0
H1110 H 0.9839 0.31949 0.04271 0.0
H1111 H 0.04985 0.34129 0.02939 0.0
H1112 H 0.32068 0.27123 0.10544 0.0
H1113 H 0.18895 0.26643 0.09975 0.0
H1114 H 0.06384 0.27541 0.08434 0.0
H1115 H 0.98942 0.29466 0.06385 0.0
Mn1116 Mn 0.37823 0.45589 0.00634 0.0
Mn1117 Mn 0.46109 0.46105 0.0714 0.0
C1118 C 0.42148 0.47794 0.0174 0.0
C1119 C 0.39317 0.44867 0.95743 0.0
C1120 C 0.2968 0.45989 0.06454 0.0
O1121 O 0.39301 0.43624 0.02151 0.0
O1122 O 0.45665 0.44032 0.06295 0.0
C1123 C 0.60833 0.45154 0.05469 0.0
N1124 N 0.56357 0.46178 0.06501 0.0
C1125 C 0.66365 0.47777 0.07073 0.0
C1126 C 0.71091 0.46736 0.06037 0.0
C1127 C 0.68308 0.4542 0.05225 0.0
C1128 C 0.58972 0.4745 0.07273 0.0
H1129 H 0.5871 0.44142 0.04839 0.0
C1130 C 0.4261 0.43205 0.0444 0.0
O1131 O 0.32946 0.44847 0.96986 0.0
O1132 O 0.44697 0.45267 0.9736 0.0
N1133 N 0.46957 0.48031 0.08271 0.0
C1134 C 0.41667 0.48923 0.09213 0.0
C1135 C 0.43533 0.50292 0.10061 0.0
C1136 C 0.50818 0.50725 0.09965 0.0
C1137 C 0.56181 0.49781 0.09037 0.0
C1138 C 0.54 0.48429 0.08225 0.0
H1139 H 0.36061 0.48594 0.09298 0.0
O1140 O 0.37469 0.47609 0.9965 0.0
O1141 O 0.44459 0.46657 0.03047 0.0
O1142 O 0.29484 0.45835 0.03646 0.0
O1143 O 0.35589 0.4608 0.07927 0.0
C1144 C 0.636 0.50131 0.08869 0.0
C1145 C 0.68691 0.4913 0.07894 0.0
H1146 H 0.76859 0.46938 0.05843 0.0
H1147 H 0.71918 0.44614 0.04413 0.0
H1148 H 0.39364 0.51013 0.10786 0.0
H1149 H 0.52233 0.51783 0.10614 0.0
H1150 H 0.65446 0.51169 0.09482 0.0
H1151 H 0.74378 0.49412 0.07772 0.0
H1152 H 0.12284 0.09246 0.0793 0.0
H1153 H 0.18038 0.04891 0.07108 0.0
H1154 H 0.15382 0.04518 0.12335 0.0
H1155 H 0.11374 0.05444 0.17133 0.0
H1156 H 0.09973 0.09897 0.18278 0.0
H1157 H 0.10803 0.1025 0.12945 0.0
C1158 C 0.13214 0.0823 0.08929 0.0
C1159 C 0.15563 0.07106 0.0718 0.0
C1160 C 0.12109 0.08044 0.11963 0.0
C1161 C 0.16461 0.05778 0.08453 0.0
C1162 C 0.14852 0.05563 0.11423 0.0
C1163 C 0.11012 0.06486 0.16186 0.0
C1164 C 0.09597 0.07637 0.18027 0.0
C1165 C 0.12586 0.06686 0.13191 0.0
C1166 C 0.10017 0.08992 0.16845 0.0
C1167 C 0.10793 0.09193 0.13813 0.0
H1168 H 0.13004 0.18316 0.08028 0.0
H1169 H 0.06912 0.22665 0.07499 0.0
H1170 H 0.1029 0.23004 0.12667 0.0
H1171 H 0.15189 0.22058 0.17297 0.0
H1172 H 0.17203 0.17601 0.18248 0.0
H1173 H 0.15416 0.17281 0.12944 0.0
C1174 C 0.12157 0.19322 0.09086 0.0
C1175 C 0.09538 0.20456 0.07437 0.0
C1176 C 0.13735 0.19489 0.12085 0.0
C1177 C 0.08706 0.2177 0.08776 0.0
C1178 C 0.10738 0.21968 0.11707 0.0
C1179 C 0.1547 0.21024 0.16306 0.0
C1180 C 0.17274 0.19864 0.18059 0.0
C1181 C 0.1338 0.20838 0.13365 0.0
C1182 C 0.16793 0.18515 0.16852 0.0
C1183 C 0.1548 0.18332 0.13847 0.0
H1184 H 0.91653 0.93751 0.91073 0.0
H1185 H 0.68389 0.9427 0.91172 0.0
H1186 H 0.68022 0.93953 0.85822 0.0
H1187 H 0.7456 0.93906 0.81107 0.0
H1188 H 0.97916 0.93519 0.81052 0.0
H1189 H 0.97989 0.93381 0.86415 0.0
C1190 C 0.86481 0.93773 0.8993 0.0
C1191 C 0.80068 0.94061 0.91497 0.0
C1192 C 0.86346 0.93624 0.86867 0.0
C1193 C 0.73398 0.9406 0.90005 0.0
C1194 C 0.73198 0.93886 0.86948 0.0
C1195 C 0.79656 0.9376 0.82263 0.0
C1196 C 0.8624 0.93747 0.80688 0.0
C1197 C 0.79674 0.93724 0.85349 0.0
C1198 C 0.92784 0.93545 0.82214 0.0
C1199 C 0.92833 0.93474 0.85282 0.0
H1200 H 0.81716 0.83691 0.91124 0.0
H1201 H 0.05135 0.83824 0.90967 0.0
H1202 H 0.04869 0.84167 0.85623 0.0
H1203 H 0.98026 0.84132 0.80986 0.0
H1204 H 0.74629 0.83864 0.81154 0.0
H1205 H 0.74839 0.83895 0.86536 0.0
C1206 C 0.86776 0.83811 0.8993 0.0
C1207 C 0.93453 0.8371 0.91433 0.0
C1208 C 0.86572 0.83978 0.86867 0.0
C1209 C -0.00062 0.83889 0.89859 0.0
C1210 C 0.9978 0.8408 0.86805 0.0
C1211 C 0.92952 0.84105 0.82195 0.0
C1212 C 0.86313 0.83979 0.8067 0.0
C1213 C 0.93134 0.84082 0.85282 0.0
C1214 C 0.79802 0.83956 0.82272 0.0
C1215 C 0.79928 0.83965 0.85348 0.0
H1216 H 0.11633 0.59713 0.67826 0.0
H1217 H 0.0339 0.5549 0.67829 0.0
H1218 H 0.07168 0.55196 0.62699 0.0
H1219 H 0.13217 0.56129 0.58286 0.0
H1220 H 0.17213 0.60549 0.5775 0.0
H1221 H 0.14915 0.60807 0.63038 0.0
C1222 C 0.10328 0.58756 0.66653 0.0
C1223 C 0.07027 0.5764 0.68153 0.0
C1224 C 0.1215 0.58621 0.63669 0.0
C1225 C 0.0569 0.56377 0.66668 0.0
C1226 C 0.07963 0.56202 0.6376 0.0
C1227 C 0.138 0.57139 0.59365 0.0
C1228 C 0.16394 0.58291 0.57755 0.0
C1229 C 0.11348 0.57309 0.62263 0.0
C1230 C 0.16293 0.59622 0.59061 0.0
C1231 C 0.14646 0.59775 0.62047 0.0
H1232 H 0.04264 0.69802 0.67921 0.0
H1233 H 0.27087 0.70547 0.66894 0.0
H1234 H 0.26226 0.70019 0.61633 0.0
H1235 H 0.18544 0.69621 0.57288 0.0
H1236 H 0.95942 0.70586 0.58246 0.0
H1237 H 0.9668 0.70164 0.63545 0.0
C1238 C 0.09105 0.69825 0.66563 0.0
C1239 C 0.16004 0.70009 0.6787 0.0
C1240 C 0.08308 0.69822 0.63498 0.0
C1241 C 0.22021 0.70171 0.66024 0.0
C1242 C 0.21409 0.69941 0.62993 0.0
C1243 C 0.1372 0.69713 0.58643 0.0
C1244 C 0.06858 0.69924 0.57318 0.0
C1245 C 0.1453 0.69776 0.61706 0.0
C1246 C 0.00901 0.7018 0.59148 0.0
C1247 C 0.01469 0.70014 0.62196 0.0
H1248 H 0.96145 0.44489 0.42801 0.0
H1249 H 0.72831 0.4492 0.42994 0.0
H1250 H 0.72463 0.44782 0.37611 0.0
H1251 H 0.78912 0.44784 0.32866 0.0
H1252 H 0.02272 0.44421 0.32718 0.0
H1253 H 0.02466 0.44276 0.38086 0.0
C1254 C 0.90962 0.44537 0.41672 0.0
C1255 C 0.84524 0.44731 0.43294 0.0
C1256 C 0.90815 0.44479 0.38588 0.0
C1257 C 0.77859 0.44774 0.41798 0.0
C1258 C 0.77656 0.44702 0.3872 0.0
C1259 C 0.84045 0.44655 0.34004 0.0
C1260 C 0.90584 0.44628 0.32392 0.0
C1261 C 0.84121 0.44592 0.37093 0.0
C1262 C 0.97171 0.44451 0.33902 0.0
C1263 C 0.97286 0.44372 0.36972 0.0
H1264 H 0.95919 0.33885 0.32142 0.0
H1265 H 0.72695 0.33302 0.31891 0.0
H1266 H 0.72197 0.33488 0.37266 0.0
H1267 H 0.7857 0.33538 0.42022 0.0
H1268 H 0.01867 0.3403 0.42231 0.0
H1269 H 0.02119 0.34172 0.36863 0.0
C1270 C 0.90724 0.33816 0.33257 0.0
C1271 C 0.84358 0.3356 0.31627 0.0
C1272 C 0.90511 0.33897 0.36334 0.0
C1273 C 0.77669 0.33493 0.33098 0.0
C1274 C 0.77394 0.33592 0.3617 0.0
C1275 C 0.83698 0.33697 0.40897 0.0
C1276 C 0.9021 0.33756 0.42522 0.0
C1277 C 0.83811 0.33751 0.37811 0.0
C1278 C 0.96791 0.33973 0.41033 0.0
C1279 C 0.96938 0.34049 0.37964 0.0
H1280 H 0.61114 0.0594 0.67087 0.0
H1281 H 0.60673 0.10395 0.6824 0.0
H1282 H 0.62047 0.10748 0.6292 0.0
H1283 H 0.6306 0.0971 0.57892 0.0
H1284 H 0.68281 0.05327 0.57143 0.0
H1285 H 0.65575 0.0499 0.6237 0.0
C1286 C 0.61111 0.06986 0.66145 0.0
C1287 C 0.5964 0.08146 0.67957 0.0
C1288 C 0.63076 0.07175 0.63185 0.0
C1289 C 0.60586 0.09495 0.668 0.0
C1290 C 0.61727 0.09691 0.63784 0.0
C1291 C 0.64053 0.08701 0.58911 0.0
C1292 C 0.66134 0.07555 0.57166 0.0
C1293 C 0.62928 0.08533 0.61948 0.0
C1294 C 0.66942 0.06233 0.58477 0.0
C1295 C 0.65272 0.06036 0.61448 0.0
H1296 H 0.6175 0.18692 0.67759 0.0
H1297 H 0.67331 0.23063 0.68385 0.0
H1298 H 0.63925 0.23408 0.63225 0.0
H1299 H 0.59178 0.22455 0.58568 0.0
H1300 H 0.58711 0.17999 0.57447 0.0
H1301 H 0.60148 0.17653 0.62762 0.0
C1302 C 0.62616 0.197 0.66719 0.0
C1303 C 0.65071 0.20839 0.68402 0.0
C1304 C 0.61156 0.19869 0.63707 0.0
C1305 C 0.6571 0.22163 0.67086 0.0
C1306 C 0.63662 0.22363 0.64157 0.0
C1307 C 0.59166 0.21411 0.59519 0.0
C1308 C 0.57677 0.20248 0.57717 0.0
C1309 C 0.61266 0.21225 0.62461 0.0
C1310 C 0.58605 0.18901 0.58881 0.0
C1311 C 0.59803 0.18708 0.61893 0.0
H1312 H 0.4892 0.9376 0.43753 0.0
H1313 H 0.25574 0.93394 0.43334 0.0
H1314 H 0.2617 0.93246 0.37976 0.0
H1315 H 0.33094 0.93596 0.33453 0.0
H1316 H 0.56348 0.94106 0.33823 0.0
H1317 H 0.5604 0.93799 0.39178 0.0
C1318 C 0.43969 0.93618 0.42496 0.0
C1319 C 0.37194 0.93612 0.43935 0.0
C1320 C 0.44338 0.93577 0.39413 0.0
C1321 C 0.30844 0.93414 0.42278 0.0
C1322 C 0.3118 0.93337 0.39213 0.0
C1323 C 0.38118 0.93619 0.34699 0.0
C1324 C 0.44724 0.93901 0.33262 0.0
C1325 C 0.37863 0.93478 0.37762 0.0
C1326 C 0.51198 0.939 0.34888 0.0
C1327 C 0.51011 0.93733 0.37948 0.0
H1328 H 0.2641 0.83908 0.43884 0.0
H1329 H 0.49779 0.8356 0.43882 0.0
H1330 H 0.49813 0.836 0.385 0.0
H1331 H 0.43116 0.83431 0.33856 0.0
H1332 H 0.19714 0.83658 0.33851 0.0
H1333 H 0.19781 0.83982 0.392 0.0
C1334 C 0.31532 0.83865 0.42711 0.0
C1335 C 0.38088 0.83714 0.44283 0.0
C1336 C 0.31486 0.8385 0.39623 0.0
C1337 C 0.44666 0.83671 0.42728 0.0
C1338 C 0.44679 0.83685 0.39651 0.0
C1339 C 0.3802 0.83567 0.35016 0.0
C1340 C 0.31401 0.83499 0.33465 0.0
C1341 C 0.38106 0.83726 0.38084 0.0
C1342 C 0.24868 0.83699 0.34996 0.0
C1343 C 0.24911 0.83879 0.38053 0.0
H1344 H 0.54625 0.58793 0.07844 0.0
H1345 H 0.77479 0.58062 0.08786 0.0
H1346 H 0.76647 0.58473 0.14083 0.0
H1347 H 0.68963 0.58671 0.18476 0.0
H1348 H 0.46436 0.57663 0.17369 0.0
H1349 H 0.47099 0.58289 0.12158 0.0
C1350 C 0.59476 0.58752 0.09196 0.0
C1351 C 0.66362 0.58596 0.07867 0.0
C1352 C 0.58697 0.58666 0.12254 0.0
C1353 C 0.72414 0.58418 0.09688 0.0
C1354 C 0.71815 0.58576 0.12739 0.0
C1355 C 0.64141 0.58616 0.17109 0.0
C1356 C 0.57329 0.58317 0.1839 0.0
C1357 C 0.6493 0.58674 0.14047 0.0
C1358 C 0.51363 0.58118 0.16533 0.0
C1359 C 0.51884 0.58406 0.13525 0.0
H1360 H 0.63178 0.72339 0.17477 0.0
H1361 H 0.64357 0.6785 0.17991 0.0
H1362 H 0.6255 0.67664 0.12656 0.0
H1363 H 0.60596 0.68821 0.07845 0.0
H1364 H 0.55758 0.73234 0.07652 0.0
H1365 H 0.58863 0.73433 0.12885 0.0
C1366 C 0.63231 0.71326 0.16387 0.0
C1367 C 0.64701 0.70114 0.18025 0.0
C1368 C 0.61303 0.71225 0.13412 0.0
C1369 C 0.6401 0.68797 0.16689 0.0
C1370 C 0.62768 0.68692 0.13667 0.0
C1371 C 0.59995 0.69813 0.08985 0.0
C1372 C 0.57768 0.71003 0.07423 0.0
C1373 C 0.61414 0.69902 0.12007 0.0
C1374 C 0.57238 0.72299 0.08864 0.0
C1375 C 0.59103 0.72414 0.11833 0.0
H1376 H 0.49075 0.44766 0.82454 0.0
H1377 H 0.26085 0.44116 0.81264 0.0
H1378 H 0.24414 0.43912 0.86558 0.0
H1379 H 0.29198 0.44209 0.91564 0.0
H1380 H 0.52159 0.44892 0.92786 0.0
H1381 H 0.541 0.44777 0.87492 0.0
C1382 C 0.43743 0.44546 0.83355 0.0
C1383 C 0.37715 0.44475 0.8147 0.0
C1384 C 0.42772 0.44455 0.86426 0.0
C1385 C 0.30819 0.44194 0.82671 0.0
C1386 C 0.29838 0.4408 0.85704 0.0
C1387 C 0.34636 0.4431 0.90674 0.0
C1388 C 0.40486 0.44579 0.92571 0.0
C1389 C 0.3573 0.44257 0.87611 0.0
C1390 C 0.47519 0.44698 0.91378 0.0
C1391 C 0.48653 0.44634 0.88342 0.0
H1392 H 0.47332 0.33943 0.82875 0.0
H1393 H 0.24015 0.34408 0.82823 0.0
H1394 H 0.2394 0.34477 0.88197 0.0
H1395 H 0.30285 0.34112 0.92859 0.0
H1396 H 0.53517 0.3353 0.92948 0.0
H1397 H 0.53854 0.3382 0.87591 0.0
C1398 C 0.4224 0.34084 0.84036 0.0
C1399 C 0.3567 0.34154 0.82451 0.0
C1400 C 0.42223 0.34088 0.87125 0.0
C1401 C 0.29135 0.34344 0.83988 0.0
C1402 C 0.29088 0.34377 0.87061 0.0
C1403 C 0.35448 0.34065 0.91715 0.0
C1404 C 0.41862 0.33779 0.93291 0.0
C1405 C 0.35567 0.34203 0.88646 0.0
C1406 C 0.48506 0.33743 0.91782 0.0
C1407 C 0.4869 0.33901 0.8872 0.0
H1408 H 0.25521 0.98243 0.26643 0.0
H1409 H 0.45651 0.99892 0.23315 0.0
H1410 H 0.41162 0.02292 0.23935 0.0
H1411 H 0.31387 0.03933 0.25415 0.0
H1412 H 0.11152 0.02264 0.28613 0.0
H1413 H 0.15774 0.99874 0.28103 0.0
C1414 C 0.28834 0.99131 0.25993 0.0
C1415 C 0.35784 0.98897 0.24826 0.0
C1416 C 0.26255 1.00507 0.2641 0.0
C1417 C 0.40187 1.00053 0.2413 0.0
C1418 C 0.37651 0.01423 0.24514 0.0
C1419 C 0.28096 0.03045 0.26077 0.0
C1420 C 0.2103 0.03272 0.27139 0.0
C1421 C 0.30709 0.01666 0.25677 0.0
C1422 C 0.16685 0.02112 0.27868 0.0
C1423 C 0.19291 0.00745 0.27545 0.0
H1424 H 0.87465 0.27698 0.23607 0.0
H1425 H 0.07114 0.30135 0.23755 0.0
H1426 H 0.1418 0.28032 0.2487 0.0
H1427 H 0.1465 0.25507 0.26 0.0
H1428 H 0.94784 0.23138 0.26633 0.0
H1429 H 0.87812 0.25222 0.252 0.0
C1430 C 0.9332 0.27761 0.23829 0.0
C1431 C 0.9686 0.29053 0.23351 0.0
C1432 C 0.97227 0.2657 0.24743 0.0
C1433 C 0.04371 0.29134 0.23823 0.0
C1434 C 0.08364 0.27938 0.24567 0.0
C1435 C 0.08774 0.25454 0.25874 0.0
C1436 C 0.0522 0.24172 0.26442 0.0
C1437 C 0.04835 0.26653 0.25057 0.0
C1438 C 0.97623 0.24117 0.26265 0.0
C1439 C 0.93659 0.25303 0.254 0.0
H1440 H 0.11289 0.25648 0.98931 0.0
H1441 H 0.31041 0.23255 0.98153 0.0
H1442 H 0.38157 0.25336 0.99482 0.0
H1443 H 0.38669 0.2781 0.01077 0.0
H1444 H 0.19107 0.30271 0.0111 0.0
H1445 H 0.1191 0.28177 1.0003 0.0
C1446 C 0.1717 0.2559 0.98995 0.0
C1447 C 0.20649 0.24301 0.98424 0.0
C1448 C 0.21194 0.26787 0.99763 0.0
C1449 C 0.28253 0.24239 0.98524 0.0
C1450 C 0.32303 0.25423 0.99333 0.0
C1451 C 0.32808 0.2788 0.00899 0.0
C1452 C 0.29337 0.29175 0.0142 0.0
C1453 C 0.28814 0.26695 1.00013 0.0
C1454 C 0.2181 0.29267 0.01004 0.0
C1455 C 0.17738 0.28077 0.00283 0.0
H1456 H 0.95226 0.04063 0.99105 0.0
H1457 H 0.1507 0.023 0.95742 0.0
H1458 H 0.10095 0.99932 0.96227 0.0
H1459 H 0.00223 0.98349 0.97799 0.0
H1460 H 0.8051 1.001 0.01304 0.0
H1461 H 0.85274 0.02476 0.0062 0.0
C1462 C 0.9834 0.0316 0.98388 0.0
C1463 C 0.054 0.03354 0.97291 0.0
C1464 C 0.9554 0.01797 0.98787 0.0
C1465 C 0.09533 0.02174 0.96503 0.0
C1466 C 0.06729 0.00821 0.96818 0.0
C1467 C 0.97059 0.99254 0.98466 0.0
C1468 C 0.90158 0.99056 0.99711 0.0
C1469 C 0.99792 0.00616 0.98011 0.0
C1470 C 0.85939 1.00233 0.0043 0.0
C1471 C 0.8863 0.01589 1.00011 0.0
H1472 H 0.58966 0.02354 0.75138 0.0
H1473 H 0.7922 0.04407 0.77181 0.0
H1474 H 0.85877 0.02281 0.75833 0.0
H1475 H 0.85929 0.99876 0.73926 0.0
H1476 H 0.6571 0.97707 0.72565 0.0
H1477 H 0.58981 0.99862 0.73667 0.0
C1478 C 0.64835 0.02327 0.7533 0.0
C1479 C 0.68617 0.03532 0.76263 0.0
C1480 C 0.68601 0.01101 0.74571 0.0
C1481 C 0.762 0.03486 0.76511 0.0
C1482 C 0.80002 0.02279 0.75701 0.0
C1483 C 0.80042 0.99885 0.73827 0.0
C1484 C 0.763 0.98665 0.72973 0.0
C1485 C 0.76259 0.01091 0.74684 0.0
C1486 C 0.68692 0.98662 0.73006 0.0
C1487 C 0.64862 0.99883 0.73711 0.0
H1488 H 0.16527 0.76012 0.75099 0.0
H1489 H 0.96566 0.73711 0.76267 0.0
H1490 H 0.89592 0.75748 0.74679 0.0
H1491 H 0.89134 0.78158 0.72916 0.0
H1492 H 0.08648 0.80634 0.7267 0.0
H1493 H 0.15924 0.78546 0.73815 0.0
C1494 C 0.10645 0.7597 0.75047 0.0
C1495 C 0.07049 0.74718 0.75811 0.0
C1496 C 0.06645 0.77159 0.74199 0.0
C1497 C 0.99439 0.7467 0.75737 0.0
C1498 C 0.95456 0.75827 0.74792 0.0
C1499 C 0.95004 0.78233 0.73063 0.0
C1500 C 0.98424 0.79522 0.72508 0.0
C1501 C 0.99008 0.77069 0.73989 0.0
C1502 C 0.05968 0.79629 0.72868 0.0
C1503 C 0.10088 0.78444 0.73603 0.0
H1504 H 0.78951 0.73864 0.99413 0.0
H1505 H 0.59814 0.75728 0.95638 0.0
H1506 H 0.65116 0.78064 0.96163 0.0
H1507 H 0.74975 0.79594 0.97927 0.0
H1508 H 0.94167 0.77753 0.01693 0.0
H1509 H 0.8909 0.75399 0.00996 0.0
C1510 C 0.76091 0.74779 0.98603 0.0
C1511 C 0.69117 0.74624 0.97391 0.0
C1512 C 0.79088 0.76127 0.99007 0.0
C1513 C 0.65295 0.75823 0.96483 0.0
C1514 C 0.68274 0.77159 0.96827 0.0
C1515 C 0.77961 0.78675 0.9864 0.0
C1516 C 0.84783 0.7884 0.99972 0.0
C1517 C 0.75095 0.77327 0.98146 0.0
C1518 C 0.88787 0.77645 0.00755 0.0
C1519 C 0.85922 0.76301 0.00325 0.0
H1520 H 0.25731 0.54192 0.7523 0.0
H1521 H 0.05935 0.52246 0.78171 0.0
H1522 H 0.10584 0.49936 0.76758 0.0
H1523 H 0.2031 0.48478 0.74652 0.0
H1524 H 0.39982 0.5043 0.71596 0.0
H1525 H 0.35312 0.5274 0.72991 0.0
C1526 C 0.22565 0.53253 0.75646 0.0
C1527 C 0.15647 0.53369 0.76907 0.0
C1528 C 0.25144 0.51943 0.74705 0.0
C1529 C 0.11394 0.52163 0.773 0.0
C1530 C 0.13994 0.5085 0.76447 0.0
C1531 C 0.23449 0.49418 0.74215 0.0
C1532 C 0.30353 0.49303 0.72942 0.0
C1533 C 0.2082 0.5073 0.7511 0.0
C1534 C 0.34555 0.50511 0.72499 0.0
C1535 C 0.31936 0.51824 0.73336 0.0
H1536 H 0.34827 0.77883 0.52033 0.0
H1537 H 0.15503 0.80414 0.52155 0.0
H1538 H 0.08095 0.78345 0.51013 0.0
H1539 H 0.07294 0.75808 0.49822 0.0
H1540 H 0.27028 0.73425 0.48801 0.0
H1541 H 0.34186 0.75456 0.50322 0.0
C1542 C 0.2897 0.77974 0.51858 0.0
C1543 C 0.25629 0.79274 0.52393 0.0
C1544 C 0.24887 0.76815 0.50941 0.0
C1545 C 0.18109 0.79401 0.51987 0.0
C1546 C 0.13915 0.78226 0.51253 0.0
C1547 C 0.13171 0.75746 0.49887 0.0
C1548 C 0.16648 0.74474 0.49191 0.0
C1549 C 0.17264 0.76928 0.50704 0.0
C1550 C 0.2425 0.74399 0.49281 0.0
C1551 C 0.28332 0.75554 0.50189 0.0
H1552 H 0.8708 0.50497 0.51611 0.0
H1553 H 0.06685 0.48047 0.51493 0.0
H1554 H 0.13846 0.50153 0.50523 0.0
H1555 H 0.14418 0.52685 0.49548 0.0
H1556 H 0.94666 0.55086 0.4891 0.0
H1557 H 0.8755 0.52989 0.50147 0.0
C1558 C 0.92942 0.50433 0.51424 0.0
C1559 C 0.96447 0.49137 0.51868 0.0
C1560 C 0.96912 0.51628 0.50599 0.0
C1561 C 0.03969 0.49051 0.51445 0.0
C1562 C 0.08019 0.50248 0.50786 0.0
C1563 C 0.08537 0.52741 0.49625 0.0
C1564 C 0.05042 0.54031 0.49121 0.0
C1565 C 0.04533 0.51539 0.50337 0.0
C1566 C 0.97444 0.54097 0.49232 0.0
C1567 C 0.93403 0.52905 0.49987 0.0
H1568 H 0.76279 0.5407 0.25052 0.0
H1569 H 0.5544 0.52186 0.2671 0.0
H1570 H 0.60371 0.49864 0.25545 0.0
H1571 H 0.70852 0.48353 0.24256 0.0
H1572 H 0.91455 0.50273 0.22311 0.0
H1573 H 0.86393 0.52592 0.23319 0.0
C1574 C 0.72873 0.53146 0.25207 0.0
C1575 C 0.65587 0.53288 0.26068 0.0
C1576 C 0.75671 0.51823 0.24415 0.0
C1577 C 0.61126 0.52093 0.26132 0.0
C1578 C 0.63922 0.50768 0.25437 0.0
C1579 C 0.74135 0.49285 0.23949 0.0
C1580 C 0.81464 0.49148 0.23135 0.0
C1581 C 0.71197 0.50619 0.24575 0.0
C1582 C 0.85754 0.50359 0.22871 0.0
C1583 C 0.82888 0.51683 0.23483 0.0
H1584 H 0.70949 0.29884 0.50494 0.0
H1585 H 0.91734 0.28064 0.52527 0.0
H1586 H 0.86845 0.25711 0.51708 0.0
H1587 H 0.76729 0.24174 0.50223 0.0
H1588 H 0.55774 0.25982 0.48433 0.0
H1589 H 0.60618 0.28337 0.49309 0.0
C1590 C 0.74312 0.28967 0.50849 0.0
C1591 C 0.81611 0.29134 0.51654 0.0
C1592 C 0.71486 0.27621 0.50327 0.0
C1593 C 0.8604 0.27948 0.51978 0.0
C1594 C 0.83274 0.26607 0.51477 0.0
C1595 C 0.73297 0.2509 0.4996 0.0
C1596 C 0.65995 0.24919 0.49167 0.0
C1597 C 0.76046 0.26432 0.50587 0.0
C1598 C 0.61478 0.26101 0.48961 0.0
C1599 C 0.64217 0.27443 0.49495 0.0
H1600 H 0.36645 0.28296 0.74918 0.0
H1601 H 0.56228 0.30682 0.7366 0.0
H1602 H 0.63554 0.28599 0.74678 0.0
H1603 H 0.64297 0.26119 0.76145 0.0
H1604 H 0.44682 0.23838 0.7814 0.0
H1605 H 0.37404 0.25889 0.76807 0.0
C1606 C 0.42524 0.2835 0.74818 0.0
C1607 C 0.45917 0.29612 0.74 0.0
C1608 C 0.46654 0.27185 0.75671 0.0
C1609 C 0.53515 0.29693 0.7403 0.0
C1610 C 0.57688 0.28513 0.7471 0.0
C1611 C 0.58429 0.2608 0.76334 0.0
C1612 C 0.55015 0.24833 0.77249 0.0
C1613 C 0.54305 0.27259 0.75566 0.0
C1614 C 0.47426 0.24793 0.77488 0.0
C1615 C 0.43269 0.25957 0.76682 0.0
H1616 H 0.63269 0.02256 0.49808 0.0
H1617 H 0.42914 0.0434 0.48099 0.0
H1618 H 0.36332 0.0219 0.49355 0.0
H1619 H 0.36405 0.99743 0.51041 0.0
H1620 H 0.56738 0.97589 0.52209 0.0
H1621 H 0.63361 0.99764 0.51189 0.0
C1622 C 0.57389 0.02235 0.49678 0.0
C1623 C 0.53565 0.03452 0.48856 0.0
C1624 C 0.53673 0.01001 0.50403 0.0
C1625 C 0.45967 0.03411 0.48686 0.0
C1626 C 0.42211 0.02189 0.49441 0.0
C1627 C 0.42293 0.99761 0.51121 0.0
C1628 C 0.46108 0.98535 0.51873 0.0
C1629 C 0.46013 0.00986 0.5034 0.0
C1630 C 0.53712 0.98544 0.51826 0.0
C1631 C 0.57478 0.99778 0.51173 0.0
H1632 H 0.44233 0.73578 0.25329 0.0
H1633 H 0.63418 0.75244 0.29459 0.0
H1634 H 0.58792 0.77631 0.28881 0.0
H1635 H 0.49461 0.79261 0.27024 0.0
H1636 H 0.3015 0.77612 0.2297 0.0
H1637 H 0.34635 0.75213 0.23637 0.0
C1638 C 0.47244 0.74463 0.262 0.0
C1639 C 0.54022 0.74236 0.27539 0.0
C1640 C 0.44628 0.75839 0.2578 0.0
C1641 C 0.58062 0.75394 0.28523 0.0
C1642 C 0.55475 0.7676 0.28148 0.0
C1643 C 0.46325 0.78373 0.2624 0.0
C1644 C 0.39639 0.78607 0.24839 0.0
C1645 C 0.4883 0.76998 0.2673 0.0
C1646 C 0.35435 0.77452 0.23962 0.0
C1647 C 0.37958 0.76082 0.24376 0.0
H1648 H 0.56259 0.48609 0.01268 0.0
H1649 H 0.34594 0.50159 0.02688 0.0
H1650 H 0.38763 0.52565 0.01943 0.0
H1651 H 0.48459 0.54225 0.00574 0.0
H1652 H 0.70268 0.52702 0.99398 0.0
H1653 H 0.66204 0.50297 0.0033 0.0
C1654 C 0.5253 0.4948 0.01519 0.0
C1655 C 0.45173 0.49214 0.02112 0.0
C1656 C 0.54957 0.50863 0.01036 0.0
C1657 C 0.40318 0.50346 0.02303 0.0
C1658 C 0.42681 0.51719 0.01839 0.0
C1659 C 0.52276 0.53361 0.00473 0.0
C1660 C 0.59596 0.53629 0.99823 0.0
C1661 C 0.49948 0.51989 0.01124 0.0
C1662 C 0.64564 0.52511 0.99821 0.0
C1663 C 0.62259 0.51139 0.00382 0.0
H1664 H 0.0829 0.16468 0.28078 0.0
H1665 H 0.31304 0.1564 0.27667 0.0
H1666 H 0.29041 0.13132 0.27933 0.0
H1667 H 0.20475 0.1115 0.27638 0.0
H1668 H 0.97465 0.11988 0.28033 0.0
H1669 H 0.99809 0.14485 0.28454 0.0
C1670 C 0.1282 0.15742 0.28119 0.0
C1671 C 0.19941 0.16252 0.27807 0.0
C1672 C 0.11493 0.14287 0.28231 0.0
C1673 C 0.25737 0.15286 0.27863 0.0
C1674 C 0.2446 0.13844 0.28009 0.0
C1675 C 0.15982 0.11875 0.27881 0.0
C1676 C 0.08811 0.11372 0.27751 0.0
C1677 C 0.17349 0.13328 0.28092 0.0
C1678 C 0.0306 0.12337 0.28075 0.0
C1679 C 0.04381 0.13773 0.28317 0.0
H1680 H 0.18475 0.16523 0.9788 0.0
H1681 H 0.95418 0.15727 0.98018 0.0
H1682 H 0.97592 0.13216 0.97674 0.0
H1683 H 0.06048 0.11215 0.97919 0.0
H1684 H 0.29106 0.12015 0.97884 0.0
H1685 H 0.2691 0.14525 0.97566 0.0
C1686 C 0.13926 0.15804 0.97766 0.0
C1687 C 0.06803 0.16323 0.98006 0.0
C1688 C 0.15204 0.14346 0.9762 0.0
C1689 C 0.00979 0.15364 0.97871 0.0
C1690 C 0.02206 0.13921 0.97679 0.0
C1691 C 0.10588 0.11936 0.97778 0.0
C1692 C 0.17724 0.11418 0.97961 0.0
C1693 C 0.093 0.13394 0.97642 0.0
C1694 C 0.23537 0.12377 0.97786 0.0
C1695 C 0.22298 0.13819 0.97606 0.0
H1696 H 0.74912 0.90963 0.67604 0.0
H1697 H 0.97136 0.92256 0.66548 0.0
H1698 H 0.00969 0.8981 0.6603 0.0
H1699 H 0.98193 0.8729 0.66727 0.0
H1700 H 0.7599 0.86034 0.6813 0.0
H1701 H 0.71931 0.88454 0.67613 0.0
C1702 C 0.80537 0.90705 0.67148 0.0
C1703 C 0.85732 0.91775 0.67076 0.0
C1704 C 0.82723 0.89295 0.66966 0.0
C1705 C 0.93049 0.91438 0.66568 0.0
C1706 C 0.95247 0.90041 0.66302 0.0
C1707 C 0.92465 0.87548 0.66832 0.0
C1708 C 0.874 0.86495 0.67487 0.0
C1709 C 0.90174 0.88956 0.6662 0.0
C1710 C 0.79984 0.86837 0.6765 0.0
C1711 C 0.77655 0.8822 0.67362 0.0
H1712 H 0.78032 0.91207 0.03236 0.0
H1713 H 0.01341 0.91611 0.03258 0.0
H1714 H 0.02573 0.89052 0.03393 0.0
H1715 H 0.96976 0.86701 0.03145 0.0
H1716 H 0.73684 0.86296 0.03481 0.0
H1717 H 0.72458 0.88857 0.03593 0.0
C1718 C 0.83381 0.90733 0.03299 0.0
C1719 C 0.89598 0.91595 0.03201 0.0
C1720 C 0.8403 0.89264 0.03429 0.0
C1721 C 0.96489 0.90971 0.03332 0.0
C1722 C 0.97185 0.89508 0.03394 0.0
C1723 C 0.91634 0.87176 0.03271 0.0
C1724 C 0.85415 0.86314 0.03268 0.0
C1725 C 0.90994 0.88645 0.03388 0.0
C1726 C 0.78537 0.86938 0.0348 0.0
C1727 C 0.77844 0.88401 0.03529 0.0
H1728 H 0.97957 0.62584 0.77576 0.0
H1729 H 0.19227 0.60759 0.78746 0.0
H1730 H 0.24402 0.6309 0.79438 0.0
H1731 H 0.23175 0.65633 0.7896 0.0
H1732 H 0.02049 0.67467 0.7755 0.0
H1733 H 0.96495 0.6514 0.77783 0.0
C1734 C 0.03714 0.62691 0.78024 0.0
C1735 C 0.0822 0.61495 0.78048 0.0
C1736 C 0.06677 0.64036 0.78369 0.0
C1737 C 0.15636 0.61657 0.78689 0.0
C1738 C 0.18608 0.62991 0.79075 0.0
C1739 C 0.17329 0.65527 0.78765 0.0
C1740 C 0.13039 0.66719 0.7819 0.0
C1741 C 0.14222 0.64187 0.78809 0.0
C1742 C 0.05472 0.66569 0.77993 0.0
C1743 C 0.02307 0.65236 0.78093 0.0
H1744 H 0.19034 0.66902 0.48072 0.0
H1745 H 0.97356 0.65765 0.45402 0.0
H1746 H 0.0093 0.63312 0.45021 0.0
H1747 H 0.09579 0.61457 0.46296 0.0
H1748 H 0.31215 0.62589 0.49096 0.0
H1749 H 0.28316 0.65058 0.48539 0.0
C1750 C 0.15178 0.66123 0.47305 0.0
C1751 C 0.07933 0.6651 0.46801 0.0
C1752 C 0.17211 0.64703 0.47177 0.0
C1753 C 0.02962 0.65489 0.45831 0.0
C1754 C 0.04985 0.64083 0.4563 0.0
C1755 C 0.13716 0.6224 0.46725 0.0
C1756 C 0.20537 0.61828 0.4781 0.0
C1757 C 0.11999 0.63669 0.46437 0.0
C1758 C 0.25851 0.62866 0.48314 0.0
C1759 C 0.24209 0.64286 0.47997 0.0
H1760 H 0.80317 0.3664 0.19869 0.0
H1761 H 0.03713 0.36676 0.19946 0.0
H1762 H 0.0366 0.39248 0.2001 0.0
H1763 H 0.96894 0.4148 0.20387 0.0
H1764 H 0.73534 0.4145 0.19896 0.0
H1765 H 0.73596 0.3888 0.19632 0.0
C1766 C 0.85401 0.37215 0.19867 0.0
C1767 C 0.92018 0.36473 0.19934 0.0
C1768 C 0.85313 0.3869 0.19845 0.0
C1769 C 0.98566 0.37224 0.1989 0.0
C1770 C 0.98527 0.38693 0.19943 0.0
C1771 C 0.91827 0.40907 0.20195 0.0
C1772 C 0.85205 0.41647 0.20196 0.0
C1773 C 0.91932 0.39436 0.19975 0.0
C1774 C 0.78681 0.40902 0.19901 0.0
C1775 C 0.78725 0.39434 0.19762 0.0
H1776 H 0.96296 0.36735 0.54811 0.0
H1777 H 0.72911 0.36796 0.54959 0.0
H1778 H 0.73048 0.39366 0.55252 0.0
H1779 H 0.7988 0.41591 0.55074 0.0
H1780 H 0.03271 0.41523 0.55283 0.0
H1781 H 0.03122 0.38952 0.55275 0.0
C1782 C 0.91241 0.37316 0.54942 0.0
C1783 C 0.84595 0.3659 0.5483 0.0
C1784 C 0.91387 0.38784 0.55163 0.0
C1785 C 0.78071 0.37339 0.55042 0.0
C1786 C 0.78161 0.38805 0.55195 0.0
C1787 C 0.84936 0.41009 0.55151 0.0
C1788 C 0.91587 0.41737 0.55141 0.0
C1789 C 0.84786 0.39538 0.55197 0.0
C1790 C 0.98104 0.40981 0.55288 0.0
C1791 C 0.9801 0.39514 0.55268 0.0
H1792 H 0.49737 0.12622 0.78254 0.0
H1793 H 0.7139 0.10897 0.77934 0.0
H1794 H 0.76517 0.1325 0.78294 0.0
H1795 H 0.74812 0.15799 0.77992 0.0
H1796 H 0.53146 0.1752 0.78269 0.0
H1797 H 0.48085 0.15165 0.78668 0.0
C1798 C 0.55582 0.12757 0.78318 0.0
C1799 C 0.60165 0.11585 0.78021 0.0
C1800 C 0.58498 0.14114 0.78485 0.0
C1801 C 0.67726 0.11779 0.78153 0.0
C1802 C 0.70669 0.13126 0.78336 0.0
C1803 C 0.68987 0.15661 0.78187 0.0
C1804 C 0.64365 0.16835 0.78052 0.0
C1805 C 0.66101 0.14303 0.78391 0.0
C1806 C 0.56837 0.16638 0.78357 0.0
C1807 C 0.53929 0.15289 0.78568 0.0
H1808 H 0.48287 0.15721 0.47535 0.0
H1809 H 0.69974 0.17437 0.47707 0.0
H1810 H 0.7504 0.15082 0.4725 0.0
H1811 H 0.73311 0.12531 0.47454 0.0
H1812 H 0.51597 0.10821 0.47385 0.0
H1813 H 0.46565 0.13182 0.47118 0.0
C1814 C 0.54126 0.15585 0.47426 0.0
C1815 C 0.58739 0.16756 0.47699 0.0
C1816 C 0.57005 0.14226 0.47212 0.0
C1817 C 0.66286 0.16558 0.47507 0.0
C1818 C 0.69193 0.15208 0.47268 0.0
C1819 C 0.67475 0.12671 0.47337 0.0
C1820 C 0.62846 0.11495 0.47486 0.0
C1821 C 0.64604 0.14033 0.4722 0.0
C1822 C 0.55303 0.11701 0.47288 0.0
C1823 C 0.5241 0.13054 0.4715 0.0
H1824 H 0.47663 0.90989 0.21641 0.0
H1825 H 0.2439 0.91439 0.21336 0.0
H1826 H 0.23021 0.88881 0.21265 0.0
H1827 H 0.2846 0.8652 0.21639 0.0
H1828 H 0.51737 0.86065 0.21569 0.0
H1829 H 0.53121 0.88623 0.21414 0.0
C1830 C 0.42293 0.90525 0.2153 0.0
C1831 C 0.36122 0.91401 0.21528 0.0
C1832 C 0.41568 0.89055 0.21435 0.0
C1833 C 0.29209 0.90788 0.21338 0.0
C1834 C 0.28433 0.89327 0.21313 0.0
C1835 C 0.33835 0.86983 0.21562 0.0
C1836 C 0.4 0.86108 0.21651 0.0
C1837 C 0.34569 0.88451 0.21415 0.0
C1838 C 0.46925 0.86717 0.21503 0.0
C1839 C 0.47707 0.88178 0.21429 0.0
H1840 H 0.47647 0.90843 0.57288 0.0
H1841 H 0.25128 0.92022 0.5771 0.0
H1842 H 0.2156 0.89563 0.58244 0.0
H1843 H 0.24779 0.87054 0.57774 0.0
H1844 H 0.47301 0.85901 0.5696 0.0
H1845 H 0.50957 0.88348 0.57446 0.0
C1846 C 0.41998 0.90558 0.57604 0.0
C1847 C 0.36655 0.916 0.57495 0.0
C1848 C 0.3998 0.89139 0.57792 0.0
C1849 C 0.29321 0.91227 0.57825 0.0
C1850 C 0.27279 0.89823 0.58104 0.0
C1851 C 0.30476 0.87342 0.57788 0.0
C1852 C 0.35765 0.86309 0.57316 0.0
C1853 C 0.32539 0.88763 0.57972 0.0
C1854 C 0.43142 0.86688 0.57302 0.0
C1855 C 0.4524 0.88086 0.57572 0.0
H1856 H 0.59318 0.66535 0.29635 0.0
H1857 H 0.80101 0.65711 0.2558 0.0
H1858 H 0.7822 0.63212 0.26092 0.0
H1859 H 0.69903 0.61236 0.26994 0.0
H1860 H 0.49271 0.62034 0.31127 0.0
H1861 H 0.51976 0.64534 0.31366 0.0
C1862 C 0.63491 0.65812 0.28908 0.0
C1863 C 0.69735 0.66329 0.27493 0.0
C1864 C 0.62428 0.64353 0.29228 0.0
C1865 C 0.7513 0.65362 0.26618 0.0
C1866 C 0.74091 0.6392 0.26916 0.0
C1867 C 0.6615 0.61949 0.28062 0.0
C1868 C 0.59393 0.61449 0.29027 0.0
C1869 C 0.67658 0.63399 0.28127 0.0
C1870 C 0.54523 0.62394 0.30363 0.0
C1871 C 0.56025 0.63829 0.30471 0.0
H1872 H 0.63412 0.66938 0.96162 0.0
H1873 H 0.43543 0.66175 0.00955 0.0
H1874 H 0.45471 0.6367 0.00631 0.0
H1875 H 0.53613 0.61684 0.996 0.0
H1876 H 0.7341 0.62418 0.94805 0.0
H1877 H 0.70576 0.64911 0.94435 0.0
C1878 C 0.59455 0.66225 0.97101 0.0
C1879 C 0.53441 0.66765 0.9864 0.0
C1880 C 0.60546 0.64763 0.96894 0.0
C1881 C 0.4832 0.6581 0.99798 0.0
C1882 C 0.49386 0.64365 0.99611 0.0
C1883 C 0.5713 0.6238 0.98364 0.0
C1884 C 0.63687 0.61866 0.97224 0.0
C1885 C 0.55578 0.63827 0.98238 0.0
C1886 C 0.68293 0.62789 0.95686 0.0
C1887 C 0.66727 0.6422 0.95508 0.0
H1888 H 0.42694 0.41799 0.68124 0.0
H1889 H 0.20089 0.41686 0.70531 0.0
H1890 H 0.20498 0.39114 0.70727 0.0
H1891 H 0.27723 0.36939 0.70772 0.0
H1892 H 0.50255 0.37049 0.68213 0.0
H1893 H 0.49476 0.39592 0.6749 0.0
C1894 C 0.37822 0.41203 0.68614 0.0
C1895 C 0.31364 0.41915 0.6931 0.0
C1896 C 0.38139 0.39736 0.68737 0.0
C1897 C 0.25075 0.4115 0.69957 0.0
C1898 C 0.25344 0.39685 0.70098 0.0
C1899 C 0.3244 0.37522 0.7003 0.0
C1900 C 0.39081 0.36821 0.696 0.0
C1901 C 0.31908 0.38973 0.69586 0.0
C1902 C 0.45115 0.37572 0.68576 0.0
C1903 C 0.44666 0.39023 0.6817 0.0
H1904 H 0.30804 0.4157 0.05108 0.0
H1905 H 0.54174 0.41433 0.04969 0.0
H1906 H 0.53828 0.38861 0.05186 0.0
H1907 H 0.46795 0.36656 0.05018 0.0
H1908 H 0.23435 0.36796 0.05495 0.0
H1909 H 0.23816 0.39366 0.05581 0.0
C1910 C 0.35813 0.40973 0.0517 0.0
C1911 C 0.42513 0.4168 0.05005 0.0
C1912 C 0.3555 0.39501 0.05341 0.0
C1913 C 0.48975 0.40906 0.05105 0.0
C1914 C 0.48763 0.39438 0.05213 0.0
C1915 C 0.41794 0.37252 0.05175 0.0
C1916 C 0.35082 0.3654 0.05215 0.0
C1917 C 0.42078 0.38725 0.05271 0.0
C1918 C 0.28651 0.37319 0.05462 0.0
C1919 C 0.28876 0.38788 0.05496 0.0
H1920 H 0.84076 0.06573 0.31554 0.0
H1921 H 0.05718 0.06501 0.352 0.0
H1922 H 0.00743 0.06548 0.40165 0.0
H1923 H 0.90263 0.06786 0.43503 0.0
H1924 H 0.68615 0.06752 0.39876 0.0
H1925 H 0.73567 0.06566 0.34912 0.0
C1926 C 0.87706 0.0655 0.33434 0.0
C1927 C 0.95272 0.06545 0.32983 0.0
C1928 C 0.84808 0.06571 0.36305 0.0
C1929 C 0.99873 0.06502 0.3546 0.0
C1930 C 0.97035 0.06539 0.38313 0.0
C1931 C 0.86632 0.06727 0.41627 0.0
C1932 C 0.79078 0.06796 0.42071 0.0
C1933 C 0.89515 0.06602 0.38765 0.0
C1934 C 0.74453 0.06699 0.39611 0.0
C1935 C 0.7728 0.06598 0.36762 0.0
H1936 H 0.2364 0.21261 0.35071 0.0
H1937 H 0.44237 0.21546 0.30587 0.0
H1938 H 0.50491 0.21752 0.35313 0.0
H1939 H 0.50223 0.21628 0.40718 0.0
H1940 H 0.29694 0.21173 0.45192 0.0
H1941 H 0.23316 0.2127 0.40479 0.0
C1942 C 0.29487 0.21394 0.35121 0.0
C1943 C 0.33456 0.21386 0.32468 0.0
C1944 C 0.33074 0.21469 0.37853 0.0
C1945 C 0.41042 0.21543 0.32588 0.0
C1946 C 0.44627 0.21658 0.35294 0.0
C1947 C 0.44343 0.21575 0.4067 0.0
C1948 C 0.40453 0.21391 0.43314 0.0
C1949 C 0.40718 0.2159 0.37942 0.0
C1950 C 0.32835 0.21308 0.43196 0.0
C1951 C 0.2918 0.21361 0.40499 0.0
H1952 H 0.73598 0.21529 0.85474 0.0
H1953 H 0.93482 0.21267 0.80484 0.0
H1954 H 0.00536 0.2132 0.85035 0.0
H1955 H 0.01042 0.2125 0.90435 0.0
H1956 H 0.81135 0.21362 0.95438 0.0
H1957 H 0.74138 0.21567 0.90888 0.0
C1958 C 0.7948 0.21507 0.85378 0.0
C1959 C 0.82995 0.21394 0.82633 0.0
C1960 C 0.83509 0.21499 0.88013 0.0
C1961 C 0.90625 0.21348 0.82561 0.0
C1962 C 0.94669 0.21376 0.85166 0.0
C1963 C 0.95179 0.2134 0.90539 0.0
C1964 C 0.91634 0.21288 0.93286 0.0
C1965 C 0.91167 0.21423 0.87907 0.0
C1966 C 0.84018 0.21392 0.93361 0.0
C1967 C 0.80004 0.21509 0.90756 0.0
H1968 H 0.23769 0.06745 0.90048 0.0
H1969 H 0.43818 0.06557 0.94949 0.0
H1970 H 0.50704 0.06502 0.90352 0.0
H1971 H 0.51094 0.06688 0.8494 0.0
H1972 H 0.31048 0.07026 0.80077 0.0
H1973 H 0.24133 0.06829 0.84645 0.0
C1974 C 0.29641 0.06671 0.90118 0.0
C1975 C 0.33251 0.06656 0.92856 0.0
C1976 C 0.33588 0.06674 0.87461 0.0
C1977 C 0.40879 0.06576 0.92884 0.0
C1978 C 0.4483 0.06545 0.90251 0.0
C1979 C 0.45209 0.06695 0.84873 0.0
C1980 C 0.41608 0.06871 0.82158 0.0
C1981 C 0.41253 0.0662 0.87526 0.0
C1982 C 0.33973 0.06897 0.82128 0.0
C1983 C 0.30008 0.06786 0.84744 0.0
H1984 H 0.25989 0.96783 0.62826 0.0
H1985 H 0.1467 0.9649 0.54516 0.0
H1986 H 0.03057 0.96705 0.57071 0.0
H1987 H 0.9618 0.96714 0.61671 0.0
H1988 H 0.07528 0.96823 0.6999 0.0
H1989 H 0.19125 0.96957 0.674 0.0
C1990 C 0.21 0.96785 0.61557 0.0
C1991 C 0.21208 0.96606 0.5848 0.0
C1992 C 0.14358 0.96867 0.63042 0.0
C1993 C 0.14671 0.96614 0.56886 0.0
C1994 C 0.0803 0.96735 0.58345 0.0
C1995 C 0.01174 0.96791 0.62926 0.0
C1996 C 0.0099 0.96748 0.66024 0.0
C1997 C 0.07814 0.96822 0.61427 0.0
C1998 C 0.07523 0.96843 0.67607 0.0
C1999 C 0.14151 0.96917 0.66127 0.0
H2000 H 0.66424 0.81532 0.68377 0.0
H2001 H 0.80788 0.81286 0.60876 0.0
H2002 H 0.70454 0.81119 0.57584 0.0
H2003 H 0.5731 0.81262 0.56756 0.0
H2004 H 0.42922 0.8144 0.64255 0.0
H2005 H 0.53248 0.81397 0.67578 0.0
C2006 C 0.67303 0.81424 0.66028 0.0
C2007 C 0.74401 0.81447 0.64896 0.0
C2008 C 0.61308 0.81325 0.64118 0.0
C2009 C 0.75404 0.81288 0.61834 0.0
C2010 C 0.69483 0.81194 0.59931 0.0
C2011 C 0.56423 0.81274 0.59115 0.0
C2012 C 0.4933 0.81375 0.60231 0.0
C2013 C 0.62405 0.81247 0.61039 0.0
C2014 C 0.48308 0.81372 0.63309 0.0
C2015 C 0.54224 0.81352 0.65227 0.0
H2016 H 0.27407 0.81896 0.13199 0.0
H2017 H 0.11845 0.81917 0.20313 0.0
H2018 H 0.01913 0.81942 0.16754 0.0
H2019 H 0.97646 0.81982 0.1165 0.0
H2020 H 0.13192 0.81998 0.04531 0.0
H2021 H 0.23132 0.81934 0.08088 0.0
C2022 C 0.2185 0.81904 0.13985 0.0
C2023 C 0.20411 0.81906 0.17037 0.0
C2024 C 0.16154 0.81927 0.11927 0.0
C2025 C 0.13148 0.81918 0.17989 0.0
C2026 C 0.07453 0.81932 0.15952 0.0
C2027 C 0.032 0.81971 0.10861 0.0
C2028 C 0.04633 0.81997 0.07809 0.0
C2029 C 0.08896 0.81941 0.12918 0.0
C2030 C 0.11895 0.81981 0.06855 0.0
C2031 C 0.17593 0.81944 0.08892 0.0
H2032 H 0.77917 0.95875 0.11582 0.0
H2033 H 0.62203 0.96034 0.04525 0.0
H2034 H 0.5235 0.96019 0.08107 0.0
H2035 H 0.48182 0.95907 0.13203 0.0
H2036 H 0.63835 0.95706 0.20276 0.0
H2037 H 0.73726 0.95794 0.16703 0.0
C2038 C 0.72343 0.95911 0.10818 0.0
C2039 C 0.70832 0.95952 0.07776 0.0
C2040 C 0.66685 0.95891 0.12888 0.0
C2041 C 0.63555 0.95998 0.06844 0.0
C2042 C 0.57904 0.95989 0.08893 0.0
C2043 C 0.53749 0.95883 0.13979 0.0
C2044 C 0.55232 0.95794 0.17017 0.0
C2045 C 0.59408 0.95926 0.11916 0.0
C2046 C 0.62506 0.9577 0.17958 0.0
C2047 C 0.68175 0.9582 0.15914 0.0
H2048 H 0.99779 0.57121 0.85107 0.0
H2049 H 0.79047 0.57071 0.80686 0.0
H2050 H 0.72824 0.57078 0.85451 0.0
H2051 H 0.73305 0.57267 0.90846 0.0
H2052 H 0.94052 0.57539 0.95221 0.0
H2053 H 0.00264 0.57268 0.90493 0.0
C2054 C 0.93896 0.57088 0.85183 0.0
C2055 C 0.89874 0.57085 0.82545 0.0
C2056 C 0.90374 0.57142 0.87921 0.0
C2057 C 0.82258 0.57072 0.82684 0.0
C2058 C 0.78707 0.57078 0.85407 0.0
C2059 C 0.7919 0.57246 0.9077 0.0
C2060 C 0.8322 0.57415 0.93383 0.0
C2061 C 0.82711 0.57137 0.88036 0.0
C2062 C 0.90835 0.57412 0.93242 0.0
C2063 C 0.94382 0.57258 0.9054 0.0
H2064 H 0.2348 0.71564 0.84863 0.0
H2065 H 0.43873 0.70847 0.80438 0.0
H2066 H 0.50346 0.71104 0.85102 0.0
H2067 H 0.50139 0.71357 0.90458 0.0
H2068 H 0.29707 0.71897 0.94967 0.0
H2069 H 0.23323 0.71897 0.90241 0.0
C2070 C 0.29352 0.71485 0.84912 0.0
C2071 C 0.33191 0.71188 0.82302 0.0
C2072 C 0.33022 0.71594 0.87618 0.0
C2073 C 0.40788 0.71069 0.82413 0.0
C2074 C 0.44491 0.71216 0.8508 0.0
C2075 C 0.44297 0.71497 0.90414 0.0
C2076 C 0.40411 0.7163 0.93072 0.0
C2077 C 0.40653 0.71454 0.87701 0.0
C2078 C 0.32831 0.7179 0.9296 0.0
C2079 C 0.29179 0.71788 0.90257 0.0
H2080 H 0.99316 0.71435 0.40354 0.0
H2081 H 0.78815 0.70981 0.44854 0.0
H2082 H 0.72368 0.71209 0.40178 0.0
H2083 H 0.72607 0.71311 0.34801 0.0
H2084 H 0.93122 0.71575 0.30241 0.0
H2085 H 0.99509 0.71665 0.34961 0.0
C2086 C 0.93429 0.71411 0.4032 0.0
C2087 C 0.89551 0.71189 0.42953 0.0
C2088 C 0.89767 0.71499 0.3761 0.0
C2089 C 0.81931 0.71143 0.42861 0.0
C2090 C 0.78243 0.71273 0.40186 0.0
C2091 C 0.78471 0.71414 0.34829 0.0
C2092 C 0.82376 0.71434 0.32161 0.0
C2093 C 0.82113 0.71418 0.37543 0.0
C2094 C 0.89979 0.71552 0.32256 0.0
C2095 C 0.93635 0.716 0.34955 0.0
H2096 H 0.50556 0.56627 0.35346 0.0
H2097 H 0.29884 0.5696 0.30931 0.0
H2098 H 0.23597 0.56763 0.35649 0.0
H2099 H 0.24008 0.56743 0.41035 0.0
H2100 H 0.44684 0.56615 0.45497 0.0
H2101 H 0.50929 0.56468 0.40754 0.0
C2102 C 0.4467 0.56629 0.3541 0.0
C2103 C 0.40694 0.56808 0.32786 0.0
C2104 C 0.41096 0.56563 0.38144 0.0
C2105 C 0.33073 0.56829 0.32916 0.0
C2106 C 0.29476 0.56718 0.35615 0.0
C2107 C 0.29876 0.56655 0.4098 0.0
C2108 C 0.33868 0.56691 0.43627 0.0
C2109 C 0.33436 0.56621 0.38246 0.0
C2110 C 0.41476 0.56594 0.43499 0.0
C2111 C 0.45051 0.56514 0.40785 0.0
H2112 H 0.98305 0.45939 0.12191 0.0
H2113 H 0.11233 0.46323 0.2009 0.0
H2114 H 0.22257 0.46382 0.17136 0.0
H2115 H 0.28256 0.4627 0.12376 0.0
H2116 H 0.1557 0.45833 0.0443 0.0
H2117 H 0.04408 0.45856 0.07357 0.0
C2118 C 0.03526 0.46041 0.13272 0.0
C2119 C 0.039 0.46123 0.16373 0.0
C2120 C 0.0989 0.46062 0.11557 0.0
C2121 C 0.10742 0.46252 0.17719 0.0
C2122 C 0.17067 0.46287 0.16029 0.0
C2123 C 0.23069 0.46181 0.11262 0.0
C2124 C 0.22797 0.46045 0.0817 0.0
C2125 C 0.16704 0.46183 0.12954 0.0
C2126 C 0.15977 0.45937 0.06797 0.0
C2127 C 0.09586 0.45949 0.08473 0.0
H2128 H 0.66682 0.31707 0.18325 0.0
H2129 H 0.82546 0.31947 0.11341 0.0
H2130 H 0.72924 0.31904 0.07682 0.0
H2131 H 0.59956 0.31913 0.06432 0.0
H2132 H 0.44105 0.31645 0.13418 0.0
H2133 H 0.53748 0.31577 0.17063 0.0
C2134 C 0.68047 0.31743 0.16005 0.0
C2135 C 0.75351 0.31844 0.15132 0.0
C2136 C 0.62472 0.31717 0.13889 0.0
C2137 C 0.76985 0.31878 0.12101 0.0
C2138 C 0.71476 0.31854 0.09992 0.0
C2139 C 0.58601 0.31829 0.08748 0.0
C2140 C 0.51285 0.31799 0.09629 0.0
C2141 C 0.64191 0.31791 0.10858 0.0
C2142 C 0.4967 0.31683 0.12653 0.0
C2143 C 0.55191 0.31643 0.14755 0.0
H2144 H 0.97514 0.32142 0.6263 0.0
H2145 H 0.10846 0.32027 0.54807 0.0
H2146 H 0.21742 0.31936 0.57845 0.0
H2147 H 0.27483 0.31994 0.62673 0.0
H2148 H 0.14272 0.32192 0.70519 0.0
H2149 H 0.03299 0.3213 0.67496 0.0
C2150 C 0.02794 0.32091 0.6158 0.0
C2151 C 0.03336 0.321 0.58484 0.0
C2152 C 0.09054 0.32053 0.63339 0.0
C2153 C 0.10243 0.32031 0.57178 0.0
C2154 C 0.16487 0.31977 0.58914 0.0
C2155 C 0.22218 0.32014 0.63739 0.0
C2156 C 0.2173 0.32104 0.66829 0.0
C2157 C 0.15953 0.32003 0.61992 0.0
C2158 C 0.1483 0.32127 0.68151 0.0
C2159 C 0.08549 0.32094 0.66422 0.0
H2160 H 0.58828 0.46344 0.68398 0.0
H2161 H 0.43334 0.46024 0.61286 0.0
H2162 H 0.53109 0.46058 0.5771 0.0
H2163 H 0.66083 0.46127 0.56552 0.0
H2164 H 0.81633 0.46477 0.63634 0.0
H2165 H 0.71845 0.46489 0.67223 0.0
C2166 C 0.57589 0.46281 0.66068 0.0
C2167 C 0.50332 0.46176 0.65136 0.0
C2168 C 0.63261 0.46307 0.63992 0.0
C2169 C 0.48852 0.46106 0.62093 0.0
C2170 C 0.54449 0.46124 0.60029 0.0
C2171 C 0.67342 0.46214 0.58876 0.0
C2172 C 0.7461 0.46292 0.59801 0.0
C2173 C 0.61678 0.4622 0.60949 0.0
C2174 C 0.76102 0.46407 0.62837 0.0
C2175 C 0.70499 0.46413 0.64905 0.0
loop_
_geom_bond_atom_site_label_1
_geom_bond_atom_site_label_2
_geom_bond_distance
_geom_bond_site_symmetry_2
_ccdc_geom_bond_type
Mn0 O5 2.095 . S
Mn0 O15 2.162 . S
Mn0 O16 2.297 . S
Mn0 O24 2.385 . S
Mn0 O25 2.209 . S
Mn0 O26 2.094 . S
Mn1 O6 2.121 . S
Mn1 N8 2.257 . S
Mn1 N17 2.282 . S
Mn1 O25 2.215 1_655 S
Mn1 O27 2.117 1_655 S
C2 O24 1.234 . S
C2 O25 1.283 . S
C3 O15 1.281 . S
C3 O16 1.236 . S
C4 O26 1.240 . S
C4 O27 1.264 . S
O5 Mn0 2.095 . S
O5 C14 1.250 1_455 S
O6 Mn1 2.121 . S
O6 C14 1.258 . S
C7 N8 1.326 . S
C7 C11 1.460 . S
C7 H13 0.929 . S
N8 Mn1 2.257 . S
N8 C7 1.326 . S
N8 C12 1.362 . S
C9 C10 1.258 . S
C9 C12 1.431 . S
C9 C29 1.449 . S
C10 C9 1.258 . S
C10 C11 1.477 . S
C10 H30 0.931 . S
C11 C7 1.460 . S
C11 C10 1.477 . S
C11 H31 0.930 . S
C12 N8 1.362 . S
C12 C9 1.431 . S
C12 C22 1.476 . S
H13 C7 0.929 . S
C14 O5 1.250 1_655 S
C14 O6 1.258 . S
O15 Mn0 2.162 . S
O15 C3 1.281 . S
O16 Mn0 2.297 . S
O16 C3 1.236 . S
N17 Mn1 2.282 . S
N17 C18 1.328 1_655 S
N17 C22 1.318 . S
C18 N17 1.328 1_455 S
C18 C19 1.457 . S
C18 H23 0.929 . S
C19 C18 1.457 . S
C19 C20 1.291 1_455 S
C19 H32 0.931 . S
C20 C19 1.291 1_655 S
C20 C21 1.373 . S
C20 H33 0.929 . S
C21 C20 1.373 . S
C21 C22 1.396 . S
C21 C28 1.403 . S
C22 C12 1.476 . S
C22 N17 1.318 . S
C22 C21 1.396 . S
H23 C18 0.929 . S
O24 Mn0 2.385 . S
O24 C2 1.234 . S
O25 Mn0 2.209 . S
O25 Mn1 2.215 1_455 S
O25 C2 1.283 . S
O26 Mn0 2.094 . S
O26 C4 1.240 . S
O27 Mn1 2.117 1_455 S
O27 C4 1.264 . S
C28 C21 1.403 . S
C28 C29 1.399 . S
C28 H34 0.929 . S
C29 C9 1.449 . S
C29 C28 1.399 . S
C29 H35 0.930 . S
H30 C10 0.931 . S
H31 C11 0.930 . S
H32 C19 0.931 . S
H33 C20 0.929 . S
H34 C28 0.929 . S
H35 C29 0.930 . S
Mn36 O41 2.095 . S
Mn36 O51 2.162 . S
Mn36 O52 2.297 . S
Mn36 O60 2.385 . S
Mn36 O61 2.209 . S
Mn36 O62 2.094 . S
Mn37 O42 2.121 . S
Mn37 N44 2.257 . S
Mn37 N53 2.282 . S
Mn37 O61 2.215 . S
Mn37 O63 2.117 . S
C38 O60 1.234 . S
C38 O61 1.283 . S
C39 O51 1.281 . S
C39 O52 1.236 . S
C40 O62 1.240 . S
C40 O63 1.264 . S
O41 Mn36 2.095 . S
O41 C50 1.250 . S
O42 Mn37 2.121 . S
O42 C50 1.258 . S
C43 N44 1.326 . S
C43 C47 1.460 . S
C43 H49 0.929 . S
N44 Mn37 2.257 . S
N44 C43 1.326 . S
N44 C48 1.362 . S
C45 C46 1.258 . S
C45 C48 1.431 . S
C45 C65 1.449 . S
C46 C45 1.258 . S
C46 C47 1.477 . S
C46 H66 0.931 . S
C47 C43 1.460 . S
C47 C46 1.477 . S
C47 H67 0.930 . S
C48 N44 1.362 . S
C48 C45 1.431 . S
C48 C58 1.476 . S
H49 C43 0.929 . S
C50 O41 1.250 . S
C50 O42 1.258 . S
O51 Mn36 2.162 . S
O51 C39 1.281 . S
O52 Mn36 2.297 . S
O52 C39 1.236 . S
N53 Mn37 2.282 . S
N53 C54 1.328 . S
N53 C58 1.318 . S
C54 N53 1.328 . S
C54 C55 1.457 . S
C54 H59 0.929 . S
C55 C54 1.457 . S
C55 C56 1.291 . S
C55 H68 0.931 . S
C56 C55 1.291 . S
C56 C57 1.373 . S
C56 H69 0.929 . S
C57 C56 1.373 . S
C57 C58 1.396 . S
C57 C64 1.403 . S
C58 C48 1.476 . S
C58 N53 1.318 . S
C58 C57 1.396 . S
H59 C54 0.929 . S
O60 Mn36 2.385 . S
O60 C38 1.234 . S
O61 Mn36 2.209 . S
O61 Mn37 2.215 . S
O61 C38 1.283 . S
O62 Mn36 2.094 . S
O62 C40 1.240 . S
O63 Mn37 2.117 . S
O63 C40 1.264 . S
C64 C57 1.403 . S
C64 C65 1.399 . S
C64 H70 0.929 . S
C65 C45 1.449 . S
C65 C64 1.399 . S
C65 H71 0.930 . S
H66 C46 0.931 . S
H67 C47 0.930 . S
H68 C55 0.931 . S
H69 C56 0.929 . S
H70 C64 0.929 . S
H71 C65 0.930 . S
Mn72 O77 2.095 . S
Mn72 O87 2.162 . S
Mn72 O88 2.297 . S
Mn72 O96 2.385 1_556 S
Mn72 O97 2.209 1_556 S
Mn72 O98 2.094 . S
Mn73 O78 2.121 1_554 S
Mn73 N80 2.257 . S
Mn73 N89 2.282 . S
Mn73 O97 2.215 1_655 S
Mn73 O99 2.117 1_654 S
C74 O96 1.234 . S
C74 O97 1.283 . S
C75 O87 1.281 . S
C75 O88 1.236 . S
C76 O98 1.240 . S
C76 O99 1.264 . S
O77 Mn72 2.095 . S
O77 C86 1.250 1_455 S
O78 Mn73 2.121 1_556 S
O78 C86 1.258 . S
C79 N80 1.326 . S
C79 C83 1.460 . S
C79 H85 0.929 . S
N80 Mn73 2.257 . S
N80 C79 1.326 . S
N80 C84 1.362 . S
C81 C82 1.258 . S
C81 C84 1.431 . S
C81 C101 1.449 . S
C82 C81 1.258 . S
C82 C83 1.477 . S
C82 H102 0.931 . S
C83 C79 1.460 . S
C83 C82 1.477 . S
C83 H103 0.930 . S
C84 N80 1.362 . S
C84 C81 1.431 . S
C84 C94 1.476 . S
H85 C79 0.929 . S
C86 O77 1.250 1_655 S
C86 O78 1.258 . S
O87 Mn72 2.162 . S
O87 C75 1.281 . S
O88 Mn72 2.297 . S
O88 C75 1.236 . S
N89 Mn73 2.282 . S
N89 C90 1.328 1_655 S
N89 C94 1.318 . S
C90 N89 1.328 1_455 S
C90 C91 1.457 . S
C90 H95 0.929 . S
C91 C90 1.457 . S
C91 C92 1.291 1_455 S
C91 H104 0.931 . S
C92 C91 1.291 1_655 S
C92 C93 1.373 . S
C92 H105 0.929 . S
C93 C92 1.373 . S
C93 C94 1.396 . S
C93 C100 1.403 . S
C94 C84 1.476 . S
C94 N89 1.318 . S
C94 C93 1.396 . S
H95 C90 0.929 . S
O96 Mn72 2.385 1_554 S
O96 C74 1.234 . S
O97 Mn72 2.209 1_554 S
O97 Mn73 2.215 1_455 S
O97 C74 1.283 . S
O98 Mn72 2.094 . S
O98 C76 1.240 . S
O99 Mn73 2.117 1_456 S
O99 C76 1.264 . S
C100 C93 1.403 . S
C100 C101 1.399 . S
C100 H106 0.929 . S
C101 C81 1.449 . S
C101 C100 1.399 . S
C101 H107 0.930 . S
H102 C82 0.931 . S
H103 C83 0.930 . S
H104 C91 0.931 . S
H105 C92 0.929 . S
H106 C100 0.929 . S
H107 C101 0.930 . S
Mn108 O113 2.095 . S
Mn108 O123 2.162 . S
Mn108 O124 2.297 . S
Mn108 O132 2.385 1_556 S
Mn108 O133 2.209 1_556 S
Mn108 O134 2.094 . S
Mn109 O114 2.121 1_554 S
Mn109 N116 2.257 . S
Mn109 N125 2.282 . S
Mn109 O133 2.215 . S
Mn109 O135 2.117 1_554 S
C110 O132 1.234 . S
C110 O133 1.283 . S
C111 O123 1.281 . S
C111 O124 1.236 . S
C112 O134 1.240 . S
C112 O135 1.264 . S
O113 Mn108 2.095 . S
O113 C122 1.250 . S
O114 Mn109 2.121 1_556 S
O114 C122 1.258 . S
C115 N116 1.326 . S
C115 C119 1.460 . S
C115 H121 0.929 . S
N116 Mn109 2.257 . S
N116 C115 1.326 . S
N116 C120 1.362 . S
C117 C118 1.258 . S
C117 C120 1.431 . S
C117 C137 1.449 . S
C118 C117 1.258 . S
C118 C119 1.477 . S
C118 H138 0.931 . S
C119 C115 1.460 . S
C119 C118 1.477 . S
C119 H139 0.930 . S
C120 N116 1.362 . S
C120 C117 1.431 . S
C120 C130 1.476 . S
H121 C115 0.929 . S
C122 O113 1.250 . S
C122 O114 1.258 . S
O123 Mn108 2.162 . S
O123 C111 1.281 . S
O124 Mn108 2.297 . S
O124 C111 1.236 . S
N125 Mn109 2.282 . S
N125 C126 1.328 . S
N125 C130 1.318 . S
C126 N125 1.328 . S
C126 C127 1.457 . S
C126 H131 0.929 . S
C127 C126 1.457 . S
C127 C128 1.291 . S
C127 H140 0.931 . S
C128 C127 1.291 . S
C128 C129 1.373 . S
C128 H141 0.929 . S
C129 C128 1.373 . S
C129 C130 1.396 . S
C129 C136 1.403 . S
C130 C120 1.476 . S
C130 N125 1.318 . S
C130 C129 1.396 . S
H131 C126 0.929 . S
O132 Mn108 2.385 1_554 S
O132 C110 1.234 . S
O133 Mn108 2.209 1_554 S
O133 Mn109 2.215 . S
O133 C110 1.283 . S
O134 Mn108 2.094 . S
O134 C112 1.240 . S
O135 Mn109 2.117 1_556 S
O135 C112 1.264 . S
C136 C129 1.403 . S
C136 C137 1.399 . S
C136 H142 0.929 . S
C137 C117 1.449 . S
C137 C136 1.399 . S
C137 H143 0.930 . S
H138 C118 0.931 . S
H139 C119 0.930 . S
H140 C127 0.931 . S
H141 C128 0.929 . S
H142 C136 0.929 . S
H143 C137 0.930 . S
Mn144 O149 2.095 . S
Mn144 O159 2.162 . S
Mn144 O160 2.297 . S
Mn144 O168 2.385 . S
Mn144 O169 2.209 . S
Mn144 O170 2.094 1_655 S
Mn145 O150 2.121 . S
Mn145 N152 2.257 . S
Mn145 N161 2.282 . S
Mn145 O169 2.215 . S
Mn145 O171 2.117 . S
C146 O168 1.234 . S
C146 O169 1.283 . S
C147 O159 1.281 . S
C147 O160 1.236 . S
C148 O170 1.240 . S
C148 O171 1.264 1_455 S
O149 Mn144 2.095 . S
O149 C158 1.250 . S
O150 Mn145 2.121 . S
O150 C158 1.258 . S
C151 N152 1.326 . S
C151 C155 1.460 . S
C151 H157 0.929 . S
N152 Mn145 2.257 . S
N152 C151 1.326 . S
N152 C156 1.362 . S
C153 C154 1.258 . S
C153 C156 1.431 . S
C153 C173 1.449 . S
C154 C153 1.258 . S
C154 C155 1.477 . S
C154 H174 0.931 . S
C155 C151 1.460 . S
C155 C154 1.477 . S
C155 H175 0.930 . S
C156 N152 1.362 . S
C156 C153 1.431 . S
C156 C166 1.476 . S
H157 C151 0.929 . S
C158 O149 1.250 . S
C158 O150 1.258 . S
O159 Mn144 2.162 . S
O159 C147 1.281 . S
O160 Mn144 2.297 . S
O160 C147 1.236 . S
N161 Mn145 2.282 . S
N161 C162 1.328 . S
N161 C166 1.318 . S
C162 N161 1.328 . S
C162 C163 1.457 . S
C162 H167 0.929 . S
C163 C162 1.457 . S
C163 C164 1.291 . S
C163 H176 0.931 . S
C164 C163 1.291 . S
C164 C165 1.373 . S
C164 H177 0.929 1_565 S
C165 C164 1.373 . S
C165 C166 1.396 . S
C165 C172 1.403 . S
C166 C156 1.476 . S
C166 N161 1.318 . S
C166 C165 1.396 . S
H167 C162 0.929 . S
O168 Mn144 2.385 . S
O168 C146 1.234 . S
O169 Mn144 2.209 . S
O169 Mn145 2.215 . S
O169 C146 1.283 . S
O170 Mn144 2.094 1_455 S
O170 C148 1.240 . S
O171 Mn145 2.117 . S
O171 C148 1.264 1_655 S
C172 C165 1.403 . S
C172 C173 1.399 . S
C172 H178 0.929 . S
C173 C153 1.449 . S
C173 C172 1.399 . S
C173 H179 0.930 . S
H174 C154 0.931 . S
H175 C155 0.930 . S
H176 C163 0.931 . S
H177 C164 0.929 1_545 S
H178 C172 0.929 . S
H179 C173 0.930 . S
Mn180 O185 2.095 . S
Mn180 O195 2.162 . S
Mn180 O196 2.297 . S
Mn180 O204 2.385 . S
Mn180 O205 2.209 . S
Mn180 O206 2.094 . S
Mn181 O186 2.121 . S
Mn181 N188 2.257 1_655 S
Mn181 N197 2.282 . S
Mn181 O205 2.215 . S
Mn181 O207 2.117 . S
C182 O204 1.234 . S
C182 O205 1.283 . S
C183 O195 1.281 . S
C183 O196 1.236 . S
C184 O206 1.240 . S
C184 O207 1.264 . S
O185 Mn180 2.095 . S
O185 C194 1.250 . S
O186 Mn181 2.121 . S
O186 C194 1.258 . S
C187 N188 1.326 . S
C187 C191 1.460 . S
C187 H193 0.929 . S
N188 Mn181 2.257 1_455 S
N188 C187 1.326 . S
N188 C192 1.362 . S
C189 C190 1.258 . S
C189 C192 1.431 . S
C189 C209 1.449 . S
C190 C189 1.258 . S
C190 C191 1.477 . S
C190 H210 0.931 . S
C191 C187 1.460 . S
C191 C190 1.477 . S
C191 H211 0.930 . S
C192 N188 1.362 . S
C192 C189 1.431 . S
C192 C202 1.480 . S
H193 C187 0.929 . S
C194 O185 1.250 . S
C194 O186 1.258 . S
O195 Mn180 2.162 . S
O195 C183 1.281 . S
O196 Mn180 2.297 . S
O196 C183 1.236 . S
N197 Mn181 2.282 . S
N197 C198 1.328 . S
N197 C202 1.313 1_655 S
C198 N197 1.328 . S
C198 C199 1.457 . S
C198 H203 0.929 . S
C199 C198 1.457 . S
C199 C200 1.291 . S
C199 H212 0.931 . S
C200 C199 1.291 . S
C200 C201 1.373 1_655 S
C200 H213 0.929 . S
C201 C200 1.373 1_455 S
C201 C202 1.397 . S
C201 C208 1.403 . S
C202 C192 1.480 . S
C202 N197 1.313 1_455 S
C202 C201 1.397 . S
H203 C198 0.929 . S
O204 Mn180 2.385 . S
O204 C182 1.234 . S
O205 Mn180 2.209 . S
O205 Mn181 2.215 . S
O205 C182 1.283 . S
O206 Mn180 2.094 . S
O206 C184 1.240 . S
O207 Mn181 2.117 . S
O207 C184 1.264 . S
C208 C201 1.403 . S
C208 C209 1.399 . S
C208 H214 0.929 . S
C209 C189 1.449 . S
C209 C208 1.399 . S
C209 H215 0.930 . S
H210 C190 0.931 . S
H211 C191 0.930 . S
H212 C199 0.931 . S
H213 C200 0.929 . S
H214 C208 0.929 . S
H215 C209 0.930 . S
Mn216 O221 2.095 . S
Mn216 O231 2.162 1_554 S
Mn216 O232 2.297 1_554 S
Mn216 O240 2.385 . S
Mn216 O241 2.209 . S
Mn216 O242 2.094 1_655 S
Mn217 O222 2.121 . S
Mn217 N224 2.257 . S
Mn217 N233 2.282 . S
Mn217 O241 2.215 . S
Mn217 O243 2.117 . S
C218 O240 1.234 . S
C218 O241 1.283 . S
C219 O231 1.281 . S
C219 O232 1.236 . S
C220 O242 1.240 . S
C220 O243 1.264 1_455 S
O221 Mn216 2.095 . S
O221 C230 1.250 . S
O222 Mn217 2.121 . S
O222 C230 1.258 . S
C223 N224 1.326 . S
C223 C227 1.460 . S
C223 H229 0.929 . S
N224 Mn217 2.257 . S
N224 C223 1.326 . S
N224 C228 1.362 . S
C225 C226 1.258 . S
C225 C228 1.431 . S
C225 C245 1.449 . S
C226 C225 1.258 . S
C226 C227 1.477 . S
C226 H246 0.931 . S
C227 C223 1.460 . S
C227 C226 1.477 . S
C227 H247 0.930 . S
C228 N224 1.362 . S
C228 C225 1.431 . S
C228 C238 1.476 . S
H229 C223 0.929 . S
C230 O221 1.250 . S
C230 O222 1.258 . S
O231 Mn216 2.162 1_556 S
O231 C219 1.281 . S
O232 Mn216 2.297 1_556 S
O232 C219 1.236 . S
N233 Mn217 2.282 . S
N233 C234 1.328 . S
N233 C238 1.318 . S
C234 N233 1.328 . S
C234 C235 1.457 . S
C234 H239 0.929 . S
C235 C234 1.457 . S
C235 C236 1.291 . S
C235 H248 0.931 . S
C236 C235 1.291 . S
C236 C237 1.373 . S
C236 H249 0.929 . S
C237 C236 1.373 . S
C237 C238 1.396 . S
C237 C244 1.403 . S
C238 C228 1.476 . S
C238 N233 1.318 . S
C238 C237 1.396 . S
H239 C234 0.929 . S
O240 Mn216 2.385 . S
O240 C218 1.234 . S
O241 Mn216 2.209 . S
O241 Mn217 2.215 . S
O241 C218 1.283 . S
O242 Mn216 2.094 1_455 S
O242 C220 1.240 . S
O243 Mn217 2.117 . S
O243 C220 1.264 1_655 S
C244 C237 1.403 . S
C244 C245 1.399 . S
C244 H250 0.929 . S
C245 C225 1.449 . S
C245 C244 1.399 . S
C245 H251 0.930 . S
H246 C226 0.931 . S
H247 C227 0.930 . S
H248 C235 0.931 . S
H249 C236 0.929 . S
H250 C244 0.929 . S
H251 C245 0.930 . S
Mn252 O257 2.095 . S
Mn252 O267 2.162 1_554 S
Mn252 O268 2.297 1_554 S
Mn252 O276 2.385 . S
Mn252 O277 2.209 . S
Mn252 O278 2.094 . S
Mn253 O258 2.121 . S
Mn253 N260 2.257 1_655 S
Mn253 N269 2.282 . S
Mn253 O277 2.215 . S
Mn253 O279 2.117 . S
C254 O276 1.234 . S
C254 O277 1.283 . S
C255 O267 1.281 . S
C255 O268 1.236 . S
C256 O278 1.240 . S
C256 O279 1.264 . S
O257 Mn252 2.095 . S
O257 C266 1.250 . S
O258 Mn253 2.121 . S
O258 C266 1.258 . S
C259 N260 1.326 . S
C259 C263 1.460 . S
C259 H265 0.929 . S
N260 Mn253 2.257 1_455 S
N260 C259 1.326 . S
N260 C264 1.362 . S
C261 C262 1.258 . S
C261 C264 1.431 . S
C261 C281 1.449 . S
C262 C261 1.258 . S
C262 C263 1.477 . S
C262 H282 0.931 . S
C263 C259 1.460 . S
C263 C262 1.477 . S
C263 H283 0.930 . S
C264 N260 1.362 . S
C264 C261 1.431 . S
C264 C274 1.478 . S
H265 C259 0.929 . S
C266 O257 1.250 . S
C266 O258 1.258 . S
O267 Mn252 2.162 1_556 S
O267 C255 1.281 . S
O268 Mn252 2.297 1_556 S
O268 C255 1.236 . S
N269 Mn253 2.282 . S
N269 C270 1.328 . S
N269 C274 1.315 1_655 S
C270 N269 1.328 . S
C270 C271 1.457 . S
C270 H275 0.929 . S
C271 C270 1.457 . S
C271 C272 1.291 . S
C271 H284 0.931 . S
C272 C271 1.291 . S
C272 C273 1.373 1_655 S
C272 H285 0.929 1_565 S
C273 C272 1.373 1_455 S
C273 C274 1.397 . S
C273 C280 1.403 . S
C274 C264 1.478 . S
C274 N269 1.315 1_455 S
C274 C273 1.397 . S
H275 C270 0.929 . S
O276 Mn252 2.385 . S
O276 C254 1.234 . S
O277 Mn252 2.209 . S
O277 Mn253 2.215 . S
O277 C254 1.283 . S
O278 Mn252 2.094 . S
O278 C256 1.240 . S
O279 Mn253 2.117 . S
O279 C256 1.264 . S
C280 C273 1.403 . S
C280 C281 1.399 . S
C280 H286 0.929 . S
C281 C261 1.449 . S
C281 C280 1.399 . S
C281 H287 0.930 . S
H282 C262 0.931 . S
H283 C263 0.930 . S
H284 C271 0.931 . S
H285 C272 0.929 1_545 S
H286 C280 0.929 . S
H287 C281 0.930 . S
Mn288 O293 2.095 . S
Mn288 O303 2.162 . S
Mn288 O304 2.297 . S
Mn288 O312 2.385 . S
Mn288 O313 2.209 . S
Mn288 O314 2.094 . S
Mn289 O294 2.121 . S
Mn289 N296 2.257 . S
Mn289 N305 2.282 . S
Mn289 O313 2.215 1_655 S
Mn289 O315 2.117 1_655 S
C290 O312 1.234 . S
C290 O313 1.283 . S
C291 O303 1.281 . S
C291 O304 1.236 . S
C292 O314 1.240 . S
C292 O315 1.264 . S
O293 Mn288 2.095 . S
O293 C302 1.250 1_455 S
O294 Mn289 2.121 . S
O294 C302 1.258 . S
C295 N296 1.326 . S
C295 C299 1.460 . S
C295 H301 0.929 . S
N296 Mn289 2.257 . S
N296 C295 1.326 . S
N296 C300 1.362 . S
C297 C298 1.258 . S
C297 C300 1.431 . S
C297 C317 1.449 . S
C298 C297 1.258 . S
C298 C299 1.477 . S
C298 H318 0.931 . S
C299 C295 1.460 . S
C299 C298 1.477 . S
C299 H319 0.930 . S
C300 N296 1.362 . S
C300 C297 1.431 . S
C300 C310 1.476 . S
H301 C295 0.929 . S
C302 O293 1.250 1_655 S
C302 O294 1.258 . S
O303 Mn288 2.162 . S
O303 C291 1.281 . S
O304 Mn288 2.297 . S
O304 C291 1.236 . S
N305 Mn289 2.282 . S
N305 C306 1.328 1_655 S
N305 C310 1.318 . S
C306 N305 1.328 1_455 S
C306 C307 1.457 . S
C306 H311 0.929 . S
C307 C306 1.457 . S
C307 C308 1.291 1_455 S
C307 H320 0.931 . S
C308 C307 1.291 1_655 S
C308 C309 1.373 . S
C308 H321 0.929 . S
C309 C308 1.373 . S
C309 C310 1.396 . S
C309 C316 1.403 . S
C310 C300 1.476 . S
C310 N305 1.318 . S
C310 C309 1.396 . S
H311 C306 0.929 . S
O312 Mn288 2.385 . S
O312 C290 1.234 . S
O313 Mn288 2.209 . S
O313 Mn289 2.215 1_455 S
O313 C290 1.283 . S
O314 Mn288 2.094 . S
O314 C292 1.240 . S
O315 Mn289 2.117 1_455 S
O315 C292 1.264 . S
C316 C309 1.403 . S
C316 C317 1.399 . S
C316 H322 0.929 . S
C317 C297 1.449 . S
C317 C316 1.399 . S
C317 H323 0.930 . S
H318 C298 0.931 . S
H319 C299 0.930 . S
H320 C307 0.931 . S
H321 C308 0.929 . S
H322 C316 0.929 . S
H323 C317 0.930 . S
Mn324 O329 2.095 . S
Mn324 O339 2.162 . S
Mn324 O340 2.297 . S
Mn324 O348 2.385 . S
Mn324 O349 2.209 . S
Mn324 O350 2.094 . S
Mn325 O330 2.121 . S
Mn325 N332 2.257 . S
Mn325 N341 2.282 . S
Mn325 O349 2.215 . S
Mn325 O351 2.117 . S
C326 O348 1.234 . S
C326 O349 1.283 . S
C327 O339 1.281 . S
C327 O340 1.236 . S
C328 O350 1.240 . S
C328 O351 1.264 . S
O329 Mn324 2.095 . S
O329 C338 1.250 . S
O330 Mn325 2.121 . S
O330 C338 1.258 . S
C331 N332 1.326 . S
C331 C335 1.460 . S
C331 H337 0.929 . S
N332 Mn325 2.257 . S
N332 C331 1.326 . S
N332 C336 1.362 . S
C333 C334 1.258 . S
C333 C336 1.431 . S
C333 C353 1.449 . S
C334 C333 1.258 . S
C334 C335 1.477 . S
C334 H354 0.931 . S
C335 C331 1.460 . S
C335 C334 1.477 . S
C335 H355 0.930 . S
C336 N332 1.362 . S
C336 C333 1.431 . S
C336 C346 1.476 . S
H337 C331 0.929 . S
C338 O329 1.250 . S
C338 O330 1.258 . S
O339 Mn324 2.162 . S
O339 C327 1.281 . S
O340 Mn324 2.297 . S
O340 C327 1.236 . S
N341 Mn325 2.282 . S
N341 C342 1.328 . S
N341 C346 1.318 . S
C342 N341 1.328 . S
C342 C343 1.457 . S
C342 H347 0.929 . S
C343 C342 1.457 . S
C343 C344 1.291 . S
C343 H356 0.931 . S
C344 C343 1.291 . S
C344 C345 1.373 . S
C344 H357 0.929 . S
C345 C344 1.373 . S
C345 C346 1.396 . S
C345 C352 1.403 . S
C346 C336 1.476 . S
C346 N341 1.318 . S
C346 C345 1.396 . S
H347 C342 0.929 . S
O348 Mn324 2.385 . S
O348 C326 1.234 . S
O349 Mn324 2.209 . S
O349 Mn325 2.215 . S
O349 C326 1.283 . S
O350 Mn324 2.094 . S
O350 C328 1.240 . S
O351 Mn325 2.117 . S
O351 C328 1.264 . S
C352 C345 1.403 . S
C352 C353 1.399 . S
C352 H358 0.929 . S
C353 C333 1.449 . S
C353 C352 1.399 . S
C353 H359 0.930 . S
H354 C334 0.931 . S
H355 C335 0.930 . S
H356 C343 0.931 . S
H357 C344 0.929 . S
H358 C352 0.929 . S
H359 C353 0.930 . S
Mn360 O365 2.095 . S
Mn360 O375 2.162 . S
Mn360 O376 2.297 . S
Mn360 O384 2.385 . S
Mn360 O385 2.209 . S
Mn360 O386 2.094 . S
Mn361 O366 2.121 . S
Mn361 N368 2.257 . S
Mn361 N377 2.282 . S
Mn361 O385 2.215 1_655 S
Mn361 O387 2.117 1_655 S
C362 O384 1.234 . S
C362 O385 1.283 . S
C363 O375 1.281 . S
C363 O376 1.236 . S
C364 O386 1.240 . S
C364 O387 1.264 . S
O365 Mn360 2.095 . S
O365 C374 1.250 1_455 S
O366 Mn361 2.121 . S
O366 C374 1.258 . S
C367 N368 1.326 . S
C367 C371 1.460 . S
C367 H373 0.929 . S
N368 Mn361 2.257 . S
N368 C367 1.326 . S
N368 C372 1.362 . S
C369 C370 1.258 . S
C369 C372 1.431 . S
C369 C389 1.449 . S
C370 C369 1.258 . S
C370 C371 1.477 . S
C370 H390 0.931 . S
C371 C367 1.460 . S
C371 C370 1.477 . S
C371 H391 0.930 . S
C372 N368 1.362 . S
C372 C369 1.431 . S
C372 C382 1.476 . S
H373 C367 0.929 . S
C374 O365 1.250 1_655 S
C374 O366 1.258 . S
O375 Mn360 2.162 . S
O375 C363 1.281 . S
O376 Mn360 2.297 . S
O376 C363 1.236 . S
N377 Mn361 2.282 . S
N377 C378 1.328 1_655 S
N377 C382 1.318 . S
C378 N377 1.328 1_455 S
C378 C379 1.457 . S
C378 H383 0.929 . S
C379 C378 1.457 . S
C379 C380 1.291 1_455 S
C379 H392 0.931 . S
C380 C379 1.291 1_655 S
C380 C381 1.373 . S
C380 H393 0.929 . S
C381 C380 1.373 . S
C381 C382 1.396 . S
C381 C388 1.403 . S
C382 C372 1.476 . S
C382 N377 1.318 . S
C382 C381 1.396 . S
H383 C378 0.929 . S
O384 Mn360 2.385 . S
O384 C362 1.234 . S
O385 Mn360 2.209 . S
O385 Mn361 2.215 1_455 S
O385 C362 1.283 . S
O386 Mn360 2.094 . S
O386 C364 1.240 . S
O387 Mn361 2.117 1_455 S
O387 C364 1.264 . S
C388 C381 1.403 . S
C388 C389 1.399 . S
C388 H394 0.929 . S
C389 C369 1.449 . S
C389 C388 1.399 . S
C389 H395 0.930 . S
H390 C370 0.931 . S
H391 C371 0.930 . S
H392 C379 0.931 . S
H393 C380 0.929 . S
H394 C388 0.929 . S
H395 C389 0.930 . S
Mn396 O401 2.095 . S
Mn396 O411 2.162 . S
Mn396 O412 2.297 . S
Mn396 O420 2.385 . S
Mn396 O421 2.209 . S
Mn396 O422 2.094 . S
Mn397 O402 2.121 . S
Mn397 N404 2.257 . S
Mn397 N413 2.282 . S
Mn397 O421 2.215 . S
Mn397 O423 2.117 . S
C398 O420 1.234 . S
C398 O421 1.283 . S
C399 O411 1.281 . S
C399 O412 1.236 . S
C400 O422 1.240 . S
C400 O423 1.264 . S
O401 Mn396 2.095 . S
O401 C410 1.250 . S
O402 Mn397 2.121 . S
O402 C410 1.258 . S
C403 N404 1.326 . S
C403 C407 1.460 . S
C403 H409 0.929 . S
N404 Mn397 2.257 . S
N404 C403 1.326 . S
N404 C408 1.362 . S
C405 C406 1.258 . S
C405 C408 1.431 . S
C405 C425 1.449 . S
C406 C405 1.258 . S
C406 C407 1.477 . S
C406 H426 0.931 . S
C407 C403 1.460 . S
C407 C406 1.477 . S
C407 H427 0.930 . S
C408 N404 1.362 . S
C408 C405 1.431 . S
C408 C418 1.476 . S
H409 C403 0.929 . S
C410 O401 1.250 . S
C410 O402 1.258 . S
O411 Mn396 2.162 . S
O411 C399 1.281 . S
O412 Mn396 2.297 . S
O412 C399 1.236 . S
N413 Mn397 2.282 . S
N413 C414 1.328 . S
N413 C418 1.318 . S
C414 N413 1.328 . S
C414 C415 1.457 . S
C414 H419 0.929 . S
C415 C414 1.457 . S
C415 C416 1.291 . S
C415 H428 0.931 . S
C416 C415 1.291 . S
C416 C417 1.373 . S
C416 H429 0.929 . S
C417 C416 1.373 . S
C417 C418 1.396 . S
C417 C424 1.403 . S
C418 C408 1.476 . S
C418 N413 1.318 . S
C418 C417 1.396 . S
H419 C414 0.929 . S
O420 Mn396 2.385 . S
O420 C398 1.234 . S
O421 Mn396 2.209 . S
O421 Mn397 2.215 . S
O421 C398 1.283 . S
O422 Mn396 2.094 . S
O422 C400 1.240 . S
O423 Mn397 2.117 . S
O423 C400 1.264 . S
C424 C417 1.403 . S
C424 C425 1.399 . S
C424 H430 0.929 . S
C425 C405 1.449 . S
C425 C424 1.399 . S
C425 H431 0.930 . S
H426 C406 0.931 . S
H427 C407 0.930 . S
H428 C415 0.931 . S
H429 C416 0.929 . S
H430 C424 0.929 . S
H431 C425 0.930 . S
Mn432 O437 2.095 . S
Mn432 O447 2.162 . S
Mn432 O448 2.297 . S
Mn432 O456 2.385 . S
Mn432 O457 2.209 . S
Mn432 O458 2.094 1_655 S
Mn433 O438 2.121 . S
Mn433 N440 2.257 . S
Mn433 N449 2.282 . S
Mn433 O457 2.215 . S
Mn433 O459 2.117 . S
C434 O456 1.234 . S
C434 O457 1.283 . S
C435 O447 1.281 . S
C435 O448 1.236 . S
C436 O458 1.240 . S
C436 O459 1.264 1_455 S
O437 Mn432 2.095 . S
O437 C446 1.250 . S
O438 Mn433 2.121 . S
O438 C446 1.258 . S
C439 N440 1.326 . S
C439 C443 1.460 . S
C439 H445 0.929 . S
N440 Mn433 2.257 . S
N440 C439 1.326 . S
N440 C444 1.362 . S
C441 C442 1.258 . S
C441 C444 1.431 . S
C441 C461 1.449 . S
C442 C441 1.258 . S
C442 C443 1.477 . S
C442 H462 0.931 . S
C443 C439 1.460 . S
C443 C442 1.477 . S
C443 H463 0.930 . S
C444 N440 1.362 . S
C444 C441 1.431 . S
C444 C454 1.476 . S
H445 C439 0.929 . S
C446 O437 1.250 . S
C446 O438 1.258 . S
O447 Mn432 2.162 . S
O447 C435 1.281 . S
O448 Mn432 2.297 . S
O448 C435 1.236 . S
N449 Mn433 2.282 . S
N449 C450 1.328 . S
N449 C454 1.318 . S
C450 N449 1.328 . S
C450 C451 1.457 . S
C450 H455 0.929 . S
C451 C450 1.457 . S
C451 C452 1.291 . S
C451 H464 0.931 . S
C452 C451 1.291 . S
C452 C453 1.373 . S
C452 H465 0.929 . S
C453 C452 1.373 . S
C453 C454 1.396 . S
C453 C460 1.403 . S
C454 C444 1.476 . S
C454 N449 1.318 . S
C454 C453 1.396 . S
H455 C450 0.929 . S
O456 Mn432 2.385 . S
O456 C434 1.234 . S
O457 Mn432 2.209 . S
O457 Mn433 2.215 . S
O457 C434 1.283 . S
O458 Mn432 2.094 1_455 S
O458 C436 1.240 . S
O459 Mn433 2.117 . S
O459 C436 1.264 1_655 S
C460 C453 1.403 . S
C460 C461 1.399 . S
C460 H466 0.929 . S
C461 C441 1.449 . S
C461 C460 1.399 . S
C461 H467 0.930 . S
H462 C442 0.931 . S
H463 C443 0.930 . S
H464 C451 0.931 . S
H465 C452 0.929 . S
H466 C460 0.929 . S
H467 C461 0.930 . S
Mn468 O473 2.095 . S
Mn468 O483 2.162 . S
Mn468 O484 2.297 . S
Mn468 O492 2.385 . S
Mn468 O493 2.209 . S
Mn468 O494 2.094 . S
Mn469 O474 2.121 . S
Mn469 N476 2.257 1_655 S
Mn469 N485 2.282 . S
Mn469 O493 2.215 . S
Mn469 O495 2.117 . S
C470 O492 1.234 . S
C470 O493 1.283 . S
C471 O483 1.281 . S
C471 O484 1.236 . S
C472 O494 1.240 . S
C472 O495 1.264 . S
O473 Mn468 2.095 . S
O473 C482 1.250 . S
O474 Mn469 2.121 . S
O474 C482 1.258 . S
C475 N476 1.326 . S
C475 C479 1.460 . S
C475 H481 0.929 . S
N476 Mn469 2.257 1_455 S
N476 C475 1.326 . S
N476 C480 1.362 . S
C477 C478 1.258 . S
C477 C480 1.431 . S
C477 C497 1.449 . S
C478 C477 1.258 . S
C478 C479 1.477 . S
C478 H498 0.931 . S
C479 C475 1.460 . S
C479 C478 1.477 . S
C479 H499 0.930 . S
C480 N476 1.362 . S
C480 C477 1.431 . S
C480 C490 1.482 . S
H481 C475 0.929 . S
C482 O473 1.250 . S
C482 O474 1.258 . S
O483 Mn468 2.162 . S
O483 C471 1.281 . S
O484 Mn468 2.297 . S
O484 C471 1.236 . S
N485 Mn469 2.282 . S
N485 C486 1.328 . S
N485 C490 1.310 1_655 S
C486 N485 1.328 . S
C486 C487 1.457 . S
C486 H491 0.929 . S
C487 C486 1.457 . S
C487 C488 1.291 . S
C487 H500 0.931 . S
C488 C487 1.291 . S
C488 C489 1.373 1_655 S
C488 H501 0.929 . S
C489 C488 1.373 1_455 S
C489 C490 1.398 . S
C489 C496 1.403 . S
C490 C480 1.482 . S
C490 N485 1.310 1_455 S
C490 C489 1.398 . S
H491 C486 0.929 . S
O492 Mn468 2.385 . S
O492 C470 1.234 . S
O493 Mn468 2.209 . S
O493 Mn469 2.215 . S
O493 C470 1.283 . S
O494 Mn468 2.094 . S
O494 C472 1.240 . S
O495 Mn469 2.117 . S
O495 C472 1.264 . S
C496 C489 1.403 . S
C496 C497 1.399 . S
C496 H502 0.929 . S
C497 C477 1.449 . S
C497 C496 1.399 . S
C497 H503 0.930 . S
H498 C478 0.931 . S
H499 C479 0.930 . S
H500 C487 0.931 . S
H501 C488 0.929 . S
H502 C496 0.929 . S
H503 C497 0.930 . S
Mn504 O509 2.095 . S
Mn504 O519 2.162 . S
Mn504 O520 2.297 . S
Mn504 O528 2.385 . S
Mn504 O529 2.209 . S
Mn504 O530 2.094 1_655 S
Mn505 O510 2.121 . S
Mn505 N512 2.257 . S
Mn505 N521 2.282 . S
Mn505 O529 2.215 . S
Mn505 O531 2.117 . S
C506 O528 1.234 . S
C506 O529 1.283 . S
C507 O519 1.281 . S
C507 O520 1.236 . S
C508 O530 1.240 . S
C508 O531 1.264 1_455 S
O509 Mn504 2.095 . S
O509 C518 1.250 . S
O510 Mn505 2.121 . S
O510 C518 1.258 . S
C511 N512 1.326 . S
C511 C515 1.460 . S
C511 H517 0.929 . S
N512 Mn505 2.257 . S
N512 C511 1.326 . S
N512 C516 1.362 . S
C513 C514 1.258 . S
C513 C516 1.431 . S
C513 C533 1.449 . S
C514 C513 1.258 . S
C514 C515 1.477 . S
C514 H534 0.931 . S
C515 C511 1.460 . S
C515 C514 1.477 . S
C515 H535 0.930 . S
C516 N512 1.362 . S
C516 C513 1.431 . S
C516 C526 1.476 . S
H517 C511 0.929 . S
C518 O509 1.250 . S
C518 O510 1.258 . S
O519 Mn504 2.162 . S
O519 C507 1.281 . S
O520 Mn504 2.297 . S
O520 C507 1.236 . S
N521 Mn505 2.282 . S
N521 C522 1.328 . S
N521 C526 1.318 . S
C522 N521 1.328 . S
C522 C523 1.457 . S
C522 H527 0.929 . S
C523 C522 1.457 . S
C523 C524 1.291 . S
C523 H536 0.931 . S
C524 C523 1.291 . S
C524 C525 1.373 . S
C524 H537 0.929 . S
C525 C524 1.373 . S
C525 C526 1.396 . S
C525 C532 1.403 . S
C526 C516 1.476 . S
C526 N521 1.318 . S
C526 C525 1.396 . S
H527 C522 0.929 . S
O528 Mn504 2.385 . S
O528 C506 1.234 . S
O529 Mn504 2.209 . S
O529 Mn505 2.215 . S
O529 C506 1.283 . S
O530 Mn504 2.094 1_455 S
O530 C508 1.240 . S
O531 Mn505 2.117 . S
O531 C508 1.264 1_655 S
C532 C525 1.403 . S
C532 C533 1.399 . S
C532 H538 0.929 . S
C533 C513 1.449 . S
C533 C532 1.399 . S
C533 H539 0.930 . S
H534 C514 0.931 . S
H535 C515 0.930 . S
H536 C523 0.931 . S
H537 C524 0.929 . S
H538 C532 0.929 . S
H539 C533 0.930 . S
Mn540 O545 2.095 . S
Mn540 O555 2.162 . S
Mn540 O556 2.297 . S
Mn540 O564 2.385 . S
Mn540 O565 2.209 . S
Mn540 O566 2.094 . S
Mn541 O546 2.121 . S
Mn541 N548 2.257 1_655 S
Mn541 N557 2.282 . S
Mn541 O565 2.215 . S
Mn541 O567 2.117 . S
C542 O564 1.234 . S
C542 O565 1.283 . S
C543 O555 1.281 . S
C543 O556 1.236 . S
C544 O566 1.240 . S
C544 O567 1.264 . S
O545 Mn540 2.095 . S
O545 C554 1.250 . S
O546 Mn541 2.121 . S
O546 C554 1.258 . S
C547 N548 1.326 . S
C547 C551 1.460 . S
C547 H553 0.929 . S
N548 Mn541 2.257 1_455 S
N548 C547 1.326 . S
N548 C552 1.362 . S
C549 C550 1.258 . S
C549 C552 1.431 . S
C549 C569 1.449 . S
C550 C549 1.258 . S
C550 C551 1.477 . S
C550 H570 0.931 . S
C551 C547 1.460 . S
C551 C550 1.477 . S
C551 H571 0.930 . S
C552 N548 1.362 . S
C552 C549 1.431 . S
C552 C562 1.484 . S
H553 C547 0.929 . S
C554 O545 1.250 . S
C554 O546 1.258 . S
O555 Mn540 2.162 . S
O555 C543 1.281 . S
O556 Mn540 2.297 . S
O556 C543 1.236 . S
N557 Mn541 2.282 . S
N557 C558 1.328 . S
N557 C562 1.306 1_655 S
C558 N557 1.328 . S
C558 C559 1.457 . S
C558 H563 0.929 . S
C559 C558 1.457 . S
C559 C560 1.291 . S
C559 H572 0.931 . S
C560 C559 1.291 . S
C560 C561 1.373 1_655 S
C560 H573 0.929 . S
C561 C560 1.373 1_455 S
C561 C562 1.399 . S
C561 C568 1.403 . S
C562 C552 1.484 . S
C562 N557 1.306 1_455 S
C562 C561 1.399 . S
H563 C558 0.929 . S
O564 Mn540 2.385 . S
O564 C542 1.234 . S
O565 Mn540 2.209 . S
O565 Mn541 2.215 . S
O565 C542 1.283 . S
O566 Mn540 2.094 . S
O566 C544 1.240 . S
O567 Mn541 2.117 . S
O567 C544 1.264 . S
C568 C561 1.403 . S
C568 C569 1.399 . S
C568 H574 0.929 . S
C569 C549 1.449 . S
C569 C568 1.399 . S
C569 H575 0.930 . S
H570 C550 0.931 . S
H571 C551 0.930 . S
H572 C559 0.931 . S
H573 C560 0.929 . S
H574 C568 0.929 . S
H575 C569 0.930 . S
Mn576 O581 2.095 . S
Mn576 O591 2.162 . S
Mn576 O592 2.297 . S
Mn576 O600 2.385 . S
Mn576 O601 2.209 . S
Mn576 O602 2.094 . S
Mn577 O582 2.121 . S
Mn577 N584 2.257 . S
Mn577 N593 2.282 . S
Mn577 O601 2.215 . S
Mn577 O603 2.117 . S
C578 O600 1.234 . S
C578 O601 1.283 . S
C579 O591 1.281 . S
C579 O592 1.236 . S
C580 O602 1.240 . S
C580 O603 1.264 . S
O581 Mn576 2.095 . S
O581 C590 1.250 . S
O582 Mn577 2.121 . S
O582 C590 1.258 . S
C583 N584 1.326 . S
C583 C587 1.460 . S
C583 H589 0.929 . S
N584 Mn577 2.257 . S
N584 C583 1.326 . S
N584 C588 1.362 . S
C585 C586 1.258 . S
C585 C588 1.431 . S
C585 C605 1.449 . S
C586 C585 1.258 . S
C586 C587 1.477 . S
C586 H606 0.931 . S
C587 C583 1.460 . S
C587 C586 1.477 . S
C587 H607 0.930 . S
C588 N584 1.362 . S
C588 C585 1.431 . S
C588 C598 1.476 . S
H589 C583 0.929 . S
C590 O581 1.250 . S
C590 O582 1.258 . S
O591 Mn576 2.162 . S
O591 C579 1.281 . S
O592 Mn576 2.297 . S
O592 C579 1.236 . S
N593 Mn577 2.282 . S
N593 C594 1.328 . S
N593 C598 1.318 . S
C594 N593 1.328 . S
C594 C595 1.457 . S
C594 H599 0.929 . S
C595 C594 1.457 . S
C595 C596 1.291 . S
C595 H608 0.931 . S
C596 C595 1.291 . S
C596 C597 1.373 . S
C596 H609 0.929 . S
C597 C596 1.373 . S
C597 C598 1.396 . S
C597 C604 1.403 . S
C598 C588 1.476 . S
C598 N593 1.318 . S
C598 C597 1.396 . S
H599 C594 0.929 . S
O600 Mn576 2.385 . S
O600 C578 1.234 . S
O601 Mn576 2.209 . S
O601 Mn577 2.215 . S
O601 C578 1.283 . S
O602 Mn576 2.094 . S
O602 C580 1.240 . S
O603 Mn577 2.117 . S
O603 C580 1.264 . S
C604 C597 1.403 . S
C604 C605 1.399 . S
C604 H610 0.929 . S
C605 C585 1.449 . S
C605 C604 1.399 . S
C605 H611 0.930 . S
H606 C586 0.931 . S
H607 C587 0.930 . S
H608 C595 0.931 . S
H609 C596 0.929 . S
H610 C604 0.929 . S
H611 C605 0.930 . S
Mn612 O617 2.095 . S
Mn612 O627 2.162 . S
Mn612 O628 2.297 . S
Mn612 O636 2.385 . S
Mn612 O637 2.209 . S
Mn612 O638 2.094 . S
Mn613 O618 2.121 . S
Mn613 N620 2.257 . S
Mn613 N629 2.282 . S
Mn613 O637 2.215 . S
Mn613 O639 2.117 . S
C614 O636 1.234 . S
C614 O637 1.283 . S
C615 O627 1.281 . S
C615 O628 1.236 . S
C616 O638 1.240 . S
C616 O639 1.264 . S
O617 Mn612 2.095 . S
O617 C626 1.250 . S
O618 Mn613 2.121 . S
O618 C626 1.258 . S
C619 N620 1.326 . S
C619 C623 1.460 . S
C619 H625 0.929 . S
N620 Mn613 2.257 . S
N620 C619 1.326 . S
N620 C624 1.362 . S
C621 C622 1.258 . S
C621 C624 1.431 . S
C621 C641 1.449 . S
C622 C621 1.258 . S
C622 C623 1.477 . S
C622 H642 0.931 1_655 S
C623 C619 1.460 . S
C623 C622 1.477 . S
C623 H643 0.930 1_655 S
C624 N620 1.362 . S
C624 C621 1.431 . S
C624 C634 1.476 . S
H625 C619 0.929 . S
C626 O617 1.250 . S
C626 O618 1.258 . S
O627 Mn612 2.162 . S
O627 C615 1.281 . S
O628 Mn612 2.297 . S
O628 C615 1.236 . S
N629 Mn613 2.282 . S
N629 C630 1.328 . S
N629 C634 1.318 . S
C630 N629 1.328 . S
C630 C631 1.457 . S
C630 H635 0.929 . S
C631 C630 1.457 . S
C631 C632 1.291 . S
C631 H644 0.931 . S
C632 C631 1.291 . S
C632 C633 1.373 . S
C632 H645 0.929 . S
C633 C632 1.373 . S
C633 C634 1.396 . S
C633 C640 1.403 . S
C634 C624 1.476 . S
C634 N629 1.318 . S
C634 C633 1.396 . S
H635 C630 0.929 . S
O636 Mn612 2.385 . S
O636 C614 1.234 . S
O637 Mn612 2.209 . S
O637 Mn613 2.215 . S
O637 C614 1.283 . S
O638 Mn612 2.094 . S
O638 C616 1.240 . S
O639 Mn613 2.117 . S
O639 C616 1.264 . S
C640 C633 1.403 . S
C640 C641 1.399 . S
C640 H646 0.929 . S
C641 C621 1.449 . S
C641 C640 1.399 . S
C641 H647 0.930 . S
H642 C622 0.931 1_455 S
H643 C623 0.930 1_455 S
H644 C631 0.931 . S
H645 C632 0.929 . S
H646 C640 0.929 . S
H647 C641 0.930 . S
Mn648 O653 2.095 . S
Mn648 O663 2.162 . S
Mn648 O664 2.297 . S
Mn648 O672 2.385 . S
Mn648 O673 2.209 . S
Mn648 O674 2.094 . S
Mn649 O654 2.121 . S
Mn649 N656 2.257 . S
Mn649 N665 2.282 . S
Mn649 O673 2.215 . S
Mn649 O675 2.117 . S
C650 O672 1.234 . S
C650 O673 1.283 . S
C651 O663 1.281 . S
C651 O664 1.236 . S
C652 O674 1.240 . S
C652 O675 1.264 . S
O653 Mn648 2.095 . S
O653 C662 1.250 . S
O654 Mn649 2.121 . S
O654 C662 1.258 . S
C655 N656 1.326 . S
C655 C659 1.460 . S
C655 H661 0.929 . S
N656 Mn649 2.257 . S
N656 C655 1.326 . S
N656 C660 1.362 . S
C657 C658 1.258 . S
C657 C660 1.431 . S
C657 C677 1.449 . S
C658 C657 1.258 . S
C658 C659 1.477 . S
C658 H678 0.931 . S
C659 C655 1.460 . S
C659 C658 1.477 . S
C659 H679 0.930 . S
C660 N656 1.362 . S
C660 C657 1.431 . S
C660 C670 1.476 . S
H661 C655 0.929 . S
C662 O653 1.250 . S
C662 O654 1.258 . S
O663 Mn648 2.162 . S
O663 C651 1.281 . S
O664 Mn648 2.297 . S
O664 C651 1.236 . S
N665 Mn649 2.282 . S
N665 C666 1.328 . S
N665 C670 1.318 . S
C666 N665 1.328 . S
C666 C667 1.457 . S
C666 H671 0.929 . S
C667 C666 1.457 . S
C667 C668 1.291 . S
C667 H680 0.931 . S
C668 C667 1.291 . S
C668 C669 1.373 . S
C668 H681 0.929 . S
C669 C668 1.373 . S
C669 C670 1.396 . S
C669 C676 1.403 . S
C670 C660 1.476 . S
C670 N665 1.318 . S
C670 C669 1.396 . S
H671 C666 0.929 . S
O672 Mn648 2.385 . S
O672 C650 1.234 . S
O673 Mn648 2.209 . S
O673 Mn649 2.215 . S
O673 C650 1.283 . S
O674 Mn648 2.094 . S
O674 C652 1.240 . S
O675 Mn649 2.117 . S
O675 C652 1.264 . S
C676 C669 1.403 . S
C676 C677 1.399 . S
C676 H682 0.929 . S
C677 C657 1.449 . S
C677 C676 1.399 . S
C677 H683 0.930 . S
H678 C658 0.931 . S
H679 C659 0.930 . S
H680 C667 0.931 . S
H681 C668 0.929 . S
H682 C676 0.929 . S
H683 C677 0.930 . S
Mn684 O689 2.095 . S
Mn684 O699 2.162 . S
Mn684 O700 2.297 . S
Mn684 O708 2.385 . S
Mn684 O709 2.209 . S
Mn684 O710 2.094 . S
Mn685 O690 2.121 . S
Mn685 N692 2.257 . S
Mn685 N701 2.282 . S
Mn685 O709 2.215 . S
Mn685 O711 2.117 . S
C686 O708 1.234 . S
C686 O709 1.283 . S
C687 O699 1.281 . S
C687 O700 1.236 . S
C688 O710 1.240 . S
C688 O711 1.264 . S
O689 Mn684 2.095 . S
O689 C698 1.250 . S
O690 Mn685 2.121 . S
O690 C698 1.258 . S
C691 N692 1.326 . S
C691 C695 1.460 . S
C691 H697 0.929 . S
N692 Mn685 2.257 . S
N692 C691 1.326 . S
N692 C696 1.362 . S
C693 C694 1.258 . S
C693 C696 1.431 . S
C693 C713 1.449 . S
C694 C693 1.258 . S
C694 C695 1.477 . S
C694 H714 0.931 1_655 S
C695 C691 1.460 . S
C695 C694 1.477 . S
C695 H715 0.930 1_655 S
C696 N692 1.362 . S
C696 C693 1.431 . S
C696 C706 1.476 . S
H697 C691 0.929 . S
C698 O689 1.250 . S
C698 O690 1.258 . S
O699 Mn684 2.162 . S
O699 C687 1.281 . S
O700 Mn684 2.297 . S
O700 C687 1.236 . S
N701 Mn685 2.282 . S
N701 C702 1.328 . S
N701 C706 1.318 . S
C702 N701 1.328 . S
C702 C703 1.457 . S
C702 H707 0.929 . S
C703 C702 1.457 . S
C703 C704 1.291 . S
C703 H716 0.931 . S
C704 C703 1.291 . S
C704 C705 1.373 . S
C704 H717 0.929 . S
C705 C704 1.373 . S
C705 C706 1.396 . S
C705 C712 1.403 . S
C706 C696 1.476 . S
C706 N701 1.318 . S
C706 C705 1.396 . S
H707 C702 0.929 . S
O708 Mn684 2.385 . S
O708 C686 1.234 . S
O709 Mn684 2.209 . S
O709 Mn685 2.215 . S
O709 C686 1.283 . S
O710 Mn684 2.094 . S
O710 C688 1.240 . S
O711 Mn685 2.117 . S
O711 C688 1.264 . S
C712 C705 1.403 . S
C712 C713 1.399 . S
C712 H718 0.929 . S
C713 C693 1.449 . S
C713 C712 1.399 . S
C713 H719 0.930 . S
H714 C694 0.931 1_455 S
H715 C695 0.930 1_455 S
H716 C703 0.931 . S
H717 C704 0.929 . S
H718 C712 0.929 . S
H719 C713 0.930 . S
Mn720 O725 2.095 . S
Mn720 O735 2.162 . S
Mn720 O736 2.297 . S
Mn720 O744 2.385 . S
Mn720 O745 2.209 . S
Mn720 O746 2.094 . S
Mn721 O726 2.121 . S
Mn721 N728 2.257 . S
Mn721 N737 2.282 . S
Mn721 O745 2.215 . S
Mn721 O747 2.117 . S
C722 O744 1.234 . S
C722 O745 1.283 . S
C723 O735 1.281 . S
C723 O736 1.236 . S
C724 O746 1.240 . S
C724 O747 1.264 . S
O725 Mn720 2.095 . S
O725 C734 1.250 . S
O726 Mn721 2.121 . S
O726 C734 1.258 . S
C727 N728 1.326 . S
C727 C731 1.460 . S
C727 H733 0.929 . S
N728 Mn721 2.257 . S
N728 C727 1.326 . S
N728 C732 1.362 . S
C729 C730 1.258 . S
C729 C732 1.431 . S
C729 C749 1.449 . S
C730 C729 1.258 . S
C730 C731 1.477 . S
C730 H750 0.931 . S
C731 C727 1.460 . S
C731 C730 1.477 . S
C731 H751 0.930 . S
C732 N728 1.362 . S
C732 C729 1.431 . S
C732 C742 1.476 . S
H733 C727 0.929 . S
C734 O725 1.250 . S
C734 O726 1.258 . S
O735 Mn720 2.162 . S
O735 C723 1.281 . S
O736 Mn720 2.297 . S
O736 C723 1.236 . S
N737 Mn721 2.282 . S
N737 C738 1.328 . S
N737 C742 1.318 . S
C738 N737 1.328 . S
C738 C739 1.457 . S
C738 H743 0.929 . S
C739 C738 1.457 . S
C739 C740 1.291 . S
C739 H752 0.931 . S
C740 C739 1.291 . S
C740 C741 1.373 . S
C740 H753 0.929 1_565 S
C741 C740 1.373 . S
C741 C742 1.396 . S
C741 C748 1.403 . S
C742 C732 1.476 . S
C742 N737 1.318 . S
C742 C741 1.396 . S
H743 C738 0.929 . S
O744 Mn720 2.385 . S
O744 C722 1.234 . S
O745 Mn720 2.209 . S
O745 Mn721 2.215 . S
O745 C722 1.283 . S
O746 Mn720 2.094 . S
O746 C724 1.240 . S
O747 Mn721 2.117 . S
O747 C724 1.264 . S
C748 C741 1.403 . S
C748 C749 1.399 . S
C748 H754 0.929 . S
C749 C729 1.449 . S
C749 C748 1.399 . S
C749 H755 0.930 . S
H750 C730 0.931 . S
H751 C731 0.930 . S
H752 C739 0.931 . S
H753 C740 0.929 1_545 S
H754 C748 0.929 . S
H755 C749 0.930 . S
Mn756 O761 2.095 . S
Mn756 O771 2.162 . S
Mn756 O772 2.297 . S
Mn756 O780 2.385 . S
Mn756 O781 2.209 . S
Mn756 O782 2.094 . S
Mn757 O762 2.121 . S
Mn757 N764 2.257 . S
Mn757 N773 2.282 . S
Mn757 O781 2.215 . S
Mn757 O783 2.117 . S
C758 O780 1.234 . S
C758 O781 1.283 . S
C759 O771 1.281 . S
C759 O772 1.236 . S
C760 O782 1.240 . S
C760 O783 1.264 . S
O761 Mn756 2.095 . S
O761 C770 1.250 . S
O762 Mn757 2.121 . S
O762 C770 1.258 . S
C763 N764 1.326 . S
C763 C767 1.460 . S
C763 H769 0.929 . S
N764 Mn757 2.257 . S
N764 C763 1.326 . S
N764 C768 1.362 . S
C765 C766 1.258 . S
C765 C768 1.431 . S
C765 C785 1.449 . S
C766 C765 1.258 . S
C766 C767 1.477 . S
C766 H786 0.931 . S
C767 C763 1.460 . S
C767 C766 1.477 . S
C767 H787 0.930 . S
C768 N764 1.362 . S
C768 C765 1.431 . S
C768 C778 1.476 . S
H769 C763 0.929 . S
C770 O761 1.250 . S
C770 O762 1.258 . S
O771 Mn756 2.162 . S
O771 C759 1.281 . S
O772 Mn756 2.297 . S
O772 C759 1.236 . S
N773 Mn757 2.282 . S
N773 C774 1.328 . S
N773 C778 1.318 . S
C774 N773 1.328 . S
C774 C775 1.457 . S
C774 H779 0.929 . S
C775 C774 1.457 . S
C775 C776 1.291 . S
C775 H788 0.931 . S
C776 C775 1.291 . S
C776 C777 1.373 . S
C776 H789 0.929 . S
C777 C776 1.373 . S
C777 C778 1.396 . S
C777 C784 1.403 . S
C778 C768 1.476 . S
C778 N773 1.318 . S
C778 C777 1.396 . S
H779 C774 0.929 . S
O780 Mn756 2.385 . S
O780 C758 1.234 . S
O781 Mn756 2.209 . S
O781 Mn757 2.215 . S
O781 C758 1.283 . S
O782 Mn756 2.094 . S
O782 C760 1.240 . S
O783 Mn757 2.117 . S
O783 C760 1.264 . S
C784 C777 1.403 . S
C784 C785 1.399 . S
C784 H790 0.929 . S
C785 C765 1.449 . S
C785 C784 1.399 . S
C785 H791 0.930 . S
H786 C766 0.931 . S
H787 C767 0.930 . S
H788 C775 0.931 . S
H789 C776 0.929 . S
H790 C784 0.929 . S
H791 C785 0.930 . S
Mn792 O797 2.095 . S
Mn792 O807 2.162 . S
Mn792 O808 2.297 . S
Mn792 O816 2.385 . S
Mn792 O817 2.209 . S
Mn792 O818 2.094 . S
Mn793 O798 2.121 . S
Mn793 N800 2.257 . S
Mn793 N809 2.282 . S
Mn793 O817 2.215 . S
Mn793 O819 2.117 . S
C794 O816 1.234 . S
C794 O817 1.283 . S
C795 O807 1.281 . S
C795 O808 1.236 . S
C796 O818 1.240 . S
C796 O819 1.264 . S
O797 Mn792 2.095 . S
O797 C806 1.250 . S
O798 Mn793 2.121 . S
O798 C806 1.258 . S
C799 N800 1.326 . S
C799 C803 1.460 . S
C799 H805 0.929 . S
N800 Mn793 2.257 . S
N800 C799 1.326 . S
N800 C804 1.362 . S
C801 C802 1.258 . S
C801 C804 1.431 . S
C801 C821 1.449 . S
C802 C801 1.258 . S
C802 C803 1.477 . S
C802 H822 0.931 . S
C803 C799 1.460 . S
C803 C802 1.477 . S
C803 H823 0.930 . S
C804 N800 1.362 . S
C804 C801 1.431 . S
C804 C814 1.476 . S
H805 C799 0.929 . S
C806 O797 1.250 . S
C806 O798 1.258 . S
O807 Mn792 2.162 . S
O807 C795 1.281 . S
O808 Mn792 2.297 . S
O808 C795 1.236 . S
N809 Mn793 2.282 . S
N809 C810 1.328 . S
N809 C814 1.318 . S
C810 N809 1.328 . S
C810 C811 1.457 . S
C810 H815 0.929 . S
C811 C810 1.457 . S
C811 C812 1.291 . S
C811 H824 0.931 . S
C812 C811 1.291 . S
C812 C813 1.373 . S
C812 H825 0.929 . S
C813 C812 1.373 . S
C813 C814 1.396 . S
C813 C820 1.403 . S
C814 C804 1.476 . S
C814 N809 1.318 . S
C814 C813 1.396 . S
H815 C810 0.929 . S
O816 Mn792 2.385 . S
O816 C794 1.234 . S
O817 Mn792 2.209 . S
O817 Mn793 2.215 . S
O817 C794 1.283 . S
O818 Mn792 2.094 . S
O818 C796 1.240 . S
O819 Mn793 2.117 . S
O819 C796 1.264 . S
C820 C813 1.403 . S
C820 C821 1.399 . S
C820 H826 0.929 . S
C821 C801 1.449 . S
C821 C820 1.399 . S
C821 H827 0.930 . S
H822 C802 0.931 . S
H823 C803 0.930 . S
H824 C811 0.931 . S
H825 C812 0.929 . S
H826 C820 0.929 . S
H827 C821 0.930 . S
Mn828 O833 2.095 . S
Mn828 O843 2.162 . S
Mn828 O844 2.297 . S
Mn828 O852 2.385 . S
Mn828 O853 2.209 . S
Mn828 O854 2.094 . S
Mn829 O834 2.121 . S
Mn829 N836 2.257 . S
Mn829 N845 2.282 . S
Mn829 O853 2.215 . S
Mn829 O855 2.117 . S
C830 O852 1.234 . S
C830 O853 1.283 . S
C831 O843 1.281 . S
C831 O844 1.236 . S
C832 O854 1.240 . S
C832 O855 1.264 . S
O833 Mn828 2.095 . S
O833 C842 1.250 . S
O834 Mn829 2.121 . S
O834 C842 1.258 . S
C835 N836 1.326 . S
C835 C839 1.460 . S
C835 H841 0.929 . S
N836 Mn829 2.257 . S
N836 C835 1.326 . S
N836 C840 1.362 . S
C837 C838 1.258 . S
C837 C840 1.431 . S
C837 C857 1.449 . S
C838 C837 1.258 . S
C838 C839 1.477 . S
C838 H858 0.931 . S
C839 C835 1.460 . S
C839 C838 1.477 . S
C839 H859 0.930 . S
C840 N836 1.362 . S
C840 C837 1.431 . S
C840 C850 1.476 . S
H841 C835 0.929 . S
C842 O833 1.250 . S
C842 O834 1.258 . S
O843 Mn828 2.162 . S
O843 C831 1.281 . S
O844 Mn828 2.297 . S
O844 C831 1.236 . S
N845 Mn829 2.282 . S
N845 C846 1.328 . S
N845 C850 1.318 . S
C846 N845 1.328 . S
C846 C847 1.457 . S
C846 H851 0.929 . S
C847 C846 1.457 . S
C847 C848 1.291 . S
C847 H860 0.931 . S
C848 C847 1.291 . S
C848 C849 1.373 . S
C848 H861 0.929 1_565 S
C849 C848 1.373 . S
C849 C850 1.396 . S
C849 C856 1.403 . S
C850 C840 1.476 . S
C850 N845 1.318 . S
C850 C849 1.396 . S
H851 C846 0.929 . S
O852 Mn828 2.385 . S
O852 C830 1.234 . S
O853 Mn828 2.209 . S
O853 Mn829 2.215 . S
O853 C830 1.283 . S
O854 Mn828 2.094 . S
O854 C832 1.240 . S
O855 Mn829 2.117 . S
O855 C832 1.264 . S
C856 C849 1.403 . S
C856 C857 1.399 . S
C856 H862 0.929 . S
C857 C837 1.449 . S
C857 C856 1.399 . S
C857 H863 0.930 . S
H858 C838 0.931 . S
H859 C839 0.930 . S
H860 C847 0.931 . S
H861 C848 0.929 1_545 S
H862 C856 0.929 . S
H863 C857 0.930 . S
Mn864 O869 2.095 . S
Mn864 O879 2.162 . S
Mn864 O880 2.297 . S
Mn864 O888 2.385 . S
Mn864 O889 2.209 . S
Mn864 O890 2.094 . S
Mn865 O870 2.121 . S
Mn865 N872 2.257 . S
Mn865 N881 2.282 . S
Mn865 O889 2.215 . S
Mn865 O891 2.117 . S
C866 O888 1.234 . S
C866 O889 1.283 . S
C867 O879 1.281 . S
C867 O880 1.236 . S
C868 O890 1.240 . S
C868 O891 1.264 . S
O869 Mn864 2.095 . S
O869 C878 1.250 . S
O870 Mn865 2.121 . S
O870 C878 1.258 . S
C871 N872 1.326 . S
C871 C875 1.460 . S
C871 H877 0.929 . S
N872 Mn865 2.257 . S
N872 C871 1.326 . S
N872 C876 1.362 . S
C873 C874 1.258 . S
C873 C876 1.431 . S
C873 C893 1.449 . S
C874 C873 1.258 . S
C874 C875 1.477 . S
C874 H894 0.931 . S
C875 C871 1.460 . S
C875 C874 1.477 . S
C875 H895 0.930 . S
C876 N872 1.362 . S
C876 C873 1.431 . S
C876 C886 1.476 . S
H877 C871 0.929 . S
C878 O869 1.250 . S
C878 O870 1.258 . S
O879 Mn864 2.162 . S
O879 C867 1.281 . S
O880 Mn864 2.297 . S
O880 C867 1.236 . S
N881 Mn865 2.282 . S
N881 C882 1.328 . S
N881 C886 1.318 . S
C882 N881 1.328 . S
C882 C883 1.457 . S
C882 H887 0.929 . S
C883 C882 1.457 . S
C883 C884 1.291 . S
C883 H896 0.931 . S
C884 C883 1.291 . S
C884 C885 1.373 . S
C884 H897 0.929 . S
C885 C884 1.373 . S
C885 C886 1.396 . S
C885 C892 1.403 . S
C886 C876 1.476 . S
C886 N881 1.318 . S
C886 C885 1.396 . S
H887 C882 0.929 . S
O888 Mn864 2.385 . S
O888 C866 1.234 . S
O889 Mn864 2.209 . S
O889 Mn865 2.215 . S
O889 C866 1.283 . S
O890 Mn864 2.094 . S
O890 C868 1.240 . S
O891 Mn865 2.117 . S
O891 C868 1.264 . S
C892 C885 1.403 . S
C892 C893 1.399 . S
C892 H898 0.929 . S
C893 C873 1.449 . S
C893 C892 1.399 . S
C893 H899 0.930 . S
H894 C874 0.931 . S
H895 C875 0.930 . S
H896 C883 0.931 . S
H897 C884 0.929 . S
H898 C892 0.929 . S
H899 C893 0.930 . S
Mn900 O905 2.095 . S
Mn900 O915 2.162 . S
Mn900 O916 2.297 . S
Mn900 O924 2.385 . S
Mn900 O925 2.209 . S
Mn900 O926 2.094 . S
Mn901 O906 2.121 . S
Mn901 N908 2.257 . S
Mn901 N917 2.282 . S
Mn901 O925 2.215 . S
Mn901 O927 2.117 . S
C902 O924 1.234 . S
C902 O925 1.283 . S
C903 O915 1.281 . S
C903 O916 1.236 . S
C904 O926 1.240 . S
C904 O927 1.264 . S
O905 Mn900 2.095 . S
O905 C914 1.250 . S
O906 Mn901 2.121 . S
O906 C914 1.258 . S
C907 N908 1.326 . S
C907 C911 1.460 . S
C907 H913 0.929 . S
N908 Mn901 2.257 . S
N908 C907 1.326 . S
N908 C912 1.362 . S
C909 C910 1.258 . S
C909 C912 1.431 . S
C909 C929 1.449 . S
C910 C909 1.258 . S
C910 C911 1.477 . S
C910 H930 0.931 1_655 S
C911 C907 1.460 . S
C911 C910 1.477 . S
C911 H931 0.930 1_655 S
C912 N908 1.362 . S
C912 C909 1.431 . S
C912 C922 1.476 . S
H913 C907 0.929 . S
C914 O905 1.250 . S
C914 O906 1.258 . S
O915 Mn900 2.162 . S
O915 C903 1.281 . S
O916 Mn900 2.297 . S
O916 C903 1.236 . S
N917 Mn901 2.282 . S
N917 C918 1.328 . S
N917 C922 1.318 . S
C918 N917 1.328 . S
C918 C919 1.457 . S
C918 H923 0.929 . S
C919 C918 1.457 . S
C919 C920 1.291 . S
C919 H932 0.931 . S
C920 C919 1.291 . S
C920 C921 1.373 . S
C920 H933 0.929 . S
C921 C920 1.373 . S
C921 C922 1.396 . S
C921 C928 1.403 . S
C922 C912 1.476 . S
C922 N917 1.318 . S
C922 C921 1.396 . S
H923 C918 0.929 . S
O924 Mn900 2.385 . S
O924 C902 1.234 . S
O925 Mn900 2.209 . S
O925 Mn901 2.215 . S
O925 C902 1.283 . S
O926 Mn900 2.094 . S
O926 C904 1.240 . S
O927 Mn901 2.117 . S
O927 C904 1.264 . S
C928 C921 1.403 . S
C928 C929 1.399 . S
C928 H934 0.929 . S
C929 C909 1.449 . S
C929 C928 1.399 . S
C929 H935 0.930 . S
H930 C910 0.931 1_455 S
H931 C911 0.930 1_455 S
H932 C919 0.931 . S
H933 C920 0.929 . S
H934 C928 0.929 . S
H935 C929 0.930 . S
Mn936 O941 2.095 . S
Mn936 O951 2.162 . S
Mn936 O952 2.297 . S
Mn936 O960 2.385 1_556 S
Mn936 O961 2.209 1_556 S
Mn936 O962 2.094 . S
Mn937 O942 2.121 1_554 S
Mn937 N944 2.257 . S
Mn937 N953 2.282 . S
Mn937 O961 2.215 . S
Mn937 O963 2.117 1_554 S
C938 O960 1.234 . S
C938 O961 1.283 . S
C939 O951 1.281 . S
C939 O952 1.236 . S
C940 O962 1.240 . S
C940 O963 1.264 . S
O941 Mn936 2.095 . S
O941 C950 1.250 . S
O942 Mn937 2.121 1_556 S
O942 C950 1.258 . S
C943 N944 1.326 . S
C943 C947 1.460 . S
C943 H949 0.929 . S
N944 Mn937 2.257 . S
N944 C943 1.326 . S
N944 C948 1.362 . S
C945 C946 1.258 . S
C945 C948 1.431 . S
C945 C965 1.449 . S
C946 C945 1.258 . S
C946 C947 1.477 . S
C946 H966 0.931 . S
C947 C943 1.460 . S
C947 C946 1.477 . S
C947 H967 0.930 . S
C948 N944 1.362 . S
C948 C945 1.431 . S
C948 C958 1.476 . S
H949 C943 0.929 . S
C950 O941 1.250 . S
C950 O942 1.258 . S
O951 Mn936 2.162 . S
O951 C939 1.281 . S
O952 Mn936 2.297 . S
O952 C939 1.236 . S
N953 Mn937 2.282 . S
N953 C954 1.328 . S
N953 C958 1.318 . S
C954 N953 1.328 . S
C954 C955 1.457 . S
C954 H959 0.929 . S
C955 C954 1.457 . S
C955 C956 1.291 . S
C955 H968 0.931 . S
C956 C955 1.291 . S
C956 C957 1.373 . S
C956 H969 0.929 . S
C957 C956 1.373 . S
C957 C958 1.396 . S
C957 C964 1.403 . S
C958 C948 1.476 . S
C958 N953 1.318 . S
C958 C957 1.396 . S
H959 C954 0.929 . S
O960 Mn936 2.385 1_554 S
O960 C938 1.234 . S
O961 Mn936 2.209 1_554 S
O961 Mn937 2.215 . S
O961 C938 1.283 . S
O962 Mn936 2.094 . S
O962 C940 1.240 . S
O963 Mn937 2.117 1_556 S
O963 C940 1.264 . S
C964 C957 1.403 . S
C964 C965 1.399 . S
C964 H970 0.929 . S
C965 C945 1.449 . S
C965 C964 1.399 . S
C965 H971 0.930 . S
H966 C946 0.931 . S
H967 C947 0.930 . S
H968 C955 0.931 . S
H969 C956 0.929 . S
H970 C964 0.929 . S
H971 C965 0.930 . S
Mn972 O977 2.095 . S
Mn972 O987 2.162 . S
Mn972 O988 2.297 . S
Mn972 O996 2.385 1_556 S
Mn972 O997 2.209 1_556 S
Mn972 O998 2.094 . S
Mn973 O978 2.121 1_554 S
Mn973 N980 2.257 . S
Mn973 N989 2.282 . S
Mn973 O997 2.215 . S
Mn973 O999 2.117 1_554 S
C974 O996 1.234 . S
C974 O997 1.283 . S
C975 O987 1.281 . S
C975 O988 1.236 . S
C976 O998 1.240 . S
C976 O999 1.264 . S
O977 Mn972 2.095 . S
O977 C986 1.250 . S
O978 Mn973 2.121 1_556 S
O978 C986 1.258 . S
C979 N980 1.326 . S
C979 C983 1.460 . S
C979 H985 0.929 . S
N980 Mn973 2.257 . S
N980 C979 1.326 . S
N980 C984 1.362 . S
C981 C982 1.258 . S
C981 C984 1.431 . S
C981 C1001 1.449 . S
C982 C981 1.258 . S
C982 C983 1.477 . S
C982 H1002 0.931 1_655 S
C983 C979 1.460 . S
C983 C982 1.477 . S
C983 H1003 0.930 1_655 S
C984 N980 1.362 . S
C984 C981 1.431 . S
C984 C994 1.476 . S
H985 C979 0.929 . S
C986 O977 1.250 . S
C986 O978 1.258 . S
O987 Mn972 2.162 . S
O987 C975 1.281 . S
O988 Mn972 2.297 . S
O988 C975 1.236 . S
N989 Mn973 2.282 . S
N989 C990 1.328 . S
N989 C994 1.318 . S
C990 N989 1.328 . S
C990 C991 1.457 . S
C990 H995 0.929 . S
C991 C990 1.457 . S
C991 C992 1.291 . S
C991 H1004 0.931 . S
C992 C991 1.291 . S
C992 C993 1.373 . S
C992 H1005 0.929 . S
C993 C992 1.373 . S
C993 C994 1.396 . S
C993 C1000 1.403 . S
C994 C984 1.476 . S
C994 N989 1.318 . S
C994 C993 1.396 . S
H995 C990 0.929 . S
O996 Mn972 2.385 1_554 S
O996 C974 1.234 . S
O997 Mn972 2.209 1_554 S
O997 Mn973 2.215 . S
O997 C974 1.283 . S
O998 Mn972 2.094 . S
O998 C976 1.240 . S
O999 Mn973 2.117 1_556 S
O999 C976 1.264 . S
C1000 C993 1.403 . S
C1000 C1001 1.399 . S
C1000 H1006 0.929 . S
C1001 C981 1.449 . S
C1001 C1000 1.399 . S
C1001 H1007 0.930 . S
H1002 C982 0.931 1_455 S
H1003 C983 0.930 1_455 S
H1004 C991 0.931 . S
H1005 C992 0.929 . S
H1006 C1000 0.929 . S
H1007 C1001 0.930 . S
Mn1008 O1013 2.095 . S
Mn1008 O1023 2.162 . S
Mn1008 O1024 2.297 . S
Mn1008 O1032 2.385 . S
Mn1008 O1033 2.209 . S
Mn1008 O1034 2.094 . S
Mn1009 O1014 2.121 . S
Mn1009 N1016 2.257 . S
Mn1009 N1025 2.282 . S
Mn1009 O1033 2.215 . S
Mn1009 O1035 2.117 . S
C1010 O1032 1.234 . S
C1010 O1033 1.283 . S
C1011 O1023 1.281 . S
C1011 O1024 1.236 . S
C1012 O1034 1.240 . S
C1012 O1035 1.264 . S
O1013 Mn1008 2.095 . S
O1013 C1022 1.250 . S
O1014 Mn1009 2.121 . S
O1014 C1022 1.258 . S
C1015 N1016 1.326 . S
C1015 C1019 1.460 . S
C1015 H1021 0.929 . S
N1016 Mn1009 2.257 . S
N1016 C1015 1.326 . S
N1016 C1020 1.362 . S
C1017 C1018 1.258 . S
C1017 C1020 1.431 . S
C1017 C1037 1.449 . S
C1018 C1017 1.258 . S
C1018 C1019 1.477 . S
C1018 H1038 0.931 . S
C1019 C1015 1.460 . S
C1019 C1018 1.477 . S
C1019 H1039 0.930 . S
C1020 N1016 1.362 . S
C1020 C1017 1.431 . S
C1020 C1030 1.476 . S
H1021 C1015 0.929 . S
C1022 O1013 1.250 . S
C1022 O1014 1.258 . S
O1023 Mn1008 2.162 . S
O1023 C1011 1.281 . S
O1024 Mn1008 2.297 . S
O1024 C1011 1.236 . S
N1025 Mn1009 2.282 . S
N1025 C1026 1.328 . S
N1025 C1030 1.318 . S
C1026 N1025 1.328 . S
C1026 C1027 1.457 . S
C1026 H1031 0.929 . S
C1027 C1026 1.457 . S
C1027 C1028 1.291 . S
C1027 H1040 0.931 . S
C1028 C1027 1.291 . S
C1028 C1029 1.373 . S
C1028 H1041 0.929 . S
C1029 C1028 1.373 . S
C1029 C1030 1.396 . S
C1029 C1036 1.403 . S
C1030 C1020 1.476 . S
C1030 N1025 1.318 . S
C1030 C1029 1.396 . S
H1031 C1026 0.929 . S
O1032 Mn1008 2.385 . S
O1032 C1010 1.234 . S
O1033 Mn1008 2.209 . S
O1033 Mn1009 2.215 . S
O1033 C1010 1.283 . S
O1034 Mn1008 2.094 . S
O1034 C1012 1.240 . S
O1035 Mn1009 2.117 . S
O1035 C1012 1.264 . S
C1036 C1029 1.403 . S
C1036 C1037 1.399 . S
C1036 H1042 0.929 . S
C1037 C1017 1.449 . S
C1037 C1036 1.399 . S
C1037 H1043 0.930 . S
H1038 C1018 0.931 . S
H1039 C1019 0.930 . S
H1040 C1027 0.931 . S
H1041 C1028 0.929 . S
H1042 C1036 0.929 . S
H1043 C1037 0.930 . S
Mn1044 O1049 2.095 . S
Mn1044 O1059 2.162 . S
Mn1044 O1060 2.297 . S
Mn1044 O1068 2.385 . S
Mn1044 O1069 2.209 . S
Mn1044 O1070 2.094 . S
Mn1045 O1050 2.121 . S
Mn1045 N1052 2.257 . S
Mn1045 N1061 2.282 . S
Mn1045 O1069 2.215 . S
Mn1045 O1071 2.117 . S
C1046 O1068 1.234 . S
C1046 O1069 1.283 . S
C1047 O1059 1.281 . S
C1047 O1060 1.236 . S
C1048 O1070 1.240 . S
C1048 O1071 1.264 . S
O1049 Mn1044 2.095 . S
O1049 C1058 1.250 . S
O1050 Mn1045 2.121 . S
O1050 C1058 1.258 . S
C1051 N1052 1.326 . S
C1051 C1055 1.460 . S
C1051 H1057 0.929 . S
N1052 Mn1045 2.257 . S
N1052 C1051 1.326 . S
N1052 C1056 1.362 . S
C1053 C1054 1.258 . S
C1053 C1056 1.431 . S
C1053 C1073 1.449 . S
C1054 C1053 1.258 . S
C1054 C1055 1.477 . S
C1054 H1074 0.931 . S
C1055 C1051 1.460 . S
C1055 C1054 1.477 . S
C1055 H1075 0.930 . S
C1056 N1052 1.362 . S
C1056 C1053 1.431 . S
C1056 C1066 1.476 . S
H1057 C1051 0.929 . S
C1058 O1049 1.250 . S
C1058 O1050 1.258 . S
O1059 Mn1044 2.162 . S
O1059 C1047 1.281 . S
O1060 Mn1044 2.297 . S
O1060 C1047 1.236 . S
N1061 Mn1045 2.282 . S
N1061 C1062 1.328 . S
N1061 C1066 1.318 . S
C1062 N1061 1.328 . S
C1062 C1063 1.457 . S
C1062 H1067 0.929 . S
C1063 C1062 1.457 . S
C1063 C1064 1.291 . S
C1063 H1076 0.931 . S
C1064 C1063 1.291 . S
C1064 C1065 1.373 . S
C1064 H1077 0.929 . S
C1065 C1064 1.373 . S
C1065 C1066 1.396 . S
C1065 C1072 1.403 . S
C1066 C1056 1.476 . S
C1066 N1061 1.318 . S
C1066 C1065 1.396 . S
H1067 C1062 0.929 . S
O1068 Mn1044 2.385 . S
O1068 C1046 1.234 . S
O1069 Mn1044 2.209 . S
O1069 Mn1045 2.215 . S
O1069 C1046 1.283 . S
O1070 Mn1044 2.094 . S
O1070 C1048 1.240 . S
O1071 Mn1045 2.117 . S
O1071 C1048 1.264 . S
C1072 C1065 1.403 . S
C1072 C1073 1.399 . S
C1072 H1078 0.929 . S
C1073 C1053 1.449 . S
C1073 C1072 1.399 . S
C1073 H1079 0.930 . S
H1074 C1054 0.931 . S
H1075 C1055 0.930 . S
H1076 C1063 0.931 . S
H1077 C1064 0.929 . S
H1078 C1072 0.929 . S
H1079 C1073 0.930 . S
Mn1080 O1085 2.095 . S
Mn1080 O1095 2.162 1_554 S
Mn1080 O1096 2.297 1_554 S
Mn1080 O1104 2.385 . S
Mn1080 O1105 2.209 . S
Mn1080 O1106 2.094 . S
Mn1081 O1086 2.121 . S
Mn1081 N1088 2.257 . S
Mn1081 N1097 2.282 . S
Mn1081 O1105 2.215 . S
Mn1081 O1107 2.117 . S
C1082 O1104 1.234 . S
C1082 O1105 1.283 . S
C1083 O1095 1.281 . S
C1083 O1096 1.236 . S
C1084 O1106 1.240 . S
C1084 O1107 1.264 . S
O1085 Mn1080 2.095 . S
O1085 C1094 1.250 . S
O1086 Mn1081 2.121 . S
O1086 C1094 1.258 . S
C1087 N1088 1.326 . S
C1087 C1091 1.460 . S
C1087 H1093 0.929 . S
N1088 Mn1081 2.257 . S
N1088 C1087 1.326 . S
N1088 C1092 1.362 . S
C1089 C1090 1.258 . S
C1089 C1092 1.431 . S
C1089 C1109 1.449 . S
C1090 C1089 1.258 . S
C1090 C1091 1.477 . S
C1090 H1110 0.931 . S
C1091 C1087 1.460 . S
C1091 C1090 1.477 . S
C1091 H1111 0.930 . S
C1092 N1088 1.362 . S
C1092 C1089 1.431 . S
C1092 C1102 1.476 . S
H1093 C1087 0.929 . S
C1094 O1085 1.250 . S
C1094 O1086 1.258 . S
O1095 Mn1080 2.162 1_556 S
O1095 C1083 1.281 . S
O1096 Mn1080 2.297 1_556 S
O1096 C1083 1.236 . S
N1097 Mn1081 2.282 . S
N1097 C1098 1.328 . S
N1097 C1102 1.318 . S
C1098 N1097 1.328 . S
C1098 C1099 1.457 . S
C1098 H1103 0.929 . S
C1099 C1098 1.457 . S
C1099 C1100 1.291 . S
C1099 H1112 0.931 . S
C1100 C1099 1.291 . S
C1100 C1101 1.373 . S
C1100 H1113 0.929 . S
C1101 C1100 1.373 . S
C1101 C1102 1.396 . S
C1101 C1108 1.403 . S
C1102 C1092 1.476 . S
C1102 N1097 1.318 . S
C1102 C1101 1.396 . S
H1103 C1098 0.929 . S
O1104 Mn1080 2.385 . S
O1104 C1082 1.234 . S
O1105 Mn1080 2.209 . S
O1105 Mn1081 2.215 . S
O1105 C1082 1.283 . S
O1106 Mn1080 2.094 . S
O1106 C1084 1.240 . S
O1107 Mn1081 2.117 . S
O1107 C1084 1.264 . S
C1108 C1101 1.403 . S
C1108 C1109 1.399 . S
C1108 H1114 0.929 . S
C1109 C1089 1.449 . S
C1109 C1108 1.399 . S
C1109 H1115 0.930 . S
H1110 C1090 0.931 . S
H1111 C1091 0.930 . S
H1112 C1099 0.931 . S
H1113 C1100 0.929 . S
H1114 C1108 0.929 . S
H1115 C1109 0.930 . S
Mn1116 O1121 2.095 . S
Mn1116 O1131 2.162 1_554 S
Mn1116 O1132 2.297 1_554 S
Mn1116 O1140 2.385 . S
Mn1116 O1141 2.209 . S
Mn1116 O1142 2.094 . S
Mn1117 O1122 2.121 . S
Mn1117 N1124 2.257 . S
Mn1117 N1133 2.282 . S
Mn1117 O1141 2.215 . S
Mn1117 O1143 2.117 . S
C1118 O1140 1.234 . S
C1118 O1141 1.283 . S
C1119 O1131 1.281 . S
C1119 O1132 1.236 . S
C1120 O1142 1.240 . S
C1120 O1143 1.264 . S
O1121 Mn1116 2.095 . S
O1121 C1130 1.250 . S
O1122 Mn1117 2.121 . S
O1122 C1130 1.258 . S
C1123 N1124 1.326 . S
C1123 C1127 1.460 . S
C1123 H1129 0.929 . S
N1124 Mn1117 2.257 . S
N1124 C1123 1.326 . S
N1124 C1128 1.362 . S
C1125 C1126 1.258 . S
C1125 C1128 1.431 . S
C1125 C1145 1.449 . S
C1126 C1125 1.258 . S
C1126 C1127 1.477 . S
C1126 H1146 0.931 . S
C1127 C1123 1.460 . S
C1127 C1126 1.477 . S
C1127 H1147 0.930 . S
C1128 N1124 1.362 . S
C1128 C1125 1.431 . S
C1128 C1138 1.476 . S
H1129 C1123 0.929 . S
C1130 O1121 1.250 . S
C1130 O1122 1.258 . S
O1131 Mn1116 2.162 1_556 S
O1131 C1119 1.281 . S
O1132 Mn1116 2.297 1_556 S
O1132 C1119 1.236 . S
N1133 Mn1117 2.282 . S
N1133 C1134 1.328 . S
N1133 C1138 1.318 . S
C1134 N1133 1.328 . S
C1134 C1135 1.457 . S
C1134 H1139 0.929 . S
C1135 C1134 1.457 . S
C1135 C1136 1.291 . S
C1135 H1148 0.931 . S
C1136 C1135 1.291 . S
C1136 C1137 1.373 . S
C1136 H1149 0.929 . S
C1137 C1136 1.373 . S
C1137 C1138 1.396 . S
C1137 C1144 1.403 . S
C1138 C1128 1.476 . S
C1138 N1133 1.318 . S
C1138 C1137 1.396 . S
H1139 C1134 0.929 . S
O1140 Mn1116 2.385 . S
O1140 C1118 1.234 . S
O1141 Mn1116 2.209 . S
O1141 Mn1117 2.215 . S
O1141 C1118 1.283 . S
O1142 Mn1116 2.094 . S
O1142 C1120 1.240 . S
O1143 Mn1117 2.117 . S
O1143 C1120 1.264 . S
C1144 C1137 1.403 . S
C1144 C1145 1.399 . S
C1144 H1150 0.929 . S
C1145 C1125 1.449 . S
C1145 C1144 1.399 . S
C1145 H1151 0.930 . S
H1146 C1126 0.931 . S
H1147 C1127 0.930 . S
H1148 C1135 0.931 . S
H1149 C1136 0.929 . S
H1150 C1144 0.929 . S
H1151 C1145 0.930 . S
H1152 C1158 0.930 . S
H1153 C1161 0.930 . S
H1154 C1162 0.930 . S
H1155 C1163 0.930 . S
H1156 C1166 0.930 . S
H1157 C1167 0.930 . S
C1158 H1152 0.930 . S
C1158 C1159 1.355 . S
C1158 C1160 1.415 . S
C1159 C1158 1.355 . S
C1159 C1161 1.419 . S
C1160 C1158 1.415 . S
C1160 C1165 1.425 . S
C1160 C1167 1.409 . S
C1161 H1153 0.930 . S
C1161 C1159 1.419 . S
C1161 C1162 1.362 . S
C1162 H1154 0.930 . S
C1162 C1161 1.362 . S
C1162 C1165 1.409 . S
C1163 H1155 0.930 . S
C1163 C1164 1.355 . S
C1163 C1165 1.415 . S
C1164 C1163 1.355 . S
C1164 C1166 1.419 . S
C1165 C1160 1.425 . S
C1165 C1162 1.409 . S
C1165 C1163 1.415 . S
C1166 H1156 0.930 . S
C1166 C1164 1.419 . S
C1166 C1167 1.362 . S
C1167 H1157 0.930 . S
C1167 C1160 1.409 . S
C1167 C1166 1.362 . S
H1168 C1174 0.930 . S
H1169 C1177 0.930 . S
H1170 C1178 0.930 . S
H1171 C1179 0.930 . S
H1172 C1182 0.930 . S
H1173 C1183 0.930 . S
C1174 H1168 0.930 . S
C1174 C1175 1.355 . S
C1174 C1176 1.415 . S
C1175 C1174 1.355 . S
C1175 C1177 1.419 . S
C1176 C1174 1.415 . S
C1176 C1181 1.425 . S
C1176 C1183 1.409 . S
C1177 H1169 0.930 . S
C1177 C1175 1.419 . S
C1177 C1178 1.362 . S
C1178 H1170 0.930 . S
C1178 C1177 1.362 . S
C1178 C1181 1.409 . S
C1179 H1171 0.930 . S
C1179 C1180 1.355 . S
C1179 C1181 1.415 . S
C1180 C1179 1.355 . S
C1180 C1182 1.419 . S
C1181 C1176 1.425 . S
C1181 C1178 1.409 . S
C1181 C1179 1.415 . S
C1182 H1172 0.930 . S
C1182 C1180 1.419 . S
C1182 C1183 1.362 . S
C1183 H1173 0.930 . S
C1183 C1176 1.409 . S
C1183 C1182 1.362 . S
H1184 C1190 0.930 . S
H1185 C1193 0.930 . S
H1186 C1194 0.930 . S
H1187 C1195 0.930 . S
H1188 C1198 0.930 1_455 S
H1189 C1199 0.930 1_455 S
C1190 H1184 0.930 . S
C1190 C1191 1.355 . S
C1190 C1192 1.415 . S
C1191 C1190 1.355 . S
C1191 C1193 1.419 . S
C1192 C1190 1.415 . S
C1192 C1197 1.425 . S
C1192 C1199 1.409 . S
C1193 H1185 0.930 . S
C1193 C1191 1.419 . S
C1193 C1194 1.362 . S
C1194 H1186 0.930 . S
C1194 C1193 1.362 . S
C1194 C1197 1.409 . S
C1195 H1187 0.930 . S
C1195 C1196 1.355 . S
C1195 C1197 1.415 . S
C1196 C1195 1.355 . S
C1196 C1198 1.419 . S
C1197 C1192 1.425 . S
C1197 C1194 1.409 . S
C1197 C1195 1.415 . S
C1198 H1188 0.930 1_655 S
C1198 C1196 1.419 . S
C1198 C1199 1.362 . S
C1199 H1189 0.930 1_655 S
C1199 C1192 1.409 . S
C1199 C1198 1.362 . S
H1200 C1206 0.930 . S
H1201 C1209 0.930 . S
H1202 C1210 0.930 . S
H1203 C1211 0.930 . S
H1204 C1214 0.930 . S
H1205 C1215 0.930 . S
C1206 H1200 0.930 . S
C1206 C1207 1.355 . S
C1206 C1208 1.415 . S
C1207 C1206 1.355 . S
C1207 C1209 1.419 . S
C1208 C1206 1.415 . S
C1208 C1213 1.425 . S
C1208 C1215 1.409 . S
C1209 H1201 0.930 . S
C1209 C1207 1.419 . S
C1209 C1210 1.362 . S
C1210 H1202 0.930 . S
C1210 C1209 1.362 . S
C1210 C1213 1.409 . S
C1211 H1203 0.930 . S
C1211 C1212 1.355 . S
C1211 C1213 1.415 . S
C1212 C1211 1.355 . S
C1212 C1214 1.419 . S
C1213 C1208 1.425 . S
C1213 C1210 1.409 . S
C1213 C1211 1.415 . S
C1214 H1204 0.930 . S
C1214 C1212 1.419 . S
C1214 C1215 1.362 . S
C1215 H1205 0.930 . S
C1215 C1208 1.409 . S
C1215 C1214 1.362 . S
H1216 C1222 0.930 . S
H1217 C1225 0.930 . S
H1218 C1226 0.930 . S
H1219 C1227 0.930 . S
H1220 C1230 0.930 . S
H1221 C1231 0.930 . S
C1222 H1216 0.930 . S
C1222 C1223 1.355 . S
C1222 C1224 1.415 . S
C1223 C1222 1.355 . S
C1223 C1225 1.419 . S
C1224 C1222 1.415 . S
C1224 C1229 1.425 . S
C1224 C1231 1.409 . S
C1225 H1217 0.930 . S
C1225 C1223 1.419 . S
C1225 C1226 1.362 . S
C1226 H1218 0.930 . S
C1226 C1225 1.362 . S
C1226 C1229 1.409 . S
C1227 H1219 0.930 . S
C1227 C1228 1.355 . S
C1227 C1229 1.415 . S
C1228 C1227 1.355 . S
C1228 C1230 1.419 . S
C1229 C1224 1.425 . S
C1229 C1226 1.409 . S
C1229 C1227 1.415 . S
C1230 H1220 0.930 . S
C1230 C1228 1.419 . S
C1230 C1231 1.362 . S
C1231 H1221 0.930 . S
C1231 C1224 1.409 . S
C1231 C1230 1.362 . S
H1232 C1238 0.930 . S
H1233 C1241 0.930 . S
H1234 C1242 0.930 . S
H1235 C1243 0.930 . S
H1236 C1246 0.930 1_655 S
H1237 C1247 0.930 . S
C1238 H1232 0.930 . S
C1238 C1239 1.355 . S
C1238 C1240 1.415 . S
C1239 C1238 1.355 . S
C1239 C1241 1.419 . S
C1240 C1238 1.415 . S
C1240 C1245 1.425 . S
C1240 C1247 1.409 . S
C1241 H1233 0.930 . S
C1241 C1239 1.419 . S
C1241 C1242 1.362 . S
C1242 H1234 0.930 . S
C1242 C1241 1.362 . S
C1242 C1245 1.409 . S
C1243 H1235 0.930 . S
C1243 C1244 1.355 . S
C1243 C1245 1.415 . S
C1244 C1243 1.355 . S
C1244 C1246 1.419 . S
C1245 C1240 1.425 . S
C1245 C1242 1.409 . S
C1245 C1243 1.415 . S
C1246 H1236 0.930 1_455 S
C1246 C1244 1.419 . S
C1246 C1247 1.362 . S
C1247 H1237 0.930 . S
C1247 C1240 1.409 . S
C1247 C1246 1.362 . S
H1248 C1254 0.930 . S
H1249 C1257 0.930 . S
H1250 C1258 0.930 . S
H1251 C1259 0.930 . S
H1252 C1262 0.938 . S
H1253 C1263 0.930 . S
C1254 H1248 0.930 . S
C1254 C1255 1.355 . S
C1254 C1256 1.415 . S
C1255 C1254 1.355 . S
C1255 C1257 1.419 . S
C1256 C1254 1.415 . S
C1256 C1261 1.425 . S
C1256 C1263 1.409 . S
C1257 H1249 0.930 . S
C1257 C1255 1.419 . S
C1257 C1258 1.362 . S
C1258 H1250 0.930 . S
C1258 C1257 1.362 . S
C1258 C1261 1.409 . S
C1259 H1251 0.930 . S
C1259 C1260 1.355 . S
C1259 C1261 1.415 . S
C1260 C1259 1.355 . S
C1260 C1262 1.419 . S
C1261 C1256 1.425 . S
C1261 C1258 1.409 . S
C1261 C1259 1.415 . S
C1262 H1252 0.938 . S
C1262 C1260 1.419 . S
C1262 C1263 1.362 . S
C1263 H1253 0.930 . S
C1263 C1256 1.409 . S
C1263 C1262 1.362 . S
H1264 C1270 0.930 . S
H1265 C1273 0.930 . S
H1266 C1274 0.930 . S
H1267 C1275 0.930 . S
H1268 C1278 0.930 1_455 S
H1269 C1279 0.930 . S
C1270 H1264 0.930 . S
C1270 C1271 1.355 . S
C1270 C1272 1.415 . S
C1271 C1270 1.355 . S
C1271 C1273 1.419 . S
C1272 C1270 1.415 . S
C1272 C1277 1.425 . S
C1272 C1279 1.409 . S
C1273 H1265 0.930 . S
C1273 C1271 1.419 . S
C1273 C1274 1.362 . S
C1274 H1266 0.930 . S
C1274 C1273 1.362 . S
C1274 C1277 1.409 . S
C1275 H1267 0.930 . S
C1275 C1276 1.355 . S
C1275 C1277 1.415 . S
C1276 C1275 1.355 . S
C1276 C1278 1.419 . S
C1277 C1272 1.425 . S
C1277 C1274 1.409 . S
C1277 C1275 1.415 . S
C1278 H1268 0.930 1_655 S
C1278 C1276 1.419 . S
C1278 C1279 1.362 . S
C1279 H1269 0.930 . S
C1279 C1272 1.409 . S
C1279 C1278 1.362 . S
H1280 C1286 0.930 . S
H1281 C1289 0.930 . S
H1282 C1290 0.930 . S
H1283 C1291 0.930 . S
H1284 C1294 0.930 . S
H1285 C1295 0.930 . S
C1286 H1280 0.930 . S
C1286 C1287 1.355 . S
C1286 C1288 1.415 . S
C1287 C1286 1.355 . S
C1287 C1289 1.419 . S
C1288 C1286 1.415 . S
C1288 C1293 1.425 . S
C1288 C1295 1.409 . S
C1289 H1281 0.930 . S
C1289 C1287 1.419 . S
C1289 C1290 1.362 . S
C1290 H1282 0.930 . S
C1290 C1289 1.362 . S
C1290 C1293 1.409 . S
C1291 H1283 0.930 . S
C1291 C1292 1.355 . S
C1291 C1293 1.415 . S
C1292 C1291 1.355 . S
C1292 C1294 1.419 . S
C1293 C1288 1.425 . S
C1293 C1290 1.409 . S
C1293 C1291 1.415 . S
C1294 H1284 0.930 . S
C1294 C1292 1.419 . S
C1294 C1295 1.362 . S
C1295 H1285 0.930 . S
C1295 C1288 1.409 . S
C1295 C1294 1.362 . S
H1296 C1302 0.930 . S
H1297 C1305 0.930 . S
H1298 C1306 0.930 . S
H1299 C1307 0.930 . S
H1300 C1310 0.930 . S
H1301 C1311 0.930 . S
C1302 H1296 0.930 . S
C1302 C1303 1.355 . S
C1302 C1304 1.415 . S
C1303 C1302 1.355 . S
C1303 C1305 1.419 . S
C1304 C1302 1.415 . S
C1304 C1309 1.425 . S
C1304 C1311 1.409 . S
C1305 H1297 0.930 . S
C1305 C1303 1.419 . S
C1305 C1306 1.362 . S
C1306 H1298 0.930 . S
C1306 C1305 1.362 . S
C1306 C1309 1.409 . S
C1307 H1299 0.930 . S
C1307 C1308 1.355 . S
C1307 C1309 1.415 . S
C1308 C1307 1.355 . S
C1308 C1310 1.419 . S
C1309 C1304 1.425 . S
C1309 C1306 1.409 . S
C1309 C1307 1.415 . S
C1310 H1300 0.930 . S
C1310 C1308 1.419 . S
C1310 C1311 1.362 . S
C1311 H1301 0.930 . S
C1311 C1304 1.409 . S
C1311 C1310 1.362 . S
H1312 C1318 0.930 . S
H1313 C1321 0.930 . S
H1314 C1322 0.930 . S
H1315 C1323 0.930 . S
H1316 C1326 0.930 . S
H1317 C1327 0.930 . S
C1318 H1312 0.930 . S
C1318 C1319 1.355 . S
C1318 C1320 1.415 . S
C1319 C1318 1.355 . S
C1319 C1321 1.419 . S
C1320 C1318 1.415 . S
C1320 C1325 1.425 . S
C1320 C1327 1.409 . S
C1321 H1313 0.930 . S
C1321 C1319 1.419 . S
C1321 C1322 1.362 . S
C1322 H1314 0.930 . S
C1322 C1321 1.362 . S
C1322 C1325 1.409 . S
C1323 H1315 0.930 . S
C1323 C1324 1.355 . S
C1323 C1325 1.415 . S
C1324 C1323 1.355 . S
C1324 C1326 1.419 . S
C1325 C1320 1.425 . S
C1325 C1322 1.409 . S
C1325 C1323 1.415 . S
C1326 H1316 0.930 . S
C1326 C1324 1.419 . S
C1326 C1327 1.362 . S
C1327 H1317 0.930 . S
C1327 C1320 1.409 . S
C1327 C1326 1.362 . S
H1328 C1334 0.930 . S
H1329 C1337 0.930 . S
H1330 C1338 0.930 . S
H1331 C1339 0.930 . S
H1332 C1342 0.930 . S
H1333 C1343 0.930 . S
C1334 H1328 0.930 . S
C1334 C1335 1.355 . S
C1334 C1336 1.415 . S
C1335 C1334 1.355 . S
C1335 C1337 1.419 . S
C1336 C1334 1.415 . S
C1336 C1341 1.425 . S
C1336 C1343 1.409 . S
C1337 H1329 0.930 . S
C1337 C1335 1.419 . S
C1337 C1338 1.362 . S
C1338 H1330 0.930 . S
C1338 C1337 1.362 . S
C1338 C1341 1.409 . S
C1339 H1331 0.930 . S
C1339 C1340 1.355 . S
C1339 C1341 1.415 . S
C1340 C1339 1.355 . S
C1340 C1342 1.419 . S
C1341 C1336 1.425 . S
C1341 C1338 1.409 . S
C1341 C1339 1.415 . S
C1342 H1332 0.930 . S
C1342 C1340 1.419 . S
C1342 C1343 1.362 . S
C1343 H1333 0.930 . S
C1343 C1336 1.409 . S
C1343 C1342 1.362 . S
H1344 C1350 0.930 . S
H1345 C1353 0.930 . S
H1346 C1354 0.930 . S
H1347 C1355 0.930 . S
H1348 C1358 0.930 . S
H1349 C1359 0.930 . S
C1350 H1344 0.930 . S
C1350 C1351 1.355 . S
C1350 C1352 1.415 . S
C1351 C1350 1.355 . S
C1351 C1353 1.419 . S
C1352 C1350 1.415 . S
C1352 C1357 1.425 . S
C1352 C1359 1.409 . S
C1353 H1345 0.930 . S
C1353 C1351 1.419 . S
C1353 C1354 1.362 . S
C1354 H1346 0.930 . S
C1354 C1353 1.362 . S
C1354 C1357 1.409 . S
C1355 H1347 0.930 . S
C1355 C1356 1.355 . S
C1355 C1357 1.415 . S
C1356 C1355 1.355 . S
C1356 C1358 1.419 . S
C1357 C1352 1.425 . S
C1357 C1354 1.409 . S
C1357 C1355 1.415 . S
C1358 H1348 0.930 . S
C1358 C1356 1.419 . S
C1358 C1359 1.362 . S
C1359 H1349 0.930 . S
C1359 C1352 1.409 . S
C1359 C1358 1.362 . S
H1360 C1366 0.930 . S
H1361 C1369 0.930 . S
H1362 C1370 0.930 . S
H1363 C1371 0.930 . S
H1364 C1374 0.930 . S
H1365 C1375 0.930 . S
C1366 H1360 0.930 . S
C1366 C1367 1.355 . S
C1366 C1368 1.415 . S
C1367 C1366 1.355 . S
C1367 C1369 1.419 . S
C1368 C1366 1.415 . S
C1368 C1373 1.425 . S
C1368 C1375 1.409 . S
C1369 H1361 0.930 . S
C1369 C1367 1.419 . S
C1369 C1370 1.362 . S
C1370 H1362 0.930 . S
C1370 C1369 1.362 . S
C1370 C1373 1.409 . S
C1371 H1363 0.930 . S
C1371 C1372 1.355 . S
C1371 C1373 1.415 . S
C1372 C1371 1.355 . S
C1372 C1374 1.419 . S
C1373 C1368 1.425 . S
C1373 C1370 1.409 . S
C1373 C1371 1.415 . S
C1374 H1364 0.930 . S
C1374 C1372 1.419 . S
C1374 C1375 1.362 . S
C1375 H1365 0.930 . S
C1375 C1368 1.409 . S
C1375 C1374 1.362 . S
H1376 C1382 0.930 . S
H1377 C1385 0.930 . S
H1378 C1386 0.930 . S
H1379 C1387 0.930 . S
H1380 C1390 0.930 . S
H1381 C1391 0.930 . S
C1382 H1376 0.930 . S
C1382 C1383 1.355 . S
C1382 C1384 1.415 . S
C1383 C1382 1.355 . S
C1383 C1385 1.419 . S
C1384 C1382 1.415 . S
C1384 C1389 1.425 . S
C1384 C1391 1.409 . S
C1385 H1377 0.930 . S
C1385 C1383 1.419 . S
C1385 C1386 1.362 . S
C1386 H1378 0.930 . S
C1386 C1385 1.362 . S
C1386 C1389 1.409 . S
C1387 H1379 0.930 . S
C1387 C1388 1.355 . S
C1387 C1389 1.415 . S
C1388 C1387 1.355 . S
C1388 C1390 1.419 . S
C1389 C1384 1.425 . S
C1389 C1386 1.409 . S
C1389 C1387 1.415 . S
C1390 H1380 0.930 . S
C1390 C1388 1.419 . S
C1390 C1391 1.362 . S
C1391 H1381 0.930 . S
C1391 C1384 1.409 . S
C1391 C1390 1.362 . S
H1392 C1398 0.930 . S
H1393 C1401 0.930 . S
H1394 C1402 0.930 . S
H1395 C1403 0.930 . S
H1396 C1406 0.930 . S
H1397 C1407 0.930 . S
C1398 H1392 0.930 . S
C1398 C1399 1.355 . S
C1398 C1400 1.415 . S
C1399 C1398 1.355 . S
C1399 C1401 1.419 . S
C1400 C1398 1.415 . S
C1400 C1405 1.425 . S
C1400 C1407 1.409 . S
C1401 H1393 0.930 . S
C1401 C1399 1.419 . S
C1401 C1402 1.362 . S
C1402 H1394 0.930 . S
C1402 C1401 1.362 . S
C1402 C1405 1.409 . S
C1403 H1395 0.930 . S
C1403 C1404 1.355 . S
C1403 C1405 1.415 . S
C1404 C1403 1.355 . S
C1404 C1406 1.419 . S
C1405 C1400 1.425 . S
C1405 C1402 1.409 . S
C1405 C1403 1.415 . S
C1406 H1396 0.930 . S
C1406 C1404 1.419 . S
C1406 C1407 1.362 . S
C1407 H1397 0.930 . S
C1407 C1400 1.409 . S
C1407 C1406 1.362 . S
H1408 C1414 0.930 . S
H1409 C1417 0.930 . S
H1410 C1418 0.930 . S
H1411 C1419 0.930 . S
H1412 C1422 0.930 . S
H1413 C1423 0.930 . S
C1414 H1408 0.930 . S
C1414 C1415 1.355 . S
C1414 C1416 1.415 1_565 S
C1415 C1414 1.355 . S
C1415 C1417 1.419 . S
C1416 C1414 1.415 1_545 S
C1416 C1421 1.425 . S
C1416 C1423 1.409 . S
C1417 H1409 0.930 . S
C1417 C1415 1.419 . S
C1417 C1418 1.362 1_565 S
C1418 H1410 0.930 . S
C1418 C1417 1.362 1_545 S
C1418 C1421 1.409 . S
C1419 H1411 0.930 . S
C1419 C1420 1.355 . S
C1419 C1421 1.415 . S
C1420 C1419 1.355 . S
C1420 C1422 1.419 . S
C1421 C1416 1.425 . S
C1421 C1418 1.409 . S
C1421 C1419 1.415 . S
C1422 H1412 0.930 . S
C1422 C1420 1.419 . S
C1422 C1423 1.362 . S
C1423 H1413 0.930 . S
C1423 C1416 1.409 . S
C1423 C1422 1.362 . S
H1424 C1430 0.930 . S
H1425 C1433 0.930 . S
H1426 C1434 0.930 . S
H1427 C1435 0.930 . S
H1428 C1438 0.930 . S
H1429 C1439 0.930 . S
C1430 H1424 0.930 . S
C1430 C1431 1.355 . S
C1430 C1432 1.415 . S
C1431 C1430 1.355 . S
C1431 C1433 1.419 1_655 S
C1432 C1430 1.415 . S
C1432 C1437 1.425 1_655 S
C1432 C1439 1.409 . S
C1433 H1425 0.930 . S
C1433 C1431 1.419 1_455 S
C1433 C1434 1.362 . S
C1434 H1426 0.930 . S
C1434 C1433 1.362 . S
C1434 C1437 1.409 . S
C1435 H1427 0.930 . S
C1435 C1436 1.355 . S
C1435 C1437 1.415 . S
C1436 C1435 1.355 . S
C1436 C1438 1.419 1_455 S
C1437 C1432 1.425 1_455 S
C1437 C1434 1.409 . S
C1437 C1435 1.415 . S
C1438 H1428 0.930 . S
C1438 C1436 1.419 1_655 S
C1438 C1439 1.362 . S
C1439 H1429 0.930 . S
C1439 C1432 1.409 . S
C1439 C1438 1.362 . S
H1440 C1446 0.930 . S
H1441 C1449 0.930 . S
H1442 C1450 0.930 . S
H1443 C1451 0.930 . S
H1444 C1454 0.930 . S
H1445 C1455 0.930 . S
C1446 H1440 0.930 . S
C1446 C1447 1.355 . S
C1446 C1448 1.415 . S
C1447 C1446 1.355 . S
C1447 C1449 1.419 . S
C1448 C1446 1.415 . S
C1448 C1453 1.425 1_556 S
C1448 C1455 1.409 . S
C1449 H1441 0.930 . S
C1449 C1447 1.419 . S
C1449 C1450 1.362 1_556 S
C1450 H1442 0.930 . S
C1450 C1449 1.362 1_554 S
C1450 C1453 1.409 . S
C1451 H1443 0.930 . S
C1451 C1452 1.355 . S
C1451 C1453 1.415 . S
C1452 C1451 1.355 . S
C1452 C1454 1.419 . S
C1453 C1448 1.425 1_554 S
C1453 C1450 1.409 . S
C1453 C1451 1.415 . S
C1454 H1444 0.930 . S
C1454 C1452 1.419 . S
C1454 C1455 1.362 1_554 S
C1455 H1445 0.930 . S
C1455 C1448 1.409 . S
C1455 C1454 1.362 1_556 S
H1456 C1462 0.930 . S
H1457 C1465 0.930 . S
H1458 C1466 0.930 . S
H1459 C1467 0.930 . S
H1460 C1470 0.930 . S
H1461 C1471 0.927 1_545 S
C1462 H1456 0.930 . S
C1462 C1463 1.355 1_655 S
C1462 C1464 1.415 . S
C1463 C1462 1.355 1_455 S
C1463 C1465 1.419 1_556 S
C1464 C1462 1.415 . S
C1464 C1469 1.425 1_656 S
C1464 C1471 1.404 1_545 S
C1465 H1457 0.930 . S
C1465 C1463 1.419 1_554 S
C1465 C1466 1.362 . S
C1466 H1458 0.930 . S
C1466 C1465 1.362 . S
C1466 C1469 1.409 . S
C1467 H1459 0.930 . S
C1467 C1468 1.355 1_455 S
C1467 C1469 1.415 1_565 S
C1468 C1467 1.355 1_655 S
C1468 C1470 1.419 1_554 S
C1469 C1464 1.425 1_454 S
C1469 C1466 1.409 . S
C1469 C1467 1.415 1_545 S
C1470 H1460 0.930 . S
C1470 C1468 1.419 1_556 S
C1470 C1471 1.371 . S
C1471 H1461 0.927 1_565 S
C1471 C1464 1.404 1_565 S
C1471 C1470 1.371 . S
H1472 C1478 0.930 . S
H1473 C1481 0.930 . S
H1474 C1482 0.930 . S
H1475 C1483 0.930 . S
H1476 C1486 0.930 . S
H1477 C1487 0.930 . S
C1478 H1472 0.930 . S
C1478 C1479 1.355 . S
C1478 C1480 1.415 . S
C1479 C1478 1.355 . S
C1479 C1481 1.419 . S
C1480 C1478 1.415 . S
C1480 C1485 1.425 . S
C1480 C1487 1.409 1_545 S
C1481 H1473 0.930 . S
C1481 C1479 1.419 . S
C1481 C1482 1.362 . S
C1482 H1474 0.930 . S
C1482 C1481 1.362 . S
C1482 C1485 1.409 . S
C1483 H1475 0.930 . S
C1483 C1484 1.355 . S
C1483 C1485 1.415 1_565 S
C1484 C1483 1.355 . S
C1484 C1486 1.419 . S
C1485 C1480 1.425 . S
C1485 C1482 1.409 . S
C1485 C1483 1.415 1_545 S
C1486 H1476 0.930 . S
C1486 C1484 1.419 . S
C1486 C1487 1.362 . S
C1487 H1477 0.930 . S
C1487 C1480 1.409 1_565 S
C1487 C1486 1.362 . S
H1488 C1494 0.930 . S
H1489 C1497 0.930 . S
H1490 C1498 0.930 . S
H1491 C1499 0.930 . S
H1492 C1502 0.930 . S
H1493 C1503 0.930 . S
C1494 H1488 0.930 . S
C1494 C1495 1.355 . S
C1494 C1496 1.415 . S
C1495 C1494 1.355 . S
C1495 C1497 1.419 1_455 S
C1496 C1494 1.415 . S
C1496 C1501 1.425 1_455 S
C1496 C1503 1.409 . S
C1497 H1489 0.930 . S
C1497 C1495 1.419 1_655 S
C1497 C1498 1.362 . S
C1498 H1490 0.930 . S
C1498 C1497 1.362 . S
C1498 C1501 1.409 . S
C1499 H1491 0.930 . S
C1499 C1500 1.355 . S
C1499 C1501 1.415 . S
C1500 C1499 1.355 . S
C1500 C1502 1.419 1_655 S
C1501 C1496 1.425 1_655 S
C1501 C1498 1.409 . S
C1501 C1499 1.415 . S
C1502 H1492 0.930 . S
C1502 C1500 1.419 1_455 S
C1502 C1503 1.362 . S
C1503 H1493 0.930 . S
C1503 C1496 1.409 . S
C1503 C1502 1.362 . S
H1504 C1510 0.930 . S
H1505 C1513 0.930 . S
H1506 C1514 0.930 . S
H1507 C1515 0.930 . S
H1508 C1518 0.930 . S
H1509 C1519 0.930 . S
C1510 H1504 0.930 . S
C1510 C1511 1.355 1_554 S
C1510 C1512 1.415 . S
C1511 C1510 1.355 1_556 S
C1511 C1513 1.419 . S
C1512 C1510 1.415 . S
C1512 C1517 1.425 1_554 S
C1512 C1519 1.409 . S
C1513 H1505 0.930 . S
C1513 C1511 1.419 . S
C1513 C1514 1.362 . S
C1514 H1506 0.930 . S
C1514 C1513 1.362 . S
C1514 C1517 1.409 . S
C1515 H1507 0.930 . S
C1515 C1516 1.355 1_556 S
C1515 C1517 1.415 . S
C1516 C1515 1.355 1_554 S
C1516 C1518 1.419 . S
C1517 C1512 1.425 1_556 S
C1517 C1514 1.409 . S
C1517 C1515 1.415 . S
C1518 H1508 0.930 . S
C1518 C1516 1.419 . S
C1518 C1519 1.362 . S
C1519 H1509 0.930 . S
C1519 C1512 1.409 . S
C1519 C1518 1.362 . S
H1520 C1526 0.930 . S
H1521 C1529 0.930 . S
H1522 C1530 0.930 . S
H1523 C1531 0.930 . S
H1524 C1534 0.930 . S
H1525 C1535 0.930 . S
C1526 H1520 0.930 . S
C1526 C1527 1.355 . S
C1526 C1528 1.415 . S
C1527 C1526 1.355 . S
C1527 C1529 1.419 . S
C1528 C1526 1.415 . S
C1528 C1533 1.425 . S
C1528 C1535 1.409 . S
C1529 H1521 0.930 . S
C1529 C1527 1.419 . S
C1529 C1530 1.362 . S
C1530 H1522 0.930 . S
C1530 C1529 1.362 . S
C1530 C1533 1.409 . S
C1531 H1523 0.930 . S
C1531 C1532 1.355 . S
C1531 C1533 1.415 . S
C1532 C1531 1.355 . S
C1532 C1534 1.419 . S
C1533 C1528 1.425 . S
C1533 C1530 1.409 . S
C1533 C1531 1.415 . S
C1534 H1524 0.930 . S
C1534 C1532 1.419 . S
C1534 C1535 1.362 . S
C1535 H1525 0.930 . S
C1535 C1528 1.409 . S
C1535 C1534 1.362 . S
H1536 C1542 0.930 . S
H1537 C1545 0.930 . S
H1538 C1546 0.930 . S
H1539 C1547 0.930 . S
H1540 C1550 0.930 . S
H1541 C1551 0.930 . S
C1542 H1536 0.930 . S
C1542 C1543 1.355 . S
C1542 C1544 1.415 . S
C1543 C1542 1.355 . S
C1543 C1545 1.419 . S
C1544 C1542 1.415 . S
C1544 C1549 1.425 . S
C1544 C1551 1.409 . S
C1545 H1537 0.930 . S
C1545 C1543 1.419 . S
C1545 C1546 1.362 . S
C1546 H1538 0.930 . S
C1546 C1545 1.362 . S
C1546 C1549 1.409 . S
C1547 H1539 0.930 . S
C1547 C1548 1.355 . S
C1547 C1549 1.415 . S
C1548 C1547 1.355 . S
C1548 C1550 1.419 . S
C1549 C1544 1.425 . S
C1549 C1546 1.409 . S
C1549 C1547 1.415 . S
C1550 H1540 0.930 . S
C1550 C1548 1.419 . S
C1550 C1551 1.362 . S
C1551 H1541 0.930 . S
C1551 C1544 1.409 . S
C1551 C1550 1.362 . S
H1552 C1558 0.930 . S
H1553 C1561 0.930 . S
H1554 C1562 0.930 . S
H1555 C1563 0.930 . S
H1556 C1566 0.930 . S
H1557 C1567 0.930 . S
C1558 H1552 0.930 . S
C1558 C1559 1.355 . S
C1558 C1560 1.415 . S
C1559 C1558 1.355 . S
C1559 C1561 1.419 1_655 S
C1560 C1558 1.415 . S
C1560 C1565 1.425 1_655 S
C1560 C1567 1.409 . S
C1561 H1553 0.930 . S
C1561 C1559 1.419 1_455 S
C1561 C1562 1.362 . S
C1562 H1554 0.930 . S
C1562 C1561 1.362 . S
C1562 C1565 1.409 . S
C1563 H1555 0.930 . S
C1563 C1564 1.355 . S
C1563 C1565 1.415 . S
C1564 C1563 1.355 . S
C1564 C1566 1.419 1_455 S
C1565 C1560 1.425 1_455 S
C1565 C1562 1.409 . S
C1565 C1563 1.415 . S
C1566 H1556 0.930 . S
C1566 C1564 1.419 1_655 S
C1566 C1567 1.362 . S
C1567 H1557 0.930 . S
C1567 C1560 1.409 . S
C1567 C1566 1.362 . S
H1568 C1574 0.930 . S
H1569 C1577 0.930 . S
H1570 C1578 0.930 . S
H1571 C1579 0.930 . S
H1572 C1582 0.930 . S
H1573 C1583 0.930 . S
C1574 H1568 0.930 . S
C1574 C1575 1.355 . S
C1574 C1576 1.415 . S
C1575 C1574 1.355 . S
C1575 C1577 1.419 . S
C1576 C1574 1.415 . S
C1576 C1581 1.425 . S
C1576 C1583 1.409 . S
C1577 H1569 0.930 . S
C1577 C1575 1.419 . S
C1577 C1578 1.362 . S
C1578 H1570 0.930 . S
C1578 C1577 1.362 . S
C1578 C1581 1.409 . S
C1579 H1571 0.930 . S
C1579 C1580 1.355 . S
C1579 C1581 1.415 . S
C1580 C1579 1.355 . S
C1580 C1582 1.419 . S
C1581 C1576 1.425 . S
C1581 C1578 1.409 . S
C1581 C1579 1.415 . S
C1582 H1572 0.930 . S
C1582 C1580 1.419 . S
C1582 C1583 1.362 . S
C1583 H1573 0.930 . S
C1583 C1576 1.409 . S
C1583 C1582 1.362 . S
H1584 C1590 0.930 . S
H1585 C1593 0.930 . S
H1586 C1594 0.930 . S
H1587 C1595 0.930 . S
H1588 C1598 0.930 . S
H1589 C1599 0.930 . S
C1590 H1584 0.930 . S
C1590 C1591 1.355 . S
C1590 C1592 1.415 . S
C1591 C1590 1.355 . S
C1591 C1593 1.419 . S
C1592 C1590 1.415 . S
C1592 C1597 1.425 . S
C1592 C1599 1.409 . S
C1593 H1585 0.930 . S
C1593 C1591 1.419 . S
C1593 C1594 1.362 . S
C1594 H1586 0.930 . S
C1594 C1593 1.362 . S
C1594 C1597 1.409 . S
C1595 H1587 0.930 . S
C1595 C1596 1.355 . S
C1595 C1597 1.415 . S
C1596 C1595 1.355 . S
C1596 C1598 1.419 . S
C1597 C1592 1.425 . S
C1597 C1594 1.409 . S
C1597 C1595 1.415 . S
C1598 H1588 0.930 . S
C1598 C1596 1.419 . S
C1598 C1599 1.362 . S
C1599 H1589 0.930 . S
C1599 C1592 1.409 . S
C1599 C1598 1.362 . S
H1600 C1606 0.930 . S
H1601 C1609 0.930 . S
H1602 C1610 0.930 . S
H1603 C1611 0.930 . S
H1604 C1614 0.930 . S
H1605 C1615 0.930 . S
C1606 H1600 0.930 . S
C1606 C1607 1.355 . S
C1606 C1608 1.415 . S
C1607 C1606 1.355 . S
C1607 C1609 1.419 . S
C1608 C1606 1.415 . S
C1608 C1613 1.425 . S
C1608 C1615 1.409 . S
C1609 H1601 0.930 . S
C1609 C1607 1.419 . S
C1609 C1610 1.362 . S
C1610 H1602 0.930 . S
C1610 C1609 1.362 . S
C1610 C1613 1.409 . S
C1611 H1603 0.930 . S
C1611 C1612 1.355 . S
C1611 C1613 1.415 . S
C1612 C1611 1.355 . S
C1612 C1614 1.419 . S
C1613 C1608 1.425 . S
C1613 C1610 1.409 . S
C1613 C1611 1.415 . S
C1614 H1604 0.930 . S
C1614 C1612 1.419 . S
C1614 C1615 1.362 . S
C1615 H1605 0.930 . S
C1615 C1608 1.409 . S
C1615 C1614 1.362 . S
H1616 C1622 0.930 . S
H1617 C1625 0.930 . S
H1618 C1626 0.930 . S
H1619 C1627 0.930 . S
H1620 C1630 0.930 . S
H1621 C1631 0.930 . S
C1622 H1616 0.930 . S
C1622 C1623 1.355 . S
C1622 C1624 1.415 . S
C1623 C1622 1.355 . S
C1623 C1625 1.419 . S
C1624 C1622 1.415 . S
C1624 C1629 1.425 . S
C1624 C1631 1.409 1_545 S
C1625 H1617 0.930 . S
C1625 C1623 1.419 . S
C1625 C1626 1.362 . S
C1626 H1618 0.930 . S
C1626 C1625 1.362 . S
C1626 C1629 1.409 . S
C1627 H1619 0.930 . S
C1627 C1628 1.355 . S
C1627 C1629 1.415 1_565 S
C1628 C1627 1.355 . S
C1628 C1630 1.419 . S
C1629 C1624 1.425 . S
C1629 C1626 1.409 . S
C1629 C1627 1.415 1_545 S
C1630 H1620 0.930 . S
C1630 C1628 1.419 . S
C1630 C1631 1.362 . S
C1631 H1621 0.930 . S
C1631 C1624 1.409 1_565 S
C1631 C1630 1.362 . S
H1632 C1638 0.930 . S
H1633 C1641 0.930 . S
H1634 C1642 0.930 . S
H1635 C1643 0.930 . S
H1636 C1646 0.930 . S
H1637 C1647 0.930 . S
C1638 H1632 0.930 . S
C1638 C1639 1.355 . S
C1638 C1640 1.415 . S
C1639 C1638 1.355 . S
C1639 C1641 1.419 . S
C1640 C1638 1.415 . S
C1640 C1645 1.425 . S
C1640 C1647 1.409 . S
C1641 H1633 0.930 . S
C1641 C1639 1.419 . S
C1641 C1642 1.362 . S
C1642 H1634 0.930 . S
C1642 C1641 1.362 . S
C1642 C1645 1.409 . S
C1643 H1635 0.930 . S
C1643 C1644 1.355 . S
C1643 C1645 1.415 . S
C1644 C1643 1.355 . S
C1644 C1646 1.419 . S
C1645 C1640 1.425 . S
C1645 C1642 1.409 . S
C1645 C1643 1.415 . S
C1646 H1636 0.930 . S
C1646 C1644 1.419 . S
C1646 C1647 1.362 . S
C1647 H1637 0.930 . S
C1647 C1640 1.409 . S
C1647 C1646 1.362 . S
H1648 C1654 0.930 . S
H1649 C1657 0.930 . S
H1650 C1658 0.930 . S
H1651 C1659 0.930 . S
H1652 C1662 0.930 . S
H1653 C1663 0.930 . S
C1654 H1648 0.930 . S
C1654 C1655 1.355 . S
C1654 C1656 1.415 1_554 S
C1655 C1654 1.355 . S
C1655 C1657 1.419 . S
C1656 C1654 1.415 1_556 S
C1656 C1661 1.425 1_556 S
C1656 C1663 1.409 . S
C1657 H1649 0.930 . S
C1657 C1655 1.419 . S
C1657 C1658 1.362 . S
C1658 H1650 0.930 . S
C1658 C1657 1.362 . S
C1658 C1661 1.409 . S
C1659 H1651 0.930 . S
C1659 C1660 1.355 . S
C1659 C1661 1.415 1_556 S
C1660 C1659 1.355 . S
C1660 C1662 1.419 . S
C1661 C1656 1.425 1_554 S
C1661 C1658 1.409 . S
C1661 C1659 1.415 1_554 S
C1662 H1652 0.930 . S
C1662 C1660 1.419 . S
C1662 C1663 1.362 . S
C1663 H1653 0.930 . S
C1663 C1656 1.409 . S
C1663 C1662 1.362 . S
H1664 C1670 0.930 . S
H1665 C1673 0.930 . S
H1666 C1674 0.930 . S
H1667 C1675 0.930 . S
H1668 C1678 0.930 . S
H1669 C1679 0.930 1_655 S
C1670 H1664 0.930 . S
C1670 C1671 1.355 . S
C1670 C1672 1.415 . S
C1671 C1670 1.355 . S
C1671 C1673 1.419 . S
C1672 C1670 1.415 . S
C1672 C1677 1.425 . S
C1672 C1679 1.409 . S
C1673 H1665 0.930 . S
C1673 C1671 1.419 . S
C1673 C1674 1.362 . S
C1674 H1666 0.930 . S
C1674 C1673 1.362 . S
C1674 C1677 1.409 . S
C1675 H1667 0.930 . S
C1675 C1676 1.355 . S
C1675 C1677 1.415 . S
C1676 C1675 1.355 . S
C1676 C1678 1.419 . S
C1677 C1672 1.425 . S
C1677 C1674 1.409 . S
C1677 C1675 1.415 . S
C1678 H1668 0.930 . S
C1678 C1676 1.419 . S
C1678 C1679 1.362 . S
C1679 H1669 0.930 1_455 S
C1679 C1672 1.409 . S
C1679 C1678 1.362 . S
H1680 C1686 0.930 . S
H1681 C1689 0.930 . S
H1682 C1690 0.930 1_655 S
H1683 C1691 0.930 . S
H1684 C1694 0.930 . S
H1685 C1695 0.930 . S
C1686 H1680 0.930 . S
C1686 C1687 1.355 . S
C1686 C1688 1.415 . S
C1687 C1686 1.355 . S
C1687 C1689 1.419 . S
C1688 C1686 1.415 . S
C1688 C1693 1.425 . S
C1688 C1695 1.409 . S
C1689 H1681 0.930 . S
C1689 C1687 1.419 . S
C1689 C1690 1.362 . S
C1690 H1682 0.930 1_455 S
C1690 C1689 1.362 . S
C1690 C1693 1.409 . S
C1691 H1683 0.930 . S
C1691 C1692 1.355 . S
C1691 C1693 1.415 . S
C1692 C1691 1.355 . S
C1692 C1694 1.419 . S
C1693 C1688 1.425 . S
C1693 C1690 1.409 . S
C1693 C1691 1.415 . S
C1694 H1684 0.930 . S
C1694 C1692 1.419 . S
C1694 C1695 1.362 . S
C1695 H1685 0.930 . S
C1695 C1688 1.409 . S
C1695 C1694 1.362 . S
H1696 C1702 0.930 . S
H1697 C1705 0.930 . S
H1698 C1706 0.930 1_455 S
H1699 C1707 0.930 . S
H1700 C1710 0.930 . S
H1701 C1711 0.930 . S
C1702 H1696 0.930 . S
C1702 C1703 1.355 . S
C1702 C1704 1.415 . S
C1703 C1702 1.355 . S
C1703 C1705 1.419 . S
C1704 C1702 1.415 . S
C1704 C1709 1.425 . S
C1704 C1711 1.409 . S
C1705 H1697 0.930 . S
C1705 C1703 1.419 . S
C1705 C1706 1.362 . S
C1706 H1698 0.930 1_655 S
C1706 C1705 1.362 . S
C1706 C1709 1.409 . S
C1707 H1699 0.930 . S
C1707 C1708 1.355 . S
C1707 C1709 1.415 . S
C1708 C1707 1.355 . S
C1708 C1710 1.419 . S
C1709 C1704 1.425 . S
C1709 C1706 1.409 . S
C1709 C1707 1.415 . S
C1710 H1700 0.930 . S
C1710 C1708 1.419 . S
C1710 C1711 1.362 . S
C1711 H1701 0.930 . S
C1711 C1704 1.409 . S
C1711 C1710 1.362 . S
H1712 C1718 0.930 . S
H1713 C1721 0.930 . S
H1714 C1722 0.930 . S
H1715 C1723 0.907 1_556 S
H1716 C1726 0.930 . S
H1717 C1727 0.930 . S
C1718 H1712 0.930 . S
C1718 C1719 1.355 . S
C1718 C1720 1.415 . S
C1719 C1718 1.355 . S
C1719 C1721 1.419 1_554 S
C1720 C1718 1.415 . S
C1720 C1725 1.425 . S
C1720 C1727 1.409 . S
C1721 H1713 0.930 . S
C1721 C1719 1.419 1_556 S
C1721 C1722 1.362 . S
C1722 H1714 0.930 . S
C1722 C1721 1.362 . S
C1722 C1725 1.409 1_556 S
C1723 H1715 0.907 1_554 S
C1723 C1724 1.373 . S
C1723 C1725 1.419 . S
C1724 C1723 1.373 . S
C1724 C1726 1.419 . S
C1725 C1720 1.425 . S
C1725 C1722 1.409 1_554 S
C1725 C1723 1.419 . S
C1726 H1716 0.930 . S
C1726 C1724 1.419 . S
C1726 C1727 1.362 . S
C1727 H1717 0.930 . S
C1727 C1720 1.409 . S
C1727 C1726 1.362 . S
H1728 C1734 0.930 . S
H1729 C1737 0.930 . S
H1730 C1738 0.930 . S
H1731 C1739 0.930 . S
H1732 C1742 0.930 1_655 S
H1733 C1743 0.930 1_655 S
C1734 H1728 0.930 . S
C1734 C1735 1.355 . S
C1734 C1736 1.415 . S
C1735 C1734 1.355 . S
C1735 C1737 1.419 . S
C1736 C1734 1.415 . S
C1736 C1741 1.425 . S
C1736 C1743 1.409 . S
C1737 H1729 0.930 . S
C1737 C1735 1.419 . S
C1737 C1738 1.362 . S
C1738 H1730 0.930 . S
C1738 C1737 1.362 . S
C1738 C1741 1.409 . S
C1739 H1731 0.930 . S
C1739 C1740 1.355 . S
C1739 C1741 1.415 . S
C1740 C1739 1.355 . S
C1740 C1742 1.419 . S
C1741 C1736 1.425 . S
C1741 C1738 1.409 . S
C1741 C1739 1.415 . S
C1742 H1732 0.930 1_455 S
C1742 C1740 1.419 . S
C1742 C1743 1.362 . S
C1743 H1733 0.930 1_455 S
C1743 C1736 1.409 . S
C1743 C1742 1.362 . S
H1744 C1750 0.930 . S
H1745 C1753 0.930 . S
H1746 C1754 0.930 1_655 S
H1747 C1755 0.930 . S
H1748 C1758 0.930 . S
H1749 C1759 0.930 . S
C1750 H1744 0.930 . S
C1750 C1751 1.355 . S
C1750 C1752 1.415 . S
C1751 C1750 1.355 . S
C1751 C1753 1.419 . S
C1752 C1750 1.415 . S
C1752 C1757 1.425 . S
C1752 C1759 1.409 . S
C1753 H1745 0.930 . S
C1753 C1751 1.419 . S
C1753 C1754 1.362 . S
C1754 H1746 0.930 1_455 S
C1754 C1753 1.362 . S
C1754 C1757 1.409 . S
C1755 H1747 0.930 . S
C1755 C1756 1.355 . S
C1755 C1757 1.415 . S
C1756 C1755 1.355 . S
C1756 C1758 1.419 . S
C1757 C1752 1.425 . S
C1757 C1754 1.409 . S
C1757 C1755 1.415 . S
C1758 H1748 0.930 . S
C1758 C1756 1.419 . S
C1758 C1759 1.362 . S
C1759 H1749 0.930 . S
C1759 C1752 1.409 . S
C1759 C1758 1.362 . S
H1760 C1766 0.930 . S
H1761 C1769 0.930 . S
H1762 C1770 0.930 . S
H1763 C1771 0.930 . S
H1764 C1774 0.930 . S
H1765 C1775 0.930 . S
C1766 H1760 0.930 . S
C1766 C1767 1.355 . S
C1766 C1768 1.415 . S
C1767 C1766 1.355 . S
C1767 C1769 1.419 . S
C1768 C1766 1.415 . S
C1768 C1773 1.425 . S
C1768 C1775 1.409 . S
C1769 H1761 0.930 . S
C1769 C1767 1.419 . S
C1769 C1770 1.362 . S
C1770 H1762 0.930 . S
C1770 C1769 1.362 . S
C1770 C1773 1.409 . S
C1771 H1763 0.930 . S
C1771 C1772 1.355 . S
C1771 C1773 1.415 . S
C1772 C1771 1.355 . S
C1772 C1774 1.419 . S
C1773 C1768 1.425 . S
C1773 C1770 1.409 . S
C1773 C1771 1.415 . S
C1774 H1764 0.930 . S
C1774 C1772 1.419 . S
C1774 C1775 1.362 . S
C1775 H1765 0.930 . S
C1775 C1768 1.409 . S
C1775 C1774 1.362 . S
H1776 C1782 0.930 . S
H1777 C1785 0.930 . S
H1778 C1786 0.930 . S
H1779 C1787 0.930 . S
H1780 C1790 0.930 1_455 S
H1781 C1791 0.930 1_455 S
C1782 H1776 0.930 . S
C1782 C1783 1.355 . S
C1782 C1784 1.415 . S
C1783 C1782 1.355 . S
C1783 C1785 1.419 . S
C1784 C1782 1.415 . S
C1784 C1789 1.425 . S
C1784 C1791 1.409 . S
C1785 H1777 0.930 . S
C1785 C1783 1.419 . S
C1785 C1786 1.362 . S
C1786 H1778 0.930 . S
C1786 C1785 1.362 . S
C1786 C1789 1.409 . S
C1787 H1779 0.930 . S
C1787 C1788 1.355 . S
C1787 C1789 1.415 . S
C1788 C1787 1.355 . S
C1788 C1790 1.419 . S
C1789 C1784 1.425 . S
C1789 C1786 1.409 . S
C1789 C1787 1.415 . S
C1790 H1780 0.930 1_655 S
C1790 C1788 1.419 . S
C1790 C1791 1.362 . S
C1791 H1781 0.930 1_655 S
C1791 C1784 1.409 . S
C1791 C1790 1.362 . S
H1792 C1798 0.930 . S
H1793 C1801 0.930 . S
H1794 C1802 0.930 . S
H1795 C1803 0.930 . S
H1796 C1806 0.930 . S
H1797 C1807 0.930 . S
C1798 H1792 0.930 . S
C1798 C1799 1.355 . S
C1798 C1800 1.415 . S
C1799 C1798 1.355 . S
C1799 C1801 1.419 . S
C1800 C1798 1.415 . S
C1800 C1805 1.425 . S
C1800 C1807 1.409 . S
C1801 H1793 0.930 . S
C1801 C1799 1.419 . S
C1801 C1802 1.362 . S
C1802 H1794 0.930 . S
C1802 C1801 1.362 . S
C1802 C1805 1.409 . S
C1803 H1795 0.930 . S
C1803 C1804 1.355 . S
C1803 C1805 1.415 . S
C1804 C1803 1.355 . S
C1804 C1806 1.419 . S
C1805 C1800 1.425 . S
C1805 C1802 1.409 . S
C1805 C1803 1.415 . S
C1806 H1796 0.930 . S
C1806 C1804 1.419 . S
C1806 C1807 1.362 . S
C1807 H1797 0.930 . S
C1807 C1800 1.409 . S
C1807 C1806 1.362 . S
H1808 C1814 0.930 . S
H1809 C1817 0.930 . S
H1810 C1818 0.930 . S
H1811 C1819 0.930 . S
H1812 C1822 0.930 . S
H1813 C1823 0.930 . S
C1814 H1808 0.930 . S
C1814 C1815 1.355 . S
C1814 C1816 1.415 . S
C1815 C1814 1.355 . S
C1815 C1817 1.419 . S
C1816 C1814 1.415 . S
C1816 C1821 1.425 . S
C1816 C1823 1.409 . S
C1817 H1809 0.930 . S
C1817 C1815 1.419 . S
C1817 C1818 1.362 . S
C1818 H1810 0.930 . S
C1818 C1817 1.362 . S
C1818 C1821 1.409 . S
C1819 H1811 0.930 . S
C1819 C1820 1.355 . S
C1819 C1821 1.415 . S
C1820 C1819 1.355 . S
C1820 C1822 1.419 . S
C1821 C1816 1.425 . S
C1821 C1818 1.409 . S
C1821 C1819 1.415 . S
C1822 H1812 0.930 . S
C1822 C1820 1.419 . S
C1822 C1823 1.362 . S
C1823 H1813 0.930 . S
C1823 C1816 1.409 . S
C1823 C1822 1.362 . S
H1824 C1830 0.930 . S
H1825 C1833 0.930 . S
H1826 C1834 0.930 . S
H1827 C1835 0.930 . S
H1828 C1838 0.930 . S
H1829 C1839 0.930 . S
C1830 H1824 0.930 . S
C1830 C1831 1.355 . S
C1830 C1832 1.415 . S
C1831 C1830 1.355 . S
C1831 C1833 1.419 . S
C1832 C1830 1.415 . S
C1832 C1837 1.425 . S
C1832 C1839 1.409 . S
C1833 H1825 0.930 . S
C1833 C1831 1.419 . S
C1833 C1834 1.362 . S
C1834 H1826 0.930 . S
C1834 C1833 1.362 . S
C1834 C1837 1.409 . S
C1835 H1827 0.930 . S
C1835 C1836 1.355 . S
C1835 C1837 1.415 . S
C1836 C1835 1.355 . S
C1836 C1838 1.419 . S
C1837 C1832 1.425 . S
C1837 C1834 1.409 . S
C1837 C1835 1.415 . S
C1838 H1828 0.930 . S
C1838 C1836 1.419 . S
C1838 C1839 1.362 . S
C1839 H1829 0.930 . S
C1839 C1832 1.409 . S
C1839 C1838 1.362 . S
H1840 C1846 0.930 . S
H1841 C1849 0.930 . S
H1842 C1850 0.930 . S
H1843 C1851 0.930 . S
H1844 C1854 0.930 . S
H1845 C1855 0.930 . S
C1846 H1840 0.930 . S
C1846 C1847 1.355 . S
C1846 C1848 1.415 . S
C1847 C1846 1.355 . S
C1847 C1849 1.419 . S
C1848 C1846 1.415 . S
C1848 C1853 1.425 . S
C1848 C1855 1.409 . S
C1849 H1841 0.930 . S
C1849 C1847 1.419 . S
C1849 C1850 1.362 . S
C1850 H1842 0.930 . S
C1850 C1849 1.362 . S
C1850 C1853 1.409 . S
C1851 H1843 0.930 . S
C1851 C1852 1.355 . S
C1851 C1853 1.415 . S
C1852 C1851 1.355 . S
C1852 C1854 1.419 . S
C1853 C1848 1.425 . S
C1853 C1850 1.409 . S
C1853 C1851 1.415 . S
C1854 H1844 0.930 . S
C1854 C1852 1.419 . S
C1854 C1855 1.362 . S
C1855 H1845 0.930 . S
C1855 C1848 1.409 . S
C1855 C1854 1.362 . S
H1856 C1862 0.930 . S
H1857 C1865 0.930 . S
H1858 C1866 0.930 . S
H1859 C1867 0.930 . S
H1860 C1870 0.930 . S
H1861 C1871 0.930 . S
C1862 H1856 0.930 . S
C1862 C1863 1.355 . S
C1862 C1864 1.415 . S
C1863 C1862 1.355 . S
C1863 C1865 1.419 . S
C1864 C1862 1.415 . S
C1864 C1869 1.425 . S
C1864 C1871 1.409 . S
C1865 H1857 0.930 . S
C1865 C1863 1.419 . S
C1865 C1866 1.362 . S
C1866 H1858 0.930 . S
C1866 C1865 1.362 . S
C1866 C1869 1.409 . S
C1867 H1859 0.930 . S
C1867 C1868 1.355 . S
C1867 C1869 1.415 . S
C1868 C1867 1.355 . S
C1868 C1870 1.419 . S
C1869 C1864 1.425 . S
C1869 C1866 1.409 . S
C1869 C1867 1.415 . S
C1870 H1860 0.930 . S
C1870 C1868 1.419 . S
C1870 C1871 1.362 . S
C1871 H1861 0.930 . S
C1871 C1864 1.409 . S
C1871 C1870 1.362 . S
H1872 C1878 0.930 . S
H1873 C1881 0.930 . S
H1874 C1882 0.930 . S
H1875 C1883 0.930 1_554 S
H1876 C1886 0.930 . S
H1877 C1887 0.930 . S
C1878 H1872 0.930 . S
C1878 C1879 1.355 . S
C1878 C1880 1.415 . S
C1879 C1878 1.355 . S
C1879 C1881 1.419 1_556 S
C1880 C1878 1.415 . S
C1880 C1885 1.425 . S
C1880 C1887 1.409 . S
C1881 H1873 0.930 . S
C1881 C1879 1.419 1_554 S
C1881 C1882 1.362 . S
C1882 H1874 0.930 . S
C1882 C1881 1.362 . S
C1882 C1885 1.409 1_554 S
C1883 H1875 0.930 1_556 S
C1883 C1884 1.355 . S
C1883 C1885 1.415 . S
C1884 C1883 1.355 . S
C1884 C1886 1.419 . S
C1885 C1880 1.425 . S
C1885 C1882 1.409 1_556 S
C1885 C1883 1.415 . S
C1886 H1876 0.930 . S
C1886 C1884 1.419 . S
C1886 C1887 1.362 . S
C1887 H1877 0.930 . S
C1887 C1880 1.409 . S
C1887 C1886 1.362 . S
H1888 C1894 0.930 . S
H1889 C1897 0.930 . S
H1890 C1898 0.930 . S
H1891 C1899 0.930 . S
H1892 C1902 0.930 . S
H1893 C1903 0.930 . S
C1894 H1888 0.930 . S
C1894 C1895 1.355 . S
C1894 C1896 1.415 . S
C1895 C1894 1.355 . S
C1895 C1897 1.419 . S
C1896 C1894 1.415 . S
C1896 C1901 1.425 . S
C1896 C1903 1.409 . S
C1897 H1889 0.930 . S
C1897 C1895 1.419 . S
C1897 C1898 1.362 . S
C1898 H1890 0.930 . S
C1898 C1897 1.362 . S
C1898 C1901 1.409 . S
C1899 H1891 0.930 . S
C1899 C1900 1.355 . S
C1899 C1901 1.415 . S
C1900 C1899 1.355 . S
C1900 C1902 1.419 . S
C1901 C1896 1.425 . S
C1901 C1898 1.409 . S
C1901 C1899 1.415 . S
C1902 H1892 0.930 . S
C1902 C1900 1.419 . S
C1902 C1903 1.362 . S
C1903 H1893 0.930 . S
C1903 C1896 1.409 . S
C1903 C1902 1.362 . S
H1904 C1910 0.930 . S
H1905 C1913 0.930 . S
H1906 C1914 0.930 . S
H1907 C1915 0.930 . S
H1908 C1918 0.930 . S
H1909 C1919 0.930 . S
C1910 H1904 0.930 . S
C1910 C1911 1.355 . S
C1910 C1912 1.415 . S
C1911 C1910 1.355 . S
C1911 C1913 1.419 . S
C1912 C1910 1.415 . S
C1912 C1917 1.425 . S
C1912 C1919 1.409 . S
C1913 H1905 0.930 . S
C1913 C1911 1.419 . S
C1913 C1914 1.362 . S
C1914 H1906 0.930 . S
C1914 C1913 1.362 . S
C1914 C1917 1.409 . S
C1915 H1907 0.930 . S
C1915 C1916 1.355 . S
C1915 C1917 1.415 . S
C1916 C1915 1.355 . S
C1916 C1918 1.419 . S
C1917 C1912 1.425 . S
C1917 C1914 1.409 . S
C1917 C1915 1.415 . S
C1918 H1908 0.930 . S
C1918 C1916 1.419 . S
C1918 C1919 1.362 . S
C1919 H1909 0.930 . S
C1919 C1912 1.409 . S
C1919 C1918 1.362 . S
H1920 C1926 0.930 . S
H1921 C1929 0.930 1_455 S
H1922 C1930 0.930 1_455 S
H1923 C1931 0.930 . S
H1924 C1934 0.930 . S
H1925 C1935 0.930 . S
C1926 H1920 0.930 . S
C1926 C1927 1.355 . S
C1926 C1928 1.415 . S
C1927 C1926 1.355 . S
C1927 C1929 1.419 . S
C1928 C1926 1.415 . S
C1928 C1933 1.425 . S
C1928 C1935 1.409 . S
C1929 H1921 0.930 1_655 S
C1929 C1927 1.419 . S
C1929 C1930 1.362 . S
C1930 H1922 0.930 1_655 S
C1930 C1929 1.362 . S
C1930 C1933 1.409 . S
C1931 H1923 0.930 . S
C1931 C1932 1.355 . S
C1931 C1933 1.415 . S
C1932 C1931 1.355 . S
C1932 C1934 1.419 . S
C1933 C1928 1.425 . S
C1933 C1930 1.409 . S
C1933 C1931 1.415 . S
C1934 H1924 0.930 . S
C1934 C1932 1.419 . S
C1934 C1935 1.362 . S
C1935 H1925 0.930 . S
C1935 C1928 1.409 . S
C1935 C1934 1.362 . S
H1936 C1942 0.930 . S
H1937 C1945 0.930 . S
H1938 C1946 0.930 . S
H1939 C1947 0.930 . S
H1940 C1950 0.930 . S
H1941 C1951 0.930 . S
C1942 H1936 0.930 . S
C1942 C1943 1.355 . S
C1942 C1944 1.415 . S
C1943 C1942 1.355 . S
C1943 C1945 1.419 . S
C1944 C1942 1.415 . S
C1944 C1949 1.425 . S
C1944 C1951 1.409 . S
C1945 H1937 0.930 . S
C1945 C1943 1.419 . S
C1945 C1946 1.362 . S
C1946 H1938 0.930 . S
C1946 C1945 1.362 . S
C1946 C1949 1.409 . S
C1947 H1939 0.930 . S
C1947 C1948 1.355 . S
C1947 C1949 1.415 . S
C1948 C1947 1.355 . S
C1948 C1950 1.419 . S
C1949 C1944 1.425 . S
C1949 C1946 1.409 . S
C1949 C1947 1.415 . S
C1950 H1940 0.930 . S
C1950 C1948 1.419 . S
C1950 C1951 1.362 . S
C1951 H1941 0.930 . S
C1951 C1944 1.409 . S
C1951 C1950 1.362 . S
H1952 C1958 0.930 . S
H1953 C1961 0.930 . S
H1954 C1962 0.930 . S
H1955 C1963 0.930 1_455 S
H1956 C1966 0.930 . S
H1957 C1967 0.930 . S
C1958 H1952 0.930 . S
C1958 C1959 1.355 . S
C1958 C1960 1.415 . S
C1959 C1958 1.355 . S
C1959 C1961 1.419 . S
C1960 C1958 1.415 . S
C1960 C1965 1.425 . S
C1960 C1967 1.409 . S
C1961 H1953 0.930 . S
C1961 C1959 1.419 . S
C1961 C1962 1.362 . S
C1962 H1954 0.930 . S
C1962 C1961 1.362 . S
C1962 C1965 1.409 . S
C1963 H1955 0.930 1_655 S
C1963 C1964 1.355 . S
C1963 C1965 1.415 . S
C1964 C1963 1.355 . S
C1964 C1966 1.419 . S
C1965 C1960 1.425 . S
C1965 C1962 1.409 . S
C1965 C1963 1.415 . S
C1966 H1956 0.930 . S
C1966 C1964 1.419 . S
C1966 C1967 1.362 . S
C1967 H1957 0.930 . S
C1967 C1960 1.409 . S
C1967 C1966 1.362 . S
H1968 C1974 0.930 . S
H1969 C1977 0.930 . S
H1970 C1978 0.930 . S
H1971 C1979 0.930 . S
H1972 C1982 0.930 . S
H1973 C1983 0.930 . S
C1974 H1968 0.930 . S
C1974 C1975 1.355 . S
C1974 C1976 1.415 . S
C1975 C1974 1.355 . S
C1975 C1977 1.419 . S
C1976 C1974 1.415 . S
C1976 C1981 1.425 . S
C1976 C1983 1.409 . S
C1977 H1969 0.930 . S
C1977 C1975 1.419 . S
C1977 C1978 1.362 . S
C1978 H1970 0.930 . S
C1978 C1977 1.362 . S
C1978 C1981 1.409 . S
C1979 H1971 0.930 . S
C1979 C1980 1.355 . S
C1979 C1981 1.415 . S
C1980 C1979 1.355 . S
C1980 C1982 1.419 . S
C1981 C1976 1.425 . S
C1981 C1978 1.409 . S
C1981 C1979 1.415 . S
C1982 H1972 0.930 . S
C1982 C1980 1.419 . S
C1982 C1983 1.362 . S
C1983 H1973 0.930 . S
C1983 C1976 1.409 . S
C1983 C1982 1.362 . S
H1984 C1990 0.930 . S
H1985 C1993 0.930 . S
H1986 C1994 0.930 . S
H1987 C1995 0.930 . S
H1988 C1998 0.930 . S
H1989 C1999 0.930 . S
C1990 H1984 0.930 . S
C1990 C1991 1.355 . S
C1990 C1992 1.415 . S
C1991 C1990 1.355 . S
C1991 C1993 1.419 . S
C1992 C1990 1.415 . S
C1992 C1997 1.425 . S
C1992 C1999 1.409 . S
C1993 H1985 0.930 . S
C1993 C1991 1.419 . S
C1993 C1994 1.362 . S
C1994 H1986 0.930 . S
C1994 C1993 1.362 . S
C1994 C1997 1.409 . S
C1995 H1987 0.930 . S
C1995 C1996 1.355 . S
C1995 C1997 1.415 . S
C1996 C1995 1.355 . S
C1996 C1998 1.419 . S
C1997 C1992 1.425 . S
C1997 C1994 1.409 . S
C1997 C1995 1.415 . S
C1998 H1988 0.930 . S
C1998 C1996 1.419 . S
C1998 C1999 1.362 . S
C1999 H1989 0.930 . S
C1999 C1992 1.409 . S
C1999 C1998 1.362 . S
H2000 C2006 0.930 . S
H2001 C2009 0.930 . S
H2002 C2010 0.930 . S
H2003 C2011 0.930 . S
H2004 C2014 0.930 . S
H2005 C2015 0.930 . S
C2006 H2000 0.930 . S
C2006 C2007 1.355 . S
C2006 C2008 1.415 . S
C2007 C2006 1.355 . S
C2007 C2009 1.419 . S
C2008 C2006 1.415 . S
C2008 C2013 1.425 . S
C2008 C2015 1.409 . S
C2009 H2001 0.930 . S
C2009 C2007 1.419 . S
C2009 C2010 1.362 . S
C2010 H2002 0.930 . S
C2010 C2009 1.362 . S
C2010 C2013 1.409 . S
C2011 H2003 0.930 . S
C2011 C2012 1.355 . S
C2011 C2013 1.415 . S
C2012 C2011 1.355 . S
C2012 C2014 1.419 . S
C2013 C2008 1.425 . S
C2013 C2010 1.409 . S
C2013 C2011 1.415 . S
C2014 H2004 0.930 . S
C2014 C2012 1.419 . S
C2014 C2015 1.362 . S
C2015 H2005 0.930 . S
C2015 C2008 1.409 . S
C2015 C2014 1.362 . S
H2016 C2022 0.930 . S
H2017 C2025 0.930 . S
H2018 C2026 0.930 . S
H2019 C2027 0.930 1_655 S
H2020 C2030 0.930 . S
H2021 C2031 0.930 . S
C2022 H2016 0.930 . S
C2022 C2023 1.355 . S
C2022 C2024 1.415 . S
C2023 C2022 1.355 . S
C2023 C2025 1.419 . S
C2024 C2022 1.415 . S
C2024 C2029 1.425 . S
C2024 C2031 1.409 . S
C2025 H2017 0.930 . S
C2025 C2023 1.419 . S
C2025 C2026 1.362 . S
C2026 H2018 0.930 . S
C2026 C2025 1.362 . S
C2026 C2029 1.409 . S
C2027 H2019 0.930 1_455 S
C2027 C2028 1.355 . S
C2027 C2029 1.415 . S
C2028 C2027 1.355 . S
C2028 C2030 1.419 . S
C2029 C2024 1.425 . S
C2029 C2026 1.409 . S
C2029 C2027 1.415 . S
C2030 H2020 0.930 . S
C2030 C2028 1.419 . S
C2030 C2031 1.362 . S
C2031 H2021 0.930 . S
C2031 C2024 1.409 . S
C2031 C2030 1.362 . S
H2032 C2038 0.930 . S
H2033 C2041 0.930 . S
H2034 C2042 0.930 . S
H2035 C2043 0.930 . S
H2036 C2046 0.930 . S
H2037 C2047 0.930 . S
C2038 H2032 0.930 . S
C2038 C2039 1.355 . S
C2038 C2040 1.415 . S
C2039 C2038 1.355 . S
C2039 C2041 1.419 . S
C2040 C2038 1.415 . S
C2040 C2045 1.425 . S
C2040 C2047 1.409 . S
C2041 H2033 0.930 . S
C2041 C2039 1.419 . S
C2041 C2042 1.362 . S
C2042 H2034 0.930 . S
C2042 C2041 1.362 . S
C2042 C2045 1.409 . S
C2043 H2035 0.930 . S
C2043 C2044 1.355 . S
C2043 C2045 1.415 . S
C2044 C2043 1.355 . S
C2044 C2046 1.419 . S
C2045 C2040 1.425 . S
C2045 C2042 1.409 . S
C2045 C2043 1.415 . S
C2046 H2036 0.930 . S
C2046 C2044 1.419 . S
C2046 C2047 1.362 . S
C2047 H2037 0.930 . S
C2047 C2040 1.409 . S
C2047 C2046 1.362 . S
H2048 C2054 0.930 . S
H2049 C2057 0.930 . S
H2050 C2058 0.930 . S
H2051 C2059 0.930 . S
H2052 C2062 0.930 . S
H2053 C2063 0.930 . S
C2054 H2048 0.930 . S
C2054 C2055 1.355 . S
C2054 C2056 1.415 . S
C2055 C2054 1.355 . S
C2055 C2057 1.419 . S
C2056 C2054 1.415 . S
C2056 C2061 1.425 . S
C2056 C2063 1.409 . S
C2057 H2049 0.930 . S
C2057 C2055 1.419 . S
C2057 C2058 1.362 . S
C2058 H2050 0.930 . S
C2058 C2057 1.362 . S
C2058 C2061 1.409 . S
C2059 H2051 0.930 . S
C2059 C2060 1.355 . S
C2059 C2061 1.415 . S
C2060 C2059 1.355 . S
C2060 C2062 1.419 . S
C2061 C2056 1.425 . S
C2061 C2058 1.409 . S
C2061 C2059 1.415 . S
C2062 H2052 0.930 . S
C2062 C2060 1.419 . S
C2062 C2063 1.362 . S
C2063 H2053 0.930 . S
C2063 C2056 1.409 . S
C2063 C2062 1.362 . S
H2064 C2070 0.930 . S
H2065 C2073 0.930 . S
H2066 C2074 0.930 . S
H2067 C2075 0.930 . S
H2068 C2078 0.930 . S
H2069 C2079 0.930 . S
C2070 H2064 0.930 . S
C2070 C2071 1.355 . S
C2070 C2072 1.415 . S
C2071 C2070 1.355 . S
C2071 C2073 1.419 . S
C2072 C2070 1.415 . S
C2072 C2077 1.425 . S
C2072 C2079 1.409 . S
C2073 H2065 0.930 . S
C2073 C2071 1.419 . S
C2073 C2074 1.362 . S
C2074 H2066 0.930 . S
C2074 C2073 1.362 . S
C2074 C2077 1.409 . S
C2075 H2067 0.930 . S
C2075 C2076 1.355 . S
C2075 C2077 1.415 . S
C2076 C2075 1.355 . S
C2076 C2078 1.419 . S
C2077 C2072 1.425 . S
C2077 C2074 1.409 . S
C2077 C2075 1.415 . S
C2078 H2068 0.930 . S
C2078 C2076 1.419 . S
C2078 C2079 1.362 . S
C2079 H2069 0.930 . S
C2079 C2072 1.409 . S
C2079 C2078 1.362 . S
H2080 C2086 0.930 . S
H2081 C2089 0.930 . S
H2082 C2090 0.930 . S
H2083 C2091 0.930 . S
H2084 C2094 0.930 . S
H2085 C2095 0.930 . S
C2086 H2080 0.930 . S
C2086 C2087 1.355 . S
C2086 C2088 1.415 . S
C2087 C2086 1.355 . S
C2087 C2089 1.419 . S
C2088 C2086 1.415 . S
C2088 C2093 1.425 . S
C2088 C2095 1.409 . S
C2089 H2081 0.930 . S
C2089 C2087 1.419 . S
C2089 C2090 1.362 . S
C2090 H2082 0.930 . S
C2090 C2089 1.362 . S
C2090 C2093 1.409 . S
C2091 H2083 0.930 . S
C2091 C2092 1.355 . S
C2091 C2093 1.415 . S
C2092 C2091 1.355 . S
C2092 C2094 1.419 . S
C2093 C2088 1.425 . S
C2093 C2090 1.409 . S
C2093 C2091 1.415 . S
C2094 H2084 0.930 . S
C2094 C2092 1.419 . S
C2094 C2095 1.362 . S
C2095 H2085 0.930 . S
C2095 C2088 1.409 . S
C2095 C2094 1.362 . S
H2096 C2102 0.930 . S
H2097 C2105 0.930 . S
H2098 C2106 0.930 . S
H2099 C2107 0.930 . S
H2100 C2110 0.930 . S
H2101 C2111 0.930 . S
C2102 H2096 0.930 . S
C2102 C2103 1.355 . S
C2102 C2104 1.415 . S
C2103 C2102 1.355 . S
C2103 C2105 1.419 . S
C2104 C2102 1.415 . S
C2104 C2109 1.425 . S
C2104 C2111 1.409 . S
C2105 H2097 0.930 . S
C2105 C2103 1.419 . S
C2105 C2106 1.362 . S
C2106 H2098 0.930 . S
C2106 C2105 1.362 . S
C2106 C2109 1.409 . S
C2107 H2099 0.930 . S
C2107 C2108 1.355 . S
C2107 C2109 1.415 . S
C2108 C2107 1.355 . S
C2108 C2110 1.419 . S
C2109 C2104 1.425 . S
C2109 C2106 1.409 . S
C2109 C2107 1.415 . S
C2110 H2100 0.930 . S
C2110 C2108 1.419 . S
C2110 C2111 1.362 . S
C2111 H2101 0.930 . S
C2111 C2104 1.409 . S
C2111 C2110 1.362 . S
H2112 C2118 0.930 1_655 S
H2113 C2121 0.930 . S
H2114 C2122 0.930 . S
H2115 C2123 0.930 . S
H2116 C2126 0.930 . S
H2117 C2127 0.930 . S
C2118 H2112 0.930 1_455 S
C2118 C2119 1.355 . S
C2118 C2120 1.415 . S
C2119 C2118 1.355 . S
C2119 C2121 1.419 . S
C2120 C2118 1.415 . S
C2120 C2125 1.425 . S
C2120 C2127 1.409 . S
C2121 H2113 0.930 . S
C2121 C2119 1.419 . S
C2121 C2122 1.362 . S
C2122 H2114 0.930 . S
C2122 C2121 1.362 . S
C2122 C2125 1.409 . S
C2123 H2115 0.930 . S
C2123 C2124 1.355 . S
C2123 C2125 1.415 . S
C2124 C2123 1.355 . S
C2124 C2126 1.419 . S
C2125 C2120 1.425 . S
C2125 C2122 1.409 . S
C2125 C2123 1.415 . S
C2126 H2116 0.930 . S
C2126 C2124 1.419 . S
C2126 C2127 1.362 . S
C2127 H2117 0.930 . S
C2127 C2120 1.409 . S
C2127 C2126 1.362 . S
H2128 C2134 0.930 . S
H2129 C2137 0.930 . S
H2130 C2138 0.930 . S
H2131 C2139 0.930 . S
H2132 C2142 0.930 . S
H2133 C2143 0.930 . S
C2134 H2128 0.930 . S
C2134 C2135 1.355 . S
C2134 C2136 1.415 . S
C2135 C2134 1.355 . S
C2135 C2137 1.419 . S
C2136 C2134 1.415 . S
C2136 C2141 1.425 . S
C2136 C2143 1.409 . S
C2137 H2129 0.930 . S
C2137 C2135 1.419 . S
C2137 C2138 1.362 . S
C2138 H2130 0.930 . S
C2138 C2137 1.362 . S
C2138 C2141 1.409 . S
C2139 H2131 0.930 . S
C2139 C2140 1.355 . S
C2139 C2141 1.415 . S
C2140 C2139 1.355 . S
C2140 C2142 1.419 . S
C2141 C2136 1.425 . S
C2141 C2138 1.409 . S
C2141 C2139 1.415 . S
C2142 H2132 0.930 . S
C2142 C2140 1.419 . S
C2142 C2143 1.362 . S
C2143 H2133 0.930 . S
C2143 C2136 1.409 . S
C2143 C2142 1.362 . S
H2144 C2150 0.930 1_655 S
H2145 C2153 0.930 . S
H2146 C2154 0.930 . S
H2147 C2155 0.930 . S
H2148 C2158 0.930 . S
H2149 C2159 0.930 . S
C2150 H2144 0.930 1_455 S
C2150 C2151 1.355 . S
C2150 C2152 1.415 . S
C2151 C2150 1.355 . S
C2151 C2153 1.419 . S
C2152 C2150 1.415 . S
C2152 C2157 1.425 . S
C2152 C2159 1.409 . S
C2153 H2145 0.930 . S
C2153 C2151 1.419 . S
C2153 C2154 1.362 . S
C2154 H2146 0.930 . S
C2154 C2153 1.362 . S
C2154 C2157 1.409 . S
C2155 H2147 0.930 . S
C2155 C2156 1.355 . S
C2155 C2157 1.415 . S
C2156 C2155 1.355 . S
C2156 C2158 1.419 . S
C2157 C2152 1.425 . S
C2157 C2154 1.409 . S
C2157 C2155 1.415 . S
C2158 H2148 0.930 . S
C2158 C2156 1.419 . S
C2158 C2159 1.362 . S
C2159 H2149 0.930 . S
C2159 C2152 1.409 . S
C2159 C2158 1.362 . S
H2160 C2166 0.930 . S
H2161 C2169 0.930 . S
H2162 C2170 0.930 . S
H2163 C2171 0.930 . S
H2164 C2174 0.930 . S
H2165 C2175 0.930 . S
C2166 H2160 0.930 . S
C2166 C2167 1.355 . S
C2166 C2168 1.415 . S
C2167 C2166 1.355 . S
C2167 C2169 1.419 . S
C2168 C2166 1.415 . S
C2168 C2173 1.425 . S
C2168 C2175 1.409 . S
C2169 H2161 0.930 . S
C2169 C2167 1.419 . S
C2169 C2170 1.362 . S
C2170 H2162 0.930 . S
C2170 C2169 1.362 . S
C2170 C2173 1.409 . S
C2171 H2163 0.930 . S
C2171 C2172 1.355 . S
C2171 C2173 1.415 . S
C2172 C2171 1.355 . S
C2172 C2174 1.419 . S
C2173 C2168 1.425 . S
C2173 C2170 1.409 . S
C2173 C2171 1.415 . S
C2174 H2164 0.930 . S
C2174 C2172 1.419 . S
C2174 C2175 1.362 . S
C2175 H2165 0.930 . S
C2175 C2168 1.409 . S
C2175 C2174 1.362 . S
C1159 C110 1.206 . S
C1164 C2 1.194 . S
C1175 C74 1.252 . S
C1180 C38 1.235 . S
C1191 C255 0.960 . S
C1196 C147 0.946 . S
C1207 C219 0.950 . S
C1212 C183 0.961 . S
C1223 C290 1.226 . S
C1228 C398 1.210 . S
C1239 C326 1.268 . S
C1244 C362 1.281 . S
C1255 C543 0.947 . S
C1260 C435 0.927 . S
C1271 C471 0.958 . S
C1276 C507 0.963 . S
C1287 C578 1.181 . S
C1292 C686 1.182 . S
C1303 C614 1.221 . S
C1308 C650 1.206 . S
C1319 C831 0.962 . S
C1324 C723 0.951 . S
C1335 C795 0.897 . S
C1340 C759 0.880 . S
C1351 C974 1.279 . S
C1356 C866 1.289 . S
C1367 C902 1.232 . S
C1372 C938 1.249 . S
C1383 C1011 0.874 . S
C1388 C1119 0.884 . S
C1399 C1047 0.911 . S
C1404 C1083 0.934 . S
C1415 C722 1.228 . S
C1420 C3 1.307 . S
C1431 C470 1.321 . S
C1436 C39 1.357 . S
C1447 C75 1.347 . S
C1452 C1082 1.312 . S
C1463 C111 1.297 . S
C1468 C254 1.220 . S
C1479 C579 1.306 . S
C1484 C146 1.244 . S
C1495 C327 1.358 . S
C1500 C182 1.322 . S
C1511 C939 1.318 . S
C1516 C218 1.244 . S
C1527 C291 1.306 . S
C1532 C1010 1.226 . S
C1543 C794 1.306 . S
C1548 C363 1.343 . S
C1559 C542 1.267 . S
C1564 C399 1.318 . S
C1575 C867 1.322 . S
C1580 C434 1.251 . S
C1591 C506 1.221 . S
C1596 C651 1.302 . S
C1607 C1046 1.253 . S
C1612 C615 1.310 . S
C1623 C687 1.342 . S
C1628 C830 1.305 . S
C1639 C903 1.322 . S
C1644 C758 1.250 . S
C1655 C1118 1.256 . S
C1660 C975 1.325 . S
C1671 C40 1.341 . S
C1676 C4 1.330 . S
C1687 C76 1.348 . S
C1692 C112 1.330 . S
C1703 C158 1.297 . S
C1708 C194 1.300 . S
C1719 C266 1.361 . S
C1724 C230 1.320 . S
C1735 C292 1.403 . S
C1740 C328 1.405 . S
C1751 C364 1.341 . S
C1756 C400 1.330 . S
C1767 C482 1.350 . S
C1772 C446 1.297 . S
C1783 C518 1.350 . S
C1788 C554 1.350 . S
C1799 C580 1.360 . S
C1804 C616 1.393 . S
C1815 C652 1.395 . S
C1820 C688 1.408 . S
C1831 C734 1.331 . S
C1836 C770 1.360 . S
C1847 C842 1.323 . S
C1852 C806 1.287 . S
C1863 C904 1.343 . S
C1868 C868 1.330 . S
C1879 C940 1.330 . S
C1884 C976 1.344 . S
C1895 C1022 1.361 . S
C1900 C1058 1.319 . S
C1911 C1130 1.345 . S
C1916 C1094 1.355 . S
C1927 C14 1.699 . S
C1932 C698 1.696 . S
C1943 C50 1.724 . S
C1948 C662 1.676 . S
C1959 C626 1.717 . S
C1964 C86 1.684 . S
C1975 C122 1.704 . S
C1980 C590 1.698 . S
C1991 C832 1.285 . S
C1996 C148 1.274 . S
C2007 C184 1.268 . S
C2012 C796 1.258 . S
C2023 C760 1.302 . S
C2028 C220 1.308 . S
C2039 C256 1.295 . S
C2044 C724 1.303 . S
C2055 C302 1.728 . S
C2060 C986 1.669 . S
C2071 C338 1.678 . S
C2076 C950 1.722 . S
C2087 C374 1.723 . S
C2092 C914 1.678 . S
C2103 C878 1.727 . S
C2108 C410 1.672 . S
C2119 C436 1.302 . S
C2124 C1120 1.308 . S
C2135 C472 1.258 . S
C2140 C1084 1.251 . S
C2151 C508 1.310 . S
C2156 C1048 1.309 . S
C2167 C1012 1.262 . S
C2172 C544 1.254 . S
