# Generated by pormake.
# Topology snk, (6)-cn, num edge types: 1
# Building blocks:
#     Node 0, Type 0, BuildingBlock: FUNLAD_clean_sbu_0, # of connection points: 6
#     Node 1, Type 0, BuildingBlock: FUNLAD_clean_sbu_0, # of connection points: 6
#     Node 2, Type 0, BuildingBlock: FUNLAD_clean_sbu_0, # of connection points: 6
#     Node 3, Type 0, BuildingBlock: FUNLAD_clean_sbu_0, # of connection points: 6
#     Node 4, Type 0, BuildingBlock: FUNLAD_clean_sbu_0, # of connection points: 6
#     Node 5, Type 0, BuildingBlock: FUNLAD_clean_sbu_0, # of connection points: 6
#     Node 6, Type 0, BuildingBlock: FUNLAD_clean_sbu_0, # of connection points: 6
#     Node 7, Type 0, BuildingBlock: FUNLAD_clean_sbu_0, # of connection points: 6
#     Edge 8, Type (0, 0), BuildingBlock: ZUJKAS_clean_linker_0, # of connection points: 2
#     Edge 9, Type (0, 0), BuildingBlock: ZUJKAS_clean_linker_0, # of connection points: 2
#     Edge 10, Type (0, 0), BuildingBlock: ZUJKAS_clean_linker_0, # of connection points: 2
#     Edge 11, Type (0, 0), BuildingBlock: ZUJKAS_clean_linker_0, # of connection points: 2
#     Edge 12, Type (0, 0), BuildingBlock: ZUJKAS_clean_linker_0, # of connection points: 2
#     Edge 13, Type (0, 0), BuildingBlock: ZUJKAS_clean_linker_0, # of connection points: 2
#     Edge 14, Type (0, 0), BuildingBlock: ZUJKAS_clean_linker_0, # of connection points: 2
#     Edge 15, Type (0, 0), BuildingBlock: ZUJKAS_clean_linker_0, # of connection points: 2
#     Edge 16, Type (0, 0), BuildingBlock: ZUJKAS_clean_linker_0, # of connection points: 2
#     Edge 17, Type (0, 0), BuildingBlock: ZUJKAS_clean_linker_0, # of connection points: 2
#     Edge 18, Type (0, 0), BuildingBlock: ZUJKAS_clean_linker_0, # of connection points: 2
#     Edge 19, Type (0, 0), BuildingBlock: ZUJKAS_clean_linker_0, # of connection points: 2
#     Edge 20, Type (0, 0), BuildingBlock: ZUJKAS_clean_linker_0, # of connection points: 2
#     Edge 21, Type (0, 0), BuildingBlock: ZUJKAS_clean_linker_0, # of connection points: 2
#     Edge 22, Type (0, 0), BuildingBlock: ZUJKAS_clean_linker_0, # of connection points: 2
#     Edge 23, Type (0, 0), BuildingBlock: ZUJKAS_clean_linker_0, # of connection points: 2
#     Edge 24, Type (0, 0), BuildingBlock: ZUJKAS_clean_linker_0, # of connection points: 2
#     Edge 25, Type (0, 0), BuildingBlock: ZUJKAS_clean_linker_0, # of connection points: 2
#     Edge 26, Type (0, 0), BuildingBlock: ZUJKAS_clean_linker_0, # of connection points: 2
#     Edge 27, Type (0, 0), BuildingBlock: ZUJKAS_clean_linker_0, # of connection points: 2
#     Edge 28, Type (0, 0), BuildingBlock: ZUJKAS_clean_linker_0, # of connection points: 2
#     Edge 29, Type (0, 0), BuildingBlock: ZUJKAS_clean_linker_0, # of connection points: 2
#     Edge 30, Type (0, 0), BuildingBlock: ZUJKAS_clean_linker_0, # of connection points: 2
#     Edge 31, Type (0, 0), BuildingBlock: ZUJKAS_clean_linker_0, # of connection points: 2
# Relax obj value: 0.177
# Max RMSD: 0.113
# Mean RMSD: 0.085
data_MOF--net-snk--node1-FUNLAD_clean_sbu_0--edge1-ZUJKAS_clean_linker_0
_symmetry_space_group_name_H-M    P1
_symmetry_Int_Tables_number       1
_symmetry_cell_setting            triclinic
loop_
_symmetry_equiv_pos_as_xyz
'x, y, z'
_cell_length_a     61.412107
_cell_length_b     61.500824
_cell_length_c     19.452172
_cell_angle_alpha  82.152477
_cell_angle_beta   82.059065
_cell_angle_gamma 94.350772
loop_
_atom_site_label
_atom_site_type_symbol
_atom_site_fract_x
_atom_site_fract_y
_atom_site_fract_z
_atom_type_partial_charge
C0 C 1.02696 0.03291 0.62036 0.0
N1 N 0.06495 0.99481 0.49891 0.0
C2 C 0.08199 1.00227 0.53013 0.0
C3 C 0.09932 0.9894 0.54072 0.0
C4 C 0.09921 0.9685 0.51937 0.0
C5 C 0.08139 0.96112 0.48737 0.0
C6 C 0.06438 0.97464 0.47741 0.0
Zn7 Zn 0.0402 1.01514 0.4867 0.0
C8 C 0.99407 0.99048 0.52694 0.0
N9 N 0.98975 0.05937 0.47109 0.0
C10 C 0.99125 0.08005 0.4887 0.0
C11 C 0.97224 0.05186 0.44206 0.0
C12 C 0.95547 0.06528 0.42926 0.0
C13 C 0.95671 0.08688 0.44547 0.0
C14 C 0.97489 0.09414 0.47613 0.0
Zn15 Zn 1.01432 0.03881 0.48375 0.0
O16 O 0.03912 1.02018 0.59017 0.0
C17 C 0.06051 0.06339 0.44349 0.0
O18 O 1.0137 0.0435 0.58741 0.0
H19 H 0.97134 0.03546 0.42791 0.0
H20 H 0.08211 1.01823 0.5475 0.0
H21 H 1.00532 0.08575 0.51154 0.0
O22 O 0.06524 0.04348 0.45407 0.0
O23 O 0.0401 0.06682 0.45109 0.0
H24 H 0.0507 0.96901 0.45264 0.0
O25 O 1.01524 0.03368 0.38055 0.0
O26 O 0.04083 1.01054 0.38285 0.0
O27 O 0.98928 1.0104 0.51674 0.0
O28 O 1.01449 0.9871 0.51898 0.0
C29 C 1.02742 1.021 0.3502 0.0
H30 H 0.11247 0.99561 0.5667 0.0
H31 H 0.0807 0.94517 0.4697 0.0
H32 H 0.94165 0.0587 0.40684 0.0
H33 H 0.97678 0.11072 0.48881 0.0
C34 C 0.28175 0.79519 0.86942 0.0
N35 N 0.32912 0.81537 0.69352 0.0
C36 C 0.33352 0.83395 0.7217 0.0
C37 C 0.35534 0.84171 0.72321 0.0
C38 C 0.37257 0.83001 0.69617 0.0
C39 C 0.36757 0.81253 0.65999 0.0
C40 C 0.34554 0.80542 0.65932 0.0
Zn41 Zn 0.29906 0.79798 0.72033 0.0
C42 C 0.30666 0.75004 0.77166 0.0
N43 N 0.23904 0.75714 0.77775 0.0
C44 C 0.22291 0.76715 0.81316 0.0
C45 C 0.23449 0.73778 0.75396 0.0
C46 C 0.21268 0.72861 0.76096 0.0
C47 C 0.19559 0.73969 0.79199 0.0
C48 C 0.20091 0.75872 0.82057 0.0
Zn49 Zn 0.26909 0.77446 0.74969 0.0
O50 O 0.29738 0.80506 0.82371 0.0
C51 C 0.26136 0.82222 0.69815 0.0
O52 O 0.26774 0.78162 0.85177 0.0
H53 H 0.24759 0.73022 0.72574 0.0
H54 H 0.32018 0.8416 0.74837 0.0
H55 H 0.22689 0.78254 0.83175 0.0
O56 O 0.28223 0.82627 0.69149 0.0
O57 O 0.25276 0.80268 0.72081 0.0
H58 H 0.34165 0.79062 0.63739 0.0
O59 O 0.27067 0.76746 0.64626 0.0
O60 O 0.30051 0.79072 0.61846 0.0
O61 O 0.28578 0.74623 0.77784 0.0
O62 O 0.31548 0.76955 0.74961 0.0
C63 C 0.28641 0.77725 0.60069 0.0
H64 H 0.35864 0.85555 0.75045 0.0
H65 H 0.38036 0.80305 0.63867 0.0
H66 H 0.2091 0.714 0.73751 0.0
H67 H 0.18812 0.76763 0.84484 0.0
C68 C 0.51531 1.02662 0.84432 0.0
N69 N 0.49757 0.97912 0.02143 0.0
C70 C 0.47998 0.97259 -0.00874 0.0
C71 C 0.47459 0.9502 -0.00987 0.0
C72 C 0.48759 0.93466 0.01987 0.0
C73 C 0.50399 0.94173 0.0573 0.0
C74 C 0.5087 0.96419 0.0576 0.0
Zn75 Zn 0.51336 1.00994 -0.00735 0.0
C76 C 0.56164 1.00338 0.93814 0.0
N77 N 0.55303 0.07045 0.9331 0.0
C78 C 0.54187 0.08638 0.9017 0.0
C79 C 0.57303 0.07535 0.95257 0.0
C80 C 0.58171 0.09728 0.94567 0.0
C81 C 0.56945 0.11404 0.91952 0.0
C82 C 0.54972 0.10851 0.8952 0.0
Zn83 Zn 0.53668 0.04004 0.96284 0.0
O84 O 0.50581 1.01083 0.89007 0.0
C85 C 0.48836 0.04652 0.01759 0.0
O86 O 0.52862 0.04091 0.8618 0.0
H87 H 0.58148 0.0624 0.97774 0.0
H88 H 0.4715 0.98474 0.96237 0.0
H89 H 0.52604 0.08209 0.88626 0.0
O90 O 0.48445 1.0257 0.02265 0.0
O91 O 0.50786 0.05535 -0.00498 0.0
H92 H 0.52282 0.96965 0.08051 0.0
O93 O 0.54465 0.03908 0.06491 0.0
O94 O 0.52116 1.00948 0.09398 0.0
O95 O 0.56544 1.02422 0.93181 0.0
O96 O 0.54222 0.99455 0.96172 0.0
C97 C 0.53482 1.02355 0.11104 0.0
H98 H 0.46188 0.94533 0.96025 0.0
H99 H 0.51425 0.93018 0.08105 0.0
H100 H 0.59685 0.1012 0.96608 0.0
H101 H 0.53981 0.12116 0.87578 0.0
C102 C 0.2711 0.27729 0.09186 0.0
N103 N 0.30959 0.23934 0.21082 0.0
C104 C 0.30177 0.22194 0.18191 0.0
C105 C 0.31482 0.20488 0.16953 0.0
C106 C 0.3364 0.20566 0.18602 0.0
C107 C 0.34405 0.22377 0.21629 0.0
C108 C 0.3303 0.24047 0.22841 0.0
Zn109 Zn 0.28897 0.26385 0.22436 0.0
C110 C 0.31325 0.31025 0.18693 0.0
N111 N 0.24415 0.31364 0.24339 0.0
C112 C 0.2243 0.31249 0.21981 0.0
C113 C 0.25036 0.33043 0.27759 0.0
C114 C 0.23638 0.34684 0.28963 0.0
C115 C 0.2157 0.34602 0.26646 0.0
C116 C 0.20975 0.32855 0.2309 0.0
Zn117 Zn 0.26518 0.28955 0.23025 0.0
O118 O 0.28341 0.2646 0.12179 0.0
C119 C 0.24075 0.2433 0.26819 0.0
O120 O 0.26114 0.29091 0.12512 0.0
H121 H 0.26614 0.33101 0.29638 0.0
H122 H 0.28534 0.2213 0.16781 0.0
H123 H 0.21967 0.29903 0.19267 0.0
O124 O 0.26074 0.2386 0.25876 0.0
O125 O 0.2373 0.26365 0.25974 0.0
H126 H 0.33626 0.25446 0.25116 0.0
O127 O 0.26969 0.28781 0.33408 0.0
O128 O 0.29412 0.26348 0.32812 0.0
O129 O 0.29337 0.31485 0.20157 0.0
O130 O 0.31677 0.28993 0.18964 0.0
C131 C 0.28304 0.27608 0.3627 0.0
H132 H 0.30794 0.19114 0.14742 0.0
H133 H 0.36064 0.2253 0.22921 0.0
H134 H 0.24155 0.35977 0.31817 0.0
H135 H 0.19408 0.32737 0.21145 0.0
C136 C 0.77559 0.28697 0.3673 0.0
N137 N 0.82189 0.3074 0.18729 0.0
C138 C 0.8268 0.32626 0.21344 0.0
C139 C 0.84858 0.33574 0.2034 0.0
C140 C 0.86533 0.32568 0.16604 0.0
C141 C 0.85941 0.30735 0.13467 0.0
C142 C 0.83751 0.29835 0.14641 0.0
Zn143 Zn 0.79224 0.28942 0.21869 0.0
C144 C 0.80107 0.24209 0.27008 0.0
N145 N 0.73305 0.24742 0.27876 0.0
C146 C 0.7163 0.25739 0.31121 0.0
C147 C 0.72933 0.22765 0.25659 0.0
C148 C 0.70775 0.21824 0.26039 0.0
C149 C 0.69007 0.22954 0.28622 0.0
C150 C 0.69448 0.24875 0.31501 0.0
Zn151 Zn 0.76262 0.26547 0.24844 0.0
O152 O 0.79135 0.29669 0.3217 0.0
C153 C 0.75384 0.31277 0.19651 0.0
O154 O 0.76148 0.2735 0.34957 0.0
H155 H 0.74292 0.22012 0.23076 0.0
H156 H 0.81411 0.33312 0.24584 0.0
H157 H 0.71968 0.27307 0.3288 0.0
O158 O 0.77461 0.3172 0.19158 0.0
O159 O 0.74549 0.29308 0.2181 0.0
H160 H 0.83333 0.28325 0.12648 0.0
O161 O 0.76381 0.25757 0.14612 0.0
O162 O 0.79274 0.28189 0.11698 0.0
O163 O 0.7802 0.23793 0.27758 0.0
O164 O 0.80956 0.26163 0.24649 0.0
C165 C 0.77906 0.26787 0.09987 0.0
H166 H 0.85244 0.34974 0.22932 0.0
H167 H 0.87178 0.29924 0.105 0.0
H168 H 0.7049 0.2035 0.23678 0.0
H169 H 0.68119 0.25788 0.335 0.0
C170 C 0.77325 0.77714 0.60483 0.0
N171 N 0.81073 0.73915 0.72824 0.0
C172 C 0.80491 0.7231 0.6906 0.0
C173 C 0.81865 0.70648 0.67894 0.0
C174 C 0.83851 0.70612 0.70695 0.0
C175 C 0.84395 0.72261 0.74684 0.0
C176 C 0.82981 0.73913 0.75652 0.0
Zn177 Zn 0.7899 0.76356 0.73963 0.0
C178 C 0.81449 0.80978 0.70216 0.0
N179 N 0.74526 0.81375 0.75312 0.0
C180 C 0.72488 0.81236 0.73312 0.0
C181 C 0.75234 0.83112 0.78351 0.0
C182 C 0.73878 0.84788 0.79514 0.0
C183 C 0.71749 0.84677 0.77628 0.0
C184 C 0.71066 0.82871 0.74441 0.0
Zn185 Zn 0.76609 0.78936 0.74136 0.0
O186 O 0.78581 0.76502 0.63578 0.0
C187 C 0.74158 0.74308 0.77877 0.0
O188 O 0.76232 0.79029 0.63725 0.0
H189 H 0.76852 0.83194 0.79949 0.0
H190 H 0.7896 0.72321 0.66906 0.0
H191 H 0.71952 0.7984 0.70922 0.0
O192 O 0.76157 0.73834 0.76944 0.0
O193 O 0.73814 0.76345 0.77107 0.0
H194 H 0.83417 0.75204 0.78618 0.0
O195 O 0.77014 0.788 0.84534 0.0
O196 O 0.7934 0.76253 0.84382 0.0
O197 O 0.7945 0.81452 0.71114 0.0
O198 O 0.81791 0.7894 0.71018 0.0
C199 C 0.78242 0.77559 0.8765 0.0
H200 H 0.81369 0.69393 0.64865 0.0
H201 H 0.85919 0.72299 0.76897 0.0
H202 H 0.74503 0.8616 0.81862 0.0
H203 H 0.69432 0.82692 0.72972 0.0
C204 C 0.52317 0.5322 0.12155 0.0
N205 N 0.56343 0.49487 0.00448 0.0
C206 C 0.57999 0.50146 0.03908 0.0
C207 C 0.59653 0.48778 0.05238 0.0
C208 C 0.59602 0.46688 0.03076 0.0
C209 C 0.57875 0.46053 -0.00519 0.0
C210 C 0.56261 0.47486 0.98201 0.0
Zn211 Zn 0.53948 0.51591 -0.01106 0.0
C212 C 0.493 0.49167 0.01654 0.0
N213 N 0.49018 0.56109 0.96338 0.0
C214 C 0.49146 0.58084 -0.01251 0.0
C215 C 0.47347 0.55522 0.9283 0.0
C216 C 0.45727 0.56945 0.91608 0.0
C217 C 0.45823 0.59002 0.93987 0.0
C218 C 0.47563 0.59561 0.97617 0.0
Zn219 Zn 0.51397 0.53978 0.97817 0.0
O220 O 0.53565 0.51912 0.09467 0.0
C221 C 0.5605 0.564 0.95023 0.0
O222 O 0.51173 0.54385 0.08418 0.0
H223 H 0.4728 0.53952 0.90912 0.0
H224 H 0.58036 0.51736 0.05687 0.0
H225 H 0.50483 0.58519 0.0154 0.0
O226 O 0.565 0.54411 0.9647 0.0
O227 O 0.54022 0.56743 0.95094 0.0
H228 H 0.54929 0.4699 0.9547 0.0
O229 O 0.51679 0.53548 0.87332 0.0
O230 O 0.54304 0.51317 0.8819 0.0
O231 O 0.48831 0.5116 0.00462 0.0
O232 O 0.51334 0.4882 0.01356 0.0
C233 C 0.5305 0.52363 0.84545 0.0
H234 H 0.60964 0.49366 0.07908 0.0
H235 H 0.57743 0.44449 0.97786 0.0
H236 H 0.44436 0.56454 0.88702 0.0
H237 H 0.47692 0.61119 -0.00387 0.0
C238 C 1.01807 0.52863 0.36242 0.0
N239 N 0.99488 0.47927 0.53176 0.0
C240 C 0.97687 0.47624 0.49946 0.0
C241 C 0.96844 0.45495 0.49394 0.0
C242 C 0.97883 0.43685 0.52162 0.0
C243 C 0.99586 0.44042 0.56096 0.0
C244 C 1.00367 0.46193 0.56551 0.0
Zn245 Zn 1.01353 0.50868 0.51218 0.0
C246 C 0.06098 0.49979 0.46044 0.0
N247 N 0.057 0.56715 0.46625 0.0
C248 C 0.04796 0.58573 0.44248 0.0
C249 C 0.07679 0.5682 0.48994 0.0
C250 C 0.08711 0.5885 0.4974 0.0
C251 C 0.07653 0.60774 0.4827 0.0
C252 C 0.05738 0.60634 0.45097 0.0
Zn253 Zn 0.03779 0.5381 0.4849 0.0
O254 O 1.00785 0.51287 0.40698 0.0
C255 C 0.99024 0.54693 0.53604 0.0
O256 O 0.03178 0.54221 0.3815 0.0
H257 H 0.08371 0.55321 0.50828 0.0
H258 H 0.97027 0.49029 0.47274 0.0
H259 H 0.03239 0.58451 0.42264 0.0
O260 O 0.98583 0.52617 0.5413 0.0
O261 O 1.00998 0.55526 0.51462 0.0
H262 H 1.01807 0.46471 0.5906 0.0
O263 O 0.04374 0.5339 0.58973 0.0
O264 O 1.01944 0.50492 0.61583 0.0
O265 O 0.06528 0.52053 0.45528 0.0
O266 O 0.04132 0.49137 0.48267 0.0
C267 C 0.03336 0.51834 0.63459 0.0
H268 H 0.95536 0.45285 0.46268 0.0
H269 H 1.00414 0.42682 0.58337 0.0
H270 H 0.10235 0.58889 0.51953 0.0
H271 H 0.04861 0.62064 0.43847 0.0
H272 H 0.05703 0.10848 0.41982 0.0
H273 H 0.08678 0.13876 0.38946 0.0
H274 H 0.13521 0.09167 0.39443 0.0
H275 H 0.10567 0.06144 0.42372 0.0
H276 H 0.12006 0.15263 0.45694 0.0
H277 H 0.15842 0.12838 0.20802 0.0
H278 H 0.13174 0.11612 0.25293 0.0
H279 H 0.15661 0.10681 0.28118 0.0
C280 C 0.074 0.10449 0.41397 0.0
C281 C 0.07869 0.08225 0.42385 0.0
C282 C 0.09113 0.12195 0.39668 0.0
C283 C 0.11358 0.11784 0.38798 0.0
C284 C 0.11824 0.09563 0.39865 0.0
H285 H 0.24243 0.19811 0.28959 0.0
H286 H 0.21186 0.16881 0.31932 0.0
C287 C 0.10117 0.0782 0.416 0.0
C288 C 0.132 0.13662 0.36944 0.0
H289 H 0.17888 0.15627 0.25258 0.0
C290 C 0.13279 0.15343 0.41188 0.0
C291 C 0.14893 0.13803 0.31078 0.0
C292 C 0.14883 0.12151 0.26017 0.0
C293 C 0.15001 0.17092 0.39871 0.0
C294 C 0.16701 0.17227 0.34019 0.0
C295 C 0.16613 0.15552 0.29758 0.0
C296 C 0.18586 0.19066 0.32255 0.0
C297 C 0.15015 0.18739 0.44946 0.0
C298 C 0.18195 0.21313 0.31319 0.0
C299 C 0.19956 0.23007 0.29628 0.0
C300 C 0.2218 0.22522 0.2875 0.0
C301 C 0.22568 0.20273 0.29613 0.0
C302 C 0.20807 0.18581 0.31308 0.0
H303 H 0.14038 0.18058 0.50139 0.0
H304 H 0.16725 0.19256 0.45726 0.0
H305 H 0.14261 0.20222 0.42822 0.0
H306 H 0.16518 0.21767 0.31797 0.0
H307 H 0.1957 0.24705 0.28953 0.0
H308 H 0.09589 0.92412 0.56662 0.0
H309 H 0.1256 0.90157 0.59434 0.0
H310 H 0.1732 0.95844 0.53056 0.0
H311 H 0.14366 0.98105 0.50136 0.0
H312 H 0.18642 0.91887 0.48028 0.0
H313 H 0.15741 0.90578 0.76731 0.0
H314 H 0.13663 0.89889 0.71522 0.0
H315 H 0.1481 0.92702 0.70767 0.0
C316 C 0.1127 0.93179 0.55764 0.0
C317 C 0.11736 0.95443 0.53222 0.0
C318 C 0.12963 0.91893 0.57417 0.0
C319 C 0.15155 0.92843 0.56561 0.0
C320 C 0.15638 0.95084 0.53812 0.0
H321 H 0.27281 0.86611 0.64363 0.0
H322 H 0.24776 0.89383 0.61095 0.0
C323 C 0.13945 0.96374 0.52185 0.0
C324 C 0.16934 0.915 0.58615 0.0
H325 H 0.18546 0.88407 0.72639 0.0
C326 C 0.18638 0.9114 0.53413 0.0
C327 C 0.1693 0.90544 0.65655 0.0
C328 C 0.15201 0.9096 0.71513 0.0
C329 C 0.20285 0.89765 0.55021 0.0
C330 C 0.20244 0.88761 0.62038 0.0
C331 C 0.18575 0.89177 0.67262 0.0
C332 C 0.21802 0.87132 0.64014 0.0
C333 C 0.21998 0.89326 0.49159 0.0
C334 C 0.20961 0.84967 0.6688 0.0
C335 C 0.22376 0.83397 0.68787 0.0
C336 C 0.24675 0.83951 0.67895 0.0
C337 C 0.25521 0.8613 0.65092 0.0
C338 C 0.24094 0.8771 0.63181 0.0
H339 H 0.21539 0.89866 0.43907 0.0
H340 H 0.236 0.90241 0.49477 0.0
H341 H 0.22236 0.87542 0.4964 0.0
H342 H 0.19201 0.84484 0.6759 0.0
H343 H 0.21657 0.81739 0.70939 0.0
H344 H 0.41351 0.83108 0.61618 0.0
H345 H 0.44966 0.83403 0.6574 0.0
H346 H 0.41681 0.83812 0.8656 0.0
H347 H 0.38127 0.83477 0.8258 0.0
H348 H 0.46654 0.86881 0.71244 0.0
H349 H 0.46176 0.79596 0.91145 0.0
H350 H 0.44544 0.79693 0.84057 0.0
H351 H 0.43544 0.80678 0.92138 0.0
C352 C 0.41415 0.83247 0.67078 0.0
C353 C 0.39463 0.83309 0.71756 0.0
C354 C 0.43471 0.83392 0.69429 0.0
C355 C 0.43585 0.83551 0.76504 0.0
C356 C 0.41633 0.83607 0.81136 0.0
H357 H 0.45137 0.90571 0.02451 0.0
H358 H 0.44959 0.87399 0.96162 0.0
C359 C 0.39599 0.83476 0.78806 0.0
C360 C 0.45705 0.84008 0.79044 0.0
H361 H 0.47423 0.83218 0.95012 0.0
C362 C 0.46929 0.86027 0.76264 0.0
C363 C 0.46115 0.82861 0.85475 0.0
C364 C 0.45036 0.80572 0.8831 0.0
C365 C 0.48203 0.87128 0.80405 0.0
C366 C 0.48232 0.86163 0.87421 0.0
C367 C 0.4735 0.83974 0.89683 0.0
C368 C 0.48489 0.87598 0.92777 0.0
C369 C 0.49227 0.89445 0.77631 0.0
C370 C 0.50543 0.88675 0.93229 0.0
C371 C 0.50644 0.90485 0.9684 0.0
C372 C 0.4869 0.91237 -0.00021 0.0
C373 C 0.46659 0.90027 0.00048 0.0
C374 C 0.46562 0.88212 0.96498 0.0
H375 H 0.49152 0.89904 0.71948 0.0
H376 H 0.4835 0.90633 0.80548 0.0
H377 H 0.50982 0.89607 0.78439 0.0
H378 H 0.52041 0.88225 0.90365 0.0
H379 H 0.52233 0.91405 0.96655 0.0
H380 H 0.44333 0.03562 0.05316 0.0
H381 H 0.41508 0.06062 0.08194 0.0
H382 H 0.46598 0.11454 0.05836 0.0
H383 H 0.49397 0.09011 0.02842 0.0
H384 H 0.40888 0.08678 0.18779 0.0
H385 H 0.42486 0.1391 0.92782 0.0
H386 H 0.43547 0.11259 0.9436 0.0
H387 H 0.44949 0.13668 0.96705 0.0
C388 C 0.44844 0.05281 0.05402 0.0
C389 C 0.47089 0.06088 0.03764 0.0
C390 C 0.43231 0.06707 0.07053 0.0
C391 C 0.43839 0.08957 0.07078 0.0
C392 C 0.46082 0.09741 0.05662 0.0
H393 H 0.36697 0.18782 0.26287 0.0
H394 H 0.39059 0.15893 0.23565 0.0
C395 C 0.47684 0.08332 0.0398 0.0
C396 C 0.42154 0.1051 0.0859 0.0
H397 H 0.40453 0.15433 0.02076 0.0
C398 C 0.40773 0.10143 0.15104 0.0
C399 C 0.41979 0.12407 0.03753 0.0
C400 C 0.43303 0.12825 0.96482 0.0
C401 C 0.39279 0.11663 0.17004 0.0
C402 C 0.392 0.13625 0.12322 0.0
C403 C 0.4053 0.13948 0.05718 0.0
C404 C 0.37745 0.15362 0.14092 0.0
C405 C 0.37787 0.11136 0.23975 0.0
C406 C 0.36272 0.16089 0.09559 0.0
C407 C 0.3496 0.17779 0.11004 0.0
C408 C 0.35076 0.18784 0.17051 0.0
C409 C 0.36567 0.18062 0.21565 0.0
C410 C 0.37895 0.1638 0.20076 0.0
H411 H 0.3756 0.09334 0.25877 0.0
H412 H 0.38543 0.11954 0.27932 0.0
H413 H 0.36138 0.11734 0.2363 0.0
H414 H 0.36141 0.15351 0.04866 0.0
H415 H 0.33874 0.18317 0.07308 0.0
H416 H 0.99771 0.94543 0.54977 0.0
H417 H 0.9681 0.915 0.5779 0.0
H418 H 0.91945 0.9619 0.57787 0.0
H419 H 0.94887 0.99225 0.54857 0.0
H420 H 0.9354 0.90196 0.68675 0.0
H421 H 0.89562 0.92298 0.45139 0.0
H422 H 0.92228 0.9359 0.45994 0.0
H423 H 0.89738 0.94532 0.50135 0.0
C424 C 0.98072 0.94933 0.55551 0.0
C425 C 0.97594 0.97156 0.54624 0.0
C426 C 0.96366 0.9318 0.57179 0.0
C427 C 0.94118 0.93578 0.57887 0.0
C428 C 0.93643 0.958 0.57095 0.0
H429 H 0.81273 0.85493 0.68064 0.0
H430 H 0.84321 0.88433 0.65221 0.0
C431 C 0.95344 0.97551 0.55465 0.0
C432 C 0.92283 0.91688 0.59554 0.0
H433 H 0.87555 0.89593 0.54156 0.0
C434 C 0.92244 0.90064 0.6545 0.0
C435 C 0.90562 0.91476 0.55418 0.0
C436 C 0.9053 0.93053 0.48781 0.0
C437 C 0.90537 0.88305 0.67397 0.0
C438 C 0.88807 0.88103 0.63287 0.0
C439 C 0.88854 0.89721 0.57373 0.0
C440 C 0.8693 0.86257 0.65053 0.0
C441 C 0.9057 0.86718 0.74008 0.0
C442 C 0.87327 0.84011 0.65848 0.0
C443 C 0.8557 0.82311 0.67487 0.0
C444 C 0.83344 0.82789 0.68355 0.0
C445 C 0.8295 0.85037 0.67468 0.0
C446 C 0.84706 0.86734 0.65821 0.0
H447 H 0.91588 0.8744 0.77585 0.0
H448 H 0.88875 0.86225 0.76881 0.0
H449 H 0.91302 0.85213 0.72604 0.0
H450 H 0.89005 0.83563 0.65128 0.0
H451 H 0.8596 0.80614 0.6807 0.0
H452 H 0.93968 0.11816 0.52086 0.0
H453 H 0.9119 0.14287 0.49152 0.0
H454 H 0.90594 0.11345 0.30523 0.0
H455 H 0.93457 0.08966 0.33172 0.0
H456 H 0.90832 0.15665 0.27599 0.0
H457 H 0.84605 0.13008 0.51274 0.0
H458 H 0.87244 0.1391 0.53398 0.0
H459 H 0.86955 0.11501 0.49154 0.0
C460 C 0.9326 0.11702 0.47335 0.0
C461 C 0.93938 0.10174 0.42898 0.0
C462 C 0.91642 0.13095 0.45723 0.0
C463 C 0.90641 0.12972 0.39695 0.0
C464 C 0.91321 0.11458 0.35244 0.0
H465 H 0.79011 0.19739 0.30814 0.0
H466 H 0.81503 0.1692 0.33691 0.0
C467 C 0.9295 0.10081 0.36811 0.0
C468 C 0.88966 0.14488 0.37819 0.0
H469 H 0.84073 0.16343 0.44053 0.0
C470 C 0.89347 0.15798 0.31187 0.0
C471 C 0.87004 0.1464 0.42434 0.0
C472 C 0.86413 0.13173 0.49431 0.0
C473 C 0.87857 0.17292 0.29115 0.0
C474 C 0.85959 0.17533 0.33879 0.0
C475 C 0.85541 0.16179 0.40434 0.0
C476 C 0.8443 0.19227 0.32218 0.0
C477 C 0.88325 0.18578 0.21799 0.0
C478 C 0.85237 0.21461 0.30563 0.0
C479 C 0.83828 0.23063 0.28866 0.0
C480 C 0.81567 0.22477 0.28889 0.0
C481 C 0.80745 0.20244 0.30719 0.0
C482 C 0.82166 0.18633 0.32372 0.0
H483 H 0.89392 0.17714 0.18178 0.0
H484 H 0.86775 0.18856 0.19615 0.0
H485 H 0.89213 0.20206 0.21966 0.0
H486 H 0.86962 0.2197 0.306 0.0
H487 H 0.84517 0.24769 0.27565 0.0
H488 H 0.66513 0.18981 0.31309 0.0
H489 H 0.6363 0.17873 0.24598 0.0
H490 H 0.63844 0.24585 0.14393 0.0
H491 H 0.66652 0.25712 0.21275 0.0
H492 H 0.59692 0.22182 0.15115 0.0
H493 H 0.66713 0.17884 0.0441 0.0
H494 H 0.65866 0.16999 0.13631 0.0
H495 H 0.66978 0.19811 0.10514 0.0
C496 C 0.65863 0.2023 0.27883 0.0
C497 C 0.66813 0.22418 0.26718 0.0
C498 C 0.64229 0.19601 0.2404 0.0
C499 C 0.63587 0.21142 0.18863 0.0
C500 C 0.64333 0.23374 0.18333 0.0
H501 H 0.60328 0.14409 0.85249 0.0
H502 H 0.61734 0.17676 0.89834 0.0
C503 C 0.65934 0.24013 0.2228 0.0
C504 C 0.62524 0.20367 0.13182 0.0
H505 H 0.63253 0.16944 0.00933 0.0
C506 C 0.60467 0.2105 0.11951 0.0
C507 C 0.63602 0.18995 0.0881 0.0
C508 C 0.65923 0.18401 0.09341 0.0
C509 C 0.5938 0.20249 0.06775 0.0
C510 C 0.60356 0.18683 0.02928 0.0
C511 C 0.62484 0.18134 0.03866 0.0
C512 C 0.5912 0.17325 -0.01252 0.0
C513 C 0.57199 0.21081 0.05539 0.0
C514 C 0.57106 0.16141 0.01933 0.0
C515 C 0.56275 0.14334 -0.00825 0.0
C516 C 0.57474 0.13652 0.93318 0.0
C517 C 0.59383 0.14928 0.89762 0.0
C518 C 0.6018 0.16785 0.92393 0.0
H519 H 0.57199 0.22849 0.06167 0.0
H520 H 0.56821 0.20887 0.00223 0.0
H521 H 0.55863 0.20154 0.09525 0.0
H522 H 0.56284 0.16465 0.06927 0.0
H523 H 0.5481 0.13342 0.02023 0.0
H524 H 0.71336 0.8689 0.8902 0.0
H525 H 0.68911 0.89737 0.91438 0.0
H526 H 0.66234 0.89189 0.72325 0.0
H527 H 0.68752 0.8642 0.69634 0.0
H528 H 0.66973 0.93473 0.74169 0.0
H529 H 0.62406 0.88596 -0.01318 0.0
H530 H 0.65323 0.89004 -0.01201 0.0
H531 H 0.64294 0.87411 0.92621 0.0
C532 C 0.70258 0.8739 0.85258 0.0
C533 C 0.70246 0.86411 0.79122 0.0
C534 C 0.68846 0.89002 0.8671 0.0
C535 C 0.67357 0.89649 0.82139 0.0
C536 C 0.67358 0.88705 0.75961 0.0
H537 H 0.55603 0.95992 0.92571 0.0
H538 H 0.58404 0.93561 0.89467 0.0
C539 C 0.68785 0.87103 0.74466 0.0
C540 C 0.6579 0.91298 0.83829 0.0
H541 H 0.61664 0.92327 0.9629 0.0
C542 C 0.65808 0.93223 0.78999 0.0
C543 C 0.64253 0.90961 0.901 0.0
C544 C 0.64047 0.88872 0.95316 0.0
C545 C 0.64336 0.94818 0.80274 0.0
C546 C 0.62838 0.94504 0.86627 0.0
C547 C 0.62826 0.92581 0.91452 0.0
C548 C 0.61162 0.96062 0.8822 0.0
C549 C 0.64354 0.96789 0.74711 0.0
C550 C 0.61771 0.98294 0.88552 0.0
C551 C 0.60157 0.99709 0.90272 0.0
C552 C 0.57911 0.98906 0.91791 0.0
C553 C 0.57316 0.96671 0.9146 0.0
C554 C 0.58919 0.95272 0.89685 0.0
H555 H 0.65187 0.96504 0.6951 0.0
H556 H 0.62649 0.97198 0.7419 0.0
H557 H 0.65266 0.98236 0.76211 0.0
H558 H 0.63495 0.98933 0.87596 0.0
H559 H 0.60668 1.01418 0.90526 0.0
H560 H 0.60544 0.56246 0.94892 0.0
H561 H 0.63503 0.59276 0.91993 0.0
H562 H 0.58699 0.63894 0.88412 0.0
H563 H 0.55735 0.60864 0.91216 0.0
H564 H 0.64454 0.62897 0.97801 0.0
H565 H 0.63016 0.65737 0.70711 0.0
H566 H 0.60617 0.6573 0.77127 0.0
H567 H 0.6171 0.63168 0.75693 0.0
C568 C 0.60108 0.57903 0.93453 0.0
C569 C 0.57875 0.58282 0.93266 0.0
C570 C 0.61815 0.59649 0.91797 0.0
C571 C 0.61365 0.61844 0.89822 0.0
C572 C 0.59132 0.6223 0.89717 0.0
H573 H 0.74332 0.69814 0.81134 0.0
H574 H 0.71287 0.66875 0.84064 0.0
C575 C 0.57421 0.60484 0.91389 0.0
C576 C 0.6322 0.63713 0.88037 0.0
H577 H 0.65559 0.68028 0.75356 0.0
C578 C 0.64693 0.64007 0.92866 0.0
C579 C 0.63569 0.65194 0.81609 0.0
C580 C 0.6216 0.64935 0.75953 0.0
C581 C 0.66443 0.65726 0.91535 0.0
C582 C 0.66791 0.67205 0.85113 0.0
C583 C 0.65316 0.66919 0.80292 0.0
C584 C 0.6868 0.69034 0.83287 0.0
C585 C 0.67876 0.65973 0.97136 0.0
C586 C 0.68283 0.71262 0.81681 0.0
C587 C 0.70039 0.72964 0.80004 0.0
C588 C 0.72263 0.72498 0.7977 0.0
C589 C 0.72657 0.70262 0.81284 0.0
C590 C 0.70901 0.68566 0.83014 0.0
H591 H 0.67048 0.65143 0.0238 0.0
H592 H 0.69429 0.65204 0.95837 0.0
H593 H 0.68312 0.67738 0.97451 0.0
H594 H 0.66603 0.71694 0.81788 0.0
H595 H 0.6965 0.74651 0.78843 0.0
H596 H 0.7107 0.30624 0.17995 0.0
H597 H 0.68588 0.33373 0.14867 0.0
H598 H 0.73809 0.38558 0.13922 0.0
H599 H 0.76345 0.3579 0.1686 0.0
H600 H 0.67152 0.36521 0.21794 0.0
H601 H 0.71581 0.4033 0.95608 0.0
H602 H 0.72299 0.37796 0.00208 0.0
H603 H 0.73219 0.40406 0.02548 0.0
C604 C 0.71704 0.32348 0.17085 0.0
C605 C 0.73912 0.32987 0.17668 0.0
C606 C 0.70277 0.3392 0.15295 0.0
C607 C 0.71012 0.36175 0.14072 0.0
C608 C 0.73215 0.36827 0.14679 0.0
H609 H 0.61617 0.46134 0.14873 0.0
H610 H 0.64455 0.4371 0.1742 0.0
C611 C 0.74659 0.35245 0.16406 0.0
C612 C 0.69427 0.37817 0.12427 0.0
H613 H 0.68468 0.42034 0.00174 0.0
C614 C 0.67442 0.37726 0.17063 0.0
C615 C 0.69789 0.39372 0.06207 0.0
C616 C 0.71826 0.39475 0.00817 0.0
C617 C 0.6581 0.39133 0.15657 0.0
C618 C 0.66197 0.4073 0.09539 0.0
C619 C 0.6818 0.40824 0.04892 0.0
C620 C 0.64544 0.42288 0.07817 0.0
C621 C 0.6366 0.38843 0.20645 0.0
C622 C 0.63702 0.42363 0.01441 0.0
C623 C 0.62108 0.43791 -0.00119 0.0
C624 C 0.6132 0.45178 0.04667 0.0
C625 C 0.62193 0.45114 0.11012 0.0
C626 C 0.63799 0.43702 0.12533 0.0
H627 H 0.63375 0.37172 0.23802 0.0
H628 H 0.63714 0.40063 0.24343 0.0
H629 H 0.62237 0.39109 0.17779 0.0
H630 H 0.64264 0.41299 0.97693 0.0
H631 H 0.6151 0.43819 0.94892 0.0
H632 H 0.93908 0.41426 0.51821 0.0
H633 H 0.93277 0.38378 0.45273 0.0
H634 H 1.00309 0.38104 0.40318 0.0
H635 H 1.00952 0.41166 0.46816 0.0
H636 H 0.98214 0.38879 0.28632 0.0
H637 H 0.93825 0.31744 0.46822 0.0
H638 H 0.92697 0.34243 0.48677 0.0
H639 H 0.95522 0.33872 0.49718 0.0
C640 C 0.95314 0.40666 0.49531 0.0
C641 C 0.97473 0.41528 0.49813 0.0
C642 C 0.94955 0.38915 0.45843 0.0
C643 C 0.9675 0.38005 0.42379 0.0
C644 C 0.98907 0.38769 0.43031 0.0
H645 H 0.89704 0.29805 0.19008 0.0
H646 H 0.9317 0.3074 0.23156 0.0
C647 C 0.99267 0.4051 0.46771 0.0
C648 C 0.96345 0.36566 0.3713 0.0
H649 H 0.92705 0.32346 0.35122 0.0
C650 C 0.97071 0.374 0.30026 0.0
C651 C 0.94907 0.34611 0.38942 0.0
C652 C 0.94214 0.33554 0.46468 0.0
C653 C 0.96157 0.36493 0.24719 0.0
C654 C 0.9447 0.34737 0.2662 0.0
C655 C 0.93975 0.33721 0.33651 0.0
C656 C 0.92873 0.34247 0.21884 0.0
C657 C 0.96893 0.37521 0.17186 0.0
C658 C 0.91621 0.35926 0.19419 0.0
C659 C 0.89643 0.354 0.16996 0.0
C660 C 0.88878 0.33188 0.17071 0.0
C661 C 0.90251 0.3153 0.18839 0.0
C662 C 0.92234 0.32058 0.21237 0.0
H663 H 0.98681 0.38099 0.16301 0.0
H664 H 0.9658 0.36345 0.13498 0.0
H665 H 0.9598 0.38983 0.15988 0.0
H666 H 0.92056 0.37625 0.19986 0.0
H667 H 0.88633 0.36711 0.15575 0.0
H668 H 0.85926 0.68116 0.80111 0.0
H669 H 0.88346 0.65221 0.77831 0.0
H670 H 0.87608 0.66337 0.55926 0.0
H671 H 0.85146 0.69183 0.58221 0.0
H672 H 0.87294 0.62038 0.60599 0.0
H673 H 0.94688 0.66065 0.68882 0.0
H674 H 0.92334 0.65578 0.75658 0.0
H675 H 0.92258 0.67468 0.67787 0.0
C676 C 0.86295 0.67751 0.74805 0.0
C677 C 0.85353 0.68881 0.69341 0.0
C678 C 0.87683 0.66101 0.735 0.0
C679 C 0.88194 0.65582 0.66678 0.0
C680 C 0.87242 0.66704 0.61232 0.0
H681 H 0.99297 0.59155 0.50299 0.0
H682 H 0.96563 0.61638 0.53615 0.0
C683 C 0.85834 0.68331 0.62548 0.0
C684 C 0.89708 0.63868 0.6517 0.0
H685 H 0.94937 0.62449 0.66182 0.0
C686 C 0.88966 0.62127 0.61821 0.0
C687 C 0.91899 0.63994 0.66695 0.0
C688 C 0.92853 0.65887 0.69889 0.0
C689 C 0.90356 0.60526 0.59896 0.0
C690 C 0.92533 0.6063 0.61542 0.0
C691 C 0.93264 0.62356 0.64966 0.0
C692 C 0.94137 0.5906 0.59378 0.0
C693 C 0.89503 0.5879 0.55889 0.0
C694 C 0.9369 0.56769 0.61479 0.0
C695 C 0.95249 0.55331 0.5949 0.0
C696 C 0.973 0.56163 0.55479 0.0
C697 C 0.97738 0.58455 0.53407 0.0
C698 C 0.96175 0.59882 0.55313 0.0
H699 H 0.88049 0.59285 0.53442 0.0
H700 H 0.90803 0.58458 0.51704 0.0
H701 H 0.88981 0.57234 0.59554 0.0
H702 H 0.92152 0.56095 0.64752 0.0
H703 H 0.94871 0.53576 0.61222 0.0
H704 H 0.35224 0.31258 0.09438 0.0
H705 H 0.38174 0.343 0.06265 0.0
H706 H 0.34742 0.37875 0.21315 0.0
H707 H 0.31714 0.34934 0.23957 0.0
H708 H 0.41133 0.36105 0.11108 0.0
H709 H 0.35919 0.42903 0.06894 0.0
H710 H 0.35182 0.41522 0.15708 0.0
H711 H 0.34769 0.40072 0.08432 0.0
C712 C 0.35086 0.32708 0.12002 0.0
C713 C 0.33198 0.32849 0.16885 0.0
C714 C 0.36791 0.34462 0.102 0.0
C715 C 0.36703 0.36407 0.13336 0.0
C716 C 0.34851 0.36488 0.18461 0.0
H717 H 0.45321 0.48804 0.96658 0.0
H718 H 0.4243 0.45714 -0.0089 0.0
C719 C 0.33113 0.34773 0.2007 0.0
C720 C 0.38558 0.38296 0.11401 0.0
H721 H 0.39623 0.43945 0.08451 0.0
C722 C 0.40782 0.37816 0.10457 0.0
C723 C 0.38174 0.40567 0.10335 0.0
C724 C 0.35882 0.41294 0.10313 0.0
C725 C 0.42582 0.39484 0.08607 0.0
C726 C 0.42201 0.41757 0.08067 0.0
C727 C 0.39975 0.42235 0.08937 0.0
C728 C 0.4405 0.43655 0.06426 0.0
C729 C 0.44864 0.38759 0.06958 0.0
C730 C 0.45978 0.43613 0.09653 0.0
C731 C 0.47687 0.45363 0.08007 0.0
C732 C 0.47494 0.47276 0.03323 0.0
C733 C 0.4554 0.47365 0.00288 0.0
C734 C 0.43868 0.45583 0.01736 0.0
H735 H 0.44796 0.37135 0.05052 0.0
H736 H 0.45934 0.39968 0.02893 0.0
H737 H 0.45634 0.38561 0.11812 0.0
H738 H 0.46167 0.42237 0.13548 0.0
H739 H 0.49142 0.4524 0.10557 0.0
H740 H 0.46492 0.63477 0.8994 0.0
H741 H 0.43741 0.66029 0.87376 0.0
H742 H 0.38614 0.60624 0.92022 0.0
H743 H 0.41347 0.58064 0.94754 0.0
H744 H 0.40909 0.65859 0.7703 0.0
H745 H 0.36147 0.65232 0.0381 0.0
H746 H 0.3888 0.64333 0.02253 0.0
H747 H 0.36535 0.62656 0.00634 0.0
C748 C 0.44775 0.62833 0.90523 0.0
C749 C 0.44141 0.60564 0.9258 0.0
C750 C 0.43206 0.64293 0.8901 0.0
C751 C 0.40969 0.63521 0.89583 0.0
C752 C 0.40326 0.61261 0.91647 0.0
H753 H 0.29432 0.70591 0.81841 0.0
H754 H 0.31856 0.67701 0.84673 0.0
C755 C 0.41895 0.59797 0.93137 0.0
C756 C 0.39328 0.65075 0.87768 0.0
H757 H 0.34764 0.67364 0.9461 0.0
C758 C 0.39565 0.66189 0.80872 0.0
C759 C 0.37564 0.65487 0.92774 0.0
C760 C 0.37266 0.64381 0.00302 0.0
C761 C 0.38091 0.67706 0.78843 0.0
C762 C 0.36357 0.68159 0.83885 0.0
C763 C 0.36093 0.67014 0.90753 0.0
C764 C 0.34874 0.69894 0.82204 0.0
C765 C 0.38394 0.68794 0.71291 0.0
C766 C 0.35761 0.72088 0.79995 0.0
C767 C 0.34389 0.73732 0.78365 0.0
C768 C 0.3209 0.73228 0.78965 0.0
C769 C 0.31195 0.71034 0.81294 0.0
C770 C 0.32577 0.69382 0.82921 0.0
H771 H 0.39332 0.67805 0.67749 0.0
H772 H 0.36778 0.69041 0.69502 0.0
H773 H 0.39343 0.70431 0.7079 0.0
H774 H 0.3752 0.72533 0.79563 0.0
H775 H 0.35138 0.75405 0.76644 0.0
H776 H 0.16708 0.76647 0.73812 0.0
H777 H 0.13335 0.75481 0.69389 0.0
H778 H 0.13907 0.68735 0.77948 0.0
H779 H 0.17291 0.69888 0.82318 0.0
H780 H 0.14102 0.72494 0.59549 0.0
H781 H 0.07119 0.69193 0.80335 0.0
H782 H 0.09235 0.71273 0.81466 0.0
H783 H 0.09721 0.68406 0.82555 0.0
C784 C 0.16057 0.74928 0.75018 0.0
C785 C 0.17257 0.73347 0.78353 0.0
C786 C 0.14132 0.7427 0.72493 0.0
C787 C 0.13368 0.7203 0.73399 0.0
C788 C 0.1445 0.70478 0.7732 0.0
H789 H 0.09244 0.6104 0.60544 0.0
H790 H 0.1014 0.643 0.65649 0.0
C791 C 0.16391 0.71131 0.79755 0.0
C792 C 0.11827 0.7123 0.68934 0.0
H793 H 0.0749 0.67367 0.69909 0.0
C794 C 0.12606 0.71431 0.61727 0.0
C795 C 0.09876 0.6987 0.71819 0.0
C796 C 0.08925 0.69688 0.79466 0.0
C797 C 0.11659 0.70067 0.57507 0.0
C798 C 0.09849 0.68521 0.6059 0.0
C799 C 0.08897 0.68536 0.67585 0.0
C800 C 0.09247 0.6659 0.57255 0.0
C801 C 0.12753 0.70128 0.50028 0.0
C802 C 0.08484 0.66795 0.50745 0.0
C803 C 0.08046 0.64919 0.47633 0.0
C804 C 0.0833 0.62811 0.51055 0.0
C805 C 0.09075 0.6263 0.5761 0.0
C806 C 0.09542 0.64495 0.60632 0.0
H807 H 0.14306 0.71249 0.48748 0.0
H808 H 0.13142 0.68451 0.49063 0.0
H809 H 0.11611 0.70713 0.46383 0.0
H810 H 0.08222 0.68398 0.48089 0.0
H811 H 0.07475 0.65121 0.42584 0.0
H812 H 0.17089 0.33996 0.30786 0.0
H813 H 0.1459 0.36776 0.33503 0.0
H814 H 0.20062 0.41833 0.28583 0.0
H815 H 0.22575 0.39063 0.2583 0.0
H816 H 0.17421 0.42072 0.41116 0.0
H817 H 0.12288 0.41411 0.20054 0.0
H818 H 0.12458 0.38814 0.25325 0.0
H819 H 0.14907 0.40258 0.20009 0.0
C820 C 0.17758 0.35704 0.3017 0.0
C821 C 0.20033 0.36305 0.28062 0.0
C822 C 0.16325 0.37293 0.31726 0.0
C823 C 0.17133 0.39519 0.31147 0.0
C824 C 0.19401 0.40126 0.29047 0.0
H825 H 0.10496 0.51155 0.4093 0.0
H826 H 0.1328 0.48728 0.37173 0.0
C827 C 0.20836 0.38538 0.27503 0.0
C828 C 0.15621 0.41197 0.32987 0.0
H829 H 0.10904 0.43389 0.29187 0.0
C830 C 0.16008 0.42378 0.38464 0.0
C831 C 0.13782 0.41598 0.29509 0.0
C832 C 0.13341 0.4047 0.23352 0.0
C833 C 0.14561 0.4389 0.40721 0.0
C834 C 0.12695 0.44253 0.37344 0.0
C835 C 0.12332 0.43103 0.31782 0.0
C836 C 0.11043 0.45742 0.3969 0.0
C837 C 0.14996 0.45032 0.46855 0.0
C838 C 0.08859 0.44875 0.42257 0.0
C839 C 0.07271 0.46251 0.44384 0.0
C840 C 0.07826 0.48535 0.43949 0.0
C841 C 0.10017 0.49405 0.41366 0.0
C842 C 0.11611 0.48019 0.39244 0.0
H843 H 0.16228 0.44236 0.49779 0.0
H844 H 0.15648 0.46771 0.44901 0.0
H845 H 0.13446 0.45036 0.50544 0.0
H846 H 0.08384 0.43124 0.42631 0.0
H847 H 0.056 0.45522 0.4633 0.0
H848 H 0.99772 0.05039 0.71122 0.0
H849 H 0.99789 0.04909 0.83756 0.0
H850 H 0.05872 1.01805 0.82041 0.0
H851 H 0.05866 1.01903 0.69491 0.0
H852 H 1.02262 0.99506 0.91969 0.0
H853 H 0.03923 0.08353 0.94723 0.0
H854 H 1.01779 0.07713 0.89676 0.0
H855 H 0.04587 0.07329 0.86485 0.0
C856 C 1.01128 0.04363 0.73434 0.0
C857 C 1.02803 0.03459 0.6939 0.0
C858 C 1.01138 0.04297 0.80607 0.0
C859 C 1.02835 0.03352 0.83724 0.0
C860 C 0.04554 1.02535 0.79654 0.0
H861 H 0.05636 1.00338 0.25873 0.0
H862 H 0.05554 1.00423 0.13283 0.0
C863 C 0.04541 1.02589 0.72518 0.0
C864 C 1.02735 0.03043 0.91324 0.0
H865 H 0.03041 0.05802 0.05191 0.0
C866 C 1.02436 1.00876 0.9489 0.0
C867 C 0.02963 0.04847 0.95001 0.0
C868 C 0.03348 0.07194 0.91292 0.0
C869 C 1.02338 1.00462 0.02161 0.0
C870 C 1.02569 1.02266 0.05835 0.0
C871 C 0.02864 0.04432 0.02271 0.0
C872 C 1.02494 1.01958 0.13426 0.0
C873 C 1.01957 0.98115 0.05873 0.0
C874 C 1.00788 0.02777 0.17543 0.0
C875 C 1.00838 0.02751 0.2465 0.0
C876 C 1.02602 1.01907 0.27701 0.0
C877 C 0.04262 1.00997 0.23618 0.0
C878 C 0.04214 1.01035 0.16472 0.0
H879 H 1.01378 0.96955 0.02451 0.0
H880 H 0.03528 0.97598 0.07474 0.0
H881 H 1.00721 0.9798 0.10691 0.0
H882 H 0.99453 0.03493 0.1521 0.0
H883 H 0.99523 0.03439 0.27711 0.0
H884 H 0.25417 0.75866 0.53739 0.0
H885 H 0.25379 0.76092 0.411 0.0
H886 H 0.3202 0.79299 0.37025 0.0
H887 H 0.3207 0.79104 0.49607 0.0
H888 H 0.28884 0.81654 0.30573 0.0
H889 H 0.28568 0.72937 0.25762 0.0
H890 H 0.26583 0.73472 0.3288 0.0
H891 H 0.29478 0.73801 0.33495 0.0
C892 C 0.26887 0.7657 0.5015 0.0
C893 C 0.28738 0.77487 0.52632 0.0
C894 C 0.26864 0.76693 0.42949 0.0
C895 C 0.28699 0.77709 0.38185 0.0
C896 C 0.30591 0.78513 0.40658 0.0
H897 H 0.31398 0.814 0.93225 0.0
H898 H 0.31447 0.81188 0.05855 0.0
C899 C 0.30614 0.78399 0.47834 0.0
C900 C 0.28572 0.78135 0.30647 0.0
H901 H 0.27958 0.75617 0.16417 0.0
C902 C 0.28692 0.80338 0.27449 0.0
C903 C 0.28313 0.76408 0.26663 0.0
C904 C 0.28245 0.7402 0.29844 0.0
C905 C 0.28529 0.80863 0.20325 0.0
C906 C 0.28267 0.79135 0.16343 0.0
C907 C 0.2815 0.76933 0.1954 0.0
C908 C 0.28132 0.7956 0.08809 0.0
C909 C 0.28597 0.83251 0.17145 0.0
C910 C 0.2624 0.78744 0.06359 0.0
C911 C 0.26212 0.78849 -0.00811 0.0
C912 C 0.28082 0.79763 0.94372 0.0
C913 C 0.29933 0.80693 0.96829 0.0
C914 C 0.29962 0.80578 0.04025 0.0
H915 H 0.28276 0.84335 0.21227 0.0
H916 H 0.3026 0.83799 0.14108 0.0
H917 H 0.27365 0.83471 0.13494 0.0
H918 H 0.24815 0.77956 0.10008 0.0
H919 H 0.24756 0.78135 0.97434 0.0
H920 H 0.49704 0.99405 0.78142 0.0
H921 H 0.49957 0.99338 0.65489 0.0
H922 H 0.53141 0.05979 0.61353 0.0
H923 H 0.52877 0.06076 0.73925 0.0
H924 H 0.49935 0.05035 0.52501 0.0
H925 H 0.56154 0.98925 0.54168 0.0
H926 H 0.53562 0.98172 0.59856 0.0
H927 H 0.5535 1.00477 0.61184 0.0
C928 C 0.50415 1.00866 0.74533 0.0
C929 C 0.51301 0.02734 0.76994 0.0
C930 C 0.50571 1.00818 0.67332 0.0
C931 C 0.5161 1.02637 0.62555 0.0
C932 C 0.52352 0.04556 0.64997 0.0
H933 H 0.55351 0.056 0.17353 0.0
H934 H 0.55122 0.05669 0.30002 0.0
C935 C 0.52202 0.04605 0.72171 0.0
C936 C 0.5206 1.02509 0.55016 0.0
H937 H 0.5513 0.99988 0.43015 0.0
C938 C 0.51069 0.03934 0.50404 0.0
C939 C 0.53559 1.01083 0.52367 0.0
C940 C 0.54736 0.99587 0.57128 0.0
C941 C 0.51507 0.03942 0.4315 0.0
C942 C 0.53005 1.02514 0.40501 0.0
C943 C 0.53998 1.01089 0.45112 0.0
C944 C 0.53446 1.0238 0.32965 0.0
C945 C 0.50331 0.05437 0.38388 0.0
C946 C 0.52681 1.00467 0.30541 0.0
C947 C 0.52815 1.00418 0.23371 0.0
C948 C 0.53724 1.02283 0.18533 0.0
C949 C 0.54634 0.04144 0.20974 0.0
C950 C 0.54492 0.04193 0.28172 0.0
H951 H 0.48922 0.06111 0.4135 0.0
H952 H 0.51509 0.06844 0.35625 0.0
H953 H 0.49705 0.04542 0.3436 0.0
H954 H 0.51885 0.9905 0.34197 0.0
H955 H 0.52123 0.98951 0.21632 0.0
H956 H 0.2543 0.3071 0.00089 0.0
H957 H 0.2548 0.30654 0.87483 0.0
H958 H 0.28411 0.2448 0.89256 0.0
H959 H 0.28353 0.24505 0.01762 0.0
H960 H 0.29591 0.30506 0.7843 0.0
H961 H 0.23396 0.23519 0.7752 0.0
H962 H 0.23415 0.24926 0.85084 0.0
H963 H 0.25326 0.22913 0.83504 0.0
C964 C 0.26046 0.29325 0.97795 0.0
C965 C 0.26906 0.27623 0.01846 0.0
C966 C 0.26073 0.29296 0.90638 0.0
C967 C 0.2693 0.27553 0.87544 0.0
C968 C 0.27711 0.25817 0.91625 0.0
H969 H 0.30084 0.24685 0.45266 0.0
H970 H 0.30055 0.24745 0.57868 0.0
C971 C 0.27694 0.25847 -0.0126 0.0
C972 C 0.27233 0.27639 0.79936 0.0
H973 H 0.25872 0.2484 0.66984 0.0
C974 C 0.28767 0.29284 0.75893 0.0
C975 C 0.26171 0.26015 0.76756 0.0
C976 C 0.2447 0.24252 0.80926 0.0
C977 C 0.2929 0.29333 0.68658 0.0
C978 C 0.28229 0.27707 0.65482 0.0
C979 C 0.26697 0.26062 0.69524 0.0
C980 C 0.28523 0.278 0.57876 0.0
C981 C 0.30981 0.31101 0.64473 0.0
C982 C 0.27687 0.29509 0.53843 0.0
C983 C 0.27687 0.29473 0.46738 0.0
C984 C 0.28517 0.27721 0.43596 0.0
C985 C 0.29436 0.26051 0.47594 0.0
C986 C 0.29421 0.26082 0.54745 0.0
H987 H 0.32037 0.31862 0.67874 0.0
H988 H 0.32054 0.3042 0.60372 0.0
H989 H 0.30118 0.32418 0.61815 0.0
H990 H 0.26959 0.30825 0.56246 0.0
H991 H 0.26986 0.30792 0.43749 0.0
H992 H 0.74656 0.2496 0.03681 0.0
H993 H 0.74605 0.25199 0.91037 0.0
H994 H 0.81278 0.28328 0.86939 0.0
H995 H 0.81336 0.28125 -0.00481 0.0
H996 H 0.78218 0.30734 0.80483 0.0
H997 H 0.77683 0.22019 0.75651 0.0
H998 H 0.75702 0.22597 0.82712 0.0
H999 H 0.78593 0.22846 0.83433 0.0
C1000 C 0.76129 0.25648 0.00082 0.0
C1001 C 0.77992 0.26543 0.02556 0.0
C1002 C 0.76099 0.2578 0.92877 0.0
C1003 C 0.7794 0.26779 0.88102 0.0
C1004 C 0.79843 0.27557 0.90574 0.0
H1005 H 0.80805 0.30479 0.43152 0.0
H1006 H 0.80818 0.30234 0.55815 0.0
C1007 C 0.79871 0.27438 0.97749 0.0
C1008 C 0.77815 0.27218 0.80555 0.0
H1009 H 0.77161 0.24733 0.6628 0.0
C1010 C 0.77997 0.29426 0.77352 0.0
C1011 C 0.77515 0.25501 0.76556 0.0
C1012 C 0.7738 0.23106 0.79732 0.0
C1013 C 0.77864 0.29966 0.7021 0.0
C1014 C 0.77568 0.28249 0.66208 0.0
C1015 C 0.77382 0.26041 0.69413 0.0
C1016 C 0.77467 0.2869 0.58648 0.0
C1017 C 0.78002 0.32361 0.67028 0.0
C1018 C 0.75567 0.27935 0.56117 0.0
C1019 C 0.75559 0.2806 0.4893 0.0
C1020 C 0.77456 0.28936 0.44172 0.0
C1021 C 0.79318 0.29806 0.46709 0.0
C1022 C 0.79327 0.29671 0.53924 0.0
H1023 H 0.77699 0.33449 0.71106 0.0
H1024 H 0.7968 0.32867 0.6405 0.0
H1025 H 0.76791 0.3262 0.63324 0.0
H1026 H 0.74118 0.27178 0.59714 0.0
H1027 H 0.74094 0.27392 0.47116 0.0
H1028 H 0.78821 0.74563 0.53141 0.0
H1029 H 0.78853 0.74453 0.40675 0.0
H1030 H 0.7553 0.80394 0.38815 0.0
H1031 H 0.75472 0.80523 0.5138 0.0
H1032 H 0.73968 0.76581 0.31828 0.0
H1033 H 0.82984 0.79283 0.26035 0.0
H1034 H 0.82135 0.77026 0.33046 0.0
H1035 H 0.81278 0.7971 0.33985 0.0
C1036 C 0.78087 0.75843 0.50098 0.0
C1037 C 0.77175 0.77575 0.53154 0.0
C1038 C 0.78105 0.75771 0.43015 0.0
C1039 C 0.77225 0.77433 0.38936 0.0
C1040 C 0.76224 0.79111 0.41983 0.0
H1041 H 0.76488 0.80492 0.95469 0.0
H1042 H 0.76277 0.80379 0.08097 0.0
C1043 C 0.76196 0.79182 0.49105 0.0
C1044 C 0.7745 0.7746 0.31402 0.0
H1045 H 0.81272 0.78235 0.16663 0.0
C1046 C 0.75556 0.76948 0.28477 0.0
C1047 C 0.79539 0.7793 0.27183 0.0
C1048 C 0.81603 0.78535 0.30191 0.0
C1049 C 0.75703 0.76876 0.21302 0.0
C1050 C 0.7779 0.7736 0.17076 0.0
C1051 C 0.79685 0.77859 0.20013 0.0
C1052 C 0.78019 0.77462 0.0951 0.0
C1053 C 0.7364 0.76271 0.18291 0.0
C1054 C 0.79146 0.75898 0.06234 0.0
C1055 C 0.79283 0.75959 -0.0098 0.0
C1056 C 0.78293 0.77588 0.95093 0.0
C1057 C 0.77241 0.79201 -0.01599 0.0
C1058 C 0.77111 0.79139 0.05584 0.0
H1059 H 0.72282 0.75459 0.22431 0.0
H1060 H 0.73065 0.77791 0.15647 0.0
H1061 H 0.7398 0.75154 0.14325 0.0
H1062 H 0.79872 0.7461 0.09276 0.0
H1063 H 0.80109 0.74704 0.96564 0.0
H1064 H 0.56833 0.52931 0.75252 0.0
H1065 H 0.5712 0.53623 0.62418 0.0
H1066 H 0.50026 0.52406 0.64235 0.0
H1067 H 0.49736 0.51871 0.77013 0.0
H1068 H 0.56196 0.5139 0.52935 0.0
H1069 H 0.50903 0.58215 0.52176 0.0
H1070 H 0.51849 0.57067 0.60148 0.0
H1071 H 0.4938 0.55844 0.57555 0.0
C1072 C 0.55346 0.52793 0.72858 0.0
C1073 C 0.53263 0.52363 0.77008 0.0
C1074 C 0.55507 0.53203 0.65568 0.0
C1075 C 0.53586 0.53147 0.62404 0.0
C1076 C 0.51519 0.52558 0.66585 0.0
H1077 H 0.51971 0.49903 0.22885 0.0
H1078 H 0.52466 0.50199 0.34969 0.0
C1079 C 0.51354 0.52215 0.73851 0.0
C1080 C 0.53723 0.53643 0.54727 0.0
H1081 H 0.51109 0.56236 0.42071 0.0
C1082 C 0.55117 0.52484 0.50538 0.0
C1083 C 0.52386 0.55141 0.51554 0.0
C1084 C 0.51071 0.56655 0.55606 0.0
C1085 C 0.55072 0.52646 0.43327 0.0
C1086 C 0.53511 0.53909 0.40345 0.0
C1087 C 0.52254 0.55212 0.44415 0.0
C1088 C 0.53044 0.53767 0.33191 0.0
C1089 C 0.56681 0.51439 0.39026 0.0
C1090 C 0.53021 0.55683 0.2837 0.0
C1091 C 0.52637 0.55515 0.21552 0.0
C1092 C 0.5231 0.53431 0.1951 0.0
C1093 C 0.5224 0.51524 0.24396 0.0
C1094 C 0.52558 0.51693 0.31237 0.0
H1095 H 0.58247 0.51345 0.41265 0.0
H1096 H 0.55958 0.49723 0.39135 0.0
H1097 H 0.57073 0.52254 0.33485 0.0
H1098 H 0.5336 0.573 0.29822 0.0
H1099 H 0.52711 0.57001 0.17791 0.0
H1100 H 0.05755 0.54738 0.69527 0.0
H1101 H 0.05617 0.54855 0.82093 0.0
H1102 H 1.01237 0.48848 0.86749 0.0
H1103 H 1.0138 0.48697 0.74239 0.0
H1104 H 1.01548 0.5512 0.90627 0.0
H1105 H 0.05716 0.47869 0.00474 0.0
H1106 H 0.06104 0.49057 0.91318 0.0
H1107 H 0.03655 0.47275 0.95104 0.0
C1108 C 0.04804 0.53414 0.73228 0.0
C1109 C 0.03563 0.51718 0.70915 0.0
C1110 C 0.04726 0.53487 0.80385 0.0
C1111 C 0.03425 0.51856 0.85295 0.0
C1112 C 1.02275 0.50102 0.83014 0.0
H1113 H 0.99404 0.49959 0.30125 0.0
H1114 H 0.99556 0.49851 0.17552 0.0
C1115 C 1.02351 0.50027 0.75869 0.0
C1116 C 0.03074 0.52106 0.92755 0.0
H1117 H 0.03627 0.49596 0.09049 0.0
C1118 C 1.02016 0.53924 0.94667 0.0
C1119 C 0.03669 0.50526 0.97959 0.0
C1120 C 0.04866 0.4858 0.96125 0.0
C1121 C 1.01506 0.54191 0.01718 0.0
C1122 C 1.021 0.5261 0.06922 0.0
C1123 C 0.0316 0.50792 0.05009 0.0
C1124 C 1.01742 0.52855 0.14386 0.0
C1125 C 1.00307 0.56135 0.0355 0.0
C1126 C 0.02883 0.5461 0.16691 0.0
C1127 C 1.02799 0.5468 0.23842 0.0
C1128 C 1.01587 0.52984 0.28778 0.0
C1129 C 1.00354 0.51287 0.26439 0.0
C1130 C 1.00441 0.51219 0.19277 0.0
H1131 H 0.9946 0.56848 -0.00802 0.0
H1132 H 0.99067 0.55657 0.08352 0.0
H1133 H 1.01518 0.5744 0.04582 0.0
H1134 H 0.03922 0.55868 0.12971 0.0
H1135 H 0.03764 0.56011 0.25489 0.0
loop_
_geom_bond_atom_site_label_1
_geom_bond_atom_site_label_2
_geom_bond_distance
_geom_bond_site_symmetry_2
_ccdc_geom_bond_type
C0 O16 1.251 1_645 S
C0 O18 1.254 . S
N1 C2 1.333 . S
N1 C6 1.307 . S
N1 Zn7 2.020 . S
C2 N1 1.333 . S
C2 C3 1.379 . S
C2 H20 0.952 . S
C3 C2 1.379 . S
C3 C4 1.390 . S
C3 H30 0.949 . S
C4 C3 1.390 . S
C4 C5 1.357 . S
C5 C4 1.357 . S
C5 C6 1.370 . S
C5 H31 0.950 . S
C6 N1 1.307 . S
C6 C5 1.370 . S
C6 H24 0.948 . S
Zn7 N1 2.020 . S
Zn7 O16 2.039 . S
Zn7 O22 2.034 1_565 S
Zn7 O26 2.025 . S
Zn7 O28 2.024 1_455 S
C8 O27 1.246 . S
C8 O28 1.249 . S
N9 C10 1.307 . S
N9 C11 1.333 . S
N9 Zn15 2.020 . S
C10 N9 1.307 . S
C10 C14 1.370 . S
C10 H21 0.948 . S
C11 N9 1.333 . S
C11 C12 1.379 . S
C11 H19 0.952 . S
C12 C11 1.379 . S
C12 C13 1.390 . S
C12 H32 0.949 . S
C13 C12 1.390 . S
C13 C14 1.357 . S
C14 C10 1.370 . S
C14 C13 1.357 . S
C14 H33 0.950 . S
Zn15 N9 2.020 . S
Zn15 O18 2.025 . S
Zn15 O23 2.024 1_655 S
Zn15 O25 2.039 . S
Zn15 O27 2.034 1_545 S
O16 C0 1.251 1_465 S
O16 Zn7 2.039 . S
C17 O22 1.246 . S
C17 O23 1.249 . S
O18 C0 1.254 . S
O18 Zn15 2.025 . S
H19 C11 0.952 . S
H20 C2 0.952 . S
H21 C10 0.948 . S
O22 Zn7 2.034 1_545 S
O22 C17 1.246 . S
O23 Zn15 2.024 1_455 S
O23 C17 1.249 . S
H24 C6 0.948 . S
O25 Zn15 2.039 . S
O25 C29 1.251 1_645 S
O26 Zn7 2.025 . S
O26 C29 1.254 . S
O27 C8 1.246 . S
O27 Zn15 2.034 1_565 S
O28 Zn7 2.024 1_655 S
O28 C8 1.249 . S
C29 O25 1.251 1_465 S
C29 O26 1.254 . S
H30 C3 0.949 . S
H31 C5 0.950 . S
H32 C12 0.949 . S
H33 C14 0.950 . S
C34 O50 1.251 . S
C34 O52 1.254 . S
N35 C36 1.333 . S
N35 C40 1.307 . S
N35 Zn41 2.020 . S
C36 N35 1.333 . S
C36 C37 1.379 . S
C36 H54 0.952 . S
C37 C36 1.379 . S
C37 C38 1.390 . S
C37 H64 0.949 . S
C38 C37 1.390 . S
C38 C39 1.357 . S
C39 C38 1.357 . S
C39 C40 1.370 . S
C39 H65 0.950 . S
C40 N35 1.307 . S
C40 C39 1.370 . S
C40 H58 0.948 . S
Zn41 N35 2.020 . S
Zn41 O50 2.039 . S
Zn41 O56 2.034 . S
Zn41 O60 2.025 . S
Zn41 O62 2.024 . S
C42 O61 1.246 . S
C42 O62 1.249 . S
N43 C44 1.307 . S
N43 C45 1.333 . S
N43 Zn49 2.020 . S
C44 N43 1.307 . S
C44 C48 1.370 . S
C44 H55 0.948 . S
C45 N43 1.333 . S
C45 C46 1.379 . S
C45 H53 0.952 . S
C46 C45 1.379 . S
C46 C47 1.390 . S
C46 H66 0.949 . S
C47 C46 1.390 . S
C47 C48 1.357 . S
C48 C44 1.370 . S
C48 C47 1.357 . S
C48 H67 0.950 . S
Zn49 N43 2.020 . S
Zn49 O52 2.025 . S
Zn49 O57 2.024 . S
Zn49 O59 2.039 . S
Zn49 O61 2.034 . S
O50 C34 1.251 . S
O50 Zn41 2.039 . S
C51 O56 1.246 . S
C51 O57 1.249 . S
O52 C34 1.254 . S
O52 Zn49 2.025 . S
H53 C45 0.952 . S
H54 C36 0.952 . S
H55 C44 0.948 . S
O56 Zn41 2.034 . S
O56 C51 1.246 . S
O57 Zn49 2.024 . S
O57 C51 1.249 . S
H58 C40 0.948 . S
O59 Zn49 2.039 . S
O59 C63 1.251 . S
O60 Zn41 2.025 . S
O60 C63 1.254 . S
O61 C42 1.246 . S
O61 Zn49 2.034 . S
O62 Zn41 2.024 . S
O62 C42 1.249 . S
C63 O59 1.251 . S
C63 O60 1.254 . S
H64 C37 0.949 . S
H65 C39 0.950 . S
H66 C46 0.949 . S
H67 C48 0.950 . S
C68 O84 1.251 1_545 S
C68 O86 1.254 . S
N69 C70 1.333 . S
N69 C74 1.307 1_556 S
N69 Zn75 2.019 1_556 S
C70 N69 1.333 . S
C70 C71 1.379 . S
C70 H88 0.952 . S
C71 C70 1.379 . S
C71 C72 1.390 . S
C71 H98 0.949 . S
C72 C71 1.390 . S
C72 C73 1.357 1_556 S
C73 C72 1.357 1_554 S
C73 C74 1.370 . S
C73 H99 0.950 . S
C74 N69 1.307 1_554 S
C74 C73 1.370 . S
C74 H92 0.948 . S
Zn75 N69 2.019 1_554 S
Zn75 O84 2.035 1_554 S
Zn75 O90 2.034 1_565 S
Zn75 O94 2.030 . S
Zn75 O96 2.024 1_554 S
C76 O95 1.246 . S
C76 O96 1.249 . S
N77 C78 1.307 1_554 S
N77 C79 1.333 . S
N77 Zn83 2.020 1_554 S
C78 N77 1.307 1_556 S
C78 C82 1.370 . S
C78 H89 0.948 . S
C79 N77 1.333 . S
C79 C80 1.379 . S
C79 H87 0.952 . S
C80 C79 1.379 . S
C80 C81 1.390 . S
C80 H100 0.949 . S
C81 C80 1.390 . S
C81 C82 1.357 1_554 S
C82 C78 1.370 . S
C82 C81 1.357 1_556 S
C82 H101 0.950 . S
Zn83 N77 2.020 1_556 S
Zn83 O86 2.026 . S
Zn83 O91 2.024 1_556 S
Zn83 O93 2.039 1_556 S
Zn83 O95 2.034 1_545 S
O84 C68 1.251 1_565 S
O84 Zn75 2.035 1_556 S
C85 O90 1.246 . S
C85 O91 1.249 . S
O86 C68 1.254 . S
O86 Zn83 2.026 . S
H87 C79 0.952 . S
H88 C70 0.952 . S
H89 C78 0.948 . S
O90 Zn75 2.034 1_545 S
O90 C85 1.246 . S
O91 Zn83 2.024 1_554 S
O91 C85 1.249 . S
H92 C74 0.948 . S
O93 Zn83 2.039 1_554 S
O93 C97 1.251 1_545 S
O94 Zn75 2.030 . S
O94 C97 1.254 . S
O95 C76 1.246 . S
O95 Zn83 2.034 1_565 S
O96 Zn75 2.024 1_556 S
O96 C76 1.249 . S
C97 O93 1.251 1_565 S
C97 O94 1.254 . S
H98 C71 0.949 . S
H99 C73 0.950 . S
H100 C80 0.949 . S
H101 C82 0.950 . S
C102 O118 1.251 . S
C102 O120 1.254 . S
N103 C104 1.333 . S
N103 C108 1.307 . S
N103 Zn109 2.020 . S
C104 N103 1.333 . S
C104 C105 1.379 . S
C104 H122 0.952 . S
C105 C104 1.379 . S
C105 C106 1.390 . S
C105 H132 0.949 . S
C106 C105 1.390 . S
C106 C107 1.357 . S
C107 C106 1.357 . S
C107 C108 1.370 . S
C107 H133 0.950 . S
C108 N103 1.307 . S
C108 C107 1.370 . S
C108 H126 0.948 . S
Zn109 N103 2.020 . S
Zn109 O118 2.039 . S
Zn109 O124 2.034 . S
Zn109 O128 2.025 . S
Zn109 O130 2.024 . S
C110 O129 1.246 . S
C110 O130 1.249 . S
N111 C112 1.307 . S
N111 C113 1.333 . S
N111 Zn117 2.020 . S
C112 N111 1.307 . S
C112 C116 1.370 . S
C112 H123 0.948 . S
C113 N111 1.333 . S
C113 C114 1.379 . S
C113 H121 0.952 . S
C114 C113 1.379 . S
C114 C115 1.390 . S
C114 H134 0.949 . S
C115 C114 1.390 . S
C115 C116 1.357 . S
C116 C112 1.370 . S
C116 C115 1.357 . S
C116 H135 0.950 . S
Zn117 N111 2.020 . S
Zn117 O120 2.025 . S
Zn117 O125 2.024 . S
Zn117 O127 2.039 . S
Zn117 O129 2.034 . S
O118 C102 1.251 . S
O118 Zn109 2.039 . S
C119 O124 1.246 . S
C119 O125 1.249 . S
O120 C102 1.254 . S
O120 Zn117 2.025 . S
H121 C113 0.952 . S
H122 C104 0.952 . S
H123 C112 0.948 . S
O124 Zn109 2.034 . S
O124 C119 1.246 . S
O125 Zn117 2.024 . S
O125 C119 1.249 . S
H126 C108 0.948 . S
O127 Zn117 2.039 . S
O127 C131 1.251 . S
O128 Zn109 2.025 . S
O128 C131 1.254 . S
O129 C110 1.246 . S
O129 Zn117 2.034 . S
O130 Zn109 2.024 . S
O130 C110 1.249 . S
C131 O127 1.251 . S
C131 O128 1.254 . S
H132 C105 0.949 . S
H133 C107 0.950 . S
H134 C114 0.949 . S
H135 C116 0.950 . S
C136 O152 1.251 . S
C136 O154 1.254 . S
N137 C138 1.333 . S
N137 C142 1.307 . S
N137 Zn143 2.020 . S
C138 N137 1.333 . S
C138 C139 1.379 . S
C138 H156 0.952 . S
C139 C138 1.379 . S
C139 C140 1.390 . S
C139 H166 0.949 . S
C140 C139 1.390 . S
C140 C141 1.357 . S
C141 C140 1.357 . S
C141 C142 1.370 . S
C141 H167 0.950 . S
C142 N137 1.307 . S
C142 C141 1.370 . S
C142 H160 0.948 . S
Zn143 N137 2.020 . S
Zn143 O152 2.039 . S
Zn143 O158 2.034 . S
Zn143 O162 2.025 . S
Zn143 O164 2.024 . S
C144 O163 1.246 . S
C144 O164 1.249 . S
N145 C146 1.307 . S
N145 C147 1.333 . S
N145 Zn151 2.020 . S
C146 N145 1.307 . S
C146 C150 1.370 . S
C146 H157 0.948 . S
C147 N145 1.333 . S
C147 C148 1.379 . S
C147 H155 0.952 . S
C148 C147 1.379 . S
C148 C149 1.390 . S
C148 H168 0.949 . S
C149 C148 1.390 . S
C149 C150 1.357 . S
C150 C146 1.370 . S
C150 C149 1.357 . S
C150 H169 0.950 . S
Zn151 N145 2.020 . S
Zn151 O154 2.025 . S
Zn151 O159 2.024 . S
Zn151 O161 2.039 . S
Zn151 O163 2.034 . S
O152 C136 1.251 . S
O152 Zn143 2.039 . S
C153 O158 1.246 . S
C153 O159 1.249 . S
O154 C136 1.254 . S
O154 Zn151 2.025 . S
H155 C147 0.952 . S
H156 C138 0.952 . S
H157 C146 0.948 . S
O158 Zn143 2.034 . S
O158 C153 1.246 . S
O159 Zn151 2.024 . S
O159 C153 1.249 . S
H160 C142 0.948 . S
O161 Zn151 2.039 . S
O161 C165 1.251 . S
O162 Zn143 2.025 . S
O162 C165 1.254 . S
O163 C144 1.246 . S
O163 Zn151 2.034 . S
O164 Zn143 2.024 . S
O164 C144 1.249 . S
C165 O161 1.251 . S
C165 O162 1.254 . S
H166 C139 0.949 . S
H167 C141 0.950 . S
H168 C148 0.949 . S
H169 C150 0.950 . S
C170 O186 1.251 . S
C170 O188 1.254 . S
N171 C172 1.333 . S
N171 C176 1.307 . S
N171 Zn177 2.020 . S
C172 N171 1.333 . S
C172 C173 1.379 . S
C172 H190 0.952 . S
C173 C172 1.379 . S
C173 C174 1.390 . S
C173 H200 0.949 . S
C174 C173 1.390 . S
C174 C175 1.357 . S
C175 C174 1.357 . S
C175 C176 1.370 . S
C175 H201 0.950 . S
C176 N171 1.307 . S
C176 C175 1.370 . S
C176 H194 0.948 . S
Zn177 N171 2.020 . S
Zn177 O186 2.039 . S
Zn177 O192 2.034 . S
Zn177 O196 2.025 . S
Zn177 O198 2.024 . S
C178 O197 1.246 . S
C178 O198 1.249 . S
N179 C180 1.307 . S
N179 C181 1.333 . S
N179 Zn185 2.020 . S
C180 N179 1.307 . S
C180 C184 1.370 . S
C180 H191 0.948 . S
C181 N179 1.333 . S
C181 C182 1.379 . S
C181 H189 0.952 . S
C182 C181 1.379 . S
C182 C183 1.390 . S
C182 H202 0.949 . S
C183 C182 1.390 . S
C183 C184 1.357 . S
C184 C180 1.370 . S
C184 C183 1.357 . S
C184 H203 0.950 . S
Zn185 N179 2.020 . S
Zn185 O188 2.025 . S
Zn185 O193 2.024 . S
Zn185 O195 2.039 . S
Zn185 O197 2.034 . S
O186 C170 1.251 . S
O186 Zn177 2.039 . S
C187 O192 1.246 . S
C187 O193 1.249 . S
O188 C170 1.254 . S
O188 Zn185 2.025 . S
H189 C181 0.952 . S
H190 C172 0.952 . S
H191 C180 0.948 . S
O192 Zn177 2.034 . S
O192 C187 1.246 . S
O193 Zn185 2.024 . S
O193 C187 1.249 . S
H194 C176 0.948 . S
O195 Zn185 2.039 . S
O195 C199 1.251 . S
O196 Zn177 2.025 . S
O196 C199 1.254 . S
O197 C178 1.246 . S
O197 Zn185 2.034 . S
O198 Zn177 2.024 . S
O198 C178 1.249 . S
C199 O195 1.251 . S
C199 O196 1.254 . S
H200 C173 0.949 . S
H201 C175 0.950 . S
H202 C182 0.949 . S
H203 C184 0.950 . S
C204 O220 1.251 . S
C204 O222 1.254 . S
N205 C206 1.333 . S
N205 C210 1.307 1_554 S
N205 Zn211 2.020 . S
C206 N205 1.333 . S
C206 C207 1.379 . S
C206 H224 0.952 . S
C207 C206 1.379 . S
C207 C208 1.390 . S
C207 H234 0.949 . S
C208 C207 1.390 . S
C208 C209 1.357 1_554 S
C209 C208 1.357 1_556 S
C209 C210 1.370 . S
C209 H235 0.950 . S
C210 N205 1.307 1_556 S
C210 C209 1.370 . S
C210 H228 0.948 . S
Zn211 N205 2.020 . S
Zn211 O220 2.039 . S
Zn211 O226 2.034 1_554 S
Zn211 O230 2.025 1_554 S
Zn211 O232 2.024 . S
C212 O231 1.246 . S
C212 O232 1.249 . S
N213 C214 1.307 1_556 S
N213 C215 1.333 . S
N213 Zn219 2.020 . S
C214 N213 1.307 1_554 S
C214 C218 1.370 . S
C214 H225 0.948 . S
C215 N213 1.333 . S
C215 C216 1.379 . S
C215 H223 0.952 . S
C216 C215 1.379 . S
C216 C217 1.390 . S
C216 H236 0.949 . S
C217 C216 1.390 . S
C217 C218 1.357 1_556 S
C218 C214 1.370 . S
C218 C217 1.357 1_554 S
C218 H237 0.950 . S
Zn219 N213 2.020 . S
Zn219 O222 2.025 1_556 S
Zn219 O227 2.024 . S
Zn219 O229 2.039 . S
Zn219 O231 2.034 1_556 S
O220 C204 1.251 . S
O220 Zn211 2.039 . S
C221 O226 1.246 . S
C221 O227 1.249 . S
O222 C204 1.254 . S
O222 Zn219 2.025 1_554 S
H223 C215 0.952 . S
H224 C206 0.952 . S
H225 C214 0.948 . S
O226 Zn211 2.034 1_556 S
O226 C221 1.246 . S
O227 Zn219 2.024 . S
O227 C221 1.249 . S
H228 C210 0.948 . S
O229 Zn219 2.039 . S
O229 C233 1.251 . S
O230 Zn211 2.025 1_556 S
O230 C233 1.254 . S
O231 C212 1.246 . S
O231 Zn219 2.034 1_554 S
O232 Zn211 2.024 . S
O232 C212 1.249 . S
C233 O229 1.251 . S
C233 O230 1.254 . S
H234 C207 0.949 . S
H235 C209 0.950 . S
H236 C216 0.949 . S
H237 C218 0.950 . S
C238 O254 1.251 1_455 S
C238 O256 1.254 . S
N239 C240 1.333 . S
N239 C244 1.307 . S
N239 Zn245 2.020 . S
C240 N239 1.333 . S
C240 C241 1.379 . S
C240 H258 0.952 . S
C241 C240 1.379 . S
C241 C242 1.390 . S
C241 H268 0.949 . S
C242 C241 1.390 . S
C242 C243 1.357 . S
C243 C242 1.357 . S
C243 C244 1.370 . S
C243 H269 0.950 . S
C244 N239 1.307 . S
C244 C243 1.370 . S
C244 H262 0.948 . S
Zn245 N239 2.020 . S
Zn245 O254 2.039 . S
Zn245 O260 2.034 . S
Zn245 O264 2.025 . S
Zn245 O266 2.024 1_655 S
C246 O265 1.246 . S
C246 O266 1.249 . S
N247 C248 1.307 . S
N247 C249 1.333 . S
N247 Zn253 2.020 . S
C248 N247 1.307 . S
C248 C252 1.370 . S
C248 H259 0.948 . S
C249 N247 1.333 . S
C249 C250 1.379 . S
C249 H257 0.952 . S
C250 C249 1.379 . S
C250 C251 1.390 . S
C250 H270 0.949 . S
C251 C250 1.390 . S
C251 C252 1.357 . S
C252 C248 1.370 . S
C252 C251 1.357 . S
C252 H271 0.950 . S
Zn253 N247 2.020 . S
Zn253 O256 2.025 . S
Zn253 O261 2.024 1_455 S
Zn253 O263 2.039 . S
Zn253 O265 2.034 . S
O254 C238 1.251 1_655 S
O254 Zn245 2.039 . S
C255 O260 1.246 . S
C255 O261 1.249 . S
O256 C238 1.254 . S
O256 Zn253 2.025 . S
H257 C249 0.952 . S
H258 C240 0.952 . S
H259 C248 0.948 . S
O260 Zn245 2.034 . S
O260 C255 1.246 . S
O261 Zn253 2.024 1_655 S
O261 C255 1.249 . S
H262 C244 0.948 . S
O263 Zn253 2.039 . S
O263 C267 1.251 1_455 S
O264 Zn245 2.025 . S
O264 C267 1.254 . S
O265 C246 1.246 . S
O265 Zn253 2.034 . S
O266 Zn245 2.024 1_455 S
O266 C246 1.249 . S
C267 O263 1.251 1_655 S
C267 O264 1.254 . S
H268 C241 0.949 . S
H269 C243 0.950 . S
H270 C250 0.949 . S
H271 C252 0.950 . S
H272 C280 0.929 . S
H273 C282 0.930 . S
H274 C284 0.930 . S
H275 C287 0.929 . S
H276 C290 0.930 . S
H277 C292 0.960 . S
H278 C292 0.960 . S
H279 C292 0.960 . S
C280 H272 0.929 . S
C280 C281 1.377 . S
C280 C282 1.384 . S
C281 C280 1.377 . S
C281 C287 1.390 . S
C282 H273 0.930 . S
C282 C280 1.384 . S
C282 C283 1.372 . S
C283 C282 1.372 . S
C283 C284 1.400 . S
C283 C288 1.490 . S
C284 H274 0.930 . S
C284 C283 1.400 . S
C284 C287 1.386 . S
H285 C301 0.930 . S
H286 C302 0.931 . S
C287 H275 0.929 . S
C287 C281 1.390 . S
C287 C284 1.386 . S
C288 C283 1.490 . S
C288 C290 1.395 . S
C288 C291 1.403 . S
H289 C295 0.930 . S
C290 H276 0.930 . S
C290 C288 1.395 . S
C290 C293 1.403 . S
C291 C288 1.403 . S
C291 C292 1.524 . S
C291 C295 1.400 . S
C292 H277 0.960 . S
C292 H278 0.960 . S
C292 H279 0.960 . S
C292 C291 1.524 . S
C293 C290 1.403 . S
C293 C294 1.392 . S
C293 C297 1.495 . S
C294 C293 1.392 . S
C294 C295 1.385 . S
C294 C296 1.478 . S
C295 H289 0.930 . S
C295 C291 1.400 . S
C295 C294 1.385 . S
C296 C294 1.478 . S
C296 C298 1.381 . S
C296 C302 1.383 . S
C297 C293 1.495 . S
C297 H303 0.959 . S
C297 H304 0.961 . S
C297 H305 0.960 . S
C298 C296 1.381 . S
C298 C299 1.394 . S
C298 H306 0.930 . S
C299 C298 1.394 . S
C299 C300 1.383 . S
C299 H307 0.929 . S
C300 C299 1.383 . S
C300 C301 1.377 . S
C301 H285 0.930 . S
C301 C300 1.377 . S
C301 C302 1.379 . S
C302 H286 0.931 . S
C302 C296 1.383 . S
C302 C301 1.379 . S
H303 C297 0.959 . S
H304 C297 0.961 . S
H305 C297 0.960 . S
H306 C298 0.930 . S
H307 C299 0.929 . S
H308 C316 0.929 . S
H309 C318 0.930 . S
H310 C320 0.930 . S
H311 C323 0.929 . S
H312 C326 0.930 . S
H313 C328 0.960 . S
H314 C328 0.960 . S
H315 C328 0.960 . S
C316 H308 0.929 . S
C316 C317 1.377 . S
C316 C318 1.384 . S
C317 C316 1.377 . S
C317 C323 1.390 . S
C318 H309 0.930 . S
C318 C316 1.384 . S
C318 C319 1.372 . S
C319 C318 1.372 . S
C319 C320 1.400 . S
C319 C324 1.490 . S
C320 H310 0.930 . S
C320 C319 1.400 . S
C320 C323 1.386 . S
H321 C337 0.930 . S
H322 C338 0.931 . S
C323 H311 0.929 . S
C323 C317 1.390 . S
C323 C320 1.386 . S
C324 C319 1.490 . S
C324 C326 1.395 . S
C324 C327 1.403 . S
H325 C331 0.930 . S
C326 H312 0.930 . S
C326 C324 1.395 . S
C326 C329 1.403 . S
C327 C324 1.403 . S
C327 C328 1.524 . S
C327 C331 1.400 . S
C328 H313 0.960 . S
C328 H314 0.960 . S
C328 H315 0.960 . S
C328 C327 1.524 . S
C329 C326 1.403 . S
C329 C330 1.392 . S
C329 C333 1.495 . S
C330 C329 1.392 . S
C330 C331 1.385 . S
C330 C332 1.478 . S
C331 H325 0.930 . S
C331 C327 1.400 . S
C331 C330 1.385 . S
C332 C330 1.478 . S
C332 C334 1.381 . S
C332 C338 1.383 . S
C333 C329 1.495 . S
C333 H339 0.959 . S
C333 H340 0.961 . S
C333 H341 0.960 . S
C334 C332 1.381 . S
C334 C335 1.394 . S
C334 H342 0.930 . S
C335 C334 1.394 . S
C335 C336 1.383 . S
C335 H343 0.929 . S
C336 C335 1.383 . S
C336 C337 1.377 . S
C337 H321 0.930 . S
C337 C336 1.377 . S
C337 C338 1.379 . S
C338 H322 0.931 . S
C338 C332 1.383 . S
C338 C337 1.379 . S
H339 C333 0.959 . S
H340 C333 0.961 . S
H341 C333 0.960 . S
H342 C334 0.930 . S
H343 C335 0.929 . S
H344 C352 0.929 . S
H345 C354 0.930 . S
H346 C356 0.930 . S
H347 C359 0.929 . S
H348 C362 0.930 . S
H349 C364 0.960 . S
H350 C364 0.960 . S
H351 C364 0.960 . S
C352 H344 0.929 . S
C352 C353 1.377 . S
C352 C354 1.384 . S
C353 C352 1.377 . S
C353 C359 1.390 . S
C354 H345 0.930 . S
C354 C352 1.384 . S
C354 C355 1.372 . S
C355 C354 1.372 . S
C355 C356 1.400 . S
C355 C360 1.490 . S
C356 H346 0.930 . S
C356 C355 1.400 . S
C356 C359 1.386 . S
H357 C373 0.930 . S
H358 C374 0.931 1_554 S
C359 H347 0.929 . S
C359 C353 1.390 . S
C359 C356 1.386 . S
C360 C355 1.490 . S
C360 C362 1.395 . S
C360 C363 1.403 . S
H361 C367 0.930 . S
C362 H348 0.930 . S
C362 C360 1.395 . S
C362 C365 1.403 . S
C363 C360 1.403 . S
C363 C364 1.524 . S
C363 C367 1.400 . S
C364 H349 0.960 . S
C364 H350 0.960 . S
C364 H351 0.960 . S
C364 C363 1.524 . S
C365 C362 1.403 . S
C365 C366 1.392 . S
C365 C369 1.495 . S
C366 C365 1.392 . S
C366 C367 1.385 . S
C366 C368 1.478 . S
C367 H361 0.930 . S
C367 C363 1.400 . S
C367 C366 1.385 . S
C368 C366 1.478 . S
C368 C370 1.381 . S
C368 C374 1.383 . S
C369 C365 1.495 . S
C369 H375 0.959 . S
C369 H376 0.961 . S
C369 H377 0.960 . S
C370 C368 1.381 . S
C370 C371 1.394 . S
C370 H378 0.930 . S
C371 C370 1.394 . S
C371 C372 1.383 . S
C371 H379 0.929 . S
C372 C371 1.383 . S
C372 C373 1.377 1_556 S
C373 H357 0.930 . S
C373 C372 1.377 1_554 S
C373 C374 1.379 1_554 S
C374 H358 0.931 1_556 S
C374 C368 1.383 . S
C374 C373 1.379 1_556 S
H375 C369 0.959 . S
H376 C369 0.961 . S
H377 C369 0.960 . S
H378 C370 0.930 . S
H379 C371 0.929 . S
H380 C388 0.929 . S
H381 C390 0.930 1_556 S
H382 C392 0.930 . S
H383 C395 0.929 . S
H384 C398 0.930 . S
H385 C400 0.960 . S
H386 C400 0.960 . S
H387 C400 0.960 . S
C388 H380 0.929 . S
C388 C389 1.377 1_556 S
C388 C390 1.384 1_556 S
C389 C388 1.377 1_554 S
C389 C395 1.390 . S
C390 H381 0.930 1_554 S
C390 C388 1.384 1_554 S
C390 C391 1.372 . S
C391 C390 1.372 . S
C391 C392 1.400 . S
C391 C396 1.490 . S
C392 H382 0.930 . S
C392 C391 1.400 . S
C392 C395 1.386 . S
H393 C409 0.930 . S
H394 C410 0.931 . S
C395 H383 0.929 . S
C395 C389 1.390 . S
C395 C392 1.386 . S
C396 C391 1.490 . S
C396 C398 1.395 . S
C396 C399 1.403 . S
H397 C403 0.930 . S
C398 H384 0.930 . S
C398 C396 1.395 . S
C398 C401 1.403 . S
C399 C396 1.403 . S
C399 C400 1.524 . S
C399 C403 1.400 . S
C400 H385 0.960 . S
C400 H386 0.960 . S
C400 H387 0.960 . S
C400 C399 1.524 . S
C401 C398 1.403 . S
C401 C402 1.392 . S
C401 C405 1.495 . S
C402 C401 1.392 . S
C402 C403 1.385 . S
C402 C404 1.478 . S
C403 H397 0.930 . S
C403 C399 1.400 . S
C403 C402 1.385 . S
C404 C402 1.478 . S
C404 C406 1.381 . S
C404 C410 1.383 . S
C405 C401 1.495 . S
C405 H411 0.959 . S
C405 H412 0.961 . S
C405 H413 0.960 . S
C406 C404 1.381 . S
C406 C407 1.394 . S
C406 H414 0.930 . S
C407 C406 1.394 . S
C407 C408 1.383 . S
C407 H415 0.929 . S
C408 C407 1.383 . S
C408 C409 1.377 . S
C409 H393 0.930 . S
C409 C408 1.377 . S
C409 C410 1.379 . S
C410 H394 0.931 . S
C410 C404 1.383 . S
C410 C409 1.379 . S
H411 C405 0.959 . S
H412 C405 0.961 . S
H413 C405 0.960 . S
H414 C406 0.930 . S
H415 C407 0.929 . S
H416 C424 0.929 . S
H417 C426 0.930 . S
H418 C428 0.930 . S
H419 C431 0.929 . S
H420 C434 0.930 . S
H421 C436 0.960 . S
H422 C436 0.960 . S
H423 C436 0.960 . S
C424 H416 0.929 . S
C424 C425 1.377 . S
C424 C426 1.384 . S
C425 C424 1.377 . S
C425 C431 1.390 . S
C426 H417 0.930 . S
C426 C424 1.384 . S
C426 C427 1.372 . S
C427 C426 1.372 . S
C427 C428 1.400 . S
C427 C432 1.490 . S
C428 H418 0.930 . S
C428 C427 1.400 . S
C428 C431 1.386 . S
H429 C445 0.930 . S
H430 C446 0.931 . S
C431 H419 0.929 . S
C431 C425 1.390 . S
C431 C428 1.386 . S
C432 C427 1.490 . S
C432 C434 1.395 . S
C432 C435 1.403 . S
H433 C439 0.930 . S
C434 H420 0.930 . S
C434 C432 1.395 . S
C434 C437 1.403 . S
C435 C432 1.403 . S
C435 C436 1.524 . S
C435 C439 1.400 . S
C436 H421 0.960 . S
C436 H422 0.960 . S
C436 H423 0.960 . S
C436 C435 1.524 . S
C437 C434 1.403 . S
C437 C438 1.392 . S
C437 C441 1.495 . S
C438 C437 1.392 . S
C438 C439 1.385 . S
C438 C440 1.478 . S
C439 H433 0.930 . S
C439 C435 1.400 . S
C439 C438 1.385 . S
C440 C438 1.478 . S
C440 C442 1.381 . S
C440 C446 1.383 . S
C441 C437 1.495 . S
C441 H447 0.959 . S
C441 H448 0.961 . S
C441 H449 0.960 . S
C442 C440 1.381 . S
C442 C443 1.394 . S
C442 H450 0.930 . S
C443 C442 1.394 . S
C443 C444 1.383 . S
C443 H451 0.929 . S
C444 C443 1.383 . S
C444 C445 1.377 . S
C445 H429 0.930 . S
C445 C444 1.377 . S
C445 C446 1.379 . S
C446 H430 0.931 . S
C446 C440 1.383 . S
C446 C445 1.379 . S
H447 C441 0.959 . S
H448 C441 0.961 . S
H449 C441 0.960 . S
H450 C442 0.930 . S
H451 C443 0.929 . S
H452 C460 0.929 . S
H453 C462 0.930 . S
H454 C464 0.930 . S
H455 C467 0.929 . S
H456 C470 0.930 . S
H457 C472 0.960 . S
H458 C472 0.960 . S
H459 C472 0.960 . S
C460 H452 0.929 . S
C460 C461 1.377 . S
C460 C462 1.384 . S
C461 C460 1.377 . S
C461 C467 1.390 . S
C462 H453 0.930 . S
C462 C460 1.384 . S
C462 C463 1.372 . S
C463 C462 1.372 . S
C463 C464 1.400 . S
C463 C468 1.490 . S
C464 H454 0.930 . S
C464 C463 1.400 . S
C464 C467 1.386 . S
H465 C481 0.930 . S
H466 C482 0.931 . S
C467 H455 0.929 . S
C467 C461 1.390 . S
C467 C464 1.386 . S
C468 C463 1.490 . S
C468 C470 1.395 . S
C468 C471 1.403 . S
H469 C475 0.930 . S
C470 H456 0.930 . S
C470 C468 1.395 . S
C470 C473 1.403 . S
C471 C468 1.403 . S
C471 C472 1.524 . S
C471 C475 1.400 . S
C472 H457 0.960 . S
C472 H458 0.960 . S
C472 H459 0.960 . S
C472 C471 1.524 . S
C473 C470 1.403 . S
C473 C474 1.392 . S
C473 C477 1.495 . S
C474 C473 1.392 . S
C474 C475 1.385 . S
C474 C476 1.478 . S
C475 H469 0.930 . S
C475 C471 1.400 . S
C475 C474 1.385 . S
C476 C474 1.478 . S
C476 C478 1.381 . S
C476 C482 1.383 . S
C477 C473 1.495 . S
C477 H483 0.959 . S
C477 H484 0.961 . S
C477 H485 0.960 . S
C478 C476 1.381 . S
C478 C479 1.394 . S
C478 H486 0.930 . S
C479 C478 1.394 . S
C479 C480 1.383 . S
C479 H487 0.929 . S
C480 C479 1.383 . S
C480 C481 1.377 . S
C481 H465 0.930 . S
C481 C480 1.377 . S
C481 C482 1.379 . S
C482 H466 0.931 . S
C482 C476 1.383 . S
C482 C481 1.379 . S
H483 C477 0.959 . S
H484 C477 0.961 . S
H485 C477 0.960 . S
H486 C478 0.930 . S
H487 C479 0.929 . S
H488 C496 0.929 . S
H489 C498 0.930 . S
H490 C500 0.930 . S
H491 C503 0.929 . S
H492 C506 0.930 . S
H493 C508 0.960 . S
H494 C508 0.960 . S
H495 C508 0.960 . S
C496 H488 0.929 . S
C496 C497 1.377 . S
C496 C498 1.384 . S
C497 C496 1.377 . S
C497 C503 1.390 . S
C498 H489 0.930 . S
C498 C496 1.384 . S
C498 C499 1.372 . S
C499 C498 1.372 . S
C499 C500 1.400 . S
C499 C504 1.490 . S
C500 H490 0.930 . S
C500 C499 1.400 . S
C500 C503 1.386 . S
H501 C517 0.930 . S
H502 C518 0.931 1_556 S
C503 H491 0.929 . S
C503 C497 1.390 . S
C503 C500 1.386 . S
C504 C499 1.490 . S
C504 C506 1.395 . S
C504 C507 1.403 . S
H505 C511 0.930 . S
C506 H492 0.930 . S
C506 C504 1.395 . S
C506 C509 1.403 . S
C507 C504 1.403 . S
C507 C508 1.524 . S
C507 C511 1.400 . S
C508 H493 0.960 . S
C508 H494 0.960 . S
C508 H495 0.960 . S
C508 C507 1.524 . S
C509 C506 1.403 . S
C509 C510 1.392 . S
C509 C513 1.495 . S
C510 C509 1.392 . S
C510 C511 1.385 . S
C510 C512 1.478 . S
C511 H505 0.930 . S
C511 C507 1.400 . S
C511 C510 1.385 . S
C512 C510 1.478 . S
C512 C514 1.381 . S
C512 C518 1.383 . S
C513 C509 1.495 . S
C513 H519 0.959 . S
C513 H520 0.961 . S
C513 H521 0.960 . S
C514 C512 1.381 . S
C514 C515 1.394 . S
C514 H522 0.930 . S
C515 C514 1.394 . S
C515 C516 1.383 . S
C515 H523 0.929 . S
C516 C515 1.383 . S
C516 C517 1.377 1_554 S
C517 H501 0.930 . S
C517 C516 1.377 1_556 S
C517 C518 1.379 1_556 S
C518 H502 0.931 1_554 S
C518 C512 1.383 . S
C518 C517 1.379 1_554 S
H519 C513 0.959 . S
H520 C513 0.961 . S
H521 C513 0.960 . S
H522 C514 0.930 . S
H523 C515 0.929 . S
H524 C532 0.929 . S
H525 C534 0.930 . S
H526 C536 0.930 . S
H527 C539 0.929 . S
H528 C542 0.930 . S
H529 C544 0.960 . S
H530 C544 0.960 . S
H531 C544 0.960 . S
C532 H524 0.929 . S
C532 C533 1.377 . S
C532 C534 1.384 . S
C533 C532 1.377 . S
C533 C539 1.390 . S
C534 H525 0.930 . S
C534 C532 1.384 . S
C534 C535 1.372 . S
C535 C534 1.372 . S
C535 C536 1.400 . S
C535 C540 1.490 . S
C536 H526 0.930 . S
C536 C535 1.400 . S
C536 C539 1.386 . S
H537 C553 0.930 . S
H538 C554 0.931 . S
C539 H527 0.929 . S
C539 C533 1.390 . S
C539 C536 1.386 . S
C540 C535 1.490 . S
C540 C542 1.395 . S
C540 C543 1.403 . S
H541 C547 0.930 . S
C542 H528 0.930 . S
C542 C540 1.395 . S
C542 C545 1.403 . S
C543 C540 1.403 . S
C543 C544 1.524 . S
C543 C547 1.400 . S
C544 H529 0.960 . S
C544 H530 0.960 . S
C544 H531 0.960 . S
C544 C543 1.524 . S
C545 C542 1.403 . S
C545 C546 1.392 . S
C545 C549 1.495 . S
C546 C545 1.392 . S
C546 C547 1.385 . S
C546 C548 1.478 . S
C547 H541 0.930 . S
C547 C543 1.400 . S
C547 C546 1.385 . S
C548 C546 1.478 . S
C548 C550 1.381 . S
C548 C554 1.383 . S
C549 C545 1.495 . S
C549 H555 0.959 . S
C549 H556 0.961 . S
C549 H557 0.960 . S
C550 C548 1.381 . S
C550 C551 1.394 1_556 S
C550 H558 0.930 1_556 S
C551 C550 1.394 1_554 S
C551 C552 1.383 1_554 S
C551 H559 0.929 . S
C552 C551 1.383 1_556 S
C552 C553 1.377 . S
C553 H537 0.930 . S
C553 C552 1.377 . S
C553 C554 1.379 . S
C554 H538 0.931 . S
C554 C548 1.383 . S
C554 C553 1.379 . S
H555 C549 0.959 . S
H556 C549 0.961 . S
H557 C549 0.960 . S
H558 C550 0.930 1_554 S
H559 C551 0.929 . S
H560 C568 0.929 1_554 S
H561 C570 0.930 1_554 S
H562 C572 0.930 . S
H563 C575 0.929 . S
H564 C578 0.930 . S
H565 C580 0.960 . S
H566 C580 0.960 . S
H567 C580 0.960 . S
C568 H560 0.929 1_556 S
C568 C569 1.377 . S
C568 C570 1.384 . S
C569 C568 1.377 . S
C569 C575 1.390 . S
C570 H561 0.930 1_556 S
C570 C568 1.384 . S
C570 C571 1.372 . S
C571 C570 1.372 . S
C571 C572 1.400 . S
C571 C576 1.490 . S
C572 H562 0.930 . S
C572 C571 1.400 . S
C572 C575 1.386 . S
H573 C589 0.930 . S
H574 C590 0.931 . S
C575 H563 0.929 . S
C575 C569 1.390 . S
C575 C572 1.386 . S
C576 C571 1.490 . S
C576 C578 1.395 . S
C576 C579 1.403 . S
H577 C583 0.930 . S
C578 H564 0.930 . S
C578 C576 1.395 . S
C578 C581 1.403 . S
C579 C576 1.403 . S
C579 C580 1.524 . S
C579 C583 1.400 . S
C580 H565 0.960 . S
C580 H566 0.960 . S
C580 H567 0.960 . S
C580 C579 1.524 . S
C581 C578 1.403 . S
C581 C582 1.392 . S
C581 C585 1.495 . S
C582 C581 1.392 . S
C582 C583 1.385 . S
C582 C584 1.478 . S
C583 H577 0.930 . S
C583 C579 1.400 . S
C583 C582 1.385 . S
C584 C582 1.478 . S
C584 C586 1.381 . S
C584 C590 1.383 . S
C585 C581 1.495 . S
C585 H591 0.959 . S
C585 H592 0.961 . S
C585 H593 0.960 . S
C586 C584 1.381 . S
C586 C587 1.394 . S
C586 H594 0.930 . S
C587 C586 1.394 . S
C587 C588 1.383 . S
C587 H595 0.929 . S
C588 C587 1.383 . S
C588 C589 1.377 . S
C589 H573 0.930 . S
C589 C588 1.377 . S
C589 C590 1.379 . S
C590 H574 0.931 . S
C590 C584 1.383 . S
C590 C589 1.379 . S
H591 C585 0.959 . S
H592 C585 0.961 . S
H593 C585 0.960 . S
H594 C586 0.930 . S
H595 C587 0.929 . S
H596 C604 0.929 . S
H597 C606 0.930 . S
H598 C608 0.930 . S
H599 C611 0.929 . S
H600 C614 0.930 . S
H601 C616 0.960 . S
H602 C616 0.960 . S
H603 C616 0.960 . S
C604 H596 0.929 . S
C604 C605 1.377 . S
C604 C606 1.384 . S
C605 C604 1.377 . S
C605 C611 1.390 . S
C606 H597 0.930 . S
C606 C604 1.384 . S
C606 C607 1.372 . S
C607 C606 1.372 . S
C607 C608 1.400 . S
C607 C612 1.490 . S
C608 H598 0.930 . S
C608 C607 1.400 . S
C608 C611 1.386 . S
H609 C625 0.930 . S
H610 C626 0.931 . S
C611 H599 0.929 . S
C611 C605 1.390 . S
C611 C608 1.386 . S
C612 C607 1.490 . S
C612 C614 1.395 . S
C612 C615 1.403 . S
H613 C619 0.930 . S
C614 H600 0.930 . S
C614 C612 1.395 . S
C614 C617 1.403 . S
C615 C612 1.403 . S
C615 C616 1.524 . S
C615 C619 1.400 . S
C616 H601 0.960 . S
C616 H602 0.960 . S
C616 H603 0.960 . S
C616 C615 1.524 . S
C617 C614 1.403 . S
C617 C618 1.392 . S
C617 C621 1.495 . S
C618 C617 1.392 . S
C618 C619 1.385 . S
C618 C620 1.478 . S
C619 H613 0.930 . S
C619 C615 1.400 . S
C619 C618 1.385 . S
C620 C618 1.478 . S
C620 C622 1.381 . S
C620 C626 1.383 . S
C621 C617 1.495 . S
C621 H627 0.959 . S
C621 H628 0.961 . S
C621 H629 0.960 . S
C622 C620 1.381 . S
C622 C623 1.394 . S
C622 H630 0.930 . S
C623 C622 1.394 . S
C623 C624 1.383 . S
C623 H631 0.929 1_554 S
C624 C623 1.383 . S
C624 C625 1.377 . S
C625 H609 0.930 . S
C625 C624 1.377 . S
C625 C626 1.379 . S
C626 H610 0.931 . S
C626 C620 1.383 . S
C626 C625 1.379 . S
H627 C621 0.959 . S
H628 C621 0.961 . S
H629 C621 0.960 . S
H630 C622 0.930 . S
H631 C623 0.929 1_556 S
H632 C640 0.929 . S
H633 C642 0.930 . S
H634 C644 0.930 . S
H635 C647 0.929 . S
H636 C650 0.930 . S
H637 C652 0.960 . S
H638 C652 0.960 . S
H639 C652 0.960 . S
C640 H632 0.929 . S
C640 C641 1.377 . S
C640 C642 1.384 . S
C641 C640 1.377 . S
C641 C647 1.390 . S
C642 H633 0.930 . S
C642 C640 1.384 . S
C642 C643 1.372 . S
C643 C642 1.372 . S
C643 C644 1.400 . S
C643 C648 1.490 . S
C644 H634 0.930 . S
C644 C643 1.400 . S
C644 C647 1.386 . S
H645 C661 0.930 . S
H646 C662 0.931 . S
C647 H635 0.929 . S
C647 C641 1.390 . S
C647 C644 1.386 . S
C648 C643 1.490 . S
C648 C650 1.395 . S
C648 C651 1.403 . S
H649 C655 0.930 . S
C650 H636 0.930 . S
C650 C648 1.395 . S
C650 C653 1.403 . S
C651 C648 1.403 . S
C651 C652 1.524 . S
C651 C655 1.400 . S
C652 H637 0.960 . S
C652 H638 0.960 . S
C652 H639 0.960 . S
C652 C651 1.524 . S
C653 C650 1.403 . S
C653 C654 1.392 . S
C653 C657 1.495 . S
C654 C653 1.392 . S
C654 C655 1.385 . S
C654 C656 1.478 . S
C655 H649 0.930 . S
C655 C651 1.400 . S
C655 C654 1.385 . S
C656 C654 1.478 . S
C656 C658 1.381 . S
C656 C662 1.383 . S
C657 C653 1.495 . S
C657 H663 0.959 . S
C657 H664 0.961 . S
C657 H665 0.960 . S
C658 C656 1.381 . S
C658 C659 1.394 . S
C658 H666 0.930 . S
C659 C658 1.394 . S
C659 C660 1.383 . S
C659 H667 0.929 . S
C660 C659 1.383 . S
C660 C661 1.377 . S
C661 H645 0.930 . S
C661 C660 1.377 . S
C661 C662 1.379 . S
C662 H646 0.931 . S
C662 C656 1.383 . S
C662 C661 1.379 . S
H663 C657 0.959 . S
H664 C657 0.961 . S
H665 C657 0.960 . S
H666 C658 0.930 . S
H667 C659 0.929 . S
H668 C676 0.929 . S
H669 C678 0.930 . S
H670 C680 0.930 . S
H671 C683 0.929 . S
H672 C686 0.930 . S
H673 C688 0.960 . S
H674 C688 0.960 . S
H675 C688 0.960 . S
C676 H668 0.929 . S
C676 C677 1.377 . S
C676 C678 1.384 . S
C677 C676 1.377 . S
C677 C683 1.390 . S
C678 H669 0.930 . S
C678 C676 1.384 . S
C678 C679 1.372 . S
C679 C678 1.372 . S
C679 C680 1.400 . S
C679 C684 1.490 . S
C680 H670 0.930 . S
C680 C679 1.400 . S
C680 C683 1.386 . S
H681 C697 0.930 . S
H682 C698 0.931 . S
C683 H671 0.929 . S
C683 C677 1.390 . S
C683 C680 1.386 . S
C684 C679 1.490 . S
C684 C686 1.395 . S
C684 C687 1.403 . S
H685 C691 0.930 . S
C686 H672 0.930 . S
C686 C684 1.395 . S
C686 C689 1.403 . S
C687 C684 1.403 . S
C687 C688 1.524 . S
C687 C691 1.400 . S
C688 H673 0.960 . S
C688 H674 0.960 . S
C688 H675 0.960 . S
C688 C687 1.524 . S
C689 C686 1.403 . S
C689 C690 1.392 . S
C689 C693 1.495 . S
C690 C689 1.392 . S
C690 C691 1.385 . S
C690 C692 1.478 . S
C691 H685 0.930 . S
C691 C687 1.400 . S
C691 C690 1.385 . S
C692 C690 1.478 . S
C692 C694 1.381 . S
C692 C698 1.383 . S
C693 C689 1.495 . S
C693 H699 0.959 . S
C693 H700 0.961 . S
C693 H701 0.960 . S
C694 C692 1.381 . S
C694 C695 1.394 . S
C694 H702 0.930 . S
C695 C694 1.394 . S
C695 C696 1.383 . S
C695 H703 0.929 . S
C696 C695 1.383 . S
C696 C697 1.377 . S
C697 H681 0.930 . S
C697 C696 1.377 . S
C697 C698 1.379 . S
C698 H682 0.931 . S
C698 C692 1.383 . S
C698 C697 1.379 . S
H699 C693 0.959 . S
H700 C693 0.961 . S
H701 C693 0.960 . S
H702 C694 0.930 . S
H703 C695 0.929 . S
H704 C712 0.929 . S
H705 C714 0.930 . S
H706 C716 0.930 . S
H707 C719 0.929 . S
H708 C722 0.930 . S
H709 C724 0.960 . S
H710 C724 0.960 . S
H711 C724 0.960 . S
C712 H704 0.929 . S
C712 C713 1.377 . S
C712 C714 1.384 . S
C713 C712 1.377 . S
C713 C719 1.390 . S
C714 H705 0.930 . S
C714 C712 1.384 . S
C714 C715 1.372 . S
C715 C714 1.372 . S
C715 C716 1.400 . S
C715 C720 1.490 . S
C716 H706 0.930 . S
C716 C715 1.400 . S
C716 C719 1.386 . S
H717 C733 0.930 1_556 S
H718 C734 0.931 1_556 S
C719 H707 0.929 . S
C719 C713 1.390 . S
C719 C716 1.386 . S
C720 C715 1.490 . S
C720 C722 1.395 . S
C720 C723 1.403 . S
H721 C727 0.930 . S
C722 H708 0.930 . S
C722 C720 1.395 . S
C722 C725 1.403 . S
C723 C720 1.403 . S
C723 C724 1.524 . S
C723 C727 1.400 . S
C724 H709 0.960 . S
C724 H710 0.960 . S
C724 H711 0.960 . S
C724 C723 1.524 . S
C725 C722 1.403 . S
C725 C726 1.392 . S
C725 C729 1.495 . S
C726 C725 1.392 . S
C726 C727 1.385 . S
C726 C728 1.478 . S
C727 H721 0.930 . S
C727 C723 1.400 . S
C727 C726 1.385 . S
C728 C726 1.478 . S
C728 C730 1.381 . S
C728 C734 1.383 . S
C729 C725 1.495 . S
C729 H735 0.959 . S
C729 H736 0.961 . S
C729 H737 0.960 . S
C730 C728 1.381 . S
C730 C731 1.394 . S
C730 H738 0.930 . S
C731 C730 1.394 . S
C731 C732 1.383 . S
C731 H739 0.929 . S
C732 C731 1.383 . S
C732 C733 1.377 . S
C733 H717 0.930 1_554 S
C733 C732 1.377 . S
C733 C734 1.379 . S
C734 H718 0.931 1_554 S
C734 C728 1.383 . S
C734 C733 1.379 . S
H735 C729 0.959 . S
H736 C729 0.961 . S
H737 C729 0.960 . S
H738 C730 0.930 . S
H739 C731 0.929 . S
H740 C748 0.929 1_554 S
H741 C750 0.930 . S
H742 C752 0.930 . S
H743 C755 0.929 . S
H744 C758 0.930 . S
H745 C760 0.960 . S
H746 C760 0.960 . S
H747 C760 0.960 . S
C748 H740 0.929 1_556 S
C748 C749 1.377 . S
C748 C750 1.384 . S
C749 C748 1.377 . S
C749 C755 1.390 . S
C750 H741 0.930 . S
C750 C748 1.384 . S
C750 C751 1.372 . S
C751 C750 1.372 . S
C751 C752 1.400 . S
C751 C756 1.490 . S
C752 H742 0.930 . S
C752 C751 1.400 . S
C752 C755 1.386 . S
H753 C769 0.930 . S
H754 C770 0.931 . S
C755 H743 0.929 . S
C755 C749 1.390 . S
C755 C752 1.386 . S
C756 C751 1.490 . S
C756 C758 1.395 . S
C756 C759 1.403 . S
H757 C763 0.930 . S
C758 H744 0.930 . S
C758 C756 1.395 . S
C758 C761 1.403 . S
C759 C756 1.403 . S
C759 C760 1.524 . S
C759 C763 1.400 . S
C760 H745 0.960 . S
C760 H746 0.960 . S
C760 H747 0.960 . S
C760 C759 1.524 . S
C761 C758 1.403 . S
C761 C762 1.392 . S
C761 C765 1.495 . S
C762 C761 1.392 . S
C762 C763 1.385 . S
C762 C764 1.478 . S
C763 H757 0.930 . S
C763 C759 1.400 . S
C763 C762 1.385 . S
C764 C762 1.478 . S
C764 C766 1.381 . S
C764 C770 1.383 . S
C765 C761 1.495 . S
C765 H771 0.959 . S
C765 H772 0.961 . S
C765 H773 0.960 . S
C766 C764 1.381 . S
C766 C767 1.394 . S
C766 H774 0.930 . S
C767 C766 1.394 . S
C767 C768 1.383 . S
C767 H775 0.929 . S
C768 C767 1.383 . S
C768 C769 1.377 . S
C769 H753 0.930 . S
C769 C768 1.377 . S
C769 C770 1.379 . S
C770 H754 0.931 . S
C770 C764 1.383 . S
C770 C769 1.379 . S
H771 C765 0.959 . S
H772 C765 0.961 . S
H773 C765 0.960 . S
H774 C766 0.930 . S
H775 C767 0.929 . S
H776 C784 0.929 . S
H777 C786 0.930 . S
H778 C788 0.930 . S
H779 C791 0.929 . S
H780 C794 0.930 . S
H781 C796 0.960 . S
H782 C796 0.960 . S
H783 C796 0.960 . S
C784 H776 0.929 . S
C784 C785 1.377 . S
C784 C786 1.384 . S
C785 C784 1.377 . S
C785 C791 1.390 . S
C786 H777 0.930 . S
C786 C784 1.384 . S
C786 C787 1.372 . S
C787 C786 1.372 . S
C787 C788 1.400 . S
C787 C792 1.490 . S
C788 H778 0.930 . S
C788 C787 1.400 . S
C788 C791 1.386 . S
H789 C805 0.930 . S
H790 C806 0.931 . S
C791 H779 0.929 . S
C791 C785 1.390 . S
C791 C788 1.386 . S
C792 C787 1.490 . S
C792 C794 1.395 . S
C792 C795 1.403 . S
H793 C799 0.930 . S
C794 H780 0.930 . S
C794 C792 1.395 . S
C794 C797 1.403 . S
C795 C792 1.403 . S
C795 C796 1.524 . S
C795 C799 1.400 . S
C796 H781 0.960 . S
C796 H782 0.960 . S
C796 H783 0.960 . S
C796 C795 1.524 . S
C797 C794 1.403 . S
C797 C798 1.392 . S
C797 C801 1.495 . S
C798 C797 1.392 . S
C798 C799 1.385 . S
C798 C800 1.478 . S
C799 H793 0.930 . S
C799 C795 1.400 . S
C799 C798 1.385 . S
C800 C798 1.478 . S
C800 C802 1.381 . S
C800 C806 1.383 . S
C801 C797 1.495 . S
C801 H807 0.959 . S
C801 H808 0.961 . S
C801 H809 0.960 . S
C802 C800 1.381 . S
C802 C803 1.394 . S
C802 H810 0.930 . S
C803 C802 1.394 . S
C803 C804 1.383 . S
C803 H811 0.929 . S
C804 C803 1.383 . S
C804 C805 1.377 . S
C805 H789 0.930 . S
C805 C804 1.377 . S
C805 C806 1.379 . S
C806 H790 0.931 . S
C806 C800 1.383 . S
C806 C805 1.379 . S
H807 C801 0.959 . S
H808 C801 0.961 . S
H809 C801 0.960 . S
H810 C802 0.930 . S
H811 C803 0.929 . S
H812 C820 0.929 . S
H813 C822 0.930 . S
H814 C824 0.930 . S
H815 C827 0.929 . S
H816 C830 0.930 . S
H817 C832 0.960 . S
H818 C832 0.960 . S
H819 C832 0.960 . S
C820 H812 0.929 . S
C820 C821 1.377 . S
C820 C822 1.384 . S
C821 C820 1.377 . S
C821 C827 1.390 . S
C822 H813 0.930 . S
C822 C820 1.384 . S
C822 C823 1.372 . S
C823 C822 1.372 . S
C823 C824 1.400 . S
C823 C828 1.490 . S
C824 H814 0.930 . S
C824 C823 1.400 . S
C824 C827 1.386 . S
H825 C841 0.930 . S
H826 C842 0.931 . S
C827 H815 0.929 . S
C827 C821 1.390 . S
C827 C824 1.386 . S
C828 C823 1.490 . S
C828 C830 1.395 . S
C828 C831 1.403 . S
H829 C835 0.930 . S
C830 H816 0.930 . S
C830 C828 1.395 . S
C830 C833 1.403 . S
C831 C828 1.403 . S
C831 C832 1.524 . S
C831 C835 1.400 . S
C832 H817 0.960 . S
C832 H818 0.960 . S
C832 H819 0.960 . S
C832 C831 1.524 . S
C833 C830 1.403 . S
C833 C834 1.392 . S
C833 C837 1.495 . S
C834 C833 1.392 . S
C834 C835 1.385 . S
C834 C836 1.478 . S
C835 H829 0.930 . S
C835 C831 1.400 . S
C835 C834 1.385 . S
C836 C834 1.478 . S
C836 C838 1.381 . S
C836 C842 1.383 . S
C837 C833 1.495 . S
C837 H843 0.959 . S
C837 H844 0.961 . S
C837 H845 0.960 . S
C838 C836 1.381 . S
C838 C839 1.394 . S
C838 H846 0.930 . S
C839 C838 1.394 . S
C839 C840 1.383 . S
C839 H847 0.929 . S
C840 C839 1.383 . S
C840 C841 1.377 . S
C841 H825 0.930 . S
C841 C840 1.377 . S
C841 C842 1.379 . S
C842 H826 0.931 . S
C842 C836 1.383 . S
C842 C841 1.379 . S
H843 C837 0.959 . S
H844 C837 0.961 . S
H845 C837 0.960 . S
H846 C838 0.930 . S
H847 C839 0.929 . S
H848 C856 0.929 . S
H849 C858 0.930 . S
H850 C860 0.930 . S
H851 C863 0.929 . S
H852 C866 0.930 . S
H853 C868 0.960 . S
H854 C868 0.960 . S
H855 C868 0.960 . S
C856 H848 0.929 . S
C856 C857 1.377 1_565 S
C856 C858 1.384 . S
C857 C856 1.377 1_545 S
C857 C863 1.390 1_655 S
C858 H849 0.930 . S
C858 C856 1.384 . S
C858 C859 1.356 1_565 S
C859 C858 1.356 1_545 S
C859 C860 1.415 1_655 S
C859 C864 1.494 1_545 S
C860 H850 0.930 . S
C860 C859 1.415 1_455 S
C860 C863 1.386 . S
H861 C877 0.930 . S
H862 C878 0.931 . S
C863 H851 0.929 . S
C863 C857 1.390 1_455 S
C863 C860 1.386 . S
C864 C859 1.494 1_565 S
C864 C866 1.432 1_655 S
C864 C867 1.365 1_565 S
H865 C871 0.930 . S
C866 H852 0.930 . S
C866 C864 1.432 1_455 S
C866 C869 1.403 1_556 S
C867 C864 1.365 1_545 S
C867 C868 1.524 . S
C867 C871 1.400 1_556 S
C868 H853 0.960 . S
C868 H854 0.960 . S
C868 H855 0.960 . S
C868 C867 1.524 . S
C869 C866 1.403 1_554 S
C869 C870 1.392 . S
C869 C873 1.495 . S
C870 C869 1.392 . S
C870 C871 1.385 1_465 S
C870 C872 1.478 . S
C871 H865 0.930 . S
C871 C867 1.400 1_554 S
C871 C870 1.385 1_645 S
C872 C870 1.478 . S
C872 C874 1.381 1_455 S
C872 C878 1.383 1_565 S
C873 C869 1.495 . S
C873 H879 0.959 . S
C873 H880 0.961 . S
C873 H881 0.960 . S
C874 C872 1.381 1_655 S
C874 C875 1.394 . S
C874 H882 0.930 . S
C875 C874 1.394 . S
C875 C876 1.383 1_655 S
C875 H883 0.929 . S
C876 C875 1.383 1_455 S
C876 C877 1.377 1_565 S
C877 H861 0.930 . S
C877 C876 1.377 1_545 S
C877 C878 1.379 . S
C878 H862 0.931 . S
C878 C872 1.383 1_545 S
C878 C877 1.379 . S
H879 C873 0.959 . S
H880 C873 0.961 . S
H881 C873 0.960 . S
H882 C874 0.930 . S
H883 C875 0.929 . S
H884 C892 0.929 . S
H885 C894 0.930 . S
H886 C896 0.930 . S
H887 C899 0.929 . S
H888 C902 0.930 . S
H889 C904 0.960 . S
H890 C904 0.960 . S
H891 C904 0.960 . S
C892 H884 0.929 . S
C892 C893 1.377 . S
C892 C894 1.384 . S
C893 C892 1.377 . S
C893 C899 1.390 . S
C894 H885 0.930 . S
C894 C892 1.384 . S
C894 C895 1.372 . S
C895 C894 1.372 . S
C895 C896 1.400 . S
C895 C900 1.490 . S
C896 H886 0.930 . S
C896 C895 1.400 . S
C896 C899 1.386 . S
H897 C913 0.930 . S
H898 C914 0.931 . S
C899 H887 0.929 . S
C899 C893 1.390 . S
C899 C896 1.386 . S
C900 C895 1.490 . S
C900 C902 1.395 . S
C900 C903 1.403 . S
H901 C907 0.930 . S
C902 H888 0.930 . S
C902 C900 1.395 . S
C902 C905 1.403 . S
C903 C900 1.403 . S
C903 C904 1.524 . S
C903 C907 1.400 . S
C904 H889 0.960 . S
C904 H890 0.960 . S
C904 H891 0.960 . S
C904 C903 1.524 . S
C905 C902 1.403 . S
C905 C906 1.392 . S
C905 C909 1.495 . S
C906 C905 1.392 . S
C906 C907 1.385 . S
C906 C908 1.478 . S
C907 H901 0.930 . S
C907 C903 1.400 . S
C907 C906 1.385 . S
C908 C906 1.478 . S
C908 C910 1.381 . S
C908 C914 1.383 . S
C909 C905 1.495 . S
C909 H915 0.959 . S
C909 H916 0.961 . S
C909 H917 0.960 . S
C910 C908 1.381 . S
C910 C911 1.394 1_554 S
C910 H918 0.930 . S
C911 C910 1.394 1_556 S
C911 C912 1.383 . S
C911 H919 0.929 . S
C912 C911 1.383 . S
C912 C913 1.377 . S
C913 H897 0.930 . S
C913 C912 1.377 . S
C913 C914 1.379 1_556 S
C914 H898 0.931 . S
C914 C908 1.383 . S
C914 C913 1.379 1_554 S
H915 C909 0.959 . S
H916 C909 0.961 . S
H917 C909 0.960 . S
H918 C910 0.930 . S
H919 C911 0.929 . S
H920 C928 0.929 . S
H921 C930 0.930 . S
H922 C932 0.930 . S
H923 C935 0.929 . S
H924 C938 0.930 . S
H925 C940 0.960 . S
H926 C940 0.960 . S
H927 C940 0.960 . S
C928 H920 0.929 . S
C928 C929 1.377 1_565 S
C928 C930 1.384 . S
C929 C928 1.377 1_545 S
C929 C935 1.390 . S
C930 H921 0.930 . S
C930 C928 1.384 . S
C930 C931 1.372 1_565 S
C931 C930 1.372 1_545 S
C931 C932 1.400 . S
C931 C936 1.498 . S
C932 H922 0.930 . S
C932 C931 1.400 . S
C932 C935 1.386 . S
H933 C949 0.930 . S
H934 C950 0.931 . S
C935 H923 0.929 . S
C935 C929 1.390 . S
C935 C932 1.386 . S
C936 C931 1.498 . S
C936 C938 1.406 . S
C936 C939 1.385 1_545 S
H937 C943 0.930 . S
C938 H924 0.930 . S
C938 C936 1.406 . S
C938 C941 1.403 . S
C939 C936 1.385 1_565 S
C939 C940 1.524 . S
C939 C943 1.400 . S
C940 H925 0.960 . S
C940 H926 0.960 . S
C940 H927 0.960 . S
C940 C939 1.524 . S
C941 C938 1.403 . S
C941 C942 1.382 1_545 S
C941 C945 1.495 . S
C942 C941 1.382 1_565 S
C942 C943 1.393 . S
C942 C944 1.482 . S
C943 H937 0.930 . S
C943 C939 1.400 . S
C943 C942 1.393 . S
C944 C942 1.482 . S
C944 C946 1.381 . S
C944 C950 1.383 1_565 S
C945 C941 1.495 . S
C945 H951 0.959 . S
C945 H952 0.961 . S
C945 H953 0.960 . S
C946 C944 1.381 . S
C946 C947 1.394 . S
C946 H954 0.930 . S
C947 C946 1.394 . S
C947 C948 1.383 . S
C947 H955 0.929 . S
C948 C947 1.383 . S
C948 C949 1.377 1_565 S
C949 H933 0.930 . S
C949 C948 1.377 1_545 S
C949 C950 1.379 . S
C950 H934 0.931 . S
C950 C944 1.383 1_545 S
C950 C949 1.379 . S
H951 C945 0.959 . S
H952 C945 0.961 . S
H953 C945 0.960 . S
H954 C946 0.930 . S
H955 C947 0.929 . S
H956 C964 0.929 . S
H957 C966 0.930 . S
H958 C968 0.930 . S
H959 C971 0.929 . S
H960 C974 0.930 . S
H961 C976 0.960 . S
H962 C976 0.960 . S
H963 C976 0.960 . S
C964 H956 0.929 . S
C964 C965 1.377 . S
C964 C966 1.384 1_554 S
C965 C964 1.377 . S
C965 C971 1.390 . S
C966 H957 0.930 . S
C966 C964 1.384 1_556 S
C966 C967 1.372 . S
C967 C966 1.372 . S
C967 C968 1.400 . S
C967 C972 1.490 . S
C968 H958 0.930 . S
C968 C967 1.400 . S
C968 C971 1.386 1_556 S
H969 C985 0.930 . S
H970 C986 0.931 . S
C971 H959 0.929 . S
C971 C965 1.390 . S
C971 C968 1.386 1_554 S
C972 C967 1.490 . S
C972 C974 1.395 . S
C972 C975 1.403 . S
H973 C979 0.930 . S
C974 H960 0.930 . S
C974 C972 1.395 . S
C974 C977 1.403 . S
C975 C972 1.403 . S
C975 C976 1.524 . S
C975 C979 1.400 . S
C976 H961 0.960 . S
C976 H962 0.960 . S
C976 H963 0.960 . S
C976 C975 1.524 . S
C977 C974 1.403 . S
C977 C978 1.392 . S
C977 C981 1.495 . S
C978 C977 1.392 . S
C978 C979 1.385 . S
C978 C980 1.478 . S
C979 H973 0.930 . S
C979 C975 1.400 . S
C979 C978 1.385 . S
C980 C978 1.478 . S
C980 C982 1.381 . S
C980 C986 1.383 . S
C981 C977 1.495 . S
C981 H987 0.959 . S
C981 H988 0.961 . S
C981 H989 0.960 . S
C982 C980 1.381 . S
C982 C983 1.394 . S
C982 H990 0.930 . S
C983 C982 1.394 . S
C983 C984 1.383 . S
C983 H991 0.929 . S
C984 C983 1.383 . S
C984 C985 1.377 . S
C985 H969 0.930 . S
C985 C984 1.377 . S
C985 C986 1.379 . S
C986 H970 0.931 . S
C986 C980 1.383 . S
C986 C985 1.379 . S
H987 C981 0.959 . S
H988 C981 0.961 . S
H989 C981 0.960 . S
H990 C982 0.930 . S
H991 C983 0.929 . S
H992 C1000 0.929 . S
H993 C1002 0.930 . S
H994 C1004 0.930 . S
H995 C1007 0.929 . S
H996 C1010 0.930 . S
H997 C1012 0.960 . S
H998 C1012 0.960 . S
H999 C1012 0.960 . S
C1000 H992 0.929 . S
C1000 C1001 1.377 . S
C1000 C1002 1.384 1_554 S
C1001 C1000 1.377 . S
C1001 C1007 1.390 . S
C1002 H993 0.930 . S
C1002 C1000 1.384 1_556 S
C1002 C1003 1.372 . S
C1003 C1002 1.372 . S
C1003 C1004 1.400 . S
C1003 C1008 1.490 . S
C1004 H994 0.930 . S
C1004 C1003 1.400 . S
C1004 C1007 1.386 1_556 S
H1005 C1021 0.930 . S
H1006 C1022 0.931 . S
C1007 H995 0.929 . S
C1007 C1001 1.390 . S
C1007 C1004 1.386 1_554 S
C1008 C1003 1.490 . S
C1008 C1010 1.395 . S
C1008 C1011 1.403 . S
H1009 C1015 0.930 . S
C1010 H996 0.930 . S
C1010 C1008 1.395 . S
C1010 C1013 1.403 . S
C1011 C1008 1.403 . S
C1011 C1012 1.524 . S
C1011 C1015 1.400 . S
C1012 H997 0.960 . S
C1012 H998 0.960 . S
C1012 H999 0.960 . S
C1012 C1011 1.524 . S
C1013 C1010 1.403 . S
C1013 C1014 1.392 . S
C1013 C1017 1.495 . S
C1014 C1013 1.392 . S
C1014 C1015 1.385 . S
C1014 C1016 1.478 . S
C1015 H1009 0.930 . S
C1015 C1011 1.400 . S
C1015 C1014 1.385 . S
C1016 C1014 1.478 . S
C1016 C1018 1.381 . S
C1016 C1022 1.383 . S
C1017 C1013 1.495 . S
C1017 H1023 0.959 . S
C1017 H1024 0.961 . S
C1017 H1025 0.960 . S
C1018 C1016 1.381 . S
C1018 C1019 1.394 . S
C1018 H1026 0.930 . S
C1019 C1018 1.394 . S
C1019 C1020 1.383 . S
C1019 H1027 0.929 . S
C1020 C1019 1.383 . S
C1020 C1021 1.377 . S
C1021 H1005 0.930 . S
C1021 C1020 1.377 . S
C1021 C1022 1.379 . S
C1022 H1006 0.931 . S
C1022 C1016 1.383 . S
C1022 C1021 1.379 . S
H1023 C1017 0.959 . S
H1024 C1017 0.961 . S
H1025 C1017 0.960 . S
H1026 C1018 0.930 . S
H1027 C1019 0.929 . S
H1028 C1036 0.929 . S
H1029 C1038 0.930 . S
H1030 C1040 0.930 . S
H1031 C1043 0.929 . S
H1032 C1046 0.930 . S
H1033 C1048 0.960 . S
H1034 C1048 0.960 . S
H1035 C1048 0.960 . S
C1036 H1028 0.929 . S
C1036 C1037 1.377 . S
C1036 C1038 1.384 . S
C1037 C1036 1.377 . S
C1037 C1043 1.390 . S
C1038 H1029 0.930 . S
C1038 C1036 1.384 . S
C1038 C1039 1.372 . S
C1039 C1038 1.372 . S
C1039 C1040 1.400 . S
C1039 C1044 1.490 . S
C1040 H1030 0.930 . S
C1040 C1039 1.400 . S
C1040 C1043 1.386 . S
H1041 C1057 0.930 . S
H1042 C1058 0.931 . S
C1043 H1031 0.929 . S
C1043 C1037 1.390 . S
C1043 C1040 1.386 . S
C1044 C1039 1.490 . S
C1044 C1046 1.395 . S
C1044 C1047 1.403 . S
H1045 C1051 0.930 . S
C1046 H1032 0.930 . S
C1046 C1044 1.395 . S
C1046 C1049 1.403 . S
C1047 C1044 1.403 . S
C1047 C1048 1.524 . S
C1047 C1051 1.400 . S
C1048 H1033 0.960 . S
C1048 H1034 0.960 . S
C1048 H1035 0.960 . S
C1048 C1047 1.524 . S
C1049 C1046 1.403 . S
C1049 C1050 1.392 . S
C1049 C1053 1.495 . S
C1050 C1049 1.392 . S
C1050 C1051 1.385 . S
C1050 C1052 1.478 . S
C1051 H1045 0.930 . S
C1051 C1047 1.400 . S
C1051 C1050 1.385 . S
C1052 C1050 1.478 . S
C1052 C1054 1.381 . S
C1052 C1058 1.383 . S
C1053 C1049 1.495 . S
C1053 H1059 0.959 . S
C1053 H1060 0.961 . S
C1053 H1061 0.960 . S
C1054 C1052 1.381 . S
C1054 C1055 1.394 1_554 S
C1054 H1062 0.930 . S
C1055 C1054 1.394 1_556 S
C1055 C1056 1.383 . S
C1055 H1063 0.929 . S
C1056 C1055 1.383 . S
C1056 C1057 1.377 . S
C1057 H1041 0.930 . S
C1057 C1056 1.377 . S
C1057 C1058 1.379 1_556 S
C1058 H1042 0.931 . S
C1058 C1052 1.383 . S
C1058 C1057 1.379 1_554 S
H1059 C1053 0.959 . S
H1060 C1053 0.961 . S
H1061 C1053 0.960 . S
H1062 C1054 0.930 . S
H1063 C1055 0.929 . S
H1064 C1072 0.929 . S
H1065 C1074 0.930 . S
H1066 C1076 0.930 . S
H1067 C1079 0.929 . S
H1068 C1082 0.930 . S
H1069 C1084 0.960 . S
H1070 C1084 0.960 . S
H1071 C1084 0.960 . S
C1072 H1064 0.929 . S
C1072 C1073 1.377 . S
C1072 C1074 1.384 . S
C1073 C1072 1.377 . S
C1073 C1079 1.390 . S
C1074 H1065 0.930 . S
C1074 C1072 1.384 . S
C1074 C1075 1.372 . S
C1075 C1074 1.372 . S
C1075 C1076 1.400 . S
C1075 C1080 1.490 . S
C1076 H1066 0.930 . S
C1076 C1075 1.400 . S
C1076 C1079 1.386 . S
H1077 C1093 0.930 . S
H1078 C1094 0.931 . S
C1079 H1067 0.929 . S
C1079 C1073 1.390 . S
C1079 C1076 1.386 . S
C1080 C1075 1.490 . S
C1080 C1082 1.395 . S
C1080 C1083 1.403 . S
H1081 C1087 0.930 . S
C1082 H1068 0.930 . S
C1082 C1080 1.395 . S
C1082 C1085 1.403 . S
C1083 C1080 1.403 . S
C1083 C1084 1.524 . S
C1083 C1087 1.400 . S
C1084 H1069 0.960 . S
C1084 H1070 0.960 . S
C1084 H1071 0.960 . S
C1084 C1083 1.524 . S
C1085 C1082 1.403 . S
C1085 C1086 1.392 . S
C1085 C1089 1.495 . S
C1086 C1085 1.392 . S
C1086 C1087 1.385 . S
C1086 C1088 1.478 . S
C1087 H1081 0.930 . S
C1087 C1083 1.400 . S
C1087 C1086 1.385 . S
C1088 C1086 1.478 . S
C1088 C1090 1.381 . S
C1088 C1094 1.383 . S
C1089 C1085 1.495 . S
C1089 H1095 0.959 . S
C1089 H1096 0.961 . S
C1089 H1097 0.960 . S
C1090 C1088 1.381 . S
C1090 C1091 1.394 . S
C1090 H1098 0.930 . S
C1091 C1090 1.394 . S
C1091 C1092 1.383 . S
C1091 H1099 0.929 . S
C1092 C1091 1.383 . S
C1092 C1093 1.377 . S
C1093 H1077 0.930 . S
C1093 C1092 1.377 . S
C1093 C1094 1.379 . S
C1094 H1078 0.931 . S
C1094 C1088 1.383 . S
C1094 C1093 1.379 . S
H1095 C1089 0.959 . S
H1096 C1089 0.961 . S
H1097 C1089 0.960 . S
H1098 C1090 0.930 . S
H1099 C1091 0.929 . S
H1100 C1108 0.929 . S
H1101 C1110 0.930 . S
H1102 C1112 0.930 . S
H1103 C1115 0.929 . S
H1104 C1118 0.930 . S
H1105 C1120 0.960 1_554 S
H1106 C1120 0.960 . S
H1107 C1120 0.960 . S
C1108 H1100 0.929 . S
C1108 C1109 1.377 1_455 S
C1108 C1110 1.384 . S
C1109 C1108 1.377 1_655 S
C1109 C1115 1.390 . S
C1110 H1101 0.930 . S
C1110 C1108 1.384 . S
C1110 C1111 1.365 1_455 S
C1111 C1110 1.365 1_655 S
C1111 C1112 1.408 . S
C1111 C1116 1.488 1_655 S
C1112 H1102 0.930 . S
C1112 C1111 1.408 . S
C1112 C1115 1.386 . S
H1113 C1129 0.930 . S
H1114 C1130 0.931 . S
C1115 H1103 0.929 . S
C1115 C1109 1.390 . S
C1115 C1112 1.386 . S
C1116 C1111 1.488 1_455 S
C1116 C1118 1.395 . S
C1116 C1119 1.403 1_455 S
H1117 C1123 0.930 . S
C1118 H1104 0.930 . S
C1118 C1116 1.395 . S
C1118 C1121 1.403 1_556 S
C1119 C1116 1.403 1_655 S
C1119 C1120 1.524 . S
C1119 C1123 1.400 1_556 S
C1120 H1105 0.960 1_556 S
C1120 H1106 0.960 . S
C1120 H1107 0.960 . S
C1120 C1119 1.524 . S
C1121 C1118 1.403 1_554 S
C1121 C1122 1.392 . S
C1121 C1125 1.495 . S
C1122 C1121 1.392 . S
C1122 C1123 1.385 1_455 S
C1122 C1124 1.478 . S
C1123 H1117 0.930 . S
C1123 C1119 1.400 1_554 S
C1123 C1122 1.385 1_655 S
C1124 C1122 1.478 . S
C1124 C1126 1.381 . S
C1124 C1130 1.383 1_455 S
C1125 C1121 1.495 . S
C1125 H1131 0.957 1_554 S
C1125 H1132 0.961 . S
C1125 H1133 0.960 . S
C1126 C1124 1.381 . S
C1126 C1127 1.394 . S
C1126 H1134 0.930 . S
C1127 C1126 1.394 . S
C1127 C1128 1.383 . S
C1127 H1135 0.929 . S
C1128 C1127 1.383 . S
C1128 C1129 1.377 1_455 S
C1129 H1113 0.930 . S
C1129 C1128 1.377 1_655 S
C1129 C1130 1.379 . S
C1130 H1114 0.931 . S
C1130 C1124 1.383 1_655 S
C1130 C1129 1.379 . S
H1131 C1125 0.957 1_556 S
H1132 C1125 0.961 . S
H1133 C1125 0.960 . S
H1134 C1126 0.930 . S
H1135 C1127 0.929 . S
C281 C17 3.215 . S
C300 C119 3.206 . S
C317 C4 1.521 . S
C336 C51 1.519 . S
C353 C38 0.240 . S
C372 C72 0.211 . S
C389 C85 1.519 . S
C408 C106 1.514 . S
C425 C8 3.214 . S
C444 C178 3.214 . S
C461 C13 1.521 . S
C480 C144 1.513 . S
C497 C149 0.248 . S
C516 C81 0.219 . S
C533 C183 1.521 . S
C552 C76 1.524 . S
C569 C221 3.214 . S
C588 C187 3.213 . S
C605 C153 1.520 . S
C624 C208 1.516 . S
C641 C242 0.242 . S
C660 C140 0.305 . S
C677 C174 1.521 . S
C696 C255 1.524 . S
C713 C110 3.215 . S
C732 C212 3.209 . S
C749 C217 1.521 . S
C768 C42 1.513 . S
C785 C47 0.227 . S
C804 C251 0.267 . S
C821 C115 1.521 . S
C840 C246 1.515 . S
C857 C0 1.031 . S
C876 C29 1.033 . S
C893 C63 1.057 . S
C912 C34 1.052 . S
C929 C68 1.058 . S
C948 C97 1.059 . S
C965 C102 1.030 . S
C984 C131 1.021 . S
C1001 C165 1.057 . S
C1020 C136 1.057 . S
C1037 C170 1.028 . S
C1056 C199 1.021 . S
C1073 C233 1.028 . S
C1092 C204 1.022 . S
C1109 C267 1.062 . S
C1128 C238 1.070 . S
