# Generated by pormake.
# Topology unm, (4)-cn, num edge types: 1
# Building blocks:
#     Node 0, Type 0, BuildingBlock: UXUYUI_clean_sbu_0, # of connection points: 4
#     Node 1, Type 0, BuildingBlock: UXUYUI_clean_sbu_0, # of connection points: 4
#     Node 2, Type 0, BuildingBlock: UXUYUI_clean_sbu_0, # of connection points: 4
#     Node 3, Type 0, BuildingBlock: UXUYUI_clean_sbu_0, # of connection points: 4
#     Node 4, Type 0, BuildingBlock: UXUYUI_clean_sbu_0, # of connection points: 4
#     Node 5, Type 0, BuildingBlock: UXUYUI_clean_sbu_0, # of connection points: 4
#     Node 6, Type 0, BuildingBlock: UXUYUI_clean_sbu_0, # of connection points: 4
#     Node 7, Type 0, BuildingBlock: UXUYUI_clean_sbu_0, # of connection points: 4
#     Edge 8, Type (0, 0), BuildingBlock: ZUJKAS_clean_linker_0, # of connection points: 2
#     Edge 9, Type (0, 0), BuildingBlock: ZUJKAS_clean_linker_0, # of connection points: 2
#     Edge 10, Type (0, 0), BuildingBlock: ZUJKAS_clean_linker_0, # of connection points: 2
#     Edge 11, Type (0, 0), BuildingBlock: ZUJKAS_clean_linker_0, # of connection points: 2
#     Edge 12, Type (0, 0), BuildingBlock: ZUJKAS_clean_linker_0, # of connection points: 2
#     Edge 13, Type (0, 0), BuildingBlock: ZUJKAS_clean_linker_0, # of connection points: 2
#     Edge 14, Type (0, 0), BuildingBlock: ZUJKAS_clean_linker_0, # of connection points: 2
#     Edge 15, Type (0, 0), BuildingBlock: ZUJKAS_clean_linker_0, # of connection points: 2
#     Edge 16, Type (0, 0), BuildingBlock: ZUJKAS_clean_linker_0, # of connection points: 2
#     Edge 17, Type (0, 0), BuildingBlock: ZUJKAS_clean_linker_0, # of connection points: 2
#     Edge 18, Type (0, 0), BuildingBlock: ZUJKAS_clean_linker_0, # of connection points: 2
#     Edge 19, Type (0, 0), BuildingBlock: ZUJKAS_clean_linker_0, # of connection points: 2
#     Edge 20, Type (0, 0), BuildingBlock: ZUJKAS_clean_linker_0, # of connection points: 2
#     Edge 21, Type (0, 0), BuildingBlock: ZUJKAS_clean_linker_0, # of connection points: 2
#     Edge 22, Type (0, 0), BuildingBlock: ZUJKAS_clean_linker_0, # of connection points: 2
#     Edge 23, Type (0, 0), BuildingBlock: ZUJKAS_clean_linker_0, # of connection points: 2
# Relax obj value: 0.260
# Max RMSD: 0.186
# Mean RMSD: 0.185
data_MOF--net-unm--node1-UXUYUI_clean_sbu_0--edge1-ZUJKAS_clean_linker_0
_symmetry_space_group_name_H-M    P1
_symmetry_Int_Tables_number       1
_symmetry_cell_setting            triclinic
loop_
_symmetry_equiv_pos_as_xyz
'x, y, z'
_cell_length_a     45.561408
_cell_length_b     45.415975
_cell_length_c     74.64317
_cell_angle_alpha  90.010598
_cell_angle_beta   89.995434
_cell_angle_gamma 89.991824
loop_
_atom_site_label
_atom_site_type_symbol
_atom_site_fract_x
_atom_site_fract_y
_atom_site_fract_z
_atom_type_partial_charge
Li0 Li 0.06534 0.25404 0.15253 0.0
Li1 Li 0.09588 0.22677 0.17242 0.0
Li2 Li 0.07577 0.20328 0.14577 0.0
Li3 Li 0.04357 0.21711 0.1711 0.0
C4 C 0.12617 0.2564 0.14577 0.0
N5 N 0.17186 0.29629 0.14388 0.0
C6 C 0.12478 0.28285 0.15531 0.0
C7 C 0.15079 0.25026 0.13524 0.0
C8 C 0.1481 0.30272 0.15419 0.0
C9 C 0.17366 0.27071 0.13446 0.0
C10 C 0.06096 0.25626 0.19696 0.0
C11 C 0.06283 0.23503 0.22656 0.0
N12 N 0.05539 0.26157 0.23368 0.0
C13 C 0.05328 0.2833 0.20457 0.0
C14 C 0.06574 0.23188 0.20803 0.0
C15 C 0.0506 0.28555 0.22316 0.0
C16 C 0.03516 0.30651 0.15171 0.0
N17 N 0.05671 0.29177 0.14293 0.0
C18 C 0.06317 0.33185 0.12258 0.0
C19 C 0.07058 0.30359 0.12849 0.0
C20 C 0.04105 0.34764 0.13152 0.0
C21 C 0.02686 0.33454 0.14618 0.0
H22 H 0.02456 0.29648 0.16314 0.0
H23 H 0.08745 0.29119 0.12164 0.0
C24 C 0.14965 0.20761 0.1881 0.0
N25 N 0.13001 0.23011 0.18716 0.0
C26 C 0.17611 0.21127 0.19738 0.0
C27 C 0.16131 0.26094 0.20471 0.0
C28 C 0.13518 0.25627 0.19545 0.0
C29 C 0.18239 0.23845 0.20554 0.0
H30 H 0.14509 0.18713 0.18124 0.0
H31 H 0.11938 0.27392 0.19445 0.0
C32 C 0.02329 0.23655 0.13128 0.0
N33 N 0.9962 0.26609 0.10347 0.0
C34 C 0.99466 0.24708 0.13329 0.0
C35 C 0.03809 0.24088 0.11508 0.0
C36 C 0.98136 0.26201 0.11909 0.0
C37 C 0.02402 0.25589 0.10119 0.0
C38 C 0.06568 0.15929 0.1715 0.0
C39 C 0.04145 0.15165 0.16098 0.0
C40 C 0.07862 0.13814 0.18256 0.0
C41 C 0.03062 0.1229 0.16169 0.0
C42 C 0.06711 0.10964 0.18292 0.0
N43 N 0.04356 0.10267 0.17256 0.0
C44 C 0.11163 0.17033 0.12259 0.0
C45 C 0.06091 0.16825 0.11568 0.0
C46 C 0.11854 0.15542 0.10677 0.0
N47 N 0.08328 0.17696 0.1265 0.0
C48 C 0.06681 0.15342 0.09969 0.0
C49 C 0.09603 0.14747 0.0948 0.0
H50 H 0.12897 0.17767 0.13142 0.0
H51 H 0.03856 0.1741 0.11902 0.0
C52 C 0.9916 0.23589 0.1841 0.0
N53 N 0.00842 0.21123 0.18447 0.0
C54 C 0.96553 0.23729 0.19374 0.0
C55 C 0.97414 0.1876 0.20407 0.0
C56 C 0.00039 0.18723 0.19423 0.0
C57 C 0.95653 0.21306 0.20401 0.0
H58 H 0.99877 0.25474 0.17644 0.0
H59 H 0.01443 0.16807 0.19466 0.0
O60 O 0.1038 0.23636 0.14678 0.0
O61 O 0.06324 0.2538 0.17874 0.0
O62 O 0.03704 0.22262 0.14519 0.0
O63 O 0.07676 0.18727 0.17116 0.0
H64 H 0.10596 0.28798 0.16356 0.0
H65 H 0.15222 0.22988 0.12778 0.0
H66 H 0.14731 0.32324 0.16154 0.0
H67 H 0.19286 0.26624 0.12638 0.0
H68 H 0.06646 0.21636 0.23528 0.0
H69 H 0.04941 0.30234 0.19617 0.0
H70 H 0.07158 0.21074 0.20243 0.0
H71 H 0.04467 0.30634 0.22923 0.0
H72 H 0.0745 0.34122 0.11118 0.0
H73 H 0.01002 0.34616 0.15361 0.0
H74 H 0.19189 0.19344 0.19762 0.0
H75 H 0.16512 0.28208 0.21101 0.0
H76 H 0.98282 0.24381 0.14569 0.0
H77 H 0.06041 0.23321 0.11338 0.0
H78 H 0.95925 0.27037 0.12048 0.0
H79 H 0.03529 0.25958 0.08863 0.0
H80 H 0.03091 0.16773 0.15248 0.0
H81 H 0.09734 0.14376 0.19082 0.0
H82 H 0.01187 0.1167 0.15365 0.0
H83 H 0.07689 0.09306 0.19145 0.0
H84 H 0.14133 0.15088 0.10371 0.0
H85 H 0.04874 0.14811 0.09084 0.0
H86 H 0.95248 0.2572 0.19309 0.0
H87 H 0.96804 0.16853 0.21194 0.0
Li88 Li 0.28978 0.57097 0.64277 0.0
Li89 Li 0.27382 0.59517 0.67113 0.0
Li90 Li 0.27615 0.53964 0.66816 0.0
Li91 Li 0.24032 0.56804 0.65235 0.0
C92 C 0.33604 0.58202 0.66771 0.0
N93 N 0.39059 0.60847 0.6686 0.0
C94 C 0.33956 0.61074 0.66138 0.0
C95 C 0.36024 0.56667 0.67441 0.0
C96 C 0.36732 0.62377 0.66198 0.0
C97 C 0.38765 0.58044 0.67476 0.0
C98 C 0.24025 0.62265 0.64096 0.0
C99 C 0.19882 0.65363 0.64804 0.0
N100 N 0.19472 0.65883 0.63027 0.0
C101 C 0.23569 0.62839 0.62277 0.0
C102 C 0.22171 0.63542 0.65371 0.0
C103 C 0.21253 0.6467 0.61764 0.0
C104 C 0.29434 0.57405 0.6067 0.0
N105 N 0.31205 0.57421 0.62132 0.0
C106 C 0.35446 0.58031 0.60279 0.0
C107 C 0.34172 0.57656 0.61972 0.0
C108 C 0.33638 0.58163 0.58754 0.0
C109 C 0.30602 0.5779 0.58964 0.0
H110 H 0.27094 0.57116 0.60838 0.0
H111 H 0.35549 0.5758 0.63148 0.0
C112 C 0.27178 0.62581 0.70435 0.0
N113 N 0.27706 0.62862 0.68652 0.0
C114 C 0.26846 0.65087 0.71508 0.0
C115 C 0.27783 0.68107 0.68906 0.0
C116 C 0.28073 0.65551 0.67884 0.0
C117 C 0.27072 0.67904 0.70734 0.0
H118 H 0.26868 0.60415 0.71008 0.0
H119 H 0.28451 0.65721 0.66458 0.0
C120 C 0.27978 0.51271 0.63534 0.0
N121 N 0.31064 0.46625 0.62058 0.0
C122 C 0.26577 0.49293 0.62382 0.0
C123 C 0.30952 0.50882 0.63936 0.0
C124 C 0.28174 0.46959 0.6165 0.0
C125 C 0.32472 0.48522 0.63175 0.0
C126 C 0.21907 0.55758 0.68634 0.0
C127 C 0.20568 0.53079 0.68213 0.0
C128 C 0.20527 0.57696 0.69821 0.0
C129 C 0.17867 0.52378 0.68988 0.0
C130 C 0.17828 0.56913 0.70571 0.0
N131 N 0.16565 0.54293 0.70142 0.0
C132 C 0.29984 0.50129 0.6951 0.0
C133 C 0.26629 0.47978 0.6747 0.0
C134 C 0.30182 0.47478 0.70463 0.0
N135 N 0.28204 0.50331 0.68053 0.0
C136 C 0.26753 0.45303 0.68379 0.0
C137 C 0.28526 0.45024 0.69909 0.0
H138 H 0.31208 0.52038 0.6995 0.0
H139 H 0.25208 0.48194 0.66319 0.0
C140 C 0.19778 0.55191 0.62746 0.0
N141 N 0.20122 0.56639 0.64325 0.0
C142 C 0.16976 0.54636 0.62075 0.0
C143 C 0.14936 0.57214 0.64619 0.0
C144 C 0.17779 0.57746 0.65229 0.0
C145 C 0.14502 0.55568 0.63045 0.0
H146 H 0.21685 0.54399 0.62032 0.0
H147 H 0.18102 0.58956 0.66458 0.0
O148 O 0.3092 0.56863 0.66709 0.0
O149 O 0.26255 0.60444 0.64628 0.0
O150 O 0.26425 0.53566 0.64257 0.0
O151 O 0.24536 0.56503 0.67874 0.0
H152 H 0.3212 0.62259 0.65573 0.0
H153 H 0.35786 0.54431 0.67923 0.0
H154 H 0.3704 0.64597 0.65708 0.0
H155 H 0.4066 0.56882 0.67989 0.0
H156 H 0.18421 0.66349 0.65776 0.0
H157 H 0.24989 0.61892 0.61271 0.0
H158 H 0.22457 0.63085 0.66782 0.0
H159 H 0.20872 0.65129 0.60361 0.0
H160 H 0.37801 0.58294 0.60167 0.0
H161 H 0.2914 0.57805 0.5782 0.0
H162 H 0.26276 0.64816 0.72906 0.0
H163 H 0.28036 0.70223 0.68256 0.0
H164 H 0.24275 0.49552 0.62061 0.0
H165 H 0.32084 0.52376 0.64822 0.0
H166 H 0.27115 0.45411 0.60758 0.0
H167 H 0.34773 0.48198 0.63474 0.0
H168 H 0.21566 0.5159 0.67264 0.0
H169 H 0.21511 0.59796 0.70146 0.0
H170 H 0.16797 0.50319 0.68664 0.0
H171 H 0.16732 0.58395 0.71488 0.0
H172 H 0.316 0.47358 0.71625 0.0
H173 H 0.2539 0.43504 0.67917 0.0
H174 H 0.16752 0.53423 0.60833 0.0
H175 H 0.13105 0.57965 0.65423 0.0
Li176 Li 0.90234 0.7759 0.17522 0.0
Li177 Li 0.93386 0.74438 0.15478 0.0
Li178 Li 0.95399 0.78356 0.1715 0.0
Li179 Li 0.92452 0.79608 0.14618 0.0
C180 C 0.95147 0.74098 0.19522 0.0
N181 N 0.98841 0.72851 0.22358 0.0
C182 C 0.97573 0.72259 0.19274 0.0
C183 C 0.94586 0.75286 0.21216 0.0
C184 C 0.9942 0.71664 0.20723 0.0
C185 C 0.9648 0.74628 0.22633 0.0
C186 C 0.87312 0.74702 0.14282 0.0
C187 C 0.84373 0.73014 0.11793 0.0
N188 N 0.82727 0.71373 0.12938 0.0
C189 C 0.8558 0.73003 0.15432 0.0
C190 C 0.86693 0.74716 0.12446 0.0
C191 C 0.83278 0.71333 0.14728 0.0
C192 C 0.8457 0.794 0.18625 0.0
N193 N 0.86824 0.77531 0.18986 0.0
C194 C 0.8396 0.75032 0.21193 0.0
C195 C 0.8658 0.75395 0.20252 0.0
C196 C 0.81557 0.76873 0.20819 0.0
C197 C 0.81901 0.7911 0.19533 0.0
H198 H 0.84819 0.81052 0.17592 0.0
H199 H 0.88375 0.73882 0.20472 0.0
C200 C 0.96956 0.69851 0.14248 0.0
N201 N 0.94125 0.70527 0.14654 0.0
C202 C 0.97716 0.67002 0.13728 0.0
C203 C 0.92638 0.65574 0.14069 0.0
C204 C 0.91976 0.68456 0.14577 0.0
C205 C 0.95545 0.64814 0.13648 0.0
H206 H 0.98644 0.71511 0.14371 0.0
H207 H 0.89762 0.69007 0.1495 0.0
C208 C 0.93518 0.83786 0.1784 0.0
N209 N 0.96181 0.88568 0.19442 0.0
C210 C 0.95816 0.85241 0.16973 0.0
C211 C 0.92551 0.84774 0.19511 0.0
C212 C 0.97143 0.8765 0.17809 0.0
C213 C 0.93931 0.87196 0.20301 0.0
C214 C 0.97039 0.76938 0.12877 0.0
C215 C 0.9981 0.77809 0.12272 0.0
C216 C 0.95084 0.75604 0.11686 0.0
C217 C 0.00576 0.77328 0.10483 0.0
C218 C 0.9593 0.75159 0.09908 0.0
N219 N 0.98636 0.76025 0.09347 0.0
C220 C 0.01427 0.7811 0.17601 0.0
C221 C 0.99124 0.80448 0.20066 0.0
C222 C 0.04121 0.78138 0.18484 0.0
N223 N 0.98988 0.79216 0.18405 0.0
C224 C 0.01783 0.80515 0.21003 0.0
C225 C 0.04318 0.793 0.20222 0.0
H226 H 0.01253 0.77056 0.16309 0.0
H227 H 0.97149 0.81234 0.20706 0.0
C228 C 0.88993 0.82249 0.11939 0.0
N229 N 0.91762 0.82071 0.12605 0.0
C230 C 0.88489 0.83584 0.10283 0.0
C231 C 0.93668 0.84698 0.1009 0.0
C232 C 0.9407 0.83344 0.11751 0.0
C233 C 0.90861 0.84756 0.09312 0.0
H234 H 0.87196 0.81236 0.12657 0.0
H235 H 0.96244 0.83202 0.12322 0.0
O236 O 0.93357 0.74768 0.18109 0.0
O237 O 0.89536 0.76409 0.14955 0.0
O238 O 0.92192 0.81427 0.17045 0.0
O239 O 0.96242 0.77457 0.14619 0.0
H240 H 0.98045 0.71332 0.17971 0.0
H241 H 0.92743 0.76749 0.21427 0.0
H242 H 0.0132 0.70265 0.20546 0.0
H243 H 0.96086 0.75551 0.23947 0.0
H244 H 0.83877 0.73004 0.10376 0.0
H245 H 0.86043 0.72917 0.16849 0.0
H246 H 0.87982 0.76028 0.11529 0.0
H247 H 0.81937 0.69997 0.15605 0.0
H248 H 0.83779 0.73244 0.22145 0.0
H249 H 0.80113 0.80591 0.19213 0.0
H250 H -5e-05 0.66496 0.13454 0.0
H251 H 0.90897 0.63952 0.14023 0.0
H252 H 0.96583 0.84498 0.15677 0.0
H253 H 0.90764 0.83671 0.20193 0.0
H254 H 0.98938 0.88787 0.17161 0.0
H255 H 0.93217 0.87981 0.21598 0.0
H256 H 0.01344 0.78872 0.1317 0.0
H257 H 0.92946 0.74904 0.1213 0.0
H258 H 0.0271 0.77999 0.09996 0.0
H259 H 0.94436 0.74126 0.08974 0.0
H260 H 0.05996 0.77117 0.17843 0.0
H261 H 0.01837 0.81437 0.2234 0.0
H262 H 0.86291 0.83562 0.09731 0.0
H263 H 0.95547 0.85624 0.09403 0.0
Li264 Li 0.71325 0.45509 0.67342 0.0
Li265 Li 0.75522 0.43322 0.65914 0.0
Li266 Li 0.70707 0.42597 0.64599 0.0
Li267 Li 0.72147 0.40066 0.67476 0.0
C268 C 0.7357 0.49153 0.64597 0.0
N269 N 0.74954 0.54995 0.64005 0.0
C270 C 0.75779 0.50511 0.65598 0.0
C271 C 0.72083 0.50757 0.63282 0.0
C272 C 0.76443 0.53468 0.65282 0.0
C273 C 0.7281 0.53711 0.63006 0.0
C274 C 0.76874 0.43569 0.6962 0.0
C275 C 0.80638 0.41428 0.71486 0.0
N276 N 0.81576 0.44173 0.71934 0.0
C277 C 0.77862 0.46369 0.70114 0.0
C278 C 0.78259 0.41077 0.70324 0.0
C279 C 0.80247 0.46629 0.71278 0.0
C280 C 0.70718 0.48854 0.7047 0.0
N281 N 0.70147 0.48888 0.68684 0.0
C282 C 0.69148 0.54051 0.68781 0.0
C283 C 0.69224 0.51384 0.67851 0.0
C284 C 0.69991 0.54136 0.70592 0.0
C285 C 0.70648 0.51465 0.71456 0.0
H286 H 0.71413 0.46831 0.71106 0.0
H287 H 0.68723 0.51351 0.66438 0.0
C288 C 0.80004 0.45463 0.63677 0.0
N289 N 0.7953 0.43957 0.65226 0.0
C290 C 0.82852 0.46176 0.63144 0.0
C291 C 0.84689 0.43619 0.65751 0.0
C292 C 0.81808 0.42952 0.66229 0.0
C293 C 0.85234 0.45303 0.6421 0.0
H294 H 0.78163 0.46149 0.62864 0.0
H295 H 0.81407 0.41622 0.67394 0.0
C296 C 0.65643 0.43483 0.66712 0.0
N297 N 0.60127 0.45931 0.66329 0.0
C298 C 0.63274 0.42365 0.67687 0.0
C299 C 0.65207 0.45847 0.65542 0.0
C300 C 0.60501 0.43632 0.67474 0.0
C301 C 0.62402 0.47054 0.65367 0.0
C302 C 0.76219 0.3826 0.64353 0.0
C303 C 0.76949 0.38644 0.6255 0.0
C304 C 0.7807 0.36627 0.65467 0.0
C305 C 0.79538 0.37398 0.61892 0.0
C306 C 0.80637 0.35413 0.64758 0.0
N307 N 0.81313 0.35823 0.63001 0.0
C308 C 0.70254 0.43411 0.60951 0.0
C309 C 0.66261 0.4068 0.62133 0.0
C310 C 0.6919 0.4306 0.59215 0.0
N311 N 0.68804 0.42201 0.6236 0.0
C312 C 0.65101 0.40292 0.60413 0.0
C313 C 0.66602 0.41451 0.58926 0.0
H314 H 0.7228 0.44595 0.61177 0.0
H315 H 0.6517 0.39721 0.6328 0.0
C316 C 0.72037 0.36645 0.7066 0.0
N317 N 0.71881 0.36554 0.68843 0.0
C318 C 0.72364 0.34043 0.7164 0.0
C319 C 0.7215 0.31304 0.68866 0.0
C320 C 0.71851 0.33956 0.67941 0.0
C321 C 0.72501 0.31326 0.70738 0.0
H322 H 0.72066 0.38749 0.7134 0.0
H323 H 0.71716 0.33954 0.66494 0.0
O324 O 0.72856 0.46268 0.64896 0.0
O325 O 0.74504 0.43266 0.68505 0.0
O326 O 0.68369 0.42263 0.6691 0.0
O327 O 0.73744 0.39541 0.65036 0.0
H328 H 0.76981 0.49288 0.66596 0.0
H329 H 0.70366 0.49738 0.62495 0.0
H330 H 0.78145 0.54547 0.6605 0.0
H331 H 0.71666 0.54984 0.62 0.0
H332 H 0.81745 0.39517 0.72026 0.0
H333 H 0.76789 0.48328 0.69618 0.0
H334 H 0.77553 0.38891 0.69949 0.0
H335 H 0.81035 0.48783 0.71667 0.0
H336 H 0.68625 0.56045 0.68053 0.0
H337 H 0.71234 0.51409 0.72862 0.0
H338 H 0.83178 0.47467 0.61941 0.0
H339 H 0.86472 0.42828 0.66581 0.0
H340 H 0.63578 0.40535 0.68598 0.0
H341 H 0.6701 0.46738 0.64774 0.0
H342 H 0.58647 0.42789 0.6822 0.0
H343 H 0.62035 0.48883 0.64467 0.0
H344 H 0.75548 0.39914 0.61673 0.0
H345 H 0.77555 0.36337 0.66871 0.0
H346 H 0.8014 0.3769 0.60502 0.0
H347 H 0.82099 0.34158 0.65607 0.0
H348 H 0.70394 0.44018 0.58108 0.0
H349 H 0.63111 0.39018 0.60243 0.0
H350 H 0.72648 0.34177 0.73078 0.0
H351 H 0.72176 0.29262 0.68117 0.0
Li352 Li 0.54342 0.2853 0.3291 0.0
Li353 Li 0.57338 0.29829 0.35429 0.0
Li354 Li 0.59539 0.27765 0.32525 0.0
Li355 Li 0.56455 0.24641 0.34618 0.0
C356 C 0.56255 0.34022 0.32237 0.0
N357 N 0.53656 0.38928 0.30737 0.0
C358 C 0.53966 0.35449 0.3313 0.0
C359 C 0.57244 0.35099 0.3059 0.0
C360 C 0.52672 0.37923 0.32345 0.0
C361 C 0.55897 0.37582 0.29853 0.0
C362 C 0.52569 0.27298 0.37153 0.0
C363 C 0.53237 0.25639 0.40194 0.0
N364 N 0.50561 0.26757 0.4063 0.0
C365 C 0.49821 0.2842 0.37628 0.0
C366 C 0.54288 0.2589 0.38443 0.0
C367 C 0.48846 0.28129 0.39394 0.0
C368 C 0.4837 0.2792 0.32405 0.0
N369 N 0.50725 0.29307 0.31674 0.0
C370 C 0.47831 0.30833 0.29165 0.0
C371 C 0.50502 0.30771 0.30089 0.0
C372 C 0.45379 0.29343 0.29867 0.0
C373 C 0.45674 0.27906 0.31524 0.0
H374 H 0.48622 0.26691 0.33635 0.0
H375 H 0.52417 0.31774 0.29498 0.0
C376 C 0.60809 0.32506 0.38086 0.0
N377 N 0.58034 0.32324 0.37431 0.0
C378 C 0.61332 0.33853 0.39737 0.0
C379 C 0.56155 0.34969 0.39949 0.0
C380 C 0.55737 0.33612 0.3829 0.0
C381 C 0.5897 0.35025 0.40716 0.0
H382 H 0.62598 0.3148 0.37367 0.0
H383 H 0.53558 0.33481 0.37725 0.0
C384 C 0.54647 0.24253 0.30561 0.0
N385 N 0.50986 0.23008 0.2771 0.0
C386 C 0.52337 0.22259 0.30769 0.0
C387 C 0.55112 0.25597 0.28901 0.0
C388 C 0.50504 0.21665 0.29312 0.0
C389 C 0.53234 0.24939 0.27476 0.0
C390 C 0.62442 0.25013 0.3589 0.0
C391 C 0.6443 0.23425 0.34839 0.0
C392 C 0.62731 0.24975 0.37756 0.0
C393 C 0.66642 0.21791 0.35671 0.0
C394 C 0.64971 0.23313 0.38537 0.0
N395 N 0.66863 0.21768 0.37488 0.0
C396 C 0.65187 0.29471 0.31285 0.0
C397 C 0.63053 0.25367 0.29817 0.0
C398 C 0.67805 0.29075 0.30335 0.0
N399 N 0.62896 0.27606 0.31022 0.0
C400 C 0.65617 0.24899 0.28836 0.0
C401 C 0.68055 0.26737 0.29108 0.0
H402 H 0.65011 0.31206 0.32273 0.0
H403 H 0.61229 0.23866 0.29671 0.0
C404 C 0.52992 0.19978 0.3585 0.0
N405 N 0.55803 0.20736 0.35449 0.0
C406 C 0.52298 0.17082 0.36301 0.0
C407 C 0.5741 0.15795 0.35937 0.0
C408 C 0.58002 0.18716 0.35488 0.0
C409 C 0.54517 0.14936 0.36323 0.0
H410 H 0.51266 0.21605 0.35756 0.0
H411 H 0.60199 0.19337 0.35113 0.0
O412 O 0.57551 0.31604 0.32981 0.0
O413 O 0.53575 0.27629 0.35436 0.0
O414 O 0.5641 0.24931 0.31985 0.0
O415 O 0.60289 0.26665 0.35094 0.0
H416 H 0.53179 0.34635 0.34404 0.0
H417 H 0.59023 0.34017 0.29889 0.0
H418 H 0.50885 0.39041 0.33014 0.0
H419 H 0.56629 0.38437 0.28576 0.0
H420 H 0.54548 0.24555 0.41206 0.0
H421 H 0.48468 0.29533 0.36646 0.0
H422 H 0.564 0.24986 0.38093 0.0
H423 H 0.46729 0.28999 0.39782 0.0
H424 H 0.47708 0.31985 0.27898 0.0
H425 H 0.4388 0.26664 0.32101 0.0
H426 H 0.63534 0.33833 0.40283 0.0
H427 H 0.54284 0.35892 0.40646 0.0
H428 H 0.51942 0.21208 0.32047 0.0
H429 H 0.56871 0.27173 0.28724 0.0
H430 H 0.48693 0.20144 0.29457 0.0
H431 H 0.53552 0.25981 0.26187 0.0
H432 H 0.64245 0.23409 0.33397 0.0
H433 H 0.61258 0.26228 0.38598 0.0
H434 H 0.6818 0.20538 0.34872 0.0
H435 H 0.65212 0.23261 0.39979 0.0
H436 H 0.69625 0.30557 0.30576 0.0
H437 H 0.65726 0.23039 0.2793 0.0
H438 H 0.50028 0.16507 0.36551 0.0
H439 H 0.5919 0.14214 0.35944 0.0
Li440 Li 0.22676 0.09413 0.82904 0.0
Li441 Li 0.21071 0.07293 0.85632 0.0
Li442 Li 0.26067 0.06626 0.84883 0.0
Li443 Li 0.21976 0.0389 0.83252 0.0
C444 C 0.26105 0.12643 0.85194 0.0
N445 N 0.30123 0.17165 0.84806 0.0
C446 C 0.25905 0.15164 0.86264 0.0
C447 C 0.28346 0.12438 0.83918 0.0
C448 C 0.27958 0.17421 0.8605 0.0
C449 C 0.30356 0.14742 0.83745 0.0
C450 C 0.16147 0.07453 0.83767 0.0
C451 C 0.11307 0.05492 0.84299 0.0
N452 N 0.10393 0.08202 0.8484 0.0
C453 C 0.15158 0.10222 0.84317 0.0
C454 C 0.14209 0.05068 0.8375 0.0
C455 C 0.12242 0.10553 0.84861 0.0
C456 C 0.23925 0.12787 0.79712 0.0
N457 N 0.22612 0.12791 0.81349 0.0
C458 C 0.21784 0.17986 0.81144 0.0
C459 C 0.21516 0.15319 0.82062 0.0
C460 C 0.23206 0.18062 0.79474 0.0
C461 C 0.24236 0.15402 0.78746 0.0
H462 H 0.24841 0.10792 0.79174 0.0
H463 H 0.20538 0.15285 0.83381 0.0
C464 C 0.19877 0.0999 0.88903 0.0
N465 N 0.18773 0.07924 0.87771 0.0
C466 C 0.1866 0.10402 0.90597 0.0
C467 C 0.15158 0.06557 0.89948 0.0
C468 C 0.16435 0.06233 0.88254 0.0
C469 C 0.16294 0.08648 0.9115 0.0
H470 H 0.21787 0.11242 0.8852 0.0
H471 H 0.15632 0.0455 0.87359 0.0
C472 C 0.26352 0.05577 0.80583 0.0
N473 N 0.28236 0.0442 0.77136 0.0
C474 C 0.24324 0.04835 0.79252 0.0
C475 C 0.29336 0.05746 0.80159 0.0
C476 C 0.25322 0.0425 0.77519 0.0
C477 C 0.30244 0.05153 0.78409 0.0
C478 C 0.22329 0.02227 0.87235 0.0
C479 C 0.23461 0.02978 0.88913 0.0
C480 C 0.20114 0.0011 0.87103 0.0
C481 C 0.22314 0.0163 0.90443 0.0
C482 C 0.19032 0.98807 0.88665 0.0
N483 N 0.20141 0.99591 0.90288 0.0
C484 C 0.31203 0.07673 0.86992 0.0
C485 C 0.31473 0.03918 0.84788 0.0
C486 C 0.34121 0.0717 0.87484 0.0
N487 N 0.29968 0.06073 0.85649 0.0
C488 C 0.34387 0.03351 0.85229 0.0
C489 C 0.35755 0.05004 0.86582 0.0
H490 H 0.29931 0.09344 0.87672 0.0
H491 H 0.30401 0.02641 0.83755 0.0
C492 C 0.19256 0.99515 0.80925 0.0
N493 N 0.21425 0.00187 0.82108 0.0
C494 C 0.19226 0.9676 0.80078 0.0
C495 C 0.23629 0.95463 0.81703 0.0
C496 C 0.23576 0.98227 0.8251 0.0
C497 C 0.21445 0.94695 0.80459 0.0
H498 H 0.17592 0.01132 0.80611 0.0
H499 H 0.25294 0.98844 0.83438 0.0
O500 O 0.24054 0.10451 0.85368 0.0
O501 O 0.18985 0.07087 0.83216 0.0
O502 O 0.25426 0.06131 0.82293 0.0
O503 O 0.23373 0.03568 0.85726 0.0
H504 H 0.24166 0.15393 0.8724 0.0
H505 H 0.28539 0.10533 0.83064 0.0
H506 H 0.27824 0.19381 0.86869 0.0
H507 H 0.32098 0.14606 0.82764 0.0
H508 H 0.09784 0.03665 0.843 0.0
H509 H 0.16632 0.12086 0.84339 0.0
H510 H 0.14943 0.02909 0.83332 0.0
H511 H 0.1145 0.1268 0.853 0.0
H512 H 0.2093 0.19975 0.81752 0.0
H513 H 0.25388 0.15354 0.77478 0.0
H514 H 0.19645 0.11997 0.91493 0.0
H515 H 0.13334 0.05159 0.90323 0.0
H516 H 0.22003 0.04755 0.7955 0.0
H517 H 0.30933 0.06346 0.81168 0.0
H518 H 0.23778 0.03674 0.76475 0.0
H519 H 0.32546 0.05278 0.78061 0.0
H520 H 0.2518 0.04614 0.89032 0.0
H521 H 0.19214 0.99512 0.85812 0.0
H522 H 0.23147 0.02208 0.91754 0.0
H523 H 0.173 0.97182 0.88586 0.0
H524 H 0.35101 0.0849 0.88534 0.0
H525 H 0.3555 0.01619 0.84527 0.0
H526 H 0.17494 0.96258 0.79132 0.0
H527 H 0.25417 0.93977 0.82012 0.0
Li528 Li 0.45431 0.71163 0.32725 0.0
Li529 Li 0.42495 0.69927 0.35249 0.0
Li530 Li 0.40277 0.71963 0.32362 0.0
Li531 Li 0.43451 0.75091 0.34393 0.0
C532 C 0.43552 0.65691 0.32115 0.0
N533 N 0.46241 0.6078 0.3068 0.0
C534 C 0.45832 0.64308 0.33041 0.0
C535 C 0.42616 0.64566 0.30469 0.0
C536 C 0.47172 0.61832 0.32289 0.0
C537 C 0.44009 0.62082 0.29764 0.0
C538 C 0.47014 0.72678 0.36999 0.0
C539 C 0.45723 0.74417 0.39951 0.0
N540 N 0.48494 0.73822 0.40523 0.0
C541 C 0.49849 0.72087 0.37617 0.0
C542 C 0.44933 0.73856 0.38175 0.0
C543 C 0.50554 0.72679 0.39403 0.0
C544 C 0.51437 0.71505 0.32233 0.0
N545 N 0.49016 0.7029 0.3147 0.0
C546 C 0.51815 0.68857 0.289 0.0
C547 C 0.49164 0.68938 0.29845 0.0
C548 C 0.5433 0.70178 0.29638 0.0
C549 C 0.54124 0.71466 0.31343 0.0
H550 H 0.51252 0.72646 0.33498 0.0
H551 H 0.47202 0.68061 0.29235 0.0
C552 C 0.38957 0.6713 0.37819 0.0
N553 N 0.41772 0.67454 0.37255 0.0
C554 C 0.38362 0.65777 0.39459 0.0
C555 C 0.43566 0.64966 0.39853 0.0
C556 C 0.44056 0.66316 0.382 0.0
C557 C 0.40692 0.6476 0.40529 0.0
H558 H 0.37181 0.68028 0.37028 0.0
H559 H 0.46274 0.66579 0.37712 0.0
C560 C 0.45088 0.75281 0.30271 0.0
N561 N 0.48541 0.76233 0.27283 0.0
C562 C 0.47488 0.77191 0.30363 0.0
C563 C 0.44431 0.7387 0.28655 0.0
C564 C 0.49214 0.77634 0.2884 0.0
C565 C 0.46203 0.74383 0.27159 0.0
C566 C 0.37319 0.74894 0.35475 0.0
C567 C 0.35944 0.7679 0.34262 0.0
C568 C 0.36309 0.74745 0.37241 0.0
C569 C 0.33571 0.78497 0.34834 0.0
C570 C 0.33934 0.76492 0.37763 0.0
N571 N 0.32623 0.78313 0.36558 0.0
C572 C 0.34567 0.70223 0.31292 0.0
C573 C 0.36618 0.74165 0.2963 0.0
C574 C 0.31895 0.70531 0.30389 0.0
N575 N 0.36845 0.7205 0.30911 0.0
C576 C 0.33997 0.74546 0.28694 0.0
C577 C 0.31574 0.72744 0.29085 0.0
H578 H 0.348 0.68587 0.32336 0.0
H579 H 0.3843 0.7565 0.29393 0.0
C580 C 0.47206 0.79609 0.3531 0.0
N581 N 0.44297 0.78961 0.35237 0.0
C582 C 0.4814 0.8243 0.3577 0.0
C583 C 0.43066 0.83864 0.36127 0.0
C584 C 0.4223 0.81005 0.35662 0.0
C585 C 0.46055 0.84618 0.36152 0.0
H586 H 0.48806 0.77941 0.34968 0.0
H587 H 0.39935 0.80461 0.35604 0.0
O588 O 0.42216 0.68115 0.32826 0.0
O589 O 0.46299 0.7208 0.35253 0.0
O590 O 0.43412 0.74763 0.31759 0.0
O591 O 0.39602 0.73147 0.34931 0.0
H592 H 0.46576 0.65157 0.34318 0.0
H593 H 0.40844 0.65613 0.29742 0.0
H594 H 0.48954 0.60748 0.32984 0.0
H595 H 0.43319 0.61191 0.28488 0.0
H596 H 0.44132 0.75326 0.40874 0.0
H597 H 0.51485 0.71162 0.36729 0.0
H598 H 0.42734 0.74335 0.37728 0.0
H599 H 0.52739 0.72227 0.39898 0.0
H600 H 0.51878 0.67837 0.27589 0.0
H601 H 0.55985 0.72566 0.31948 0.0
H602 H 0.36107 0.65607 0.39905 0.0
H603 H 0.45433 0.64234 0.40632 0.0
H604 H 0.4803 0.78298 0.31601 0.0
H605 H 0.4261 0.72348 0.28565 0.0
H606 H 0.51092 0.79089 0.28896 0.0
H607 H 0.45734 0.73288 0.25904 0.0
H608 H 0.36741 0.76999 0.32906 0.0
H609 H 0.3735 0.73302 0.38203 0.0
H610 H 0.32495 0.7998 0.3391 0.0
H611 H 0.33131 0.76398 0.39126 0.0
H612 H 0.30092 0.69079 0.30723 0.0
H613 H 0.33836 0.76318 0.27728 0.0
H614 H 0.50469 0.82903 0.35799 0.0
H615 H 0.41384 0.8549 0.36395 0.0
Li616 Li 0.78269 0.95453 0.82866 0.0
Li617 Li 0.74244 0.93083 0.84373 0.0
Li618 Li 0.79127 0.92411 0.85513 0.0
Li619 Li 0.77538 0.90029 0.82641 0.0
C620 C 0.75657 0.98833 0.85528 0.0
N621 N 0.73182 0.04364 0.85843 0.0
C622 C 0.73494 0.99748 0.84324 0.0
C623 C 0.7656 0.00732 0.86895 0.0
C624 C 0.72269 0.02551 0.84504 0.0
C625 C 0.75282 0.0352 0.87031 0.0
C626 C 0.72668 0.93092 0.80618 0.0
C627 C 0.69033 0.90272 0.79007 0.0
N628 N 0.67989 0.92797 0.78263 0.0
C629 C 0.71566 0.95657 0.79827 0.0
C630 C 0.71396 0.90375 0.80197 0.0
C631 C 0.69195 0.95462 0.78646 0.0
C632 C 0.78702 0.9906 0.79813 0.0
N633 N 0.79322 0.98936 0.81592 0.0
C634 C 0.80369 0.0409 0.81652 0.0
C635 C 0.80257 0.01355 0.82502 0.0
C636 C 0.79537 0.04327 0.79846 0.0
C637 C 0.78798 0.0175 0.78907 0.0
H638 H 0.77967 0.97101 0.79122 0.0
H639 H 0.80764 0.01199 0.83912 0.0
C640 C 0.70095 0.94604 0.86956 0.0
N641 N 0.70314 0.93627 0.85238 0.0
C642 C 0.67363 0.95301 0.87685 0.0
C643 C 0.65111 0.93878 0.84887 0.0
C644 C 0.67884 0.93196 0.84216 0.0
C645 C 0.64826 0.94992 0.86635 0.0
H646 H 0.72058 0.94893 0.87751 0.0
H647 H 0.68078 0.92383 0.8287 0.0
C648 C 0.84017 0.93525 0.83312 0.0
N649 N 0.89499 0.96073 0.83631 0.0
C650 C 0.86343 0.92536 0.82251 0.0
C651 C 0.84478 0.95809 0.84536 0.0
C652 C 0.891 0.93853 0.82432 0.0
C653 C 0.87265 0.97068 0.84677 0.0
C654 C 0.73886 0.88019 0.86014 0.0
C655 C 0.73658 0.88326 0.87872 0.0
C656 C 0.71754 0.86426 0.8508 0.0
C657 C 0.71273 0.87065 0.88763 0.0
C658 C 0.69401 0.85199 0.8602 0.0
N659 N 0.69209 0.85544 0.87826 0.0
C660 C 0.80205 0.93477 0.891 0.0
C661 C 0.83586 0.90102 0.87828 0.0
C662 C 0.81481 0.93143 0.90783 0.0
N663 N 0.81256 0.91953 0.87672 0.0
C664 C 0.84933 0.89695 0.89494 0.0
C665 C 0.83862 0.91212 0.91003 0.0
H666 H 0.78312 0.94887 0.88939 0.0
H667 H 0.84362 0.88908 0.86666 0.0
C668 C 0.77744 0.86853 0.79366 0.0
N669 N 0.77789 0.86619 0.81182 0.0
C670 C 0.7743 0.84335 0.78306 0.0
C671 C 0.77399 0.81385 0.81003 0.0
C672 C 0.77687 0.83957 0.8201 0.0
C673 C 0.77197 0.8156 0.79128 0.0
H674 H 0.7781 0.89006 0.78747 0.0
H675 H 0.77707 0.83844 0.83457 0.0
O676 O 0.76917 0.96109 0.85367 0.0
O677 O 0.75029 0.93237 0.81753 0.0
O678 O 0.81309 0.92253 0.83146 0.0
O679 O 0.76163 0.89304 0.85112 0.0
H680 H 0.72764 0.98306 0.83267 0.0
H681 H 0.78248 0.00069 0.87831 0.0
H682 H 0.70592 0.03284 0.8358 0.0
H683 H 0.75966 0.05015 0.8808 0.0
H684 H 0.68024 0.88185 0.78678 0.0
H685 H 0.72528 0.9778 0.80115 0.0
H686 H 0.72193 0.88368 0.80797 0.0
H687 H 0.6832 0.97431 0.78029 0.0
H688 H 0.80998 0.06016 0.82417 0.0
H689 H 0.78127 0.01835 0.77516 0.0
H690 H 0.67245 0.96105 0.89049 0.0
H691 H 0.63224 0.93633 0.84018 0.0
H692 H 0.86021 0.90769 0.81298 0.0
H693 H 0.82709 0.96604 0.85371 0.0
H694 H 0.90921 0.9311 0.81619 0.0
H695 H 0.87651 0.98838 0.85619 0.0
H696 H 0.75289 0.8955 0.88615 0.0
H697 H 0.71904 0.86152 0.83645 0.0
H698 H 0.71058 0.87302 0.90199 0.0
H699 H 0.67726 0.83976 0.85312 0.0
H700 H 0.80542 0.94309 0.91911 0.0
H701 H 0.86775 0.88199 0.89604 0.0
H702 H 0.77308 0.8456 0.76864 0.0
H703 H 0.77197 0.79295 0.81691 0.0
H704 H 0.06628 0.10487 0.07589 0.0
H705 H 0.07555 0.08849 0.04513 0.0
H706 H 0.15049 0.14619 0.04208 0.0
H707 H 0.14115 0.16313 0.07255 0.0
H708 H 0.0767 0.1255 0.01447 0.0
H709 H 0.18241 0.06678 0.02357 0.0
H710 H 0.15819 0.07523 0.04204 0.0
H711 H 0.18188 0.10317 0.03299 0.0
C712 C 0.0848 0.11401 0.06871 0.0
C713 C 0.10301 0.13527 0.07677 0.0
C714 C 0.09013 0.10451 0.05117 0.0
C715 C 0.11392 0.11585 0.04143 0.0
C716 C 0.1324 0.13667 0.0495 0.0
H717 H 0.15121 0.1369 0.93014 0.0
H718 H 0.13674 0.14138 0.96159 0.0
C719 C 0.12704 0.14626 0.06698 0.0
C720 C 0.11844 0.10748 0.02243 0.0
H721 H 0.16904 0.07894 0.99348 0.0
C722 C 0.09672 0.11499 0.00989 0.0
C723 C 0.14448 0.09357 0.01652 0.0
C724 C 0.16799 0.08394 0.02949 0.0
C725 C 0.10091 0.11006 0.9915 0.0
C726 C 0.12751 0.09743 0.98553 0.0
C727 C 0.14872 0.0888 0.99811 0.0
C728 C 0.13442 0.09443 0.96624 0.0
C729 C 0.07702 0.11868 0.97853 0.0
C730 C 0.13796 0.06652 0.95847 0.0
C731 C 0.14621 0.06388 0.94048 0.0
C732 C 0.15144 0.08914 0.93005 0.0
C733 C 0.14746 0.11705 0.93785 0.0
C734 C 0.13902 0.11965 0.95577 0.0
H735 H 0.0556 0.12183 0.98539 0.0
H736 H 0.08307 0.13972 0.97194 0.0
H737 H 0.07444 0.10171 0.96793 0.0
H738 H 0.13468 0.04681 0.96639 0.0
H739 H 0.14949 0.0421 0.93491 0.0
H740 H 0.38454 0.55658 0.5715 0.0
H741 H 0.40272 0.56551 0.54093 0.0
H742 H 0.33362 0.62889 0.5325 0.0
H743 H 0.3156 0.62034 0.56285 0.0
H744 H 0.36744 0.55899 0.50788 0.0
H745 H 0.41078 0.67201 0.51762 0.0
H746 H 0.40487 0.64679 0.536 0.0
H747 H 0.37445 0.66637 0.52635 0.0
C748 C 0.37351 0.57266 0.56316 0.0
C749 C 0.34861 0.5877 0.56951 0.0
C750 C 0.3838 0.57761 0.54573 0.0
C751 C 0.36962 0.59802 0.53457 0.0
C752 C 0.34504 0.6133 0.54099 0.0
H753 H 0.368 0.66978 0.42964 0.0
H754 H 0.36095 0.65486 0.46069 0.0
C755 C 0.33465 0.60822 0.55827 0.0
C756 C 0.37949 0.60285 0.51593 0.0
H757 H 0.40273 0.65671 0.48744 0.0
C758 C 0.37563 0.58016 0.50339 0.0
C759 C 0.39007 0.63052 0.5102 0.0
C760 C 0.39557 0.65528 0.52325 0.0
C761 C 0.38062 0.58495 0.48504 0.0
C762 C 0.39023 0.61299 0.47923 0.0
C763 C 0.39519 0.63528 0.49191 0.0
C764 C 0.3937 0.62039 0.46001 0.0
C765 C 0.3742 0.56044 0.47196 0.0
C766 C 0.41434 0.60579 0.44924 0.0
C767 C 0.41816 0.61399 0.43132 0.0
C768 C 0.40154 0.63712 0.42389 0.0
C769 C 0.38075 0.65148 0.43475 0.0
C770 C 0.37689 0.6432 0.45259 0.0
H771 H 0.36093 0.54262 0.47814 0.0
H772 H 0.3623 0.56896 0.46006 0.0
H773 H 0.3952 0.55072 0.4673 0.0
H774 H 0.42789 0.58843 0.45478 0.0
H775 H 0.43425 0.60237 0.42332 0.0
H776 H 0.94402 0.8379 0.06416 0.0
H777 H 0.93518 0.85193 0.03305 0.0
H778 H 0.85447 0.8945 0.04854 0.0
H779 H 0.86324 0.88073 0.0798 0.0
H780 H 0.84807 0.85552 0.02016 0.0
H781 H 0.94096 0.93197 0.00801 0.0
H782 H 0.95166 0.89696 0.0171 0.0
H783 H 0.92936 0.92144 0.03024 0.0
C784 C 0.92473 0.85086 0.06104 0.0
C785 C 0.90438 0.85831 0.07449 0.0
C786 C 0.91971 0.85883 0.04323 0.0
C787 C 0.89436 0.87455 0.03853 0.0
C788 C 0.87422 0.88243 0.05192 0.0
H789 H 0.84964 0.95274 0.93628 0.0
H790 H 0.86424 0.94331 0.96729 0.0
C791 C 0.87921 0.87446 0.06975 0.0
C792 C 0.88789 0.88102 0.01948 0.0
H793 H 0.91411 0.91623 0.98236 0.0
C794 C 0.86244 0.86889 0.0119 0.0
C795 C 0.90659 0.89862 0.0088 0.0
C796 C 0.93354 0.91325 0.01646 0.0
C797 C 0.85533 0.87358 0.99385 0.0
C798 C 0.87447 0.89046 0.98302 0.0
C799 C 0.8997 0.90298 0.99065 0.0
C800 C 0.868 0.89616 0.9639 0.0
C801 C 0.82712 0.86085 0.9866 0.0
C802 C 0.86612 0.87285 0.95161 0.0
C803 C 0.85759 0.87813 0.93391 0.0
C804 C 0.85091 0.90686 0.92818 0.0
C805 C 0.85415 0.93031 0.94035 0.0
C806 C 0.86266 0.92499 0.95804 0.0
H807 H 0.81171 0.85467 0.99751 0.0
H808 H 0.81597 0.87677 0.97759 0.0
H809 H 0.83214 0.84072 0.97876 0.0
H810 H 0.87065 0.85048 0.95582 0.0
H811 H 0.85516 0.85957 0.92492 0.0
H812 H 0.63432 0.38455 0.42029 0.0
H813 H 0.6438 0.39734 0.45169 0.0
H814 H 0.5647 0.35225 0.46752 0.0
H815 H 0.55523 0.33902 0.43628 0.0
H816 H 0.60417 0.42762 0.47848 0.0
H817 H 0.63536 0.31237 0.49545 0.0
H818 H 0.63519 0.32595 0.4727 0.0
H819 H 0.60123 0.31751 0.48373 0.0
C820 C 0.61888 0.3775 0.43045 0.0
C821 C 0.59407 0.36072 0.42581 0.0
C822 C 0.62424 0.38495 0.44834 0.0
C823 C 0.60504 0.37551 0.46185 0.0
C824 C 0.57981 0.35958 0.45724 0.0
H825 H 0.60986 0.41853 0.57623 0.0
H826 H 0.59334 0.40956 0.54537 0.0
C827 C 0.57434 0.35226 0.43938 0.0
C828 C 0.61217 0.38109 0.48087 0.0
H829 H 0.63536 0.34687 0.51904 0.0
C830 C 0.61084 0.41002 0.48741 0.0
C831 C 0.62106 0.35801 0.49235 0.0
C832 C 0.62355 0.32669 0.48577 0.0
C833 C 0.6182 0.41645 0.50526 0.0
C834 C 0.62703 0.39335 0.51674 0.0
C835 C 0.62834 0.36445 0.51018 0.0
C836 C 0.63662 0.39892 0.53535 0.0
C837 C 0.61722 0.44794 0.51167 0.0
C838 C 0.66626 0.39548 0.53987 0.0
C839 C 0.67571 0.40057 0.55738 0.0
C840 C 0.65561 0.40896 0.57074 0.0
C841 C 0.6258 0.41199 0.56622 0.0
C842 C 0.61638 0.40709 0.54862 0.0
H843 H 0.61381 0.4637 0.50048 0.0
H844 H 0.59894 0.45056 0.52137 0.0
H845 H 0.63793 0.45367 0.5187 0.0
H846 H 0.68213 0.38897 0.52981 0.0
H847 H 0.69874 0.39761 0.56051 0.0
H848 H 0.21746 0.28672 0.20205 0.0
H849 H 0.26419 0.2966 0.21694 0.0
H850 H 0.25872 0.21289 0.24404 0.0
H851 H 0.21207 0.20267 0.22891 0.0
H852 H 0.27601 0.30234 0.25185 0.0
H853 H 0.34093 0.20979 0.22406 0.0
H854 H 0.3055 0.22005 0.21524 0.0
H855 H 0.30808 0.19794 0.23518 0.0
C856 C 0.22622 0.27041 0.21119 0.0
C857 C 0.21109 0.24392 0.21434 0.0
C858 C 0.25297 0.27604 0.21964 0.0
C859 C 0.26519 0.25535 0.23144 0.0
C860 C 0.2501 0.22888 0.23467 0.0
H861 H 0.39745 0.29389 0.31175 0.0
H862 H 0.35206 0.28535 0.29525 0.0
C863 C 0.22341 0.2231 0.22607 0.0
C864 C 0.29319 0.26207 0.24077 0.0
H865 H 0.36259 0.23644 0.24814 0.0
C866 C 0.295 0.288 0.25096 0.0
C867 C 0.31811 0.24361 0.23938 0.0
C868 C 0.31824 0.21645 0.22773 0.0
C869 C 0.32087 0.29578 0.26002 0.0
C870 C 0.34539 0.27667 0.25927 0.0
C871 C 0.34372 0.25097 0.24885 0.0
C872 C 0.37295 0.28276 0.26925 0.0
C873 C 0.32177 0.32467 0.27 0.0
C874 C 0.39997 0.28349 0.26022 0.0
C875 C 0.42613 0.28765 0.26968 0.0
C876 C 0.42582 0.29123 0.28842 0.0
C877 C 0.39862 0.29094 0.29737 0.0
C878 C 0.37253 0.28647 0.28791 0.0
H879 H 0.30538 0.3405 0.26463 0.0
H880 H 0.31641 0.32073 0.2843 0.0
H881 H 0.34385 0.33494 0.26924 0.0
H882 H 0.40086 0.28048 0.24583 0.0
H883 H 0.44663 0.28717 0.26236 0.0
H884 H 0.28457 0.69108 0.74249 0.0
H885 H 0.27182 0.73503 0.75983 0.0
H886 H 0.22989 0.77252 0.71334 0.0
H887 H 0.24123 0.7283 0.6962 0.0
H888 H 0.28773 0.79209 0.75445 0.0
H889 H 0.16665 0.78263 0.7507 0.0
H890 H 0.19082 0.75283 0.74452 0.0
H891 H 0.18381 0.78243 0.72907 0.0
C892 C 0.27229 0.7085 0.73601 0.0
C893 C 0.26395 0.70606 0.71792 0.0
C894 C 0.26516 0.73369 0.74592 0.0
C895 C 0.24943 0.75686 0.73798 0.0
C896 C 0.24144 0.75467 0.71988 0.0
H897 H 0.20334 0.93493 0.76918 0.0
H898 H 0.21042 0.88808 0.75345 0.0
C899 C 0.24841 0.7295 0.71 0.0
C900 C 0.24227 0.7838 0.7484 0.0
H901 H 0.18563 0.82852 0.76121 0.0
C902 C 0.26538 0.7999 0.75606 0.0
C903 C 0.21308 0.79402 0.75048 0.0
C904 C 0.18714 0.77693 0.74341 0.0
C905 C 0.26018 0.82624 0.76539 0.0
C906 C 0.23108 0.83662 0.76723 0.0
C907 C 0.20792 0.82052 0.75968 0.0
C908 C 0.22442 0.86421 0.77701 0.0
C909 C 0.28591 0.84314 0.77289 0.0
C910 C 0.2291 0.86599 0.79554 0.0
C911 C 0.22483 0.89258 0.80458 0.0
C912 C 0.21585 0.91799 0.79527 0.0
C913 C 0.21004 0.91578 0.77679 0.0
C914 C 0.21423 0.88909 0.76776 0.0
H915 H 0.30714 0.83533 0.76732 0.0
H916 H 0.28361 0.86703 0.77003 0.0
H917 H 0.28654 0.84031 0.78765 0.0
H918 H 0.23648 0.84687 0.80296 0.0
H919 H 0.22892 0.89332 0.81887 0.0
H920 H 0.54977 0.71517 0.26085 0.0
H921 H 0.59554 0.72397 0.24453 0.0
H922 H 0.6451 0.70469 0.29233 0.0
H923 H 0.59957 0.69485 0.30855 0.0
H924 H 0.63622 0.76681 0.2526 0.0
H925 H 0.68836 0.65661 0.25482 0.0
H926 H 0.64996 0.66225 0.25972 0.0
H927 H 0.67735 0.66979 0.27646 0.0
C928 C 0.57044 0.71202 0.26776 0.0
C929 C 0.57103 0.7042 0.28599 0.0
C930 C 0.59656 0.71731 0.25845 0.0
C931 C 0.62374 0.71469 0.26715 0.0
C932 C 0.62442 0.70631 0.28524 0.0
H933 H 0.80498 0.75455 0.24328 0.0
H934 H 0.75784 0.74228 0.25711 0.0
C935 C 0.59835 0.70099 0.29455 0.0
C936 C 0.65128 0.72265 0.25772 0.0
H937 H 0.71919 0.69681 0.24643 0.0
C938 C 0.65426 0.75143 0.25108 0.0
C939 C 0.67481 0.70258 0.25582 0.0
C940 C 0.67243 0.671 0.26192 0.0
C941 C 0.68046 0.76092 0.24303 0.0
C942 C 0.70413 0.74097 0.24136 0.0
C943 C 0.70104 0.7121 0.24781 0.0
C944 C 0.73239 0.74959 0.23305 0.0
C945 C 0.68289 0.79245 0.23683 0.0
C946 C 0.73368 0.75778 0.21495 0.0
C947 C 0.76059 0.76473 0.20699 0.0
C948 C 0.78676 0.76344 0.21698 0.0
C949 C 0.78529 0.7555 0.23518 0.0
C950 C 0.75838 0.74856 0.24311 0.0
H951 H 0.66566 0.80662 0.24288 0.0
H952 H 0.70474 0.80174 0.24021 0.0
H953 H 0.68027 0.79327 0.22205 0.0
H954 H 0.71395 0.75816 0.20686 0.0
H955 H 0.76099 0.7702 0.19287 0.0
H956 H 0.76032 0.26789 0.69653 0.0
H957 H 0.77229 0.22282 0.7127 0.0
H958 H 0.7192 0.25154 0.75723 0.0
H959 H 0.70589 0.29615 0.74077 0.0
H960 H 0.8006 0.21629 0.74452 0.0
H961 H 0.6885 0.16902 0.74899 0.0
H962 H 0.69723 0.19953 0.73446 0.0
H963 H 0.69144 0.20553 0.75802 0.0
C964 C 0.75062 0.2644 0.7096 0.0
C965 C 0.73181 0.28557 0.71723 0.0
C966 C 0.75777 0.23873 0.71891 0.0
C967 C 0.74633 0.23359 0.73607 0.0
C968 C 0.72781 0.25475 0.74385 0.0
H969 H 0.76991 0.09212 0.81293 0.0
H970 H 0.75998 0.13923 0.79826 0.0
C971 C 0.72049 0.28042 0.73449 0.0
C972 C 0.75441 0.20636 0.74589 0.0
H973 H 0.72587 0.14469 0.76542 0.0
C974 C 0.78427 0.20059 0.74905 0.0
C975 C 0.73307 0.18589 0.75176 0.0
C976 C 0.70079 0.19009 0.74801 0.0
C977 C 0.79333 0.17502 0.75806 0.0
C978 C 0.77198 0.15465 0.76394 0.0
C979 C 0.74215 0.16047 0.76092 0.0
C980 C 0.78008 0.12693 0.77311 0.0
C981 C 0.8256 0.1701 0.76145 0.0
C982 C 0.79483 0.10449 0.76382 0.0
C983 C 0.80057 0.07752 0.77216 0.0
C984 C 0.79173 0.0726 0.78996 0.0
C985 C 0.77746 0.09539 0.79931 0.0
C986 C 0.77157 0.12223 0.79093 0.0
H987 H 0.83862 0.19051 0.7594 0.0
H988 H 0.82929 0.16202 0.77531 0.0
H989 H 0.83389 0.15308 0.75205 0.0
H990 H 0.80125 0.1076 0.74997 0.0
H991 H 0.81163 0.0604 0.76464 0.0
H992 H 0.68896 0.251 0.25612 0.0
H993 H 0.73522 0.23787 0.24147 0.0
H994 H 0.78221 0.25688 0.29026 0.0
H995 H 0.73601 0.26927 0.30515 0.0
H996 H 0.78484 0.27236 0.23621 0.0
H997 H 0.81103 0.17393 0.27718 0.0
H998 H 0.77502 0.19055 0.27685 0.0
H999 H 0.80383 0.20643 0.29018 0.0
C1000 C 0.70912 0.25218 0.26377 0.0
C1001 C 0.70877 0.26109 0.28183 0.0
C1002 C 0.73553 0.24476 0.25536 0.0
C1003 C 0.76206 0.24588 0.26487 0.0
C1004 C 0.7619 0.25529 0.28278 0.0
H1005 H 0.93803 0.25874 0.2248 0.0
H1006 H 0.89043 0.26468 0.23939 0.0
C1007 C 0.73551 0.26277 0.2912 0.0
C1008 C 0.79005 0.23812 0.2559 0.0
H1009 H 0.8494 0.19227 0.25846 0.0
C1010 C 0.79886 0.25473 0.241 0.0
C1011 C 0.80808 0.21479 0.262 0.0
C1012 C 0.79894 0.19518 0.27732 0.0
C1013 C 0.82569 0.24929 0.23239 0.0
C1014 C 0.84439 0.22693 0.23904 0.0
C1015 C 0.83515 0.20962 0.25354 0.0
C1016 C 0.87397 0.22201 0.23137 0.0
C1017 C 0.83384 0.26755 0.21625 0.0
C1018 C 0.88094 0.19549 0.22267 0.0
C1019 C 0.90826 0.19198 0.2143 0.0
C1020 C 0.92894 0.21497 0.21454 0.0
C1021 C 0.92231 0.24089 0.22404 0.0
C1022 C 0.89514 0.24433 0.23239 0.0
H1023 H 0.81427 0.2781 0.21009 0.0
H1024 H 0.84916 0.28526 0.22042 0.0
H1025 H 0.84498 0.25389 0.20595 0.0
H1026 H 0.86492 0.17792 0.22188 0.0
H1027 H 0.91273 0.17181 0.20706 0.0
H1028 H 0.28608 0.44334 0.73562 0.0
H1029 H 0.28111 0.3976 0.75262 0.0
H1030 H 0.27688 0.34837 0.70328 0.0
H1031 H 0.28339 0.39368 0.68623 0.0
H1032 H 0.23481 0.36105 0.75218 0.0
H1033 H 0.33361 0.29895 0.7313 0.0
H1034 H 0.32941 0.33782 0.727 0.0
H1035 H 0.31228 0.31115 0.71254 0.0
C1036 C 0.28493 0.42272 0.72838 0.0
C1037 C 0.2851 0.42227 0.70953 0.0
C1038 C 0.28183 0.39659 0.73813 0.0
C1039 C 0.27893 0.36947 0.72926 0.0
C1040 C 0.2797 0.36889 0.71047 0.0
H1041 H 0.22896 0.19212 0.75868 0.0
H1042 H 0.24044 0.23833 0.74331 0.0
C1043 C 0.283 0.39494 0.70072 0.0
C1044 C 0.27293 0.34212 0.73955 0.0
H1045 H 0.29561 0.27108 0.74558 0.0
C1046 C 0.24831 0.34149 0.75088 0.0
C1047 C 0.29048 0.31654 0.73782 0.0
C1048 C 0.31808 0.31619 0.72664 0.0
C1049 C 0.24036 0.31582 0.76017 0.0
C1050 C 0.25759 0.29016 0.75816 0.0
C1051 C 0.28234 0.29079 0.74698 0.0
C1052 C 0.25027 0.2624 0.76757 0.0
C1053 C 0.21316 0.31607 0.7717 0.0
C1054 C 0.25214 0.26065 0.78629 0.0
C1055 C 0.24579 0.23425 0.79512 0.0
C1056 C 0.23749 0.20905 0.78537 0.0
C1057 C 0.23555 0.21098 0.76659 0.0
C1058 C 0.242 0.23738 0.75778 0.0
H1059 H 0.19908 0.33552 0.76895 0.0
H1060 H 0.20004 0.29577 0.76955 0.0
H1061 H 0.21971 0.31676 0.78602 0.0
H1062 H 0.25896 0.27959 0.79406 0.0
H1063 H 0.24812 0.23342 0.80955 0.0
H1064 H 0.30542 0.74095 0.25564 0.0
H1065 H 0.25851 0.75347 0.24165 0.0
H1066 H 0.21404 0.73802 0.29177 0.0
H1067 H 0.26098 0.72643 0.30604 0.0
H1068 H 0.20783 0.72008 0.23802 0.0
H1069 H 0.18643 0.82075 0.27822 0.0
H1070 H 0.22188 0.80301 0.2776 0.0
H1071 H 0.19295 0.78816 0.29126 0.0
C1072 C 0.28569 0.74041 0.26373 0.0
C1073 C 0.287 0.73287 0.28199 0.0
C1074 C 0.25889 0.74743 0.25569 0.0
C1075 C 0.23288 0.7472 0.26575 0.0
C1076 C 0.23394 0.73891 0.28385 0.0
H1077 H 0.05016 0.77765 0.23746 0.0
H1078 H 0.09621 0.76774 0.25328 0.0
C1079 C 0.26075 0.7319 0.29192 0.0
C1080 C 0.20466 0.75536 0.25719 0.0
H1081 H 0.14822 0.80488 0.2589 0.0
C1082 C 0.19484 0.73867 0.24255 0.0
C1083 C 0.18775 0.77963 0.26314 0.0
C1084 C 0.19784 0.79912 0.27831 0.0
C1085 C 0.16841 0.74539 0.2338 0.0
C1086 C 0.15158 0.76969 0.23972 0.0
C1087 C 0.16123 0.78628 0.25443 0.0
C1088 C 0.12396 0.7782 0.23065 0.0
C1089 C 0.15845 0.7262 0.21846 0.0
C1090 C 0.12444 0.78829 0.2129 0.0
C1091 C 0.09824 0.79424 0.20389 0.0
C1092 C 0.07103 0.79023 0.21246 0.0
C1093 C 0.07071 0.78129 0.23052 0.0
C1094 C 0.09698 0.77542 0.23954 0.0
H1095 H 0.17032 0.70484 0.21815 0.0
H1096 H 0.13451 0.72179 0.21933 0.0
H1097 H 0.16272 0.73777 0.20563 0.0
H1098 H 0.14511 0.79109 0.20593 0.0
H1099 H 0.09927 0.80156 0.19009 0.0
H1100 H 0.66739 0.59234 0.70328 0.0
H1101 H 0.67907 0.64061 0.71611 0.0
H1102 H 0.75459 0.60337 0.74252 0.0
H1103 H 0.744 0.55561 0.72919 0.0
H1104 H 0.68468 0.65922 0.75116 0.0
H1105 H 0.79035 0.67182 0.71526 0.0
H1106 H 0.76378 0.64398 0.70936 0.0
H1107 H 0.78836 0.6383 0.72791 0.0
C1108 C 0.68657 0.59446 0.71175 0.0
C1109 C 0.70479 0.57004 0.71512 0.0
C1110 C 0.69312 0.62202 0.71913 0.0
C1111 C 0.71806 0.6257 0.72994 0.0
C1112 C 0.73563 0.60118 0.73388 0.0
H1113 H 0.79664 0.76092 0.79457 0.0
H1114 H 0.78281 0.71583 0.77863 0.0
C1115 C 0.72921 0.57372 0.72646 0.0
C1116 C 0.72583 0.65507 0.73721 0.0
H1117 H 0.78157 0.70528 0.7394 0.0
C1118 C 0.70572 0.66947 0.74844 0.0
C1119 C 0.75326 0.66846 0.73355 0.0
C1120 C 0.77506 0.655 0.72071 0.0
C1121 C 0.71276 0.69638 0.75666 0.0
C1122 C 0.74051 0.70925 0.75342 0.0
C1123 C 0.76038 0.6952 0.74191 0.0
C1124 C 0.74964 0.73687 0.76233 0.0
C1125 C 0.69087 0.71045 0.76919 0.0
C1126 C 0.73598 0.76365 0.75811 0.0
C1127 C 0.74388 0.78943 0.76714 0.0
C1128 C 0.76553 0.78881 0.78058 0.0
C1129 C 0.77969 0.76203 0.78442 0.0
C1130 C 0.7719 0.73631 0.7753 0.0
H1131 H 0.67258 0.69529 0.77262 0.0
H1132 H 0.70181 0.71757 0.78176 0.0
H1133 H 0.68143 0.7303 0.76271 0.0
H1134 H 0.71896 0.76453 0.74799 0.0
H1135 H 0.73238 0.80966 0.76401 0.0
H1136 H 0.99308 0.62807 0.11057 0.0
H1137 H 0.00903 0.57716 0.10553 0.0
H1138 H 0.95206 0.54775 0.14804 0.0
H1139 H 0.93644 0.59846 0.1534 0.0
H1140 H 0.01292 0.52933 0.15024 0.0
H1141 H 0.96172 0.50601 0.08399 0.0
H1142 H 0.98212 0.53978 0.08613 0.0
H1143 H 0.94878 0.53502 0.09856 0.0
C1144 C 0.98387 0.61071 0.11878 0.0
C1145 C 0.96348 0.61724 0.13237 0.0
C1146 C 0.99281 0.58168 0.11578 0.0
C1147 C 0.98149 0.55879 0.12632 0.0
C1148 C 0.96085 0.56517 0.1397 0.0
H1149 H 0.98649 0.37145 0.12758 0.0
H1150 H 0.97417 0.42356 0.12387 0.0
C1151 C 0.95183 0.59411 0.14266 0.0
C1152 C 0.99243 0.52838 0.12427 0.0
H1153 H 0.99102 0.46846 0.09666 0.0
C1154 C 0.00835 0.51605 0.13848 0.0
C1155 C 0.98624 0.51125 0.10892 0.0
C1156 C 0.96862 0.52347 0.09352 0.0
C1157 C 0.01796 0.48678 0.13788 0.0
C1158 C 0.0117 0.46956 0.12257 0.0
C1159 C 0.99601 0.48194 0.10826 0.0
C1160 C 0.0193 0.43798 0.12199 0.0
C1161 C 0.03389 0.47414 0.15386 0.0
C1162 C 0.04872 0.4289 0.12155 0.0
C1163 C 0.05583 0.39917 0.12369 0.0
C1164 C 0.03357 0.3782 0.12638 0.0
C1165 C 0.00407 0.38723 0.12577 0.0
C1166 C 0.997 0.4169 0.12354 0.0
H1167 H 0.03284 0.48896 0.16569 0.0
H1168 H 0.02445 0.45245 0.15761 0.0
H1169 H 0.05732 0.47069 0.15038 0.0
H1170 H 0.06619 0.44495 0.12026 0.0
H1171 H 0.07873 0.39283 0.1242 0.0
H1172 H 0.87894 0.45328 0.60913 0.0
H1173 H 0.92923 0.46878 0.60205 0.0
H1174 H 0.94383 0.48967 0.65771 0.0
H1175 H 0.89389 0.47424 0.66487 0.0
H1176 H 0.95691 0.52304 0.60724 0.0
H1177 H 0.01218 0.435 0.64584 0.0
H1178 H 0.97367 0.43357 0.64023 0.0
H1179 H 0.98601 0.45492 0.6591 0.0
C1180 C 0.89291 0.46122 0.61983 0.0
C1181 C 0.88264 0.46223 0.63759 0.0
C1182 C 0.92158 0.46999 0.61577 0.0
C1183 C 0.94035 0.47982 0.62942 0.0
C1184 C 0.92992 0.48142 0.64707 0.0
H1185 H 0.09337 0.58672 0.63291 0.0
H1186 H 0.04373 0.56757 0.62916 0.0
C1187 C 0.9014 0.47257 0.65113 0.0
C1188 C 0.9708 0.48886 0.62537 0.0
H1189 H 0.04154 0.47691 0.63821 0.0
C1190 C 0.97552 0.51274 0.61378 0.0
C1191 C 0.99504 0.47499 0.63364 0.0
C1192 C 0.99154 0.448 0.64524 0.0
C1193 C 0.00382 0.52411 0.611 0.0
C1194 C 0.02779 0.51155 0.62032 0.0
C1195 C 0.02315 0.48674 0.63118 0.0
C1196 C 0.05761 0.52453 0.61998 0.0
C1197 C 0.0077 0.5495 0.5982 0.0
C1198 C 0.08196 0.50673 0.61611 0.0
C1199 C 0.11037 0.51736 0.6187 0.0
C1200 C 0.11504 0.54608 0.62518 0.0
C1201 C 0.09059 0.56437 0.62815 0.0
C1202 C 0.06215 0.5536 0.62572 0.0
H1203 H 0.99019 0.54967 0.58784 0.0
H1204 H 0.00621 0.5705 0.60575 0.0
H1205 H 0.02938 0.54862 0.59142 0.0
H1206 H 0.07896 0.48416 0.61178 0.0
H1207 H 0.12858 0.50245 0.61652 0.0
H1208 H 0.56672 0.10188 0.34509 0.0
H1209 H 0.55173 0.05053 0.34788 0.0
H1210 H 0.49097 0.07411 0.38978 0.0
H1211 H 0.50651 0.12568 0.38747 0.0
H1212 H 0.52474 0.02076 0.39604 0.0
H1213 H 0.47041 0.02288 0.3295 0.0
H1214 H 0.50783 0.03531 0.32923 0.0
H1215 H 0.48066 0.05599 0.34135 0.0
C1216 C 0.5506 0.09615 0.35516 0.0
C1217 C 0.53773 0.1179 0.36603 0.0
C1218 C 0.54185 0.06683 0.3566 0.0
C1219 C 0.51993 0.05873 0.36882 0.0
C1220 C 0.50778 0.08007 0.38018 0.0
H1221 H 0.43889 0.88579 0.38599 0.0
H1222 H 0.45242 0.93778 0.38927 0.0
C1223 C 0.51654 0.10949 0.37876 0.0
C1224 C 0.50914 0.02808 0.36919 0.0
H1225 H 0.47694 0.97585 0.34292 0.0
C1226 C 0.51402 0.01092 0.38453 0.0
C1227 C 0.49498 0.01554 0.35416 0.0
C1228 C 0.48787 0.03342 0.33768 0.0
C1229 C 0.50622 0.98101 0.38492 0.0
C1230 C 0.49295 0.96828 0.36966 0.0
C1231 C 0.48731 0.98571 0.35454 0.0
C1232 C 0.48579 0.9366 0.36866 0.0
C1233 C 0.51316 0.96297 0.40135 0.0
C1234 C 0.49992 0.91895 0.35589 0.0
C1235 C 0.4921 0.88947 0.35388 0.0
C1236 C 0.46989 0.87707 0.36456 0.0
C1237 C 0.45597 0.89476 0.37751 0.0
C1238 C 0.46386 0.92433 0.37952 0.0
H1239 H 0.52823 0.97471 0.41062 0.0
H1240 H 0.4925 0.95816 0.40866 0.0
H1241 H 0.52327 0.94163 0.39752 0.0
H1242 H 0.51675 0.92814 0.34729 0.0
H1243 H 0.50288 0.87664 0.34357 0.0
H1244 H 0.3826 0.04551 0.8991 0.0
H1245 H 0.4339 0.03352 0.90611 0.0
H1246 H 0.45354 0.0293 0.84963 0.0
H1247 H 0.40282 0.0419 0.84258 0.0
H1248 H 0.46367 0.98259 0.89624 0.0
H1249 H 0.51961 0.08074 0.86896 0.0
H1250 H 0.48071 0.08009 0.87363 0.0
H1251 H 0.49468 0.06512 0.85298 0.0
C1252 C 0.39805 0.04255 0.88822 0.0
C1253 C 0.38874 0.04457 0.87029 0.0
C1254 C 0.42724 0.03559 0.89223 0.0
C1255 C 0.44755 0.03095 0.87839 0.0
C1256 C 0.43835 0.03337 0.86052 0.0
H1257 H 0.5946 0.92411 0.86108 0.0
H1258 H 0.54657 0.94453 0.86832 0.0
C1259 C 0.40929 0.04022 0.85651 0.0
C1260 C 0.47796 0.02158 0.8823 0.0
H1261 H 0.54884 0.03639 0.87093 0.0
C1262 C 0.48241 0.99461 0.89106 0.0
C1263 C 0.50238 0.03757 0.87587 0.0
C1264 C 0.49914 0.06765 0.86751 0.0
C1265 C 0.51053 0.98218 0.89238 0.0
C1266 C 0.53457 0.99689 0.8844 0.0
C1267 C 0.53036 0.02488 0.87683 0.0
C1268 C 0.56365 0.98274 0.8822 0.0
C1269 C 0.51403 0.95316 0.90196 0.0
C1270 C 0.58929 0.99753 0.88744 0.0
C1271 C 0.61683 0.98624 0.88293 0.0
C1272 C 0.61924 0.95994 0.87306 0.0
C1273 C 0.59352 0.94458 0.86849 0.0
C1274 C 0.56601 0.95599 0.87289 0.0
H1275 H 0.49717 0.95054 0.91259 0.0
H1276 H 0.51101 0.93493 0.89223 0.0
H1277 H 0.53612 0.95105 0.90811 0.0
H1278 H 0.58796 0.01834 0.89449 0.0
H1279 H 0.63615 0.99886 0.88645 0.0
loop_
_geom_bond_atom_site_label_1
_geom_bond_atom_site_label_2
_geom_bond_distance
_geom_bond_site_symmetry_2
_ccdc_geom_bond_type
Li0 N17 1.990 . S
Li0 O60 1.956 . S
Li0 O61 1.970 . S
Li0 O62 1.961 . S
Li1 N25 1.990 . S
Li1 O60 1.970 . S
Li1 O61 1.956 . S
Li1 O63 1.961 . S
Li2 N47 1.990 . S
Li2 O60 1.961 . S
Li2 O62 1.956 . S
Li2 O63 1.970 . S
Li3 N53 1.990 . S
Li3 O61 1.961 . S
Li3 O62 1.970 . S
Li3 O63 1.956 . S
C4 C6 1.348 . S
C4 C7 1.356 . S
C4 O60 1.325 . S
N5 C8 1.314 . S
N5 C9 1.279 . S
C6 C4 1.348 . S
C6 C8 1.353 . S
C6 H64 0.929 . S
C7 C4 1.356 . S
C7 C9 1.358 . S
C7 H65 0.930 . S
C8 N5 1.314 . S
C8 C6 1.353 . S
C8 H66 0.930 . S
C9 N5 1.279 . S
C9 C7 1.358 . S
C9 H67 0.930 . S
C10 C13 1.348 . S
C10 C14 1.356 . S
C10 O61 1.325 . S
C11 N12 1.279 . S
C11 C14 1.358 . S
C11 H68 0.930 . S
N12 C11 1.279 . S
N12 C15 1.314 . S
C13 C10 1.348 . S
C13 C15 1.353 . S
C13 H69 0.929 . S
C14 C10 1.356 . S
C14 C11 1.358 . S
C14 H70 0.930 . S
C15 N12 1.314 . S
C15 C13 1.353 . S
C15 H71 0.930 . S
C16 N17 1.314 . S
C16 C21 1.353 . S
C16 H22 0.930 . S
N17 Li0 1.990 . S
N17 C16 1.314 . S
N17 C19 1.279 . S
C18 C19 1.358 . S
C18 C20 1.356 . S
C18 H72 0.930 . S
C19 N17 1.279 . S
C19 C18 1.358 . S
C19 H23 0.930 . S
C20 C18 1.356 . S
C20 C21 1.348 . S
C21 C16 1.353 . S
C21 C20 1.348 . S
C21 H73 0.964 . S
H22 C16 0.930 . S
H23 C19 0.930 . S
C24 N25 1.314 . S
C24 C26 1.353 . S
C24 H30 0.930 . S
N25 Li1 1.990 . S
N25 C24 1.314 . S
N25 C28 1.279 . S
C26 C24 1.353 . S
C26 C29 1.348 . S
C26 H74 0.929 . S
C27 C28 1.358 . S
C27 C29 1.356 . S
C27 H75 0.930 . S
C28 N25 1.279 . S
C28 C27 1.358 . S
C28 H31 0.930 . S
C29 C26 1.348 . S
C29 C27 1.356 . S
H30 C24 0.930 . S
H31 C28 0.930 . S
C32 C34 1.348 1_455 S
C32 C35 1.356 . S
C32 O62 1.325 . S
N33 C36 1.314 . S
N33 C37 1.279 . S
C34 C32 1.348 1_655 S
C34 C36 1.353 . S
C34 H76 0.929 . S
C35 C32 1.356 . S
C35 C37 1.358 1_455 S
C35 H77 0.930 . S
C36 N33 1.314 . S
C36 C34 1.353 . S
C36 H78 0.930 . S
C37 N33 1.279 . S
C37 C35 1.358 1_655 S
C37 H79 0.930 . S
C38 C39 1.348 . S
C38 C40 1.356 . S
C38 O63 1.325 . S
C39 C38 1.348 . S
C39 C41 1.353 . S
C39 H80 0.929 . S
C40 C38 1.356 . S
C40 C42 1.358 . S
C40 H81 0.930 . S
C41 C39 1.353 . S
C41 N43 1.314 . S
C41 H82 0.930 . S
C42 C40 1.358 . S
C42 N43 1.279 . S
C42 H83 0.930 . S
N43 C41 1.314 . S
N43 C42 1.279 . S
C44 C46 1.353 . S
C44 N47 1.314 . S
C44 H50 0.930 . S
C45 N47 1.279 . S
C45 C48 1.358 . S
C45 H51 0.930 . S
C46 C44 1.353 . S
C46 C49 1.348 . S
C46 H84 0.929 . S
N47 Li2 1.990 . S
N47 C44 1.314 . S
N47 C45 1.279 . S
C48 C45 1.358 . S
C48 C49 1.356 . S
C48 H85 0.930 . S
C49 C46 1.348 . S
C49 C48 1.356 . S
H50 C44 0.930 . S
H51 C45 0.930 . S
C52 N53 1.314 1_655 S
C52 C54 1.353 . S
C52 H58 0.930 . S
N53 Li3 1.990 . S
N53 C52 1.314 1_455 S
N53 C56 1.279 1_455 S
C54 C52 1.353 . S
C54 C57 1.348 . S
C54 H86 0.929 . S
C55 C56 1.358 . S
C55 C57 1.356 . S
C55 H87 0.930 . S
C56 N53 1.279 1_655 S
C56 C55 1.358 . S
C56 H59 0.930 1_655 S
C57 C54 1.348 . S
C57 C55 1.356 . S
H58 C52 0.930 . S
H59 C56 0.930 1_455 S
O60 Li0 1.956 . S
O60 Li1 1.970 . S
O60 Li2 1.961 . S
O60 C4 1.325 . S
O61 Li0 1.970 . S
O61 Li1 1.956 . S
O61 Li3 1.961 . S
O61 C10 1.325 . S
O62 Li0 1.961 . S
O62 Li2 1.956 . S
O62 Li3 1.970 . S
O62 C32 1.325 . S
O63 Li1 1.961 . S
O63 Li2 1.970 . S
O63 Li3 1.956 . S
O63 C38 1.325 . S
H64 C6 0.929 . S
H65 C7 0.930 . S
H66 C8 0.930 . S
H67 C9 0.930 . S
H68 C11 0.930 . S
H69 C13 0.929 . S
H70 C14 0.930 . S
H71 C15 0.930 . S
H72 C18 0.930 . S
H73 C21 0.964 . S
H74 C26 0.929 . S
H75 C27 0.930 . S
H76 C34 0.929 . S
H77 C35 0.930 . S
H78 C36 0.930 . S
H79 C37 0.930 . S
H80 C39 0.929 . S
H81 C40 0.930 . S
H82 C41 0.930 . S
H83 C42 0.930 . S
H84 C46 0.929 . S
H85 C48 0.930 . S
H86 C54 0.929 . S
H87 C55 0.930 . S
Li88 N105 1.990 . S
Li88 O148 1.956 . S
Li88 O149 1.970 . S
Li88 O150 1.961 . S
Li89 N113 1.990 . S
Li89 O148 1.970 . S
Li89 O149 1.956 . S
Li89 O151 1.961 . S
Li90 N135 1.990 . S
Li90 O148 1.961 . S
Li90 O150 1.956 . S
Li90 O151 1.970 . S
Li91 N141 1.990 . S
Li91 O149 1.961 . S
Li91 O150 1.970 . S
Li91 O151 1.956 . S
C92 C94 1.348 . S
C92 C95 1.356 . S
C92 O148 1.325 . S
N93 C96 1.314 . S
N93 C97 1.279 . S
C94 C92 1.348 . S
C94 C96 1.353 . S
C94 H152 0.929 . S
C95 C92 1.356 . S
C95 C97 1.358 . S
C95 H153 0.930 . S
C96 N93 1.314 . S
C96 C94 1.353 . S
C96 H154 0.930 . S
C97 N93 1.279 . S
C97 C95 1.358 . S
C97 H155 0.930 . S
C98 C101 1.348 . S
C98 C102 1.356 . S
C98 O149 1.325 . S
C99 N100 1.279 . S
C99 C102 1.358 . S
C99 H156 0.930 . S
N100 C99 1.279 . S
N100 C103 1.314 . S
C101 C98 1.348 . S
C101 C103 1.353 . S
C101 H157 0.929 . S
C102 C98 1.356 . S
C102 C99 1.358 . S
C102 H158 0.930 . S
C103 N100 1.314 . S
C103 C101 1.353 . S
C103 H159 0.930 . S
C104 N105 1.314 . S
C104 C109 1.353 . S
C104 H110 0.930 . S
N105 Li88 1.990 . S
N105 C104 1.314 . S
N105 C107 1.279 . S
C106 C107 1.358 . S
C106 C108 1.356 . S
C106 H160 0.930 . S
C107 N105 1.279 . S
C107 C106 1.358 . S
C107 H111 0.930 . S
C108 C106 1.356 . S
C108 C109 1.348 . S
C109 C104 1.353 . S
C109 C108 1.348 . S
C109 H161 0.929 . S
H110 C104 0.930 . S
H111 C107 0.930 . S
C112 N113 1.314 . S
C112 C114 1.353 . S
C112 H118 0.930 . S
N113 Li89 1.990 . S
N113 C112 1.314 . S
N113 C116 1.279 . S
C114 C112 1.353 . S
C114 C117 1.348 . S
C114 H162 0.929 . S
C115 C116 1.358 . S
C115 C117 1.356 . S
C115 H163 0.930 . S
C116 N113 1.279 . S
C116 C115 1.358 . S
C116 H119 0.930 . S
C117 C114 1.348 . S
C117 C115 1.356 . S
H118 C112 0.930 . S
H119 C116 0.930 . S
C120 C122 1.348 . S
C120 C123 1.356 . S
C120 O150 1.325 . S
N121 C124 1.314 . S
N121 C125 1.279 . S
C122 C120 1.348 . S
C122 C124 1.353 . S
C122 H164 0.929 . S
C123 C120 1.356 . S
C123 C125 1.358 . S
C123 H165 0.930 . S
C124 N121 1.314 . S
C124 C122 1.353 . S
C124 H166 0.930 . S
C125 N121 1.279 . S
C125 C123 1.358 . S
C125 H167 0.930 . S
C126 C127 1.348 . S
C126 C128 1.356 . S
C126 O151 1.325 . S
C127 C126 1.348 . S
C127 C129 1.353 . S
C127 H168 0.929 . S
C128 C126 1.356 . S
C128 C130 1.358 . S
C128 H169 0.930 . S
C129 C127 1.353 . S
C129 N131 1.314 . S
C129 H170 0.930 . S
C130 C128 1.358 . S
C130 N131 1.279 . S
C130 H171 0.930 . S
N131 C129 1.314 . S
N131 C130 1.279 . S
C132 C134 1.353 . S
C132 N135 1.314 . S
C132 H138 0.930 . S
C133 N135 1.279 . S
C133 C136 1.358 . S
C133 H139 0.930 . S
C134 C132 1.353 . S
C134 C137 1.348 . S
C134 H172 0.929 . S
N135 Li90 1.990 . S
N135 C132 1.314 . S
N135 C133 1.279 . S
C136 C133 1.358 . S
C136 C137 1.356 . S
C136 H173 0.930 . S
C137 C134 1.348 . S
C137 C136 1.356 . S
H138 C132 0.930 . S
H139 C133 0.930 . S
C140 N141 1.314 . S
C140 C142 1.353 . S
C140 H146 0.930 . S
N141 Li91 1.990 . S
N141 C140 1.314 . S
N141 C144 1.279 . S
C142 C140 1.353 . S
C142 C145 1.348 . S
C142 H174 0.929 . S
C143 C144 1.358 . S
C143 C145 1.356 . S
C143 H175 0.930 . S
C144 N141 1.279 . S
C144 C143 1.358 . S
C144 H147 0.930 . S
C145 C142 1.348 . S
C145 C143 1.356 . S
H146 C140 0.930 . S
H147 C144 0.930 . S
O148 Li88 1.956 . S
O148 Li89 1.970 . S
O148 Li90 1.961 . S
O148 C92 1.325 . S
O149 Li88 1.970 . S
O149 Li89 1.956 . S
O149 Li91 1.961 . S
O149 C98 1.325 . S
O150 Li88 1.961 . S
O150 Li90 1.956 . S
O150 Li91 1.970 . S
O150 C120 1.325 . S
O151 Li89 1.961 . S
O151 Li90 1.970 . S
O151 Li91 1.956 . S
O151 C126 1.325 . S
H152 C94 0.929 . S
H153 C95 0.930 . S
H154 C96 0.930 . S
H155 C97 0.930 . S
H156 C99 0.930 . S
H157 C101 0.929 . S
H158 C102 0.930 . S
H159 C103 0.930 . S
H160 C106 0.930 . S
H161 C109 0.929 . S
H162 C114 0.929 . S
H163 C115 0.930 . S
H164 C122 0.929 . S
H165 C123 0.930 . S
H166 C124 0.930 . S
H167 C125 0.930 . S
H168 C127 0.929 . S
H169 C128 0.930 . S
H170 C129 0.930 . S
H171 C130 0.930 . S
H172 C134 0.929 . S
H173 C136 0.930 . S
H174 C142 0.929 . S
H175 C143 0.930 . S
Li176 N193 1.990 . S
Li176 O236 1.956 . S
Li176 O237 1.970 . S
Li176 O238 1.961 . S
Li177 N201 1.990 . S
Li177 O236 1.970 . S
Li177 O237 1.956 . S
Li177 O239 1.961 . S
Li178 N223 1.990 . S
Li178 O236 1.961 . S
Li178 O238 1.956 . S
Li178 O239 1.970 . S
Li179 N229 1.990 . S
Li179 O237 1.961 . S
Li179 O238 1.970 . S
Li179 O239 1.956 . S
C180 C182 1.348 . S
C180 C183 1.356 . S
C180 O236 1.325 . S
N181 C184 1.314 . S
N181 C185 1.279 . S
C182 C180 1.348 . S
C182 C184 1.353 . S
C182 H240 0.929 . S
C183 C180 1.356 . S
C183 C185 1.358 . S
C183 H241 0.930 . S
C184 N181 1.314 . S
C184 C182 1.353 . S
C184 H242 0.930 . S
C185 N181 1.279 . S
C185 C183 1.358 . S
C185 H243 0.930 . S
C186 C189 1.348 . S
C186 C190 1.356 . S
C186 O237 1.325 . S
C187 N188 1.279 . S
C187 C190 1.358 . S
C187 H244 0.930 . S
N188 C187 1.279 . S
N188 C191 1.314 . S
C189 C186 1.348 . S
C189 C191 1.353 . S
C189 H245 0.929 . S
C190 C186 1.356 . S
C190 C187 1.358 . S
C190 H246 0.930 . S
C191 N188 1.314 . S
C191 C189 1.353 . S
C191 H247 0.930 . S
C192 N193 1.314 . S
C192 C197 1.353 . S
C192 H198 0.930 . S
N193 Li176 1.990 . S
N193 C192 1.314 . S
N193 C195 1.279 . S
C194 C195 1.358 . S
C194 C196 1.356 . S
C194 H248 0.930 . S
C195 N193 1.279 . S
C195 C194 1.358 . S
C195 H199 0.930 . S
C196 C194 1.356 . S
C196 C197 1.348 . S
C197 C192 1.353 . S
C197 C196 1.348 . S
C197 H249 0.929 . S
H198 C192 0.930 . S
H199 C195 0.930 . S
C200 N201 1.314 . S
C200 C202 1.353 . S
C200 H206 0.930 . S
N201 Li177 1.990 . S
N201 C200 1.314 . S
N201 C204 1.279 . S
C202 C200 1.353 . S
C202 C205 1.348 . S
C202 H250 0.964 . S
C203 C204 1.358 . S
C203 C205 1.356 . S
C203 H251 0.930 . S
C204 N201 1.279 . S
C204 C203 1.358 . S
C204 H207 0.930 . S
C205 C202 1.348 . S
C205 C203 1.356 . S
H206 C200 0.930 . S
H207 C204 0.930 . S
C208 C210 1.348 . S
C208 C211 1.356 . S
C208 O238 1.325 . S
N209 C212 1.314 . S
N209 C213 1.279 . S
C210 C208 1.348 . S
C210 C212 1.353 . S
C210 H252 0.929 . S
C211 C208 1.356 . S
C211 C213 1.358 . S
C211 H253 0.930 . S
C212 N209 1.314 . S
C212 C210 1.353 . S
C212 H254 0.930 . S
C213 N209 1.279 . S
C213 C211 1.358 . S
C213 H255 0.930 . S
C214 C215 1.348 1_655 S
C214 C216 1.356 . S
C214 O239 1.325 . S
C215 C214 1.348 1_455 S
C215 C217 1.353 . S
C215 H256 0.929 . S
C216 C214 1.356 . S
C216 C218 1.358 1_655 S
C216 H257 0.930 . S
C217 C215 1.353 . S
C217 N219 1.314 . S
C217 H258 0.930 . S
C218 C216 1.358 1_455 S
C218 N219 1.279 . S
C218 H259 0.930 . S
N219 C217 1.314 . S
N219 C218 1.279 . S
C220 C222 1.353 . S
C220 N223 1.314 1_455 S
C220 H226 0.930 . S
C221 N223 1.279 1_455 S
C221 C224 1.358 . S
C221 H227 0.930 1_455 S
C222 C220 1.353 . S
C222 C225 1.348 . S
C222 H260 0.929 . S
N223 Li178 1.990 . S
N223 C220 1.314 1_655 S
N223 C221 1.279 1_655 S
C224 C221 1.358 . S
C224 C225 1.356 . S
C224 H261 0.930 . S
C225 C222 1.348 . S
C225 C224 1.356 . S
H226 C220 0.930 . S
H227 C221 0.930 1_655 S
C228 N229 1.314 . S
C228 C230 1.353 . S
C228 H234 0.930 . S
N229 Li179 1.990 . S
N229 C228 1.314 . S
N229 C232 1.279 . S
C230 C228 1.353 . S
C230 C233 1.348 . S
C230 H262 0.929 . S
C231 C232 1.358 . S
C231 C233 1.356 . S
C231 H263 0.930 . S
C232 N229 1.279 . S
C232 C231 1.358 . S
C232 H235 0.930 . S
C233 C230 1.348 . S
C233 C231 1.356 . S
H234 C228 0.930 . S
H235 C232 0.930 . S
O236 Li176 1.956 . S
O236 Li177 1.970 . S
O236 Li178 1.961 . S
O236 C180 1.325 . S
O237 Li176 1.970 . S
O237 Li177 1.956 . S
O237 Li179 1.961 . S
O237 C186 1.325 . S
O238 Li176 1.961 . S
O238 Li178 1.956 . S
O238 Li179 1.970 . S
O238 C208 1.325 . S
O239 Li177 1.961 . S
O239 Li178 1.970 . S
O239 Li179 1.956 . S
O239 C214 1.325 . S
H240 C182 0.929 . S
H241 C183 0.930 . S
H242 C184 0.930 . S
H243 C185 0.930 . S
H244 C187 0.930 . S
H245 C189 0.929 . S
H246 C190 0.930 . S
H247 C191 0.930 . S
H248 C194 0.930 . S
H249 C197 0.929 . S
H250 C202 0.964 . S
H251 C203 0.930 . S
H252 C210 0.929 . S
H253 C211 0.930 . S
H254 C212 0.930 . S
H255 C213 0.930 . S
H256 C215 0.929 . S
H257 C216 0.930 . S
H258 C217 0.930 . S
H259 C218 0.930 . S
H260 C222 0.929 . S
H261 C224 0.930 . S
H262 C230 0.929 . S
H263 C231 0.930 . S
Li264 N281 1.990 . S
Li264 O324 1.956 . S
Li264 O325 1.970 . S
Li264 O326 1.961 . S
Li265 N289 1.990 . S
Li265 O324 1.970 . S
Li265 O325 1.956 . S
Li265 O327 1.961 . S
Li266 N311 1.990 . S
Li266 O324 1.961 . S
Li266 O326 1.956 . S
Li266 O327 1.970 . S
Li267 N317 1.990 . S
Li267 O325 1.961 . S
Li267 O326 1.970 . S
Li267 O327 1.956 . S
C268 C270 1.348 . S
C268 C271 1.356 . S
C268 O324 1.325 . S
N269 C272 1.314 . S
N269 C273 1.279 . S
C270 C268 1.348 . S
C270 C272 1.353 . S
C270 H328 0.929 . S
C271 C268 1.356 . S
C271 C273 1.358 . S
C271 H329 0.930 . S
C272 N269 1.314 . S
C272 C270 1.353 . S
C272 H330 0.930 . S
C273 N269 1.279 . S
C273 C271 1.358 . S
C273 H331 0.930 . S
C274 C277 1.348 . S
C274 C278 1.356 . S
C274 O325 1.325 . S
C275 N276 1.279 . S
C275 C278 1.358 . S
C275 H332 0.930 . S
N276 C275 1.279 . S
N276 C279 1.314 . S
C277 C274 1.348 . S
C277 C279 1.353 . S
C277 H333 0.929 . S
C278 C274 1.356 . S
C278 C275 1.358 . S
C278 H334 0.930 . S
C279 N276 1.314 . S
C279 C277 1.353 . S
C279 H335 0.930 . S
C280 N281 1.314 . S
C280 C285 1.353 . S
C280 H286 0.930 . S
N281 Li264 1.990 . S
N281 C280 1.314 . S
N281 C283 1.279 . S
C282 C283 1.358 . S
C282 C284 1.356 . S
C282 H336 0.930 . S
C283 N281 1.279 . S
C283 C282 1.358 . S
C283 H287 0.930 . S
C284 C282 1.356 . S
C284 C285 1.348 . S
C285 C280 1.353 . S
C285 C284 1.348 . S
C285 H337 0.929 . S
H286 C280 0.930 . S
H287 C283 0.930 . S
C288 N289 1.314 . S
C288 C290 1.353 . S
C288 H294 0.930 . S
N289 Li265 1.990 . S
N289 C288 1.314 . S
N289 C292 1.279 . S
C290 C288 1.353 . S
C290 C293 1.348 . S
C290 H338 0.929 . S
C291 C292 1.358 . S
C291 C293 1.356 . S
C291 H339 0.930 . S
C292 N289 1.279 . S
C292 C291 1.358 . S
C292 H295 0.930 . S
C293 C290 1.348 . S
C293 C291 1.356 . S
H294 C288 0.930 . S
H295 C292 0.930 . S
C296 C298 1.348 . S
C296 C299 1.356 . S
C296 O326 1.325 . S
N297 C300 1.314 . S
N297 C301 1.279 . S
C298 C296 1.348 . S
C298 C300 1.353 . S
C298 H340 0.929 . S
C299 C296 1.356 . S
C299 C301 1.358 . S
C299 H341 0.930 . S
C300 N297 1.314 . S
C300 C298 1.353 . S
C300 H342 0.930 . S
C301 N297 1.279 . S
C301 C299 1.358 . S
C301 H343 0.930 . S
C302 C303 1.348 . S
C302 C304 1.356 . S
C302 O327 1.325 . S
C303 C302 1.348 . S
C303 C305 1.353 . S
C303 H344 0.929 . S
C304 C302 1.356 . S
C304 C306 1.358 . S
C304 H345 0.930 . S
C305 C303 1.353 . S
C305 N307 1.314 . S
C305 H346 0.930 . S
C306 C304 1.358 . S
C306 N307 1.279 . S
C306 H347 0.930 . S
N307 C305 1.314 . S
N307 C306 1.279 . S
C308 C310 1.353 . S
C308 N311 1.314 . S
C308 H314 0.930 . S
C309 N311 1.279 . S
C309 C312 1.358 . S
C309 H315 0.930 . S
C310 C308 1.353 . S
C310 C313 1.348 . S
C310 H348 0.929 . S
N311 Li266 1.990 . S
N311 C308 1.314 . S
N311 C309 1.279 . S
C312 C309 1.358 . S
C312 C313 1.356 . S
C312 H349 0.930 . S
C313 C310 1.348 . S
C313 C312 1.356 . S
H314 C308 0.930 . S
H315 C309 0.930 . S
C316 N317 1.314 . S
C316 C318 1.353 . S
C316 H322 0.930 . S
N317 Li267 1.990 . S
N317 C316 1.314 . S
N317 C320 1.279 . S
C318 C316 1.353 . S
C318 C321 1.348 . S
C318 H350 0.929 . S
C319 C320 1.358 . S
C319 C321 1.356 . S
C319 H351 0.930 . S
C320 N317 1.279 . S
C320 C319 1.358 . S
C320 H323 0.930 . S
C321 C318 1.348 . S
C321 C319 1.356 . S
H322 C316 0.930 . S
H323 C320 0.930 . S
O324 Li264 1.956 . S
O324 Li265 1.970 . S
O324 Li266 1.961 . S
O324 C268 1.325 . S
O325 Li264 1.970 . S
O325 Li265 1.956 . S
O325 Li267 1.961 . S
O325 C274 1.325 . S
O326 Li264 1.961 . S
O326 Li266 1.956 . S
O326 Li267 1.970 . S
O326 C296 1.325 . S
O327 Li265 1.961 . S
O327 Li266 1.970 . S
O327 Li267 1.956 . S
O327 C302 1.325 . S
H328 C270 0.929 . S
H329 C271 0.930 . S
H330 C272 0.930 . S
H331 C273 0.930 . S
H332 C275 0.930 . S
H333 C277 0.929 . S
H334 C278 0.930 . S
H335 C279 0.930 . S
H336 C282 0.930 . S
H337 C285 0.929 . S
H338 C290 0.929 . S
H339 C291 0.930 . S
H340 C298 0.929 . S
H341 C299 0.930 . S
H342 C300 0.930 . S
H343 C301 0.930 . S
H344 C303 0.929 . S
H345 C304 0.930 . S
H346 C305 0.930 . S
H347 C306 0.930 . S
H348 C310 0.929 . S
H349 C312 0.930 . S
H350 C318 0.929 . S
H351 C319 0.930 . S
Li352 N369 1.990 . S
Li352 O412 1.956 . S
Li352 O413 1.970 . S
Li352 O414 1.961 . S
Li353 N377 1.990 . S
Li353 O412 1.970 . S
Li353 O413 1.956 . S
Li353 O415 1.961 . S
Li354 N399 1.990 . S
Li354 O412 1.961 . S
Li354 O414 1.956 . S
Li354 O415 1.970 . S
Li355 N405 1.990 . S
Li355 O413 1.961 . S
Li355 O414 1.970 . S
Li355 O415 1.956 . S
C356 C358 1.348 . S
C356 C359 1.356 . S
C356 O412 1.325 . S
N357 C360 1.314 . S
N357 C361 1.279 . S
C358 C356 1.348 . S
C358 C360 1.353 . S
C358 H416 0.929 . S
C359 C356 1.356 . S
C359 C361 1.358 . S
C359 H417 0.930 . S
C360 N357 1.314 . S
C360 C358 1.353 . S
C360 H418 0.930 . S
C361 N357 1.279 . S
C361 C359 1.358 . S
C361 H419 0.930 . S
C362 C365 1.348 . S
C362 C366 1.356 . S
C362 O413 1.325 . S
C363 N364 1.279 . S
C363 C366 1.358 . S
C363 H420 0.930 . S
N364 C363 1.279 . S
N364 C367 1.314 . S
C365 C362 1.348 . S
C365 C367 1.353 . S
C365 H421 0.929 . S
C366 C362 1.356 . S
C366 C363 1.358 . S
C366 H422 0.930 . S
C367 N364 1.314 . S
C367 C365 1.353 . S
C367 H423 0.930 . S
C368 N369 1.314 . S
C368 C373 1.353 . S
C368 H374 0.930 . S
N369 Li352 1.990 . S
N369 C368 1.314 . S
N369 C371 1.279 . S
C370 C371 1.358 . S
C370 C372 1.356 . S
C370 H424 0.930 . S
C371 N369 1.279 . S
C371 C370 1.358 . S
C371 H375 0.930 . S
C372 C370 1.356 . S
C372 C373 1.348 . S
C373 C368 1.353 . S
C373 C372 1.348 . S
C373 H425 0.929 . S
H374 C368 0.930 . S
H375 C371 0.930 . S
C376 N377 1.314 . S
C376 C378 1.353 . S
C376 H382 0.930 . S
N377 Li353 1.990 . S
N377 C376 1.314 . S
N377 C380 1.279 . S
C378 C376 1.353 . S
C378 C381 1.348 . S
C378 H426 0.929 . S
C379 C380 1.358 . S
C379 C381 1.356 . S
C379 H427 0.930 . S
C380 N377 1.279 . S
C380 C379 1.358 . S
C380 H383 0.930 . S
C381 C378 1.348 . S
C381 C379 1.356 . S
H382 C376 0.930 . S
H383 C380 0.930 . S
C384 C386 1.348 . S
C384 C387 1.356 . S
C384 O414 1.325 . S
N385 C388 1.314 . S
N385 C389 1.279 . S
C386 C384 1.348 . S
C386 C388 1.353 . S
C386 H428 0.929 . S
C387 C384 1.356 . S
C387 C389 1.358 . S
C387 H429 0.930 . S
C388 N385 1.314 . S
C388 C386 1.353 . S
C388 H430 0.930 . S
C389 N385 1.279 . S
C389 C387 1.358 . S
C389 H431 0.930 . S
C390 C391 1.348 . S
C390 C392 1.356 . S
C390 O415 1.325 . S
C391 C390 1.348 . S
C391 C393 1.353 . S
C391 H432 0.929 . S
C392 C390 1.356 . S
C392 C394 1.358 . S
C392 H433 0.930 . S
C393 C391 1.353 . S
C393 N395 1.314 . S
C393 H434 0.930 . S
C394 C392 1.358 . S
C394 N395 1.279 . S
C394 H435 0.930 . S
N395 C393 1.314 . S
N395 C394 1.279 . S
C396 C398 1.353 . S
C396 N399 1.314 . S
C396 H402 0.930 . S
C397 N399 1.279 . S
C397 C400 1.358 . S
C397 H403 0.930 . S
C398 C396 1.353 . S
C398 C401 1.348 . S
C398 H436 0.929 . S
N399 Li354 1.990 . S
N399 C396 1.314 . S
N399 C397 1.279 . S
C400 C397 1.358 . S
C400 C401 1.356 . S
C400 H437 0.930 . S
C401 C398 1.348 . S
C401 C400 1.356 . S
H402 C396 0.930 . S
H403 C397 0.930 . S
C404 N405 1.314 . S
C404 C406 1.353 . S
C404 H410 0.930 . S
N405 Li355 1.990 . S
N405 C404 1.314 . S
N405 C408 1.279 . S
C406 C404 1.353 . S
C406 C409 1.348 . S
C406 H438 0.929 . S
C407 C408 1.358 . S
C407 C409 1.356 . S
C407 H439 0.930 . S
C408 N405 1.279 . S
C408 C407 1.358 . S
C408 H411 0.930 . S
C409 C406 1.348 . S
C409 C407 1.356 . S
H410 C404 0.930 . S
H411 C408 0.930 . S
O412 Li352 1.956 . S
O412 Li353 1.970 . S
O412 Li354 1.961 . S
O412 C356 1.325 . S
O413 Li352 1.970 . S
O413 Li353 1.956 . S
O413 Li355 1.961 . S
O413 C362 1.325 . S
O414 Li352 1.961 . S
O414 Li354 1.956 . S
O414 Li355 1.970 . S
O414 C384 1.325 . S
O415 Li353 1.961 . S
O415 Li354 1.970 . S
O415 Li355 1.956 . S
O415 C390 1.325 . S
H416 C358 0.929 . S
H417 C359 0.930 . S
H418 C360 0.930 . S
H419 C361 0.930 . S
H420 C363 0.930 . S
H421 C365 0.929 . S
H422 C366 0.930 . S
H423 C367 0.930 . S
H424 C370 0.930 . S
H425 C373 0.929 . S
H426 C378 0.929 . S
H427 C379 0.930 . S
H428 C386 0.929 . S
H429 C387 0.930 . S
H430 C388 0.930 . S
H431 C389 0.930 . S
H432 C391 0.929 . S
H433 C392 0.930 . S
H434 C393 0.930 . S
H435 C394 0.930 . S
H436 C398 0.929 . S
H437 C400 0.930 . S
H438 C406 0.929 . S
H439 C407 0.930 . S
Li440 N457 1.990 . S
Li440 O500 1.956 . S
Li440 O501 1.970 . S
Li440 O502 1.961 . S
Li441 N465 1.990 . S
Li441 O500 1.970 . S
Li441 O501 1.956 . S
Li441 O503 1.961 . S
Li442 N487 1.990 . S
Li442 O500 1.961 . S
Li442 O502 1.956 . S
Li442 O503 1.970 . S
Li443 N493 1.990 1_545 S
Li443 O501 1.961 . S
Li443 O502 1.970 . S
Li443 O503 1.956 . S
C444 C446 1.348 . S
C444 C447 1.356 . S
C444 O500 1.325 . S
N445 C448 1.314 . S
N445 C449 1.279 . S
C446 C444 1.348 . S
C446 C448 1.353 . S
C446 H504 0.929 . S
C447 C444 1.356 . S
C447 C449 1.358 . S
C447 H505 0.930 . S
C448 N445 1.314 . S
C448 C446 1.353 . S
C448 H506 0.930 . S
C449 N445 1.279 . S
C449 C447 1.358 . S
C449 H507 0.930 . S
C450 C453 1.348 . S
C450 C454 1.356 . S
C450 O501 1.325 . S
C451 N452 1.279 . S
C451 C454 1.358 . S
C451 H508 0.930 . S
N452 C451 1.279 . S
N452 C455 1.314 . S
C453 C450 1.348 . S
C453 C455 1.353 . S
C453 H509 0.929 . S
C454 C450 1.356 . S
C454 C451 1.358 . S
C454 H510 0.930 . S
C455 N452 1.314 . S
C455 C453 1.353 . S
C455 H511 0.930 . S
C456 N457 1.314 . S
C456 C461 1.353 . S
C456 H462 0.930 . S
N457 Li440 1.990 . S
N457 C456 1.314 . S
N457 C459 1.279 . S
C458 C459 1.358 . S
C458 C460 1.356 . S
C458 H512 0.930 . S
C459 N457 1.279 . S
C459 C458 1.358 . S
C459 H463 0.930 . S
C460 C458 1.356 . S
C460 C461 1.348 . S
C461 C456 1.353 . S
C461 C460 1.348 . S
C461 H513 0.929 . S
H462 C456 0.930 . S
H463 C459 0.930 . S
C464 N465 1.314 . S
C464 C466 1.353 . S
C464 H470 0.930 . S
N465 Li441 1.990 . S
N465 C464 1.314 . S
N465 C468 1.279 . S
C466 C464 1.353 . S
C466 C469 1.348 . S
C466 H514 0.929 . S
C467 C468 1.358 . S
C467 C469 1.356 . S
C467 H515 0.930 . S
C468 N465 1.279 . S
C468 C467 1.358 . S
C468 H471 0.930 . S
C469 C466 1.348 . S
C469 C467 1.356 . S
H470 C464 0.930 . S
H471 C468 0.930 . S
C472 C474 1.348 . S
C472 C475 1.356 . S
C472 O502 1.325 . S
N473 C476 1.314 . S
N473 C477 1.279 . S
C474 C472 1.348 . S
C474 C476 1.353 . S
C474 H516 0.929 . S
C475 C472 1.356 . S
C475 C477 1.358 . S
C475 H517 0.930 . S
C476 N473 1.314 . S
C476 C474 1.353 . S
C476 H518 0.930 . S
C477 N473 1.279 . S
C477 C475 1.358 . S
C477 H519 0.930 . S
C478 C479 1.348 1_545 S
C478 C480 1.356 1_545 S
C478 O503 1.325 . S
C479 C478 1.348 1_565 S
C479 C481 1.353 . S
C479 H520 0.929 . S
C480 C478 1.356 1_565 S
C480 C482 1.358 . S
C480 H521 0.930 1_565 S
C481 C479 1.353 . S
C481 N483 1.314 . S
C481 H522 0.930 . S
C482 C480 1.358 . S
C482 N483 1.279 . S
C482 H523 0.930 . S
N483 C481 1.314 . S
N483 C482 1.279 . S
C484 C486 1.353 . S
C484 N487 1.314 . S
C484 H490 0.930 . S
C485 N487 1.279 . S
C485 C488 1.358 . S
C485 H491 0.930 . S
C486 C484 1.353 . S
C486 C489 1.348 . S
C486 H524 0.929 . S
N487 Li442 1.990 . S
N487 C484 1.314 . S
N487 C485 1.279 . S
C488 C485 1.358 . S
C488 C489 1.356 . S
C488 H525 0.930 . S
C489 C486 1.348 . S
C489 C488 1.356 . S
H490 C484 0.930 . S
H491 C485 0.930 . S
C492 N493 1.314 . S
C492 C494 1.353 . S
C492 H498 0.930 1_565 S
N493 Li443 1.990 1_565 S
N493 C492 1.314 . S
N493 C496 1.279 . S
C494 C492 1.353 . S
C494 C497 1.348 . S
C494 H526 0.929 . S
C495 C496 1.358 . S
C495 C497 1.356 . S
C495 H527 0.930 . S
C496 N493 1.279 . S
C496 C495 1.358 . S
C496 H499 0.930 . S
C497 C494 1.348 . S
C497 C495 1.356 . S
H498 C492 0.930 1_545 S
H499 C496 0.930 . S
O500 Li440 1.956 . S
O500 Li441 1.970 . S
O500 Li442 1.961 . S
O500 C444 1.325 . S
O501 Li440 1.970 . S
O501 Li441 1.956 . S
O501 Li443 1.961 . S
O501 C450 1.325 . S
O502 Li440 1.961 . S
O502 Li442 1.956 . S
O502 Li443 1.970 . S
O502 C472 1.325 . S
O503 Li441 1.961 . S
O503 Li442 1.970 . S
O503 Li443 1.956 . S
O503 C478 1.325 . S
H504 C446 0.929 . S
H505 C447 0.930 . S
H506 C448 0.930 . S
H507 C449 0.930 . S
H508 C451 0.930 . S
H509 C453 0.929 . S
H510 C454 0.930 . S
H511 C455 0.930 . S
H512 C458 0.930 . S
H513 C461 0.929 . S
H514 C466 0.929 . S
H515 C467 0.930 . S
H516 C474 0.929 . S
H517 C475 0.930 . S
H518 C476 0.930 . S
H519 C477 0.930 . S
H520 C479 0.929 . S
H521 C480 0.930 1_545 S
H522 C481 0.930 . S
H523 C482 0.930 . S
H524 C486 0.929 . S
H525 C488 0.930 . S
H526 C494 0.929 . S
H527 C495 0.930 . S
Li528 N545 1.990 . S
Li528 O588 1.956 . S
Li528 O589 1.970 . S
Li528 O590 1.961 . S
Li529 N553 1.990 . S
Li529 O588 1.970 . S
Li529 O589 1.956 . S
Li529 O591 1.961 . S
Li530 N575 1.990 . S
Li530 O588 1.961 . S
Li530 O590 1.956 . S
Li530 O591 1.970 . S
Li531 N581 1.990 . S
Li531 O589 1.961 . S
Li531 O590 1.970 . S
Li531 O591 1.956 . S
C532 C534 1.348 . S
C532 C535 1.356 . S
C532 O588 1.325 . S
N533 C536 1.314 . S
N533 C537 1.279 . S
C534 C532 1.348 . S
C534 C536 1.353 . S
C534 H592 0.929 . S
C535 C532 1.356 . S
C535 C537 1.358 . S
C535 H593 0.930 . S
C536 N533 1.314 . S
C536 C534 1.353 . S
C536 H594 0.930 . S
C537 N533 1.279 . S
C537 C535 1.358 . S
C537 H595 0.930 . S
C538 C541 1.348 . S
C538 C542 1.356 . S
C538 O589 1.325 . S
C539 N540 1.279 . S
C539 C542 1.358 . S
C539 H596 0.930 . S
N540 C539 1.279 . S
N540 C543 1.314 . S
C541 C538 1.348 . S
C541 C543 1.353 . S
C541 H597 0.929 . S
C542 C538 1.356 . S
C542 C539 1.358 . S
C542 H598 0.930 . S
C543 N540 1.314 . S
C543 C541 1.353 . S
C543 H599 0.930 . S
C544 N545 1.314 . S
C544 C549 1.353 . S
C544 H550 0.930 . S
N545 Li528 1.990 . S
N545 C544 1.314 . S
N545 C547 1.279 . S
C546 C547 1.358 . S
C546 C548 1.356 . S
C546 H600 0.930 . S
C547 N545 1.279 . S
C547 C546 1.358 . S
C547 H551 0.930 . S
C548 C546 1.356 . S
C548 C549 1.348 . S
C549 C544 1.353 . S
C549 C548 1.348 . S
C549 H601 0.929 . S
H550 C544 0.930 . S
H551 C547 0.930 . S
C552 N553 1.314 . S
C552 C554 1.353 . S
C552 H558 0.930 . S
N553 Li529 1.990 . S
N553 C552 1.314 . S
N553 C556 1.279 . S
C554 C552 1.353 . S
C554 C557 1.348 . S
C554 H602 0.929 . S
C555 C556 1.358 . S
C555 C557 1.356 . S
C555 H603 0.930 . S
C556 N553 1.279 . S
C556 C555 1.358 . S
C556 H559 0.930 . S
C557 C554 1.348 . S
C557 C555 1.356 . S
H558 C552 0.930 . S
H559 C556 0.930 . S
C560 C562 1.348 . S
C560 C563 1.356 . S
C560 O590 1.325 . S
N561 C564 1.314 . S
N561 C565 1.279 . S
C562 C560 1.348 . S
C562 C564 1.353 . S
C562 H604 0.929 . S
C563 C560 1.356 . S
C563 C565 1.358 . S
C563 H605 0.930 . S
C564 N561 1.314 . S
C564 C562 1.353 . S
C564 H606 0.930 . S
C565 N561 1.279 . S
C565 C563 1.358 . S
C565 H607 0.930 . S
C566 C567 1.348 . S
C566 C568 1.356 . S
C566 O591 1.325 . S
C567 C566 1.348 . S
C567 C569 1.353 . S
C567 H608 0.929 . S
C568 C566 1.356 . S
C568 C570 1.358 . S
C568 H609 0.930 . S
C569 C567 1.353 . S
C569 N571 1.314 . S
C569 H610 0.930 . S
C570 C568 1.358 . S
C570 N571 1.279 . S
C570 H611 0.930 . S
N571 C569 1.314 . S
N571 C570 1.279 . S
C572 C574 1.353 . S
C572 N575 1.314 . S
C572 H578 0.930 . S
C573 N575 1.279 . S
C573 C576 1.358 . S
C573 H579 0.930 . S
C574 C572 1.353 . S
C574 C577 1.348 . S
C574 H612 0.929 . S
N575 Li530 1.990 . S
N575 C572 1.314 . S
N575 C573 1.279 . S
C576 C573 1.358 . S
C576 C577 1.356 . S
C576 H613 0.930 . S
C577 C574 1.348 . S
C577 C576 1.356 . S
H578 C572 0.930 . S
H579 C573 0.930 . S
C580 N581 1.314 . S
C580 C582 1.353 . S
C580 H586 0.930 . S
N581 Li531 1.990 . S
N581 C580 1.314 . S
N581 C584 1.279 . S
C582 C580 1.353 . S
C582 C585 1.348 . S
C582 H614 0.929 . S
C583 C584 1.358 . S
C583 C585 1.356 . S
C583 H615 0.930 . S
C584 N581 1.279 . S
C584 C583 1.358 . S
C584 H587 0.930 . S
C585 C582 1.348 . S
C585 C583 1.356 . S
H586 C580 0.930 . S
H587 C584 0.930 . S
O588 Li528 1.956 . S
O588 Li529 1.970 . S
O588 Li530 1.961 . S
O588 C532 1.325 . S
O589 Li528 1.970 . S
O589 Li529 1.956 . S
O589 Li531 1.961 . S
O589 C538 1.325 . S
O590 Li528 1.961 . S
O590 Li530 1.956 . S
O590 Li531 1.970 . S
O590 C560 1.325 . S
O591 Li529 1.961 . S
O591 Li530 1.970 . S
O591 Li531 1.956 . S
O591 C566 1.325 . S
H592 C534 0.929 . S
H593 C535 0.930 . S
H594 C536 0.930 . S
H595 C537 0.930 . S
H596 C539 0.930 . S
H597 C541 0.929 . S
H598 C542 0.930 . S
H599 C543 0.930 . S
H600 C546 0.930 . S
H601 C549 0.929 . S
H602 C554 0.929 . S
H603 C555 0.930 . S
H604 C562 0.929 . S
H605 C563 0.930 . S
H606 C564 0.930 . S
H607 C565 0.930 . S
H608 C567 0.929 . S
H609 C568 0.930 . S
H610 C569 0.930 . S
H611 C570 0.930 . S
H612 C574 0.929 . S
H613 C576 0.930 . S
H614 C582 0.929 . S
H615 C583 0.930 . S
Li616 N633 1.990 1_565 S
Li616 O676 1.956 . S
Li616 O677 1.970 . S
Li616 O678 1.961 . S
Li617 N641 1.990 . S
Li617 O676 1.970 . S
Li617 O677 1.956 . S
Li617 O679 1.961 . S
Li618 N663 1.990 . S
Li618 O676 1.961 . S
Li618 O678 1.956 . S
Li618 O679 1.970 . S
Li619 N669 1.990 . S
Li619 O677 1.961 . S
Li619 O678 1.970 . S
Li619 O679 1.956 . S
C620 C622 1.348 1_565 S
C620 C623 1.356 1_565 S
C620 O676 1.325 . S
N621 C624 1.314 . S
N621 C625 1.279 . S
C622 C620 1.348 1_545 S
C622 C624 1.353 . S
C622 H680 0.929 . S
C623 C620 1.356 1_545 S
C623 C625 1.358 . S
C623 H681 0.930 1_545 S
C624 N621 1.314 . S
C624 C622 1.353 . S
C624 H682 0.930 . S
C625 N621 1.279 . S
C625 C623 1.358 . S
C625 H683 0.930 . S
C626 C629 1.348 . S
C626 C630 1.356 . S
C626 O677 1.325 . S
C627 N628 1.279 . S
C627 C630 1.358 . S
C627 H684 0.930 . S
N628 C627 1.279 . S
N628 C631 1.314 . S
C629 C626 1.348 . S
C629 C631 1.353 . S
C629 H685 0.929 . S
C630 C626 1.356 . S
C630 C627 1.358 . S
C630 H686 0.930 . S
C631 N628 1.314 . S
C631 C629 1.353 . S
C631 H687 0.930 . S
C632 N633 1.314 . S
C632 C637 1.353 . S
C632 H638 0.930 1_545 S
N633 Li616 1.990 1_545 S
N633 C632 1.314 . S
N633 C635 1.279 . S
C634 C635 1.358 . S
C634 C636 1.356 . S
C634 H688 0.930 . S
C635 N633 1.279 . S
C635 C634 1.358 . S
C635 H639 0.930 . S
C636 C634 1.356 . S
C636 C637 1.348 . S
C637 C632 1.353 . S
C637 C636 1.348 . S
C637 H689 0.929 . S
H638 C632 0.930 1_565 S
H639 C635 0.930 . S
C640 N641 1.314 . S
C640 C642 1.353 . S
C640 H646 0.930 . S
N641 Li617 1.990 . S
N641 C640 1.314 . S
N641 C644 1.279 . S
C642 C640 1.353 . S
C642 C645 1.348 . S
C642 H690 0.929 . S
C643 C644 1.358 . S
C643 C645 1.356 . S
C643 H691 0.930 . S
C644 N641 1.279 . S
C644 C643 1.358 . S
C644 H647 0.930 . S
C645 C642 1.348 . S
C645 C643 1.356 . S
H646 C640 0.930 . S
H647 C644 0.930 . S
C648 C650 1.348 . S
C648 C651 1.356 . S
C648 O678 1.325 . S
N649 C652 1.314 . S
N649 C653 1.279 . S
C650 C648 1.348 . S
C650 C652 1.353 . S
C650 H692 0.929 . S
C651 C648 1.356 . S
C651 C653 1.358 . S
C651 H693 0.930 . S
C652 N649 1.314 . S
C652 C650 1.353 . S
C652 H694 0.930 . S
C653 N649 1.279 . S
C653 C651 1.358 . S
C653 H695 0.930 . S
C654 C655 1.348 . S
C654 C656 1.356 . S
C654 O679 1.325 . S
C655 C654 1.348 . S
C655 C657 1.353 . S
C655 H696 0.929 . S
C656 C654 1.356 . S
C656 C658 1.358 . S
C656 H697 0.930 . S
C657 C655 1.353 . S
C657 N659 1.314 . S
C657 H698 0.930 . S
C658 C656 1.358 . S
C658 N659 1.279 . S
C658 H699 0.930 . S
N659 C657 1.314 . S
N659 C658 1.279 . S
C660 C662 1.353 . S
C660 N663 1.314 . S
C660 H666 0.930 . S
C661 N663 1.279 . S
C661 C664 1.358 . S
C661 H667 0.930 . S
C662 C660 1.353 . S
C662 C665 1.348 . S
C662 H700 0.929 . S
N663 Li618 1.990 . S
N663 C660 1.314 . S
N663 C661 1.279 . S
C664 C661 1.358 . S
C664 C665 1.356 . S
C664 H701 0.930 . S
C665 C662 1.348 . S
C665 C664 1.356 . S
H666 C660 0.930 . S
H667 C661 0.930 . S
C668 N669 1.314 . S
C668 C670 1.353 . S
C668 H674 0.930 . S
N669 Li619 1.990 . S
N669 C668 1.314 . S
N669 C672 1.279 . S
C670 C668 1.353 . S
C670 C673 1.348 . S
C670 H702 0.929 . S
C671 C672 1.358 . S
C671 C673 1.356 . S
C671 H703 0.930 . S
C672 N669 1.279 . S
C672 C671 1.358 . S
C672 H675 0.930 . S
C673 C670 1.348 . S
C673 C671 1.356 . S
H674 C668 0.930 . S
H675 C672 0.930 . S
O676 Li616 1.956 . S
O676 Li617 1.970 . S
O676 Li618 1.961 . S
O676 C620 1.325 . S
O677 Li616 1.970 . S
O677 Li617 1.956 . S
O677 Li619 1.961 . S
O677 C626 1.325 . S
O678 Li616 1.961 . S
O678 Li618 1.956 . S
O678 Li619 1.970 . S
O678 C648 1.325 . S
O679 Li617 1.961 . S
O679 Li618 1.970 . S
O679 Li619 1.956 . S
O679 C654 1.325 . S
H680 C622 0.929 . S
H681 C623 0.930 1_565 S
H682 C624 0.930 . S
H683 C625 0.930 . S
H684 C627 0.930 . S
H685 C629 0.929 . S
H686 C630 0.930 . S
H687 C631 0.930 . S
H688 C634 0.930 . S
H689 C637 0.929 . S
H690 C642 0.929 . S
H691 C643 0.930 . S
H692 C650 0.929 . S
H693 C651 0.930 . S
H694 C652 0.930 . S
H695 C653 0.930 . S
H696 C655 0.929 . S
H697 C656 0.930 . S
H698 C657 0.930 . S
H699 C658 0.930 . S
H700 C662 0.929 . S
H701 C664 0.930 . S
H702 C670 0.929 . S
H703 C671 0.930 . S
H704 C712 0.929 . S
H705 C714 0.930 . S
H706 C716 0.930 . S
H707 C719 0.929 . S
H708 C722 0.930 . S
H709 C724 0.960 . S
H710 C724 0.960 . S
H711 C724 0.960 . S
C712 H704 0.929 . S
C712 C713 1.377 . S
C712 C714 1.384 . S
C713 C712 1.377 . S
C713 C719 1.390 . S
C714 H705 0.930 . S
C714 C712 1.384 . S
C714 C715 1.372 . S
C715 C714 1.372 . S
C715 C716 1.400 . S
C715 C720 1.490 . S
C716 H706 0.930 . S
C716 C715 1.400 . S
C716 C719 1.386 . S
H717 C733 0.930 . S
H718 C734 0.931 . S
C719 H707 0.929 . S
C719 C713 1.390 . S
C719 C716 1.386 . S
C720 C715 1.490 . S
C720 C722 1.395 . S
C720 C723 1.403 . S
H721 C727 0.930 . S
C722 H708 0.930 . S
C722 C720 1.395 . S
C722 C725 1.403 1_554 S
C723 C720 1.403 . S
C723 C724 1.524 . S
C723 C727 1.400 1_554 S
C724 H709 0.960 . S
C724 H710 0.960 . S
C724 H711 0.960 . S
C724 C723 1.524 . S
C725 C722 1.403 1_556 S
C725 C726 1.392 . S
C725 C729 1.495 . S
C726 C725 1.392 . S
C726 C727 1.385 . S
C726 C728 1.478 . S
C727 H721 0.930 . S
C727 C723 1.400 1_556 S
C727 C726 1.385 . S
C728 C726 1.478 . S
C728 C730 1.381 . S
C728 C734 1.383 . S
C729 C725 1.495 . S
C729 H735 0.959 . S
C729 H736 0.961 . S
C729 H737 0.960 . S
C730 C728 1.381 . S
C730 C731 1.394 . S
C730 H738 0.930 . S
C731 C730 1.394 . S
C731 C732 1.383 . S
C731 H739 0.929 . S
C732 C731 1.383 . S
C732 C733 1.377 . S
C733 H717 0.930 . S
C733 C732 1.377 . S
C733 C734 1.379 . S
C734 H718 0.931 . S
C734 C728 1.383 . S
C734 C733 1.379 . S
H735 C729 0.959 . S
H736 C729 0.961 . S
H737 C729 0.960 . S
H738 C730 0.930 . S
H739 C731 0.929 . S
H740 C748 0.929 . S
H741 C750 0.930 . S
H742 C752 0.930 . S
H743 C755 0.929 . S
H744 C758 0.930 . S
H745 C760 0.960 . S
H746 C760 0.960 . S
H747 C760 0.960 . S
C748 H740 0.929 . S
C748 C749 1.377 . S
C748 C750 1.384 . S
C749 C748 1.377 . S
C749 C755 1.390 . S
C750 H741 0.930 . S
C750 C748 1.384 . S
C750 C751 1.372 . S
C751 C750 1.372 . S
C751 C752 1.400 . S
C751 C756 1.490 . S
C752 H742 0.930 . S
C752 C751 1.400 . S
C752 C755 1.386 . S
H753 C769 0.930 . S
H754 C770 0.931 . S
C755 H743 0.929 . S
C755 C749 1.390 . S
C755 C752 1.386 . S
C756 C751 1.490 . S
C756 C758 1.395 . S
C756 C759 1.403 . S
H757 C763 0.930 . S
C758 H744 0.930 . S
C758 C756 1.395 . S
C758 C761 1.403 . S
C759 C756 1.403 . S
C759 C760 1.524 . S
C759 C763 1.400 . S
C760 H745 0.960 . S
C760 H746 0.960 . S
C760 H747 0.960 . S
C760 C759 1.524 . S
C761 C758 1.403 . S
C761 C762 1.392 . S
C761 C765 1.495 . S
C762 C761 1.392 . S
C762 C763 1.385 . S
C762 C764 1.478 . S
C763 H757 0.930 . S
C763 C759 1.400 . S
C763 C762 1.385 . S
C764 C762 1.478 . S
C764 C766 1.381 . S
C764 C770 1.383 . S
C765 C761 1.495 . S
C765 H771 0.959 . S
C765 H772 0.961 . S
C765 H773 0.960 . S
C766 C764 1.381 . S
C766 C767 1.394 . S
C766 H774 0.930 . S
C767 C766 1.394 . S
C767 C768 1.383 . S
C767 H775 0.929 . S
C768 C767 1.383 . S
C768 C769 1.377 . S
C769 H753 0.930 . S
C769 C768 1.377 . S
C769 C770 1.379 . S
C770 H754 0.931 . S
C770 C764 1.383 . S
C770 C769 1.379 . S
H771 C765 0.959 . S
H772 C765 0.961 . S
H773 C765 0.960 . S
H774 C766 0.930 . S
H775 C767 0.929 . S
H776 C784 0.929 . S
H777 C786 0.930 . S
H778 C788 0.930 . S
H779 C791 0.929 . S
H780 C794 0.930 . S
H781 C796 0.960 . S
H782 C796 0.960 . S
H783 C796 0.960 . S
C784 H776 0.929 . S
C784 C785 1.377 . S
C784 C786 1.384 . S
C785 C784 1.377 . S
C785 C791 1.390 . S
C786 H777 0.930 . S
C786 C784 1.384 . S
C786 C787 1.372 . S
C787 C786 1.372 . S
C787 C788 1.400 . S
C787 C792 1.490 . S
C788 H778 0.930 . S
C788 C787 1.400 . S
C788 C791 1.386 . S
H789 C805 0.930 . S
H790 C806 0.931 . S
C791 H779 0.929 . S
C791 C785 1.390 . S
C791 C788 1.386 . S
C792 C787 1.490 . S
C792 C794 1.395 . S
C792 C795 1.403 . S
H793 C799 0.930 . S
C794 H780 0.930 . S
C794 C792 1.395 . S
C794 C797 1.403 1_554 S
C795 C792 1.403 . S
C795 C796 1.524 . S
C795 C799 1.400 1_554 S
C796 H781 0.960 . S
C796 H782 0.960 . S
C796 H783 0.960 . S
C796 C795 1.524 . S
C797 C794 1.403 1_556 S
C797 C798 1.392 . S
C797 C801 1.495 . S
C798 C797 1.392 . S
C798 C799 1.385 . S
C798 C800 1.478 . S
C799 H793 0.930 . S
C799 C795 1.400 1_556 S
C799 C798 1.385 . S
C800 C798 1.478 . S
C800 C802 1.381 . S
C800 C806 1.383 . S
C801 C797 1.495 . S
C801 H807 0.959 . S
C801 H808 0.961 . S
C801 H809 0.960 . S
C802 C800 1.381 . S
C802 C803 1.394 . S
C802 H810 0.930 . S
C803 C802 1.394 . S
C803 C804 1.383 . S
C803 H811 0.929 . S
C804 C803 1.383 . S
C804 C805 1.377 . S
C805 H789 0.930 . S
C805 C804 1.377 . S
C805 C806 1.379 . S
C806 H790 0.931 . S
C806 C800 1.383 . S
C806 C805 1.379 . S
H807 C801 0.959 . S
H808 C801 0.961 . S
H809 C801 0.960 . S
H810 C802 0.930 . S
H811 C803 0.929 . S
H812 C820 0.929 . S
H813 C822 0.930 . S
H814 C824 0.930 . S
H815 C827 0.929 . S
H816 C830 0.930 . S
H817 C832 0.960 . S
H818 C832 0.960 . S
H819 C832 0.960 . S
C820 H812 0.929 . S
C820 C821 1.377 . S
C820 C822 1.384 . S
C821 C820 1.377 . S
C821 C827 1.390 . S
C822 H813 0.930 . S
C822 C820 1.384 . S
C822 C823 1.372 . S
C823 C822 1.372 . S
C823 C824 1.400 . S
C823 C828 1.490 . S
C824 H814 0.930 . S
C824 C823 1.400 . S
C824 C827 1.386 . S
H825 C841 0.930 . S
H826 C842 0.931 . S
C827 H815 0.929 . S
C827 C821 1.390 . S
C827 C824 1.386 . S
C828 C823 1.490 . S
C828 C830 1.395 . S
C828 C831 1.403 . S
H829 C835 0.930 . S
C830 H816 0.930 . S
C830 C828 1.395 . S
C830 C833 1.403 . S
C831 C828 1.403 . S
C831 C832 1.524 . S
C831 C835 1.400 . S
C832 H817 0.960 . S
C832 H818 0.960 . S
C832 H819 0.960 . S
C832 C831 1.524 . S
C833 C830 1.403 . S
C833 C834 1.392 . S
C833 C837 1.495 . S
C834 C833 1.392 . S
C834 C835 1.385 . S
C834 C836 1.478 . S
C835 H829 0.930 . S
C835 C831 1.400 . S
C835 C834 1.385 . S
C836 C834 1.478 . S
C836 C838 1.381 . S
C836 C842 1.383 . S
C837 C833 1.495 . S
C837 H843 0.959 . S
C837 H844 0.961 . S
C837 H845 0.960 . S
C838 C836 1.381 . S
C838 C839 1.394 . S
C838 H846 0.930 . S
C839 C838 1.394 . S
C839 C840 1.383 . S
C839 H847 0.929 . S
C840 C839 1.383 . S
C840 C841 1.377 . S
C841 H825 0.930 . S
C841 C840 1.377 . S
C841 C842 1.379 . S
C842 H826 0.931 . S
C842 C836 1.383 . S
C842 C841 1.379 . S
H843 C837 0.959 . S
H844 C837 0.961 . S
H845 C837 0.960 . S
H846 C838 0.930 . S
H847 C839 0.929 . S
H848 C856 0.929 . S
H849 C858 0.930 . S
H850 C860 0.930 . S
H851 C863 0.929 . S
H852 C866 0.930 . S
H853 C868 0.960 . S
H854 C868 0.960 . S
H855 C868 0.960 . S
C856 H848 0.929 . S
C856 C857 1.377 . S
C856 C858 1.384 . S
C857 C856 1.377 . S
C857 C863 1.390 . S
C858 H849 0.930 . S
C858 C856 1.384 . S
C858 C859 1.372 . S
C859 C858 1.372 . S
C859 C860 1.400 . S
C859 C864 1.490 . S
C860 H850 0.930 . S
C860 C859 1.400 . S
C860 C863 1.386 . S
H861 C877 0.930 . S
H862 C878 0.931 . S
C863 H851 0.929 . S
C863 C857 1.390 . S
C863 C860 1.386 . S
C864 C859 1.490 . S
C864 C866 1.395 . S
C864 C867 1.403 . S
H865 C871 0.930 . S
C866 H852 0.930 . S
C866 C864 1.395 . S
C866 C869 1.403 . S
C867 C864 1.403 . S
C867 C868 1.524 . S
C867 C871 1.400 . S
C868 H853 0.960 . S
C868 H854 0.960 . S
C868 H855 0.960 . S
C868 C867 1.524 . S
C869 C866 1.403 . S
C869 C870 1.392 . S
C869 C873 1.495 . S
C870 C869 1.392 . S
C870 C871 1.385 . S
C870 C872 1.478 . S
C871 H865 0.930 . S
C871 C867 1.400 . S
C871 C870 1.385 . S
C872 C870 1.478 . S
C872 C874 1.381 . S
C872 C878 1.383 . S
C873 C869 1.495 . S
C873 H879 0.959 . S
C873 H880 0.961 . S
C873 H881 0.960 . S
C874 C872 1.381 . S
C874 C875 1.394 . S
C874 H882 0.930 . S
C875 C874 1.394 . S
C875 C876 1.383 . S
C875 H883 0.929 . S
C876 C875 1.383 . S
C876 C877 1.377 . S
C877 H861 0.930 . S
C877 C876 1.377 . S
C877 C878 1.379 . S
C878 H862 0.931 . S
C878 C872 1.383 . S
C878 C877 1.379 . S
H879 C873 0.959 . S
H880 C873 0.961 . S
H881 C873 0.960 . S
H882 C874 0.930 . S
H883 C875 0.929 . S
H884 C892 0.929 . S
H885 C894 0.930 . S
H886 C896 0.930 . S
H887 C899 0.929 . S
H888 C902 0.930 . S
H889 C904 0.960 . S
H890 C904 0.960 . S
H891 C904 0.960 . S
C892 H884 0.929 . S
C892 C893 1.377 . S
C892 C894 1.384 . S
C893 C892 1.377 . S
C893 C899 1.390 . S
C894 H885 0.930 . S
C894 C892 1.384 . S
C894 C895 1.372 . S
C895 C894 1.372 . S
C895 C896 1.400 . S
C895 C900 1.490 . S
C896 H886 0.930 . S
C896 C895 1.400 . S
C896 C899 1.386 . S
H897 C913 0.930 . S
H898 C914 0.931 . S
C899 H887 0.929 . S
C899 C893 1.390 . S
C899 C896 1.386 . S
C900 C895 1.490 . S
C900 C902 1.395 . S
C900 C903 1.403 . S
H901 C907 0.930 . S
C902 H888 0.930 . S
C902 C900 1.395 . S
C902 C905 1.403 . S
C903 C900 1.403 . S
C903 C904 1.524 . S
C903 C907 1.400 . S
C904 H889 0.960 . S
C904 H890 0.960 . S
C904 H891 0.960 . S
C904 C903 1.524 . S
C905 C902 1.403 . S
C905 C906 1.392 . S
C905 C909 1.495 . S
C906 C905 1.392 . S
C906 C907 1.385 . S
C906 C908 1.478 . S
C907 H901 0.930 . S
C907 C903 1.400 . S
C907 C906 1.385 . S
C908 C906 1.478 . S
C908 C910 1.381 . S
C908 C914 1.383 . S
C909 C905 1.495 . S
C909 H915 0.959 . S
C909 H916 0.961 . S
C909 H917 0.960 . S
C910 C908 1.381 . S
C910 C911 1.394 . S
C910 H918 0.930 . S
C911 C910 1.394 . S
C911 C912 1.383 . S
C911 H919 0.929 . S
C912 C911 1.383 . S
C912 C913 1.377 . S
C913 H897 0.930 . S
C913 C912 1.377 . S
C913 C914 1.379 . S
C914 H898 0.931 . S
C914 C908 1.383 . S
C914 C913 1.379 . S
H915 C909 0.959 . S
H916 C909 0.961 . S
H917 C909 0.960 . S
H918 C910 0.930 . S
H919 C911 0.929 . S
H920 C928 0.929 . S
H921 C930 0.930 . S
H922 C932 0.930 . S
H923 C935 0.929 . S
H924 C938 0.930 . S
H925 C940 0.960 . S
H926 C940 0.960 . S
H927 C940 0.960 . S
C928 H920 0.929 . S
C928 C929 1.377 . S
C928 C930 1.384 . S
C929 C928 1.377 . S
C929 C935 1.390 . S
C930 H921 0.930 . S
C930 C928 1.384 . S
C930 C931 1.372 . S
C931 C930 1.372 . S
C931 C932 1.400 . S
C931 C936 1.490 . S
C932 H922 0.930 . S
C932 C931 1.400 . S
C932 C935 1.386 . S
H933 C949 0.930 . S
H934 C950 0.931 . S
C935 H923 0.929 . S
C935 C929 1.390 . S
C935 C932 1.386 . S
C936 C931 1.490 . S
C936 C938 1.395 . S
C936 C939 1.403 . S
H937 C943 0.930 . S
C938 H924 0.930 . S
C938 C936 1.395 . S
C938 C941 1.403 . S
C939 C936 1.403 . S
C939 C940 1.524 . S
C939 C943 1.400 . S
C940 H925 0.960 . S
C940 H926 0.960 . S
C940 H927 0.960 . S
C940 C939 1.524 . S
C941 C938 1.403 . S
C941 C942 1.392 . S
C941 C945 1.495 . S
C942 C941 1.392 . S
C942 C943 1.385 . S
C942 C944 1.478 . S
C943 H937 0.930 . S
C943 C939 1.400 . S
C943 C942 1.385 . S
C944 C942 1.478 . S
C944 C946 1.381 . S
C944 C950 1.383 . S
C945 C941 1.495 . S
C945 H951 0.959 . S
C945 H952 0.961 . S
C945 H953 0.960 . S
C946 C944 1.381 . S
C946 C947 1.394 . S
C946 H954 0.930 . S
C947 C946 1.394 . S
C947 C948 1.383 . S
C947 H955 0.929 . S
C948 C947 1.383 . S
C948 C949 1.377 . S
C949 H933 0.930 . S
C949 C948 1.377 . S
C949 C950 1.379 . S
C950 H934 0.931 . S
C950 C944 1.383 . S
C950 C949 1.379 . S
H951 C945 0.959 . S
H952 C945 0.961 . S
H953 C945 0.960 . S
H954 C946 0.930 . S
H955 C947 0.929 . S
H956 C964 0.929 . S
H957 C966 0.930 . S
H958 C968 0.930 . S
H959 C971 0.929 . S
H960 C974 0.930 . S
H961 C976 0.960 . S
H962 C976 0.960 . S
H963 C976 0.960 . S
C964 H956 0.929 . S
C964 C965 1.377 . S
C964 C966 1.384 . S
C965 C964 1.377 . S
C965 C971 1.390 . S
C966 H957 0.930 . S
C966 C964 1.384 . S
C966 C967 1.372 . S
C967 C966 1.372 . S
C967 C968 1.400 . S
C967 C972 1.490 . S
C968 H958 0.930 . S
C968 C967 1.400 . S
C968 C971 1.386 . S
H969 C985 0.930 . S
H970 C986 0.931 . S
C971 H959 0.929 . S
C971 C965 1.390 . S
C971 C968 1.386 . S
C972 C967 1.490 . S
C972 C974 1.395 . S
C972 C975 1.403 . S
H973 C979 0.930 . S
C974 H960 0.930 . S
C974 C972 1.395 . S
C974 C977 1.403 . S
C975 C972 1.403 . S
C975 C976 1.524 . S
C975 C979 1.400 . S
C976 H961 0.960 . S
C976 H962 0.960 . S
C976 H963 0.960 . S
C976 C975 1.524 . S
C977 C974 1.403 . S
C977 C978 1.392 . S
C977 C981 1.495 . S
C978 C977 1.392 . S
C978 C979 1.385 . S
C978 C980 1.478 . S
C979 H973 0.930 . S
C979 C975 1.400 . S
C979 C978 1.385 . S
C980 C978 1.478 . S
C980 C982 1.381 . S
C980 C986 1.383 . S
C981 C977 1.495 . S
C981 H987 0.959 . S
C981 H988 0.961 . S
C981 H989 0.960 . S
C982 C980 1.381 . S
C982 C983 1.394 . S
C982 H990 0.930 . S
C983 C982 1.394 . S
C983 C984 1.383 . S
C983 H991 0.929 . S
C984 C983 1.383 . S
C984 C985 1.377 . S
C985 H969 0.930 . S
C985 C984 1.377 . S
C985 C986 1.379 . S
C986 H970 0.931 . S
C986 C980 1.383 . S
C986 C985 1.379 . S
H987 C981 0.959 . S
H988 C981 0.961 . S
H989 C981 0.960 . S
H990 C982 0.930 . S
H991 C983 0.929 . S
H992 C1000 0.929 . S
H993 C1002 0.930 . S
H994 C1004 0.930 . S
H995 C1007 0.929 . S
H996 C1010 0.930 . S
H997 C1012 0.960 . S
H998 C1012 0.960 . S
H999 C1012 0.960 . S
C1000 H992 0.929 . S
C1000 C1001 1.377 . S
C1000 C1002 1.384 . S
C1001 C1000 1.377 . S
C1001 C1007 1.390 . S
C1002 H993 0.930 . S
C1002 C1000 1.384 . S
C1002 C1003 1.372 . S
C1003 C1002 1.372 . S
C1003 C1004 1.400 . S
C1003 C1008 1.490 . S
C1004 H994 0.930 . S
C1004 C1003 1.400 . S
C1004 C1007 1.386 . S
H1005 C1021 0.930 . S
H1006 C1022 0.931 . S
C1007 H995 0.929 . S
C1007 C1001 1.390 . S
C1007 C1004 1.386 . S
C1008 C1003 1.490 . S
C1008 C1010 1.395 . S
C1008 C1011 1.403 . S
H1009 C1015 0.930 . S
C1010 H996 0.930 . S
C1010 C1008 1.395 . S
C1010 C1013 1.403 . S
C1011 C1008 1.403 . S
C1011 C1012 1.524 . S
C1011 C1015 1.400 . S
C1012 H997 0.960 . S
C1012 H998 0.960 . S
C1012 H999 0.960 . S
C1012 C1011 1.524 . S
C1013 C1010 1.403 . S
C1013 C1014 1.392 . S
C1013 C1017 1.495 . S
C1014 C1013 1.392 . S
C1014 C1015 1.385 . S
C1014 C1016 1.478 . S
C1015 H1009 0.930 . S
C1015 C1011 1.400 . S
C1015 C1014 1.385 . S
C1016 C1014 1.478 . S
C1016 C1018 1.381 . S
C1016 C1022 1.383 . S
C1017 C1013 1.495 . S
C1017 H1023 0.959 . S
C1017 H1024 0.961 . S
C1017 H1025 0.960 . S
C1018 C1016 1.381 . S
C1018 C1019 1.394 . S
C1018 H1026 0.930 . S
C1019 C1018 1.394 . S
C1019 C1020 1.383 . S
C1019 H1027 0.929 . S
C1020 C1019 1.383 . S
C1020 C1021 1.377 . S
C1021 H1005 0.930 . S
C1021 C1020 1.377 . S
C1021 C1022 1.379 . S
C1022 H1006 0.931 . S
C1022 C1016 1.383 . S
C1022 C1021 1.379 . S
H1023 C1017 0.959 . S
H1024 C1017 0.961 . S
H1025 C1017 0.960 . S
H1026 C1018 0.930 . S
H1027 C1019 0.929 . S
H1028 C1036 0.929 . S
H1029 C1038 0.930 . S
H1030 C1040 0.930 . S
H1031 C1043 0.929 . S
H1032 C1046 0.930 . S
H1033 C1048 0.960 . S
H1034 C1048 0.960 . S
H1035 C1048 0.960 . S
C1036 H1028 0.929 . S
C1036 C1037 1.377 . S
C1036 C1038 1.384 . S
C1037 C1036 1.377 . S
C1037 C1043 1.390 . S
C1038 H1029 0.930 . S
C1038 C1036 1.384 . S
C1038 C1039 1.372 . S
C1039 C1038 1.372 . S
C1039 C1040 1.400 . S
C1039 C1044 1.490 . S
C1040 H1030 0.930 . S
C1040 C1039 1.400 . S
C1040 C1043 1.386 . S
H1041 C1057 0.930 . S
H1042 C1058 0.931 . S
C1043 H1031 0.929 . S
C1043 C1037 1.390 . S
C1043 C1040 1.386 . S
C1044 C1039 1.490 . S
C1044 C1046 1.395 . S
C1044 C1047 1.403 . S
H1045 C1051 0.930 . S
C1046 H1032 0.930 . S
C1046 C1044 1.395 . S
C1046 C1049 1.403 . S
C1047 C1044 1.403 . S
C1047 C1048 1.524 . S
C1047 C1051 1.400 . S
C1048 H1033 0.960 . S
C1048 H1034 0.960 . S
C1048 H1035 0.960 . S
C1048 C1047 1.524 . S
C1049 C1046 1.403 . S
C1049 C1050 1.392 . S
C1049 C1053 1.495 . S
C1050 C1049 1.392 . S
C1050 C1051 1.385 . S
C1050 C1052 1.478 . S
C1051 H1045 0.930 . S
C1051 C1047 1.400 . S
C1051 C1050 1.385 . S
C1052 C1050 1.478 . S
C1052 C1054 1.381 . S
C1052 C1058 1.383 . S
C1053 C1049 1.495 . S
C1053 H1059 0.959 . S
C1053 H1060 0.961 . S
C1053 H1061 0.960 . S
C1054 C1052 1.381 . S
C1054 C1055 1.394 . S
C1054 H1062 0.930 . S
C1055 C1054 1.394 . S
C1055 C1056 1.383 . S
C1055 H1063 0.929 . S
C1056 C1055 1.383 . S
C1056 C1057 1.377 . S
C1057 H1041 0.930 . S
C1057 C1056 1.377 . S
C1057 C1058 1.379 . S
C1058 H1042 0.931 . S
C1058 C1052 1.383 . S
C1058 C1057 1.379 . S
H1059 C1053 0.959 . S
H1060 C1053 0.961 . S
H1061 C1053 0.960 . S
H1062 C1054 0.930 . S
H1063 C1055 0.929 . S
H1064 C1072 0.929 . S
H1065 C1074 0.930 . S
H1066 C1076 0.930 . S
H1067 C1079 0.929 . S
H1068 C1082 0.930 . S
H1069 C1084 0.960 . S
H1070 C1084 0.960 . S
H1071 C1084 0.960 . S
C1072 H1064 0.929 . S
C1072 C1073 1.377 . S
C1072 C1074 1.384 . S
C1073 C1072 1.377 . S
C1073 C1079 1.390 . S
C1074 H1065 0.930 . S
C1074 C1072 1.384 . S
C1074 C1075 1.372 . S
C1075 C1074 1.372 . S
C1075 C1076 1.400 . S
C1075 C1080 1.490 . S
C1076 H1066 0.930 . S
C1076 C1075 1.400 . S
C1076 C1079 1.386 . S
H1077 C1093 0.930 . S
H1078 C1094 0.931 . S
C1079 H1067 0.929 . S
C1079 C1073 1.390 . S
C1079 C1076 1.386 . S
C1080 C1075 1.490 . S
C1080 C1082 1.395 . S
C1080 C1083 1.403 . S
H1081 C1087 0.930 . S
C1082 H1068 0.930 . S
C1082 C1080 1.395 . S
C1082 C1085 1.403 . S
C1083 C1080 1.403 . S
C1083 C1084 1.524 . S
C1083 C1087 1.400 . S
C1084 H1069 0.960 . S
C1084 H1070 0.960 . S
C1084 H1071 0.960 . S
C1084 C1083 1.524 . S
C1085 C1082 1.403 . S
C1085 C1086 1.392 . S
C1085 C1089 1.495 . S
C1086 C1085 1.392 . S
C1086 C1087 1.385 . S
C1086 C1088 1.478 . S
C1087 H1081 0.930 . S
C1087 C1083 1.400 . S
C1087 C1086 1.385 . S
C1088 C1086 1.478 . S
C1088 C1090 1.381 . S
C1088 C1094 1.383 . S
C1089 C1085 1.495 . S
C1089 H1095 0.959 . S
C1089 H1096 0.961 . S
C1089 H1097 0.960 . S
C1090 C1088 1.381 . S
C1090 C1091 1.394 . S
C1090 H1098 0.930 . S
C1091 C1090 1.394 . S
C1091 C1092 1.383 . S
C1091 H1099 0.929 . S
C1092 C1091 1.383 . S
C1092 C1093 1.377 . S
C1093 H1077 0.930 . S
C1093 C1092 1.377 . S
C1093 C1094 1.379 . S
C1094 H1078 0.931 . S
C1094 C1088 1.383 . S
C1094 C1093 1.379 . S
H1095 C1089 0.959 . S
H1096 C1089 0.961 . S
H1097 C1089 0.960 . S
H1098 C1090 0.930 . S
H1099 C1091 0.929 . S
H1100 C1108 0.929 . S
H1101 C1110 0.930 . S
H1102 C1112 0.930 . S
H1103 C1115 0.929 . S
H1104 C1118 0.930 . S
H1105 C1120 0.960 . S
H1106 C1120 0.960 . S
H1107 C1120 0.960 . S
C1108 H1100 0.929 . S
C1108 C1109 1.377 . S
C1108 C1110 1.384 . S
C1109 C1108 1.377 . S
C1109 C1115 1.390 . S
C1110 H1101 0.930 . S
C1110 C1108 1.384 . S
C1110 C1111 1.372 . S
C1111 C1110 1.372 . S
C1111 C1112 1.400 . S
C1111 C1116 1.490 . S
C1112 H1102 0.930 . S
C1112 C1111 1.400 . S
C1112 C1115 1.386 . S
H1113 C1129 0.930 . S
H1114 C1130 0.931 . S
C1115 H1103 0.929 . S
C1115 C1109 1.390 . S
C1115 C1112 1.386 . S
C1116 C1111 1.490 . S
C1116 C1118 1.395 . S
C1116 C1119 1.403 . S
H1117 C1123 0.930 . S
C1118 H1104 0.930 . S
C1118 C1116 1.395 . S
C1118 C1121 1.403 . S
C1119 C1116 1.403 . S
C1119 C1120 1.524 . S
C1119 C1123 1.400 . S
C1120 H1105 0.960 . S
C1120 H1106 0.960 . S
C1120 H1107 0.960 . S
C1120 C1119 1.524 . S
C1121 C1118 1.403 . S
C1121 C1122 1.392 . S
C1121 C1125 1.495 . S
C1122 C1121 1.392 . S
C1122 C1123 1.385 . S
C1122 C1124 1.478 . S
C1123 H1117 0.930 . S
C1123 C1119 1.400 . S
C1123 C1122 1.385 . S
C1124 C1122 1.478 . S
C1124 C1126 1.381 . S
C1124 C1130 1.383 . S
C1125 C1121 1.495 . S
C1125 H1131 0.959 . S
C1125 H1132 0.961 . S
C1125 H1133 0.960 . S
C1126 C1124 1.381 . S
C1126 C1127 1.394 . S
C1126 H1134 0.930 . S
C1127 C1126 1.394 . S
C1127 C1128 1.383 . S
C1127 H1135 0.929 . S
C1128 C1127 1.383 . S
C1128 C1129 1.377 . S
C1129 H1113 0.930 . S
C1129 C1128 1.377 . S
C1129 C1130 1.379 . S
C1130 H1114 0.931 . S
C1130 C1124 1.383 . S
C1130 C1129 1.379 . S
H1131 C1125 0.959 . S
H1132 C1125 0.961 . S
H1133 C1125 0.960 . S
H1134 C1126 0.930 . S
H1135 C1127 0.929 . S
H1136 C1144 0.929 . S
H1137 C1146 0.930 1_455 S
H1138 C1148 0.930 . S
H1139 C1151 0.929 . S
H1140 C1154 0.930 . S
H1141 C1156 0.960 . S
H1142 C1156 0.960 . S
H1143 C1156 0.960 . S
C1144 H1136 0.929 . S
C1144 C1145 1.377 . S
C1144 C1146 1.384 . S
C1145 C1144 1.377 . S
C1145 C1151 1.390 . S
C1146 H1137 0.930 1_655 S
C1146 C1144 1.384 . S
C1146 C1147 1.372 . S
C1147 C1146 1.372 . S
C1147 C1148 1.400 . S
C1147 C1152 1.490 . S
C1148 H1138 0.930 . S
C1148 C1147 1.400 . S
C1148 C1151 1.386 . S
H1149 C1165 0.930 . S
H1150 C1166 0.931 1_655 S
C1151 H1139 0.929 . S
C1151 C1145 1.390 . S
C1151 C1148 1.386 . S
C1152 C1147 1.490 . S
C1152 C1154 1.395 1_655 S
C1152 C1155 1.403 . S
H1153 C1159 0.935 . S
C1154 H1140 0.930 . S
C1154 C1152 1.395 1_455 S
C1154 C1157 1.403 . S
C1155 C1152 1.403 . S
C1155 C1156 1.524 . S
C1155 C1159 1.414 . S
C1156 H1141 0.960 . S
C1156 H1142 0.960 . S
C1156 H1143 0.960 . S
C1156 C1155 1.524 . S
C1157 C1154 1.403 . S
C1157 C1158 1.392 . S
C1157 C1161 1.495 . S
C1158 C1157 1.392 . S
C1158 C1159 1.368 1_455 S
C1158 C1160 1.478 . S
C1159 H1153 0.935 . S
C1159 C1155 1.414 . S
C1159 C1158 1.368 1_655 S
C1160 C1158 1.478 . S
C1160 C1162 1.381 . S
C1160 C1166 1.383 . S
C1161 C1157 1.495 . S
C1161 H1167 0.959 . S
C1161 H1168 0.961 . S
C1161 H1169 0.960 . S
C1162 C1160 1.381 . S
C1162 C1163 1.394 . S
C1162 H1170 0.930 . S
C1163 C1162 1.394 . S
C1163 C1164 1.383 . S
C1163 H1171 0.929 . S
C1164 C1163 1.383 . S
C1164 C1165 1.377 . S
C1165 H1149 0.930 . S
C1165 C1164 1.377 . S
C1165 C1166 1.379 . S
C1166 H1150 0.931 1_455 S
C1166 C1160 1.383 . S
C1166 C1165 1.379 . S
H1167 C1161 0.959 . S
H1168 C1161 0.961 . S
H1169 C1161 0.960 . S
H1170 C1162 0.930 . S
H1171 C1163 0.929 . S
H1172 C1180 0.929 . S
H1173 C1182 0.930 . S
H1174 C1184 0.930 . S
H1175 C1187 0.929 . S
H1176 C1190 0.930 . S
H1177 C1192 0.960 . S
H1178 C1192 0.960 . S
H1179 C1192 0.960 . S
C1180 H1172 0.929 . S
C1180 C1181 1.377 . S
C1180 C1182 1.384 . S
C1181 C1180 1.377 . S
C1181 C1187 1.390 . S
C1182 H1173 0.930 . S
C1182 C1180 1.384 . S
C1182 C1183 1.372 . S
C1183 C1182 1.372 . S
C1183 C1184 1.400 . S
C1183 C1188 1.490 . S
C1184 H1174 0.930 . S
C1184 C1183 1.400 . S
C1184 C1187 1.386 . S
H1185 C1201 0.930 . S
H1186 C1202 0.931 . S
C1187 H1175 0.929 . S
C1187 C1181 1.390 . S
C1187 C1184 1.386 . S
C1188 C1183 1.490 . S
C1188 C1190 1.395 . S
C1188 C1191 1.403 . S
H1189 C1195 0.930 . S
C1190 H1176 0.930 . S
C1190 C1188 1.395 . S
C1190 C1193 1.403 1_655 S
C1191 C1188 1.403 . S
C1191 C1192 1.524 . S
C1191 C1195 1.400 1_655 S
C1192 H1177 0.960 . S
C1192 H1178 0.960 . S
C1192 H1179 0.960 . S
C1192 C1191 1.524 . S
C1193 C1190 1.403 1_455 S
C1193 C1194 1.392 . S
C1193 C1197 1.495 . S
C1194 C1193 1.392 . S
C1194 C1195 1.385 . S
C1194 C1196 1.478 . S
C1195 H1189 0.930 . S
C1195 C1191 1.400 1_455 S
C1195 C1194 1.385 . S
C1196 C1194 1.478 . S
C1196 C1198 1.381 . S
C1196 C1202 1.383 . S
C1197 C1193 1.495 . S
C1197 H1203 0.959 . S
C1197 H1204 0.961 . S
C1197 H1205 0.960 . S
C1198 C1196 1.381 . S
C1198 C1199 1.394 . S
C1198 H1206 0.930 . S
C1199 C1198 1.394 . S
C1199 C1200 1.383 . S
C1199 H1207 0.929 . S
C1200 C1199 1.383 . S
C1200 C1201 1.377 . S
C1201 H1185 0.930 . S
C1201 C1200 1.377 . S
C1201 C1202 1.379 . S
C1202 H1186 0.931 . S
C1202 C1196 1.383 . S
C1202 C1201 1.379 . S
H1203 C1197 0.959 . S
H1204 C1197 0.961 . S
H1205 C1197 0.960 . S
H1206 C1198 0.930 . S
H1207 C1199 0.929 . S
H1208 C1216 0.929 . S
H1209 C1218 0.930 . S
H1210 C1220 0.930 . S
H1211 C1223 0.929 . S
H1212 C1226 0.930 . S
H1213 C1228 0.960 . S
H1214 C1228 0.960 . S
H1215 C1228 0.960 . S
C1216 H1208 0.929 . S
C1216 C1217 1.377 . S
C1216 C1218 1.384 . S
C1217 C1216 1.377 . S
C1217 C1223 1.390 . S
C1218 H1209 0.930 . S
C1218 C1216 1.384 . S
C1218 C1219 1.372 . S
C1219 C1218 1.372 . S
C1219 C1220 1.400 . S
C1219 C1224 1.490 . S
C1220 H1210 0.930 . S
C1220 C1219 1.400 . S
C1220 C1223 1.386 . S
H1221 C1237 0.930 . S
H1222 C1238 0.931 . S
C1223 H1211 0.929 . S
C1223 C1217 1.390 . S
C1223 C1220 1.386 . S
C1224 C1219 1.490 . S
C1224 C1226 1.395 . S
C1224 C1227 1.403 . S
H1225 C1231 0.930 . S
C1226 H1212 0.930 . S
C1226 C1224 1.395 . S
C1226 C1229 1.403 1_545 S
C1227 C1224 1.403 . S
C1227 C1228 1.524 . S
C1227 C1231 1.400 1_545 S
C1228 H1213 0.960 . S
C1228 H1214 0.960 . S
C1228 H1215 0.960 . S
C1228 C1227 1.524 . S
C1229 C1226 1.403 1_565 S
C1229 C1230 1.392 . S
C1229 C1233 1.495 . S
C1230 C1229 1.392 . S
C1230 C1231 1.385 . S
C1230 C1232 1.478 . S
C1231 H1225 0.930 . S
C1231 C1227 1.400 1_565 S
C1231 C1230 1.385 . S
C1232 C1230 1.478 . S
C1232 C1234 1.381 . S
C1232 C1238 1.383 . S
C1233 C1229 1.495 . S
C1233 H1239 0.959 . S
C1233 H1240 0.961 . S
C1233 H1241 0.960 . S
C1234 C1232 1.381 . S
C1234 C1235 1.394 . S
C1234 H1242 0.930 . S
C1235 C1234 1.394 . S
C1235 C1236 1.383 . S
C1235 H1243 0.929 . S
C1236 C1235 1.383 . S
C1236 C1237 1.377 . S
C1237 H1221 0.930 . S
C1237 C1236 1.377 . S
C1237 C1238 1.379 . S
C1238 H1222 0.931 . S
C1238 C1232 1.383 . S
C1238 C1237 1.379 . S
H1239 C1233 0.959 . S
H1240 C1233 0.961 . S
H1241 C1233 0.960 . S
H1242 C1234 0.930 . S
H1243 C1235 0.929 . S
H1244 C1252 0.929 . S
H1245 C1254 0.930 . S
H1246 C1256 0.930 . S
H1247 C1259 0.929 . S
H1248 C1262 0.930 . S
H1249 C1264 0.960 . S
H1250 C1264 0.960 . S
H1251 C1264 0.960 . S
C1252 H1244 0.929 . S
C1252 C1253 1.377 . S
C1252 C1254 1.384 . S
C1253 C1252 1.377 . S
C1253 C1259 1.390 . S
C1254 H1245 0.930 . S
C1254 C1252 1.384 . S
C1254 C1255 1.372 . S
C1255 C1254 1.372 . S
C1255 C1256 1.400 . S
C1255 C1260 1.490 . S
C1256 H1246 0.930 . S
C1256 C1255 1.400 . S
C1256 C1259 1.386 . S
H1257 C1273 0.930 . S
H1258 C1274 0.931 . S
C1259 H1247 0.929 . S
C1259 C1253 1.390 . S
C1259 C1256 1.386 . S
C1260 C1255 1.490 . S
C1260 C1262 1.395 1_545 S
C1260 C1263 1.403 . S
H1261 C1267 0.930 . S
C1262 H1248 0.930 . S
C1262 C1260 1.395 1_565 S
C1262 C1265 1.403 . S
C1263 C1260 1.403 . S
C1263 C1264 1.524 . S
C1263 C1267 1.400 . S
C1264 H1249 0.960 . S
C1264 H1250 0.960 . S
C1264 H1251 0.960 . S
C1264 C1263 1.524 . S
C1265 C1262 1.403 . S
C1265 C1266 1.392 . S
C1265 C1269 1.495 . S
C1266 C1265 1.392 . S
C1266 C1267 1.385 1_565 S
C1266 C1268 1.478 . S
C1267 H1261 0.930 . S
C1267 C1263 1.400 . S
C1267 C1266 1.385 1_545 S
C1268 C1266 1.478 . S
C1268 C1270 1.381 . S
C1268 C1274 1.383 . S
C1269 C1265 1.495 . S
C1269 H1275 0.959 . S
C1269 H1276 0.961 . S
C1269 H1277 0.960 . S
C1270 C1268 1.381 . S
C1270 C1271 1.394 . S
C1270 H1278 0.930 . S
C1271 C1270 1.394 . S
C1271 C1272 1.383 . S
C1271 H1279 0.929 . S
C1272 C1271 1.383 . S
C1272 C1273 1.377 . S
C1273 H1257 0.930 . S
C1273 C1272 1.377 . S
C1273 C1274 1.379 . S
C1274 H1258 0.931 . S
C1274 C1268 1.383 . S
C1274 C1273 1.379 . S
H1275 C1269 0.959 . S
H1276 C1269 0.961 . S
H1277 C1269 0.960 . S
H1278 C1270 0.930 . S
H1279 C1271 0.929 . S
C713 C49 1.236 . S
C732 C469 1.231 . S
C749 C108 1.237 . S
C768 C557 1.237 . S
C785 C233 1.236 . S
C804 C665 1.223 . S
C821 C381 1.231 . S
C840 C313 1.245 . S
C857 C29 1.761 . S
C876 C372 1.711 . S
C893 C117 1.771 . S
C912 C497 1.693 . S
C929 C548 1.712 . S
C948 C196 1.769 . S
C965 C321 1.771 . S
C984 C636 1.740 . S
C1001 C401 1.761 . S
C1020 C57 1.680 . S
C1037 C137 1.729 . S
C1056 C460 1.779 . S
C1073 C577 1.763 . S
C1092 C225 1.676 . S
C1109 C284 1.722 . S
C1128 C673 1.751 . S
C1145 C205 0.347 . S
C1164 C20 0.362 . S
C1181 C293 0.381 . S
C1200 C145 0.436 . S
C1217 C409 0.350 . S
C1236 C585 0.365 . S
C1253 C489 0.385 . S
C1272 C645 0.435 . S
