# Generated by pormake.
# Topology upb, (4)-cn, num edge types: 1
# Building blocks:
#     Node 0, Type 0, BuildingBlock: QUQFOY_clean_sbu_3, # of connection points: 4
#     Node 1, Type 0, BuildingBlock: QUQFOY_clean_sbu_3, # of connection points: 4
#     Node 2, Type 0, BuildingBlock: QUQFOY_clean_sbu_3, # of connection points: 4
#     Node 3, Type 0, BuildingBlock: QUQFOY_clean_sbu_3, # of connection points: 4
#     Node 4, Type 0, BuildingBlock: QUQFOY_clean_sbu_3, # of connection points: 4
#     Node 5, Type 0, BuildingBlock: QUQFOY_clean_sbu_3, # of connection points: 4
#     Node 6, Type 0, BuildingBlock: QUQFOY_clean_sbu_3, # of connection points: 4
#     Node 7, Type 0, BuildingBlock: QUQFOY_clean_sbu_3, # of connection points: 4
#     Node 8, Type 0, BuildingBlock: QUQFOY_clean_sbu_3, # of connection points: 4
#     Node 9, Type 0, BuildingBlock: QUQFOY_clean_sbu_3, # of connection points: 4
#     Node 10, Type 0, BuildingBlock: QUQFOY_clean_sbu_3, # of connection points: 4
#     Node 11, Type 0, BuildingBlock: QUQFOY_clean_sbu_3, # of connection points: 4
#     Node 12, Type 0, BuildingBlock: QUQFOY_clean_sbu_3, # of connection points: 4
#     Node 13, Type 0, BuildingBlock: QUQFOY_clean_sbu_3, # of connection points: 4
#     Node 14, Type 0, BuildingBlock: QUQFOY_clean_sbu_3, # of connection points: 4
#     Node 15, Type 0, BuildingBlock: QUQFOY_clean_sbu_3, # of connection points: 4
#     Edge 16, Type (0, 0), BuildingBlock: AJUNOK_clean_linker_0, # of connection points: 2
#     Edge 17, Type (0, 0), BuildingBlock: AJUNOK_clean_linker_0, # of connection points: 2
#     Edge 18, Type (0, 0), BuildingBlock: AJUNOK_clean_linker_0, # of connection points: 2
#     Edge 19, Type (0, 0), BuildingBlock: AJUNOK_clean_linker_0, # of connection points: 2
#     Edge 20, Type (0, 0), BuildingBlock: AJUNOK_clean_linker_0, # of connection points: 2
#     Edge 21, Type (0, 0), BuildingBlock: AJUNOK_clean_linker_0, # of connection points: 2
#     Edge 22, Type (0, 0), BuildingBlock: AJUNOK_clean_linker_0, # of connection points: 2
#     Edge 23, Type (0, 0), BuildingBlock: AJUNOK_clean_linker_0, # of connection points: 2
#     Edge 24, Type (0, 0), BuildingBlock: AJUNOK_clean_linker_0, # of connection points: 2
#     Edge 25, Type (0, 0), BuildingBlock: AJUNOK_clean_linker_0, # of connection points: 2
#     Edge 26, Type (0, 0), BuildingBlock: AJUNOK_clean_linker_0, # of connection points: 2
#     Edge 27, Type (0, 0), BuildingBlock: AJUNOK_clean_linker_0, # of connection points: 2
#     Edge 28, Type (0, 0), BuildingBlock: AJUNOK_clean_linker_0, # of connection points: 2
#     Edge 29, Type (0, 0), BuildingBlock: AJUNOK_clean_linker_0, # of connection points: 2
#     Edge 30, Type (0, 0), BuildingBlock: AJUNOK_clean_linker_0, # of connection points: 2
#     Edge 31, Type (0, 0), BuildingBlock: AJUNOK_clean_linker_0, # of connection points: 2
#     Edge 32, Type (0, 0), BuildingBlock: AJUNOK_clean_linker_0, # of connection points: 2
#     Edge 33, Type (0, 0), BuildingBlock: AJUNOK_clean_linker_0, # of connection points: 2
#     Edge 34, Type (0, 0), BuildingBlock: AJUNOK_clean_linker_0, # of connection points: 2
#     Edge 35, Type (0, 0), BuildingBlock: AJUNOK_clean_linker_0, # of connection points: 2
#     Edge 36, Type (0, 0), BuildingBlock: AJUNOK_clean_linker_0, # of connection points: 2
#     Edge 37, Type (0, 0), BuildingBlock: AJUNOK_clean_linker_0, # of connection points: 2
#     Edge 38, Type (0, 0), BuildingBlock: AJUNOK_clean_linker_0, # of connection points: 2
#     Edge 39, Type (0, 0), BuildingBlock: AJUNOK_clean_linker_0, # of connection points: 2
#     Edge 40, Type (0, 0), BuildingBlock: AJUNOK_clean_linker_0, # of connection points: 2
#     Edge 41, Type (0, 0), BuildingBlock: AJUNOK_clean_linker_0, # of connection points: 2
#     Edge 42, Type (0, 0), BuildingBlock: AJUNOK_clean_linker_0, # of connection points: 2
#     Edge 43, Type (0, 0), BuildingBlock: AJUNOK_clean_linker_0, # of connection points: 2
#     Edge 44, Type (0, 0), BuildingBlock: AJUNOK_clean_linker_0, # of connection points: 2
#     Edge 45, Type (0, 0), BuildingBlock: AJUNOK_clean_linker_0, # of connection points: 2
#     Edge 46, Type (0, 0), BuildingBlock: AJUNOK_clean_linker_0, # of connection points: 2
#     Edge 47, Type (0, 0), BuildingBlock: AJUNOK_clean_linker_0, # of connection points: 2
# Relax obj value: 0.211
# Max RMSD: 0.067
# Mean RMSD: 0.067
data_MOF--net-upb--node1-QUQFOY_clean_sbu_3--edge1-AJUNOK_clean_linker_0
_symmetry_space_group_name_H-M    P1
_symmetry_Int_Tables_number       1
_symmetry_cell_setting            triclinic
loop_
_symmetry_equiv_pos_as_xyz
'x, y, z'
_cell_length_a     34.833894
_cell_length_b     34.43364
_cell_length_c     25.387467
_cell_angle_alpha  89.74431
_cell_angle_beta   89.69708
_cell_angle_gamma 89.858294
loop_
_atom_site_label
_atom_site_type_symbol
_atom_site_fract_x
_atom_site_fract_y
_atom_site_fract_z
_atom_type_partial_charge
C0 C -0.00848 0.22189 0.38765 0.0
O1 O -0.00189 0.18578 0.3923 0.0
Cd2 Cd 0.01046 0.13839 0.32847 0.0
O3 O -0.00623 0.23932 0.34319 0.0
Cd4 Cd 0.01551 0.22083 0.2509 0.0
C5 C 0.93765 0.17211 0.24178 0.0
O6 O 0.05729 0.16966 0.27968 0.0
O7 O 0.04935 0.17102 0.1958 0.0
O8 O 0.06339 0.26255 0.27335 0.0
C9 C 0.06583 0.15566 0.23526 0.0
O10 O 0.95713 0.1523 0.2742 0.0
C11 C 0.06203 0.28686 0.23607 0.0
O12 O 0.9501 0.20402 0.22266 0.0
O13 O 0.03652 0.28139 0.20091 0.0
C14 C 0.7423 -0.00714 0.38784 0.0
O15 O 0.77808 -0.00112 0.39272 0.0
Cd16 Cd 0.82628 0.01297 0.3307 0.0
O17 O 0.72538 -0.00367 0.34345 0.0
Cd18 Cd 0.74467 0.01866 0.25124 0.0
C19 C 0.78956 0.94542 0.23816 0.0
O20 O 0.79509 0.06242 0.28416 0.0
O21 O 0.79606 0.05288 0.20021 0.0
O22 O 0.70779 0.07135 0.26911 0.0
C23 C 0.80896 0.07131 0.23966 0.0
O24 O 0.80055 0.97057 0.27029 0.0
C25 C 0.68042 0.06686 0.23769 0.0
O26 O 0.7579 0.95142 0.21501 0.0
O27 O 0.68292 0.03863 0.20547 0.0
C28 C 0.96383 0.74418 0.38212 0.0
O29 O 0.95472 0.77903 0.37337 0.0
Cd30 Cd 0.94236 0.83256 0.32252 0.0
O31 O 0.96757 0.72128 0.34331 0.0
Cd32 Cd 0.9427 0.7472 0.25398 0.0
C33 C 0.01757 0.79967 0.2369 0.0
O34 O 0.89739 0.79894 0.28038 0.0
O35 O 0.90907 0.79742 0.19748 0.0
O36 O 0.89625 0.7044 0.27865 0.0
C37 C 0.89096 0.81288 0.23548 0.0
O38 O -0.00358 0.8186 0.26849 0.0
C39 C 0.89657 0.68326 0.23814 0.0
O40 O 0.00731 0.76637 0.22033 0.0
O41 O 0.92156 0.69015 0.2023 0.0
C42 C 0.21681 0.97779 0.38585 0.0
O43 O 0.18094 0.97144 0.38896 0.0
Cd44 Cd 0.13311 0.95369 0.32815 0.0
O45 O 0.23508 0.97295 0.34251 0.0
Cd46 Cd 0.21504 0.94798 0.25141 0.0
C47 C 0.16577 0.0241 0.2359 0.0
O48 O 0.16426 0.90573 0.28072 0.0
O49 O 0.1662 0.91348 0.19667 0.0
O50 O 0.25712 0.8983 0.27318 0.0
C51 C 0.15079 0.89691 0.2362 0.0
O52 O 0.14857 0.00378 0.27004 0.0
C53 C 0.28026 0.90135 0.23495 0.0
O54 O 0.19759 0.01286 0.21618 0.0
O55 O 0.27341 0.9275 0.20044 0.0
C56 C -0.00987 0.7409 0.60763 0.0
O57 O -0.0019 0.77361 0.62547 0.0
Cd58 Cd 0.01258 0.83323 0.65768 0.0
O59 O -0.009 0.71344 0.64057 0.0
Cd60 Cd 0.01662 0.74703 0.72607 0.0
C61 C 0.94057 0.80061 0.74494 0.0
O62 O 0.06128 0.80007 0.69953 0.0
O63 O 0.04935 0.79674 0.7827 0.0
O64 O 0.06508 0.70448 0.70699 0.0
C65 C 0.0684 0.81208 0.7453 0.0
O66 O 0.95931 0.8224 0.7137 0.0
C67 C 0.0608 0.68301 0.74705 0.0
O68 O 0.95255 0.76686 0.7579 0.0
O69 O 0.03511 0.69166 0.78113 0.0
C70 C 0.21807 -0.00012 0.59631 0.0
O71 O 0.18248 0.00688 0.59129 0.0
Cd72 Cd 0.13434 0.01685 0.65455 0.0
O73 O 0.23452 -0.00021 0.64112 0.0
Cd74 Cd 0.2158 0.021 0.73245 0.0
C75 C 0.16761 0.94268 0.74266 0.0
O76 O 0.16595 0.06299 0.70233 0.0
O77 O 0.16645 0.05792 0.78639 0.0
O78 O 0.25977 0.06699 0.70666 0.0
C79 C 0.15157 0.07323 0.74568 0.0
O80 O 0.14875 0.96333 0.71044 0.0
C81 C 0.2808 0.06671 0.74698 0.0
O82 O 0.19951 0.95429 0.76122 0.0
O83 O 0.27346 0.04197 0.78323 0.0
C84 C 0.9698 0.22124 0.59761 0.0
O85 O 0.96203 0.18545 0.59254 0.0
Cd86 Cd 0.94711 0.13846 0.65697 0.0
O87 O 0.96756 0.23829 0.64221 0.0
Cd88 Cd 0.94339 0.21997 0.73407 0.0
C89 C 0.01856 0.17211 0.74708 0.0
O90 O 0.89871 0.17064 0.70268 0.0
O91 O 0.90973 0.16911 0.78617 0.0
O92 O 0.89598 0.2627 0.71181 0.0
C93 C 0.89058 0.15664 0.74736 0.0
O94 O -0.00305 0.15621 0.71382 0.0
C95 C 0.89707 0.28652 0.74932 0.0
O96 O 0.00805 0.20346 0.76929 0.0
O97 O 0.92235 0.28042 0.78466 0.0
C98 C 0.74138 0.97103 0.59685 0.0
O99 O 0.77714 0.96507 0.59129 0.0
Cd100 Cd 0.82481 0.95377 0.65434 0.0
O101 O 0.72474 0.96897 0.64172 0.0
Cd102 Cd 0.74404 0.94725 0.73295 0.0
C103 C 0.79153 0.02662 0.74271 0.0
O104 O 0.7941 0.90612 0.70243 0.0
O105 O 0.7941 0.91295 0.7865 0.0
O106 O 0.7014 0.89848 0.71139 0.0
C107 C 0.80842 0.89665 0.7461 0.0
O108 O 0.81123 0.00723 0.70999 0.0
C109 C 0.67868 0.90124 0.7501 0.0
O110 O 0.76003 0.0137 0.76156 0.0
O111 O 0.68608 0.92675 0.78493 0.0
C112 C 0.49063 0.72143 0.88704 0.0
O113 O 0.49638 0.68511 0.89106 0.0
Cd114 Cd 0.50999 0.6372 0.82764 0.0
O115 O 0.49409 0.73919 0.84295 0.0
Cd116 Cd 0.51635 0.71954 0.75099 0.0
C117 C 0.43969 0.6706 0.73667 0.0
O118 O 0.55759 0.66826 0.78039 0.0
O119 O 0.55306 0.67268 0.69584 0.0
O120 O 0.56755 0.75754 0.77001 0.0
C121 C 0.56796 0.65612 0.73563 0.0
O122 O 0.45889 0.6522 0.77079 0.0
C123 C 0.56218 0.7848 0.7376 0.0
O124 O 0.45225 0.7021 0.71656 0.0
O125 O 0.53426 0.78167 0.70553 0.0
C126 C 0.24097 0.5003 0.888 0.0
O127 O 0.27643 0.50757 0.89344 0.0
Cd128 Cd 0.32429 0.51735 0.82956 0.0
O129 O 0.22492 0.49995 0.84292 0.0
Cd130 Cd 0.2433 0.52075 0.75076 0.0
C131 C 0.29114 0.4427 0.74286 0.0
O132 O 0.29372 0.56392 0.77944 0.0
O133 O 0.29297 0.55555 0.69576 0.0
O134 O 0.1991 0.56612 0.7755 0.0
C135 C 0.308 0.57226 0.73505 0.0
O136 O 0.30921 0.46412 0.77457 0.0
C137 C 0.17687 0.56606 0.73641 0.0
O138 O 0.25916 0.4536 0.72351 0.0
O139 O 0.18414 0.54179 0.69977 0.0
C140 C 0.46658 0.23969 0.87978 0.0
O141 O 0.45893 0.27266 0.86217 0.0
Cd142 Cd 0.4452 0.33272 0.83155 0.0
O143 O 0.46667 0.21252 0.84657 0.0
Cd144 Cd 0.44401 0.24507 0.75853 0.0
C145 C 0.51707 0.29625 0.74282 0.0
O146 O 0.39865 0.299 0.78661 0.0
O147 O 0.41072 0.29659 0.70357 0.0
O148 O 0.39312 0.20465 0.77693 0.0
C149 C 0.39148 0.31157 0.74098 0.0
O150 O 0.49248 0.31001 0.77408 0.0
C151 C 0.39609 0.18326 0.73687 0.0
O152 O 0.51104 0.26266 0.72383 0.0
O153 O 0.42322 0.18982 0.70404 0.0
C154 C 0.71571 0.47224 0.88807 0.0
O155 O 0.6797 0.46751 0.89358 0.0
Cd156 Cd 0.63098 0.45896 0.82979 0.0
O157 O 0.73231 0.47031 0.84313 0.0
Cd158 Cd 0.71394 0.44931 0.75109 0.0
C159 C 0.6714 0.52381 0.73651 0.0
O160 O 0.6602 0.40805 0.78376 0.0
O161 O 0.66623 0.41175 0.69931 0.0
O162 O 0.75796 0.40187 0.77745 0.0
C163 C 0.64871 0.39757 0.7389 0.0
O164 O 0.66172 0.49731 0.7678 0.0
C165 C 0.78031 0.40434 0.73834 0.0
O166 O 0.70224 0.51793 0.71102 0.0
O167 O 0.77184 0.42823 0.70171 0.0
C168 C 0.49223 0.24063 0.10676 0.0
O169 O 0.49965 0.27379 0.12348 0.0
Cd170 Cd 0.51336 0.3334 0.15587 0.0
O171 O 0.49408 0.21346 0.14021 0.0
Cd172 Cd 0.51808 0.24625 0.22716 0.0
C173 C 0.44058 0.30036 0.24193 0.0
O174 O 0.56032 0.30062 0.20067 0.0
O175 O 0.5537 0.2938 0.28442 0.0
O176 O 0.5667 0.20401 0.20901 0.0
C177 C 0.56944 0.31166 0.24621 0.0
O178 O 0.45962 0.3223 0.21118 0.0
C179 C 0.56319 0.18277 0.2495 0.0
O180 O 0.45285 0.26694 0.2562 0.0
O181 O 0.53729 0.19124 0.28343 0.0
C182 C 0.71575 0.4925 0.09747 0.0
O183 O 0.67979 0.49836 0.09341 0.0
Cd184 Cd 0.63181 0.51155 0.15727 0.0
O185 O 0.73328 0.49617 0.14133 0.0
Cd186 Cd 0.71617 0.51876 0.234 0.0
C187 C 0.67181 0.44441 0.24754 0.0
O188 O 0.66335 0.56058 0.20375 0.0
O189 O 0.66757 0.55625 0.28795 0.0
O190 O 0.75872 0.56867 0.209 0.0
C191 C 0.65101 0.57134 0.24834 0.0
O192 O 0.66147 0.47096 0.21683 0.0
C193 C 0.7808 0.56658 0.24814 0.0
O194 O 0.70326 0.4499 0.27141 0.0
O195 O 0.77422 0.54039 0.28264 0.0
C196 C 0.46888 0.72119 0.09745 0.0
O197 O 0.46184 0.68523 0.09252 0.0
Cd198 Cd 0.44783 0.63801 0.15747 0.0
O199 O 0.46663 0.73816 0.14208 0.0
Cd200 Cd 0.44323 0.71881 0.23379 0.0
C201 C 0.5182 0.67194 0.24938 0.0
O202 O 0.3987 0.6691 0.20329 0.0
O203 O 0.40927 0.66981 0.28717 0.0
O204 O 0.39167 0.75758 0.21504 0.0
C205 C 0.39019 0.65664 0.24873 0.0
O206 O 0.496 0.65719 0.21593 0.0
C207 C 0.3969 0.78433 0.24785 0.0
O208 O 0.50788 0.70288 0.27273 0.0
O209 O 0.42468 0.78052 0.28 0.0
C210 C 0.242 0.47768 0.09722 0.0
O211 O 0.27784 0.47135 0.09354 0.0
Cd212 Cd 0.32553 0.45563 0.15475 0.0
O213 O 0.22417 0.47362 0.14089 0.0
Cd214 Cd 0.24486 0.44941 0.23054 0.0
C215 C 0.28948 0.52642 0.24433 0.0
O216 O 0.29677 0.40526 0.20209 0.0
O217 O 0.29574 0.41772 0.28523 0.0
O218 O 0.20128 0.40111 0.20699 0.0
C219 C 0.31057 0.39893 0.24729 0.0
O220 O 0.30585 0.50407 0.21211 0.0
C221 C 0.179 0.40397 0.24615 0.0
O222 O 0.25721 0.51676 0.264 0.0
O223 O 0.18742 0.42838 0.28189 0.0
C224 C 0.1155 0.11366 0.27607 0.0
C225 C 0.09419 0.12372 0.2311 0.0
C226 C 0.14281 0.0841 0.27455 0.0
C227 C 0.1496 0.06279 0.22838 0.0
H228 H 0.11072 0.12826 0.31326 0.0
H229 H 0.15694 0.076 0.31099 0.0
S230 S 0.09997 0.07516 0.10108 0.0
N231 N 0.08112 0.10909 0.13921 0.0
N232 N 0.13217 0.05222 0.13736 0.0
C233 C 0.12889 0.07234 0.18305 0.0
C234 C 0.10109 0.10298 0.18427 0.0
C235 C 0.90041 0.12222 0.19727 0.0
C236 C 0.90044 0.15565 0.22883 0.0
C237 C 0.87016 0.09549 0.19978 0.0
C238 C 0.83936 0.10095 0.23489 0.0
H239 H 0.92529 0.11529 0.17322 0.0
H240 H 0.8719 0.06942 0.17617 0.0
S241 S 0.82711 0.18295 0.32809 0.0
N242 N 0.86781 0.19244 0.29696 0.0
N243 N 0.81099 0.14208 0.30258 0.0
C244 C 0.83899 0.13444 0.26658 0.0
C245 C 0.86947 0.16192 0.2632 0.0
C246 C 0.8009 0.87407 0.22472 0.0
C247 C 0.81507 0.91205 0.22859 0.0
C248 C 0.82615 0.84213 0.22529 0.0
C249 C 0.86608 0.84727 0.22938 0.0
H250 H 0.77025 0.86892 0.22378 0.0
H251 H 0.81432 0.81308 0.22405 0.0
S252 S 0.91705 0.94154 0.24037 0.0
N253 N 0.87133 0.95337 0.23511 0.0
N254 N 0.91847 0.89354 0.23838 0.0
C255 C 0.88055 0.88525 0.23285 0.0
C256 C 0.85502 0.91759 0.23162 0.0
C257 C 0.07456 0.8256 0.27841 0.0
C258 C 0.05663 0.81497 0.23124 0.0
C259 C 0.10454 0.85216 0.27901 0.0
C260 C 0.11877 0.86878 0.23221 0.0
H261 H 0.06351 0.81518 0.31592 0.0
H262 H 0.11605 0.86023 0.31696 0.0
S263 S 0.08356 0.84826 0.09729 0.0
N264 N 0.05595 0.82138 0.13602 0.0
N265 N 0.1137 0.87112 0.13651 0.0
C266 C 0.10227 0.85712 0.18413 0.0
C267 C 0.07107 0.83001 0.18373 0.0
C268 C 0.08523 0.87879 0.77537 0.0
C269 C 0.09661 0.84325 0.75348 0.0
C270 C 0.11093 0.90993 0.77773 0.0
C271 C 0.14883 0.90655 0.75867 0.0
H272 H 0.05579 0.88324 0.788 0.0
H273 H 0.10024 0.93786 0.79102 0.0
S274 S 0.19253 0.81897 0.69895 0.0
N275 N 0.1481 0.80587 0.71346 0.0
N276 N 0.19664 0.86456 0.71831 0.0
C277 C 0.16097 0.87071 0.73858 0.0
C278 C 0.13464 0.83909 0.7356 0.0
C279 C 0.10111 0.1112 0.7954 0.0
C280 C 0.11926 0.10142 0.74741 0.0
C281 C 0.07028 0.13776 0.79688 0.0
C282 C 0.0573 0.15572 0.75053 0.0
H283 H 0.10999 0.0974 0.83178 0.0
H284 H 0.05523 0.14252 0.83375 0.0
S285 S 0.09441 0.14086 0.615 0.0
N286 N 0.12087 0.11203 0.65219 0.0
N287 N 0.06496 0.16311 0.65601 0.0
C288 C 0.07607 0.14737 0.70285 0.0
C289 C 0.10636 0.11975 0.70092 0.0
C290 C 0.87082 0.09164 0.78065 0.0
C291 C 0.86184 0.12571 0.75288 0.0
C292 C 0.84474 0.06085 0.78308 0.0
C293 C 0.8087 0.06329 0.75851 0.0
H294 H 0.89889 0.08797 0.79819 0.0
H295 H 0.85396 0.03375 0.80096 0.0
S296 S 0.77137 0.14676 0.68178 0.0
N297 N 0.81449 0.16063 0.70083 0.0
N298 N 0.76516 0.10262 0.70621 0.0
C299 C 0.79887 0.09772 0.73215 0.0
C300 C 0.82567 0.1289 0.72888 0.0
C301 C 0.86132 0.86262 0.79503 0.0
C302 C 0.83966 0.86759 0.74878 0.0
C303 C 0.89194 0.83601 0.79689 0.0
C304 C 0.90104 0.81303 0.75306 0.0
H305 H 0.85577 0.88063 0.82911 0.0
H306 H 0.91026 0.83547 0.83125 0.0
S307 S 0.85388 0.81478 0.62261 0.0
N308 N 0.83028 0.8473 0.65775 0.0
N309 N 0.88629 0.79628 0.66273 0.0
C310 C 0.8785 0.81637 0.70764 0.0
C311 C 0.84841 0.84416 0.70493 0.0
C312 C 0.58879 0.59143 0.76614 0.0
C313 C 0.59395 0.62257 0.73134 0.0
C314 C 0.61414 0.56017 0.76643 0.0
C315 C 0.64639 0.55872 0.73256 0.0
H316 H 0.56484 0.59112 0.79354 0.0
H317 H 0.60822 0.53696 0.79423 0.0
S318 S 0.6732 0.6347 0.63492 0.0
N319 N 0.63333 0.65127 0.66242 0.0
N320 N 0.6822 0.59233 0.66337 0.0
C321 C 0.6521 0.59001 0.69742 0.0
C322 C 0.62553 0.62191 0.6967 0.0
C323 C 0.37836 0.6505 0.77334 0.0
C324 C 0.40111 0.65552 0.72802 0.0
C325 C 0.34861 0.62349 0.77485 0.0
C326 C 0.33984 0.60067 0.73069 0.0
H327 H 0.38545 0.66568 0.80935 0.0
H328 H 0.33288 0.62004 0.81149 0.0
S329 S 0.39167 0.60231 0.60258 0.0
N330 N 0.41374 0.6354 0.63825 0.0
N331 N 0.35686 0.58476 0.64019 0.0
C332 C 0.36185 0.60604 0.6845 0.0
C333 C 0.39257 0.63359 0.68327 0.0
C334 C 0.34945 0.41066 0.71137 0.0
C335 C 0.311 0.40684 0.72803 0.0
C336 C 0.37514 0.37935 0.71359 0.0
C337 C 0.36327 0.34311 0.73298 0.0
H338 H 0.36042 0.43891 0.69979 0.0
H339 H 0.40489 0.3841 0.70274 0.0
S340 S 0.266 0.31785 0.78213 0.0
N341 N 0.26231 0.36398 0.76445 0.0
N342 N 0.31075 0.30489 0.76899 0.0
C343 C 0.32474 0.33863 0.74883 0.0
C344 C 0.29842 0.37049 0.74601 0.0
C345 C 0.61986 0.33193 0.72442 0.0
C346 C 0.61515 0.37205 0.73344 0.0
C347 C 0.58799 0.30666 0.72379 0.0
C348 C 0.5506 0.32128 0.73124 0.0
H349 H 0.64845 0.3199 0.71991 0.0
H350 H 0.59279 0.27571 0.72001 0.0
S351 S 0.5232 0.42427 0.75405 0.0
N352 N 0.57055 0.42486 0.75019 0.0
N353 N 0.51085 0.3788 0.74402 0.0
C354 C 0.54584 0.36172 0.73749 0.0
C355 C 0.57804 0.38681 0.74019 0.0
C356 C 0.60881 0.41307 0.23322 0.0
C357 C 0.6465 0.40993 0.25319 0.0
C358 C 0.58377 0.38147 0.23274 0.0
C359 C 0.5949 0.34541 0.25325 0.0
H360 H 0.59848 0.44018 0.21666 0.0
H361 H 0.55559 0.3852 0.21554 0.0
S362 S 0.69005 0.32029 0.30844 0.0
N363 N 0.69385 0.36681 0.29272 0.0
N364 N 0.64584 0.30739 0.29308 0.0
C365 C 0.63202 0.34158 0.27418 0.0
C366 C 0.65805 0.37384 0.27399 0.0
C367 C 0.57184 0.63937 0.20574 0.0
C368 C 0.55653 0.65395 0.25304 0.0
C369 C 0.602 0.61286 0.20533 0.0
C370 C 0.61907 0.59998 0.25228 0.0
H371 H 0.55906 0.64714 0.16825 0.0
H372 H 0.61145 0.60188 0.16749 0.0
S373 S 0.59252 0.63255 0.38707 0.0
N374 N 0.56216 0.65595 0.34831 0.0
N375 N 0.62018 0.60618 0.34789 0.0
C376 C 0.60547 0.61582 0.30017 0.0
C377 C 0.5741 0.64302 0.30049 0.0
C378 C 0.37673 0.58703 0.26101 0.0
C379 C 0.36285 0.62486 0.2553 0.0
C380 C 0.35148 0.55578 0.263 0.0
C381 C 0.31146 0.56107 0.25856 0.0
H382 H 0.40735 0.58143 0.26209 0.0
H383 H 0.36364 0.52677 0.26504 0.0
S384 S 0.2612 0.65549 0.24452 0.0
N385 N 0.30721 0.66697 0.24696 0.0
N386 N 0.25914 0.6076 0.24969 0.0
C387 C 0.29705 0.59906 0.25445 0.0
C388 C 0.32304 0.63112 0.25263 0.0
C389 C 0.33991 0.33409 0.23079 0.0
C390 C 0.34223 0.37086 0.25461 0.0
C391 C 0.37049 0.30751 0.23366 0.0
C392 C 0.40441 0.31711 0.2602 0.0
H393 H 0.31476 0.32635 0.20825 0.0
H394 H 0.36886 0.28087 0.21122 0.0
S395 S 0.42718 0.41092 0.32287 0.0
N396 N 0.38255 0.41628 0.30209 0.0
N397 N 0.43959 0.36605 0.30788 0.0
C398 C 0.40672 0.35333 0.28502 0.0
C399 C 0.37588 0.38047 0.28183 0.0
C400 C 0.11354 0.32226 0.28191 0.0
C401 C 0.08931 0.31974 0.23744 0.0
C402 C 0.14066 0.35165 0.28694 0.0
C403 C 0.1448 0.37963 0.24751 0.0
H404 H 0.11229 0.30084 0.31325 0.0
H405 H 0.15979 0.3512 0.32046 0.0
S406 S 0.09062 0.3872 0.12289 0.0
N407 N 0.07236 0.34849 0.15259 0.0
N408 N 0.12365 0.40424 0.16296 0.0
C409 C 0.12088 0.37825 0.20323 0.0
C410 C 0.09309 0.34815 0.19778 0.0
C411 C 0.62092 0.0984 0.20196 0.0
C412 C 0.64697 0.09273 0.24313 0.0
C413 C 0.59163 0.126 0.20676 0.0
C414 C 0.58748 0.14845 0.25267 0.0
H415 H 0.62408 0.08275 0.16527 0.0
H416 H 0.57304 0.13113 0.17331 0.0
S417 S 0.64731 0.14318 0.37255 0.0
N418 N 0.66532 0.11011 0.33272 0.0
N419 N 0.611 0.16285 0.34032 0.0
C420 C 0.61226 0.1421 0.29487 0.0
C421 C 0.64192 0.11398 0.29025 0.0
C422 C 0.84864 0.58555 0.23453 0.0
C423 C 0.8115 0.59507 0.25222 0.0
C424 C 0.87619 0.61461 0.22587 0.0
C425 C 0.86686 0.65371 0.23441 0.0
H426 H 0.85606 0.55562 0.22619 0.0
H427 H 0.90501 0.60643 0.21403 0.0
S428 S 0.77289 0.69376 0.27721 0.0
N429 N 0.76658 0.64621 0.27645 0.0
N430 N 0.81772 0.70085 0.25822 0.0
C431 C 0.82948 0.66355 0.25056 0.0
C432 C 0.80193 0.63417 0.26026 0.0
C433 C 0.3302 0.86621 0.28431 0.0
C434 C 0.31447 0.87639 0.235 0.0
C435 C 0.35878 0.83786 0.28886 0.0
C436 C 0.37242 0.81883 0.24396 0.0
H437 H 0.31928 0.87937 0.32011 0.0
H438 H 0.36867 0.82946 0.32766 0.0
S439 S 0.34231 0.8351 0.10561 0.0
N440 N 0.3154 0.86537 0.1403 0.0
N441 N 0.3703 0.81306 0.14858 0.0
C442 C 0.35831 0.82991 0.19419 0.0
C443 C 0.32901 0.85852 0.18958 0.0
C444 C 0.14905 0.6263 0.77127 0.0
C445 C 0.14535 0.59473 0.73631 0.0
C446 C 0.11957 0.65294 0.77877 0.0
C447 C 0.08536 0.64931 0.75114 0.0
H448 H 0.17529 0.6309 0.7931 0.0
H449 H 0.12434 0.67759 0.80433 0.0
S450 S 0.06176 0.57666 0.64965 0.0
N451 N 0.10511 0.56392 0.67005 0.0
N452 N 0.04951 0.61522 0.68435 0.0
C453 C 0.08121 0.61911 0.71481 0.0
C454 C 0.11135 0.59159 0.70696 0.0
C455 C 0.37776 0.11467 0.74814 0.0
C456 C 0.36817 0.15237 0.73126 0.0
C457 C 0.34906 0.08689 0.75744 0.0
C458 C 0.31029 0.09659 0.7504 0.0
H459 H 0.40743 0.10706 0.75566 0.0
H460 H 0.35722 0.05765 0.76867 0.0
S461 S 0.27047 0.19251 0.71175 0.0
N462 N 0.31751 0.19853 0.71058 0.0
N463 N 0.26356 0.1469 0.72968 0.0
C464 C 0.30048 0.13463 0.73538 0.0
C465 C 0.32948 0.16241 0.7251 0.0
C466 C 0.84487 0.32171 0.7041 0.0
C467 C 0.86964 0.31943 0.74805 0.0
C468 C 0.81784 0.35127 0.69877 0.0
C469 C 0.81426 0.37963 0.73743 0.0
H470 H 0.84564 0.30001 0.67335 0.0
H471 H 0.79836 0.3507 0.66563 0.0
S472 S 0.86955 0.38784 0.86084 0.0
N473 N 0.88752 0.34879 0.83182 0.0
N474 N 0.83612 0.40473 0.82097 0.0
C475 C 0.83849 0.3784 0.78136 0.0
C476 C 0.86631 0.34818 0.78708 0.0
C477 C 0.62778 0.86759 0.70144 0.0
C478 C 0.64446 0.87651 0.75046 0.0
C479 C 0.59932 0.83927 0.69701 0.0
C480 C 0.58681 0.81901 0.74171 0.0
H481 H 0.63787 0.88172 0.66573 0.0
H482 H 0.5886 0.83191 0.65834 0.0
S483 S 0.62003 0.83154 0.87926 0.0
N484 N 0.64582 0.8629 0.84461 0.0
N485 N 0.59125 0.81058 0.8367 0.0
C486 C 0.60199 0.82874 0.79126 0.0
C487 C 0.63112 0.85735 0.79572 0.0
C488 C 0.95036 0.24703 0.45941 0.0
C489 C -0.01285 0.24322 0.43723 0.0
C490 C 0.94536 0.24721 0.51432 0.0
C491 C 0.97687 0.24274 0.54839 0.0
H492 H 0.9252 0.24487 0.43468 0.0
H493 H 0.91639 0.2454 0.52994 0.0
S494 S 0.07906 0.23573 0.50882 0.0
N495 N 0.05559 0.23971 0.45272 0.0
N496 N 0.04614 0.23832 0.55582 0.0
C497 C 0.01392 0.24333 0.52658 0.0
C498 C 0.01902 0.24402 0.47081 0.0
C499 C 0.72423 0.01624 0.52632 0.0
C500 C 0.72009 0.97915 0.54849 0.0
C501 C 0.72402 0.02142 0.47168 0.0
C502 C 0.72074 -0.01045 0.43753 0.0
H503 H 0.73265 0.04046 0.55078 0.0
H504 H 0.73203 0.04965 0.4561 0.0
S505 S 0.70266 0.88751 0.47704 0.0
N506 N 0.70637 0.91114 0.53329 0.0
N507 N 0.7076 0.92051 0.42995 0.0
C508 C 0.71181 0.9531 0.45931 0.0
C509 C 0.71116 0.94802 0.5152 0.0
C510 C 0.97599 0.70258 0.52239 0.0
C511 C -0.01567 0.73748 0.54954 0.0
C512 C 0.97137 0.70255 0.46656 0.0
C513 C 0.97765 0.73688 0.43686 0.0
H514 H 0.97174 0.67584 0.54428 0.0
H515 H 0.96176 0.67637 0.4472 0.0
S516 S 0.00329 0.83433 0.48832 0.0
N517 N -0.00412 0.80714 0.54046 0.0
N518 N -0.00072 0.80411 0.43904 0.0
C519 C -0.00978 0.77008 0.46393 0.0
C520 C -0.0101 0.77137 0.51923 0.0
C521 C 0.22806 0.95342 0.52608 0.0
C522 C 0.23848 -0.01101 0.5481 0.0
C523 C 0.22765 0.9485 0.47166 0.0
C524 C 0.23666 0.97925 0.43711 0.0
H525 H 0.21536 0.93096 0.55061 0.0
H526 H 0.2152 0.922 0.45649 0.0
S527 S 0.27532 0.07518 0.47664 0.0
N528 N 0.26586 0.05279 0.53295 0.0
N529 N 0.26377 0.04434 0.42942 0.0
C530 C 0.25218 0.01339 0.45873 0.0
C531 C 0.25337 0.01801 0.51479 0.0
C532 C 0.45143 0.74983 0.95943 0.0
C533 C 0.48772 0.74249 0.93719 0.0
C534 C 0.44645 0.75024 0.01446 0.0
C535 C 0.47741 0.74247 0.04846 0.0
H536 H 0.42621 0.75043 0.93464 0.0
H537 H 0.41746 0.75128 0.03016 0.0
S538 S 0.57831 0.72493 0.00876 0.0
N539 N 0.55543 0.73191 0.95275 0.0
N540 N 0.54582 0.73074 0.05573 0.0
C541 C 0.51431 0.73945 0.02656 0.0
C542 C 0.51948 0.73997 0.97084 0.0
C543 C 0.22963 0.45355 0.95811 0.0
C544 C 0.22017 0.48962 0.93607 0.0
C545 C 0.22978 0.44829 0.01253 0.0
C546 C 0.22155 0.4792 0.0468 0.0
H547 H 0.24186 0.43089 0.93366 0.0
H548 H 0.24169 0.42142 0.02789 0.0
S549 S 0.18584 0.57659 0.0076 0.0
N550 N 0.19459 0.55426 0.95126 0.0
N551 N 0.19636 0.54499 0.05474 0.0
C552 C 0.20691 0.51385 0.02529 0.0
C553 C 0.20595 0.51889 0.96934 0.0
C554 C 0.48108 0.20155 0.0217 0.0
C555 C 0.48298 0.23701 0.0496 0.0
C556 C 0.47646 0.20133 0.96601 0.0
C557 C 0.47532 0.23652 0.93705 0.0
H558 H 0.48326 0.17419 0.0427 0.0
H559 H 0.47373 0.17383 0.94581 0.0
S560 S 0.47956 0.33676 0.99177 0.0
N561 N 0.47937 0.3077 0.04304 0.0
N562 N 0.47954 0.3072 0.9414 0.0
C563 C 0.4787 0.27156 0.96508 0.0
C564 C 0.47989 0.27182 0.02048 0.0
C565 C 0.7345 0.5163 0.95867 0.0
C566 C 0.73739 0.47921 0.93648 0.0
C567 C 0.73461 0.52109 0.01334 0.0
C568 C 0.73688 0.48889 0.04745 0.0
H569 H 0.72702 0.54101 0.93416 0.0
H570 H 0.72744 0.54948 0.02893 0.0
S571 S 0.75283 0.38664 0.00806 0.0
N572 N 0.74967 0.41071 0.95177 0.0
N573 N 0.74851 0.41947 0.05511 0.0
C574 C 0.745 0.45234 0.0257 0.0
C575 C 0.74559 0.4476 0.9698 0.0
loop_
_geom_bond_atom_site_label_1
_geom_bond_atom_site_label_2
_geom_bond_distance
_geom_bond_site_symmetry_2
_ccdc_geom_bond_type
C0 O1 1.306 . S
C0 O3 1.160 . S
O1 C0 1.306 . S
O1 Cd2 2.228 . S
Cd2 O1 2.228 . S
Cd2 O6 2.273 . S
Cd2 O10 2.277 1_455 S
O3 C0 1.160 . S
O3 Cd4 2.203 . S
Cd4 O3 2.203 . S
Cd4 O6 2.411 . S
Cd4 O7 2.333 . S
Cd4 O8 2.352 . S
Cd4 O12 2.277 1_455 S
Cd4 O13 2.356 . S
C5 O10 1.209 . S
C5 O12 1.226 . S
O6 Cd2 2.273 . S
O6 Cd4 2.411 . S
O6 C9 1.320 . S
O7 Cd4 2.333 . S
O7 C9 1.214 . S
O8 Cd4 2.352 . S
O8 C11 1.258 . S
C9 O6 1.320 . S
C9 O7 1.214 . S
O10 Cd2 2.277 1_655 S
O10 C5 1.209 . S
C11 O8 1.258 . S
C11 O13 1.282 . S
O12 Cd4 2.277 1_655 S
O12 C5 1.226 . S
O13 Cd4 2.356 . S
O13 C11 1.282 . S
C14 O15 1.306 . S
C14 O17 1.160 . S
O15 C14 1.306 . S
O15 Cd16 2.228 . S
Cd16 O15 2.228 . S
Cd16 O20 2.273 . S
Cd16 O24 2.277 1_545 S
O17 C14 1.160 . S
O17 Cd18 2.203 . S
Cd18 O17 2.203 . S
Cd18 O20 2.411 . S
Cd18 O21 2.333 . S
Cd18 O22 2.352 . S
Cd18 O26 2.277 1_545 S
Cd18 O27 2.356 . S
C19 O24 1.209 . S
C19 O26 1.226 . S
O20 Cd16 2.273 . S
O20 Cd18 2.411 . S
O20 C23 1.320 . S
O21 Cd18 2.333 . S
O21 C23 1.214 . S
O22 Cd18 2.352 . S
O22 C25 1.258 . S
C23 O20 1.320 . S
C23 O21 1.214 . S
O24 Cd16 2.277 1_565 S
O24 C19 1.209 . S
C25 O22 1.258 . S
C25 O27 1.282 . S
O26 Cd18 2.277 1_565 S
O26 C19 1.226 . S
O27 Cd18 2.356 . S
O27 C25 1.282 . S
C28 O29 1.306 . S
C28 O31 1.160 . S
O29 C28 1.306 . S
O29 Cd30 2.228 . S
Cd30 O29 2.228 . S
Cd30 O34 2.273 . S
Cd30 O38 2.277 1_655 S
O31 C28 1.160 . S
O31 Cd32 2.203 . S
Cd32 O31 2.203 . S
Cd32 O34 2.411 . S
Cd32 O35 2.333 . S
Cd32 O36 2.352 . S
Cd32 O40 2.277 1_655 S
Cd32 O41 2.356 . S
C33 O38 1.209 . S
C33 O40 1.226 . S
O34 Cd30 2.273 . S
O34 Cd32 2.411 . S
O34 C37 1.320 . S
O35 Cd32 2.333 . S
O35 C37 1.214 . S
O36 Cd32 2.352 . S
O36 C39 1.258 . S
C37 O34 1.320 . S
C37 O35 1.214 . S
O38 Cd30 2.277 1_455 S
O38 C33 1.209 . S
C39 O36 1.258 . S
C39 O41 1.282 . S
O40 Cd32 2.277 1_455 S
O40 C33 1.226 . S
O41 Cd32 2.356 . S
O41 C39 1.282 . S
C42 O43 1.306 . S
C42 O45 1.160 . S
O43 C42 1.306 . S
O43 Cd44 2.228 . S
Cd44 O43 2.228 . S
Cd44 O48 2.273 . S
Cd44 O52 2.277 1_565 S
O45 C42 1.160 . S
O45 Cd46 2.203 . S
Cd46 O45 2.203 . S
Cd46 O48 2.411 . S
Cd46 O49 2.333 . S
Cd46 O50 2.352 . S
Cd46 O54 2.277 1_565 S
Cd46 O55 2.356 . S
C47 O52 1.209 . S
C47 O54 1.226 . S
O48 Cd44 2.273 . S
O48 Cd46 2.411 . S
O48 C51 1.320 . S
O49 Cd46 2.333 . S
O49 C51 1.214 . S
O50 Cd46 2.352 . S
O50 C53 1.258 . S
C51 O48 1.320 . S
C51 O49 1.214 . S
O52 Cd44 2.277 1_545 S
O52 C47 1.209 . S
C53 O50 1.258 . S
C53 O55 1.282 . S
O54 Cd46 2.277 1_545 S
O54 C47 1.226 . S
O55 Cd46 2.356 . S
O55 C53 1.282 . S
C56 O57 1.306 . S
C56 O59 1.160 . S
O57 C56 1.306 . S
O57 Cd58 2.228 . S
Cd58 O57 2.228 . S
Cd58 O62 2.273 . S
Cd58 O66 2.277 1_455 S
O59 C56 1.160 . S
O59 Cd60 2.203 . S
Cd60 O59 2.203 . S
Cd60 O62 2.411 . S
Cd60 O63 2.333 . S
Cd60 O64 2.352 . S
Cd60 O68 2.277 1_455 S
Cd60 O69 2.356 . S
C61 O66 1.209 . S
C61 O68 1.226 . S
O62 Cd58 2.273 . S
O62 Cd60 2.411 . S
O62 C65 1.320 . S
O63 Cd60 2.333 . S
O63 C65 1.214 . S
O64 Cd60 2.352 . S
O64 C67 1.258 . S
C65 O62 1.320 . S
C65 O63 1.214 . S
O66 Cd58 2.277 1_655 S
O66 C61 1.209 . S
C67 O64 1.258 . S
C67 O69 1.282 . S
O68 Cd60 2.277 1_655 S
O68 C61 1.226 . S
O69 Cd60 2.356 . S
O69 C67 1.282 . S
C70 O71 1.306 . S
C70 O73 1.160 . S
O71 C70 1.306 . S
O71 Cd72 2.228 . S
Cd72 O71 2.228 . S
Cd72 O76 2.273 . S
Cd72 O80 2.277 1_545 S
O73 C70 1.160 . S
O73 Cd74 2.203 . S
Cd74 O73 2.203 . S
Cd74 O76 2.411 . S
Cd74 O77 2.333 . S
Cd74 O78 2.352 . S
Cd74 O82 2.277 1_545 S
Cd74 O83 2.356 . S
C75 O80 1.209 . S
C75 O82 1.226 . S
O76 Cd72 2.273 . S
O76 Cd74 2.411 . S
O76 C79 1.320 . S
O77 Cd74 2.333 . S
O77 C79 1.214 . S
O78 Cd74 2.352 . S
O78 C81 1.258 . S
C79 O76 1.320 . S
C79 O77 1.214 . S
O80 Cd72 2.277 1_565 S
O80 C75 1.209 . S
C81 O78 1.258 . S
C81 O83 1.282 . S
O82 Cd74 2.277 1_565 S
O82 C75 1.226 . S
O83 Cd74 2.356 . S
O83 C81 1.282 . S
C84 O85 1.306 . S
C84 O87 1.160 . S
O85 C84 1.306 . S
O85 Cd86 2.228 . S
Cd86 O85 2.228 . S
Cd86 O90 2.273 . S
Cd86 O94 2.277 1_655 S
O87 C84 1.160 . S
O87 Cd88 2.203 . S
Cd88 O87 2.203 . S
Cd88 O90 2.411 . S
Cd88 O91 2.333 . S
Cd88 O92 2.352 . S
Cd88 O96 2.277 1_655 S
Cd88 O97 2.356 . S
C89 O94 1.209 . S
C89 O96 1.226 . S
O90 Cd86 2.273 . S
O90 Cd88 2.411 . S
O90 C93 1.320 . S
O91 Cd88 2.333 . S
O91 C93 1.214 . S
O92 Cd88 2.352 . S
O92 C95 1.258 . S
C93 O90 1.320 . S
C93 O91 1.214 . S
O94 Cd86 2.277 1_455 S
O94 C89 1.209 . S
C95 O92 1.258 . S
C95 O97 1.282 . S
O96 Cd88 2.277 1_455 S
O96 C89 1.226 . S
O97 Cd88 2.356 . S
O97 C95 1.282 . S
C98 O99 1.306 . S
C98 O101 1.160 . S
O99 C98 1.306 . S
O99 Cd100 2.228 . S
Cd100 O99 2.228 . S
Cd100 O104 2.273 . S
Cd100 O108 2.277 1_565 S
O101 C98 1.160 . S
O101 Cd102 2.203 . S
Cd102 O101 2.203 . S
Cd102 O104 2.411 . S
Cd102 O105 2.333 . S
Cd102 O106 2.352 . S
Cd102 O110 2.277 1_565 S
Cd102 O111 2.356 . S
C103 O108 1.209 . S
C103 O110 1.226 . S
O104 Cd100 2.273 . S
O104 Cd102 2.411 . S
O104 C107 1.320 . S
O105 Cd102 2.333 . S
O105 C107 1.214 . S
O106 Cd102 2.352 . S
O106 C109 1.258 . S
C107 O104 1.320 . S
C107 O105 1.214 . S
O108 Cd100 2.277 1_545 S
O108 C103 1.209 . S
C109 O106 1.258 . S
C109 O111 1.282 . S
O110 Cd102 2.277 1_545 S
O110 C103 1.226 . S
O111 Cd102 2.356 . S
O111 C109 1.282 . S
C112 O113 1.306 . S
C112 O115 1.160 . S
O113 C112 1.306 . S
O113 Cd114 2.228 . S
Cd114 O113 2.228 . S
Cd114 O118 2.273 . S
Cd114 O122 2.277 . S
O115 C112 1.160 . S
O115 Cd116 2.203 . S
Cd116 O115 2.203 . S
Cd116 O118 2.411 . S
Cd116 O119 2.333 . S
Cd116 O120 2.352 . S
Cd116 O124 2.277 . S
Cd116 O125 2.356 . S
C117 O122 1.209 . S
C117 O124 1.226 . S
O118 Cd114 2.273 . S
O118 Cd116 2.411 . S
O118 C121 1.320 . S
O119 Cd116 2.333 . S
O119 C121 1.214 . S
O120 Cd116 2.352 . S
O120 C123 1.258 . S
C121 O118 1.320 . S
C121 O119 1.214 . S
O122 Cd114 2.277 . S
O122 C117 1.209 . S
C123 O120 1.258 . S
C123 O125 1.282 . S
O124 Cd116 2.277 . S
O124 C117 1.226 . S
O125 Cd116 2.356 . S
O125 C123 1.282 . S
C126 O127 1.306 . S
C126 O129 1.160 . S
O127 C126 1.306 . S
O127 Cd128 2.228 . S
Cd128 O127 2.228 . S
Cd128 O132 2.273 . S
Cd128 O136 2.277 . S
O129 C126 1.160 . S
O129 Cd130 2.203 . S
Cd130 O129 2.203 . S
Cd130 O132 2.411 . S
Cd130 O133 2.333 . S
Cd130 O134 2.352 . S
Cd130 O138 2.277 . S
Cd130 O139 2.356 . S
C131 O136 1.209 . S
C131 O138 1.226 . S
O132 Cd128 2.273 . S
O132 Cd130 2.411 . S
O132 C135 1.320 . S
O133 Cd130 2.333 . S
O133 C135 1.214 . S
O134 Cd130 2.352 . S
O134 C137 1.258 . S
C135 O132 1.320 . S
C135 O133 1.214 . S
O136 Cd128 2.277 . S
O136 C131 1.209 . S
C137 O134 1.258 . S
C137 O139 1.282 . S
O138 Cd130 2.277 . S
O138 C131 1.226 . S
O139 Cd130 2.356 . S
O139 C137 1.282 . S
C140 O141 1.306 . S
C140 O143 1.160 . S
O141 C140 1.306 . S
O141 Cd142 2.228 . S
Cd142 O141 2.228 . S
Cd142 O146 2.273 . S
Cd142 O150 2.277 . S
O143 C140 1.160 . S
O143 Cd144 2.203 . S
Cd144 O143 2.203 . S
Cd144 O146 2.411 . S
Cd144 O147 2.333 . S
Cd144 O148 2.352 . S
Cd144 O152 2.277 . S
Cd144 O153 2.356 . S
C145 O150 1.209 . S
C145 O152 1.226 . S
O146 Cd142 2.273 . S
O146 Cd144 2.411 . S
O146 C149 1.320 . S
O147 Cd144 2.333 . S
O147 C149 1.214 . S
O148 Cd144 2.352 . S
O148 C151 1.258 . S
C149 O146 1.320 . S
C149 O147 1.214 . S
O150 Cd142 2.277 . S
O150 C145 1.209 . S
C151 O148 1.258 . S
C151 O153 1.282 . S
O152 Cd144 2.277 . S
O152 C145 1.226 . S
O153 Cd144 2.356 . S
O153 C151 1.282 . S
C154 O155 1.306 . S
C154 O157 1.160 . S
O155 C154 1.306 . S
O155 Cd156 2.228 . S
Cd156 O155 2.228 . S
Cd156 O160 2.273 . S
Cd156 O164 2.277 . S
O157 C154 1.160 . S
O157 Cd158 2.203 . S
Cd158 O157 2.203 . S
Cd158 O160 2.411 . S
Cd158 O161 2.333 . S
Cd158 O162 2.352 . S
Cd158 O166 2.277 . S
Cd158 O167 2.356 . S
C159 O164 1.209 . S
C159 O166 1.226 . S
O160 Cd156 2.273 . S
O160 Cd158 2.411 . S
O160 C163 1.320 . S
O161 Cd158 2.333 . S
O161 C163 1.214 . S
O162 Cd158 2.352 . S
O162 C165 1.258 . S
C163 O160 1.320 . S
C163 O161 1.214 . S
O164 Cd156 2.277 . S
O164 C159 1.209 . S
C165 O162 1.258 . S
C165 O167 1.282 . S
O166 Cd158 2.277 . S
O166 C159 1.226 . S
O167 Cd158 2.356 . S
O167 C165 1.282 . S
C168 O169 1.306 . S
C168 O171 1.160 . S
O169 C168 1.306 . S
O169 Cd170 2.228 . S
Cd170 O169 2.228 . S
Cd170 O174 2.273 . S
Cd170 O178 2.277 . S
O171 C168 1.160 . S
O171 Cd172 2.203 . S
Cd172 O171 2.203 . S
Cd172 O174 2.411 . S
Cd172 O175 2.333 . S
Cd172 O176 2.352 . S
Cd172 O180 2.277 . S
Cd172 O181 2.356 . S
C173 O178 1.209 . S
C173 O180 1.226 . S
O174 Cd170 2.273 . S
O174 Cd172 2.411 . S
O174 C177 1.320 . S
O175 Cd172 2.333 . S
O175 C177 1.214 . S
O176 Cd172 2.352 . S
O176 C179 1.258 . S
C177 O174 1.320 . S
C177 O175 1.214 . S
O178 Cd170 2.277 . S
O178 C173 1.209 . S
C179 O176 1.258 . S
C179 O181 1.282 . S
O180 Cd172 2.277 . S
O180 C173 1.226 . S
O181 Cd172 2.356 . S
O181 C179 1.282 . S
C182 O183 1.306 . S
C182 O185 1.160 . S
O183 C182 1.306 . S
O183 Cd184 2.228 . S
Cd184 O183 2.228 . S
Cd184 O188 2.273 . S
Cd184 O192 2.277 . S
O185 C182 1.160 . S
O185 Cd186 2.203 . S
Cd186 O185 2.203 . S
Cd186 O188 2.411 . S
Cd186 O189 2.333 . S
Cd186 O190 2.352 . S
Cd186 O194 2.277 . S
Cd186 O195 2.356 . S
C187 O192 1.209 . S
C187 O194 1.226 . S
O188 Cd184 2.273 . S
O188 Cd186 2.411 . S
O188 C191 1.320 . S
O189 Cd186 2.333 . S
O189 C191 1.214 . S
O190 Cd186 2.352 . S
O190 C193 1.258 . S
C191 O188 1.320 . S
C191 O189 1.214 . S
O192 Cd184 2.277 . S
O192 C187 1.209 . S
C193 O190 1.258 . S
C193 O195 1.282 . S
O194 Cd186 2.277 . S
O194 C187 1.226 . S
O195 Cd186 2.356 . S
O195 C193 1.282 . S
C196 O197 1.306 . S
C196 O199 1.160 . S
O197 C196 1.306 . S
O197 Cd198 2.228 . S
Cd198 O197 2.228 . S
Cd198 O202 2.273 . S
Cd198 O206 2.277 . S
O199 C196 1.160 . S
O199 Cd200 2.203 . S
Cd200 O199 2.203 . S
Cd200 O202 2.411 . S
Cd200 O203 2.333 . S
Cd200 O204 2.352 . S
Cd200 O208 2.277 . S
Cd200 O209 2.356 . S
C201 O206 1.209 . S
C201 O208 1.226 . S
O202 Cd198 2.273 . S
O202 Cd200 2.411 . S
O202 C205 1.320 . S
O203 Cd200 2.333 . S
O203 C205 1.214 . S
O204 Cd200 2.352 . S
O204 C207 1.258 . S
C205 O202 1.320 . S
C205 O203 1.214 . S
O206 Cd198 2.277 . S
O206 C201 1.209 . S
C207 O204 1.258 . S
C207 O209 1.282 . S
O208 Cd200 2.277 . S
O208 C201 1.226 . S
O209 Cd200 2.356 . S
O209 C207 1.282 . S
C210 O211 1.306 . S
C210 O213 1.160 . S
O211 C210 1.306 . S
O211 Cd212 2.228 . S
Cd212 O211 2.228 . S
Cd212 O216 2.273 . S
Cd212 O220 2.277 . S
O213 C210 1.160 . S
O213 Cd214 2.203 . S
Cd214 O213 2.203 . S
Cd214 O216 2.411 . S
Cd214 O217 2.333 . S
Cd214 O218 2.352 . S
Cd214 O222 2.277 . S
Cd214 O223 2.356 . S
C215 O220 1.209 . S
C215 O222 1.226 . S
O216 Cd212 2.273 . S
O216 Cd214 2.411 . S
O216 C219 1.320 . S
O217 Cd214 2.333 . S
O217 C219 1.214 . S
O218 Cd214 2.352 . S
O218 C221 1.258 . S
C219 O216 1.320 . S
C219 O217 1.214 . S
O220 Cd212 2.277 . S
O220 C215 1.209 . S
C221 O218 1.258 . S
C221 O223 1.282 . S
O222 Cd214 2.277 . S
O222 C215 1.226 . S
O223 Cd214 2.356 . S
O223 C221 1.282 . S
C224 C225 1.369 . S
C224 C226 1.419 . S
C224 H228 0.930 . S
C225 C224 1.369 . S
C225 C234 1.429 . S
C226 C224 1.419 . S
C226 C227 1.363 . S
C226 H229 0.929 . S
C227 C226 1.363 . S
C227 C233 1.428 . S
H228 C224 0.930 . S
H229 C226 0.929 . S
S230 N231 1.613 . S
S230 N232 1.610 . S
N231 S230 1.613 . S
N231 C234 1.350 . S
N232 S230 1.610 . S
N232 C233 1.351 . S
C233 C227 1.428 . S
C233 N232 1.351 . S
C233 C234 1.434 . S
C234 C225 1.429 . S
C234 N231 1.350 . S
C234 C233 1.434 . S
C235 C236 1.369 . S
C235 C237 1.419 . S
C235 H239 0.930 . S
C236 C235 1.369 . S
C236 C245 1.429 . S
C237 C235 1.419 . S
C237 C238 1.363 . S
C237 H240 0.929 . S
C238 C237 1.363 . S
C238 C244 1.428 . S
H239 C235 0.930 . S
H240 C237 0.929 . S
S241 N242 1.613 . S
S241 N243 1.610 . S
N242 S241 1.613 . S
N242 C245 1.350 . S
N243 S241 1.610 . S
N243 C244 1.351 . S
C244 C238 1.428 . S
C244 N243 1.351 . S
C244 C245 1.434 . S
C245 C236 1.429 . S
C245 N242 1.350 . S
C245 C244 1.434 . S
C246 C247 1.369 . S
C246 C248 1.419 . S
C246 H250 0.930 . S
C247 C246 1.369 . S
C247 C256 1.429 . S
C248 C246 1.419 . S
C248 C249 1.363 . S
C248 H251 0.929 . S
C249 C248 1.363 . S
C249 C255 1.428 . S
H250 C246 0.930 . S
H251 C248 0.929 . S
S252 N253 1.613 . S
S252 N254 1.610 . S
N253 S252 1.613 . S
N253 C256 1.350 . S
N254 S252 1.610 . S
N254 C255 1.351 . S
C255 C249 1.428 . S
C255 N254 1.351 . S
C255 C256 1.434 . S
C256 C247 1.429 . S
C256 N253 1.350 . S
C256 C255 1.434 . S
C257 C258 1.369 . S
C257 C259 1.419 . S
C257 H261 0.930 . S
C258 C257 1.369 . S
C258 C267 1.429 . S
C259 C257 1.419 . S
C259 C260 1.363 . S
C259 H262 0.929 . S
C260 C259 1.363 . S
C260 C266 1.428 . S
H261 C257 0.930 . S
H262 C259 0.929 . S
S263 N264 1.613 . S
S263 N265 1.610 . S
N264 S263 1.613 . S
N264 C267 1.350 . S
N265 S263 1.610 . S
N265 C266 1.351 . S
C266 C260 1.428 . S
C266 N265 1.351 . S
C266 C267 1.434 . S
C267 C258 1.429 . S
C267 N264 1.350 . S
C267 C266 1.434 . S
C268 C269 1.369 . S
C268 C270 1.419 . S
C268 H272 0.930 . S
C269 C268 1.369 . S
C269 C278 1.429 . S
C270 C268 1.419 . S
C270 C271 1.363 . S
C270 H273 0.929 . S
C271 C270 1.363 . S
C271 C277 1.428 . S
H272 C268 0.930 . S
H273 C270 0.929 . S
S274 N275 1.613 . S
S274 N276 1.610 . S
N275 S274 1.613 . S
N275 C278 1.350 . S
N276 S274 1.610 . S
N276 C277 1.351 . S
C277 C271 1.428 . S
C277 N276 1.351 . S
C277 C278 1.434 . S
C278 C269 1.429 . S
C278 N275 1.350 . S
C278 C277 1.434 . S
C279 C280 1.369 . S
C279 C281 1.419 . S
C279 H283 0.930 . S
C280 C279 1.369 . S
C280 C289 1.429 . S
C281 C279 1.419 . S
C281 C282 1.363 . S
C281 H284 0.929 . S
C282 C281 1.363 . S
C282 C288 1.428 . S
H283 C279 0.930 . S
H284 C281 0.929 . S
S285 N286 1.613 . S
S285 N287 1.610 . S
N286 S285 1.613 . S
N286 C289 1.350 . S
N287 S285 1.610 . S
N287 C288 1.351 . S
C288 C282 1.428 . S
C288 N287 1.351 . S
C288 C289 1.434 . S
C289 C280 1.429 . S
C289 N286 1.350 . S
C289 C288 1.434 . S
C290 C291 1.369 . S
C290 C292 1.419 . S
C290 H294 0.930 . S
C291 C290 1.369 . S
C291 C300 1.429 . S
C292 C290 1.419 . S
C292 C293 1.363 . S
C292 H295 0.929 . S
C293 C292 1.363 . S
C293 C299 1.428 . S
H294 C290 0.930 . S
H295 C292 0.929 . S
S296 N297 1.613 . S
S296 N298 1.610 . S
N297 S296 1.613 . S
N297 C300 1.350 . S
N298 S296 1.610 . S
N298 C299 1.351 . S
C299 C293 1.428 . S
C299 N298 1.351 . S
C299 C300 1.434 . S
C300 C291 1.429 . S
C300 N297 1.350 . S
C300 C299 1.434 . S
C301 C302 1.369 . S
C301 C303 1.419 . S
C301 H305 0.930 . S
C302 C301 1.369 . S
C302 C311 1.429 . S
C303 C301 1.419 . S
C303 C304 1.363 . S
C303 H306 0.929 . S
C304 C303 1.363 . S
C304 C310 1.428 . S
H305 C301 0.930 . S
H306 C303 0.929 . S
S307 N308 1.613 . S
S307 N309 1.610 . S
N308 S307 1.613 . S
N308 C311 1.350 . S
N309 S307 1.610 . S
N309 C310 1.351 . S
C310 C304 1.428 . S
C310 N309 1.351 . S
C310 C311 1.434 . S
C311 C302 1.429 . S
C311 N308 1.350 . S
C311 C310 1.434 . S
C312 C313 1.369 . S
C312 C314 1.419 . S
C312 H316 0.930 . S
C313 C312 1.369 . S
C313 C322 1.429 . S
C314 C312 1.419 . S
C314 C315 1.363 . S
C314 H317 0.929 . S
C315 C314 1.363 . S
C315 C321 1.428 . S
H316 C312 0.930 . S
H317 C314 0.929 . S
S318 N319 1.613 . S
S318 N320 1.610 . S
N319 S318 1.613 . S
N319 C322 1.350 . S
N320 S318 1.610 . S
N320 C321 1.351 . S
C321 C315 1.428 . S
C321 N320 1.351 . S
C321 C322 1.434 . S
C322 C313 1.429 . S
C322 N319 1.350 . S
C322 C321 1.434 . S
C323 C324 1.369 . S
C323 C325 1.419 . S
C323 H327 0.930 . S
C324 C323 1.369 . S
C324 C333 1.429 . S
C325 C323 1.419 . S
C325 C326 1.363 . S
C325 H328 0.929 . S
C326 C325 1.363 . S
C326 C332 1.428 . S
H327 C323 0.930 . S
H328 C325 0.929 . S
S329 N330 1.613 . S
S329 N331 1.610 . S
N330 S329 1.613 . S
N330 C333 1.350 . S
N331 S329 1.610 . S
N331 C332 1.351 . S
C332 C326 1.428 . S
C332 N331 1.351 . S
C332 C333 1.434 . S
C333 C324 1.429 . S
C333 N330 1.350 . S
C333 C332 1.434 . S
C334 C335 1.369 . S
C334 C336 1.419 . S
C334 H338 0.930 . S
C335 C334 1.369 . S
C335 C344 1.429 . S
C336 C334 1.419 . S
C336 C337 1.363 . S
C336 H339 0.929 . S
C337 C336 1.363 . S
C337 C343 1.428 . S
H338 C334 0.930 . S
H339 C336 0.929 . S
S340 N341 1.613 . S
S340 N342 1.610 . S
N341 S340 1.613 . S
N341 C344 1.350 . S
N342 S340 1.610 . S
N342 C343 1.351 . S
C343 C337 1.428 . S
C343 N342 1.351 . S
C343 C344 1.434 . S
C344 C335 1.429 . S
C344 N341 1.350 . S
C344 C343 1.434 . S
C345 C346 1.369 . S
C345 C347 1.419 . S
C345 H349 0.930 . S
C346 C345 1.369 . S
C346 C355 1.429 . S
C347 C345 1.419 . S
C347 C348 1.363 . S
C347 H350 0.929 . S
C348 C347 1.363 . S
C348 C354 1.428 . S
H349 C345 0.930 . S
H350 C347 0.929 . S
S351 N352 1.613 . S
S351 N353 1.610 . S
N352 S351 1.613 . S
N352 C355 1.350 . S
N353 S351 1.610 . S
N353 C354 1.351 . S
C354 C348 1.428 . S
C354 N353 1.351 . S
C354 C355 1.434 . S
C355 C346 1.429 . S
C355 N352 1.350 . S
C355 C354 1.434 . S
C356 C357 1.369 . S
C356 C358 1.419 . S
C356 H360 0.930 . S
C357 C356 1.369 . S
C357 C366 1.429 . S
C358 C356 1.419 . S
C358 C359 1.363 . S
C358 H361 0.929 . S
C359 C358 1.363 . S
C359 C365 1.428 . S
H360 C356 0.930 . S
H361 C358 0.929 . S
S362 N363 1.613 . S
S362 N364 1.610 . S
N363 S362 1.613 . S
N363 C366 1.350 . S
N364 S362 1.610 . S
N364 C365 1.351 . S
C365 C359 1.428 . S
C365 N364 1.351 . S
C365 C366 1.434 . S
C366 C357 1.429 . S
C366 N363 1.350 . S
C366 C365 1.434 . S
C367 C368 1.369 . S
C367 C369 1.419 . S
C367 H371 0.930 . S
C368 C367 1.369 . S
C368 C377 1.429 . S
C369 C367 1.419 . S
C369 C370 1.363 . S
C369 H372 0.929 . S
C370 C369 1.363 . S
C370 C376 1.428 . S
H371 C367 0.930 . S
H372 C369 0.929 . S
S373 N374 1.613 . S
S373 N375 1.610 . S
N374 S373 1.613 . S
N374 C377 1.350 . S
N375 S373 1.610 . S
N375 C376 1.351 . S
C376 C370 1.428 . S
C376 N375 1.351 . S
C376 C377 1.434 . S
C377 C368 1.429 . S
C377 N374 1.350 . S
C377 C376 1.434 . S
C378 C379 1.369 . S
C378 C380 1.419 . S
C378 H382 0.930 . S
C379 C378 1.369 . S
C379 C388 1.429 . S
C380 C378 1.419 . S
C380 C381 1.363 . S
C380 H383 0.929 . S
C381 C380 1.363 . S
C381 C387 1.428 . S
H382 C378 0.930 . S
H383 C380 0.929 . S
S384 N385 1.613 . S
S384 N386 1.610 . S
N385 S384 1.613 . S
N385 C388 1.350 . S
N386 S384 1.610 . S
N386 C387 1.351 . S
C387 C381 1.428 . S
C387 N386 1.351 . S
C387 C388 1.434 . S
C388 C379 1.429 . S
C388 N385 1.350 . S
C388 C387 1.434 . S
C389 C390 1.369 . S
C389 C391 1.419 . S
C389 H393 0.930 . S
C390 C389 1.369 . S
C390 C399 1.429 . S
C391 C389 1.419 . S
C391 C392 1.363 . S
C391 H394 0.929 . S
C392 C391 1.363 . S
C392 C398 1.428 . S
H393 C389 0.930 . S
H394 C391 0.929 . S
S395 N396 1.613 . S
S395 N397 1.610 . S
N396 S395 1.613 . S
N396 C399 1.350 . S
N397 S395 1.610 . S
N397 C398 1.351 . S
C398 C392 1.428 . S
C398 N397 1.351 . S
C398 C399 1.434 . S
C399 C390 1.429 . S
C399 N396 1.350 . S
C399 C398 1.434 . S
C400 C401 1.369 . S
C400 C402 1.419 . S
C400 H404 0.930 . S
C401 C400 1.369 . S
C401 C410 1.429 . S
C402 C400 1.419 . S
C402 C403 1.363 . S
C402 H405 0.929 . S
C403 C402 1.363 . S
C403 C409 1.428 . S
H404 C400 0.930 . S
H405 C402 0.929 . S
S406 N407 1.613 . S
S406 N408 1.610 . S
N407 S406 1.613 . S
N407 C410 1.350 . S
N408 S406 1.610 . S
N408 C409 1.351 . S
C409 C403 1.428 . S
C409 N408 1.351 . S
C409 C410 1.434 . S
C410 C401 1.429 . S
C410 N407 1.350 . S
C410 C409 1.434 . S
C411 C412 1.369 . S
C411 C413 1.419 . S
C411 H415 0.930 . S
C412 C411 1.369 . S
C412 C421 1.429 . S
C413 C411 1.419 . S
C413 C414 1.363 . S
C413 H416 0.929 . S
C414 C413 1.363 . S
C414 C420 1.428 . S
H415 C411 0.930 . S
H416 C413 0.929 . S
S417 N418 1.613 . S
S417 N419 1.610 . S
N418 S417 1.613 . S
N418 C421 1.350 . S
N419 S417 1.610 . S
N419 C420 1.351 . S
C420 C414 1.428 . S
C420 N419 1.351 . S
C420 C421 1.434 . S
C421 C412 1.429 . S
C421 N418 1.350 . S
C421 C420 1.434 . S
C422 C423 1.369 . S
C422 C424 1.419 . S
C422 H426 0.930 . S
C423 C422 1.369 . S
C423 C432 1.429 . S
C424 C422 1.419 . S
C424 C425 1.363 . S
C424 H427 0.929 . S
C425 C424 1.363 . S
C425 C431 1.428 . S
H426 C422 0.930 . S
H427 C424 0.929 . S
S428 N429 1.613 . S
S428 N430 1.610 . S
N429 S428 1.613 . S
N429 C432 1.350 . S
N430 S428 1.610 . S
N430 C431 1.351 . S
C431 C425 1.428 . S
C431 N430 1.351 . S
C431 C432 1.434 . S
C432 C423 1.429 . S
C432 N429 1.350 . S
C432 C431 1.434 . S
C433 C434 1.369 . S
C433 C435 1.419 . S
C433 H437 0.930 . S
C434 C433 1.369 . S
C434 C443 1.429 . S
C435 C433 1.419 . S
C435 C436 1.363 . S
C435 H438 0.929 . S
C436 C435 1.363 . S
C436 C442 1.428 . S
H437 C433 0.930 . S
H438 C435 0.929 . S
S439 N440 1.613 . S
S439 N441 1.610 . S
N440 S439 1.613 . S
N440 C443 1.350 . S
N441 S439 1.610 . S
N441 C442 1.351 . S
C442 C436 1.428 . S
C442 N441 1.351 . S
C442 C443 1.434 . S
C443 C434 1.429 . S
C443 N440 1.350 . S
C443 C442 1.434 . S
C444 C445 1.369 . S
C444 C446 1.419 . S
C444 H448 0.930 . S
C445 C444 1.369 . S
C445 C454 1.429 . S
C446 C444 1.419 . S
C446 C447 1.363 . S
C446 H449 0.929 . S
C447 C446 1.363 . S
C447 C453 1.428 . S
H448 C444 0.930 . S
H449 C446 0.929 . S
S450 N451 1.613 . S
S450 N452 1.610 . S
N451 S450 1.613 . S
N451 C454 1.350 . S
N452 S450 1.610 . S
N452 C453 1.351 . S
C453 C447 1.428 . S
C453 N452 1.351 . S
C453 C454 1.434 . S
C454 C445 1.429 . S
C454 N451 1.350 . S
C454 C453 1.434 . S
C455 C456 1.369 . S
C455 C457 1.419 . S
C455 H459 0.930 . S
C456 C455 1.369 . S
C456 C465 1.429 . S
C457 C455 1.419 . S
C457 C458 1.363 . S
C457 H460 0.929 . S
C458 C457 1.363 . S
C458 C464 1.428 . S
H459 C455 0.930 . S
H460 C457 0.929 . S
S461 N462 1.613 . S
S461 N463 1.610 . S
N462 S461 1.613 . S
N462 C465 1.350 . S
N463 S461 1.610 . S
N463 C464 1.351 . S
C464 C458 1.428 . S
C464 N463 1.351 . S
C464 C465 1.434 . S
C465 C456 1.429 . S
C465 N462 1.350 . S
C465 C464 1.434 . S
C466 C467 1.369 . S
C466 C468 1.419 . S
C466 H470 0.930 . S
C467 C466 1.369 . S
C467 C476 1.429 . S
C468 C466 1.419 . S
C468 C469 1.363 . S
C468 H471 0.929 . S
C469 C468 1.363 . S
C469 C475 1.428 . S
H470 C466 0.930 . S
H471 C468 0.929 . S
S472 N473 1.613 . S
S472 N474 1.610 . S
N473 S472 1.613 . S
N473 C476 1.350 . S
N474 S472 1.610 . S
N474 C475 1.351 . S
C475 C469 1.428 . S
C475 N474 1.351 . S
C475 C476 1.434 . S
C476 C467 1.429 . S
C476 N473 1.350 . S
C476 C475 1.434 . S
C477 C478 1.369 . S
C477 C479 1.419 . S
C477 H481 0.930 . S
C478 C477 1.369 . S
C478 C487 1.429 . S
C479 C477 1.419 . S
C479 C480 1.363 . S
C479 H482 0.929 . S
C480 C479 1.363 . S
C480 C486 1.428 . S
H481 C477 0.930 . S
H482 C479 0.929 . S
S483 N484 1.613 . S
S483 N485 1.610 . S
N484 S483 1.613 . S
N484 C487 1.350 . S
N485 S483 1.610 . S
N485 C486 1.351 . S
C486 C480 1.428 . S
C486 N485 1.351 . S
C486 C487 1.434 . S
C487 C478 1.429 . S
C487 N484 1.350 . S
C487 C486 1.434 . S
C488 C489 1.369 1_655 S
C488 C490 1.419 . S
C488 H492 0.930 . S
C489 C488 1.369 1_455 S
C489 C498 1.429 . S
C490 C488 1.419 . S
C490 C491 1.363 . S
C490 H493 0.929 . S
C491 C490 1.363 . S
C491 C497 1.428 1_655 S
H492 C488 0.930 . S
H493 C490 0.929 . S
S494 N495 1.613 . S
S494 N496 1.610 . S
N495 S494 1.613 . S
N495 C498 1.350 . S
N496 S494 1.610 . S
N496 C497 1.351 . S
C497 C491 1.428 1_455 S
C497 N496 1.351 . S
C497 C498 1.434 . S
C498 C489 1.429 . S
C498 N495 1.350 . S
C498 C497 1.434 . S
C499 C500 1.369 1_545 S
C499 C501 1.419 . S
C499 H503 0.930 . S
C500 C499 1.369 1_565 S
C500 C509 1.429 . S
C501 C499 1.419 . S
C501 C502 1.363 . S
C501 H504 0.929 . S
C502 C501 1.363 . S
C502 C508 1.428 1_545 S
H503 C499 0.930 . S
H504 C501 0.929 . S
S505 N506 1.613 . S
S505 N507 1.610 . S
N506 S505 1.613 . S
N506 C509 1.350 . S
N507 S505 1.610 . S
N507 C508 1.351 . S
C508 C502 1.428 1_565 S
C508 N507 1.351 . S
C508 C509 1.434 . S
C509 C500 1.429 . S
C509 N506 1.350 . S
C509 C508 1.434 . S
C510 C511 1.369 1_655 S
C510 C512 1.419 . S
C510 H514 0.930 . S
C511 C510 1.369 1_455 S
C511 C520 1.429 . S
C512 C510 1.419 . S
C512 C513 1.363 . S
C512 H515 0.929 . S
C513 C512 1.363 . S
C513 C519 1.428 1_655 S
H514 C510 0.930 . S
H515 C512 0.929 . S
S516 N517 1.613 . S
S516 N518 1.610 . S
N517 S516 1.613 . S
N517 C520 1.350 . S
N518 S516 1.610 . S
N518 C519 1.351 . S
C519 C513 1.428 1_455 S
C519 N518 1.351 . S
C519 C520 1.434 . S
C520 C511 1.429 . S
C520 N517 1.350 . S
C520 C519 1.434 . S
C521 C522 1.369 1_565 S
C521 C523 1.419 . S
C521 H525 0.930 . S
C522 C521 1.369 1_545 S
C522 C531 1.429 . S
C523 C521 1.419 . S
C523 C524 1.363 . S
C523 H526 0.929 . S
C524 C523 1.363 . S
C524 C530 1.428 1_565 S
H525 C521 0.930 . S
H526 C523 0.929 . S
S527 N528 1.613 . S
S527 N529 1.610 . S
N528 S527 1.613 . S
N528 C531 1.350 . S
N529 S527 1.610 . S
N529 C530 1.351 . S
C530 C524 1.428 1_545 S
C530 N529 1.351 . S
C530 C531 1.434 . S
C531 C522 1.429 . S
C531 N528 1.350 . S
C531 C530 1.434 . S
C532 C533 1.369 . S
C532 C534 1.419 1_556 S
C532 H536 0.930 . S
C533 C532 1.369 . S
C533 C542 1.429 . S
C534 C532 1.419 1_554 S
C534 C535 1.363 . S
C534 H537 0.929 . S
C535 C534 1.363 . S
C535 C541 1.428 . S
H536 C532 0.930 . S
H537 C534 0.929 . S
S538 N539 1.613 1_554 S
S538 N540 1.610 . S
N539 S538 1.613 1_556 S
N539 C542 1.350 . S
N540 S538 1.610 . S
N540 C541 1.351 . S
C541 C535 1.428 . S
C541 N540 1.351 . S
C541 C542 1.434 1_554 S
C542 C533 1.429 . S
C542 N539 1.350 . S
C542 C541 1.434 1_556 S
C543 C544 1.369 . S
C543 C545 1.419 1_556 S
C543 H547 0.930 . S
C544 C543 1.369 . S
C544 C553 1.429 . S
C545 C543 1.419 1_554 S
C545 C546 1.363 . S
C545 H548 0.929 . S
C546 C545 1.363 . S
C546 C552 1.428 . S
H547 C543 0.930 . S
H548 C545 0.929 . S
S549 N550 1.613 1_554 S
S549 N551 1.610 . S
N550 S549 1.613 1_556 S
N550 C553 1.350 . S
N551 S549 1.610 . S
N551 C552 1.351 . S
C552 C546 1.428 . S
C552 N551 1.351 . S
C552 C553 1.434 1_554 S
C553 C544 1.429 . S
C553 N550 1.350 . S
C553 C552 1.434 1_556 S
C554 C555 1.369 . S
C554 C556 1.419 1_554 S
C554 H558 0.930 . S
C555 C554 1.369 . S
C555 C564 1.429 . S
C556 C554 1.419 1_556 S
C556 C557 1.363 . S
C556 H559 0.929 . S
C557 C556 1.363 . S
C557 C563 1.428 . S
H558 C554 0.930 . S
H559 C556 0.929 . S
S560 N561 1.612 . S
S560 N562 1.611 1_554 S
N561 S560 1.612 . S
N561 C564 1.350 . S
N562 S560 1.611 1_556 S
N562 C563 1.351 . S
C563 C557 1.428 . S
C563 N562 1.351 . S
C563 C564 1.434 1_556 S
C564 C555 1.429 . S
C564 N561 1.350 . S
C564 C563 1.434 1_554 S
C565 C566 1.369 . S
C565 C567 1.419 1_556 S
C565 H569 0.930 . S
C566 C565 1.369 . S
C566 C575 1.429 . S
C567 C565 1.419 1_554 S
C567 C568 1.363 . S
C567 H570 0.929 . S
C568 C567 1.363 . S
C568 C574 1.428 . S
H569 C565 0.930 . S
H570 C567 0.929 . S
S571 N572 1.613 1_554 S
S571 N573 1.610 . S
N572 S571 1.613 1_556 S
N572 C575 1.350 . S
N573 S571 1.610 . S
N573 C574 1.351 . S
C574 C568 1.428 . S
C574 N573 1.351 . S
C574 C575 1.434 1_554 S
C575 C566 1.429 . S
C575 N572 1.350 . S
C575 C574 1.434 1_556 S
C225 C9 1.535 . S
C227 C47 1.492 . S
C236 C5 1.489 . S
C238 C23 1.532 . S
C247 C19 1.489 . S
C249 C37 1.534 . S
C258 C33 1.495 . S
C260 C51 1.534 . S
C269 C65 1.532 . S
C271 C75 1.493 . S
C280 C79 1.532 . S
C282 C89 1.490 . S
C291 C93 1.532 . S
C293 C103 1.492 . S
C302 C107 1.532 . S
C304 C61 1.490 . S
C313 C121 1.534 . S
C315 C159 1.494 . S
C324 C117 1.494 . S
C326 C135 1.534 . S
C335 C131 1.491 . S
C337 C149 1.532 . S
C346 C163 1.534 . S
C348 C145 1.488 . S
C357 C187 1.494 . S
C359 C177 1.532 . S
C368 C201 1.495 . S
C370 C191 1.533 . S
C379 C205 1.532 . S
C381 C215 1.494 . S
C390 C219 1.534 . S
C392 C173 1.489 . S
C401 C11 1.404 . S
C403 C221 1.398 . S
C412 C25 1.397 . S
C414 C179 1.403 . S
C423 C193 1.398 . S
C425 C39 1.399 . S
C434 C53 1.403 . S
C436 C207 1.397 . S
C445 C137 1.405 . S
C447 C67 1.399 . S
C456 C151 1.398 . S
C458 C81 1.399 . S
C467 C95 1.404 . S
C469 C165 1.398 . S
C478 C109 1.403 . S
C480 C123 1.397 . S
C489 C0 1.596 . S
C491 C84 1.598 . S
C500 C98 1.597 . S
C502 C14 1.599 . S
C511 C56 1.595 . S
C513 C28 1.596 . S
C522 C70 1.597 . S
C524 C42 1.600 . S
C533 C112 1.596 . S
C535 C196 1.598 . S
C544 C126 1.597 . S
C546 C210 1.600 . S
C555 C168 1.596 . S
C557 C140 1.596 . S
C566 C154 1.597 . S
C568 C182 1.599 . S
