# Generated by pormake.
# Topology wjh, (4)-cn, num edge types: 1
# Building blocks:
#     Node 0, Type 0, BuildingBlock: ICAMEG_clean_sbu_1, # of connection points: 4
#     Node 1, Type 0, BuildingBlock: ICAMEG_clean_sbu_1, # of connection points: 4
#     Node 2, Type 0, BuildingBlock: ICAMEG_clean_sbu_1, # of connection points: 4
#     Node 3, Type 0, BuildingBlock: ICAMEG_clean_sbu_1, # of connection points: 4
#     Node 4, Type 0, BuildingBlock: ICAMEG_clean_sbu_1, # of connection points: 4
#     Node 5, Type 0, BuildingBlock: ICAMEG_clean_sbu_1, # of connection points: 4
#     Node 6, Type 0, BuildingBlock: ICAMEG_clean_sbu_1, # of connection points: 4
#     Node 7, Type 0, BuildingBlock: ICAMEG_clean_sbu_1, # of connection points: 4
#     Node 8, Type 0, BuildingBlock: ICAMEG_clean_sbu_1, # of connection points: 4
#     Node 9, Type 0, BuildingBlock: ICAMEG_clean_sbu_1, # of connection points: 4
#     Node 10, Type 0, BuildingBlock: ICAMEG_clean_sbu_1, # of connection points: 4
#     Node 11, Type 0, BuildingBlock: ICAMEG_clean_sbu_1, # of connection points: 4
#     Edge 12, Type (0, 0), BuildingBlock: TEMPAE_clean_linker_10, # of connection points: 2
#     Edge 13, Type (0, 0), BuildingBlock: TEMPAE_clean_linker_10, # of connection points: 2
#     Edge 14, Type (0, 0), BuildingBlock: TEMPAE_clean_linker_10, # of connection points: 2
#     Edge 15, Type (0, 0), BuildingBlock: TEMPAE_clean_linker_10, # of connection points: 2
#     Edge 16, Type (0, 0), BuildingBlock: TEMPAE_clean_linker_10, # of connection points: 2
#     Edge 17, Type (0, 0), BuildingBlock: TEMPAE_clean_linker_10, # of connection points: 2
#     Edge 18, Type (0, 0), BuildingBlock: TEMPAE_clean_linker_10, # of connection points: 2
#     Edge 19, Type (0, 0), BuildingBlock: TEMPAE_clean_linker_10, # of connection points: 2
#     Edge 20, Type (0, 0), BuildingBlock: TEMPAE_clean_linker_10, # of connection points: 2
#     Edge 21, Type (0, 0), BuildingBlock: TEMPAE_clean_linker_10, # of connection points: 2
#     Edge 22, Type (0, 0), BuildingBlock: TEMPAE_clean_linker_10, # of connection points: 2
#     Edge 23, Type (0, 0), BuildingBlock: TEMPAE_clean_linker_10, # of connection points: 2
#     Edge 24, Type (0, 0), BuildingBlock: TEMPAE_clean_linker_10, # of connection points: 2
#     Edge 25, Type (0, 0), BuildingBlock: TEMPAE_clean_linker_10, # of connection points: 2
#     Edge 26, Type (0, 0), BuildingBlock: TEMPAE_clean_linker_10, # of connection points: 2
#     Edge 27, Type (0, 0), BuildingBlock: TEMPAE_clean_linker_10, # of connection points: 2
#     Edge 28, Type (0, 0), BuildingBlock: TEMPAE_clean_linker_10, # of connection points: 2
#     Edge 29, Type (0, 0), BuildingBlock: TEMPAE_clean_linker_10, # of connection points: 2
#     Edge 30, Type (0, 0), BuildingBlock: TEMPAE_clean_linker_10, # of connection points: 2
#     Edge 31, Type (0, 0), BuildingBlock: TEMPAE_clean_linker_10, # of connection points: 2
#     Edge 32, Type (0, 0), BuildingBlock: TEMPAE_clean_linker_10, # of connection points: 2
#     Edge 33, Type (0, 0), BuildingBlock: TEMPAE_clean_linker_10, # of connection points: 2
#     Edge 34, Type (0, 0), BuildingBlock: TEMPAE_clean_linker_10, # of connection points: 2
#     Edge 35, Type (0, 0), BuildingBlock: TEMPAE_clean_linker_10, # of connection points: 2
# Relax obj value: 0.058
# Max RMSD: 0.097
# Mean RMSD: 0.097
data_MOF--net-wjh--node1-ICAMEG_clean_sbu_1--edge1-TEMPAE_clean_linker_10
_symmetry_space_group_name_H-M    P1
_symmetry_Int_Tables_number       1
_symmetry_cell_setting            triclinic
loop_
_symmetry_equiv_pos_as_xyz
'x, y, z'
_cell_length_a     64.399026
_cell_length_b     64.388549
_cell_length_c     30.100662
_cell_angle_alpha  89.986231
_cell_angle_beta   89.98707
_cell_angle_gamma 120.02865
loop_
_atom_site_label
_atom_site_type_symbol
_atom_site_fract_x
_atom_site_fract_y
_atom_site_fract_z
_atom_type_partial_charge
Co0 Co 0.50398 0.13284 0.07383 0.0
Co1 Co 0.55756 0.1395 0.03428 0.0
O2 O 0.53123 0.1464 0.0326 0.0
C3 C 0.52699 0.18532 0.08546 0.0
O4 O 0.54766 0.18609 0.08198 0.0
C5 C 0.53942 0.12377 0.94277 0.0
O6 O 0.51765 0.11036 0.95855 0.0
O7 O 0.53454 0.1043 0.03914 0.0
O8 O 0.50019 0.10031 0.0665 0.0
H9 H 0.60235 0.10007 0.09316 0.0
H10 H 0.50439 0.16208 -0.00257 0.0
O11 O 0.50741 0.16538 0.08259 0.0
H12 H 0.43283 0.08238 0.97597 0.0
H13 H 0.42764 0.12334 0.13876 0.0
H14 H 0.48775 0.09738 0.14721 0.0
H15 H 0.45894 0.09051 0.04125 0.0
H16 H 0.46207 0.13993 0.08723 0.0
O17 O 0.55677 0.13675 0.96851 0.0
H18 H 0.56959 0.10941 0.09108 0.0
H19 H 0.60138 0.15457 0.9791 0.0
H20 H 0.45351 0.08017 0.19913 0.0
H21 H 0.47865 0.15479 0.93184 0.0
H22 H 0.42316 0.09316 0.1951 0.0
H23 H 0.4426 0.11468 0.92077 0.0
O24 O 0.5251 0.13883 0.12615 0.0
H25 H 0.58817 0.22184 0.97028 0.0
H26 H 0.60267 0.17414 0.08114 0.0
H27 H 0.63043 0.21779 0.07662 0.0
H28 H 0.62325 0.24194 0.02084 0.0
H29 H 0.56072 0.17819 0.97636 0.0
H30 H 0.63434 0.14553 0.9797 0.0
H31 H 0.63502 0.11818 0.03716 0.0
O32 O 0.55944 0.14249 0.09986 0.0
C33 C 0.51294 0.09154 0.0527 0.0
C34 C 0.6023 0.11207 0.06805 0.0
C35 C 0.62023 0.13756 0.00433 0.0
N36 N 0.58367 0.13266 0.03526 0.0
C37 C 0.58384 0.11748 0.0668 0.0
C38 C 0.60149 0.14256 0.0041 0.0
C39 C 0.62061 0.12222 0.03659 0.0
C40 C 0.48862 0.14465 0.993 0.0
N41 N 0.48308 0.1268 0.02325 0.0
C42 C 0.47416 0.1406 0.95573 0.0
C43 C 0.45396 0.11808 0.94951 0.0
C44 C 0.44847 0.09994 0.98046 0.0
C45 C 0.46334 0.10464 0.01731 0.0
C46 C 0.44072 0.1175 0.1408 0.0
C47 C 0.47453 0.103 0.14508 0.0
C48 C 0.46027 0.12687 0.11178 0.0
N49 N 0.47679 0.11949 0.11404 0.0
C50 C 0.45522 0.09325 0.17464 0.0
C51 C 0.43821 0.10057 0.17239 0.0
C52 C 0.54613 0.14206 0.13147 0.0
C53 C 0.59149 0.21152 -0.00527 0.0
C54 C 0.59932 0.18457 0.0571 0.0
C55 C 0.61516 0.20925 0.0545 0.0
C56 C 0.61114 0.22279 0.02315 0.0
N57 N 0.58 0.17366 0.02929 0.0
C58 C 0.57605 0.18678 -0.00177 0.0
Co59 Co 0.36917 0.50333 0.23938 0.0
Co60 Co 0.41815 0.55283 0.19472 0.0
O61 O 0.38364 0.53024 0.19759 0.0
C62 C 0.34263 0.5292 0.25365 0.0
O63 O 0.36329 0.54921 0.25102 0.0
C64 C 0.40762 0.53785 0.10061 0.0
O65 O 0.39794 0.51536 0.1132 0.0
O66 O 0.42482 0.52599 0.18847 0.0
O67 O 0.39637 0.49691 0.23075 0.0
H68 H 0.50477 0.58365 0.23214 0.0
H69 H 0.34045 0.50518 0.16426 0.0
O70 O 0.34157 0.50901 0.24937 0.0
H71 H 0.34208 0.43002 0.1439 0.0
H72 H 0.30043 0.42988 0.30867 0.0
H73 H 0.38765 0.48616 0.31238 0.0
H74 H 0.36239 0.45638 0.20788 0.0
H75 H 0.31922 0.46361 0.25572 0.0
O76 O 0.41596 0.55465 0.12911 0.0
H77 H 0.46118 0.55569 0.23663 0.0
H78 H 0.4486 0.5977 0.14338 0.0
H79 H 0.36965 0.45254 0.36565 0.0
H80 H 0.31972 0.47924 0.09996 0.0
H81 H 0.32573 0.42412 0.36399 0.0
H82 H 0.3205 0.44138 0.08944 0.0
O83 O 0.38623 0.52495 0.29013 0.0
H84 H 0.37581 0.5985 0.159 0.0
H85 H 0.43729 0.59609 0.253 0.0
H86 H 0.42846 0.62892 0.26268 0.0
H87 H 0.39756 0.63029 0.21542 0.0
H88 H 0.38497 0.56581 0.1508 0.0
H89 H 0.49207 0.62599 0.13757 0.0
H90 H 0.52048 0.61911 0.18232 0.0
O91 O 0.42147 0.55195 0.26019 0.0
C92 C 0.41577 0.50577 0.2082 0.0
C93 C 0.49257 0.58691 0.21263 0.0
C94 C 0.48544 0.61066 0.15951 0.0
N95 N 0.45234 0.57521 0.19073 0.0
C96 C 0.46786 0.57119 0.21516 0.0
C97 C 0.46085 0.59456 0.16291 0.0
C98 C 0.50137 0.60678 0.18463 0.0
C99 C 0.34069 0.48864 0.16007 0.0
N100 N 0.35248 0.48223 0.1899 0.0
C101 C 0.329 0.47406 0.12353 0.0
C102 C 0.32947 0.45284 0.11762 0.0
C103 C 0.34158 0.44645 0.14815 0.0
C104 C 0.35309 0.46148 0.18427 0.0
C105 C 0.3196 0.44211 0.30965 0.0
C106 C 0.36855 0.47377 0.31128 0.0
C107 C 0.33033 0.46127 0.27982 0.0
N108 N 0.35453 0.4767 0.28074 0.0
C109 C 0.35845 0.45481 0.3416 0.0
C110 C 0.3338 0.43889 0.34068 0.0
C111 C 0.40776 0.54216 0.29339 0.0
C112 C 0.38937 0.59814 0.1797 0.0
C113 C 0.42372 0.59648 0.23245 0.0
C114 C 0.41886 0.61517 0.23799 0.0
C115 C 0.40154 0.61594 0.21142 0.0
N116 N 0.41168 0.57905 0.2013 0.0
C117 C 0.39472 0.57974 0.17505 0.0
Co118 Co 0.87322 0.36884 0.40676 0.0
Co119 Co 0.86689 0.41679 0.37218 0.0
O120 O 0.8597 0.38349 0.36764 0.0
C121 C 0.82071 0.33932 0.41899 0.0
O122 O 0.81987 0.35921 0.41629 0.0
C123 C 0.8822 0.41563 0.2798 0.0
O124 O 0.89444 0.40566 0.29404 0.0
O125 O 0.90205 0.42866 0.3767 0.0
O126 O 0.90582 0.3975 0.39997 0.0
H127 H 0.90686 0.4996 0.43789 0.0
H128 H 0.8434 0.34151 0.32976 0.0
O129 O 0.84062 0.33972 0.41514 0.0
H130 H 0.92263 0.34942 0.30342 0.0
H131 H 0.88238 0.30047 0.46448 0.0
H132 H 0.90899 0.38648 0.47962 0.0
H133 H 0.91509 0.3663 0.37101 0.0
H134 H 0.86578 0.31946 0.41587 0.0
O135 O 0.86991 0.42036 0.30664 0.0
H136 H 0.89717 0.45747 0.4318 0.0
H137 H 0.85219 0.44708 0.32092 0.0
H138 H 0.92622 0.36829 0.52866 0.0
H139 H 0.85009 0.32419 0.26186 0.0
H140 H 0.91291 0.32497 0.52124 0.0
H141 H 0.88997 0.32815 0.24832 0.0
O142 O 0.86766 0.38315 0.46091 0.0
H143 H 0.78467 0.36714 0.30645 0.0
H144 H 0.83239 0.42646 0.4216 0.0
H145 H 0.78883 0.41103 0.41728 0.0
H146 H 0.76467 0.38115 0.35933 0.0
H147 H 0.82824 0.38284 0.31237 0.0
H148 H 0.8616 0.48915 0.32551 0.0
H149 H 0.88903 0.51569 0.38446 0.0
O150 O 0.86366 0.41412 0.43754 0.0
C151 C 0.91472 0.41937 0.38825 0.0
C152 C 0.89483 0.48819 0.41214 0.0
C153 C 0.86946 0.48234 0.34902 0.0
N154 N 0.87401 0.44979 0.37625 0.0
C155 C 0.88922 0.46431 0.40861 0.0
C156 C 0.86426 0.45855 0.34651 0.0
C157 C 0.88484 0.49722 0.38212 0.0
C158 C 0.86072 0.34311 0.32426 0.0
N159 N 0.87877 0.35475 0.35441 0.0
C160 C 0.86444 0.33335 0.28569 0.0
C161 C 0.88683 0.33561 0.27808 0.0
C162 C 0.90517 0.34755 0.30898 0.0
C163 C 0.9008 0.3571 0.34715 0.0
C164 C 0.88836 0.31937 0.46798 0.0
C165 C 0.90322 0.36766 0.47603 0.0
C166 C 0.87899 0.33021 0.44062 0.0
N167 N 0.88654 0.35409 0.44472 0.0
C168 C 0.91299 0.35744 0.50396 0.0
C169 C 0.90549 0.33313 0.49981 0.0
C170 C 0.86421 0.4007 0.4679 0.0
C171 C 0.795 0.38015 0.33185 0.0
C172 C 0.82196 0.41331 0.39658 0.0
C173 C 0.79732 0.40473 0.39413 0.0
C174 C 0.78379 0.38799 0.36157 0.0
N175 N 0.83281 0.40544 0.36747 0.0
C176 C 0.81968 0.38916 0.33526 0.0
Co177 Co 0.50121 0.87056 0.56223 0.0
Co178 Co 0.44628 0.86613 0.54092 0.0
O179 O 0.47072 0.85723 0.53022 0.0
C180 C 0.47744 0.81883 0.5824 0.0
O181 O 0.45835 0.8203 0.59213 0.0
C182 C 0.45789 0.87818 0.44652 0.0
O183 O 0.48069 0.88886 0.4573 0.0
O184 O 0.47083 0.90097 0.54047 0.0
O185 O 0.50626 0.90371 0.55663 0.0
H186 H 0.41099 0.91087 0.61685 0.0
H187 H 0.49224 0.83875 0.48472 0.0
O188 O 0.49646 0.83734 0.56877 0.0
H189 H 0.56326 0.91595 0.44464 0.0
H190 H 0.58041 0.87695 0.59929 0.0
H191 H 0.5254 0.90738 0.63226 0.0
H192 H 0.5438 0.9106 0.51765 0.0
H193 H 0.54187 0.86092 0.5596 0.0
O194 O 0.44181 0.8676 0.47594 0.0
H195 H 0.44154 0.89919 0.60313 0.0
H196 H 0.39882 0.85211 0.50008 0.0
H197 H 0.56384 0.92408 0.67243 0.0
H198 H 0.51127 0.84325 0.41148 0.0
H199 H 0.59165 0.90884 0.65602 0.0
H200 H 0.547 0.8821 0.39101 0.0
O201 O 0.48534 0.86704 0.62084 0.0
H202 H 0.40633 0.78173 0.48275 0.0
H203 H 0.40541 0.83454 0.60042 0.0
H204 H 0.3758 0.79128 0.60247 0.0
H205 H 0.37612 0.76456 0.54328 0.0
H206 H 0.43579 0.82507 0.48229 0.0
H207 H 0.36793 0.86347 0.51235 0.0
H208 H 0.37387 0.89297 0.57124 0.0
O209 O 0.44999 0.86469 0.60578 0.0
C210 C 0.49335 0.91311 0.54784 0.0
C211 C 0.40816 0.89795 0.59117 0.0
C212 C 0.38401 0.87137 0.53248 0.0
N213 N 0.42188 0.87487 0.55107 0.0
C214 C 0.42536 0.89122 0.58334 0.0
C215 C 0.40159 0.86506 0.5256 0.0
C216 C 0.38735 0.88792 0.56554 0.0
C217 C 0.50792 0.85563 0.47619 0.0
N218 N 0.51698 0.87434 0.50549 0.0
C219 C 0.51856 0.85811 0.43462 0.0
C220 C 0.53859 0.87992 0.42313 0.0
C221 C 0.54771 0.89892 0.4532 0.0
C222 C 0.53659 0.8958 0.49445 0.0
C223 C 0.56847 0.88378 0.60665 0.0
C224 C 0.53749 0.9008 0.6247 0.0
C225 C 0.54662 0.87474 0.58435 0.0
N226 N 0.53153 0.88339 0.59331 0.0
C227 C 0.55919 0.91026 0.64766 0.0
C228 C 0.57477 0.90168 0.63847 0.0
C229 C 0.46545 0.86512 0.63255 0.0
C230 C 0.40599 0.79319 0.5087 0.0
C231 C 0.40573 0.82301 0.57467 0.0
C232 C 0.38888 0.79854 0.57593 0.0
C233 C 0.38906 0.78356 0.54269 0.0
N234 N 0.42231 0.8323 0.54127 0.0
C235 C 0.42257 0.81775 0.50852 0.0
Co236 Co 0.63687 0.50084 0.73642 0.0
Co237 Co 0.58364 0.44996 0.71071 0.0
O238 O 0.61827 0.47063 0.70442 0.0
C239 C 0.66162 0.47437 0.76161 0.0
O240 O 0.64063 0.45675 0.77425 0.0
C241 C 0.58898 0.45748 0.61397 0.0
O242 O 0.60179 0.48061 0.62187 0.0
O243 O 0.57837 0.47734 0.69898 0.0
O244 O 0.61076 0.50894 0.72889 0.0
H245 H 0.50131 0.42778 0.76522 0.0
H246 H 0.65888 0.48955 0.66054 0.0
O247 O 0.6634 0.49335 0.74468 0.0
H248 H 0.66077 0.56459 0.61912 0.0
H249 H 0.71283 0.57664 0.77688 0.0
H250 H 0.62599 0.527 0.80518 0.0
H251 H 0.64417 0.54529 0.69135 0.0
H252 H 0.68852 0.53866 0.73636 0.0
O253 O 0.58095 0.44262 0.64599 0.0
H254 H 0.54516 0.45357 0.75805 0.0
H255 H 0.54809 0.40214 0.67395 0.0
H256 H 0.64956 0.56496 0.84612 0.0
H257 H 0.67584 0.50837 0.58811 0.0
H258 H 0.69331 0.59006 0.83206 0.0
H259 H 0.6768 0.54613 0.56697 0.0
O260 O 0.62263 0.48502 0.79414 0.0
H261 H 0.62009 0.39804 0.68305 0.0
H262 H 0.56648 0.41181 0.78022 0.0
H263 H 0.57405 0.3787 0.79714 0.0
H264 H 0.601 0.37162 0.74832 0.0
H265 H 0.61221 0.4311 0.66758 0.0
H266 H 0.50424 0.37589 0.67986 0.0
H267 H 0.48057 0.38862 0.72592 0.0
O268 O 0.58525 0.45664 0.77538 0.0
C269 C 0.58983 0.49915 0.71168 0.0
C270 C 0.51144 0.42198 0.7452 0.0
C271 C 0.51308 0.39287 0.69725 0.0
N272 N 0.5492 0.42925 0.71601 0.0
C273 C 0.53628 0.43647 0.74115 0.0
C274 C 0.5379 0.40783 0.69397 0.0
C275 C 0.49981 0.40003 0.7231 0.0
C276 C 0.65942 0.50609 0.65171 0.0
N277 N 0.65066 0.51637 0.68021 0.0
C278 C 0.66897 0.51662 0.6106 0.0
C279 C 0.66947 0.53779 0.59873 0.0
C280 C 0.66047 0.54815 0.62797 0.0
C281 C 0.65104 0.5371 0.66878 0.0
C282 C 0.69377 0.56589 0.78322 0.0
C283 C 0.64499 0.53792 0.79865 0.0
C284 C 0.67992 0.54435 0.76044 0.0
N285 N 0.65582 0.53076 0.7681 0.0
C286 C 0.65825 0.55935 0.82204 0.0
C287 C 0.68281 0.57341 0.81417 0.0
C288 C 0.60126 0.46902 0.80398 0.0
C289 C 0.60826 0.4009 0.70449 0.0
C290 C 0.57827 0.40888 0.75886 0.0
C291 C 0.58245 0.39007 0.76857 0.0
C292 C 0.59756 0.3861 0.74115 0.0
N293 N 0.5888 0.42329 0.72279 0.0
C294 C 0.60365 0.41953 0.69579 0.0
Co295 Co 0.13529 0.63658 0.89962 0.0
Co296 Co 0.13677 0.58433 0.88314 0.0
O297 O 0.14868 0.61835 0.87227 0.0
C298 C 0.18629 0.66418 0.92568 0.0
O299 O 0.18377 0.64391 0.94075 0.0
C300 C 0.13364 0.58667 0.78631 0.0
O301 O 0.12299 0.59923 0.79327 0.0
O302 O 0.10329 0.57633 0.87087 0.0
O303 O 0.1017 0.60893 0.89268 0.0
H304 H 0.08126 0.50308 0.94816 0.0
H305 H 0.16914 0.65759 0.82415 0.0
O306 O 0.16867 0.66458 0.90722 0.0
H307 H 0.09414 0.65307 0.77362 0.0
H308 H 0.1305 0.71122 0.92648 0.0
H309 H 0.09706 0.62597 0.96565 0.0
H310 H 0.09713 0.63972 0.84896 0.0
H311 H 0.14649 0.6873 0.89213 0.0
O312 O 0.14113 0.5797 0.81899 0.0
H313 H 0.09657 0.54615 0.93488 0.0
H314 H 0.15171 0.5498 0.8521 0.0
H315 H 0.08036 0.64915 0.00047 0.0
H316 H 0.167 0.67135 0.74868 0.0
H317 H 0.09711 0.6921 0.98092 0.0
H318 H 0.12926 0.66905 0.72293 0.0
O319 O 0.13711 0.62481 0.95983 0.0
H320 H 0.22533 0.62475 0.85341 0.0
H321 H 0.16031 0.57221 0.95601 0.0
H322 H 0.20199 0.58318 0.97341 0.0
H323 H 0.23484 0.6096 0.92187 0.0
H324 H 0.1834 0.61351 0.83751 0.0
H325 H 0.13687 0.50671 0.86412 0.0
H326 H 0.10146 0.48309 0.91262 0.0
O327 O 0.13191 0.58805 0.94717 0.0
C328 C 0.09176 0.58719 0.87928 0.0
C329 C 0.09676 0.5132 0.92709 0.0
C330 C 0.12795 0.51524 0.87988 0.0
N331 N 0.12515 0.55052 0.89312 0.0
C332 C 0.10556 0.53761 0.91958 0.0
C333 C 0.13625 0.53961 0.87313 0.0
C334 C 0.10809 0.50199 0.9071 0.0
C335 C 0.15274 0.65676 0.81333 0.0
N336 N 0.13333 0.64798 0.84099 0.0
C337 C 0.1516 0.66448 0.7705 0.0
C338 C 0.13041 0.66316 0.75605 0.0
C339 C 0.11069 0.65418 0.78447 0.0
C340 C 0.11247 0.6466 0.82706 0.0
C341 C 0.12301 0.69251 0.93519 0.0
C342 C 0.10431 0.64461 0.95674 0.0
C343 C 0.13202 0.67889 0.91592 0.0
N344 N 0.12254 0.65521 0.92657 0.0
C345 C 0.09485 0.65766 0.97668 0.0
C346 C 0.10427 0.68176 0.96572 0.0
C347 C 0.1337 0.60452 0.97298 0.0
C348 C 0.21116 0.61316 0.87605 0.0
C349 C 0.17451 0.58375 0.93344 0.0
C350 C 0.19807 0.58986 0.94344 0.0
C351 C 0.21649 0.60468 0.9145 0.0
N352 N 0.16943 0.59212 0.89563 0.0
C353 C 0.18739 0.60666 0.86712 0.0
Co354 Co 0.86741 0.49846 0.83669 0.0
Co355 Co 0.86528 0.4459 0.86967 0.0
O356 O 0.85553 0.47006 0.87465 0.0
C357 C 0.81524 0.47278 0.8196 0.0
O358 O 0.81689 0.45352 0.81285 0.0
C359 C 0.87935 0.46223 0.96222 0.0
O360 O 0.89074 0.48449 0.94796 0.0
O361 O 0.89985 0.47116 0.86656 0.0
O362 O 0.90096 0.50476 0.84217 0.0
H363 H 0.91105 0.40894 0.80428 0.0
H364 H 0.83711 0.49317 0.91486 0.0
O365 O 0.83379 0.49251 0.83036 0.0
H366 H 0.9139 0.56755 0.94122 0.0
H367 H 0.8705 0.57395 0.78268 0.0
H368 H 0.9026 0.51925 0.76309 0.0
H369 H 0.90759 0.544 0.87287 0.0
H370 H 0.85636 0.53811 0.83013 0.0
O371 O 0.86771 0.445 0.93536 0.0
H372 H 0.89815 0.43902 0.81052 0.0
H373 H 0.85344 0.40134 0.92003 0.0
H374 H 0.9174 0.55497 0.71517 0.0
H375 H 0.84258 0.51629 0.98352 0.0
H376 H 0.90131 0.58262 0.72483 0.0
H377 H 0.88123 0.55374 -0.00292 0.0
O378 O 0.86315 0.47942 0.78177 0.0
H379 H 0.78163 0.40736 0.93129 0.0
H380 H 0.83389 0.40116 0.81874 0.0
H381 H 0.79094 0.37055 0.82094 0.0
H382 H 0.76449 0.37353 0.8776 0.0
H383 H 0.82465 0.43772 0.92751 0.0
H384 H 0.86604 0.37101 0.91527 0.0
H385 H 0.89497 0.37464 0.85693 0.0
O386 O 0.86277 0.44589 0.80417 0.0
C387 C 0.9112 0.49312 0.85444 0.0
C388 C 0.89838 0.40712 0.82975 0.0
C389 C 0.87314 0.38585 0.89208 0.0
N390 N 0.87492 0.42184 0.86536 0.0
C391 C 0.89095 0.42405 0.83335 0.0
C392 C 0.86612 0.40312 0.89469 0.0
C393 C 0.88937 0.38789 0.85933 0.0
C394 C 0.8539 0.50956 0.92038 0.0
N395 N 0.87195 0.5173 0.8898 0.0
C396 C 0.85693 0.52253 0.95938 0.0
C397 C 0.87863 0.54353 0.96699 0.0
C398 C 0.89697 0.55128 0.93567 0.0
C399 C 0.89331 0.53784 0.89707 0.0
C400 C 0.87769 0.56207 0.77822 0.0
C401 C 0.89564 0.53128 0.76768 0.0
C402 C 0.86972 0.54173 0.80493 0.0
N403 N 0.87881 0.52673 0.79961 0.0
C404 C 0.90403 0.55144 0.74037 0.0
C405 C 0.89498 0.56693 0.74577 0.0
C406 C 0.86197 0.45938 0.77419 0.0
C407 C 0.79296 0.40587 0.90643 0.0
C408 C 0.82245 0.40268 0.8432 0.0
C409 C 0.79817 0.38524 0.84445 0.0
C410 C 0.78335 0.38691 0.87627 0.0
N411 N 0.83172 0.42127 0.87278 0.0
C412 C 0.81733 0.42297 0.90419 0.0
Co413 Co 0.37104 0.87053 -0.00481 0.0
Co414 Co 0.41651 0.86278 0.03803 0.0
O415 O 0.38334 0.85571 0.03608 0.0
C416 C 0.34223 0.81894 0.97383 0.0
O417 O 0.36263 0.81915 0.97001 0.0
C418 C 0.40927 0.87483 0.12899 0.0
O419 O 0.40082 0.8879 0.11203 0.0
O420 O 0.42875 0.89804 0.03694 0.0
O421 O 0.39966 0.90287 0.00586 0.0
H422 H 0.50292 0.90425 0.99066 0.0
H423 H 0.34019 0.83951 0.06829 0.0
O424 O 0.34212 0.83812 0.98394 0.0
H425 H 0.34807 0.91876 0.0943 0.0
H426 H 0.3059 0.88165 0.92702 0.0
H427 H 0.3921 0.9077 0.92485 0.0
H428 H 0.36763 0.9121 0.02978 0.0
H429 H 0.32243 0.86379 0.97855 0.0
O430 O 0.41571 0.86319 0.10392 0.0
H431 H 0.4608 0.89484 0.98775 0.0
H432 H 0.44307 0.8459 0.09497 0.0
H433 H 0.37638 0.92618 0.87299 0.0
H434 H 0.32014 0.84533 0.13301 0.0
H435 H 0.33297 0.91315 0.87388 0.0
H436 H 0.32407 0.88521 0.1464 0.0
O437 O 0.38779 0.86601 0.94361 0.0
H438 H 0.36213 0.77813 0.08929 0.0
H439 H 0.4292 0.83007 0.99005 0.0
H440 H 0.41326 0.78636 0.98929 0.0
H441 H 0.37947 0.76007 0.03924 0.0
H442 H 0.37848 0.82192 0.08855 0.0
H443 H 0.48504 0.85496 0.09934 0.0
H444 H 0.51526 0.88425 0.04678 0.0
O445 O 0.41804 0.86238 0.97238 0.0
C446 C 0.42058 0.91121 0.02251 0.0
C447 C 0.48989 0.8914 0.01364 0.0
C448 C 0.47987 0.86376 0.07467 0.0
N449 N 0.44946 0.86969 0.04088 0.0
C450 C 0.46601 0.88594 0.01205 0.0
C451 C 0.45614 0.85874 0.07211 0.0
C452 C 0.49682 0.88018 0.04517 0.0
C453 C 0.3418 0.85686 0.07368 0.0
N454 N 0.35493 0.8754 0.04515 0.0
C455 C 0.33049 0.86007 0.11048 0.0
C456 C 0.33273 0.88246 0.118 0.0
C457 C 0.34619 0.9013 0.08879 0.0
C458 C 0.35727 0.89743 0.05237 0.0
C459 C 0.32485 0.88751 0.92637 0.0
C460 C 0.37323 0.90205 0.92562 0.0
C461 C 0.3343 0.87743 0.9554 0.0
N462 N 0.35823 0.88484 0.95492 0.0
C463 C 0.36441 0.91253 0.89609 0.0
C464 C 0.34005 0.90519 0.89657 0.0
C465 C 0.40623 0.86365 0.93967 0.0
C466 C 0.37684 0.78939 0.06734 0.0
C467 C 0.41438 0.81873 0.01153 0.0
C468 C 0.4055 0.794 0.01115 0.0
C469 C 0.38656 0.77927 0.03922 0.0
N470 N 0.4047 0.82852 0.03908 0.0
C471 C 0.38621 0.8142 0.06685 0.0
Co472 Co 0.50082 0.36612 0.16152 0.0
Co473 Co 0.55076 0.41398 0.20777 0.0
O474 O 0.52745 0.37967 0.20391 0.0
C475 C 0.52565 0.3386 0.14675 0.0
O476 O 0.54593 0.35895 0.15012 0.0
C477 C 0.5348 0.40324 0.30142 0.0
O478 O 0.51251 0.39423 0.28811 0.0
O479 O 0.52455 0.42163 0.21344 0.0
O480 O 0.4952 0.39379 0.17076 0.0
H481 H 0.58422 0.50127 0.17222 0.0
H482 H 0.50134 0.33628 0.23591 0.0
O483 O 0.50569 0.33806 0.15087 0.0
H484 H 0.42719 0.33989 0.25576 0.0
H485 H 0.42695 0.29912 0.08996 0.0
H486 H 0.4849 0.38599 0.08884 0.0
H487 H 0.45415 0.3603 0.19249 0.0
H488 H 0.46037 0.31675 0.14363 0.0
O489 O 0.55185 0.41124 0.27343 0.0
H490 H 0.55537 0.45793 0.16648 0.0
H491 H 0.59538 0.44306 0.26055 0.0
H492 H 0.45161 0.36916 0.03487 0.0
H493 H 0.47478 0.31544 0.29949 0.0
H494 H 0.42235 0.32542 0.03522 0.0
H495 H 0.43743 0.31721 0.30975 0.0
O496 O 0.52292 0.38326 0.11135 0.0
H497 H 0.59386 0.36913 0.24404 0.0
H498 H 0.59446 0.43243 0.15082 0.0
H499 H 0.62652 0.42243 0.14184 0.0
H500 H 0.62637 0.39061 0.18871 0.0
H501 H 0.56198 0.37949 0.25157 0.0
H502 H 0.62455 0.48627 0.26763 0.0
H503 H 0.61912 0.5157 0.2231 0.0
O504 O 0.55061 0.41785 0.1423 0.0
C505 C 0.50443 0.41312 0.19353 0.0
C506 C 0.58685 0.48862 0.19164 0.0
C507 C 0.60946 0.4802 0.24522 0.0
N508 N 0.57385 0.44796 0.21271 0.0
C509 C 0.57062 0.46404 0.1884 0.0
C510 C 0.59287 0.45576 0.24111 0.0
C511 C 0.6064 0.4967 0.22023 0.0
C512 C 0.48501 0.33696 0.23999 0.0
N513 N 0.47923 0.34936 0.21041 0.0
C514 C 0.47009 0.3252 0.27612 0.0
C515 C 0.44915 0.32623 0.28189 0.0
C516 C 0.4434 0.33896 0.25161 0.0
C517 C 0.45876 0.35052 0.2159 0.0
C518 C 0.43955 0.31821 0.08954 0.0
C519 C 0.47214 0.36696 0.08938 0.0
C520 C 0.45853 0.32828 0.11978 0.0
N521 N 0.47443 0.3524 0.11958 0.0
C522 C 0.45337 0.35752 0.05866 0.0
C523 C 0.43698 0.33298 0.05884 0.0
C524 C 0.54065 0.40455 0.10871 0.0
C525 C 0.59416 0.38309 0.22352 0.0
C526 C 0.59419 0.41847 0.1712 0.0
C527 C 0.61244 0.41295 0.16606 0.0
C528 C 0.61237 0.39511 0.19241 0.0
N529 N 0.57637 0.40658 0.20176 0.0
C530 C 0.57622 0.38911 0.22779 0.0
Co531 Co 0.13782 0.50798 0.32874 0.0
Co532 Co 0.14214 0.55788 0.37989 0.0
O533 O 0.15174 0.53366 0.37293 0.0
C534 C 0.19002 0.53204 0.31328 0.0
O535 O 0.19037 0.55244 0.31831 0.0
C536 C 0.13614 0.53865 0.47104 0.0
O537 O 0.12272 0.51697 0.45489 0.0
O538 O 0.1078 0.53258 0.38404 0.0
O539 O 0.10495 0.50317 0.33969 0.0
H540 H 0.09175 0.59588 0.35053 0.0
H541 H 0.16795 0.5059 0.40099 0.0
O542 O 0.17039 0.5122 0.3165 0.0
H543 H 0.08901 0.43278 0.41829 0.0
H544 H 0.12838 0.43482 0.24981 0.0
H545 H 0.10188 0.49455 0.25689 0.0
H546 H 0.09618 0.46131 0.35752 0.0
H547 H 0.1452 0.46706 0.30593 0.0
O548 O 0.14547 0.55678 0.44542 0.0
H549 H 0.10443 0.56582 0.34071 0.0
H550 H 0.1591 0.60109 0.43746 0.0
H551 H 0.08442 0.46248 0.20051 0.0
H552 H 0.16162 0.47773 0.46203 0.0
H553 H 0.09768 0.43233 0.19673 0.0
H554 H 0.1219 0.4409 0.47101 0.0
O555 O 0.14325 0.53129 0.28069 0.0
H556 H 0.22977 0.59651 0.41734 0.0
H557 H 0.1693 0.60297 0.32721 0.0
H558 H 0.21195 0.63392 0.32021 0.0
H559 H 0.24251 0.63081 0.36552 0.0
H560 H 0.18696 0.56581 0.42295 0.0
H561 H 0.14687 0.6314 0.44865 0.0
H562 H 0.11303 0.62897 0.40485 0.0
O563 O 0.13864 0.55979 0.31454 0.0
C564 C 0.09555 0.51275 0.36348 0.0
C565 C 0.10659 0.5972 0.36966 0.0
C566 C 0.13751 0.61712 0.42477 0.0
N567 N 0.13267 0.58187 0.38805 0.0
C568 C 0.11391 0.58028 0.36411 0.0
C569 C 0.14433 0.59989 0.41832 0.0
C570 C 0.11852 0.61575 0.40018 0.0
C571 C 0.15068 0.4898 0.40448 0.0
N572 N 0.13251 0.48518 0.3756 0.0
C573 C 0.14718 0.47396 0.43919 0.0
C574 C 0.12487 0.45331 0.44425 0.0
C575 C 0.10641 0.44875 0.41469 0.0
C576 C 0.11056 0.465 0.3804 0.0
C577 C 0.12241 0.44782 0.25119 0.0
C578 C 0.10761 0.48139 0.25564 0.0
C579 C 0.1319 0.46613 0.28284 0.0
N580 N 0.12435 0.48252 0.28491 0.0
C581 C 0.09772 0.46332 0.22356 0.0
C582 C 0.10519 0.44643 0.22143 0.0
C583 C 0.14106 0.54988 0.27988 0.0
C584 C 0.21661 0.5981 0.39752 0.0
C585 C 0.1825 0.60143 0.34691 0.0
C586 C 0.20661 0.61905 0.3429 0.0
C587 C 0.22375 0.61732 0.36838 0.0
N588 N 0.17563 0.58261 0.37554 0.0
C589 C 0.19233 0.58083 0.40072 0.0
Co590 Co 0.63696 0.13417 0.50173 0.0
Co591 Co 0.58926 0.14166 0.53321 0.0
O592 O 0.62226 0.14819 0.53953 0.0
C593 C 0.6671 0.18656 0.48904 0.0
O594 O 0.64732 0.18765 0.49077 0.0
C595 C 0.58897 0.12587 0.62561 0.0
O596 O 0.59976 0.1143 0.61193 0.0
O597 O 0.57685 0.10641 0.52895 0.0
O598 O 0.60789 0.10178 0.50821 0.0
H599 H 0.50744 0.10312 0.46359 0.0
H600 H 0.66384 0.16411 0.57893 0.0
O601 O 0.66643 0.16655 0.4936 0.0
H602 H 0.65428 0.08442 0.60814 0.0
H603 H 0.70516 0.12357 0.44825 0.0
H604 H 0.61966 0.09821 0.42918 0.0
H605 H 0.63835 0.09203 0.53934 0.0
H606 H 0.6861 0.14079 0.49514 0.0
O607 O 0.58461 0.13839 0.59863 0.0
H608 H 0.5492 0.11198 0.47198 0.0
H609 H 0.55901 0.15726 0.58204 0.0
H610 H 0.6379 0.08036 0.38186 0.0
H611 H 0.68023 0.15735 0.64802 0.0
H612 H 0.68097 0.09304 0.39126 0.0
H613 H 0.67543 0.11724 0.66301 0.0
O614 O 0.62342 0.13976 0.44659 0.0
H615 H 0.63909 0.22352 0.60024 0.0
H616 H 0.58146 0.17692 0.48199 0.0
H617 H 0.59767 0.22062 0.48623 0.0
H618 H 0.62671 0.24422 0.54572 0.0
H619 H 0.62262 0.17981 0.59442 0.0
H620 H 0.51729 0.14869 0.57518 0.0
H621 H 0.49123 0.12152 0.51547 0.0
O622 O 0.59289 0.14497 0.4679 0.0
C623 C 0.58593 0.09338 0.51876 0.0
C624 C 0.51863 0.11503 0.48967 0.0
C625 C 0.52415 0.14058 0.55234 0.0
N626 N 0.55656 0.13522 0.52729 0.0
C627 C 0.54231 0.12016 0.4945 0.0
C628 C 0.54774 0.1453 0.55615 0.0
C629 C 0.50954 0.12535 0.51882 0.0
C630 C 0.66188 0.14668 0.58507 0.0
N631 N 0.6503 0.12854 0.55505 0.0
C632 C 0.67111 0.14293 0.6243 0.0
C633 C 0.66839 0.12041 0.63272 0.0
C634 C 0.65651 0.10198 0.60196 0.0
C635 C 0.64749 0.10639 0.5631 0.0
C636 C 0.68636 0.11786 0.44391 0.0
C637 C 0.63836 0.10369 0.43367 0.0
C638 C 0.67549 0.12758 0.47029 0.0
N639 N 0.65174 0.12035 0.46513 0.0
C640 C 0.64861 0.09358 0.40668 0.0
C641 C 0.67278 0.10072 0.41194 0.0
C642 C 0.60637 0.14381 0.43838 0.0
C643 C 0.62645 0.21343 0.57419 0.0
C644 C 0.59421 0.1871 0.50775 0.0
C645 C 0.60325 0.21182 0.51012 0.0
C646 C 0.61952 0.22504 0.54355 0.0
N647 N 0.60117 0.17585 0.5378 0.0
C648 C 0.617 0.18867 0.57083 0.0
Co649 Co 0.50489 0.6394 0.66404 0.0
Co650 Co 0.45328 0.58724 0.69185 0.0
O651 O 0.47481 0.6218 0.69692 0.0
C652 C 0.47946 0.66514 0.63846 0.0
O653 O 0.46138 0.64426 0.62668 0.0
C654 C 0.46157 0.59316 0.78833 0.0
O655 O 0.48467 0.60534 0.77985 0.0
O656 O 0.48009 0.58106 0.70334 0.0
O657 O 0.51204 0.61267 0.67228 0.0
H658 H 0.42834 0.50378 0.64004 0.0
H659 H 0.49504 0.66286 0.73935 0.0
O660 O 0.49833 0.66651 0.65505 0.0
H661 H 0.56915 0.66272 0.77998 0.0
H662 H 0.5816 0.71367 0.62055 0.0
H663 H 0.52976 0.6268 0.59537 0.0
H664 H 0.54913 0.64579 0.70845 0.0
H665 H 0.54375 0.69062 0.66216 0.0
O666 O 0.44647 0.58533 0.7567 0.0
H667 H 0.45519 0.54754 0.64562 0.0
H668 H 0.40536 0.55307 0.73015 0.0
H669 H 0.56756 0.6491 0.55337 0.0
H670 H 0.5146 0.68019 0.81107 0.0
H671 H 0.59376 0.69287 0.56585 0.0
H672 H 0.5519 0.68012 0.83182 0.0
O673 O 0.48847 0.62487 0.6069 0.0
H674 H 0.4037 0.62629 0.71929 0.0
H675 H 0.41469 0.57045 0.62335 0.0
H676 H 0.38227 0.57908 0.60672 0.0
H677 H 0.37659 0.60716 0.65493 0.0
H678 H 0.43605 0.61732 0.73448 0.0
H679 H 0.37806 0.50933 0.72584 0.0
H680 H 0.38946 0.48439 0.68037 0.0
O681 O 0.4594 0.58805 0.6271 0.0
C682 C 0.50183 0.59186 0.69013 0.0
C683 C 0.42313 0.51446 0.65981 0.0
C684 C 0.39492 0.51757 0.70801 0.0
N685 N 0.43174 0.55288 0.68776 0.0
C686 C 0.43822 0.53926 0.66295 0.0
C687 C 0.41047 0.54233 0.71037 0.0
C688 C 0.40133 0.50359 0.68248 0.0
C689 C 0.51138 0.66296 0.748 0.0
N690 N 0.52099 0.65344 0.71967 0.0
C691 C 0.52232 0.67271 0.78871 0.0
C692 C 0.54323 0.67264 0.80036 0.0
C693 C 0.55292 0.66287 0.7713 0.0
C694 C 0.54147 0.65326 0.73089 0.0
C695 C 0.57036 0.6946 0.6149 0.0
C696 C 0.54116 0.64581 0.60122 0.0
C697 C 0.5489 0.68147 0.63829 0.0
N698 N 0.5347 0.65735 0.63149 0.0
C699 C 0.5625 0.65835 0.57723 0.0
C700 C 0.57718 0.68291 0.58422 0.0
C701 C 0.47195 0.60359 0.59789 0.0
C702 C 0.40595 0.61397 0.69813 0.0
C703 C 0.41237 0.58273 0.64443 0.0
C704 C 0.39395 0.58751 0.6349 0.0
C705 C 0.39076 0.60326 0.66197 0.0
N706 N 0.42717 0.59328 0.68 0.0
C707 C 0.42417 0.60875 0.70667 0.0
C708 C 0.58033 0.15938 0.18433 0.0
C709 C 0.55566 0.14485 0.17678 0.0
C710 C 0.59008 0.16092 0.22654 0.0
C711 C 0.5748 0.14717 0.26167 0.0
C712 C 0.5498 0.1327 0.25441 0.0
C713 C 0.54046 0.13195 0.21201 0.0
C714 C 0.61672 0.17705 0.23342 0.0
C715 C 0.53304 0.11755 0.29108 0.0
C716 C 0.6014 0.13131 0.35919 0.0
C717 C 0.60108 0.1465 0.39205 0.0
C718 C 0.59312 0.13152 0.31622 0.0
C719 C 0.58497 0.14772 0.306 0.0
C720 C 0.5858 0.16393 0.33858 0.0
C721 C 0.59362 0.16293 0.38145 0.0
C722 C 0.59216 0.11375 0.28236 0.0
C723 C 0.57789 0.18191 0.3285 0.0
H724 H 0.59204 0.16961 0.1572 0.0
H725 H 0.52141 0.12058 0.20604 0.0
H726 H 0.62004 0.1898 0.26094 0.0
H727 H 0.62497 0.16616 0.24308 0.0
H728 H 0.62589 0.18744 0.20308 0.0
H729 H 0.51408 0.10725 0.27987 0.0
H730 H 0.53846 0.10473 0.30353 0.0
H731 H 0.53419 0.12907 0.31945 0.0
H732 H 0.60701 0.11849 0.36765 0.0
H733 H 0.5937 0.17487 0.40687 0.0
H734 H 0.60212 0.12325 0.25196 0.0
H735 H 0.57326 0.10148 0.27247 0.0
H736 H 0.59981 0.10284 0.29528 0.0
H737 H 0.58731 0.19253 0.29858 0.0
H738 H 0.58139 0.19442 0.3566 0.0
H739 H 0.5584 0.17237 0.32114 0.0
C740 C 0.40285 0.54982 0.37299 0.0
C741 C 0.41778 0.55153 0.33767 0.0
C742 C 0.41256 0.55959 0.41466 0.0
C743 C 0.43768 0.57081 0.42113 0.0
C744 C 0.45278 0.57238 0.38566 0.0
C745 C 0.44265 0.56291 0.34423 0.0
C746 C 0.396 0.55793 0.45173 0.0
C747 C 0.47958 0.58368 0.39166 0.0
C748 C 0.46541 0.61217 0.52004 0.0
C749 C 0.46584 0.59632 0.55136 0.0
C750 C 0.45633 0.60415 0.47722 0.0
C751 C 0.44808 0.57993 0.46558 0.0
C752 C 0.44947 0.56419 0.49663 0.0
C753 C 0.45811 0.57254 0.53934 0.0
C754 C 0.45476 0.62128 0.44501 0.0
C755 C 0.44139 0.53841 0.48507 0.0
H756 H 0.38364 0.54123 0.36783 0.0
H757 H 0.45425 0.56412 0.31706 0.0
H758 H 0.39689 0.54701 0.47937 0.0
H759 H 0.40178 0.57607 0.46519 0.0
H760 H 0.37706 0.54973 0.44061 0.0
H761 H 0.48881 0.58375 0.36043 0.0
H762 H 0.48729 0.60243 0.40345 0.0
H763 H 0.48345 0.57375 0.4174 0.0
H764 H 0.47114 0.63049 0.52967 0.0
H765 H 0.4586 0.56035 0.56363 0.0
H766 H 0.43572 0.61459 0.43614 0.0
H767 H 0.46439 0.62228 0.41383 0.0
H768 H 0.46241 0.63965 0.45894 0.0
H769 H 0.42189 0.52863 0.47775 0.0
H770 H 0.44486 0.52893 0.51238 0.0
H771 H 0.45077 0.53762 0.45474 0.0
C772 C 0.87346 0.46651 0.69441 0.0
C773 C 0.85949 0.45088 0.72828 0.0
C774 C 0.87341 0.45773 0.65176 0.0
C775 C 0.85864 0.4329 0.64301 0.0
C776 C 0.84369 0.41729 0.67671 0.0
C777 C 0.84447 0.42647 0.71912 0.0
C778 C 0.88973 0.47482 0.61657 0.0
C779 C 0.82725 0.39084 0.66823 0.0
C780 C 0.84515 0.4147 0.52253 0.0
C781 C 0.8612 0.40653 0.51367 0.0
C782 C 0.84372 0.42282 0.56485 0.0
C783 C 0.85906 0.42316 0.59875 0.0
C784 C 0.87494 0.41439 0.59027 0.0
C785 C 0.87563 0.40589 0.54774 0.0
C786 C 0.82609 0.43141 0.57305 0.0
C787 C 0.89171 0.41473 0.62568 0.0
H788 H 0.88517 0.48536 0.70178 0.0
H789 H 0.8334 0.4145 0.74529 0.0
H790 H 0.90279 0.46937 0.60574 0.0
H791 H 0.87916 0.47409 0.58692 0.0
H792 H 0.8998 0.49365 0.6286 0.0
H793 H 0.81582 0.38144 0.69745 0.0
H794 H 0.81546 0.38822 0.63939 0.0
H795 H 0.838 0.38227 0.65986 0.0
H796 H 0.83375 0.41483 0.49622 0.0
H797 H 0.88816 0.39971 0.54064 0.0
H798 H 0.8359 0.45077 0.58157 0.0
H799 H 0.8144 0.42171 0.60174 0.0
H800 H 0.81458 0.42876 0.54368 0.0
H801 H 0.90387 0.43345 0.63668 0.0
H802 H 0.90277 0.40703 0.61377 0.0
H803 H 0.88135 0.40443 0.65518 0.0
C804 C 0.43654 0.84415 0.69279 0.0
C805 C 0.45915 0.86257 0.67959 0.0
C806 C 0.42833 0.84328 0.73607 0.0
C807 C 0.44298 0.86159 0.76634 0.0
C808 C 0.46625 0.87979 0.75357 0.0
C809 C 0.47421 0.87992 0.71014 0.0
C810 C 0.40367 0.82325 0.74886 0.0
C811 C 0.48221 0.89971 0.78501 0.0
C812 C 0.41041 0.87345 0.85881 0.0
C813 C 0.41473 0.86241 0.89489 0.0
C814 C 0.41988 0.87367 0.81678 0.0
C815 C 0.43349 0.86212 0.81077 0.0
C816 C 0.43749 0.85054 0.84686 0.0
C817 C 0.42824 0.85103 0.8886 0.0
C818 C 0.41553 0.88642 0.77893 0.0
C819 C 0.45143 0.83756 0.84134 0.0
H820 H 0.42511 0.83065 0.66889 0.0
H821 H 0.4916 0.89425 0.69939 0.0
H822 H 0.40465 0.81442 0.77982 0.0
H823 H 0.39173 0.8307 0.75558 0.0
H824 H 0.39539 0.80946 0.72239 0.0
H825 H 0.50023 0.91177 0.77063 0.0
H826 H 0.4737 0.91055 0.79326 0.0
H827 H 0.48444 0.89217 0.81659 0.0
H828 H 0.40015 0.88244 0.86367 0.0
H829 H 0.43149 0.84233 0.9163 0.0
H830 H 0.40549 0.8735 0.75199 0.0
H831 H 0.4329 0.90029 0.76474 0.0
H832 H 0.40522 0.89517 0.78953 0.0
H833 H 0.44271 0.82327 0.8159 0.0
H834 H 0.45272 0.82927 0.87283 0.0
H835 H 0.46983 0.85019 0.8294 0.0
C836 C 0.56262 0.43977 0.05886 0.0
C837 C 0.55035 0.4148 0.06466 0.0
C838 C 0.5721 0.45006 0.0175 0.0
C839 C 0.56964 0.43502 0.98132 0.0
C840 C 0.55761 0.4098 0.98706 0.0
C841 C 0.54784 0.39994 0.02867 0.0
C842 C 0.58429 0.47698 0.01232 0.0
C843 C 0.55499 0.39327 0.94921 0.0
C844 C 0.57103 0.45639 0.8639 0.0
C845 C 0.59446 0.46322 0.85078 0.0
C846 C 0.56297 0.44784 0.9068 0.0
C847 C 0.5786 0.4456 0.93688 0.0
C848 C 0.6025 0.45301 0.92416 0.0
C849 C 0.61027 0.46204 0.88119 0.0
C850 C 0.53755 0.44068 0.91955 0.0
C851 C 0.6195 0.4505 0.95527 0.0
H852 H 0.56446 0.45133 0.08654 0.0
H853 H 0.53856 0.38065 0.03321 0.0
H854 H 0.60281 0.48413 -0.00035 0.0
H855 H 0.57448 0.4816 0.98755 0.0
H856 H 0.58513 0.48616 0.04409 0.0
H857 H 0.54635 0.37421 0.95984 0.0
H858 H 0.54404 0.39479 0.92235 0.0
H859 H 0.57285 0.39859 0.93491 0.0
H860 H 0.55888 0.45745 0.8403 0.0
H861 H 0.6283 0.46706 0.87069 0.0
H862 H 0.53749 0.45002 0.95048 0.0
H863 H 0.52716 0.42113 0.9263 0.0
H864 H 0.52823 0.44492 0.89308 0.0
H865 H 0.62108 0.45998 0.98694 0.0
H866 H 0.63769 0.45775 0.9407 0.0
H867 H 0.6123 0.43129 0.96342 0.0
C868 C 0.12898 0.5736 0.23197 0.0
C869 C 0.14077 0.56036 0.23653 0.0
C870 C 0.12759 0.58284 0.19067 0.0
C871 C 0.13871 0.57918 0.15335 0.0
C872 C 0.15133 0.56653 0.15805 0.0
C873 C 0.15197 0.557 0.19956 0.0
C874 C 0.11351 0.59574 0.18666 0.0
C875 C 0.16379 0.56269 0.11904 0.0
C876 C 0.11602 0.57715 0.03693 0.0
C877 C 0.13293 0.59976 0.02069 0.0
C878 C 0.117 0.5707 0.08089 0.0
C879 C 0.1358 0.58707 0.10873 0.0
C880 C 0.15249 0.61028 0.09288 0.0
C881 C 0.15066 0.61649 0.04894 0.0
C882 C 0.09851 0.54602 0.09695 0.0
C883 C 0.17302 0.62799 0.12141 0.0
H884 H 0.1202 0.57614 0.26045 0.0
H885 H 0.16131 0.54701 0.20312 0.0
H886 H 0.12467 0.6136 0.17115 0.0
H887 H 0.09779 0.58537 0.16469 0.0
H888 H 0.107 0.59818 0.21935 0.0
H889 H 0.17446 0.55423 0.12906 0.0
H890 H 0.1503 0.55098 0.09412 0.0
H891 H 0.17588 0.58005 0.10253 0.0
H892 H 0.10229 0.56431 0.01484 0.0
H893 H 0.16389 0.63386 0.03594 0.0
H894 H 0.09062 0.54732 0.12888 0.0
H895 H 0.10717 0.53512 0.10304 0.0
H896 H 0.0838 0.53641 0.07252 0.0
H897 H 0.1663 0.63025 0.15394 0.0
H898 H 0.18337 0.64584 0.10526 0.0
H899 H 0.18536 0.62102 0.12817 0.0
C900 C 0.54258 0.31166 0.15851 0.0
C901 C 0.52588 0.31623 0.13755 0.0
C902 C 0.54259 0.29013 0.15077 0.0
C903 C 0.52617 0.27333 0.11987 0.0
C904 C 0.50964 0.27822 0.09785 0.0
C905 C 0.50935 0.29939 0.10771 0.0
C906 C 0.55987 0.28521 0.1762 0.0
C907 C 0.49248 0.26125 0.06343 0.0
C908 C 0.54246 0.22876 0.0713 0.0
C909 C 0.52647 0.20762 0.09361 0.0
C910 C 0.54217 0.25016 0.07872 0.0
C911 C 0.52623 0.2506 0.11068 0.0
C912 C 0.51034 0.22931 0.13387 0.0
C913 C 0.5103 0.20793 0.12432 0.0
C914 C 0.55871 0.27218 0.05201 0.0
C915 C 0.49372 0.22921 0.16936 0.0
H916 H 0.55524 0.32465 0.18186 0.0
H917 H 0.49656 0.30309 0.09124 0.0
H918 H 0.54985 0.26794 0.19435 0.0
H919 H 0.57224 0.28345 0.15289 0.0
H920 H 0.57072 0.29962 0.20047 0.0
H921 H 0.48163 0.26829 0.0477 0.0
H922 H 0.5026 0.25801 0.0371 0.0
H923 H 0.48011 0.24367 0.07887 0.0
H924 H 0.55486 0.22841 0.04732 0.0
H925 H 0.4981 0.19158 0.14185 0.0
H926 H 0.57151 0.2866 0.07438 0.0
H927 H 0.54816 0.2791 0.03475 0.0
H928 H 0.56909 0.26851 0.02685 0.0
H929 H 0.50423 0.2428 0.19511 0.0
H930 H 0.48325 0.21142 0.18567 0.0
H931 H 0.48099 0.23418 0.15478 0.0
C932 C 0.30329 0.51365 0.29179 0.0
C933 C 0.32051 0.53 0.26224 0.0
C934 C 0.28231 0.51443 0.30102 0.0
C935 C 0.27802 0.53129 0.27862 0.0
C936 C 0.29523 0.54753 0.24802 0.0
C937 C 0.31655 0.54703 0.24093 0.0
C938 C 0.2649 0.49742 0.33512 0.0
C939 C 0.29092 0.56513 0.22218 0.0
C940 C 0.21286 0.51601 0.27313 0.0
C941 C 0.2125 0.53204 0.30412 0.0
C942 C 0.23423 0.51605 0.26358 0.0
C943 C 0.25546 0.53178 0.28705 0.0
C944 C 0.25501 0.54771 0.31901 0.0
C945 C 0.23362 0.54801 0.32645 0.0
C946 C 0.23414 0.49944 0.22808 0.0
C947 C 0.27698 0.56409 0.34598 0.0
H948 H 0.30651 0.50061 0.30852 0.0
H949 H 0.32985 0.55954 0.2178 0.0
H950 H 0.26161 0.50768 0.36109 0.0
H951 H 0.24741 0.48523 0.31922 0.0
H952 H 0.27155 0.48637 0.35138 0.0
H953 H 0.30566 0.57589 0.1984 0.0
H954 H 0.27384 0.55536 0.20343 0.0
H955 H 0.28913 0.57756 0.24526 0.0
H956 H 0.19651 0.5038 0.25564 0.0
H957 H 0.23323 0.56027 0.35069 0.0
H958 H 0.23844 0.48628 0.24294 0.0
H959 H 0.24818 0.50985 0.20295 0.0
H960 H 0.21653 0.48945 0.211 0.0
H961 H 0.28339 0.55333 0.36402 0.0
H962 H 0.27342 0.57483 0.37051 0.0
H963 H 0.2917 0.57655 0.32375 0.0
C964 C 0.69557 0.23016 0.50048 0.0
C965 C 0.6901 0.20852 0.47986 0.0
C966 C 0.71727 0.2513 0.49153 0.0
C967 C 0.73331 0.25095 0.45967 0.0
C968 C 0.72761 0.22912 0.43829 0.0
C969 C 0.70628 0.20804 0.44939 0.0
C970 C 0.72309 0.27395 0.51636 0.0
C971 C 0.74372 0.22815 0.40289 0.0
C972 C 0.77705 0.31112 0.40743 0.0
C973 C 0.79859 0.31649 0.42832 0.0
C974 C 0.7558 0.28951 0.41637 0.0
C975 C 0.75594 0.27346 0.44846 0.0
C976 C 0.77767 0.27907 0.47013 0.0
C977 C 0.79886 0.30029 0.45905 0.0
C978 C 0.73326 0.28379 0.39125 0.0
C979 C 0.77842 0.26295 0.50576 0.0
H980 H 0.68304 0.23043 0.52423 0.0
H981 H 0.70185 0.19129 0.43312 0.0
H982 H 0.74088 0.28144 0.53262 0.0
H983 H 0.72415 0.2877 0.49284 0.0
H984 H 0.70947 0.27083 0.54212 0.0
H985 H 0.73632 0.20991 0.38847 0.0
H986 H 0.74626 0.24089 0.37577 0.0
H987 H 0.76168 0.23375 0.41691 0.0
H988 H 0.77694 0.32364 0.38345 0.0
H989 H 0.81553 0.30463 0.47551 0.0
H990 H 0.71949 0.28286 0.41455 0.0
H991 H 0.72572 0.26596 0.37511 0.0
H992 H 0.73654 0.2974 0.36535 0.0
H993 H 0.76562 0.26053 0.53271 0.0
H994 H 0.7966 0.27027 0.52039 0.0
H995 H 0.77276 0.24494 0.49189 0.0
C996 C 0.46044 0.77858 0.61835 0.0
C997 C 0.47717 0.79593 0.5893 0.0
C998 C 0.46049 0.75716 0.62677 0.0
C999 C 0.47731 0.7527 0.6048 0.0
C1000 C 0.49394 0.76994 0.57472 0.0
C1001 C 0.49386 0.79148 0.56773 0.0
C1002 C 0.4428 0.73948 0.65978 0.0
C1003 C 0.51181 0.76562 0.5499 0.0
C1004 C 0.49328 0.70821 0.65486 0.0
C1005 C 0.47846 0.68732 0.63066 0.0
C1006 C 0.49285 0.72952 0.64718 0.0
C1007 C 0.47768 0.73011 0.61373 0.0
C1008 C 0.46281 0.7091 0.58899 0.0
C1009 C 0.46316 0.68788 0.59813 0.0
C1010 C 0.50857 0.75137 0.67499 0.0
C1011 C 0.44676 0.70912 0.55244 0.0
H1012 H 0.4476 0.78199 0.63538 0.0
H1013 H 0.50673 0.80477 0.54504 0.0
H1014 H 0.43133 0.72192 0.64346 0.0
H1015 H 0.45258 0.73646 0.68707 0.0
H1016 H 0.43106 0.74575 0.6744 0.0
H1017 H 0.52287 0.78037 0.52635 0.0
H1018 H 0.52394 0.76382 0.57376 0.0
H1019 H 0.50228 0.74855 0.53106 0.0
H1020 H 0.50505 0.70784 0.6802 0.0
H1021 H 0.45184 0.67183 0.57904 0.0
H1022 H 0.49741 0.75768 0.69188 0.0
H1023 H 0.52147 0.7662 0.65339 0.0
H1024 H 0.5188 0.74775 0.70054 0.0
H1025 H 0.43372 0.7139 0.56617 0.0
H1026 H 0.43668 0.69143 0.53564 0.0
H1027 H 0.45766 0.7229 0.52724 0.0
C1028 C 0.70421 0.48678 0.74389 0.0
C1029 C 0.68352 0.47284 0.76923 0.0
C1030 C 0.72536 0.48608 0.75171 0.0
C1031 C 0.726 0.47158 0.78647 0.0
C1032 C 0.70515 0.4575 0.81222 0.0
C1033 C 0.68406 0.45807 0.8029 0.0
C1034 C 0.74702 0.50092 0.72282 0.0
C1035 C 0.70526 0.44224 0.8502 0.0
C1036 C 0.77454 0.45434 0.78503 0.0
C1037 C 0.79208 0.47193 0.81258 0.0
C1038 C 0.75298 0.45405 0.77614 0.0
C1039 C 0.7486 0.47139 0.79618 0.0
C1040 C 0.76601 0.48882 0.82494 0.0
C1041 C 0.78767 0.48907 0.83234 0.0
C1042 C 0.73512 0.4355 0.74453 0.0
C1043 C 0.7618 0.50727 0.84777 0.0
H1044 H 0.70382 0.49813 0.71766 0.0
H1045 H 0.66817 0.44744 0.82286 0.0
H1046 H 0.76198 0.51446 0.74335 0.0
H1047 H 0.75323 0.48927 0.70759 0.0
H1048 H 0.74324 0.51037 0.6959 0.0
H1049 H 0.68761 0.43247 0.8672 0.0
H1050 H 0.71008 0.42896 0.83791 0.0
H1051 H 0.71906 0.45369 0.87491 0.0
H1052 H 0.77793 0.44116 0.76939 0.0
H1053 H 0.80112 0.5026 0.8539 0.0
H1054 H 0.73206 0.44455 0.71598 0.0
H1055 H 0.71761 0.42456 0.76139 0.0
H1056 H 0.74125 0.42331 0.73161 0.0
H1057 H 0.76001 0.51888 0.82265 0.0
H1058 H 0.7766 0.51882 0.87082 0.0
H1059 H 0.74476 0.49822 0.86682 0.0
C1060 C 0.22493 0.68882 0.96616 0.0
C1061 C 0.20932 0.68676 0.93177 0.0
C1062 C 0.24645 0.71041 0.97346 0.0
C1063 C 0.25283 0.73021 0.94495 0.0
C1064 C 0.23732 0.72808 0.90966 0.0
C1065 C 0.2156 0.70647 0.90387 0.0
C1066 C 0.26221 0.71211 0.01206 0.0
C1067 C 0.24374 0.74856 0.87789 0.0
C1068 C 0.29792 0.79308 0.98481 0.0
C1069 C 0.31934 0.79638 0.96627 0.0
C1070 C 0.27618 0.77155 0.97848 0.0
C1071 C 0.27576 0.75314 0.95204 0.0
C1072 C 0.2973 0.75655 0.9327 0.0
C1073 C 0.31887 0.778 0.94053 0.0
C1074 C 0.25372 0.7684 0.00054 0.0
C1075 C 0.29753 0.7376 0.9035 0.0
H1076 H 0.22005 0.6737 0.98809 0.0
H1077 H 0.20364 0.7049 0.87708 0.0
H1078 H 0.28009 0.71617 -0.00019 0.0
H1079 H 0.26502 0.72705 0.0343 0.0
H1080 H 0.25438 0.69529 0.03182 0.0
H1081 H 0.23009 0.74377 0.85137 0.0
H1082 H 0.24557 0.76433 0.89623 0.0
H1083 H 0.26133 0.75409 0.8621 0.0
H1084 H 0.29822 0.80717 0.00501 0.0
H1085 H 0.33536 0.78053 0.92586 0.0
H1086 H 0.24598 0.75236 0.02239 0.0
H1087 H 0.24003 0.76531 0.97506 0.0
H1088 H 0.25716 0.78424 0.02075 0.0
H1089 H 0.29152 0.72086 0.92276 0.0
H1090 H 0.31562 0.74338 0.88969 0.0
H1091 H 0.28478 0.73324 0.87554 0.0
C1092 C 0.58468 0.11012 0.70332 0.0
C1093 C 0.58048 0.12367 0.6719 0.0
C1094 C 0.57647 0.10814 0.74721 0.0
C1095 C 0.5638 0.11995 0.75968 0.0
C1096 C 0.55907 0.13318 0.72786 0.0
C1097 C 0.56751 0.13492 0.68446 0.0
C1098 C 0.58185 0.09392 0.78049 0.0
C1099 C 0.54569 0.1461 0.73991 0.0
C1100 C 0.52844 0.10461 0.86749 0.0
C1101 C 0.54479 0.12294 0.89537 0.0
C1102 C 0.53449 0.10308 0.82323 0.0
C1103 C 0.5573 0.12038 0.80675 0.0
C1104 C 0.57374 0.13902 0.83469 0.0
C1105 C 0.56728 0.14007 0.87859 0.0
C1106 C 0.51657 0.083 0.79415 0.0
C1107 C 0.59814 0.15797 0.81819 0.0
H1108 H 0.59455 0.10126 0.69378 0.0
H1109 H 0.564 0.14531 0.66041 0.0
H1110 H 0.59412 0.10612 0.80645 0.0
H1111 H 0.56513 0.08057 0.79739 0.0
H1112 H 0.59034 0.08439 0.7648 0.0
H1113 H 0.54206 0.15424 0.71051 0.0
H1114 H 0.52835 0.13355 0.75601 0.0
H1115 H 0.55633 0.16055 0.76418 0.0
H1116 H 0.51113 0.09124 0.88041 0.0
H1117 H 0.57999 0.15438 0.89988 0.0
H1118 H 0.52457 0.07249 0.78092 0.0
H1119 H 0.51188 0.09052 0.76521 0.0
H1120 H 0.49983 0.07066 0.81232 0.0
H1121 H 0.60818 0.14941 0.80526 0.0
H1122 H 0.60902 0.17092 0.8446 0.0
H1123 H 0.59606 0.16808 0.79033 0.0
C1124 C 0.46855 0.58903 0.86873 0.0
C1125 C 0.45275 0.58628 0.83428 0.0
C1126 C 0.45994 0.58057 0.91162 0.0
C1127 C 0.43499 0.56932 0.92018 0.0
C1128 C 0.41903 0.56699 0.88579 0.0
C1129 C 0.42809 0.57544 0.84321 0.0
C1130 C 0.47748 0.58334 0.94762 0.0
C1131 C 0.39237 0.5554 0.89388 0.0
C1132 C 0.41182 0.5288 0.02138 0.0
C1133 C 0.41157 0.54453 0.05321 0.0
C1134 C 0.41895 0.53647 0.9775 0.0
C1135 C 0.42568 0.56029 0.96537 0.0
C1136 C 0.42434 0.57583 -0.0031 0.0
C1137 C 0.41736 0.56778 0.04047 0.0
C1138 C 0.42019 0.51943 0.94461 0.0
C1139 C 0.43105 0.60125 0.98505 0.0
H1140 H 0.48759 0.59729 0.86199 0.0
H1141 H 0.41576 0.57335 0.81676 0.0
H1142 H 0.47627 0.59385 0.97568 0.0
H1143 H 0.47289 0.56545 0.96083 0.0
H1144 H 0.4963 0.59245 0.93548 0.0
H1145 H 0.38243 0.55531 0.86365 0.0
H1146 H 0.38515 0.53662 0.90515 0.0
H1147 H 0.38882 0.56503 0.9207 0.0
H1148 H 0.40745 0.51085 0.03116 0.0
H1149 H 0.41698 0.57996 0.0649 0.0
H1150 H 0.43908 0.52642 0.93423 0.0
H1151 H 0.4098 0.5181 0.91431 0.0
H1152 H 0.41318 0.50115 0.95864 0.0
H1153 H 0.45038 0.61169 0.97648 0.0
H1154 H 0.42754 0.6105 0.0127 0.0
H1155 H 0.42087 0.60135 0.95541 0.0
C1156 C 0.86625 0.43291 0.02435 0.0
C1157 C 0.88096 0.45645 0.00906 0.0
C1158 C 0.86795 0.4265 0.06799 0.0
C1159 C 0.88479 0.44405 0.09713 0.0
C1160 C 0.89983 0.46783 0.08198 0.0
C1161 C 0.89768 0.4738 0.03801 0.0
C1162 C 0.85139 0.40102 0.08311 0.0
C1163 C 0.918 0.48696 0.11232 0.0
C1164 C 0.86902 0.43241 0.21877 0.0
C1165 C 0.8832 0.42273 0.23285 0.0
C1166 C 0.86989 0.43997 0.17497 0.0
C1167 C 0.88526 0.43774 0.14429 0.0
C1168 C 0.89978 0.42816 0.15814 0.0
C1169 C 0.89856 0.4207 0.20241 0.0
C1170 C 0.854 0.44996 0.16139 0.0
C1171 C 0.91636 0.42555 0.12608 0.0
H1172 H 0.85323 0.41938 0.00221 0.0
H1173 H 0.90922 0.49196 0.02624 0.0
H1174 H 0.86196 0.39324 0.09705 0.0
H1175 H 0.83948 0.40084 0.10992 0.0
H1176 H 0.84003 0.38929 0.05568 0.0
H1177 H 0.92921 0.50424 0.09476 0.0
H1178 H 0.90866 0.49008 0.14028 0.0
H1179 H 0.92992 0.48094 0.1269 0.0
H1180 H 0.85705 0.43404 0.24198 0.0
H1181 H 0.90965 0.41337 0.21314 0.0
H1182 H 0.841 0.43822 0.13584 0.0
H1183 H 0.86494 0.46799 0.14633 0.0
H1184 H 0.84383 0.45144 0.18986 0.0
H1185 H 0.90572 0.41285 0.09922 0.0
H1186 H 0.92733 0.41888 0.14259 0.0
H1187 H 0.92856 0.44306 0.11016 0.0
C1188 C 0.4259 0.86726 0.38991 0.0
C1189 C 0.45041 0.87884 0.40048 0.0
C1190 C 0.41822 0.86751 0.34658 0.0
C1191 C 0.43547 0.87961 0.313 0.0
C1192 C 0.46022 0.89172 0.32348 0.0
C1193 C 0.46743 0.89116 0.36722 0.0
C1194 C 0.39167 0.85429 0.33653 0.0
C1195 C 0.47907 0.90481 0.2883 0.0
C1196 C 0.41837 0.85777 0.19508 0.0
C1197 C 0.41378 0.87515 0.17699 0.0
C1198 C 0.42522 0.85895 0.23945 0.0
C1199 C 0.4276 0.87802 0.26634 0.0
C1200 C 0.42242 0.89531 0.24869 0.0
C1201 C 0.41543 0.89361 0.20407 0.0
C1202 C 0.4303 0.84 0.25731 0.0
C1203 C 0.42482 0.91586 0.27663 0.0
H1204 H 0.41259 0.85776 0.41545 0.0
H1205 H 0.48638 0.90025 0.37525 0.0
H1206 H 0.38655 0.86639 0.31968 0.0
H1207 H 0.38732 0.83919 0.31354 0.0
H1208 H 0.38057 0.84699 0.36697 0.0
H1209 H 0.49747 0.91455 0.30241 0.0
H1210 H 0.47832 0.89182 0.26321 0.0
H1211 H 0.47552 0.91784 0.27068 0.0
H1212 H 0.41694 0.84335 0.17431 0.0
H1213 H 0.41204 0.90714 0.19007 0.0
H1214 H 0.41878 0.83105 0.2866 0.0
H1215 H 0.44922 0.84846 0.26853 0.0
H1216 H 0.42713 0.8261 0.23213 0.0
H1217 H 0.41353 0.9089 0.30686 0.0
H1218 H 0.41951 0.92744 0.25821 0.0
H1219 H 0.44367 0.92706 0.28782 0.0
C1220 C 0.58534 0.4642 0.53321 0.0
C1221 C 0.58191 0.44843 0.56819 0.0
C1222 C 0.57696 0.45549 0.49035 0.0
C1223 C 0.56509 0.43046 0.48234 0.0
C1224 C 0.56201 0.4145 0.5173 0.0
C1225 C 0.57039 0.42367 0.55985 0.0
C1226 C 0.58054 0.47303 0.45376 0.0
C1227 C 0.54974 0.38774 0.50983 0.0
C1228 C 0.52533 0.40789 0.38013 0.0
C1229 C 0.54104 0.40701 0.34901 0.0
C1230 C 0.53273 0.41499 0.42413 0.0
C1231 C 0.55625 0.42105 0.43712 0.0
C1232 C 0.57173 0.41903 0.40635 0.0
C1233 C 0.56396 0.4121 0.36264 0.0
C1234 C 0.51577 0.41698 0.45617 0.0
C1235 C 0.5968 0.42501 0.41912 0.0
H1236 H 0.59413 0.48333 0.53948 0.0
H1237 H 0.56776 0.41137 0.5867 0.0
H1238 H 0.59108 0.47133 0.42628 0.0
H1239 H 0.56291 0.46886 0.43984 0.0
H1240 H 0.58999 0.49191 0.46554 0.0
H1241 H 0.54902 0.3778 0.54049 0.0
H1242 H 0.53115 0.381 0.49787 0.0
H1243 H 0.55931 0.38364 0.4837 0.0
H1244 H 0.50766 0.40407 0.36968 0.0
H1245 H 0.57612 0.41124 0.33876 0.0
H1246 H 0.52318 0.436 0.46603 0.0
H1247 H 0.51392 0.40665 0.48686 0.0
H1248 H 0.49768 0.41035 0.4416 0.0
H1249 H 0.60769 0.44436 0.42731 0.0
H1250 H 0.60597 0.42093 0.39209 0.0
H1251 H 0.59631 0.41482 0.44922 0.0
C1252 C 0.15687 0.56482 0.53574 0.0
C1253 C 0.13842 0.54292 0.51935 0.0
C1254 C 0.15745 0.57105 0.58043 0.0
C1255 C 0.13902 0.55508 0.60928 0.0
C1256 C 0.12104 0.5324 0.59351 0.0
C1257 C 0.12103 0.5265 0.54861 0.0
C1258 C 0.17713 0.59526 0.59616 0.0
C1259 C 0.10108 0.51495 0.62342 0.0
C1260 C 0.1479 0.56664 0.73324 0.0
C1261 C 0.13558 0.57916 0.74087 0.0
C1262 C 0.14908 0.55855 0.69059 0.0
C1263 C 0.13757 0.56298 0.65488 0.0
C1264 C 0.12516 0.57564 0.66233 0.0
C1265 C 0.12439 0.58366 0.70524 0.0
C1266 C 0.16269 0.54533 0.68371 0.0
C1267 C 0.11265 0.58068 0.62495 0.0
H1268 H 0.17051 0.57746 0.51326 0.0
H1269 H 0.10672 0.50959 0.53599 0.0
H1270 H 0.16941 0.60682 0.60424 0.0
H1271 H 0.18548 0.5933 0.62692 0.0
H1272 H 0.19135 0.60453 0.5707 0.0
H1273 H 0.08978 0.49727 0.60721 0.0
H1274 H 0.10851 0.51218 0.65465 0.0
H1275 H 0.08946 0.52245 0.63263 0.0
H1276 H 0.15663 0.56311 0.76063 0.0
H1277 H 0.11478 0.59324 0.71092 0.0
H1278 H 0.17743 0.55518 0.65952 0.0
H1279 H 0.15063 0.52732 0.6695 0.0
H1280 H 0.17046 0.54315 0.71511 0.0
H1281 H 0.12586 0.59173 0.59906 0.0
H1282 H 0.10333 0.59028 0.63652 0.0
H1283 H 0.09929 0.56361 0.60905 0.0
C1284 C 0.51028 0.05411 0.02165 0.0
C1285 C 0.50147 0.06504 0.0505 0.0
C1286 C 0.49841 0.02903 0.01694 0.0
C1287 C 0.47749 0.01453 0.04224 0.0
C1288 C 0.46899 0.02543 0.07247 0.0
C1289 C 0.48095 0.05052 0.07594 0.0
C1290 C 0.50782 0.01811 0.98388 0.0
C1291 C 0.44697 0.01061 0.10056 0.0
C1292 C 0.4308 0.95281 0.0008 0.0
C1293 C 0.43587 0.93764 0.02634 0.0
C1294 C 0.44462 0.97784 0.00484 0.0
C1295 C 0.46376 0.98803 0.03571 0.0
C1296 C 0.46911 0.97286 0.06137 0.0
C1297 C 0.45523 0.94786 0.05612 0.0
C1298 C 0.43853 0.99339 0.97639 0.0
C1299 C 0.48913 0.98303 0.09513 0.0
H1300 H 0.52602 0.06519 0.00165 0.0
H1301 H 0.4741 0.05877 0.09854 0.0
H1302 H 0.51092 0.0045 0.0004 0.0
H1303 H 0.49427 0.00875 0.95745 0.0
H1304 H 0.52483 0.03176 0.9681 0.0
H1305 H 0.44361 0.02174 0.12448 0.0
H1306 H 0.43101 1.00097 0.07887 0.0
H1307 H 0.44892 0.99686 0.11938 0.0
H1308 H 0.416 0.94512 0.97749 0.0
H1309 H 0.4592 0.93629 0.07618 0.0
H1310 H 0.45461 0.00662 0.9577 0.0
H1311 H 0.43282 0.00365 -0.0022 0.0
H1312 H 0.42394 0.98272 0.95231 0.0
H1313 H 0.50629 0.996 0.079 0.0
H1314 H 0.49144 0.96886 0.11154 0.0
H1315 H 0.48535 0.99296 0.12102 0.0
C1316 C 0.47109 0.41999 0.16922 0.0
C1317 C 0.49121 0.4265 0.19625 0.0
C1318 C 0.4587 0.43276 0.1706 0.0
C1319 C 0.46641 0.4524 0.20005 0.0
C1320 C 0.48654 0.45896 0.22771 0.0
C1321 C 0.49877 0.44603 0.22533 0.0
C1322 C 0.43743 0.42532 0.1403 0.0
C1323 C 0.49516 0.47964 0.25989 0.0
C1324 C 0.44817 0.49919 0.17681 0.0
C1325 C 0.42857 0.49197 0.20558 0.0
C1326 C 0.46056 0.48642 0.17451 0.0
C1327 C 0.45336 0.46606 0.20194 0.0
C1328 C 0.43365 0.45869 0.23109 0.0
C1329 C 0.42143 0.47163 0.2324 0.0
C1330 C 0.48134 0.49469 0.14265 0.0
C1331 C 0.42553 0.43721 0.26114 0.0
H1332 H 0.46509 0.40501 0.1465 0.0
H1333 H 0.51422 0.45119 0.24646 0.0
H1334 H 0.42115 0.4205 0.16027 0.0
H1335 H 0.44058 0.44054 0.11854 0.0
H1336 H 0.43385 0.40977 0.11904 0.0
H1337 H 0.51092 0.48228 0.27949 0.0
H1338 H 0.50013 0.49645 0.24158 0.0
H1339 H 0.48052 0.47648 0.28321 0.0
H1340 H 0.45382 0.5148 0.15585 0.0
H1341 H 0.40638 0.4659 0.25489 0.0
H1342 H 0.4779 0.48003 0.11915 0.0
H1343 H 0.49794 0.49912 0.16119 0.0
H1344 H 0.48453 0.5107 0.12325 0.0
H1345 H 0.42037 0.42091 0.24099 0.0
H1346 H 0.41003 0.43396 0.28223 0.0
H1347 H 0.44051 0.43984 0.28307 0.0
C1348 C 0.0579 0.5063 0.40084 0.0
C1349 C 0.06901 0.50007 0.36742 0.0
C1350 C 0.03281 0.49408 0.40533 0.0
C1351 C 0.01844 0.4754 0.37533 0.0
C1352 C 0.02951 0.46928 0.34114 0.0
C1353 C 0.05463 0.48154 0.3378 0.0
C1354 C 0.0217 0.50091 0.44262 0.0
C1355 C 0.01483 0.44966 0.30815 0.0
C1356 C 0.95567 0.42698 0.40846 0.0
C1357 C 0.94126 0.43444 0.38661 0.0
C1358 C 0.98078 0.44044 0.4059 0.0
C1359 C 0.99184 0.46175 0.38035 0.0
C1360 C 0.97745 0.46956 0.35857 0.0
C1361 C 0.95234 0.4559 0.36221 0.0
C1362 C 0.99547 0.43166 0.43014 0.0
C1363 C 0.98857 0.49203 0.33056 0.0
H1364 H 0.06883 0.52051 0.42402 0.0
H1365 H 0.06298 0.47666 0.31169 0.0
H1366 H 0.00891 0.50606 0.42899 0.0
H1367 H 0.01136 0.48526 0.46477 0.0
H1368 H 0.03534 0.51604 0.46281 0.0
H1369 H 0.02614 0.4477 0.2825 0.0
H1370 H 0.00438 0.43228 0.32574 0.0
H1371 H 1.00177 0.45347 0.29131 0.0
H1372 H 0.94733 0.41051 0.42762 0.0
H1373 H 0.94138 0.46177 0.34502 0.0
H1374 H 0.00864 0.44594 0.45234 0.0
H1375 H 0.00578 0.42741 0.40589 0.0
H1376 H 0.98417 0.41538 0.45036 0.0
H1377 H 1.00153 0.50761 0.35062 0.0
H1378 H 0.97493 0.49599 0.3167 0.0
H1379 H 0.99871 0.49007 0.30264 0.0
C1380 C 0.49621 0.95055 0.51688 0.0
C1381 C 0.50543 0.93958 0.54461 0.0
C1382 C 0.5082 0.97561 0.51182 0.0
C1383 C 0.52959 0.99004 0.5359 0.0
C1384 C 0.5386 0.97907 0.56486 0.0
C1385 C 0.52659 0.95397 0.56841 0.0
C1386 C 0.49832 0.98658 0.47984 0.0
C1387 C 0.56106 0.99384 0.59186 0.0
C1388 C 0.57558 0.05214 0.49483 0.0
C1389 C 0.5705 0.06698 0.52125 0.0
C1390 C 0.5619 0.02707 0.49828 0.0
C1391 C 0.54306 0.01657 0.52977 0.0
C1392 C 0.53773 0.03146 0.55636 0.0
C1393 C 0.55134 0.0565 0.55139 0.0
C1394 C 0.56782 0.01183 0.4686 0.0
C1395 C 0.51816 0.02098 0.59101 0.0
H1396 H 0.47996 0.9395 0.49809 0.0
H1397 H 0.53371 0.94561 0.59013 0.0
H1398 H 0.49502 0.99982 0.49731 0.0
H1399 H 0.51167 0.99638 0.45331 0.0
H1400 H 0.48132 0.9729 0.4641 0.0
H1401 H 0.56489 0.98264 0.61478 0.0
H1402 H 0.57666 0.00367 0.56939 0.0
H1403 H 0.55932 0.00742 0.61167 0.0
H1404 H 0.59028 0.06013 0.47129 0.0
H1405 H 0.5475 0.06791 0.57222 0.0
H1406 H 0.55152 0.99849 0.4506 0.0
H1407 H 0.5741 1.0017 0.48901 0.0
H1408 H 0.58195 0.02272 0.44388 0.0
H1409 H 0.50083 0.008 0.57546 0.0
H1410 H 0.51594 0.03497 0.60836 0.0
H1411 H 0.52239 0.01098 0.61606 0.0
C1412 C 0.58566 0.53447 0.73318 0.0
C1413 C 0.57795 0.51371 0.70743 0.0
C1414 C 0.57386 0.54779 0.73115 0.0
C1415 C 0.55414 0.54046 0.70204 0.0
C1416 C 0.54659 0.51983 0.67524 0.0
C1417 C 0.55844 0.50658 0.67855 0.0
C1418 C 0.5822 0.56946 0.76077 0.0
C1419 C 0.52591 0.51169 0.64318 0.0
C1420 C 0.50824 0.55994 0.72388 0.0
C1421 C 0.51575 0.57932 0.6945 0.0
C1422 C 0.52084 0.54742 0.72725 0.0
C1423 C 0.54117 0.55416 0.70001 0.0
C1424 C 0.54889 0.57376 0.67042 0.0
C1425 C 0.53623 0.58624 0.66833 0.0
C1426 C 0.51231 0.52691 0.75982 0.0
C1427 C 0.57026 0.58125 0.64034 0.0
H1428 H 0.60063 0.54004 0.75578 0.0
H1429 H 0.55246 0.49066 0.65832 0.0
H1430 H 0.58719 0.58565 0.7404 0.0
H1431 H 0.56738 0.56691 0.78307 0.0
H1432 H 0.59787 0.57282 0.78147 0.0
H1433 H 0.52287 0.49582 0.62347 0.0
H1434 H 0.50924 0.50705 0.66165 0.0
H1435 H 0.52935 0.52646 0.61997 0.0
H1436 H 0.49254 0.55457 0.74444 0.0
H1437 H 0.54209 0.6011 0.64535 0.0
H1438 H 0.5271 0.53001 0.7827 0.0
H1439 H 0.50699 0.50996 0.74173 0.0
H1440 H 0.49679 0.52455 0.77985 0.0
H1441 H 0.58645 0.58585 0.66038 0.0
H1442 H 0.57401 0.59695 0.61934 0.0
H1443 H 0.56705 0.56611 0.61832 0.0
C1444 C 0.05088 0.58037 0.8976 0.0
C1445 C 0.06536 0.57367 0.87386 0.0
C1446 C 0.02578 0.56703 0.8943 0.0
C1447 C 0.0149 0.54683 0.86581 0.0
C1448 C 0.02944 0.54028 0.84106 0.0
C1449 C 0.05447 0.55362 0.84575 0.0
C1450 C 0.01088 0.57434 0.92183 0.0
C1451 C 0.01855 0.51921 0.80957 0.0
C1452 C 0.94982 0.49925 0.8861 0.0
C1453 C 0.93773 0.50621 0.85619 0.0
C1454 C 0.97493 0.51235 0.88969 0.0
C1455 C 0.98829 0.53255 0.86197 0.0
C1456 C 0.97621 0.53931 0.83099 0.0
C1457 C 0.95107 0.52624 0.82886 0.0
C1458 C 0.98713 0.50487 0.92376 0.0
C1459 C 0.98982 0.5604 0.80017 0.0
H1460 H 0.05915 0.59573 0.91961 0.0
H1461 H 0.06556 0.54846 0.82703 0.0
H1462 H 0.9996 0.57849 0.89986 0.0
H1463 H 0.99858 0.55927 0.94368 0.0
H1464 H 0.02209 0.59029 0.94285 0.0
H1465 H 0.03238 0.51695 0.79168 0.0
H1466 H 0.0068 0.50247 0.82815 0.0
H1467 H 0.00716 0.52158 0.78475 0.0
H1468 H 0.93959 0.48392 0.90761 0.0
H1469 H 0.94185 0.53163 0.80548 0.0
H1470 H 0.99744 0.51982 0.94733 0.0
H1471 H 1.0001 0.50084 0.90722 0.0
H1472 H 0.97416 0.48882 0.94293 0.0
H1473 H 0.9999 0.57712 0.81977 0.0
H1474 H 0.97779 0.56268 0.7767 0.0
H1475 H 0.00314 0.55805 0.78071 0.0
loop_
_geom_bond_atom_site_label_1
_geom_bond_atom_site_label_2
_geom_bond_distance
_geom_bond_site_symmetry_2
_ccdc_geom_bond_type
Co0 O2 2.143 . S
Co0 O8 2.074 . S
Co0 O11 2.093 . S
Co0 O24 2.097 . S
Co0 N41 2.151 . S
Co0 N49 2.214 . S
Co1 O2 2.160 . S
Co1 O7 2.058 . S
Co1 O17 2.057 1_554 S
Co1 O32 2.037 . S
Co1 N36 2.145 . S
Co1 N57 2.257 . S
O2 Co0 2.143 . S
O2 Co1 2.160 . S
C3 O4 1.278 . S
C3 O11 1.224 . S
O4 C3 1.278 . S
C5 O6 1.245 . S
C5 O17 1.232 . S
O6 C5 1.245 . S
O7 Co1 2.058 . S
O7 C33 1.269 . S
O8 Co0 2.074 . S
O8 C33 1.257 . S
H9 C34 0.930 . S
H10 C40 0.930 . S
O11 Co0 2.093 . S
O11 C3 1.224 . S
H12 C44 0.929 . S
H13 C46 0.930 . S
H14 C47 0.930 . S
H15 C45 0.929 . S
H16 C48 0.928 . S
O17 Co1 2.057 1_556 S
O17 C5 1.232 . S
H18 C37 0.929 . S
H19 C38 0.929 1_556 S
H20 C50 0.931 . S
H21 C42 0.929 . S
H22 C51 0.930 . S
H23 C43 0.931 . S
O24 Co0 2.097 . S
O24 C52 1.214 . S
H25 C53 0.929 . S
H26 C54 0.929 . S
H27 C55 0.930 . S
H28 C56 0.929 . S
H29 C58 0.930 1_556 S
H30 C35 0.941 . S
H31 C39 0.930 . S
O32 Co1 2.037 . S
O32 C52 1.234 . S
C33 O7 1.269 . S
C33 O8 1.257 . S
C34 H9 0.930 . S
C34 C37 1.388 . S
C34 C39 1.418 . S
C35 H30 0.941 . S
C35 C38 1.403 1_556 S
C35 C39 1.342 1_556 S
N36 Co1 2.145 . S
N36 C37 1.397 . S
N36 C38 1.334 . S
C37 H18 0.929 . S
C37 C34 1.388 . S
C37 N36 1.397 . S
C38 H19 0.929 1_554 S
C38 C35 1.403 1_554 S
C38 N36 1.334 . S
C39 H31 0.930 . S
C39 C34 1.418 . S
C39 C35 1.342 1_554 S
C40 H10 0.930 . S
C40 N41 1.330 . S
C40 C42 1.446 1_554 S
N41 Co0 2.151 . S
N41 C40 1.330 . S
N41 C45 1.418 . S
C42 H21 0.929 . S
C42 C40 1.446 1_556 S
C42 C43 1.332 . S
C43 H23 0.931 . S
C43 C42 1.332 . S
C43 C44 1.267 1_556 S
C44 H12 0.929 . S
C44 C43 1.267 1_554 S
C44 C45 1.251 . S
C45 H15 0.929 . S
C45 N41 1.418 . S
C45 C44 1.251 . S
C46 H13 0.930 . S
C46 C48 1.406 . S
C46 C51 1.261 . S
C47 H14 0.930 . S
C47 N49 1.325 . S
C47 C50 1.357 . S
C48 H16 0.928 . S
C48 C46 1.406 . S
C48 N49 1.261 . S
N49 Co0 2.214 . S
N49 C47 1.325 . S
N49 C48 1.261 . S
C50 H20 0.931 . S
C50 C47 1.357 . S
C50 C51 1.312 . S
C51 H22 0.930 . S
C51 C46 1.261 . S
C51 C50 1.312 . S
C52 O24 1.214 . S
C52 O32 1.234 . S
C53 H25 0.929 . S
C53 C56 1.391 . S
C53 C58 1.391 . S
C54 H26 0.929 . S
C54 C55 1.390 . S
C54 N57 1.391 . S
C55 H27 0.930 . S
C55 C54 1.390 . S
C55 C56 1.392 . S
C56 H28 0.929 . S
C56 C53 1.391 . S
C56 C55 1.392 . S
N57 Co1 2.257 . S
N57 C54 1.391 . S
N57 C58 1.388 . S
C58 H29 0.930 1_554 S
C58 C53 1.391 . S
C58 N57 1.388 . S
Co59 O61 2.143 . S
Co59 O67 2.074 . S
Co59 O70 2.093 . S
Co59 O83 2.097 . S
Co59 N100 2.151 . S
Co59 N108 2.214 . S
Co60 O61 2.160 . S
Co60 O66 2.058 . S
Co60 O76 2.057 . S
Co60 O91 2.037 . S
Co60 N95 2.145 . S
Co60 N116 2.257 . S
O61 Co59 2.143 . S
O61 Co60 2.160 . S
C62 O63 1.278 . S
C62 O70 1.224 . S
O63 C62 1.278 . S
C64 O65 1.245 . S
C64 O76 1.232 . S
O65 C64 1.245 . S
O66 Co60 2.058 . S
O66 C92 1.269 . S
O67 Co59 2.074 . S
O67 C92 1.257 . S
H68 C93 0.930 . S
H69 C99 0.930 . S
O70 Co59 2.093 . S
O70 C62 1.224 . S
H71 C103 0.929 . S
H72 C105 0.930 . S
H73 C106 0.930 . S
H74 C104 0.929 . S
H75 C107 0.928 . S
O76 Co60 2.057 . S
O76 C64 1.232 . S
H77 C96 0.929 . S
H78 C97 0.929 . S
H79 C109 0.931 . S
H80 C101 0.929 . S
H81 C110 0.930 . S
H82 C102 0.931 . S
O83 Co59 2.097 . S
O83 C111 1.214 . S
H84 C112 0.929 . S
H85 C113 0.929 . S
H86 C114 0.930 . S
H87 C115 0.929 . S
H88 C117 0.930 . S
H89 C94 0.930 . S
H90 C98 0.930 . S
O91 Co60 2.037 . S
O91 C111 1.234 . S
C92 O66 1.269 . S
C92 O67 1.257 . S
C93 H68 0.930 . S
C93 C96 1.388 . S
C93 C98 1.418 . S
C94 H89 0.930 . S
C94 C97 1.404 . S
C94 C98 1.353 . S
N95 Co60 2.145 . S
N95 C96 1.397 . S
N95 C97 1.334 . S
C96 H77 0.929 . S
C96 C93 1.388 . S
C96 N95 1.397 . S
C97 H78 0.929 . S
C97 C94 1.404 . S
C97 N95 1.334 . S
C98 H90 0.930 . S
C98 C93 1.418 . S
C98 C94 1.353 . S
C99 H69 0.930 . S
C99 N100 1.330 . S
C99 C101 1.446 . S
N100 Co59 2.151 . S
N100 C99 1.330 . S
N100 C104 1.418 . S
C101 H80 0.929 . S
C101 C99 1.446 . S
C101 C102 1.332 . S
C102 H82 0.931 . S
C102 C101 1.332 . S
C102 C103 1.267 . S
C103 H71 0.929 . S
C103 C102 1.267 . S
C103 C104 1.251 . S
C104 H74 0.929 . S
C104 N100 1.418 . S
C104 C103 1.251 . S
C105 H72 0.930 . S
C105 C107 1.406 . S
C105 C110 1.261 . S
C106 H73 0.930 . S
C106 N108 1.325 . S
C106 C109 1.357 . S
C107 H75 0.928 . S
C107 C105 1.406 . S
C107 N108 1.261 . S
N108 Co59 2.214 . S
N108 C106 1.325 . S
N108 C107 1.261 . S
C109 H79 0.931 . S
C109 C106 1.357 . S
C109 C110 1.312 . S
C110 H81 0.930 . S
C110 C105 1.261 . S
C110 C109 1.312 . S
C111 O83 1.214 . S
C111 O91 1.234 . S
C112 H84 0.929 . S
C112 C115 1.391 . S
C112 C117 1.391 . S
C113 H85 0.929 . S
C113 C114 1.390 . S
C113 N116 1.391 . S
C114 H86 0.930 . S
C114 C113 1.390 . S
C114 C115 1.392 . S
C115 H87 0.929 . S
C115 C112 1.391 . S
C115 C114 1.392 . S
N116 Co60 2.257 . S
N116 C113 1.391 . S
N116 C117 1.388 . S
C117 H88 0.930 . S
C117 C112 1.391 . S
C117 N116 1.388 . S
Co118 O120 2.143 . S
Co118 O126 2.074 . S
Co118 O129 2.093 . S
Co118 O142 2.097 . S
Co118 N159 2.151 . S
Co118 N167 2.214 . S
Co119 O120 2.160 . S
Co119 O125 2.058 . S
Co119 O135 2.057 . S
Co119 O150 2.037 . S
Co119 N154 2.145 . S
Co119 N175 2.257 . S
O120 Co118 2.143 . S
O120 Co119 2.160 . S
C121 O122 1.278 . S
C121 O129 1.224 . S
O122 C121 1.278 . S
C123 O124 1.245 . S
C123 O135 1.232 . S
O124 C123 1.245 . S
O125 Co119 2.058 . S
O125 C151 1.269 . S
O126 Co118 2.074 . S
O126 C151 1.257 . S
H127 C152 0.930 . S
H128 C158 0.930 . S
O129 Co118 2.093 . S
O129 C121 1.224 . S
H130 C162 0.929 . S
H131 C164 0.930 . S
H132 C165 0.930 . S
H133 C163 0.929 . S
H134 C166 0.928 . S
O135 Co119 2.057 . S
O135 C123 1.232 . S
H136 C155 0.929 . S
H137 C156 0.929 . S
H138 C168 0.931 . S
H139 C160 0.929 . S
H140 C169 0.930 . S
H141 C161 0.931 . S
O142 Co118 2.097 . S
O142 C170 1.214 . S
H143 C171 0.929 . S
H144 C172 0.929 . S
H145 C173 0.930 . S
H146 C174 0.929 . S
H147 C176 0.930 . S
H148 C153 0.930 . S
H149 C157 0.930 . S
O150 Co119 2.037 . S
O150 C170 1.234 . S
C151 O125 1.269 . S
C151 O126 1.257 . S
C152 H127 0.930 . S
C152 C155 1.388 . S
C152 C157 1.418 . S
C153 H148 0.930 . S
C153 C156 1.404 . S
C153 C157 1.353 . S
N154 Co119 2.145 . S
N154 C155 1.397 . S
N154 C156 1.334 . S
C155 H136 0.929 . S
C155 C152 1.388 . S
C155 N154 1.397 . S
C156 H137 0.929 . S
C156 C153 1.404 . S
C156 N154 1.334 . S
C157 H149 0.930 . S
C157 C152 1.418 . S
C157 C153 1.353 . S
C158 H128 0.930 . S
C158 N159 1.330 . S
C158 C160 1.446 . S
N159 Co118 2.151 . S
N159 C158 1.330 . S
N159 C163 1.418 . S
C160 H139 0.929 . S
C160 C158 1.446 . S
C160 C161 1.332 . S
C161 H141 0.931 . S
C161 C160 1.332 . S
C161 C162 1.267 . S
C162 H130 0.929 . S
C162 C161 1.267 . S
C162 C163 1.251 . S
C163 H133 0.929 . S
C163 N159 1.418 . S
C163 C162 1.251 . S
C164 H131 0.930 . S
C164 C166 1.406 . S
C164 C169 1.261 . S
C165 H132 0.930 . S
C165 N167 1.325 . S
C165 C168 1.357 . S
C166 H134 0.928 . S
C166 C164 1.406 . S
C166 N167 1.261 . S
N167 Co118 2.214 . S
N167 C165 1.325 . S
N167 C166 1.261 . S
C168 H138 0.931 . S
C168 C165 1.357 . S
C168 C169 1.312 . S
C169 H140 0.930 . S
C169 C164 1.261 . S
C169 C168 1.312 . S
C170 O142 1.214 . S
C170 O150 1.234 . S
C171 H143 0.929 . S
C171 C174 1.391 . S
C171 C176 1.391 . S
C172 H144 0.929 . S
C172 C173 1.390 . S
C172 N175 1.391 . S
C173 H145 0.930 . S
C173 C172 1.390 . S
C173 C174 1.392 . S
C174 H146 0.929 . S
C174 C171 1.391 . S
C174 C173 1.392 . S
N175 Co119 2.257 . S
N175 C172 1.391 . S
N175 C176 1.388 . S
C176 H147 0.930 . S
C176 C171 1.391 . S
C176 N175 1.388 . S
Co177 O179 2.143 . S
Co177 O185 2.074 . S
Co177 O188 2.093 . S
Co177 O201 2.097 . S
Co177 N218 2.151 . S
Co177 N226 2.214 . S
Co178 O179 2.160 . S
Co178 O184 2.058 . S
Co178 O194 2.057 . S
Co178 O209 2.037 . S
Co178 N213 2.145 . S
Co178 N234 2.257 . S
O179 Co177 2.143 . S
O179 Co178 2.160 . S
C180 O181 1.278 . S
C180 O188 1.224 . S
O181 C180 1.278 . S
C182 O183 1.245 . S
C182 O194 1.232 . S
O183 C182 1.245 . S
O184 Co178 2.058 . S
O184 C210 1.269 . S
O185 Co177 2.074 . S
O185 C210 1.257 . S
H186 C211 0.930 . S
H187 C217 0.930 . S
O188 Co177 2.093 . S
O188 C180 1.224 . S
H189 C221 0.929 . S
H190 C223 0.930 . S
H191 C224 0.930 . S
H192 C222 0.929 . S
H193 C225 0.928 . S
O194 Co178 2.057 . S
O194 C182 1.232 . S
H195 C214 0.929 . S
H196 C215 0.929 . S
H197 C227 0.931 . S
H198 C219 0.929 . S
H199 C228 0.930 . S
H200 C220 0.931 . S
O201 Co177 2.097 . S
O201 C229 1.214 . S
H202 C230 0.929 . S
H203 C231 0.929 . S
H204 C232 0.930 . S
H205 C233 0.929 . S
H206 C235 0.930 . S
H207 C212 0.930 . S
H208 C216 0.930 . S
O209 Co178 2.037 . S
O209 C229 1.234 . S
C210 O184 1.269 . S
C210 O185 1.257 . S
C211 H186 0.930 . S
C211 C214 1.388 . S
C211 C216 1.418 . S
C212 H207 0.930 . S
C212 C215 1.404 . S
C212 C216 1.353 . S
N213 Co178 2.145 . S
N213 C214 1.397 . S
N213 C215 1.334 . S
C214 H195 0.929 . S
C214 C211 1.388 . S
C214 N213 1.397 . S
C215 H196 0.929 . S
C215 C212 1.404 . S
C215 N213 1.334 . S
C216 H208 0.930 . S
C216 C211 1.418 . S
C216 C212 1.353 . S
C217 H187 0.930 . S
C217 N218 1.330 . S
C217 C219 1.446 . S
N218 Co177 2.151 . S
N218 C217 1.330 . S
N218 C222 1.418 . S
C219 H198 0.929 . S
C219 C217 1.446 . S
C219 C220 1.332 . S
C220 H200 0.931 . S
C220 C219 1.332 . S
C220 C221 1.267 . S
C221 H189 0.929 . S
C221 C220 1.267 . S
C221 C222 1.251 . S
C222 H192 0.929 . S
C222 N218 1.418 . S
C222 C221 1.251 . S
C223 H190 0.930 . S
C223 C225 1.406 . S
C223 C228 1.261 . S
C224 H191 0.930 . S
C224 N226 1.325 . S
C224 C227 1.357 . S
C225 H193 0.928 . S
C225 C223 1.406 . S
C225 N226 1.261 . S
N226 Co177 2.214 . S
N226 C224 1.325 . S
N226 C225 1.261 . S
C227 H197 0.931 . S
C227 C224 1.357 . S
C227 C228 1.312 . S
C228 H199 0.930 . S
C228 C223 1.261 . S
C228 C227 1.312 . S
C229 O201 1.214 . S
C229 O209 1.234 . S
C230 H202 0.929 . S
C230 C233 1.391 . S
C230 C235 1.391 . S
C231 H203 0.929 . S
C231 C232 1.390 . S
C231 N234 1.391 . S
C232 H204 0.930 . S
C232 C231 1.390 . S
C232 C233 1.392 . S
C233 H205 0.929 . S
C233 C230 1.391 . S
C233 C232 1.392 . S
N234 Co178 2.257 . S
N234 C231 1.391 . S
N234 C235 1.388 . S
C235 H206 0.930 . S
C235 C230 1.391 . S
C235 N234 1.388 . S
Co236 O238 2.143 . S
Co236 O244 2.074 . S
Co236 O247 2.093 . S
Co236 O260 2.097 . S
Co236 N277 2.151 . S
Co236 N285 2.214 . S
Co237 O238 2.160 . S
Co237 O243 2.058 . S
Co237 O253 2.057 . S
Co237 O268 2.037 . S
Co237 N272 2.145 . S
Co237 N293 2.257 . S
O238 Co236 2.143 . S
O238 Co237 2.160 . S
C239 O240 1.278 . S
C239 O247 1.224 . S
O240 C239 1.278 . S
C241 O242 1.245 . S
C241 O253 1.232 . S
O242 C241 1.245 . S
O243 Co237 2.058 . S
O243 C269 1.269 . S
O244 Co236 2.074 . S
O244 C269 1.257 . S
H245 C270 0.930 . S
H246 C276 0.930 . S
O247 Co236 2.093 . S
O247 C239 1.224 . S
H248 C280 0.929 . S
H249 C282 0.930 . S
H250 C283 0.930 . S
H251 C281 0.929 . S
H252 C284 0.928 . S
O253 Co237 2.057 . S
O253 C241 1.232 . S
H254 C273 0.929 . S
H255 C274 0.929 . S
H256 C286 0.931 . S
H257 C278 0.929 . S
H258 C287 0.930 . S
H259 C279 0.931 . S
O260 Co236 2.097 . S
O260 C288 1.214 . S
H261 C289 0.929 . S
H262 C290 0.929 . S
H263 C291 0.930 . S
H264 C292 0.929 . S
H265 C294 0.930 . S
H266 C271 0.930 . S
H267 C275 0.930 . S
O268 Co237 2.037 . S
O268 C288 1.234 . S
C269 O243 1.269 . S
C269 O244 1.257 . S
C270 H245 0.930 . S
C270 C273 1.388 . S
C270 C275 1.418 . S
C271 H266 0.930 . S
C271 C274 1.404 . S
C271 C275 1.353 . S
N272 Co237 2.145 . S
N272 C273 1.397 . S
N272 C274 1.334 . S
C273 H254 0.929 . S
C273 C270 1.388 . S
C273 N272 1.397 . S
C274 H255 0.929 . S
C274 C271 1.404 . S
C274 N272 1.334 . S
C275 H267 0.930 . S
C275 C270 1.418 . S
C275 C271 1.353 . S
C276 H246 0.930 . S
C276 N277 1.330 . S
C276 C278 1.446 . S
N277 Co236 2.151 . S
N277 C276 1.330 . S
N277 C281 1.418 . S
C278 H257 0.929 . S
C278 C276 1.446 . S
C278 C279 1.332 . S
C279 H259 0.931 . S
C279 C278 1.332 . S
C279 C280 1.267 . S
C280 H248 0.929 . S
C280 C279 1.267 . S
C280 C281 1.251 . S
C281 H251 0.929 . S
C281 N277 1.418 . S
C281 C280 1.251 . S
C282 H249 0.930 . S
C282 C284 1.406 . S
C282 C287 1.261 . S
C283 H250 0.930 . S
C283 N285 1.325 . S
C283 C286 1.357 . S
C284 H252 0.928 . S
C284 C282 1.406 . S
C284 N285 1.261 . S
N285 Co236 2.214 . S
N285 C283 1.325 . S
N285 C284 1.261 . S
C286 H256 0.931 . S
C286 C283 1.357 . S
C286 C287 1.312 . S
C287 H258 0.930 . S
C287 C282 1.261 . S
C287 C286 1.312 . S
C288 O260 1.214 . S
C288 O268 1.234 . S
C289 H261 0.929 . S
C289 C292 1.391 . S
C289 C294 1.391 . S
C290 H262 0.929 . S
C290 C291 1.390 . S
C290 N293 1.391 . S
C291 H263 0.930 . S
C291 C290 1.390 . S
C291 C292 1.392 . S
C292 H264 0.929 . S
C292 C289 1.391 . S
C292 C291 1.392 . S
N293 Co237 2.257 . S
N293 C290 1.391 . S
N293 C294 1.388 . S
C294 H265 0.930 . S
C294 C289 1.391 . S
C294 N293 1.388 . S
Co295 O297 2.143 . S
Co295 O303 2.074 . S
Co295 O306 2.093 . S
Co295 O319 2.097 . S
Co295 N336 2.151 . S
Co295 N344 2.214 . S
Co296 O297 2.160 . S
Co296 O302 2.058 . S
Co296 O312 2.057 . S
Co296 O327 2.037 . S
Co296 N331 2.145 . S
Co296 N352 2.257 . S
O297 Co295 2.143 . S
O297 Co296 2.160 . S
C298 O299 1.278 . S
C298 O306 1.224 . S
O299 C298 1.278 . S
C300 O301 1.245 . S
C300 O312 1.232 . S
O301 C300 1.245 . S
O302 Co296 2.058 . S
O302 C328 1.269 . S
O303 Co295 2.074 . S
O303 C328 1.257 . S
H304 C329 0.930 . S
H305 C335 0.930 . S
O306 Co295 2.093 . S
O306 C298 1.224 . S
H307 C339 0.929 . S
H308 C341 0.930 . S
H309 C342 0.930 . S
H310 C340 0.929 . S
H311 C343 0.928 . S
O312 Co296 2.057 . S
O312 C300 1.232 . S
H313 C332 0.929 . S
H314 C333 0.929 . S
H315 C345 0.931 . S
H316 C337 0.929 . S
H317 C346 0.930 . S
H318 C338 0.931 . S
O319 Co295 2.097 . S
O319 C347 1.214 . S
H320 C348 0.929 . S
H321 C349 0.929 . S
H322 C350 0.930 . S
H323 C351 0.929 . S
H324 C353 0.930 . S
H325 C330 0.930 . S
H326 C334 0.930 . S
O327 Co296 2.037 . S
O327 C347 1.234 . S
C328 O302 1.269 . S
C328 O303 1.257 . S
C329 H304 0.930 . S
C329 C332 1.388 . S
C329 C334 1.418 . S
C330 H325 0.930 . S
C330 C333 1.404 . S
C330 C334 1.353 . S
N331 Co296 2.145 . S
N331 C332 1.397 . S
N331 C333 1.334 . S
C332 H313 0.929 . S
C332 C329 1.388 . S
C332 N331 1.397 . S
C333 H314 0.929 . S
C333 C330 1.404 . S
C333 N331 1.334 . S
C334 H326 0.930 . S
C334 C329 1.418 . S
C334 C330 1.353 . S
C335 H305 0.930 . S
C335 N336 1.330 . S
C335 C337 1.446 . S
N336 Co295 2.151 . S
N336 C335 1.330 . S
N336 C340 1.418 . S
C337 H316 0.929 . S
C337 C335 1.446 . S
C337 C338 1.332 . S
C338 H318 0.931 . S
C338 C337 1.332 . S
C338 C339 1.267 . S
C339 H307 0.929 . S
C339 C338 1.267 . S
C339 C340 1.251 . S
C340 H310 0.929 . S
C340 N336 1.418 . S
C340 C339 1.251 . S
C341 H308 0.930 . S
C341 C343 1.406 1_554 S
C341 C346 1.261 . S
C342 H309 0.930 . S
C342 N344 1.325 1_554 S
C342 C345 1.357 . S
C343 H311 0.928 . S
C343 C341 1.406 1_556 S
C343 N344 1.261 . S
N344 Co295 2.214 . S
N344 C342 1.325 1_556 S
N344 C343 1.261 . S
C345 H315 0.931 . S
C345 C342 1.357 . S
C345 C346 1.312 . S
C346 H317 0.930 . S
C346 C341 1.261 . S
C346 C345 1.312 . S
C347 O319 1.214 . S
C347 O327 1.234 . S
C348 H320 0.929 . S
C348 C351 1.391 . S
C348 C353 1.391 . S
C349 H321 0.929 . S
C349 C350 1.390 . S
C349 N352 1.391 . S
C350 H322 0.930 . S
C350 C349 1.390 . S
C350 C351 1.392 . S
C351 H323 0.929 . S
C351 C348 1.391 . S
C351 C350 1.392 . S
N352 Co296 2.257 . S
N352 C349 1.391 . S
N352 C353 1.388 . S
C353 H324 0.930 . S
C353 C348 1.391 . S
C353 N352 1.388 . S
Co354 O356 2.143 . S
Co354 O362 2.074 . S
Co354 O365 2.093 . S
Co354 O378 2.097 . S
Co354 N395 2.151 . S
Co354 N403 2.214 . S
Co355 O356 2.160 . S
Co355 O361 2.058 . S
Co355 O371 2.057 . S
Co355 O386 2.037 . S
Co355 N390 2.145 . S
Co355 N411 2.257 . S
O356 Co354 2.143 . S
O356 Co355 2.160 . S
C357 O358 1.278 . S
C357 O365 1.224 . S
O358 C357 1.278 . S
C359 O360 1.245 . S
C359 O371 1.232 . S
O360 C359 1.245 . S
O361 Co355 2.058 . S
O361 C387 1.269 . S
O362 Co354 2.074 . S
O362 C387 1.257 . S
H363 C388 0.930 . S
H364 C394 0.930 . S
O365 Co354 2.093 . S
O365 C357 1.224 . S
H366 C398 0.929 . S
H367 C400 0.930 . S
H368 C401 0.930 . S
H369 C399 0.929 . S
H370 C402 0.928 . S
O371 Co355 2.057 . S
O371 C359 1.232 . S
H372 C391 0.929 . S
H373 C392 0.929 . S
H374 C404 0.931 . S
H375 C396 0.929 . S
H376 C405 0.930 . S
H377 C397 0.931 . S
O378 Co354 2.097 . S
O378 C406 1.214 . S
H379 C407 0.929 . S
H380 C408 0.929 . S
H381 C409 0.930 . S
H382 C410 0.929 . S
H383 C412 0.930 . S
H384 C389 0.930 . S
H385 C393 0.930 . S
O386 Co355 2.037 . S
O386 C406 1.234 . S
C387 O361 1.269 . S
C387 O362 1.257 . S
C388 H363 0.930 . S
C388 C391 1.388 . S
C388 C393 1.418 . S
C389 H384 0.930 . S
C389 C392 1.404 . S
C389 C393 1.353 . S
N390 Co355 2.145 . S
N390 C391 1.397 . S
N390 C392 1.334 . S
C391 H372 0.929 . S
C391 C388 1.388 . S
C391 N390 1.397 . S
C392 H373 0.929 . S
C392 C389 1.404 . S
C392 N390 1.334 . S
C393 H385 0.930 . S
C393 C388 1.418 . S
C393 C389 1.353 . S
C394 H364 0.930 . S
C394 N395 1.330 . S
C394 C396 1.446 . S
N395 Co354 2.151 . S
N395 C394 1.330 . S
N395 C399 1.418 . S
C396 H375 0.929 . S
C396 C394 1.446 . S
C396 C397 1.332 . S
C397 H377 0.931 . S
C397 C396 1.332 . S
C397 C398 1.267 . S
C398 H366 0.929 . S
C398 C397 1.267 . S
C398 C399 1.251 . S
C399 H369 0.929 . S
C399 N395 1.418 . S
C399 C398 1.251 . S
C400 H367 0.930 . S
C400 C402 1.406 . S
C400 C405 1.261 . S
C401 H368 0.930 . S
C401 N403 1.325 . S
C401 C404 1.357 . S
C402 H370 0.928 . S
C402 C400 1.406 . S
C402 N403 1.261 . S
N403 Co354 2.214 . S
N403 C401 1.325 . S
N403 C402 1.261 . S
C404 H374 0.931 . S
C404 C401 1.357 . S
C404 C405 1.312 . S
C405 H376 0.930 . S
C405 C400 1.261 . S
C405 C404 1.312 . S
C406 O378 1.214 . S
C406 O386 1.234 . S
C407 H379 0.929 . S
C407 C410 1.391 . S
C407 C412 1.391 . S
C408 H380 0.929 . S
C408 C409 1.390 . S
C408 N411 1.391 . S
C409 H381 0.930 . S
C409 C408 1.390 . S
C409 C410 1.392 . S
C410 H382 0.929 . S
C410 C407 1.391 . S
C410 C409 1.392 . S
N411 Co355 2.257 . S
N411 C408 1.391 . S
N411 C412 1.388 . S
C412 H383 0.930 . S
C412 C407 1.391 . S
C412 N411 1.388 . S
Co413 O415 2.143 1_556 S
Co413 O421 2.076 . S
Co413 O424 2.093 . S
Co413 O437 2.097 . S
Co413 N454 2.151 1_556 S
Co413 N462 2.214 . S
Co414 O415 2.160 . S
Co414 O420 2.058 . S
Co414 O430 2.057 . S
Co414 O445 2.037 1_554 S
Co414 N449 2.145 . S
Co414 N470 2.257 . S
O415 Co413 2.143 1_554 S
O415 Co414 2.160 . S
C416 O417 1.278 . S
C416 O424 1.224 1_554 S
O417 C416 1.278 . S
C418 O419 1.245 . S
C418 O430 1.232 . S
O419 C418 1.245 . S
O420 Co414 2.058 . S
O420 C446 1.269 . S
O421 Co413 2.076 . S
O421 C446 1.242 1_556 S
H422 C447 0.930 1_556 S
H423 C453 0.930 . S
O424 Co413 2.093 . S
O424 C416 1.224 1_556 S
H425 C457 0.929 . S
H426 C459 0.930 . S
H427 C460 0.930 . S
H428 C458 0.929 . S
H429 C461 0.928 . S
O430 Co414 2.057 . S
O430 C418 1.232 . S
H431 C450 0.929 1_556 S
H432 C451 0.929 . S
H433 C463 0.931 . S
H434 C455 0.929 . S
H435 C464 0.930 . S
H436 C456 0.931 . S
O437 Co413 2.097 . S
O437 C465 1.214 . S
H438 C466 0.929 . S
H439 C467 0.922 1_556 S
H440 C468 0.930 . S
H441 C469 0.929 . S
H442 C471 0.930 . S
H443 C448 0.930 . S
H444 C452 0.930 . S
O445 Co414 2.037 1_556 S
O445 C465 1.234 . S
C446 O420 1.269 . S
C446 O421 1.242 1_554 S
C447 H422 0.930 1_554 S
C447 C450 1.388 . S
C447 C452 1.418 . S
C448 H443 0.930 . S
C448 C451 1.404 . S
C448 C452 1.353 . S
N449 Co414 2.145 . S
N449 C450 1.397 . S
N449 C451 1.334 . S
C450 H431 0.929 1_554 S
C450 C447 1.388 . S
C450 N449 1.397 . S
C451 H432 0.929 . S
C451 C448 1.404 . S
C451 N449 1.334 . S
C452 H444 0.930 . S
C452 C447 1.418 . S
C452 C448 1.353 . S
C453 H423 0.930 . S
C453 N454 1.330 . S
C453 C455 1.446 . S
N454 Co413 2.151 1_554 S
N454 C453 1.330 . S
N454 C458 1.418 . S
C455 H434 0.929 . S
C455 C453 1.446 . S
C455 C456 1.332 . S
C456 H436 0.931 . S
C456 C455 1.332 . S
C456 C457 1.267 . S
C457 H425 0.929 . S
C457 C456 1.267 . S
C457 C458 1.251 . S
C458 H428 0.929 . S
C458 N454 1.418 . S
C458 C457 1.251 . S
C459 H426 0.930 . S
C459 C461 1.406 . S
C459 C464 1.261 . S
C460 H427 0.930 . S
C460 N462 1.325 . S
C460 C463 1.357 . S
C461 H429 0.928 . S
C461 C459 1.406 . S
C461 N462 1.261 . S
N462 Co413 2.214 . S
N462 C460 1.325 . S
N462 C461 1.261 . S
C463 H433 0.931 . S
C463 C460 1.357 . S
C463 C464 1.312 . S
C464 H435 0.930 . S
C464 C459 1.261 . S
C464 C463 1.312 . S
C465 O437 1.214 . S
C465 O445 1.234 . S
C466 H438 0.929 . S
C466 C469 1.391 . S
C466 C471 1.391 . S
C467 H439 0.922 1_554 S
C467 C468 1.388 1_554 S
C467 N470 1.401 . S
C468 H440 0.930 . S
C468 C467 1.388 1_556 S
C468 C469 1.392 1_556 S
C469 H441 0.929 . S
C469 C466 1.391 . S
C469 C468 1.392 1_554 S
N470 Co414 2.257 . S
N470 C467 1.401 . S
N470 C471 1.388 . S
C471 H442 0.930 . S
C471 C466 1.391 . S
C471 N470 1.388 . S
Co472 O474 2.143 . S
Co472 O480 2.074 . S
Co472 O483 2.093 . S
Co472 O496 2.097 . S
Co472 N513 2.151 . S
Co472 N521 2.214 . S
Co473 O474 2.160 . S
Co473 O479 2.058 . S
Co473 O489 2.057 . S
Co473 O504 2.037 . S
Co473 N508 2.145 . S
Co473 N529 2.257 . S
O474 Co472 2.143 . S
O474 Co473 2.160 . S
C475 O476 1.278 . S
C475 O483 1.224 . S
O476 C475 1.278 . S
C477 O478 1.245 . S
C477 O489 1.232 . S
O478 C477 1.245 . S
O479 Co473 2.058 . S
O479 C505 1.269 . S
O480 Co472 2.074 . S
O480 C505 1.257 . S
H481 C506 0.930 . S
H482 C512 0.930 . S
O483 Co472 2.093 . S
O483 C475 1.224 . S
H484 C516 0.929 . S
H485 C518 0.930 . S
H486 C519 0.930 . S
H487 C517 0.929 . S
H488 C520 0.928 . S
O489 Co473 2.057 . S
O489 C477 1.232 . S
H490 C509 0.929 . S
H491 C510 0.929 . S
H492 C522 0.931 . S
H493 C514 0.929 . S
H494 C523 0.930 . S
H495 C515 0.931 . S
O496 Co472 2.097 . S
O496 C524 1.214 . S
H497 C525 0.929 . S
H498 C526 0.929 . S
H499 C527 0.930 . S
H500 C528 0.929 . S
H501 C530 0.930 . S
H502 C507 0.930 . S
H503 C511 0.930 . S
O504 Co473 2.037 . S
O504 C524 1.234 . S
C505 O479 1.269 . S
C505 O480 1.257 . S
C506 H481 0.930 . S
C506 C509 1.388 . S
C506 C511 1.418 . S
C507 H502 0.930 . S
C507 C510 1.404 . S
C507 C511 1.353 . S
N508 Co473 2.145 . S
N508 C509 1.397 . S
N508 C510 1.334 . S
C509 H490 0.929 . S
C509 C506 1.388 . S
C509 N508 1.397 . S
C510 H491 0.929 . S
C510 C507 1.404 . S
C510 N508 1.334 . S
C511 H503 0.930 . S
C511 C506 1.418 . S
C511 C507 1.353 . S
C512 H482 0.930 . S
C512 N513 1.330 . S
C512 C514 1.446 . S
N513 Co472 2.151 . S
N513 C512 1.330 . S
N513 C517 1.418 . S
C514 H493 0.929 . S
C514 C512 1.446 . S
C514 C515 1.332 . S
C515 H495 0.931 . S
C515 C514 1.332 . S
C515 C516 1.267 . S
C516 H484 0.929 . S
C516 C515 1.267 . S
C516 C517 1.251 . S
C517 H487 0.929 . S
C517 N513 1.418 . S
C517 C516 1.251 . S
C518 H485 0.930 . S
C518 C520 1.406 . S
C518 C523 1.261 . S
C519 H486 0.930 . S
C519 N521 1.325 . S
C519 C522 1.357 . S
C520 H488 0.928 . S
C520 C518 1.406 . S
C520 N521 1.261 . S
N521 Co472 2.214 . S
N521 C519 1.325 . S
N521 C520 1.261 . S
C522 H492 0.931 . S
C522 C519 1.357 . S
C522 C523 1.312 . S
C523 H494 0.930 . S
C523 C518 1.261 . S
C523 C522 1.312 . S
C524 O496 1.214 . S
C524 O504 1.234 . S
C525 H497 0.929 . S
C525 C528 1.391 . S
C525 C530 1.391 . S
C526 H498 0.929 . S
C526 C527 1.390 . S
C526 N529 1.391 . S
C527 H499 0.930 . S
C527 C526 1.390 . S
C527 C528 1.392 . S
C528 H500 0.929 . S
C528 C525 1.391 . S
C528 C527 1.392 . S
N529 Co473 2.257 . S
N529 C526 1.391 . S
N529 C530 1.388 . S
C530 H501 0.930 . S
C530 C525 1.391 . S
C530 N529 1.388 . S
Co531 O533 2.143 . S
Co531 O539 2.074 . S
Co531 O542 2.093 . S
Co531 O555 2.097 . S
Co531 N572 2.151 . S
Co531 N580 2.214 . S
Co532 O533 2.160 . S
Co532 O538 2.058 . S
Co532 O548 2.057 . S
Co532 O563 2.037 . S
Co532 N567 2.145 . S
Co532 N588 2.257 . S
O533 Co531 2.143 . S
O533 Co532 2.160 . S
C534 O535 1.278 . S
C534 O542 1.224 . S
O535 C534 1.278 . S
C536 O537 1.245 . S
C536 O548 1.232 . S
O537 C536 1.245 . S
O538 Co532 2.058 . S
O538 C564 1.269 . S
O539 Co531 2.074 . S
O539 C564 1.257 . S
H540 C565 0.930 . S
H541 C571 0.930 . S
O542 Co531 2.093 . S
O542 C534 1.224 . S
H543 C575 0.929 . S
H544 C577 0.930 . S
H545 C578 0.930 . S
H546 C576 0.929 . S
H547 C579 0.928 . S
O548 Co532 2.057 . S
O548 C536 1.232 . S
H549 C568 0.929 . S
H550 C569 0.929 . S
H551 C581 0.931 . S
H552 C573 0.929 . S
H553 C582 0.930 . S
H554 C574 0.931 . S
O555 Co531 2.097 . S
O555 C583 1.214 . S
H556 C584 0.929 . S
H557 C585 0.929 . S
H558 C586 0.930 . S
H559 C587 0.929 . S
H560 C589 0.930 . S
H561 C566 0.930 . S
H562 C570 0.930 . S
O563 Co532 2.037 . S
O563 C583 1.234 . S
C564 O538 1.269 . S
C564 O539 1.257 . S
C565 H540 0.930 . S
C565 C568 1.388 . S
C565 C570 1.418 . S
C566 H561 0.930 . S
C566 C569 1.404 . S
C566 C570 1.353 . S
N567 Co532 2.145 . S
N567 C568 1.397 . S
N567 C569 1.334 . S
C568 H549 0.929 . S
C568 C565 1.388 . S
C568 N567 1.397 . S
C569 H550 0.929 . S
C569 C566 1.404 . S
C569 N567 1.334 . S
C570 H562 0.930 . S
C570 C565 1.418 . S
C570 C566 1.353 . S
C571 H541 0.930 . S
C571 N572 1.330 . S
C571 C573 1.446 . S
N572 Co531 2.151 . S
N572 C571 1.330 . S
N572 C576 1.418 . S
C573 H552 0.929 . S
C573 C571 1.446 . S
C573 C574 1.332 . S
C574 H554 0.931 . S
C574 C573 1.332 . S
C574 C575 1.267 . S
C575 H543 0.929 . S
C575 C574 1.267 . S
C575 C576 1.251 . S
C576 H546 0.929 . S
C576 N572 1.418 . S
C576 C575 1.251 . S
C577 H544 0.930 . S
C577 C579 1.406 . S
C577 C582 1.261 . S
C578 H545 0.930 . S
C578 N580 1.325 . S
C578 C581 1.357 . S
C579 H547 0.928 . S
C579 C577 1.406 . S
C579 N580 1.261 . S
N580 Co531 2.214 . S
N580 C578 1.325 . S
N580 C579 1.261 . S
C581 H551 0.931 . S
C581 C578 1.357 . S
C581 C582 1.312 . S
C582 H553 0.930 . S
C582 C577 1.261 . S
C582 C581 1.312 . S
C583 O555 1.214 . S
C583 O563 1.234 . S
C584 H556 0.929 . S
C584 C587 1.391 . S
C584 C589 1.391 . S
C585 H557 0.929 . S
C585 C586 1.390 . S
C585 N588 1.391 . S
C586 H558 0.930 . S
C586 C585 1.390 . S
C586 C587 1.392 . S
C587 H559 0.929 . S
C587 C584 1.391 . S
C587 C586 1.392 . S
N588 Co532 2.257 . S
N588 C585 1.391 . S
N588 C589 1.388 . S
C589 H560 0.930 . S
C589 C584 1.391 . S
C589 N588 1.388 . S
Co590 O592 2.143 . S
Co590 O598 2.074 . S
Co590 O601 2.093 . S
Co590 O614 2.097 . S
Co590 N631 2.151 . S
Co590 N639 2.214 . S
Co591 O592 2.160 . S
Co591 O597 2.058 . S
Co591 O607 2.057 . S
Co591 O622 2.037 . S
Co591 N626 2.145 . S
Co591 N647 2.257 . S
O592 Co590 2.143 . S
O592 Co591 2.160 . S
C593 O594 1.278 . S
C593 O601 1.224 . S
O594 C593 1.278 . S
C595 O596 1.245 . S
C595 O607 1.232 . S
O596 C595 1.245 . S
O597 Co591 2.058 . S
O597 C623 1.269 . S
O598 Co590 2.074 . S
O598 C623 1.257 . S
H599 C624 0.930 . S
H600 C630 0.930 . S
O601 Co590 2.093 . S
O601 C593 1.224 . S
H602 C634 0.929 . S
H603 C636 0.930 . S
H604 C637 0.930 . S
H605 C635 0.929 . S
H606 C638 0.928 . S
O607 Co591 2.057 . S
O607 C595 1.232 . S
H608 C627 0.929 . S
H609 C628 0.929 . S
H610 C640 0.931 . S
H611 C632 0.929 . S
H612 C641 0.930 . S
H613 C633 0.931 . S
O614 Co590 2.097 . S
O614 C642 1.214 . S
H615 C643 0.929 . S
H616 C644 0.929 . S
H617 C645 0.930 . S
H618 C646 0.929 . S
H619 C648 0.930 . S
H620 C625 0.930 . S
H621 C629 0.930 . S
O622 Co591 2.037 . S
O622 C642 1.234 . S
C623 O597 1.269 . S
C623 O598 1.257 . S
C624 H599 0.930 . S
C624 C627 1.388 . S
C624 C629 1.418 . S
C625 H620 0.930 . S
C625 C628 1.404 . S
C625 C629 1.353 . S
N626 Co591 2.145 . S
N626 C627 1.397 . S
N626 C628 1.334 . S
C627 H608 0.929 . S
C627 C624 1.388 . S
C627 N626 1.397 . S
C628 H609 0.929 . S
C628 C625 1.404 . S
C628 N626 1.334 . S
C629 H621 0.930 . S
C629 C624 1.418 . S
C629 C625 1.353 . S
C630 H600 0.930 . S
C630 N631 1.330 . S
C630 C632 1.446 . S
N631 Co590 2.151 . S
N631 C630 1.330 . S
N631 C635 1.418 . S
C632 H611 0.929 . S
C632 C630 1.446 . S
C632 C633 1.332 . S
C633 H613 0.931 . S
C633 C632 1.332 . S
C633 C634 1.267 . S
C634 H602 0.929 . S
C634 C633 1.267 . S
C634 C635 1.251 . S
C635 H605 0.929 . S
C635 N631 1.418 . S
C635 C634 1.251 . S
C636 H603 0.930 . S
C636 C638 1.406 . S
C636 C641 1.261 . S
C637 H604 0.930 . S
C637 N639 1.325 . S
C637 C640 1.357 . S
C638 H606 0.928 . S
C638 C636 1.406 . S
C638 N639 1.261 . S
N639 Co590 2.214 . S
N639 C637 1.325 . S
N639 C638 1.261 . S
C640 H610 0.931 . S
C640 C637 1.357 . S
C640 C641 1.312 . S
C641 H612 0.930 . S
C641 C636 1.261 . S
C641 C640 1.312 . S
C642 O614 1.214 . S
C642 O622 1.234 . S
C643 H615 0.929 . S
C643 C646 1.391 . S
C643 C648 1.391 . S
C644 H616 0.929 . S
C644 C645 1.390 . S
C644 N647 1.391 . S
C645 H617 0.930 . S
C645 C644 1.390 . S
C645 C646 1.392 . S
C646 H618 0.929 . S
C646 C643 1.391 . S
C646 C645 1.392 . S
N647 Co591 2.257 . S
N647 C644 1.391 . S
N647 C648 1.388 . S
C648 H619 0.930 . S
C648 C643 1.391 . S
C648 N647 1.388 . S
Co649 O651 2.143 . S
Co649 O657 2.074 . S
Co649 O660 2.093 . S
Co649 O673 2.097 . S
Co649 N690 2.151 . S
Co649 N698 2.214 . S
Co650 O651 2.160 . S
Co650 O656 2.058 . S
Co650 O666 2.057 . S
Co650 O681 2.037 . S
Co650 N685 2.145 . S
Co650 N706 2.257 . S
O651 Co649 2.143 . S
O651 Co650 2.160 . S
C652 O653 1.278 . S
C652 O660 1.224 . S
O653 C652 1.278 . S
C654 O655 1.245 . S
C654 O666 1.232 . S
O655 C654 1.245 . S
O656 Co650 2.058 . S
O656 C682 1.269 . S
O657 Co649 2.074 . S
O657 C682 1.257 . S
H658 C683 0.930 . S
H659 C689 0.930 . S
O660 Co649 2.093 . S
O660 C652 1.224 . S
H661 C693 0.929 . S
H662 C695 0.930 . S
H663 C696 0.930 . S
H664 C694 0.929 . S
H665 C697 0.928 . S
O666 Co650 2.057 . S
O666 C654 1.232 . S
H667 C686 0.929 . S
H668 C687 0.929 . S
H669 C699 0.931 . S
H670 C691 0.929 . S
H671 C700 0.930 . S
H672 C692 0.931 . S
O673 Co649 2.097 . S
O673 C701 1.214 . S
H674 C702 0.929 . S
H675 C703 0.929 . S
H676 C704 0.930 . S
H677 C705 0.929 . S
H678 C707 0.930 . S
H679 C684 0.930 . S
H680 C688 0.930 . S
O681 Co650 2.037 . S
O681 C701 1.234 . S
C682 O656 1.269 . S
C682 O657 1.257 . S
C683 H658 0.930 . S
C683 C686 1.388 . S
C683 C688 1.418 . S
C684 H679 0.930 . S
C684 C687 1.404 . S
C684 C688 1.353 . S
N685 Co650 2.145 . S
N685 C686 1.397 . S
N685 C687 1.334 . S
C686 H667 0.929 . S
C686 C683 1.388 . S
C686 N685 1.397 . S
C687 H668 0.929 . S
C687 C684 1.404 . S
C687 N685 1.334 . S
C688 H680 0.930 . S
C688 C683 1.418 . S
C688 C684 1.353 . S
C689 H659 0.930 . S
C689 N690 1.330 . S
C689 C691 1.446 . S
N690 Co649 2.151 . S
N690 C689 1.330 . S
N690 C694 1.418 . S
C691 H670 0.929 . S
C691 C689 1.446 . S
C691 C692 1.332 . S
C692 H672 0.931 . S
C692 C691 1.332 . S
C692 C693 1.267 . S
C693 H661 0.929 . S
C693 C692 1.267 . S
C693 C694 1.251 . S
C694 H664 0.929 . S
C694 N690 1.418 . S
C694 C693 1.251 . S
C695 H662 0.930 . S
C695 C697 1.406 . S
C695 C700 1.261 . S
C696 H663 0.930 . S
C696 N698 1.325 . S
C696 C699 1.357 . S
C697 H665 0.928 . S
C697 C695 1.406 . S
C697 N698 1.261 . S
N698 Co649 2.214 . S
N698 C696 1.325 . S
N698 C697 1.261 . S
C699 H669 0.931 . S
C699 C696 1.357 . S
C699 C700 1.312 . S
C700 H671 0.930 . S
C700 C695 1.261 . S
C700 C699 1.312 . S
C701 O673 1.214 . S
C701 O681 1.234 . S
C702 H674 0.929 . S
C702 C705 1.391 . S
C702 C707 1.391 . S
C703 H675 0.929 . S
C703 C704 1.390 . S
C703 N706 1.391 . S
C704 H676 0.930 . S
C704 C703 1.390 . S
C704 C705 1.392 . S
C705 H677 0.929 . S
C705 C702 1.391 . S
C705 C704 1.392 . S
N706 Co650 2.257 . S
N706 C703 1.391 . S
N706 C707 1.388 . S
C707 H678 0.930 . S
C707 C702 1.391 . S
C707 N706 1.388 . S
C708 C709 1.391 . S
C708 C710 1.394 . S
C708 H724 0.931 . S
C709 C708 1.391 . S
C709 C713 1.376 . S
C710 C708 1.394 . S
C710 C711 1.369 . S
C710 C714 1.531 . S
C711 C710 1.369 . S
C711 C712 1.410 . S
C711 C719 1.503 . S
C712 C711 1.410 . S
C712 C713 1.392 . S
C712 C715 1.511 . S
C713 C709 1.376 . S
C713 C712 1.392 . S
C713 H725 0.929 . S
C714 C710 1.531 . S
C714 H726 0.960 . S
C714 H727 0.962 . S
C714 H728 0.960 . S
C715 C712 1.511 . S
C715 H729 0.961 . S
C715 H730 0.961 . S
C715 H731 0.961 . S
C716 C717 1.370 . S
C716 C718 1.363 . S
C716 H732 0.931 . S
C717 C716 1.370 . S
C717 C721 1.408 . S
C718 C716 1.363 . S
C718 C719 1.370 . S
C718 C722 1.524 . S
C719 C711 1.503 . S
C719 C718 1.370 . S
C719 C720 1.403 . S
C720 C719 1.403 . S
C720 C721 1.404 . S
C720 C723 1.539 . S
C721 C717 1.408 . S
C721 C720 1.404 . S
C721 H733 0.930 . S
C722 C718 1.524 . S
C722 H734 0.956 . S
C722 H735 0.961 . S
C722 H736 0.961 . S
C723 C720 1.539 . S
C723 H737 0.958 . S
C723 H738 0.961 . S
C723 H739 0.960 . S
H724 C708 0.931 . S
H725 C713 0.929 . S
H726 C714 0.960 . S
H727 C714 0.962 . S
H728 C714 0.960 . S
H729 C715 0.961 . S
H730 C715 0.961 . S
H731 C715 0.961 . S
H732 C716 0.931 . S
H733 C721 0.930 . S
H734 C722 0.956 . S
H735 C722 0.961 . S
H736 C722 0.961 . S
H737 C723 0.958 . S
H738 C723 0.961 . S
H739 C723 0.960 . S
C740 C741 1.391 . S
C740 C742 1.394 . S
C740 H756 0.931 . S
C741 C740 1.391 . S
C741 C745 1.376 . S
C742 C740 1.394 . S
C742 C743 1.369 . S
C742 C746 1.531 . S
C743 C742 1.369 . S
C743 C744 1.410 . S
C743 C751 1.503 . S
C744 C743 1.410 . S
C744 C745 1.392 . S
C744 C747 1.511 . S
C745 C741 1.376 . S
C745 C744 1.392 . S
C745 H757 0.929 . S
C746 C742 1.531 . S
C746 H758 0.960 . S
C746 H759 0.962 . S
C746 H760 0.960 . S
C747 C744 1.511 . S
C747 H761 0.961 . S
C747 H762 0.961 . S
C747 H763 0.961 . S
C748 C749 1.370 . S
C748 C750 1.363 . S
C748 H764 0.931 . S
C749 C748 1.370 . S
C749 C753 1.408 . S
C750 C748 1.363 . S
C750 C751 1.370 . S
C750 C754 1.524 . S
C751 C743 1.503 . S
C751 C750 1.370 . S
C751 C752 1.403 . S
C752 C751 1.403 . S
C752 C753 1.404 . S
C752 C755 1.539 . S
C753 C749 1.408 . S
C753 C752 1.404 . S
C753 H765 0.930 . S
C754 C750 1.524 . S
C754 H766 0.956 . S
C754 H767 0.961 . S
C754 H768 0.961 . S
C755 C752 1.539 . S
C755 H769 0.958 . S
C755 H770 0.961 . S
C755 H771 0.960 . S
H756 C740 0.931 . S
H757 C745 0.929 . S
H758 C746 0.960 . S
H759 C746 0.962 . S
H760 C746 0.960 . S
H761 C747 0.961 . S
H762 C747 0.961 . S
H763 C747 0.961 . S
H764 C748 0.931 . S
H765 C753 0.930 . S
H766 C754 0.956 . S
H767 C754 0.961 . S
H768 C754 0.961 . S
H769 C755 0.958 . S
H770 C755 0.961 . S
H771 C755 0.960 . S
C772 C773 1.391 . S
C772 C774 1.394 . S
C772 H788 0.931 . S
C773 C772 1.391 . S
C773 C777 1.376 . S
C774 C772 1.394 . S
C774 C775 1.369 . S
C774 C778 1.531 . S
C775 C774 1.369 . S
C775 C776 1.410 . S
C775 C783 1.503 . S
C776 C775 1.410 . S
C776 C777 1.392 . S
C776 C779 1.511 . S
C777 C773 1.376 . S
C777 C776 1.392 . S
C777 H789 0.929 . S
C778 C774 1.531 . S
C778 H790 0.960 . S
C778 H791 0.962 . S
C778 H792 0.960 . S
C779 C776 1.511 . S
C779 H793 0.961 . S
C779 H794 0.961 . S
C779 H795 0.961 . S
C780 C781 1.370 . S
C780 C782 1.363 . S
C780 H796 0.931 . S
C781 C780 1.370 . S
C781 C785 1.408 . S
C782 C780 1.363 . S
C782 C783 1.370 . S
C782 C786 1.524 . S
C783 C775 1.503 . S
C783 C782 1.370 . S
C783 C784 1.403 . S
C784 C783 1.403 . S
C784 C785 1.404 . S
C784 C787 1.539 . S
C785 C781 1.408 . S
C785 C784 1.404 . S
C785 H797 0.930 . S
C786 C782 1.524 . S
C786 H798 0.956 . S
C786 H799 0.961 . S
C786 H800 0.961 . S
C787 C784 1.539 . S
C787 H801 0.958 . S
C787 H802 0.961 . S
C787 H803 0.960 . S
H788 C772 0.931 . S
H789 C777 0.929 . S
H790 C778 0.960 . S
H791 C778 0.962 . S
H792 C778 0.960 . S
H793 C779 0.961 . S
H794 C779 0.961 . S
H795 C779 0.961 . S
H796 C780 0.931 . S
H797 C785 0.930 . S
H798 C786 0.956 . S
H799 C786 0.961 . S
H800 C786 0.961 . S
H801 C787 0.958 . S
H802 C787 0.961 . S
H803 C787 0.960 . S
C804 C805 1.391 . S
C804 C806 1.394 . S
C804 H820 0.931 . S
C805 C804 1.391 . S
C805 C809 1.376 . S
C806 C804 1.394 . S
C806 C807 1.369 . S
C806 C810 1.531 . S
C807 C806 1.369 . S
C807 C808 1.410 . S
C807 C815 1.503 . S
C808 C807 1.410 . S
C808 C809 1.392 . S
C808 C811 1.511 . S
C809 C805 1.376 . S
C809 C808 1.392 . S
C809 H821 0.929 . S
C810 C806 1.531 . S
C810 H822 0.960 . S
C810 H823 0.962 . S
C810 H824 0.960 . S
C811 C808 1.511 . S
C811 H825 0.961 . S
C811 H826 0.961 . S
C811 H827 0.961 . S
C812 C813 1.370 . S
C812 C814 1.363 . S
C812 H828 0.931 . S
C813 C812 1.370 . S
C813 C817 1.408 . S
C814 C812 1.363 . S
C814 C815 1.370 . S
C814 C818 1.524 . S
C815 C807 1.503 . S
C815 C814 1.370 . S
C815 C816 1.403 . S
C816 C815 1.403 . S
C816 C817 1.404 . S
C816 C819 1.539 . S
C817 C813 1.408 . S
C817 C816 1.404 . S
C817 H829 0.930 . S
C818 C814 1.524 . S
C818 H830 0.956 . S
C818 H831 0.961 . S
C818 H832 0.961 . S
C819 C816 1.539 . S
C819 H833 0.958 . S
C819 H834 0.961 . S
C819 H835 0.960 . S
H820 C804 0.931 . S
H821 C809 0.929 . S
H822 C810 0.960 . S
H823 C810 0.962 . S
H824 C810 0.960 . S
H825 C811 0.961 . S
H826 C811 0.961 . S
H827 C811 0.961 . S
H828 C812 0.931 . S
H829 C817 0.930 . S
H830 C818 0.956 . S
H831 C818 0.961 . S
H832 C818 0.961 . S
H833 C819 0.958 . S
H834 C819 0.961 . S
H835 C819 0.960 . S
C836 C837 1.391 . S
C836 C838 1.394 . S
C836 H852 0.931 . S
C837 C836 1.391 . S
C837 C841 1.376 . S
C838 C836 1.394 . S
C838 C839 1.369 1_554 S
C838 C842 1.531 1_554 S
C839 C838 1.369 1_556 S
C839 C840 1.410 1_556 S
C839 C847 1.503 . S
C840 C839 1.410 1_554 S
C840 C841 1.392 . S
C840 C843 1.511 1_554 S
C841 C837 1.376 . S
C841 C840 1.392 . S
C841 H853 0.929 . S
C842 C838 1.531 1_556 S
C842 H854 0.960 . S
C842 H855 0.962 . S
C842 H856 0.960 1_556 S
C843 C840 1.511 1_556 S
C843 H857 0.961 . S
C843 H858 0.961 . S
C843 H859 0.961 . S
C844 C845 1.370 . S
C844 C846 1.363 . S
C844 H860 0.931 . S
C845 C844 1.370 . S
C845 C849 1.408 . S
C846 C844 1.363 . S
C846 C847 1.370 . S
C846 C850 1.524 . S
C847 C839 1.503 . S
C847 C846 1.370 . S
C847 C848 1.403 . S
C848 C847 1.403 . S
C848 C849 1.404 . S
C848 C851 1.539 . S
C849 C845 1.408 . S
C849 C848 1.404 . S
C849 H861 0.930 . S
C850 C846 1.524 . S
C850 H862 0.956 . S
C850 H863 0.961 . S
C850 H864 0.961 . S
C851 C848 1.539 . S
C851 H865 0.958 . S
C851 H866 0.961 . S
C851 H867 0.960 . S
H852 C836 0.931 . S
H853 C841 0.929 . S
H854 C842 0.960 . S
H855 C842 0.962 . S
H856 C842 0.960 1_554 S
H857 C843 0.961 . S
H858 C843 0.961 . S
H859 C843 0.961 . S
H860 C844 0.931 . S
H861 C849 0.930 . S
H862 C850 0.956 . S
H863 C850 0.961 . S
H864 C850 0.961 . S
H865 C851 0.958 . S
H866 C851 0.961 . S
H867 C851 0.960 . S
C868 C869 1.391 . S
C868 C870 1.394 . S
C868 H884 0.931 . S
C869 C868 1.391 . S
C869 C873 1.376 . S
C870 C868 1.394 . S
C870 C871 1.369 . S
C870 C874 1.531 . S
C871 C870 1.369 . S
C871 C872 1.410 . S
C871 C879 1.503 . S
C872 C871 1.410 . S
C872 C873 1.392 . S
C872 C875 1.511 . S
C873 C869 1.376 . S
C873 C872 1.392 . S
C873 H885 0.929 . S
C874 C870 1.531 . S
C874 H886 0.960 . S
C874 H887 0.962 . S
C874 H888 0.960 . S
C875 C872 1.511 . S
C875 H889 0.961 . S
C875 H890 0.961 . S
C875 H891 0.961 . S
C876 C877 1.370 . S
C876 C878 1.363 . S
C876 H892 0.931 . S
C877 C876 1.370 . S
C877 C881 1.408 . S
C878 C876 1.363 . S
C878 C879 1.370 . S
C878 C882 1.524 . S
C879 C871 1.503 . S
C879 C878 1.370 . S
C879 C880 1.403 . S
C880 C879 1.403 . S
C880 C881 1.404 . S
C880 C883 1.539 . S
C881 C877 1.408 . S
C881 C880 1.404 . S
C881 H893 0.930 . S
C882 C878 1.524 . S
C882 H894 0.956 . S
C882 H895 0.961 . S
C882 H896 0.961 . S
C883 C880 1.539 . S
C883 H897 0.958 . S
C883 H898 0.961 . S
C883 H899 0.960 . S
H884 C868 0.931 . S
H885 C873 0.929 . S
H886 C874 0.960 . S
H887 C874 0.962 . S
H888 C874 0.960 . S
H889 C875 0.961 . S
H890 C875 0.961 . S
H891 C875 0.961 . S
H892 C876 0.931 . S
H893 C881 0.930 . S
H894 C882 0.956 . S
H895 C882 0.961 . S
H896 C882 0.961 . S
H897 C883 0.958 . S
H898 C883 0.961 . S
H899 C883 0.960 . S
C900 C901 1.391 . S
C900 C902 1.394 . S
C900 H916 0.931 . S
C901 C900 1.391 . S
C901 C905 1.376 . S
C902 C900 1.394 . S
C902 C903 1.369 . S
C902 C906 1.531 . S
C903 C902 1.369 . S
C903 C904 1.410 . S
C903 C911 1.503 . S
C904 C903 1.410 . S
C904 C905 1.392 . S
C904 C907 1.511 . S
C905 C901 1.376 . S
C905 C904 1.392 . S
C905 H917 0.929 . S
C906 C902 1.531 . S
C906 H918 0.960 . S
C906 H919 0.962 . S
C906 H920 0.960 . S
C907 C904 1.511 . S
C907 H921 0.961 . S
C907 H922 0.961 . S
C907 H923 0.961 . S
C908 C909 1.370 . S
C908 C910 1.363 . S
C908 H924 0.931 . S
C909 C908 1.370 . S
C909 C913 1.408 . S
C910 C908 1.363 . S
C910 C911 1.370 . S
C910 C914 1.524 . S
C911 C903 1.503 . S
C911 C910 1.370 . S
C911 C912 1.403 . S
C912 C911 1.403 . S
C912 C913 1.404 . S
C912 C915 1.539 . S
C913 C909 1.408 . S
C913 C912 1.404 . S
C913 H925 0.930 . S
C914 C910 1.524 . S
C914 H926 0.956 . S
C914 H927 0.961 . S
C914 H928 0.961 . S
C915 C912 1.539 . S
C915 H929 0.958 . S
C915 H930 0.961 . S
C915 H931 0.960 . S
H916 C900 0.931 . S
H917 C905 0.929 . S
H918 C906 0.960 . S
H919 C906 0.962 . S
H920 C906 0.960 . S
H921 C907 0.961 . S
H922 C907 0.961 . S
H923 C907 0.961 . S
H924 C908 0.931 . S
H925 C913 0.930 . S
H926 C914 0.956 . S
H927 C914 0.961 . S
H928 C914 0.961 . S
H929 C915 0.958 . S
H930 C915 0.961 . S
H931 C915 0.960 . S
C932 C933 1.391 . S
C932 C934 1.394 . S
C932 H948 0.931 . S
C933 C932 1.391 . S
C933 C937 1.376 . S
C934 C932 1.394 . S
C934 C935 1.369 . S
C934 C938 1.531 . S
C935 C934 1.369 . S
C935 C936 1.410 . S
C935 C943 1.503 . S
C936 C935 1.410 . S
C936 C937 1.392 . S
C936 C939 1.511 . S
C937 C933 1.376 . S
C937 C936 1.392 . S
C937 H949 0.929 . S
C938 C934 1.531 . S
C938 H950 0.960 . S
C938 H951 0.962 . S
C938 H952 0.960 . S
C939 C936 1.511 . S
C939 H953 0.961 . S
C939 H954 0.961 . S
C939 H955 0.961 . S
C940 C941 1.370 . S
C940 C942 1.363 . S
C940 H956 0.931 . S
C941 C940 1.370 . S
C941 C945 1.408 . S
C942 C940 1.363 . S
C942 C943 1.370 . S
C942 C946 1.524 . S
C943 C935 1.503 . S
C943 C942 1.370 . S
C943 C944 1.403 . S
C944 C943 1.403 . S
C944 C945 1.404 . S
C944 C947 1.539 . S
C945 C941 1.408 . S
C945 C944 1.404 . S
C945 H957 0.930 . S
C946 C942 1.524 . S
C946 H958 0.956 . S
C946 H959 0.961 . S
C946 H960 0.961 . S
C947 C944 1.539 . S
C947 H961 0.958 . S
C947 H962 0.961 . S
C947 H963 0.960 . S
H948 C932 0.931 . S
H949 C937 0.929 . S
H950 C938 0.960 . S
H951 C938 0.962 . S
H952 C938 0.960 . S
H953 C939 0.961 . S
H954 C939 0.961 . S
H955 C939 0.961 . S
H956 C940 0.931 . S
H957 C945 0.930 . S
H958 C946 0.956 . S
H959 C946 0.961 . S
H960 C946 0.961 . S
H961 C947 0.958 . S
H962 C947 0.961 . S
H963 C947 0.960 . S
C964 C965 1.391 . S
C964 C966 1.394 . S
C964 H980 0.931 . S
C965 C964 1.391 . S
C965 C969 1.376 . S
C966 C964 1.394 . S
C966 C967 1.369 . S
C966 C970 1.531 . S
C967 C966 1.369 . S
C967 C968 1.410 . S
C967 C975 1.503 . S
C968 C967 1.410 . S
C968 C969 1.392 . S
C968 C971 1.511 . S
C969 C965 1.376 . S
C969 C968 1.392 . S
C969 H981 0.929 . S
C970 C966 1.531 . S
C970 H982 0.960 . S
C970 H983 0.962 . S
C970 H984 0.960 . S
C971 C968 1.511 . S
C971 H985 0.961 . S
C971 H986 0.961 . S
C971 H987 0.961 . S
C972 C973 1.370 . S
C972 C974 1.363 . S
C972 H988 0.931 . S
C973 C972 1.370 . S
C973 C977 1.408 . S
C974 C972 1.363 . S
C974 C975 1.370 . S
C974 C978 1.524 . S
C975 C967 1.503 . S
C975 C974 1.370 . S
C975 C976 1.403 . S
C976 C975 1.403 . S
C976 C977 1.404 . S
C976 C979 1.539 . S
C977 C973 1.408 . S
C977 C976 1.404 . S
C977 H989 0.930 . S
C978 C974 1.524 . S
C978 H990 0.956 . S
C978 H991 0.961 . S
C978 H992 0.961 . S
C979 C976 1.539 . S
C979 H993 0.958 . S
C979 H994 0.961 . S
C979 H995 0.960 . S
H980 C964 0.931 . S
H981 C969 0.929 . S
H982 C970 0.960 . S
H983 C970 0.962 . S
H984 C970 0.960 . S
H985 C971 0.961 . S
H986 C971 0.961 . S
H987 C971 0.961 . S
H988 C972 0.931 . S
H989 C977 0.930 . S
H990 C978 0.956 . S
H991 C978 0.961 . S
H992 C978 0.961 . S
H993 C979 0.958 . S
H994 C979 0.961 . S
H995 C979 0.960 . S
C996 C997 1.391 . S
C996 C998 1.394 . S
C996 H1012 0.931 . S
C997 C996 1.391 . S
C997 C1001 1.376 . S
C998 C996 1.394 . S
C998 C999 1.369 . S
C998 C1002 1.531 . S
C999 C998 1.369 . S
C999 C1000 1.410 . S
C999 C1007 1.503 . S
C1000 C999 1.410 . S
C1000 C1001 1.392 . S
C1000 C1003 1.511 . S
C1001 C997 1.376 . S
C1001 C1000 1.392 . S
C1001 H1013 0.929 . S
C1002 C998 1.531 . S
C1002 H1014 0.960 . S
C1002 H1015 0.962 . S
C1002 H1016 0.960 . S
C1003 C1000 1.511 . S
C1003 H1017 0.961 . S
C1003 H1018 0.961 . S
C1003 H1019 0.961 . S
C1004 C1005 1.370 . S
C1004 C1006 1.363 . S
C1004 H1020 0.931 . S
C1005 C1004 1.370 . S
C1005 C1009 1.408 . S
C1006 C1004 1.363 . S
C1006 C1007 1.370 . S
C1006 C1010 1.524 . S
C1007 C999 1.503 . S
C1007 C1006 1.370 . S
C1007 C1008 1.403 . S
C1008 C1007 1.403 . S
C1008 C1009 1.404 . S
C1008 C1011 1.539 . S
C1009 C1005 1.408 . S
C1009 C1008 1.404 . S
C1009 H1021 0.930 . S
C1010 C1006 1.524 . S
C1010 H1022 0.956 . S
C1010 H1023 0.961 . S
C1010 H1024 0.961 . S
C1011 C1008 1.539 . S
C1011 H1025 0.958 . S
C1011 H1026 0.961 . S
C1011 H1027 0.960 . S
H1012 C996 0.931 . S
H1013 C1001 0.929 . S
H1014 C1002 0.960 . S
H1015 C1002 0.962 . S
H1016 C1002 0.960 . S
H1017 C1003 0.961 . S
H1018 C1003 0.961 . S
H1019 C1003 0.961 . S
H1020 C1004 0.931 . S
H1021 C1009 0.930 . S
H1022 C1010 0.956 . S
H1023 C1010 0.961 . S
H1024 C1010 0.961 . S
H1025 C1011 0.958 . S
H1026 C1011 0.961 . S
H1027 C1011 0.960 . S
C1028 C1029 1.391 . S
C1028 C1030 1.394 . S
C1028 H1044 0.931 . S
C1029 C1028 1.391 . S
C1029 C1033 1.376 . S
C1030 C1028 1.394 . S
C1030 C1031 1.369 . S
C1030 C1034 1.531 . S
C1031 C1030 1.369 . S
C1031 C1032 1.410 . S
C1031 C1039 1.503 . S
C1032 C1031 1.410 . S
C1032 C1033 1.392 . S
C1032 C1035 1.511 . S
C1033 C1029 1.376 . S
C1033 C1032 1.392 . S
C1033 H1045 0.929 . S
C1034 C1030 1.531 . S
C1034 H1046 0.960 . S
C1034 H1047 0.962 . S
C1034 H1048 0.960 . S
C1035 C1032 1.511 . S
C1035 H1049 0.961 . S
C1035 H1050 0.961 . S
C1035 H1051 0.961 . S
C1036 C1037 1.370 . S
C1036 C1038 1.363 . S
C1036 H1052 0.931 . S
C1037 C1036 1.370 . S
C1037 C1041 1.408 . S
C1038 C1036 1.363 . S
C1038 C1039 1.370 . S
C1038 C1042 1.524 . S
C1039 C1031 1.503 . S
C1039 C1038 1.370 . S
C1039 C1040 1.403 . S
C1040 C1039 1.403 . S
C1040 C1041 1.404 . S
C1040 C1043 1.539 . S
C1041 C1037 1.408 . S
C1041 C1040 1.404 . S
C1041 H1053 0.930 . S
C1042 C1038 1.524 . S
C1042 H1054 0.956 . S
C1042 H1055 0.961 . S
C1042 H1056 0.961 . S
C1043 C1040 1.539 . S
C1043 H1057 0.958 . S
C1043 H1058 0.961 . S
C1043 H1059 0.960 . S
H1044 C1028 0.931 . S
H1045 C1033 0.929 . S
H1046 C1034 0.960 . S
H1047 C1034 0.962 . S
H1048 C1034 0.960 . S
H1049 C1035 0.961 . S
H1050 C1035 0.961 . S
H1051 C1035 0.961 . S
H1052 C1036 0.931 . S
H1053 C1041 0.930 . S
H1054 C1042 0.956 . S
H1055 C1042 0.961 . S
H1056 C1042 0.961 . S
H1057 C1043 0.958 . S
H1058 C1043 0.961 . S
H1059 C1043 0.960 . S
C1060 C1061 1.391 . S
C1060 C1062 1.394 . S
C1060 H1076 0.931 . S
C1061 C1060 1.391 . S
C1061 C1065 1.376 . S
C1062 C1060 1.394 . S
C1062 C1063 1.369 . S
C1062 C1066 1.531 1_556 S
C1063 C1062 1.369 . S
C1063 C1064 1.410 . S
C1063 C1071 1.503 . S
C1064 C1063 1.410 . S
C1064 C1065 1.392 . S
C1064 C1067 1.511 . S
C1065 C1061 1.376 . S
C1065 C1064 1.392 . S
C1065 H1077 0.929 . S
C1066 C1062 1.531 1_554 S
C1066 H1078 0.960 1_554 S
C1066 H1079 0.962 . S
C1066 H1080 0.960 . S
C1067 C1064 1.511 . S
C1067 H1081 0.961 . S
C1067 H1082 0.961 . S
C1067 H1083 0.961 . S
C1068 C1069 1.370 1_554 S
C1068 C1070 1.363 1_554 S
C1068 H1084 0.931 . S
C1069 C1068 1.370 1_556 S
C1069 C1073 1.408 . S
C1070 C1068 1.363 1_556 S
C1070 C1071 1.370 . S
C1070 C1074 1.524 1_556 S
C1071 C1063 1.503 . S
C1071 C1070 1.370 . S
C1071 C1072 1.403 . S
C1072 C1071 1.403 . S
C1072 C1073 1.404 . S
C1072 C1075 1.539 . S
C1073 C1069 1.408 . S
C1073 C1072 1.404 . S
C1073 H1085 0.930 . S
C1074 C1070 1.524 1_554 S
C1074 H1086 0.956 . S
C1074 H1087 0.961 1_554 S
C1074 H1088 0.961 . S
C1075 C1072 1.539 . S
C1075 H1089 0.958 . S
C1075 H1090 0.961 . S
C1075 H1091 0.960 . S
H1076 C1060 0.931 . S
H1077 C1065 0.929 . S
H1078 C1066 0.960 1_556 S
H1079 C1066 0.962 . S
H1080 C1066 0.960 . S
H1081 C1067 0.961 . S
H1082 C1067 0.961 . S
H1083 C1067 0.961 . S
H1084 C1068 0.931 . S
H1085 C1073 0.930 . S
H1086 C1074 0.956 . S
H1087 C1074 0.961 1_556 S
H1088 C1074 0.961 . S
H1089 C1075 0.958 . S
H1090 C1075 0.961 . S
H1091 C1075 0.960 . S
C1092 C1093 1.391 . S
C1092 C1094 1.394 . S
C1092 H1108 0.931 . S
C1093 C1092 1.391 . S
C1093 C1097 1.376 . S
C1094 C1092 1.394 . S
C1094 C1095 1.369 . S
C1094 C1098 1.531 . S
C1095 C1094 1.369 . S
C1095 C1096 1.410 . S
C1095 C1103 1.503 . S
C1096 C1095 1.410 . S
C1096 C1097 1.392 . S
C1096 C1099 1.511 . S
C1097 C1093 1.376 . S
C1097 C1096 1.392 . S
C1097 H1109 0.929 . S
C1098 C1094 1.531 . S
C1098 H1110 0.960 . S
C1098 H1111 0.962 . S
C1098 H1112 0.960 . S
C1099 C1096 1.511 . S
C1099 H1113 0.961 . S
C1099 H1114 0.961 . S
C1099 H1115 0.961 . S
C1100 C1101 1.370 . S
C1100 C1102 1.363 . S
C1100 H1116 0.931 . S
C1101 C1100 1.370 . S
C1101 C1105 1.408 . S
C1102 C1100 1.363 . S
C1102 C1103 1.370 . S
C1102 C1106 1.524 . S
C1103 C1095 1.503 . S
C1103 C1102 1.370 . S
C1103 C1104 1.403 . S
C1104 C1103 1.403 . S
C1104 C1105 1.404 . S
C1104 C1107 1.539 . S
C1105 C1101 1.408 . S
C1105 C1104 1.404 . S
C1105 H1117 0.930 . S
C1106 C1102 1.524 . S
C1106 H1118 0.956 . S
C1106 H1119 0.961 . S
C1106 H1120 0.961 . S
C1107 C1104 1.539 . S
C1107 H1121 0.958 . S
C1107 H1122 0.961 . S
C1107 H1123 0.960 . S
H1108 C1092 0.931 . S
H1109 C1097 0.929 . S
H1110 C1098 0.960 . S
H1111 C1098 0.962 . S
H1112 C1098 0.960 . S
H1113 C1099 0.961 . S
H1114 C1099 0.961 . S
H1115 C1099 0.961 . S
H1116 C1100 0.931 . S
H1117 C1105 0.930 . S
H1118 C1106 0.956 . S
H1119 C1106 0.961 . S
H1120 C1106 0.961 . S
H1121 C1107 0.958 . S
H1122 C1107 0.961 . S
H1123 C1107 0.960 . S
C1124 C1125 1.391 . S
C1124 C1126 1.394 . S
C1124 H1140 0.931 . S
C1125 C1124 1.391 . S
C1125 C1129 1.376 . S
C1126 C1124 1.394 . S
C1126 C1127 1.369 . S
C1126 C1130 1.531 . S
C1127 C1126 1.369 . S
C1127 C1128 1.410 . S
C1127 C1135 1.503 . S
C1128 C1127 1.410 . S
C1128 C1129 1.392 . S
C1128 C1131 1.511 . S
C1129 C1125 1.376 . S
C1129 C1128 1.392 . S
C1129 H1141 0.929 . S
C1130 C1126 1.531 . S
C1130 H1142 0.960 . S
C1130 H1143 0.962 . S
C1130 H1144 0.960 . S
C1131 C1128 1.511 . S
C1131 H1145 0.961 . S
C1131 H1146 0.961 . S
C1131 H1147 0.961 . S
C1132 C1133 1.370 . S
C1132 C1134 1.363 1_554 S
C1132 H1148 0.931 . S
C1133 C1132 1.370 . S
C1133 C1137 1.408 . S
C1134 C1132 1.363 1_556 S
C1134 C1135 1.370 . S
C1134 C1138 1.524 . S
C1135 C1127 1.503 . S
C1135 C1134 1.370 . S
C1135 C1136 1.403 1_556 S
C1136 C1135 1.403 1_554 S
C1136 C1137 1.404 . S
C1136 C1139 1.539 . S
C1137 C1133 1.408 . S
C1137 C1136 1.404 . S
C1137 H1149 0.930 . S
C1138 C1134 1.524 . S
C1138 H1150 0.956 . S
C1138 H1151 0.961 . S
C1138 H1152 0.961 . S
C1139 C1136 1.539 . S
C1139 H1153 0.958 . S
C1139 H1154 0.961 . S
C1139 H1155 0.960 1_554 S
H1140 C1124 0.931 . S
H1141 C1129 0.929 . S
H1142 C1130 0.960 . S
H1143 C1130 0.962 . S
H1144 C1130 0.960 . S
H1145 C1131 0.961 . S
H1146 C1131 0.961 . S
H1147 C1131 0.961 . S
H1148 C1132 0.931 . S
H1149 C1137 0.930 . S
H1150 C1138 0.956 . S
H1151 C1138 0.961 . S
H1152 C1138 0.961 . S
H1153 C1139 0.958 . S
H1154 C1139 0.961 . S
H1155 C1139 0.960 1_556 S
C1156 C1157 1.391 . S
C1156 C1158 1.394 . S
C1156 H1172 0.931 . S
C1157 C1156 1.391 . S
C1157 C1161 1.376 . S
C1158 C1156 1.394 . S
C1158 C1159 1.369 . S
C1158 C1162 1.531 . S
C1159 C1158 1.369 . S
C1159 C1160 1.410 . S
C1159 C1167 1.503 . S
C1160 C1159 1.410 . S
C1160 C1161 1.392 . S
C1160 C1163 1.511 . S
C1161 C1157 1.376 . S
C1161 C1160 1.392 . S
C1161 H1173 0.929 . S
C1162 C1158 1.531 . S
C1162 H1174 0.960 . S
C1162 H1175 0.962 . S
C1162 H1176 0.960 . S
C1163 C1160 1.511 . S
C1163 H1177 0.961 . S
C1163 H1178 0.961 . S
C1163 H1179 0.961 . S
C1164 C1165 1.370 . S
C1164 C1166 1.363 . S
C1164 H1180 0.931 . S
C1165 C1164 1.370 . S
C1165 C1169 1.408 . S
C1166 C1164 1.363 . S
C1166 C1167 1.370 . S
C1166 C1170 1.524 . S
C1167 C1159 1.503 . S
C1167 C1166 1.370 . S
C1167 C1168 1.403 . S
C1168 C1167 1.403 . S
C1168 C1169 1.404 . S
C1168 C1171 1.539 . S
C1169 C1165 1.408 . S
C1169 C1168 1.404 . S
C1169 H1181 0.930 . S
C1170 C1166 1.524 . S
C1170 H1182 0.956 . S
C1170 H1183 0.961 . S
C1170 H1184 0.961 . S
C1171 C1168 1.539 . S
C1171 H1185 0.958 . S
C1171 H1186 0.961 . S
C1171 H1187 0.960 . S
H1172 C1156 0.931 . S
H1173 C1161 0.929 . S
H1174 C1162 0.960 . S
H1175 C1162 0.962 . S
H1176 C1162 0.960 . S
H1177 C1163 0.961 . S
H1178 C1163 0.961 . S
H1179 C1163 0.961 . S
H1180 C1164 0.931 . S
H1181 C1169 0.930 . S
H1182 C1170 0.956 . S
H1183 C1170 0.961 . S
H1184 C1170 0.961 . S
H1185 C1171 0.958 . S
H1186 C1171 0.961 . S
H1187 C1171 0.960 . S
C1188 C1189 1.391 . S
C1188 C1190 1.394 . S
C1188 H1204 0.931 . S
C1189 C1188 1.391 . S
C1189 C1193 1.376 . S
C1190 C1188 1.394 . S
C1190 C1191 1.369 . S
C1190 C1194 1.531 . S
C1191 C1190 1.369 . S
C1191 C1192 1.410 . S
C1191 C1199 1.503 . S
C1192 C1191 1.410 . S
C1192 C1193 1.392 . S
C1192 C1195 1.511 . S
C1193 C1189 1.376 . S
C1193 C1192 1.392 . S
C1193 H1205 0.929 . S
C1194 C1190 1.531 . S
C1194 H1206 0.960 . S
C1194 H1207 0.962 . S
C1194 H1208 0.960 . S
C1195 C1192 1.511 . S
C1195 H1209 0.961 . S
C1195 H1210 0.961 . S
C1195 H1211 0.961 . S
C1196 C1197 1.370 . S
C1196 C1198 1.363 . S
C1196 H1212 0.931 . S
C1197 C1196 1.370 . S
C1197 C1201 1.408 . S
C1198 C1196 1.363 . S
C1198 C1199 1.370 . S
C1198 C1202 1.524 . S
C1199 C1191 1.503 . S
C1199 C1198 1.370 . S
C1199 C1200 1.403 . S
C1200 C1199 1.403 . S
C1200 C1201 1.404 . S
C1200 C1203 1.539 . S
C1201 C1197 1.408 . S
C1201 C1200 1.404 . S
C1201 H1213 0.930 . S
C1202 C1198 1.524 . S
C1202 H1214 0.956 . S
C1202 H1215 0.961 . S
C1202 H1216 0.961 . S
C1203 C1200 1.539 . S
C1203 H1217 0.958 . S
C1203 H1218 0.961 . S
C1203 H1219 0.960 . S
H1204 C1188 0.931 . S
H1205 C1193 0.929 . S
H1206 C1194 0.960 . S
H1207 C1194 0.962 . S
H1208 C1194 0.960 . S
H1209 C1195 0.961 . S
H1210 C1195 0.961 . S
H1211 C1195 0.961 . S
H1212 C1196 0.931 . S
H1213 C1201 0.930 . S
H1214 C1202 0.956 . S
H1215 C1202 0.961 . S
H1216 C1202 0.961 . S
H1217 C1203 0.958 . S
H1218 C1203 0.961 . S
H1219 C1203 0.960 . S
C1220 C1221 1.391 . S
C1220 C1222 1.394 . S
C1220 H1236 0.931 . S
C1221 C1220 1.391 . S
C1221 C1225 1.376 . S
C1222 C1220 1.394 . S
C1222 C1223 1.369 . S
C1222 C1226 1.531 . S
C1223 C1222 1.369 . S
C1223 C1224 1.410 . S
C1223 C1231 1.503 . S
C1224 C1223 1.410 . S
C1224 C1225 1.392 . S
C1224 C1227 1.511 . S
C1225 C1221 1.376 . S
C1225 C1224 1.392 . S
C1225 H1237 0.929 . S
C1226 C1222 1.531 . S
C1226 H1238 0.960 . S
C1226 H1239 0.962 . S
C1226 H1240 0.960 . S
C1227 C1224 1.511 . S
C1227 H1241 0.961 . S
C1227 H1242 0.961 . S
C1227 H1243 0.961 . S
C1228 C1229 1.370 . S
C1228 C1230 1.363 . S
C1228 H1244 0.931 . S
C1229 C1228 1.370 . S
C1229 C1233 1.408 . S
C1230 C1228 1.363 . S
C1230 C1231 1.370 . S
C1230 C1234 1.524 . S
C1231 C1223 1.503 . S
C1231 C1230 1.370 . S
C1231 C1232 1.403 . S
C1232 C1231 1.403 . S
C1232 C1233 1.404 . S
C1232 C1235 1.539 . S
C1233 C1229 1.408 . S
C1233 C1232 1.404 . S
C1233 H1245 0.930 . S
C1234 C1230 1.524 . S
C1234 H1246 0.956 . S
C1234 H1247 0.961 . S
C1234 H1248 0.961 . S
C1235 C1232 1.539 . S
C1235 H1249 0.958 . S
C1235 H1250 0.961 . S
C1235 H1251 0.960 . S
H1236 C1220 0.931 . S
H1237 C1225 0.929 . S
H1238 C1226 0.960 . S
H1239 C1226 0.962 . S
H1240 C1226 0.960 . S
H1241 C1227 0.961 . S
H1242 C1227 0.961 . S
H1243 C1227 0.961 . S
H1244 C1228 0.931 . S
H1245 C1233 0.930 . S
H1246 C1234 0.956 . S
H1247 C1234 0.961 . S
H1248 C1234 0.961 . S
H1249 C1235 0.958 . S
H1250 C1235 0.961 . S
H1251 C1235 0.960 . S
C1252 C1253 1.391 . S
C1252 C1254 1.394 . S
C1252 H1268 0.931 . S
C1253 C1252 1.391 . S
C1253 C1257 1.376 . S
C1254 C1252 1.394 . S
C1254 C1255 1.369 . S
C1254 C1258 1.531 . S
C1255 C1254 1.369 . S
C1255 C1256 1.410 . S
C1255 C1263 1.503 . S
C1256 C1255 1.410 . S
C1256 C1257 1.392 . S
C1256 C1259 1.511 . S
C1257 C1253 1.376 . S
C1257 C1256 1.392 . S
C1257 H1269 0.929 . S
C1258 C1254 1.531 . S
C1258 H1270 0.960 . S
C1258 H1271 0.962 . S
C1258 H1272 0.960 . S
C1259 C1256 1.511 . S
C1259 H1273 0.961 . S
C1259 H1274 0.961 . S
C1259 H1275 0.961 . S
C1260 C1261 1.370 . S
C1260 C1262 1.363 . S
C1260 H1276 0.931 . S
C1261 C1260 1.370 . S
C1261 C1265 1.408 . S
C1262 C1260 1.363 . S
C1262 C1263 1.370 . S
C1262 C1266 1.524 . S
C1263 C1255 1.503 . S
C1263 C1262 1.370 . S
C1263 C1264 1.403 . S
C1264 C1263 1.403 . S
C1264 C1265 1.404 . S
C1264 C1267 1.539 . S
C1265 C1261 1.408 . S
C1265 C1264 1.404 . S
C1265 H1277 0.930 . S
C1266 C1262 1.524 . S
C1266 H1278 0.956 . S
C1266 H1279 0.961 . S
C1266 H1280 0.961 . S
C1267 C1264 1.539 . S
C1267 H1281 0.958 . S
C1267 H1282 0.961 . S
C1267 H1283 0.960 . S
H1268 C1252 0.931 . S
H1269 C1257 0.929 . S
H1270 C1258 0.960 . S
H1271 C1258 0.962 . S
H1272 C1258 0.960 . S
H1273 C1259 0.961 . S
H1274 C1259 0.961 . S
H1275 C1259 0.961 . S
H1276 C1260 0.931 . S
H1277 C1265 0.930 . S
H1278 C1266 0.956 . S
H1279 C1266 0.961 . S
H1280 C1266 0.961 . S
H1281 C1267 0.958 . S
H1282 C1267 0.961 . S
H1283 C1267 0.960 . S
C1284 C1285 1.391 . S
C1284 C1286 1.394 . S
C1284 H1300 0.931 . S
C1285 C1284 1.391 . S
C1285 C1289 1.376 . S
C1286 C1284 1.394 . S
C1286 C1287 1.369 . S
C1286 C1290 1.531 . S
C1287 C1286 1.369 . S
C1287 C1288 1.410 . S
C1287 C1295 1.503 1_545 S
C1288 C1287 1.410 . S
C1288 C1289 1.392 . S
C1288 C1291 1.511 . S
C1289 C1285 1.376 . S
C1289 C1288 1.392 . S
C1289 H1301 0.929 . S
C1290 C1286 1.531 . S
C1290 H1302 0.960 1_545 S
C1290 H1303 0.962 1_554 S
C1290 H1304 0.960 . S
C1291 C1288 1.511 . S
C1291 H1305 0.961 . S
C1291 H1306 0.961 1_545 S
C1291 H1307 0.961 . S
C1292 C1293 1.370 1_556 S
C1292 C1294 1.363 1_556 S
C1292 H1308 0.931 . S
C1293 C1292 1.370 1_554 S
C1293 C1297 1.408 . S
C1294 C1292 1.363 1_554 S
C1294 C1295 1.370 . S
C1294 C1298 1.524 1_554 S
C1295 C1287 1.503 1_565 S
C1295 C1294 1.370 . S
C1295 C1296 1.403 . S
C1296 C1295 1.403 . S
C1296 C1297 1.404 . S
C1296 C1299 1.539 . S
C1297 C1293 1.408 . S
C1297 C1296 1.404 . S
C1297 H1309 0.930 . S
C1298 C1294 1.524 1_556 S
C1298 H1310 0.956 1_565 S
C1298 H1311 0.961 1_565 S
C1298 H1312 0.961 . S
C1299 C1296 1.539 . S
C1299 H1313 0.958 . S
C1299 H1314 0.961 . S
C1299 H1315 0.960 . S
H1300 C1284 0.931 . S
H1301 C1289 0.929 . S
H1302 C1290 0.960 1_565 S
H1303 C1290 0.962 1_556 S
H1304 C1290 0.960 . S
H1305 C1291 0.961 . S
H1306 C1291 0.961 1_565 S
H1307 C1291 0.961 . S
H1308 C1292 0.931 . S
H1309 C1297 0.930 . S
H1310 C1298 0.956 1_545 S
H1311 C1298 0.961 1_545 S
H1312 C1298 0.961 . S
H1313 C1299 0.958 . S
H1314 C1299 0.961 . S
H1315 C1299 0.960 . S
C1316 C1317 1.391 . S
C1316 C1318 1.394 . S
C1316 H1332 0.931 . S
C1317 C1316 1.391 . S
C1317 C1321 1.376 . S
C1318 C1316 1.394 . S
C1318 C1319 1.369 . S
C1318 C1322 1.531 . S
C1319 C1318 1.369 . S
C1319 C1320 1.410 . S
C1319 C1327 1.503 . S
C1320 C1319 1.410 . S
C1320 C1321 1.392 . S
C1320 C1323 1.511 . S
C1321 C1317 1.376 . S
C1321 C1320 1.392 . S
C1321 H1333 0.929 . S
C1322 C1318 1.531 . S
C1322 H1334 0.960 . S
C1322 H1335 0.962 . S
C1322 H1336 0.960 . S
C1323 C1320 1.511 . S
C1323 H1337 0.961 . S
C1323 H1338 0.961 . S
C1323 H1339 0.961 . S
C1324 C1325 1.370 . S
C1324 C1326 1.363 . S
C1324 H1340 0.931 . S
C1325 C1324 1.370 . S
C1325 C1329 1.408 . S
C1326 C1324 1.363 . S
C1326 C1327 1.370 . S
C1326 C1330 1.524 . S
C1327 C1319 1.503 . S
C1327 C1326 1.370 . S
C1327 C1328 1.403 . S
C1328 C1327 1.403 . S
C1328 C1329 1.404 . S
C1328 C1331 1.539 . S
C1329 C1325 1.408 . S
C1329 C1328 1.404 . S
C1329 H1341 0.930 . S
C1330 C1326 1.524 . S
C1330 H1342 0.956 . S
C1330 H1343 0.961 . S
C1330 H1344 0.961 . S
C1331 C1328 1.539 . S
C1331 H1345 0.958 . S
C1331 H1346 0.961 . S
C1331 H1347 0.960 . S
H1332 C1316 0.931 . S
H1333 C1321 0.929 . S
H1334 C1322 0.960 . S
H1335 C1322 0.962 . S
H1336 C1322 0.960 . S
H1337 C1323 0.961 . S
H1338 C1323 0.961 . S
H1339 C1323 0.961 . S
H1340 C1324 0.931 . S
H1341 C1329 0.930 . S
H1342 C1330 0.956 . S
H1343 C1330 0.961 . S
H1344 C1330 0.961 . S
H1345 C1331 0.958 . S
H1346 C1331 0.961 . S
H1347 C1331 0.960 . S
C1348 C1349 1.391 . S
C1348 C1350 1.394 . S
C1348 H1364 0.931 . S
C1349 C1348 1.391 . S
C1349 C1353 1.376 . S
C1350 C1348 1.394 . S
C1350 C1351 1.369 . S
C1350 C1354 1.531 . S
C1351 C1350 1.369 . S
C1351 C1352 1.410 . S
C1351 C1359 1.503 1_455 S
C1352 C1351 1.410 . S
C1352 C1353 1.392 . S
C1352 C1355 1.511 . S
C1353 C1349 1.376 . S
C1353 C1352 1.392 . S
C1353 H1365 0.929 . S
C1354 C1350 1.531 . S
C1354 H1366 0.960 . S
C1354 H1367 0.962 . S
C1354 H1368 0.960 . S
C1355 C1352 1.511 . S
C1355 H1369 0.961 . S
C1355 H1370 0.961 1_455 S
C1355 H1371 0.961 . S
C1356 C1357 1.370 . S
C1356 C1358 1.363 . S
C1356 H1372 0.931 . S
C1357 C1356 1.370 . S
C1357 C1361 1.408 . S
C1358 C1356 1.363 . S
C1358 C1359 1.370 . S
C1358 C1362 1.524 . S
C1359 C1351 1.503 1_655 S
C1359 C1358 1.370 . S
C1359 C1360 1.403 . S
C1360 C1359 1.403 . S
C1360 C1361 1.404 . S
C1360 C1363 1.539 . S
C1361 C1357 1.408 . S
C1361 C1360 1.404 . S
C1361 H1373 0.930 . S
C1362 C1358 1.524 . S
C1362 H1374 0.956 . S
C1362 H1375 0.961 . S
C1362 H1376 0.961 . S
C1363 C1360 1.539 . S
C1363 H1377 0.958 . S
C1363 H1378 0.961 . S
C1363 H1379 0.960 1_655 S
H1364 C1348 0.931 . S
H1365 C1353 0.929 . S
H1366 C1354 0.960 . S
H1367 C1354 0.962 . S
H1368 C1354 0.960 . S
H1369 C1355 0.961 . S
H1370 C1355 0.961 1_655 S
H1371 C1355 0.961 . S
H1372 C1356 0.931 . S
H1373 C1361 0.930 . S
H1374 C1362 0.956 . S
H1375 C1362 0.961 . S
H1376 C1362 0.961 . S
H1377 C1363 0.958 . S
H1378 C1363 0.961 . S
H1379 C1363 0.960 1_455 S
C1380 C1381 1.391 . S
C1380 C1382 1.394 . S
C1380 H1396 0.931 . S
C1381 C1380 1.391 . S
C1381 C1385 1.376 . S
C1382 C1380 1.394 . S
C1382 C1383 1.369 . S
C1382 C1386 1.531 . S
C1383 C1382 1.369 . S
C1383 C1384 1.410 . S
C1383 C1391 1.503 1_565 S
C1384 C1383 1.410 . S
C1384 C1385 1.392 . S
C1384 C1387 1.511 . S
C1385 C1381 1.376 . S
C1385 C1384 1.392 . S
C1385 H1397 0.929 . S
C1386 C1382 1.531 . S
C1386 H1398 0.960 1_565 S
C1386 H1399 0.962 . S
C1386 H1400 0.960 . S
C1387 C1384 1.511 . S
C1387 H1401 0.961 . S
C1387 H1402 0.970 . S
C1387 H1403 0.961 . S
C1388 C1389 1.370 . S
C1388 C1390 1.363 . S
C1388 H1404 0.931 . S
C1389 C1388 1.370 . S
C1389 C1393 1.408 . S
C1390 C1388 1.363 . S
C1390 C1391 1.370 . S
C1390 C1394 1.524 . S
C1391 C1383 1.503 1_545 S
C1391 C1390 1.370 . S
C1391 C1392 1.403 . S
C1392 C1391 1.403 . S
C1392 C1393 1.404 . S
C1392 C1395 1.539 . S
C1393 C1389 1.408 . S
C1393 C1392 1.404 . S
C1393 H1405 0.930 . S
C1394 C1390 1.524 . S
C1394 H1406 0.956 1_545 S
C1394 H1407 0.961 1_545 S
C1394 H1408 0.961 . S
C1395 C1392 1.539 . S
C1395 H1409 0.958 . S
C1395 H1410 0.961 . S
C1395 H1411 0.960 . S
H1396 C1380 0.931 . S
H1397 C1385 0.929 . S
H1398 C1386 0.960 1_545 S
H1399 C1386 0.962 . S
H1400 C1386 0.960 . S
H1401 C1387 0.961 . S
H1402 C1387 0.970 . S
H1403 C1387 0.961 . S
H1404 C1388 0.931 . S
H1405 C1393 0.930 . S
H1406 C1394 0.956 1_565 S
H1407 C1394 0.961 1_565 S
H1408 C1394 0.961 . S
H1409 C1395 0.958 . S
H1410 C1395 0.961 . S
H1411 C1395 0.960 . S
C1412 C1413 1.391 . S
C1412 C1414 1.394 . S
C1412 H1428 0.931 . S
C1413 C1412 1.391 . S
C1413 C1417 1.376 . S
C1414 C1412 1.394 . S
C1414 C1415 1.369 . S
C1414 C1418 1.531 . S
C1415 C1414 1.369 . S
C1415 C1416 1.410 . S
C1415 C1423 1.503 . S
C1416 C1415 1.410 . S
C1416 C1417 1.392 . S
C1416 C1419 1.511 . S
C1417 C1413 1.376 . S
C1417 C1416 1.392 . S
C1417 H1429 0.929 . S
C1418 C1414 1.531 . S
C1418 H1430 0.960 . S
C1418 H1431 0.962 . S
C1418 H1432 0.960 . S
C1419 C1416 1.511 . S
C1419 H1433 0.961 . S
C1419 H1434 0.961 . S
C1419 H1435 0.961 . S
C1420 C1421 1.370 . S
C1420 C1422 1.363 . S
C1420 H1436 0.931 . S
C1421 C1420 1.370 . S
C1421 C1425 1.408 . S
C1422 C1420 1.363 . S
C1422 C1423 1.370 . S
C1422 C1426 1.524 . S
C1423 C1415 1.503 . S
C1423 C1422 1.370 . S
C1423 C1424 1.403 . S
C1424 C1423 1.403 . S
C1424 C1425 1.404 . S
C1424 C1427 1.539 . S
C1425 C1421 1.408 . S
C1425 C1424 1.404 . S
C1425 H1437 0.930 . S
C1426 C1422 1.524 . S
C1426 H1438 0.956 . S
C1426 H1439 0.961 . S
C1426 H1440 0.961 . S
C1427 C1424 1.539 . S
C1427 H1441 0.958 . S
C1427 H1442 0.961 . S
C1427 H1443 0.960 . S
H1428 C1412 0.931 . S
H1429 C1417 0.929 . S
H1430 C1418 0.960 . S
H1431 C1418 0.962 . S
H1432 C1418 0.960 . S
H1433 C1419 0.961 . S
H1434 C1419 0.961 . S
H1435 C1419 0.961 . S
H1436 C1420 0.931 . S
H1437 C1425 0.930 . S
H1438 C1426 0.956 . S
H1439 C1426 0.961 . S
H1440 C1426 0.961 . S
H1441 C1427 0.958 . S
H1442 C1427 0.961 . S
H1443 C1427 0.960 . S
C1444 C1445 1.391 . S
C1444 C1446 1.394 . S
C1444 H1460 0.931 . S
C1445 C1444 1.391 . S
C1445 C1449 1.376 . S
C1446 C1444 1.394 . S
C1446 C1447 1.369 . S
C1446 C1450 1.531 . S
C1447 C1446 1.369 . S
C1447 C1448 1.410 . S
C1447 C1455 1.503 1_455 S
C1448 C1447 1.410 . S
C1448 C1449 1.392 . S
C1448 C1451 1.511 . S
C1449 C1445 1.376 . S
C1449 C1448 1.392 . S
C1449 H1461 0.929 . S
C1450 C1446 1.531 . S
C1450 H1462 0.960 . S
C1450 H1463 0.962 . S
C1450 H1464 0.960 . S
C1451 C1448 1.511 . S
C1451 H1465 0.961 . S
C1451 H1466 0.961 1_455 S
C1451 H1467 0.961 . S
C1452 C1453 1.370 . S
C1452 C1454 1.363 . S
C1452 H1468 0.931 . S
C1453 C1452 1.370 . S
C1453 C1457 1.408 . S
C1454 C1452 1.363 . S
C1454 C1455 1.370 . S
C1454 C1458 1.524 . S
C1455 C1447 1.503 1_655 S
C1455 C1454 1.370 . S
C1455 C1456 1.403 . S
C1456 C1455 1.403 . S
C1456 C1457 1.404 . S
C1456 C1459 1.539 . S
C1457 C1453 1.408 . S
C1457 C1456 1.404 . S
C1457 H1469 0.930 . S
C1458 C1454 1.524 . S
C1458 H1470 0.956 . S
C1458 H1471 0.961 . S
C1458 H1472 0.961 . S
C1459 C1456 1.539 . S
C1459 H1473 0.958 . S
C1459 H1474 0.961 . S
C1459 H1475 0.960 1_655 S
H1460 C1444 0.931 . S
H1461 C1449 0.929 . S
H1462 C1450 0.960 . S
H1463 C1450 0.962 . S
H1464 C1450 0.960 . S
H1465 C1451 0.961 . S
H1466 C1451 0.961 1_655 S
H1467 C1451 0.961 . S
H1468 C1452 0.931 . S
H1469 C1457 0.930 . S
H1470 C1458 0.956 . S
H1471 C1458 0.961 . S
H1472 C1458 0.961 . S
H1473 C1459 0.958 . S
H1474 C1459 0.961 . S
H1475 C1459 0.960 1_455 S
C709 C52 1.368 . S
C717 C642 1.375 . S
C741 C111 1.379 . S
C749 C701 1.379 . S
C773 C406 1.378 . S
C781 C170 1.377 . S
C805 C229 1.363 . S
C813 C465 1.372 . S
C837 C524 1.372 . S
C845 C288 1.374 . S
C869 C583 1.369 . S
C877 C347 1.373 1_554 S
C901 C475 1.445 . S
C909 C3 1.417 . S
C933 C62 1.408 . S
C941 C534 1.421 . S
C965 C593 1.443 . S
C973 C121 1.418 . S
C997 C180 1.414 . S
C1005 C652 1.418 . S
C1029 C239 1.396 . S
C1037 C357 1.434 . S
C1061 C298 1.433 . S
C1069 C416 1.413 1_556 S
C1093 C595 1.434 . S
C1101 C5 1.434 . S
C1125 C654 1.430 . S
C1133 C64 1.427 . S
C1157 C359 1.421 1_554 S
C1165 C123 1.431 . S
C1189 C182 1.419 . S
C1197 C418 1.424 . S
C1221 C241 1.434 . S
C1229 C477 1.429 . S
C1253 C536 1.417 . S
C1261 C300 1.429 . S
C1285 C33 1.411 . S
C1293 C446 1.406 . S
C1317 C505 1.409 . S
C1325 C92 1.415 . S
C1349 C564 1.395 . S
C1357 C151 1.407 . S
C1381 C210 1.417 . S
C1389 C623 1.410 . S
C1413 C269 1.415 . S
C1421 C682 1.414 . S
C1445 C328 1.395 . S
C1453 C387 1.410 . S
