# Generated by pormake.
# Topology wlh, (5)-cn, num edge types: 1
# Building blocks:
#     Node 0, Type 0, BuildingBlock: BEQFEK_clean_sbu_0, # of connection points: 5
#     Node 1, Type 0, BuildingBlock: BEQFEK_clean_sbu_0, # of connection points: 5
#     Node 2, Type 0, BuildingBlock: BEQFEK_clean_sbu_0, # of connection points: 5
#     Node 3, Type 0, BuildingBlock: BEQFEK_clean_sbu_0, # of connection points: 5
#     Node 4, Type 0, BuildingBlock: BEQFEK_clean_sbu_0, # of connection points: 5
#     Node 5, Type 0, BuildingBlock: BEQFEK_clean_sbu_0, # of connection points: 5
#     Node 6, Type 0, BuildingBlock: BEQFEK_clean_sbu_0, # of connection points: 5
#     Node 7, Type 0, BuildingBlock: BEQFEK_clean_sbu_0, # of connection points: 5
#     Node 8, Type 0, BuildingBlock: BEQFEK_clean_sbu_0, # of connection points: 5
#     Node 9, Type 0, BuildingBlock: BEQFEK_clean_sbu_0, # of connection points: 5
#     Node 10, Type 0, BuildingBlock: BEQFEK_clean_sbu_0, # of connection points: 5
#     Node 11, Type 0, BuildingBlock: BEQFEK_clean_sbu_0, # of connection points: 5
#     Node 12, Type 0, BuildingBlock: BEQFEK_clean_sbu_0, # of connection points: 5
#     Node 13, Type 0, BuildingBlock: BEQFEK_clean_sbu_0, # of connection points: 5
#     Node 14, Type 0, BuildingBlock: BEQFEK_clean_sbu_0, # of connection points: 5
#     Node 15, Type 0, BuildingBlock: BEQFEK_clean_sbu_0, # of connection points: 5
#     Node 16, Type 0, BuildingBlock: BEQFEK_clean_sbu_0, # of connection points: 5
#     Node 17, Type 0, BuildingBlock: BEQFEK_clean_sbu_0, # of connection points: 5
#     Node 18, Type 0, BuildingBlock: BEQFEK_clean_sbu_0, # of connection points: 5
#     Node 19, Type 0, BuildingBlock: BEQFEK_clean_sbu_0, # of connection points: 5
#     Node 20, Type 0, BuildingBlock: BEQFEK_clean_sbu_0, # of connection points: 5
#     Node 21, Type 0, BuildingBlock: BEQFEK_clean_sbu_0, # of connection points: 5
#     Node 22, Type 0, BuildingBlock: BEQFEK_clean_sbu_0, # of connection points: 5
#     Node 23, Type 0, BuildingBlock: BEQFEK_clean_sbu_0, # of connection points: 5
#     Node 24, Type 0, BuildingBlock: BEQFEK_clean_sbu_0, # of connection points: 5
#     Node 25, Type 0, BuildingBlock: BEQFEK_clean_sbu_0, # of connection points: 5
#     Node 26, Type 0, BuildingBlock: BEQFEK_clean_sbu_0, # of connection points: 5
#     Node 27, Type 0, BuildingBlock: BEQFEK_clean_sbu_0, # of connection points: 5
#     Node 28, Type 0, BuildingBlock: BEQFEK_clean_sbu_0, # of connection points: 5
#     Node 29, Type 0, BuildingBlock: BEQFEK_clean_sbu_0, # of connection points: 5
#     Node 30, Type 0, BuildingBlock: BEQFEK_clean_sbu_0, # of connection points: 5
#     Node 31, Type 0, BuildingBlock: BEQFEK_clean_sbu_0, # of connection points: 5
#     Node 32, Type 0, BuildingBlock: BEQFEK_clean_sbu_0, # of connection points: 5
#     Node 33, Type 0, BuildingBlock: BEQFEK_clean_sbu_0, # of connection points: 5
#     Node 34, Type 0, BuildingBlock: BEQFEK_clean_sbu_0, # of connection points: 5
#     Node 35, Type 0, BuildingBlock: BEQFEK_clean_sbu_0, # of connection points: 5
#     Edge 36, Type (0, 0), BuildingBlock: XUDNAN_clean_linker_2, # of connection points: 2
#     Edge 37, Type (0, 0), BuildingBlock: XUDNAN_clean_linker_2, # of connection points: 2
#     Edge 38, Type (0, 0), BuildingBlock: XUDNAN_clean_linker_2, # of connection points: 2
#     Edge 39, Type (0, 0), BuildingBlock: XUDNAN_clean_linker_2, # of connection points: 2
#     Edge 40, Type (0, 0), BuildingBlock: XUDNAN_clean_linker_2, # of connection points: 2
#     Edge 41, Type (0, 0), BuildingBlock: XUDNAN_clean_linker_2, # of connection points: 2
#     Edge 42, Type (0, 0), BuildingBlock: XUDNAN_clean_linker_2, # of connection points: 2
#     Edge 43, Type (0, 0), BuildingBlock: XUDNAN_clean_linker_2, # of connection points: 2
#     Edge 44, Type (0, 0), BuildingBlock: XUDNAN_clean_linker_2, # of connection points: 2
#     Edge 45, Type (0, 0), BuildingBlock: XUDNAN_clean_linker_2, # of connection points: 2
#     Edge 46, Type (0, 0), BuildingBlock: XUDNAN_clean_linker_2, # of connection points: 2
#     Edge 47, Type (0, 0), BuildingBlock: XUDNAN_clean_linker_2, # of connection points: 2
#     Edge 48, Type (0, 0), BuildingBlock: XUDNAN_clean_linker_2, # of connection points: 2
#     Edge 49, Type (0, 0), BuildingBlock: XUDNAN_clean_linker_2, # of connection points: 2
#     Edge 50, Type (0, 0), BuildingBlock: XUDNAN_clean_linker_2, # of connection points: 2
#     Edge 51, Type (0, 0), BuildingBlock: XUDNAN_clean_linker_2, # of connection points: 2
#     Edge 52, Type (0, 0), BuildingBlock: XUDNAN_clean_linker_2, # of connection points: 2
#     Edge 53, Type (0, 0), BuildingBlock: XUDNAN_clean_linker_2, # of connection points: 2
#     Edge 54, Type (0, 0), BuildingBlock: XUDNAN_clean_linker_2, # of connection points: 2
#     Edge 55, Type (0, 0), BuildingBlock: XUDNAN_clean_linker_2, # of connection points: 2
#     Edge 56, Type (0, 0), BuildingBlock: XUDNAN_clean_linker_2, # of connection points: 2
#     Edge 57, Type (0, 0), BuildingBlock: XUDNAN_clean_linker_2, # of connection points: 2
#     Edge 58, Type (0, 0), BuildingBlock: XUDNAN_clean_linker_2, # of connection points: 2
#     Edge 59, Type (0, 0), BuildingBlock: XUDNAN_clean_linker_2, # of connection points: 2
#     Edge 60, Type (0, 0), BuildingBlock: XUDNAN_clean_linker_2, # of connection points: 2
#     Edge 61, Type (0, 0), BuildingBlock: XUDNAN_clean_linker_2, # of connection points: 2
#     Edge 62, Type (0, 0), BuildingBlock: XUDNAN_clean_linker_2, # of connection points: 2
#     Edge 63, Type (0, 0), BuildingBlock: XUDNAN_clean_linker_2, # of connection points: 2
#     Edge 64, Type (0, 0), BuildingBlock: XUDNAN_clean_linker_2, # of connection points: 2
#     Edge 65, Type (0, 0), BuildingBlock: XUDNAN_clean_linker_2, # of connection points: 2
#     Edge 66, Type (0, 0), BuildingBlock: XUDNAN_clean_linker_2, # of connection points: 2
#     Edge 67, Type (0, 0), BuildingBlock: XUDNAN_clean_linker_2, # of connection points: 2
#     Edge 68, Type (0, 0), BuildingBlock: XUDNAN_clean_linker_2, # of connection points: 2
#     Edge 69, Type (0, 0), BuildingBlock: XUDNAN_clean_linker_2, # of connection points: 2
#     Edge 70, Type (0, 0), BuildingBlock: XUDNAN_clean_linker_2, # of connection points: 2
#     Edge 71, Type (0, 0), BuildingBlock: XUDNAN_clean_linker_2, # of connection points: 2
#     Edge 72, Type (0, 0), BuildingBlock: XUDNAN_clean_linker_2, # of connection points: 2
#     Edge 73, Type (0, 0), BuildingBlock: XUDNAN_clean_linker_2, # of connection points: 2
#     Edge 74, Type (0, 0), BuildingBlock: XUDNAN_clean_linker_2, # of connection points: 2
#     Edge 75, Type (0, 0), BuildingBlock: XUDNAN_clean_linker_2, # of connection points: 2
#     Edge 76, Type (0, 0), BuildingBlock: XUDNAN_clean_linker_2, # of connection points: 2
#     Edge 77, Type (0, 0), BuildingBlock: XUDNAN_clean_linker_2, # of connection points: 2
#     Edge 78, Type (0, 0), BuildingBlock: XUDNAN_clean_linker_2, # of connection points: 2
#     Edge 79, Type (0, 0), BuildingBlock: XUDNAN_clean_linker_2, # of connection points: 2
#     Edge 80, Type (0, 0), BuildingBlock: XUDNAN_clean_linker_2, # of connection points: 2
#     Edge 81, Type (0, 0), BuildingBlock: XUDNAN_clean_linker_2, # of connection points: 2
#     Edge 82, Type (0, 0), BuildingBlock: XUDNAN_clean_linker_2, # of connection points: 2
#     Edge 83, Type (0, 0), BuildingBlock: XUDNAN_clean_linker_2, # of connection points: 2
#     Edge 84, Type (0, 0), BuildingBlock: XUDNAN_clean_linker_2, # of connection points: 2
#     Edge 85, Type (0, 0), BuildingBlock: XUDNAN_clean_linker_2, # of connection points: 2
#     Edge 86, Type (0, 0), BuildingBlock: XUDNAN_clean_linker_2, # of connection points: 2
#     Edge 87, Type (0, 0), BuildingBlock: XUDNAN_clean_linker_2, # of connection points: 2
#     Edge 88, Type (0, 0), BuildingBlock: XUDNAN_clean_linker_2, # of connection points: 2
#     Edge 89, Type (0, 0), BuildingBlock: XUDNAN_clean_linker_2, # of connection points: 2
#     Edge 90, Type (0, 0), BuildingBlock: XUDNAN_clean_linker_2, # of connection points: 2
#     Edge 91, Type (0, 0), BuildingBlock: XUDNAN_clean_linker_2, # of connection points: 2
#     Edge 92, Type (0, 0), BuildingBlock: XUDNAN_clean_linker_2, # of connection points: 2
#     Edge 93, Type (0, 0), BuildingBlock: XUDNAN_clean_linker_2, # of connection points: 2
#     Edge 94, Type (0, 0), BuildingBlock: XUDNAN_clean_linker_2, # of connection points: 2
#     Edge 95, Type (0, 0), BuildingBlock: XUDNAN_clean_linker_2, # of connection points: 2
#     Edge 96, Type (0, 0), BuildingBlock: XUDNAN_clean_linker_2, # of connection points: 2
#     Edge 97, Type (0, 0), BuildingBlock: XUDNAN_clean_linker_2, # of connection points: 2
#     Edge 98, Type (0, 0), BuildingBlock: XUDNAN_clean_linker_2, # of connection points: 2
#     Edge 99, Type (0, 0), BuildingBlock: XUDNAN_clean_linker_2, # of connection points: 2
#     Edge 100, Type (0, 0), BuildingBlock: XUDNAN_clean_linker_2, # of connection points: 2
#     Edge 101, Type (0, 0), BuildingBlock: XUDNAN_clean_linker_2, # of connection points: 2
#     Edge 102, Type (0, 0), BuildingBlock: XUDNAN_clean_linker_2, # of connection points: 2
#     Edge 103, Type (0, 0), BuildingBlock: XUDNAN_clean_linker_2, # of connection points: 2
#     Edge 104, Type (0, 0), BuildingBlock: XUDNAN_clean_linker_2, # of connection points: 2
#     Edge 105, Type (0, 0), BuildingBlock: XUDNAN_clean_linker_2, # of connection points: 2
#     Edge 106, Type (0, 0), BuildingBlock: XUDNAN_clean_linker_2, # of connection points: 2
#     Edge 107, Type (0, 0), BuildingBlock: XUDNAN_clean_linker_2, # of connection points: 2
#     Edge 108, Type (0, 0), BuildingBlock: XUDNAN_clean_linker_2, # of connection points: 2
#     Edge 109, Type (0, 0), BuildingBlock: XUDNAN_clean_linker_2, # of connection points: 2
#     Edge 110, Type (0, 0), BuildingBlock: XUDNAN_clean_linker_2, # of connection points: 2
#     Edge 111, Type (0, 0), BuildingBlock: XUDNAN_clean_linker_2, # of connection points: 2
#     Edge 112, Type (0, 0), BuildingBlock: XUDNAN_clean_linker_2, # of connection points: 2
#     Edge 113, Type (0, 0), BuildingBlock: XUDNAN_clean_linker_2, # of connection points: 2
#     Edge 114, Type (0, 0), BuildingBlock: XUDNAN_clean_linker_2, # of connection points: 2
#     Edge 115, Type (0, 0), BuildingBlock: XUDNAN_clean_linker_2, # of connection points: 2
#     Edge 116, Type (0, 0), BuildingBlock: XUDNAN_clean_linker_2, # of connection points: 2
#     Edge 117, Type (0, 0), BuildingBlock: XUDNAN_clean_linker_2, # of connection points: 2
#     Edge 118, Type (0, 0), BuildingBlock: XUDNAN_clean_linker_2, # of connection points: 2
#     Edge 119, Type (0, 0), BuildingBlock: XUDNAN_clean_linker_2, # of connection points: 2
#     Edge 120, Type (0, 0), BuildingBlock: XUDNAN_clean_linker_2, # of connection points: 2
#     Edge 121, Type (0, 0), BuildingBlock: XUDNAN_clean_linker_2, # of connection points: 2
#     Edge 122, Type (0, 0), BuildingBlock: XUDNAN_clean_linker_2, # of connection points: 2
#     Edge 123, Type (0, 0), BuildingBlock: XUDNAN_clean_linker_2, # of connection points: 2
#     Edge 124, Type (0, 0), BuildingBlock: XUDNAN_clean_linker_2, # of connection points: 2
#     Edge 125, Type (0, 0), BuildingBlock: XUDNAN_clean_linker_2, # of connection points: 2
# Relax obj value: 0.225
# Max RMSD: 0.166
# Mean RMSD: 0.166
data_MOF--net-wlh--node1-BEQFEK_clean_sbu_0--edge1-XUDNAN_clean_linker_2
_symmetry_space_group_name_H-M    P1
_symmetry_Int_Tables_number       1
_symmetry_cell_setting            triclinic
loop_
_symmetry_equiv_pos_as_xyz
'x, y, z'
_cell_length_a     43.984976
_cell_length_b     43.980448
_cell_length_c     132.67381
_cell_angle_alpha  90.002512
_cell_angle_beta   90.001574
_cell_angle_gamma 119.99802
loop_
_atom_site_label
_atom_site_type_symbol
_atom_site_fract_x
_atom_site_fract_y
_atom_site_fract_z
_atom_type_partial_charge
Co0 Co 0.08864 0.20726 0.2034 0.0
Co1 Co 0.06526 0.26125 0.1967 0.0
C2 C 0.02699 0.18873 0.18944 0.0
O3 O 0.04746 0.18236 0.19459 0.0
O4 O 0.0303 0.21913 0.18916 0.0
C5 C 0.11688 0.16879 0.19537 0.0
O6 O 0.11437 0.18499 0.18736 0.0
C7 C 0.05084 0.30833 0.18444 0.0
C8 C 0.06242 0.35119 0.1952 0.0
C9 C 0.05244 0.34058 0.18534 0.0
N10 N 0.0601 0.30064 0.19333 0.0
N11 N 0.06677 0.32624 0.19974 0.0
C12 C 0.03836 0.28379 0.17562 0.0
H13 H 0.0151 0.25869 0.17793 0.0
H14 H 0.05906 0.27779 0.17333 0.0
H15 H 0.03079 0.29443 0.16913 0.0
C16 C 0.1574 0.26539 0.19647 0.0
N17 N 0.12259 0.2511 0.19795 0.0
N18 N 0.11231 0.27224 0.19423 0.0
C19 C 0.1401 0.29992 0.18987 0.0
C20 C 0.16948 0.29644 0.19119 0.0
C21 C 0.17882 0.24946 0.19987 0.0
H22 H 0.16603 0.23149 0.20631 0.0
H23 H 0.18186 0.23479 0.19352 0.0
H24 H 0.20548 0.27014 0.20217 0.0
O25 O 0.07081 0.21365 0.21645 0.0
O26 O 0.05416 0.25142 0.21133 0.0
H27 H 0.13096 0.34327 0.19022 0.0
H28 H 0.16478 0.34875 0.18149 0.0
C29 C 0.13888 0.32955 0.18472 0.0
H30 H 0.11906 0.31903 0.17861 0.0
H31 H 0.07469 0.32685 0.20719 0.0
O32 O 0.10759 0.17467 0.20391 0.0
C33 C 0.05699 0.23265 0.2182 0.0
Co34 Co 0.79864 0.88495 0.19682 0.0
Co35 Co 0.73979 0.80526 0.19752 0.0
C36 C 0.81069 0.82896 0.18847 0.0
O37 O 0.81986 0.86096 0.18987 0.0
O38 O 0.78031 0.80448 0.19101 0.0
C39 C 0.84698 0.94577 0.18626 0.0
O40 O 0.83997 0.92202 0.17927 0.0
C41 C 0.68893 0.74112 0.18747 0.0
C42 C 0.65618 0.70734 0.19993 0.0
C43 C 0.66053 0.7084 0.18958 0.0
N44 N 0.70071 0.75893 0.19615 0.0
N45 N 0.68109 0.73859 0.2036 0.0
C46 C 0.70621 0.75448 0.17746 0.0
H47 H 0.7254 0.78303 0.17784 0.0
H48 H 0.68633 0.74941 0.17158 0.0
H49 H 0.72008 0.74024 0.17526 0.0
C50 C 0.74178 0.89146 0.1871 0.0
N51 N 0.7539 0.87215 0.19162 0.0
N52 N 0.72898 0.83897 0.1918 0.0
C53 C 0.69998 0.8363 0.18742 0.0
C54 C 0.70723 0.86936 0.18424 0.0
C55 C 0.76401 0.92979 0.18478 0.0
H56 H 0.77893 0.94404 0.19159 0.0
H57 H 0.78289 0.93322 0.17875 0.0
H58 H 0.7484 0.94163 0.18214 0.0
O59 O 0.7966 0.87131 0.21121 0.0
O60 O 0.75381 0.81543 0.21195 0.0
H61 H 0.64373 0.80892 0.18559 0.0
H62 H 0.66576 0.78849 0.17973 0.0
C63 C 0.66542 0.80311 0.18649 0.0
H64 H 0.6604 0.78649 0.19325 0.0
H65 H 0.68479 0.74598 0.21118 0.0
O66 O 0.83184 0.93602 0.1948 0.0
C67 C 0.77835 0.84289 0.21616 0.0
Co68 Co 0.11218 0.89644 0.20493 0.0
Co69 Co 0.19193 0.92859 0.19905 0.0
C70 C 0.15654 0.96877 0.19538 0.0
O71 O 0.1295 0.944 0.19956 0.0
O72 O 0.18382 0.96638 0.19379 0.0
C73 C 0.04701 0.88034 0.19711 0.0
O74 O 0.06826 0.90169 0.19017 0.0
C75 C 0.25719 0.95366 0.18745 0.0
C76 C 0.28781 0.93843 0.19734 0.0
C77 C 0.28856 0.95331 0.18808 0.0
N78 N 0.23855 0.93901 0.19587 0.0
N79 N 0.25716 0.93031 0.20179 0.0
C80 C 0.24577 0.96961 0.17937 0.0
H81 H 0.24214 0.99065 0.18275 0.0
H82 H 0.21997 0.94957 0.17631 0.0
H83 H 0.26528 0.98121 0.17321 0.0
C84 C 0.10632 0.83847 0.19215 0.0
N85 N 0.12572 0.86978 0.19674 0.0
N86 N 0.15871 0.88342 0.19396 0.0
C87 C 0.16123 0.86121 0.18744 0.0
C88 C 0.12811 0.83214 0.18601 0.0
C89 C 0.06714 0.81686 0.19284 0.0
H90 H 0.05534 0.82817 0.18776 0.0
H91 H 0.05717 0.78929 0.19054 0.0
H92 H 0.05853 0.81713 0.20067 0.0
O93 O 0.1326 0.90486 0.21865 0.0
O94 O 0.18872 0.93017 0.21399 0.0
H95 H 0.19103 0.84369 0.17863 0.0
H96 H 0.20348 0.8892 0.17708 0.0
C97 C 0.19461 0.86749 0.18259 0.0
H98 H 0.21523 0.87503 0.1884 0.0
H99 H 0.24859 0.91814 0.20879 0.0
O100 O 0.05998 0.87372 0.20481 0.0
C101 C 0.16525 0.92078 0.22082 0.0
Co102 Co 0.19217 0.07389 0.30053 0.0
Co103 Co 0.25389 0.05967 0.30571 0.0
C104 C 0.18319 0.0121 0.31324 0.0
O105 O 0.17323 0.03128 0.30884 0.0
O106 O 0.21506 0.01941 0.31297 0.0
C107 C 0.14637 0.08953 0.31027 0.0
O108 O 0.16079 0.08159 0.31774 0.0
C109 C 0.30737 0.0497 0.31603 0.0
C110 C 0.35263 0.07689 0.30571 0.0
C111 C 0.34233 0.05922 0.31481 0.0
N112 N 0.29744 0.06129 0.30801 0.0
N113 N 0.32451 0.07721 0.30183 0.0
C114 C 0.28463 0.03278 0.32504 0.0
H115 H 0.26698 0.04367 0.32629 0.0
H116 H 0.30067 0.0368 0.3319 0.0
H117 H 0.26812 0.00418 0.32363 0.0
C118 C 0.24434 0.14433 0.30793 0.0
N119 N 0.23421 0.11051 0.30599 0.0
N120 N 0.25862 0.10383 0.30913 0.0
C121 C 0.28458 0.133 0.31352 0.0
C122 C 0.27639 0.15956 0.31283 0.0
C123 C 0.22337 0.16156 0.30533 0.0
H124 H 0.20754 0.14958 0.29845 0.0
H125 H 0.20552 0.15805 0.31169 0.0
H126 H 0.24054 0.19014 0.3041 0.0
O127 O 0.19965 0.05973 0.2869 0.0
O128 O 0.24294 0.04979 0.29115 0.0
H129 H 0.33209 0.1603 0.32241 0.0
H130 H 0.31023 0.11284 0.32282 0.0
C131 C 0.31719 0.13587 0.31795 0.0
H132 H 0.33427 0.13609 0.31177 0.0
H133 H 0.32402 0.08912 0.29507 0.0
O134 O 0.15565 0.08791 0.30127 0.0
C135 C 0.2217 0.04994 0.28463 0.0
Co136 Co 0.90041 0.11336 0.29742 0.0
Co137 Co 0.92801 0.19108 0.30475 0.0
C138 C 0.96571 0.15458 0.31032 0.0
O139 O 0.94349 0.12861 0.30519 0.0
O140 O 0.96329 0.18201 0.31142 0.0
C141 C 0.87024 0.04642 0.30552 0.0
O142 O 0.87305 0.06508 0.31356 0.0
C143 C 0.94446 0.25368 0.3172 0.0
C144 C 0.93648 0.28639 0.30606 0.0
C145 C 0.94487 0.28531 0.31606 0.0
N146 N 0.93559 0.23661 0.30831 0.0
N147 N 0.93105 0.25646 0.30169 0.0
C148 C 0.95419 0.24085 0.32644 0.0
H149 H 0.96298 0.22207 0.32445 0.0
H150 H 0.93105 0.22725 0.33146 0.0
H151 H 0.97531 0.26325 0.33067 0.0
C152 C 0.83392 0.10553 0.3052 0.0
N153 N 0.86877 0.1249 0.30361 0.0
N154 N 0.88063 0.15625 0.30759 0.0
C155 C 0.85374 0.15716 0.31223 0.0
C156 C 0.82339 0.12508 0.31084 0.0
C157 C 0.81098 0.06881 0.30145 0.0
H158 H 0.82339 0.0633 0.29497 0.0
H159 H 0.80633 0.05002 0.30764 0.0
H160 H 0.78507 0.06467 0.29904 0.0
O161 O 0.91628 0.13718 0.28432 0.0
O162 O 0.93679 0.19191 0.28989 0.0
H163 H 0.86655 0.21088 0.31225 0.0
H164 H 0.83076 0.18308 0.32054 0.0
C165 C 0.85654 0.18842 0.31755 0.0
H166 H 0.87536 0.19571 0.32386 0.0
H167 H 0.92388 0.24939 0.29418 0.0
O168 O 0.87995 0.06166 0.297 0.0
C169 C 0.93165 0.17023 0.28278 0.0
Co170 Co 0.88373 0.7851 0.29734 0.0
Co171 Co 0.80122 0.73594 0.29869 0.0
C172 C 0.8353 0.80893 0.30601 0.0
O173 O 0.86456 0.81271 0.30317 0.0
O174 O 0.80714 0.7793 0.30546 0.0
C175 C 0.94709 0.83087 0.30738 0.0
O176 O 0.9249 0.83248 0.31367 0.0
C177 C 0.72935 0.68938 0.3069 0.0
C178 C 0.70456 0.65344 0.29404 0.0
C179 C 0.69809 0.66027 0.30376 0.0
N180 N 0.75309 0.69888 0.29939 0.0
N181 N 0.73798 0.67721 0.29175 0.0
C182 C 0.73605 0.70885 0.31666 0.0
H183 H 0.75873 0.73573 0.31602 0.0
H184 H 0.74206 0.69493 0.3226 0.0
H185 H 0.71246 0.71008 0.319 0.0
C186 C 0.88211 0.72561 0.30758 0.0
N187 N 0.86535 0.74094 0.30338 0.0
N188 N 0.83121 0.71998 0.30418 0.0
C189 C 0.82533 0.69034 0.30898 0.0
C190 C 0.85748 0.69328 0.31132 0.0
C191 C 0.92118 0.74143 0.3079 0.0
H192 H 0.93258 0.75306 0.30047 0.0
H193 H 0.93219 0.76249 0.31367 0.0
H194 H 0.9288 0.7216 0.30985 0.0
O195 O 0.87091 0.78173 0.28305 0.0
O196 O 0.81258 0.75055 0.28412 0.0
H197 H 0.77372 0.65101 0.3045 0.0
H198 H 0.79175 0.63802 0.31481 0.0
C199 C 0.78987 0.66013 0.31144 0.0
H200 H 0.77663 0.6689 0.31685 0.0
H201 H 0.75054 0.67867 0.28494 0.0
O202 O 0.93548 0.81225 0.29944 0.0
C203 C 0.84062 0.76876 0.279 0.0
Co204 Co 0.91153 0.7984 0.7998 0.0
Co205 Co 0.93731 0.743 0.8001 0.0
C206 C 0.97766 0.81367 0.81007 0.0
O207 O 0.95417 0.82137 0.80798 0.0
O208 O 0.97517 0.78479 0.80731 0.0
C209 C 0.9004 0.85495 0.8058 0.0
O210 O 0.93121 0.86689 0.81009 0.0
C211 C 0.95402 0.69584 0.81091 0.0
C212 C 0.95055 0.65847 0.79921 0.0
C213 C 0.9564 0.66587 0.80942 0.0
N214 N 0.94649 0.70532 0.80205 0.0
N215 N 0.94472 0.68309 0.79506 0.0
C216 C 0.96074 0.71673 0.8204 0.0
H217 H 0.9865 0.7412 0.81973 0.0
H218 H 0.94052 0.72457 0.82133 0.0
H219 H 0.96153 0.70238 0.82716 0.0
C220 C 0.85001 0.74052 0.80949 0.0
N221 N 0.88124 0.75324 0.80485 0.0
N222 N 0.89117 0.72956 0.80502 0.0
C223 C 0.86582 0.70048 0.80965 0.0
C224 C 0.83903 0.70655 0.81266 0.0
C225 C 0.83365 0.7624 0.81198 0.0
H226 H 0.82529 0.76954 0.80491 0.0
H227 H 0.8534 0.78697 0.81572 0.0
H228 H 0.81072 0.74874 0.81706 0.0
O229 O 0.92728 0.79761 0.78578 0.0
O230 O 0.94319 0.75683 0.78563 0.0
H231 H 0.87831 0.66168 0.80457 0.0
H232 H 0.84016 0.64484 0.81263 0.0
C233 C 0.8669 0.66736 0.81125 0.0
H234 H 0.88334 0.67041 0.81793 0.0
H235 H 0.93894 0.68436 0.78749 0.0
O236 O 0.88764 0.8269 0.8006 0.0
C237 C 0.93956 0.78056 0.78118 0.0
Co238 Co 0.20683 0.11395 0.80028 0.0
Co239 Co 0.2588 0.19358 0.80536 0.0
C240 C 0.18383 0.16203 0.81 0.0
O241 O 0.17907 0.13311 0.80646 0.0
O242 O 0.21427 0.18912 0.81037 0.0
C243 C 0.16436 0.05247 0.81012 0.0
O244 O 0.17486 0.07642 0.81724 0.0
C245 C 0.3016 0.26045 0.81605 0.0
C246 C 0.35073 0.2842 0.80718 0.0
C247 C 0.33539 0.28913 0.81567 0.0
N248 N 0.29747 0.23916 0.80826 0.0
N249 N 0.32677 0.25373 0.80292 0.0
C250 C 0.27311 0.2537 0.82342 0.0
H251 H 0.24962 0.24989 0.81925 0.0
H252 H 0.2655 0.22913 0.82763 0.0
H253 H 0.28114 0.27579 0.82877 0.0
C254 C 0.26069 0.10629 0.81152 0.0
N255 N 0.24813 0.12623 0.80771 0.0
N256 N 0.26797 0.15881 0.81074 0.0
C257 C 0.29314 0.16039 0.81691 0.0
C258 C 0.28941 0.12708 0.81762 0.0
C259 C 0.24701 0.06861 0.80877 0.0
H260 H 0.23482 0.06303 0.80118 0.0
H261 H 0.22694 0.05146 0.81435 0.0
H262 H 0.26849 0.0623 0.80884 0.0
O263 O 0.21707 0.1335 0.78636 0.0
O264 O 0.25373 0.18941 0.79044 0.0
H265 H 0.33998 0.21053 0.81741 0.0
H266 H 0.33008 0.1863 0.82911 0.0
C267 C 0.3186 0.19266 0.82256 0.0
H268 H 0.30507 0.20646 0.82537 0.0
H269 H 0.33072 0.24238 0.79651 0.0
O270 O 0.17535 0.06219 0.80116 0.0
C271 C 0.23668 0.16565 0.78388 0.0
Co272 Co 0.87536 0.09061 0.79689 0.0
Co273 Co 0.79738 0.06822 0.80292 0.0
C274 C 0.82727 0.0257 0.80965 0.0
O275 O 0.85523 0.04719 0.80502 0.0
O276 O 0.80055 0.02979 0.80989 0.0
C277 C 0.94164 0.10449 0.804 0.0
O278 O 0.92196 0.08477 0.81143 0.0
C279 C 0.72948 0.05069 0.81242 0.0
C280 C 0.71686 0.0864 0.804 0.0
C281 C 0.70551 0.06239 0.81181 0.0
N282 N 0.75409 0.06727 0.80529 0.0
N283 N 0.74604 0.08813 0.8002 0.0
C284 C 0.73108 0.02694 0.82021 0.0
H285 H 0.75797 0.03922 0.82341 0.0
H286 H 0.71182 0.02118 0.82635 0.0
H287 H 0.72556 0.00199 0.81656 0.0
C288 C 0.88822 0.15709 0.80595 0.0
N289 N 0.86635 0.1237 0.8031 0.0
N290 N 0.83471 0.11349 0.80656 0.0
C291 C 0.83568 0.13981 0.81204 0.0
C292 C 0.86963 0.16849 0.81178 0.0
C293 C 0.9259 0.17788 0.80282 0.0
H294 H 0.92933 0.16976 0.79519 0.0
H295 H 0.94218 0.17284 0.80821 0.0
H296 H 0.93516 0.20643 0.80278 0.0
O297 O 0.85281 0.07566 0.78348 0.0
O298 O 0.79819 0.05902 0.78827 0.0
H299 H 0.7889 0.14289 0.81348 0.0
H300 H 0.81501 0.15431 0.82479 0.0
C301 C 0.8056 0.13632 0.81821 0.0
H302 H 0.78953 0.10901 0.82097 0.0
H303 H 0.76133 0.10465 0.79437 0.0
O304 O 0.92728 0.11033 0.79649 0.0
C305 C 0.82018 0.06214 0.78151 0.0
Co306 Co 0.78992 0.90065 0.70454 0.0
Co307 Co 0.73487 0.92307 0.69794 0.0
C308 C 0.80978 0.96961 0.69393 0.0
O309 O 0.81604 0.94713 0.698 0.0
O310 O 0.77868 0.96439 0.69312 0.0
C311 C 0.84381 0.88872 0.69792 0.0
O312 O 0.8449 0.90997 0.6908 0.0
C313 C 0.69261 0.95239 0.68982 0.0
C314 C 0.63857 0.90933 0.69279 0.0
C315 C 0.65753 0.94273 0.68877 0.0
N316 N 0.69433 0.92592 0.69431 0.0
N317 N 0.66195 0.90033 0.6961 0.0
C318 C 0.724 0.9852 0.68609 0.0
H319 H 0.74019 0.97808 0.68131 0.0
H320 H 0.71651 0.00169 0.68159 0.0
H321 H 0.74024 0.00046 0.69262 0.0
C322 C 0.74419 0.83988 0.69199 0.0
N323 N 0.75103 0.86989 0.69659 0.0
N324 N 0.73038 0.88069 0.69286 0.0
C325 C 0.71072 0.85854 0.68543 0.0
C326 C 0.71901 0.83204 0.68464 0.0
C327 C 0.76159 0.81902 0.69449 0.0
H328 H 0.76826 0.82151 0.70262 0.0
H329 H 0.78594 0.82884 0.68999 0.0
H330 H 0.74412 0.79088 0.69263 0.0
O331 O 0.77649 0.90989 0.71794 0.0
O332 O 0.73819 0.92582 0.71291 0.0
H333 H 0.66095 0.85258 0.68157 0.0
H334 H 0.68646 0.8533 0.6709 0.0
C335 C 0.68789 0.86501 0.67842 0.0
H336 H 0.69806 0.89358 0.67759 0.0
H337 H 0.65582 0.87664 0.69957 0.0
O338 O 0.82252 0.8815 0.70523 0.0
C339 C 0.75545 0.92116 0.71987 0.0
Co340 Co 0.08846 0.87738 0.69705 0.0
Co341 Co 0.06402 0.7966 0.69804 0.0
C342 C 0.01938 0.82335 0.68883 0.0
O343 O 0.0437 0.85499 0.68993 0.0
O344 O 0.0234 0.79784 0.69162 0.0
C345 C 0.11145 0.94224 0.68659 0.0
O346 O 0.10389 0.92241 0.67852 0.0
C347 C 0.04471 0.72584 0.69009 0.0
C348 C 0.05921 0.70394 0.70298 0.0
C349 C 0.0461 0.69627 0.69323 0.0
N350 N 0.05691 0.74975 0.6976 0.0
N351 N 0.06538 0.73633 0.70527 0.0
C352 C 0.03105 0.73109 0.6803 0.0
H353 H 0.02424 0.75204 0.68094 0.0
H354 H 0.05165 0.73916 0.67444 0.0
H355 H 0.00758 0.70634 0.67786 0.0
C356 C 0.15153 0.88072 0.68821 0.0
N357 N 0.119 0.86259 0.69213 0.0
N358 N 0.10886 0.82888 0.69221 0.0
C359 C 0.13488 0.82469 0.68823 0.0
C360 C 0.16241 0.85738 0.6855 0.0
C361 C 0.17308 0.91992 0.68766 0.0
H362 H 0.16721 0.92902 0.68052 0.0
H363 H 0.20156 0.92879 0.68773 0.0
H364 H 0.16703 0.93199 0.69412 0.0
O365 O 0.07681 0.86492 0.7114 0.0
O366 O 0.06123 0.80849 0.71247 0.0
H367 H 0.15853 0.79364 0.68398 0.0
H368 H 0.11191 0.77343 0.68181 0.0
C369 C 0.13352 0.79024 0.68703 0.0
H370 H 0.12806 0.7768 0.69443 0.0
H371 H 0.07568 0.74946 0.71207 0.0
O372 O 0.10758 0.92853 0.69528 0.0
C373 C 0.06576 0.8368 0.71652 0.0
Co374 Co 0.11577 0.20714 0.70581 0.0
Co375 Co 0.19308 0.25719 0.6984 0.0
C376 C 0.15948 0.18379 0.69324 0.0
O377 O 0.13399 0.18044 0.69858 0.0
O378 O 0.18587 0.21391 0.6914 0.0
C379 C 0.0497 0.15679 0.69871 0.0
O380 O 0.06956 0.157 0.69129 0.0
C381 C 0.26302 0.30494 0.68907 0.0
C382 C 0.28266 0.34898 0.69991 0.0
C383 C 0.2917 0.3377 0.69128 0.0
N384 N 0.23813 0.29745 0.69609 0.0
N385 N 0.25008 0.32398 0.7025 0.0
C386 C 0.26014 0.28025 0.68088 0.0
H387 H 0.24571 0.25282 0.68363 0.0
H388 H 0.24518 0.28263 0.67449 0.0
H389 H 0.28641 0.28624 0.67816 0.0
C390 C 0.10543 0.26131 0.6959 0.0
N391 N 0.12622 0.24857 0.69881 0.0
N392 N 0.15776 0.26823 0.69501 0.0
C393 C 0.15776 0.29367 0.68931 0.0
C394 C 0.12461 0.29016 0.68976 0.0
C395 C 0.06732 0.24496 0.69849 0.0
H396 H 0.06283 0.23511 0.70636 0.0
H397 H 0.05194 0.22247 0.69336 0.0
H398 H 0.05784 0.26391 0.69759 0.0
O399 O 0.13837 0.21622 0.71917 0.0
O400 O 0.19264 0.24756 0.71317 0.0
H401 H 0.20802 0.34013 0.6889 0.0
H402 H 0.18108 0.33443 0.678 0.0
C403 C 0.18879 0.3206 0.68355 0.0
H404 H 0.20174 0.30785 0.67961 0.0
H405 H 0.23606 0.32477 0.70874 0.0
O406 O 0.06388 0.17647 0.70632 0.0
C407 C 0.17152 0.23236 0.72048 0.0
Co408 Co 0.76511 0.54691 0.53699 0.0
Co409 Co 0.74016 0.60056 0.53102 0.0
C410 C 0.69734 0.52716 0.52532 0.0
O411 O 0.72008 0.52182 0.52965 0.0
O412 O 0.70095 0.55777 0.52479 0.0
C413 C 0.78019 0.49603 0.52947 0.0
O414 O 0.76004 0.496 0.52216 0.0
C415 C 0.72152 0.65077 0.52176 0.0
C416 C 0.75592 0.69829 0.53068 0.0
C417 C 0.73247 0.68623 0.52273 0.0
N418 N 0.73802 0.64236 0.52883 0.0
N419 N 0.7581 0.67079 0.53421 0.0
C420 C 0.69868 0.62625 0.51369 0.0
H421 H 0.70728 0.60712 0.51182 0.0
H422 H 0.69923 0.64087 0.5068 0.0
H423 H 0.67127 0.61146 0.51649 0.0
C424 C 0.82952 0.60058 0.52696 0.0
N425 N 0.79643 0.58853 0.5302 0.0
N426 N 0.78493 0.60896 0.52678 0.0
C427 C 0.80999 0.63414 0.52096 0.0
C428 C 0.83928 0.62985 0.52092 0.0
C429 C 0.85167 0.58503 0.52994 0.0
H430 H 0.84472 0.57401 0.53767 0.0
H431 H 0.84674 0.56351 0.52465 0.0
H432 H 0.88 0.60502 0.5297 0.0
O433 O 0.75215 0.5554 0.5506 0.0
O434 O 0.73366 0.59181 0.54573 0.0
H435 H 0.81061 0.68284 0.51953 0.0
H436 H 0.82208 0.66862 0.50812 0.0
C437 C 0.80468 0.65967 0.51482 0.0
H438 H 0.77705 0.64728 0.51226 0.0
H439 H 0.77438 0.67168 0.54006 0.0
O440 O 0.78578 0.51564 0.53711 0.0
C441 C 0.73827 0.57419 0.55257 0.0
Co442 Co 0.46296 0.21823 0.53858 0.0
Co443 Co 0.40823 0.14176 0.53123 0.0
C444 C 0.48143 0.16939 0.52673 0.0
O445 O 0.48711 0.19613 0.53189 0.0
O446 O 0.45042 0.14475 0.52478 0.0
C447 C 0.5218 0.28396 0.53298 0.0
O448 O 0.52729 0.26387 0.52681 0.0
C449 C 0.35935 0.07167 0.52242 0.0
C450 C 0.31059 0.05926 0.53055 0.0
C451 C 0.32429 0.04602 0.52356 0.0
N452 N 0.36587 0.09889 0.52845 0.0
N453 N 0.33655 0.0913 0.53323 0.0
C454 C 0.38693 0.06948 0.51638 0.0
H455 H 0.41066 0.07791 0.52109 0.0
H456 H 0.39445 0.08774 0.50989 0.0
H457 H 0.3777 0.04248 0.5136 0.0
C458 C 0.4169 0.23465 0.52665 0.0
N459 N 0.42378 0.21104 0.53094 0.0
N460 N 0.4025 0.17985 0.52715 0.0
C461 C 0.38201 0.18283 0.5201 0.0
C462 C 0.39069 0.21783 0.51951 0.0
C463 C 0.43614 0.27304 0.52904 0.0
H464 H 0.44235 0.27704 0.5372 0.0
H465 H 0.46101 0.28607 0.5247 0.0
H466 H 0.42027 0.28533 0.52696 0.0
O467 O 0.45035 0.19579 0.55191 0.0
O468 O 0.41593 0.14165 0.54612 0.0
H469 H 0.33302 0.13648 0.51727 0.0
H470 H 0.35204 0.16374 0.5063 0.0
C471 C 0.35797 0.15361 0.51324 0.0
H472 H 0.36997 0.13747 0.5112 0.0
H473 H 0.33445 0.10787 0.53846 0.0
O474 O 0.49652 0.26987 0.53925 0.0
C475 C 0.43191 0.16279 0.55337 0.0
Co476 Co 0.78659 0.24184 0.53298 0.0
Co477 Co 0.86763 0.26918 0.53245 0.0
C478 C 0.83704 0.31175 0.52433 0.0
O479 O 0.80604 0.28697 0.526 0.0
O480 O 0.86354 0.3086 0.52647 0.0
C481 C 0.72254 0.221 0.5231 0.0
O482 O 0.7439 0.23388 0.51536 0.0
C483 C 0.93242 0.29043 0.52151 0.0
C484 C 0.96507 0.28144 0.53242 0.0
C485 C 0.96433 0.29146 0.52256 0.0
N486 N 0.91484 0.27957 0.53026 0.0
N487 N 0.93463 0.27463 0.5368 0.0
C488 C 0.91904 0.30104 0.51257 0.0
H489 H 0.9184 0.32527 0.51449 0.0
H490 H 0.89168 0.28037 0.51087 0.0
H491 H 0.93583 0.30656 0.50583 0.0
C492 C 0.7838 0.18067 0.52282 0.0
N493 N 0.80172 0.21241 0.52727 0.0
N494 N 0.83564 0.22405 0.52659 0.0
C495 C 0.84022 0.20008 0.52142 0.0
C496 C 0.80758 0.17198 0.51883 0.0
C497 C 0.74465 0.16025 0.52175 0.0
H498 H 0.73206 0.16361 0.52855 0.0
H499 H 0.73688 0.16978 0.51504 0.0
H500 H 0.73467 0.13186 0.5207 0.0
O501 O 0.80171 0.25321 0.54718 0.0
O502 O 0.85887 0.27118 0.54724 0.0
H503 H 0.89229 0.21286 0.52568 0.0
H504 H 0.87194 0.17801 0.51651 0.0
C505 C 0.875 0.20352 0.51898 0.0
H506 H 0.88757 0.22276 0.51279 0.0
H507 H 0.92699 0.26571 0.54417 0.0
O508 O 0.73508 0.22112 0.53176 0.0
C509 C 0.83088 0.26517 0.55185 0.0
Co510 Co 0.87435 0.42501 0.63401 0.0
Co511 Co 0.92424 0.39326 0.63632 0.0
C512 C 0.8523 0.35803 0.64517 0.0
O513 O 0.84792 0.38315 0.64237 0.0
O514 O 0.88039 0.35757 0.64322 0.0
C515 C 0.83476 0.4523 0.64278 0.0
O516 O 0.84561 0.44411 0.65103 0.0
C517 C 0.96651 0.37001 0.64747 0.0
C518 C 0.00889 0.38031 0.63669 0.0
C519 C 0.99757 0.36924 0.64646 0.0
N520 N 0.96028 0.38178 0.6388 0.0
N521 N 0.98545 0.38744 0.63234 0.0
C522 C 0.9419 0.35816 0.65628 0.0
H523 H 0.91648 0.33539 0.65393 0.0
H524 H 0.93658 0.37931 0.65857 0.0
H525 H 0.95195 0.34994 0.66277 0.0
C526 C 0.93509 0.48699 0.64319 0.0
N527 N 0.91987 0.45438 0.63923 0.0
N528 N 0.93993 0.44057 0.64094 0.0
C529 C 0.96804 0.46385 0.64639 0.0
C530 C 0.96573 0.49384 0.64807 0.0
C531 C 0.91918 0.51016 0.64308 0.0
H532 H 0.90173 0.50417 0.63647 0.0
H533 H 0.90413 0.50628 0.65013 0.0
H534 H 0.93975 0.5382 0.64269 0.0
O535 O 0.87514 0.40728 0.62041 0.0
O536 O 0.91207 0.38666 0.62157 0.0
H537 H 0.00607 0.44768 0.64411 0.0
H538 H 0.01856 0.48181 0.65341 0.0
C539 C 0.99625 0.45742 0.65029 0.0
H540 H 0.98542 0.43737 0.65632 0.0
H541 H 0.98721 0.39718 0.62506 0.0
O542 O 0.84486 0.44746 0.63424 0.0
C543 C 0.89056 0.39211 0.61649 0.0
Co544 Co 0.56396 0.44402 0.62775 0.0
Co545 Co 0.59225 0.52253 0.63425 0.0
C546 C 0.63452 0.4901 0.63831 0.0
O547 O 0.61124 0.463 0.63373 0.0
O548 O 0.63057 0.51643 0.63997 0.0
C549 C 0.54949 0.37868 0.63516 0.0
O550 O 0.57071 0.39956 0.64218 0.0
C551 C 0.62281 0.59326 0.64302 0.0
C552 C 0.58959 0.61238 0.6362 0.0
C553 C 0.61775 0.62191 0.6426 0.0
N554 N 0.59876 0.56788 0.6371 0.0
N555 N 0.57907 0.57952 0.63301 0.0
C556 C 0.64884 0.58924 0.64931 0.0
H557 H 0.63564 0.56323 0.65307 0.0
H558 H 0.66097 0.61011 0.65511 0.0
H559 H 0.66969 0.59039 0.64434 0.0
C560 C 0.504 0.43458 0.64033 0.0
N561 N 0.53505 0.45525 0.63575 0.0
N562 N 0.54792 0.48763 0.639 0.0
C563 C 0.52604 0.48846 0.64596 0.0
C564 C 0.49741 0.45486 0.64704 0.0
C565 C 0.48311 0.3955 0.6392 0.0
H566 H 0.48452 0.38801 0.63131 0.0
H567 H 0.49407 0.38335 0.64428 0.0
H568 H 0.45522 0.38497 0.64124 0.0
O569 O 0.57357 0.4653 0.61413 0.0
O570 O 0.59617 0.52044 0.61941 0.0
H571 H 0.53047 0.53898 0.6466 0.0
H572 H 0.51476 0.51458 0.65809 0.0
C573 C 0.53328 0.52066 0.65174 0.0
H574 H 0.56065 0.53404 0.65459 0.0
H575 H 0.55839 0.56495 0.62805 0.0
O576 O 0.54272 0.39201 0.62757 0.0
C577 C 0.58882 0.49819 0.61235 0.0
Co578 Co 0.5483 0.12848 0.63325 0.0
Co579 Co 0.47063 0.0681 0.63782 0.0
C580 C 0.49334 0.14076 0.64349 0.0
O581 O 0.52329 0.14954 0.63983 0.0
O582 O 0.46861 0.10893 0.64354 0.0
C583 C 0.6078 0.17852 0.64311 0.0
O584 O 0.5837 0.16743 0.65019 0.0
C585 C 0.40741 0.01525 0.64857 0.0
C586 C 0.3811 0.97472 0.63681 0.0
C587 C 0.37818 0.98274 0.64672 0.0
N588 N 0.42709 0.02588 0.64015 0.0
N589 N 0.41117 0.00152 0.63316 0.0
C590 C 0.41525 0.03685 0.65793 0.0
H591 H 0.39598 0.04602 0.65865 0.0
H592 H 0.44216 0.0599 0.65766 0.0
H593 H 0.41248 0.02076 0.66467 0.0
C594 C 0.56427 0.0804 0.6444 0.0
N595 N 0.54092 0.0879 0.64022 0.0
N596 N 0.50899 0.06373 0.64287 0.0
C597 C 0.51129 0.04037 0.649 0.0
C598 C 0.54647 0.05057 0.65026 0.0
C599 C 0.60315 0.1011 0.64281 0.0
H600 H 0.60927 0.11346 0.63524 0.0
H601 H 0.61523 0.12179 0.64866 0.0
H602 H 0.61482 0.08389 0.64352 0.0
O603 O 0.52947 0.11808 0.61929 0.0
O604 O 0.47492 0.07624 0.62299 0.0
H605 H 0.46027 0.99452 0.64854 0.0
H606 H 0.48854 0.99337 0.65821 0.0
C607 C 0.48075 0.01046 0.65416 0.0
H608 H 0.46954 0.02101 0.65969 0.0
H609 H 0.42082 0.00321 0.62587 0.0
O610 O 0.59895 0.16527 0.63432 0.0
C611 C 0.49805 0.09619 0.61661 0.0
Co612 Co 0.57521 0.12646 0.1305 0.0
Co613 Co 0.59969 0.07289 0.13693 0.0
C614 C 0.64586 0.1466 0.14064 0.0
O615 O 0.6227 0.15088 0.13619 0.0
O616 O 0.6406 0.11602 0.14269 0.0
C617 C 0.5599 0.17107 0.14069 0.0
O618 O 0.57182 0.15864 0.14771 0.0
C619 C 0.6196 0.02169 0.14529 0.0
C620 C 0.58429 0.97525 0.13614 0.0
C621 C 0.60924 0.98643 0.14372 0.0
N622 N 0.60115 0.03046 0.13899 0.0
N623 N 0.58027 0.00255 0.13355 0.0
C624 C 0.64771 0.04712 0.1522 0.0
H625 H 0.65942 0.07416 0.14921 0.0
H626 H 0.636 0.04629 0.15968 0.0
H627 H 0.66868 0.04033 0.15315 0.0
C628 C 0.51101 0.07399 0.14078 0.0
N629 N 0.54444 0.08609 0.13789 0.0
N630 N 0.55557 0.0656 0.14154 0.0
C631 C 0.52977 0.04039 0.14721 0.0
C632 C 0.50069 0.04485 0.14684 0.0
C633 C 0.48944 0.09027 0.13787 0.0
H634 H 0.49846 0.10407 0.13054 0.0
H635 H 0.49224 0.10945 0.14374 0.0
H636 H 0.46122 0.07024 0.13733 0.0
O637 O 0.58304 0.11502 0.11675 0.0
O638 O 0.6039 0.08078 0.12199 0.0
H639 H 0.52634 0.99028 0.14713 0.0
H640 H 0.51318 0.0009 0.15883 0.0
C641 C 0.53231 0.01179 0.15254 0.0
H642 H 0.5593 0.02191 0.15547 0.0
H643 H 0.56303 0.00212 0.12807 0.0
O644 O 0.55855 0.16084 0.13163 0.0
C645 C 0.59732 0.09647 0.11494 0.0
Co646 Co 0.88199 0.44984 0.12733 0.0
Co647 Co 0.93142 0.52839 0.13422 0.0
C648 C 0.8576 0.49429 0.13905 0.0
O649 O 0.85479 0.46805 0.13421 0.0
O650 O 0.88745 0.5213 0.1407 0.0
C651 C 0.84448 0.38501 0.13666 0.0
O652 O 0.85906 0.40616 0.14437 0.0
C653 C 0.97972 0.59851 0.1436 0.0
C654 C 0.02226 0.61895 0.13227 0.0
C655 C 0.01221 0.62745 0.14123 0.0
N656 N 0.97129 0.57407 0.13635 0.0
N657 N 0.99695 0.58656 0.12965 0.0
C658 C 0.95637 0.59479 0.15227 0.0
H659 H 0.92863 0.57578 0.15047 0.0
H660 H 0.9641 0.5849 0.15892 0.0
H661 H 0.959 0.62053 0.15423 0.0
C662 C 0.93989 0.44326 0.1364 0.0
N663 N 0.92463 0.46229 0.13402 0.0
N664 N 0.94311 0.49387 0.13793 0.0
C665 C 0.96987 0.49538 0.14331 0.0
C666 C 0.96875 0.46341 0.14244 0.0
C667 C 0.92686 0.40619 0.13312 0.0
H668 H 0.91008 0.3999 0.12633 0.0
H669 H 0.91154 0.3881 0.13934 0.0
H670 H 0.94916 0.40197 0.13143 0.0
O671 O 0.89023 0.47118 0.11379 0.0
O672 O 0.92243 0.52608 0.11938 0.0
H673 H 0.01491 0.54671 0.14353 0.0
H674 H 0.01147 0.52029 0.15432 0.0
C675 C 0.99636 0.52702 0.14897 0.0
H676 H 0.98296 0.53892 0.1531 0.0
H677 H 0.99705 0.57294 0.12322 0.0
O678 O 0.85069 0.39788 0.12779 0.0
C679 C 0.90709 0.50425 0.11224 0.0
Co680 Co 0.5506 0.4244 0.13159 0.0
Co681 Co 0.47238 0.3989 0.13799 0.0
C682 C 0.50609 0.35843 0.14381 0.0
O683 O 0.53347 0.3804 0.13911 0.0
O684 O 0.4792 0.36199 0.14446 0.0
C685 C 0.61642 0.44932 0.13997 0.0
O686 O 0.59654 0.4425 0.148 0.0
C687 C 0.40958 0.38057 0.15013 0.0
C688 C 0.37995 0.39639 0.14002 0.0
C689 C 0.37943 0.38315 0.14953 0.0
N690 N 0.42745 0.39251 0.14145 0.0
N691 N 0.40944 0.40161 0.13541 0.0
C692 C 0.42051 0.36516 0.15848 0.0
H693 H 0.4246 0.34406 0.15539 0.0
H694 H 0.4459 0.3856 0.16167 0.0
H695 H 0.40051 0.35372 0.16453 0.0
C696 C 0.56071 0.49 0.1412 0.0
N697 N 0.54015 0.45631 0.13831 0.0
N698 N 0.50791 0.44516 0.14148 0.0
C699 C 0.50718 0.47133 0.14661 0.0
C700 C 0.54062 0.50037 0.14662 0.0
C701 C 0.59864 0.51274 0.13855 0.0
H702 H 0.60487 0.50367 0.13146 0.0
H703 H 0.61507 0.51188 0.14476 0.0
H704 H 0.60516 0.54046 0.13767 0.0
O705 O 0.52712 0.40961 0.11818 0.0
O706 O 0.47227 0.3913 0.12322 0.0
H707 H 0.45505 0.46307 0.1459 0.0
H708 H 0.48163 0.49289 0.15574 0.0
C709 C 0.47542 0.46845 0.15165 0.0
H710 H 0.4647 0.44631 0.15705 0.0
H711 H 0.41762 0.41199 0.12819 0.0
O712 O 0.60232 0.44389 0.13128 0.0
C713 C 0.49432 0.39569 0.11632 0.0
Co714 Co 0.45096 0.22999 0.0396 0.0
Co715 Co 0.40026 0.25612 0.03204 0.0
C716 C 0.47422 0.29986 0.02854 0.0
O717 O 0.47751 0.27677 0.0334 0.0
O718 O 0.4441 0.29546 0.02633 0.0
C719 C 0.49488 0.2111 0.03054 0.0
O720 O 0.48281 0.22116 0.02294 0.0
C721 C 0.35331 0.27459 0.02082 0.0
C722 C 0.30409 0.24382 0.02941 0.0
C723 C 0.31811 0.26525 0.02106 0.0
N724 N 0.35967 0.25921 0.02868 0.0
N725 N 0.33022 0.24124 0.03384 0.0
C726 C 0.3795 0.2949 0.01276 0.0
H727 H 0.39268 0.32326 0.01463 0.0
H728 H 0.39975 0.28698 0.0123 0.0
H729 H 0.36638 0.29087 0.00534 0.0
C730 C 0.40175 0.1676 0.02796 0.0
N731 N 0.41114 0.19926 0.03192 0.0
N732 N 0.39257 0.21162 0.02767 0.0
C733 C 0.37184 0.18875 0.02051 0.0
C734 C 0.37728 0.16021 0.02041 0.0
C735 C 0.41596 0.14454 0.03123 0.0
H736 H 0.42706 0.15157 0.03894 0.0
H737 H 0.4366 0.1472 0.02592 0.0
H738 H 0.39476 0.11662 0.03108 0.0
O739 O 0.43887 0.23985 0.05298 0.0
O740 O 0.40637 0.26186 0.04712 0.0
H741 H 0.3281 0.1956 0.01728 0.0
H742 H 0.33969 0.17619 0.00707 0.0
C743 C 0.35029 0.19596 0.01321 0.0
H744 H 0.36657 0.22245 0.00991 0.0
H745 H 0.32768 0.22614 0.04019 0.0
O746 O 0.48464 0.21239 0.03943 0.0
C747 C 0.42129 0.25537 0.05442 0.0
Co748 Co 0.76092 0.21882 0.03808 0.0
Co749 Co 0.7371 0.1417 0.03105 0.0
C750 C 0.69141 0.16928 0.02724 0.0
O751 O 0.71388 0.19631 0.03201 0.0
O752 O 0.69695 0.14423 0.02511 0.0
C753 C 0.77805 0.28123 0.02872 0.0
O754 O 0.76878 0.25917 0.02113 0.0
C755 C 0.71498 0.07154 0.02216 0.0
C756 C 0.74844 0.05678 0.03092 0.0
C757 C 0.72278 0.04482 0.02354 0.0
N758 N 0.73533 0.0981 0.02843 0.0
N759 N 0.75536 0.08912 0.03358 0.0
C760 C 0.68687 0.07098 0.01568 0.0
H761 H 0.67 0.07758 0.02032 0.0
H762 H 0.69921 0.09141 0.00975 0.0
H763 H 0.67024 0.045 0.01211 0.0
C764 C 0.82364 0.23281 0.02653 0.0
N765 N 0.79218 0.21024 0.03052 0.0
N766 N 0.78083 0.17901 0.02657 0.0
C767 C 0.80411 0.18111 0.01958 0.0
C768 C 0.83192 0.21547 0.01928 0.0
C769 C 0.84591 0.2704 0.02965 0.0
H770 H 0.83864 0.27456 0.03732 0.0
H771 H 0.84251 0.28768 0.02425 0.0
H772 H 0.87406 0.27794 0.02953 0.0
O773 O 0.75217 0.19813 0.05161 0.0
O774 O 0.73141 0.1435 0.04602 0.0
H775 H 0.80469 0.13367 0.01678 0.0
H776 H 0.81455 0.1614 0.00584 0.0
C777 C 0.79804 0.15161 0.01271 0.0
H778 H 0.76991 0.13642 0.01057 0.0
H779 H 0.7734 0.10493 0.03906 0.0
O780 O 0.77693 0.26983 0.03762 0.0
C781 C 0.73746 0.16517 0.0532 0.0
Co782 Co 0.77682 0.54517 0.03749 0.0
Co783 Co 0.85234 0.5957 0.02892 0.0
C784 C 0.82263 0.52162 0.02603 0.0
O785 O 0.79697 0.51871 0.0312 0.0
O786 O 0.84774 0.55154 0.02337 0.0
C787 C 0.71269 0.49996 0.02921 0.0
O788 O 0.73327 0.51213 0.02129 0.0
C789 C 0.92485 0.63955 0.02121 0.0
C790 C 0.93148 0.69269 0.02245 0.0
C791 C 0.94845 0.67487 0.01948 0.0
N792 N 0.89518 0.63667 0.02502 0.0
N793 N 0.89949 0.66856 0.02581 0.0
C794 C 0.9294 0.60879 0.01885 0.0
H795 H 0.92702 0.5942 0.0259 0.0
H796 H 0.90804 0.59071 0.01372 0.0
H797 H 0.95502 0.61688 0.01521 0.0
C798 C 0.76111 0.59235 0.0259 0.0
N799 N 0.78437 0.58392 0.02962 0.0
N800 N 0.81425 0.60164 0.02478 0.0
C801 C 0.81022 0.62045 0.01738 0.0
C802 C 0.77631 0.61506 0.01785 0.0
C803 C 0.72502 0.57938 0.03006 0.0
H804 H 0.72325 0.56997 0.03792 0.0
H805 H 0.70531 0.55763 0.02536 0.0
H806 H 0.71857 0.60077 0.02988 0.0
O807 O 0.80048 0.55892 0.05053 0.0
O808 O 0.8541 0.59098 0.04402 0.0
H809 H 0.8511 0.66788 0.01097 0.0
H810 H 0.82317 0.63598 0.00187 0.0
C811 C 0.83653 0.6394 0.00922 0.0
H812 H 0.85537 0.62968 0.00865 0.0
H813 H 0.88046 0.67387 0.02862 0.0
O814 O 0.72572 0.51079 0.03794 0.0
C815 C 0.83373 0.57671 0.05157 0.0
Co816 Co 0.42171 0.87317 0.86698 0.0
Co817 Co 0.397 0.92947 0.8672 0.0
C818 C 0.35123 0.85816 0.85889 0.0
O819 O 0.37493 0.85032 0.86065 0.0
O820 O 0.35586 0.88852 0.86091 0.0
C821 C 0.43183 0.81946 0.85781 0.0
O822 O 0.40366 0.8127 0.85265 0.0
C823 C 0.37499 0.97857 0.85972 0.0
C824 C 0.40435 0.02393 0.86986 0.0
C825 C 0.38275 0.01282 0.86147 0.0
N826 N 0.39142 0.96991 0.86674 0.0
N827 N 0.40838 0.99693 0.87289 0.0
C828 C 0.35616 0.95607 0.85081 0.0
H829 H 0.36836 0.9403 0.84856 0.0
H830 H 0.35649 0.97216 0.84433 0.0
H831 H 0.32847 0.93772 0.85294 0.0
C832 C 0.48285 0.93058 0.85716 0.0
N833 N 0.45113 0.91759 0.86148 0.0
N834 N 0.44042 0.94055 0.86076 0.0
C835 C 0.4648 0.96868 0.85555 0.0
C836 C 0.49251 0.96321 0.85309 0.0
C837 C 0.50444 0.91293 0.85761 0.0
H838 H 0.50099 0.90009 0.86504 0.0
H839 H 0.49547 0.89255 0.85165 0.0
H840 H 0.53276 0.93192 0.85651 0.0
O841 O 0.41337 0.87628 0.88142 0.0
O842 O 0.39542 0.91547 0.88172 0.0
H843 H 0.46411 0.0158 0.85899 0.0
H844 H 0.47944 0.01488 0.84642 0.0
C845 C 0.46042 0.99891 0.85237 0.0
H846 H 0.43359 0.98895 0.8494 0.0
H847 H 0.42417 0.99755 0.87885 0.0
O848 O 0.44318 0.84312 0.86458 0.0
C849 C 0.40172 0.89349 0.88621 0.0
Co850 Co 0.11687 0.55252 0.87064 0.0
Co851 Co 0.06801 0.47416 0.86367 0.0
C852 C 0.14252 0.51002 0.85866 0.0
O853 O 0.14516 0.53638 0.86338 0.0
O854 O 0.11297 0.48193 0.85764 0.0
C855 C 0.16409 0.6191 0.86338 0.0
O856 O 0.1622 0.59951 0.85567 0.0
C857 C 0.02242 0.40774 0.85268 0.0
C858 C 0.97461 0.38637 0.8621 0.0
C859 C 0.98803 0.38038 0.85338 0.0
N860 N 0.02895 0.42911 0.86064 0.0
N861 N 0.00043 0.41582 0.86631 0.0
C862 C 0.04742 0.41524 0.84415 0.0
H863 H 0.06528 0.44395 0.84335 0.0
H864 H 0.03305 0.40415 0.83699 0.0
H865 H 0.06354 0.40287 0.84579 0.0
C866 C 0.06255 0.56102 0.86011 0.0
N867 N 0.07565 0.5409 0.86339 0.0
N868 N 0.0567 0.50901 0.85972 0.0
C869 C 0.03134 0.50817 0.85377 0.0
C870 C 0.03425 0.54103 0.8539 0.0
C871 C 0.0775 0.59905 0.86258 0.0
H872 H 0.08762 0.60433 0.87041 0.0
H873 H 0.09945 0.615 0.85734 0.0
H874 H 0.05743 0.60712 0.86168 0.0
O875 O 0.10754 0.52931 0.88401 0.0
O876 O 0.07446 0.47446 0.87853 0.0
H877 H 0.99074 0.48399 0.84244 0.0
H878 H 0.01916 0.46544 0.84376 0.0
C879 C 0.00536 0.47691 0.84788 0.0
H880 H 0.98634 0.45681 0.85314 0.0
H881 H 0.99814 0.42771 0.87285 0.0
O882 O 0.1463 0.60454 0.87129 0.0
C883 C 0.09007 0.49631 0.88564 0.0
Co884 Co 0.45508 0.58664 0.86741 0.0
Co885 Co 0.53271 0.6078 0.86124 0.0
C886 C 0.50016 0.64663 0.85297 0.0
O887 O 0.47267 0.62644 0.85798 0.0
O888 O 0.5272 0.64302 0.85315 0.0
C889 C 0.38831 0.58323 0.86572 0.0
O890 O 0.40758 0.61685 0.86369 0.0
C891 C 0.60303 0.62586 0.85269 0.0
C892 C 0.61525 0.59303 0.86262 0.0
C893 C 0.62813 0.61593 0.85452 0.0
N894 N 0.57649 0.60896 0.8593 0.0
N895 N 0.58424 0.58968 0.86524 0.0
C896 C 0.60505 0.65249 0.8453 0.0
H897 H 0.59315 0.63922 0.83806 0.0
H898 H 0.63271 0.67309 0.84395 0.0
H899 H 0.59029 0.66505 0.84813 0.0
C900 C 0.44205 0.51805 0.8602 0.0
N901 N 0.46415 0.55214 0.86226 0.0
N902 N 0.49561 0.56117 0.85884 0.0
C903 C 0.49423 0.5331 0.85423 0.0
C904 C 0.46035 0.50483 0.85508 0.0
C905 C 0.40345 0.49954 0.86229 0.0
H906 H 0.39888 0.5045 0.87019 0.0
H907 H 0.39102 0.51025 0.85722 0.0
H908 H 0.39081 0.47086 0.86099 0.0
O909 O 0.479 0.6062 0.88047 0.0
O910 O 0.53311 0.62158 0.87554 0.0
H911 H 0.54091 0.52971 0.85474 0.0
H912 H 0.51557 0.51179 0.84347 0.0
C913 C 0.52457 0.53338 0.84904 0.0
H914 H 0.54094 0.55893 0.84522 0.0
H915 H 0.56808 0.57391 0.87105 0.0
O916 O 0.40333 0.56608 0.86823 0.0
C917 C 0.51182 0.62046 0.88225 0.0
Co918 Co 0.54117 0.76834 0.96223 0.0
Co919 Co 0.59363 0.74092 0.9667 0.0
C920 C 0.51865 0.69447 0.96991 0.0
O921 O 0.51391 0.71879 0.96652 0.0
O922 O 0.54936 0.69923 0.97123 0.0
C923 C 0.49562 0.78 0.9731 0.0
O924 O 0.50623 0.76416 0.9794 0.0
C925 C 0.63361 0.71069 0.97556 0.0
C926 C 0.68469 0.73975 0.96775 0.0
C927 C 0.66648 0.71382 0.97485 0.0
N928 N 0.63225 0.73355 0.96913 0.0
N929 N 0.66285 0.75082 0.96447 0.0
C930 C 0.60461 0.68791 0.98266 0.0
H931 H 0.59165 0.70234 0.9855 0.0
H932 H 0.61459 0.67947 0.98914 0.0
H933 H 0.58473 0.66429 0.97856 0.0
C934 C 0.59244 0.82652 0.97529 0.0
N935 N 0.58128 0.7957 0.97047 0.0
N936 N 0.60156 0.78289 0.973 0.0
C937 C 0.62554 0.80452 0.97976 0.0
C938 C 0.62059 0.83294 0.98144 0.0
C939 C 0.57499 0.84824 0.97452 0.0
H940 H 0.56176 0.84411 0.96713 0.0
H941 H 0.55538 0.84067 0.98066 0.0
H942 H 0.59409 0.87656 0.97539 0.0
O943 O 0.55394 0.76502 0.94811 0.0
O944 O 0.58912 0.74362 0.95184 0.0
H945 H 0.66829 0.81789 0.99026 0.0
H946 H 0.64036 0.77146 0.98765 0.0
C947 C 0.65297 0.79824 0.98438 0.0
H948 H 0.67137 0.79984 0.97842 0.0
H949 H 0.66885 0.77025 0.95906 0.0
O950 O 0.50761 0.78578 0.96413 0.0
C951 C 0.5735 0.75265 0.94541 0.0
Co952 Co 0.24287 0.77558 0.96815 0.0
Co953 Co 0.26574 0.85576 0.96943 0.0
C954 C 0.30784 0.82787 0.97903 0.0
O955 O 0.28508 0.79672 0.97661 0.0
O956 O 0.30463 0.85405 0.97656 0.0
C957 C 0.2213 0.71103 0.97788 0.0
O958 O 0.22793 0.73099 0.98589 0.0
C959 C 0.29328 0.92772 0.97703 0.0
C960 C 0.2599 0.94466 0.9692 0.0
C961 C 0.28706 0.95552 0.97607 0.0
N962 N 0.2709 0.9015 0.97098 0.0
N963 N 0.2511 0.91187 0.96629 0.0
C964 C 0.31829 0.9251 0.98414 0.0
H965 H 0.30423 0.90025 0.98846 0.0
H966 H 0.33006 0.94741 0.98951 0.0
H967 H 0.33951 0.9246 0.97975 0.0
C968 C 0.17812 0.76774 0.97695 0.0
N969 N 0.20996 0.78769 0.97279 0.0
N970 N 0.22057 0.821 0.97447 0.0
C971 C 0.19635 0.82298 0.98029 0.0
C972 C 0.16868 0.7892 0.98202 0.0
C973 C 0.15722 0.7285 0.97651 0.0
H974 H 0.16405 0.71865 0.96968 0.0
H975 H 0.16239 0.7173 0.98334 0.0
H976 H 0.12872 0.71954 0.97641 0.0
O977 O 0.25926 0.79267 0.95444 0.0
O978 O 0.27349 0.84885 0.95483 0.0
H979 H 0.19656 0.87149 0.97943 0.0
H980 H 0.1832 0.85023 0.99151 0.0
C981 C 0.20152 0.85599 0.98511 0.0
H982 H 0.229 0.872 0.98777 0.0
H983 H 0.23124 0.89637 0.9612 0.0
O984 O 0.22503 0.72446 0.96915 0.0
C985 C 0.27145 0.82247 0.95016 0.0
Co986 Co 0.22 0.44513 0.96021 0.0
Co987 Co 0.143 0.39763 0.96828 0.0
C988 C 0.1803 0.47145 0.97333 0.0
O989 O 0.20525 0.47379 0.96793 0.0
O990 O 0.15297 0.44195 0.97503 0.0
C991 C 0.28723 0.4834 0.96787 0.0
O992 O 0.26874 0.46933 0.97608 0.0
C993 C 0.07268 0.35908 0.97762 0.0
C994 C 0.05365 0.30535 0.97186 0.0
C995 C 0.04427 0.32511 0.97783 0.0
N996 N 0.09773 0.35939 0.97174 0.0
N997 N 0.08611 0.32722 0.9683 0.0
C998 C 0.07699 0.39035 0.98332 0.0
H999 H 0.10238 0.40271 0.98741 0.0
H1000 H 0.05549 0.38316 0.98883 0.0
H1001 H 0.07766 0.40994 0.97792 0.0
C1002 C 0.22812 0.38846 0.96974 0.0
N1003 N 0.20857 0.40293 0.96707 0.0
N1004 N 0.17758 0.38533 0.97137 0.0
C1005 C 0.17694 0.36009 0.97728 0.0
C1006 C 0.20891 0.36106 0.9764 0.0
C1007 C 0.26383 0.3995 0.9656 0.0
H1008 H 0.26766 0.41301 0.95826 0.0
H1009 H 0.28417 0.41771 0.97095 0.0
H1010 H 0.26728 0.37632 0.96464 0.0
O1011 O 0.19528 0.43694 0.9472 0.0
O1012 O 0.14131 0.4057 0.9535 0.0
H1013 H 0.12908 0.31301 0.9807 0.0
H1014 H 0.15807 0.33188 0.99129 0.0
C1015 C 0.14777 0.33807 0.98443 0.0
H1016 H 0.13359 0.35194 0.98666 0.0
H1017 H 0.10044 0.32018 0.96353 0.0
O1018 O 0.27174 0.47599 0.95937 0.0
C1019 C 0.16201 0.4209 0.94611 0.0
Co1020 Co 0.24322 0.45908 0.46283 0.0
Co1021 Co 0.26893 0.40665 0.46916 0.0
C1022 C 0.30912 0.48049 0.47531 0.0
O1023 O 0.28645 0.48567 0.47088 0.0
O1024 O 0.30619 0.4502 0.47553 0.0
C1025 C 0.21587 0.49806 0.47114 0.0
O1026 O 0.22135 0.48412 0.4792 0.0
C1027 C 0.29858 0.36558 0.47807 0.0
C1028 C 0.26331 0.31273 0.47183 0.0
C1029 C 0.29224 0.33134 0.47798 0.0
N1030 N 0.27448 0.36718 0.47222 0.0
N1031 N 0.25359 0.33553 0.46848 0.0
C1032 C 0.32579 0.3959 0.48402 0.0
H1033 H 0.31325 0.40875 0.48812 0.0
H1034 H 0.33909 0.38752 0.48955 0.0
H1035 H 0.34556 0.41549 0.47879 0.0
C1036 C 0.17712 0.40237 0.4718 0.0
N1037 N 0.21108 0.4161 0.46915 0.0
N1038 N 0.22316 0.3966 0.47298 0.0
C1039 C 0.19781 0.37111 0.47869 0.0
C1040 C 0.16781 0.37382 0.47802 0.0
C1041 C 0.15383 0.41639 0.46861 0.0
H1042 H 0.16408 0.43251 0.4617 0.0
H1043 H 0.15219 0.4325 0.47479 0.0
H1044 H 0.12683 0.39448 0.46717 0.0
O1045 O 0.25893 0.45182 0.44944 0.0
O1046 O 0.27641 0.41456 0.45434 0.0
H1047 H 0.19558 0.32173 0.48012 0.0
H1048 H 0.18441 0.33628 0.49143 0.0
C1049 C 0.20227 0.34509 0.48483 0.0
H1050 H 0.22983 0.35671 0.48742 0.0
H1051 H 0.23259 0.32948 0.46364 0.0
O1052 O 0.22314 0.49072 0.4625 0.0
C1053 C 0.2726 0.4328 0.4475 0.0
Co1054 Co 0.54981 0.78739 0.46581 0.0
Co1055 Co 0.60277 0.86836 0.46934 0.0
C1056 C 0.52959 0.8387 0.47523 0.0
O1057 O 0.52426 0.80937 0.47182 0.0
O1058 O 0.56015 0.8658 0.47529 0.0
C1059 C 0.49519 0.72229 0.47353 0.0
O1060 O 0.49016 0.7432 0.47948 0.0
C1061 C 0.65348 0.9403 0.47712 0.0
C1062 C 0.69763 0.95443 0.46664 0.0
C1063 C 0.68771 0.96651 0.47494 0.0
N1064 N 0.64408 0.91382 0.47049 0.0
N1065 N 0.67059 0.92266 0.46424 0.0
C1066 C 0.62968 0.9408 0.48509 0.0
H1067 H 0.60195 0.92544 0.48265 0.0
H1068 H 0.63275 0.9287 0.49207 0.0
H1069 H 0.63617 0.96811 0.4868 0.0
C1070 C 0.60416 0.78138 0.47678 0.0
N1071 N 0.59162 0.80093 0.47275 0.0
N1072 N 0.61259 0.83413 0.47499 0.0
C1073 C 0.63877 0.83663 0.48088 0.0
C1074 C 0.63433 0.80319 0.48222 0.0
C1075 C 0.58857 0.74286 0.47486 0.0
H1076 H 0.57764 0.73641 0.46712 0.0
H1077 H 0.56693 0.72798 0.48029 0.0
H1078 H 0.60845 0.73454 0.4757 0.0
O1079 O 0.55895 0.80314 0.45169 0.0
O1080 O 0.59187 0.86055 0.45458 0.0
H1081 H 0.68683 0.88558 0.48017 0.0
H1082 H 0.67775 0.86481 0.49241 0.0
C1083 C 0.66588 0.87001 0.48572 0.0
H1084 H 0.65374 0.88565 0.48811 0.0
H1085 H 0.67038 0.90667 0.4584 0.0
O1086 O 0.51908 0.73539 0.46684 0.0
C1087 C 0.57526 0.83477 0.44856 0.0
Co1088 Co 0.22137 0.76769 0.46212 0.0
Co1089 Co 0.14226 0.74004 0.46798 0.0
C1090 C 0.17264 0.69511 0.47108 0.0
O1091 O 0.20059 0.71926 0.46708 0.0
O1092 O 0.14642 0.69923 0.47284 0.0
C1093 C 0.28721 0.77637 0.468 0.0
O1094 O 0.26686 0.7497 0.47383 0.0
C1095 C 0.07535 0.71899 0.47857 0.0
C1096 C 0.05423 0.74555 0.4691 0.0
C1097 C 0.04789 0.72583 0.47778 0.0
N1098 N 0.09712 0.73425 0.47072 0.0
N1099 N 0.08398 0.74953 0.46501 0.0
C1100 C 0.08254 0.70127 0.4871 0.0
H1101 H 0.06822 0.67252 0.48575 0.0
H1102 H 0.11102 0.71044 0.4876 0.0
H1103 H 0.07313 0.70633 0.49433 0.0
C1104 C 0.23146 0.82522 0.47574 0.0
N1105 N 0.21043 0.79512 0.47077 0.0
N1106 N 0.17766 0.78343 0.47347 0.0
C1107 C 0.1768 0.80589 0.48025 0.0
C1108 C 0.21086 0.83305 0.48194 0.0
C1109 C 0.27074 0.8437 0.47536 0.0
H1110 H 0.27954 0.84813 0.46739 0.0
H1111 H 0.27975 0.82681 0.47893 0.0
H1112 H 0.28322 0.86912 0.47939 0.0
O1113 O 0.20146 0.76219 0.44841 0.0
O1114 O 0.14571 0.73971 0.45308 0.0
H1115 H 0.12506 0.79848 0.47898 0.0
H1116 H 0.14915 0.82466 0.48962 0.0
C1117 C 0.14397 0.80164 0.48496 0.0
H1118 H 0.1319 0.77773 0.48972 0.0
H1119 H 0.09613 0.76394 0.45852 0.0
O1120 O 0.27334 0.78822 0.46188 0.0
C1121 C 0.16897 0.74845 0.44625 0.0
Co1122 Co 0.11838 0.57437 0.37064 0.0
Co1123 Co 0.06922 0.60252 0.36282 0.0
C1124 C 0.14323 0.64151 0.35812 0.0
O1125 O 0.14529 0.61834 0.36328 0.0
O1126 O 0.11355 0.63866 0.35617 0.0
C1127 C 0.15612 0.54652 0.36198 0.0
O1128 O 0.13999 0.55031 0.35416 0.0
C1129 C 0.01994 0.61586 0.35086 0.0
C1130 C 0.98298 0.61207 0.36275 0.0
C1131 C 0.98944 0.6172 0.35251 0.0
N1132 N 0.0307 0.60966 0.35974 0.0
N1133 N 0.00851 0.60758 0.3668 0.0
C1134 C 0.03969 0.62253 0.34117 0.0
H1135 H 0.06364 0.62053 0.34225 0.0
H1136 H 0.02288 0.60336 0.33537 0.0
H1137 H 0.04705 0.64909 0.33835 0.0
C1138 C 0.06057 0.50821 0.36261 0.0
N1139 N 0.07571 0.54299 0.36426 0.0
N1140 N 0.05667 0.55494 0.36002 0.0
C1141 C 0.02936 0.52802 0.35521 0.0
C1142 C 0.03107 0.4977 0.35673 0.0
C1143 C 0.07438 0.48543 0.36647 0.0
H1144 H 0.09178 0.49778 0.37305 0.0
H1145 H 0.08921 0.48129 0.36038 0.0
H1146 H 0.05252 0.4593 0.36871 0.0
O1147 O 0.11046 0.58995 0.38379 0.0
O1148 O 0.07855 0.61223 0.3776 0.0
H1149 H 0.98888 0.54139 0.35457 0.0
H1150 H 0.98104 0.50483 0.34664 0.0
C1151 C 0.00146 0.53076 0.34955 0.0
H1152 H 0.0136 0.54899 0.34313 0.0
H1153 H 0.01061 0.60272 0.37439 0.0
O1154 O 0.15048 0.55478 0.37071 0.0
C1155 C 0.09418 0.60696 0.38494 0.0
Co1156 Co 0.42975 0.55384 0.36859 0.0
Co1157 Co 0.3982 0.47533 0.36188 0.0
C1158 C 0.35788 0.51004 0.35853 0.0
O1159 O 0.38269 0.53648 0.3629 0.0
O1160 O 0.36008 0.48283 0.35667 0.0
C1161 C 0.45059 0.6173 0.35945 0.0
O1162 O 0.44157 0.59585 0.35172 0.0
C1163 C 0.37213 0.40928 0.35054 0.0
C1164 C 0.39407 0.38228 0.35947 0.0
C1165 C 0.37499 0.37922 0.35085 0.0
N1166 N 0.38939 0.42945 0.35851 0.0
N1167 N 0.40214 0.41301 0.36386 0.0
C1168 C 0.35151 0.41788 0.34324 0.0
H1169 H 0.33302 0.4233 0.34748 0.0
H1170 H 0.36951 0.44203 0.33901 0.0
H1171 H 0.33613 0.39607 0.33792 0.0
C1172 C 0.48975 0.56112 0.35627 0.0
N1173 N 0.45782 0.54154 0.36053 0.0
N1174 N 0.44328 0.5094 0.35694 0.0
C1175 C 0.46495 0.50795 0.35 0.0
C1176 C 0.49503 0.54075 0.34927 0.0
C1177 C 0.5139 0.59935 0.3583 0.0
H1178 H 0.50716 0.60718 0.36552 0.0
H1179 H 0.51215 0.61507 0.35202 0.0
H1180 H 0.54147 0.6052 0.3587 0.0
O1181 O 0.42023 0.53256 0.3822 0.0
O1182 O 0.39579 0.47715 0.37691 0.0
H1183 H 0.47856 0.48078 0.33881 0.0
H1184 H 0.43255 0.46781 0.3395 0.0
C1185 C 0.45672 0.47599 0.34396 0.0
H1186 H 0.45193 0.45424 0.34912 0.0
H1187 H 0.41693 0.42311 0.37042 0.0
O1188 O 0.44887 0.60531 0.36831 0.0
C1189 C 0.40435 0.49963 0.38399 0.0
Co1190 Co 0.44402 0.88053 0.3725 0.0
Co1191 Co 0.52102 0.92507 0.36426 0.0
C1192 C 0.48142 0.8532 0.35854 0.0
O1193 O 0.45803 0.852 0.36442 0.0
O1194 O 0.50872 0.88222 0.35643 0.0
C1195 C 0.37829 0.84689 0.36377 0.0
O1196 O 0.39863 0.8633 0.35605 0.0
C1197 C 0.58597 0.96746 0.35264 0.0
C1198 C 0.61418 0.01403 0.36245 0.0
C1199 C 0.61585 0.00041 0.3532 0.0
N1200 N 0.5671 0.96225 0.36109 0.0
N1201 N 0.58434 0.99 0.36697 0.0
C1202 C 0.57592 0.94075 0.34443 0.0
H1203 H 0.56936 0.91509 0.34778 0.0
H1204 H 0.55216 0.93734 0.34049 0.0
H1205 H 0.59746 0.94831 0.33891 0.0
C1206 C 0.43971 0.94077 0.36452 0.0
N1207 N 0.45791 0.92436 0.36653 0.0
N1208 N 0.48873 0.94126 0.36214 0.0
C1209 C 0.4906 0.96824 0.35679 0.0
C1210 C 0.45948 0.96881 0.35811 0.0
C1211 C 0.40458 0.93052 0.36897 0.0
H1212 H 0.40085 0.91617 0.37616 0.0
H1213 H 0.38349 0.91317 0.36368 0.0
H1214 H 0.40219 0.95416 0.37031 0.0
O1215 O 0.46777 0.8853 0.38549 0.0
O1216 O 0.52127 0.91083 0.37864 0.0
H1217 H 0.54208 0.01145 0.35412 0.0
H1218 H 0.5118 0.00282 0.34387 0.0
C1219 C 0.52003 0.99052 0.34975 0.0
H1220 H 0.52943 0.97427 0.34601 0.0
H1221 H 0.57515 0.99298 0.37395 0.0
O1222 O 0.39193 0.85106 0.3725 0.0
C1223 C 0.5007 0.89678 0.38614 0.0
H1224 H 0.09843 0.10987 0.20649 0.0
H1225 H 0.16412 0.17154 0.18158 0.0
H1226 H 0.18359 0.12812 0.17901 0.0
H1227 H 0.1551 0.07831 0.21616 0.0
H1228 H 0.11883 0.03528 0.21899 0.0
H1229 H 0.11283 0.07289 0.21936 0.0
H1230 H 0.06135 0.04242 0.20666 0.0
H1231 H 0.06738 0.00487 0.2062 0.0
H1232 H 0.0686 0.02743 0.19473 0.0
H1233 H 0.19561 0.07701 0.17924 0.0
H1234 H 0.19591 0.02109 0.18162 0.0
H1235 H 0.11856 0.99201 0.20542 0.0
C1236 C 0.11738 0.11449 0.20062 0.0
C1237 C 0.13014 0.14412 0.1943 0.0
C1238 C 0.15418 0.14894 0.18652 0.0
C1239 C 0.16543 0.12451 0.18502 0.0
C1240 C 0.15194 0.09519 0.19128 0.0
C1241 C 0.12823 0.09001 0.19888 0.0
C1242 C 0.11578 0.05528 0.20413 0.0
C1243 C 0.12628 0.06078 0.21532 0.0
C1244 C 0.07592 0.03108 0.20284 0.0
C1245 C 0.13611 0.04173 0.19831 0.0
C1246 C 0.15724 0.06518 0.19101 0.0
C1247 C 0.17898 0.05834 0.18489 0.0
C1248 C 0.179 0.02661 0.18627 0.0
C1249 C 0.15689 0.00206 0.19358 0.0
C1250 C 0.13529 0.00994 0.19963 0.0
H1251 H 0.96811 0.14731 0.19966 0.0
H1252 H 0.01806 0.16017 0.17067 0.0
H1253 H 0.97179 0.10012 0.1658 0.0
H1254 H 0.95204 0.06518 0.20388 0.0
H1255 H 0.91031 0.04854 0.21013 0.0
H1256 H 0.94163 0.09472 0.21044 0.0
H1257 H 0.89594 0.10885 0.20278 0.0
H1258 H 0.86403 0.06262 0.20264 0.0
H1259 H 0.87401 0.08795 0.19119 0.0
H1260 H 0.92625 0.03612 0.16533 0.0
H1261 H 0.88406 0.9739 0.1689 0.0
H1262 H 0.86505 0.00249 0.19859 0.0
C1263 C 0.96809 0.13799 0.1921 0.0
C1264 C 0.99559 0.1584 0.18536 0.0
C1265 C 0.9963 0.1451 0.17574 0.0
C1266 C 0.97029 0.11104 0.17297 0.0
C1267 C 0.94407 0.09091 0.17995 0.0
C1268 C 0.94257 0.10408 0.18929 0.0
C1269 C 0.91465 0.07593 0.19592 0.0
C1270 C 0.93063 0.07081 0.20566 0.0
C1271 C 0.88542 0.08434 0.19827 0.0
C1272 C 0.90161 0.04448 0.18903 0.0
C1273 C 0.91847 0.05373 0.1798 0.0
C1274 C 0.91243 0.02871 0.17245 0.0
C1275 C 0.88852 0.99338 0.17458 0.0
C1276 C 0.87118 0.98331 0.18403 0.0
C1277 C 0.87769 0.00935 0.19128 0.0
H1278 H 0.87186 0.87007 0.17851 0.0
H1279 H 0.81456 0.77183 0.19477 0.0
H1280 H 0.86954 0.77061 0.1972 0.0
H1281 H 0.94152 0.85188 0.16712 0.0
H1282 H 0.97445 0.89741 0.16867 0.0
H1283 H 0.92966 0.88548 0.16596 0.0
H1284 H 0.92958 0.91984 0.1818 0.0
H1285 H 0.97374 0.93086 0.18479 0.0
H1286 H 0.9393 0.90826 0.19393 0.0
H1287 H 0.93192 0.78815 0.20166 0.0
H1288 H 0.99588 0.81768 0.20501 0.0
H1289 H 0.01196 0.90349 0.18547 0.0
C1290 C 0.87061 0.84735 0.1821 0.0
C1291 C 0.83899 0.82102 0.18642 0.0
C1292 C 0.83839 0.79202 0.19126 0.0
C1293 C 0.86961 0.79128 0.19276 0.0
C1294 C 0.90091 0.81926 0.18915 0.0
C1295 C 0.90144 0.84618 0.18361 0.0
C1296 C 0.93864 0.87502 0.18148 0.0
C1297 C 0.94653 0.87758 0.17013 0.0
C1298 C 0.94569 0.91056 0.18576 0.0
C1299 C 0.95892 0.86115 0.18718 0.0
C1300 C 0.93683 0.82889 0.19152 0.0
C1301 C 0.94954 0.81288 0.19804 0.0
C1302 C 0.98578 0.83 0.20001 0.0
C1303 C 0.00876 0.86268 0.19543 0.0
C1304 C 0.99504 0.8782 0.18892 0.0
H1305 H 0.01362 0.15714 0.29747 0.0
H1306 H 0.9878 0.14864 0.3292 0.0
H1307 H 0.0352 0.13507 0.33289 0.0
H1308 H 0.02586 0.08674 0.2961 0.0
H1309 H 0.062 0.10541 0.28733 0.0
H1310 H 0.03076 0.12042 0.28741 0.0
H1311 H 0.08061 0.18449 0.2902 0.0
H1312 H 0.11228 0.16989 0.28991 0.0
H1313 H 0.11068 0.1945 0.30056 0.0
H1314 H 0.0799 0.11486 0.33259 0.0
H1315 H 0.12062 0.09326 0.32869 0.0
H1316 H 0.11639 0.11475 0.29694 0.0
C1317 C 0.01896 0.15372 0.30523 0.0
C1318 C 0.99791 0.15457 0.31311 0.0
C1319 C 0.00446 0.14891 0.32315 0.0
C1320 C 0.03111 0.14101 0.32527 0.0
C1321 C 0.05077 0.13921 0.31724 0.0
C1322 C 0.04533 0.14597 0.30744 0.0
C1323 C 0.06789 0.13975 0.30006 0.0
C1324 C 0.04526 0.11139 0.29227 0.0
C1325 C 0.09445 0.17421 0.29488 0.0
C1326 C 0.086 0.12704 0.30717 0.0
C1327 C 0.07611 0.12727 0.31705 0.0
C1328 C 0.08822 0.11512 0.3249 0.0
C1329 C 0.11123 0.10274 0.32259 0.0
C1330 C 0.12175 0.10236 0.3125 0.0
C1331 C 0.10893 0.11477 0.30472 0.0
H1332 H 0.87711 0.87198 0.29756 0.0
H1333 H 0.78967 0.81857 0.31825 0.0
H1334 H 0.78809 0.87405 0.32035 0.0
H1335 H 0.92067 0.95587 0.30947 0.0
H1336 H 0.9327 0.97941 0.29769 0.0
H1337 H 0.9274 0.93615 0.29841 0.0
H1338 H 0.88202 0.91559 0.28385 0.0
H1339 H 0.88692 0.9587 0.28313 0.0
H1340 H 0.84406 0.92084 0.28502 0.0
H1341 H 0.79919 0.93736 0.32058 0.0
H1342 H 0.81832 0.00028 0.318 0.0
H1343 H 0.89402 0.00812 0.29575 0.0
C1344 C 0.85788 0.87192 0.30268 0.0
C1345 C 0.83398 0.84127 0.30794 0.0
C1346 C 0.80848 0.842 0.31427 0.0
C1347 C 0.80742 0.8733 0.31548 0.0
C1348 C 0.83148 0.90307 0.3101 0.0
C1349 C 0.85592 0.90231 0.30374 0.0
C1350 C 0.87792 0.93691 0.2984 0.0
C1351 C 0.91697 0.95303 0.30116 0.0
C1352 C 0.87238 0.93274 0.28692 0.0
C1353 C 0.86245 0.95777 0.30282 0.0
C1354 C 0.83599 0.93808 0.30965 0.0
C1355 C 0.81947 0.95274 0.31514 0.0
C1356 C 0.83047 0.9884 0.31363 0.0
C1357 C 0.85714 0.00859 0.30655 0.0
C1358 C 0.87297 0.99294 0.30102 0.0
H1359 H 0.12368 0.99816 0.323 0.0
H1360 H 0.17863 0.94878 0.31012 0.0
H1361 H 0.12298 0.89219 0.30943 0.0
H1362 H 0.05301 0.91598 0.33721 0.0
H1363 H 0.0208 0.92869 0.3344 0.0
H1364 H 0.06591 0.96183 0.33656 0.0
H1365 H 0.06646 0.98975 0.31934 0.0
H1366 H 0.022 0.95623 0.31691 0.0
H1367 H 0.05609 0.96352 0.30806 0.0
H1368 H 0.06045 0.84727 0.30552 0.0
H1369 H 0.99677 0.81392 0.30177 0.0
H1370 H 0.98266 0.89156 0.31797 0.0
C1371 C 0.12424 0.97487 0.32063 0.0
C1372 C 0.1553 0.97755 0.31672 0.0
C1373 C 0.15519 0.94699 0.31336 0.0
C1374 C 0.1236 0.91482 0.31285 0.0
C1375 C 0.09275 0.91366 0.31599 0.0
C1376 C 0.09305 0.94264 0.32018 0.0
C1377 C 0.05617 0.93599 0.32187 0.0
C1378 C 0.04852 0.93558 0.33318 0.0
C1379 C 0.04985 0.96296 0.31621 0.0
C1380 C 0.03511 0.89976 0.31733 0.0
C1381 C 0.05656 0.88713 0.31404 0.0
C1382 C 0.0433 0.85629 0.3084 0.0
C1383 C 0.00724 0.83775 0.3062 0.0
C1384 C 0.98493 0.85005 0.30969 0.0
C1385 C 0.99907 0.88118 0.31542 0.0
H1386 H 0.8791 0.01872 0.81829 0.0
H1387 H 0.77182 0.95898 0.80772 0.0
H1388 H 0.77644 0.90517 0.80751 0.0
H1389 H 0.91283 0.98473 0.80274 0.0
H1390 H 0.9442 0.98346 0.81122 0.0
H1391 H 0.92979 0.01461 0.81325 0.0
H1392 H 0.90955 0.99111 0.83133 0.0
H1393 H 0.92471 0.96027 0.82948 0.0
H1394 H 0.88 0.94486 0.83329 0.0
H1395 H 0.79768 0.86202 0.80458 0.0
H1396 H 0.83089 0.83119 0.80149 0.0
H1397 H 0.92431 0.91983 0.81402 0.0
C1398 C 0.85605 0.99394 0.81643 0.0
C1399 C 0.82505 0.99281 0.8131 0.0
C1400 C 0.79555 0.96018 0.8105 0.0
C1401 C 0.7981 0.92957 0.81027 0.0
C1402 C 0.83008 0.93213 0.81286 0.0
C1403 C 0.85823 0.96337 0.81618 0.0
C1404 C 0.89092 0.96051 0.81741 0.0
C1405 C 0.92118 0.9874 0.81075 0.0
C1406 C 0.90193 0.9644 0.82854 0.0
C1407 C 0.87739 0.92343 0.81373 0.0
C1408 C 0.84219 0.90726 0.81123 0.0
C1409 C 0.82498 0.87409 0.80677 0.0
C1410 C 0.84414 0.85692 0.80495 0.0
C1411 C 0.88015 0.87302 0.80756 0.0
C1412 C 0.89672 0.9066 0.81206 0.0
H1413 H 0.14224 0.9943 0.79798 0.0
H1414 H 0.13231 0.02644 0.82817 0.0
H1415 H 0.09015 0.96507 0.83251 0.0
H1416 H 0.05448 0.93352 0.79453 0.0
H1417 H 0.06142 0.9021 0.78769 0.0
H1418 H 0.09432 0.94781 0.78743 0.0
H1419 H 0.14052 0.93222 0.7939 0.0
H1420 H 0.10747 0.88637 0.79428 0.0
H1421 H 0.13249 0.90773 0.80544 0.0
H1422 H 0.04223 0.90286 0.83272 0.0
H1423 H 0.99227 0.84403 0.82862 0.0
H1424 H 0.03565 0.85035 0.79893 0.0
C1425 C 0.13165 0.9883 0.80555 0.0
C1426 C 0.14059 0.01518 0.81273 0.0
C1427 C 0.12597 0.00632 0.82254 0.0
C1428 C 0.10211 0.97146 0.82511 0.0
C1429 C 0.09349 0.94559 0.81784 0.0
C1430 C 0.10799 0.95349 0.80828 0.0
C1431 C 0.0921 0.92117 0.80164 0.0
C1432 C 0.07453 0.92648 0.79228 0.0
C1433 C 0.1198 0.91129 0.79864 0.0
C1434 C 0.06528 0.89433 0.80881 0.0
C1435 C 0.06678 0.90886 0.81817 0.0
C1436 C 0.04153 0.8907 0.82557 0.0
C1437 C 0.0134 0.8573 0.82323 0.0
C1438 C 0.01125 0.84239 0.81365 0.0
C1439 C 0.03797 0.86064 0.80649 0.0
H1440 H 0.12074 0.11151 0.81727 0.0
H1441 H 0.17547 0.21812 0.80585 0.0
H1442 H 0.11877 0.21649 0.80387 0.0
H1443 H 0.05219 0.07828 0.80113 0.0
H1444 H 0.01843 0.05043 0.80993 0.0
H1445 H 0.06319 0.06163 0.81212 0.0
H1446 H 0.0624 0.08684 0.82969 0.0
H1447 H 0.0172 0.07477 0.82769 0.0
H1448 H 0.0492 0.11946 0.83081 0.0
H1449 H 0.05575 0.19836 0.79979 0.0
H1450 H 0.99139 0.16947 0.79724 0.0
H1451 H 0.97832 0.07669 0.8126 0.0
C1452 C 0.12084 0.13501 0.81476 0.0
C1453 C 0.15236 0.16502 0.81177 0.0
C1454 C 0.1516 0.19511 0.80835 0.0
C1455 C 0.1195 0.19427 0.8071 0.0
C1456 C 0.08864 0.16349 0.80958 0.0
C1457 C 0.08915 0.13483 0.81367 0.0
C1458 C 0.05237 0.10433 0.81526 0.0
C1459 C 0.04621 0.07177 0.80925 0.0
C1460 C 0.04485 0.09587 0.82654 0.0
C1461 C 0.03111 0.11976 0.81102 0.0
C1462 C 0.05242 0.15381 0.80771 0.0
C1463 C 0.03875 0.17209 0.80262 0.0
C1464 C 0.00229 0.15541 0.80111 0.0
C1465 C 0.98006 0.12109 0.80483 0.0
C1466 C 0.99475 0.10318 0.80983 0.0
H1467 H 0.00249 0.86719 0.679 0.0
H1468 H 0.95681 0.76871 0.69534 0.0
H1469 H 0.90307 0.77192 0.6982 0.0
H1470 H 0.97839 0.90923 0.69484 0.0
H1471 H 0.96821 0.93355 0.68585 0.0
H1472 H 0.99904 0.91965 0.68261 0.0
H1473 H 0.96254 0.88667 0.66689 0.0
H1474 H 0.93212 0.90159 0.66982 0.0
H1475 H 0.91641 0.85537 0.66822 0.0
H1476 H 0.86158 0.79346 0.70293 0.0
H1477 H 0.83012 0.82595 0.70625 0.0
H1478 H 0.9025 0.90971 0.68655 0.0
C1479 C 0.98044 0.84535 0.68271 0.0
C1480 C 0.9838 0.81769 0.68693 0.0
C1481 C 0.95467 0.78991 0.69191 0.0
C1482 C 0.92413 0.79171 0.69366 0.0
C1483 C 0.92293 0.82101 0.69017 0.0
C1484 C 0.94986 0.84677 0.68449 0.0
C1485 C 0.94393 0.87731 0.68249 0.0
C1486 C 0.97418 0.91194 0.6867 0.0
C1487 C 0.9384 0.8804 0.67118 0.0
C1488 C 0.91042 0.86557 0.68836 0.0
C1489 C 0.89859 0.83302 0.69272 0.0
C1490 C 0.87001 0.81848 0.69931 0.0
C1491 C 0.85259 0.8373 0.70125 0.0
C1492 C 0.86373 0.87017 0.69659 0.0
C1493 C 0.89305 0.88436 0.69009 0.0
H1494 H 0.10125 0.98316 0.69988 0.0
H1495 H 0.14893 0.98621 0.67103 0.0
H1496 H 0.16922 0.04983 0.66958 0.0
H1497 H 0.06862 0.03956 0.69259 0.0
H1498 H 0.07551 0.0597 0.70484 0.0
H1499 H 0.06705 0.01535 0.70373 0.0
H1500 H 0.12471 0.03252 0.71342 0.0
H1501 H 0.13333 0.07694 0.71455 0.0
H1502 H 0.1656 0.06843 0.70889 0.0
H1503 H 0.18518 0.11462 0.67173 0.0
H1504 H 0.18997 0.17161 0.67655 0.0
H1505 H 0.12779 0.12239 0.70327 0.0
C1506 C 0.11628 0.9973 0.6933 0.0
C1507 C 0.12392 0.98006 0.68562 0.0
C1508 C 0.14292 0.99915 0.67701 0.0
C1509 C 0.15463 0.03523 0.67614 0.0
C1510 C 0.14656 0.05151 0.68388 0.0
C1511 C 0.1274 0.0329 0.69223 0.0
C1512 C 0.12019 0.05554 0.69924 0.0
C1513 C 0.0805 0.04171 0.70015 0.0
C1514 C 0.13697 0.05853 0.70964 0.0
C1515 C 0.13847 0.08993 0.69361 0.0
C1516 C 0.15397 0.08752 0.68483 0.0
C1517 C 0.17289 0.11666 0.67857 0.0
C1518 C 0.17558 0.14888 0.68135 0.0
C1519 C 0.15884 0.1512 0.69018 0.0
C1520 C 0.14039 0.12132 0.69636 0.0
H1521 H 0.87212 0.98349 0.68593 0.0
H1522 H 0.8163 0.03331 0.69798 0.0
H1523 H 0.87236 0.08943 0.69944 0.0
H1524 H 0.94135 0.02002 0.70146 0.0
H1525 H 0.97481 0.02662 0.69246 0.0
H1526 H 0.93022 0.99245 0.69044 0.0
H1527 H 0.92927 0.01814 0.67296 0.0
H1528 H 0.97434 0.05192 0.67475 0.0
H1529 H 0.9415 0.06373 0.6719 0.0
H1530 H 0.93528 0.13538 0.70311 0.0
H1531 H 0.99969 0.17154 0.70552 0.0
H1532 H 0.01364 0.0927 0.68996 0.0
C1533 C 0.87161 0.00666 0.68844 0.0
C1534 C 0.8401 0.00436 0.69178 0.0
C1535 C 0.84022 0.03486 0.69521 0.0
C1536 C 0.87195 0.06671 0.69615 0.0
C1537 C 0.90296 0.0676 0.69336 0.0
C1538 C 0.90287 0.03866 0.68923 0.0
C1539 C 0.93975 0.04563 0.68741 0.0
C1540 C 0.94692 0.01964 0.6933 0.0
C1541 C 0.94662 0.04482 0.67608 0.0
C1542 C 0.96066 0.08238 0.69162 0.0
C1543 C 0.93907 0.09464 0.69504 0.0
C1544 C 0.95248 0.12651 0.70017 0.0
C1545 C 0.98895 0.14665 0.70161 0.0
C1546 C 0.01137 0.13493 0.69782 0.0
C1547 C 0.99699 0.10248 0.69276 0.0
H1548 H 0.75464 0.43346 0.51982 0.0
H1549 H 0.84433 0.51079 0.5368 0.0
H1550 H 0.87386 0.47591 0.53435 0.0
H1551 H 0.75376 0.36053 0.53077 0.0
H1552 H 0.73939 0.33409 0.51951 0.0
H1553 H 0.72818 0.36774 0.52146 0.0
H1554 H 0.75659 0.39541 0.50426 0.0
H1555 H 0.76856 0.36214 0.50238 0.0
H1556 H 0.80175 0.40792 0.50192 0.0
H1557 H 0.89218 0.43114 0.5307 0.0
H1558 H 0.89316 0.37572 0.52917 0.0
H1559 H 0.78994 0.32634 0.51537 0.0
C1560 C 0.78072 0.44324 0.5229 0.0
C1561 C 0.79747 0.4749 0.5284 0.0
C1562 C 0.83115 0.48655 0.53255 0.0
C1563 C 0.84823 0.46714 0.53109 0.0
C1564 C 0.83107 0.43604 0.52555 0.0
C1565 C 0.79775 0.42387 0.52169 0.0
C1566 C 0.78313 0.38766 0.51714 0.0
C1567 C 0.74913 0.36094 0.52255 0.0
C1568 C 0.77717 0.38835 0.50575 0.0
C1569 C 0.81305 0.38092 0.51928 0.0
C1570 C 0.8409 0.40954 0.52385 0.0
C1571 C 0.87067 0.40868 0.52705 0.0
C1572 C 0.87114 0.37714 0.52606 0.0
C1573 C 0.84165 0.34675 0.52213 0.0
C1574 C 0.81301 0.34926 0.5183 0.0
H1575 H 0.58622 0.32233 0.52427 0.0
H1576 H 0.5034 0.33256 0.53879 0.0
H1577 H 0.53563 0.39631 0.53527 0.0
H1578 H 0.65585 0.39995 0.53461 0.0
H1579 H 0.68327 0.41041 0.52359 0.0
H1580 H 0.65153 0.36548 0.52634 0.0
H1581 H 0.62455 0.35953 0.50856 0.0
H1582 H 0.65578 0.40487 0.5059 0.0
H1583 H 0.60939 0.38911 0.50482 0.0
H1584 H 0.57804 0.45939 0.53065 0.0
H1585 H 0.63177 0.51719 0.52858 0.0
H1586 H 0.68744 0.46559 0.51774 0.0
C1587 C 0.57472 0.33794 0.52664 0.0
C1588 C 0.54211 0.32246 0.53168 0.0
C1589 C 0.52829 0.34386 0.53487 0.0
C1590 C 0.54622 0.38002 0.5328 0.0
C1591 C 0.57806 0.39437 0.52764 0.0
C1592 C 0.59252 0.37406 0.5248 0.0
C1593 C 0.62879 0.39628 0.52036 0.0
C1594 C 0.65648 0.39284 0.5266 0.0
C1595 C 0.62965 0.38688 0.50925 0.0
C1596 C 0.63288 0.43241 0.52137 0.0
C1597 C 0.60298 0.43074 0.52531 0.0
C1598 C 0.60146 0.46101 0.52747 0.0
C1599 C 0.63196 0.49377 0.52615 0.0
C1600 C 0.66354 0.49574 0.52291 0.0
C1601 C 0.66343 0.46476 0.52006 0.0
H1602 H 0.67411 0.21072 0.53748 0.0
H1603 H 0.68522 0.19838 0.5055 0.0
H1604 H 0.62171 0.17601 0.5031 0.0
H1605 H 0.58531 0.13479 0.54076 0.0
H1606 H 0.57277 0.1583 0.54938 0.0
H1607 H 0.61788 0.16866 0.54872 0.0
H1608 H 0.6374 0.23391 0.54512 0.0
H1609 H 0.59247 0.22372 0.54582 0.0
H1610 H 0.61802 0.24452 0.5347 0.0
H1611 H 0.557 0.15853 0.50414 0.0
H1612 H 0.49939 0.15323 0.50839 0.0
H1613 H 0.53307 0.17986 0.5394 0.0
C1614 C 0.66305 0.20263 0.53001 0.0
C1615 C 0.68441 0.20597 0.52169 0.0
C1616 C 0.66919 0.19594 0.51198 0.0
C1617 C 0.63313 0.18299 0.51056 0.0
C1618 C 0.61279 0.1804 0.51892 0.0
C1619 C 0.62735 0.19018 0.52844 0.0
C1620 C 0.60095 0.18845 0.53602 0.0
C1621 C 0.59381 0.1609 0.5442 0.0
C1622 C 0.61293 0.2248 0.54068 0.0
C1623 C 0.56946 0.17691 0.52925 0.0
C1624 C 0.57633 0.17163 0.51945 0.0
C1625 C 0.55124 0.16228 0.51182 0.0
C1626 C 0.51865 0.15918 0.51427 0.0
C1627 C 0.51216 0.16617 0.52419 0.0
C1628 C 0.53755 0.17432 0.53176 0.0
H1629 H 0.66532 0.46094 0.6275 0.0
H1630 H 0.67932 0.52319 0.65427 0.0
H1631 H 0.7345 0.52283 0.65811 0.0
H1632 H 0.69569 0.40664 0.63725 0.0
H1633 H 0.7175 0.40619 0.6258 0.0
H1634 H 0.68005 0.41233 0.62523 0.0
H1635 H 0.71675 0.47039 0.61535 0.0
H1636 H 0.7544 0.46447 0.61589 0.0
H1637 H 0.75748 0.50436 0.6206 0.0
H1638 H 0.78519 0.5103 0.65961 0.0
H1639 H 0.82941 0.49137 0.65796 0.0
H1640 H 0.78365 0.44193 0.62937 0.0
C1641 C 0.67997 0.47451 0.63419 0.0
C1642 C 0.66797 0.49165 0.6407 0.0
C1643 C 0.68814 0.50976 0.64924 0.0
C1644 C 0.71939 0.50966 0.65146 0.0
C1645 C 0.73027 0.49208 0.6449 0.0
C1646 C 0.71134 0.47534 0.63636 0.0
C1647 C 0.72844 0.45856 0.63043 0.0
C1648 C 0.70397 0.41857 0.62964 0.0
C1649 C 0.73995 0.47547 0.61995 0.0
C1650 C 0.75968 0.46766 0.63708 0.0
C1651 C 0.76027 0.48681 0.64544 0.0
C1652 C 0.78532 0.49589 0.65301 0.0
C1653 C 0.81021 0.48496 0.65203 0.0
C1654 C 0.81009 0.46567 0.64347 0.0
C1655 C 0.78478 0.45736 0.63587 0.0
H1656 H 0.53708 0.20166 0.65293 0.0
H1657 H 0.4364 0.14577 0.63792 0.0
H1658 H 0.43664 0.20166 0.63554 0.0
H1659 H 0.52307 0.27344 0.66478 0.0
H1660 H 0.56865 0.30534 0.66274 0.0
H1661 H 0.55584 0.26033 0.66545 0.0
H1662 H 0.58741 0.25859 0.64918 0.0
H1663 H 0.59921 0.30296 0.64617 0.0
H1664 H 0.57461 0.26833 0.63724 0.0
H1665 H 0.45539 0.26442 0.63102 0.0
H1666 H 0.48579 0.32838 0.62762 0.0
H1667 H 0.5732 0.34271 0.64615 0.0
C1668 C 0.51418 0.20103 0.64968 0.0
C1669 C 0.48653 0.16956 0.64572 0.0
C1670 C 0.4574 0.16957 0.64122 0.0
C1671 C 0.45755 0.20127 0.63974 0.0
C1672 C 0.48662 0.23237 0.64304 0.0
C1673 C 0.51385 0.23231 0.64825 0.0
C1674 C 0.54368 0.26923 0.65011 0.0
C1675 C 0.54805 0.27758 0.66145 0.0
C1676 C 0.57823 0.27508 0.64539 0.0
C1677 C 0.52991 0.29004 0.64467 0.0
C1678 C 0.49694 0.26846 0.64065 0.0
C1679 C 0.48071 0.28165 0.6344 0.0
C1680 C 0.49832 0.31788 0.6324 0.0
C1681 C 0.53165 0.34038 0.6367 0.0
C1682 C 0.54744 0.32616 0.64291 0.0
H1683 H 0.66718 0.19968 0.63152 0.0
H1684 H 0.63197 0.21453 0.66073 0.0
H1685 H 0.6931 0.25613 0.66549 0.0
H1686 H 0.74947 0.20601 0.64036 0.0
H1687 H 0.77372 0.2298 0.62935 0.0
H1688 H 0.72733 0.19899 0.62842 0.0
H1689 H 0.71685 0.24762 0.62107 0.0
H1690 H 0.76318 0.27827 0.62182 0.0
H1691 H 0.73252 0.28819 0.6279 0.0
H1692 H 0.75675 0.3009 0.66644 0.0
H1693 H 0.81837 0.34675 0.66312 0.0
H1694 H 0.81348 0.30066 0.63392 0.0
C1695 C 0.67238 0.21151 0.63893 0.0
C1696 C 0.64475 0.20378 0.64575 0.0
C1697 C 0.65266 0.21991 0.65538 0.0
C1698 C 0.68736 0.24348 0.65819 0.0
C1699 C 0.71401 0.25045 0.65134 0.0
C1700 C 0.707 0.23498 0.64191 0.0
C1701 C 0.74031 0.24865 0.63575 0.0
C1702 C 0.74816 0.21909 0.63333 0.0
C1703 C 0.73808 0.26676 0.62607 0.0
C1704 C 0.76692 0.27485 0.6431 0.0
C1705 C 0.75124 0.27532 0.65208 0.0
C1706 C 0.76963 0.30011 0.65957 0.0
C1707 C 0.80461 0.32584 0.65769 0.0
C1708 C 0.82081 0.32603 0.64849 0.0
C1709 C 0.80205 0.29974 0.64123 0.0
H1710 H 0.53005 0.1996 0.12847 0.0
H1711 H 0.56194 0.19815 0.15935 0.0
H1712 H 0.5432 0.24036 0.16417 0.0
H1713 H 0.56034 0.28939 0.12722 0.0
H1714 H 0.52454 0.28546 0.11963 0.0
H1715 H 0.53692 0.25228 0.11893 0.0
H1716 H 0.47306 0.20479 0.12337 0.0
H1717 H 0.46071 0.23811 0.1242 0.0
H1718 H 0.45307 0.20921 0.13472 0.0
H1719 H 0.52718 0.28764 0.16529 0.0
H1720 H 0.5169 0.33753 0.16224 0.0
H1721 H 0.49405 0.30692 0.13093 0.0
C1722 C 0.53266 0.20781 0.13626 0.0
C1723 C 0.54744 0.19554 0.14352 0.0
C1724 C 0.55062 0.20711 0.15364 0.0
C1725 C 0.53987 0.23097 0.15648 0.0
C1726 C 0.52562 0.24277 0.14914 0.0
C1727 C 0.52191 0.23153 0.13924 0.0
C1728 C 0.50811 0.25006 0.13267 0.0
C1729 C 0.53403 0.27052 0.12412 0.0
C1730 C 0.47156 0.22398 0.1285 0.0
C1731 C 0.50606 0.27448 0.14034 0.0
C1732 C 0.51569 0.26953 0.14984 0.0
C1733 C 0.51873 0.29122 0.15794 0.0
C1734 C 0.51269 0.31928 0.1562 0.0
C1735 C 0.50374 0.32505 0.14645 0.0
C1736 C 0.49969 0.30203 0.13852 0.0
H1737 H 0.79197 0.33764 0.12446 0.0
H1738 H 0.84363 0.34714 0.15308 0.0
H1739 H 0.80158 0.28474 0.15677 0.0
H1740 H 0.70681 0.28704 0.13371 0.0
H1741 H 0.68945 0.26053 0.12253 0.0
H1742 H 0.7264 0.30429 0.12159 0.0
H1743 H 0.76255 0.27998 0.1128 0.0
H1744 H 0.72557 0.2361 0.11371 0.0
H1745 H 0.76744 0.246 0.11887 0.0
H1746 H 0.75092 0.22118 0.1577 0.0
H1747 H 0.69454 0.16463 0.15609 0.0
H1748 H 0.67602 0.19952 0.12736 0.0
C1749 C 0.79492 0.32635 0.1314 0.0
C1750 C 0.82116 0.34705 0.13844 0.0
C1751 C 0.82366 0.33163 0.14756 0.0
C1752 C 0.80002 0.29618 0.14971 0.0
C1753 C 0.77392 0.27656 0.14268 0.0
C1754 C 0.77124 0.29122 0.13372 0.0
C1755 C 0.73906 0.26575 0.12785 0.0
C1756 C 0.71396 0.28027 0.12634 0.0
C1757 C 0.74928 0.25641 0.11771 0.0
C1758 C 0.72376 0.23478 0.13497 0.0
C1759 C 0.74436 0.24101 0.14341 0.0
C1760 C 0.73464 0.21599 0.15109 0.0
C1761 C 0.70272 0.18402 0.15014 0.0
C1762 C 0.68089 0.17806 0.14169 0.0
C1763 C 0.69202 0.2036 0.13399 0.0
H1764 H 0.66089 0.44221 0.12706 0.0
H1765 H 0.65743 0.48722 0.15582 0.0
H1766 H 0.72041 0.50751 0.15848 0.0
H1767 H 0.71368 0.40825 0.13541 0.0
H1768 H 0.73773 0.41644 0.12379 0.0
H1769 H 0.69372 0.40924 0.12364 0.0
H1770 H 0.71557 0.46875 0.11449 0.0
H1771 H 0.75967 0.47602 0.11457 0.0
H1772 H 0.75066 0.50831 0.11996 0.0
H1773 H 0.7844 0.52163 0.15809 0.0
H1774 H 0.8415 0.52409 0.1551 0.0
H1775 H 0.80005 0.46593 0.1273 0.0
C1776 C 0.67359 0.45693 0.13382 0.0
C1777 C 0.6545 0.46344 0.14119 0.0
C1778 C 0.67173 0.48203 0.15007 0.0
C1779 C 0.70749 0.49378 0.15163 0.0
C1780 C 0.72552 0.48641 0.14428 0.0
C1781 C 0.70902 0.46823 0.13558 0.0
C1782 C 0.73327 0.46112 0.12923 0.0
C1783 C 0.71873 0.42141 0.12795 0.0
C1784 C 0.74021 0.47966 0.11896 0.0
C1785 C 0.76576 0.47766 0.13577 0.0
C1786 C 0.76124 0.49275 0.14434 0.0
C1787 C 0.78818 0.50979 0.15141 0.0
C1788 C 0.82043 0.51109 0.14968 0.0
C1789 C 0.82484 0.49467 0.14109 0.0
C1790 C 0.79718 0.47812 0.13406 0.0
H1791 H 0.65668 0.18415 0.04113 0.0
H1792 H 0.64813 0.1465 0.01049 0.0
H1793 H 0.59268 0.14814 0.00838 0.0
H1794 H 0.56171 0.13661 0.04686 0.0
H1795 H 0.5654 0.17239 0.0544 0.0
H1796 H 0.60173 0.16442 0.05364 0.0
H1797 H 0.64219 0.22847 0.04772 0.0
H1798 H 0.60609 0.23667 0.04837 0.0
H1799 H 0.63017 0.24438 0.03676 0.0
H1800 H 0.54313 0.16211 0.00917 0.0
H1801 H 0.50129 0.18255 0.01298 0.0
H1802 H 0.54187 0.20837 0.04347 0.0
C1803 C 0.64282 0.17572 0.03401 0.0
C1804 C 0.65651 0.16547 0.02592 0.0
C1805 C 0.63777 0.15433 0.01676 0.0
C1806 C 0.60643 0.15524 0.01552 0.0
C1807 C 0.59417 0.16655 0.02361 0.0
C1808 C 0.61157 0.17597 0.03274 0.0
C1809 C 0.59429 0.18872 0.04015 0.0
C1810 C 0.57992 0.16405 0.0493 0.0
C1811 C 0.6197 0.22681 0.04343 0.0
C1812 C 0.56497 0.18634 0.03368 0.0
C1813 C 0.5652 0.17339 0.02417 0.0
C1814 C 0.54233 0.1716 0.01664 0.0
C1815 C 0.51884 0.18349 0.01886 0.0
C1816 C 0.51832 0.19684 0.02854 0.0
C1817 C 0.54132 0.19772 0.03607 0.0
H1818 H 0.80362 0.46974 0.03953 0.0
H1819 H 0.84565 0.50098 0.00936 0.0
H1820 H 0.84232 0.44319 0.00703 0.0
H1821 H 0.84886 0.42102 0.04553 0.0
H1822 H 0.81215 0.38858 0.05272 0.0
H1823 H 0.82043 0.433 0.05206 0.0
H1824 H 0.75716 0.41013 0.04551 0.0
H1825 H 0.74867 0.3657 0.04607 0.0
H1826 H 0.74242 0.38285 0.0344 0.0
H1827 H 0.82747 0.37921 0.0076 0.0
H1828 H 0.80739 0.3169 0.01131 0.0
H1829 H 0.77825 0.33007 0.04154 0.0
C1830 C 0.81244 0.46457 0.03245 0.0
C1831 C 0.82451 0.48943 0.02456 0.0
C1832 C 0.83632 0.48211 0.01547 0.0
C1833 C 0.83445 0.44944 0.0141 0.0
C1834 C 0.82151 0.42511 0.022 0.0
C1835 C 0.81132 0.43268 0.03106 0.0
C1836 C 0.79759 0.40216 0.03833 0.0
C1837 C 0.82118 0.41177 0.04771 0.0
C1838 C 0.75919 0.38947 0.04124 0.0
C1839 C 0.80056 0.37552 0.03187 0.0
C1840 C 0.81439 0.38916 0.02247 0.0
C1841 C 0.81721 0.36853 0.01498 0.0
C1842 C 0.80554 0.33314 0.01714 0.0
C1843 C 0.79148 0.31884 0.02674 0.0
C1844 C 0.78942 0.34049 0.03421 0.0
H1845 H 0.668 0.44815 0.04201 0.0
H1846 H 0.67278 0.49585 0.01302 0.0
H1847 H 0.61029 0.45231 0.01001 0.0
H1848 H 0.61739 0.36124 0.03354 0.0
H1849 H 0.59247 0.34488 0.04502 0.0
H1850 H 0.63608 0.38234 0.0454 0.0
H1851 H 0.61221 0.41884 0.05421 0.0
H1852 H 0.5685 0.38136 0.05388 0.0
H1853 H 0.57705 0.42242 0.04842 0.0
H1854 H 0.54699 0.4017 0.01001 0.0
H1855 H 0.49054 0.34602 0.01259 0.0
H1856 H 0.53009 0.33045 0.04091 0.0
C1857 C 0.65563 0.4498 0.03513 0.0
C1858 C 0.67492 0.47541 0.02779 0.0
C1859 C 0.65826 0.47632 0.01874 0.0
C1860 C 0.62279 0.45185 0.01699 0.0
C1861 C 0.60452 0.42646 0.02431 0.0
C1862 C 0.6205 0.42517 0.03317 0.0
C1863 C 0.5962 0.39354 0.03942 0.0
C1864 C 0.61145 0.36906 0.04093 0.0
C1865 C 0.588 0.40472 0.04958 0.0
C1866 C 0.56429 0.37706 0.03266 0.0
C1867 C 0.56915 0.3966 0.02405 0.0
C1868 C 0.54291 0.38614 0.01672 0.0
C1869 C 0.51103 0.35462 0.01822 0.0
C1870 C 0.50633 0.33385 0.02685 0.0
C1871 C 0.53322 0.34555 0.03415 0.0
H1872 H 0.44722 0.65295 0.84465 0.0
H1873 H 0.55663 0.71287 0.85337 0.0
H1874 H 0.55301 0.7671 0.85333 0.0
H1875 H 0.44643 0.7275 0.82913 0.0
H1876 H 0.40234 0.71312 0.83336 0.0
H1877 H 0.41639 0.68149 0.8313 0.0
H1878 H 0.39736 0.65894 0.84942 0.0
H1879 H 0.38472 0.69121 0.85184 0.0
H1880 H 0.41645 0.68879 0.85989 0.0
H1881 H 0.53307 0.81012 0.85711 0.0
H1882 H 0.50129 0.84163 0.86117 0.0
H1883 H 0.40537 0.75475 0.84919 0.0
C1884 C 0.47091 0.67783 0.84596 0.0
C1885 C 0.50226 0.67887 0.84894 0.0
C1886 C 0.53258 0.71163 0.85087 0.0
C1887 C 0.53064 0.74254 0.85096 0.0
C1888 C 0.49847 0.7402 0.84882 0.0
C1889 C 0.46944 0.70886 0.84597 0.0
C1890 C 0.43704 0.71252 0.84508 0.0
C1891 C 0.42484 0.70843 0.83406 0.0
C1892 C 0.40719 0.68634 0.85198 0.0
C1893 C 0.45173 0.74993 0.84866 0.0
C1894 C 0.48727 0.76562 0.85068 0.0
C1895 C 0.50556 0.79859 0.85521 0.0
C1896 C 0.48721 0.81613 0.8576 0.0
C1897 C 0.451 0.80078 0.85538 0.0
C1898 C 0.43323 0.76741 0.85077 0.0
H1899 H 0.33411 0.79732 0.84907 0.0
H1900 H 0.2887 0.85196 0.86457 0.0
H1901 H 0.23254 0.79626 0.8661 0.0
H1902 H 0.24999 0.72978 0.83595 0.0
H1903 H 0.26206 0.69648 0.83755 0.0
H1904 H 0.2956 0.74166 0.83576 0.0
H1905 H 0.32559 0.73866 0.85223 0.0
H1906 H 0.29169 0.69398 0.85427 0.0
H1907 H 0.30099 0.72657 0.86384 0.0
H1908 H 0.18707 0.73325 0.86955 0.0
H1909 H 0.15136 0.66868 0.87168 0.0
H1910 H 0.22543 0.65574 0.85323 0.0
C1911 C 0.31184 0.79782 0.85236 0.0
C1912 C 0.31568 0.82889 0.85668 0.0
C1913 C 0.28618 0.82855 0.86108 0.0
C1914 C 0.25425 0.79694 0.86206 0.0
C1915 C 0.25213 0.76624 0.85838 0.0
C1916 C 0.2798 0.76663 0.85331 0.0
C1917 C 0.27199 0.72984 0.8508 0.0
C1918 C 0.26976 0.7241 0.83933 0.0
C1919 C 0.29917 0.72182 0.85557 0.0
C1920 C 0.23639 0.70863 0.8557 0.0
C1921 C 0.22531 0.73 0.86004 0.0
C1922 C 0.19494 0.71624 0.86592 0.0
C1923 C 0.17508 0.67968 0.86719 0.0
C1924 C 0.18559 0.6575 0.86253 0.0
C1925 C 0.21652 0.67221 0.8567 0.0
H1926 H 0.34794 0.61215 0.86053 0.0
H1927 H 0.3418 0.51233 0.86675 0.0
H1928 H 0.2786 0.48141 0.86267 0.0
H1929 H 0.26747 0.59125 0.87179 0.0
H1930 H 0.25696 0.6151 0.86271 0.0
H1931 H 0.30205 0.62842 0.86525 0.0
H1932 H 0.31181 0.62308 0.84621 0.0
H1933 H 0.2664 0.60904 0.84369 0.0
H1934 H 0.28453 0.5821 0.83979 0.0
H1935 H 0.21509 0.46154 0.85885 0.0
H1936 H 0.15612 0.45557 0.85798 0.0
H1937 H 0.2044 0.56823 0.85414 0.0
C1938 C 0.33343 0.58377 0.86096 0.0
C1939 C 0.34998 0.56469 0.86387 0.0
C1940 C 0.32982 0.52757 0.86448 0.0
C1941 C 0.29392 0.50972 0.8621 0.0
C1942 C 0.27855 0.52932 0.8591 0.0
C1943 C 0.29763 0.56558 0.85864 0.0
C1944 C 0.27446 0.58078 0.85602 0.0
C1945 C 0.27527 0.6053 0.86445 0.0
C1946 C 0.28493 0.59987 0.84582 0.0
C1947 C 0.23914 0.54744 0.8554 0.0
C1948 C 0.24204 0.51794 0.85698 0.0
C1949 C 0.21251 0.4844 0.85748 0.0
C1950 C 0.1791 0.48117 0.85687 0.0
C1951 C 0.17574 0.51139 0.85594 0.0
C1952 C 0.20619 0.54462 0.85474 0.0
H1953 H 0.36651 0.85601 0.96798 0.0
H1954 H 0.32289 0.80643 0.99662 0.0
H1955 H 0.3735 0.79745 0.99934 0.0
H1956 H 0.38516 0.79527 0.96042 0.0
H1957 H 0.42512 0.82314 0.95363 0.0
H1958 H 0.39286 0.8364 0.95521 0.0
H1959 H 0.43892 0.89463 0.96356 0.0
H1960 H 0.47182 0.88209 0.96176 0.0
H1961 H 0.46404 0.89358 0.97416 0.0
H1962 H 0.42127 0.78369 0.99745 0.0
H1963 H 0.46312 0.76627 0.99135 0.0
H1964 H 0.47336 0.82036 0.96308 0.0
C1965 C 0.369 0.84539 0.9751 0.0
C1966 C 0.34192 0.83328 0.98233 0.0
C1967 C 0.34427 0.81708 0.99124 0.0
C1968 C 0.37279 0.81173 0.99279 0.0
C1969 C 0.39823 0.82223 0.98525 0.0
C1970 C 0.39675 0.83895 0.97659 0.0
C1971 C 0.42345 0.84172 0.96886 0.0
C1972 C 0.40556 0.82301 0.95896 0.0
C1973 C 0.45121 0.8803 0.96698 0.0
C1974 C 0.43909 0.82256 0.97434 0.0
C1975 C 0.42475 0.81232 0.98386 0.0
C1976 C 0.43317 0.79216 0.99009 0.0
C1977 C 0.45685 0.78221 0.98651 0.0
C1978 C 0.47152 0.79194 0.97672 0.0
C1979 C 0.4627 0.81266 0.97061 0.0
H1980 H 0.23382 0.67042 0.96503 0.0
H1981 H 0.18398 0.66761 0.99347 0.0
H1982 H 0.16631 0.60485 0.99553 0.0
H1983 H 0.17227 0.5828 0.9566 0.0
H1984 H 0.20596 0.5757 0.95131 0.0
H1985 H 0.21236 0.61942 0.95191 0.0
H1986 H 0.27041 0.64023 0.96178 0.0
H1987 H 0.26408 0.59655 0.96125 0.0
H1988 H 0.26989 0.61799 0.97325 0.0
H1989 H 0.15292 0.54105 0.99403 0.0
H1990 H 0.14974 0.4844 0.98979 0.0
H1991 H 0.21312 0.5327 0.96319 0.0
C1992 C 0.21884 0.65646 0.97163 0.0
C1993 C 0.20989 0.67353 0.97904 0.0
C1994 C 0.19097 0.65477 0.9877 0.0
C1995 C 0.18077 0.61918 0.98891 0.0
C1996 C 0.19026 0.60309 0.98147 0.0
C1997 C 0.20922 0.62134 0.97306 0.0
C1998 C 0.21799 0.59892 0.96643 0.0
C1999 C 0.20113 0.59391 0.95595 0.0
C2000 C 0.25796 0.61434 0.96564 0.0
C2001 C 0.20094 0.56515 0.97238 0.0
C2002 C 0.18458 0.56765 0.98097 0.0
C2003 C 0.16599 0.53894 0.98738 0.0
C2004 C 0.1643 0.50696 0.98494 0.0
C2005 C 0.18177 0.50447 0.9763 0.0
C2006 C 0.2002 0.53401 0.96999 0.0
H2007 H 0.4583 0.66764 0.95922 0.0
H2008 H 0.50937 0.64152 0.9829 0.0
H2009 H 0.45623 0.58247 0.98442 0.0
H2010 H 0.3722 0.62437 0.96913 0.0
H2011 H 0.35132 0.6096 0.95702 0.0
H2012 H 0.39331 0.64914 0.95791 0.0
H2013 H 0.41918 0.62394 0.94498 0.0
H2014 H 0.37727 0.58419 0.94409 0.0
H2015 H 0.41593 0.58208 0.94738 0.0
H2016 H 0.3952 0.52826 0.9841 0.0
H2017 H 0.33329 0.48221 0.98135 0.0
H2018 H 0.32534 0.54287 0.9568 0.0
C2019 C 0.4583 0.6496 0.96478 0.0
C2020 C 0.48762 0.65921 0.97107 0.0
C2021 C 0.48698 0.63462 0.97807 0.0
C2022 C 0.457 0.60112 0.97896 0.0
C2023 C 0.42846 0.59258 0.97262 0.0
C2024 C 0.42915 0.61605 0.96558 0.0
C2025 C 0.39549 0.60064 0.95955 0.0
C2026 C 0.377 0.62222 0.961 0.0
C2027 C 0.40239 0.59753 0.94834 0.0
C2028 C 0.37517 0.56495 0.96444 0.0
C2029 C 0.3945 0.5608 0.972 0.0
C2030 C 0.38011 0.53099 0.97809 0.0
C2031 C 0.345 0.50505 0.97648 0.0
C2032 C 0.32497 0.50889 0.96876 0.0
C2033 C 0.34046 0.53893 0.96257 0.0
H2034 H 0.20282 0.66757 0.45938 0.0
H2035 H 0.13729 0.64533 0.48587 0.0
H2036 H 0.13819 0.58967 0.48835 0.0
H2037 H 0.16265 0.57732 0.45039 0.0
H2038 H 0.20383 0.58318 0.44582 0.0
H2039 H 0.19629 0.61984 0.44606 0.0
H2040 H 0.25265 0.65538 0.45676 0.0
H2041 H 0.26033 0.61887 0.45658 0.0
H2042 H 0.25739 0.63722 0.46844 0.0
H2043 H 0.15211 0.53978 0.48866 0.0
H2044 H 0.1735 0.49786 0.48619 0.0
H2045 H 0.22645 0.55207 0.45876 0.0
C2046 C 0.18848 0.65094 0.46569 0.0
C2047 C 0.17033 0.66078 0.47253 0.0
C2048 C 0.15139 0.63814 0.48059 0.0
C2049 C 0.15183 0.60662 0.48203 0.0
C2050 C 0.17063 0.59806 0.4752 0.0
C2051 C 0.18812 0.61942 0.46711 0.0
C2052 C 0.20676 0.60494 0.46087 0.0
C2053 C 0.19146 0.59577 0.45015 0.0
C2054 C 0.24663 0.63063 0.46066 0.0
C2055 C 0.19786 0.57232 0.46684 0.0
C2056 C 0.1771 0.56878 0.47511 0.0
C2057 C 0.16781 0.542 0.48213 0.0
C2058 C 0.18018 0.51844 0.48068 0.0
C2059 C 0.20126 0.52162 0.47223 0.0
C2060 C 0.20976 0.54863 0.46517 0.0
H2061 H 0.42706 0.68566 0.47956 0.0
H2062 H 0.5144 0.67274 0.47024 0.0
H2063 H 0.47784 0.60848 0.47273 0.0
H2064 H 0.38783 0.61403 0.49811 0.0
H2065 H 0.34364 0.60127 0.49437 0.0
H2066 H 0.378 0.64644 0.49326 0.0
H2067 H 0.36396 0.6461 0.47426 0.0
H2068 H 0.32928 0.60126 0.47537 0.0
H2069 H 0.36353 0.61294 0.46617 0.0
H2070 H 0.43075 0.54545 0.4755 0.0
H2071 H 0.37499 0.48884 0.47523 0.0
H2072 H 0.3178 0.54327 0.48163 0.0
C2073 C 0.43862 0.6693 0.4782 0.0
C2074 C 0.47357 0.68399 0.47483 0.0
C2075 C 0.48762 0.66184 0.47285 0.0
C2076 C 0.46719 0.62543 0.47435 0.0
C2077 C 0.43271 0.6117 0.47771 0.0
C2078 C 0.41838 0.63295 0.47943 0.0
C2079 C 0.37957 0.61151 0.48176 0.0
C2080 C 0.37182 0.61875 0.49252 0.0
C2081 C 0.35782 0.61835 0.47392 0.0
C2082 C 0.37405 0.57479 0.48084 0.0
C2083 C 0.40519 0.5754 0.47881 0.0
C2084 C 0.40627 0.54463 0.47717 0.0
C2085 C 0.3745 0.51255 0.47712 0.0
C2086 C 0.34217 0.51174 0.47845 0.0
C2087 C 0.3422 0.54313 0.4807 0.0
H2088 H 0.32484 0.74939 0.4766 0.0
H2089 H 0.33628 0.84361 0.46254 0.0
H2090 H 0.40032 0.87383 0.46568 0.0
H2091 H 0.39296 0.79208 0.49584 0.0
H2092 H 0.40743 0.76047 0.4946 0.0
H2093 H 0.36222 0.74754 0.49219 0.0
H2094 H 0.36637 0.72572 0.47435 0.0
H2095 H 0.41122 0.73792 0.47681 0.0
H2096 H 0.40057 0.75521 0.4659 0.0
H2097 H 0.46364 0.89257 0.46961 0.0
H2098 H 0.52078 0.89496 0.47147 0.0
H2099 H 0.46715 0.78816 0.48272 0.0
C2100 C 0.34075 0.77652 0.47427 0.0
C2101 C 0.32564 0.79427 0.46939 0.0
C2102 C 0.3474 0.82952 0.46628 0.0
C2103 C 0.3837 0.84699 0.46813 0.0
C2104 C 0.39774 0.82878 0.47307 0.0
C2105 C 0.37693 0.79413 0.47596 0.0
C2106 C 0.39863 0.77924 0.48022 0.0
C2107 C 0.38977 0.76925 0.49138 0.0
C2108 C 0.39393 0.74769 0.47395 0.0
C2109 C 0.43505 0.81064 0.47905 0.0
C2110 C 0.43407 0.83927 0.47514 0.0
C2111 C 0.46472 0.87047 0.47279 0.0
C2112 C 0.4971 0.87175 0.47397 0.0
C2113 C 0.49829 0.84178 0.47728 0.0
C2114 C 0.46699 0.81153 0.48026 0.0
H2115 H 0.3357 0.54796 0.36907 0.0
H2116 H 0.30422 0.47095 0.34508 0.0
H2117 H 0.2477 0.4706 0.34355 0.0
H2118 H 0.25152 0.51017 0.38085 0.0
H2119 H 0.25661 0.55202 0.38442 0.0
H2120 H 0.29465 0.54697 0.38325 0.0
H2121 H 0.3222 0.59852 0.37049 0.0
H2122 H 0.28441 0.60393 0.37167 0.0
H2123 H 0.29773 0.5971 0.35943 0.0
H2124 H 0.19588 0.48145 0.34433 0.0
H2125 H 0.15204 0.49972 0.34786 0.0
H2126 H 0.21665 0.56558 0.37234 0.0
C2127 C 0.31717 0.53126 0.36339 0.0
C2128 C 0.32452 0.5099 0.35705 0.0
C2129 C 0.29915 0.48774 0.34993 0.0
C2130 C 0.26707 0.48737 0.34903 0.0
C2131 C 0.26071 0.50876 0.35547 0.0
C2132 C 0.28502 0.53002 0.36257 0.0
C2133 C 0.27178 0.54974 0.36883 0.0
C2134 C 0.26844 0.53907 0.37999 0.0
C2135 C 0.29543 0.58968 0.36752 0.0
C2136 C 0.23621 0.53672 0.36407 0.0
C2137 C 0.23034 0.51331 0.35632 0.0
C2138 C 0.20005 0.49937 0.35045 0.0
C2139 C 0.17536 0.5099 0.3525 0.0
C2140 C 0.1809 0.53363 0.36045 0.0
C2141 C 0.21148 0.5468 0.36637 0.0
H2142 H 0.44794 0.79325 0.36929 0.0
H2143 H 0.51232 0.83791 0.34262 0.0
H2144 H 0.5119 0.78174 0.33985 0.0
H2145 H 0.49237 0.75021 0.37803 0.0
H2146 H 0.45344 0.7132 0.38311 0.0
H2147 H 0.45647 0.75551 0.38237 0.0
H2148 H 0.39879 0.72861 0.37199 0.0
H2149 H 0.39531 0.68612 0.37279 0.0
H2150 H 0.39508 0.7044 0.36065 0.0
H2151 H 0.50251 0.71936 0.34005 0.0
H2152 H 0.48828 0.65832 0.34363 0.0
H2153 H 0.43558 0.65885 0.37117 0.0
C2154 C 0.46139 0.79115 0.36271 0.0
C2155 C 0.4795 0.81961 0.35601 0.0
C2156 C 0.49785 0.81615 0.34774 0.0
C2157 C 0.4978 0.78446 0.34615 0.0
C2158 C 0.47993 0.75706 0.35302 0.0
C2159 C 0.46235 0.76038 0.36119 0.0
C2160 C 0.4469 0.72827 0.36787 0.0
C2161 C 0.46328 0.73735 0.37847 0.0
C2162 C 0.40664 0.71082 0.36835 0.0
C2163 C 0.45815 0.70589 0.36216 0.0
C2164 C 0.47683 0.72268 0.35355 0.0
C2165 C 0.4883 0.70621 0.34682 0.0
C2166 C 0.48014 0.67165 0.34891 0.0
C2167 C 0.46138 0.65436 0.35775 0.0
C2168 C 0.45067 0.67187 0.36449 0.0
H2169 H 0.33763 0.78417 0.37309 0.0
H2170 H 0.33538 0.85276 0.35003 0.0
H2171 H 0.27419 0.80793 0.34575 0.0
H2172 H 0.2929 0.7066 0.35867 0.0
H2173 H 0.26959 0.67886 0.36922 0.0
H2174 H 0.31157 0.71771 0.37114 0.0
H2175 H 0.28422 0.74038 0.38441 0.0
H2176 H 0.24229 0.70129 0.38265 0.0
H2177 H 0.24635 0.74387 0.38107 0.0
H2178 H 0.21204 0.75416 0.34414 0.0
H2179 H 0.15679 0.69642 0.34507 0.0
H2180 H 0.20451 0.66306 0.36796 0.0
C2181 C 0.32393 0.79002 0.36731 0.0
C2182 C 0.34079 0.82199 0.362 0.0
C2183 C 0.32258 0.82839 0.35424 0.0
C2184 C 0.28792 0.80312 0.35175 0.0
C2185 C 0.27218 0.77138 0.35698 0.0
C2186 C 0.28978 0.7648 0.36457 0.0
C2187 C 0.26821 0.72796 0.36861 0.0
C2188 C 0.28667 0.70653 0.3668 0.0
C2189 C 0.25976 0.72842 0.37985 0.0
C2190 C 0.23575 0.71484 0.36215 0.0
C2191 C 0.23805 0.74017 0.35556 0.0
C2192 C 0.21012 0.73398 0.34921 0.0
C2193 C 0.17894 0.70116 0.34974 0.0
C2194 C 0.17643 0.67491 0.35642 0.0
C2195 C 0.20557 0.68206 0.36256 0.0
H2196 H 0.30857 0.35027 0.147 0.0
H2197 H 0.39029 0.40076 0.16952 0.0
H2198 H 0.34524 0.38747 0.18259 0.0
H2199 H 0.25049 0.37984 0.15712 0.0
H2200 H 0.21114 0.33925 0.15414 0.0
H2201 H 0.2499 0.35398 0.1465 0.0
H2202 H 0.24831 0.29498 0.1496 0.0
H2203 H 0.20948 0.28004 0.15718 0.0
H2204 H 0.24757 0.28044 0.16235 0.0
H2205 H 0.29112 0.3657 0.19331 0.0
H2206 H 0.23161 0.33648 0.2009 0.0
H2207 H 0.18553 0.30188 0.17132 0.0
C2208 C 0.3169 0.35863 0.15468 0.0
C2209 C 0.35272 0.37566 0.15734 0.0
C2210 C 0.36283 0.38656 0.16742 0.0
C2211 C 0.33748 0.37954 0.17486 0.0
C2212 C 0.30225 0.36207 0.17203 0.0
C2213 C 0.29195 0.35187 0.16217 0.0
C2214 C 0.25238 0.33245 0.16117 0.0
C2215 C 0.24028 0.35259 0.15433 0.0
C2216 C 0.23864 0.29475 0.15735 0.0
C2217 C 0.242 0.33279 0.17202 0.0
C2218 C 0.27114 0.35021 0.17816 0.0
C2219 C 0.26811 0.35237 0.18857 0.0
C2220 C 0.23439 0.33578 0.19281 0.0
C2221 C 0.20443 0.31746 0.18664 0.0
C2222 C 0.20823 0.3164 0.17612 0.0
H2223 H 0.68725 0.91856 0.18723 0.0
H2224 H 0.68037 0.84051 0.16599 0.0
H2225 H 0.65198 0.86035 0.15358 0.0
H2226 H 0.60402 0.91469 0.18006 0.0
H2227 H 0.62225 0.96133 0.18163 0.0
H2228 H 0.63836 0.93829 0.18917 0.0
H2229 H 0.70157 0.98113 0.18299 0.0
H2230 H 0.68563 0.00395 0.17531 0.0
H2231 H 0.71063 0.98613 0.16965 0.0
H2232 H 0.62981 0.89225 0.14301 0.0
H2233 H 0.61191 0.93169 0.13519 0.0
H2234 H 0.63228 0.98884 0.16339 0.0
C2235 C 0.6792 0.90537 0.18001 0.0
C2236 C 0.68591 0.87809 0.1775 0.0
C2237 C 0.67509 0.86127 0.16804 0.0
C2238 C 0.65916 0.87249 0.16095 0.0
C2239 C 0.65406 0.90037 0.1635 0.0
C2240 C 0.66334 0.91634 0.17284 0.0
C2241 C 0.65643 0.94678 0.1735 0.0
C2242 C 0.6286 0.93984 0.18157 0.0
C2243 C 0.6906 0.98155 0.17548 0.0
C2244 C 0.64252 0.94591 0.16299 0.0
C2245 C 0.64129 0.91886 0.15737 0.0
C2246 C 0.63038 0.91333 0.14736 0.0
C2247 C 0.6203 0.93594 0.14299 0.0
C2248 C 0.62131 0.96391 0.14858 0.0
C2249 C 0.63226 0.9686 0.15877 0.0
H2250 H 0.09008 0.76036 0.18792 0.0
H2251 H 0.14084 0.84405 0.16598 0.0
H2252 H 0.1182 0.8004 0.15219 0.0
H2253 H 0.10221 0.69453 0.17444 0.0
H2254 H 0.05972 0.65882 0.17801 0.0
H2255 H 0.08246 0.69639 0.18616 0.0
H2256 H 0.02851 0.70527 0.18586 0.0
H2257 H 0.00572 0.66797 0.17763 0.0
H2258 H 0.01171 0.71006 0.17393 0.0
H2259 H 0.08768 0.74847 0.14085 0.0
H2260 H 0.05198 0.69118 0.13252 0.0
H2261 H 0.01962 0.6408 0.16177 0.0
C2262 C 0.0965 0.76934 0.18021 0.0
C2263 C 0.11712 0.80544 0.17796 0.0
C2264 C 0.12535 0.8164 0.16782 0.0
C2265 C 0.11247 0.79186 0.15996 0.0
C2266 C 0.0914 0.75649 0.16239 0.0
C2267 C 0.08356 0.74516 0.17226 0.0
C2268 C 0.05918 0.70576 0.17277 0.0
C2269 C 0.07696 0.68782 0.17816 0.0
C2270 C 0.02421 0.69675 0.17785 0.0
C2271 C 0.0542 0.69681 0.16164 0.0
C2272 C 0.0732 0.72647 0.15581 0.0
C2273 C 0.07274 0.72503 0.14533 0.0
C2274 C 0.05238 0.69237 0.14068 0.0
C2275 C 0.03248 0.66158 0.14648 0.0
C2276 C 0.03364 0.66391 0.15711 0.0
H2277 H 0.3451 0.30918 0.35465 0.0
H2278 H 0.37995 0.38506 0.33031 0.0
H2279 H 0.36072 0.33702 0.31788 0.0
H2280 H 0.37159 0.25124 0.34312 0.0
H2281 H 0.33415 0.21182 0.3478 0.0
H2282 H 0.3511 0.25221 0.35479 0.0
H2283 H 0.28977 0.24706 0.35441 0.0
H2284 H 0.27261 0.20658 0.34748 0.0
H2285 H 0.26823 0.2423 0.34247 0.0
H2286 H 0.33641 0.28068 0.30814 0.0
H2287 H 0.30743 0.21953 0.30175 0.0
H2288 H 0.28934 0.18053 0.33241 0.0
C2289 C 0.34863 0.31558 0.3467 0.0
C2290 C 0.36308 0.35062 0.34339 0.0
C2291 C 0.36775 0.35821 0.33296 0.0
C2292 C 0.35732 0.33117 0.32586 0.0
C2293 C 0.34268 0.2968 0.32935 0.0
C2294 C 0.33834 0.28891 0.33952 0.0
C2295 C 0.32129 0.24974 0.34129 0.0
C2296 C 0.34602 0.24073 0.34709 0.0
C2297 C 0.28587 0.2356 0.34673 0.0
C2298 C 0.31636 0.23679 0.33052 0.0
C2299 C 0.32908 0.26438 0.32375 0.0
C2300 C 0.32655 0.25889 0.31336 0.0
C2301 C 0.31012 0.22425 0.30981 0.0
C2302 C 0.29648 0.19578 0.31663 0.0
C2303 C 0.30002 0.20209 0.32709 0.0
H2304 H 0.68674 0.03987 0.35558 0.0
H2305 H 0.60416 0.00554 0.33321 0.0
H2306 H 0.64844 0.03846 0.32007 0.0
H2307 H 0.74287 0.1278 0.34532 0.0
H2308 H 0.78292 0.12775 0.34816 0.0
H2309 H 0.74462 0.10306 0.35592 0.0
H2310 H 0.74766 0.04644 0.35277 0.0
H2311 H 0.78611 0.07104 0.3451 0.0
H2312 H 0.74841 0.03276 0.34 0.0
H2313 H 0.70177 0.07285 0.30928 0.0
H2314 H 0.76083 0.10377 0.30145 0.0
H2315 H 0.80856 0.11578 0.33082 0.0
C2316 C 0.67809 0.03947 0.34791 0.0
C2317 C 0.64225 0.01967 0.34533 0.0
C2318 C 0.63167 0.01977 0.33526 0.0
C2319 C 0.65656 0.03873 0.32778 0.0
C2320 C 0.69182 0.05768 0.33055 0.0
C2321 C 0.70261 0.05813 0.34036 0.0
C2322 C 0.74221 0.07914 0.34124 0.0
C2323 C 0.75383 0.11135 0.34806 0.0
C2324 C 0.75695 0.05595 0.345 0.0
C2325 C 0.75203 0.08989 0.33036 0.0
C2326 C 0.72256 0.07761 0.32433 0.0
C2327 C 0.72502 0.08283 0.31393 0.0
C2328 C 0.75852 0.10032 0.30955 0.0
C2329 C 0.78883 0.11205 0.31558 0.0
C2330 C 0.78559 0.10747 0.32611 0.0
H2331 H 0.88229 0.70348 0.33034 0.0
H2332 H 0.85427 0.63292 0.30491 0.0
H2333 H 0.88289 0.60297 0.31312 0.0
H2334 H 0.96503 0.71677 0.3337 0.0
H2335 H 0.96536 0.71827 0.34728 0.0
H2336 H 0.93787 0.73024 0.3403 0.0
H2337 H 0.88286 0.6838 0.34991 0.0
H2338 H 0.91025 0.67222 0.35715 0.0
H2339 H 0.87321 0.63886 0.35027 0.0
H2340 H 0.9218 0.58665 0.32313 0.0
H2341 H 0.96219 0.58086 0.33494 0.0
H2342 H 0.96425 0.66225 0.35383 0.0
C2343 C 0.8809 0.68069 0.32675 0.0
C2344 C 0.86548 0.6697 0.31716 0.0
C2345 C 0.8652 0.64085 0.3124 0.0
C2346 C 0.88163 0.624 0.31697 0.0
C2347 C 0.89789 0.63634 0.3263 0.0
C2348 C 0.89699 0.66359 0.33123 0.0
C2349 C 0.91837 0.67356 0.34084 0.0
C2350 C 0.94843 0.71198 0.3405 0.0
C2351 C 0.89476 0.66668 0.35009 0.0
C2352 C 0.93227 0.64834 0.34044 0.0
C2353 C 0.92024 0.62707 0.33201 0.0
C2354 C 0.93111 0.60297 0.32979 0.0
C2355 C 0.95449 0.60025 0.33644 0.0
C2356 C 0.96675 0.6216 0.34516 0.0
C2357 C 0.95524 0.64568 0.34719 0.0
H2358 H 0.76985 0.68613 0.80994 0.0
H2359 H 0.84234 0.68098 0.83104 0.0
H2360 H 0.79502 0.65406 0.84376 0.0
H2361 H 0.72767 0.71175 0.82723 0.0
H2362 H 0.68425 0.68636 0.82197 0.0
H2363 H 0.72217 0.70075 0.81401 0.0
H2364 H 0.70065 0.63657 0.80856 0.0
H2365 H 0.66226 0.62198 0.81635 0.0
H2366 H 0.69037 0.60347 0.81805 0.0
H2367 H 0.74213 0.63432 0.85471 0.0
H2368 H 0.68595 0.6189 0.86288 0.0
H2369 H 0.64686 0.63518 0.83451 0.0
C2370 C 0.77536 0.67845 0.81717 0.0
C2371 C 0.80949 0.68528 0.81954 0.0
C2372 C 0.81615 0.6754 0.82907 0.0
C2373 C 0.78952 0.66035 0.83634 0.0
C2374 C 0.75641 0.65514 0.83391 0.0
C2375 C 0.74906 0.66338 0.8245 0.0
C2376 C 0.71183 0.65686 0.824 0.0
C2377 C 0.71148 0.69096 0.82167 0.0
C2378 C 0.68998 0.628 0.81628 0.0
C2379 C 0.6997 0.64454 0.83467 0.0
C2380 C 0.7258 0.64366 0.84024 0.0
C2381 C 0.72135 0.63452 0.85039 0.0
C2382 C 0.68932 0.62586 0.85497 0.0
C2383 C 0.66205 0.62648 0.84943 0.0
C2384 C 0.66735 0.63556 0.8391 0.0
H2385 H 0.26476 0.06759 0.82912 0.0
H2386 H 0.36093 0.16057 0.8199 0.0
H2387 H 0.39515 0.1423 0.83055 0.0
H2388 H 0.28843 0.0621 0.85439 0.0
H2389 H 0.26818 0.01493 0.85439 0.0
H2390 H 0.2512 0.03602 0.84637 0.0
H2391 H 0.25876 0.00499 0.83076 0.0
H2392 H 0.27556 0.9836 0.83874 0.0
H2393 H 0.30108 0.00954 0.82817 0.0
H2394 H 0.41845 0.11472 0.84271 0.0
H2395 H 0.42984 0.07713 0.85418 0.0
H2396 H 0.31905 0.99933 0.85405 0.0
C2397 C 0.29305 0.08389 0.82921 0.0
C2398 C 0.31018 0.11573 0.82376 0.0
C2399 C 0.34721 0.13651 0.82421 0.0
C2400 C 0.36686 0.12623 0.83018 0.0
C2401 C 0.34909 0.09474 0.8355 0.0
C2402 C 0.31307 0.07361 0.83494 0.0
C2403 C 0.30043 0.04038 0.84108 0.0
C2404 C 0.2756 0.03826 0.84956 0.0
C2405 C 0.28293 0.0077 0.83428 0.0
C2406 C 0.33498 0.04623 0.84526 0.0
C2407 C 0.36269 0.07795 0.84204 0.0
C2408 C 0.39702 0.0897 0.84519 0.0
C2409 C 0.40322 0.06832 0.85173 0.0
C2410 C 0.37534 0.03537 0.85488 0.0
C2411 C 0.34082 0.02425 0.85162 0.0
H2412 H 0.93118 0.20526 0.82232 0.0
H2413 H 0.83872 0.20902 0.81286 0.0
H2414 H 0.86015 0.26505 0.82201 0.0
H2415 H 0.93944 0.24043 0.84663 0.0
H2416 H 0.9867 0.26612 0.84643 0.0
H2417 H 0.96436 0.22668 0.83901 0.0
H2418 H 0.99556 0.26187 0.82292 0.0
H2419 H 0.01813 0.30147 0.8303 0.0
H2420 H 0.99221 0.29981 0.81957 0.0
H2421 H 0.88949 0.31802 0.83317 0.0
H2422 H 0.92659 0.36656 0.84481 0.0
H2423 H 0.0027 0.33145 0.84567 0.0
C2424 C 0.91579 0.21821 0.822 0.0
C2425 C 0.88321 0.20278 0.81691 0.0
C2426 C 0.86346 0.22015 0.81686 0.0
C2427 C 0.87556 0.25208 0.82195 0.0
C2428 C 0.90774 0.26653 0.82692 0.0
C2429 C 0.9278 0.25041 0.82688 0.0
C2430 C 0.96138 0.27137 0.83284 0.0
C2431 C 0.96304 0.24986 0.84176 0.0
C2432 C 0.99374 0.2844 0.826 0.0
C2433 C 0.95674 0.30149 0.83642 0.0
C2434 C 0.92552 0.29808 0.83294 0.0
C2435 C 0.91425 0.32132 0.83579 0.0
C2436 C 0.93536 0.34866 0.84241 0.0
C2437 C 0.96752 0.35278 0.84596 0.0
C2438 C 0.97853 0.32916 0.84285 0.0
H2439 H 0.59387 0.65757 0.65387 0.0
H2440 H 0.68866 0.66356 0.6421 0.0
H2441 H 0.72439 0.72115 0.65039 0.0
H2442 H 0.62298 0.75172 0.65232 0.0
H2443 H 0.60238 0.75187 0.66405 0.0
H2444 H 0.58387 0.71269 0.65644 0.0
H2445 H 0.58726 0.6774 0.67161 0.0
H2446 H 0.6056 0.71638 0.67927 0.0
H2447 H 0.62872 0.69242 0.6779 0.0
H2448 H 0.7497 0.77611 0.66036 0.0
H2449 H 0.76394 0.82379 0.67252 0.0
H2450 H 0.65315 0.78163 0.67857 0.0
C2451 C 0.62213 0.67135 0.65297 0.0
C2452 C 0.63876 0.6564 0.64742 0.0
C2453 C 0.67569 0.67466 0.64644 0.0
C2454 C 0.69608 0.7074 0.65104 0.0
C2455 C 0.679 0.72134 0.65658 0.0
C2456 C 0.64291 0.70388 0.65764 0.0
C2457 C 0.63147 0.72354 0.66464 0.0
C2458 C 0.60883 0.73567 0.65902 0.0
C2459 C 0.61213 0.7011 0.6739 0.0
C2460 C 0.66682 0.75443 0.66749 0.0
C2461 C 0.69378 0.75283 0.66262 0.0
C2462 C 0.72886 0.77768 0.66422 0.0
C2463 C 0.73668 0.80447 0.67118 0.0
C2464 C 0.7096 0.80589 0.67653 0.0
C2465 C 0.67421 0.78106 0.67451 0.0
H2466 H 0.18165 0.88366 0.66672 0.0
H2467 H 0.21824 0.85418 0.69323 0.0
H2468 H 0.278 0.88089 0.6858 0.0
H2469 H 0.23706 0.86963 0.64816 0.0
H2470 H 0.24365 0.90663 0.64067 0.0
H2471 H 0.20352 0.88173 0.64768 0.0
H2472 H 0.21418 0.93888 0.65647 0.0
H2473 H 0.2546 0.96389 0.64964 0.0
H2474 H 0.25462 0.96531 0.66322 0.0
H2475 H 0.335 0.91774 0.67632 0.0
H2476 H 0.38352 0.95612 0.66477 0.0
H2477 H 0.3086 0.95907 0.64419 0.0
C2478 C 0.20209 0.8819 0.67077 0.0
C2479 C 0.19567 0.86657 0.68042 0.0
C2480 C 0.22287 0.86532 0.68572 0.0
C2481 C 0.25677 0.88058 0.68158 0.0
C2482 C 0.26261 0.89647 0.67213 0.0
C2483 C 0.2358 0.89658 0.6667 0.0
C2484 C 0.24906 0.91663 0.65692 0.0
C2485 C 0.23233 0.89219 0.64782 0.0
C2486 C 0.24274 0.94803 0.65655 0.0
C2487 C 0.28772 0.92865 0.65777 0.0
C2488 C 0.29511 0.9169 0.6666 0.0
C2489 C 0.32942 0.92663 0.66932 0.0
C2490 C 0.35679 0.94865 0.66279 0.0
C2491 C 0.34953 0.96045 0.65368 0.0
C2492 C 0.31461 0.95008 0.65111 0.0
H2493 H 0.10795 0.28681 0.66985 0.0
H2494 H 0.10923 0.33726 0.69799 0.0
H2495 H 0.07917 0.36555 0.68972 0.0
H2496 H 0.12006 0.35905 0.6529 0.0
H2497 H 0.09056 0.32922 0.64353 0.0
H2498 H 0.11546 0.3162 0.65141 0.0
H2499 H 0.0578 0.2611 0.65701 0.0
H2500 H 0.03269 0.27411 0.64925 0.0
H2501 H 0.02322 0.26632 0.66252 0.0
H2502 H 0.04571 0.38499 0.67871 0.0
H2503 H 0.01174 0.39517 0.66564 0.0
H2504 H 0.0305 0.33068 0.64468 0.0
C2505 C 0.10267 0.3046 0.67414 0.0
C2506 C 0.11127 0.31057 0.68446 0.0
C2507 C 0.1032 0.33303 0.69002 0.0
C2508 C 0.08611 0.34904 0.68539 0.0
C2509 C 0.07725 0.34215 0.67523 0.0
C2510 C 0.08542 0.32063 0.66964 0.0
C2511 C 0.07109 0.31588 0.65901 0.0
C2512 C 0.10108 0.331 0.65125 0.0
C2513 C 0.04463 0.27705 0.65683 0.0
C2514 C 0.0531 0.33758 0.65954 0.0
C2515 C 0.05715 0.35265 0.66894 0.0
C2516 C 0.04227 0.37324 0.67133 0.0
C2517 C 0.02265 0.37849 0.66391 0.0
C2518 C 0.01768 0.36283 0.65428 0.0
C2519 C 0.03361 0.34261 0.65203 0.0
H2520 H 0.87637 0.60592 0.51016 0.0
H2521 H 0.87769 0.70131 0.51926 0.0
H2522 H 0.9321 0.73643 0.50946 0.0
H2523 H 0.97151 0.64269 0.51204 0.0
H2524 H 0.97298 0.61793 0.50141 0.0
H2525 H 0.93413 0.60043 0.50914 0.0
H2526 H 0.8967 0.59358 0.49331 0.0
H2527 H 0.93539 0.61117 0.48554 0.0
H2528 H 0.90832 0.63125 0.48543 0.0
H2529 H 0.98377 0.76054 0.49778 0.0
H2530 H 0.032 0.77261 0.48594 0.0
H2531 H 0.00044 0.66215 0.4858 0.0
C2532 C 0.88846 0.63422 0.51026 0.0
C2533 C 0.87273 0.65093 0.51542 0.0
C2534 C 0.88898 0.68798 0.51519 0.0
C2535 C 0.92 0.70813 0.50972 0.0
C2536 C 0.93473 0.69081 0.50468 0.0
C2537 C 0.91978 0.65474 0.50501 0.0
C2538 C 0.94099 0.64262 0.49896 0.0
C2539 C 0.95578 0.62487 0.50579 0.0
C2540 C 0.91903 0.61822 0.4903 0.0
C2541 C 0.96989 0.6775 0.49502 0.0
C2542 C 0.96563 0.70493 0.49836 0.0
C2543 C 0.98772 0.73938 0.49524 0.0
C2544 C 0.01489 0.74597 0.48851 0.0
C2545 C 0.01997 0.71834 0.48513 0.0
C2546 C 0.9974 0.68375 0.48848 0.0
H2547 H 0.2675 0.27271 0.48974 0.0
H2548 H 0.36283 0.35816 0.47703 0.0
H2549 H 0.39761 0.33508 0.48525 0.0
H2550 H 0.30409 0.27285 0.51363 0.0
H2551 H 0.27951 0.22588 0.51525 0.0
H2552 H 0.26178 0.24738 0.50771 0.0
H2553 H 0.2551 0.20706 0.49262 0.0
H2554 H 0.27299 0.18553 0.50012 0.0
H2555 H 0.29284 0.20508 0.4882 0.0
H2556 H 0.42202 0.30422 0.4951 0.0
H2557 H 0.43562 0.26977 0.50707 0.0
H2558 H 0.325 0.20518 0.51412 0.0
C2559 C 0.29567 0.28625 0.48864 0.0
C2560 C 0.31272 0.31726 0.48284 0.0
C2561 C 0.34954 0.33461 0.48158 0.0
C2562 C 0.36938 0.32154 0.48614 0.0
C2563 C 0.35192 0.29113 0.49193 0.0
C2564 C 0.31595 0.27377 0.49326 0.0
C2565 C 0.30409 0.24292 0.5004 0.0
C2566 C 0.28633 0.24756 0.5098 0.0
C2567 C 0.27982 0.20808 0.49501 0.0
C2568 C 0.33909 0.24599 0.50298 0.0
C2569 C 0.36621 0.27371 0.49787 0.0
C2570 C 0.40105 0.28249 0.49914 0.0
C2571 C 0.40852 0.26292 0.50598 0.0
C2572 C 0.38135 0.23524 0.51156 0.0
C2573 C 0.34614 0.22617 0.50989 0.0
H2574 H 0.69186 0.98148 0.49534 0.0
H2575 H 0.7367 0.02756 0.46631 0.0
H2576 H 0.77672 0.0838 0.47467 0.0
H2577 H 0.69215 0.05702 0.50546 0.0
H2578 H 0.70292 0.05036 0.51807 0.0
H2579 H 0.6792 0.01336 0.50981 0.0
H2580 H 0.72676 0.99575 0.5125 0.0
H2581 H 0.75086 0.03302 0.52067 0.0
H2582 H 0.77206 0.02713 0.50983 0.0
H2583 H 0.80962 0.13586 0.48602 0.0
H2584 H 0.83077 0.18073 0.49951 0.0
H2585 H 0.76554 0.10083 0.52118 0.0
C2586 C 0.70958 0.0035 0.49071 0.0
C2587 C 0.7106 0.00029 0.48013 0.0
C2588 C 0.73531 0.02948 0.47442 0.0
C2589 C 0.75821 0.0615 0.4791 0.0
C2590 C 0.75636 0.06386 0.48952 0.0
C2591 C 0.73264 0.0357 0.49526 0.0
C2592 C 0.73525 0.04556 0.5063 0.0
C2593 C 0.70031 0.04133 0.51013 0.0
C2594 C 0.74693 0.02408 0.5127 0.0
C2595 C 0.76364 0.08385 0.50583 0.0
C2596 C 0.77571 0.09379 0.4961 0.0
C2597 C 0.80063 0.12831 0.49369 0.0
C2598 C 0.81267 0.15355 0.50139 0.0
C2599 C 0.79967 0.14411 0.51132 0.0
C2600 C 0.77573 0.10865 0.51362 0.0
H2601 H 0.0009 0.56576 0.64624 0.0
H2602 H 0.9688 0.48158 0.66796 0.0
H2603 H 0.9892 0.52479 0.68186 0.0
H2604 H 0.07894 0.63257 0.66033 0.0
H2605 H 0.07138 0.66769 0.65665 0.0
H2606 H 0.05825 0.63056 0.64843 0.0
H2607 H 0.99487 0.62023 0.64818 0.0
H2608 H 0.00762 0.65693 0.65652 0.0
H2609 H 0.97186 0.61423 0.65991 0.0
H2610 H 0.00685 0.57608 0.69338 0.0
H2611 H 0.02393 0.63235 0.70178 0.0
H2612 H 0.04616 0.68381 0.67259 0.0
C2613 C 0.99878 0.55662 0.65393 0.0
C2614 C 0.98345 0.52046 0.65607 0.0
C2615 C 0.981 0.50928 0.66619 0.0
C2616 C 0.9923 0.53359 0.67412 0.0
C2617 C 0.00619 0.569 0.67179 0.0
C2618 C 0.00996 0.5806 0.66194 0.0
C2619 C 0.02409 0.61988 0.66153 0.0
C2620 C 0.06033 0.63879 0.65644 0.0
C2621 C 0.99805 0.62829 0.65622 0.0
C2622 C 0.02678 0.62837 0.67268 0.0
C2623 C 0.01645 0.59866 0.67846 0.0
C2624 C 0.01535 0.5996 0.68893 0.0
C2625 C 0.02509 0.63175 0.69363 0.0
C2626 C 0.03571 0.66267 0.68789 0.0
C2627 C 0.03702 0.6608 0.67726 0.0
H2628 H 0.42584 0.41805 0.64508 0.0
H2629 H 0.50958 0.4613 0.66719 0.0
H2630 H 0.46579 0.4368 0.68093 0.0
H2631 H 0.36228 0.4303 0.65929 0.0
H2632 H 0.3254 0.38924 0.65526 0.0
H2633 H 0.36324 0.41201 0.64722 0.0
H2634 H 0.36924 0.35636 0.64647 0.0
H2635 H 0.33156 0.33348 0.65457 0.0
H2636 H 0.37274 0.33681 0.65804 0.0
H2637 H 0.41339 0.40724 0.69215 0.0
H2638 H 0.35539 0.37322 0.70028 0.0
H2639 H 0.30541 0.34664 0.67091 0.0
C2640 C 0.43479 0.4224 0.65283 0.0
C2641 C 0.47089 0.4418 0.65515 0.0
C2642 C 0.4819 0.447 0.66533 0.0
C2643 C 0.45728 0.43304 0.67315 0.0
C2644 C 0.42183 0.41369 0.67062 0.0
C2645 C 0.41054 0.40825 0.66072 0.0
C2646 C 0.37097 0.3854 0.66009 0.0
C2647 C 0.35451 0.40545 0.65518 0.0
C2648 C 0.36053 0.35097 0.65446 0.0
C2649 C 0.36182 0.37883 0.67118 0.0
C2650 C 0.39158 0.39557 0.67711 0.0
C2651 C 0.38991 0.39388 0.68759 0.0
C2652 C 0.3569 0.37456 0.69213 0.0
C2653 C 0.32611 0.35686 0.68621 0.0
C2654 C 0.32864 0.35916 0.6756 0.0
H2655 H 0.53958 0.98515 0.65208 0.0
H2656 H 0.59007 0.0892 0.66531 0.0
H2657 H 0.62209 0.07199 0.67716 0.0
H2658 H 0.53069 0.93734 0.67586 0.0
H2659 H 0.53958 0.90586 0.66984 0.0
H2660 H 0.51875 0.92562 0.66285 0.0
H2661 H 0.56753 0.94661 0.64929 0.0
H2662 H 0.58864 0.92719 0.65626 0.0
H2663 H 0.61284 0.97312 0.65301 0.0
H2664 H 0.65177 0.04542 0.68661 0.0
H2665 H 0.67588 0.00981 0.69367 0.0
H2666 H 0.60539 0.92221 0.67477 0.0
C2667 C 0.55684 0.00392 0.65763 0.0
C2668 C 0.56249 0.03842 0.65785 0.0
C2669 C 0.58567 0.06267 0.66504 0.0
C2670 C 0.60382 0.05312 0.67181 0.0
C2671 C 0.59825 0.01911 0.67131 0.0
C2672 C 0.57513 0.99472 0.66449 0.0
C2673 C 0.57508 0.96033 0.66534 0.0
C2674 C 0.53887 0.93052 0.66867 0.0
C2675 C 0.58673 0.9513 0.65538 0.0
C2676 C 0.60229 0.96952 0.67354 0.0
C2677 C 0.61524 0.00355 0.67689 0.0
C2678 C 0.6417 0.01864 0.68411 0.0
C2679 C 0.6554 0.9984 0.68801 0.0
C2680 C 0.64265 0.96358 0.68466 0.0
C2681 C 0.61543 0.9488 0.67745 0.0
H2682 H 0.35956 0.98984 0.1908 0.0
H2683 H 0.27921 0.93649 0.16807 0.0
H2684 H 0.32513 0.95098 0.1552 0.0
H2685 H 0.41998 0.06056 0.17515 0.0
H2686 H 0.45849 0.06265 0.18062 0.0
H2687 H 0.4192 0.04713 0.18803 0.0
H2688 H 0.41963 0.98945 0.1917 0.0
H2689 H 0.45877 0.00469 0.18421 0.0
H2690 H 0.42025 0.96325 0.18133 0.0
H2691 H 0.37963 0.97255 0.14477 0.0
H2692 H 0.43927 0.0022 0.13731 0.0
H2693 H 0.48432 0.04103 0.16679 0.0
C2694 C 0.35175 0.9813 0.1831 0.0
C2695 C 0.31597 0.96285 0.18033 0.0
C2696 C 0.30656 0.95169 0.17024 0.0
C2697 C 0.33242 0.95939 0.16292 0.0
C2698 C 0.36753 0.97798 0.16586 0.0
C2699 C 0.37726 0.98888 0.1757 0.0
C2700 C 0.41685 0.00942 0.1768 0.0
C2701 C 0.42936 0.04718 0.18035 0.0
C2702 C 0.42961 0.99057 0.18393 0.0
C2703 C 0.42787 0.00871 0.16603 0.0
C2704 C 0.39899 0.99015 0.15986 0.0
C2705 C 0.40243 0.9869 0.14953 0.0
C2706 C 0.43625 0.00367 0.14537 0.0
C2707 C 0.46599 0.02339 0.15153 0.0
C2708 C 0.46183 0.02551 0.162 0.0
H2709 H 0.9686 0.44943 0.16236 0.0
H2710 H 0.01588 0.44858 0.13383 0.0
H2711 H 0.04596 0.42012 0.142 0.0
H2712 H 0.04328 0.46399 0.17873 0.0
H2713 H 0.01453 0.43519 0.18841 0.0
H2714 H 0.00053 0.45933 0.18055 0.0
H2715 H 0.94498 0.40109 0.17553 0.0
H2716 H 0.95896 0.37673 0.18326 0.0
H2717 H 0.94979 0.36618 0.17008 0.0
H2718 H 0.06664 0.38748 0.15296 0.0
H2719 H 0.07739 0.35377 0.16601 0.0
H2720 H 0.01533 0.37463 0.18733 0.0
C2721 C 0.98616 0.44412 0.15795 0.0
C2722 C 0.99059 0.45147 0.14755 0.0
C2723 C 0.01274 0.44338 0.14185 0.0
C2724 C 0.02981 0.42725 0.14642 0.0
C2725 C 0.0243 0.41948 0.15668 0.0
C2726 C 0.0032 0.42786 0.1624 0.0
C2727 C 0.99961 0.41445 0.17309 0.0
C2728 C 0.01544 0.44507 0.18064 0.0
C2729 C 0.96105 0.38805 0.17563 0.0
C2730 C 0.02137 0.3966 0.17245 0.0
C2731 C 0.03558 0.40001 0.16294 0.0
C2732 C 0.05568 0.38468 0.16044 0.0
C2733 C 0.06128 0.36525 0.16784 0.0
C2734 C 0.04645 0.36099 0.17756 0.0
C2735 C 0.02678 0.37738 0.17992 0.0
H2736 H 0.5813 0.52089 0.16337 0.0
H2737 H 0.52869 0.554 0.14219 0.0
H2738 H 0.55294 0.61117 0.15109 0.0
H2739 H 0.56673 0.56139 0.18547 0.0
H2740 H 0.60858 0.57302 0.19101 0.0
H2741 H 0.58669 0.53496 0.183 0.0
H2742 H 0.64187 0.55963 0.17161 0.0
H2743 H 0.66389 0.5978 0.17956 0.0
H2744 H 0.65951 0.60288 0.16625 0.0
H2745 H 0.58598 0.66571 0.16178 0.0
H2746 H 0.62203 0.71229 0.17412 0.0
H2747 H 0.65016 0.64197 0.18889 0.0
C2748 C 0.5748 0.54022 0.16069 0.0
C2749 C 0.55334 0.53354 0.15215 0.0
C2750 C 0.54511 0.55901 0.14877 0.0
C2751 C 0.55877 0.59139 0.15376 0.0
C2752 C 0.58012 0.59739 0.16217 0.0
C2753 C 0.58771 0.57233 0.16569 0.0
C2754 C 0.61103 0.58511 0.17492 0.0
C2755 C 0.59212 0.56226 0.18415 0.0
C2756 C 0.64616 0.58644 0.17296 0.0
C2757 C 0.61597 0.62156 0.17596 0.0
C2758 C 0.59807 0.62823 0.16851 0.0
C2759 C 0.59985 0.66068 0.16769 0.0
C2760 C 0.62046 0.68697 0.17467 0.0
C2761 C 0.63872 0.68048 0.18237 0.0
C2762 C 0.63615 0.64731 0.18309 0.0
H2763 H 0.25956 0.98744 0.98766 0.0
H2764 H 0.3572 0.00068 0.97574 0.0
H2765 H 0.39018 0.05718 0.98479 0.0
H2766 H 0.28447 0.0811 0.98758 0.0
H2767 H 0.26265 0.07793 0.99935 0.0
H2768 H 0.24624 0.04034 0.99113 0.0
H2769 H 0.25071 0.00351 0.00569 0.0
H2770 H 0.26713 0.04093 0.01394 0.0
H2771 H 0.29209 0.01905 0.01207 0.0
H2772 H 0.41267 0.10991 0.99563 0.0
H2773 H 0.42412 0.15524 0.00837 0.0
H2774 H 0.31244 0.10758 0.01406 0.0
C2775 C 0.28783 0.00269 0.98685 0.0
C2776 C 0.30605 0.99007 0.98102 0.0
C2777 C 0.343 0.01012 0.98021 0.0
C2778 C 0.36184 0.0422 0.98527 0.0
C2779 C 0.34326 0.05375 0.99112 0.0
C2780 C 0.30712 0.03465 0.99198 0.0
C2781 C 0.29399 0.05189 0.99936 0.0
C2782 C 0.27044 0.0635 0.99404 0.0
C2783 C 0.27486 0.02738 0.0083 0.0
C2784 C 0.32846 0.08329 0.00264 0.0
C2785 C 0.35644 0.08398 0.99766 0.0
C2786 C 0.39101 0.10971 0.99956 0.0
C2787 C 0.39726 0.13517 0.00684 0.0
C2788 C 0.36915 0.13452 0.01221 0.0
C2789 C 0.33428 0.1086 0.00999 0.0
H2790 H 0.88401 0.20129 0.01394 0.0
H2791 H 0.84055 0.26821 0.00699 0.0
H2792 H 0.88916 0.30225 0.99515 0.0
H2793 H 0.97291 0.26739 0.01372 0.0
H2794 H 0.98911 0.24139 0.00779 0.0
H2795 H 0.94951 0.22033 0.01518 0.0
H2796 H 0.9155 0.18097 0.99998 0.0
H2797 H 0.95511 0.2017 0.99256 0.0
H2798 H 0.9161 0.20106 0.98808 0.0
H2799 H 0.94446 0.33206 0.9853 0.0
H2800 H 0.002 0.35377 0.97701 0.0
H2801 H 0.00945 0.26686 0.98969 0.0
C2802 C 0.88457 0.22272 0.00976 0.0
C2803 C 0.859 0.23257 0.01142 0.0
C2804 C 0.8604 0.2608 0.00592 0.0
C2805 C 0.88773 0.28011 0.99914 0.0
C2806 C 0.91322 0.27055 0.99787 0.0
C2807 C 0.91174 0.24228 0.0029 0.0
C2808 C 0.94326 0.23844 0.00034 0.0
C2809 C 0.96498 0.24212 0.00983 0.0
C2810 C 0.9318 0.20346 0.99492 0.0
C2811 C 0.96292 0.2694 0.99329 0.0
C2812 C 0.94505 0.28751 0.99198 0.0
C2813 C 0.95861 0.31797 0.98619 0.0
C2814 C 0.99136 0.33027 0.98159 0.0
C2815 C 0.01006 0.31212 0.98282 0.0
C2816 C 0.99548 0.28109 0.98864 0.0
H2817 H 0.79346 0.67995 0.01033 0.0
H2818 H 0.7172 0.569 0.00791 0.0
H2819 H 0.68215 0.58224 0.99609 0.0
H2820 H 0.73315 0.71076 0.0099 0.0
H2821 H 0.75985 0.74901 0.00231 0.0
H2822 H 0.78032 0.73092 0.01015 0.0
H2823 H 0.81265 0.72505 0.9946 0.0
H2824 H 0.79241 0.74332 0.98671 0.0
H2825 H 0.78767 0.70121 0.98369 0.0
H2826 H 0.65313 0.60722 0.98572 0.0
H2827 H 0.63302 0.64281 0.97653 0.0
H2828 H 0.7287 0.73776 0.98488 0.0
C2829 C 0.76962 0.65857 0.00718 0.0
C2830 C 0.7575 0.62356 0.01015 0.0
C2831 C 0.72627 0.59608 0.00593 0.0
C2832 C 0.7064 0.6033 0.99914 0.0
C2833 C 0.71842 0.63813 0.99655 0.0
C2834 C 0.74945 0.66535 0.00032 0.0
C2835 C 0.75571 0.70048 0.99647 0.0
C2836 C 0.75734 0.72418 0.00523 0.0
C2837 C 0.7891 0.71858 0.98998 0.0
C2838 C 0.723 0.68871 0.99013 0.0
C2839 C 0.70193 0.6526 0.99029 0.0
C2840 C 0.6695 0.6355 0.98545 0.0
C2841 C 0.6582 0.65587 0.98033 0.0
C2842 C 0.67928 0.69285 0.98009 0.0
C2843 C 0.71229 0.70944 0.98492 0.0
H2844 H 0.64801 0.9985 0.81552 0.0
H2845 H 0.69655 0.10891 0.82302 0.0
H2846 H 0.64651 0.09631 0.83424 0.0
H2847 H 0.55942 0.98347 0.81445 0.0
H2848 H 0.54001 0.93979 0.81962 0.0
H2849 H 0.58017 0.95748 0.81249 0.0
H2850 H 0.61058 0.94568 0.82751 0.0
H2851 H 0.5705 0.92789 0.83467 0.0
H2852 H 0.61051 0.96353 0.83974 0.0
H2853 H 0.5924 0.07064 0.84535 0.0
H2854 H 0.53689 0.03441 0.85468 0.0
H2855 H 0.5209 0.94234 0.83823 0.0
C2856 C 0.64803 0.01986 0.8196 0.0
C2857 C 0.67602 0.05453 0.81858 0.0
C2858 C 0.6752 0.08213 0.82381 0.0
C2859 C 0.64699 0.07522 0.83018 0.0
C2860 C 0.6196 0.04068 0.83103 0.0
C2861 C 0.61971 0.01352 0.82579 0.0
C2862 C 0.58657 0.97896 0.82774 0.0
C2863 C 0.56529 0.96407 0.81799 0.0
C2864 C 0.59506 0.95246 0.83271 0.0
C2865 C 0.56805 0.99081 0.83501 0.0
C2866 C 0.58758 0.02641 0.83689 0.0
C2867 C 0.57659 0.04283 0.84381 0.0
C2868 C 0.54494 0.02216 0.84901 0.0
C2869 C 0.52455 0.98568 0.84712 0.0
C2870 C 0.53608 0.97014 0.83989 0.0
H2871 H 0.00241 0.64129 0.80883 0.0
H2872 H 0.91986 0.64029 0.82691 0.0
H2873 H 0.92831 0.60478 0.83988 0.0
H2874 H 0.98217 0.55191 0.81491 0.0
H2875 H 0.02766 0.56341 0.81526 0.0
H2876 H 0.01395 0.58729 0.80718 0.0
H2877 H 0.05952 0.64572 0.81561 0.0
H2878 H 0.07342 0.62204 0.82367 0.0
H2879 H 0.05892 0.65019 0.82911 0.0
H2880 H 0.94784 0.5721 0.85124 0.0
H2881 H 0.9778 0.54505 0.86028 0.0
H2882 H 0.04704 0.56659 0.83478 0.0
C2883 C 0.98605 0.63336 0.81551 0.0
C2884 C 0.96105 0.64407 0.81703 0.0
C2885 C 0.93986 0.63313 0.82579 0.0
C2886 C 0.94423 0.61269 0.83313 0.0
C2887 C 0.96963 0.60311 0.83152 0.0
C2888 C 0.99016 0.61302 0.82292 0.0
C2889 C 0.01645 0.60034 0.82321 0.0
C2890 C 0.00964 0.57418 0.81463 0.0
C2891 C 0.05431 0.63143 0.82289 0.0
C2892 C 0.00789 0.58227 0.83337 0.0
C2893 C 0.98059 0.5839 0.83801 0.0
C2894 C 0.96894 0.57028 0.84764 0.0
C2895 C 0.98593 0.55495 0.8527 0.0
C2896 C 0.01409 0.55345 0.8481 0.0
C2897 C 0.02504 0.56697 0.83831 0.0
H2898 H 0.45298 0.4859 0.83526 0.0
H2899 H 0.4331 0.444 0.8656 0.0
H2900 H 0.40101 0.38351 0.85877 0.0
H2901 H 0.37073 0.42651 0.82538 0.0
H2902 H 0.38628 0.4223 0.81318 0.0
H2903 H 0.41094 0.46203 0.82035 0.0
H2904 H 0.46621 0.45545 0.81936 0.0
H2905 H 0.44185 0.4159 0.81206 0.0
H2906 H 0.4636 0.41516 0.82349 0.0
H2907 H 0.3672 0.32839 0.84872 0.0
H2908 H 0.3358 0.28166 0.83607 0.0
H2909 H 0.37747 0.35928 0.81218 0.0
C2910 C 0.44267 0.46384 0.84041 0.0
C2911 C 0.44569 0.46917 0.85092 0.0
C2912 C 0.43119 0.44005 0.85751 0.0
C2913 C 0.41295 0.40577 0.8537 0.0
C2914 C 0.40966 0.40126 0.84329 0.0
C2915 C 0.42439 0.42945 0.83672 0.0
C2916 C 0.41543 0.41744 0.82588 0.0
C2917 C 0.39461 0.433 0.82091 0.0
C2918 C 0.44876 0.42652 0.81984 0.0
C2919 C 0.39276 0.37819 0.82739 0.0
C2920 C 0.38987 0.36942 0.83749 0.0
C2921 C 0.36933 0.33491 0.84079 0.0
C2922 C 0.35128 0.30865 0.83358 0.0
C2923 C 0.3537 0.31712 0.82321 0.0
C2924 C 0.37509 0.35224 0.82009 0.0
H2925 H 0.65419 0.90431 0.97876 0.0
H2926 H 0.62394 0.82369 0.00157 0.0
H2927 H 0.6482 0.8694 0.01483 0.0
H2928 H 0.73436 0.97091 0.99056 0.0
H2929 H 0.72752 0.00656 0.98695 0.0
H2930 H 0.71018 0.96768 0.97925 0.0
H2931 H 0.64795 0.95999 0.9807 0.0
H2932 H 0.66506 0.99873 0.98845 0.0
H2933 H 0.62949 0.95766 0.993 0.0
H2934 H 0.67463 0.92362 0.02554 0.0
H2935 H 0.70036 0.98277 0.03312 0.0
H2936 H 0.71006 0.02799 0.00344 0.0
C2937 C 0.65262 0.89637 0.98656 0.0
C2938 C 0.63728 0.8606 0.9892 0.0
C2939 C 0.63605 0.85108 0.99943 0.0
C2940 C 0.64957 0.8768 0.00699 0.0
C2941 C 0.66392 0.91185 0.00416 0.0
C2942 C 0.66548 0.92169 0.9942 0.0
C2943 C 0.68096 0.96104 0.99323 0.0
C2944 C 0.7153 0.97751 0.98714 0.0
C2945 C 0.65427 0.96986 0.98857 0.0
C2946 C 0.68775 0.97179 0.00421 0.0
C2947 C 0.67798 0.94302 0.01038 0.0
C2948 C 0.68222 0.94632 0.0208 0.0
C2949 C 0.69682 0.97994 0.02503 0.0
C2950 C 0.70649 0.00967 0.01887 0.0
C2951 C 0.70203 0.00552 0.00833 0.0
H2952 H 0.97716 0.72215 0.00413 0.0
H2953 H 0.00132 0.66524 0.0264 0.0
H2954 H 0.06261 0.69387 0.02025 0.0
H2955 H 0.02724 0.71421 0.98434 0.0
H2956 H 0.04145 0.7571 0.97912 0.0
H2957 H 0.00048 0.73434 0.98583 0.0
H2958 H 0.02126 0.78767 0.99781 0.0
H2959 H 0.0625 0.81044 0.99119 0.0
H2960 H 0.06196 0.8037 0.0046 0.0
H2961 H 0.11999 0.72661 0.01139 0.0
H2962 H 0.16887 0.75723 0.99932 0.0
H2963 H 0.10769 0.79198 0.98235 0.0
C2964 C 0.99554 0.716 0.00772 0.0
C2965 C 0.98474 0.6914 0.01567 0.0
C2966 C 0.00917 0.68367 0.0202 0.0
C2967 C 0.04402 0.70005 0.01682 0.0
C2968 C 0.05387 0.72404 0.00892 0.0
C2969 C 0.03033 0.73179 0.00435 0.0
C2970 C 0.04708 0.75662 0.99553 0.0
C2971 C 0.02792 0.73954 0.98562 0.0
C2972 C 0.04827 0.79169 0.9974 0.0
C2973 C 0.08359 0.76119 0.99575 0.0
C2974 C 0.08702 0.74259 0.00365 0.0
C2975 C 0.11773 0.74147 0.00522 0.0
C2976 C 0.1453 0.75895 0.99837 0.0
C2977 C 0.14188 0.77704 0.99003 0.0
C2978 C 0.11099 0.77882 0.9888 0.0
H2979 H 0.27155 0.38405 0.98618 0.0
H2980 H 0.17272 0.29014 0.97943 0.0
H2981 H 0.19082 0.255 0.98972 0.0
H2982 H 0.32564 0.342 0.98526 0.0
H2983 H 0.35365 0.36847 0.9954 0.0
H2984 H 0.33329 0.38585 0.98722 0.0
H2985 H 0.30585 0.39886 0.00273 0.0
H2986 H 0.32592 0.38139 0.01095 0.0
H2987 H 0.2791 0.3638 0.01133 0.0
H2988 H 0.21798 0.23109 0.00162 0.0
H2989 H 0.25364 0.21921 0.01367 0.0
H2990 H 0.33616 0.32819 0.01195 0.0
C2991 C 0.25409 0.35597 0.98665 0.0
C2992 C 0.22076 0.33971 0.98199 0.0
C2993 C 0.19821 0.30308 0.98303 0.0
C2994 C 0.20835 0.28292 0.98881 0.0
C2995 C 0.24128 0.29982 0.99339 0.0
C2996 C 0.26396 0.33545 0.9923 0.0
C2997 C 0.29756 0.34732 0.99819 0.0
C2998 C 0.32942 0.36176 0.99109 0.0
C2999 C 0.30237 0.37444 0.00628 0.0
C3000 C 0.29003 0.31286 0.00289 0.0
C3001 C 0.25738 0.28582 1.00003 0.0
C3002 C 0.24378 0.25192 0.0038 0.0
C3003 C 0.26412 0.24547 0.01066 0.0
C3004 C 0.29779 0.27266 0.01358 0.0
C3005 C 0.31089 0.30675 0.00963 0.0
H3006 H 0.03564 0.33317 0.52378 0.0
H3007 H 0.95212 0.2622 0.50381 0.0
H3008 H 0.99566 0.27313 0.49048 0.0
H3009 H 0.08753 0.39627 0.50519 0.0
H3010 H 0.12904 0.40527 0.51042 0.0
H3011 H 0.09141 0.39074 0.51851 0.0
H3012 H 0.09901 0.339 0.52468 0.0
H3013 H 0.13662 0.35333 0.51657 0.0
H3014 H 0.10019 0.30913 0.51559 0.0
H3015 H 0.04779 0.29424 0.47903 0.0
H3016 H 0.1054 0.32401 0.47032 0.0
H3017 H 0.15529 0.37989 0.49778 0.0
C3018 C 0.02667 0.31989 0.5166 0.0
C3019 C 0.99056 0.29762 0.51469 0.0
C3020 C 0.97963 0.28031 0.50528 0.0
C3021 C 0.00418 0.28605 0.49771 0.0
C3022 C 0.03958 0.30879 0.49973 0.0
C3023 C 0.05088 0.32535 0.50896 0.0
C3024 C 0.09037 0.34927 0.50909 0.0
C3025 C 0.10015 0.38766 0.51091 0.0
C3026 C 0.10755 0.33693 0.51695 0.0
C3027 C 0.09942 0.34392 0.49846 0.0
C3028 C 0.06975 0.32034 0.4932 0.0
C3029 C 0.07126 0.31239 0.4831 0.0
C3030 C 0.10393 0.32928 0.47822 0.0
C3031 C 0.13442 0.35358 0.48348 0.0
C3032 C 0.13224 0.36078 0.49372 0.0
H3033 H 0.61119 0.74638 0.49469 0.0
H3034 H 0.70616 0.83548 0.48307 0.0
H3035 H 0.74182 0.81599 0.49256 0.0
H3036 H 0.64281 0.7411 0.51916 0.0
H3037 H 0.62014 0.69379 0.51926 0.0
H3038 H 0.60245 0.71641 0.51222 0.0
H3039 H 0.6019 0.68309 0.49604 0.0
H3040 H 0.61966 0.6604 0.50303 0.0
H3041 H 0.6419 0.68508 0.49191 0.0
H3042 H 0.76679 0.78666 0.50343 0.0
H3043 H 0.77937 0.74804 0.51408 0.0
H3044 H 0.66785 0.6748 0.51697 0.0
C3045 C 0.63949 0.7617 0.49407 0.0
C3046 C 0.65596 0.79255 0.48818 0.0
C3047 C 0.69305 0.81215 0.48771 0.0
C3048 C 0.71347 0.80112 0.493 0.0
C3049 C 0.6963 0.77018 0.49859 0.0
C3050 C 0.66013 0.75059 0.49908 0.0
C3051 C 0.64803 0.71742 0.50519 0.0
C3052 C 0.62713 0.71719 0.51451 0.0
C3053 C 0.62661 0.68456 0.49865 0.0
C3054 C 0.68309 0.72143 0.50812 0.0
C3055 C 0.71061 0.75225 0.50433 0.0
C3056 C 0.74547 0.76233 0.50635 0.0
C3057 C 0.75236 0.74033 0.5124 0.0
C3058 C 0.72455 0.7084 0.51618 0.0
C3059 C 0.68952 0.6988 0.51398 0.0
H3060 H 0.25415 0.90375 0.47924 0.0
H3061 H 0.19526 0.82515 0.50196 0.0
H3062 H 0.21713 0.8714 0.51505 0.0
H3063 H 0.33046 0.95403 0.4946 0.0
H3064 H 0.3396 0.99585 0.48958 0.0
H3065 H 0.31756 0.95695 0.4819 0.0
H3066 H 0.26605 0.96869 0.47899 0.0
H3067 H 0.288 0.00771 0.48662 0.0
H3068 H 0.24392 0.97403 0.4897 0.0
H3069 H 0.24558 0.92592 0.5256 0.0
H3070 H 0.28013 0.98508 0.53308 0.0
H3071 H 0.32331 0.02794 0.50367 0.0
C3072 C 0.24595 0.8964 0.48699 0.0
C3073 C 0.22297 0.86104 0.48964 0.0
C3074 C 0.21252 0.85224 0.4998 0.0
C3075 C 0.22494 0.87825 0.50727 0.0
C3076 C 0.248 0.91285 0.50444 0.0
C3077 C 0.25853 0.92198 0.49455 0.0
C3078 C 0.28448 0.96091 0.49358 0.0
C3079 C 0.32014 0.9673 0.48968 0.0
C3080 C 0.26972 0.97889 0.48682 0.0
C3081 C 0.28688 0.97224 0.50447 0.0
C3082 C 0.26543 0.94413 0.51059 0.0
C3083 C 0.26262 0.9481 0.5209 0.0
C3084 C 0.28228 0.98172 0.52507 0.0
C3085 C 0.30479 0.01078 0.51898 0.0
C3086 C 0.30698 0.00596 0.50854 0.0
H3087 H 0.98034 0.35623 0.31331 0.0
H3088 H 0.92393 0.27601 0.33588 0.0
H3089 H 0.93643 0.32195 0.34852 0.0
H3090 H 0.04836 0.41652 0.32934 0.0
H3091 H 0.05115 0.45501 0.32363 0.0
H3092 H 0.03643 0.41567 0.3163 0.0
H3093 H 0.97922 0.41608 0.31188 0.0
H3094 H 0.99369 0.45533 0.31928 0.0
H3095 H 0.95191 0.41689 0.3219 0.0
H3096 H 0.95752 0.37667 0.3589 0.0
H3097 H 0.98712 0.43645 0.36631 0.0
H3098 H 0.0283 0.48089 0.33694 0.0
C3099 C 0.97048 0.34837 0.32091 0.0
C3100 C 0.95191 0.31259 0.32368 0.0
C3101 C 0.9393 0.30326 0.33367 0.0
C3102 C 0.94582 0.32918 0.34087 0.0
C3103 C 0.96465 0.36426 0.33792 0.0
C3104 C 0.97678 0.3739 0.32818 0.0
C3105 C 0.99748 0.41344 0.32705 0.0
C3106 C 0.03561 0.42588 0.3239 0.0
C3107 C 0.97949 0.42617 0.31958 0.0
C3108 C 0.99556 0.42455 0.33771 0.0
C3109 C 0.97627 0.39578 0.34386 0.0
C3110 C 0.97234 0.3994 0.35415 0.0
C3111 C 0.98914 0.43328 0.35828 0.0
C3112 C 0.00948 0.46286 0.35213 0.0
C3113 C 0.01223 0.45852 0.34171 0.0
H3114 H 0.5671 0.57484 0.3507 0.0
H3115 H 0.48149 0.53689 0.32924 0.0
H3116 H 0.52416 0.56237 0.31527 0.0
H3117 H 0.62202 0.65703 0.3386 0.0
H3118 H 0.66252 0.65771 0.3413 0.0
H3119 H 0.62543 0.63482 0.3496 0.0
H3120 H 0.62811 0.57767 0.3474 0.0
H3121 H 0.66541 0.60046 0.33916 0.0
H3122 H 0.627 0.56105 0.3349 0.0
H3123 H 0.57579 0.59384 0.30375 0.0
H3124 H 0.63312 0.62825 0.29532 0.0
H3125 H 0.68556 0.64553 0.32422 0.0
C3126 C 0.55747 0.5719 0.34305 0.0
C3127 C 0.5211 0.55386 0.341 0.0
C3128 C 0.50932 0.55024 0.33091 0.0
C3129 C 0.53332 0.56477 0.32295 0.0
C3130 C 0.56904 0.58285 0.32522 0.0
C3131 C 0.58114 0.58632 0.335 0.0
C3132 C 0.62091 0.60758 0.33536 0.0
C3133 C 0.63345 0.64129 0.34158 0.0
C3134 C 0.63626 0.58535 0.33944 0.0
C3135 C 0.6292 0.61581 0.32426 0.0
C3136 C 0.59888 0.60123 0.31856 0.0
C3137 C 0.59973 0.60536 0.30814 0.0
C3138 C 0.63244 0.62493 0.30342 0.0
C3139 C 0.66395 0.64035 0.3091 0.0
C3140 C 0.66214 0.63532 0.31966 0.0
H3141 H 0.32743 0.99777 0.32394 0.0
H3142 H 0.40838 0.10688 0.32097 0.0
H3143 H 0.44672 0.09672 0.33253 0.0
H3144 H 0.3421 0.98622 0.3502 0.0
H3145 H 0.33464 0.94242 0.34831 0.0
H3146 H 0.31299 0.95898 0.34035 0.0
H3147 H 0.33889 0.94564 0.3245 0.0
H3148 H 0.3604 0.92889 0.33242 0.0
H3149 H 0.38569 0.96362 0.32358 0.0
H3150 H 0.47589 0.07417 0.34452 0.0
H3151 H 0.4953 0.03994 0.35483 0.0
H3152 H 0.3967 0.94513 0.3486 0.0
C3153 C 0.35303 0.01958 0.32586 0.0
C3154 C 0.3649 0.05322 0.32176 0.0
C3155 C 0.39891 0.08097 0.32414 0.0
C3156 C 0.42071 0.07548 0.33071 0.0
C3157 C 0.40818 0.04196 0.33468 0.0
C3158 C 0.37527 0.0144 0.33225 0.0
C3159 C 0.36882 0.98043 0.337 0.0
C3160 C 0.3378 0.96618 0.3444 0.0
C3161 C 0.36313 0.95304 0.32889 0.0
C3162 C 0.40322 0.99314 0.34247 0.0
C3163 C 0.42546 0.02876 0.34117 0.0
C3164 C 0.45873 0.04624 0.34556 0.0
C3165 C 0.46958 0.02665 0.35136 0.0
C3166 C 0.44742 0.99 0.35256 0.0
C3167 C 0.41387 0.97323 0.34806 0.0
H3168 H 0.95385 0.13999 0.26874 0.0
H3169 H 0.94638 0.23313 0.27458 0.0
H3170 H 0.97848 0.25966 0.25876 0.0
H3171 H 0.04113 0.18543 0.25937 0.0
H3172 H 0.03421 0.15302 0.24996 0.0
H3173 H 0.00833 0.14007 0.26132 0.0
H3174 H 0.9511 0.11261 0.25075 0.0
H3175 H 0.97679 0.12502 0.23936 0.0
H3176 H 0.94512 0.13899 0.24143 0.0
H3177 H 0.01186 0.27621 0.24245 0.0
H3178 H 0.04391 0.28157 0.22666 0.0
H3179 H 0.03264 0.17904 0.23199 0.0
C3180 C 0.95832 0.16566 0.26658 0.0
C3181 C 0.94724 0.18436 0.2728 0.0
C3182 C 0.95444 0.21829 0.26987 0.0
C3183 C 0.97271 0.23358 0.26092 0.0
C3184 C 0.98395 0.21476 0.25507 0.0
C3185 C 0.97703 0.18155 0.25776 0.0
C3186 C 0.99331 0.16755 0.25037 0.0
C3187 C 0.02088 0.16115 0.25556 0.0
C3188 C 0.96488 0.13407 0.24517 0.0
C3189 C 0.01031 0.19802 0.24306 0.0
C3190 C 0.00446 0.22491 0.24589 0.0
C3191 C 0.01674 0.2554 0.24018 0.0
C3192 C 0.03496 0.25823 0.23124 0.0
C3193 C 0.04105 0.23089 0.22815 0.0
C3194 C 0.02893 0.20064 0.23424 0.0
H3195 H 0.74477 0.78938 0.23013 0.0
H3196 H 0.8408 0.8885 0.22501 0.0
H3197 H 0.86725 0.87803 0.23996 0.0
H3198 H 0.74878 0.79678 0.25804 0.0
H3199 H 0.7309 0.75025 0.25976 0.0
H3200 H 0.71875 0.76628 0.24888 0.0
H3201 H 0.73909 0.73233 0.23734 0.0
H3202 H 0.75213 0.71691 0.24818 0.0
H3203 H 0.78347 0.74059 0.23835 0.0
H3204 H 0.88609 0.85415 0.25401 0.0
H3205 H 0.89227 0.82485 0.26897 0.0
H3206 H 0.78298 0.743 0.26625 0.0
C3207 C 0.77106 0.80926 0.23228 0.0
C3208 C 0.79067 0.83974 0.22632 0.0
C3209 C 0.82506 0.86503 0.22942 0.0
C3210 C 0.84052 0.85919 0.23787 0.0
C3211 C 0.82111 0.82826 0.24329 0.0
C3212 C 0.78678 0.8042 0.24085 0.0
C3213 C 0.77171 0.7735 0.24817 0.0
C3214 C 0.7407 0.7716 0.25406 0.0
C3215 C 0.76097 0.73878 0.24268 0.0
C3216 C 0.8032 0.78391 0.25497 0.0
C3217 C 0.83152 0.81529 0.25186 0.0
C3218 C 0.86397 0.82982 0.25663 0.0
C3219 C 0.86728 0.81267 0.26508 0.0
C3220 C 0.8381 0.78155 0.26885 0.0
C3221 C 0.80578 0.76669 0.26357 0.0
H3222 H 0.13075 0.93792 0.23495 0.0
H3223 H 0.22742 0.93655 0.22962 0.0
H3224 H 0.25247 0.97044 0.24524 0.0
H3225 H 0.17061 0.02486 0.24344 0.0
H3226 H 0.13837 0.01748 0.25296 0.0
H3227 H 0.12598 0.98962 0.24201 0.0
H3228 H 0.10297 0.93446 0.25334 0.0
H3229 H 0.11449 0.96207 0.26434 0.0
H3230 H 0.13144 0.93257 0.26279 0.0
H3231 H 0.26866 0.00786 0.26061 0.0
H3232 H 0.27326 0.04204 0.27581 0.0
H3233 H 0.16675 0.02097 0.27108 0.0
C3234 C 0.15674 0.94373 0.23725 0.0
C3235 C 0.17701 0.9342 0.23114 0.0
C3236 C 0.21134 0.9433 0.23424 0.0
C3237 C 0.22586 0.96271 0.24307 0.0
C3238 C 0.20577 0.97298 0.24869 0.0
C3239 C 0.17181 0.96348 0.246 0.0
C3240 C 0.15655 0.97933 0.25315 0.0
C3241 C 0.14734 0.0043 0.24755 0.0
C3242 C 0.12447 0.95038 0.25874 0.0
C3243 C 0.18733 0.99935 0.26024 0.0
C3244 C 0.21541 0.99529 0.2575 0.0
C3245 C 0.24679 0.01108 0.26287 0.0
C3246 C 0.24919 0.0306 0.27147 0.0
C3247 C 0.22043 0.03433 0.27463 0.0
C3248 C 0.18935 0.01903 0.26879 0.0
H3249 H 0.961 0.74736 0.76754 0.0
H3250 H 0.95526 0.84224 0.77204 0.0
H3251 H 0.98995 0.86757 0.75665 0.0
H3252 H 0.04824 0.78803 0.75809 0.0
H3253 H 0.03964 0.75519 0.74866 0.0
H3254 H 0.01352 0.74339 0.75997 0.0
H3255 H 0.95667 0.71905 0.74934 0.0
H3256 H 0.98256 0.73011 0.738 0.0
H3257 H 0.95295 0.74671 0.73997 0.0
H3258 H 0.02887 0.8848 0.74169 0.0
H3259 H 0.06073 0.88909 0.72608 0.0
H3260 H 0.039 0.78202 0.73029 0.0
C3261 C 0.96658 0.77324 0.7652 0.0
C3262 C 0.95534 0.79276 0.77105 0.0
C3263 C 0.96326 0.82657 0.7677 0.0
C3264 C 0.98328 0.84139 0.759 0.0
C3265 C 0.99484 0.82196 0.75361 0.0
C3266 C 0.98612 0.78831 0.7564 0.0
C3267 C 0.00113 0.77286 0.749 0.0
C3268 C 0.02718 0.76437 0.75425 0.0
C3269 C 0.97157 0.74026 0.74377 0.0
C3270 C 0.01982 0.80326 0.74169 0.0
C3271 C 0.01625 0.83145 0.74462 0.0
C3272 C 0.03156 0.86278 0.73924 0.0
C3273 C 0.04987 0.865 0.73039 0.0
C3274 C 0.05237 0.83586 0.72687 0.0
C3275 C 0.03769 0.80481 0.73276 0.0
H3276 H 0.18149 0.13701 0.77063 0.0
H3277 H 0.2887 0.2222 0.77407 0.0
H3278 H 0.28335 0.24884 0.75826 0.0
H3279 H 0.18122 0.13213 0.74274 0.0
H3280 H 0.13668 0.12345 0.74188 0.0
H3281 H 0.15056 0.10912 0.75278 0.0
H3282 H 0.12975 0.14287 0.76425 0.0
H3283 H 0.11661 0.15801 0.75338 0.0
H3284 H 0.1472 0.18924 0.7623 0.0
H3285 H 0.26536 0.26812 0.74272 0.0
H3286 H 0.23706 0.2769 0.72781 0.0
H3287 H 0.14041 0.18085 0.73488 0.0
C3288 C 0.2042 0.16061 0.76786 0.0
C3289 C 0.23574 0.17727 0.77348 0.0
C3290 C 0.26447 0.20882 0.76981 0.0
C3291 C 0.26161 0.22423 0.76088 0.0
C3292 C 0.22973 0.20792 0.75573 0.0
C3293 C 0.20161 0.17665 0.75902 0.0
C3294 C 0.16968 0.16564 0.75238 0.0
C3295 C 0.15891 0.13051 0.74713 0.0
C3296 C 0.13901 0.16385 0.75844 0.0
C3297 C 0.18419 0.19575 0.74491 0.0
C3298 C 0.21893 0.21974 0.74696 0.0
C3299 C 0.23818 0.24949 0.74103 0.0
C3300 C 0.22183 0.25435 0.73261 0.0
C3301 C 0.18643 0.22979 0.73023 0.0
C3302 C 0.16727 0.20045 0.7366 0.0
H3303 H 0.85035 0.037 0.76826 0.0
H3304 H 0.75737 0.0458 0.77294 0.0
H3305 H 0.72923 0.00754 0.75823 0.0
H3306 H 0.84745 0.03533 0.74068 0.0
H3307 H 0.8622 0.00385 0.73984 0.0
H3308 H 0.87557 0.03385 0.75032 0.0
H3309 H 0.85082 0.98098 0.76261 0.0
H3310 H 0.83655 0.9508 0.75216 0.0
H3311 H 0.80543 0.94704 0.76162 0.0
H3312 H 0.71048 0.96702 0.74334 0.0
H3313 H 0.70449 0.93118 0.72834 0.0
H3314 H 0.80859 0.94661 0.73378 0.0
C3315 C 0.82443 0.03161 0.76604 0.0
C3316 C 0.80617 0.04466 0.7717 0.0
C3317 C 0.77193 0.03627 0.76868 0.0
C3318 C 0.75564 0.01439 0.76037 0.0
C3319 C 0.77383 0.0009 0.75519 0.0
C3320 C 0.8076 0.00947 0.75782 0.0
C3321 C 0.82104 0.99087 0.7511 0.0
C3322 C 0.85348 0.01756 0.74513 0.0
C3323 C 0.82892 0.96595 0.75724 0.0
C3324 C 0.78958 0.97059 0.74427 0.0
C3325 C 0.76261 0.97671 0.74678 0.0
C3326 C 0.73136 0.96192 0.74133 0.0
C3327 C 0.7281 0.94141 0.73286 0.0
C3328 C 0.75584 0.9357 0.72996 0.0
C3329 C 0.78657 0.94976 0.73593 0.0
H3330 H 0.61468 0.46941 0.59893 0.0
H3331 H 0.60153 0.55971 0.60383 0.0
H3332 H 0.6408 0.58997 0.58946 0.0
H3333 H 0.70447 0.51708 0.59351 0.0
H3334 H 0.70401 0.48793 0.58388 0.0
H3335 H 0.67166 0.47115 0.59378 0.0
H3336 H 0.62137 0.44665 0.58062 0.0
H3337 H 0.65356 0.46238 0.57068 0.0
H3338 H 0.62074 0.47548 0.57106 0.0
H3339 H 0.6845 0.6121 0.57549 0.0
H3340 H 0.72451 0.62209 0.56126 0.0
H3341 H 0.71125 0.51835 0.56568 0.0
C3342 C 0.61903 0.495 0.59673 0.0
C3343 C 0.60466 0.51206 0.60239 0.0
C3344 C 0.61196 0.54607 0.59951 0.0
C3345 C 0.63445 0.56356 0.59142 0.0
C3346 C 0.64957 0.54675 0.58631 0.0
C3347 C 0.64179 0.51304 0.58873 0.0
C3348 C 0.66272 0.50159 0.58226 0.0
C3349 C 0.68716 0.49399 0.58875 0.0
C3350 C 0.63813 0.46964 0.57577 0.0
C3351 C 0.68351 0.53417 0.57586 0.0
C3352 C 0.67556 0.5599 0.57837 0.0
C3353 C 0.69088 0.59213 0.57343 0.0
C3354 C 0.71378 0.59766 0.56541 0.0
C3355 C 0.72126 0.57116 0.56242 0.0
C3356 C 0.70664 0.53939 0.56792 0.0
H3357 H 0.52619 0.15189 0.6035 0.0
H3358 H 0.44125 0.04439 0.60675 0.0
H3359 H 0.41423 0.05028 0.5911 0.0
H3360 H 0.47399 0.18659 0.59541 0.0
H3361 H 0.50521 0.21725 0.5865 0.0
H3362 H 0.52035 0.20385 0.59732 0.0
H3363 H 0.55385 0.183 0.58575 0.0
H3364 H 0.53958 0.19717 0.57491 0.0
H3365 H 0.5307 0.15255 0.57569 0.0
H3366 H 0.39463 0.06884 0.57568 0.0
H3367 H 0.38631 0.09739 0.56074 0.0
H3368 H 0.48264 0.19362 0.56794 0.0
C3369 C 0.50251 0.12925 0.60075 0.0
C3370 C 0.48604 0.09752 0.60629 0.0
C3371 C 0.45447 0.06884 0.60259 0.0
C3372 C 0.43882 0.07199 0.59374 0.0
C3373 C 0.45496 0.10406 0.5887 0.0
C3374 C 0.4863 0.13207 0.59199 0.0
C3375 C 0.49738 0.16411 0.58541 0.0
C3376 C 0.49934 0.19475 0.59153 0.0
C3377 C 0.53245 0.17483 0.58012 0.0
C3378 C 0.46724 0.14979 0.57795 0.0
C3379 C 0.4431 0.11508 0.57997 0.0
C3380 C 0.41336 0.09601 0.57402 0.0
C3381 C 0.40875 0.11251 0.56558 0.0
C3382 C 0.43359 0.14784 0.56322 0.0
C3383 C 0.4628 0.16682 0.56964 0.0
H3384 H 0.9243 0.37177 0.60254 0.0
H3385 H 0.82684 0.37144 0.60824 0.0
H3386 H 0.80066 0.33521 0.59319 0.0
H3387 H 0.92023 0.37909 0.57509 0.0
H3388 H 0.93903 0.35169 0.57251 0.0
H3389 H 0.95038 0.37721 0.58394 0.0
H3390 H 0.93062 0.32057 0.59436 0.0
H3391 H 0.91862 0.2948 0.58297 0.0
H3392 H 0.88668 0.28407 0.59284 0.0
H3393 H 0.78313 0.29616 0.57846 0.0
H3394 H 0.77833 0.26575 0.56256 0.0
H3395 H 0.88808 0.29431 0.5649 0.0
C3396 C 0.89761 0.36437 0.60053 0.0
C3397 C 0.8777 0.37456 0.6066 0.0
C3398 C 0.84285 0.36438 0.6037 0.0
C3399 C 0.82752 0.34341 0.59521 0.0
C3400 C 0.84746 0.33321 0.58953 0.0
C3401 C 0.88201 0.34402 0.59186 0.0
C3402 C 0.89783 0.33069 0.58403 0.0
C3403 C 0.92869 0.3615 0.57857 0.0
C3404 C 0.9091 0.30607 0.58884 0.0
C3405 C 0.86664 0.31067 0.57702 0.0
C3406 C 0.83776 0.31199 0.58052 0.0
C3407 C 0.80563 0.29522 0.57556 0.0
C3408 C 0.80318 0.27777 0.56653 0.0
C3409 C 0.83286 0.27768 0.56237 0.0
C3410 C 0.86487 0.29378 0.56785 0.0
H3411 H 0.71322 0.1946 0.06688 0.0
H3412 H 0.72222 0.10214 0.06142 0.0
H3413 H 0.68473 0.07325 0.07625 0.0
H3414 H 0.71171 0.19061 0.09451 0.0
H3415 H 0.67984 0.20482 0.09545 0.0
H3416 H 0.70997 0.21897 0.085 0.0
H3417 H 0.6572 0.19428 0.07265 0.0
H3418 H 0.62689 0.17921 0.08307 0.0
H3419 H 0.62364 0.14872 0.07347 0.0
H3420 H 0.64486 0.05381 0.09131 0.0
H3421 H 0.60865 0.04669 0.10633 0.0
H3422 H 0.62269 0.15044 0.10133 0.0
C3423 C 0.7082 0.1687 0.06898 0.0
C3424 C 0.7211 0.15079 0.06309 0.0
C3425 C 0.71293 0.11645 0.0659 0.0
C3426 C 0.69149 0.09977 0.07426 0.0
C3427 C 0.67811 0.11764 0.07967 0.0
C3428 C 0.68637 0.15145 0.07721 0.0
C3429 C 0.66743 0.16429 0.08402 0.0
C3430 C 0.69381 0.19657 0.09011 0.0
C3431 C 0.64231 0.17208 0.07794 0.0
C3432 C 0.64736 0.13246 0.09073 0.0
C3433 C 0.6539 0.10585 0.08809 0.0
C3434 C 0.63941 0.07438 0.09342 0.0
C3435 C 0.61871 0.07048 0.10189 0.0
C3436 C 0.6124 0.09775 0.10489 0.0
C3437 C 0.62626 0.12876 0.09907 0.0
H3438 H 0.80531 0.52406 0.06548 0.0
H3439 H 0.8987 0.62374 0.05901 0.0
H3440 H 0.92868 0.61502 0.07358 0.0
H3441 H 0.81247 0.52752 0.09298 0.0
H3442 H 0.79733 0.48125 0.09399 0.0
H3443 H 0.78262 0.49742 0.08371 0.0
H3444 H 0.8048 0.46787 0.07106 0.0
H3445 H 0.82037 0.45235 0.08129 0.0
H3446 H 0.85011 0.47878 0.07144 0.0
H3447 H 0.94865 0.59467 0.08866 0.0
H3448 H 0.95644 0.56527 0.10351 0.0
H3449 H 0.85153 0.4768 0.0992 0.0
C3450 C 0.8317 0.54458 0.06731 0.0
C3451 C 0.84949 0.57495 0.06124 0.0
C3452 C 0.88447 0.60055 0.06366 0.0
C3453 C 0.90174 0.5957 0.07187 0.0
C3454 C 0.88382 0.56487 0.07748 0.0
C3455 C 0.84953 0.53981 0.07533 0.0
C3456 C 0.83674 0.5082 0.08219 0.0
C3457 C 0.80545 0.50333 0.0886 0.0
C3458 C 0.82747 0.47484 0.07613 0.0
C3459 C 0.86915 0.51946 0.0886 0.0
C3460 C 0.89597 0.55229 0.08578 0.0
C3461 C 0.92794 0.56886 0.09088 0.0
C3462 C 0.93221 0.5519 0.09926 0.0
C3463 C 0.90486 0.51852 0.10237 0.0
C3464 C 0.87325 0.50185 0.09681 0.0
H3465 H 0.47328 0.27645 0.06859 0.0
H3466 H 0.37542 0.27419 0.06217 0.0
H3467 H 0.38453 0.31153 0.07707 0.0
H3468 H 0.46777 0.27698 0.09625 0.0
H3469 H 0.51423 0.30673 0.09763 0.0
H3470 H 0.49802 0.27708 0.08706 0.0
H3471 H 0.53002 0.33001 0.07491 0.0
H3472 H 0.54563 0.3599 0.08543 0.0
H3473 H 0.52069 0.36548 0.07555 0.0
H3474 H 0.4053 0.3508 0.09227 0.0
H3475 H 0.43466 0.38661 0.10732 0.0
H3476 H 0.52075 0.36624 0.10328 0.0
C3477 C 0.45323 0.28292 0.07049 0.0
C3478 C 0.42332 0.27194 0.0643 0.0
C3479 C 0.3983 0.28197 0.06686 0.0
C3480 C 0.40336 0.30333 0.07528 0.0
C3481 C 0.43374 0.31474 0.081 0.0
C3482 C 0.45814 0.30468 0.07877 0.0
C3483 C 0.4893 0.32184 0.08587 0.0
C3484 C 0.4925 0.294 0.09207 0.0
C3485 C 0.52342 0.34572 0.08009 0.0
C3486 C 0.47863 0.34315 0.09244 0.0
C3487 C 0.44644 0.33858 0.08951 0.0
C3488 C 0.43057 0.35467 0.09461 0.0
C3489 C 0.44752 0.37512 0.10311 0.0
C3490 C 0.48021 0.37964 0.10637 0.0
C3491 C 0.49622 0.36398 0.10082 0.0
H3492 H 0.29103 0.87628 0.93617 0.0
H3493 H 0.29459 0.78092 0.94215 0.0
H3494 H 0.3324 0.79247 0.92741 0.0
H3495 H 0.28655 0.86566 0.90875 0.0
H3496 H 0.31299 0.91207 0.90632 0.0
H3497 H 0.28652 0.89689 0.91755 0.0
H3498 H 0.34191 0.93482 0.92837 0.0
H3499 H 0.36864 0.94955 0.91717 0.0
H3500 H 0.37941 0.92882 0.92717 0.0
H3501 H 0.37239 0.81518 0.91287 0.0
H3502 H 0.40314 0.8415 0.89705 0.0
H3503 H 0.37125 0.92028 0.89914 0.0
C3504 C 0.29945 0.85767 0.93429 0.0
C3505 C 0.28972 0.82768 0.94036 0.0
C3506 C 0.30128 0.80392 0.93762 0.0
C3507 C 0.32317 0.81042 0.9293 0.0
C3508 C 0.33296 0.8405 0.92364 0.0
C3509 C 0.32083 0.86331 0.92581 0.0
C3510 C 0.33403 0.89261 0.91804 0.0
C3511 C 0.30319 0.89174 0.91233 0.0
C3512 C 0.35738 0.92858 0.92299 0.0
C3513 C 0.3554 0.88253 0.91123 0.0
C3514 C 0.35491 0.85279 0.91478 0.0
C3515 C 0.37275 0.83832 0.90994 0.0
C3516 C 0.39037 0.85368 0.90095 0.0
C3517 C 0.38956 0.88293 0.89675 0.0
C3518 C 0.37252 0.89804 0.90214 0.0
H3519 H 0.14515 0.52392 0.8989 0.0
H3520 H 0.04057 0.4352 0.89428 0.0
H3521 H 0.04804 0.40565 0.90913 0.0
H3522 H 0.18452 0.47402 0.90515 0.0
H3523 H 0.21386 0.50385 0.91456 0.0
H3524 H 0.19917 0.52025 0.90434 0.0
H3525 H 0.17515 0.54796 0.91701 0.0
H3526 H 0.19052 0.53237 0.92728 0.0
H3527 H 0.14509 0.52095 0.92673 0.0
H3528 H 0.06778 0.38467 0.92399 0.0
H3529 H 0.09751 0.37489 0.9384 0.0
H3530 H 0.19073 0.47548 0.93267 0.0
C3531 C 0.12342 0.4988 0.90122 0.0
C3532 C 0.09201 0.48207 0.89556 0.0
C3533 C 0.06464 0.44862 0.8986 0.0
C3534 C 0.06873 0.43157 0.90698 0.0
C3535 C 0.1005 0.44817 0.91218 0.0
C3536 C 0.1273 0.48113 0.90948 0.0
C3537 C 0.1595 0.49229 0.916 0.0
C3538 C 0.19112 0.49793 0.90963 0.0
C3539 C 0.16806 0.52534 0.92212 0.0
C3540 C 0.14666 0.46039 0.92275 0.0
C3541 C 0.11248 0.43534 0.92046 0.0
C3542 C 0.09458 0.40404 0.92584 0.0
C3543 C 0.11172 0.39861 0.93397 0.0
C3544 C 0.14657 0.42414 0.93655 0.0
C3545 C 0.1644 0.45511 0.93072 0.0
H3546 H 0.51881 0.72657 0.93205 0.0
H3547 H 0.62712 0.75205 0.93538 0.0
H3548 H 0.623 0.72137 0.91941 0.0
H3549 H 0.48741 0.64131 0.92364 0.0
H3550 H 0.45605 0.64052 0.91475 0.0
H3551 H 0.46845 0.66893 0.92558 0.0
H3552 H 0.48735 0.72303 0.91406 0.0
H3553 H 0.47415 0.69468 0.90319 0.0
H3554 H 0.51812 0.7316 0.90398 0.0
H3555 H 0.60568 0.68329 0.90417 0.0
H3556 H 0.57792 0.64443 0.8896 0.0
H3557 H 0.47984 0.64155 0.89631 0.0
C3558 C 0.54205 0.72693 0.92919 0.0
C3559 C 0.57354 0.74227 0.93483 0.0
C3560 C 0.60297 0.74092 0.93108 0.0
C3561 C 0.6008 0.72338 0.92206 0.0
C3562 C 0.56892 0.70712 0.91691 0.0
C3563 C 0.54016 0.70906 0.92025 0.0
C3564 C 0.50833 0.68718 0.91366 0.0
C3565 C 0.4783 0.65775 0.91978 0.0
C3566 C 0.49629 0.71052 0.90841 0.0
C3567 C 0.52362 0.67237 0.90618 0.0
C3568 C 0.55862 0.68431 0.9082 0.0
C3569 C 0.57838 0.67402 0.90245 0.0
C3570 C 0.56227 0.65176 0.89421 0.0
C3571 C 0.52665 0.63983 0.89179 0.0
C3572 C 0.507 0.64992 0.89799 0.0
H3573 H 0.38205 0.5299 0.39803 0.0
H3574 H 0.39219 0.43814 0.39252 0.0
H3575 H 0.35843 0.41059 0.40803 0.0
H3576 H 0.38632 0.52903 0.42576 0.0
H3577 H 0.35383 0.54225 0.42723 0.0
H3578 H 0.38185 0.55596 0.41629 0.0
H3579 H 0.32679 0.52893 0.40482 0.0
H3580 H 0.2986 0.51443 0.41572 0.0
H3581 H 0.2942 0.48321 0.40621 0.0
H3582 H 0.3214 0.3919 0.42363 0.0
H3583 H 0.28632 0.38456 0.4389 0.0
H3584 H 0.29735 0.48712 0.43385 0.0
C3585 C 0.37812 0.50449 0.40027 0.0
C3586 C 0.39027 0.48637 0.39418 0.0
C3587 C 0.38349 0.45262 0.39716 0.0
C3588 C 0.36419 0.43671 0.40591 0.0
C3589 C 0.35149 0.45472 0.41156 0.0
C3590 C 0.35837 0.48796 0.40891 0.0
C3591 C 0.34016 0.50081 0.41602 0.0
C3592 C 0.36715 0.53397 0.42166 0.0
C3593 C 0.31335 0.50722 0.41035 0.0
C3594 C 0.32201 0.46961 0.42307 0.0
C3595 C 0.32898 0.44336 0.42036 0.0
C3596 C 0.31575 0.41226 0.42583 0.0
C3597 C 0.2957 0.40827 0.43446 0.0
C3598 C 0.28877 0.43508 0.43752 0.0
C3599 C 0.3016 0.46586 0.43161 0.0
H3600 H 0.51738 0.92241 0.40561 0.0
H3601 H 0.51322 0.84336 0.38525 0.0
H3602 H 0.53538 0.82072 0.39872 0.0
H3603 H 0.59805 0.93999 0.41837 0.0
H3604 H 0.58372 0.94579 0.43058 0.0
H3605 H 0.56767 0.9561 0.41934 0.0
H3606 H 0.50357 0.91374 0.42493 0.0
H3607 H 0.51944 0.90356 0.43622 0.0
H3608 H 0.49026 0.86877 0.42788 0.0
H3609 H 0.55415 0.80422 0.41457 0.0
H3610 H 0.57012 0.79606 0.43186 0.0
H3611 H 0.56652 0.88824 0.44171 0.0
C3612 C 0.52125 0.90041 0.40406 0.0
C3613 C 0.51364 0.88441 0.39448 0.0
C3614 C 0.51902 0.85579 0.3926 0.0
C3615 C 0.53161 0.84283 0.40017 0.0
C3616 C 0.53911 0.85913 0.40956 0.0
C3617 C 0.53434 0.88739 0.41154 0.0
C3618 C 0.54431 0.8998 0.42232 0.0
C3619 C 0.57529 0.93767 0.42267 0.0
C3620 C 0.5125 0.89624 0.42818 0.0
C3621 C 0.55502 0.87392 0.42608 0.0
C3622 C 0.55163 0.85057 0.4186 0.0
C3623 C 0.55751 0.82269 0.42046 0.0
C3624 C 0.5666 0.81827 0.43026 0.0
C3625 C 0.57031 0.84195 0.43802 0.0
C3626 C 0.56495 0.8704 0.43583 0.0
H3627 H 0.1968 0.72184 0.43289 0.0
H3628 H 0.11144 0.74326 0.43689 0.0
H3629 H 0.08275 0.70897 0.42154 0.0
H3630 H 0.19706 0.72125 0.40481 0.0
H3631 H 0.20602 0.68551 0.40439 0.0
H3632 H 0.2221 0.7161 0.41475 0.0
H3633 H 0.19097 0.66408 0.42723 0.0
H3634 H 0.17395 0.63342 0.41692 0.0
H3635 H 0.14436 0.63458 0.42611 0.0
H3636 H 0.06117 0.66873 0.40662 0.0
H3637 H 0.05012 0.62853 0.39232 0.0
H3638 H 0.14775 0.63022 0.39869 0.0
C3639 C 0.17282 0.72052 0.43029 0.0
C3640 C 0.15664 0.7358 0.43593 0.0
C3641 C 0.12448 0.73222 0.43256 0.0
C3642 C 0.10792 0.71262 0.4239 0.0
C3643 C 0.12371 0.6965 0.41877 0.0
C3644 C 0.15563 0.70051 0.42176 0.0
C3645 C 0.16569 0.67836 0.41535 0.0
C3646 C 0.19973 0.70169 0.40948 0.0
C3647 C 0.16892 0.651 0.42179 0.0
C3648 C 0.13427 0.661 0.40837 0.0
C3649 C 0.11048 0.672 0.41044 0.0
C3650 C 0.07963 0.65998 0.40491 0.0
C3651 C 0.07346 0.63697 0.39686 0.0
C3652 C 0.09783 0.6259 0.39447 0.0
C3653 C 0.12827 0.63761 0.40045 0.0
loop_
_geom_bond_atom_site_label_1
_geom_bond_atom_site_label_2
_geom_bond_distance
_geom_bond_site_symmetry_2
_ccdc_geom_bond_type
Co0 O3 1.970 . S
Co0 N17 1.989 . S
Co0 O25 1.967 . S
Co0 O32 1.920 . S
Co1 O4 1.966 . S
Co1 N10 2.022 . S
Co1 N18 1.993 . S
Co1 O26 1.941 . S
C2 O3 1.258 . S
C2 O4 1.263 . S
O3 Co0 1.970 . S
O3 C2 1.258 . S
O4 Co1 1.966 . S
O4 C2 1.263 . S
C5 O6 1.235 . S
C5 O32 1.289 . S
O6 C5 1.235 . S
C7 C9 1.400 . S
C7 N10 1.351 . S
C7 C12 1.501 . S
C8 C9 1.387 . S
C8 N11 1.341 . S
C9 C7 1.400 . S
C9 C8 1.387 . S
N10 Co1 2.022 . S
N10 C7 1.351 . S
N10 N11 1.365 . S
N11 C8 1.341 . S
N11 N10 1.365 . S
N11 H31 0.862 . S
C12 C7 1.501 . S
C12 H13 0.961 . S
C12 H14 0.961 . S
C12 H15 0.960 1_455 S
H13 C12 0.961 . S
H14 C12 0.961 . S
H15 C12 0.960 1_655 S
C16 N17 1.342 . S
C16 C20 1.401 . S
C16 C21 1.499 . S
N17 Co0 1.989 . S
N17 C16 1.342 . S
N17 N18 1.388 . S
N18 Co1 1.993 . S
N18 N17 1.388 . S
N18 C19 1.346 . S
C19 N18 1.346 . S
C19 C20 1.396 . S
C19 C29 1.510 . S
C20 C16 1.401 . S
C20 C19 1.396 . S
C21 C16 1.499 . S
C21 H22 0.959 . S
C21 H23 0.960 . S
C21 H24 0.961 . S
H22 C21 0.959 . S
H23 C21 0.960 . S
H24 C21 0.961 . S
O25 Co0 1.967 . S
O25 C33 1.258 . S
O26 Co1 1.941 . S
O26 C33 1.266 . S
H27 C29 0.959 . S
H28 C29 0.961 . S
C29 C19 1.510 . S
C29 H27 0.959 . S
C29 H28 0.961 . S
C29 H30 0.960 . S
H30 C29 0.960 . S
H31 N11 0.862 . S
O32 Co0 1.920 . S
O32 C5 1.289 . S
C33 O25 1.258 . S
C33 O26 1.266 . S
Co34 O37 1.970 . S
Co34 N51 1.989 . S
Co34 O59 1.967 . S
Co34 O66 1.920 . S
Co35 O38 1.966 . S
Co35 N44 2.022 . S
Co35 N52 1.993 . S
Co35 O60 1.941 . S
C36 O37 1.258 . S
C36 O38 1.263 . S
O37 Co34 1.970 . S
O37 C36 1.258 . S
O38 Co35 1.966 . S
O38 C36 1.263 . S
C39 O40 1.235 . S
C39 O66 1.289 . S
O40 C39 1.235 . S
C41 C43 1.400 . S
C41 N44 1.351 . S
C41 C46 1.501 . S
C42 C43 1.387 . S
C42 N45 1.341 . S
C43 C41 1.400 . S
C43 C42 1.387 . S
N44 Co35 2.022 . S
N44 C41 1.351 . S
N44 N45 1.365 . S
N45 C42 1.341 . S
N45 N44 1.365 . S
N45 H65 0.862 . S
C46 C41 1.501 . S
C46 H47 0.961 . S
C46 H48 0.961 . S
C46 H49 0.960 . S
H47 C46 0.961 . S
H48 C46 0.961 . S
H49 C46 0.960 . S
C50 N51 1.342 . S
C50 C54 1.401 . S
C50 C55 1.499 . S
N51 Co34 1.989 . S
N51 C50 1.342 . S
N51 N52 1.388 . S
N52 Co35 1.993 . S
N52 N51 1.388 . S
N52 C53 1.346 . S
C53 N52 1.346 . S
C53 C54 1.396 . S
C53 C63 1.510 . S
C54 C50 1.401 . S
C54 C53 1.396 . S
C55 C50 1.499 . S
C55 H56 0.959 . S
C55 H57 0.960 . S
C55 H58 0.961 . S
H56 C55 0.959 . S
H57 C55 0.960 . S
H58 C55 0.961 . S
O59 Co34 1.967 . S
O59 C67 1.258 . S
O60 Co35 1.941 . S
O60 C67 1.266 . S
H61 C63 0.959 . S
H62 C63 0.961 . S
C63 C53 1.510 . S
C63 H61 0.959 . S
C63 H62 0.961 . S
C63 H64 0.960 . S
H64 C63 0.960 . S
H65 N45 0.862 . S
O66 Co34 1.920 . S
O66 C39 1.289 . S
C67 O59 1.258 . S
C67 O60 1.266 . S
Co68 O71 1.970 . S
Co68 N85 1.989 . S
Co68 O93 1.967 . S
Co68 O100 1.920 . S
Co69 O72 1.966 . S
Co69 N78 2.022 . S
Co69 N86 1.993 . S
Co69 O94 1.941 . S
C70 O71 1.258 . S
C70 O72 1.263 . S
O71 Co68 1.970 . S
O71 C70 1.258 . S
O72 Co69 1.966 . S
O72 C70 1.263 . S
C73 O74 1.235 . S
C73 O100 1.289 . S
O74 C73 1.235 . S
C75 C77 1.400 . S
C75 N78 1.351 . S
C75 C80 1.501 . S
C76 C77 1.387 . S
C76 N79 1.341 . S
C77 C75 1.400 . S
C77 C76 1.387 . S
N78 Co69 2.022 . S
N78 C75 1.351 . S
N78 N79 1.365 . S
N79 C76 1.341 . S
N79 N78 1.365 . S
N79 H99 0.862 . S
C80 C75 1.501 . S
C80 H81 0.961 . S
C80 H82 0.961 . S
C80 H83 0.960 1_565 S
H81 C80 0.961 . S
H82 C80 0.961 . S
H83 C80 0.960 1_545 S
C84 N85 1.342 . S
C84 C88 1.401 . S
C84 C89 1.499 . S
N85 Co68 1.989 . S
N85 C84 1.342 . S
N85 N86 1.388 . S
N86 Co69 1.993 . S
N86 N85 1.388 . S
N86 C87 1.346 . S
C87 N86 1.346 . S
C87 C88 1.396 . S
C87 C97 1.510 . S
C88 C84 1.401 . S
C88 C87 1.396 . S
C89 C84 1.499 . S
C89 H90 0.959 . S
C89 H91 0.960 . S
C89 H92 0.961 . S
H90 C89 0.959 . S
H91 C89 0.960 . S
H92 C89 0.961 . S
O93 Co68 1.967 . S
O93 C101 1.258 . S
O94 Co69 1.941 . S
O94 C101 1.266 . S
H95 C97 0.959 . S
H96 C97 0.961 . S
C97 C87 1.510 . S
C97 H95 0.959 . S
C97 H96 0.961 . S
C97 H98 0.960 . S
H98 C97 0.960 . S
H99 N79 0.862 . S
O100 Co68 1.920 . S
O100 C73 1.289 . S
C101 O93 1.258 . S
C101 O94 1.266 . S
Co102 O105 1.970 . S
Co102 N119 1.989 . S
Co102 O127 1.967 . S
Co102 O134 1.920 . S
Co103 O106 1.966 . S
Co103 N112 2.022 . S
Co103 N120 1.993 . S
Co103 O128 1.941 . S
C104 O105 1.258 . S
C104 O106 1.263 . S
O105 Co102 1.970 . S
O105 C104 1.258 . S
O106 Co103 1.966 . S
O106 C104 1.263 . S
C107 O108 1.235 . S
C107 O134 1.289 . S
O108 C107 1.235 . S
C109 C111 1.400 . S
C109 N112 1.351 . S
C109 C114 1.501 . S
C110 C111 1.387 . S
C110 N113 1.341 . S
C111 C109 1.400 . S
C111 C110 1.387 . S
N112 Co103 2.022 . S
N112 C109 1.351 . S
N112 N113 1.365 . S
N113 C110 1.341 . S
N113 N112 1.365 . S
N113 H133 0.862 . S
C114 C109 1.501 . S
C114 H115 0.961 . S
C114 H116 0.961 . S
C114 H117 0.960 1_545 S
H115 C114 0.961 . S
H116 C114 0.961 . S
H117 C114 0.960 1_565 S
C118 N119 1.342 . S
C118 C122 1.401 . S
C118 C123 1.499 . S
N119 Co102 1.989 . S
N119 C118 1.342 . S
N119 N120 1.388 . S
N120 Co103 1.993 . S
N120 N119 1.388 . S
N120 C121 1.346 . S
C121 N120 1.346 . S
C121 C122 1.396 . S
C121 C131 1.510 . S
C122 C118 1.401 . S
C122 C121 1.396 . S
C123 C118 1.499 . S
C123 H124 0.959 . S
C123 H125 0.960 . S
C123 H126 0.961 . S
H124 C123 0.959 . S
H125 C123 0.960 . S
H126 C123 0.961 . S
O127 Co102 1.967 . S
O127 C135 1.258 . S
O128 Co103 1.941 . S
O128 C135 1.266 . S
H129 C131 0.959 . S
H130 C131 0.961 . S
C131 C121 1.510 . S
C131 H129 0.959 . S
C131 H130 0.961 . S
C131 H132 0.960 . S
H132 C131 0.960 . S
H133 N113 0.862 . S
O134 Co102 1.920 . S
O134 C107 1.289 . S
C135 O127 1.258 . S
C135 O128 1.266 . S
Co136 O139 1.970 . S
Co136 N153 1.989 . S
Co136 O161 1.967 . S
Co136 O168 1.920 . S
Co137 O140 1.966 . S
Co137 N146 2.022 . S
Co137 N154 1.993 . S
Co137 O162 1.941 . S
C138 O139 1.258 . S
C138 O140 1.263 . S
O139 Co136 1.970 . S
O139 C138 1.258 . S
O140 Co137 1.966 . S
O140 C138 1.263 . S
C141 O142 1.235 . S
C141 O168 1.289 . S
O142 C141 1.235 . S
C143 C145 1.400 . S
C143 N146 1.351 . S
C143 C148 1.501 . S
C144 C145 1.387 . S
C144 N147 1.341 . S
C145 C143 1.400 . S
C145 C144 1.387 . S
N146 Co137 2.022 . S
N146 C143 1.351 . S
N146 N147 1.365 . S
N147 C144 1.341 . S
N147 N146 1.365 . S
N147 H167 0.862 . S
C148 C143 1.501 . S
C148 H149 0.961 . S
C148 H150 0.961 . S
C148 H151 0.960 1_655 S
H149 C148 0.961 . S
H150 C148 0.961 . S
H151 C148 0.960 1_455 S
C152 N153 1.342 . S
C152 C156 1.401 . S
C152 C157 1.499 . S
N153 Co136 1.989 . S
N153 C152 1.342 . S
N153 N154 1.388 . S
N154 Co137 1.993 . S
N154 N153 1.388 . S
N154 C155 1.346 . S
C155 N154 1.346 . S
C155 C156 1.396 . S
C155 C165 1.510 . S
C156 C152 1.401 . S
C156 C155 1.396 . S
C157 C152 1.499 . S
C157 H158 0.959 . S
C157 H159 0.960 . S
C157 H160 0.961 . S
H158 C157 0.959 . S
H159 C157 0.960 . S
H160 C157 0.961 . S
O161 Co136 1.967 . S
O161 C169 1.258 . S
O162 Co137 1.941 . S
O162 C169 1.266 . S
H163 C165 0.959 . S
H164 C165 0.961 . S
C165 C155 1.510 . S
C165 H163 0.959 . S
C165 H164 0.961 . S
C165 H166 0.960 . S
H166 C165 0.960 . S
H167 N147 0.862 . S
O168 Co136 1.920 . S
O168 C141 1.289 . S
C169 O161 1.258 . S
C169 O162 1.266 . S
Co170 O173 1.970 . S
Co170 N187 1.989 . S
Co170 O195 1.967 . S
Co170 O202 1.920 . S
Co171 O174 1.966 . S
Co171 N180 2.022 . S
Co171 N188 1.993 . S
Co171 O196 1.941 . S
C172 O173 1.258 . S
C172 O174 1.263 . S
O173 Co170 1.970 . S
O173 C172 1.258 . S
O174 Co171 1.966 . S
O174 C172 1.263 . S
C175 O176 1.235 . S
C175 O202 1.289 . S
O176 C175 1.235 . S
C177 C179 1.400 . S
C177 N180 1.351 . S
C177 C182 1.501 . S
C178 C179 1.387 . S
C178 N181 1.341 . S
C179 C177 1.400 . S
C179 C178 1.387 . S
N180 Co171 2.022 . S
N180 C177 1.351 . S
N180 N181 1.365 . S
N181 C178 1.341 . S
N181 N180 1.365 . S
N181 H201 0.862 . S
C182 C177 1.501 . S
C182 H183 0.961 . S
C182 H184 0.961 . S
C182 H185 0.960 . S
H183 C182 0.961 . S
H184 C182 0.961 . S
H185 C182 0.960 . S
C186 N187 1.342 . S
C186 C190 1.401 . S
C186 C191 1.499 . S
N187 Co170 1.989 . S
N187 C186 1.342 . S
N187 N188 1.388 . S
N188 Co171 1.993 . S
N188 N187 1.388 . S
N188 C189 1.346 . S
C189 N188 1.346 . S
C189 C190 1.396 . S
C189 C199 1.510 . S
C190 C186 1.401 . S
C190 C189 1.396 . S
C191 C186 1.499 . S
C191 H192 0.959 . S
C191 H193 0.960 . S
C191 H194 0.961 . S
H192 C191 0.959 . S
H193 C191 0.960 . S
H194 C191 0.961 . S
O195 Co170 1.967 . S
O195 C203 1.258 . S
O196 Co171 1.941 . S
O196 C203 1.266 . S
H197 C199 0.959 . S
H198 C199 0.961 . S
C199 C189 1.510 . S
C199 H197 0.959 . S
C199 H198 0.961 . S
C199 H200 0.960 . S
H200 C199 0.960 . S
H201 N181 0.862 . S
O202 Co170 1.920 . S
O202 C175 1.289 . S
C203 O195 1.258 . S
C203 O196 1.266 . S
Co204 O207 1.970 . S
Co204 N221 1.989 . S
Co204 O229 1.967 . S
Co204 O236 1.920 . S
Co205 O208 1.966 . S
Co205 N214 2.022 . S
Co205 N222 1.993 . S
Co205 O230 1.941 . S
C206 O207 1.258 . S
C206 O208 1.263 . S
O207 Co204 1.970 . S
O207 C206 1.258 . S
O208 Co205 1.966 . S
O208 C206 1.263 . S
C209 O210 1.235 . S
C209 O236 1.289 . S
O210 C209 1.235 . S
C211 C213 1.400 . S
C211 N214 1.351 . S
C211 C216 1.501 . S
C212 C213 1.387 . S
C212 N215 1.341 . S
C213 C211 1.400 . S
C213 C212 1.387 . S
N214 Co205 2.022 . S
N214 C211 1.351 . S
N214 N215 1.365 . S
N215 C212 1.341 . S
N215 N214 1.365 . S
N215 H235 0.862 . S
C216 C211 1.501 . S
C216 H217 0.961 . S
C216 H218 0.961 . S
C216 H219 0.960 1_655 S
H217 C216 0.961 . S
H218 C216 0.961 . S
H219 C216 0.960 1_455 S
C220 N221 1.342 . S
C220 C224 1.401 . S
C220 C225 1.499 . S
N221 Co204 1.989 . S
N221 C220 1.342 . S
N221 N222 1.388 . S
N222 Co205 1.993 . S
N222 N221 1.388 . S
N222 C223 1.346 . S
C223 N222 1.346 . S
C223 C224 1.396 . S
C223 C233 1.510 . S
C224 C220 1.401 . S
C224 C223 1.396 . S
C225 C220 1.499 . S
C225 H226 0.959 . S
C225 H227 0.960 . S
C225 H228 0.961 . S
H226 C225 0.959 . S
H227 C225 0.960 . S
H228 C225 0.961 . S
O229 Co204 1.967 . S
O229 C237 1.258 . S
O230 Co205 1.941 . S
O230 C237 1.266 . S
H231 C233 0.959 . S
H232 C233 0.961 . S
C233 C223 1.510 . S
C233 H231 0.959 . S
C233 H232 0.961 . S
C233 H234 0.960 . S
H234 C233 0.960 . S
H235 N215 0.862 . S
O236 Co204 1.920 . S
O236 C209 1.289 . S
C237 O229 1.258 . S
C237 O230 1.266 . S
Co238 O241 1.970 . S
Co238 N255 1.989 . S
Co238 O263 1.967 . S
Co238 O270 1.920 . S
Co239 O242 1.966 . S
Co239 N248 2.022 . S
Co239 N256 1.993 . S
Co239 O264 1.941 . S
C240 O241 1.258 . S
C240 O242 1.263 . S
O241 Co238 1.970 . S
O241 C240 1.258 . S
O242 Co239 1.966 . S
O242 C240 1.263 . S
C243 O244 1.235 . S
C243 O270 1.289 . S
O244 C243 1.235 . S
C245 C247 1.400 . S
C245 N248 1.351 . S
C245 C250 1.501 . S
C246 C247 1.387 . S
C246 N249 1.341 . S
C247 C245 1.400 . S
C247 C246 1.387 . S
N248 Co239 2.022 . S
N248 C245 1.351 . S
N248 N249 1.365 . S
N249 C246 1.341 . S
N249 N248 1.365 . S
N249 H269 0.862 . S
C250 C245 1.501 . S
C250 H251 0.961 . S
C250 H252 0.961 . S
C250 H253 0.960 . S
H251 C250 0.961 . S
H252 C250 0.961 . S
H253 C250 0.960 . S
C254 N255 1.342 . S
C254 C258 1.401 . S
C254 C259 1.499 . S
N255 Co238 1.989 . S
N255 C254 1.342 . S
N255 N256 1.388 . S
N256 Co239 1.993 . S
N256 N255 1.388 . S
N256 C257 1.346 . S
C257 N256 1.346 . S
C257 C258 1.396 . S
C257 C267 1.510 . S
C258 C254 1.401 . S
C258 C257 1.396 . S
C259 C254 1.499 . S
C259 H260 0.959 . S
C259 H261 0.960 . S
C259 H262 0.961 . S
H260 C259 0.959 . S
H261 C259 0.960 . S
H262 C259 0.961 . S
O263 Co238 1.967 . S
O263 C271 1.258 . S
O264 Co239 1.941 . S
O264 C271 1.266 . S
H265 C267 0.959 . S
H266 C267 0.961 . S
C267 C257 1.510 . S
C267 H265 0.959 . S
C267 H266 0.961 . S
C267 H268 0.960 . S
H268 C267 0.960 . S
H269 N249 0.862 . S
O270 Co238 1.920 . S
O270 C243 1.289 . S
C271 O263 1.258 . S
C271 O264 1.266 . S
Co272 O275 1.970 . S
Co272 N289 1.989 . S
Co272 O297 1.967 . S
Co272 O304 1.920 . S
Co273 O276 1.966 . S
Co273 N282 2.022 . S
Co273 N290 1.993 . S
Co273 O298 1.941 . S
C274 O275 1.258 . S
C274 O276 1.263 . S
O275 Co272 1.970 . S
O275 C274 1.258 . S
O276 Co273 1.966 . S
O276 C274 1.263 . S
C277 O278 1.235 . S
C277 O304 1.289 . S
O278 C277 1.235 . S
C279 C281 1.400 . S
C279 N282 1.351 . S
C279 C284 1.501 . S
C280 C281 1.387 . S
C280 N283 1.341 . S
C281 C279 1.400 . S
C281 C280 1.387 . S
N282 Co273 2.022 . S
N282 C279 1.351 . S
N282 N283 1.365 . S
N283 C280 1.341 . S
N283 N282 1.365 . S
N283 H303 0.862 . S
C284 C279 1.501 . S
C284 H285 0.961 . S
C284 H286 0.961 . S
C284 H287 0.960 1_545 S
H285 C284 0.961 . S
H286 C284 0.961 . S
H287 C284 0.960 1_565 S
C288 N289 1.342 . S
C288 C292 1.401 . S
C288 C293 1.499 . S
N289 Co272 1.989 . S
N289 C288 1.342 . S
N289 N290 1.388 . S
N290 Co273 1.993 . S
N290 N289 1.388 . S
N290 C291 1.346 . S
C291 N290 1.346 . S
C291 C292 1.396 . S
C291 C301 1.510 . S
C292 C288 1.401 . S
C292 C291 1.396 . S
C293 C288 1.499 . S
C293 H294 0.959 . S
C293 H295 0.960 . S
C293 H296 0.961 . S
H294 C293 0.959 . S
H295 C293 0.960 . S
H296 C293 0.961 . S
O297 Co272 1.967 . S
O297 C305 1.258 . S
O298 Co273 1.941 . S
O298 C305 1.266 . S
H299 C301 0.959 . S
H300 C301 0.961 . S
C301 C291 1.510 . S
C301 H299 0.959 . S
C301 H300 0.961 . S
C301 H302 0.960 . S
H302 C301 0.960 . S
H303 N283 0.862 . S
O304 Co272 1.920 . S
O304 C277 1.289 . S
C305 O297 1.258 . S
C305 O298 1.266 . S
Co306 O309 1.970 . S
Co306 N323 1.989 . S
Co306 O331 1.967 . S
Co306 O338 1.920 . S
Co307 O310 1.966 . S
Co307 N316 2.022 . S
Co307 N324 1.993 . S
Co307 O332 1.941 . S
C308 O309 1.258 . S
C308 O310 1.263 . S
O309 Co306 1.970 . S
O309 C308 1.258 . S
O310 Co307 1.966 . S
O310 C308 1.263 . S
C311 O312 1.235 . S
C311 O338 1.289 . S
O312 C311 1.235 . S
C313 C315 1.400 . S
C313 N316 1.351 . S
C313 C318 1.501 . S
C314 C315 1.387 . S
C314 N317 1.341 . S
C315 C313 1.400 . S
C315 C314 1.387 . S
N316 Co307 2.022 . S
N316 C313 1.351 . S
N316 N317 1.365 . S
N317 C314 1.341 . S
N317 N316 1.365 . S
N317 H337 0.862 . S
C318 C313 1.501 . S
C318 H319 0.961 . S
C318 H320 0.961 . S
C318 H321 0.960 1_565 S
H319 C318 0.961 . S
H320 C318 0.961 . S
H321 C318 0.960 1_545 S
C322 N323 1.342 . S
C322 C326 1.401 . S
C322 C327 1.499 . S
N323 Co306 1.989 . S
N323 C322 1.342 . S
N323 N324 1.388 . S
N324 Co307 1.993 . S
N324 N323 1.388 . S
N324 C325 1.346 . S
C325 N324 1.346 . S
C325 C326 1.396 . S
C325 C335 1.510 . S
C326 C322 1.401 . S
C326 C325 1.396 . S
C327 C322 1.499 . S
C327 H328 0.959 . S
C327 H329 0.960 . S
C327 H330 0.961 . S
H328 C327 0.959 . S
H329 C327 0.960 . S
H330 C327 0.961 . S
O331 Co306 1.967 . S
O331 C339 1.258 . S
O332 Co307 1.941 . S
O332 C339 1.266 . S
H333 C335 0.959 . S
H334 C335 0.961 . S
C335 C325 1.510 . S
C335 H333 0.959 . S
C335 H334 0.961 . S
C335 H336 0.960 . S
H336 C335 0.960 . S
H337 N317 0.862 . S
O338 Co306 1.920 . S
O338 C311 1.289 . S
C339 O331 1.258 . S
C339 O332 1.266 . S
Co340 O343 1.970 . S
Co340 N357 1.989 . S
Co340 O365 1.967 . S
Co340 O372 1.920 . S
Co341 O344 1.966 . S
Co341 N350 2.022 . S
Co341 N358 1.993 . S
Co341 O366 1.941 . S
C342 O343 1.258 . S
C342 O344 1.263 . S
O343 Co340 1.970 . S
O343 C342 1.258 . S
O344 Co341 1.966 . S
O344 C342 1.263 . S
C345 O346 1.235 . S
C345 O372 1.289 . S
O346 C345 1.235 . S
C347 C349 1.400 . S
C347 N350 1.351 . S
C347 C352 1.501 . S
C348 C349 1.387 . S
C348 N351 1.341 . S
C349 C347 1.400 . S
C349 C348 1.387 . S
N350 Co341 2.022 . S
N350 C347 1.351 . S
N350 N351 1.365 . S
N351 C348 1.341 . S
N351 N350 1.365 . S
N351 H371 0.862 . S
C352 C347 1.501 . S
C352 H353 0.961 . S
C352 H354 0.961 . S
C352 H355 0.960 1_455 S
H353 C352 0.961 . S
H354 C352 0.961 . S
H355 C352 0.960 1_655 S
C356 N357 1.342 . S
C356 C360 1.401 . S
C356 C361 1.499 . S
N357 Co340 1.989 . S
N357 C356 1.342 . S
N357 N358 1.388 . S
N358 Co341 1.993 . S
N358 N357 1.388 . S
N358 C359 1.346 . S
C359 N358 1.346 . S
C359 C360 1.396 . S
C359 C369 1.510 . S
C360 C356 1.401 . S
C360 C359 1.396 . S
C361 C356 1.499 . S
C361 H362 0.959 . S
C361 H363 0.960 . S
C361 H364 0.961 . S
H362 C361 0.959 . S
H363 C361 0.960 . S
H364 C361 0.961 . S
O365 Co340 1.967 . S
O365 C373 1.258 . S
O366 Co341 1.941 . S
O366 C373 1.266 . S
H367 C369 0.959 . S
H368 C369 0.961 . S
C369 C359 1.510 . S
C369 H367 0.959 . S
C369 H368 0.961 . S
C369 H370 0.960 . S
H370 C369 0.960 . S
H371 N351 0.862 . S
O372 Co340 1.920 . S
O372 C345 1.289 . S
C373 O365 1.258 . S
C373 O366 1.266 . S
Co374 O377 1.970 . S
Co374 N391 1.989 . S
Co374 O399 1.967 . S
Co374 O406 1.920 . S
Co375 O378 1.966 . S
Co375 N384 2.022 . S
Co375 N392 1.993 . S
Co375 O400 1.941 . S
C376 O377 1.258 . S
C376 O378 1.263 . S
O377 Co374 1.970 . S
O377 C376 1.258 . S
O378 Co375 1.966 . S
O378 C376 1.263 . S
C379 O380 1.235 . S
C379 O406 1.289 . S
O380 C379 1.235 . S
C381 C383 1.400 . S
C381 N384 1.351 . S
C381 C386 1.501 . S
C382 C383 1.387 . S
C382 N385 1.341 . S
C383 C381 1.400 . S
C383 C382 1.387 . S
N384 Co375 2.022 . S
N384 C381 1.351 . S
N384 N385 1.365 . S
N385 C382 1.341 . S
N385 N384 1.365 . S
N385 H405 0.862 . S
C386 C381 1.501 . S
C386 H387 0.961 . S
C386 H388 0.961 . S
C386 H389 0.960 . S
H387 C386 0.961 . S
H388 C386 0.961 . S
H389 C386 0.960 . S
C390 N391 1.342 . S
C390 C394 1.401 . S
C390 C395 1.499 . S
N391 Co374 1.989 . S
N391 C390 1.342 . S
N391 N392 1.388 . S
N392 Co375 1.993 . S
N392 N391 1.388 . S
N392 C393 1.346 . S
C393 N392 1.346 . S
C393 C394 1.396 . S
C393 C403 1.510 . S
C394 C390 1.401 . S
C394 C393 1.396 . S
C395 C390 1.499 . S
C395 H396 0.959 . S
C395 H397 0.960 . S
C395 H398 0.961 . S
H396 C395 0.959 . S
H397 C395 0.960 . S
H398 C395 0.961 . S
O399 Co374 1.967 . S
O399 C407 1.258 . S
O400 Co375 1.941 . S
O400 C407 1.266 . S
H401 C403 0.959 . S
H402 C403 0.961 . S
C403 C393 1.510 . S
C403 H401 0.959 . S
C403 H402 0.961 . S
C403 H404 0.960 . S
H404 C403 0.960 . S
H405 N385 0.862 . S
O406 Co374 1.920 . S
O406 C379 1.289 . S
C407 O399 1.258 . S
C407 O400 1.266 . S
Co408 O411 1.970 . S
Co408 N425 1.989 . S
Co408 O433 1.967 . S
Co408 O440 1.920 . S
Co409 O412 1.966 . S
Co409 N418 2.022 . S
Co409 N426 1.993 . S
Co409 O434 1.941 . S
C410 O411 1.258 . S
C410 O412 1.263 . S
O411 Co408 1.970 . S
O411 C410 1.258 . S
O412 Co409 1.966 . S
O412 C410 1.263 . S
C413 O414 1.235 . S
C413 O440 1.289 . S
O414 C413 1.235 . S
C415 C417 1.400 . S
C415 N418 1.351 . S
C415 C420 1.501 . S
C416 C417 1.387 . S
C416 N419 1.341 . S
C417 C415 1.400 . S
C417 C416 1.387 . S
N418 Co409 2.022 . S
N418 C415 1.351 . S
N418 N419 1.365 . S
N419 C416 1.341 . S
N419 N418 1.365 . S
N419 H439 0.862 . S
C420 C415 1.501 . S
C420 H421 0.961 . S
C420 H422 0.961 . S
C420 H423 0.960 . S
H421 C420 0.961 . S
H422 C420 0.961 . S
H423 C420 0.960 . S
C424 N425 1.342 . S
C424 C428 1.401 . S
C424 C429 1.499 . S
N425 Co408 1.989 . S
N425 C424 1.342 . S
N425 N426 1.388 . S
N426 Co409 1.993 . S
N426 N425 1.388 . S
N426 C427 1.346 . S
C427 N426 1.346 . S
C427 C428 1.396 . S
C427 C437 1.510 . S
C428 C424 1.401 . S
C428 C427 1.396 . S
C429 C424 1.499 . S
C429 H430 0.959 . S
C429 H431 0.960 . S
C429 H432 0.961 . S
H430 C429 0.959 . S
H431 C429 0.960 . S
H432 C429 0.961 . S
O433 Co408 1.967 . S
O433 C441 1.258 . S
O434 Co409 1.941 . S
O434 C441 1.266 . S
H435 C437 0.959 . S
H436 C437 0.961 . S
C437 C427 1.510 . S
C437 H435 0.959 . S
C437 H436 0.961 . S
C437 H438 0.960 . S
H438 C437 0.960 . S
H439 N419 0.862 . S
O440 Co408 1.920 . S
O440 C413 1.289 . S
C441 O433 1.258 . S
C441 O434 1.266 . S
Co442 O445 1.970 . S
Co442 N459 1.989 . S
Co442 O467 1.967 . S
Co442 O474 1.920 . S
Co443 O446 1.966 . S
Co443 N452 2.022 . S
Co443 N460 1.993 . S
Co443 O468 1.941 . S
C444 O445 1.258 . S
C444 O446 1.263 . S
O445 Co442 1.970 . S
O445 C444 1.258 . S
O446 Co443 1.966 . S
O446 C444 1.263 . S
C447 O448 1.235 . S
C447 O474 1.289 . S
O448 C447 1.235 . S
C449 C451 1.400 . S
C449 N452 1.351 . S
C449 C454 1.501 . S
C450 C451 1.387 . S
C450 N453 1.341 . S
C451 C449 1.400 . S
C451 C450 1.387 . S
N452 Co443 2.022 . S
N452 C449 1.351 . S
N452 N453 1.365 . S
N453 C450 1.341 . S
N453 N452 1.365 . S
N453 H473 0.862 . S
C454 C449 1.501 . S
C454 H455 0.961 . S
C454 H456 0.961 . S
C454 H457 0.960 . S
H455 C454 0.961 . S
H456 C454 0.961 . S
H457 C454 0.960 . S
C458 N459 1.342 . S
C458 C462 1.401 . S
C458 C463 1.499 . S
N459 Co442 1.989 . S
N459 C458 1.342 . S
N459 N460 1.388 . S
N460 Co443 1.993 . S
N460 N459 1.388 . S
N460 C461 1.346 . S
C461 N460 1.346 . S
C461 C462 1.396 . S
C461 C471 1.510 . S
C462 C458 1.401 . S
C462 C461 1.396 . S
C463 C458 1.499 . S
C463 H464 0.959 . S
C463 H465 0.960 . S
C463 H466 0.961 . S
H464 C463 0.959 . S
H465 C463 0.960 . S
H466 C463 0.961 . S
O467 Co442 1.967 . S
O467 C475 1.258 . S
O468 Co443 1.941 . S
O468 C475 1.266 . S
H469 C471 0.959 . S
H470 C471 0.961 . S
C471 C461 1.510 . S
C471 H469 0.959 . S
C471 H470 0.961 . S
C471 H472 0.960 . S
H472 C471 0.960 . S
H473 N453 0.862 . S
O474 Co442 1.920 . S
O474 C447 1.289 . S
C475 O467 1.258 . S
C475 O468 1.266 . S
Co476 O479 1.970 . S
Co476 N493 1.989 . S
Co476 O501 1.967 . S
Co476 O508 1.920 . S
Co477 O480 1.966 . S
Co477 N486 2.022 . S
Co477 N494 1.993 . S
Co477 O502 1.941 . S
C478 O479 1.258 . S
C478 O480 1.263 . S
O479 Co476 1.970 . S
O479 C478 1.258 . S
O480 Co477 1.966 . S
O480 C478 1.263 . S
C481 O482 1.235 . S
C481 O508 1.289 . S
O482 C481 1.235 . S
C483 C485 1.400 . S
C483 N486 1.351 . S
C483 C488 1.501 . S
C484 C485 1.387 . S
C484 N487 1.341 . S
C485 C483 1.400 . S
C485 C484 1.387 . S
N486 Co477 2.022 . S
N486 C483 1.351 . S
N486 N487 1.365 . S
N487 C484 1.341 . S
N487 N486 1.365 . S
N487 H507 0.862 . S
C488 C483 1.501 . S
C488 H489 0.961 . S
C488 H490 0.961 . S
C488 H491 0.960 . S
H489 C488 0.961 . S
H490 C488 0.961 . S
H491 C488 0.960 . S
C492 N493 1.342 . S
C492 C496 1.401 . S
C492 C497 1.499 . S
N493 Co476 1.989 . S
N493 C492 1.342 . S
N493 N494 1.388 . S
N494 Co477 1.993 . S
N494 N493 1.388 . S
N494 C495 1.346 . S
C495 N494 1.346 . S
C495 C496 1.396 . S
C495 C505 1.510 . S
C496 C492 1.401 . S
C496 C495 1.396 . S
C497 C492 1.499 . S
C497 H498 0.959 . S
C497 H499 0.960 . S
C497 H500 0.961 . S
H498 C497 0.959 . S
H499 C497 0.960 . S
H500 C497 0.961 . S
O501 Co476 1.967 . S
O501 C509 1.258 . S
O502 Co477 1.941 . S
O502 C509 1.266 . S
H503 C505 0.959 . S
H504 C505 0.961 . S
C505 C495 1.510 . S
C505 H503 0.959 . S
C505 H504 0.961 . S
C505 H506 0.960 . S
H506 C505 0.960 . S
H507 N487 0.862 . S
O508 Co476 1.920 . S
O508 C481 1.289 . S
C509 O501 1.258 . S
C509 O502 1.266 . S
Co510 O513 1.970 . S
Co510 N527 1.989 . S
Co510 O535 1.967 . S
Co510 O542 1.920 . S
Co511 O514 1.966 . S
Co511 N520 2.022 . S
Co511 N528 1.993 . S
Co511 O536 1.941 . S
C512 O513 1.258 . S
C512 O514 1.263 . S
O513 Co510 1.970 . S
O513 C512 1.258 . S
O514 Co511 1.966 . S
O514 C512 1.263 . S
C515 O516 1.235 . S
C515 O542 1.289 . S
O516 C515 1.235 . S
C517 C519 1.400 . S
C517 N520 1.351 . S
C517 C522 1.501 . S
C518 C519 1.387 1_455 S
C518 N521 1.341 1_455 S
C519 C517 1.400 . S
C519 C518 1.387 1_655 S
N520 Co511 2.022 . S
N520 C517 1.351 . S
N520 N521 1.365 . S
N521 C518 1.341 1_655 S
N521 N520 1.365 . S
N521 H541 0.862 1_655 S
C522 C517 1.501 . S
C522 H523 0.961 . S
C522 H524 0.961 . S
C522 H525 0.960 . S
H523 C522 0.961 . S
H524 C522 0.961 . S
H525 C522 0.960 . S
C526 N527 1.342 . S
C526 C530 1.401 . S
C526 C531 1.499 . S
N527 Co510 1.989 . S
N527 C526 1.342 . S
N527 N528 1.388 . S
N528 Co511 1.993 . S
N528 N527 1.388 . S
N528 C529 1.346 . S
C529 N528 1.346 . S
C529 C530 1.396 . S
C529 C539 1.510 . S
C530 C526 1.401 . S
C530 C529 1.396 . S
C531 C526 1.499 . S
C531 H532 0.959 . S
C531 H533 0.960 . S
C531 H534 0.961 . S
H532 C531 0.959 . S
H533 C531 0.960 . S
H534 C531 0.961 . S
O535 Co510 1.967 . S
O535 C543 1.258 . S
O536 Co511 1.941 . S
O536 C543 1.266 . S
H537 C539 0.959 1_455 S
H538 C539 0.961 . S
C539 C529 1.510 . S
C539 H537 0.959 1_655 S
C539 H538 0.961 . S
C539 H540 0.960 . S
H540 C539 0.960 . S
H541 N521 0.862 1_455 S
O542 Co510 1.920 . S
O542 C515 1.289 . S
C543 O535 1.258 . S
C543 O536 1.266 . S
Co544 O547 1.970 . S
Co544 N561 1.989 . S
Co544 O569 1.967 . S
Co544 O576 1.920 . S
Co545 O548 1.966 . S
Co545 N554 2.022 . S
Co545 N562 1.993 . S
Co545 O570 1.941 . S
C546 O547 1.258 . S
C546 O548 1.263 . S
O547 Co544 1.970 . S
O547 C546 1.258 . S
O548 Co545 1.966 . S
O548 C546 1.263 . S
C549 O550 1.235 . S
C549 O576 1.289 . S
O550 C549 1.235 . S
C551 C553 1.400 . S
C551 N554 1.351 . S
C551 C556 1.501 . S
C552 C553 1.387 . S
C552 N555 1.341 . S
C553 C551 1.400 . S
C553 C552 1.387 . S
N554 Co545 2.022 . S
N554 C551 1.351 . S
N554 N555 1.365 . S
N555 C552 1.341 . S
N555 N554 1.365 . S
N555 H575 0.862 . S
C556 C551 1.501 . S
C556 H557 0.961 . S
C556 H558 0.961 . S
C556 H559 0.960 . S
H557 C556 0.961 . S
H558 C556 0.961 . S
H559 C556 0.960 . S
C560 N561 1.342 . S
C560 C564 1.401 . S
C560 C565 1.499 . S
N561 Co544 1.989 . S
N561 C560 1.342 . S
N561 N562 1.388 . S
N562 Co545 1.993 . S
N562 N561 1.388 . S
N562 C563 1.346 . S
C563 N562 1.346 . S
C563 C564 1.396 . S
C563 C573 1.510 . S
C564 C560 1.401 . S
C564 C563 1.396 . S
C565 C560 1.499 . S
C565 H566 0.959 . S
C565 H567 0.960 . S
C565 H568 0.961 . S
H566 C565 0.959 . S
H567 C565 0.960 . S
H568 C565 0.961 . S
O569 Co544 1.967 . S
O569 C577 1.258 . S
O570 Co545 1.941 . S
O570 C577 1.266 . S
H571 C573 0.959 . S
H572 C573 0.961 . S
C573 C563 1.510 . S
C573 H571 0.959 . S
C573 H572 0.961 . S
C573 H574 0.960 . S
H574 C573 0.960 . S
H575 N555 0.862 . S
O576 Co544 1.920 . S
O576 C549 1.289 . S
C577 O569 1.258 . S
C577 O570 1.266 . S
Co578 O581 1.970 . S
Co578 N595 1.989 . S
Co578 O603 1.967 . S
Co578 O610 1.920 . S
Co579 O582 1.966 . S
Co579 N588 2.022 . S
Co579 N596 1.993 . S
Co579 O604 1.941 . S
C580 O581 1.258 . S
C580 O582 1.263 . S
O581 Co578 1.970 . S
O581 C580 1.258 . S
O582 Co579 1.966 . S
O582 C580 1.263 . S
C583 O584 1.235 . S
C583 O610 1.289 . S
O584 C583 1.235 . S
C585 C587 1.400 . S
C585 N588 1.351 . S
C585 C590 1.501 . S
C586 C587 1.387 1_565 S
C586 N589 1.341 1_565 S
C587 C585 1.400 . S
C587 C586 1.387 1_545 S
N588 Co579 2.022 . S
N588 C585 1.351 . S
N588 N589 1.365 . S
N589 C586 1.341 1_545 S
N589 N588 1.365 . S
N589 H609 0.862 1_545 S
C590 C585 1.501 . S
C590 H591 0.961 . S
C590 H592 0.961 . S
C590 H593 0.960 . S
H591 C590 0.961 . S
H592 C590 0.961 . S
H593 C590 0.960 . S
C594 N595 1.342 . S
C594 C598 1.401 . S
C594 C599 1.499 . S
N595 Co578 1.989 . S
N595 C594 1.342 . S
N595 N596 1.388 . S
N596 Co579 1.993 . S
N596 N595 1.388 . S
N596 C597 1.346 . S
C597 N596 1.346 . S
C597 C598 1.396 . S
C597 C607 1.510 . S
C598 C594 1.401 . S
C598 C597 1.396 . S
C599 C594 1.499 . S
C599 H600 0.959 . S
C599 H601 0.960 . S
C599 H602 0.961 . S
H600 C599 0.959 . S
H601 C599 0.960 . S
H602 C599 0.961 . S
O603 Co578 1.967 . S
O603 C611 1.258 . S
O604 Co579 1.941 . S
O604 C611 1.266 . S
H605 C607 0.959 1_565 S
H606 C607 0.961 . S
C607 C597 1.510 . S
C607 H605 0.959 1_545 S
C607 H606 0.961 . S
C607 H608 0.960 . S
H608 C607 0.960 . S
H609 N589 0.862 1_565 S
O610 Co578 1.920 . S
O610 C583 1.289 . S
C611 O603 1.258 . S
C611 O604 1.266 . S
Co612 O615 1.970 . S
Co612 N629 1.989 . S
Co612 O637 1.967 . S
Co612 O644 1.920 . S
Co613 O616 1.966 . S
Co613 N622 2.022 . S
Co613 N630 1.993 . S
Co613 O638 1.941 . S
C614 O615 1.258 . S
C614 O616 1.263 . S
O615 Co612 1.970 . S
O615 C614 1.258 . S
O616 Co613 1.966 . S
O616 C614 1.263 . S
C617 O618 1.235 . S
C617 O644 1.289 . S
O618 C617 1.235 . S
C619 C621 1.400 . S
C619 N622 1.351 . S
C619 C624 1.501 . S
C620 C621 1.387 1_565 S
C620 N623 1.341 1_565 S
C621 C619 1.400 . S
C621 C620 1.387 1_545 S
N622 Co613 2.022 . S
N622 C619 1.351 . S
N622 N623 1.365 . S
N623 C620 1.341 1_545 S
N623 N622 1.365 . S
N623 H643 0.862 1_545 S
C624 C619 1.501 . S
C624 H625 0.961 . S
C624 H626 0.961 . S
C624 H627 0.960 . S
H625 C624 0.961 . S
H626 C624 0.961 . S
H627 C624 0.960 . S
C628 N629 1.342 . S
C628 C632 1.401 . S
C628 C633 1.499 . S
N629 Co612 1.989 . S
N629 C628 1.342 . S
N629 N630 1.388 . S
N630 Co613 1.993 . S
N630 N629 1.388 . S
N630 C631 1.346 . S
C631 N630 1.346 . S
C631 C632 1.396 . S
C631 C641 1.510 . S
C632 C628 1.401 . S
C632 C631 1.396 . S
C633 C628 1.499 . S
C633 H634 0.959 . S
C633 H635 0.960 . S
C633 H636 0.961 . S
H634 C633 0.959 . S
H635 C633 0.960 . S
H636 C633 0.961 . S
O637 Co612 1.967 . S
O637 C645 1.258 . S
O638 Co613 1.941 . S
O638 C645 1.266 . S
H639 C641 0.959 1_565 S
H640 C641 0.961 . S
C641 C631 1.510 . S
C641 H639 0.959 1_545 S
C641 H640 0.961 . S
C641 H642 0.960 . S
H642 C641 0.960 . S
H643 N623 0.862 1_565 S
O644 Co612 1.920 . S
O644 C617 1.289 . S
C645 O637 1.258 . S
C645 O638 1.266 . S
Co646 O649 1.970 . S
Co646 N663 1.989 . S
Co646 O671 1.967 . S
Co646 O678 1.920 . S
Co647 O650 1.966 . S
Co647 N656 2.022 . S
Co647 N664 1.993 . S
Co647 O672 1.941 . S
C648 O649 1.258 . S
C648 O650 1.263 . S
O649 Co646 1.970 . S
O649 C648 1.258 . S
O650 Co647 1.966 . S
O650 C648 1.263 . S
C651 O652 1.235 . S
C651 O678 1.289 . S
O652 C651 1.235 . S
C653 C655 1.400 . S
C653 N656 1.351 . S
C653 C658 1.501 . S
C654 C655 1.387 1_455 S
C654 N657 1.341 1_455 S
C655 C653 1.400 . S
C655 C654 1.387 1_655 S
N656 Co647 2.022 . S
N656 C653 1.351 . S
N656 N657 1.365 . S
N657 C654 1.341 1_655 S
N657 N656 1.365 . S
N657 H677 0.862 1_655 S
C658 C653 1.501 . S
C658 H659 0.961 . S
C658 H660 0.961 . S
C658 H661 0.960 . S
H659 C658 0.961 . S
H660 C658 0.961 . S
H661 C658 0.960 . S
C662 N663 1.342 . S
C662 C666 1.401 . S
C662 C667 1.499 . S
N663 Co646 1.989 . S
N663 C662 1.342 . S
N663 N664 1.388 . S
N664 Co647 1.993 . S
N664 N663 1.388 . S
N664 C665 1.346 . S
C665 N664 1.346 . S
C665 C666 1.396 . S
C665 C675 1.510 . S
C666 C662 1.401 . S
C666 C665 1.396 . S
C667 C662 1.499 . S
C667 H668 0.959 . S
C667 H669 0.960 . S
C667 H670 0.961 . S
H668 C667 0.959 . S
H669 C667 0.960 . S
H670 C667 0.961 . S
O671 Co646 1.967 . S
O671 C679 1.258 . S
O672 Co647 1.941 . S
O672 C679 1.266 . S
H673 C675 0.959 1_455 S
H674 C675 0.961 . S
C675 C665 1.510 . S
C675 H673 0.959 1_655 S
C675 H674 0.961 . S
C675 H676 0.960 . S
H676 C675 0.960 . S
H677 N657 0.862 1_455 S
O678 Co646 1.920 . S
O678 C651 1.289 . S
C679 O671 1.258 . S
C679 O672 1.266 . S
Co680 O683 1.970 . S
Co680 N697 1.989 . S
Co680 O705 1.967 . S
Co680 O712 1.920 . S
Co681 O684 1.966 . S
Co681 N690 2.022 . S
Co681 N698 1.993 . S
Co681 O706 1.941 . S
C682 O683 1.258 . S
C682 O684 1.263 . S
O683 Co680 1.970 . S
O683 C682 1.258 . S
O684 Co681 1.966 . S
O684 C682 1.263 . S
C685 O686 1.235 . S
C685 O712 1.289 . S
O686 C685 1.235 . S
C687 C689 1.400 . S
C687 N690 1.351 . S
C687 C692 1.501 . S
C688 C689 1.387 . S
C688 N691 1.341 . S
C689 C687 1.400 . S
C689 C688 1.387 . S
N690 Co681 2.022 . S
N690 C687 1.351 . S
N690 N691 1.365 . S
N691 C688 1.341 . S
N691 N690 1.365 . S
N691 H711 0.862 . S
C692 C687 1.501 . S
C692 H693 0.961 . S
C692 H694 0.961 . S
C692 H695 0.960 . S
H693 C692 0.961 . S
H694 C692 0.961 . S
H695 C692 0.960 . S
C696 N697 1.342 . S
C696 C700 1.401 . S
C696 C701 1.499 . S
N697 Co680 1.989 . S
N697 C696 1.342 . S
N697 N698 1.388 . S
N698 Co681 1.993 . S
N698 N697 1.388 . S
N698 C699 1.346 . S
C699 N698 1.346 . S
C699 C700 1.396 . S
C699 C709 1.510 . S
C700 C696 1.401 . S
C700 C699 1.396 . S
C701 C696 1.499 . S
C701 H702 0.959 . S
C701 H703 0.960 . S
C701 H704 0.961 . S
H702 C701 0.959 . S
H703 C701 0.960 . S
H704 C701 0.961 . S
O705 Co680 1.967 . S
O705 C713 1.258 . S
O706 Co681 1.941 . S
O706 C713 1.266 . S
H707 C709 0.959 . S
H708 C709 0.961 . S
C709 C699 1.510 . S
C709 H707 0.959 . S
C709 H708 0.961 . S
C709 H710 0.960 . S
H710 C709 0.960 . S
H711 N691 0.862 . S
O712 Co680 1.920 . S
O712 C685 1.289 . S
C713 O705 1.258 . S
C713 O706 1.266 . S
Co714 O717 1.970 . S
Co714 N731 1.989 . S
Co714 O739 1.967 . S
Co714 O746 1.920 . S
Co715 O718 1.966 . S
Co715 N724 2.022 . S
Co715 N732 1.993 . S
Co715 O740 1.941 . S
C716 O717 1.258 . S
C716 O718 1.263 . S
O717 Co714 1.970 . S
O717 C716 1.258 . S
O718 Co715 1.966 . S
O718 C716 1.263 . S
C719 O720 1.235 . S
C719 O746 1.289 . S
O720 C719 1.235 . S
C721 C723 1.400 . S
C721 N724 1.351 . S
C721 C726 1.501 . S
C722 C723 1.387 . S
C722 N725 1.341 . S
C723 C721 1.400 . S
C723 C722 1.387 . S
N724 Co715 2.022 . S
N724 C721 1.351 . S
N724 N725 1.365 . S
N725 C722 1.341 . S
N725 N724 1.365 . S
N725 H745 0.862 . S
C726 C721 1.501 . S
C726 H727 0.961 . S
C726 H728 0.961 . S
C726 H729 0.960 . S
H727 C726 0.961 . S
H728 C726 0.961 . S
H729 C726 0.960 . S
C730 N731 1.342 . S
C730 C734 1.401 . S
C730 C735 1.499 . S
N731 Co714 1.989 . S
N731 C730 1.342 . S
N731 N732 1.388 . S
N732 Co715 1.993 . S
N732 N731 1.388 . S
N732 C733 1.346 . S
C733 N732 1.346 . S
C733 C734 1.396 . S
C733 C743 1.510 . S
C734 C730 1.401 . S
C734 C733 1.396 . S
C735 C730 1.499 . S
C735 H736 0.959 . S
C735 H737 0.960 . S
C735 H738 0.961 . S
H736 C735 0.959 . S
H737 C735 0.960 . S
H738 C735 0.961 . S
O739 Co714 1.967 . S
O739 C747 1.258 . S
O740 Co715 1.941 . S
O740 C747 1.266 . S
H741 C743 0.959 . S
H742 C743 0.961 . S
C743 C733 1.510 . S
C743 H741 0.959 . S
C743 H742 0.961 . S
C743 H744 0.960 . S
H744 C743 0.960 . S
H745 N725 0.862 . S
O746 Co714 1.920 . S
O746 C719 1.289 . S
C747 O739 1.258 . S
C747 O740 1.266 . S
Co748 O751 1.970 . S
Co748 N765 1.989 . S
Co748 O773 1.967 . S
Co748 O780 1.920 . S
Co749 O752 1.966 . S
Co749 N758 2.022 . S
Co749 N766 1.993 . S
Co749 O774 1.941 . S
C750 O751 1.258 . S
C750 O752 1.263 . S
O751 Co748 1.970 . S
O751 C750 1.258 . S
O752 Co749 1.966 . S
O752 C750 1.263 . S
C753 O754 1.235 . S
C753 O780 1.289 . S
O754 C753 1.235 . S
C755 C757 1.400 . S
C755 N758 1.351 . S
C755 C760 1.501 . S
C756 C757 1.387 . S
C756 N759 1.341 . S
C757 C755 1.400 . S
C757 C756 1.387 . S
N758 Co749 2.022 . S
N758 C755 1.351 . S
N758 N759 1.365 . S
N759 C756 1.341 . S
N759 N758 1.365 . S
N759 H779 0.862 . S
C760 C755 1.501 . S
C760 H761 0.961 . S
C760 H762 0.961 . S
C760 H763 0.960 . S
H761 C760 0.961 . S
H762 C760 0.961 . S
H763 C760 0.960 . S
C764 N765 1.342 . S
C764 C768 1.401 . S
C764 C769 1.499 . S
N765 Co748 1.989 . S
N765 C764 1.342 . S
N765 N766 1.388 . S
N766 Co749 1.993 . S
N766 N765 1.388 . S
N766 C767 1.346 . S
C767 N766 1.346 . S
C767 C768 1.396 . S
C767 C777 1.510 . S
C768 C764 1.401 . S
C768 C767 1.396 . S
C769 C764 1.499 . S
C769 H770 0.959 . S
C769 H771 0.960 . S
C769 H772 0.961 . S
H770 C769 0.959 . S
H771 C769 0.960 . S
H772 C769 0.961 . S
O773 Co748 1.967 . S
O773 C781 1.258 . S
O774 Co749 1.941 . S
O774 C781 1.266 . S
H775 C777 0.959 . S
H776 C777 0.961 . S
C777 C767 1.510 . S
C777 H775 0.959 . S
C777 H776 0.961 . S
C777 H778 0.960 . S
H778 C777 0.960 . S
H779 N759 0.862 . S
O780 Co748 1.920 . S
O780 C753 1.289 . S
C781 O773 1.258 . S
C781 O774 1.266 . S
Co782 O785 1.970 . S
Co782 N799 1.989 . S
Co782 O807 1.967 . S
Co782 O814 1.920 . S
Co783 O786 1.966 . S
Co783 N792 2.022 . S
Co783 N800 1.993 . S
Co783 O808 1.941 . S
C784 O785 1.258 . S
C784 O786 1.263 . S
O785 Co782 1.970 . S
O785 C784 1.258 . S
O786 Co783 1.966 . S
O786 C784 1.263 . S
C787 O788 1.235 . S
C787 O814 1.289 . S
O788 C787 1.235 . S
C789 C791 1.400 . S
C789 N792 1.351 . S
C789 C794 1.501 . S
C790 C791 1.387 . S
C790 N793 1.341 . S
C791 C789 1.400 . S
C791 C790 1.387 . S
N792 Co783 2.022 . S
N792 C789 1.351 . S
N792 N793 1.365 . S
N793 C790 1.341 . S
N793 N792 1.365 . S
N793 H813 0.862 . S
C794 C789 1.501 . S
C794 H795 0.961 . S
C794 H796 0.961 . S
C794 H797 0.960 . S
H795 C794 0.961 . S
H796 C794 0.961 . S
H797 C794 0.960 . S
C798 N799 1.342 . S
C798 C802 1.401 . S
C798 C803 1.499 . S
N799 Co782 1.989 . S
N799 C798 1.342 . S
N799 N800 1.388 . S
N800 Co783 1.993 . S
N800 N799 1.388 . S
N800 C801 1.346 . S
C801 N800 1.346 . S
C801 C802 1.396 . S
C801 C811 1.510 . S
C802 C798 1.401 . S
C802 C801 1.396 . S
C803 C798 1.499 . S
C803 H804 0.959 . S
C803 H805 0.960 . S
C803 H806 0.961 . S
H804 C803 0.959 . S
H805 C803 0.960 . S
H806 C803 0.961 . S
O807 Co782 1.967 . S
O807 C815 1.258 . S
O808 Co783 1.941 . S
O808 C815 1.266 . S
H809 C811 0.959 . S
H810 C811 0.961 . S
C811 C801 1.510 . S
C811 H809 0.959 . S
C811 H810 0.961 . S
C811 H812 0.960 . S
H812 C811 0.960 . S
H813 N793 0.862 . S
O814 Co782 1.920 . S
O814 C787 1.289 . S
C815 O807 1.258 . S
C815 O808 1.266 . S
Co816 O819 1.970 . S
Co816 N833 1.989 . S
Co816 O841 1.967 . S
Co816 O848 1.920 . S
Co817 O820 1.966 . S
Co817 N826 2.022 . S
Co817 N834 1.993 . S
Co817 O842 1.941 . S
C818 O819 1.258 . S
C818 O820 1.263 . S
O819 Co816 1.970 . S
O819 C818 1.258 . S
O820 Co817 1.966 . S
O820 C818 1.263 . S
C821 O822 1.235 . S
C821 O848 1.289 . S
O822 C821 1.235 . S
C823 C825 1.400 . S
C823 N826 1.351 . S
C823 C828 1.501 . S
C824 C825 1.387 1_545 S
C824 N827 1.341 1_545 S
C825 C823 1.400 . S
C825 C824 1.387 1_565 S
N826 Co817 2.022 . S
N826 C823 1.351 . S
N826 N827 1.365 . S
N827 C824 1.341 1_565 S
N827 N826 1.365 . S
N827 H847 0.862 1_565 S
C828 C823 1.501 . S
C828 H829 0.961 . S
C828 H830 0.961 . S
C828 H831 0.960 . S
H829 C828 0.961 . S
H830 C828 0.961 . S
H831 C828 0.960 . S
C832 N833 1.342 . S
C832 C836 1.401 . S
C832 C837 1.499 . S
N833 Co816 1.989 . S
N833 C832 1.342 . S
N833 N834 1.388 . S
N834 Co817 1.993 . S
N834 N833 1.388 . S
N834 C835 1.346 . S
C835 N834 1.346 . S
C835 C836 1.396 . S
C835 C845 1.510 . S
C836 C832 1.401 . S
C836 C835 1.396 . S
C837 C832 1.499 . S
C837 H838 0.959 . S
C837 H839 0.960 . S
C837 H840 0.961 . S
H838 C837 0.959 . S
H839 C837 0.960 . S
H840 C837 0.961 . S
O841 Co816 1.967 . S
O841 C849 1.258 . S
O842 Co817 1.941 . S
O842 C849 1.266 . S
H843 C845 0.959 1_545 S
H844 C845 0.961 . S
C845 C835 1.510 . S
C845 H843 0.959 1_565 S
C845 H844 0.961 . S
C845 H846 0.960 . S
H846 C845 0.960 . S
H847 N827 0.862 1_545 S
O848 Co816 1.920 . S
O848 C821 1.289 . S
C849 O841 1.258 . S
C849 O842 1.266 . S
Co850 O853 1.970 . S
Co850 N867 1.989 . S
Co850 O875 1.967 . S
Co850 O882 1.920 . S
Co851 O854 1.966 . S
Co851 N860 2.022 . S
Co851 N868 1.993 . S
Co851 O876 1.941 . S
C852 O853 1.258 . S
C852 O854 1.263 . S
O853 Co850 1.970 . S
O853 C852 1.258 . S
O854 Co851 1.966 . S
O854 C852 1.263 . S
C855 O856 1.235 . S
C855 O882 1.289 . S
O856 C855 1.235 . S
C857 C859 1.400 . S
C857 N860 1.351 . S
C857 C862 1.501 . S
C858 C859 1.387 1_655 S
C858 N861 1.341 1_655 S
C859 C857 1.400 . S
C859 C858 1.387 1_455 S
N860 Co851 2.022 . S
N860 C857 1.351 . S
N860 N861 1.365 . S
N861 C858 1.341 1_455 S
N861 N860 1.365 . S
N861 H881 0.862 1_455 S
C862 C857 1.501 . S
C862 H863 0.961 . S
C862 H864 0.961 . S
C862 H865 0.960 . S
H863 C862 0.961 . S
H864 C862 0.961 . S
H865 C862 0.960 . S
C866 N867 1.342 . S
C866 C870 1.401 . S
C866 C871 1.499 . S
N867 Co850 1.989 . S
N867 C866 1.342 . S
N867 N868 1.388 . S
N868 Co851 1.993 . S
N868 N867 1.388 . S
N868 C869 1.346 . S
C869 N868 1.346 . S
C869 C870 1.396 . S
C869 C879 1.510 . S
C870 C866 1.401 . S
C870 C869 1.396 . S
C871 C866 1.499 . S
C871 H872 0.959 . S
C871 H873 0.960 . S
C871 H874 0.961 . S
H872 C871 0.959 . S
H873 C871 0.960 . S
H874 C871 0.961 . S
O875 Co850 1.967 . S
O875 C883 1.258 . S
O876 Co851 1.941 . S
O876 C883 1.266 . S
H877 C879 0.959 1_655 S
H878 C879 0.961 . S
C879 C869 1.510 . S
C879 H877 0.959 1_455 S
C879 H878 0.961 . S
C879 H880 0.960 . S
H880 C879 0.960 . S
H881 N861 0.862 1_655 S
O882 Co850 1.920 . S
O882 C855 1.289 . S
C883 O875 1.258 . S
C883 O876 1.266 . S
Co884 O887 1.970 . S
Co884 N901 1.989 . S
Co884 O909 1.967 . S
Co884 O916 1.920 . S
Co885 O888 1.966 . S
Co885 N894 2.022 . S
Co885 N902 1.993 . S
Co885 O910 1.941 . S
C886 O887 1.258 . S
C886 O888 1.263 . S
O887 Co884 1.970 . S
O887 C886 1.258 . S
O888 Co885 1.966 . S
O888 C886 1.263 . S
C889 O890 1.235 . S
C889 O916 1.289 . S
O890 C889 1.235 . S
C891 C893 1.400 . S
C891 N894 1.351 . S
C891 C896 1.501 . S
C892 C893 1.387 . S
C892 N895 1.341 . S
C893 C891 1.400 . S
C893 C892 1.387 . S
N894 Co885 2.022 . S
N894 C891 1.351 . S
N894 N895 1.365 . S
N895 C892 1.341 . S
N895 N894 1.365 . S
N895 H915 0.862 . S
C896 C891 1.501 . S
C896 H897 0.961 . S
C896 H898 0.961 . S
C896 H899 0.960 . S
H897 C896 0.961 . S
H898 C896 0.961 . S
H899 C896 0.960 . S
C900 N901 1.342 . S
C900 C904 1.401 . S
C900 C905 1.499 . S
N901 Co884 1.989 . S
N901 C900 1.342 . S
N901 N902 1.388 . S
N902 Co885 1.993 . S
N902 N901 1.388 . S
N902 C903 1.346 . S
C903 N902 1.346 . S
C903 C904 1.396 . S
C903 C913 1.510 . S
C904 C900 1.401 . S
C904 C903 1.396 . S
C905 C900 1.499 . S
C905 H906 0.959 . S
C905 H907 0.960 . S
C905 H908 0.961 . S
H906 C905 0.959 . S
H907 C905 0.960 . S
H908 C905 0.961 . S
O909 Co884 1.967 . S
O909 C917 1.258 . S
O910 Co885 1.941 . S
O910 C917 1.266 . S
H911 C913 0.959 . S
H912 C913 0.961 . S
C913 C903 1.510 . S
C913 H911 0.959 . S
C913 H912 0.961 . S
C913 H914 0.960 . S
H914 C913 0.960 . S
H915 N895 0.862 . S
O916 Co884 1.920 . S
O916 C889 1.289 . S
C917 O909 1.258 . S
C917 O910 1.266 . S
Co918 O921 1.970 . S
Co918 N935 1.989 . S
Co918 O943 1.967 . S
Co918 O950 1.920 . S
Co919 O922 1.966 . S
Co919 N928 2.022 . S
Co919 N936 1.993 . S
Co919 O944 1.941 . S
C920 O921 1.258 . S
C920 O922 1.263 . S
O921 Co918 1.970 . S
O921 C920 1.258 . S
O922 Co919 1.966 . S
O922 C920 1.263 . S
C923 O924 1.235 . S
C923 O950 1.289 . S
O924 C923 1.235 . S
C925 C927 1.400 . S
C925 N928 1.351 . S
C925 C930 1.501 . S
C926 C927 1.387 . S
C926 N929 1.341 . S
C927 C925 1.400 . S
C927 C926 1.387 . S
N928 Co919 2.022 . S
N928 C925 1.351 . S
N928 N929 1.365 . S
N929 C926 1.341 . S
N929 N928 1.365 . S
N929 H949 0.862 . S
C930 C925 1.501 . S
C930 H931 0.961 . S
C930 H932 0.961 . S
C930 H933 0.960 . S
H931 C930 0.961 . S
H932 C930 0.961 . S
H933 C930 0.960 . S
C934 N935 1.342 . S
C934 C938 1.401 . S
C934 C939 1.499 . S
N935 Co918 1.989 . S
N935 C934 1.342 . S
N935 N936 1.388 . S
N936 Co919 1.993 . S
N936 N935 1.388 . S
N936 C937 1.346 . S
C937 N936 1.346 . S
C937 C938 1.396 . S
C937 C947 1.510 . S
C938 C934 1.401 . S
C938 C937 1.396 . S
C939 C934 1.499 . S
C939 H940 0.959 . S
C939 H941 0.960 . S
C939 H942 0.961 . S
H940 C939 0.959 . S
H941 C939 0.960 . S
H942 C939 0.961 . S
O943 Co918 1.967 . S
O943 C951 1.258 . S
O944 Co919 1.941 . S
O944 C951 1.266 . S
H945 C947 0.959 . S
H946 C947 0.961 . S
C947 C937 1.510 . S
C947 H945 0.959 . S
C947 H946 0.961 . S
C947 H948 0.960 . S
H948 C947 0.960 . S
H949 N929 0.862 . S
O950 Co918 1.920 . S
O950 C923 1.289 . S
C951 O943 1.258 . S
C951 O944 1.266 . S
Co952 O955 1.970 . S
Co952 N969 1.989 . S
Co952 O977 1.967 . S
Co952 O984 1.920 . S
Co953 O956 1.966 . S
Co953 N962 2.022 . S
Co953 N970 1.993 . S
Co953 O978 1.941 . S
C954 O955 1.258 . S
C954 O956 1.263 . S
O955 Co952 1.970 . S
O955 C954 1.258 . S
O956 Co953 1.966 . S
O956 C954 1.263 . S
C957 O958 1.235 . S
C957 O984 1.289 . S
O958 C957 1.235 . S
C959 C961 1.400 . S
C959 N962 1.351 . S
C959 C964 1.501 . S
C960 C961 1.387 . S
C960 N963 1.341 . S
C961 C959 1.400 . S
C961 C960 1.387 . S
N962 Co953 2.022 . S
N962 C959 1.351 . S
N962 N963 1.365 . S
N963 C960 1.341 . S
N963 N962 1.365 . S
N963 H983 0.862 . S
C964 C959 1.501 . S
C964 H965 0.961 . S
C964 H966 0.961 . S
C964 H967 0.960 . S
H965 C964 0.961 . S
H966 C964 0.961 . S
H967 C964 0.960 . S
C968 N969 1.342 . S
C968 C972 1.401 . S
C968 C973 1.499 . S
N969 Co952 1.989 . S
N969 C968 1.342 . S
N969 N970 1.388 . S
N970 Co953 1.993 . S
N970 N969 1.388 . S
N970 C971 1.346 . S
C971 N970 1.346 . S
C971 C972 1.396 . S
C971 C981 1.510 . S
C972 C968 1.401 . S
C972 C971 1.396 . S
C973 C968 1.499 . S
C973 H974 0.959 . S
C973 H975 0.960 . S
C973 H976 0.961 . S
H974 C973 0.959 . S
H975 C973 0.960 . S
H976 C973 0.961 . S
O977 Co952 1.967 . S
O977 C985 1.258 . S
O978 Co953 1.941 . S
O978 C985 1.266 . S
H979 C981 0.959 . S
H980 C981 0.961 . S
C981 C971 1.510 . S
C981 H979 0.959 . S
C981 H980 0.961 . S
C981 H982 0.960 . S
H982 C981 0.960 . S
H983 N963 0.862 . S
O984 Co952 1.920 . S
O984 C957 1.289 . S
C985 O977 1.258 . S
C985 O978 1.266 . S
Co986 O989 1.970 . S
Co986 N1003 1.989 . S
Co986 O1011 1.967 . S
Co986 O1018 1.920 . S
Co987 O990 1.966 . S
Co987 N996 2.022 . S
Co987 N1004 1.993 . S
Co987 O1012 1.941 . S
C988 O989 1.258 . S
C988 O990 1.263 . S
O989 Co986 1.970 . S
O989 C988 1.258 . S
O990 Co987 1.966 . S
O990 C988 1.263 . S
C991 O992 1.235 . S
C991 O1018 1.289 . S
O992 C991 1.235 . S
C993 C995 1.400 . S
C993 N996 1.351 . S
C993 C998 1.501 . S
C994 C995 1.387 . S
C994 N997 1.341 . S
C995 C993 1.400 . S
C995 C994 1.387 . S
N996 Co987 2.022 . S
N996 C993 1.351 . S
N996 N997 1.365 . S
N997 C994 1.341 . S
N997 N996 1.365 . S
N997 H1017 0.862 . S
C998 C993 1.501 . S
C998 H999 0.961 . S
C998 H1000 0.961 . S
C998 H1001 0.960 . S
H999 C998 0.961 . S
H1000 C998 0.961 . S
H1001 C998 0.960 . S
C1002 N1003 1.342 . S
C1002 C1006 1.401 . S
C1002 C1007 1.499 . S
N1003 Co986 1.989 . S
N1003 C1002 1.342 . S
N1003 N1004 1.388 . S
N1004 Co987 1.993 . S
N1004 N1003 1.388 . S
N1004 C1005 1.346 . S
C1005 N1004 1.346 . S
C1005 C1006 1.396 . S
C1005 C1015 1.510 . S
C1006 C1002 1.401 . S
C1006 C1005 1.396 . S
C1007 C1002 1.499 . S
C1007 H1008 0.959 . S
C1007 H1009 0.960 . S
C1007 H1010 0.961 . S
H1008 C1007 0.959 . S
H1009 C1007 0.960 . S
H1010 C1007 0.961 . S
O1011 Co986 1.967 . S
O1011 C1019 1.258 . S
O1012 Co987 1.941 . S
O1012 C1019 1.266 . S
H1013 C1015 0.959 . S
H1014 C1015 0.961 . S
C1015 C1005 1.510 . S
C1015 H1013 0.959 . S
C1015 H1014 0.961 . S
C1015 H1016 0.960 . S
H1016 C1015 0.960 . S
H1017 N997 0.862 . S
O1018 Co986 1.920 . S
O1018 C991 1.289 . S
C1019 O1011 1.258 . S
C1019 O1012 1.266 . S
Co1020 O1023 1.970 . S
Co1020 N1037 1.989 . S
Co1020 O1045 1.967 . S
Co1020 O1052 1.920 . S
Co1021 O1024 1.966 . S
Co1021 N1030 2.022 . S
Co1021 N1038 1.993 . S
Co1021 O1046 1.941 . S
C1022 O1023 1.258 . S
C1022 O1024 1.263 . S
O1023 Co1020 1.970 . S
O1023 C1022 1.258 . S
O1024 Co1021 1.966 . S
O1024 C1022 1.263 . S
C1025 O1026 1.235 . S
C1025 O1052 1.289 . S
O1026 C1025 1.235 . S
C1027 C1029 1.400 . S
C1027 N1030 1.351 . S
C1027 C1032 1.501 . S
C1028 C1029 1.387 . S
C1028 N1031 1.341 . S
C1029 C1027 1.400 . S
C1029 C1028 1.387 . S
N1030 Co1021 2.022 . S
N1030 C1027 1.351 . S
N1030 N1031 1.365 . S
N1031 C1028 1.341 . S
N1031 N1030 1.365 . S
N1031 H1051 0.862 . S
C1032 C1027 1.501 . S
C1032 H1033 0.961 . S
C1032 H1034 0.961 . S
C1032 H1035 0.960 . S
H1033 C1032 0.961 . S
H1034 C1032 0.961 . S
H1035 C1032 0.960 . S
C1036 N1037 1.342 . S
C1036 C1040 1.401 . S
C1036 C1041 1.499 . S
N1037 Co1020 1.989 . S
N1037 C1036 1.342 . S
N1037 N1038 1.388 . S
N1038 Co1021 1.993 . S
N1038 N1037 1.388 . S
N1038 C1039 1.346 . S
C1039 N1038 1.346 . S
C1039 C1040 1.396 . S
C1039 C1049 1.510 . S
C1040 C1036 1.401 . S
C1040 C1039 1.396 . S
C1041 C1036 1.499 . S
C1041 H1042 0.959 . S
C1041 H1043 0.960 . S
C1041 H1044 0.961 . S
H1042 C1041 0.959 . S
H1043 C1041 0.960 . S
H1044 C1041 0.961 . S
O1045 Co1020 1.967 . S
O1045 C1053 1.258 . S
O1046 Co1021 1.941 . S
O1046 C1053 1.266 . S
H1047 C1049 0.959 . S
H1048 C1049 0.961 . S
C1049 C1039 1.510 . S
C1049 H1047 0.959 . S
C1049 H1048 0.961 . S
C1049 H1050 0.960 . S
H1050 C1049 0.960 . S
H1051 N1031 0.862 . S
O1052 Co1020 1.920 . S
O1052 C1025 1.289 . S
C1053 O1045 1.258 . S
C1053 O1046 1.266 . S
Co1054 O1057 1.970 . S
Co1054 N1071 1.989 . S
Co1054 O1079 1.967 . S
Co1054 O1086 1.920 . S
Co1055 O1058 1.966 . S
Co1055 N1064 2.022 . S
Co1055 N1072 1.993 . S
Co1055 O1080 1.941 . S
C1056 O1057 1.258 . S
C1056 O1058 1.263 . S
O1057 Co1054 1.970 . S
O1057 C1056 1.258 . S
O1058 Co1055 1.966 . S
O1058 C1056 1.263 . S
C1059 O1060 1.235 . S
C1059 O1086 1.289 . S
O1060 C1059 1.235 . S
C1061 C1063 1.400 . S
C1061 N1064 1.351 . S
C1061 C1066 1.501 . S
C1062 C1063 1.387 . S
C1062 N1065 1.341 . S
C1063 C1061 1.400 . S
C1063 C1062 1.387 . S
N1064 Co1055 2.022 . S
N1064 C1061 1.351 . S
N1064 N1065 1.365 . S
N1065 C1062 1.341 . S
N1065 N1064 1.365 . S
N1065 H1085 0.862 . S
C1066 C1061 1.501 . S
C1066 H1067 0.961 . S
C1066 H1068 0.961 . S
C1066 H1069 0.960 . S
H1067 C1066 0.961 . S
H1068 C1066 0.961 . S
H1069 C1066 0.960 . S
C1070 N1071 1.342 . S
C1070 C1074 1.401 . S
C1070 C1075 1.499 . S
N1071 Co1054 1.989 . S
N1071 C1070 1.342 . S
N1071 N1072 1.388 . S
N1072 Co1055 1.993 . S
N1072 N1071 1.388 . S
N1072 C1073 1.346 . S
C1073 N1072 1.346 . S
C1073 C1074 1.396 . S
C1073 C1083 1.510 . S
C1074 C1070 1.401 . S
C1074 C1073 1.396 . S
C1075 C1070 1.499 . S
C1075 H1076 0.959 . S
C1075 H1077 0.960 . S
C1075 H1078 0.961 . S
H1076 C1075 0.959 . S
H1077 C1075 0.960 . S
H1078 C1075 0.961 . S
O1079 Co1054 1.967 . S
O1079 C1087 1.258 . S
O1080 Co1055 1.941 . S
O1080 C1087 1.266 . S
H1081 C1083 0.959 . S
H1082 C1083 0.961 . S
C1083 C1073 1.510 . S
C1083 H1081 0.959 . S
C1083 H1082 0.961 . S
C1083 H1084 0.960 . S
H1084 C1083 0.960 . S
H1085 N1065 0.862 . S
O1086 Co1054 1.920 . S
O1086 C1059 1.289 . S
C1087 O1079 1.258 . S
C1087 O1080 1.266 . S
Co1088 O1091 1.970 . S
Co1088 N1105 1.989 . S
Co1088 O1113 1.967 . S
Co1088 O1120 1.920 . S
Co1089 O1092 1.966 . S
Co1089 N1098 2.022 . S
Co1089 N1106 1.993 . S
Co1089 O1114 1.941 . S
C1090 O1091 1.258 . S
C1090 O1092 1.263 . S
O1091 Co1088 1.970 . S
O1091 C1090 1.258 . S
O1092 Co1089 1.966 . S
O1092 C1090 1.263 . S
C1093 O1094 1.235 . S
C1093 O1120 1.289 . S
O1094 C1093 1.235 . S
C1095 C1097 1.400 . S
C1095 N1098 1.351 . S
C1095 C1100 1.501 . S
C1096 C1097 1.387 . S
C1096 N1099 1.341 . S
C1097 C1095 1.400 . S
C1097 C1096 1.387 . S
N1098 Co1089 2.022 . S
N1098 C1095 1.351 . S
N1098 N1099 1.365 . S
N1099 C1096 1.341 . S
N1099 N1098 1.365 . S
N1099 H1119 0.862 . S
C1100 C1095 1.501 . S
C1100 H1101 0.961 . S
C1100 H1102 0.961 . S
C1100 H1103 0.960 . S
H1101 C1100 0.961 . S
H1102 C1100 0.961 . S
H1103 C1100 0.960 . S
C1104 N1105 1.342 . S
C1104 C1108 1.401 . S
C1104 C1109 1.499 . S
N1105 Co1088 1.989 . S
N1105 C1104 1.342 . S
N1105 N1106 1.388 . S
N1106 Co1089 1.993 . S
N1106 N1105 1.388 . S
N1106 C1107 1.346 . S
C1107 N1106 1.346 . S
C1107 C1108 1.396 . S
C1107 C1117 1.510 . S
C1108 C1104 1.401 . S
C1108 C1107 1.396 . S
C1109 C1104 1.499 . S
C1109 H1110 0.959 . S
C1109 H1111 0.960 . S
C1109 H1112 0.961 . S
H1110 C1109 0.959 . S
H1111 C1109 0.960 . S
H1112 C1109 0.961 . S
O1113 Co1088 1.967 . S
O1113 C1121 1.258 . S
O1114 Co1089 1.941 . S
O1114 C1121 1.266 . S
H1115 C1117 0.959 . S
H1116 C1117 0.961 . S
C1117 C1107 1.510 . S
C1117 H1115 0.959 . S
C1117 H1116 0.961 . S
C1117 H1118 0.960 . S
H1118 C1117 0.960 . S
H1119 N1099 0.862 . S
O1120 Co1088 1.920 . S
O1120 C1093 1.289 . S
C1121 O1113 1.258 . S
C1121 O1114 1.266 . S
Co1122 O1125 1.970 . S
Co1122 N1139 1.989 . S
Co1122 O1147 1.967 . S
Co1122 O1154 1.920 . S
Co1123 O1126 1.966 . S
Co1123 N1132 2.022 . S
Co1123 N1140 1.993 . S
Co1123 O1148 1.941 . S
C1124 O1125 1.258 . S
C1124 O1126 1.263 . S
O1125 Co1122 1.970 . S
O1125 C1124 1.258 . S
O1126 Co1123 1.966 . S
O1126 C1124 1.263 . S
C1127 O1128 1.235 . S
C1127 O1154 1.289 . S
O1128 C1127 1.235 . S
C1129 C1131 1.400 . S
C1129 N1132 1.351 . S
C1129 C1134 1.501 . S
C1130 C1131 1.387 1_655 S
C1130 N1133 1.341 1_655 S
C1131 C1129 1.400 . S
C1131 C1130 1.387 1_455 S
N1132 Co1123 2.022 . S
N1132 C1129 1.351 . S
N1132 N1133 1.365 . S
N1133 C1130 1.341 1_455 S
N1133 N1132 1.365 . S
N1133 H1153 0.862 1_455 S
C1134 C1129 1.501 . S
C1134 H1135 0.961 . S
C1134 H1136 0.961 . S
C1134 H1137 0.960 . S
H1135 C1134 0.961 . S
H1136 C1134 0.961 . S
H1137 C1134 0.960 . S
C1138 N1139 1.342 . S
C1138 C1142 1.401 . S
C1138 C1143 1.499 . S
N1139 Co1122 1.989 . S
N1139 C1138 1.342 . S
N1139 N1140 1.388 . S
N1140 Co1123 1.993 . S
N1140 N1139 1.388 . S
N1140 C1141 1.346 . S
C1141 N1140 1.346 . S
C1141 C1142 1.396 . S
C1141 C1151 1.510 . S
C1142 C1138 1.401 . S
C1142 C1141 1.396 . S
C1143 C1138 1.499 . S
C1143 H1144 0.959 . S
C1143 H1145 0.960 . S
C1143 H1146 0.961 . S
H1144 C1143 0.959 . S
H1145 C1143 0.960 . S
H1146 C1143 0.961 . S
O1147 Co1122 1.967 . S
O1147 C1155 1.258 . S
O1148 Co1123 1.941 . S
O1148 C1155 1.266 . S
H1149 C1151 0.959 1_655 S
H1150 C1151 0.961 . S
C1151 C1141 1.510 . S
C1151 H1149 0.959 1_455 S
C1151 H1150 0.961 . S
C1151 H1152 0.960 . S
H1152 C1151 0.960 . S
H1153 N1133 0.862 1_655 S
O1154 Co1122 1.920 . S
O1154 C1127 1.289 . S
C1155 O1147 1.258 . S
C1155 O1148 1.266 . S
Co1156 O1159 1.970 . S
Co1156 N1173 1.989 . S
Co1156 O1181 1.967 . S
Co1156 O1188 1.920 . S
Co1157 O1160 1.966 . S
Co1157 N1166 2.022 . S
Co1157 N1174 1.993 . S
Co1157 O1182 1.941 . S
C1158 O1159 1.258 . S
C1158 O1160 1.263 . S
O1159 Co1156 1.970 . S
O1159 C1158 1.258 . S
O1160 Co1157 1.966 . S
O1160 C1158 1.263 . S
C1161 O1162 1.235 . S
C1161 O1188 1.289 . S
O1162 C1161 1.235 . S
C1163 C1165 1.400 . S
C1163 N1166 1.351 . S
C1163 C1168 1.501 . S
C1164 C1165 1.387 . S
C1164 N1167 1.341 . S
C1165 C1163 1.400 . S
C1165 C1164 1.387 . S
N1166 Co1157 2.022 . S
N1166 C1163 1.351 . S
N1166 N1167 1.365 . S
N1167 C1164 1.341 . S
N1167 N1166 1.365 . S
N1167 H1187 0.862 . S
C1168 C1163 1.501 . S
C1168 H1169 0.961 . S
C1168 H1170 0.961 . S
C1168 H1171 0.960 . S
H1169 C1168 0.961 . S
H1170 C1168 0.961 . S
H1171 C1168 0.960 . S
C1172 N1173 1.342 . S
C1172 C1176 1.401 . S
C1172 C1177 1.499 . S
N1173 Co1156 1.989 . S
N1173 C1172 1.342 . S
N1173 N1174 1.388 . S
N1174 Co1157 1.993 . S
N1174 N1173 1.388 . S
N1174 C1175 1.346 . S
C1175 N1174 1.346 . S
C1175 C1176 1.396 . S
C1175 C1185 1.510 . S
C1176 C1172 1.401 . S
C1176 C1175 1.396 . S
C1177 C1172 1.499 . S
C1177 H1178 0.959 . S
C1177 H1179 0.960 . S
C1177 H1180 0.961 . S
H1178 C1177 0.959 . S
H1179 C1177 0.960 . S
H1180 C1177 0.961 . S
O1181 Co1156 1.967 . S
O1181 C1189 1.258 . S
O1182 Co1157 1.941 . S
O1182 C1189 1.266 . S
H1183 C1185 0.959 . S
H1184 C1185 0.961 . S
C1185 C1175 1.510 . S
C1185 H1183 0.959 . S
C1185 H1184 0.961 . S
C1185 H1186 0.960 . S
H1186 C1185 0.960 . S
H1187 N1167 0.862 . S
O1188 Co1156 1.920 . S
O1188 C1161 1.289 . S
C1189 O1181 1.258 . S
C1189 O1182 1.266 . S
Co1190 O1193 1.970 . S
Co1190 N1207 1.989 . S
Co1190 O1215 1.967 . S
Co1190 O1222 1.920 . S
Co1191 O1194 1.966 . S
Co1191 N1200 2.022 . S
Co1191 N1208 1.993 . S
Co1191 O1216 1.941 . S
C1192 O1193 1.258 . S
C1192 O1194 1.263 . S
O1193 Co1190 1.970 . S
O1193 C1192 1.258 . S
O1194 Co1191 1.966 . S
O1194 C1192 1.263 . S
C1195 O1196 1.235 . S
C1195 O1222 1.289 . S
O1196 C1195 1.235 . S
C1197 C1199 1.400 . S
C1197 N1200 1.351 . S
C1197 C1202 1.501 . S
C1198 C1199 1.387 1_545 S
C1198 N1201 1.341 1_545 S
C1199 C1197 1.400 . S
C1199 C1198 1.387 1_565 S
N1200 Co1191 2.022 . S
N1200 C1197 1.351 . S
N1200 N1201 1.365 . S
N1201 C1198 1.341 1_565 S
N1201 N1200 1.365 . S
N1201 H1221 0.862 1_565 S
C1202 C1197 1.501 . S
C1202 H1203 0.961 . S
C1202 H1204 0.961 . S
C1202 H1205 0.960 . S
H1203 C1202 0.961 . S
H1204 C1202 0.961 . S
H1205 C1202 0.960 . S
C1206 N1207 1.342 . S
C1206 C1210 1.401 . S
C1206 C1211 1.499 . S
N1207 Co1190 1.989 . S
N1207 C1206 1.342 . S
N1207 N1208 1.388 . S
N1208 Co1191 1.993 . S
N1208 N1207 1.388 . S
N1208 C1209 1.346 . S
C1209 N1208 1.346 . S
C1209 C1210 1.396 . S
C1209 C1219 1.510 . S
C1210 C1206 1.401 . S
C1210 C1209 1.396 . S
C1211 C1206 1.499 . S
C1211 H1212 0.959 . S
C1211 H1213 0.960 . S
C1211 H1214 0.961 . S
H1212 C1211 0.959 . S
H1213 C1211 0.960 . S
H1214 C1211 0.961 . S
O1215 Co1190 1.967 . S
O1215 C1223 1.258 . S
O1216 Co1191 1.941 . S
O1216 C1223 1.266 . S
H1217 C1219 0.959 1_545 S
H1218 C1219 0.961 . S
C1219 C1209 1.510 . S
C1219 H1217 0.959 1_565 S
C1219 H1218 0.961 . S
C1219 H1220 0.960 . S
H1220 C1219 0.960 . S
H1221 N1201 0.862 1_545 S
O1222 Co1190 1.920 . S
O1222 C1195 1.289 . S
C1223 O1215 1.258 . S
C1223 O1216 1.266 . S
H1224 C1236 0.930 . S
H1225 C1238 0.930 . S
H1226 C1239 0.930 . S
H1227 C1243 0.959 . S
H1228 C1243 0.959 . S
H1229 C1243 0.961 . S
H1230 C1244 0.960 . S
H1231 C1244 0.961 . S
H1232 C1244 0.959 . S
H1233 C1247 0.929 . S
H1234 C1248 0.931 1_565 S
H1235 C1250 0.930 . S
C1236 H1224 0.930 . S
C1236 C1237 1.399 . S
C1236 C1241 1.399 . S
C1237 C1236 1.399 . S
C1237 C1238 1.376 . S
C1238 H1225 0.930 . S
C1238 C1237 1.376 . S
C1238 C1239 1.388 . S
C1239 H1226 0.930 . S
C1239 C1238 1.388 . S
C1239 C1240 1.390 . S
C1240 C1239 1.390 . S
C1240 C1241 1.394 . S
C1240 C1246 1.465 . S
C1241 C1236 1.399 . S
C1241 C1240 1.394 . S
C1241 C1242 1.516 . S
C1242 C1241 1.516 . S
C1242 C1243 1.502 . S
C1242 C1244 1.561 . S
C1242 C1245 1.526 . S
C1243 H1227 0.959 . S
C1243 H1228 0.959 . S
C1243 H1229 0.961 . S
C1243 C1242 1.502 . S
C1244 H1230 0.960 . S
C1244 H1231 0.961 . S
C1244 H1232 0.959 . S
C1244 C1242 1.561 . S
C1245 C1242 1.526 . S
C1245 C1246 1.396 . S
C1245 C1250 1.390 . S
C1246 C1240 1.465 . S
C1246 C1245 1.396 . S
C1246 C1247 1.399 . S
C1247 H1233 0.929 . S
C1247 C1246 1.399 . S
C1247 C1248 1.385 . S
C1248 H1234 0.931 1_545 S
C1248 C1247 1.385 . S
C1248 C1249 1.389 1_545 S
C1249 C1248 1.389 1_565 S
C1249 C1250 1.387 1_565 S
C1250 H1235 0.930 . S
C1250 C1245 1.390 . S
C1250 C1249 1.387 1_545 S
H1251 C1263 0.930 . S
H1252 C1265 0.930 . S
H1253 C1266 0.930 . S
H1254 C1270 0.959 . S
H1255 C1270 0.959 . S
H1256 C1270 0.961 . S
H1257 C1271 0.960 . S
H1258 C1271 0.961 . S
H1259 C1271 0.959 . S
H1260 C1274 0.929 . S
H1261 C1275 0.931 . S
H1262 C1277 0.930 . S
C1263 H1251 0.930 . S
C1263 C1264 1.399 1_655 S
C1263 C1268 1.399 . S
C1264 C1263 1.399 1_455 S
C1264 C1265 1.376 . S
C1265 H1252 0.930 . S
C1265 C1264 1.376 . S
C1265 C1266 1.388 1_455 S
C1266 H1253 0.930 . S
C1266 C1265 1.388 1_655 S
C1266 C1267 1.390 . S
C1267 C1266 1.390 . S
C1267 C1268 1.394 . S
C1267 C1273 1.465 . S
C1268 C1263 1.399 . S
C1268 C1267 1.394 . S
C1268 C1269 1.516 . S
C1269 C1268 1.516 . S
C1269 C1270 1.502 . S
C1269 C1271 1.561 . S
C1269 C1272 1.526 . S
C1270 H1254 0.959 . S
C1270 H1255 0.959 . S
C1270 H1256 0.961 . S
C1270 C1269 1.502 . S
C1271 H1257 0.960 . S
C1271 H1258 0.961 . S
C1271 H1259 0.959 . S
C1271 C1269 1.561 . S
C1272 C1269 1.526 . S
C1272 C1273 1.396 . S
C1272 C1277 1.390 . S
C1273 C1267 1.465 . S
C1273 C1272 1.396 . S
C1273 C1274 1.399 . S
C1274 H1260 0.929 . S
C1274 C1273 1.399 . S
C1274 C1275 1.385 1_545 S
C1275 H1261 0.931 . S
C1275 C1274 1.385 1_565 S
C1275 C1276 1.389 . S
C1276 C1275 1.389 . S
C1276 C1277 1.387 1_565 S
C1277 H1262 0.930 . S
C1277 C1272 1.390 . S
C1277 C1276 1.387 1_545 S
H1278 C1290 0.930 . S
H1279 C1292 0.930 . S
H1280 C1293 0.930 . S
H1281 C1297 0.959 . S
H1282 C1297 0.959 . S
H1283 C1297 0.961 . S
H1284 C1298 0.960 . S
H1285 C1298 0.961 . S
H1286 C1298 0.959 . S
H1287 C1301 0.929 . S
H1288 C1302 0.931 . S
H1289 C1304 0.930 1_455 S
C1290 H1278 0.930 . S
C1290 C1291 1.399 . S
C1290 C1295 1.399 . S
C1291 C1290 1.399 . S
C1291 C1292 1.376 . S
C1292 H1279 0.930 . S
C1292 C1291 1.376 . S
C1292 C1293 1.388 . S
C1293 H1280 0.930 . S
C1293 C1292 1.388 . S
C1293 C1294 1.390 . S
C1294 C1293 1.390 . S
C1294 C1295 1.394 . S
C1294 C1300 1.465 . S
C1295 C1290 1.399 . S
C1295 C1294 1.394 . S
C1295 C1296 1.516 . S
C1296 C1295 1.516 . S
C1296 C1297 1.502 . S
C1296 C1298 1.561 . S
C1296 C1299 1.526 . S
C1297 H1281 0.959 . S
C1297 H1282 0.959 . S
C1297 H1283 0.961 . S
C1297 C1296 1.502 . S
C1298 H1284 0.960 . S
C1298 H1285 0.961 . S
C1298 H1286 0.959 . S
C1298 C1296 1.561 . S
C1299 C1296 1.526 . S
C1299 C1300 1.396 . S
C1299 C1304 1.390 . S
C1300 C1294 1.465 . S
C1300 C1299 1.396 . S
C1300 C1301 1.399 . S
C1301 H1287 0.929 . S
C1301 C1300 1.399 . S
C1301 C1302 1.385 . S
C1302 H1288 0.931 . S
C1302 C1301 1.385 . S
C1302 C1303 1.389 1_655 S
C1303 C1302 1.389 1_455 S
C1303 C1304 1.387 1_455 S
C1304 H1289 0.930 1_655 S
C1304 C1299 1.390 . S
C1304 C1303 1.387 1_655 S
H1305 C1317 0.930 . S
H1306 C1319 0.930 . S
H1307 C1320 0.930 1_655 S
H1308 C1324 0.959 . S
H1309 C1324 0.959 . S
H1310 C1324 0.961 . S
H1311 C1325 0.960 . S
H1312 C1325 0.961 . S
H1313 C1325 0.959 . S
H1314 C1328 0.929 . S
H1315 C1329 0.931 . S
H1316 C1331 0.930 . S
C1317 H1305 0.930 . S
C1317 C1318 1.399 1_455 S
C1317 C1322 1.399 . S
C1318 C1317 1.399 1_655 S
C1318 C1319 1.376 . S
C1319 H1306 0.930 . S
C1319 C1318 1.376 . S
C1319 C1320 1.388 1_655 S
C1320 H1307 0.930 1_455 S
C1320 C1319 1.388 1_455 S
C1320 C1321 1.390 . S
C1321 C1320 1.390 . S
C1321 C1322 1.394 . S
C1321 C1327 1.465 . S
C1322 C1317 1.399 . S
C1322 C1321 1.394 . S
C1322 C1323 1.516 . S
C1323 C1322 1.516 . S
C1323 C1324 1.502 . S
C1323 C1325 1.561 . S
C1323 C1326 1.526 . S
C1324 H1308 0.959 . S
C1324 H1309 0.959 . S
C1324 H1310 0.961 . S
C1324 C1323 1.502 . S
C1325 H1311 0.960 . S
C1325 H1312 0.961 . S
C1325 H1313 0.959 . S
C1325 C1323 1.561 . S
C1326 C1323 1.526 . S
C1326 C1327 1.396 . S
C1326 C1331 1.390 . S
C1327 C1321 1.465 . S
C1327 C1326 1.396 . S
C1327 C1328 1.399 . S
C1328 H1314 0.929 . S
C1328 C1327 1.399 . S
C1328 C1329 1.385 . S
C1329 H1315 0.931 . S
C1329 C1328 1.385 . S
C1329 C1330 1.389 . S
C1330 C1329 1.389 . S
C1330 C1331 1.387 . S
C1331 H1316 0.930 . S
C1331 C1326 1.390 . S
C1331 C1330 1.387 . S
H1332 C1344 0.930 . S
H1333 C1346 0.930 . S
H1334 C1347 0.930 . S
H1335 C1351 0.959 . S
H1336 C1351 0.959 . S
H1337 C1351 0.961 . S
H1338 C1352 0.960 . S
H1339 C1352 0.961 . S
H1340 C1352 0.959 . S
H1341 C1355 0.929 . S
H1342 C1356 0.931 1_545 S
H1343 C1358 0.930 . S
C1344 H1332 0.930 . S
C1344 C1345 1.399 . S
C1344 C1349 1.399 . S
C1345 C1344 1.399 . S
C1345 C1346 1.376 . S
C1346 H1333 0.930 . S
C1346 C1345 1.376 . S
C1346 C1347 1.388 . S
C1347 H1334 0.930 . S
C1347 C1346 1.388 . S
C1347 C1348 1.390 . S
C1348 C1347 1.390 . S
C1348 C1349 1.394 . S
C1348 C1354 1.465 . S
C1349 C1344 1.399 . S
C1349 C1348 1.394 . S
C1349 C1350 1.516 . S
C1350 C1349 1.516 . S
C1350 C1351 1.502 . S
C1350 C1352 1.561 . S
C1350 C1353 1.526 . S
C1351 H1335 0.959 . S
C1351 H1336 0.959 . S
C1351 H1337 0.961 . S
C1351 C1350 1.502 . S
C1352 H1338 0.960 . S
C1352 H1339 0.961 . S
C1352 H1340 0.959 . S
C1352 C1350 1.561 . S
C1353 C1350 1.526 . S
C1353 C1354 1.396 . S
C1353 C1358 1.390 . S
C1354 C1348 1.465 . S
C1354 C1353 1.396 . S
C1354 C1355 1.399 . S
C1355 H1341 0.929 . S
C1355 C1354 1.399 . S
C1355 C1356 1.385 . S
C1356 H1342 0.931 1_565 S
C1356 C1355 1.385 . S
C1356 C1357 1.389 1_565 S
C1357 C1356 1.389 1_545 S
C1357 C1358 1.387 1_545 S
C1358 H1343 0.930 . S
C1358 C1353 1.390 . S
C1358 C1357 1.387 1_565 S
H1359 C1371 0.930 . S
H1360 C1373 0.930 . S
H1361 C1374 0.930 . S
H1362 C1378 0.959 . S
H1363 C1378 0.959 . S
H1364 C1378 0.961 . S
H1365 C1379 0.960 . S
H1366 C1379 0.961 . S
H1367 C1379 0.959 . S
H1368 C1382 0.929 . S
H1369 C1383 0.931 . S
H1370 C1385 0.930 . S
C1371 H1359 0.930 . S
C1371 C1372 1.399 1_565 S
C1371 C1376 1.399 . S
C1372 C1371 1.399 1_545 S
C1372 C1373 1.376 . S
C1373 H1360 0.930 . S
C1373 C1372 1.376 . S
C1373 C1374 1.388 1_545 S
C1374 H1361 0.930 . S
C1374 C1373 1.388 1_565 S
C1374 C1375 1.390 . S
C1375 C1374 1.390 . S
C1375 C1376 1.394 . S
C1375 C1381 1.465 . S
C1376 C1371 1.399 . S
C1376 C1375 1.394 . S
C1376 C1377 1.516 . S
C1377 C1376 1.516 . S
C1377 C1378 1.502 . S
C1377 C1379 1.561 . S
C1377 C1380 1.526 . S
C1378 H1362 0.959 . S
C1378 H1363 0.959 . S
C1378 H1364 0.961 . S
C1378 C1377 1.502 . S
C1379 H1365 0.960 . S
C1379 H1366 0.961 . S
C1379 H1367 0.959 . S
C1379 C1377 1.561 . S
C1380 C1377 1.526 . S
C1380 C1381 1.396 . S
C1380 C1385 1.390 . S
C1381 C1375 1.465 . S
C1381 C1380 1.396 . S
C1381 C1382 1.399 . S
C1382 H1368 0.929 . S
C1382 C1381 1.399 . S
C1382 C1383 1.385 1_455 S
C1383 H1369 0.931 . S
C1383 C1382 1.385 1_655 S
C1383 C1384 1.389 . S
C1384 C1383 1.389 . S
C1384 C1385 1.387 1_655 S
C1385 H1370 0.930 . S
C1385 C1380 1.390 . S
C1385 C1384 1.387 1_455 S
H1386 C1398 0.930 . S
H1387 C1400 0.930 . S
H1388 C1401 0.930 . S
H1389 C1405 0.959 . S
H1390 C1405 0.959 . S
H1391 C1405 0.961 . S
H1392 C1406 0.960 . S
H1393 C1406 0.961 . S
H1394 C1406 0.959 . S
H1395 C1409 0.929 . S
H1396 C1410 0.931 . S
H1397 C1412 0.930 . S
C1398 H1386 0.930 . S
C1398 C1399 1.399 1_565 S
C1398 C1403 1.399 . S
C1399 C1398 1.399 1_545 S
C1399 C1400 1.376 . S
C1400 H1387 0.930 . S
C1400 C1399 1.376 . S
C1400 C1401 1.388 1_545 S
C1401 H1388 0.930 . S
C1401 C1400 1.388 1_565 S
C1401 C1402 1.390 . S
C1402 C1401 1.390 . S
C1402 C1403 1.394 . S
C1402 C1408 1.465 . S
C1403 C1398 1.399 . S
C1403 C1402 1.394 . S
C1403 C1404 1.516 . S
C1404 C1403 1.516 . S
C1404 C1405 1.502 . S
C1404 C1406 1.561 . S
C1404 C1407 1.526 . S
C1405 H1389 0.959 . S
C1405 H1390 0.959 . S
C1405 H1391 0.961 . S
C1405 C1404 1.502 . S
C1406 H1392 0.960 . S
C1406 H1393 0.961 . S
C1406 H1394 0.959 . S
C1406 C1404 1.561 . S
C1407 C1404 1.526 . S
C1407 C1408 1.396 . S
C1407 C1412 1.390 . S
C1408 C1402 1.465 . S
C1408 C1407 1.396 . S
C1408 C1409 1.399 . S
C1409 H1395 0.929 . S
C1409 C1408 1.399 . S
C1409 C1410 1.385 . S
C1410 H1396 0.931 . S
C1410 C1409 1.385 . S
C1410 C1411 1.389 . S
C1411 C1410 1.389 . S
C1411 C1412 1.387 . S
C1412 H1397 0.930 . S
C1412 C1407 1.390 . S
C1412 C1411 1.387 . S
H1413 C1425 0.930 . S
H1414 C1427 0.930 . S
H1415 C1428 0.930 . S
H1416 C1432 0.959 . S
H1417 C1432 0.959 . S
H1418 C1432 0.961 . S
H1419 C1433 0.960 . S
H1420 C1433 0.961 . S
H1421 C1433 0.959 . S
H1422 C1436 0.929 1_655 S
H1423 C1437 0.931 . S
H1424 C1439 0.930 . S
C1425 H1413 0.930 . S
C1425 C1426 1.399 1_565 S
C1425 C1430 1.399 . S
C1426 C1425 1.399 1_545 S
C1426 C1427 1.376 . S
C1427 H1414 0.930 . S
C1427 C1426 1.376 . S
C1427 C1428 1.388 1_545 S
C1428 H1415 0.930 . S
C1428 C1427 1.388 1_565 S
C1428 C1429 1.390 . S
C1429 C1428 1.390 . S
C1429 C1430 1.394 . S
C1429 C1435 1.465 . S
C1430 C1425 1.399 . S
C1430 C1429 1.394 . S
C1430 C1431 1.516 . S
C1431 C1430 1.516 . S
C1431 C1432 1.502 . S
C1431 C1433 1.561 . S
C1431 C1434 1.526 . S
C1432 H1416 0.959 . S
C1432 H1417 0.959 . S
C1432 H1418 0.961 . S
C1432 C1431 1.502 . S
C1433 H1419 0.960 . S
C1433 H1420 0.961 . S
C1433 H1421 0.959 . S
C1433 C1431 1.561 . S
C1434 C1431 1.526 . S
C1434 C1435 1.396 . S
C1434 C1439 1.390 . S
C1435 C1429 1.465 . S
C1435 C1434 1.396 . S
C1435 C1436 1.399 . S
C1436 H1422 0.929 1_455 S
C1436 C1435 1.399 . S
C1436 C1437 1.385 1_455 S
C1437 H1423 0.931 . S
C1437 C1436 1.385 1_655 S
C1437 C1438 1.389 . S
C1438 C1437 1.389 . S
C1438 C1439 1.387 1_655 S
C1439 H1424 0.930 . S
C1439 C1434 1.390 . S
C1439 C1438 1.387 1_455 S
H1440 C1452 0.930 . S
H1441 C1454 0.930 . S
H1442 C1455 0.930 . S
H1443 C1459 0.959 . S
H1444 C1459 0.959 . S
H1445 C1459 0.961 . S
H1446 C1460 0.960 . S
H1447 C1460 0.961 . S
H1448 C1460 0.959 . S
H1449 C1463 0.929 . S
H1450 C1464 0.931 1_655 S
H1451 C1466 0.930 . S
C1452 H1440 0.930 . S
C1452 C1453 1.399 . S
C1452 C1457 1.399 . S
C1453 C1452 1.399 . S
C1453 C1454 1.376 . S
C1454 H1441 0.930 . S
C1454 C1453 1.376 . S
C1454 C1455 1.388 . S
C1455 H1442 0.930 . S
C1455 C1454 1.388 . S
C1455 C1456 1.390 . S
C1456 C1455 1.390 . S
C1456 C1457 1.394 . S
C1456 C1462 1.465 . S
C1457 C1452 1.399 . S
C1457 C1456 1.394 . S
C1457 C1458 1.516 . S
C1458 C1457 1.516 . S
C1458 C1459 1.502 . S
C1458 C1460 1.561 . S
C1458 C1461 1.526 . S
C1459 H1443 0.959 . S
C1459 H1444 0.959 . S
C1459 H1445 0.961 . S
C1459 C1458 1.502 . S
C1460 H1446 0.960 . S
C1460 H1447 0.961 . S
C1460 H1448 0.959 . S
C1460 C1458 1.561 . S
C1461 C1458 1.526 . S
C1461 C1462 1.396 . S
C1461 C1466 1.390 . S
C1462 C1456 1.465 . S
C1462 C1461 1.396 . S
C1462 C1463 1.399 . S
C1463 H1449 0.929 . S
C1463 C1462 1.399 . S
C1463 C1464 1.385 . S
C1464 H1450 0.931 1_455 S
C1464 C1463 1.385 . S
C1464 C1465 1.389 1_455 S
C1465 C1464 1.389 1_655 S
C1465 C1466 1.387 1_655 S
C1466 H1451 0.930 . S
C1466 C1461 1.390 . S
C1466 C1465 1.387 1_455 S
H1467 C1479 0.918 1_455 S
H1468 C1481 0.930 . S
H1469 C1482 0.930 . S
H1470 C1486 0.959 . S
H1471 C1486 0.959 . S
H1472 C1486 0.961 . S
H1473 C1487 0.960 . S
H1474 C1487 0.961 . S
H1475 C1487 0.959 . S
H1476 C1490 0.929 . S
H1477 C1491 0.931 . S
H1478 C1493 0.930 . S
C1479 H1467 0.918 1_655 S
C1479 C1480 1.385 1_655 S
C1479 C1484 1.426 . S
C1480 C1479 1.385 1_455 S
C1480 C1481 1.376 1_455 S
C1481 H1468 0.930 . S
C1481 C1480 1.376 1_655 S
C1481 C1482 1.388 . S
C1482 H1469 0.930 . S
C1482 C1481 1.388 . S
C1482 C1483 1.390 . S
C1483 C1482 1.390 . S
C1483 C1484 1.394 . S
C1483 C1489 1.465 . S
C1484 C1479 1.426 . S
C1484 C1483 1.394 . S
C1484 C1485 1.516 . S
C1485 C1484 1.516 . S
C1485 C1486 1.502 . S
C1485 C1487 1.561 . S
C1485 C1488 1.526 . S
C1486 H1470 0.959 . S
C1486 H1471 0.959 . S
C1486 H1472 0.961 . S
C1486 C1485 1.502 . S
C1487 H1473 0.960 . S
C1487 H1474 0.961 . S
C1487 H1475 0.959 . S
C1487 C1485 1.561 . S
C1488 C1485 1.526 . S
C1488 C1489 1.396 . S
C1488 C1493 1.390 . S
C1489 C1483 1.465 . S
C1489 C1488 1.396 . S
C1489 C1490 1.399 . S
C1490 H1476 0.929 . S
C1490 C1489 1.399 . S
C1490 C1491 1.385 . S
C1491 H1477 0.931 . S
C1491 C1490 1.385 . S
C1491 C1492 1.389 . S
C1492 C1491 1.389 . S
C1492 C1493 1.387 . S
C1493 H1478 0.930 . S
C1493 C1488 1.390 . S
C1493 C1492 1.387 . S
H1494 C1506 0.930 . S
H1495 C1508 0.930 1_565 S
H1496 C1509 0.930 . S
H1497 C1513 0.959 . S
H1498 C1513 0.959 . S
H1499 C1513 0.961 . S
H1500 C1514 0.960 . S
H1501 C1514 0.961 . S
H1502 C1514 0.959 . S
H1503 C1517 0.929 . S
H1504 C1518 0.931 . S
H1505 C1520 0.930 . S
C1506 H1494 0.930 . S
C1506 C1507 1.399 1_545 S
C1506 C1511 1.399 . S
C1507 C1506 1.399 1_565 S
C1507 C1508 1.376 1_565 S
C1508 H1495 0.930 1_545 S
C1508 C1507 1.376 1_545 S
C1508 C1509 1.388 . S
C1509 H1496 0.930 . S
C1509 C1508 1.388 . S
C1509 C1510 1.390 . S
C1510 C1509 1.390 . S
C1510 C1511 1.394 . S
C1510 C1516 1.465 . S
C1511 C1506 1.399 . S
C1511 C1510 1.394 . S
C1511 C1512 1.516 . S
C1512 C1511 1.516 . S
C1512 C1513 1.502 . S
C1512 C1514 1.561 . S
C1512 C1515 1.526 . S
C1513 H1497 0.959 . S
C1513 H1498 0.959 . S
C1513 H1499 0.961 . S
C1513 C1512 1.502 . S
C1514 H1500 0.960 . S
C1514 H1501 0.961 . S
C1514 H1502 0.959 . S
C1514 C1512 1.561 . S
C1515 C1512 1.526 . S
C1515 C1516 1.396 . S
C1515 C1520 1.390 . S
C1516 C1510 1.465 . S
C1516 C1515 1.396 . S
C1516 C1517 1.399 . S
C1517 H1503 0.929 . S
C1517 C1516 1.399 . S
C1517 C1518 1.385 . S
C1518 H1504 0.931 . S
C1518 C1517 1.385 . S
C1518 C1519 1.389 . S
C1519 C1518 1.389 . S
C1519 C1520 1.387 . S
C1520 H1505 0.930 . S
C1520 C1515 1.390 . S
C1520 C1519 1.387 . S
H1521 C1533 0.930 . S
H1522 C1535 0.930 1_565 S
H1523 C1536 0.930 . S
H1524 C1540 0.959 . S
H1525 C1540 0.959 . S
H1526 C1540 0.961 . S
H1527 C1541 0.960 . S
H1528 C1541 0.961 . S
H1529 C1541 0.959 . S
H1530 C1544 0.929 . S
H1531 C1545 0.931 . S
H1532 C1547 0.930 1_455 S
C1533 H1521 0.930 . S
C1533 C1534 1.399 1_545 S
C1533 C1538 1.399 . S
C1534 C1533 1.399 1_565 S
C1534 C1535 1.376 1_565 S
C1535 H1522 0.930 1_545 S
C1535 C1534 1.376 1_545 S
C1535 C1536 1.388 . S
C1536 H1523 0.930 . S
C1536 C1535 1.388 . S
C1536 C1537 1.390 . S
C1537 C1536 1.390 . S
C1537 C1538 1.394 . S
C1537 C1543 1.465 . S
C1538 C1533 1.399 . S
C1538 C1537 1.394 . S
C1538 C1539 1.516 . S
C1539 C1538 1.516 . S
C1539 C1540 1.502 . S
C1539 C1541 1.561 . S
C1539 C1542 1.526 . S
C1540 H1524 0.959 . S
C1540 H1525 0.959 . S
C1540 H1526 0.961 . S
C1540 C1539 1.502 . S
C1541 H1527 0.960 . S
C1541 H1528 0.961 . S
C1541 H1529 0.959 . S
C1541 C1539 1.561 . S
C1542 C1539 1.526 . S
C1542 C1543 1.396 . S
C1542 C1547 1.390 . S
C1543 C1537 1.465 . S
C1543 C1542 1.396 . S
C1543 C1544 1.399 . S
C1544 H1530 0.929 . S
C1544 C1543 1.399 . S
C1544 C1545 1.385 . S
C1545 H1531 0.931 . S
C1545 C1544 1.385 . S
C1545 C1546 1.389 1_655 S
C1546 C1545 1.389 1_455 S
C1546 C1547 1.387 1_455 S
C1547 H1532 0.930 1_655 S
C1547 C1542 1.390 . S
C1547 C1546 1.387 1_655 S
H1548 C1560 0.930 . S
H1549 C1562 0.930 . S
H1550 C1563 0.930 . S
H1551 C1567 0.959 . S
H1552 C1567 0.959 . S
H1553 C1567 0.961 . S
H1554 C1568 0.960 . S
H1555 C1568 0.961 . S
H1556 C1568 0.959 . S
H1557 C1571 0.929 . S
H1558 C1572 0.931 . S
H1559 C1574 0.930 . S
C1560 H1548 0.930 . S
C1560 C1561 1.399 . S
C1560 C1565 1.399 . S
C1561 C1560 1.399 . S
C1561 C1562 1.376 . S
C1562 H1549 0.930 . S
C1562 C1561 1.376 . S
C1562 C1563 1.388 . S
C1563 H1550 0.930 . S
C1563 C1562 1.388 . S
C1563 C1564 1.390 . S
C1564 C1563 1.390 . S
C1564 C1565 1.394 . S
C1564 C1570 1.465 . S
C1565 C1560 1.399 . S
C1565 C1564 1.394 . S
C1565 C1566 1.516 . S
C1566 C1565 1.516 . S
C1566 C1567 1.502 . S
C1566 C1568 1.561 . S
C1566 C1569 1.526 . S
C1567 H1551 0.959 . S
C1567 H1552 0.959 . S
C1567 H1553 0.961 . S
C1567 C1566 1.502 . S
C1568 H1554 0.960 . S
C1568 H1555 0.961 . S
C1568 H1556 0.959 . S
C1568 C1566 1.561 . S
C1569 C1566 1.526 . S
C1569 C1570 1.396 . S
C1569 C1574 1.390 . S
C1570 C1564 1.465 . S
C1570 C1569 1.396 . S
C1570 C1571 1.399 . S
C1571 H1557 0.929 . S
C1571 C1570 1.399 . S
C1571 C1572 1.385 . S
C1572 H1558 0.931 . S
C1572 C1571 1.385 . S
C1572 C1573 1.389 . S
C1573 C1572 1.389 . S
C1573 C1574 1.387 . S
C1574 H1559 0.930 . S
C1574 C1569 1.390 . S
C1574 C1573 1.387 . S
H1575 C1587 0.930 . S
H1576 C1589 0.930 . S
H1577 C1590 0.930 . S
H1578 C1594 0.959 . S
H1579 C1594 0.959 . S
H1580 C1594 0.961 . S
H1581 C1595 0.960 . S
H1582 C1595 0.961 . S
H1583 C1595 0.959 . S
H1584 C1598 0.929 . S
H1585 C1599 0.931 . S
H1586 C1601 0.930 . S
C1587 H1575 0.930 . S
C1587 C1588 1.399 . S
C1587 C1592 1.399 . S
C1588 C1587 1.399 . S
C1588 C1589 1.376 . S
C1589 H1576 0.930 . S
C1589 C1588 1.376 . S
C1589 C1590 1.388 . S
C1590 H1577 0.930 . S
C1590 C1589 1.388 . S
C1590 C1591 1.390 . S
C1591 C1590 1.390 . S
C1591 C1592 1.394 . S
C1591 C1597 1.465 . S
C1592 C1587 1.399 . S
C1592 C1591 1.394 . S
C1592 C1593 1.516 . S
C1593 C1592 1.516 . S
C1593 C1594 1.502 . S
C1593 C1595 1.561 . S
C1593 C1596 1.526 . S
C1594 H1578 0.959 . S
C1594 H1579 0.959 . S
C1594 H1580 0.961 . S
C1594 C1593 1.502 . S
C1595 H1581 0.960 . S
C1595 H1582 0.961 . S
C1595 H1583 0.959 . S
C1595 C1593 1.561 . S
C1596 C1593 1.526 . S
C1596 C1597 1.396 . S
C1596 C1601 1.390 . S
C1597 C1591 1.465 . S
C1597 C1596 1.396 . S
C1597 C1598 1.399 . S
C1598 H1584 0.929 . S
C1598 C1597 1.399 . S
C1598 C1599 1.385 . S
C1599 H1585 0.931 . S
C1599 C1598 1.385 . S
C1599 C1600 1.389 . S
C1600 C1599 1.389 . S
C1600 C1601 1.387 . S
C1601 H1586 0.930 . S
C1601 C1596 1.390 . S
C1601 C1600 1.387 . S
H1602 C1614 0.930 . S
H1603 C1616 0.930 . S
H1604 C1617 0.930 . S
H1605 C1621 0.959 . S
H1606 C1621 0.959 . S
H1607 C1621 0.961 . S
H1608 C1622 0.960 . S
H1609 C1622 0.961 . S
H1610 C1622 0.959 . S
H1611 C1625 0.929 . S
H1612 C1626 0.931 . S
H1613 C1628 0.930 . S
C1614 H1602 0.930 . S
C1614 C1615 1.399 . S
C1614 C1619 1.399 . S
C1615 C1614 1.399 . S
C1615 C1616 1.376 . S
C1616 H1603 0.930 . S
C1616 C1615 1.376 . S
C1616 C1617 1.388 . S
C1617 H1604 0.930 . S
C1617 C1616 1.388 . S
C1617 C1618 1.390 . S
C1618 C1617 1.390 . S
C1618 C1619 1.394 . S
C1618 C1624 1.465 . S
C1619 C1614 1.399 . S
C1619 C1618 1.394 . S
C1619 C1620 1.516 . S
C1620 C1619 1.516 . S
C1620 C1621 1.502 . S
C1620 C1622 1.561 . S
C1620 C1623 1.526 . S
C1621 H1605 0.959 . S
C1621 H1606 0.959 . S
C1621 H1607 0.961 . S
C1621 C1620 1.502 . S
C1622 H1608 0.960 . S
C1622 H1609 0.961 . S
C1622 H1610 0.959 . S
C1622 C1620 1.561 . S
C1623 C1620 1.526 . S
C1623 C1624 1.396 . S
C1623 C1628 1.390 . S
C1624 C1618 1.465 . S
C1624 C1623 1.396 . S
C1624 C1625 1.399 . S
C1625 H1611 0.929 . S
C1625 C1624 1.399 . S
C1625 C1626 1.385 . S
C1626 H1612 0.931 . S
C1626 C1625 1.385 . S
C1626 C1627 1.389 . S
C1627 C1626 1.389 . S
C1627 C1628 1.387 . S
C1628 H1613 0.930 . S
C1628 C1623 1.390 . S
C1628 C1627 1.387 . S
H1629 C1641 0.930 . S
H1630 C1643 0.930 . S
H1631 C1644 0.930 . S
H1632 C1648 0.959 . S
H1633 C1648 0.959 . S
H1634 C1648 0.961 . S
H1635 C1649 0.960 . S
H1636 C1649 0.961 . S
H1637 C1649 0.959 . S
H1638 C1652 0.929 . S
H1639 C1653 0.931 . S
H1640 C1655 0.930 . S
C1641 H1629 0.930 . S
C1641 C1642 1.399 . S
C1641 C1646 1.399 . S
C1642 C1641 1.399 . S
C1642 C1643 1.376 . S
C1643 H1630 0.930 . S
C1643 C1642 1.376 . S
C1643 C1644 1.388 . S
C1644 H1631 0.930 . S
C1644 C1643 1.388 . S
C1644 C1645 1.390 . S
C1645 C1644 1.390 . S
C1645 C1646 1.394 . S
C1645 C1651 1.465 . S
C1646 C1641 1.399 . S
C1646 C1645 1.394 . S
C1646 C1647 1.516 . S
C1647 C1646 1.516 . S
C1647 C1648 1.502 . S
C1647 C1649 1.561 . S
C1647 C1650 1.526 . S
C1648 H1632 0.959 . S
C1648 H1633 0.959 . S
C1648 H1634 0.961 . S
C1648 C1647 1.502 . S
C1649 H1635 0.960 . S
C1649 H1636 0.961 . S
C1649 H1637 0.959 . S
C1649 C1647 1.561 . S
C1650 C1647 1.526 . S
C1650 C1651 1.396 . S
C1650 C1655 1.390 . S
C1651 C1645 1.465 . S
C1651 C1650 1.396 . S
C1651 C1652 1.399 . S
C1652 H1638 0.929 . S
C1652 C1651 1.399 . S
C1652 C1653 1.385 . S
C1653 H1639 0.931 . S
C1653 C1652 1.385 . S
C1653 C1654 1.389 . S
C1654 C1653 1.389 . S
C1654 C1655 1.387 . S
C1655 H1640 0.930 . S
C1655 C1650 1.390 . S
C1655 C1654 1.387 . S
H1656 C1668 0.930 . S
H1657 C1670 0.930 . S
H1658 C1671 0.930 . S
H1659 C1675 0.959 . S
H1660 C1675 0.959 . S
H1661 C1675 0.961 . S
H1662 C1676 0.960 . S
H1663 C1676 0.961 . S
H1664 C1676 0.959 . S
H1665 C1679 0.929 . S
H1666 C1680 0.931 . S
H1667 C1682 0.930 . S
C1668 H1656 0.930 . S
C1668 C1669 1.399 . S
C1668 C1673 1.399 . S
C1669 C1668 1.399 . S
C1669 C1670 1.376 . S
C1670 H1657 0.930 . S
C1670 C1669 1.376 . S
C1670 C1671 1.388 . S
C1671 H1658 0.930 . S
C1671 C1670 1.388 . S
C1671 C1672 1.390 . S
C1672 C1671 1.390 . S
C1672 C1673 1.394 . S
C1672 C1678 1.465 . S
C1673 C1668 1.399 . S
C1673 C1672 1.394 . S
C1673 C1674 1.516 . S
C1674 C1673 1.516 . S
C1674 C1675 1.502 . S
C1674 C1676 1.561 . S
C1674 C1677 1.526 . S
C1675 H1659 0.959 . S
C1675 H1660 0.959 . S
C1675 H1661 0.961 . S
C1675 C1674 1.502 . S
C1676 H1662 0.960 . S
C1676 H1663 0.961 . S
C1676 H1664 0.959 . S
C1676 C1674 1.561 . S
C1677 C1674 1.526 . S
C1677 C1678 1.396 . S
C1677 C1682 1.390 . S
C1678 C1672 1.465 . S
C1678 C1677 1.396 . S
C1678 C1679 1.399 . S
C1679 H1665 0.929 . S
C1679 C1678 1.399 . S
C1679 C1680 1.385 . S
C1680 H1666 0.931 . S
C1680 C1679 1.385 . S
C1680 C1681 1.389 . S
C1681 C1680 1.389 . S
C1681 C1682 1.387 . S
C1682 H1667 0.930 . S
C1682 C1677 1.390 . S
C1682 C1681 1.387 . S
H1683 C1695 0.930 . S
H1684 C1697 0.930 . S
H1685 C1698 0.930 . S
H1686 C1702 0.959 . S
H1687 C1702 0.959 . S
H1688 C1702 0.961 . S
H1689 C1703 0.960 . S
H1690 C1703 0.961 . S
H1691 C1703 0.959 . S
H1692 C1706 0.929 . S
H1693 C1707 0.931 . S
H1694 C1709 0.930 . S
C1695 H1683 0.930 . S
C1695 C1696 1.399 . S
C1695 C1700 1.399 . S
C1696 C1695 1.399 . S
C1696 C1697 1.376 . S
C1697 H1684 0.930 . S
C1697 C1696 1.376 . S
C1697 C1698 1.388 . S
C1698 H1685 0.930 . S
C1698 C1697 1.388 . S
C1698 C1699 1.390 . S
C1699 C1698 1.390 . S
C1699 C1700 1.394 . S
C1699 C1705 1.465 . S
C1700 C1695 1.399 . S
C1700 C1699 1.394 . S
C1700 C1701 1.516 . S
C1701 C1700 1.516 . S
C1701 C1702 1.502 . S
C1701 C1703 1.561 . S
C1701 C1704 1.526 . S
C1702 H1686 0.959 . S
C1702 H1687 0.959 . S
C1702 H1688 0.961 . S
C1702 C1701 1.502 . S
C1703 H1689 0.960 . S
C1703 H1690 0.961 . S
C1703 H1691 0.959 . S
C1703 C1701 1.561 . S
C1704 C1701 1.526 . S
C1704 C1705 1.396 . S
C1704 C1709 1.390 . S
C1705 C1699 1.465 . S
C1705 C1704 1.396 . S
C1705 C1706 1.399 . S
C1706 H1692 0.929 . S
C1706 C1705 1.399 . S
C1706 C1707 1.385 . S
C1707 H1693 0.931 . S
C1707 C1706 1.385 . S
C1707 C1708 1.389 . S
C1708 C1707 1.389 . S
C1708 C1709 1.387 . S
C1709 H1694 0.930 . S
C1709 C1704 1.390 . S
C1709 C1708 1.387 . S
H1710 C1722 0.930 . S
H1711 C1724 0.930 . S
H1712 C1725 0.930 . S
H1713 C1729 0.959 . S
H1714 C1729 0.959 . S
H1715 C1729 0.961 . S
H1716 C1730 0.960 . S
H1717 C1730 0.961 . S
H1718 C1730 0.959 . S
H1719 C1733 0.929 . S
H1720 C1734 0.931 . S
H1721 C1736 0.930 . S
C1722 H1710 0.930 . S
C1722 C1723 1.399 . S
C1722 C1727 1.399 . S
C1723 C1722 1.399 . S
C1723 C1724 1.376 . S
C1724 H1711 0.930 . S
C1724 C1723 1.376 . S
C1724 C1725 1.388 . S
C1725 H1712 0.930 . S
C1725 C1724 1.388 . S
C1725 C1726 1.390 . S
C1726 C1725 1.390 . S
C1726 C1727 1.394 . S
C1726 C1732 1.465 . S
C1727 C1722 1.399 . S
C1727 C1726 1.394 . S
C1727 C1728 1.516 . S
C1728 C1727 1.516 . S
C1728 C1729 1.502 . S
C1728 C1730 1.561 . S
C1728 C1731 1.526 . S
C1729 H1713 0.959 . S
C1729 H1714 0.959 . S
C1729 H1715 0.961 . S
C1729 C1728 1.502 . S
C1730 H1716 0.960 . S
C1730 H1717 0.961 . S
C1730 H1718 0.959 . S
C1730 C1728 1.561 . S
C1731 C1728 1.526 . S
C1731 C1732 1.396 . S
C1731 C1736 1.390 . S
C1732 C1726 1.465 . S
C1732 C1731 1.396 . S
C1732 C1733 1.399 . S
C1733 H1719 0.929 . S
C1733 C1732 1.399 . S
C1733 C1734 1.385 . S
C1734 H1720 0.931 . S
C1734 C1733 1.385 . S
C1734 C1735 1.389 . S
C1735 C1734 1.389 . S
C1735 C1736 1.387 . S
C1736 H1721 0.930 . S
C1736 C1731 1.390 . S
C1736 C1735 1.387 . S
H1737 C1749 0.930 . S
H1738 C1751 0.930 . S
H1739 C1752 0.930 . S
H1740 C1756 0.959 . S
H1741 C1756 0.959 . S
H1742 C1756 0.961 . S
H1743 C1757 0.960 . S
H1744 C1757 0.961 . S
H1745 C1757 0.959 . S
H1746 C1760 0.929 . S
H1747 C1761 0.931 . S
H1748 C1763 0.930 . S
C1749 H1737 0.930 . S
C1749 C1750 1.399 . S
C1749 C1754 1.399 . S
C1750 C1749 1.399 . S
C1750 C1751 1.376 . S
C1751 H1738 0.930 . S
C1751 C1750 1.376 . S
C1751 C1752 1.388 . S
C1752 H1739 0.930 . S
C1752 C1751 1.388 . S
C1752 C1753 1.390 . S
C1753 C1752 1.390 . S
C1753 C1754 1.394 . S
C1753 C1759 1.465 . S
C1754 C1749 1.399 . S
C1754 C1753 1.394 . S
C1754 C1755 1.516 . S
C1755 C1754 1.516 . S
C1755 C1756 1.502 . S
C1755 C1757 1.561 . S
C1755 C1758 1.526 . S
C1756 H1740 0.959 . S
C1756 H1741 0.959 . S
C1756 H1742 0.961 . S
C1756 C1755 1.502 . S
C1757 H1743 0.960 . S
C1757 H1744 0.961 . S
C1757 H1745 0.959 . S
C1757 C1755 1.561 . S
C1758 C1755 1.526 . S
C1758 C1759 1.396 . S
C1758 C1763 1.390 . S
C1759 C1753 1.465 . S
C1759 C1758 1.396 . S
C1759 C1760 1.399 . S
C1760 H1746 0.929 . S
C1760 C1759 1.399 . S
C1760 C1761 1.385 . S
C1761 H1747 0.931 . S
C1761 C1760 1.385 . S
C1761 C1762 1.389 . S
C1762 C1761 1.389 . S
C1762 C1763 1.387 . S
C1763 H1748 0.930 . S
C1763 C1758 1.390 . S
C1763 C1762 1.387 . S
H1764 C1776 0.930 . S
H1765 C1778 0.930 . S
H1766 C1779 0.930 . S
H1767 C1783 0.959 . S
H1768 C1783 0.959 . S
H1769 C1783 0.961 . S
H1770 C1784 0.960 . S
H1771 C1784 0.961 . S
H1772 C1784 0.959 . S
H1773 C1787 0.929 . S
H1774 C1788 0.931 . S
H1775 C1790 0.930 . S
C1776 H1764 0.930 . S
C1776 C1777 1.399 . S
C1776 C1781 1.399 . S
C1777 C1776 1.399 . S
C1777 C1778 1.376 . S
C1778 H1765 0.930 . S
C1778 C1777 1.376 . S
C1778 C1779 1.388 . S
C1779 H1766 0.930 . S
C1779 C1778 1.388 . S
C1779 C1780 1.390 . S
C1780 C1779 1.390 . S
C1780 C1781 1.394 . S
C1780 C1786 1.465 . S
C1781 C1776 1.399 . S
C1781 C1780 1.394 . S
C1781 C1782 1.516 . S
C1782 C1781 1.516 . S
C1782 C1783 1.502 . S
C1782 C1784 1.561 . S
C1782 C1785 1.526 . S
C1783 H1767 0.959 . S
C1783 H1768 0.959 . S
C1783 H1769 0.961 . S
C1783 C1782 1.502 . S
C1784 H1770 0.960 . S
C1784 H1771 0.961 . S
C1784 H1772 0.959 . S
C1784 C1782 1.561 . S
C1785 C1782 1.526 . S
C1785 C1786 1.396 . S
C1785 C1790 1.390 . S
C1786 C1780 1.465 . S
C1786 C1785 1.396 . S
C1786 C1787 1.399 . S
C1787 H1773 0.929 . S
C1787 C1786 1.399 . S
C1787 C1788 1.385 . S
C1788 H1774 0.931 . S
C1788 C1787 1.385 . S
C1788 C1789 1.389 . S
C1789 C1788 1.389 . S
C1789 C1790 1.387 . S
C1790 H1775 0.930 . S
C1790 C1785 1.390 . S
C1790 C1789 1.387 . S
H1791 C1803 0.930 . S
H1792 C1805 0.930 . S
H1793 C1806 0.930 . S
H1794 C1810 0.959 . S
H1795 C1810 0.959 . S
H1796 C1810 0.961 . S
H1797 C1811 0.960 . S
H1798 C1811 0.961 . S
H1799 C1811 0.959 . S
H1800 C1814 0.929 . S
H1801 C1815 0.931 . S
H1802 C1817 0.930 . S
C1803 H1791 0.930 . S
C1803 C1804 1.399 . S
C1803 C1808 1.399 . S
C1804 C1803 1.399 . S
C1804 C1805 1.376 . S
C1805 H1792 0.930 . S
C1805 C1804 1.376 . S
C1805 C1806 1.388 . S
C1806 H1793 0.930 . S
C1806 C1805 1.388 . S
C1806 C1807 1.390 . S
C1807 C1806 1.390 . S
C1807 C1808 1.394 . S
C1807 C1813 1.465 . S
C1808 C1803 1.399 . S
C1808 C1807 1.394 . S
C1808 C1809 1.516 . S
C1809 C1808 1.516 . S
C1809 C1810 1.502 . S
C1809 C1811 1.561 . S
C1809 C1812 1.526 . S
C1810 H1794 0.959 . S
C1810 H1795 0.959 . S
C1810 H1796 0.961 . S
C1810 C1809 1.502 . S
C1811 H1797 0.960 . S
C1811 H1798 0.961 . S
C1811 H1799 0.959 . S
C1811 C1809 1.561 . S
C1812 C1809 1.526 . S
C1812 C1813 1.396 . S
C1812 C1817 1.390 . S
C1813 C1807 1.465 . S
C1813 C1812 1.396 . S
C1813 C1814 1.399 . S
C1814 H1800 0.929 . S
C1814 C1813 1.399 . S
C1814 C1815 1.385 . S
C1815 H1801 0.931 . S
C1815 C1814 1.385 . S
C1815 C1816 1.389 . S
C1816 C1815 1.389 . S
C1816 C1817 1.387 . S
C1817 H1802 0.930 . S
C1817 C1812 1.390 . S
C1817 C1816 1.387 . S
H1818 C1830 0.930 . S
H1819 C1832 0.930 . S
H1820 C1833 0.930 . S
H1821 C1837 0.959 . S
H1822 C1837 0.959 . S
H1823 C1837 0.961 . S
H1824 C1838 0.960 . S
H1825 C1838 0.961 . S
H1826 C1838 0.959 . S
H1827 C1841 0.929 . S
H1828 C1842 0.931 . S
H1829 C1844 0.930 . S
C1830 H1818 0.930 . S
C1830 C1831 1.399 . S
C1830 C1835 1.399 . S
C1831 C1830 1.399 . S
C1831 C1832 1.376 . S
C1832 H1819 0.930 . S
C1832 C1831 1.376 . S
C1832 C1833 1.388 . S
C1833 H1820 0.930 . S
C1833 C1832 1.388 . S
C1833 C1834 1.390 . S
C1834 C1833 1.390 . S
C1834 C1835 1.394 . S
C1834 C1840 1.465 . S
C1835 C1830 1.399 . S
C1835 C1834 1.394 . S
C1835 C1836 1.516 . S
C1836 C1835 1.516 . S
C1836 C1837 1.502 . S
C1836 C1838 1.561 . S
C1836 C1839 1.526 . S
C1837 H1821 0.959 . S
C1837 H1822 0.959 . S
C1837 H1823 0.961 . S
C1837 C1836 1.502 . S
C1838 H1824 0.960 . S
C1838 H1825 0.961 . S
C1838 H1826 0.959 . S
C1838 C1836 1.561 . S
C1839 C1836 1.526 . S
C1839 C1840 1.396 . S
C1839 C1844 1.390 . S
C1840 C1834 1.465 . S
C1840 C1839 1.396 . S
C1840 C1841 1.399 . S
C1841 H1827 0.929 . S
C1841 C1840 1.399 . S
C1841 C1842 1.385 . S
C1842 H1828 0.931 . S
C1842 C1841 1.385 . S
C1842 C1843 1.389 . S
C1843 C1842 1.389 . S
C1843 C1844 1.387 . S
C1844 H1829 0.930 . S
C1844 C1839 1.390 . S
C1844 C1843 1.387 . S
H1845 C1857 0.930 . S
H1846 C1859 0.930 . S
H1847 C1860 0.930 . S
H1848 C1864 0.959 . S
H1849 C1864 0.959 . S
H1850 C1864 0.961 . S
H1851 C1865 0.960 . S
H1852 C1865 0.961 . S
H1853 C1865 0.959 . S
H1854 C1868 0.929 . S
H1855 C1869 0.931 . S
H1856 C1871 0.930 . S
C1857 H1845 0.930 . S
C1857 C1858 1.399 . S
C1857 C1862 1.399 . S
C1858 C1857 1.399 . S
C1858 C1859 1.376 . S
C1859 H1846 0.930 . S
C1859 C1858 1.376 . S
C1859 C1860 1.388 . S
C1860 H1847 0.930 . S
C1860 C1859 1.388 . S
C1860 C1861 1.390 . S
C1861 C1860 1.390 . S
C1861 C1862 1.394 . S
C1861 C1867 1.465 . S
C1862 C1857 1.399 . S
C1862 C1861 1.394 . S
C1862 C1863 1.516 . S
C1863 C1862 1.516 . S
C1863 C1864 1.502 . S
C1863 C1865 1.561 . S
C1863 C1866 1.526 . S
C1864 H1848 0.959 . S
C1864 H1849 0.959 . S
C1864 H1850 0.961 . S
C1864 C1863 1.502 . S
C1865 H1851 0.960 . S
C1865 H1852 0.961 . S
C1865 H1853 0.959 . S
C1865 C1863 1.561 . S
C1866 C1863 1.526 . S
C1866 C1867 1.396 . S
C1866 C1871 1.390 . S
C1867 C1861 1.465 . S
C1867 C1866 1.396 . S
C1867 C1868 1.399 . S
C1868 H1854 0.929 . S
C1868 C1867 1.399 . S
C1868 C1869 1.385 . S
C1869 H1855 0.931 . S
C1869 C1868 1.385 . S
C1869 C1870 1.389 . S
C1870 C1869 1.389 . S
C1870 C1871 1.387 . S
C1871 H1856 0.930 . S
C1871 C1866 1.390 . S
C1871 C1870 1.387 . S
H1872 C1884 0.930 . S
H1873 C1886 0.930 . S
H1874 C1887 0.930 . S
H1875 C1891 0.959 . S
H1876 C1891 0.959 . S
H1877 C1891 0.961 . S
H1878 C1892 0.960 . S
H1879 C1892 0.961 . S
H1880 C1892 0.959 . S
H1881 C1895 0.929 . S
H1882 C1896 0.931 . S
H1883 C1898 0.930 . S
C1884 H1872 0.930 . S
C1884 C1885 1.399 . S
C1884 C1889 1.399 . S
C1885 C1884 1.399 . S
C1885 C1886 1.376 . S
C1886 H1873 0.930 . S
C1886 C1885 1.376 . S
C1886 C1887 1.388 . S
C1887 H1874 0.930 . S
C1887 C1886 1.388 . S
C1887 C1888 1.390 . S
C1888 C1887 1.390 . S
C1888 C1889 1.394 . S
C1888 C1894 1.465 . S
C1889 C1884 1.399 . S
C1889 C1888 1.394 . S
C1889 C1890 1.516 . S
C1890 C1889 1.516 . S
C1890 C1891 1.502 . S
C1890 C1892 1.561 . S
C1890 C1893 1.526 . S
C1891 H1875 0.959 . S
C1891 H1876 0.959 . S
C1891 H1877 0.961 . S
C1891 C1890 1.502 . S
C1892 H1878 0.960 . S
C1892 H1879 0.961 . S
C1892 H1880 0.959 . S
C1892 C1890 1.561 . S
C1893 C1890 1.526 . S
C1893 C1894 1.396 . S
C1893 C1898 1.390 . S
C1894 C1888 1.465 . S
C1894 C1893 1.396 . S
C1894 C1895 1.399 . S
C1895 H1881 0.929 . S
C1895 C1894 1.399 . S
C1895 C1896 1.385 . S
C1896 H1882 0.931 . S
C1896 C1895 1.385 . S
C1896 C1897 1.389 . S
C1897 C1896 1.389 . S
C1897 C1898 1.387 . S
C1898 H1883 0.930 . S
C1898 C1893 1.390 . S
C1898 C1897 1.387 . S
H1899 C1911 0.930 . S
H1900 C1913 0.930 . S
H1901 C1914 0.930 . S
H1902 C1918 0.959 . S
H1903 C1918 0.959 . S
H1904 C1918 0.961 . S
H1905 C1919 0.960 . S
H1906 C1919 0.961 . S
H1907 C1919 0.959 . S
H1908 C1922 0.929 . S
H1909 C1923 0.931 . S
H1910 C1925 0.930 . S
C1911 H1899 0.930 . S
C1911 C1912 1.399 . S
C1911 C1916 1.399 . S
C1912 C1911 1.399 . S
C1912 C1913 1.376 . S
C1913 H1900 0.930 . S
C1913 C1912 1.376 . S
C1913 C1914 1.388 . S
C1914 H1901 0.930 . S
C1914 C1913 1.388 . S
C1914 C1915 1.390 . S
C1915 C1914 1.390 . S
C1915 C1916 1.394 . S
C1915 C1921 1.465 . S
C1916 C1911 1.399 . S
C1916 C1915 1.394 . S
C1916 C1917 1.516 . S
C1917 C1916 1.516 . S
C1917 C1918 1.502 . S
C1917 C1919 1.561 . S
C1917 C1920 1.526 . S
C1918 H1902 0.959 . S
C1918 H1903 0.959 . S
C1918 H1904 0.961 . S
C1918 C1917 1.502 . S
C1919 H1905 0.960 . S
C1919 H1906 0.961 . S
C1919 H1907 0.959 . S
C1919 C1917 1.561 . S
C1920 C1917 1.526 . S
C1920 C1921 1.396 . S
C1920 C1925 1.390 . S
C1921 C1915 1.465 . S
C1921 C1920 1.396 . S
C1921 C1922 1.399 . S
C1922 H1908 0.929 . S
C1922 C1921 1.399 . S
C1922 C1923 1.385 . S
C1923 H1909 0.931 . S
C1923 C1922 1.385 . S
C1923 C1924 1.389 . S
C1924 C1923 1.389 . S
C1924 C1925 1.387 . S
C1925 H1910 0.930 . S
C1925 C1920 1.390 . S
C1925 C1924 1.387 . S
H1926 C1938 0.930 . S
H1927 C1940 0.930 . S
H1928 C1941 0.930 . S
H1929 C1945 0.959 . S
H1930 C1945 0.959 . S
H1931 C1945 0.961 . S
H1932 C1946 0.960 . S
H1933 C1946 0.961 . S
H1934 C1946 0.959 . S
H1935 C1949 0.929 . S
H1936 C1950 0.931 . S
H1937 C1952 0.930 . S
C1938 H1926 0.930 . S
C1938 C1939 1.399 . S
C1938 C1943 1.399 . S
C1939 C1938 1.399 . S
C1939 C1940 1.376 . S
C1940 H1927 0.930 . S
C1940 C1939 1.376 . S
C1940 C1941 1.388 . S
C1941 H1928 0.930 . S
C1941 C1940 1.388 . S
C1941 C1942 1.390 . S
C1942 C1941 1.390 . S
C1942 C1943 1.394 . S
C1942 C1948 1.465 . S
C1943 C1938 1.399 . S
C1943 C1942 1.394 . S
C1943 C1944 1.516 . S
C1944 C1943 1.516 . S
C1944 C1945 1.502 . S
C1944 C1946 1.561 . S
C1944 C1947 1.526 . S
C1945 H1929 0.959 . S
C1945 H1930 0.959 . S
C1945 H1931 0.961 . S
C1945 C1944 1.502 . S
C1946 H1932 0.960 . S
C1946 H1933 0.961 . S
C1946 H1934 0.959 . S
C1946 C1944 1.561 . S
C1947 C1944 1.526 . S
C1947 C1948 1.396 . S
C1947 C1952 1.390 . S
C1948 C1942 1.465 . S
C1948 C1947 1.396 . S
C1948 C1949 1.399 . S
C1949 H1935 0.929 . S
C1949 C1948 1.399 . S
C1949 C1950 1.385 . S
C1950 H1936 0.931 . S
C1950 C1949 1.385 . S
C1950 C1951 1.389 . S
C1951 C1950 1.389 . S
C1951 C1952 1.387 . S
C1952 H1937 0.930 . S
C1952 C1947 1.390 . S
C1952 C1951 1.387 . S
H1953 C1965 0.930 . S
H1954 C1967 0.930 . S
H1955 C1968 0.930 . S
H1956 C1972 0.959 . S
H1957 C1972 0.959 . S
H1958 C1972 0.961 . S
H1959 C1973 0.960 . S
H1960 C1973 0.961 . S
H1961 C1973 0.959 . S
H1962 C1976 0.929 . S
H1963 C1977 0.931 . S
H1964 C1979 0.930 . S
C1965 H1953 0.930 . S
C1965 C1966 1.399 . S
C1965 C1970 1.399 . S
C1966 C1965 1.399 . S
C1966 C1967 1.376 . S
C1967 H1954 0.930 . S
C1967 C1966 1.376 . S
C1967 C1968 1.388 . S
C1968 H1955 0.930 . S
C1968 C1967 1.388 . S
C1968 C1969 1.390 . S
C1969 C1968 1.390 . S
C1969 C1970 1.394 . S
C1969 C1975 1.465 . S
C1970 C1965 1.399 . S
C1970 C1969 1.394 . S
C1970 C1971 1.516 . S
C1971 C1970 1.516 . S
C1971 C1972 1.502 . S
C1971 C1973 1.561 . S
C1971 C1974 1.526 . S
C1972 H1956 0.959 . S
C1972 H1957 0.959 . S
C1972 H1958 0.961 . S
C1972 C1971 1.502 . S
C1973 H1959 0.960 . S
C1973 H1960 0.961 . S
C1973 H1961 0.959 . S
C1973 C1971 1.561 . S
C1974 C1971 1.526 . S
C1974 C1975 1.396 . S
C1974 C1979 1.390 . S
C1975 C1969 1.465 . S
C1975 C1974 1.396 . S
C1975 C1976 1.399 . S
C1976 H1962 0.929 . S
C1976 C1975 1.399 . S
C1976 C1977 1.385 . S
C1977 H1963 0.931 . S
C1977 C1976 1.385 . S
C1977 C1978 1.389 . S
C1978 C1977 1.389 . S
C1978 C1979 1.387 . S
C1979 H1964 0.930 . S
C1979 C1974 1.390 . S
C1979 C1978 1.387 . S
H1980 C1992 0.930 . S
H1981 C1994 0.930 . S
H1982 C1995 0.930 . S
H1983 C1999 0.959 . S
H1984 C1999 0.959 . S
H1985 C1999 0.961 . S
H1986 C2000 0.960 . S
H1987 C2000 0.961 . S
H1988 C2000 0.959 . S
H1989 C2003 0.929 . S
H1990 C2004 0.931 . S
H1991 C2006 0.930 . S
C1992 H1980 0.930 . S
C1992 C1993 1.399 . S
C1992 C1997 1.399 . S
C1993 C1992 1.399 . S
C1993 C1994 1.376 . S
C1994 H1981 0.930 . S
C1994 C1993 1.376 . S
C1994 C1995 1.388 . S
C1995 H1982 0.930 . S
C1995 C1994 1.388 . S
C1995 C1996 1.390 . S
C1996 C1995 1.390 . S
C1996 C1997 1.394 . S
C1996 C2002 1.465 . S
C1997 C1992 1.399 . S
C1997 C1996 1.394 . S
C1997 C1998 1.516 . S
C1998 C1997 1.516 . S
C1998 C1999 1.502 . S
C1998 C2000 1.561 . S
C1998 C2001 1.526 . S
C1999 H1983 0.959 . S
C1999 H1984 0.959 . S
C1999 H1985 0.961 . S
C1999 C1998 1.502 . S
C2000 H1986 0.960 . S
C2000 H1987 0.961 . S
C2000 H1988 0.959 . S
C2000 C1998 1.561 . S
C2001 C1998 1.526 . S
C2001 C2002 1.396 . S
C2001 C2006 1.390 . S
C2002 C1996 1.465 . S
C2002 C2001 1.396 . S
C2002 C2003 1.399 . S
C2003 H1989 0.929 . S
C2003 C2002 1.399 . S
C2003 C2004 1.385 . S
C2004 H1990 0.931 . S
C2004 C2003 1.385 . S
C2004 C2005 1.389 . S
C2005 C2004 1.389 . S
C2005 C2006 1.387 . S
C2006 H1991 0.930 . S
C2006 C2001 1.390 . S
C2006 C2005 1.387 . S
H2007 C2019 0.930 . S
H2008 C2021 0.930 . S
H2009 C2022 0.930 . S
H2010 C2026 0.959 . S
H2011 C2026 0.959 . S
H2012 C2026 0.961 . S
H2013 C2027 0.960 . S
H2014 C2027 0.961 . S
H2015 C2027 0.959 . S
H2016 C2030 0.929 . S
H2017 C2031 0.931 . S
H2018 C2033 0.930 . S
C2019 H2007 0.930 . S
C2019 C2020 1.399 . S
C2019 C2024 1.399 . S
C2020 C2019 1.399 . S
C2020 C2021 1.376 . S
C2021 H2008 0.930 . S
C2021 C2020 1.376 . S
C2021 C2022 1.388 . S
C2022 H2009 0.930 . S
C2022 C2021 1.388 . S
C2022 C2023 1.390 . S
C2023 C2022 1.390 . S
C2023 C2024 1.394 . S
C2023 C2029 1.465 . S
C2024 C2019 1.399 . S
C2024 C2023 1.394 . S
C2024 C2025 1.516 . S
C2025 C2024 1.516 . S
C2025 C2026 1.502 . S
C2025 C2027 1.561 . S
C2025 C2028 1.526 . S
C2026 H2010 0.959 . S
C2026 H2011 0.959 . S
C2026 H2012 0.961 . S
C2026 C2025 1.502 . S
C2027 H2013 0.960 . S
C2027 H2014 0.961 . S
C2027 H2015 0.959 . S
C2027 C2025 1.561 . S
C2028 C2025 1.526 . S
C2028 C2029 1.396 . S
C2028 C2033 1.390 . S
C2029 C2023 1.465 . S
C2029 C2028 1.396 . S
C2029 C2030 1.399 . S
C2030 H2016 0.929 . S
C2030 C2029 1.399 . S
C2030 C2031 1.385 . S
C2031 H2017 0.931 . S
C2031 C2030 1.385 . S
C2031 C2032 1.389 . S
C2032 C2031 1.389 . S
C2032 C2033 1.387 . S
C2033 H2018 0.930 . S
C2033 C2028 1.390 . S
C2033 C2032 1.387 . S
H2034 C2046 0.930 . S
H2035 C2048 0.930 . S
H2036 C2049 0.930 . S
H2037 C2053 0.959 . S
H2038 C2053 0.959 . S
H2039 C2053 0.961 . S
H2040 C2054 0.960 . S
H2041 C2054 0.961 . S
H2042 C2054 0.959 . S
H2043 C2057 0.929 . S
H2044 C2058 0.931 . S
H2045 C2060 0.930 . S
C2046 H2034 0.930 . S
C2046 C2047 1.399 . S
C2046 C2051 1.399 . S
C2047 C2046 1.399 . S
C2047 C2048 1.376 . S
C2048 H2035 0.930 . S
C2048 C2047 1.376 . S
C2048 C2049 1.388 . S
C2049 H2036 0.930 . S
C2049 C2048 1.388 . S
C2049 C2050 1.390 . S
C2050 C2049 1.390 . S
C2050 C2051 1.394 . S
C2050 C2056 1.465 . S
C2051 C2046 1.399 . S
C2051 C2050 1.394 . S
C2051 C2052 1.516 . S
C2052 C2051 1.516 . S
C2052 C2053 1.502 . S
C2052 C2054 1.561 . S
C2052 C2055 1.526 . S
C2053 H2037 0.959 . S
C2053 H2038 0.959 . S
C2053 H2039 0.961 . S
C2053 C2052 1.502 . S
C2054 H2040 0.960 . S
C2054 H2041 0.961 . S
C2054 H2042 0.959 . S
C2054 C2052 1.561 . S
C2055 C2052 1.526 . S
C2055 C2056 1.396 . S
C2055 C2060 1.390 . S
C2056 C2050 1.465 . S
C2056 C2055 1.396 . S
C2056 C2057 1.399 . S
C2057 H2043 0.929 . S
C2057 C2056 1.399 . S
C2057 C2058 1.385 . S
C2058 H2044 0.931 . S
C2058 C2057 1.385 . S
C2058 C2059 1.389 . S
C2059 C2058 1.389 . S
C2059 C2060 1.387 . S
C2060 H2045 0.930 . S
C2060 C2055 1.390 . S
C2060 C2059 1.387 . S
H2061 C2073 0.930 . S
H2062 C2075 0.930 . S
H2063 C2076 0.930 . S
H2064 C2080 0.959 . S
H2065 C2080 0.959 . S
H2066 C2080 0.961 . S
H2067 C2081 0.960 . S
H2068 C2081 0.961 . S
H2069 C2081 0.959 . S
H2070 C2084 0.929 . S
H2071 C2085 0.931 . S
H2072 C2087 0.930 . S
C2073 H2061 0.930 . S
C2073 C2074 1.399 . S
C2073 C2078 1.399 . S
C2074 C2073 1.399 . S
C2074 C2075 1.376 . S
C2075 H2062 0.930 . S
C2075 C2074 1.376 . S
C2075 C2076 1.388 . S
C2076 H2063 0.930 . S
C2076 C2075 1.388 . S
C2076 C2077 1.390 . S
C2077 C2076 1.390 . S
C2077 C2078 1.394 . S
C2077 C2083 1.465 . S
C2078 C2073 1.399 . S
C2078 C2077 1.394 . S
C2078 C2079 1.516 . S
C2079 C2078 1.516 . S
C2079 C2080 1.502 . S
C2079 C2081 1.561 . S
C2079 C2082 1.526 . S
C2080 H2064 0.959 . S
C2080 H2065 0.959 . S
C2080 H2066 0.961 . S
C2080 C2079 1.502 . S
C2081 H2067 0.960 . S
C2081 H2068 0.961 . S
C2081 H2069 0.959 . S
C2081 C2079 1.561 . S
C2082 C2079 1.526 . S
C2082 C2083 1.396 . S
C2082 C2087 1.390 . S
C2083 C2077 1.465 . S
C2083 C2082 1.396 . S
C2083 C2084 1.399 . S
C2084 H2070 0.929 . S
C2084 C2083 1.399 . S
C2084 C2085 1.385 . S
C2085 H2071 0.931 . S
C2085 C2084 1.385 . S
C2085 C2086 1.389 . S
C2086 C2085 1.389 . S
C2086 C2087 1.387 . S
C2087 H2072 0.930 . S
C2087 C2082 1.390 . S
C2087 C2086 1.387 . S
H2088 C2100 0.930 . S
H2089 C2102 0.930 . S
H2090 C2103 0.930 . S
H2091 C2107 0.959 . S
H2092 C2107 0.959 . S
H2093 C2107 0.961 . S
H2094 C2108 0.960 . S
H2095 C2108 0.961 . S
H2096 C2108 0.959 . S
H2097 C2111 0.929 . S
H2098 C2112 0.931 . S
H2099 C2114 0.930 . S
C2100 H2088 0.930 . S
C2100 C2101 1.399 . S
C2100 C2105 1.399 . S
C2101 C2100 1.399 . S
C2101 C2102 1.376 . S
C2102 H2089 0.930 . S
C2102 C2101 1.376 . S
C2102 C2103 1.388 . S
C2103 H2090 0.930 . S
C2103 C2102 1.388 . S
C2103 C2104 1.390 . S
C2104 C2103 1.390 . S
C2104 C2105 1.394 . S
C2104 C2110 1.465 . S
C2105 C2100 1.399 . S
C2105 C2104 1.394 . S
C2105 C2106 1.516 . S
C2106 C2105 1.516 . S
C2106 C2107 1.502 . S
C2106 C2108 1.561 . S
C2106 C2109 1.526 . S
C2107 H2091 0.959 . S
C2107 H2092 0.959 . S
C2107 H2093 0.961 . S
C2107 C2106 1.502 . S
C2108 H2094 0.960 . S
C2108 H2095 0.961 . S
C2108 H2096 0.959 . S
C2108 C2106 1.561 . S
C2109 C2106 1.526 . S
C2109 C2110 1.396 . S
C2109 C2114 1.390 . S
C2110 C2104 1.465 . S
C2110 C2109 1.396 . S
C2110 C2111 1.399 . S
C2111 H2097 0.929 . S
C2111 C2110 1.399 . S
C2111 C2112 1.385 . S
C2112 H2098 0.931 . S
C2112 C2111 1.385 . S
C2112 C2113 1.389 . S
C2113 C2112 1.389 . S
C2113 C2114 1.387 . S
C2114 H2099 0.930 . S
C2114 C2109 1.390 . S
C2114 C2113 1.387 . S
H2115 C2127 0.930 . S
H2116 C2129 0.930 . S
H2117 C2130 0.930 . S
H2118 C2134 0.959 . S
H2119 C2134 0.959 . S
H2120 C2134 0.961 . S
H2121 C2135 0.960 . S
H2122 C2135 0.961 . S
H2123 C2135 0.959 . S
H2124 C2138 0.929 . S
H2125 C2139 0.931 . S
H2126 C2141 0.930 . S
C2127 H2115 0.930 . S
C2127 C2128 1.399 . S
C2127 C2132 1.399 . S
C2128 C2127 1.399 . S
C2128 C2129 1.376 . S
C2129 H2116 0.930 . S
C2129 C2128 1.376 . S
C2129 C2130 1.388 . S
C2130 H2117 0.930 . S
C2130 C2129 1.388 . S
C2130 C2131 1.390 . S
C2131 C2130 1.390 . S
C2131 C2132 1.394 . S
C2131 C2137 1.465 . S
C2132 C2127 1.399 . S
C2132 C2131 1.394 . S
C2132 C2133 1.516 . S
C2133 C2132 1.516 . S
C2133 C2134 1.502 . S
C2133 C2135 1.561 . S
C2133 C2136 1.526 . S
C2134 H2118 0.959 . S
C2134 H2119 0.959 . S
C2134 H2120 0.961 . S
C2134 C2133 1.502 . S
C2135 H2121 0.960 . S
C2135 H2122 0.961 . S
C2135 H2123 0.959 . S
C2135 C2133 1.561 . S
C2136 C2133 1.526 . S
C2136 C2137 1.396 . S
C2136 C2141 1.390 . S
C2137 C2131 1.465 . S
C2137 C2136 1.396 . S
C2137 C2138 1.399 . S
C2138 H2124 0.929 . S
C2138 C2137 1.399 . S
C2138 C2139 1.385 . S
C2139 H2125 0.931 . S
C2139 C2138 1.385 . S
C2139 C2140 1.389 . S
C2140 C2139 1.389 . S
C2140 C2141 1.387 . S
C2141 H2126 0.930 . S
C2141 C2136 1.390 . S
C2141 C2140 1.387 . S
H2142 C2154 0.930 . S
H2143 C2156 0.930 . S
H2144 C2157 0.930 . S
H2145 C2161 0.959 . S
H2146 C2161 0.959 . S
H2147 C2161 0.961 . S
H2148 C2162 0.960 . S
H2149 C2162 0.961 . S
H2150 C2162 0.959 . S
H2151 C2165 0.929 . S
H2152 C2166 0.931 . S
H2153 C2168 0.930 . S
C2154 H2142 0.930 . S
C2154 C2155 1.399 . S
C2154 C2159 1.399 . S
C2155 C2154 1.399 . S
C2155 C2156 1.376 . S
C2156 H2143 0.930 . S
C2156 C2155 1.376 . S
C2156 C2157 1.388 . S
C2157 H2144 0.930 . S
C2157 C2156 1.388 . S
C2157 C2158 1.390 . S
C2158 C2157 1.390 . S
C2158 C2159 1.394 . S
C2158 C2164 1.465 . S
C2159 C2154 1.399 . S
C2159 C2158 1.394 . S
C2159 C2160 1.516 . S
C2160 C2159 1.516 . S
C2160 C2161 1.502 . S
C2160 C2162 1.561 . S
C2160 C2163 1.526 . S
C2161 H2145 0.959 . S
C2161 H2146 0.959 . S
C2161 H2147 0.961 . S
C2161 C2160 1.502 . S
C2162 H2148 0.960 . S
C2162 H2149 0.961 . S
C2162 H2150 0.959 . S
C2162 C2160 1.561 . S
C2163 C2160 1.526 . S
C2163 C2164 1.396 . S
C2163 C2168 1.390 . S
C2164 C2158 1.465 . S
C2164 C2163 1.396 . S
C2164 C2165 1.399 . S
C2165 H2151 0.929 . S
C2165 C2164 1.399 . S
C2165 C2166 1.385 . S
C2166 H2152 0.931 . S
C2166 C2165 1.385 . S
C2166 C2167 1.389 . S
C2167 C2166 1.389 . S
C2167 C2168 1.387 . S
C2168 H2153 0.930 . S
C2168 C2163 1.390 . S
C2168 C2167 1.387 . S
H2169 C2181 0.930 . S
H2170 C2183 0.930 . S
H2171 C2184 0.930 . S
H2172 C2188 0.959 . S
H2173 C2188 0.959 . S
H2174 C2188 0.961 . S
H2175 C2189 0.960 . S
H2176 C2189 0.961 . S
H2177 C2189 0.959 . S
H2178 C2192 0.929 . S
H2179 C2193 0.931 . S
H2180 C2195 0.930 . S
C2181 H2169 0.930 . S
C2181 C2182 1.399 . S
C2181 C2186 1.399 . S
C2182 C2181 1.399 . S
C2182 C2183 1.376 . S
C2183 H2170 0.930 . S
C2183 C2182 1.376 . S
C2183 C2184 1.388 . S
C2184 H2171 0.930 . S
C2184 C2183 1.388 . S
C2184 C2185 1.390 . S
C2185 C2184 1.390 . S
C2185 C2186 1.394 . S
C2185 C2191 1.465 . S
C2186 C2181 1.399 . S
C2186 C2185 1.394 . S
C2186 C2187 1.516 . S
C2187 C2186 1.516 . S
C2187 C2188 1.502 . S
C2187 C2189 1.561 . S
C2187 C2190 1.526 . S
C2188 H2172 0.959 . S
C2188 H2173 0.959 . S
C2188 H2174 0.961 . S
C2188 C2187 1.502 . S
C2189 H2175 0.960 . S
C2189 H2176 0.961 . S
C2189 H2177 0.959 . S
C2189 C2187 1.561 . S
C2190 C2187 1.526 . S
C2190 C2191 1.396 . S
C2190 C2195 1.390 . S
C2191 C2185 1.465 . S
C2191 C2190 1.396 . S
C2191 C2192 1.399 . S
C2192 H2178 0.929 . S
C2192 C2191 1.399 . S
C2192 C2193 1.385 . S
C2193 H2179 0.931 . S
C2193 C2192 1.385 . S
C2193 C2194 1.389 . S
C2194 C2193 1.389 . S
C2194 C2195 1.387 . S
C2195 H2180 0.930 . S
C2195 C2190 1.390 . S
C2195 C2194 1.387 . S
H2196 C2208 0.930 . S
H2197 C2210 0.930 . S
H2198 C2211 0.930 . S
H2199 C2215 0.959 . S
H2200 C2215 0.959 . S
H2201 C2215 0.961 . S
H2202 C2216 0.960 . S
H2203 C2216 0.961 . S
H2204 C2216 0.959 . S
H2205 C2219 0.929 . S
H2206 C2220 0.931 . S
H2207 C2222 0.930 . S
C2208 H2196 0.930 . S
C2208 C2209 1.399 . S
C2208 C2213 1.399 . S
C2209 C2208 1.399 . S
C2209 C2210 1.376 . S
C2210 H2197 0.930 . S
C2210 C2209 1.376 . S
C2210 C2211 1.388 . S
C2211 H2198 0.930 . S
C2211 C2210 1.388 . S
C2211 C2212 1.390 . S
C2212 C2211 1.390 . S
C2212 C2213 1.394 . S
C2212 C2218 1.465 . S
C2213 C2208 1.399 . S
C2213 C2212 1.394 . S
C2213 C2214 1.516 . S
C2214 C2213 1.516 . S
C2214 C2215 1.502 . S
C2214 C2216 1.561 . S
C2214 C2217 1.526 . S
C2215 H2199 0.959 . S
C2215 H2200 0.959 . S
C2215 H2201 0.961 . S
C2215 C2214 1.502 . S
C2216 H2202 0.960 . S
C2216 H2203 0.961 . S
C2216 H2204 0.959 . S
C2216 C2214 1.561 . S
C2217 C2214 1.526 . S
C2217 C2218 1.396 . S
C2217 C2222 1.390 . S
C2218 C2212 1.465 . S
C2218 C2217 1.396 . S
C2218 C2219 1.399 . S
C2219 H2205 0.929 . S
C2219 C2218 1.399 . S
C2219 C2220 1.385 . S
C2220 H2206 0.931 . S
C2220 C2219 1.385 . S
C2220 C2221 1.389 . S
C2221 C2220 1.389 . S
C2221 C2222 1.387 . S
C2222 H2207 0.930 . S
C2222 C2217 1.390 . S
C2222 C2221 1.387 . S
H2223 C2235 0.930 . S
H2224 C2237 0.930 . S
H2225 C2238 0.930 . S
H2226 C2242 0.959 . S
H2227 C2242 0.959 1_545 S
H2228 C2242 0.961 . S
H2229 C2243 0.960 . S
H2230 C2243 0.961 . S
H2231 C2243 0.959 . S
H2232 C2246 0.929 . S
H2233 C2247 0.931 . S
H2234 C2249 0.930 1_545 S
C2235 H2223 0.930 . S
C2235 C2236 1.399 . S
C2235 C2240 1.399 . S
C2236 C2235 1.399 . S
C2236 C2237 1.376 . S
C2237 H2224 0.930 . S
C2237 C2236 1.376 . S
C2237 C2238 1.388 . S
C2238 H2225 0.930 . S
C2238 C2237 1.388 . S
C2238 C2239 1.390 . S
C2239 C2238 1.390 . S
C2239 C2240 1.394 . S
C2239 C2245 1.465 . S
C2240 C2235 1.399 . S
C2240 C2239 1.394 . S
C2240 C2241 1.516 . S
C2241 C2240 1.516 . S
C2241 C2242 1.502 . S
C2241 C2243 1.561 1_565 S
C2241 C2244 1.526 . S
C2242 H2226 0.959 . S
C2242 H2227 0.959 1_565 S
C2242 H2228 0.961 . S
C2242 C2241 1.502 . S
C2243 H2229 0.960 . S
C2243 H2230 0.961 . S
C2243 H2231 0.959 . S
C2243 C2241 1.561 1_545 S
C2244 C2241 1.526 . S
C2244 C2245 1.396 . S
C2244 C2249 1.390 . S
C2245 C2239 1.465 . S
C2245 C2244 1.396 . S
C2245 C2246 1.399 . S
C2246 H2232 0.929 . S
C2246 C2245 1.399 . S
C2246 C2247 1.385 . S
C2247 H2233 0.931 . S
C2247 C2246 1.385 . S
C2247 C2248 1.389 . S
C2248 C2247 1.389 . S
C2248 C2249 1.387 . S
C2249 H2234 0.930 1_565 S
C2249 C2244 1.390 . S
C2249 C2248 1.387 . S
H2250 C2262 0.930 . S
H2251 C2264 0.930 . S
H2252 C2265 0.930 . S
H2253 C2269 0.959 . S
H2254 C2269 0.959 1_655 S
H2255 C2269 0.961 . S
H2256 C2270 0.960 . S
H2257 C2270 0.961 . S
H2258 C2270 0.959 . S
H2259 C2273 0.929 . S
H2260 C2274 0.931 . S
H2261 C2276 0.930 1_655 S
C2262 H2250 0.930 . S
C2262 C2263 1.399 . S
C2262 C2267 1.399 . S
C2263 C2262 1.399 . S
C2263 C2264 1.376 . S
C2264 H2251 0.930 . S
C2264 C2263 1.376 . S
C2264 C2265 1.388 . S
C2265 H2252 0.930 . S
C2265 C2264 1.388 . S
C2265 C2266 1.390 . S
C2266 C2265 1.390 . S
C2266 C2267 1.394 . S
C2266 C2272 1.465 . S
C2267 C2262 1.399 . S
C2267 C2266 1.394 . S
C2267 C2268 1.516 . S
C2268 C2267 1.516 . S
C2268 C2269 1.502 . S
C2268 C2270 1.561 1_455 S
C2268 C2271 1.526 . S
C2269 H2253 0.959 . S
C2269 H2254 0.959 1_455 S
C2269 H2255 0.961 . S
C2269 C2268 1.502 . S
C2270 H2256 0.960 . S
C2270 H2257 0.961 . S
C2270 H2258 0.959 . S
C2270 C2268 1.561 1_655 S
C2271 C2268 1.526 . S
C2271 C2272 1.396 . S
C2271 C2276 1.390 . S
C2272 C2266 1.465 . S
C2272 C2271 1.396 . S
C2272 C2273 1.399 . S
C2273 H2259 0.929 . S
C2273 C2272 1.399 . S
C2273 C2274 1.385 . S
C2274 H2260 0.931 . S
C2274 C2273 1.385 . S
C2274 C2275 1.389 . S
C2275 C2274 1.389 . S
C2275 C2276 1.387 . S
C2276 H2261 0.930 1_455 S
C2276 C2271 1.390 . S
C2276 C2275 1.387 . S
H2277 C2289 0.930 . S
H2278 C2291 0.930 . S
H2279 C2292 0.930 . S
H2280 C2296 0.959 . S
H2281 C2296 0.959 . S
H2282 C2296 0.961 . S
H2283 C2297 0.960 . S
H2284 C2297 0.961 . S
H2285 C2297 0.959 . S
H2286 C2300 0.929 . S
H2287 C2301 0.931 . S
H2288 C2303 0.930 . S
C2289 H2277 0.930 . S
C2289 C2290 1.399 . S
C2289 C2294 1.399 . S
C2290 C2289 1.399 . S
C2290 C2291 1.376 . S
C2291 H2278 0.930 . S
C2291 C2290 1.376 . S
C2291 C2292 1.388 . S
C2292 H2279 0.930 . S
C2292 C2291 1.388 . S
C2292 C2293 1.390 . S
C2293 C2292 1.390 . S
C2293 C2294 1.394 . S
C2293 C2299 1.465 . S
C2294 C2289 1.399 . S
C2294 C2293 1.394 . S
C2294 C2295 1.516 . S
C2295 C2294 1.516 . S
C2295 C2296 1.502 . S
C2295 C2297 1.561 . S
C2295 C2298 1.526 . S
C2296 H2280 0.959 . S
C2296 H2281 0.959 . S
C2296 H2282 0.961 . S
C2296 C2295 1.502 . S
C2297 H2283 0.960 . S
C2297 H2284 0.961 . S
C2297 H2285 0.959 . S
C2297 C2295 1.561 . S
C2298 C2295 1.526 . S
C2298 C2299 1.396 . S
C2298 C2303 1.390 . S
C2299 C2293 1.465 . S
C2299 C2298 1.396 . S
C2299 C2300 1.399 . S
C2300 H2286 0.929 . S
C2300 C2299 1.399 . S
C2300 C2301 1.385 . S
C2301 H2287 0.931 . S
C2301 C2300 1.385 . S
C2301 C2302 1.389 . S
C2302 C2301 1.389 . S
C2302 C2303 1.387 . S
C2303 H2288 0.930 . S
C2303 C2298 1.390 . S
C2303 C2302 1.387 . S
H2304 C2316 0.930 . S
H2305 C2318 0.930 . S
H2306 C2319 0.930 . S
H2307 C2323 0.959 . S
H2308 C2323 0.959 . S
H2309 C2323 0.961 . S
H2310 C2324 0.960 . S
H2311 C2324 0.961 . S
H2312 C2324 0.959 . S
H2313 C2327 0.929 . S
H2314 C2328 0.931 . S
H2315 C2330 0.930 . S
C2316 H2304 0.930 . S
C2316 C2317 1.399 . S
C2316 C2321 1.399 . S
C2317 C2316 1.399 . S
C2317 C2318 1.376 . S
C2318 H2305 0.930 . S
C2318 C2317 1.376 . S
C2318 C2319 1.388 . S
C2319 H2306 0.930 . S
C2319 C2318 1.388 . S
C2319 C2320 1.390 . S
C2320 C2319 1.390 . S
C2320 C2321 1.394 . S
C2320 C2326 1.465 . S
C2321 C2316 1.399 . S
C2321 C2320 1.394 . S
C2321 C2322 1.516 . S
C2322 C2321 1.516 . S
C2322 C2323 1.502 . S
C2322 C2324 1.561 . S
C2322 C2325 1.526 . S
C2323 H2307 0.959 . S
C2323 H2308 0.959 . S
C2323 H2309 0.961 . S
C2323 C2322 1.502 . S
C2324 H2310 0.960 . S
C2324 H2311 0.961 . S
C2324 H2312 0.959 . S
C2324 C2322 1.561 . S
C2325 C2322 1.526 . S
C2325 C2326 1.396 . S
C2325 C2330 1.390 . S
C2326 C2320 1.465 . S
C2326 C2325 1.396 . S
C2326 C2327 1.399 . S
C2327 H2313 0.929 . S
C2327 C2326 1.399 . S
C2327 C2328 1.385 . S
C2328 H2314 0.931 . S
C2328 C2327 1.385 . S
C2328 C2329 1.389 . S
C2329 C2328 1.389 . S
C2329 C2330 1.387 . S
C2330 H2315 0.930 . S
C2330 C2325 1.390 . S
C2330 C2329 1.387 . S
H2331 C2343 0.930 . S
H2332 C2345 0.930 . S
H2333 C2346 0.930 . S
H2334 C2350 0.959 . S
H2335 C2350 0.959 . S
H2336 C2350 0.961 . S
H2337 C2351 0.960 . S
H2338 C2351 0.961 . S
H2339 C2351 0.959 . S
H2340 C2354 0.929 . S
H2341 C2355 0.931 . S
H2342 C2357 0.930 . S
C2343 H2331 0.930 . S
C2343 C2344 1.399 . S
C2343 C2348 1.399 . S
C2344 C2343 1.399 . S
C2344 C2345 1.376 . S
C2345 H2332 0.930 . S
C2345 C2344 1.376 . S
C2345 C2346 1.388 . S
C2346 H2333 0.930 . S
C2346 C2345 1.388 . S
C2346 C2347 1.390 . S
C2347 C2346 1.390 . S
C2347 C2348 1.394 . S
C2347 C2353 1.465 . S
C2348 C2343 1.399 . S
C2348 C2347 1.394 . S
C2348 C2349 1.516 . S
C2349 C2348 1.516 . S
C2349 C2350 1.502 . S
C2349 C2351 1.561 . S
C2349 C2352 1.526 . S
C2350 H2334 0.959 . S
C2350 H2335 0.959 . S
C2350 H2336 0.961 . S
C2350 C2349 1.502 . S
C2351 H2337 0.960 . S
C2351 H2338 0.961 . S
C2351 H2339 0.959 . S
C2351 C2349 1.561 . S
C2352 C2349 1.526 . S
C2352 C2353 1.396 . S
C2352 C2357 1.390 . S
C2353 C2347 1.465 . S
C2353 C2352 1.396 . S
C2353 C2354 1.399 . S
C2354 H2340 0.929 . S
C2354 C2353 1.399 . S
C2354 C2355 1.385 1_655 S
C2355 H2341 0.931 . S
C2355 C2354 1.385 1_455 S
C2355 C2356 1.389 1_455 S
C2356 C2355 1.389 1_655 S
C2356 C2357 1.387 . S
C2357 H2342 0.930 . S
C2357 C2352 1.390 . S
C2357 C2356 1.387 . S
H2358 C2370 0.930 . S
H2359 C2372 0.930 . S
H2360 C2373 0.930 . S
H2361 C2377 0.959 . S
H2362 C2377 0.959 . S
H2363 C2377 0.961 . S
H2364 C2378 0.960 . S
H2365 C2378 0.961 . S
H2366 C2378 0.959 . S
H2367 C2381 0.929 . S
H2368 C2382 0.931 . S
H2369 C2384 0.930 . S
C2370 H2358 0.930 . S
C2370 C2371 1.399 . S
C2370 C2375 1.399 . S
C2371 C2370 1.399 . S
C2371 C2372 1.376 . S
C2372 H2359 0.930 . S
C2372 C2371 1.376 . S
C2372 C2373 1.388 . S
C2373 H2360 0.930 . S
C2373 C2372 1.388 . S
C2373 C2374 1.390 . S
C2374 C2373 1.390 . S
C2374 C2375 1.394 . S
C2374 C2380 1.465 . S
C2375 C2370 1.399 . S
C2375 C2374 1.394 . S
C2375 C2376 1.516 . S
C2376 C2375 1.516 . S
C2376 C2377 1.502 . S
C2376 C2378 1.561 . S
C2376 C2379 1.526 . S
C2377 H2361 0.959 . S
C2377 H2362 0.959 . S
C2377 H2363 0.961 . S
C2377 C2376 1.502 . S
C2378 H2364 0.960 . S
C2378 H2365 0.961 . S
C2378 H2366 0.959 . S
C2378 C2376 1.561 . S
C2379 C2376 1.526 . S
C2379 C2380 1.396 . S
C2379 C2384 1.390 . S
C2380 C2374 1.465 . S
C2380 C2379 1.396 . S
C2380 C2381 1.399 . S
C2381 H2367 0.929 . S
C2381 C2380 1.399 . S
C2381 C2382 1.385 . S
C2382 H2368 0.931 . S
C2382 C2381 1.385 . S
C2382 C2383 1.389 . S
C2383 C2382 1.389 . S
C2383 C2384 1.387 . S
C2384 H2369 0.930 . S
C2384 C2379 1.390 . S
C2384 C2383 1.387 . S
H2385 C2397 0.930 . S
H2386 C2399 0.930 . S
H2387 C2400 0.930 . S
H2388 C2404 0.959 . S
H2389 C2404 0.959 1_565 S
H2390 C2404 0.961 . S
H2391 C2405 0.960 . S
H2392 C2405 0.961 . S
H2393 C2405 0.959 . S
H2394 C2408 0.929 . S
H2395 C2409 0.931 . S
H2396 C2411 0.930 1_565 S
C2397 H2385 0.930 . S
C2397 C2398 1.399 . S
C2397 C2402 1.399 . S
C2398 C2397 1.399 . S
C2398 C2399 1.376 . S
C2399 H2386 0.930 . S
C2399 C2398 1.376 . S
C2399 C2400 1.388 . S
C2400 H2387 0.930 . S
C2400 C2399 1.388 . S
C2400 C2401 1.390 . S
C2401 C2400 1.390 . S
C2401 C2402 1.394 . S
C2401 C2407 1.465 . S
C2402 C2397 1.399 . S
C2402 C2401 1.394 . S
C2402 C2403 1.516 . S
C2403 C2402 1.516 . S
C2403 C2404 1.502 . S
C2403 C2405 1.561 1_545 S
C2403 C2406 1.526 . S
C2404 H2388 0.959 . S
C2404 H2389 0.959 1_545 S
C2404 H2390 0.961 . S
C2404 C2403 1.502 . S
C2405 H2391 0.960 . S
C2405 H2392 0.961 . S
C2405 H2393 0.959 . S
C2405 C2403 1.561 1_565 S
C2406 C2403 1.526 . S
C2406 C2407 1.396 . S
C2406 C2411 1.390 . S
C2407 C2401 1.465 . S
C2407 C2406 1.396 . S
C2407 C2408 1.399 . S
C2408 H2394 0.929 . S
C2408 C2407 1.399 . S
C2408 C2409 1.385 . S
C2409 H2395 0.931 . S
C2409 C2408 1.385 . S
C2409 C2410 1.389 . S
C2410 C2409 1.389 . S
C2410 C2411 1.387 . S
C2411 H2396 0.930 1_545 S
C2411 C2406 1.390 . S
C2411 C2410 1.387 . S
H2412 C2424 0.930 . S
H2413 C2426 0.930 . S
H2414 C2427 0.930 . S
H2415 C2431 0.959 . S
H2416 C2431 0.959 1_455 S
H2417 C2431 0.961 . S
H2418 C2432 0.960 . S
H2419 C2432 0.961 . S
H2420 C2432 0.959 . S
H2421 C2435 0.929 . S
H2422 C2436 0.931 . S
H2423 C2438 0.930 1_455 S
C2424 H2412 0.930 . S
C2424 C2425 1.399 . S
C2424 C2429 1.399 . S
C2425 C2424 1.399 . S
C2425 C2426 1.376 . S
C2426 H2413 0.930 . S
C2426 C2425 1.376 . S
C2426 C2427 1.388 . S
C2427 H2414 0.930 . S
C2427 C2426 1.388 . S
C2427 C2428 1.390 . S
C2428 C2427 1.390 . S
C2428 C2429 1.394 . S
C2428 C2434 1.465 . S
C2429 C2424 1.399 . S
C2429 C2428 1.394 . S
C2429 C2430 1.516 . S
C2430 C2429 1.516 . S
C2430 C2431 1.502 . S
C2430 C2432 1.561 1_655 S
C2430 C2433 1.526 . S
C2431 H2415 0.959 . S
C2431 H2416 0.959 1_655 S
C2431 H2417 0.961 . S
C2431 C2430 1.502 . S
C2432 H2418 0.960 . S
C2432 H2419 0.961 . S
C2432 H2420 0.959 . S
C2432 C2430 1.561 1_455 S
C2433 C2430 1.526 . S
C2433 C2434 1.396 . S
C2433 C2438 1.390 . S
C2434 C2428 1.465 . S
C2434 C2433 1.396 . S
C2434 C2435 1.399 . S
C2435 H2421 0.929 . S
C2435 C2434 1.399 . S
C2435 C2436 1.385 . S
C2436 H2422 0.931 . S
C2436 C2435 1.385 . S
C2436 C2437 1.389 . S
C2437 C2436 1.389 . S
C2437 C2438 1.387 . S
C2438 H2423 0.930 1_655 S
C2438 C2433 1.390 . S
C2438 C2437 1.387 . S
H2439 C2451 0.930 . S
H2440 C2453 0.930 . S
H2441 C2454 0.930 . S
H2442 C2458 0.959 . S
H2443 C2458 0.959 . S
H2444 C2458 0.961 . S
H2445 C2459 0.960 . S
H2446 C2459 0.961 . S
H2447 C2459 0.959 . S
H2448 C2462 0.929 . S
H2449 C2463 0.931 . S
H2450 C2465 0.930 . S
C2451 H2439 0.930 . S
C2451 C2452 1.399 . S
C2451 C2456 1.399 . S
C2452 C2451 1.399 . S
C2452 C2453 1.376 . S
C2453 H2440 0.930 . S
C2453 C2452 1.376 . S
C2453 C2454 1.388 . S
C2454 H2441 0.930 . S
C2454 C2453 1.388 . S
C2454 C2455 1.390 . S
C2455 C2454 1.390 . S
C2455 C2456 1.394 . S
C2455 C2461 1.465 . S
C2456 C2451 1.399 . S
C2456 C2455 1.394 . S
C2456 C2457 1.516 . S
C2457 C2456 1.516 . S
C2457 C2458 1.502 . S
C2457 C2459 1.561 . S
C2457 C2460 1.526 . S
C2458 H2442 0.959 . S
C2458 H2443 0.959 . S
C2458 H2444 0.961 . S
C2458 C2457 1.502 . S
C2459 H2445 0.960 . S
C2459 H2446 0.961 . S
C2459 H2447 0.959 . S
C2459 C2457 1.561 . S
C2460 C2457 1.526 . S
C2460 C2461 1.396 . S
C2460 C2465 1.390 . S
C2461 C2455 1.465 . S
C2461 C2460 1.396 . S
C2461 C2462 1.399 . S
C2462 H2448 0.929 . S
C2462 C2461 1.399 . S
C2462 C2463 1.385 . S
C2463 H2449 0.931 . S
C2463 C2462 1.385 . S
C2463 C2464 1.389 . S
C2464 C2463 1.389 . S
C2464 C2465 1.387 . S
C2465 H2450 0.930 . S
C2465 C2460 1.390 . S
C2465 C2464 1.387 . S
H2466 C2478 0.930 . S
H2467 C2480 0.930 . S
H2468 C2481 0.930 . S
H2469 C2485 0.959 . S
H2470 C2485 0.959 . S
H2471 C2485 0.961 . S
H2472 C2486 0.960 . S
H2473 C2486 0.961 . S
H2474 C2486 0.959 . S
H2475 C2489 0.929 . S
H2476 C2490 0.931 . S
H2477 C2492 0.930 . S
C2478 H2466 0.930 . S
C2478 C2479 1.399 . S
C2478 C2483 1.399 . S
C2479 C2478 1.399 . S
C2479 C2480 1.376 . S
C2480 H2467 0.930 . S
C2480 C2479 1.376 . S
C2480 C2481 1.388 . S
C2481 H2468 0.930 . S
C2481 C2480 1.388 . S
C2481 C2482 1.390 . S
C2482 C2481 1.390 . S
C2482 C2483 1.394 . S
C2482 C2488 1.465 . S
C2483 C2478 1.399 . S
C2483 C2482 1.394 . S
C2483 C2484 1.516 . S
C2484 C2483 1.516 . S
C2484 C2485 1.502 . S
C2484 C2486 1.561 . S
C2484 C2487 1.526 . S
C2485 H2469 0.959 . S
C2485 H2470 0.959 . S
C2485 H2471 0.961 . S
C2485 C2484 1.502 . S
C2486 H2472 0.960 . S
C2486 H2473 0.961 . S
C2486 H2474 0.959 . S
C2486 C2484 1.561 . S
C2487 C2484 1.526 . S
C2487 C2488 1.396 . S
C2487 C2492 1.390 . S
C2488 C2482 1.465 . S
C2488 C2487 1.396 . S
C2488 C2489 1.399 1_565 S
C2489 H2475 0.929 . S
C2489 C2488 1.399 1_545 S
C2489 C2490 1.385 . S
C2490 H2476 0.931 . S
C2490 C2489 1.385 . S
C2490 C2491 1.389 1_545 S
C2491 C2490 1.389 1_565 S
C2491 C2492 1.387 . S
C2492 H2477 0.930 . S
C2492 C2487 1.390 . S
C2492 C2491 1.387 . S
H2493 C2505 0.930 . S
H2494 C2507 0.930 . S
H2495 C2508 0.930 . S
H2496 C2512 0.959 . S
H2497 C2512 0.959 . S
H2498 C2512 0.961 . S
H2499 C2513 0.960 . S
H2500 C2513 0.961 . S
H2501 C2513 0.959 1_655 S
H2502 C2516 0.929 . S
H2503 C2517 0.931 . S
H2504 C2519 0.930 . S
C2505 H2493 0.930 . S
C2505 C2506 1.399 . S
C2505 C2510 1.399 . S
C2506 C2505 1.399 . S
C2506 C2507 1.376 . S
C2507 H2494 0.930 . S
C2507 C2506 1.376 . S
C2507 C2508 1.388 . S
C2508 H2495 0.930 . S
C2508 C2507 1.388 . S
C2508 C2509 1.390 . S
C2509 C2508 1.390 . S
C2509 C2510 1.394 . S
C2509 C2515 1.465 . S
C2510 C2505 1.399 . S
C2510 C2509 1.394 . S
C2510 C2511 1.516 . S
C2511 C2510 1.516 . S
C2511 C2512 1.502 . S
C2511 C2513 1.561 . S
C2511 C2514 1.526 . S
C2512 H2496 0.959 . S
C2512 H2497 0.959 . S
C2512 H2498 0.961 . S
C2512 C2511 1.502 . S
C2513 H2499 0.960 . S
C2513 H2500 0.961 . S
C2513 H2501 0.959 1_455 S
C2513 C2511 1.561 . S
C2514 C2511 1.526 . S
C2514 C2515 1.396 . S
C2514 C2519 1.390 . S
C2515 C2509 1.465 . S
C2515 C2514 1.396 . S
C2515 C2516 1.399 . S
C2516 H2502 0.929 . S
C2516 C2515 1.399 . S
C2516 C2517 1.385 . S
C2517 H2503 0.931 . S
C2517 C2516 1.385 . S
C2517 C2518 1.389 . S
C2518 C2517 1.389 . S
C2518 C2519 1.387 . S
C2519 H2504 0.930 . S
C2519 C2514 1.390 . S
C2519 C2518 1.387 . S
H2520 C2532 0.930 . S
H2521 C2534 0.930 . S
H2522 C2535 0.930 . S
H2523 C2539 0.959 . S
H2524 C2539 0.959 . S
H2525 C2539 0.961 . S
H2526 C2540 0.960 . S
H2527 C2540 0.961 . S
H2528 C2540 0.959 . S
H2529 C2543 0.929 . S
H2530 C2544 0.931 . S
H2531 C2546 0.930 . S
C2532 H2520 0.930 . S
C2532 C2533 1.399 . S
C2532 C2537 1.399 . S
C2533 C2532 1.399 . S
C2533 C2534 1.376 . S
C2534 H2521 0.930 . S
C2534 C2533 1.376 . S
C2534 C2535 1.388 . S
C2535 H2522 0.930 . S
C2535 C2534 1.388 . S
C2535 C2536 1.390 . S
C2536 C2535 1.390 . S
C2536 C2537 1.394 . S
C2536 C2542 1.465 . S
C2537 C2532 1.399 . S
C2537 C2536 1.394 . S
C2537 C2538 1.516 . S
C2538 C2537 1.516 . S
C2538 C2539 1.502 . S
C2538 C2540 1.561 . S
C2538 C2541 1.526 . S
C2539 H2523 0.959 . S
C2539 H2524 0.959 . S
C2539 H2525 0.961 . S
C2539 C2538 1.502 . S
C2540 H2526 0.960 . S
C2540 H2527 0.961 . S
C2540 H2528 0.959 . S
C2540 C2538 1.561 . S
C2541 C2538 1.526 . S
C2541 C2542 1.396 . S
C2541 C2546 1.390 . S
C2542 C2536 1.465 . S
C2542 C2541 1.396 . S
C2542 C2543 1.399 1_655 S
C2543 H2529 0.929 . S
C2543 C2542 1.399 1_455 S
C2543 C2544 1.385 . S
C2544 H2530 0.931 . S
C2544 C2543 1.385 . S
C2544 C2545 1.389 . S
C2545 C2544 1.389 . S
C2545 C2546 1.387 1_455 S
C2546 H2531 0.930 . S
C2546 C2541 1.390 . S
C2546 C2545 1.387 1_655 S
H2547 C2559 0.930 . S
H2548 C2561 0.930 . S
H2549 C2562 0.930 . S
H2550 C2566 0.959 . S
H2551 C2566 0.959 . S
H2552 C2566 0.961 . S
H2553 C2567 0.960 . S
H2554 C2567 0.961 . S
H2555 C2567 0.959 . S
H2556 C2570 0.929 . S
H2557 C2571 0.931 . S
H2558 C2573 0.930 . S
C2559 H2547 0.930 . S
C2559 C2560 1.399 . S
C2559 C2564 1.399 . S
C2560 C2559 1.399 . S
C2560 C2561 1.376 . S
C2561 H2548 0.930 . S
C2561 C2560 1.376 . S
C2561 C2562 1.388 . S
C2562 H2549 0.930 . S
C2562 C2561 1.388 . S
C2562 C2563 1.390 . S
C2563 C2562 1.390 . S
C2563 C2564 1.394 . S
C2563 C2569 1.465 . S
C2564 C2559 1.399 . S
C2564 C2563 1.394 . S
C2564 C2565 1.516 . S
C2565 C2564 1.516 . S
C2565 C2566 1.502 . S
C2565 C2567 1.561 . S
C2565 C2568 1.526 . S
C2566 H2550 0.959 . S
C2566 H2551 0.959 . S
C2566 H2552 0.961 . S
C2566 C2565 1.502 . S
C2567 H2553 0.960 . S
C2567 H2554 0.961 . S
C2567 H2555 0.959 . S
C2567 C2565 1.561 . S
C2568 C2565 1.526 . S
C2568 C2569 1.396 . S
C2568 C2573 1.390 . S
C2569 C2563 1.465 . S
C2569 C2568 1.396 . S
C2569 C2570 1.399 . S
C2570 H2556 0.929 . S
C2570 C2569 1.399 . S
C2570 C2571 1.385 . S
C2571 H2557 0.931 . S
C2571 C2570 1.385 . S
C2571 C2572 1.389 . S
C2572 C2571 1.389 . S
C2572 C2573 1.387 . S
C2573 H2558 0.930 . S
C2573 C2568 1.390 . S
C2573 C2572 1.387 . S
H2574 C2586 0.930 . S
H2575 C2588 0.930 1_565 S
H2576 C2589 0.930 . S
H2577 C2593 0.959 . S
H2578 C2593 0.959 . S
H2579 C2593 0.961 1_565 S
H2580 C2594 0.960 1_565 S
H2581 C2594 0.961 . S
H2582 C2594 0.959 . S
H2583 C2597 0.929 . S
H2584 C2598 0.931 . S
H2585 C2600 0.930 . S
C2586 H2574 0.930 . S
C2586 C2587 1.399 . S
C2586 C2591 1.399 1_565 S
C2587 C2586 1.399 . S
C2587 C2588 1.376 1_565 S
C2588 H2575 0.930 1_545 S
C2588 C2587 1.376 1_545 S
C2588 C2589 1.388 . S
C2589 H2576 0.930 . S
C2589 C2588 1.388 . S
C2589 C2590 1.390 . S
C2590 C2589 1.390 . S
C2590 C2591 1.394 . S
C2590 C2596 1.465 . S
C2591 C2586 1.399 1_545 S
C2591 C2590 1.394 . S
C2591 C2592 1.516 . S
C2592 C2591 1.516 . S
C2592 C2593 1.502 . S
C2592 C2594 1.561 . S
C2592 C2595 1.526 . S
C2593 H2577 0.959 . S
C2593 H2578 0.959 . S
C2593 H2579 0.961 1_545 S
C2593 C2592 1.502 . S
C2594 H2580 0.960 1_545 S
C2594 H2581 0.961 . S
C2594 H2582 0.959 . S
C2594 C2592 1.561 . S
C2595 C2592 1.526 . S
C2595 C2596 1.396 . S
C2595 C2600 1.390 . S
C2596 C2590 1.465 . S
C2596 C2595 1.396 . S
C2596 C2597 1.399 . S
C2597 H2583 0.929 . S
C2597 C2596 1.399 . S
C2597 C2598 1.385 . S
C2598 H2584 0.931 . S
C2598 C2597 1.385 . S
C2598 C2599 1.389 . S
C2599 C2598 1.389 . S
C2599 C2600 1.387 . S
C2600 H2585 0.930 . S
C2600 C2595 1.390 . S
C2600 C2599 1.387 . S
H2601 C2613 0.930 . S
H2602 C2615 0.930 . S
H2603 C2616 0.930 . S
H2604 C2620 0.959 . S
H2605 C2620 0.959 . S
H2606 C2620 0.961 . S
H2607 C2621 0.960 . S
H2608 C2621 0.961 . S
H2609 C2621 0.959 1_655 S
H2610 C2624 0.929 . S
H2611 C2625 0.941 . S
H2612 C2627 0.930 . S
C2613 H2601 0.930 . S
C2613 C2614 1.399 1_455 S
C2613 C2618 1.399 . S
C2614 C2613 1.399 1_655 S
C2614 C2615 1.376 . S
C2615 H2602 0.930 . S
C2615 C2614 1.376 . S
C2615 C2616 1.388 . S
C2616 H2603 0.930 . S
C2616 C2615 1.388 . S
C2616 C2617 1.390 . S
C2617 C2616 1.390 . S
C2617 C2618 1.394 1_655 S
C2617 C2623 1.467 1_655 S
C2618 C2613 1.399 . S
C2618 C2617 1.394 1_455 S
C2618 C2619 1.516 . S
C2619 C2618 1.516 . S
C2619 C2620 1.502 . S
C2619 C2621 1.561 . S
C2619 C2622 1.526 . S
C2620 H2604 0.959 . S
C2620 H2605 0.959 . S
C2620 H2606 0.961 . S
C2620 C2619 1.502 . S
C2621 H2607 0.960 . S
C2621 H2608 0.961 . S
C2621 H2609 0.959 1_455 S
C2621 C2619 1.561 . S
C2622 C2619 1.526 . S
C2622 C2623 1.401 . S
C2622 C2627 1.390 . S
C2623 C2617 1.467 1_455 S
C2623 C2622 1.401 . S
C2623 C2624 1.393 1_455 S
C2624 H2610 0.929 . S
C2624 C2623 1.393 1_655 S
C2624 C2625 1.385 1_655 S
C2625 H2611 0.941 . S
C2625 C2624 1.385 1_455 S
C2625 C2626 1.389 . S
C2626 C2625 1.389 . S
C2626 C2627 1.387 . S
C2627 H2612 0.930 . S
C2627 C2622 1.390 . S
C2627 C2626 1.387 . S
H2628 C2640 0.930 . S
H2629 C2642 0.930 . S
H2630 C2643 0.930 . S
H2631 C2647 0.959 . S
H2632 C2647 0.959 . S
H2633 C2647 0.961 . S
H2634 C2648 0.960 . S
H2635 C2648 0.961 . S
H2636 C2648 0.959 . S
H2637 C2651 0.929 . S
H2638 C2652 0.931 . S
H2639 C2654 0.930 . S
C2640 H2628 0.930 . S
C2640 C2641 1.399 . S
C2640 C2645 1.399 . S
C2641 C2640 1.399 . S
C2641 C2642 1.376 . S
C2642 H2629 0.930 . S
C2642 C2641 1.376 . S
C2642 C2643 1.388 . S
C2643 H2630 0.930 . S
C2643 C2642 1.388 . S
C2643 C2644 1.390 . S
C2644 C2643 1.390 . S
C2644 C2645 1.394 . S
C2644 C2650 1.465 . S
C2645 C2640 1.399 . S
C2645 C2644 1.394 . S
C2645 C2646 1.516 . S
C2646 C2645 1.516 . S
C2646 C2647 1.502 . S
C2646 C2648 1.561 . S
C2646 C2649 1.526 . S
C2647 H2631 0.959 . S
C2647 H2632 0.959 . S
C2647 H2633 0.961 . S
C2647 C2646 1.502 . S
C2648 H2634 0.960 . S
C2648 H2635 0.961 . S
C2648 H2636 0.959 . S
C2648 C2646 1.561 . S
C2649 C2646 1.526 . S
C2649 C2650 1.396 . S
C2649 C2654 1.390 . S
C2650 C2644 1.465 . S
C2650 C2649 1.396 . S
C2650 C2651 1.399 . S
C2651 H2637 0.929 . S
C2651 C2650 1.399 . S
C2651 C2652 1.385 . S
C2652 H2638 0.931 . S
C2652 C2651 1.385 . S
C2652 C2653 1.389 . S
C2653 C2652 1.389 . S
C2653 C2654 1.387 . S
C2654 H2639 0.930 . S
C2654 C2649 1.390 . S
C2654 C2653 1.387 . S
H2655 C2667 0.930 . S
H2656 C2669 0.930 . S
H2657 C2670 0.930 . S
H2658 C2674 0.959 . S
H2659 C2674 0.959 . S
H2660 C2674 0.961 . S
H2661 C2675 0.960 . S
H2662 C2675 0.961 . S
H2663 C2675 0.959 . S
H2664 C2678 0.929 . S
H2665 C2679 0.931 1_545 S
H2666 C2681 0.930 . S
C2667 H2655 0.930 . S
C2667 C2668 1.399 1_565 S
C2667 C2672 1.399 . S
C2668 C2667 1.399 1_545 S
C2668 C2669 1.376 . S
C2669 H2656 0.930 . S
C2669 C2668 1.376 . S
C2669 C2670 1.388 . S
C2670 H2657 0.930 . S
C2670 C2669 1.388 . S
C2670 C2671 1.390 . S
C2671 C2670 1.390 . S
C2671 C2672 1.394 1_545 S
C2671 C2677 1.465 1_545 S
C2672 C2667 1.399 . S
C2672 C2671 1.394 1_565 S
C2672 C2673 1.516 . S
C2673 C2672 1.516 . S
C2673 C2674 1.502 . S
C2673 C2675 1.561 . S
C2673 C2676 1.526 . S
C2674 H2658 0.959 . S
C2674 H2659 0.959 . S
C2674 H2660 0.961 . S
C2674 C2673 1.502 . S
C2675 H2661 0.960 . S
C2675 H2662 0.961 . S
C2675 H2663 0.959 . S
C2675 C2673 1.561 . S
C2676 C2673 1.526 . S
C2676 C2677 1.396 . S
C2676 C2681 1.390 . S
C2677 C2671 1.465 1_565 S
C2677 C2676 1.396 . S
C2677 C2678 1.399 1_565 S
C2678 H2664 0.929 . S
C2678 C2677 1.399 1_545 S
C2678 C2679 1.385 1_545 S
C2679 H2665 0.931 1_565 S
C2679 C2678 1.385 1_565 S
C2679 C2680 1.389 . S
C2680 C2679 1.389 . S
C2680 C2681 1.387 . S
C2681 H2666 0.930 . S
C2681 C2676 1.390 . S
C2681 C2680 1.387 . S
H2682 C2694 0.930 1_545 S
H2683 C2696 0.930 . S
H2684 C2697 0.930 . S
H2685 C2701 0.959 . S
H2686 C2701 0.959 . S
H2687 C2701 0.961 . S
H2688 C2702 0.960 . S
H2689 C2702 0.961 . S
H2690 C2702 0.959 1_565 S
H2691 C2705 0.929 . S
H2692 C2706 0.931 . S
H2693 C2708 0.930 . S
C2694 H2682 0.930 1_565 S
C2694 C2695 1.399 . S
C2694 C2699 1.399 . S
C2695 C2694 1.399 . S
C2695 C2696 1.376 . S
C2696 H2683 0.930 . S
C2696 C2695 1.376 . S
C2696 C2697 1.388 . S
C2697 H2684 0.930 . S
C2697 C2696 1.388 . S
C2697 C2698 1.390 . S
C2698 C2697 1.390 . S
C2698 C2699 1.394 . S
C2698 C2704 1.465 . S
C2699 C2694 1.399 . S
C2699 C2698 1.394 . S
C2699 C2700 1.516 1_565 S
C2700 C2699 1.516 1_545 S
C2700 C2701 1.502 . S
C2700 C2702 1.561 . S
C2700 C2703 1.526 . S
C2701 H2685 0.959 . S
C2701 H2686 0.959 . S
C2701 H2687 0.961 . S
C2701 C2700 1.502 . S
C2702 H2688 0.960 . S
C2702 H2689 0.961 . S
C2702 H2690 0.959 1_545 S
C2702 C2700 1.561 . S
C2703 C2700 1.526 . S
C2703 C2704 1.396 1_545 S
C2703 C2708 1.390 . S
C2704 C2698 1.465 . S
C2704 C2703 1.396 1_565 S
C2704 C2705 1.399 . S
C2705 H2691 0.929 . S
C2705 C2704 1.399 . S
C2705 C2706 1.385 . S
C2706 H2692 0.931 . S
C2706 C2705 1.385 . S
C2706 C2707 1.389 1_565 S
C2707 C2706 1.389 1_545 S
C2707 C2708 1.387 . S
C2708 H2693 0.930 . S
C2708 C2703 1.390 . S
C2708 C2707 1.387 . S
H2709 C2721 0.930 . S
H2710 C2723 0.930 . S
H2711 C2724 0.930 . S
H2712 C2728 0.959 . S
H2713 C2728 0.959 . S
H2714 C2728 0.961 . S
H2715 C2729 0.960 . S
H2716 C2729 0.961 . S
H2717 C2729 0.959 . S
H2718 C2732 0.929 . S
H2719 C2733 0.931 . S
H2720 C2735 0.930 . S
C2721 H2709 0.930 . S
C2721 C2722 1.399 . S
C2721 C2726 1.399 . S
C2722 C2721 1.399 . S
C2722 C2723 1.376 . S
C2723 H2710 0.930 . S
C2723 C2722 1.376 . S
C2723 C2724 1.388 . S
C2724 H2711 0.930 . S
C2724 C2723 1.388 . S
C2724 C2725 1.390 . S
C2725 C2724 1.390 . S
C2725 C2726 1.394 . S
C2725 C2731 1.465 1_655 S
C2726 C2721 1.399 . S
C2726 C2725 1.394 . S
C2726 C2727 1.516 1_655 S
C2727 C2726 1.516 1_455 S
C2727 C2728 1.502 . S
C2727 C2729 1.561 1_455 S
C2727 C2730 1.526 . S
C2728 H2712 0.959 . S
C2728 H2713 0.959 . S
C2728 H2714 0.961 . S
C2728 C2727 1.502 . S
C2729 H2715 0.960 . S
C2729 H2716 0.961 . S
C2729 H2717 0.959 . S
C2729 C2727 1.561 1_655 S
C2730 C2727 1.526 . S
C2730 C2731 1.396 . S
C2730 C2735 1.390 . S
C2731 C2725 1.465 1_455 S
C2731 C2730 1.396 . S
C2731 C2732 1.399 . S
C2732 H2718 0.929 . S
C2732 C2731 1.399 . S
C2732 C2733 1.385 . S
C2733 H2719 0.931 . S
C2733 C2732 1.385 . S
C2733 C2734 1.389 . S
C2734 C2733 1.389 . S
C2734 C2735 1.387 . S
C2735 H2720 0.930 . S
C2735 C2730 1.390 . S
C2735 C2734 1.387 . S
H2736 C2748 0.930 . S
H2737 C2750 0.930 . S
H2738 C2751 0.930 . S
H2739 C2755 0.959 . S
H2740 C2755 0.959 . S
H2741 C2755 0.961 . S
H2742 C2756 0.960 . S
H2743 C2756 0.961 . S
H2744 C2756 0.959 . S
H2745 C2759 0.929 . S
H2746 C2760 0.931 . S
H2747 C2762 0.930 . S
C2748 H2736 0.930 . S
C2748 C2749 1.399 . S
C2748 C2753 1.399 . S
C2749 C2748 1.399 . S
C2749 C2750 1.376 . S
C2750 H2737 0.930 . S
C2750 C2749 1.376 . S
C2750 C2751 1.388 . S
C2751 H2738 0.930 . S
C2751 C2750 1.388 . S
C2751 C2752 1.390 . S
C2752 C2751 1.390 . S
C2752 C2753 1.394 . S
C2752 C2758 1.465 . S
C2753 C2748 1.399 . S
C2753 C2752 1.394 . S
C2753 C2754 1.516 . S
C2754 C2753 1.516 . S
C2754 C2755 1.502 . S
C2754 C2756 1.561 . S
C2754 C2757 1.526 . S
C2755 H2739 0.959 . S
C2755 H2740 0.959 . S
C2755 H2741 0.961 . S
C2755 C2754 1.502 . S
C2756 H2742 0.960 . S
C2756 H2743 0.961 . S
C2756 H2744 0.959 . S
C2756 C2754 1.561 . S
C2757 C2754 1.526 . S
C2757 C2758 1.396 . S
C2757 C2762 1.390 . S
C2758 C2752 1.465 . S
C2758 C2757 1.396 . S
C2758 C2759 1.399 . S
C2759 H2745 0.929 . S
C2759 C2758 1.399 . S
C2759 C2760 1.385 . S
C2760 H2746 0.931 . S
C2760 C2759 1.385 . S
C2760 C2761 1.389 . S
C2761 C2760 1.389 . S
C2761 C2762 1.387 . S
C2762 H2747 0.930 . S
C2762 C2757 1.390 . S
C2762 C2761 1.387 . S
H2763 C2775 0.930 . S
H2764 C2777 0.930 . S
H2765 C2778 0.943 . S
H2766 C2782 0.959 . S
H2767 C2782 0.959 1_554 S
H2768 C2782 0.961 . S
H2769 C2783 0.960 1_565 S
H2770 C2783 0.961 . S
H2771 C2783 0.959 . S
H2772 C2786 0.929 . S
H2773 C2787 0.931 . S
H2774 C2789 0.930 . S
C2775 H2763 0.930 . S
C2775 C2776 1.399 . S
C2775 C2780 1.417 1_565 S
C2776 C2775 1.399 . S
C2776 C2777 1.376 . S
C2777 H2764 0.930 . S
C2777 C2776 1.376 . S
C2777 C2778 1.388 1_565 S
C2778 H2765 0.943 . S
C2778 C2777 1.388 1_545 S
C2778 C2779 1.390 1_556 S
C2779 C2778 1.390 1_554 S
C2779 C2780 1.388 1_554 S
C2779 C2785 1.465 . S
C2780 C2775 1.417 1_545 S
C2780 C2779 1.388 1_556 S
C2780 C2781 1.502 1_556 S
C2781 C2780 1.502 1_554 S
C2781 C2782 1.502 1_554 S
C2781 C2783 1.561 . S
C2781 C2784 1.526 . S
C2782 H2766 0.959 . S
C2782 H2767 0.959 1_556 S
C2782 H2768 0.961 . S
C2782 C2781 1.502 1_556 S
C2783 H2769 0.960 1_545 S
C2783 H2770 0.961 . S
C2783 H2771 0.959 . S
C2783 C2781 1.561 . S
C2784 C2781 1.526 . S
C2784 C2785 1.396 . S
C2784 C2789 1.390 . S
C2785 C2779 1.465 . S
C2785 C2784 1.396 . S
C2785 C2786 1.399 . S
C2786 H2772 0.929 . S
C2786 C2785 1.399 . S
C2786 C2787 1.385 . S
C2787 H2773 0.931 . S
C2787 C2786 1.385 . S
C2787 C2788 1.389 . S
C2788 C2787 1.389 . S
C2788 C2789 1.387 . S
C2789 H2774 0.930 . S
C2789 C2784 1.390 . S
C2789 C2788 1.387 . S
H2790 C2802 0.930 . S
H2791 C2804 0.930 . S
H2792 C2805 0.930 . S
H2793 C2809 0.959 . S
H2794 C2809 0.959 . S
H2795 C2809 0.961 . S
H2796 C2810 0.960 . S
H2797 C2810 0.961 . S
H2798 C2810 0.959 . S
H2799 C2813 0.929 . S
H2800 C2814 0.931 . S
H2801 C2816 0.930 . S
C2802 H2790 0.930 . S
C2802 C2803 1.399 . S
C2802 C2807 1.399 . S
C2803 C2802 1.399 . S
C2803 C2804 1.376 . S
C2804 H2791 0.930 . S
C2804 C2803 1.376 . S
C2804 C2805 1.388 . S
C2805 H2792 0.930 . S
C2805 C2804 1.388 . S
C2805 C2806 1.390 . S
C2806 C2805 1.390 . S
C2806 C2807 1.394 . S
C2806 C2812 1.466 . S
C2807 C2802 1.399 . S
C2807 C2806 1.394 . S
C2807 C2808 1.516 . S
C2808 C2807 1.516 . S
C2808 C2809 1.502 . S
C2808 C2810 1.561 1_554 S
C2808 C2811 1.526 1_554 S
C2809 H2793 0.959 . S
C2809 H2794 0.959 . S
C2809 H2795 0.961 . S
C2809 C2808 1.502 . S
C2810 H2796 0.960 . S
C2810 H2797 0.961 . S
C2810 H2798 0.959 . S
C2810 C2808 1.561 1_556 S
C2811 C2808 1.526 1_556 S
C2811 C2812 1.396 1_556 S
C2811 C2816 1.390 1_655 S
C2812 C2806 1.466 . S
C2812 C2811 1.396 1_554 S
C2812 C2813 1.398 1_554 S
C2813 H2799 0.929 . S
C2813 C2812 1.398 1_556 S
C2813 C2814 1.385 1_655 S
C2814 H2800 0.931 . S
C2814 C2813 1.385 1_455 S
C2814 C2815 1.389 . S
C2815 C2814 1.389 . S
C2815 C2816 1.387 . S
C2816 H2801 0.930 . S
C2816 C2811 1.390 1_455 S
C2816 C2815 1.387 . S
H2817 C2829 0.930 . S
H2818 C2831 0.930 . S
H2819 C2832 0.978 . S
H2820 C2836 0.959 . S
H2821 C2836 0.959 . S
H2822 C2836 0.961 . S
H2823 C2837 0.960 . S
H2824 C2837 0.983 . S
H2825 C2837 0.959 1_556 S
H2826 C2840 0.929 . S
H2827 C2841 0.931 . S
H2828 C2843 0.930 . S
C2829 H2817 0.930 . S
C2829 C2830 1.399 . S
C2829 C2834 1.399 . S
C2830 C2829 1.399 . S
C2830 C2831 1.376 . S
C2831 H2818 0.930 . S
C2831 C2830 1.376 . S
C2831 C2832 1.388 . S
C2832 H2819 0.978 . S
C2832 C2831 1.388 . S
C2832 C2833 1.390 . S
C2833 C2832 1.390 . S
C2833 C2834 1.394 . S
C2833 C2839 1.465 1_554 S
C2834 C2829 1.399 . S
C2834 C2833 1.394 . S
C2834 C2835 1.516 . S
C2835 C2834 1.516 . S
C2835 C2836 1.502 . S
C2835 C2837 1.561 . S
C2835 C2838 1.536 . S
C2836 H2820 0.959 . S
C2836 H2821 0.959 . S
C2836 H2822 0.961 . S
C2836 C2835 1.502 . S
C2837 H2823 0.960 . S
C2837 H2824 0.983 . S
C2837 H2825 0.959 1_554 S
C2837 C2835 1.561 . S
C2838 C2835 1.536 . S
C2838 C2839 1.393 1_554 S
C2838 C2843 1.383 1_554 S
C2839 C2833 1.465 1_556 S
C2839 C2838 1.393 1_556 S
C2839 C2840 1.399 . S
C2840 H2826 0.929 . S
C2840 C2839 1.399 . S
C2840 C2841 1.385 . S
C2841 H2827 0.931 . S
C2841 C2840 1.385 . S
C2841 C2842 1.389 . S
C2842 C2841 1.389 . S
C2842 C2843 1.387 . S
C2843 H2828 0.930 . S
C2843 C2838 1.383 1_556 S
C2843 C2842 1.387 . S
H2844 C2856 0.930 1_565 S
H2845 C2858 0.930 . S
H2846 C2859 0.930 . S
H2847 C2863 0.959 . S
H2848 C2863 0.959 . S
H2849 C2863 0.961 . S
H2850 C2864 0.960 . S
H2851 C2864 0.961 . S
H2852 C2864 0.959 . S
H2853 C2867 0.929 . S
H2854 C2868 0.931 . S
H2855 C2870 0.930 . S
C2856 H2844 0.930 1_545 S
C2856 C2857 1.399 . S
C2856 C2861 1.399 . S
C2857 C2856 1.399 . S
C2857 C2858 1.376 . S
C2858 H2845 0.930 . S
C2858 C2857 1.376 . S
C2858 C2859 1.388 . S
C2859 H2846 0.930 . S
C2859 C2858 1.388 . S
C2859 C2860 1.390 . S
C2860 C2859 1.390 . S
C2860 C2861 1.394 . S
C2860 C2866 1.465 . S
C2861 C2856 1.399 . S
C2861 C2860 1.394 . S
C2861 C2862 1.516 1_545 S
C2862 C2861 1.516 1_565 S
C2862 C2863 1.502 . S
C2862 C2864 1.561 . S
C2862 C2865 1.526 . S
C2863 H2847 0.959 . S
C2863 H2848 0.959 . S
C2863 H2849 0.961 . S
C2863 C2862 1.502 . S
C2864 H2850 0.960 . S
C2864 H2851 0.961 . S
C2864 H2852 0.959 . S
C2864 C2862 1.561 . S
C2865 C2862 1.526 . S
C2865 C2866 1.396 1_565 S
C2865 C2870 1.390 . S
C2866 C2860 1.465 . S
C2866 C2865 1.396 1_545 S
C2866 C2867 1.399 . S
C2867 H2853 0.929 . S
C2867 C2866 1.399 . S
C2867 C2868 1.385 . S
C2868 H2854 0.931 . S
C2868 C2867 1.385 . S
C2868 C2869 1.389 1_545 S
C2869 C2868 1.389 1_565 S
C2869 C2870 1.387 . S
C2870 H2855 0.930 . S
C2870 C2865 1.390 . S
C2870 C2869 1.387 . S
H2871 C2883 0.930 . S
H2872 C2885 0.931 . S
H2873 C2886 0.930 . S
H2874 C2890 0.959 . S
H2875 C2890 0.959 . S
H2876 C2890 0.961 . S
H2877 C2891 0.960 . S
H2878 C2891 0.961 . S
H2879 C2891 0.959 1_455 S
H2880 C2894 0.929 . S
H2881 C2895 0.931 . S
H2882 C2897 0.930 . S
C2883 H2871 0.930 . S
C2883 C2884 1.399 . S
C2883 C2888 1.399 . S
C2884 C2883 1.399 . S
C2884 C2885 1.376 . S
C2885 H2872 0.931 . S
C2885 C2884 1.376 . S
C2885 C2886 1.388 1_655 S
C2886 H2873 0.930 . S
C2886 C2885 1.388 1_455 S
C2886 C2887 1.394 1_455 S
C2887 C2886 1.394 1_655 S
C2887 C2888 1.401 . S
C2887 C2893 1.455 1_655 S
C2888 C2883 1.399 . S
C2888 C2887 1.401 . S
C2888 C2889 1.516 . S
C2889 C2888 1.516 . S
C2889 C2890 1.502 . S
C2889 C2891 1.561 . S
C2889 C2892 1.526 . S
C2890 H2874 0.959 . S
C2890 H2875 0.959 . S
C2890 H2876 0.961 . S
C2890 C2889 1.502 . S
C2891 H2877 0.960 . S
C2891 H2878 0.961 . S
C2891 H2879 0.959 1_655 S
C2891 C2889 1.561 . S
C2892 C2889 1.526 . S
C2892 C2893 1.396 1_655 S
C2892 C2897 1.390 . S
C2893 C2887 1.455 1_455 S
C2893 C2892 1.396 1_455 S
C2893 C2894 1.399 . S
C2894 H2880 0.929 . S
C2894 C2893 1.399 . S
C2894 C2895 1.385 . S
C2895 H2881 0.931 . S
C2895 C2894 1.385 . S
C2895 C2896 1.389 . S
C2896 C2895 1.389 . S
C2896 C2897 1.387 1_455 S
C2897 H2882 0.930 . S
C2897 C2892 1.390 . S
C2897 C2896 1.387 1_655 S
H2898 C2910 0.930 . S
H2899 C2912 0.930 . S
H2900 C2913 0.930 . S
H2901 C2917 0.959 . S
H2902 C2917 0.959 . S
H2903 C2917 0.961 . S
H2904 C2918 0.960 . S
H2905 C2918 0.961 . S
H2906 C2918 0.959 . S
H2907 C2921 0.929 . S
H2908 C2922 0.931 . S
H2909 C2924 0.930 . S
C2910 H2898 0.930 . S
C2910 C2911 1.399 . S
C2910 C2915 1.399 . S
C2911 C2910 1.399 . S
C2911 C2912 1.376 . S
C2912 H2899 0.930 . S
C2912 C2911 1.376 . S
C2912 C2913 1.388 . S
C2913 H2900 0.930 . S
C2913 C2912 1.388 . S
C2913 C2914 1.390 . S
C2914 C2913 1.390 . S
C2914 C2915 1.394 . S
C2914 C2920 1.465 . S
C2915 C2910 1.399 . S
C2915 C2914 1.394 . S
C2915 C2916 1.516 . S
C2916 C2915 1.516 . S
C2916 C2917 1.502 . S
C2916 C2918 1.561 . S
C2916 C2919 1.526 . S
C2917 H2901 0.959 . S
C2917 H2902 0.959 . S
C2917 H2903 0.961 . S
C2917 C2916 1.502 . S
C2918 H2904 0.960 . S
C2918 H2905 0.961 . S
C2918 H2906 0.959 . S
C2918 C2916 1.561 . S
C2919 C2916 1.526 . S
C2919 C2920 1.396 . S
C2919 C2924 1.390 . S
C2920 C2914 1.465 . S
C2920 C2919 1.396 . S
C2920 C2921 1.399 . S
C2921 H2907 0.929 . S
C2921 C2920 1.399 . S
C2921 C2922 1.385 . S
C2922 H2908 0.931 . S
C2922 C2921 1.385 . S
C2922 C2923 1.389 . S
C2923 C2922 1.389 . S
C2923 C2924 1.387 . S
C2924 H2909 0.930 . S
C2924 C2919 1.390 . S
C2924 C2923 1.387 . S
H2925 C2937 0.930 . S
H2926 C2939 0.930 . S
H2927 C2940 0.848 1_554 S
H2928 C2944 0.959 . S
H2929 C2944 0.959 1_545 S
H2930 C2944 0.961 . S
H2931 C2945 0.960 . S
H2932 C2945 0.961 . S
H2933 C2945 0.959 . S
H2934 C2948 0.929 . S
H2935 C2949 0.931 . S
H2936 C2951 0.930 1_556 S
C2937 H2925 0.930 . S
C2937 C2938 1.399 . S
C2937 C2942 1.399 . S
C2938 C2937 1.399 . S
C2938 C2939 1.376 . S
C2939 H2926 0.930 . S
C2939 C2938 1.376 . S
C2939 C2940 1.457 . S
C2940 H2927 0.848 1_556 S
C2940 C2939 1.457 . S
C2940 C2941 1.411 . S
C2941 C2940 1.411 . S
C2941 C2942 1.394 . S
C2941 C2947 1.465 1_556 S
C2942 C2937 1.399 . S
C2942 C2941 1.394 . S
C2942 C2943 1.516 . S
C2943 C2942 1.516 . S
C2943 C2944 1.502 . S
C2943 C2945 1.561 . S
C2943 C2946 1.526 . S
C2944 H2928 0.959 . S
C2944 H2929 0.959 1_565 S
C2944 H2930 0.961 . S
C2944 C2943 1.502 . S
C2945 H2931 0.960 . S
C2945 H2932 0.961 . S
C2945 H2933 0.959 . S
C2945 C2943 1.561 . S
C2946 C2943 1.526 . S
C2946 C2947 1.396 1_556 S
C2946 C2951 1.390 1_566 S
C2947 C2941 1.465 1_554 S
C2947 C2946 1.396 1_554 S
C2947 C2948 1.399 . S
C2948 H2934 0.929 . S
C2948 C2947 1.399 . S
C2948 C2949 1.375 1_565 S
C2949 H2935 0.931 . S
C2949 C2948 1.375 1_545 S
C2949 C2950 1.399 . S
C2950 C2949 1.399 . S
C2950 C2951 1.387 . S
C2951 H2936 0.930 1_554 S
C2951 C2946 1.390 1_544 S
C2951 C2950 1.387 . S
H2952 C2964 0.930 1_556 S
H2953 C2966 0.929 . S
H2954 C2967 0.930 . S
H2955 C2971 0.959 . S
H2956 C2971 0.959 . S
H2957 C2971 0.961 1_655 S
H2958 C2972 0.960 1_655 S
H2959 C2972 0.961 . S
H2960 C2972 0.959 . S
H2961 C2975 0.929 1_554 S
H2962 C2976 0.931 . S
H2963 C2978 0.930 . S
C2964 H2952 0.930 1_554 S
C2964 C2965 1.399 . S
C2964 C2969 1.399 1_654 S
C2965 C2964 1.399 . S
C2965 C2966 1.376 1_655 S
C2966 H2953 0.929 . S
C2966 C2965 1.376 1_455 S
C2966 C2967 1.388 . S
C2967 H2954 0.930 . S
C2967 C2966 1.388 . S
C2967 C2968 1.390 . S
C2968 C2967 1.390 . S
C2968 C2969 1.394 1_554 S
C2968 C2974 1.465 1_554 S
C2969 C2964 1.399 1_456 S
C2969 C2968 1.394 1_556 S
C2969 C2970 1.516 . S
C2970 C2969 1.516 . S
C2970 C2971 1.502 . S
C2970 C2972 1.561 . S
C2970 C2973 1.526 . S
C2971 H2955 0.959 . S
C2971 H2956 0.959 . S
C2971 H2957 0.961 1_455 S
C2971 C2970 1.502 . S
C2972 H2958 0.960 1_455 S
C2972 H2959 0.961 . S
C2972 H2960 0.959 . S
C2972 C2970 1.561 . S
C2973 C2970 1.526 . S
C2973 C2974 1.396 . S
C2973 C2978 1.390 . S
C2974 C2968 1.465 1_556 S
C2974 C2973 1.396 . S
C2974 C2975 1.399 . S
C2975 H2961 0.929 1_556 S
C2975 C2974 1.399 . S
C2975 C2976 1.385 . S
C2976 H2962 0.931 . S
C2976 C2975 1.385 . S
C2976 C2977 1.389 . S
C2977 C2976 1.389 . S
C2977 C2978 1.387 . S
C2978 H2963 0.930 . S
C2978 C2973 1.390 . S
C2978 C2977 1.387 . S
H2979 C2991 0.930 . S
H2980 C2993 0.930 . S
H2981 C2994 0.930 . S
H2982 C2998 0.959 . S
H2983 C2998 0.959 1_554 S
H2984 C2998 0.961 . S
H2985 C2999 0.960 . S
H2986 C2999 0.961 . S
H2987 C2999 0.959 . S
H2988 C3002 0.982 . S
H2989 C3003 0.931 . S
H2990 C3005 0.930 . S
C2991 H2979 0.930 . S
C2991 C2992 1.399 . S
C2991 C2996 1.399 . S
C2992 C2991 1.399 . S
C2992 C2993 1.376 . S
C2993 H2980 0.930 . S
C2993 C2992 1.376 . S
C2993 C2994 1.388 . S
C2994 H2981 0.930 . S
C2994 C2993 1.388 . S
C2994 C2995 1.390 . S
C2995 C2994 1.390 . S
C2995 C2996 1.394 . S
C2995 C3001 1.465 . S
C2996 C2991 1.399 . S
C2996 C2995 1.394 . S
C2996 C2997 1.516 1_556 S
C2997 C2996 1.516 1_554 S
C2997 C2998 1.502 1_554 S
C2997 C2999 1.561 . S
C2997 C3000 1.526 . S
C2998 H2982 0.959 . S
C2998 H2983 0.959 1_556 S
C2998 H2984 0.961 . S
C2998 C2997 1.502 1_556 S
C2999 H2985 0.960 . S
C2999 H2986 0.961 . S
C2999 H2987 0.959 . S
C2999 C2997 1.561 . S
C3000 C2997 1.526 . S
C3000 C3001 1.396 1_554 S
C3000 C3005 1.390 . S
C3001 C2995 1.465 . S
C3001 C3000 1.396 1_556 S
C3001 C3002 1.412 . S
C3002 H2988 0.982 . S
C3002 C3001 1.412 . S
C3002 C3003 1.328 1_556 S
C3003 H2989 0.931 . S
C3003 C3002 1.328 1_554 S
C3003 C3004 1.389 . S
C3004 C3003 1.389 . S
C3004 C3005 1.387 . S
C3005 H2990 0.930 . S
C3005 C3000 1.390 . S
C3005 C3004 1.387 . S
H3006 C3018 0.930 . S
H3007 C3020 0.930 . S
H3008 C3021 0.930 . S
H3009 C3025 0.959 . S
H3010 C3025 0.959 . S
H3011 C3025 0.961 . S
H3012 C3026 0.960 . S
H3013 C3026 0.961 . S
H3014 C3026 0.959 . S
H3015 C3029 0.929 . S
H3016 C3030 0.931 . S
H3017 C3032 0.930 . S
C3018 H3006 0.930 . S
C3018 C3019 1.399 1_455 S
C3018 C3023 1.399 . S
C3019 C3018 1.399 1_655 S
C3019 C3020 1.376 . S
C3020 H3007 0.930 . S
C3020 C3019 1.376 . S
C3020 C3021 1.388 . S
C3021 H3008 0.930 . S
C3021 C3020 1.388 . S
C3021 C3022 1.390 1_655 S
C3022 C3021 1.390 1_455 S
C3022 C3023 1.394 . S
C3022 C3028 1.465 . S
C3023 C3018 1.399 . S
C3023 C3022 1.394 . S
C3023 C3024 1.516 . S
C3024 C3023 1.516 . S
C3024 C3025 1.502 . S
C3024 C3026 1.561 . S
C3024 C3027 1.526 . S
C3025 H3009 0.959 . S
C3025 H3010 0.959 . S
C3025 H3011 0.961 . S
C3025 C3024 1.502 . S
C3026 H3012 0.960 . S
C3026 H3013 0.961 . S
C3026 H3014 0.959 . S
C3026 C3024 1.561 . S
C3027 C3024 1.526 . S
C3027 C3028 1.396 . S
C3027 C3032 1.390 . S
C3028 C3022 1.465 . S
C3028 C3027 1.396 . S
C3028 C3029 1.399 . S
C3029 H3015 0.929 . S
C3029 C3028 1.399 . S
C3029 C3030 1.385 . S
C3030 H3016 0.931 . S
C3030 C3029 1.385 . S
C3030 C3031 1.389 . S
C3031 C3030 1.389 . S
C3031 C3032 1.387 . S
C3032 H3017 0.930 . S
C3032 C3027 1.390 . S
C3032 C3031 1.387 . S
H3033 C3045 0.930 . S
H3034 C3047 0.930 . S
H3035 C3048 0.930 . S
H3036 C3052 0.959 . S
H3037 C3052 0.959 . S
H3038 C3052 0.961 . S
H3039 C3053 0.960 . S
H3040 C3053 0.961 . S
H3041 C3053 0.959 . S
H3042 C3056 0.929 . S
H3043 C3057 0.931 . S
H3044 C3059 0.930 . S
C3045 H3033 0.930 . S
C3045 C3046 1.399 . S
C3045 C3050 1.399 . S
C3046 C3045 1.399 . S
C3046 C3047 1.376 . S
C3047 H3034 0.930 . S
C3047 C3046 1.376 . S
C3047 C3048 1.388 . S
C3048 H3035 0.930 . S
C3048 C3047 1.388 . S
C3048 C3049 1.390 . S
C3049 C3048 1.390 . S
C3049 C3050 1.394 . S
C3049 C3055 1.465 . S
C3050 C3045 1.399 . S
C3050 C3049 1.394 . S
C3050 C3051 1.516 . S
C3051 C3050 1.516 . S
C3051 C3052 1.502 . S
C3051 C3053 1.561 . S
C3051 C3054 1.526 . S
C3052 H3036 0.959 . S
C3052 H3037 0.959 . S
C3052 H3038 0.961 . S
C3052 C3051 1.502 . S
C3053 H3039 0.960 . S
C3053 H3040 0.961 . S
C3053 H3041 0.959 . S
C3053 C3051 1.561 . S
C3054 C3051 1.526 . S
C3054 C3055 1.396 . S
C3054 C3059 1.390 . S
C3055 C3049 1.465 . S
C3055 C3054 1.396 . S
C3055 C3056 1.399 . S
C3056 H3042 0.929 . S
C3056 C3055 1.399 . S
C3056 C3057 1.385 . S
C3057 H3043 0.931 . S
C3057 C3056 1.385 . S
C3057 C3058 1.389 . S
C3058 C3057 1.389 . S
C3058 C3059 1.387 . S
C3059 H3044 0.930 . S
C3059 C3054 1.390 . S
C3059 C3058 1.387 . S
H3060 C3072 0.930 . S
H3061 C3074 0.930 . S
H3062 C3075 0.930 . S
H3063 C3079 0.959 . S
H3064 C3079 0.959 1_545 S
H3065 C3079 0.961 . S
H3066 C3080 0.960 . S
H3067 C3080 0.961 1_545 S
H3068 C3080 0.959 . S
H3069 C3083 0.929 . S
H3070 C3084 0.934 . S
H3071 C3086 0.930 . S
C3072 H3060 0.930 . S
C3072 C3073 1.399 . S
C3072 C3077 1.399 . S
C3073 C3072 1.399 . S
C3073 C3074 1.376 . S
C3074 H3061 0.930 . S
C3074 C3073 1.376 . S
C3074 C3075 1.388 . S
C3075 H3062 0.930 . S
C3075 C3074 1.388 . S
C3075 C3076 1.390 . S
C3076 C3075 1.390 . S
C3076 C3077 1.394 . S
C3076 C3082 1.465 . S
C3077 C3072 1.399 . S
C3077 C3076 1.394 . S
C3077 C3078 1.516 . S
C3078 C3077 1.516 . S
C3078 C3079 1.502 . S
C3078 C3080 1.561 . S
C3078 C3081 1.526 . S
C3079 H3063 0.959 . S
C3079 H3064 0.959 1_565 S
C3079 H3065 0.961 . S
C3079 C3078 1.502 . S
C3080 H3066 0.960 . S
C3080 H3067 0.961 1_565 S
C3080 H3068 0.959 . S
C3080 C3078 1.561 . S
C3081 C3078 1.526 . S
C3081 C3082 1.396 . S
C3081 C3086 1.390 1_565 S
C3082 C3076 1.465 . S
C3082 C3081 1.396 . S
C3082 C3083 1.399 . S
C3083 H3069 0.929 . S
C3083 C3082 1.399 . S
C3083 C3084 1.385 . S
C3084 H3070 0.934 . S
C3084 C3083 1.385 . S
C3084 C3085 1.389 1_565 S
C3085 C3084 1.389 1_545 S
C3085 C3086 1.387 . S
C3086 H3071 0.930 . S
C3086 C3081 1.390 1_545 S
C3086 C3085 1.387 . S
H3087 C3099 0.930 . S
H3088 C3101 0.930 . S
H3089 C3102 0.930 . S
H3090 C3106 0.959 . S
H3091 C3106 0.959 . S
H3092 C3106 0.961 . S
H3093 C3107 0.960 . S
H3094 C3107 0.961 . S
H3095 C3107 0.959 . S
H3096 C3110 0.929 . S
H3097 C3111 0.931 . S
H3098 C3113 0.930 . S
C3099 H3087 0.930 . S
C3099 C3100 1.399 . S
C3099 C3104 1.399 . S
C3100 C3099 1.399 . S
C3100 C3101 1.376 . S
C3101 H3088 0.930 . S
C3101 C3100 1.376 . S
C3101 C3102 1.388 . S
C3102 H3089 0.930 . S
C3102 C3101 1.388 . S
C3102 C3103 1.390 . S
C3103 C3102 1.390 . S
C3103 C3104 1.394 . S
C3103 C3109 1.465 . S
C3104 C3099 1.399 . S
C3104 C3103 1.394 . S
C3104 C3105 1.516 1_655 S
C3105 C3104 1.516 1_455 S
C3105 C3106 1.502 . S
C3105 C3107 1.561 1_455 S
C3105 C3108 1.526 . S
C3106 H3090 0.959 . S
C3106 H3091 0.959 . S
C3106 H3092 0.961 . S
C3106 C3105 1.502 . S
C3107 H3093 0.960 . S
C3107 H3094 0.961 . S
C3107 H3095 0.959 . S
C3107 C3105 1.561 1_655 S
C3108 C3105 1.526 . S
C3108 C3109 1.396 1_455 S
C3108 C3113 1.390 . S
C3109 C3103 1.465 . S
C3109 C3108 1.396 1_655 S
C3109 C3110 1.399 . S
C3110 H3096 0.929 . S
C3110 C3109 1.399 . S
C3110 C3111 1.385 . S
C3111 H3097 0.931 . S
C3111 C3110 1.385 . S
C3111 C3112 1.389 1_655 S
C3112 C3111 1.389 1_455 S
C3112 C3113 1.387 . S
C3113 H3098 0.930 . S
C3113 C3108 1.390 . S
C3113 C3112 1.387 . S
H3114 C3126 0.930 . S
H3115 C3128 0.930 . S
H3116 C3129 0.930 . S
H3117 C3133 0.959 . S
H3118 C3133 0.959 . S
H3119 C3133 0.961 . S
H3120 C3134 0.960 . S
H3121 C3134 0.961 . S
H3122 C3134 0.959 . S
H3123 C3137 0.929 . S
H3124 C3138 0.931 . S
H3125 C3140 0.930 . S
C3126 H3114 0.930 . S
C3126 C3127 1.399 . S
C3126 C3131 1.399 . S
C3127 C3126 1.399 . S
C3127 C3128 1.376 . S
C3128 H3115 0.930 . S
C3128 C3127 1.376 . S
C3128 C3129 1.388 . S
C3129 H3116 0.930 . S
C3129 C3128 1.388 . S
C3129 C3130 1.390 . S
C3130 C3129 1.390 . S
C3130 C3131 1.394 . S
C3130 C3136 1.465 . S
C3131 C3126 1.399 . S
C3131 C3130 1.394 . S
C3131 C3132 1.516 . S
C3132 C3131 1.516 . S
C3132 C3133 1.502 . S
C3132 C3134 1.561 . S
C3132 C3135 1.526 . S
C3133 H3117 0.959 . S
C3133 H3118 0.959 . S
C3133 H3119 0.961 . S
C3133 C3132 1.502 . S
C3134 H3120 0.960 . S
C3134 H3121 0.961 . S
C3134 H3122 0.959 . S
C3134 C3132 1.561 . S
C3135 C3132 1.526 . S
C3135 C3136 1.396 . S
C3135 C3140 1.390 . S
C3136 C3130 1.465 . S
C3136 C3135 1.396 . S
C3136 C3137 1.399 . S
C3137 H3123 0.929 . S
C3137 C3136 1.399 . S
C3137 C3138 1.385 . S
C3138 H3124 0.931 . S
C3138 C3137 1.385 . S
C3138 C3139 1.389 . S
C3139 C3138 1.389 . S
C3139 C3140 1.387 . S
C3140 H3125 0.930 . S
C3140 C3135 1.390 . S
C3140 C3139 1.387 . S
H3141 C3153 0.930 1_565 S
H3142 C3155 0.930 . S
H3143 C3156 0.930 . S
H3144 C3160 0.959 . S
H3145 C3160 0.959 . S
H3146 C3160 0.961 . S
H3147 C3161 0.960 . S
H3148 C3161 0.961 . S
H3149 C3161 0.959 . S
H3150 C3164 0.929 . S
H3151 C3165 0.931 . S
H3152 C3167 0.930 . S
C3153 H3141 0.930 1_545 S
C3153 C3154 1.399 . S
C3153 C3158 1.399 . S
C3154 C3153 1.399 . S
C3154 C3155 1.376 . S
C3155 H3142 0.930 . S
C3155 C3154 1.376 . S
C3155 C3156 1.388 . S
C3156 H3143 0.930 . S
C3156 C3155 1.388 . S
C3156 C3157 1.390 . S
C3157 C3156 1.390 . S
C3157 C3158 1.394 . S
C3157 C3163 1.465 . S
C3158 C3153 1.399 . S
C3158 C3157 1.394 . S
C3158 C3159 1.516 1_545 S
C3159 C3158 1.516 1_565 S
C3159 C3160 1.502 . S
C3159 C3161 1.561 . S
C3159 C3162 1.526 . S
C3160 H3144 0.959 . S
C3160 H3145 0.959 . S
C3160 H3146 0.961 . S
C3160 C3159 1.502 . S
C3161 H3147 0.960 . S
C3161 H3148 0.961 . S
C3161 H3149 0.959 . S
C3161 C3159 1.561 . S
C3162 C3159 1.526 . S
C3162 C3163 1.396 1_565 S
C3162 C3167 1.390 . S
C3163 C3157 1.465 . S
C3163 C3162 1.396 1_545 S
C3163 C3164 1.399 . S
C3164 H3150 0.929 . S
C3164 C3163 1.399 . S
C3164 C3165 1.385 . S
C3165 H3151 0.931 . S
C3165 C3164 1.385 . S
C3165 C3166 1.389 1_545 S
C3166 C3165 1.389 1_565 S
C3166 C3167 1.387 . S
C3167 H3152 0.930 . S
C3167 C3162 1.390 . S
C3167 C3166 1.387 . S
H3168 C3180 0.930 . S
H3169 C3182 0.930 . S
H3170 C3183 0.930 . S
H3171 C3187 0.959 . S
H3172 C3187 0.959 . S
H3173 C3187 0.961 . S
H3174 C3188 0.960 . S
H3175 C3188 0.961 . S
H3176 C3188 0.959 . S
H3177 C3191 0.951 . S
H3178 C3192 0.931 . S
H3179 C3194 0.930 . S
C3180 H3168 0.930 . S
C3180 C3181 1.399 . S
C3180 C3185 1.399 . S
C3181 C3180 1.399 . S
C3181 C3182 1.376 . S
C3182 H3169 0.930 . S
C3182 C3181 1.376 . S
C3182 C3183 1.388 . S
C3183 H3170 0.930 . S
C3183 C3182 1.388 . S
C3183 C3184 1.390 . S
C3184 C3183 1.390 . S
C3184 C3185 1.394 . S
C3184 C3190 1.465 1_655 S
C3185 C3180 1.399 . S
C3185 C3184 1.394 . S
C3185 C3186 1.516 1_655 S
C3186 C3185 1.516 1_455 S
C3186 C3187 1.502 . S
C3186 C3188 1.561 . S
C3186 C3189 1.526 . S
C3187 H3171 0.959 . S
C3187 H3172 0.959 . S
C3187 H3173 0.961 . S
C3187 C3186 1.502 . S
C3188 H3174 0.960 . S
C3188 H3175 0.961 . S
C3188 H3176 0.959 . S
C3188 C3186 1.561 . S
C3189 C3186 1.526 . S
C3189 C3190 1.396 . S
C3189 C3194 1.390 . S
C3190 C3184 1.465 1_455 S
C3190 C3189 1.396 . S
C3190 C3191 1.398 1_455 S
C3191 H3177 0.951 . S
C3191 C3190 1.398 1_655 S
C3191 C3192 1.364 1_655 S
C3192 H3178 0.931 . S
C3192 C3191 1.364 1_455 S
C3192 C3193 1.389 . S
C3193 C3192 1.389 . S
C3193 C3194 1.387 . S
C3194 H3179 0.930 . S
C3194 C3189 1.390 . S
C3194 C3193 1.387 . S
H3195 C3207 0.930 . S
H3196 C3209 0.930 . S
H3197 C3210 0.930 . S
H3198 C3214 0.959 . S
H3199 C3214 0.959 . S
H3200 C3214 0.961 . S
H3201 C3215 0.960 . S
H3202 C3215 0.961 . S
H3203 C3215 0.959 . S
H3204 C3218 0.929 . S
H3205 C3219 0.931 . S
H3206 C3221 0.930 . S
C3207 H3195 0.930 . S
C3207 C3208 1.399 . S
C3207 C3212 1.399 . S
C3208 C3207 1.399 . S
C3208 C3209 1.376 . S
C3209 H3196 0.930 . S
C3209 C3208 1.376 . S
C3209 C3210 1.388 . S
C3210 H3197 0.930 . S
C3210 C3209 1.388 . S
C3210 C3211 1.390 . S
C3211 C3210 1.390 . S
C3211 C3212 1.394 . S
C3211 C3217 1.465 . S
C3212 C3207 1.399 . S
C3212 C3211 1.394 . S
C3212 C3213 1.516 . S
C3213 C3212 1.516 . S
C3213 C3214 1.502 . S
C3213 C3215 1.561 . S
C3213 C3216 1.526 . S
C3214 H3198 0.959 . S
C3214 H3199 0.959 . S
C3214 H3200 0.961 . S
C3214 C3213 1.502 . S
C3215 H3201 0.960 . S
C3215 H3202 0.961 . S
C3215 H3203 0.959 . S
C3215 C3213 1.561 . S
C3216 C3213 1.526 . S
C3216 C3217 1.396 . S
C3216 C3221 1.390 . S
C3217 C3211 1.465 . S
C3217 C3216 1.396 . S
C3217 C3218 1.399 . S
C3218 H3204 0.929 . S
C3218 C3217 1.399 . S
C3218 C3219 1.385 . S
C3219 H3205 0.931 . S
C3219 C3218 1.385 . S
C3219 C3220 1.389 . S
C3220 C3219 1.389 . S
C3220 C3221 1.387 . S
C3221 H3206 0.930 . S
C3221 C3216 1.390 . S
C3221 C3220 1.387 . S
H3222 C3234 0.930 . S
H3223 C3236 0.930 . S
H3224 C3237 0.930 . S
H3225 C3241 0.959 . S
H3226 C3241 0.959 . S
H3227 C3241 0.961 . S
H3228 C3242 0.960 . S
H3229 C3242 0.961 . S
H3230 C3242 0.959 . S
H3231 C3245 0.929 1_565 S
H3232 C3246 0.931 . S
H3233 C3248 0.930 . S
C3234 H3222 0.930 . S
C3234 C3235 1.399 . S
C3234 C3239 1.399 . S
C3235 C3234 1.399 . S
C3235 C3236 1.376 . S
C3236 H3223 0.930 . S
C3236 C3235 1.376 . S
C3236 C3237 1.388 . S
C3237 H3224 0.930 . S
C3237 C3236 1.388 . S
C3237 C3238 1.390 . S
C3238 C3237 1.390 . S
C3238 C3239 1.394 . S
C3238 C3244 1.465 1_565 S
C3239 C3234 1.399 . S
C3239 C3238 1.394 . S
C3239 C3240 1.516 1_565 S
C3240 C3239 1.516 1_545 S
C3240 C3241 1.502 . S
C3240 C3242 1.561 . S
C3240 C3243 1.526 . S
C3241 H3225 0.959 . S
C3241 H3226 0.959 . S
C3241 H3227 0.961 . S
C3241 C3240 1.502 . S
C3242 H3228 0.960 . S
C3242 H3229 0.961 . S
C3242 H3230 0.959 . S
C3242 C3240 1.561 . S
C3243 C3240 1.526 . S
C3243 C3244 1.396 . S
C3243 C3248 1.390 . S
C3244 C3238 1.465 1_545 S
C3244 C3243 1.396 . S
C3244 C3245 1.399 . S
C3245 H3231 0.929 1_545 S
C3245 C3244 1.399 . S
C3245 C3246 1.385 . S
C3246 H3232 0.931 . S
C3246 C3245 1.385 . S
C3246 C3247 1.389 . S
C3247 C3246 1.389 . S
C3247 C3248 1.387 . S
C3248 H3233 0.930 . S
C3248 C3243 1.390 . S
C3248 C3247 1.387 . S
H3249 C3261 0.930 . S
H3250 C3263 0.930 . S
H3251 C3264 0.930 . S
H3252 C3268 0.959 . S
H3253 C3268 0.959 . S
H3254 C3268 0.961 1_655 S
H3255 C3269 0.960 . S
H3256 C3269 0.961 . S
H3257 C3269 0.959 . S
H3258 C3272 0.929 . S
H3259 C3273 0.931 . S
H3260 C3275 0.930 . S
C3261 H3249 0.930 . S
C3261 C3262 1.399 . S
C3261 C3266 1.399 . S
C3262 C3261 1.399 . S
C3262 C3263 1.376 . S
C3263 H3250 0.930 . S
C3263 C3262 1.376 . S
C3263 C3264 1.388 . S
C3264 H3251 0.930 . S
C3264 C3263 1.388 . S
C3264 C3265 1.390 . S
C3265 C3264 1.390 . S
C3265 C3266 1.394 . S
C3265 C3271 1.465 1_655 S
C3266 C3261 1.399 . S
C3266 C3265 1.394 . S
C3266 C3267 1.516 . S
C3267 C3266 1.516 . S
C3267 C3268 1.502 1_655 S
C3267 C3269 1.561 . S
C3267 C3270 1.526 1_655 S
C3268 H3252 0.959 . S
C3268 H3253 0.959 . S
C3268 H3254 0.961 1_455 S
C3268 C3267 1.502 1_455 S
C3269 H3255 0.960 . S
C3269 H3256 0.961 . S
C3269 H3257 0.959 . S
C3269 C3267 1.561 . S
C3270 C3267 1.526 1_455 S
C3270 C3271 1.396 . S
C3270 C3275 1.390 . S
C3271 C3265 1.465 1_455 S
C3271 C3270 1.396 . S
C3271 C3272 1.399 . S
C3272 H3258 0.929 . S
C3272 C3271 1.399 . S
C3272 C3273 1.385 . S
C3273 H3259 0.931 . S
C3273 C3272 1.385 . S
C3273 C3274 1.389 . S
C3274 C3273 1.389 . S
C3274 C3275 1.387 . S
C3275 H3260 0.930 . S
C3275 C3270 1.390 . S
C3275 C3274 1.387 . S
H3276 C3288 0.930 . S
H3277 C3290 0.930 . S
H3278 C3291 0.930 . S
H3279 C3295 0.959 . S
H3280 C3295 0.959 . S
H3281 C3295 0.961 . S
H3282 C3296 0.960 . S
H3283 C3296 0.961 . S
H3284 C3296 0.959 . S
H3285 C3299 0.929 . S
H3286 C3300 0.931 . S
H3287 C3302 0.930 . S
C3288 H3276 0.930 . S
C3288 C3289 1.399 . S
C3288 C3293 1.399 . S
C3289 C3288 1.399 . S
C3289 C3290 1.376 . S
C3290 H3277 0.930 . S
C3290 C3289 1.376 . S
C3290 C3291 1.388 . S
C3291 H3278 0.930 . S
C3291 C3290 1.388 . S
C3291 C3292 1.390 . S
C3292 C3291 1.390 . S
C3292 C3293 1.394 . S
C3292 C3298 1.465 . S
C3293 C3288 1.399 . S
C3293 C3292 1.394 . S
C3293 C3294 1.516 . S
C3294 C3293 1.516 . S
C3294 C3295 1.502 . S
C3294 C3296 1.561 . S
C3294 C3297 1.526 . S
C3295 H3279 0.959 . S
C3295 H3280 0.959 . S
C3295 H3281 0.961 . S
C3295 C3294 1.502 . S
C3296 H3282 0.960 . S
C3296 H3283 0.961 . S
C3296 H3284 0.959 . S
C3296 C3294 1.561 . S
C3297 C3294 1.526 . S
C3297 C3298 1.396 . S
C3297 C3302 1.390 . S
C3298 C3292 1.465 . S
C3298 C3297 1.396 . S
C3298 C3299 1.399 . S
C3299 H3285 0.929 . S
C3299 C3298 1.399 . S
C3299 C3300 1.385 . S
C3300 H3286 0.931 . S
C3300 C3299 1.385 . S
C3300 C3301 1.389 . S
C3301 C3300 1.389 . S
C3301 C3302 1.387 . S
C3302 H3287 0.930 . S
C3302 C3297 1.390 . S
C3302 C3301 1.387 . S
H3303 C3315 0.930 . S
H3304 C3317 0.930 . S
H3305 C3318 0.930 1_565 S
H3306 C3322 0.959 . S
H3307 C3322 0.959 . S
H3308 C3322 0.961 . S
H3309 C3323 0.960 . S
H3310 C3323 0.961 . S
H3311 C3323 0.959 . S
H3312 C3326 0.929 . S
H3313 C3327 0.931 . S
H3314 C3329 0.930 . S
C3315 H3303 0.930 . S
C3315 C3316 1.399 . S
C3315 C3320 1.399 . S
C3316 C3315 1.399 . S
C3316 C3317 1.376 . S
C3317 H3304 0.930 . S
C3317 C3316 1.376 . S
C3317 C3318 1.388 . S
C3318 H3305 0.930 1_545 S
C3318 C3317 1.388 . S
C3318 C3319 1.390 . S
C3319 C3318 1.390 . S
C3319 C3320 1.394 . S
C3319 C3325 1.465 1_545 S
C3320 C3315 1.399 . S
C3320 C3319 1.394 . S
C3320 C3321 1.516 . S
C3321 C3320 1.516 . S
C3321 C3322 1.502 . S
C3321 C3323 1.561 . S
C3321 C3324 1.526 1_545 S
C3322 H3306 0.959 . S
C3322 H3307 0.959 . S
C3322 H3308 0.961 . S
C3322 C3321 1.502 . S
C3323 H3309 0.960 . S
C3323 H3310 0.961 . S
C3323 H3311 0.959 . S
C3323 C3321 1.561 . S
C3324 C3321 1.526 1_565 S
C3324 C3325 1.396 . S
C3324 C3329 1.390 . S
C3325 C3319 1.465 1_565 S
C3325 C3324 1.396 . S
C3325 C3326 1.399 . S
C3326 H3312 0.929 . S
C3326 C3325 1.399 . S
C3326 C3327 1.385 . S
C3327 H3313 0.931 . S
C3327 C3326 1.385 . S
C3327 C3328 1.389 . S
C3328 C3327 1.389 . S
C3328 C3329 1.387 . S
C3329 H3314 0.930 . S
C3329 C3324 1.390 . S
C3329 C3328 1.387 . S
H3330 C3342 0.930 . S
H3331 C3344 0.930 . S
H3332 C3345 0.930 . S
H3333 C3349 0.959 . S
H3334 C3349 0.959 . S
H3335 C3349 0.961 . S
H3336 C3350 0.960 . S
H3337 C3350 0.961 . S
H3338 C3350 0.959 . S
H3339 C3353 0.929 . S
H3340 C3354 0.931 . S
H3341 C3356 0.930 . S
C3342 H3330 0.930 . S
C3342 C3343 1.399 . S
C3342 C3347 1.399 . S
C3343 C3342 1.399 . S
C3343 C3344 1.376 . S
C3344 H3331 0.930 . S
C3344 C3343 1.376 . S
C3344 C3345 1.388 . S
C3345 H3332 0.930 . S
C3345 C3344 1.388 . S
C3345 C3346 1.390 . S
C3346 C3345 1.390 . S
C3346 C3347 1.394 . S
C3346 C3352 1.465 . S
C3347 C3342 1.399 . S
C3347 C3346 1.394 . S
C3347 C3348 1.516 . S
C3348 C3347 1.516 . S
C3348 C3349 1.502 . S
C3348 C3350 1.561 . S
C3348 C3351 1.526 . S
C3349 H3333 0.959 . S
C3349 H3334 0.959 . S
C3349 H3335 0.961 . S
C3349 C3348 1.502 . S
C3350 H3336 0.960 . S
C3350 H3337 0.961 . S
C3350 H3338 0.959 . S
C3350 C3348 1.561 . S
C3351 C3348 1.526 . S
C3351 C3352 1.396 . S
C3351 C3356 1.390 . S
C3352 C3346 1.465 . S
C3352 C3351 1.396 . S
C3352 C3353 1.399 . S
C3353 H3339 0.929 . S
C3353 C3352 1.399 . S
C3353 C3354 1.385 . S
C3354 H3340 0.931 . S
C3354 C3353 1.385 . S
C3354 C3355 1.389 . S
C3355 C3354 1.389 . S
C3355 C3356 1.387 . S
C3356 H3341 0.930 . S
C3356 C3351 1.390 . S
C3356 C3355 1.387 . S
H3357 C3369 0.930 . S
H3358 C3371 0.930 . S
H3359 C3372 0.930 . S
H3360 C3376 0.959 . S
H3361 C3376 0.959 . S
H3362 C3376 0.961 . S
H3363 C3377 0.960 . S
H3364 C3377 0.961 . S
H3365 C3377 0.959 . S
H3366 C3380 0.929 . S
H3367 C3381 0.931 . S
H3368 C3383 0.930 . S
C3369 H3357 0.930 . S
C3369 C3370 1.399 . S
C3369 C3374 1.399 . S
C3370 C3369 1.399 . S
C3370 C3371 1.376 . S
C3371 H3358 0.930 . S
C3371 C3370 1.376 . S
C3371 C3372 1.388 . S
C3372 H3359 0.930 . S
C3372 C3371 1.388 . S
C3372 C3373 1.390 . S
C3373 C3372 1.390 . S
C3373 C3374 1.394 . S
C3373 C3379 1.465 . S
C3374 C3369 1.399 . S
C3374 C3373 1.394 . S
C3374 C3375 1.516 . S
C3375 C3374 1.516 . S
C3375 C3376 1.502 . S
C3375 C3377 1.561 . S
C3375 C3378 1.526 . S
C3376 H3360 0.959 . S
C3376 H3361 0.959 . S
C3376 H3362 0.961 . S
C3376 C3375 1.502 . S
C3377 H3363 0.960 . S
C3377 H3364 0.961 . S
C3377 H3365 0.959 . S
C3377 C3375 1.561 . S
C3378 C3375 1.526 . S
C3378 C3379 1.396 . S
C3378 C3383 1.390 . S
C3379 C3373 1.465 . S
C3379 C3378 1.396 . S
C3379 C3380 1.399 . S
C3380 H3366 0.929 . S
C3380 C3379 1.399 . S
C3380 C3381 1.385 . S
C3381 H3367 0.931 . S
C3381 C3380 1.385 . S
C3381 C3382 1.389 . S
C3382 C3381 1.389 . S
C3382 C3383 1.387 . S
C3383 H3368 0.930 . S
C3383 C3378 1.390 . S
C3383 C3382 1.387 . S
H3384 C3396 0.930 . S
H3385 C3398 0.930 . S
H3386 C3399 0.930 . S
H3387 C3403 0.959 . S
H3388 C3403 0.959 . S
H3389 C3403 0.961 . S
H3390 C3404 0.960 . S
H3391 C3404 0.961 . S
H3392 C3404 0.959 . S
H3393 C3407 0.929 . S
H3394 C3408 0.931 . S
H3395 C3410 0.930 . S
C3396 H3384 0.930 . S
C3396 C3397 1.399 . S
C3396 C3401 1.399 . S
C3397 C3396 1.399 . S
C3397 C3398 1.376 . S
C3398 H3385 0.930 . S
C3398 C3397 1.376 . S
C3398 C3399 1.388 . S
C3399 H3386 0.930 . S
C3399 C3398 1.388 . S
C3399 C3400 1.390 . S
C3400 C3399 1.390 . S
C3400 C3401 1.394 . S
C3400 C3406 1.465 . S
C3401 C3396 1.399 . S
C3401 C3400 1.394 . S
C3401 C3402 1.516 . S
C3402 C3401 1.516 . S
C3402 C3403 1.502 . S
C3402 C3404 1.561 . S
C3402 C3405 1.526 . S
C3403 H3387 0.959 . S
C3403 H3388 0.959 . S
C3403 H3389 0.961 . S
C3403 C3402 1.502 . S
C3404 H3390 0.960 . S
C3404 H3391 0.961 . S
C3404 H3392 0.959 . S
C3404 C3402 1.561 . S
C3405 C3402 1.526 . S
C3405 C3406 1.396 . S
C3405 C3410 1.390 . S
C3406 C3400 1.465 . S
C3406 C3405 1.396 . S
C3406 C3407 1.399 . S
C3407 H3393 0.929 . S
C3407 C3406 1.399 . S
C3407 C3408 1.385 . S
C3408 H3394 0.931 . S
C3408 C3407 1.385 . S
C3408 C3409 1.389 . S
C3409 C3408 1.389 . S
C3409 C3410 1.387 . S
C3410 H3395 0.930 . S
C3410 C3405 1.390 . S
C3410 C3409 1.387 . S
H3411 C3423 0.930 . S
H3412 C3425 0.930 . S
H3413 C3426 0.930 . S
H3414 C3430 0.959 . S
H3415 C3430 0.959 . S
H3416 C3430 0.961 . S
H3417 C3431 0.960 . S
H3418 C3431 0.961 . S
H3419 C3431 0.959 . S
H3420 C3434 0.929 . S
H3421 C3435 0.931 . S
H3422 C3437 0.930 . S
C3423 H3411 0.930 . S
C3423 C3424 1.399 . S
C3423 C3428 1.399 . S
C3424 C3423 1.399 . S
C3424 C3425 1.376 . S
C3425 H3412 0.930 . S
C3425 C3424 1.376 . S
C3425 C3426 1.388 . S
C3426 H3413 0.930 . S
C3426 C3425 1.388 . S
C3426 C3427 1.390 . S
C3427 C3426 1.390 . S
C3427 C3428 1.394 . S
C3427 C3433 1.465 . S
C3428 C3423 1.399 . S
C3428 C3427 1.394 . S
C3428 C3429 1.516 . S
C3429 C3428 1.516 . S
C3429 C3430 1.502 . S
C3429 C3431 1.561 . S
C3429 C3432 1.526 . S
C3430 H3414 0.959 . S
C3430 H3415 0.959 . S
C3430 H3416 0.961 . S
C3430 C3429 1.502 . S
C3431 H3417 0.960 . S
C3431 H3418 0.961 . S
C3431 H3419 0.959 . S
C3431 C3429 1.561 . S
C3432 C3429 1.526 . S
C3432 C3433 1.396 . S
C3432 C3437 1.390 . S
C3433 C3427 1.465 . S
C3433 C3432 1.396 . S
C3433 C3434 1.399 . S
C3434 H3420 0.929 . S
C3434 C3433 1.399 . S
C3434 C3435 1.385 . S
C3435 H3421 0.931 . S
C3435 C3434 1.385 . S
C3435 C3436 1.389 . S
C3436 C3435 1.389 . S
C3436 C3437 1.387 . S
C3437 H3422 0.930 . S
C3437 C3432 1.390 . S
C3437 C3436 1.387 . S
H3438 C3450 0.930 . S
H3439 C3452 0.930 . S
H3440 C3453 0.930 . S
H3441 C3457 0.959 . S
H3442 C3457 0.959 . S
H3443 C3457 0.961 . S
H3444 C3458 0.960 . S
H3445 C3458 0.961 . S
H3446 C3458 0.959 . S
H3447 C3461 0.929 . S
H3448 C3462 0.931 . S
H3449 C3464 0.930 . S
C3450 H3438 0.930 . S
C3450 C3451 1.399 . S
C3450 C3455 1.399 . S
C3451 C3450 1.399 . S
C3451 C3452 1.376 . S
C3452 H3439 0.930 . S
C3452 C3451 1.376 . S
C3452 C3453 1.388 . S
C3453 H3440 0.930 . S
C3453 C3452 1.388 . S
C3453 C3454 1.390 . S
C3454 C3453 1.390 . S
C3454 C3455 1.394 . S
C3454 C3460 1.465 . S
C3455 C3450 1.399 . S
C3455 C3454 1.394 . S
C3455 C3456 1.516 . S
C3456 C3455 1.516 . S
C3456 C3457 1.502 . S
C3456 C3458 1.561 . S
C3456 C3459 1.526 . S
C3457 H3441 0.959 . S
C3457 H3442 0.959 . S
C3457 H3443 0.961 . S
C3457 C3456 1.502 . S
C3458 H3444 0.960 . S
C3458 H3445 0.961 . S
C3458 H3446 0.959 . S
C3458 C3456 1.561 . S
C3459 C3456 1.526 . S
C3459 C3460 1.396 . S
C3459 C3464 1.390 . S
C3460 C3454 1.465 . S
C3460 C3459 1.396 . S
C3460 C3461 1.399 . S
C3461 H3447 0.929 . S
C3461 C3460 1.399 . S
C3461 C3462 1.385 . S
C3462 H3448 0.931 . S
C3462 C3461 1.385 . S
C3462 C3463 1.389 . S
C3463 C3462 1.389 . S
C3463 C3464 1.387 . S
C3464 H3449 0.930 . S
C3464 C3459 1.390 . S
C3464 C3463 1.387 . S
H3465 C3477 0.930 . S
H3466 C3479 0.930 . S
H3467 C3480 0.930 . S
H3468 C3484 0.959 . S
H3469 C3484 0.959 . S
H3470 C3484 0.961 . S
H3471 C3485 0.960 . S
H3472 C3485 0.961 . S
H3473 C3485 0.959 . S
H3474 C3488 0.929 . S
H3475 C3489 0.931 . S
H3476 C3491 0.930 . S
C3477 H3465 0.930 . S
C3477 C3478 1.399 . S
C3477 C3482 1.399 . S
C3478 C3477 1.399 . S
C3478 C3479 1.376 . S
C3479 H3466 0.930 . S
C3479 C3478 1.376 . S
C3479 C3480 1.388 . S
C3480 H3467 0.930 . S
C3480 C3479 1.388 . S
C3480 C3481 1.390 . S
C3481 C3480 1.390 . S
C3481 C3482 1.394 . S
C3481 C3487 1.465 . S
C3482 C3477 1.399 . S
C3482 C3481 1.394 . S
C3482 C3483 1.516 . S
C3483 C3482 1.516 . S
C3483 C3484 1.502 . S
C3483 C3485 1.561 . S
C3483 C3486 1.526 . S
C3484 H3468 0.959 . S
C3484 H3469 0.959 . S
C3484 H3470 0.961 . S
C3484 C3483 1.502 . S
C3485 H3471 0.960 . S
C3485 H3472 0.961 . S
C3485 H3473 0.959 . S
C3485 C3483 1.561 . S
C3486 C3483 1.526 . S
C3486 C3487 1.396 . S
C3486 C3491 1.390 . S
C3487 C3481 1.465 . S
C3487 C3486 1.396 . S
C3487 C3488 1.399 . S
C3488 H3474 0.929 . S
C3488 C3487 1.399 . S
C3488 C3489 1.385 . S
C3489 H3475 0.931 . S
C3489 C3488 1.385 . S
C3489 C3490 1.389 . S
C3490 C3489 1.389 . S
C3490 C3491 1.387 . S
C3491 H3476 0.930 . S
C3491 C3486 1.390 . S
C3491 C3490 1.387 . S
H3492 C3504 0.930 . S
H3493 C3506 0.930 . S
H3494 C3507 0.930 . S
H3495 C3511 0.959 . S
H3496 C3511 0.959 . S
H3497 C3511 0.961 . S
H3498 C3512 0.960 . S
H3499 C3512 0.961 . S
H3500 C3512 0.959 . S
H3501 C3515 0.929 . S
H3502 C3516 0.931 . S
H3503 C3518 0.930 . S
C3504 H3492 0.930 . S
C3504 C3505 1.399 . S
C3504 C3509 1.399 . S
C3505 C3504 1.399 . S
C3505 C3506 1.376 . S
C3506 H3493 0.930 . S
C3506 C3505 1.376 . S
C3506 C3507 1.388 . S
C3507 H3494 0.930 . S
C3507 C3506 1.388 . S
C3507 C3508 1.390 . S
C3508 C3507 1.390 . S
C3508 C3509 1.394 . S
C3508 C3514 1.465 . S
C3509 C3504 1.399 . S
C3509 C3508 1.394 . S
C3509 C3510 1.516 . S
C3510 C3509 1.516 . S
C3510 C3511 1.502 . S
C3510 C3512 1.561 . S
C3510 C3513 1.526 . S
C3511 H3495 0.959 . S
C3511 H3496 0.959 . S
C3511 H3497 0.961 . S
C3511 C3510 1.502 . S
C3512 H3498 0.960 . S
C3512 H3499 0.961 . S
C3512 H3500 0.959 . S
C3512 C3510 1.561 . S
C3513 C3510 1.526 . S
C3513 C3514 1.396 . S
C3513 C3518 1.390 . S
C3514 C3508 1.465 . S
C3514 C3513 1.396 . S
C3514 C3515 1.399 . S
C3515 H3501 0.929 . S
C3515 C3514 1.399 . S
C3515 C3516 1.385 . S
C3516 H3502 0.931 . S
C3516 C3515 1.385 . S
C3516 C3517 1.389 . S
C3517 C3516 1.389 . S
C3517 C3518 1.387 . S
C3518 H3503 0.930 . S
C3518 C3513 1.390 . S
C3518 C3517 1.387 . S
H3519 C3531 0.930 . S
H3520 C3533 0.930 . S
H3521 C3534 0.930 . S
H3522 C3538 0.959 . S
H3523 C3538 0.959 . S
H3524 C3538 0.961 . S
H3525 C3539 0.960 . S
H3526 C3539 0.961 . S
H3527 C3539 0.959 . S
H3528 C3542 0.929 . S
H3529 C3543 0.931 . S
H3530 C3545 0.930 . S
C3531 H3519 0.930 . S
C3531 C3532 1.399 . S
C3531 C3536 1.399 . S
C3532 C3531 1.399 . S
C3532 C3533 1.376 . S
C3533 H3520 0.930 . S
C3533 C3532 1.376 . S
C3533 C3534 1.388 . S
C3534 H3521 0.930 . S
C3534 C3533 1.388 . S
C3534 C3535 1.390 . S
C3535 C3534 1.390 . S
C3535 C3536 1.394 . S
C3535 C3541 1.465 . S
C3536 C3531 1.399 . S
C3536 C3535 1.394 . S
C3536 C3537 1.516 . S
C3537 C3536 1.516 . S
C3537 C3538 1.502 . S
C3537 C3539 1.561 . S
C3537 C3540 1.526 . S
C3538 H3522 0.959 . S
C3538 H3523 0.959 . S
C3538 H3524 0.961 . S
C3538 C3537 1.502 . S
C3539 H3525 0.960 . S
C3539 H3526 0.961 . S
C3539 H3527 0.959 . S
C3539 C3537 1.561 . S
C3540 C3537 1.526 . S
C3540 C3541 1.396 . S
C3540 C3545 1.390 . S
C3541 C3535 1.465 . S
C3541 C3540 1.396 . S
C3541 C3542 1.399 . S
C3542 H3528 0.929 . S
C3542 C3541 1.399 . S
C3542 C3543 1.385 . S
C3543 H3529 0.931 . S
C3543 C3542 1.385 . S
C3543 C3544 1.389 . S
C3544 C3543 1.389 . S
C3544 C3545 1.387 . S
C3545 H3530 0.930 . S
C3545 C3540 1.390 . S
C3545 C3544 1.387 . S
H3546 C3558 0.930 . S
H3547 C3560 0.930 . S
H3548 C3561 0.930 . S
H3549 C3565 0.959 . S
H3550 C3565 0.959 . S
H3551 C3565 0.961 . S
H3552 C3566 0.960 . S
H3553 C3566 0.961 . S
H3554 C3566 0.959 . S
H3555 C3569 0.929 . S
H3556 C3570 0.931 . S
H3557 C3572 0.930 . S
C3558 H3546 0.930 . S
C3558 C3559 1.399 . S
C3558 C3563 1.399 . S
C3559 C3558 1.399 . S
C3559 C3560 1.376 . S
C3560 H3547 0.930 . S
C3560 C3559 1.376 . S
C3560 C3561 1.388 . S
C3561 H3548 0.930 . S
C3561 C3560 1.388 . S
C3561 C3562 1.390 . S
C3562 C3561 1.390 . S
C3562 C3563 1.394 . S
C3562 C3568 1.465 . S
C3563 C3558 1.399 . S
C3563 C3562 1.394 . S
C3563 C3564 1.516 . S
C3564 C3563 1.516 . S
C3564 C3565 1.502 . S
C3564 C3566 1.561 . S
C3564 C3567 1.526 . S
C3565 H3549 0.959 . S
C3565 H3550 0.959 . S
C3565 H3551 0.961 . S
C3565 C3564 1.502 . S
C3566 H3552 0.960 . S
C3566 H3553 0.961 . S
C3566 H3554 0.959 . S
C3566 C3564 1.561 . S
C3567 C3564 1.526 . S
C3567 C3568 1.396 . S
C3567 C3572 1.390 . S
C3568 C3562 1.465 . S
C3568 C3567 1.396 . S
C3568 C3569 1.399 . S
C3569 H3555 0.929 . S
C3569 C3568 1.399 . S
C3569 C3570 1.385 . S
C3570 H3556 0.931 . S
C3570 C3569 1.385 . S
C3570 C3571 1.389 . S
C3571 C3570 1.389 . S
C3571 C3572 1.387 . S
C3572 H3557 0.930 . S
C3572 C3567 1.390 . S
C3572 C3571 1.387 . S
H3573 C3585 0.930 . S
H3574 C3587 0.930 . S
H3575 C3588 0.930 . S
H3576 C3592 0.959 . S
H3577 C3592 0.959 . S
H3578 C3592 0.961 . S
H3579 C3593 0.960 . S
H3580 C3593 0.961 . S
H3581 C3593 0.959 . S
H3582 C3596 0.929 . S
H3583 C3597 0.931 . S
H3584 C3599 0.930 . S
C3585 H3573 0.930 . S
C3585 C3586 1.399 . S
C3585 C3590 1.399 . S
C3586 C3585 1.399 . S
C3586 C3587 1.376 . S
C3587 H3574 0.930 . S
C3587 C3586 1.376 . S
C3587 C3588 1.388 . S
C3588 H3575 0.930 . S
C3588 C3587 1.388 . S
C3588 C3589 1.390 . S
C3589 C3588 1.390 . S
C3589 C3590 1.394 . S
C3589 C3595 1.465 . S
C3590 C3585 1.399 . S
C3590 C3589 1.394 . S
C3590 C3591 1.516 . S
C3591 C3590 1.516 . S
C3591 C3592 1.502 . S
C3591 C3593 1.561 . S
C3591 C3594 1.526 . S
C3592 H3576 0.959 . S
C3592 H3577 0.959 . S
C3592 H3578 0.961 . S
C3592 C3591 1.502 . S
C3593 H3579 0.960 . S
C3593 H3580 0.961 . S
C3593 H3581 0.959 . S
C3593 C3591 1.561 . S
C3594 C3591 1.526 . S
C3594 C3595 1.396 . S
C3594 C3599 1.390 . S
C3595 C3589 1.465 . S
C3595 C3594 1.396 . S
C3595 C3596 1.399 . S
C3596 H3582 0.929 . S
C3596 C3595 1.399 . S
C3596 C3597 1.385 . S
C3597 H3583 0.931 . S
C3597 C3596 1.385 . S
C3597 C3598 1.389 . S
C3598 C3597 1.389 . S
C3598 C3599 1.387 . S
C3599 H3584 0.930 . S
C3599 C3594 1.390 . S
C3599 C3598 1.387 . S
H3600 C3612 0.930 . S
H3601 C3614 0.930 . S
H3602 C3615 0.930 . S
H3603 C3619 0.959 . S
H3604 C3619 0.959 . S
H3605 C3619 0.961 . S
H3606 C3620 0.960 . S
H3607 C3620 0.961 . S
H3608 C3620 0.959 . S
H3609 C3623 0.929 . S
H3610 C3624 0.931 . S
H3611 C3626 0.930 . S
C3612 H3600 0.930 . S
C3612 C3613 1.399 . S
C3612 C3617 1.399 . S
C3613 C3612 1.399 . S
C3613 C3614 1.376 . S
C3614 H3601 0.930 . S
C3614 C3613 1.376 . S
C3614 C3615 1.388 . S
C3615 H3602 0.930 . S
C3615 C3614 1.388 . S
C3615 C3616 1.390 . S
C3616 C3615 1.390 . S
C3616 C3617 1.394 . S
C3616 C3622 1.465 . S
C3617 C3612 1.399 . S
C3617 C3616 1.394 . S
C3617 C3618 1.516 . S
C3618 C3617 1.516 . S
C3618 C3619 1.502 . S
C3618 C3620 1.561 . S
C3618 C3621 1.526 . S
C3619 H3603 0.959 . S
C3619 H3604 0.959 . S
C3619 H3605 0.961 . S
C3619 C3618 1.502 . S
C3620 H3606 0.960 . S
C3620 H3607 0.961 . S
C3620 H3608 0.959 . S
C3620 C3618 1.561 . S
C3621 C3618 1.526 . S
C3621 C3622 1.396 . S
C3621 C3626 1.390 . S
C3622 C3616 1.465 . S
C3622 C3621 1.396 . S
C3622 C3623 1.399 . S
C3623 H3609 0.929 . S
C3623 C3622 1.399 . S
C3623 C3624 1.385 . S
C3624 H3610 0.931 . S
C3624 C3623 1.385 . S
C3624 C3625 1.389 . S
C3625 C3624 1.389 . S
C3625 C3626 1.387 . S
C3626 H3611 0.930 . S
C3626 C3621 1.390 . S
C3626 C3625 1.387 . S
H3627 C3639 0.930 . S
H3628 C3641 0.930 . S
H3629 C3642 0.930 . S
H3630 C3646 0.959 . S
H3631 C3646 0.959 . S
H3632 C3646 0.961 . S
H3633 C3647 0.960 . S
H3634 C3647 0.961 . S
H3635 C3647 0.959 . S
H3636 C3650 0.929 . S
H3637 C3651 0.931 . S
H3638 C3653 0.930 . S
C3639 H3627 0.930 . S
C3639 C3640 1.399 . S
C3639 C3644 1.399 . S
C3640 C3639 1.399 . S
C3640 C3641 1.376 . S
C3641 H3628 0.930 . S
C3641 C3640 1.376 . S
C3641 C3642 1.388 . S
C3642 H3629 0.930 . S
C3642 C3641 1.388 . S
C3642 C3643 1.390 . S
C3643 C3642 1.390 . S
C3643 C3644 1.394 . S
C3643 C3649 1.465 . S
C3644 C3639 1.399 . S
C3644 C3643 1.394 . S
C3644 C3645 1.516 . S
C3645 C3644 1.516 . S
C3645 C3646 1.502 . S
C3645 C3647 1.561 . S
C3645 C3648 1.526 . S
C3646 H3630 0.959 . S
C3646 H3631 0.959 . S
C3646 H3632 0.961 . S
C3646 C3645 1.502 . S
C3647 H3633 0.960 . S
C3647 H3634 0.961 . S
C3647 H3635 0.959 . S
C3647 C3645 1.561 . S
C3648 C3645 1.526 . S
C3648 C3649 1.396 . S
C3648 C3653 1.390 . S
C3649 C3643 1.465 . S
C3649 C3648 1.396 . S
C3649 C3650 1.399 . S
C3650 H3636 0.929 . S
C3650 C3649 1.399 . S
C3650 C3651 1.385 . S
C3651 H3637 0.931 . S
C3651 C3650 1.385 . S
C3651 C3652 1.389 . S
C3652 C3651 1.389 . S
C3652 C3653 1.387 . S
C3653 H3638 0.930 . S
C3653 C3648 1.390 . S
C3653 C3652 1.387 . S
C1237 C5 1.115 . S
C1249 C70 1.240 . S
C1264 C2 1.206 . S
C1276 C39 1.146 . S
C1291 C36 1.205 . S
C1303 C73 1.227 . S
C1318 C138 1.194 . S
C1330 C107 1.164 . S
C1345 C172 1.254 . S
C1357 C141 1.152 . S
C1372 C104 1.182 . S
C1384 C175 1.186 . S
C1399 C274 1.181 . S
C1411 C209 1.219 . S
C1426 C243 1.146 . S
C1438 C206 1.184 . S
C1453 C240 1.186 . S
C1465 C277 1.225 . S
C1480 C342 1.255 . S
C1492 C311 1.183 . S
C1507 C345 1.146 . S
C1519 C376 1.254 . S
C1534 C308 1.205 . S
C1546 C379 1.235 . S
C1561 C413 1.230 . S
C1573 C478 1.202 . S
C1588 C447 1.229 . S
C1600 C410 1.204 . S
C1615 C481 1.128 . S
C1627 C444 1.222 . S
C1642 C546 1.252 . S
C1654 C515 1.118 . S
C1669 C580 1.176 . S
C1681 C549 1.204 . S
C1696 C583 1.122 . S
C1708 C512 1.228 . S
C1723 C617 1.161 . S
C1735 C682 1.179 . S
C1750 C651 1.180 . S
C1762 C614 1.255 . S
C1777 C685 1.116 . S
C1789 C648 1.214 . S
C1804 C750 1.181 . S
C1816 C719 1.151 . S
C1831 C784 1.204 . S
C1843 C753 1.122 . S
C1858 C787 1.172 . S
C1870 C716 1.256 . S
C1885 C886 1.175 . S
C1897 C821 1.208 . S
C1912 C818 1.178 . S
C1924 C855 1.194 . S
C1939 C889 1.236 . S
C1951 C852 1.184 . S
C1966 C954 1.223 . S
C1978 C923 1.128 . S
C1993 C957 1.120 . S
C2005 C988 1.231 . S
C2020 C920 1.253 . S
C2032 C991 1.119 . S
C2047 C1090 1.225 . S
C2059 C1025 1.116 . S
C2074 C1059 1.185 . S
C2086 C1022 1.174 . S
C2101 C1093 1.232 . S
C2113 C1056 1.224 . S
C2128 C1158 1.191 . S
C2140 C1127 1.135 . S
C2155 C1192 1.248 . S
C2167 C1161 1.132 . S
C2182 C1195 1.154 . S
C2194 C1124 1.255 . S
C2209 C689 1.585 . S
C2221 C20 1.576 . S
C2236 C54 1.551 . S
C2248 C621 1.532 1_565 S
C2263 C88 1.547 . S
C2275 C655 1.532 1_455 S
C2290 C1165 1.581 . S
C2302 C122 1.542 . S
C2317 C1199 1.583 1_545 S
C2329 C156 1.578 . S
C2344 C190 1.574 . S
C2356 C1131 1.586 1_655 S
C2371 C224 1.539 . S
C2383 C893 1.546 . S
C2398 C258 1.586 . S
C2410 C825 1.554 1_545 S
C2425 C292 1.586 . S
C2437 C859 1.551 1_655 S
C2452 C553 1.568 . S
C2464 C326 1.528 . S
C2479 C360 1.534 . S
C2491 C587 1.585 1_565 S
C2506 C394 1.572 . S
C2518 C519 1.577 1_455 S
C2533 C428 1.585 . S
C2545 C1097 1.555 . S
C2560 C1029 1.576 . S
C2572 C462 1.537 . S
C2587 C1063 1.531 . S
C2599 C496 1.553 . S
C2614 C530 1.527 . S
C2626 C349 1.549 . S
C2641 C564 1.533 . S
C2653 C383 1.539 . S
C2668 C598 1.548 . S
C2680 C315 1.584 . S
C2695 C77 1.557 . S
C2707 C632 1.585 . S
C2722 C666 1.549 . S
C2734 C9 1.587 . S
C2749 C700 1.558 . S
C2761 C43 1.585 . S
C2776 C961 1.583 . S
C2788 C734 1.532 . S
C2803 C768 1.527 . S
C2815 C995 1.572 . S
C2830 C802 1.531 . S
C2842 C927 1.557 . S
C2857 C281 1.578 . S
C2869 C836 1.583 . S
C2884 C213 1.579 . S
C2896 C870 1.540 . S
C2911 C904 1.584 . S
C2923 C247 1.577 . S
C2938 C938 1.546 . S
C2950 C757 1.532 . S
C2965 C791 1.537 . S
C2977 C972 1.534 . S
C2992 C1006 1.584 . S
C3004 C723 1.553 . S
C3019 C485 1.571 . S
C3031 C1040 1.577 . S
C3046 C1074 1.586 . S
C3058 C417 1.551 . S
C3073 C1108 1.557 . S
C3085 C451 1.534 . S
C3100 C145 1.567 . S
C3112 C1142 1.579 . S
C3127 C1176 1.568 . S
C3139 C179 1.532 . S
C3154 C111 1.531 . S
C3166 C1210 1.571 . S
C3181 C169 1.419 . S
C3193 C33 1.326 . S
C3208 C67 1.362 . S
C3220 C203 1.359 . S
C3235 C101 1.431 . S
C3247 C135 1.337 . S
C3262 C237 1.381 . S
C3274 C373 1.372 . S
C3289 C271 1.325 . S
C3301 C407 1.431 . S
C3316 C305 1.332 . S
C3328 C339 1.420 . S
C3343 C577 1.401 . S
C3355 C441 1.396 . S
C3370 C611 1.429 . S
C3382 C475 1.355 . S
C3397 C543 1.348 . S
C3409 C509 1.372 . S
C3424 C781 1.431 . S
C3436 C645 1.326 . S
C3451 C815 1.414 . S
C3463 C679 1.350 . S
C3478 C747 1.334 . S
C3490 C713 1.418 . S
C3505 C985 1.371 . S
C3517 C849 1.350 . S
C3532 C883 1.367 . S
C3544 C1019 1.422 . S
C3559 C951 1.430 . S
C3571 C917 1.348 . S
C3586 C1189 1.416 . S
C3598 C1053 1.346 . S
C3613 C1223 1.332 . S
C3625 C1087 1.421 . S
C3640 C1121 1.432 . S
C3652 C1155 1.326 . S
