# Generated by pormake.
# Topology umz, (4)-cn, num edge types: 1
# Building blocks:
#     Node 0, Type 0, BuildingBlock: AZAVOO_clean_sbu_0, # of connection points: 4
#     Node 1, Type 0, BuildingBlock: AZAVOO_clean_sbu_0, # of connection points: 4
#     Node 2, Type 0, BuildingBlock: AZAVOO_clean_sbu_0, # of connection points: 4
#     Node 3, Type 0, BuildingBlock: AZAVOO_clean_sbu_0, # of connection points: 4
#     Node 4, Type 0, BuildingBlock: AZAVOO_clean_sbu_0, # of connection points: 4
#     Node 5, Type 0, BuildingBlock: AZAVOO_clean_sbu_0, # of connection points: 4
#     Node 6, Type 0, BuildingBlock: AZAVOO_clean_sbu_0, # of connection points: 4
#     Node 7, Type 0, BuildingBlock: AZAVOO_clean_sbu_0, # of connection points: 4
#     Node 8, Type 0, BuildingBlock: AZAVOO_clean_sbu_0, # of connection points: 4
#     Node 9, Type 0, BuildingBlock: AZAVOO_clean_sbu_0, # of connection points: 4
#     Node 10, Type 0, BuildingBlock: AZAVOO_clean_sbu_0, # of connection points: 4
#     Node 11, Type 0, BuildingBlock: AZAVOO_clean_sbu_0, # of connection points: 4
#     Node 12, Type 0, BuildingBlock: AZAVOO_clean_sbu_0, # of connection points: 4
#     Node 13, Type 0, BuildingBlock: AZAVOO_clean_sbu_0, # of connection points: 4
#     Node 14, Type 0, BuildingBlock: AZAVOO_clean_sbu_0, # of connection points: 4
#     Node 15, Type 0, BuildingBlock: AZAVOO_clean_sbu_0, # of connection points: 4
#     Edge 16, Type (0, 0), BuildingBlock: XUDNAN_clean_linker_2, # of connection points: 2
#     Edge 17, Type (0, 0), BuildingBlock: XUDNAN_clean_linker_2, # of connection points: 2
#     Edge 18, Type (0, 0), BuildingBlock: XUDNAN_clean_linker_2, # of connection points: 2
#     Edge 19, Type (0, 0), BuildingBlock: XUDNAN_clean_linker_2, # of connection points: 2
#     Edge 20, Type (0, 0), BuildingBlock: XUDNAN_clean_linker_2, # of connection points: 2
#     Edge 21, Type (0, 0), BuildingBlock: XUDNAN_clean_linker_2, # of connection points: 2
#     Edge 22, Type (0, 0), BuildingBlock: XUDNAN_clean_linker_2, # of connection points: 2
#     Edge 23, Type (0, 0), BuildingBlock: XUDNAN_clean_linker_2, # of connection points: 2
#     Edge 24, Type (0, 0), BuildingBlock: XUDNAN_clean_linker_2, # of connection points: 2
#     Edge 25, Type (0, 0), BuildingBlock: XUDNAN_clean_linker_2, # of connection points: 2
#     Edge 26, Type (0, 0), BuildingBlock: XUDNAN_clean_linker_2, # of connection points: 2
#     Edge 27, Type (0, 0), BuildingBlock: XUDNAN_clean_linker_2, # of connection points: 2
#     Edge 28, Type (0, 0), BuildingBlock: XUDNAN_clean_linker_2, # of connection points: 2
#     Edge 29, Type (0, 0), BuildingBlock: XUDNAN_clean_linker_2, # of connection points: 2
#     Edge 30, Type (0, 0), BuildingBlock: XUDNAN_clean_linker_2, # of connection points: 2
#     Edge 31, Type (0, 0), BuildingBlock: XUDNAN_clean_linker_2, # of connection points: 2
#     Edge 32, Type (0, 0), BuildingBlock: XUDNAN_clean_linker_2, # of connection points: 2
#     Edge 33, Type (0, 0), BuildingBlock: XUDNAN_clean_linker_2, # of connection points: 2
#     Edge 34, Type (0, 0), BuildingBlock: XUDNAN_clean_linker_2, # of connection points: 2
#     Edge 35, Type (0, 0), BuildingBlock: XUDNAN_clean_linker_2, # of connection points: 2
#     Edge 36, Type (0, 0), BuildingBlock: XUDNAN_clean_linker_2, # of connection points: 2
#     Edge 37, Type (0, 0), BuildingBlock: XUDNAN_clean_linker_2, # of connection points: 2
#     Edge 38, Type (0, 0), BuildingBlock: XUDNAN_clean_linker_2, # of connection points: 2
#     Edge 39, Type (0, 0), BuildingBlock: XUDNAN_clean_linker_2, # of connection points: 2
#     Edge 40, Type (0, 0), BuildingBlock: XUDNAN_clean_linker_2, # of connection points: 2
#     Edge 41, Type (0, 0), BuildingBlock: XUDNAN_clean_linker_2, # of connection points: 2
#     Edge 42, Type (0, 0), BuildingBlock: XUDNAN_clean_linker_2, # of connection points: 2
#     Edge 43, Type (0, 0), BuildingBlock: XUDNAN_clean_linker_2, # of connection points: 2
#     Edge 44, Type (0, 0), BuildingBlock: XUDNAN_clean_linker_2, # of connection points: 2
#     Edge 45, Type (0, 0), BuildingBlock: XUDNAN_clean_linker_2, # of connection points: 2
#     Edge 46, Type (0, 0), BuildingBlock: XUDNAN_clean_linker_2, # of connection points: 2
#     Edge 47, Type (0, 0), BuildingBlock: XUDNAN_clean_linker_2, # of connection points: 2
# Relax obj value: 0.268
# Max RMSD: 0.180
# Mean RMSD: 0.180
data_MOF--net-umz--node1-AZAVOO_clean_sbu_0--edge1-XUDNAN_clean_linker_2
_symmetry_space_group_name_H-M    P1
_symmetry_Int_Tables_number       1
_symmetry_cell_setting            triclinic
loop_
_symmetry_equiv_pos_as_xyz
'x, y, z'
_cell_length_a     60.809862
_cell_length_b     60.794016
_cell_length_c     20.401016
_cell_angle_alpha  90.043173
_cell_angle_beta   89.876585
_cell_angle_gamma 89.98665
loop_
_atom_site_label
_atom_site_type_symbol
_atom_site_fract_x
_atom_site_fract_y
_atom_site_fract_z
_atom_type_partial_charge
Mg0 Mg 0.99146 0.62321 0.99172 0.0
O1 O 0.02132 0.61692 0.0568 0.0
O2 O 0.05187 0.62766 0.00537 0.0
Mg3 Mg 0.0413 0.64117 0.90534 0.0
C4 C 0.04215 0.61918 0.05476 0.0
C5 C 0.95567 0.60389 0.09277 0.0
O6 O 0.95036 0.59081 0.04403 0.0
O7 O 0.99267 0.66038 0.00884 0.0
O8 O 0.02282 0.67006 0.95287 0.0
O9 O 0.99703 0.58993 0.94734 0.0
O10 O 0.01129 0.62059 0.90787 0.0
C11 C 0.00604 0.67497 0.98775 0.0
C12 C 0.01004 0.59948 0.90578 0.0
O13 O 0.97056 0.61831 0.08423 0.0
Mg14 Mg 0.89943 0.9834 0.47556 0.0
O15 O 0.90511 0.0129 0.54303 0.0
O16 O 0.89307 0.04325 0.49323 0.0
Mg17 Mg 0.87953 0.0331 0.39298 0.0
C18 C 0.90202 0.03363 0.54197 0.0
C19 C 0.8945 0.94539 0.58114 0.0
O20 O 0.87746 0.94006 0.54497 0.0
O21 O 0.86227 0.9834 0.49635 0.0
O22 O 0.85179 0.01341 0.44149 0.0
O23 O 0.93226 0.99037 0.43002 0.0
O24 O 0.90091 0.00386 0.39333 0.0
C25 C 0.84731 0.99654 0.47634 0.0
C26 C 0.92202 0.0034 0.39021 0.0
O27 O 0.90646 0.96155 0.5641 0.0
Mg28 Mg 0.50825 0.89828 0.95029 0.0
O29 O 0.47834 0.90323 0.01618 0.0
O30 O 0.44944 0.88516 0.97634 0.0
Mg31 Mg 0.46134 0.86684 0.88506 0.0
C32 C 0.45815 0.89776 0.01905 0.0
C33 C 0.54766 0.90986 0.05032 0.0
O34 O 0.55867 0.89509 0.01655 0.0
O35 O 0.51412 0.86294 0.99051 0.0
O36 O 0.48476 0.84641 0.94649 0.0
O37 O 0.49553 0.92595 0.88454 0.0
O38 O 0.48788 0.89095 0.87035 0.0
C39 C 0.50228 0.84582 0.98074 0.0
C40 C 0.48493 0.91094 0.85251 0.0
O41 O 0.52805 0.91448 0.03359 0.0
Mg42 Mg 0.59736 0.50293 0.4537 0.0
O43 O 0.5907 0.47176 0.51218 0.0
O44 O 0.60668 0.44287 0.46472 0.0
Mg45 Mg 0.62538 0.45601 0.37511 0.0
C46 C 0.5948 0.45124 0.50995 0.0
C47 C 0.58498 0.54202 0.55403 0.0
O48 O 0.59736 0.55396 0.51497 0.0
O49 O 0.63326 0.50548 0.49296 0.0
O50 O 0.6477 0.47662 0.43985 0.0
O51 O 0.56893 0.49353 0.38579 0.0
O52 O 0.60353 0.48462 0.36906 0.0
C53 C 0.64964 0.49308 0.47828 0.0
C54 C 0.58349 0.4834 0.35058 0.0
O55 O 0.58228 0.52172 0.54124 0.0
Mg56 Mg 0.98969 0.88365 0.0934 0.0
O57 O 0.01704 0.89726 0.02784 0.0
O58 O 0.04906 0.88391 0.06273 0.0
Mg59 Mg 0.04224 0.86065 0.14859 0.0
C60 C 0.0379 0.896 0.02395 0.0
C61 C 0.94949 0.88489 0.99644 0.0
O62 O 0.94522 0.86603 0.02513 0.0
O63 O 0.99115 0.84957 0.04515 0.0
O64 O 0.02303 0.83665 0.08385 0.0
O65 O 0.99624 0.91132 0.16537 0.0
O66 O 0.01158 0.87853 0.17019 0.0
C67 C 0.00547 0.83427 0.05033 0.0
C68 C 0.01005 0.89809 0.19329 0.0
O69 O 0.96576 0.89623 0.01602 0.0
Mg70 Mg 0.6348 0.98232 0.53366 0.0
O71 O 0.62557 0.99577 0.43157 0.0
O72 O 0.63879 0.03021 0.43021 0.0
Mg73 Mg 0.65287 0.03991 0.52946 0.0
C74 C 0.62915 0.01405 0.40243 0.0
C75 C 0.62494 0.93269 0.45876 0.0
O76 O 0.62886 0.91166 0.46794 0.0
O77 O 0.67166 0.98081 0.50752 0.0
O78 O 0.68141 0.01615 0.51391 0.0
O79 O 0.60235 0.99388 0.57684 0.0
O80 O 0.63239 0.01393 0.57242 0.0
C81 C 0.68627 0.99592 0.5058 0.0
C82 C 0.61199 0.01248 0.58826 0.0
O83 O 0.63113 0.94614 0.50292 0.0
Mg84 Mg 0.51278 0.63474 0.03205 0.0
O85 O 0.49936 0.62424 0.93078 0.0
O86 O 0.46491 0.63705 0.92837 0.0
Mg87 Mg 0.45576 0.65457 0.02348 0.0
C88 C 0.48087 0.62665 0.90185 0.0
C89 C 0.56237 0.62053 0.96147 0.0
O90 O 0.58346 0.62335 0.9724 0.0
O91 O 0.51624 0.67133 0.0023 0.0
O92 O 0.48111 0.68175 0.00835 0.0
O93 O 0.4991 0.60369 0.08017 0.0
O94 O 0.48102 0.63476 0.07149 0.0
C95 C 0.50146 0.68631 0.00107 0.0
C96 C 0.48123 0.61471 0.09085 0.0
O97 O 0.54879 0.62825 0.00321 0.0
Mg98 Mg 0.8607 0.50652 0.5433 0.0
O99 O 0.87235 0.48784 0.45335 0.0
O100 O 0.8618 0.45287 0.45683 0.0
Mg101 Mg 0.84177 0.4494 0.55221 0.0
C102 C 0.87191 0.46865 0.42867 0.0
C103 C 0.88806 0.54783 0.49541 0.0
O104 O 0.89928 0.54386 0.54906 0.0
O105 O 0.82477 0.50848 0.50732 0.0
O106 O 0.81476 0.47339 0.52018 0.0
O107 O 0.89096 0.49468 0.59818 0.0
O108 O 0.85919 0.47739 0.59831 0.0
C109 C 0.81015 0.49334 0.50606 0.0
C110 C 0.87936 0.47793 0.61662 0.0
O111 O 0.87074 0.53679 0.48393 0.0
Mg112 Mg 0.99762 0.38452 0.02992 0.0
O113 O 0.97093 0.38922 0.95215 0.0
O114 O 0.93874 0.37962 0.9964 0.0
Mg115 Mg 0.94423 0.37039 0.10407 0.0
C116 C 0.95018 0.38664 0.94822 0.0
C117 C 0.02427 0.40447 0.91348 0.0
O118 O 0.01034 0.42042 0.9265 0.0
O119 O 0.99645 0.34639 0.02325 0.0
O120 O 0.96522 0.3406 0.07883 0.0
O121 O 0.9908 0.41935 0.0655 0.0
O122 O 0.97458 0.38983 0.10468 0.0
C123 C 0.98261 0.33347 0.05083 0.0
C124 C 0.97626 0.41084 0.10435 0.0
O125 O 0.02358 0.38707 0.94806 0.0
Mg126 Mg 0.10872 0.01811 0.58877 0.0
O127 O 0.09938 0.98755 0.5306 0.0
O128 O 0.11376 0.95772 0.57724 0.0
Mg129 Mg 0.13373 0.9695 0.66576 0.0
C130 C 0.10216 0.9668 0.53275 0.0
C131 C 0.1063 0.05506 0.47971 0.0
O132 O 0.12336 0.06255 0.5122 0.0
O133 O 0.14418 0.01774 0.5481 0.0
O134 O 0.15745 0.98805 0.59938 0.0
O135 O 0.07982 0.01104 0.65802 0.0
O136 O 0.11371 0.99947 0.6727 0.0
C137 C 0.15989 0.00441 0.56087 0.0
C138 C 0.09372 0.99975 0.69228 0.0
O139 O 0.09638 0.03803 0.5007 0.0
Mg140 Mg 0.50334 0.10186 0.03147 0.0
O141 O 0.52654 0.09786 0.94389 0.0
O142 O 0.5594 0.11197 0.96873 0.0
Mg143 Mg 0.55767 0.12324 0.07606 0.0
C144 C 0.54635 0.10248 0.92874 0.0
C145 C 0.45994 0.10629 0.94034 0.0
O146 O 0.45701 0.12589 0.96606 0.0
O147 O 0.50035 0.13926 0.01627 0.0
O148 O 0.53333 0.15066 0.05025 0.0
O149 O 0.51409 0.06872 0.06669 0.0
O150 O 0.53044 0.09995 0.09376 0.0
C151 C 0.51394 0.15468 0.02952 0.0
C152 C 0.53031 0.07877 0.09469 0.0
O153 O 0.47566 0.09425 0.96013 0.0
Mg154 Mg 0.38575 0.50511 0.51947 0.0
O155 O 0.39043 0.53002 0.43685 0.0
O156 O 0.38209 0.5634 0.47507 0.0
Mg157 Mg 0.37423 0.56011 0.58488 0.0
C158 C 0.38834 0.55069 0.42881 0.0
C159 C 0.40266 0.46478 0.43973 0.0
O160 O 0.41754 0.46582 0.48622 0.0
O161 O 0.34757 0.50739 0.517 0.0
O162 O 0.34321 0.5397 0.56791 0.0
O163 O 0.42127 0.51099 0.54797 0.0
O164 O 0.39321 0.52931 0.58907 0.0
C165 C 0.33531 0.52203 0.54368 0.0
C166 C 0.41414 0.52668 0.5853 0.0
O167 O 0.3866 0.47817 0.44121 0.0
Mg168 Mg 0.01325 0.12742 0.9644 0.0
O169 O 0.99241 0.11326 0.04603 0.0
O170 O 0.9568 0.12076 0.03626 0.0
Mg171 Mg 0.95526 0.14299 0.94474 0.0
C172 C 0.97273 0.1116 0.06635 0.0
C173 C 0.04333 0.09975 0.05653 0.0
O174 O 0.02895 0.0848 0.03852 0.0
O175 O 0.0113 0.1619 0.00937 0.0
O176 O 0.97571 0.17014 0.99401 0.0
O177 O 0.00505 0.09795 0.90068 0.0
O178 O 0.98581 0.12865 0.90317 0.0
C179 C 0.99499 0.17507 0.01386 0.0
C180 C 0.98816 0.10907 0.88075 0.0
O181 O 0.04273 0.11862 0.02946 0.0
Mg182 Mg 0.36915 0.01159 0.44616 0.0
O183 O 0.37989 0.98513 0.52 0.0
O184 O 0.36593 0.95297 0.48845 0.0
Mg185 Mg 0.3452 0.95876 0.39663 0.0
C186 C 0.37763 0.96444 0.5275 0.0
C187 C 0.39898 0.03537 0.54831 0.0
O188 O 0.41197 0.01908 0.53116 0.0
O189 O 0.33394 0.01294 0.48677 0.0
O190 O 0.32077 0.98073 0.4514 0.0
O191 O 0.39825 0.00245 0.38224 0.0
O192 O 0.36522 0.9879 0.37331 0.0
C193 C 0.31822 0.99914 0.48063 0.0
C194 C 0.38535 0.98829 0.35449 0.0
O195 O 0.38053 0.03749 0.5198 0.0
Mg196 Mg 0.48568 0.36304 0.9493 0.0
O197 O 0.51275 0.37754 0.01446 0.0
O198 O 0.5453 0.36529 0.97969 0.0
Mg199 Mg 0.53917 0.34151 0.89465 0.0
C200 C 0.53365 0.37703 0.0183 0.0
C201 C 0.46366 0.37479 0.08501 0.0
O202 O 0.48106 0.36419 0.10631 0.0
O203 O 0.48761 0.32895 0.99845 0.0
O204 O 0.52006 0.31746 0.95942 0.0
O205 O 0.49168 0.39067 0.87704 0.0
O206 O 0.50813 0.35842 0.8727 0.0
C207 C 0.50258 0.31425 0.99292 0.0
C208 C 0.50605 0.37791 0.84954 0.0
O209 O 0.4604 0.37621 0.02352 0.0
Mg210 Mg 0.12788 0.50069 0.47434 0.0
O211 O 0.11394 0.52219 0.55486 0.0
O212 O 0.12435 0.55711 0.54788 0.0
Mg213 Mg 0.14775 0.55744 0.45835 0.0
C214 C 0.11348 0.54184 0.57598 0.0
C215 C 0.12034 0.4536 0.55332 0.0
O216 O 0.13875 0.44576 0.52892 0.0
O217 O 0.16199 0.49962 0.52312 0.0
O218 O 0.17284 0.53453 0.50768 0.0
O219 O 0.10003 0.51127 0.40847 0.0
O220 O 0.13204 0.52819 0.41338 0.0
C221 C 0.17633 0.51494 0.5278 0.0
C222 C 0.11251 0.52733 0.38964 0.0
O223 O 0.11386 0.47272 0.53713 0.0
H224 H 0.03533 0.70902 0.98947 0.0
H225 H 0.96585 0.6942 0.00942 0.0
H226 H 0.95763 0.73404 0.01585 0.0
H227 H 0.03561 0.75357 0.10469 0.0
H228 H 0.05569 0.76922 0.05934 0.0
H229 H 0.05556 0.73969 0.05388 0.0
H230 H 0.05247 0.74256 0.92741 0.0
H231 H 0.05213 0.77214 0.93268 0.0
H232 H 0.03009 0.75787 0.89183 0.0
H233 H 0.95715 0.77586 0.01735 0.0
H234 H 0.96493 0.81548 0.03297 0.0
H235 H 0.03483 0.80225 0.0166 0.0
C236 C 0.01837 0.71414 0.99532 0.0
C237 C 0.00121 0.69854 0.99867 0.0
C238 C 0.97927 0.70588 0.00712 0.0
C239 C 0.97443 0.72847 0.0101 0.0
C240 C 0.99173 0.74344 0.00522 0.0
C241 C 0.0133 0.73652 0.99932 0.0
C242 C 0.02906 0.75577 0.99915 0.0
C243 C 0.0449 0.75449 0.05776 0.0
C244 C 0.04168 0.75716 0.93387 0.0
C245 C 0.01302 0.77464 0.00633 0.0
C246 C 0.99153 0.76728 0.00843 0.0
C247 C 0.97392 0.78179 0.01581 0.0
C248 C 0.97848 0.80429 0.02402 0.0
C249 C 0.00047 0.81192 0.02592 0.0
C250 C 0.01784 0.79691 0.01512 0.0
H251 H 0.71968 0.0235 0.47199 0.0
H252 H 0.70638 0.95571 0.52537 0.0
H253 H 0.74647 0.94815 0.52636 0.0
H254 H 0.76603 0.01241 0.36532 0.0
H255 H 0.78032 0.037 0.39029 0.0
H256 H 0.75072 0.03627 0.39146 0.0
H257 H 0.75107 0.0475 0.51412 0.0
H258 H 0.78067 0.04793 0.51361 0.0
H259 H 0.76619 0.03102 0.57201 0.0
H260 H 0.78885 0.94911 0.52747 0.0
H261 H 0.82864 0.95749 0.51764 0.0
H262 H 0.81265 0.02461 0.46317 0.0
C263 C 0.72509 0.00696 0.48333 0.0
C264 C 0.70987 0.9902 0.49877 0.0
C265 C 0.71774 0.96879 0.51298 0.0
C266 C 0.74048 0.96439 0.51409 0.0
C267 C 0.75504 0.98155 0.50037 0.0
C268 C 0.74755 0.00232 0.48437 0.0
C269 C 0.76629 0.01805 0.47159 0.0
C270 C 0.76581 0.02641 0.40044 0.0
C271 C 0.76603 0.03725 0.52078 0.0
C272 C 0.78563 0.00299 0.48327 0.0
C273 C 0.77896 0.98201 0.50019 0.0
C274 C 0.7942 0.96546 0.51388 0.0
C275 C 0.81676 0.97041 0.50861 0.0
C276 C 0.8238 0.99169 0.48942 0.0
C277 C 0.8079 0.00814 0.4776 0.0
H278 H 0.47567 0.81365 0.02433 0.0
H279 H 0.54399 0.82782 0.98183 0.0
H280 H 0.55257 0.78789 0.98821 0.0
H281 H 0.48479 0.76531 0.13406 0.0
H282 H 0.46082 0.75175 0.10153 0.0
H283 H 0.4617 0.78133 0.10609 0.0
H284 H 0.45315 0.78329 0.98179 0.0
H285 H 0.4529 0.7538 0.97627 0.0
H286 H 0.47108 0.76951 0.92446 0.0
H287 H 0.55187 0.74499 0.98454 0.0
H288 H 0.54257 0.70519 0.98011 0.0
H289 H 0.47427 0.7213 0.01955 0.0
C290 C 0.49262 0.80844 0.01885 0.0
C291 C 0.50921 0.82377 0.0033 0.0
C292 C 0.53112 0.81635 0.99521 0.0
C293 C 0.53606 0.79367 0.99808 0.0
C294 C 0.51892 0.77882 0.00968 0.0
C295 C 0.4977 0.7861 0.0212 0.0
C296 C 0.48168 0.76724 0.02706 0.0
C297 C 0.47167 0.76635 0.09631 0.0
C298 C 0.46366 0.76855 0.97424 0.0
C299 C 0.49694 0.7481 0.015 0.0
C300 C 0.51842 0.75484 0.00581 0.0
C301 C 0.5351 0.73963 0.99235 0.0
C302 C 0.52966 0.71706 0.98943 0.0
C303 C 0.50765 0.70999 0.99897 0.0
C304 C 0.49125 0.72594 0.0115 0.0
H305 H 0.68316 0.4644 0.49474 0.0
H306 H 0.66784 0.53397 0.50348 0.0
H307 H 0.70777 0.54243 0.51068 0.0
H308 H 0.7311 0.46522 0.60384 0.0
H309 H 0.7451 0.44471 0.55542 0.0
H310 H 0.71552 0.44486 0.55951 0.0
H311 H 0.71404 0.44661 0.4326 0.0
H312 H 0.74358 0.44712 0.42813 0.0
H313 H 0.72778 0.46874 0.39038 0.0
H314 H 0.75058 0.54266 0.50612 0.0
H315 H 0.79057 0.53453 0.50314 0.0
H316 H 0.7759 0.46476 0.49235 0.0
C317 C 0.6881 0.48144 0.49986 0.0
C318 C 0.67238 0.49853 0.49888 0.0
C319 C 0.67958 0.52059 0.50521 0.0
C320 C 0.70224 0.52552 0.50855 0.0
C321 C 0.71736 0.50819 0.50587 0.0
C322 C 0.71042 0.48657 0.50282 0.0
C323 C 0.72954 0.47079 0.49767 0.0
C324 C 0.73036 0.4555 0.55769 0.0
C325 C 0.72867 0.45755 0.43338 0.0
C326 C 0.74849 0.48681 0.49748 0.0
C327 C 0.74134 0.50834 0.50229 0.0
C328 C 0.75625 0.52582 0.50273 0.0
C329 C 0.77896 0.52106 0.50035 0.0
C330 C 0.78651 0.49899 0.49742 0.0
C331 C 0.77086 0.48183 0.49458 0.0
H332 H 0.00292 0.30422 0.96471 0.0
H333 H 0.97318 0.30932 0.15774 0.0
H334 H 0.97846 0.26974 0.17493 0.0
H335 H 0.97737 0.25475 0.92265 0.0
H336 H 0.00037 0.24312 0.87875 0.0
H337 H 0.99743 0.2725 0.88463 0.0
H338 H 0.03648 0.27529 0.93456 0.0
H339 H 0.03946 0.24583 0.9291 0.0
H340 H 0.0431 0.25953 0.0067 0.0
H341 H 0.98246 0.22963 0.16785 0.0
H342 H 0.98404 0.19059 0.13381 0.0
H343 H 0.01125 0.20999 0.94627 0.0
C344 C 0.99801 0.297 0.01098 0.0
C345 C 0.98765 0.30985 0.05986 0.0
C346 C 0.98102 0.29978 0.11937 0.0
C347 C 0.98411 0.27731 0.12996 0.0
C348 C 0.9939 0.26495 0.08062 0.0
C349 C 0.00076 0.27431 0.0222 0.0
C350 C 0.00878 0.25669 0.97507 0.0
C351 C 0.99517 0.25677 0.91154 0.0
C352 C 0.03342 0.25951 0.96051 0.0
C353 C 0.00455 0.23609 0.01536 0.0
C354 C 0.99634 0.24134 0.07659 0.0
C355 C 0.98938 0.22524 0.12072 0.0
C356 C 0.99038 0.20316 0.10124 0.0
C357 C 0.99837 0.19747 0.03853 0.0
C358 C 0.00586 0.21405 0.99545 0.0
H359 H 0.28443 0.97133 0.50816 0.0
H360 H 0.30061 0.04066 0.49401 0.0
H361 H 0.26113 0.05003 0.50665 0.0
H362 H 0.2356 0.9729 0.4168 0.0
H363 H 0.22124 0.95319 0.46707 0.0
H364 H 0.25075 0.95211 0.46066 0.0
H365 H 0.25439 0.95498 0.58704 0.0
H366 H 0.22488 0.95547 0.59394 0.0
H367 H 0.24099 0.97725 0.62975 0.0
H368 H 0.21884 0.05121 0.51355 0.0
H369 H 0.17901 0.0443 0.53107 0.0
H370 H 0.19198 0.97422 0.54031 0.0
C371 C 0.27976 0.98853 0.50869 0.0
C372 C 0.29558 0.00527 0.50008 0.0
C373 C 0.28878 0.02756 0.50121 0.0
C374 C 0.26638 0.03302 0.50765 0.0
C375 C 0.2511 0.01599 0.51345 0.0
C376 C 0.25765 0.99422 0.51536 0.0
C377 C 0.23829 0.97887 0.52258 0.0
C378 C 0.23637 0.96336 0.46323 0.0
C379 C 0.23973 0.96589 0.58717 0.0
C380 C 0.2197 0.99533 0.52403 0.0
C381 C 0.22725 0.01667 0.51814 0.0
C382 C 0.2128 0.03455 0.51848 0.0
C383 C 0.1902 0.03048 0.5277 0.0
C384 C 0.18245 0.00873 0.53702 0.0
C385 C 0.19741 0.99103 0.53336 0.0
H386 H 0.54028 0.19099 0.03369 0.0
H387 H 0.4719 0.1714 0.01673 0.0
H388 H 0.46082 0.21064 0.0185 0.0
H389 H 0.532 0.23705 0.14231 0.0
H390 H 0.5529 0.25354 0.10335 0.0
H391 H 0.5552 0.22399 0.10322 0.0
H392 H 0.558 0.22385 0.97632 0.0
H393 H 0.55616 0.25337 0.97625 0.0
H394 H 0.53698 0.23734 0.92884 0.0
H395 H 0.45762 0.25279 0.02122 0.0
H396 H 0.46301 0.29301 0.00965 0.0
H397 H 0.53352 0.28381 0.02466 0.0
C398 C 0.52293 0.19484 0.03046 0.0
C399 C 0.50696 0.17805 0.02532 0.0
C400 C 0.48447 0.18395 0.02049 0.0
C401 C 0.478 0.2062 0.02208 0.0
C402 C 0.49423 0.22231 0.02844 0.0
C403 C 0.51625 0.21681 0.03175 0.0
C404 C 0.5307 0.23701 0.03484 0.0
C405 C 0.54345 0.23794 0.0998 0.0
C406 C 0.54637 0.23794 0.97553 0.0
C407 C 0.51344 0.25486 0.03171 0.0
C408 C 0.49245 0.24618 0.02913 0.0
C409 C 0.47399 0.25971 0.02357 0.0
C410 C 0.47718 0.28257 0.01769 0.0
C411 C 0.49868 0.29155 0.01651 0.0
C412 C 0.51688 0.27747 0.02582 0.0
H413 H 0.30419 0.50247 0.46223 0.0
H414 H 0.31299 0.53236 0.65357 0.0
H415 H 0.27356 0.52806 0.67664 0.0
H416 H 0.25471 0.52947 0.42734 0.0
H417 H 0.24193 0.5068 0.385 0.0
H418 H 0.27141 0.50904 0.3868 0.0
H419 H 0.27398 0.46985 0.43602 0.0
H420 H 0.24442 0.4676 0.43482 0.0
H421 H 0.2592 0.46352 0.51033 0.0
H422 H 0.23314 0.52481 0.67558 0.0
H423 H 0.19364 0.52449 0.64671 0.0
H424 H 0.2096 0.4969 0.45681 0.0
C425 C 0.29781 0.50761 0.5094 0.0
C426 C 0.31168 0.51767 0.5562 0.0
C427 C 0.30267 0.52469 0.61686 0.0
C428 C 0.28029 0.52215 0.63075 0.0
C429 C 0.26693 0.51259 0.58347 0.0
C430 C 0.27523 0.50548 0.52385 0.0
C431 C 0.25671 0.49795 0.47931 0.0
C432 C 0.25616 0.51164 0.41589 0.0
C433 C 0.2587 0.47326 0.46424 0.0
C434 C 0.23682 0.50263 0.52248 0.0
C435 C 0.24319 0.51069 0.58286 0.0
C436 C 0.2279 0.51802 0.62913 0.0
C437 C 0.20552 0.51768 0.61264 0.0
C438 C 0.19869 0.50996 0.55071 0.0
C439 C 0.21447 0.50199 0.50556 0.0
H440 H 0.03729 0.61541 0.80947 0.0
H441 H 0.0157 0.55474 0.90153 0.0
H442 H 0.04078 0.53373 0.82941 0.0
H443 H 0.04228 0.59432 0.64639 0.0
H444 H 0.06647 0.6102 0.6271 0.0
H445 H 0.04689 0.62042 0.68604 0.0
H446 H 0.07789 0.62393 0.77237 0.0
H447 H 0.09757 0.61363 0.71373 0.0
H448 H 0.09441 0.60021 0.79194 0.0
H449 H 0.06757 0.51954 0.74715 0.0
H450 H 0.09421 0.51222 0.65859 0.0
H451 H 0.09918 0.58239 0.62092 0.0
C452 C 0.03792 0.59772 0.81498 0.0
C453 C 0.02462 0.58673 0.86163 0.0
C454 C 0.02573 0.56352 0.86628 0.0
C455 C 0.03997 0.55146 0.82566 0.0
C456 C 0.05301 0.56287 0.78079 0.0
C457 C 0.05211 0.58546 0.7751 0.0
C458 C 0.06773 0.59368 0.72242 0.0
C459 C 0.05508 0.60534 0.66722 0.0
C460 C 0.08545 0.60875 0.7519 0.0
C461 C 0.07751 0.57213 0.69905 0.0
C462 C 0.06876 0.55461 0.73352 0.0
C463 C 0.07471 0.53302 0.71998 0.0
C464 C 0.08984 0.52911 0.66946 0.0
C465 C 0.09892 0.54675 0.6327 0.0
C466 C 0.09278 0.56857 0.64842 0.0
H467 H 0.93353 0.09315 0.10675 0.0
H468 H 0.00288 0.09739 0.15579 0.0
H469 H 0.9974 0.07065 0.24479 0.0
H470 H 0.91347 0.087 0.27559 0.0
H471 H 0.89224 0.06783 0.25248 0.0
H472 H 0.90129 0.0885 0.19521 0.0
H473 H 0.90989 0.05806 0.10989 0.0
H474 H 0.90107 0.0373 0.16706 0.0
H475 H 0.92822 0.03593 0.13165 0.0
H476 H 0.98518 0.04131 0.3235 0.0
H477 H 0.966 0.01371 0.39201 0.0
H478 H 0.90487 0.02853 0.29171 0.0
C479 C 0.94749 0.08874 0.13689 0.0
C480 C 0.96863 0.09738 0.12406 0.0
C481 C 0.98653 0.09093 0.16425 0.0
C482 C 0.98363 0.0757 0.21499 0.0
C483 C 0.96275 0.06701 0.22513 0.0
C484 C 0.94493 0.07344 0.18772 0.0
C485 C 0.92434 0.06114 0.20784 0.0
C486 C 0.9068 0.07707 0.23437 0.0
C487 C 0.91536 0.04729 0.1507 0.0
C488 C 0.93346 0.04669 0.2618 0.0
C489 C 0.95565 0.0503 0.27106 0.0
C490 C 0.96774 0.03848 0.31718 0.0
C491 C 0.95675 0.02276 0.3556 0.0
C492 C 0.93392 0.0191 0.34763 0.0
C493 C 0.92227 0.03115 0.29967 0.0
H494 H 0.4687 0.95166 0.81114 0.0
H495 H 0.46402 0.88135 0.77505 0.0
H496 H 0.43445 0.88766 0.69634 0.0
H497 H 0.41104 0.96498 0.79362 0.0
H498 H 0.4155 0.99003 0.74834 0.0
H499 H 0.4359 0.98059 0.80582 0.0
H500 H 0.4655 0.9813 0.7147 0.0
H501 H 0.44538 0.99071 0.65632 0.0
H502 H 0.461 0.96614 0.63995 0.0
H503 H 0.40508 0.90059 0.6236 0.0
H504 H 0.38045 0.92017 0.5483 0.0
H505 H 0.4049 0.98268 0.62186 0.0
C506 C 0.46139 0.93764 0.78674 0.0
C507 C 0.46826 0.91591 0.80142 0.0
C508 C 0.45859 0.89808 0.76708 0.0
C509 C 0.44178 0.90146 0.72171 0.0
C510 C 0.435 0.92287 0.7096 0.0
C511 C 0.4447 0.94075 0.73981 0.0
C512 C 0.43502 0.96208 0.71369 0.0
C513 C 0.42369 0.97519 0.76866 0.0
C514 C 0.45279 0.97588 0.67914 0.0
C515 C 0.41834 0.95322 0.66489 0.0
C516 C 0.41853 0.93053 0.66413 0.0
C517 C 0.40479 0.91839 0.62339 0.0
C518 C 0.39077 0.92971 0.58087 0.0
C519 C 0.39068 0.95301 0.57872 0.0
C520 C 0.4045 0.96488 0.62219 0.0
H521 H 0.51651 0.39687 0.12919 0.0
H522 H 0.57597 0.39159 0.0117 0.0
H523 H 0.59395 0.41912 0.08194 0.0
H524 H 0.51825 0.45407 0.16189 0.0
H525 H 0.50962 0.45205 0.24625 0.0
H526 H 0.50116 0.43146 0.18795 0.0
H527 H 0.51855 0.40022 0.25939 0.0
H528 H 0.52533 0.4211 0.31899 0.0
H529 H 0.54645 0.40326 0.28697 0.0
H530 H 0.60518 0.44768 0.16046 0.0
H531 H 0.61077 0.47376 0.25073 0.0
H532 H 0.54469 0.46082 0.32212 0.0
C533 C 0.53336 0.40144 0.11852 0.0
C534 C 0.54481 0.39209 0.06469 0.0
C535 C 0.56688 0.39837 0.05273 0.0
C536 C 0.57721 0.41412 0.09212 0.0
C537 C 0.56538 0.42326 0.14392 0.0
C538 C 0.54411 0.41694 0.15814 0.0
C539 C 0.53557 0.42885 0.2186 0.0
C540 C 0.51492 0.44242 0.20268 0.0
C541 C 0.53119 0.4124 0.27433 0.0
C542 C 0.55508 0.44351 0.23446 0.0
C543 C 0.57208 0.43978 0.19065 0.0
C544 C 0.59206 0.45071 0.19521 0.0
C545 C 0.59504 0.46551 0.24676 0.0
C546 C 0.57817 0.46937 0.29345 0.0
C547 C 0.55775 0.45844 0.28667 0.0
H548 H 0.0731 0.97998 0.43711 0.0
H549 H 0.10503 0.92209 0.51795 0.0
H550 H 0.08478 0.89874 0.43989 0.0
H551 H 0.0203 0.95531 0.41253 0.0
H552 H 0.0149 0.96949 0.33669 0.0
H553 H 0.03229 0.98197 0.39763 0.0
H554 H 0.06364 0.98576 0.31257 0.0
H555 H 0.04624 0.97363 0.25101 0.0
H556 H 0.07285 0.96186 0.26794 0.0
H557 H 0.0608 0.88162 0.35629 0.0
H558 H 0.03506 0.87135 0.26906 0.0
H559 H 0.01832 0.94015 0.24019 0.0
C560 C 0.07597 0.9624 0.43823 0.0
C561 C 0.09073 0.95288 0.48381 0.0
C562 C 0.09387 0.9298 0.48364 0.0
C563 C 0.08242 0.91638 0.43951 0.0
C564 C 0.06788 0.92628 0.39586 0.0
C565 C 0.06463 0.94874 0.3946 0.0
C566 C 0.04785 0.95509 0.34291 0.0
C567 C 0.02764 0.96611 0.37435 0.0
C568 C 0.05827 0.96996 0.29045 0.0
C569 C 0.04218 0.93263 0.31535 0.0
C570 C 0.05396 0.91632 0.34687 0.0
C571 C 0.05159 0.89423 0.33091 0.0
C572 C 0.03693 0.8886 0.281 0.0
C573 C 0.02481 0.90496 0.24715 0.0
C574 C 0.02737 0.92729 0.26503 0.0
H575 H 0.53559 0.06475 0.86357 0.0
H576 H 0.5776 0.12226 0.85273 0.0
H577 H 0.59493 0.10742 0.75228 0.0
H578 H 0.57667 0.02751 0.82491 0.0
H579 H 0.55956 0.00895 0.77864 0.0
H580 H 0.54761 0.02578 0.84184 0.0
H581 H 0.51998 0.04141 0.75833 0.0
H582 H 0.53192 0.02501 0.69382 0.0
H583 H 0.52981 0.05443 0.68448 0.0
H584 H 0.61028 0.085 0.66169 0.0
H585 H 0.62477 0.0556 0.5917 0.0
H586 H 0.57423 0.01125 0.66294 0.0
C587 C 0.54795 0.07452 0.83872 0.0
C588 C 0.55504 0.09484 0.86502 0.0
C589 C 0.57183 0.10678 0.83287 0.0
C590 C 0.58166 0.09852 0.77568 0.0
C591 C 0.57463 0.07822 0.75169 0.0
C592 C 0.55825 0.06628 0.78233 0.0
C593 C 0.5558 0.04365 0.75162 0.0
C594 C 0.56018 0.02541 0.80226 0.0
C595 C 0.53302 0.04099 0.72014 0.0
C596 C 0.57379 0.04452 0.70005 0.0
C597 C 0.5841 0.0648 0.70025 0.0
C598 C 0.60218 0.06916 0.66054 0.0
C599 C 0.61038 0.05222 0.62097 0.0
C600 C 0.6007 0.03103 0.62155 0.0
C601 C 0.58176 0.02736 0.66043 0.0
H602 H 0.42185 0.53648 0.34986 0.0
H603 H 0.37288 0.58793 0.36993 0.0
H604 H 0.38874 0.60705 0.27401 0.0
H605 H 0.46526 0.57145 0.31852 0.0
H606 H 0.47931 0.55391 0.26076 0.0
H607 H 0.46182 0.54202 0.32246 0.0
H608 H 0.4392 0.52225 0.23261 0.0
H609 H 0.45673 0.53401 0.17044 0.0
H610 H 0.42739 0.53805 0.16675 0.0
H611 H 0.41204 0.62265 0.18627 0.0
H612 H 0.44202 0.63499 0.11527 0.0
H613 H 0.47741 0.57423 0.1521 0.0
C614 C 0.41402 0.55138 0.33256 0.0
C615 C 0.39587 0.56057 0.36646 0.0
C616 C 0.38661 0.58053 0.34416 0.0
C617 C 0.39547 0.59144 0.28962 0.0
C618 C 0.4137 0.58225 0.25827 0.0
C619 C 0.42293 0.56269 0.27887 0.0
C620 C 0.44406 0.5578 0.24166 0.0
C621 C 0.46377 0.55621 0.28866 0.0
C622 C 0.4417 0.53678 0.20041 0.0
C623 C 0.44562 0.57804 0.19838 0.0
C624 C 0.42767 0.59164 0.20803 0.0
C625 C 0.42596 0.61196 0.17735 0.0
C626 C 0.44319 0.61881 0.1367 0.0
C627 C 0.46206 0.60549 0.12687 0.0
C628 C 0.46305 0.58462 0.15745 0.0
H629 H 0.96307 0.41892 0.86228 0.0
H630 H 0.91058 0.37243 0.90216 0.0
H631 H 0.88873 0.38857 0.81255 0.0
H632 H 0.92919 0.4639 0.83772 0.0
H633 H 0.9451 0.47634 0.77299 0.0
H634 H 0.95839 0.45903 0.83243 0.0
H635 H 0.97368 0.43433 0.73959 0.0
H636 H 0.96059 0.45167 0.67958 0.0
H637 H 0.95505 0.42255 0.68059 0.0
H638 H 0.87086 0.41205 0.73018 0.0
H639 H 0.85762 0.44135 0.65826 0.0
H640 H 0.92121 0.47367 0.66934 0.0
C641 C 0.94727 0.41169 0.85067 0.0
C642 C 0.9386 0.39421 0.88864 0.0
C643 C 0.91757 0.38568 0.87345 0.0
C644 C 0.90508 0.39472 0.82254 0.0
C645 C 0.9138 0.41233 0.78735 0.0
C646 C 0.93443 0.42072 0.80039 0.0
C647 C 0.93893 0.44112 0.75939 0.0
C648 C 0.94314 0.46128 0.80327 0.0
C649 C 0.95821 0.43717 0.71196 0.0
C650 C 0.91732 0.44321 0.72276 0.0
C651 C 0.90326 0.4262 0.73924 0.0
C652 C 0.88186 0.42518 0.71572 0.0
C653 C 0.87451 0.44198 0.67451 0.0
C654 C 0.88846 0.4597 0.65669 0.0
C655 C 0.91026 0.46017 0.68093 0.0
H656 H 0.94787 0.39601 0.19768 0.0
H657 H 0.97018 0.45592 0.10313 0.0
H658 H 0.944 0.47741 0.17137 0.0
H659 H 0.89029 0.41085 0.20858 0.0
H660 H 0.88678 0.39764 0.28698 0.0
H661 H 0.90687 0.38732 0.22964 0.0
H662 H 0.93734 0.39129 0.31755 0.0
H663 H 0.91737 0.40154 0.37516 0.0
H664 H 0.94154 0.41755 0.35668 0.0
H665 H 0.91616 0.49211 0.25433 0.0
H666 H 0.88995 0.499 0.34476 0.0
H667 H 0.88535 0.42873 0.38005 0.0
C668 C 0.94709 0.41361 0.1902 0.0
C669 C 0.96091 0.42425 0.14435 0.0
C670 C 0.9597 0.4474 0.13778 0.0
C671 C 0.94483 0.4597 0.17613 0.0
C672 C 0.93127 0.44853 0.2204 0.0
C673 C 0.93232 0.42598 0.22738 0.0
C674 C 0.91652 0.41778 0.2793 0.0
C675 C 0.89908 0.4025 0.24931 0.0
C676 C 0.92894 0.40638 0.33549 0.0
C677 C 0.9065 0.43929 0.30142 0.0
C678 C 0.91515 0.45687 0.26688 0.0
C679 C 0.90913 0.47846 0.28112 0.0
C680 C 0.8942 0.48217 0.33261 0.0
C681 C 0.8854 0.46438 0.36929 0.0
C682 C 0.89143 0.44267 0.3524 0.0
H683 H 0.0207 0.91991 0.92041 0.0
H684 H 0.08177 0.90515 0.02179 0.0
H685 H 0.10133 0.93127 0.95078 0.0
H686 H 0.04546 0.92482 0.75793 0.0
H687 H 0.02759 0.94692 0.73283 0.0
H688 H 0.01812 0.92696 0.7917 0.0
H689 H 0.00908 0.95846 0.87272 0.0
H690 H 0.01891 0.97849 0.81457 0.0
H691 H 0.03038 0.97756 0.89593 0.0
H692 H 0.11423 0.95929 0.87427 0.0
H693 H 0.12132 0.98556 0.78591 0.0
H694 H 0.05271 0.98241 0.72745 0.0
C695 C 0.03822 0.9221 0.9274 0.0
C696 C 0.04968 0.91045 0.977 0.0
C697 C 0.0726 0.91373 0.98422 0.0
C698 C 0.08387 0.92866 0.94433 0.0
C699 C 0.07207 0.94008 0.89691 0.0
C700 C 0.04986 0.93684 0.8873 0.0
C701 C 0.04148 0.95099 0.83107 0.0
C702 C 0.03264 0.93656 0.77506 0.0
C703 C 0.02393 0.96735 0.85504 0.0
C704 C 0.06252 0.96276 0.8111 0.0
C705 C 0.0798 0.9562 0.85049 0.0
C706 C 0.10092 0.96444 0.8427 0.0
C707 C 0.10474 0.97938 0.79216 0.0
C708 C 0.08764 0.98593 0.74926 0.0
C709 C 0.06608 0.9778 0.7596 0.0
H710 H 0.58808 0.00361 0.3587 0.0
H711 H 0.64897 0.03534 0.30187 0.0
H712 H 0.63091 0.05053 0.20371 0.0
H713 H 0.56589 0.99388 0.18597 0.0
H714 H 0.53824 0.00072 0.21087 0.0
H715 H 0.55667 0.98776 0.26792 0.0
H716 H 0.55067 0.01875 0.35148 0.0
H717 H 0.53211 0.03219 0.29606 0.0
H718 H 0.55564 0.04684 0.32729 0.0
H719 H 0.60525 0.0684 0.12712 0.0
H720 H 0.57378 0.08635 0.07311 0.0
H721 H 0.5288 0.04384 0.17845 0.0
C722 C 0.59781 0.01278 0.32358 0.0
C723 C 0.61998 0.01801 0.3368 0.0
C724 C 0.63204 0.03095 0.29178 0.0
C725 C 0.62192 0.03961 0.23594 0.0
C726 C 0.5997 0.0352 0.22593 0.0
C727 C 0.58779 0.02187 0.26796 0.0
C728 C 0.56348 0.02244 0.25137 0.0
C729 C 0.55561 0.99986 0.22747 0.0
C730 C 0.54968 0.03055 0.31002 0.0
C731 C 0.56349 0.039 0.19598 0.0
C732 C 0.58461 0.04587 0.18143 0.0
C733 C 0.58868 0.06279 0.137 0.0
C734 C 0.57071 0.07309 0.10718 0.0
C735 C 0.54899 0.06645 0.1219 0.0
C736 C 0.54535 0.04887 0.16561 0.0
H737 H 0.40247 0.55898 0.67075 0.0
H738 H 0.45963 0.52828 0.582 0.0
H739 H 0.48383 0.55325 0.64586 0.0
H740 H 0.42405 0.61501 0.67467 0.0
H741 H 0.41084 0.62081 0.75196 0.0
H742 H 0.39858 0.60155 0.69571 0.0
H743 H 0.39829 0.57168 0.78648 0.0
H744 H 0.41045 0.59083 0.84291 0.0
H745 H 0.42361 0.56476 0.82744 0.0
H746 H 0.50157 0.58093 0.72683 0.0
H747 H 0.5104 0.60677 0.81731 0.0
H748 H 0.44082 0.61839 0.84785 0.0
C749 C 0.42003 0.55772 0.66325 0.0
C750 C 0.42911 0.54183 0.62065 0.0
C751 C 0.45228 0.54043 0.61411 0.0
C752 C 0.46613 0.5546 0.64999 0.0
C753 C 0.4565 0.57014 0.69163 0.0
C754 C 0.43392 0.57172 0.69796 0.0
C755 C 0.42734 0.58882 0.74795 0.0
C756 C 0.41444 0.60766 0.71562 0.0
C757 C 0.41416 0.57839 0.80452 0.0
C758 C 0.44972 0.59639 0.77028 0.0
C759 C 0.46645 0.58567 0.73718 0.0
C760 C 0.48851 0.58941 0.75268 0.0
C761 C 0.49342 0.60398 0.8044 0.0
C762 C 0.47637 0.61438 0.84035 0.0
C763 C 0.45434 0.61092 0.82131 0.0
H764 H 0.93382 0.02269 0.63195 0.0
H765 H 0.88946 0.07532 0.57525 0.0
H766 H 0.90519 0.09901 0.66136 0.0
H767 H 0.93422 0.03441 0.80956 0.0
H768 H 0.96308 0.02819 0.8176 0.0
H769 H 0.94688 0.01445 0.75605 0.0
H770 H 0.97411 0.02751 0.66645 0.0
H771 H 0.99032 0.04137 0.72754 0.0
H772 H 0.97993 0.05645 0.65816 0.0
H773 H 0.92696 0.11774 0.74668 0.0
H774 H 0.95391 0.13113 0.82634 0.0
H775 H 0.98523 0.06689 0.82899 0.0
C776 C 0.92711 0.03905 0.63857 0.0
C777 C 0.91026 0.04712 0.59715 0.0
C778 C 0.9023 0.06878 0.6064 0.0
C779 C 0.91108 0.08233 0.65532 0.0
C780 C 0.92789 0.07402 0.69446 0.0
C781 C 0.93587 0.05291 0.68682 0.0
C782 C 0.95507 0.04865 0.73267 0.0
C783 C 0.94947 0.03034 0.78189 0.0
C784 C 0.9761 0.04318 0.69387 0.0
C785 C 0.95685 0.07084 0.76639 0.0
C786 C 0.94081 0.08506 0.74387 0.0
C787 C 0.93941 0.1067 0.76537 0.0
C788 C 0.95484 0.11412 0.81095 0.0
C789 C 0.97159 0.10001 0.83482 0.0
C790 C 0.97252 0.07801 0.81225 0.0
H791 H 0.42787 0.98091 0.31031 0.0
H792 H 0.36022 0.95962 0.28494 0.0
H793 H 0.37207 0.93247 0.20343 0.0
H794 H 0.44213 0.97751 0.14074 0.0
H795 H 0.46972 0.96773 0.15458 0.0
H796 H 0.45633 0.98458 0.21533 0.0
H797 H 0.4631 0.95447 0.30285 0.0
H798 H 0.47646 0.93752 0.24215 0.0
H799 H 0.45349 0.92686 0.2882 0.0
H800 H 0.39039 0.90855 0.12212 0.0
H801 H 0.41431 0.89038 0.04096 0.0
H802 H 0.47024 0.92732 0.11485 0.0
C803 C 0.41562 0.97039 0.28798 0.0
C804 C 0.39315 0.97214 0.30528 0.0
C805 C 0.37758 0.9583 0.27406 0.0
C806 C 0.38412 0.94282 0.22732 0.0
C807 C 0.40631 0.94139 0.21164 0.0
C808 C 0.42187 0.95483 0.24054 0.0
C809 C 0.44449 0.95055 0.21178 0.0
C810 C 0.4537 0.97133 0.17863 0.0
C811 C 0.46032 0.94183 0.26439 0.0
C812 C 0.43904 0.93287 0.1618 0.0
C813 C 0.41694 0.92772 0.16315 0.0
C814 C 0.40777 0.91234 0.12064 0.0
C815 C 0.42151 0.9021 0.07467 0.0
C816 C 0.44418 0.90737 0.07132 0.0
C817 C 0.45302 0.9228 0.1162 0.0
H818 H 0.51278 0.42025 0.80362 0.0
H819 H 0.53266 0.35232 0.77421 0.0
H820 H 0.55821 0.36385 0.68738 0.0
H821 H 0.51423 0.43558 0.6328 0.0
H822 H 0.52486 0.46278 0.64803 0.0
H823 H 0.50821 0.44933 0.7091 0.0
H824 H 0.53925 0.45461 0.79453 0.0
H825 H 0.55601 0.468 0.73354 0.0
H826 H 0.56645 0.44437 0.77679 0.0
H827 H 0.5814 0.38226 0.60312 0.0
H828 H 0.6002 0.40669 0.52444 0.0
H829 H 0.56557 0.46279 0.60724 0.0
C830 C 0.5225 0.40783 0.77884 0.0
C831 C 0.52085 0.3854 0.79631 0.0
C832 C 0.53383 0.36964 0.76253 0.0
C833 C 0.54839 0.376 0.71288 0.0
C834 C 0.54982 0.3982 0.69724 0.0
C835 C 0.53722 0.41391 0.72892 0.0
C836 C 0.54186 0.43665 0.70169 0.0
C837 C 0.52105 0.44667 0.67108 0.0
C838 C 0.55147 0.4518 0.75481 0.0
C839 C 0.5589 0.43115 0.64977 0.0
C840 C 0.56327 0.40888 0.6482 0.0
C841 C 0.57818 0.39977 0.60386 0.0
C842 C 0.58879 0.41379 0.55937 0.0
C843 C 0.58446 0.43668 0.55953 0.0
C844 C 0.56939 0.44539 0.60587 0.0
H845 H 0.07083 0.5335 0.33876 0.0
H846 H 0.13715 0.55998 0.3352 0.0
H847 H 0.12565 0.58793 0.2553 0.0
H848 H 0.06045 0.53958 0.169 0.0
H849 H 0.03202 0.54738 0.1785 0.0
H850 H 0.04496 0.53026 0.23913 0.0
H851 H 0.03421 0.55817 0.32976 0.0
H852 H 0.02125 0.57541 0.26926 0.0
H853 H 0.04232 0.58656 0.32162 0.0
H854 H 0.10805 0.61122 0.1697 0.0
H855 H 0.08494 0.6288 0.08522 0.0
H856 H 0.02973 0.58821 0.14535 0.0
C857 C 0.08285 0.54534 0.32173 0.0
C858 C 0.10486 0.54461 0.3438 0.0
C859 C 0.12013 0.5603 0.31979 0.0
C860 C 0.11378 0.57627 0.2742 0.0
C861 C 0.09205 0.57649 0.25314 0.0
C862 C 0.07675 0.56154 0.27623 0.0
C863 C 0.05463 0.56497 0.24356 0.0
C864 C 0.04761 0.54432 0.20527 0.0
C865 C 0.03707 0.57168 0.29407 0.0
C866 C 0.06008 0.58386 0.19776 0.0
C867 C 0.08174 0.59027 0.20423 0.0
C868 C 0.09096 0.60655 0.1647 0.0
C869 C 0.07773 0.61642 0.11677 0.0
C870 C 0.05548 0.61006 0.10901 0.0
C871 C 0.04655 0.59374 0.15079 0.0
H872 H 0.8809 0.54526 0.36321 0.0
H873 H 0.91763 0.5814 0.51012 0.0
H874 H 0.93672 0.60201 0.4223 0.0
H875 H 0.92491 0.53771 0.25656 0.0
H876 H 0.90933 0.54044 0.18194 0.0
H877 H 0.89607 0.53083 0.25541 0.0
H878 H 0.86714 0.56183 0.24757 0.0
H879 H 0.87996 0.57149 0.17324 0.0
H880 H 0.87605 0.59003 0.24127 0.0
H881 H 0.95354 0.61682 0.31861 0.0
H882 H 0.96792 0.6238 0.20746 0.0
H883 H 0.92143 0.57665 0.12797 0.0
C884 C 0.8925 0.55796 0.37698 0.0
C885 C 0.89753 0.56202 0.44357 0.0
C886 C 0.91338 0.57821 0.45947 0.0
C887 C 0.92427 0.59 0.40992 0.0
C888 C 0.91925 0.58527 0.34472 0.0
C889 C 0.90376 0.56961 0.32815 0.0
C890 C 0.9028 0.56625 0.25454 0.0
C891 C 0.90864 0.5424 0.23606 0.0
C892 C 0.88014 0.5728 0.22758 0.0
C893 C 0.92046 0.58219 0.2323 0.0
C894 C 0.92951 0.59322 0.28501 0.0
C895 C 0.94647 0.60839 0.27695 0.0
C896 C 0.95452 0.61224 0.2135 0.0
C897 C 0.94581 0.6008 0.15878 0.0
C898 C 0.92841 0.58572 0.1686 0.0
H899 H 0.92723 0.95379 0.67037 0.0
H900 H 0.87243 0.9099 0.63152 0.0
H901 H 0.8798 0.89042 0.73534 0.0
H902 H 0.96309 0.91337 0.74146 0.0
H903 H 0.9741 0.93199 0.80184 0.0
H904 H 0.96442 0.94244 0.72458 0.0
H905 H 0.93819 0.96902 0.78603 0.0
H906 H 0.94772 0.9585 0.86343 0.0
H907 H 0.91878 0.95812 0.8445 0.0
H908 H 0.8934 0.87542 0.84273 0.0
H909 H 0.91269 0.86555 0.94496 0.0
H910 H 0.95828 0.91956 0.91417 0.0
C911 C 0.91678 0.94005 0.68352 0.0
C912 C 0.89924 0.93336 0.64265 0.0
C913 C 0.88596 0.91533 0.6619 0.0
C914 C 0.89 0.90418 0.72086 0.0
C915 C 0.90734 0.91128 0.76009 0.0
C916 C 0.92055 0.92877 0.74219 0.0
C917 C 0.9382 0.93304 0.79298 0.0
C918 C 0.96131 0.93002 0.76343 0.0
C919 C 0.93555 0.95603 0.82354 0.0
C920 C 0.93291 0.91511 0.84205 0.0
C921 C 0.91504 0.90277 0.82225 0.0
C922 C 0.90737 0.88501 0.85888 0.0
C923 C 0.91843 0.87954 0.91692 0.0
C924 C 0.93694 0.89181 0.93782 0.0
C925 C 0.94407 0.90996 0.89996 0.0
H926 H 0.58937 0.90431 0.09878 0.0
H927 H 0.52763 0.93751 0.13894 0.0
H928 H 0.54279 0.95161 0.24285 0.0
H929 H 0.59851 0.88663 0.25801 0.0
H930 H 0.62795 0.88999 0.25517 0.0
H931 H 0.61296 0.88489 0.18091 0.0
H932 H 0.62948 0.92033 0.12997 0.0
H933 H 0.64436 0.92564 0.20465 0.0
H934 H 0.62614 0.94625 0.17184 0.0
H935 H 0.56443 0.96036 0.34741 0.0
H936 H 0.58859 0.95896 0.44505 0.0
H937 H 0.63528 0.91937 0.33644 0.0
C938 C 0.5792 0.91501 0.12854 0.0
C939 C 0.55737 0.91996 0.11009 0.0
C940 C 0.54451 0.93368 0.15137 0.0
C941 C 0.55307 0.94196 0.21043 0.0
C942 C 0.57469 0.93679 0.22716 0.0
C943 C 0.58753 0.92353 0.18733 0.0
C944 C 0.60942 0.91848 0.21907 0.0
C945 C 0.61236 0.89353 0.22889 0.0
C946 C 0.62848 0.92826 0.17898 0.0
C947 C 0.6067 0.93037 0.2838 0.0
C948 C 0.5868 0.9413 0.28727 0.0
C949 C 0.58025 0.95231 0.34434 0.0
C950 C 0.5941 0.95155 0.39958 0.0
C951 C 0.61388 0.93937 0.39764 0.0
C952 C 0.62043 0.9292 0.33855 0.0
H953 H 0.59103 0.58367 0.60255 0.0
H954 H 0.55668 0.52254 0.64207 0.0
H955 H 0.54207 0.53831 0.74512 0.0
H956 H 0.60853 0.59303 0.76129 0.0
H957 H 0.60541 0.6225 0.75834 0.0
H958 H 0.61043 0.60736 0.68414 0.0
H959 H 0.57514 0.62405 0.63299 0.0
H960 H 0.56995 0.63914 0.70754 0.0
H961 H 0.54919 0.62104 0.67498 0.0
H962 H 0.53439 0.55976 0.85057 0.0
H963 H 0.53621 0.58403 0.94856 0.0
H964 H 0.57594 0.63034 0.83926 0.0
C965 C 0.58011 0.5737 0.63215 0.0
C966 C 0.57497 0.55188 0.61389 0.0
C967 C 0.56084 0.53933 0.65478 0.0
C968 C 0.55236 0.54819 0.71335 0.0
C969 C 0.55804 0.56968 0.73039 0.0
C970 C 0.57158 0.58225 0.69073 0.0
C971 C 0.57681 0.60415 0.72229 0.0
C972 C 0.60176 0.6069 0.73211 0.0
C973 C 0.5672 0.62322 0.68204 0.0
C974 C 0.56485 0.60166 0.787 0.0
C975 C 0.55372 0.58187 0.79056 0.0
C976 C 0.54276 0.57544 0.84779 0.0
C977 C 0.54366 0.58938 0.90301 0.0
C978 C 0.55578 0.6092 0.90066 0.0
C979 C 0.56605 0.61553 0.84155 0.0
H980 H 0.08667 0.46902 0.62934 0.0
H981 H 0.12566 0.41047 0.59278 0.0
H982 H 0.10501 0.3909 0.67998 0.0
H983 H 0.0848 0.4627 0.80561 0.0
H984 H 0.05762 0.47452 0.80942 0.0
H985 H 0.07622 0.48211 0.74437 0.0
H986 H 0.04547 0.47077 0.66145 0.0
H987 H 0.02794 0.46179 0.72744 0.0
H988 H 0.03525 0.44292 0.66281 0.0
H989 H 0.08001 0.37818 0.77438 0.0
H990 H 0.05338 0.37361 0.86546 0.0
H991 H 0.03166 0.441 0.83839 0.0
C992 C 0.0908 0.452 0.63899 0.0
C993 C 0.10773 0.44124 0.60376 0.0
C994 C 0.11274 0.41906 0.61894 0.0
C995 C 0.10108 0.40781 0.66838 0.0
C996 C 0.08457 0.41903 0.7024 0.0
C997 C 0.07953 0.44067 0.68825 0.0
C998 C 0.06173 0.44944 0.73308 0.0
C999 C 0.0706 0.46831 0.77571 0.0
C1000 C 0.04139 0.45664 0.69383 0.0
C1001 C 0.05707 0.42924 0.77394 0.0
C1002 C 0.07048 0.41187 0.75608 0.0
C1003 C 0.06941 0.39169 0.78849 0.0
C1004 C 0.05426 0.38926 0.84026 0.0
C1005 C 0.04036 0.40691 0.85908 0.0
C1006 C 0.04191 0.42711 0.82515 0.0
H1007 H 0.04348 0.0636 0.13703 0.0
H1008 H 0.0741 0.12748 0.11012 0.0
H1009 H 0.09409 0.1227 0.21449 0.0
H1010 H 0.03465 0.06736 0.30635 0.0
H1011 H 0.04111 0.03905 0.32418 0.0
H1012 H 0.03054 0.04639 0.2449 0.0
H1013 H 0.06403 0.02849 0.18891 0.0
H1014 H 0.07517 0.02099 0.26755 0.0
H1015 H 0.0914 0.03703 0.21128 0.0
H1016 H 0.10938 0.11168 0.32473 0.0
H1017 H 0.11953 0.09486 0.43069 0.0
H1018 H 0.07833 0.03852 0.38611 0.0
C1019 C 0.05467 0.07645 0.15237 0.0
C1020 C 0.05729 0.0959 0.11502 0.0
C1021 C 0.0719 0.1124 0.13756 0.0
C1022 C 0.08329 0.10985 0.1969 0.0
C1023 C 0.07995 0.0907 0.23313 0.0
C1024 C 0.06611 0.07421 0.21147 0.0
C1025 C 0.06503 0.05544 0.26028 0.0
C1026 C 0.04143 0.05188 0.28541 0.0
C1027 C 0.07447 0.03424 0.23018 0.0
C1028 C 0.07986 0.06425 0.31376 0.0
C1029 C 0.08852 0.08449 0.29684 0.0
C1030 C 0.10274 0.09581 0.33837 0.0
C1031 C 0.10837 0.08614 0.39854 0.0
C1032 C 0.09964 0.06544 0.41699 0.0
C1033 C 0.08514 0.05445 0.37383 0.0
H1034 H 0.43391 0.03087 0.63151 0.0
H1035 H 0.37725 0.07221 0.59205 0.0
H1036 H 0.38631 0.09501 0.68876 0.0
H1037 H 0.42876 0.03079 0.80479 0.0
H1038 H 0.45794 0.0317 0.82015 0.0
H1039 H 0.44777 0.0192 0.74634 0.0
H1040 H 0.47206 0.04464 0.67616 0.0
H1041 H 0.48257 0.05759 0.74907 0.0
H1042 H 0.46999 0.07405 0.68608 0.0
H1043 H 0.4018 0.11324 0.79122 0.0
H1044 H 0.42243 0.12514 0.88969 0.0
H1045 H 0.46794 0.0709 0.86154 0.0
C1046 C 0.42347 0.04481 0.64273 0.0
C1047 C 0.40492 0.04981 0.60399 0.0
C1048 C 0.3916 0.06811 0.62091 0.0
C1049 C 0.39659 0.08114 0.67579 0.0
C1050 C 0.4149 0.07559 0.71331 0.0
C1051 C 0.42813 0.05787 0.69737 0.0
C1052 C 0.44667 0.05515 0.74594 0.0
C1053 C 0.44517 0.0329 0.78145 0.0
C1054 C 0.46915 0.05803 0.71226 0.0
C1055 C 0.44177 0.07402 0.79195 0.0
C1056 C 0.42347 0.08574 0.77237 0.0
C1057 C 0.41612 0.10412 0.80708 0.0
C1058 C 0.4279 0.11075 0.86295 0.0
C1059 C 0.4467 0.09889 0.88365 0.0
C1060 C 0.45352 0.08023 0.8476 0.0
H1061 H 0.47128 0.38264 0.21517 0.0
H1062 H 0.42382 0.39442 0.06051 0.0
H1063 H 0.40123 0.41638 0.1374 0.0
H1064 H 0.43187 0.37905 0.35128 0.0
H1065 H 0.44995 0.39313 0.40724 0.0
H1066 H 0.46126 0.37676 0.34166 0.0
H1067 H 0.48344 0.41035 0.30117 0.0
H1068 H 0.47232 0.4269 0.36621 0.0
H1069 H 0.46941 0.43566 0.28225 0.0
H1070 H 0.3851 0.43917 0.22981 0.0
H1071 H 0.37738 0.46147 0.3286 0.0
H1072 H 0.43567 0.43473 0.42166 0.0
C1073 C 0.45592 0.38945 0.19767 0.0
C1074 C 0.44922 0.38663 0.13189 0.0
C1075 C 0.42924 0.39626 0.11075 0.0
C1076 C 0.41627 0.40873 0.15412 0.0
C1077 C 0.4235 0.41139 0.21846 0.0
C1078 C 0.44286 0.402 0.24013 0.0
C1079 C 0.44769 0.40842 0.31036 0.0
C1080 C 0.44768 0.38813 0.35529 0.0
C1081 C 0.4695 0.42111 0.31525 0.0
C1082 C 0.42826 0.42321 0.32455 0.0
C1083 C 0.41435 0.42458 0.27124 0.0
C1084 C 0.39578 0.43805 0.27203 0.0
C1085 C 0.39153 0.45065 0.32841 0.0
C1086 C 0.40588 0.44983 0.38304 0.0
C1087 C 0.42427 0.43565 0.38104 0.0
loop_
_geom_bond_atom_site_label_1
_geom_bond_atom_site_label_2
_geom_bond_distance
_geom_bond_site_symmetry_2
_ccdc_geom_bond_type
Mg0 O1 2.028 . S
Mg0 O7 1.986 . S
Mg0 O9 2.114 . S
Mg0 O10 2.248 1_554 S
Mg0 O13 2.010 1_455 S
O1 Mg0 2.028 . S
O1 C4 1.250 . S
O2 Mg3 2.028 . S
O2 C4 1.248 . S
Mg3 O2 2.028 . S
Mg3 O8 2.032 . S
Mg3 O10 2.076 1_554 S
C4 O1 1.250 . S
C4 O2 1.248 . S
C5 O6 1.264 . S
C5 O13 1.249 . S
O6 C5 1.264 . S
O7 Mg0 1.986 . S
O7 C11 1.246 . S
O8 Mg3 2.032 . S
O8 C11 1.259 . S
O9 Mg0 2.114 . S
O9 C12 1.252 1_554 S
O10 Mg0 2.248 1_556 S
O10 Mg3 2.076 1_556 S
O10 C12 1.275 . S
C11 O7 1.246 . S
C11 O8 1.259 . S
C12 O9 1.252 1_556 S
C12 O10 1.275 . S
O13 Mg0 2.010 1_655 S
O13 C5 1.249 . S
Mg14 O15 2.028 . S
Mg14 O21 1.986 . S
Mg14 O23 2.114 . S
Mg14 O24 2.251 . S
Mg14 O27 2.010 1_545 S
O15 Mg14 2.028 . S
O15 C18 1.250 . S
O16 Mg17 2.028 . S
O16 C18 1.248 . S
Mg17 O16 2.028 . S
Mg17 O22 2.032 . S
Mg17 O24 2.079 . S
C18 O15 1.250 . S
C18 O16 1.248 . S
C19 O20 1.264 . S
C19 O27 1.249 . S
O20 C19 1.264 . S
O21 Mg14 1.986 . S
O21 C25 1.246 . S
O22 Mg17 2.032 . S
O22 C25 1.259 . S
O23 Mg14 2.114 . S
O23 C26 1.252 . S
O24 Mg14 2.251 . S
O24 Mg17 2.079 . S
O24 C26 1.273 . S
C25 O21 1.246 . S
C25 O22 1.259 . S
C26 O23 1.252 . S
C26 O24 1.273 . S
O27 Mg14 2.010 1_565 S
O27 C19 1.249 . S
Mg28 O29 2.028 . S
Mg28 O35 1.986 . S
Mg28 O37 2.114 . S
Mg28 O38 2.248 1_554 S
Mg28 O41 2.010 . S
O29 Mg28 2.028 . S
O29 C32 1.250 . S
O30 Mg31 2.028 . S
O30 C32 1.248 . S
Mg31 O30 2.028 . S
Mg31 O36 2.032 . S
Mg31 O38 2.076 1_554 S
C32 O29 1.250 . S
C32 O30 1.248 . S
C33 O34 1.264 . S
C33 O41 1.249 . S
O34 C33 1.264 . S
O35 Mg28 1.986 . S
O35 C39 1.246 . S
O36 Mg31 2.032 . S
O36 C39 1.259 . S
O37 Mg28 2.114 . S
O37 C40 1.252 1_554 S
O38 Mg28 2.248 1_556 S
O38 Mg31 2.076 1_556 S
O38 C40 1.275 . S
C39 O35 1.246 . S
C39 O36 1.259 . S
C40 O37 1.252 1_556 S
C40 O38 1.275 . S
O41 Mg28 2.010 . S
O41 C33 1.249 . S
Mg42 O43 2.028 . S
Mg42 O49 1.986 . S
Mg42 O51 2.114 . S
Mg42 O52 2.251 . S
Mg42 O55 2.010 . S
O43 Mg42 2.028 . S
O43 C46 1.250 . S
O44 Mg45 2.028 . S
O44 C46 1.248 . S
Mg45 O44 2.028 . S
Mg45 O50 2.032 . S
Mg45 O52 2.079 . S
C46 O43 1.250 . S
C46 O44 1.248 . S
C47 O48 1.264 . S
C47 O55 1.249 . S
O48 C47 1.264 . S
O49 Mg42 1.986 . S
O49 C53 1.246 . S
O50 Mg45 2.032 . S
O50 C53 1.259 . S
O51 Mg42 2.114 . S
O51 C54 1.252 . S
O52 Mg42 2.251 . S
O52 Mg45 2.079 . S
O52 C54 1.273 . S
C53 O49 1.246 . S
C53 O50 1.259 . S
C54 O51 1.252 . S
C54 O52 1.273 . S
O55 Mg42 2.010 . S
O55 C47 1.249 . S
Mg56 O57 2.028 . S
Mg56 O63 1.986 . S
Mg56 O65 2.114 . S
Mg56 O66 2.248 1_556 S
Mg56 O69 2.010 1_455 S
O57 Mg56 2.028 . S
O57 C60 1.250 . S
O58 Mg59 2.028 . S
O58 C60 1.248 . S
Mg59 O58 2.028 . S
Mg59 O64 2.032 . S
Mg59 O66 2.076 1_556 S
C60 O57 1.250 . S
C60 O58 1.248 . S
C61 O62 1.264 . S
C61 O69 1.249 . S
O62 C61 1.264 . S
O63 Mg56 1.986 . S
O63 C67 1.246 . S
O64 Mg59 2.032 . S
O64 C67 1.259 . S
O65 Mg56 2.114 . S
O65 C68 1.252 1_556 S
O66 Mg56 2.248 1_554 S
O66 Mg59 2.076 1_554 S
O66 C68 1.275 . S
C67 O63 1.246 . S
C67 O64 1.259 . S
C68 O65 1.252 1_554 S
C68 O66 1.275 . S
O69 Mg56 2.010 1_655 S
O69 C61 1.249 . S
Mg70 O71 2.028 . S
Mg70 O77 1.986 . S
Mg70 O79 2.114 . S
Mg70 O80 2.251 . S
Mg70 O83 2.010 1_545 S
O71 Mg70 2.028 . S
O71 C74 1.250 . S
O72 Mg73 2.028 . S
O72 C74 1.248 . S
Mg73 O72 2.028 . S
Mg73 O78 2.032 . S
Mg73 O80 2.079 . S
C74 O71 1.250 . S
C74 O72 1.248 . S
C75 O76 1.264 . S
C75 O83 1.249 . S
O76 C75 1.264 . S
O77 Mg70 1.986 . S
O77 C81 1.246 . S
O78 Mg73 2.032 . S
O78 C81 1.259 . S
O79 Mg70 2.114 . S
O79 C82 1.252 . S
O80 Mg70 2.251 . S
O80 Mg73 2.079 . S
O80 C82 1.273 . S
C81 O77 1.246 . S
C81 O78 1.259 . S
C82 O79 1.252 . S
C82 O80 1.273 . S
O83 Mg70 2.010 1_565 S
O83 C75 1.249 . S
Mg84 O85 2.028 . S
Mg84 O91 1.986 . S
Mg84 O93 2.114 . S
Mg84 O94 2.248 1_556 S
Mg84 O97 2.010 . S
O85 Mg84 2.028 . S
O85 C88 1.250 . S
O86 Mg87 2.028 . S
O86 C88 1.248 . S
Mg87 O86 2.028 . S
Mg87 O92 2.032 . S
Mg87 O94 2.076 1_556 S
C88 O85 1.250 . S
C88 O86 1.248 . S
C89 O90 1.264 . S
C89 O97 1.249 . S
O90 C89 1.264 . S
O91 Mg84 1.986 . S
O91 C95 1.246 . S
O92 Mg87 2.032 . S
O92 C95 1.259 . S
O93 Mg84 2.114 . S
O93 C96 1.252 1_556 S
O94 Mg84 2.248 1_554 S
O94 Mg87 2.076 1_554 S
O94 C96 1.275 . S
C95 O91 1.246 . S
C95 O92 1.259 . S
C96 O93 1.252 1_554 S
C96 O94 1.275 . S
O97 Mg84 2.010 . S
O97 C89 1.249 . S
Mg98 O99 2.028 . S
Mg98 O105 1.986 . S
Mg98 O107 2.114 . S
Mg98 O108 2.251 . S
Mg98 O111 2.010 . S
O99 Mg98 2.028 . S
O99 C102 1.250 . S
O100 Mg101 2.028 . S
O100 C102 1.248 . S
Mg101 O100 2.028 . S
Mg101 O106 2.032 . S
Mg101 O108 2.079 . S
C102 O99 1.250 . S
C102 O100 1.248 . S
C103 O104 1.264 . S
C103 O111 1.249 . S
O104 C103 1.264 . S
O105 Mg98 1.986 . S
O105 C109 1.246 . S
O106 Mg101 2.032 . S
O106 C109 1.259 . S
O107 Mg98 2.114 . S
O107 C110 1.252 . S
O108 Mg98 2.251 . S
O108 Mg101 2.079 . S
O108 C110 1.273 . S
C109 O105 1.246 . S
C109 O106 1.259 . S
C110 O107 1.252 . S
C110 O108 1.273 . S
O111 Mg98 2.010 . S
O111 C103 1.249 . S
Mg112 O113 2.028 . S
Mg112 O119 1.986 . S
Mg112 O121 2.114 . S
Mg112 O122 2.248 1_556 S
Mg112 O125 2.010 1_655 S
O113 Mg112 2.028 . S
O113 C116 1.250 . S
O114 Mg115 2.028 . S
O114 C116 1.248 . S
Mg115 O114 2.028 . S
Mg115 O120 2.032 . S
Mg115 O122 2.076 1_556 S
C116 O113 1.250 . S
C116 O114 1.248 . S
C117 O118 1.264 . S
C117 O125 1.249 . S
O118 C117 1.264 . S
O119 Mg112 1.986 . S
O119 C123 1.246 . S
O120 Mg115 2.032 . S
O120 C123 1.259 . S
O121 Mg112 2.114 . S
O121 C124 1.252 1_556 S
O122 Mg112 2.248 1_554 S
O122 Mg115 2.076 1_554 S
O122 C124 1.275 . S
C123 O119 1.246 . S
C123 O120 1.259 . S
C124 O121 1.252 1_554 S
C124 O122 1.275 . S
O125 Mg112 2.010 1_455 S
O125 C117 1.249 . S
Mg126 O127 2.028 . S
Mg126 O133 1.986 . S
Mg126 O135 2.114 . S
Mg126 O136 2.251 . S
Mg126 O139 2.010 1_565 S
O127 Mg126 2.028 . S
O127 C130 1.250 . S
O128 Mg129 2.028 . S
O128 C130 1.248 . S
Mg129 O128 2.028 . S
Mg129 O134 2.032 . S
Mg129 O136 2.079 . S
C130 O127 1.250 . S
C130 O128 1.248 . S
C131 O132 1.264 . S
C131 O139 1.249 . S
O132 C131 1.264 . S
O133 Mg126 1.986 . S
O133 C137 1.246 . S
O134 Mg129 2.032 . S
O134 C137 1.259 . S
O135 Mg126 2.114 . S
O135 C138 1.252 . S
O136 Mg126 2.251 . S
O136 Mg129 2.079 . S
O136 C138 1.273 . S
C137 O133 1.246 . S
C137 O134 1.259 . S
C138 O135 1.252 . S
C138 O136 1.273 . S
O139 Mg126 2.010 1_545 S
O139 C131 1.249 . S
Mg140 O141 2.028 . S
Mg140 O147 1.986 . S
Mg140 O149 2.114 . S
Mg140 O150 2.248 1_556 S
Mg140 O153 2.010 . S
O141 Mg140 2.028 . S
O141 C144 1.250 . S
O142 Mg143 2.028 . S
O142 C144 1.248 . S
Mg143 O142 2.028 . S
Mg143 O148 2.032 . S
Mg143 O150 2.076 1_556 S
C144 O141 1.250 . S
C144 O142 1.248 . S
C145 O146 1.264 . S
C145 O153 1.249 . S
O146 C145 1.264 . S
O147 Mg140 1.986 . S
O147 C151 1.246 . S
O148 Mg143 2.032 . S
O148 C151 1.259 . S
O149 Mg140 2.114 . S
O149 C152 1.252 1_556 S
O150 Mg140 2.248 1_554 S
O150 Mg143 2.076 1_554 S
O150 C152 1.275 . S
C151 O147 1.246 . S
C151 O148 1.259 . S
C152 O149 1.252 1_554 S
C152 O150 1.275 . S
O153 Mg140 2.010 . S
O153 C145 1.249 . S
Mg154 O155 2.028 . S
Mg154 O161 1.986 . S
Mg154 O163 2.114 . S
Mg154 O164 2.251 . S
Mg154 O167 2.010 . S
O155 Mg154 2.028 . S
O155 C158 1.250 . S
O156 Mg157 2.028 . S
O156 C158 1.248 . S
Mg157 O156 2.028 . S
Mg157 O162 2.032 . S
Mg157 O164 2.079 . S
C158 O155 1.250 . S
C158 O156 1.248 . S
C159 O160 1.264 . S
C159 O167 1.249 . S
O160 C159 1.264 . S
O161 Mg154 1.986 . S
O161 C165 1.246 . S
O162 Mg157 2.032 . S
O162 C165 1.259 . S
O163 Mg154 2.114 . S
O163 C166 1.252 . S
O164 Mg154 2.251 . S
O164 Mg157 2.079 . S
O164 C166 1.273 . S
C165 O161 1.246 . S
C165 O162 1.259 . S
C166 O163 1.252 . S
C166 O164 1.273 . S
O167 Mg154 2.010 . S
O167 C159 1.249 . S
Mg168 O169 2.028 . S
Mg168 O175 1.986 . S
Mg168 O177 2.114 . S
Mg168 O178 2.248 1_554 S
Mg168 O181 2.010 1_655 S
O169 Mg168 2.028 . S
O169 C172 1.250 . S
O170 Mg171 2.028 . S
O170 C172 1.248 . S
Mg171 O170 2.028 . S
Mg171 O176 2.032 . S
Mg171 O178 2.076 1_554 S
C172 O169 1.250 . S
C172 O170 1.248 . S
C173 O174 1.264 . S
C173 O181 1.249 . S
O174 C173 1.264 . S
O175 Mg168 1.986 . S
O175 C179 1.246 . S
O176 Mg171 2.032 . S
O176 C179 1.259 . S
O177 Mg168 2.114 . S
O177 C180 1.252 1_554 S
O178 Mg168 2.248 1_556 S
O178 Mg171 2.076 1_556 S
O178 C180 1.275 . S
C179 O175 1.246 . S
C179 O176 1.259 . S
C180 O177 1.252 1_556 S
C180 O178 1.275 . S
O181 Mg168 2.010 1_455 S
O181 C173 1.249 . S
Mg182 O183 2.028 . S
Mg182 O189 1.986 . S
Mg182 O191 2.114 . S
Mg182 O192 2.251 . S
Mg182 O195 2.010 1_565 S
O183 Mg182 2.028 . S
O183 C186 1.250 . S
O184 Mg185 2.028 . S
O184 C186 1.248 . S
Mg185 O184 2.028 . S
Mg185 O190 2.032 . S
Mg185 O192 2.079 . S
C186 O183 1.250 . S
C186 O184 1.248 . S
C187 O188 1.264 . S
C187 O195 1.249 . S
O188 C187 1.264 . S
O189 Mg182 1.986 . S
O189 C193 1.246 . S
O190 Mg185 2.032 . S
O190 C193 1.259 . S
O191 Mg182 2.114 . S
O191 C194 1.252 . S
O192 Mg182 2.251 . S
O192 Mg185 2.079 . S
O192 C194 1.273 . S
C193 O189 1.246 . S
C193 O190 1.259 . S
C194 O191 1.252 . S
C194 O192 1.273 . S
O195 Mg182 2.010 1_545 S
O195 C187 1.249 . S
Mg196 O197 2.028 . S
Mg196 O203 1.986 . S
Mg196 O205 2.114 . S
Mg196 O206 2.248 1_554 S
Mg196 O209 2.010 . S
O197 Mg196 2.028 . S
O197 C200 1.250 . S
O198 Mg199 2.028 . S
O198 C200 1.248 . S
Mg199 O198 2.028 . S
Mg199 O204 2.032 . S
Mg199 O206 2.076 1_554 S
C200 O197 1.250 . S
C200 O198 1.248 . S
C201 O202 1.264 . S
C201 O209 1.249 . S
O202 C201 1.264 . S
O203 Mg196 1.986 . S
O203 C207 1.246 . S
O204 Mg199 2.032 . S
O204 C207 1.259 . S
O205 Mg196 2.114 . S
O205 C208 1.252 1_554 S
O206 Mg196 2.248 1_556 S
O206 Mg199 2.076 1_556 S
O206 C208 1.275 . S
C207 O203 1.246 . S
C207 O204 1.259 . S
C208 O205 1.252 1_556 S
C208 O206 1.275 . S
O209 Mg196 2.010 . S
O209 C201 1.249 . S
Mg210 O211 2.028 . S
Mg210 O217 1.986 . S
Mg210 O219 2.114 . S
Mg210 O220 2.251 . S
Mg210 O223 2.010 . S
O211 Mg210 2.028 . S
O211 C214 1.250 . S
O212 Mg213 2.028 . S
O212 C214 1.248 . S
Mg213 O212 2.028 . S
Mg213 O218 2.032 . S
Mg213 O220 2.079 . S
C214 O211 1.250 . S
C214 O212 1.248 . S
C215 O216 1.264 . S
C215 O223 1.249 . S
O216 C215 1.264 . S
O217 Mg210 1.986 . S
O217 C221 1.246 . S
O218 Mg213 2.032 . S
O218 C221 1.259 . S
O219 Mg210 2.114 . S
O219 C222 1.252 . S
O220 Mg210 2.251 . S
O220 Mg213 2.079 . S
O220 C222 1.273 . S
C221 O217 1.246 . S
C221 O218 1.259 . S
C222 O219 1.252 . S
C222 O220 1.273 . S
O223 Mg210 2.010 . S
O223 C215 1.249 . S
H224 C236 0.930 . S
H225 C238 0.929 1_556 S
H226 C239 0.930 . S
H227 C243 0.959 . S
H228 C243 0.959 . S
H229 C243 0.961 . S
H230 C244 0.960 . S
H231 C244 0.961 . S
H232 C244 0.959 . S
H233 C247 0.929 . S
H234 C248 0.931 . S
H235 C250 0.930 1_554 S
C236 H224 0.930 . S
C236 C237 1.399 . S
C236 C241 1.399 . S
C237 C236 1.399 . S
C237 C238 1.380 . S
C238 H225 0.929 1_554 S
C238 C237 1.380 . S
C238 C239 1.386 1_554 S
C239 H226 0.930 . S
C239 C238 1.386 1_556 S
C239 C240 1.390 . S
C240 C239 1.390 . S
C240 C241 1.394 1_556 S
C240 C246 1.465 . S
C241 C236 1.399 . S
C241 C240 1.394 1_554 S
C241 C242 1.516 . S
C242 C241 1.516 . S
C242 C243 1.502 1_455 S
C242 C244 1.561 . S
C242 C245 1.526 . S
C243 H227 0.959 . S
C243 H228 0.959 . S
C243 H229 0.961 . S
C243 C242 1.502 1_655 S
C244 H230 0.960 . S
C244 H231 0.961 . S
C244 H232 0.959 . S
C244 C242 1.561 . S
C245 C242 1.526 . S
C245 C246 1.396 1_554 S
C245 C250 1.390 1_554 S
C246 C240 1.465 . S
C246 C245 1.396 1_556 S
C246 C247 1.399 . S
C247 H233 0.929 . S
C247 C246 1.399 . S
C247 C248 1.385 . S
C248 H234 0.931 . S
C248 C247 1.385 . S
C248 C249 1.389 . S
C249 C248 1.389 . S
C249 C250 1.387 . S
C250 H235 0.930 1_556 S
C250 C245 1.390 1_556 S
C250 C249 1.387 . S
H251 C263 0.930 . S
H252 C265 0.904 1_565 S
H253 C266 0.930 . S
H254 C270 0.959 . S
H255 C270 0.959 . S
H256 C270 0.961 . S
H257 C271 0.960 . S
H258 C271 0.961 . S
H259 C271 0.959 . S
H260 C274 0.929 . S
H261 C275 0.934 1_565 S
H262 C277 0.930 . S
C263 H251 0.930 . S
C263 C264 1.399 . S
C263 C268 1.399 . S
C264 C263 1.399 . S
C264 C265 1.410 . S
C265 H252 0.904 1_545 S
C265 C264 1.410 . S
C265 C266 1.381 1_545 S
C266 H253 0.930 . S
C266 C265 1.381 1_565 S
C266 C267 1.390 1_565 S
C267 C266 1.390 1_545 S
C267 C268 1.394 . S
C267 C273 1.465 . S
C268 C263 1.399 . S
C268 C267 1.394 . S
C268 C269 1.516 . S
C269 C268 1.516 . S
C269 C270 1.502 . S
C269 C271 1.561 . S
C269 C272 1.526 . S
C270 H254 0.959 . S
C270 H255 0.959 . S
C270 H256 0.961 . S
C270 C269 1.502 . S
C271 H257 0.960 . S
C271 H258 0.961 . S
C271 H259 0.959 . S
C271 C269 1.561 . S
C272 C269 1.526 . S
C272 C273 1.396 . S
C272 C277 1.390 . S
C273 C267 1.465 . S
C273 C272 1.396 . S
C273 C274 1.399 1_545 S
C274 H260 0.929 . S
C274 C273 1.399 1_565 S
C274 C275 1.386 1_565 S
C275 H261 0.934 1_545 S
C275 C274 1.386 1_545 S
C275 C276 1.385 . S
C276 C275 1.385 . S
C276 C277 1.387 . S
C277 H262 0.930 . S
C277 C272 1.390 . S
C277 C276 1.387 . S
H278 C290 0.930 . S
H279 C292 0.930 . S
H280 C293 0.930 . S
H281 C297 0.959 . S
H282 C297 0.959 . S
H283 C297 0.961 . S
H284 C298 0.960 . S
H285 C298 0.961 . S
H286 C298 0.959 . S
H287 C301 0.929 . S
H288 C302 0.931 . S
H289 C304 0.930 1_554 S
C290 H278 0.930 . S
C290 C291 1.399 . S
C290 C295 1.399 . S
C291 C290 1.399 . S
C291 C292 1.376 1_554 S
C292 H279 0.930 . S
C292 C291 1.376 1_556 S
C292 C293 1.388 . S
C293 H280 0.930 . S
C293 C292 1.388 . S
C293 C294 1.390 . S
C294 C293 1.390 . S
C294 C295 1.394 1_556 S
C294 C300 1.465 . S
C295 C290 1.399 . S
C295 C294 1.394 1_554 S
C295 C296 1.516 . S
C296 C295 1.516 . S
C296 C297 1.502 . S
C296 C298 1.561 . S
C296 C299 1.526 . S
C297 H281 0.959 . S
C297 H282 0.959 . S
C297 H283 0.961 . S
C297 C296 1.502 . S
C298 H284 0.960 . S
C298 H285 0.961 . S
C298 H286 0.959 . S
C298 C296 1.561 . S
C299 C296 1.526 . S
C299 C300 1.396 1_554 S
C299 C304 1.390 1_554 S
C300 C294 1.465 . S
C300 C299 1.396 1_556 S
C300 C301 1.399 . S
C301 H287 0.929 . S
C301 C300 1.399 . S
C301 C302 1.385 . S
C302 H288 0.931 . S
C302 C301 1.385 . S
C302 C303 1.389 . S
C303 C302 1.389 . S
C303 C304 1.387 . S
C304 H289 0.930 1_556 S
C304 C299 1.390 1_556 S
C304 C303 1.387 . S
H305 C317 0.930 . S
H306 C319 0.930 . S
H307 C320 0.930 . S
H308 C324 0.959 . S
H309 C324 0.959 . S
H310 C324 0.961 . S
H311 C325 0.960 . S
H312 C325 0.961 . S
H313 C325 0.959 . S
H314 C328 0.929 . S
H315 C329 0.931 . S
H316 C331 0.930 . S
C317 H305 0.930 . S
C317 C318 1.399 . S
C317 C322 1.399 . S
C318 C317 1.399 . S
C318 C319 1.376 . S
C319 H306 0.930 . S
C319 C318 1.376 . S
C319 C320 1.388 . S
C320 H307 0.930 . S
C320 C319 1.388 . S
C320 C321 1.390 . S
C321 C320 1.390 . S
C321 C322 1.394 . S
C321 C327 1.465 . S
C322 C317 1.399 . S
C322 C321 1.394 . S
C322 C323 1.516 . S
C323 C322 1.516 . S
C323 C324 1.502 . S
C323 C325 1.561 . S
C323 C326 1.526 . S
C324 H308 0.959 . S
C324 H309 0.959 . S
C324 H310 0.961 . S
C324 C323 1.502 . S
C325 H311 0.960 . S
C325 H312 0.961 . S
C325 H313 0.959 . S
C325 C323 1.561 . S
C326 C323 1.526 . S
C326 C327 1.396 . S
C326 C331 1.390 . S
C327 C321 1.465 . S
C327 C326 1.396 . S
C327 C328 1.399 . S
C328 H314 0.929 . S
C328 C327 1.399 . S
C328 C329 1.385 . S
C329 H315 0.931 . S
C329 C328 1.385 . S
C329 C330 1.389 . S
C330 C329 1.389 . S
C330 C331 1.387 . S
C331 H316 0.930 . S
C331 C326 1.390 . S
C331 C330 1.387 . S
H332 C344 0.930 1_554 S
H333 C346 0.930 . S
H334 C347 0.930 . S
H335 C351 0.959 . S
H336 C351 0.959 . S
H337 C351 0.961 . S
H338 C352 0.960 . S
H339 C352 0.961 . S
H340 C352 0.959 . S
H341 C355 0.929 . S
H342 C356 0.931 1_556 S
H343 C358 0.930 . S
C344 H332 0.930 1_556 S
C344 C345 1.399 . S
C344 C349 1.399 1_556 S
C345 C344 1.399 . S
C345 C346 1.376 . S
C346 H333 0.930 . S
C346 C345 1.376 . S
C346 C347 1.388 . S
C347 H334 0.930 . S
C347 C346 1.388 . S
C347 C348 1.390 . S
C348 C347 1.390 . S
C348 C349 1.394 1_556 S
C348 C354 1.465 . S
C349 C344 1.399 1_554 S
C349 C348 1.394 1_554 S
C349 C350 1.516 . S
C350 C349 1.516 . S
C350 C351 1.502 1_655 S
C350 C352 1.561 . S
C350 C353 1.526 . S
C351 H335 0.959 . S
C351 H336 0.959 . S
C351 H337 0.961 . S
C351 C350 1.502 1_455 S
C352 H338 0.960 . S
C352 H339 0.961 . S
C352 H340 0.959 . S
C352 C350 1.561 . S
C353 C350 1.526 . S
C353 C354 1.396 1_554 S
C353 C358 1.390 . S
C354 C348 1.465 . S
C354 C353 1.396 1_556 S
C354 C355 1.399 . S
C355 H341 0.929 . S
C355 C354 1.399 . S
C355 C356 1.385 1_556 S
C356 H342 0.931 1_554 S
C356 C355 1.385 1_554 S
C356 C357 1.389 . S
C357 C356 1.389 . S
C357 C358 1.387 . S
C358 H343 0.930 . S
C358 C353 1.390 . S
C358 C357 1.387 . S
H359 C371 0.930 1_545 S
H360 C373 0.930 . S
H361 C374 0.930 . S
H362 C378 0.959 . S
H363 C378 0.959 . S
H364 C378 0.961 . S
H365 C379 0.960 . S
H366 C379 0.961 . S
H367 C379 0.959 . S
H368 C382 0.929 . S
H369 C383 0.931 . S
H370 C385 0.930 1_545 S
C371 H359 0.930 1_565 S
C371 C372 1.399 . S
C371 C376 1.399 . S
C372 C371 1.399 . S
C372 C373 1.376 . S
C373 H360 0.930 . S
C373 C372 1.376 . S
C373 C374 1.388 . S
C374 H361 0.930 . S
C374 C373 1.388 . S
C374 C375 1.390 . S
C375 C374 1.390 . S
C375 C376 1.394 . S
C375 C381 1.465 . S
C376 C371 1.399 . S
C376 C375 1.394 . S
C376 C377 1.516 1_565 S
C377 C376 1.516 1_545 S
C377 C378 1.502 . S
C377 C379 1.561 . S
C377 C380 1.526 1_545 S
C378 H362 0.959 . S
C378 H363 0.959 . S
C378 H364 0.961 . S
C378 C377 1.502 . S
C379 H365 0.960 . S
C379 H366 0.961 . S
C379 H367 0.959 . S
C379 C377 1.561 . S
C380 C377 1.526 1_565 S
C380 C381 1.396 . S
C380 C385 1.390 . S
C381 C375 1.465 . S
C381 C380 1.396 . S
C381 C382 1.399 . S
C382 H368 0.929 . S
C382 C381 1.399 . S
C382 C383 1.385 . S
C383 H369 0.931 . S
C383 C382 1.385 . S
C383 C384 1.389 . S
C384 C383 1.389 . S
C384 C385 1.387 . S
C385 H370 0.930 1_565 S
C385 C380 1.390 . S
C385 C384 1.387 . S
H386 C398 0.930 1_554 S
H387 C400 0.930 . S
H388 C401 0.930 . S
H389 C405 0.959 . S
H390 C405 0.959 . S
H391 C405 0.961 . S
H392 C406 0.960 . S
H393 C406 0.961 . S
H394 C406 0.959 . S
H395 C409 0.929 . S
H396 C410 0.931 . S
H397 C412 0.930 . S
C398 H386 0.930 1_556 S
C398 C399 1.399 . S
C398 C403 1.399 1_556 S
C399 C398 1.399 . S
C399 C400 1.376 . S
C400 H387 0.930 . S
C400 C399 1.376 . S
C400 C401 1.388 . S
C401 H388 0.930 . S
C401 C400 1.388 . S
C401 C402 1.390 . S
C402 C401 1.390 . S
C402 C403 1.394 1_556 S
C402 C408 1.465 . S
C403 C398 1.399 1_554 S
C403 C402 1.394 1_554 S
C403 C404 1.516 . S
C404 C403 1.516 . S
C404 C405 1.502 . S
C404 C406 1.561 . S
C404 C407 1.526 . S
C405 H389 0.959 . S
C405 H390 0.959 . S
C405 H391 0.961 . S
C405 C404 1.502 . S
C406 H392 0.960 . S
C406 H393 0.961 . S
C406 H394 0.959 . S
C406 C404 1.561 . S
C407 C404 1.526 . S
C407 C408 1.396 1_554 S
C407 C412 1.390 . S
C408 C402 1.465 . S
C408 C407 1.396 1_556 S
C408 C409 1.399 . S
C409 H395 0.929 . S
C409 C408 1.399 . S
C409 C410 1.385 . S
C410 H396 0.931 . S
C410 C409 1.385 . S
C410 C411 1.389 1_556 S
C411 C410 1.389 1_554 S
C411 C412 1.387 . S
C412 H397 0.930 . S
C412 C407 1.390 . S
C412 C411 1.387 . S
H413 C425 0.930 . S
H414 C427 0.930 . S
H415 C428 0.930 . S
H416 C432 0.959 . S
H417 C432 0.959 . S
H418 C432 0.961 . S
H419 C433 0.960 . S
H420 C433 0.961 . S
H421 C433 0.959 . S
H422 C436 0.929 . S
H423 C437 0.931 . S
H424 C439 0.930 . S
C425 H413 0.930 . S
C425 C426 1.399 . S
C425 C430 1.399 . S
C426 C425 1.399 . S
C426 C427 1.376 . S
C427 H414 0.930 . S
C427 C426 1.376 . S
C427 C428 1.388 . S
C428 H415 0.930 . S
C428 C427 1.388 . S
C428 C429 1.390 . S
C429 C428 1.390 . S
C429 C430 1.394 . S
C429 C435 1.465 . S
C430 C425 1.399 . S
C430 C429 1.394 . S
C430 C431 1.516 . S
C431 C430 1.516 . S
C431 C432 1.502 . S
C431 C433 1.561 . S
C431 C434 1.526 . S
C432 H416 0.959 . S
C432 H417 0.959 . S
C432 H418 0.961 . S
C432 C431 1.502 . S
C433 H419 0.960 . S
C433 H420 0.961 . S
C433 H421 0.959 . S
C433 C431 1.561 . S
C434 C431 1.526 . S
C434 C435 1.396 . S
C434 C439 1.390 . S
C435 C429 1.465 . S
C435 C434 1.396 . S
C435 C436 1.399 . S
C436 H422 0.929 . S
C436 C435 1.399 . S
C436 C437 1.385 . S
C437 H423 0.931 . S
C437 C436 1.385 . S
C437 C438 1.389 . S
C438 C437 1.389 . S
C438 C439 1.387 . S
C439 H424 0.930 . S
C439 C434 1.390 . S
C439 C438 1.387 . S
H440 C452 0.930 . S
H441 C454 0.930 1_554 S
H442 C455 0.930 . S
H443 C459 0.959 . S
H444 C459 0.959 . S
H445 C459 0.961 . S
H446 C460 0.960 . S
H447 C460 0.961 . S
H448 C460 0.959 . S
H449 C463 0.929 . S
H450 C464 0.931 . S
H451 C466 0.930 . S
C452 H440 0.930 . S
C452 C453 1.399 . S
C452 C457 1.399 . S
C453 C452 1.399 . S
C453 C454 1.376 . S
C454 H441 0.930 1_556 S
C454 C453 1.376 . S
C454 C455 1.388 . S
C455 H442 0.930 . S
C455 C454 1.388 . S
C455 C456 1.390 . S
C456 C455 1.390 . S
C456 C457 1.394 . S
C456 C462 1.465 . S
C457 C452 1.399 . S
C457 C456 1.394 . S
C457 C458 1.516 . S
C458 C457 1.516 . S
C458 C459 1.502 . S
C458 C460 1.561 . S
C458 C461 1.526 . S
C459 H443 0.959 . S
C459 H444 0.959 . S
C459 H445 0.961 . S
C459 C458 1.502 . S
C460 H446 0.960 . S
C460 H447 0.961 . S
C460 H448 0.959 . S
C460 C458 1.561 . S
C461 C458 1.526 . S
C461 C462 1.396 . S
C461 C466 1.390 . S
C462 C456 1.465 . S
C462 C461 1.396 . S
C462 C463 1.399 . S
C463 H449 0.929 . S
C463 C462 1.399 . S
C463 C464 1.385 . S
C464 H450 0.931 . S
C464 C463 1.385 . S
C464 C465 1.389 . S
C465 C464 1.389 . S
C465 C466 1.387 . S
C466 H451 0.930 . S
C466 C461 1.390 . S
C466 C465 1.387 . S
H467 C479 0.930 . S
H468 C481 0.930 . S
H469 C482 0.930 . S
H470 C486 0.959 . S
H471 C486 0.959 . S
H472 C486 0.961 . S
H473 C487 0.960 . S
H474 C487 0.961 . S
H475 C487 0.959 . S
H476 C490 0.929 . S
H477 C491 0.931 . S
H478 C493 0.930 . S
C479 H467 0.930 . S
C479 C480 1.399 . S
C479 C484 1.399 . S
C480 C479 1.399 . S
C480 C481 1.376 . S
C481 H468 0.930 . S
C481 C480 1.376 . S
C481 C482 1.388 . S
C482 H469 0.930 . S
C482 C481 1.388 . S
C482 C483 1.390 . S
C483 C482 1.390 . S
C483 C484 1.394 . S
C483 C489 1.465 . S
C484 C479 1.399 . S
C484 C483 1.394 . S
C484 C485 1.516 . S
C485 C484 1.516 . S
C485 C486 1.502 . S
C485 C487 1.561 . S
C485 C488 1.526 . S
C486 H470 0.959 . S
C486 H471 0.959 . S
C486 H472 0.961 . S
C486 C485 1.502 . S
C487 H473 0.960 . S
C487 H474 0.961 . S
C487 H475 0.959 . S
C487 C485 1.561 . S
C488 C485 1.526 . S
C488 C489 1.396 . S
C488 C493 1.390 . S
C489 C483 1.465 . S
C489 C488 1.396 . S
C489 C490 1.399 . S
C490 H476 0.929 . S
C490 C489 1.399 . S
C490 C491 1.385 . S
C491 H477 0.931 . S
C491 C490 1.385 . S
C491 C492 1.389 . S
C492 C491 1.389 . S
C492 C493 1.387 . S
C493 H478 0.930 . S
C493 C488 1.390 . S
C493 C492 1.387 . S
H494 C506 0.930 . S
H495 C508 0.930 . S
H496 C509 0.930 . S
H497 C513 0.959 . S
H498 C513 0.959 . S
H499 C513 0.961 . S
H500 C514 0.960 . S
H501 C514 0.961 . S
H502 C514 0.959 . S
H503 C517 0.929 . S
H504 C518 0.931 . S
H505 C520 0.930 . S
C506 H494 0.930 . S
C506 C507 1.399 . S
C506 C511 1.399 . S
C507 C506 1.399 . S
C507 C508 1.376 . S
C508 H495 0.930 . S
C508 C507 1.376 . S
C508 C509 1.388 . S
C509 H496 0.930 . S
C509 C508 1.388 . S
C509 C510 1.390 . S
C510 C509 1.390 . S
C510 C511 1.394 . S
C510 C516 1.465 . S
C511 C506 1.399 . S
C511 C510 1.394 . S
C511 C512 1.516 . S
C512 C511 1.516 . S
C512 C513 1.502 . S
C512 C514 1.561 . S
C512 C515 1.526 . S
C513 H497 0.959 . S
C513 H498 0.959 . S
C513 H499 0.961 . S
C513 C512 1.502 . S
C514 H500 0.960 . S
C514 H501 0.961 . S
C514 H502 0.959 . S
C514 C512 1.561 . S
C515 C512 1.526 . S
C515 C516 1.396 . S
C515 C520 1.390 . S
C516 C510 1.465 . S
C516 C515 1.396 . S
C516 C517 1.399 . S
C517 H503 0.929 . S
C517 C516 1.399 . S
C517 C518 1.385 . S
C518 H504 0.931 . S
C518 C517 1.385 . S
C518 C519 1.389 . S
C519 C518 1.389 . S
C519 C520 1.387 . S
C520 H505 0.930 . S
C520 C515 1.390 . S
C520 C519 1.387 . S
H521 C533 0.930 . S
H522 C535 0.930 . S
H523 C536 0.930 . S
H524 C540 0.959 . S
H525 C540 0.959 . S
H526 C540 0.961 . S
H527 C541 0.960 . S
H528 C541 0.961 . S
H529 C541 0.959 . S
H530 C544 0.929 . S
H531 C545 0.931 . S
H532 C547 0.930 . S
C533 H521 0.930 . S
C533 C534 1.399 . S
C533 C538 1.399 . S
C534 C533 1.399 . S
C534 C535 1.376 . S
C535 H522 0.930 . S
C535 C534 1.376 . S
C535 C536 1.388 . S
C536 H523 0.930 . S
C536 C535 1.388 . S
C536 C537 1.390 . S
C537 C536 1.390 . S
C537 C538 1.394 . S
C537 C543 1.465 . S
C538 C533 1.399 . S
C538 C537 1.394 . S
C538 C539 1.516 . S
C539 C538 1.516 . S
C539 C540 1.502 . S
C539 C541 1.561 . S
C539 C542 1.526 . S
C540 H524 0.959 . S
C540 H525 0.959 . S
C540 H526 0.961 . S
C540 C539 1.502 . S
C541 H527 0.960 . S
C541 H528 0.961 . S
C541 H529 0.959 . S
C541 C539 1.561 . S
C542 C539 1.526 . S
C542 C543 1.396 . S
C542 C547 1.390 . S
C543 C537 1.465 . S
C543 C542 1.396 . S
C543 C544 1.399 . S
C544 H530 0.929 . S
C544 C543 1.399 . S
C544 C545 1.385 . S
C545 H531 0.931 . S
C545 C544 1.385 . S
C545 C546 1.389 . S
C546 C545 1.389 . S
C546 C547 1.387 . S
C547 H532 0.930 . S
C547 C542 1.390 . S
C547 C546 1.387 . S
H548 C560 0.930 . S
H549 C562 0.930 . S
H550 C563 0.930 . S
H551 C567 0.959 . S
H552 C567 0.959 . S
H553 C567 0.961 . S
H554 C568 0.960 . S
H555 C568 0.961 . S
H556 C568 0.959 . S
H557 C571 0.929 . S
H558 C572 0.931 . S
H559 C574 0.930 . S
C560 H548 0.930 . S
C560 C561 1.399 . S
C560 C565 1.399 . S
C561 C560 1.399 . S
C561 C562 1.376 . S
C562 H549 0.930 . S
C562 C561 1.376 . S
C562 C563 1.388 . S
C563 H550 0.930 . S
C563 C562 1.388 . S
C563 C564 1.390 . S
C564 C563 1.390 . S
C564 C565 1.394 . S
C564 C570 1.465 . S
C565 C560 1.399 . S
C565 C564 1.394 . S
C565 C566 1.516 . S
C566 C565 1.516 . S
C566 C567 1.502 . S
C566 C568 1.561 . S
C566 C569 1.526 . S
C567 H551 0.959 . S
C567 H552 0.959 . S
C567 H553 0.961 . S
C567 C566 1.502 . S
C568 H554 0.960 . S
C568 H555 0.961 . S
C568 H556 0.959 . S
C568 C566 1.561 . S
C569 C566 1.526 . S
C569 C570 1.396 . S
C569 C574 1.390 . S
C570 C564 1.465 . S
C570 C569 1.396 . S
C570 C571 1.399 . S
C571 H557 0.929 . S
C571 C570 1.399 . S
C571 C572 1.385 . S
C572 H558 0.931 . S
C572 C571 1.385 . S
C572 C573 1.389 . S
C573 C572 1.389 . S
C573 C574 1.387 . S
C574 H559 0.930 . S
C574 C569 1.390 . S
C574 C573 1.387 . S
H575 C587 0.930 . S
H576 C589 0.930 . S
H577 C590 0.930 . S
H578 C594 0.959 . S
H579 C594 0.959 . S
H580 C594 0.961 . S
H581 C595 0.960 . S
H582 C595 0.961 . S
H583 C595 0.959 . S
H584 C598 0.929 . S
H585 C599 0.931 . S
H586 C601 0.930 . S
C587 H575 0.930 . S
C587 C588 1.399 . S
C587 C592 1.399 . S
C588 C587 1.399 . S
C588 C589 1.376 . S
C589 H576 0.930 . S
C589 C588 1.376 . S
C589 C590 1.388 . S
C590 H577 0.930 . S
C590 C589 1.388 . S
C590 C591 1.390 . S
C591 C590 1.390 . S
C591 C592 1.394 . S
C591 C597 1.465 . S
C592 C587 1.399 . S
C592 C591 1.394 . S
C592 C593 1.516 . S
C593 C592 1.516 . S
C593 C594 1.502 . S
C593 C595 1.561 . S
C593 C596 1.526 . S
C594 H578 0.959 . S
C594 H579 0.959 . S
C594 H580 0.961 . S
C594 C593 1.502 . S
C595 H581 0.960 . S
C595 H582 0.961 . S
C595 H583 0.959 . S
C595 C593 1.561 . S
C596 C593 1.526 . S
C596 C597 1.396 . S
C596 C601 1.390 . S
C597 C591 1.465 . S
C597 C596 1.396 . S
C597 C598 1.399 . S
C598 H584 0.929 . S
C598 C597 1.399 . S
C598 C599 1.385 . S
C599 H585 0.931 . S
C599 C598 1.385 . S
C599 C600 1.389 . S
C600 C599 1.389 . S
C600 C601 1.387 . S
C601 H586 0.930 . S
C601 C596 1.390 . S
C601 C600 1.387 . S
H602 C614 0.930 . S
H603 C616 0.930 . S
H604 C617 0.930 . S
H605 C621 0.959 . S
H606 C621 0.959 . S
H607 C621 0.961 . S
H608 C622 0.960 . S
H609 C622 0.961 . S
H610 C622 0.959 . S
H611 C625 0.929 . S
H612 C626 0.931 . S
H613 C628 0.930 . S
C614 H602 0.930 . S
C614 C615 1.399 . S
C614 C619 1.399 . S
C615 C614 1.399 . S
C615 C616 1.376 . S
C616 H603 0.930 . S
C616 C615 1.376 . S
C616 C617 1.388 . S
C617 H604 0.930 . S
C617 C616 1.388 . S
C617 C618 1.390 . S
C618 C617 1.390 . S
C618 C619 1.394 . S
C618 C624 1.465 . S
C619 C614 1.399 . S
C619 C618 1.394 . S
C619 C620 1.516 . S
C620 C619 1.516 . S
C620 C621 1.502 . S
C620 C622 1.561 . S
C620 C623 1.526 . S
C621 H605 0.959 . S
C621 H606 0.959 . S
C621 H607 0.961 . S
C621 C620 1.502 . S
C622 H608 0.960 . S
C622 H609 0.961 . S
C622 H610 0.959 . S
C622 C620 1.561 . S
C623 C620 1.526 . S
C623 C624 1.396 . S
C623 C628 1.390 . S
C624 C618 1.465 . S
C624 C623 1.396 . S
C624 C625 1.399 . S
C625 H611 0.929 . S
C625 C624 1.399 . S
C625 C626 1.385 . S
C626 H612 0.931 . S
C626 C625 1.385 . S
C626 C627 1.389 . S
C627 C626 1.389 . S
C627 C628 1.387 . S
C628 H613 0.930 . S
C628 C623 1.390 . S
C628 C627 1.387 . S
H629 C641 0.930 . S
H630 C643 0.930 . S
H631 C644 0.930 . S
H632 C648 0.959 . S
H633 C648 0.959 . S
H634 C648 0.961 . S
H635 C649 0.960 . S
H636 C649 0.961 . S
H637 C649 0.959 . S
H638 C652 0.929 . S
H639 C653 0.931 . S
H640 C655 0.930 . S
C641 H629 0.930 . S
C641 C642 1.399 . S
C641 C646 1.399 . S
C642 C641 1.399 . S
C642 C643 1.376 . S
C643 H630 0.930 . S
C643 C642 1.376 . S
C643 C644 1.388 . S
C644 H631 0.930 . S
C644 C643 1.388 . S
C644 C645 1.390 . S
C645 C644 1.390 . S
C645 C646 1.394 . S
C645 C651 1.465 . S
C646 C641 1.399 . S
C646 C645 1.394 . S
C646 C647 1.516 . S
C647 C646 1.516 . S
C647 C648 1.502 . S
C647 C649 1.561 . S
C647 C650 1.526 . S
C648 H632 0.959 . S
C648 H633 0.959 . S
C648 H634 0.961 . S
C648 C647 1.502 . S
C649 H635 0.960 . S
C649 H636 0.961 . S
C649 H637 0.959 . S
C649 C647 1.561 . S
C650 C647 1.526 . S
C650 C651 1.396 . S
C650 C655 1.390 . S
C651 C645 1.465 . S
C651 C650 1.396 . S
C651 C652 1.399 . S
C652 H638 0.929 . S
C652 C651 1.399 . S
C652 C653 1.385 . S
C653 H639 0.931 . S
C653 C652 1.385 . S
C653 C654 1.389 . S
C654 C653 1.389 . S
C654 C655 1.387 . S
C655 H640 0.930 . S
C655 C650 1.390 . S
C655 C654 1.387 . S
H656 C668 0.930 . S
H657 C670 0.930 . S
H658 C671 0.930 . S
H659 C675 0.959 . S
H660 C675 0.959 . S
H661 C675 0.961 . S
H662 C676 0.960 . S
H663 C676 0.961 . S
H664 C676 0.959 . S
H665 C679 0.929 . S
H666 C680 0.931 . S
H667 C682 0.930 . S
C668 H656 0.930 . S
C668 C669 1.399 . S
C668 C673 1.399 . S
C669 C668 1.399 . S
C669 C670 1.376 . S
C670 H657 0.930 . S
C670 C669 1.376 . S
C670 C671 1.388 . S
C671 H658 0.930 . S
C671 C670 1.388 . S
C671 C672 1.390 . S
C672 C671 1.390 . S
C672 C673 1.394 . S
C672 C678 1.465 . S
C673 C668 1.399 . S
C673 C672 1.394 . S
C673 C674 1.516 . S
C674 C673 1.516 . S
C674 C675 1.502 . S
C674 C676 1.561 . S
C674 C677 1.526 . S
C675 H659 0.959 . S
C675 H660 0.959 . S
C675 H661 0.961 . S
C675 C674 1.502 . S
C676 H662 0.960 . S
C676 H663 0.961 . S
C676 H664 0.959 . S
C676 C674 1.561 . S
C677 C674 1.526 . S
C677 C678 1.396 . S
C677 C682 1.390 . S
C678 C672 1.465 . S
C678 C677 1.396 . S
C678 C679 1.399 . S
C679 H665 0.929 . S
C679 C678 1.399 . S
C679 C680 1.385 . S
C680 H666 0.931 . S
C680 C679 1.385 . S
C680 C681 1.389 . S
C681 C680 1.389 . S
C681 C682 1.387 . S
C682 H667 0.930 . S
C682 C677 1.390 . S
C682 C681 1.387 . S
H683 C695 0.930 . S
H684 C697 0.930 . S
H685 C698 0.930 . S
H686 C702 0.959 . S
H687 C702 0.959 . S
H688 C702 0.961 . S
H689 C703 0.960 . S
H690 C703 0.961 . S
H691 C703 0.959 . S
H692 C706 0.929 . S
H693 C707 0.931 . S
H694 C709 0.930 . S
C695 H683 0.930 . S
C695 C696 1.399 . S
C695 C700 1.399 . S
C696 C695 1.399 . S
C696 C697 1.376 . S
C697 H684 0.930 . S
C697 C696 1.376 . S
C697 C698 1.388 . S
C698 H685 0.930 . S
C698 C697 1.388 . S
C698 C699 1.390 . S
C699 C698 1.390 . S
C699 C700 1.394 . S
C699 C705 1.465 . S
C700 C695 1.399 . S
C700 C699 1.394 . S
C700 C701 1.516 . S
C701 C700 1.516 . S
C701 C702 1.502 . S
C701 C703 1.561 . S
C701 C704 1.526 . S
C702 H686 0.959 . S
C702 H687 0.959 . S
C702 H688 0.961 . S
C702 C701 1.502 . S
C703 H689 0.960 . S
C703 H690 0.961 . S
C703 H691 0.959 . S
C703 C701 1.561 . S
C704 C701 1.526 . S
C704 C705 1.396 . S
C704 C709 1.390 . S
C705 C699 1.465 . S
C705 C704 1.396 . S
C705 C706 1.399 . S
C706 H692 0.929 . S
C706 C705 1.399 . S
C706 C707 1.385 . S
C707 H693 0.931 . S
C707 C706 1.385 . S
C707 C708 1.389 . S
C708 C707 1.389 . S
C708 C709 1.387 . S
C709 H694 0.930 . S
C709 C704 1.390 . S
C709 C708 1.387 . S
H710 C722 0.930 . S
H711 C724 0.930 . S
H712 C725 0.930 . S
H713 C729 0.959 . S
H714 C729 0.959 . S
H715 C729 0.961 . S
H716 C730 0.960 . S
H717 C730 0.961 . S
H718 C730 0.959 . S
H719 C733 0.929 . S
H720 C734 0.931 . S
H721 C736 0.930 . S
C722 H710 0.930 . S
C722 C723 1.399 . S
C722 C727 1.399 . S
C723 C722 1.399 . S
C723 C724 1.376 . S
C724 H711 0.930 . S
C724 C723 1.376 . S
C724 C725 1.388 . S
C725 H712 0.930 . S
C725 C724 1.388 . S
C725 C726 1.390 . S
C726 C725 1.390 . S
C726 C727 1.394 . S
C726 C732 1.465 . S
C727 C722 1.399 . S
C727 C726 1.394 . S
C727 C728 1.516 . S
C728 C727 1.516 . S
C728 C729 1.502 . S
C728 C730 1.561 . S
C728 C731 1.526 . S
C729 H713 0.959 . S
C729 H714 0.959 . S
C729 H715 0.961 . S
C729 C728 1.502 . S
C730 H716 0.960 . S
C730 H717 0.961 . S
C730 H718 0.959 . S
C730 C728 1.561 . S
C731 C728 1.526 . S
C731 C732 1.396 . S
C731 C736 1.390 . S
C732 C726 1.465 . S
C732 C731 1.396 . S
C732 C733 1.399 . S
C733 H719 0.929 . S
C733 C732 1.399 . S
C733 C734 1.385 . S
C734 H720 0.931 . S
C734 C733 1.385 . S
C734 C735 1.389 . S
C735 C734 1.389 . S
C735 C736 1.387 . S
C736 H721 0.930 . S
C736 C731 1.390 . S
C736 C735 1.387 . S
H737 C749 0.930 . S
H738 C751 0.930 . S
H739 C752 0.930 . S
H740 C756 0.959 . S
H741 C756 0.959 . S
H742 C756 0.961 . S
H743 C757 0.960 . S
H744 C757 0.961 . S
H745 C757 0.959 . S
H746 C760 0.929 . S
H747 C761 0.931 . S
H748 C763 0.930 . S
C749 H737 0.930 . S
C749 C750 1.399 . S
C749 C754 1.399 . S
C750 C749 1.399 . S
C750 C751 1.376 . S
C751 H738 0.930 . S
C751 C750 1.376 . S
C751 C752 1.388 . S
C752 H739 0.930 . S
C752 C751 1.388 . S
C752 C753 1.390 . S
C753 C752 1.390 . S
C753 C754 1.394 . S
C753 C759 1.465 . S
C754 C749 1.399 . S
C754 C753 1.394 . S
C754 C755 1.516 . S
C755 C754 1.516 . S
C755 C756 1.502 . S
C755 C757 1.561 . S
C755 C758 1.526 . S
C756 H740 0.959 . S
C756 H741 0.959 . S
C756 H742 0.961 . S
C756 C755 1.502 . S
C757 H743 0.960 . S
C757 H744 0.961 . S
C757 H745 0.959 . S
C757 C755 1.561 . S
C758 C755 1.526 . S
C758 C759 1.396 . S
C758 C763 1.390 . S
C759 C753 1.465 . S
C759 C758 1.396 . S
C759 C760 1.399 . S
C760 H746 0.929 . S
C760 C759 1.399 . S
C760 C761 1.385 . S
C761 H747 0.931 . S
C761 C760 1.385 . S
C761 C762 1.389 . S
C762 C761 1.389 . S
C762 C763 1.387 . S
C763 H748 0.930 . S
C763 C758 1.390 . S
C763 C762 1.387 . S
H764 C776 0.930 . S
H765 C778 0.930 . S
H766 C779 0.930 . S
H767 C783 0.959 . S
H768 C783 0.959 . S
H769 C783 0.961 . S
H770 C784 0.960 . S
H771 C784 0.961 . S
H772 C784 0.959 . S
H773 C787 0.929 . S
H774 C788 0.931 . S
H775 C790 0.930 . S
C776 H764 0.930 . S
C776 C777 1.399 . S
C776 C781 1.399 . S
C777 C776 1.399 . S
C777 C778 1.376 . S
C778 H765 0.930 . S
C778 C777 1.376 . S
C778 C779 1.388 . S
C779 H766 0.930 . S
C779 C778 1.388 . S
C779 C780 1.390 . S
C780 C779 1.390 . S
C780 C781 1.394 . S
C780 C786 1.465 . S
C781 C776 1.399 . S
C781 C780 1.394 . S
C781 C782 1.516 . S
C782 C781 1.516 . S
C782 C783 1.502 . S
C782 C784 1.561 . S
C782 C785 1.526 . S
C783 H767 0.959 . S
C783 H768 0.959 . S
C783 H769 0.961 . S
C783 C782 1.502 . S
C784 H770 0.960 . S
C784 H771 0.961 . S
C784 H772 0.959 . S
C784 C782 1.561 . S
C785 C782 1.526 . S
C785 C786 1.396 . S
C785 C790 1.390 . S
C786 C780 1.465 . S
C786 C785 1.396 . S
C786 C787 1.399 . S
C787 H773 0.929 . S
C787 C786 1.399 . S
C787 C788 1.385 . S
C788 H774 0.931 . S
C788 C787 1.385 . S
C788 C789 1.389 . S
C789 C788 1.389 . S
C789 C790 1.387 . S
C790 H775 0.930 . S
C790 C785 1.390 . S
C790 C789 1.387 . S
H791 C803 0.930 . S
H792 C805 0.930 . S
H793 C806 0.930 . S
H794 C810 0.959 . S
H795 C810 0.959 . S
H796 C810 0.961 . S
H797 C811 0.960 . S
H798 C811 0.961 . S
H799 C811 0.959 . S
H800 C814 0.929 . S
H801 C815 0.931 . S
H802 C817 0.930 . S
C803 H791 0.930 . S
C803 C804 1.399 . S
C803 C808 1.399 . S
C804 C803 1.399 . S
C804 C805 1.376 . S
C805 H792 0.930 . S
C805 C804 1.376 . S
C805 C806 1.388 . S
C806 H793 0.930 . S
C806 C805 1.388 . S
C806 C807 1.390 . S
C807 C806 1.390 . S
C807 C808 1.394 . S
C807 C813 1.465 . S
C808 C803 1.399 . S
C808 C807 1.394 . S
C808 C809 1.516 . S
C809 C808 1.516 . S
C809 C810 1.502 . S
C809 C811 1.561 . S
C809 C812 1.526 . S
C810 H794 0.959 . S
C810 H795 0.959 . S
C810 H796 0.961 . S
C810 C809 1.502 . S
C811 H797 0.960 . S
C811 H798 0.961 . S
C811 H799 0.959 . S
C811 C809 1.561 . S
C812 C809 1.526 . S
C812 C813 1.396 . S
C812 C817 1.390 . S
C813 C807 1.465 . S
C813 C812 1.396 . S
C813 C814 1.399 . S
C814 H800 0.929 . S
C814 C813 1.399 . S
C814 C815 1.385 . S
C815 H801 0.931 . S
C815 C814 1.385 . S
C815 C816 1.389 . S
C816 C815 1.389 . S
C816 C817 1.387 . S
C817 H802 0.930 . S
C817 C812 1.390 . S
C817 C816 1.387 . S
H818 C830 0.930 . S
H819 C832 0.930 . S
H820 C833 0.930 . S
H821 C837 0.959 . S
H822 C837 0.959 . S
H823 C837 0.961 . S
H824 C838 0.960 . S
H825 C838 0.961 . S
H826 C838 0.959 . S
H827 C841 0.929 . S
H828 C842 0.931 . S
H829 C844 0.930 . S
C830 H818 0.930 . S
C830 C831 1.399 . S
C830 C835 1.399 . S
C831 C830 1.399 . S
C831 C832 1.376 . S
C832 H819 0.930 . S
C832 C831 1.376 . S
C832 C833 1.388 . S
C833 H820 0.930 . S
C833 C832 1.388 . S
C833 C834 1.390 . S
C834 C833 1.390 . S
C834 C835 1.394 . S
C834 C840 1.465 . S
C835 C830 1.399 . S
C835 C834 1.394 . S
C835 C836 1.516 . S
C836 C835 1.516 . S
C836 C837 1.502 . S
C836 C838 1.561 . S
C836 C839 1.526 . S
C837 H821 0.959 . S
C837 H822 0.959 . S
C837 H823 0.961 . S
C837 C836 1.502 . S
C838 H824 0.960 . S
C838 H825 0.961 . S
C838 H826 0.959 . S
C838 C836 1.561 . S
C839 C836 1.526 . S
C839 C840 1.396 . S
C839 C844 1.390 . S
C840 C834 1.465 . S
C840 C839 1.396 . S
C840 C841 1.399 . S
C841 H827 0.929 . S
C841 C840 1.399 . S
C841 C842 1.385 . S
C842 H828 0.931 . S
C842 C841 1.385 . S
C842 C843 1.389 . S
C843 C842 1.389 . S
C843 C844 1.387 . S
C844 H829 0.930 . S
C844 C839 1.390 . S
C844 C843 1.387 . S
H845 C857 0.930 . S
H846 C859 0.930 . S
H847 C860 0.930 . S
H848 C864 0.959 . S
H849 C864 0.959 . S
H850 C864 0.961 . S
H851 C865 0.960 . S
H852 C865 0.961 . S
H853 C865 0.959 . S
H854 C868 0.929 . S
H855 C869 0.931 . S
H856 C871 0.930 . S
C857 H845 0.930 . S
C857 C858 1.399 . S
C857 C862 1.399 . S
C858 C857 1.399 . S
C858 C859 1.376 . S
C859 H846 0.930 . S
C859 C858 1.376 . S
C859 C860 1.388 . S
C860 H847 0.930 . S
C860 C859 1.388 . S
C860 C861 1.390 . S
C861 C860 1.390 . S
C861 C862 1.394 . S
C861 C867 1.465 . S
C862 C857 1.399 . S
C862 C861 1.394 . S
C862 C863 1.516 . S
C863 C862 1.516 . S
C863 C864 1.502 . S
C863 C865 1.561 . S
C863 C866 1.526 . S
C864 H848 0.959 . S
C864 H849 0.959 . S
C864 H850 0.961 . S
C864 C863 1.502 . S
C865 H851 0.960 . S
C865 H852 0.961 . S
C865 H853 0.959 . S
C865 C863 1.561 . S
C866 C863 1.526 . S
C866 C867 1.396 . S
C866 C871 1.390 . S
C867 C861 1.465 . S
C867 C866 1.396 . S
C867 C868 1.399 . S
C868 H854 0.929 . S
C868 C867 1.399 . S
C868 C869 1.385 . S
C869 H855 0.931 . S
C869 C868 1.385 . S
C869 C870 1.389 . S
C870 C869 1.389 . S
C870 C871 1.387 . S
C871 H856 0.930 . S
C871 C866 1.390 . S
C871 C870 1.387 . S
H872 C884 0.930 . S
H873 C886 0.930 . S
H874 C887 0.930 . S
H875 C891 0.959 . S
H876 C891 0.959 . S
H877 C891 0.961 . S
H878 C892 0.960 . S
H879 C892 0.961 . S
H880 C892 0.959 . S
H881 C895 0.929 . S
H882 C896 0.931 . S
H883 C898 0.930 . S
C884 H872 0.930 . S
C884 C885 1.399 . S
C884 C889 1.399 . S
C885 C884 1.399 . S
C885 C886 1.376 . S
C886 H873 0.930 . S
C886 C885 1.376 . S
C886 C887 1.388 . S
C887 H874 0.930 . S
C887 C886 1.388 . S
C887 C888 1.390 . S
C888 C887 1.390 . S
C888 C889 1.394 . S
C888 C894 1.465 . S
C889 C884 1.399 . S
C889 C888 1.394 . S
C889 C890 1.516 . S
C890 C889 1.516 . S
C890 C891 1.502 . S
C890 C892 1.561 . S
C890 C893 1.526 . S
C891 H875 0.959 . S
C891 H876 0.959 . S
C891 H877 0.961 . S
C891 C890 1.502 . S
C892 H878 0.960 . S
C892 H879 0.961 . S
C892 H880 0.959 . S
C892 C890 1.561 . S
C893 C890 1.526 . S
C893 C894 1.396 . S
C893 C898 1.390 . S
C894 C888 1.465 . S
C894 C893 1.396 . S
C894 C895 1.399 . S
C895 H881 0.929 . S
C895 C894 1.399 . S
C895 C896 1.385 . S
C896 H882 0.931 . S
C896 C895 1.385 . S
C896 C897 1.389 . S
C897 C896 1.389 . S
C897 C898 1.387 . S
C898 H883 0.930 . S
C898 C893 1.390 . S
C898 C897 1.387 . S
H899 C911 0.930 . S
H900 C913 0.930 . S
H901 C914 0.930 . S
H902 C918 0.959 . S
H903 C918 0.959 . S
H904 C918 0.961 . S
H905 C919 0.960 . S
H906 C919 0.961 . S
H907 C919 0.959 . S
H908 C922 0.929 . S
H909 C923 0.931 . S
H910 C925 0.930 . S
C911 H899 0.930 . S
C911 C912 1.399 . S
C911 C916 1.399 . S
C912 C911 1.399 . S
C912 C913 1.376 . S
C913 H900 0.930 . S
C913 C912 1.376 . S
C913 C914 1.388 . S
C914 H901 0.930 . S
C914 C913 1.388 . S
C914 C915 1.390 . S
C915 C914 1.390 . S
C915 C916 1.394 . S
C915 C921 1.465 . S
C916 C911 1.399 . S
C916 C915 1.394 . S
C916 C917 1.516 . S
C917 C916 1.516 . S
C917 C918 1.502 . S
C917 C919 1.561 . S
C917 C920 1.526 . S
C918 H902 0.959 . S
C918 H903 0.959 . S
C918 H904 0.961 . S
C918 C917 1.502 . S
C919 H905 0.960 . S
C919 H906 0.961 . S
C919 H907 0.959 . S
C919 C917 1.561 . S
C920 C917 1.526 . S
C920 C921 1.396 . S
C920 C925 1.390 . S
C921 C915 1.465 . S
C921 C920 1.396 . S
C921 C922 1.399 . S
C922 H908 0.929 . S
C922 C921 1.399 . S
C922 C923 1.385 . S
C923 H909 0.931 . S
C923 C922 1.385 . S
C923 C924 1.389 . S
C924 C923 1.389 . S
C924 C925 1.387 . S
C925 H910 0.930 . S
C925 C920 1.390 . S
C925 C924 1.387 . S
H926 C938 0.930 . S
H927 C940 0.930 . S
H928 C941 0.930 . S
H929 C945 0.959 . S
H930 C945 0.959 . S
H931 C945 0.961 . S
H932 C946 0.960 . S
H933 C946 0.961 . S
H934 C946 0.959 . S
H935 C949 0.929 . S
H936 C950 0.931 . S
H937 C952 0.930 . S
C938 H926 0.930 . S
C938 C939 1.399 . S
C938 C943 1.399 . S
C939 C938 1.399 . S
C939 C940 1.376 . S
C940 H927 0.930 . S
C940 C939 1.376 . S
C940 C941 1.388 . S
C941 H928 0.930 . S
C941 C940 1.388 . S
C941 C942 1.390 . S
C942 C941 1.390 . S
C942 C943 1.394 . S
C942 C948 1.465 . S
C943 C938 1.399 . S
C943 C942 1.394 . S
C943 C944 1.516 . S
C944 C943 1.516 . S
C944 C945 1.502 . S
C944 C946 1.561 . S
C944 C947 1.526 . S
C945 H929 0.959 . S
C945 H930 0.959 . S
C945 H931 0.961 . S
C945 C944 1.502 . S
C946 H932 0.960 . S
C946 H933 0.961 . S
C946 H934 0.959 . S
C946 C944 1.561 . S
C947 C944 1.526 . S
C947 C948 1.396 . S
C947 C952 1.390 . S
C948 C942 1.465 . S
C948 C947 1.396 . S
C948 C949 1.399 . S
C949 H935 0.929 . S
C949 C948 1.399 . S
C949 C950 1.385 . S
C950 H936 0.931 . S
C950 C949 1.385 . S
C950 C951 1.389 . S
C951 C950 1.389 . S
C951 C952 1.387 . S
C952 H937 0.930 . S
C952 C947 1.390 . S
C952 C951 1.387 . S
H953 C965 0.930 . S
H954 C967 0.930 . S
H955 C968 0.930 . S
H956 C972 0.959 . S
H957 C972 0.959 . S
H958 C972 0.961 . S
H959 C973 0.960 . S
H960 C973 0.961 . S
H961 C973 0.959 . S
H962 C976 0.929 . S
H963 C977 0.931 . S
H964 C979 0.930 . S
C965 H953 0.930 . S
C965 C966 1.399 . S
C965 C970 1.399 . S
C966 C965 1.399 . S
C966 C967 1.376 . S
C967 H954 0.930 . S
C967 C966 1.376 . S
C967 C968 1.388 . S
C968 H955 0.930 . S
C968 C967 1.388 . S
C968 C969 1.390 . S
C969 C968 1.390 . S
C969 C970 1.394 . S
C969 C975 1.465 . S
C970 C965 1.399 . S
C970 C969 1.394 . S
C970 C971 1.516 . S
C971 C970 1.516 . S
C971 C972 1.502 . S
C971 C973 1.561 . S
C971 C974 1.526 . S
C972 H956 0.959 . S
C972 H957 0.959 . S
C972 H958 0.961 . S
C972 C971 1.502 . S
C973 H959 0.960 . S
C973 H960 0.961 . S
C973 H961 0.959 . S
C973 C971 1.561 . S
C974 C971 1.526 . S
C974 C975 1.396 . S
C974 C979 1.390 . S
C975 C969 1.465 . S
C975 C974 1.396 . S
C975 C976 1.399 . S
C976 H962 0.929 . S
C976 C975 1.399 . S
C976 C977 1.385 . S
C977 H963 0.931 . S
C977 C976 1.385 . S
C977 C978 1.389 . S
C978 C977 1.389 . S
C978 C979 1.387 . S
C979 H964 0.930 . S
C979 C974 1.390 . S
C979 C978 1.387 . S
H980 C992 0.930 . S
H981 C994 0.930 . S
H982 C995 0.930 . S
H983 C999 0.959 . S
H984 C999 0.959 . S
H985 C999 0.961 . S
H986 C1000 0.960 . S
H987 C1000 0.961 . S
H988 C1000 0.959 . S
H989 C1003 0.929 . S
H990 C1004 0.931 . S
H991 C1006 0.930 . S
C992 H980 0.930 . S
C992 C993 1.399 . S
C992 C997 1.399 . S
C993 C992 1.399 . S
C993 C994 1.376 . S
C994 H981 0.930 . S
C994 C993 1.376 . S
C994 C995 1.388 . S
C995 H982 0.930 . S
C995 C994 1.388 . S
C995 C996 1.390 . S
C996 C995 1.390 . S
C996 C997 1.394 . S
C996 C1002 1.465 . S
C997 C992 1.399 . S
C997 C996 1.394 . S
C997 C998 1.516 . S
C998 C997 1.516 . S
C998 C999 1.502 . S
C998 C1000 1.561 . S
C998 C1001 1.526 . S
C999 H983 0.959 . S
C999 H984 0.959 . S
C999 H985 0.961 . S
C999 C998 1.502 . S
C1000 H986 0.960 . S
C1000 H987 0.961 . S
C1000 H988 0.959 . S
C1000 C998 1.561 . S
C1001 C998 1.526 . S
C1001 C1002 1.396 . S
C1001 C1006 1.390 . S
C1002 C996 1.465 . S
C1002 C1001 1.396 . S
C1002 C1003 1.399 . S
C1003 H989 0.929 . S
C1003 C1002 1.399 . S
C1003 C1004 1.385 . S
C1004 H990 0.931 . S
C1004 C1003 1.385 . S
C1004 C1005 1.389 . S
C1005 C1004 1.389 . S
C1005 C1006 1.387 . S
C1006 H991 0.930 . S
C1006 C1001 1.390 . S
C1006 C1005 1.387 . S
H1007 C1019 0.930 . S
H1008 C1021 0.930 . S
H1009 C1022 0.930 . S
H1010 C1026 0.959 . S
H1011 C1026 0.959 . S
H1012 C1026 0.961 . S
H1013 C1027 0.960 . S
H1014 C1027 0.961 . S
H1015 C1027 0.959 . S
H1016 C1030 0.929 . S
H1017 C1031 0.931 . S
H1018 C1033 0.930 . S
C1019 H1007 0.930 . S
C1019 C1020 1.399 . S
C1019 C1024 1.399 . S
C1020 C1019 1.399 . S
C1020 C1021 1.376 . S
C1021 H1008 0.930 . S
C1021 C1020 1.376 . S
C1021 C1022 1.388 . S
C1022 H1009 0.930 . S
C1022 C1021 1.388 . S
C1022 C1023 1.390 . S
C1023 C1022 1.390 . S
C1023 C1024 1.394 . S
C1023 C1029 1.465 . S
C1024 C1019 1.399 . S
C1024 C1023 1.394 . S
C1024 C1025 1.516 . S
C1025 C1024 1.516 . S
C1025 C1026 1.502 . S
C1025 C1027 1.561 . S
C1025 C1028 1.526 . S
C1026 H1010 0.959 . S
C1026 H1011 0.959 . S
C1026 H1012 0.961 . S
C1026 C1025 1.502 . S
C1027 H1013 0.960 . S
C1027 H1014 0.961 . S
C1027 H1015 0.959 . S
C1027 C1025 1.561 . S
C1028 C1025 1.526 . S
C1028 C1029 1.396 . S
C1028 C1033 1.390 . S
C1029 C1023 1.465 . S
C1029 C1028 1.396 . S
C1029 C1030 1.399 . S
C1030 H1016 0.929 . S
C1030 C1029 1.399 . S
C1030 C1031 1.385 . S
C1031 H1017 0.931 . S
C1031 C1030 1.385 . S
C1031 C1032 1.389 . S
C1032 C1031 1.389 . S
C1032 C1033 1.387 . S
C1033 H1018 0.930 . S
C1033 C1028 1.390 . S
C1033 C1032 1.387 . S
H1034 C1046 0.930 . S
H1035 C1048 0.930 . S
H1036 C1049 0.930 . S
H1037 C1053 0.959 . S
H1038 C1053 0.959 . S
H1039 C1053 0.961 . S
H1040 C1054 0.960 . S
H1041 C1054 0.961 . S
H1042 C1054 0.959 . S
H1043 C1057 0.929 . S
H1044 C1058 0.931 . S
H1045 C1060 0.930 . S
C1046 H1034 0.930 . S
C1046 C1047 1.399 . S
C1046 C1051 1.399 . S
C1047 C1046 1.399 . S
C1047 C1048 1.376 . S
C1048 H1035 0.930 . S
C1048 C1047 1.376 . S
C1048 C1049 1.388 . S
C1049 H1036 0.930 . S
C1049 C1048 1.388 . S
C1049 C1050 1.390 . S
C1050 C1049 1.390 . S
C1050 C1051 1.394 . S
C1050 C1056 1.465 . S
C1051 C1046 1.399 . S
C1051 C1050 1.394 . S
C1051 C1052 1.516 . S
C1052 C1051 1.516 . S
C1052 C1053 1.502 . S
C1052 C1054 1.561 . S
C1052 C1055 1.526 . S
C1053 H1037 0.959 . S
C1053 H1038 0.959 . S
C1053 H1039 0.961 . S
C1053 C1052 1.502 . S
C1054 H1040 0.960 . S
C1054 H1041 0.961 . S
C1054 H1042 0.959 . S
C1054 C1052 1.561 . S
C1055 C1052 1.526 . S
C1055 C1056 1.396 . S
C1055 C1060 1.390 . S
C1056 C1050 1.465 . S
C1056 C1055 1.396 . S
C1056 C1057 1.399 . S
C1057 H1043 0.929 . S
C1057 C1056 1.399 . S
C1057 C1058 1.385 . S
C1058 H1044 0.931 . S
C1058 C1057 1.385 . S
C1058 C1059 1.389 . S
C1059 C1058 1.389 . S
C1059 C1060 1.387 . S
C1060 H1045 0.930 . S
C1060 C1055 1.390 . S
C1060 C1059 1.387 . S
H1061 C1073 0.930 . S
H1062 C1075 0.930 . S
H1063 C1076 0.930 . S
H1064 C1080 0.959 . S
H1065 C1080 0.959 . S
H1066 C1080 0.961 . S
H1067 C1081 0.960 . S
H1068 C1081 0.961 . S
H1069 C1081 0.959 . S
H1070 C1084 0.929 . S
H1071 C1085 0.931 . S
H1072 C1087 0.930 . S
C1073 H1061 0.930 . S
C1073 C1074 1.399 . S
C1073 C1078 1.399 . S
C1074 C1073 1.399 . S
C1074 C1075 1.376 . S
C1075 H1062 0.930 . S
C1075 C1074 1.376 . S
C1075 C1076 1.388 . S
C1076 H1063 0.930 . S
C1076 C1075 1.388 . S
C1076 C1077 1.390 . S
C1077 C1076 1.390 . S
C1077 C1078 1.394 . S
C1077 C1083 1.465 . S
C1078 C1073 1.399 . S
C1078 C1077 1.394 . S
C1078 C1079 1.516 . S
C1079 C1078 1.516 . S
C1079 C1080 1.502 . S
C1079 C1081 1.561 . S
C1079 C1082 1.526 . S
C1080 H1064 0.959 . S
C1080 H1065 0.959 . S
C1080 H1066 0.961 . S
C1080 C1079 1.502 . S
C1081 H1067 0.960 . S
C1081 H1068 0.961 . S
C1081 H1069 0.959 . S
C1081 C1079 1.561 . S
C1082 C1079 1.526 . S
C1082 C1083 1.396 . S
C1082 C1087 1.390 . S
C1083 C1077 1.465 . S
C1083 C1082 1.396 . S
C1083 C1084 1.399 . S
C1084 H1070 0.929 . S
C1084 C1083 1.399 . S
C1084 C1085 1.385 . S
C1085 H1071 0.931 . S
C1085 C1084 1.385 . S
C1085 C1086 1.389 . S
C1086 C1085 1.389 . S
C1086 C1087 1.387 . S
C1087 H1072 0.930 . S
C1087 C1082 1.390 . S
C1087 C1086 1.387 . S
C237 C11 1.002 . S
C249 C67 1.054 . S
C264 C81 1.067 . S
C276 C25 1.104 . S
C291 C39 1.004 . S
C303 C95 1.067 . S
C318 C53 1.059 . S
C330 C109 1.105 . S
C345 C123 1.029 . S
C357 C179 1.004 . S
C372 C193 1.004 . S
C384 C137 1.014 . S
C399 C151 1.058 . S
C411 C207 1.015 . S
C426 C165 1.004 . S
C438 C221 1.039 . S
C453 C12 1.102 . S
C465 C214 1.133 . S
C480 C172 1.073 . S
C492 C26 1.134 . S
C507 C40 1.134 . S
C519 C186 1.074 . S
C534 C200 1.082 . S
C546 C54 1.129 . S
C561 C130 1.082 . S
C573 C68 1.130 . S
C588 C144 1.139 . S
C600 C82 1.100 . S
C615 C158 1.124 . S
C627 C96 1.108 . S
C642 C116 1.134 . S
C654 C110 1.102 . S
C669 C124 1.115 . S
C681 C102 1.127 . S
C696 C60 1.108 . S
C708 C138 1.106 . S
C723 C74 1.101 . S
C735 C152 1.110 . S
C750 C166 1.134 . S
C762 C88 1.076 . S
C777 C18 1.078 . S
C789 C180 1.134 . S
C804 C194 1.100 . S
C816 C32 1.138 . S
C831 C208 1.111 . S
C843 C46 1.097 . S
C858 C222 1.128 . S
C870 C4 1.075 . S
C885 C103 1.272 . S
C897 C5 1.351 . S
C912 C19 1.351 . S
C924 C61 1.273 . S
C939 C33 1.378 . S
C951 C75 1.285 . S
C966 C47 1.358 . S
C978 C89 1.324 . S
C993 C215 1.267 . S
C1005 C117 1.340 . S
C1020 C173 1.310 . S
C1032 C131 1.277 . S
C1047 C187 1.353 . S
C1059 C145 1.271 . S
C1074 C201 1.338 . S
C1086 C159 1.370 . S
