# Generated by pormake.
# Topology fnt, (5)-cn, num edge types: 1
# Building blocks:
#     Node 0, Type 0, BuildingBlock: BEQFEK_clean_sbu_0, # of connection points: 5
#     Node 1, Type 0, BuildingBlock: BEQFEK_clean_sbu_0, # of connection points: 5
#     Node 2, Type 0, BuildingBlock: BEQFEK_clean_sbu_0, # of connection points: 5
#     Node 3, Type 0, BuildingBlock: BEQFEK_clean_sbu_0, # of connection points: 5
#     Node 4, Type 0, BuildingBlock: BEQFEK_clean_sbu_0, # of connection points: 5
#     Node 5, Type 0, BuildingBlock: BEQFEK_clean_sbu_0, # of connection points: 5
#     Edge 6, Type (0, 0), BuildingBlock: FUNLAD_clean_linker_0, # of connection points: 2
#     Edge 7, Type (0, 0), BuildingBlock: FUNLAD_clean_linker_0, # of connection points: 2
#     Edge 8, Type (0, 0), BuildingBlock: FUNLAD_clean_linker_0, # of connection points: 2
#     Edge 9, Type (0, 0), BuildingBlock: FUNLAD_clean_linker_0, # of connection points: 2
#     Edge 10, Type (0, 0), BuildingBlock: FUNLAD_clean_linker_0, # of connection points: 2
#     Edge 11, Type (0, 0), BuildingBlock: FUNLAD_clean_linker_0, # of connection points: 2
#     Edge 12, Type (0, 0), BuildingBlock: FUNLAD_clean_linker_0, # of connection points: 2
#     Edge 13, Type (0, 0), BuildingBlock: FUNLAD_clean_linker_0, # of connection points: 2
#     Edge 14, Type (0, 0), BuildingBlock: FUNLAD_clean_linker_0, # of connection points: 2
#     Edge 15, Type (0, 0), BuildingBlock: FUNLAD_clean_linker_0, # of connection points: 2
#     Edge 16, Type (0, 0), BuildingBlock: FUNLAD_clean_linker_0, # of connection points: 2
#     Edge 17, Type (0, 0), BuildingBlock: FUNLAD_clean_linker_0, # of connection points: 2
#     Edge 18, Type (0, 0), BuildingBlock: FUNLAD_clean_linker_0, # of connection points: 2
#     Edge 19, Type (0, 0), BuildingBlock: FUNLAD_clean_linker_0, # of connection points: 2
#     Edge 20, Type (0, 0), BuildingBlock: FUNLAD_clean_linker_0, # of connection points: 2
# Relax obj value: 0.229
# Max RMSD: 0.174
# Mean RMSD: 0.174
data_MOF--net-fnt--node1-BEQFEK_clean_sbu_0--edge1-FUNLAD_clean_linker_0
_symmetry_space_group_name_H-M    P1
_symmetry_Int_Tables_number       1
_symmetry_cell_setting            triclinic
loop_
_symmetry_equiv_pos_as_xyz
'x, y, z'
_cell_length_a     29.523524
_cell_length_b     29.581735
_cell_length_c     60.441139
_cell_angle_alpha  89.391614
_cell_angle_beta   90.511203
_cell_angle_gamma 119.66444
loop_
_atom_site_label
_atom_site_type_symbol
_atom_site_fract_x
_atom_site_fract_y
_atom_site_fract_z
_atom_type_partial_charge
Co0 Co 0.18828 0.36261 0.06074 0.0
Co1 Co 0.18474 0.3445 1.00888 0.0
C2 C 0.28091 0.37417 0.03645 0.0
O3 O 0.25941 0.37362 0.05473 0.0
O4 O 0.25604 0.36448 1.01824 0.0
C5 C 0.18778 0.33411 0.10676 0.0
O6 O 0.21057 0.30897 0.09913 0.0
C7 C 0.20284 0.30521 0.967 0.0
C8 C 0.1464 0.3101 0.94432 0.0
C9 C 0.18505 0.2965 0.94526 0.0
N10 N 0.17633 0.32357 0.97833 0.0
N11 N 0.14258 0.3263 0.96463 0.0
C12 C 0.24181 0.29286 0.97719 0.0
H13 H 0.23254 0.28211 0.99488 0.0
H14 H 0.24245 0.26053 0.9683 0.0
H15 H 0.28108 0.32769 0.97607 0.0
C16 C 0.09139 0.2609 0.05757 0.0
N17 N 0.13512 0.2996 0.04849 0.0
N18 N 0.1352 0.29077 0.02717 0.0
C19 C 0.0925 0.24529 0.0222 0.0
C20 C 0.06312 0.22525 0.04126 0.0
C21 C 0.07366 0.26121 0.08069 0.0
H22 H 0.09401 0.24785 0.09228 0.0
H23 H 0.03104 0.23503 0.08245 0.0
H24 H 0.08298 0.30109 0.08522 0.0
O25 O 0.18051 0.41992 0.04765 0.0
O26 O 0.17434 0.40563 1.01134 0.0
H27 H 0.06478 0.24085 0.98908 0.0
H28 H 0.0521 0.17904 1.00053 0.0
C29 C 0.08076 0.22123 0.99972 0.0
H30 H 0.11701 0.22638 0.9921 0.0
H31 H 0.117 0.33937 0.96915 0.0
O32 O 0.17725 0.36122 0.0934 0.0
C33 C 0.17418 0.43182 0.02795 0.0
Co34 Co 0.8413 0.15966 0.39064 0.0
Co35 Co 0.85996 0.16816 0.33876 0.0
C36 C 0.90873 0.26231 0.36844 0.0
O37 O 0.89027 0.2363 0.38629 0.0
O38 O 0.89877 0.23987 0.34977 0.0
C39 C 0.86593 0.15182 0.43706 0.0
O40 O 0.9146 0.17682 0.43039 0.0
C41 C 0.92041 0.19598 0.29672 0.0
C42 C 0.85735 0.15265 0.27254 0.0
C43 C 0.91051 0.18674 0.27413 0.0
N44 N 0.87516 0.16855 0.30778 0.0
N45 N 0.83781 0.14251 0.29317 0.0
C46 C 0.97136 0.23209 0.30755 0.0
H47 H 0.96569 0.24018 0.32482 0.0
H48 H -0.00385 0.21362 0.30792 0.0
H49 H 0.99202 0.26904 0.298 0.0
C50 C 0.86586 0.07451 0.38421 0.0
N51 N 0.86564 0.11765 0.37685 0.0
N52 N 0.8757 0.12305 0.35548 0.0
C53 C 0.88407 0.08454 0.34877 0.0
C54 C 0.87779 0.05218 0.36668 0.0
C55 C 0.84465 0.04949 0.40624 0.0
H56 H 0.81078 0.05403 0.41063 0.0
H57 H 0.8754 0.06869 0.41901 0.0
H58 H 0.83195 0.0074 0.40631 0.0
O59 O 0.77205 0.14058 0.37761 0.0
O60 O 0.78398 0.14289 0.34125 0.0
H61 H 0.85668 0.06484 0.31548 0.0
H62 H 0.90362 0.04525 0.32371 0.0
C63 C 0.89273 0.07602 0.32518 0.0
H64 H 0.92444 0.11269 0.31812 0.0
H65 H 0.79865 0.11868 0.29724 0.0
O66 O 0.8298 0.14246 0.42312 0.0
C67 C 0.75441 0.13431 0.35786 0.0
Co68 Co 0.62222 0.80841 0.72547 0.0
Co69 Co 0.65088 0.84022 0.67474 0.0
C70 C 0.62195 0.90149 0.7055 0.0
O71 O 0.61629 0.8725 0.72224 0.0
O72 O 0.63425 0.89229 0.68657 0.0
C73 C 0.6358 0.81645 0.77372 0.0
O74 O 0.65778 0.86689 0.77037 0.0
C75 C 0.69633 0.90393 0.63372 0.0
C76 C 0.6932 0.84467 0.61092 0.0
C77 C 0.70721 0.89675 0.61206 0.0
N78 N 0.67638 0.85813 0.6447 0.0
N79 N 0.67475 0.823 0.63089 0.0
C80 C 0.70765 0.95399 0.64421 0.0
H81 H 0.7149 0.95298 0.6622 0.0
H82 H 0.74201 0.98729 0.6364 0.0
H83 H 0.67345 0.95958 0.64186 0.0
C84 C 0.72367 0.81153 0.72362 0.0
N85 N 0.68651 0.81916 0.71416 0.0
N86 N 0.6997 0.83473 0.69353 0.0
C87 C 0.74645 0.83907 0.68947 0.0
C88 C 0.76284 0.82399 0.70835 0.0
C89 C 0.71962 0.78834 0.74616 0.0
H90 H 0.67978 0.75514 0.74867 0.0
H91 H 0.72756 0.81822 0.75883 0.0
H92 H 0.74783 0.77415 0.74839 0.0
O93 O 0.56595 0.7504 0.70899 0.0
O94 O 0.58722 0.77063 0.67362 0.0
H95 H 0.76016 0.82821 0.65582 0.0
H96 H 0.81803 0.87402 0.67058 0.0
C97 C 0.77577 0.85967 0.66828 0.0
H98 H 0.77055 0.89208 0.66193 0.0
H99 H 0.66082 0.78403 0.6351 0.0
O100 O 0.61669 0.78602 0.75729 0.0
C101 C 0.55741 0.73953 0.6885 0.0
Co102 Co 0.85545 0.65418 0.05476 0.0
Co103 Co 0.82766 0.65934 1.00391 0.0
C104 C 0.75188 0.57712 0.03452 0.0
O105 O 0.78318 0.59485 0.051 0.0
O106 O 0.76433 0.59786 1.01527 0.0
C107 C 0.85563 0.65813 0.10417 0.0
O108 O 0.80719 0.64853 0.10321 0.0
C109 C 0.78058 0.67452 0.96158 0.0
C110 C 0.85347 0.72083 0.94289 0.0
C111 C 0.80026 0.70224 0.94183 0.0
N112 N 0.82082 0.67801 0.97377 0.0
N113 N 0.8639 0.70481 0.96215 0.0
C114 C 0.72554 0.64936 0.96958 0.0
H115 H 0.72378 0.64194 0.98767 0.0
H116 H 0.70821 0.67431 0.9656 0.0
H117 H 0.70222 0.61165 0.96104 0.0
C118 C 0.86403 0.75799 0.05426 0.0
N119 N 0.85687 0.71489 0.04388 0.0
N120 N 0.84356 0.71632 0.02311 0.0
C121 C 0.84047 0.75987 0.01985 0.0
C122 C 0.85322 0.78752 0.03946 0.0
C123 C 0.88248 0.77137 0.07766 0.0
H124 H 0.91147 0.75897 0.08154 0.0
H125 H 0.8488 0.75075 0.08895 0.0
H126 H 0.90059 0.81382 0.08053 0.0
O127 O 0.9058 0.64269 0.0384 0.0
O128 O 0.8859 0.64367 1.00299 0.0
H129 H 0.84729 0.77917 0.98537 0.0
H130 H 0.81384 0.80547 1.001 0.0
C131 C 0.81988 0.77162 0.99916 0.0
H132 H 0.78181 0.73758 0.99501 0.0
H133 H 0.90099 0.71421 0.96785 0.0
O134 O 0.87974 0.66153 0.08633 0.0
C135 C 0.91381 0.63921 1.01805 0.0
Co136 Co 0.18094 0.84989 0.39345 0.0
Co137 Co 0.16648 0.83626 0.34151 0.0
C138 C 0.14008 0.74558 0.373 0.0
O139 O 0.1518 0.77367 0.39032 0.0
O140 O 0.14516 0.76519 0.35359 0.0
C141 C 0.17588 0.85116 0.44312 0.0
O142 O 0.13772 0.8027 0.44331 0.0
C143 C 0.11274 0.7961 0.29782 0.0
C144 C 0.15391 0.86769 0.27761 0.0
C145 C 0.11345 0.81675 0.27691 0.0
N146 N 0.15061 0.83359 0.31031 0.0
N147 N 0.17559 0.87583 0.29789 0.0
C148 C 0.07368 0.74347 0.3064 0.0
H149 H 0.07132 0.74368 0.32469 0.0
H150 H 0.03468 0.73086 0.29904 0.0
H151 H 0.08595 0.715 0.30167 0.0
C152 C 0.09964 0.87867 0.38762 0.0
N153 N 0.13621 0.86956 0.37902 0.0
N154 N 0.12923 0.86352 0.35747 0.0
C155 C 0.08748 0.8684 0.35176 0.0
C156 C 0.06675 0.87742 0.37075 0.0
C157 C 0.09285 0.88245 0.41191 0.0
H158 H 0.06379 0.89496 0.41522 0.0
H159 H 0.13074 0.91086 0.41937 0.0
H160 H 0.08001 0.844 0.41982 0.0
O161 O 0.25077 0.88646 0.38077 0.0
O162 O 0.24419 0.88177 0.34433 0.0
H163 H 0.09175 0.87729 0.31654 0.0
H164 H 0.02999 0.86344 0.3276 0.0
C165 C 0.06234 0.85494 0.32936 0.0
H166 H 0.04651 0.81288 0.32647 0.0
H167 H 0.20609 0.91107 0.30358 0.0
O168 O 0.19485 0.87386 0.42478 0.0
C169 C 0.27186 0.89753 0.36183 0.0
Co170 Co 0.33047 0.18689 0.72502 0.0
Co171 Co 0.342 0.17657 0.67343 0.0
C172 C 0.4107 0.16334 0.70684 0.0
O173 O 0.38845 0.17143 0.72313 0.0
O174 O 0.39714 0.16506 0.68686 0.0
C175 C 0.30906 0.16186 0.77291 0.0
O176 O 0.31651 0.1221 0.76994 0.0
C177 C 0.33631 0.12615 0.63002 0.0
C178 C 0.30772 0.1683 0.60895 0.0
C179 C 0.31743 0.12705 0.60891 0.0
N180 N 0.33599 0.16415 0.64206 0.0
N181 N 0.32048 0.19012 0.62906 0.0
C182 C 0.34871 0.08638 0.63927 0.0
H183 H 0.34824 0.08645 0.65763 0.0
H184 H 0.32057 0.04707 0.63303 0.0
H185 H 0.3882 0.09587 0.63373 0.0
C186 C 0.22507 0.09833 0.71564 0.0
N187 N 0.27259 0.13565 0.70904 0.0
N188 N 0.27715 0.1313 0.68757 0.0
C189 C 0.23243 0.09103 0.67992 0.0
C190 C 0.19841 0.06875 0.69747 0.0
C191 C 0.20514 0.09167 0.73879 0.0
H192 H 0.21625 0.13017 0.74591 0.0
H193 H 0.22279 0.07302 0.749 0.0
H194 H 0.16209 0.0669 0.73931 0.0
O195 O 0.34998 0.25592 0.71273 0.0
O196 O 0.35856 0.24984 0.67669 0.0
H197 H 0.23235 0.10363 0.64497 0.0
H198 H 0.1838 0.03943 0.65365 0.0
C199 C 0.22394 0.07141 0.65667 0.0
H200 H 0.25044 0.05596 0.65339 0.0
H201 H 0.31518 0.22063 0.63438 0.0
O202 O 0.31296 0.19102 0.75656 0.0
C203 C 0.35939 0.27589 0.69344 0.0
C204 C 0.36519 0.39417 0.05534 0.0
C205 C 0.33649 0.38834 0.03585 0.0
C206 C 0.41841 0.40999 0.0543 0.0
C207 C 0.44371 0.42021 0.03368 0.0
C208 C 0.41468 0.41363 1.01433 0.0
C209 C 0.36188 0.3979 1.01537 0.0
C210 C 0.50071 0.44171 0.03131 0.0
C211 C 0.53264 0.44056 0.04709 0.0
C212 C 0.59004 0.46812 0.04404 0.0
C213 C 0.6227 0.49083 0.0624 0.0
C214 C 0.67621 0.52398 0.05952 0.0
C215 C 0.69786 0.53488 0.03817 0.0
H216 H 0.58904 0.45624 1.00853 0.0
C217 C 0.66582 0.50869 0.02003 0.0
C218 C 0.61258 0.47523 0.02295 0.0
H219 H 0.68155 0.51536 1.00344 0.0
H220 H 0.34678 0.38728 0.07139 0.0
H221 H 0.43956 0.41567 0.06965 0.0
H222 H 0.43313 0.4216 0.99824 0.0
H223 H 0.34138 0.39461 1.00001 0.0
H224 H 0.51726 0.46108 1.01568 0.0
H225 H 0.5173 0.42277 0.06308 0.0
H226 H 0.60643 0.48527 0.07886 0.0
H227 H 0.69998 0.5433 0.07386 0.0
C228 C 0.95035 0.34837 0.38846 0.0
C229 C 0.94069 0.31998 0.36878 0.0
C230 C 0.97772 0.40302 0.38801 0.0
C231 C -0.00409 0.43018 0.36781 0.0
C232 C 0.98689 0.40163 0.34832 0.0
C233 C 0.96 0.34744 0.34878 0.0
C234 C 0.02178 0.48785 0.36581 0.0
C235 C 0.04699 0.52139 0.38238 0.0
C236 C 0.07258 0.57906 0.37956 0.0
C237 C 0.08213 0.61016 0.39834 0.0
C238 C 0.10473 0.66425 0.39631 0.0
C239 C 0.11847 0.68856 0.3754 0.0
H240 H 0.0837 0.58188 0.34386 0.0
C241 C 0.11026 0.65763 0.35668 0.0
C242 C 0.08804 0.60369 0.35872 0.0
H243 H 0.12102 0.67505 0.34034 0.0
H244 H 0.93584 0.32847 0.40413 0.0
H245 H 0.98294 0.42353 0.40336 0.0
H246 H 0.00034 0.42137 0.33253 0.0
H247 H 0.95358 0.32716 0.33324 0.0
H248 H 0.01988 0.5029 0.3496 0.0
H249 H 0.04836 0.50648 0.39871 0.0
H250 H 0.07129 0.59249 0.41463 0.0
H251 H 0.11065 0.68686 0.41112 0.0
C252 C 0.47469 0.1374 0.69367 0.0
C253 C 0.44932 0.1462 0.71128 0.0
C254 C 0.5052 0.11408 0.69747 0.0
C255 C 0.51123 0.09918 0.71902 0.0
C256 C 0.48754 0.1098 0.73669 0.0
C257 C 0.45723 0.13342 0.73292 0.0
C258 C 0.53644 0.06711 0.72315 0.0
C259 C 0.5727 0.06766 0.70962 0.0
C260 C 0.5894 0.02779 0.71022 0.0
C261 C 0.61043 0.02007 0.69086 0.0
C262 C 0.62181 0.97975 0.68956 0.0
C263 C 0.61296 0.94628 0.70769 0.0
H264 H 0.56806 0.00138 0.74427 0.0
C265 C 0.59426 0.95542 0.72749 0.0
C266 C 0.58261 -0.00418 0.72878 0.0
H267 H 0.58767 0.93081 0.74188 0.0
H268 H 0.46928 0.14653 0.67679 0.0
H269 H 0.52142 0.10526 0.68327 0.0
H270 H 0.4912 0.09836 0.75341 0.0
H271 H 0.43815 0.13949 0.74688 0.0
H272 H 0.52183 0.04008 0.73699 0.0
H273 H 0.58761 0.09582 0.69615 0.0
H274 H 0.61647 0.04423 0.67636 0.0
H275 H 0.63661 0.97432 0.67412 0.0
C276 C 0.48179 0.65305 0.69834 0.0
C277 C 0.51666 0.6865 0.68227 0.0
C278 C 0.45136 0.59992 0.69431 0.0
C279 C 0.45483 0.57897 0.67397 0.0
C280 C 0.48673 0.61309 0.65733 0.0
C281 C 0.51717 0.66639 0.66136 0.0
C282 C 0.43234 0.52201 0.67079 0.0
C283 C 0.39549 0.48587 0.68403 0.0
C284 C 0.38435 0.43122 0.68526 0.0
C285 C 0.36803 0.40502 0.7056 0.0
C286 C 0.36062 0.35497 0.70826 0.0
C287 C 0.36862 0.3295 0.69048 0.0
H288 H 0.40283 0.42408 0.65119 0.0
C289 C 0.3836 0.35511 0.66987 0.0
C290 C 0.39151 0.40558 0.66728 0.0
H291 H 0.38939 0.33627 0.65577 0.0
H292 H 0.48023 0.66733 0.71459 0.0
H293 H 0.42827 0.57554 0.70786 0.0
H294 H 0.49025 0.59814 0.64153 0.0
H295 H 0.5436 0.69113 0.6486 0.0
H296 H 0.4508 0.51012 0.65846 0.0
H297 H 0.37652 0.49743 0.69622 0.0
H298 H 0.36213 0.42381 0.71971 0.0
H299 H 0.34844 0.33624 0.72429 0.0
C300 C 0.9511 0.59696 0.9943 0.0
C301 C 0.95622 0.6291 1.01214 0.0
C302 C 0.98862 0.58199 0.99084 0.0
C303 C 0.03214 0.59942 1.00497 0.0
C304 C 0.03921 0.63538 0.02162 0.0
C305 C 0.0012 0.64925 0.02537 0.0
C306 C 0.06663 0.57617 1.00286 0.0
C307 C 0.0987 0.57751 0.01921 0.0
C308 C 0.12416 0.54493 0.01992 0.0
C309 C 0.14195 0.53747 0.04051 0.0
C310 C 0.16038 0.50248 0.04289 0.0
C311 C 0.16172 0.47413 0.02466 0.0
H312 H 0.1171 0.5249 0.985 0.0
C313 C 0.14707 0.4839 1.00372 0.0
C314 C 0.12859 0.51907 1.00133 0.0
H315 H 0.14824 0.46316 0.98927 0.0
H316 H 0.91686 0.58125 0.98375 0.0
H317 H 0.98241 0.55492 0.97767 0.0
H318 H 0.07323 0.65231 0.0322 0.0
H319 H 0.00665 0.67528 0.03889 0.0
H320 H 0.06062 0.55236 0.98842 0.0
H321 H 0.10231 0.59888 0.03417 0.0
H322 H 0.13965 0.55724 0.0551 0.0
H323 H 0.17184 0.49641 0.05924 0.0
C324 C 0.35687 0.94314 0.34067 0.0
C325 C 0.32965 0.92843 0.36084 0.0
C326 C 0.41167 0.97121 0.34049 0.0
C327 C 0.44006 0.98489 0.36054 0.0
C328 C 0.41259 0.97028 0.38053 0.0
C329 C 0.35839 0.94274 0.38071 0.0
C330 C 0.498 0.01258 0.36191 0.0
C331 C 0.53089 0.04011 0.34542 0.0
C332 C 0.58856 0.06759 0.34854 0.0
C333 C 0.6209 0.07452 0.33043 0.0
C334 C 0.67496 0.09739 0.33326 0.0
C335 C 0.69782 0.1141 0.35429 0.0
H336 H 0.58863 0.08449 0.3835 0.0
C337 C 0.66563 0.10933 0.37217 0.0
C338 C 0.61179 0.08676 0.36932 0.0
H339 H 0.68192 0.12262 0.38851 0.0
H340 H 0.33593 0.9326 0.32508 0.0
H341 H 0.43131 0.98096 0.3247 0.0
H342 H 0.4332 0.98011 0.39622 0.0
H343 H 0.33911 0.93227 0.39662 0.0
H344 H 0.5143 0.01026 0.37778 0.0
H345 H 0.51582 0.04167 0.32916 0.0
H346 H 0.60418 0.06089 0.31418 0.0
H347 H 0.69863 0.10078 0.31908 0.0
C348 C 0.00691 0.14202 0.06094 0.0
C349 C 0.01306 0.17676 0.04378 0.0
C350 C 0.96219 0.09338 0.06203 0.0
C351 C 0.92283 0.0785 0.04582 0.0
C352 C 0.92771 0.11476 0.02951 0.0
C353 C 0.97239 0.16368 0.02856 0.0
C354 C 0.88322 0.0232 0.04264 0.0
C355 C 0.87301 0.98641 0.05807 0.0
C356 C 0.86142 0.9336 0.05182 0.0
C357 C 0.83495 0.89195 0.06663 0.0
C358 C 0.83104 0.84377 0.06241 0.0
C359 C 0.85466 0.83716 0.04359 0.0
H360 H 0.90671 0.95812 0.02143 0.0
C361 C 0.88094 0.87869 0.02879 0.0
C362 C 0.88404 0.92632 0.03275 0.0
H363 H 0.90041 0.87475 1.01443 0.0
H364 H 0.03796 0.1513 0.07281 0.0
H365 H 0.9609 0.06648 0.07459 0.0
H366 H 0.89821 0.1042 1.01675 0.0
H367 H 0.976 0.1905 1.01545 0.0
H368 H 0.86965 0.01131 0.02578 0.0
H369 H 0.88121 -0.00323 0.07541 0.0
H370 H 0.8182 0.89699 0.08164 0.0
H371 H 0.81025 0.81197 0.07398 0.0
C372 C 0.99262 0.89269 0.36059 0.0
C373 C 0.01238 0.86645 0.37341 0.0
C374 C 0.93925 0.87634 0.36078 0.0
C375 C 0.90517 0.8348 0.37455 0.0
C376 C 0.92554 0.81001 0.3879 0.0
C377 C 0.97843 0.82544 0.38728 0.0
C378 C 0.84758 0.81132 0.37345 0.0
C379 C 0.82016 0.83561 0.36899 0.0
C380 C 0.84063 0.8924 0.3672 0.0
C381 C 0.81767 0.91048 0.35166 0.0
C382 C 0.83138 0.96284 0.35097 0.0
C383 C 0.86827 -0.00179 0.36589 0.0
H384 H 0.89455 0.91452 0.3949 0.0
C385 C 0.89178 0.98042 0.38135 0.0
C386 C 0.87774 0.92776 0.38215 0.0
H387 H 0.91967 0.00696 0.39326 0.0
H388 H 0.01807 0.92429 0.34968 0.0
H389 H 0.92473 0.89476 0.34943 0.0
H390 H 0.90006 0.77724 0.39831 0.0
H391 H 0.99228 0.80368 0.39697 0.0
H392 H 0.82498 0.76944 0.37596 0.0
H393 H 0.77831 0.81099 0.36684 0.0
H394 H 0.7881 0.88372 0.34033 0.0
H395 H 0.81154 0.97523 0.33932 0.0
C396 C 0.10874 0.01778 0.68226 0.0
C397 C 0.14709 0.0214 0.69708 0.0
C398 C 0.06073 0.97232 0.6812 0.0
C399 C 0.04979 0.93035 0.69539 0.0
C400 C 0.08827 0.93385 0.71025 0.0
C401 C 0.13676 0.97918 0.71103 0.0
C402 C -0.00368 0.88576 0.6954 0.0
C403 C 0.97126 0.86386 0.71437 0.0
C404 C 0.91417 0.841 0.71538 0.0
C405 C 0.88171 0.81155 0.69784 0.0
C406 C 0.83107 0.80341 0.69613 0.0
C407 C 0.81247 0.82456 0.71193 0.0
H408 H 0.91795 0.88009 0.74599 0.0
C409 C 0.84318 0.84964 0.7305 0.0
C410 C 0.89359 0.85735 0.73232 0.0
H411 H 0.82951 0.86617 0.74291 0.0
H412 H 0.11589 0.05024 0.67155 0.0
H413 H 0.0314 0.97063 0.6698 0.0
H414 H 0.0809 0.90178 0.72122 0.0
H415 H 0.16625 0.98123 0.72242 0.0
H416 H 0.97399 0.87928 0.68021 0.0
H417 H 0.99267 0.87447 0.72993 0.0
H418 H 0.89645 0.79754 0.6848 0.0
H419 H 0.80733 0.78273 0.68198 0.0
C420 C 0.16974 0.24427 0.91084 0.0
C421 C 0.20466 0.27984 0.9263 0.0
C422 C 0.18827 0.2307 0.89222 0.0
C423 C 0.2422 0.25333 0.88851 0.0
C424 C 0.27698 0.28911 0.90393 0.0
C425 C 0.25846 0.30186 0.92274 0.0
C426 C 0.26324 0.24366 0.86791 0.0
C427 C 0.23997 0.19796 0.85711 0.0
C428 C 0.26027 0.18994 0.83592 0.0
C429 C 0.2539 0.14077 0.83106 0.0
C430 C 0.27097 0.13186 0.81085 0.0
C431 C 0.29351 0.17164 0.79483 0.0
H432 H 0.2878 0.2679 0.82295 0.0
C433 C 0.29954 0.22073 0.79965 0.0
C434 C 0.28342 0.2299 0.82 0.0
H435 H 0.31662 0.25217 0.78765 0.0
H436 H 0.12806 0.22717 0.91309 0.0
H437 H 0.16035 0.20399 0.88039 0.0
H438 H 0.31867 0.30766 0.90132 0.0
H439 H 0.2863 0.33039 0.93406 0.0
H440 H 0.30014 0.27499 0.86183 0.0
H441 H 0.20597 0.16488 0.8643 0.0
H442 H 0.23574 0.10919 0.84296 0.0
H443 H 0.26538 0.0935 0.80756 0.0
C444 C 0.13664 0.34572 0.13702 0.0
C445 C 0.16664 0.32393 0.12962 0.0
C446 C 0.1119 0.33166 0.15761 0.0
C447 C 0.11624 0.29508 0.17128 0.0
C448 C 0.14823 0.27526 0.16431 0.0
C449 C 0.17295 0.28929 0.14371 0.0
C450 C 0.08771 0.27628 0.19268 0.0
C451 C 0.04272 0.27597 0.19692 0.0
C452 C 0.01078 0.2535 0.2173 0.0
C453 C 0.95851 0.24174 0.21679 0.0
C454 C 0.92651 0.22027 0.23525 0.0
C455 C 0.94602 0.21056 0.25494 0.0
H456 H 0.07078 0.25314 0.23838 0.0
C457 C -0.00158 0.22249 0.2556 0.0
C458 C 0.03057 0.24394 0.23704 0.0
H459 H 0.01452 0.21433 0.27023 0.0
H460 H 0.13129 0.37289 0.1267 0.0
H461 H 0.08933 0.34949 0.16266 0.0
H462 H 0.15292 0.24756 0.17456 0.0
H463 H 0.19593 0.27188 0.13861 0.0
H464 H 0.10232 0.25855 0.20444 0.0
H465 H 0.02625 0.28985 0.18422 0.0
H466 H 0.94205 0.24876 0.20193 0.0
H467 H 0.88636 0.21161 0.23413 0.0
C468 C 0.80097 0.10185 0.46707 0.0
C469 C 0.85291 0.12852 0.45967 0.0
C470 C 0.78833 0.07629 0.48766 0.0
C471 C 0.82742 0.07672 0.50135 0.0
C472 C 0.87931 0.10395 0.49404 0.0
C473 C 0.89199 0.12982 0.47357 0.0
C474 C 0.81533 0.04636 0.52249 0.0
C475 C 0.77241 0.03283 0.53477 0.0
C476 C 0.7593 0.00011 0.55527 0.0
C477 C 0.72664 0.00357 0.57113 0.0
C478 C 0.71093 0.97129 0.58993 0.0
C479 C 0.72715 0.93433 0.59322 0.0
H480 H 0.7996 0.9581 0.54654 0.0
C481 C 0.75964 0.93066 0.57733 0.0
C482 C 0.77575 0.96324 0.55864 0.0
H483 H 0.77224 0.9021 0.57923 0.0
H484 H 0.7698 0.09972 0.45675 0.0
H485 H 0.74772 0.05476 0.49236 0.0
H486 H 0.91024 0.10473 0.50411 0.0
H487 H 0.93236 0.14968 0.46841 0.0
H488 H 0.84386 0.03597 0.52838 0.0
H489 H 0.7463 0.04728 0.53004 0.0
H490 H 0.71265 0.03096 0.56885 0.0
H491 H 0.68449 0.97405 0.60139 0.0
C492 C 0.66277 0.82906 0.81379 0.0
C493 C 0.64045 0.79567 0.79566 0.0
C494 C 0.67225 0.81066 0.83378 0.0
C495 C 0.66019 0.75838 0.83607 0.0
C496 C 0.6356 0.72454 0.81827 0.0
C497 C 0.62596 0.7429 0.79832 0.0
C498 C 0.67365 0.73799 0.8564 0.0
C499 C 0.71256 0.76867 0.87038 0.0
C500 C 0.73177 0.74958 0.88928 0.0
C501 C 0.78172 0.78333 0.89767 0.0
C502 C 0.80295 0.7677 0.91481 0.0
C503 C 0.77463 0.71793 0.92442 0.0
H504 H 0.66367 0.67288 0.89346 0.0
C505 C 0.724 0.68422 0.91652 0.0
C506 C 0.70271 0.69983 0.89909 0.0
H507 H 0.70134 0.64542 0.92335 0.0
H508 H 0.67383 0.86978 0.81246 0.0
H509 H 0.68927 0.83777 0.84728 0.0
H510 H 0.62524 0.68399 0.81955 0.0
H511 H 0.60852 0.71594 0.78475 0.0
H512 H 0.65385 0.69611 0.85872 0.0
H513 H 0.73479 0.81009 0.86689 0.0
H514 H 0.80505 0.82196 0.89067 0.0
H515 H 0.8419 0.79491 0.92056 0.0
C516 C 0.86326 0.67766 0.14495 0.0
C517 C 0.88343 0.66779 0.12574 0.0
C518 C 0.89094 0.68906 0.165 0.0
C519 C 0.93928 0.69043 0.16631 0.0
C520 C 0.95853 0.67899 0.14729 0.0
C521 C 0.93128 0.66833 0.12721 0.0
C522 C 0.97063 0.70358 0.18715 0.0
C523 C 0.97084 0.73692 0.20225 0.0
C524 C 0.00655 0.75522 0.22177 0.0
C525 C 0.02383 0.80569 0.22956 0.0
C526 C 0.05834 0.82517 0.24746 0.0
C527 C 0.07542 0.79418 0.25843 0.0
H528 H 0.00994 0.68435 0.22753 0.0
C529 C 0.05722 0.7431 0.25109 0.0
C530 C 0.02329 0.72383 0.23282 0.0
H531 H 0.07007 0.71849 0.25912 0.0
H532 H 0.82643 0.67735 0.14443 0.0
H533 H 0.87418 0.69637 0.17944 0.0
H534 H 0.99541 0.67936 0.14782 0.0
H535 H 0.94784 0.66055 0.1128 0.0
H536 H -0.00219 0.68905 0.18907 0.0
H537 H 0.94745 0.75542 0.19918 0.0
H538 H 0.01137 0.83062 0.2215 0.0
H539 H 0.07146 0.8646 0.25281 0.0
C540 C 0.32716 0.06446 0.584 0.0
C541 C 0.29731 0.08588 0.59189 0.0
C542 C 0.30755 0.02711 0.56715 0.0
C543 C 0.25744 0.01015 0.5582 0.0
C544 C 0.22727 0.03049 0.5667 0.0
C545 C 0.24715 0.06832 0.58313 0.0
C546 C 0.23514 0.97174 0.53994 0.0
C547 C 0.2642 0.96889 0.52355 0.0
C548 C 0.24098 0.93663 0.50344 0.0
C549 C 0.26756 0.95409 0.48331 0.0
C550 C 0.24621 0.92637 0.46382 0.0
C551 C 0.19809 0.87978 0.46404 0.0
H552 H 0.17216 0.87423 0.51915 0.0
C553 C 0.17206 0.86133 0.48431 0.0
C554 C 0.19316 0.88956 0.50382 0.0
H555 H 0.13513 0.82541 0.48507 0.0
H556 H 0.36591 0.07734 0.59051 0.0
H557 H 0.33143 0.01139 0.56127 0.0
H558 H 0.1885 0.01793 0.56025 0.0
H559 H 0.22301 0.0837 0.58909 0.0
H560 H 0.19292 0.94927 0.5387 0.0
H561 H 0.30607 -0.00486 0.52368 0.0
H562 H 0.30456 0.98997 0.48253 0.0
H563 H 0.26766 0.94151 0.44856 0.0
loop_
_geom_bond_atom_site_label_1
_geom_bond_atom_site_label_2
_geom_bond_distance
_geom_bond_site_symmetry_2
_ccdc_geom_bond_type
Co0 O3 1.970 . S
Co0 N17 1.989 . S
Co0 O25 1.967 . S
Co0 O32 1.920 . S
Co1 O4 1.966 1_556 S
Co1 N10 2.022 . S
Co1 N18 1.993 1_556 S
Co1 O26 1.941 . S
C2 O3 1.258 . S
C2 O4 1.263 . S
O3 Co0 1.970 . S
O3 C2 1.258 . S
O4 Co1 1.966 1_554 S
O4 C2 1.263 . S
C5 O6 1.235 . S
C5 O32 1.289 . S
O6 C5 1.235 . S
C7 C9 1.400 . S
C7 N10 1.351 . S
C7 C12 1.501 . S
C8 C9 1.387 . S
C8 N11 1.341 . S
C9 C7 1.400 . S
C9 C8 1.387 . S
N10 Co1 2.022 . S
N10 C7 1.351 . S
N10 N11 1.365 . S
N11 C8 1.341 . S
N11 N10 1.365 . S
N11 H31 0.862 . S
C12 C7 1.501 . S
C12 H13 0.961 . S
C12 H14 0.961 . S
C12 H15 0.960 . S
H13 C12 0.961 . S
H14 C12 0.961 . S
H15 C12 0.960 . S
C16 N17 1.342 . S
C16 C20 1.401 . S
C16 C21 1.499 . S
N17 Co0 1.989 . S
N17 C16 1.342 . S
N17 N18 1.388 . S
N18 Co1 1.993 1_554 S
N18 N17 1.388 . S
N18 C19 1.346 1_554 S
C19 N18 1.346 1_556 S
C19 C20 1.396 1_556 S
C19 C29 1.510 . S
C20 C16 1.401 . S
C20 C19 1.396 1_554 S
C21 C16 1.499 . S
C21 H22 0.959 . S
C21 H23 0.960 . S
C21 H24 0.961 . S
H22 C21 0.959 . S
H23 C21 0.960 . S
H24 C21 0.961 . S
O25 Co0 1.967 . S
O25 C33 1.258 . S
O26 Co1 1.941 . S
O26 C33 1.266 1_556 S
H27 C29 0.959 . S
H28 C29 0.961 . S
C29 C19 1.510 . S
C29 H27 0.959 . S
C29 H28 0.961 . S
C29 H30 0.960 . S
H30 C29 0.960 . S
H31 N11 0.862 . S
O32 Co0 1.920 . S
O32 C5 1.289 . S
C33 O25 1.258 . S
C33 O26 1.266 1_554 S
Co34 O37 1.970 . S
Co34 N51 1.989 . S
Co34 O59 1.967 . S
Co34 O66 1.920 . S
Co35 O38 1.966 . S
Co35 N44 2.022 . S
Co35 N52 1.993 . S
Co35 O60 1.941 . S
C36 O37 1.258 . S
C36 O38 1.263 . S
O37 Co34 1.970 . S
O37 C36 1.258 . S
O38 Co35 1.966 . S
O38 C36 1.263 . S
C39 O40 1.235 . S
C39 O66 1.289 . S
O40 C39 1.235 . S
C41 C43 1.400 . S
C41 N44 1.351 . S
C41 C46 1.501 . S
C42 C43 1.387 . S
C42 N45 1.341 . S
C43 C41 1.400 . S
C43 C42 1.387 . S
N44 Co35 2.022 . S
N44 C41 1.351 . S
N44 N45 1.365 . S
N45 C42 1.341 . S
N45 N44 1.365 . S
N45 H65 0.862 . S
C46 C41 1.501 . S
C46 H47 0.961 . S
C46 H48 0.961 . S
C46 H49 0.960 . S
H47 C46 0.961 . S
H48 C46 0.961 . S
H49 C46 0.960 . S
C50 N51 1.342 . S
C50 C54 1.401 . S
C50 C55 1.499 . S
N51 Co34 1.989 . S
N51 C50 1.342 . S
N51 N52 1.388 . S
N52 Co35 1.993 . S
N52 N51 1.388 . S
N52 C53 1.346 . S
C53 N52 1.346 . S
C53 C54 1.396 . S
C53 C63 1.510 . S
C54 C50 1.401 . S
C54 C53 1.396 . S
C55 C50 1.499 . S
C55 H56 0.959 . S
C55 H57 0.960 . S
C55 H58 0.961 . S
H56 C55 0.959 . S
H57 C55 0.960 . S
H58 C55 0.961 . S
O59 Co34 1.967 . S
O59 C67 1.258 . S
O60 Co35 1.941 . S
O60 C67 1.266 . S
H61 C63 0.959 . S
H62 C63 0.961 . S
C63 C53 1.510 . S
C63 H61 0.959 . S
C63 H62 0.961 . S
C63 H64 0.960 . S
H64 C63 0.960 . S
H65 N45 0.862 . S
O66 Co34 1.920 . S
O66 C39 1.289 . S
C67 O59 1.258 . S
C67 O60 1.266 . S
Co68 O71 1.970 . S
Co68 N85 1.989 . S
Co68 O93 1.967 . S
Co68 O100 1.920 . S
Co69 O72 1.966 . S
Co69 N78 2.022 . S
Co69 N86 1.993 . S
Co69 O94 1.941 . S
C70 O71 1.258 . S
C70 O72 1.263 . S
O71 Co68 1.970 . S
O71 C70 1.258 . S
O72 Co69 1.966 . S
O72 C70 1.263 . S
C73 O74 1.235 . S
C73 O100 1.289 . S
O74 C73 1.235 . S
C75 C77 1.400 . S
C75 N78 1.351 . S
C75 C80 1.501 . S
C76 C77 1.387 . S
C76 N79 1.341 . S
C77 C75 1.400 . S
C77 C76 1.387 . S
N78 Co69 2.022 . S
N78 C75 1.351 . S
N78 N79 1.365 . S
N79 C76 1.341 . S
N79 N78 1.365 . S
N79 H99 0.862 . S
C80 C75 1.501 . S
C80 H81 0.961 . S
C80 H82 0.961 . S
C80 H83 0.960 . S
H81 C80 0.961 . S
H82 C80 0.961 . S
H83 C80 0.960 . S
C84 N85 1.342 . S
C84 C88 1.401 . S
C84 C89 1.499 . S
N85 Co68 1.989 . S
N85 C84 1.342 . S
N85 N86 1.388 . S
N86 Co69 1.993 . S
N86 N85 1.388 . S
N86 C87 1.346 . S
C87 N86 1.346 . S
C87 C88 1.396 . S
C87 C97 1.510 . S
C88 C84 1.401 . S
C88 C87 1.396 . S
C89 C84 1.499 . S
C89 H90 0.959 . S
C89 H91 0.960 . S
C89 H92 0.961 . S
H90 C89 0.959 . S
H91 C89 0.960 . S
H92 C89 0.961 . S
O93 Co68 1.967 . S
O93 C101 1.258 . S
O94 Co69 1.941 . S
O94 C101 1.266 . S
H95 C97 0.959 . S
H96 C97 0.961 . S
C97 C87 1.510 . S
C97 H95 0.959 . S
C97 H96 0.961 . S
C97 H98 0.960 . S
H98 C97 0.960 . S
H99 N79 0.862 . S
O100 Co68 1.920 . S
O100 C73 1.289 . S
C101 O93 1.258 . S
C101 O94 1.266 . S
Co102 O105 1.970 . S
Co102 N119 1.989 . S
Co102 O127 1.967 . S
Co102 O134 1.920 . S
Co103 O106 1.966 1_556 S
Co103 N112 2.022 . S
Co103 N120 1.993 1_556 S
Co103 O128 1.941 . S
C104 O105 1.258 . S
C104 O106 1.263 . S
O105 Co102 1.970 . S
O105 C104 1.258 . S
O106 Co103 1.966 1_554 S
O106 C104 1.263 . S
C107 O108 1.235 . S
C107 O134 1.289 . S
O108 C107 1.235 . S
C109 C111 1.400 . S
C109 N112 1.351 . S
C109 C114 1.501 . S
C110 C111 1.387 . S
C110 N113 1.341 . S
C111 C109 1.400 . S
C111 C110 1.387 . S
N112 Co103 2.022 . S
N112 C109 1.351 . S
N112 N113 1.365 . S
N113 C110 1.341 . S
N113 N112 1.365 . S
N113 H133 0.862 . S
C114 C109 1.501 . S
C114 H115 0.961 . S
C114 H116 0.961 . S
C114 H117 0.960 . S
H115 C114 0.961 . S
H116 C114 0.961 . S
H117 C114 0.960 . S
C118 N119 1.342 . S
C118 C122 1.401 . S
C118 C123 1.499 . S
N119 Co102 1.989 . S
N119 C118 1.342 . S
N119 N120 1.388 . S
N120 Co103 1.993 1_554 S
N120 N119 1.388 . S
N120 C121 1.346 1_554 S
C121 N120 1.346 1_556 S
C121 C122 1.396 1_556 S
C121 C131 1.510 . S
C122 C118 1.401 . S
C122 C121 1.396 1_554 S
C123 C118 1.499 . S
C123 H124 0.959 . S
C123 H125 0.960 . S
C123 H126 0.961 . S
H124 C123 0.959 . S
H125 C123 0.960 . S
H126 C123 0.961 . S
O127 Co102 1.967 . S
O127 C135 1.258 . S
O128 Co103 1.941 . S
O128 C135 1.266 1_556 S
H129 C131 0.959 . S
H130 C131 0.961 . S
C131 C121 1.510 . S
C131 H129 0.959 . S
C131 H130 0.961 . S
C131 H132 0.960 . S
H132 C131 0.960 . S
H133 N113 0.862 . S
O134 Co102 1.920 . S
O134 C107 1.289 . S
C135 O127 1.258 . S
C135 O128 1.266 1_554 S
Co136 O139 1.970 . S
Co136 N153 1.989 . S
Co136 O161 1.967 . S
Co136 O168 1.920 . S
Co137 O140 1.966 . S
Co137 N146 2.022 . S
Co137 N154 1.993 . S
Co137 O162 1.941 . S
C138 O139 1.258 . S
C138 O140 1.263 . S
O139 Co136 1.970 . S
O139 C138 1.258 . S
O140 Co137 1.966 . S
O140 C138 1.263 . S
C141 O142 1.235 . S
C141 O168 1.289 . S
O142 C141 1.235 . S
C143 C145 1.400 . S
C143 N146 1.351 . S
C143 C148 1.501 . S
C144 C145 1.387 . S
C144 N147 1.341 . S
C145 C143 1.400 . S
C145 C144 1.387 . S
N146 Co137 2.022 . S
N146 C143 1.351 . S
N146 N147 1.365 . S
N147 C144 1.341 . S
N147 N146 1.365 . S
N147 H167 0.862 . S
C148 C143 1.501 . S
C148 H149 0.961 . S
C148 H150 0.961 . S
C148 H151 0.960 . S
H149 C148 0.961 . S
H150 C148 0.961 . S
H151 C148 0.960 . S
C152 N153 1.342 . S
C152 C156 1.401 . S
C152 C157 1.499 . S
N153 Co136 1.989 . S
N153 C152 1.342 . S
N153 N154 1.388 . S
N154 Co137 1.993 . S
N154 N153 1.388 . S
N154 C155 1.346 . S
C155 N154 1.346 . S
C155 C156 1.396 . S
C155 C165 1.510 . S
C156 C152 1.401 . S
C156 C155 1.396 . S
C157 C152 1.499 . S
C157 H158 0.959 . S
C157 H159 0.960 . S
C157 H160 0.961 . S
H158 C157 0.959 . S
H159 C157 0.960 . S
H160 C157 0.961 . S
O161 Co136 1.967 . S
O161 C169 1.258 . S
O162 Co137 1.941 . S
O162 C169 1.266 . S
H163 C165 0.959 . S
H164 C165 0.961 . S
C165 C155 1.510 . S
C165 H163 0.959 . S
C165 H164 0.961 . S
C165 H166 0.960 . S
H166 C165 0.960 . S
H167 N147 0.862 . S
O168 Co136 1.920 . S
O168 C141 1.289 . S
C169 O161 1.258 . S
C169 O162 1.266 . S
Co170 O173 1.970 . S
Co170 N187 1.989 . S
Co170 O195 1.967 . S
Co170 O202 1.920 . S
Co171 O174 1.966 . S
Co171 N180 2.022 . S
Co171 N188 1.993 . S
Co171 O196 1.941 . S
C172 O173 1.258 . S
C172 O174 1.263 . S
O173 Co170 1.970 . S
O173 C172 1.258 . S
O174 Co171 1.966 . S
O174 C172 1.263 . S
C175 O176 1.235 . S
C175 O202 1.289 . S
O176 C175 1.235 . S
C177 C179 1.400 . S
C177 N180 1.351 . S
C177 C182 1.501 . S
C178 C179 1.387 . S
C178 N181 1.341 . S
C179 C177 1.400 . S
C179 C178 1.387 . S
N180 Co171 2.022 . S
N180 C177 1.351 . S
N180 N181 1.365 . S
N181 C178 1.341 . S
N181 N180 1.365 . S
N181 H201 0.862 . S
C182 C177 1.501 . S
C182 H183 0.961 . S
C182 H184 0.961 . S
C182 H185 0.960 . S
H183 C182 0.961 . S
H184 C182 0.961 . S
H185 C182 0.960 . S
C186 N187 1.342 . S
C186 C190 1.401 . S
C186 C191 1.499 . S
N187 Co170 1.989 . S
N187 C186 1.342 . S
N187 N188 1.388 . S
N188 Co171 1.993 . S
N188 N187 1.388 . S
N188 C189 1.346 . S
C189 N188 1.346 . S
C189 C190 1.396 . S
C189 C199 1.510 . S
C190 C186 1.401 . S
C190 C189 1.396 . S
C191 C186 1.499 . S
C191 H192 0.959 . S
C191 H193 0.960 . S
C191 H194 0.961 . S
H192 C191 0.959 . S
H193 C191 0.960 . S
H194 C191 0.961 . S
O195 Co170 1.967 . S
O195 C203 1.258 . S
O196 Co171 1.941 . S
O196 C203 1.266 . S
H197 C199 0.959 . S
H198 C199 0.961 . S
C199 C189 1.510 . S
C199 H197 0.959 . S
C199 H198 0.961 . S
C199 H200 0.960 . S
H200 C199 0.960 . S
H201 N181 0.862 . S
O202 Co170 1.920 . S
O202 C175 1.289 . S
C203 O195 1.258 . S
C203 O196 1.266 . S
C204 C205 1.386 . S
C204 C206 1.383 . S
C204 H220 0.951 . S
C205 C204 1.386 . S
C205 C209 1.383 . S
C206 C204 1.383 . S
C206 C207 1.402 . S
C206 H221 0.951 . S
C207 C206 1.402 . S
C207 C208 1.375 . S
C207 C210 1.481 . S
C208 C207 1.375 . S
C208 C209 1.367 . S
C208 H222 0.951 . S
C209 C205 1.383 . S
C209 C208 1.367 . S
C209 H223 0.950 . S
C210 C207 1.481 . S
C210 C211 1.297 . S
C210 H224 0.950 . S
C211 C210 1.297 . S
C211 C212 1.479 . S
C211 H225 0.950 . S
C212 C211 1.479 . S
C212 C213 1.375 . S
C212 C218 1.404 . S
C213 C212 1.375 . S
C213 C214 1.369 . S
C213 H226 0.950 . S
C214 C213 1.369 . S
C214 C215 1.392 . S
C214 H227 0.951 . S
C215 C214 1.392 . S
C215 C217 1.384 . S
H216 C218 0.969 . S
C217 C215 1.384 . S
C217 C218 1.385 . S
C217 H219 0.950 . S
C218 C212 1.404 . S
C218 H216 0.969 . S
C218 C217 1.385 . S
H219 C217 0.950 . S
H220 C204 0.951 . S
H221 C206 0.951 . S
H222 C208 0.951 . S
H223 C209 0.950 . S
H224 C210 0.950 . S
H225 C211 0.950 . S
H226 C213 0.950 . S
H227 C214 0.951 . S
C228 C229 1.386 . S
C228 C230 1.383 . S
C228 H244 0.951 . S
C229 C228 1.386 . S
C229 C233 1.383 . S
C230 C228 1.383 . S
C230 C231 1.402 . S
C230 H245 0.951 1_655 S
C231 C230 1.402 . S
C231 C232 1.375 . S
C231 C234 1.481 . S
C232 C231 1.375 . S
C232 C233 1.367 . S
C232 H246 0.951 . S
C233 C229 1.383 . S
C233 C232 1.367 . S
C233 H247 0.950 . S
C234 C231 1.481 . S
C234 C235 1.297 1_655 S
C234 H248 0.950 . S
C235 C234 1.297 1_455 S
C235 C236 1.479 . S
C235 H249 0.950 . S
C236 C235 1.479 . S
C236 C237 1.375 . S
C236 C242 1.404 . S
C237 C236 1.375 . S
C237 C238 1.369 . S
C237 H250 0.950 . S
C238 C237 1.369 . S
C238 C239 1.392 . S
C238 H251 0.951 . S
C239 C238 1.392 . S
C239 C241 1.384 . S
H240 C242 0.949 1_655 S
C241 C239 1.384 . S
C241 C242 1.385 . S
C241 H243 0.950 . S
C242 C236 1.404 . S
C242 H240 0.949 1_455 S
C242 C241 1.385 . S
H243 C241 0.950 . S
H244 C228 0.951 . S
H245 C230 0.951 1_455 S
H246 C232 0.951 . S
H247 C233 0.950 . S
H248 C234 0.950 . S
H249 C235 0.950 . S
H250 C237 0.950 . S
H251 C238 0.951 . S
C252 C253 1.386 . S
C252 C254 1.383 . S
C252 H268 0.951 . S
C253 C252 1.386 . S
C253 C257 1.383 . S
C254 C252 1.383 . S
C254 C255 1.402 . S
C254 H269 0.951 1_545 S
C255 C254 1.402 . S
C255 C256 1.375 . S
C255 C258 1.481 . S
C256 C255 1.375 . S
C256 C257 1.367 . S
C256 H270 0.951 . S
C257 C253 1.383 . S
C257 C256 1.367 . S
C257 H271 0.950 . S
C258 C255 1.481 . S
C258 C259 1.297 1_545 S
C258 H272 0.950 . S
C259 C258 1.297 1_565 S
C259 C260 1.479 . S
C259 H273 0.950 . S
C260 C259 1.479 . S
C260 C261 1.375 . S
C260 C266 1.404 . S
C261 C260 1.375 . S
C261 C262 1.369 . S
C261 H274 0.950 . S
C262 C261 1.369 . S
C262 C263 1.392 . S
C262 H275 0.951 . S
C263 C262 1.392 . S
C263 C265 1.384 . S
H264 C266 0.949 1_545 S
C265 C263 1.384 . S
C265 C266 1.385 . S
C265 H267 0.950 . S
C266 C260 1.404 . S
C266 H264 0.949 1_565 S
C266 C265 1.385 . S
H267 C265 0.950 . S
H268 C252 0.951 . S
H269 C254 0.951 1_565 S
H270 C256 0.951 . S
H271 C257 0.950 . S
H272 C258 0.950 . S
H273 C259 0.950 . S
H274 C261 0.950 . S
H275 C262 0.951 . S
C276 C277 1.386 . S
C276 C278 1.383 . S
C276 H292 0.951 . S
C277 C276 1.386 . S
C277 C281 1.383 . S
C278 C276 1.383 . S
C278 C279 1.402 . S
C278 H293 0.951 . S
C279 C278 1.402 . S
C279 C280 1.375 . S
C279 C282 1.481 . S
C280 C279 1.375 . S
C280 C281 1.367 . S
C280 H294 0.951 . S
C281 C277 1.383 . S
C281 C280 1.367 . S
C281 H295 0.950 . S
C282 C279 1.481 . S
C282 C283 1.297 . S
C282 H296 0.950 . S
C283 C282 1.297 . S
C283 C284 1.479 . S
C283 H297 0.950 . S
C284 C283 1.479 . S
C284 C285 1.375 . S
C284 C290 1.404 . S
C285 C284 1.375 . S
C285 C286 1.369 . S
C285 H298 0.950 . S
C286 C285 1.369 . S
C286 C287 1.392 . S
C286 H299 0.951 . S
C287 C286 1.392 . S
C287 C289 1.384 . S
H288 C290 0.949 . S
C289 C287 1.384 . S
C289 C290 1.385 . S
C289 H291 0.950 . S
C290 C284 1.404 . S
C290 H288 0.949 . S
C290 C289 1.385 . S
H291 C289 0.950 . S
H292 C276 0.951 . S
H293 C278 0.951 . S
H294 C280 0.951 . S
H295 C281 0.950 . S
H296 C282 0.950 . S
H297 C283 0.950 . S
H298 C285 0.950 . S
H299 C286 0.951 . S
C300 C301 1.386 . S
C300 C302 1.383 . S
C300 H316 0.951 . S
C301 C300 1.386 . S
C301 C305 1.383 . S
C302 C300 1.383 . S
C302 C303 1.402 . S
C302 H317 0.951 . S
C303 C302 1.402 . S
C303 C304 1.375 . S
C303 C306 1.481 1_655 S
C304 C303 1.375 . S
C304 C305 1.367 . S
C304 H318 0.951 1_655 S
C305 C301 1.383 . S
C305 C304 1.367 . S
C305 H319 0.950 . S
C306 C303 1.481 1_455 S
C306 C307 1.296 . S
C306 H320 0.950 . S
C307 C306 1.296 . S
C307 C308 1.478 . S
C307 H321 0.951 1_454 S
C308 C307 1.478 . S
C308 C309 1.374 1_554 S
C308 C314 1.413 . S
C309 C308 1.374 1_556 S
C309 C310 1.369 1_556 S
C309 H322 0.950 1_455 S
C310 C309 1.369 1_554 S
C310 C311 1.392 . S
C310 H323 0.951 . S
C311 C310 1.392 . S
C311 C313 1.384 . S
H312 C314 0.949 . S
C313 C311 1.384 . S
C313 C314 1.385 . S
C313 H315 0.950 . S
C314 C308 1.413 . S
C314 H312 0.949 . S
C314 C313 1.385 . S
H315 C313 0.950 . S
H316 C300 0.951 . S
H317 C302 0.951 . S
H318 C304 0.951 1_455 S
H319 C305 0.950 . S
H320 C306 0.950 . S
H321 C307 0.951 1_656 S
H322 C309 0.950 1_655 S
H323 C310 0.951 . S
C324 C325 1.386 . S
C324 C326 1.383 . S
C324 H340 0.951 . S
C325 C324 1.386 . S
C325 C329 1.383 . S
C326 C324 1.383 . S
C326 C327 1.402 . S
C326 H341 0.951 1_565 S
C327 C326 1.402 . S
C327 C328 1.375 . S
C327 C330 1.481 . S
C328 C327 1.375 . S
C328 C329 1.367 . S
C328 H342 0.951 . S
C329 C325 1.383 . S
C329 C328 1.367 . S
C329 H343 0.950 . S
C330 C327 1.481 . S
C330 C331 1.297 1_565 S
C330 H344 0.950 . S
C331 C330 1.297 1_545 S
C331 C332 1.479 . S
C331 H345 0.950 . S
C332 C331 1.479 . S
C332 C333 1.375 . S
C332 C338 1.404 . S
C333 C332 1.375 . S
C333 C334 1.369 . S
C333 H346 0.950 . S
C334 C333 1.369 . S
C334 C335 1.392 . S
C334 H347 0.951 . S
C335 C334 1.392 . S
C335 C337 1.384 . S
H336 C338 0.949 1_565 S
C337 C335 1.384 . S
C337 C338 1.385 . S
C337 H339 0.950 . S
C338 C332 1.404 . S
C338 H336 0.949 1_545 S
C338 C337 1.385 . S
H339 C337 0.950 . S
H340 C324 0.951 . S
H341 C326 0.951 1_545 S
H342 C328 0.951 . S
H343 C329 0.950 . S
H344 C330 0.950 . S
H345 C331 0.950 . S
H346 C333 0.950 . S
H347 C334 0.951 . S
C348 C349 1.386 . S
C348 C350 1.383 . S
C348 H364 0.951 . S
C349 C348 1.386 . S
C349 C353 1.383 1_554 S
C350 C348 1.383 . S
C350 C351 1.402 . S
C350 H365 0.951 . S
C351 C350 1.402 . S
C351 C352 1.375 1_554 S
C351 C354 1.480 1_455 S
C352 C351 1.375 1_556 S
C352 C353 1.367 . S
C352 H366 0.951 . S
C353 C349 1.383 1_556 S
C353 C352 1.367 . S
C353 H367 0.950 . S
C354 C351 1.480 1_655 S
C354 C355 1.304 1_545 S
C354 H368 0.943 1_654 S
C355 C354 1.304 1_565 S
C355 C356 1.479 . S
C355 H369 0.950 . S
C356 C355 1.479 . S
C356 C357 1.375 . S
C356 C362 1.404 1_554 S
C357 C356 1.375 . S
C357 C358 1.369 . S
C357 H370 0.950 . S
C358 C357 1.369 . S
C358 C359 1.392 . S
C358 H371 0.951 . S
C359 C358 1.392 . S
C359 C361 1.384 1_554 S
H360 C362 0.949 . S
C361 C359 1.384 1_556 S
C361 C362 1.385 . S
C361 H363 0.950 . S
C362 C356 1.404 1_556 S
C362 H360 0.949 . S
C362 C361 1.385 . S
H363 C361 0.950 . S
H364 C348 0.951 . S
H365 C350 0.951 . S
H366 C352 0.951 . S
H367 C353 0.950 . S
H368 C354 0.943 1_456 S
H369 C355 0.950 . S
H370 C357 0.950 . S
H371 C358 0.951 . S
C372 C373 1.386 . S
C372 C374 1.383 . S
C372 H388 0.951 . S
C373 C372 1.386 . S
C373 C377 1.383 . S
C374 C372 1.383 . S
C374 C375 1.402 . S
C374 H389 0.951 . S
C375 C374 1.402 . S
C375 C376 1.375 . S
C375 C378 1.473 1_455 S
C376 C375 1.375 . S
C376 C377 1.367 . S
C376 H390 0.951 . S
C377 C373 1.383 . S
C377 C376 1.367 . S
C377 H391 0.950 . S
C378 C375 1.473 1_655 S
C378 C379 1.304 . S
C378 H392 0.952 1_655 S
C379 C378 1.304 . S
C379 C380 1.479 1_565 S
C379 H393 0.950 . S
C380 C379 1.479 1_545 S
C380 C381 1.375 . S
C380 C386 1.404 . S
C381 C380 1.375 . S
C381 C382 1.369 . S
C381 H394 0.950 . S
C382 C381 1.369 . S
C382 C383 1.392 . S
C382 H395 0.951 . S
C383 C382 1.392 . S
C383 C385 1.384 . S
H384 C386 0.949 . S
C385 C383 1.384 . S
C385 C386 1.385 . S
C385 H387 0.950 . S
C386 C380 1.404 . S
C386 H384 0.949 . S
C386 C385 1.385 . S
H387 C385 0.950 . S
H388 C372 0.951 . S
H389 C374 0.951 . S
H390 C376 0.951 . S
H391 C377 0.950 . S
H392 C378 0.952 1_455 S
H393 C379 0.950 . S
H394 C381 0.950 . S
H395 C382 0.951 . S
C396 C397 1.386 . S
C396 C398 1.383 . S
C396 H412 0.951 . S
C397 C396 1.386 . S
C397 C401 1.383 . S
C398 C396 1.383 . S
C398 C399 1.402 . S
C398 H413 0.951 . S
C399 C398 1.402 . S
C399 C400 1.375 . S
C399 C402 1.481 1_545 S
C400 C399 1.375 . S
C400 C401 1.367 . S
C400 H414 0.951 . S
C401 C397 1.383 . S
C401 C400 1.367 . S
C401 H415 0.950 . S
C402 C399 1.481 1_565 S
C402 C403 1.297 1_455 S
C402 H416 0.950 . S
C403 C402 1.297 1_655 S
C403 C404 1.479 . S
C403 H417 0.950 . S
C404 C403 1.479 . S
C404 C405 1.375 . S
C404 C410 1.404 . S
C405 C404 1.375 . S
C405 C406 1.369 . S
C405 H418 0.950 . S
C406 C405 1.369 . S
C406 C407 1.392 . S
C406 H419 0.951 . S
C407 C406 1.392 . S
C407 C409 1.384 . S
H408 C410 0.949 . S
C409 C407 1.384 . S
C409 C410 1.385 . S
C409 H411 0.950 . S
C410 C404 1.404 . S
C410 H408 0.949 . S
C410 C409 1.385 . S
H411 C409 0.950 . S
H412 C396 0.951 . S
H413 C398 0.951 . S
H414 C400 0.951 . S
H415 C401 0.950 . S
H416 C402 0.950 . S
H417 C403 0.950 . S
H418 C405 0.950 . S
H419 C406 0.951 . S
C420 C421 1.386 . S
C420 C422 1.383 . S
C420 H436 0.951 . S
C421 C420 1.386 . S
C421 C425 1.383 . S
C422 C420 1.383 . S
C422 C423 1.402 . S
C422 H437 0.951 . S
C423 C422 1.402 . S
C423 C424 1.375 . S
C423 C426 1.481 . S
C424 C423 1.375 . S
C424 C425 1.367 . S
C424 H438 0.951 . S
C425 C421 1.383 . S
C425 C424 1.367 . S
C425 H439 0.950 . S
C426 C423 1.481 . S
C426 C427 1.297 . S
C426 H440 0.950 . S
C427 C426 1.297 . S
C427 C428 1.479 . S
C427 H441 0.950 . S
C428 C427 1.479 . S
C428 C429 1.375 . S
C428 C434 1.404 . S
C429 C428 1.375 . S
C429 C430 1.369 . S
C429 H442 0.950 . S
C430 C429 1.369 . S
C430 C431 1.392 . S
C430 H443 0.951 . S
C431 C430 1.392 . S
C431 C433 1.384 . S
H432 C434 0.949 . S
C433 C431 1.384 . S
C433 C434 1.385 . S
C433 H435 0.950 . S
C434 C428 1.404 . S
C434 H432 0.949 . S
C434 C433 1.385 . S
H435 C433 0.950 . S
H436 C420 0.951 . S
H437 C422 0.951 . S
H438 C424 0.951 . S
H439 C425 0.950 . S
H440 C426 0.950 . S
H441 C427 0.950 . S
H442 C429 0.950 . S
H443 C430 0.951 . S
C444 C445 1.386 . S
C444 C446 1.383 . S
C444 H460 0.951 . S
C445 C444 1.386 . S
C445 C449 1.383 . S
C446 C444 1.383 . S
C446 C447 1.402 . S
C446 H461 0.951 . S
C447 C446 1.402 . S
C447 C448 1.375 . S
C447 C450 1.481 . S
C448 C447 1.375 . S
C448 C449 1.367 . S
C448 H462 0.951 . S
C449 C445 1.383 . S
C449 C448 1.367 . S
C449 H463 0.950 . S
C450 C447 1.481 . S
C450 C451 1.297 . S
C450 H464 0.950 . S
C451 C450 1.297 . S
C451 C452 1.479 . S
C451 H465 0.950 . S
C452 C451 1.479 . S
C452 C453 1.375 1_455 S
C452 C458 1.404 . S
C453 C452 1.375 1_655 S
C453 C454 1.369 . S
C453 H466 0.950 . S
C454 C453 1.369 . S
C454 C455 1.392 . S
C454 H467 0.951 . S
C455 C454 1.392 . S
C455 C457 1.384 1_655 S
H456 C458 0.949 . S
C457 C455 1.384 1_455 S
C457 C458 1.385 . S
C457 H459 0.950 . S
C458 C452 1.404 . S
C458 H456 0.949 . S
C458 C457 1.385 . S
H459 C457 0.950 . S
H460 C444 0.951 . S
H461 C446 0.951 . S
H462 C448 0.951 . S
H463 C449 0.950 . S
H464 C450 0.950 . S
H465 C451 0.950 . S
H466 C453 0.950 . S
H467 C454 0.951 . S
C468 C469 1.386 . S
C468 C470 1.383 . S
C468 H484 0.951 . S
C469 C468 1.386 . S
C469 C473 1.383 . S
C470 C468 1.383 . S
C470 C471 1.402 . S
C470 H485 0.951 . S
C471 C470 1.402 . S
C471 C472 1.375 . S
C471 C474 1.481 . S
C472 C471 1.375 . S
C472 C473 1.367 . S
C472 H486 0.951 . S
C473 C469 1.383 . S
C473 C472 1.367 . S
C473 H487 0.950 . S
C474 C471 1.481 . S
C474 C475 1.297 . S
C474 H488 0.950 . S
C475 C474 1.297 . S
C475 C476 1.479 . S
C475 H489 0.950 . S
C476 C475 1.479 . S
C476 C477 1.375 . S
C476 C482 1.404 1_545 S
C477 C476 1.375 . S
C477 C478 1.369 1_545 S
C477 H490 0.950 . S
C478 C477 1.369 1_565 S
C478 C479 1.392 . S
C478 H491 0.951 . S
C479 C478 1.392 . S
C479 C481 1.384 . S
H480 C482 0.949 . S
C481 C479 1.384 . S
C481 C482 1.385 . S
C481 H483 0.950 . S
C482 C476 1.404 1_565 S
C482 H480 0.949 . S
C482 C481 1.385 . S
H483 C481 0.950 . S
H484 C468 0.951 . S
H485 C470 0.951 . S
H486 C472 0.951 . S
H487 C473 0.950 . S
H488 C474 0.950 . S
H489 C475 0.950 . S
H490 C477 0.950 . S
H491 C478 0.951 . S
C492 C493 1.386 . S
C492 C494 1.383 . S
C492 H508 0.951 . S
C493 C492 1.386 . S
C493 C497 1.383 . S
C494 C492 1.383 . S
C494 C495 1.402 . S
C494 H509 0.951 . S
C495 C494 1.402 . S
C495 C496 1.375 . S
C495 C498 1.481 . S
C496 C495 1.375 . S
C496 C497 1.367 . S
C496 H510 0.951 . S
C497 C493 1.383 . S
C497 C496 1.367 . S
C497 H511 0.950 . S
C498 C495 1.481 . S
C498 C499 1.297 . S
C498 H512 0.950 . S
C499 C498 1.297 . S
C499 C500 1.479 . S
C499 H513 0.950 . S
C500 C499 1.479 . S
C500 C501 1.375 . S
C500 C506 1.404 . S
C501 C500 1.375 . S
C501 C502 1.369 . S
C501 H514 0.950 . S
C502 C501 1.369 . S
C502 C503 1.392 . S
C502 H515 0.951 . S
C503 C502 1.392 . S
C503 C505 1.384 . S
H504 C506 0.949 . S
C505 C503 1.384 . S
C505 C506 1.385 . S
C505 H507 0.950 . S
C506 C500 1.404 . S
C506 H504 0.949 . S
C506 C505 1.385 . S
H507 C505 0.950 . S
H508 C492 0.951 . S
H509 C494 0.951 . S
H510 C496 0.951 . S
H511 C497 0.950 . S
H512 C498 0.950 . S
H513 C499 0.950 . S
H514 C501 0.950 . S
H515 C502 0.951 . S
C516 C517 1.386 . S
C516 C518 1.383 . S
C516 H532 0.951 . S
C517 C516 1.386 . S
C517 C521 1.383 . S
C518 C516 1.383 . S
C518 C519 1.402 . S
C518 H533 0.951 . S
C519 C518 1.402 . S
C519 C520 1.375 . S
C519 C522 1.481 . S
C520 C519 1.375 . S
C520 C521 1.367 . S
C520 H534 0.951 . S
C521 C517 1.383 . S
C521 C520 1.367 . S
C521 H535 0.950 . S
C522 C519 1.481 . S
C522 C523 1.297 . S
C522 H536 0.950 . S
C523 C522 1.297 . S
C523 C524 1.479 . S
C523 H537 0.950 . S
C524 C523 1.479 . S
C524 C525 1.375 . S
C524 C530 1.404 . S
C525 C524 1.375 . S
C525 C526 1.369 . S
C525 H538 0.950 . S
C526 C525 1.369 . S
C526 C527 1.392 1_655 S
C526 H539 0.956 1_655 S
C527 C526 1.392 1_455 S
C527 C529 1.384 . S
H528 C530 0.949 . S
C529 C527 1.384 . S
C529 C530 1.385 1_455 S
C529 H531 0.950 . S
C530 C524 1.404 . S
C530 H528 0.949 . S
C530 C529 1.385 1_655 S
H531 C529 0.950 . S
H532 C516 0.951 . S
H533 C518 0.951 . S
H534 C520 0.951 . S
H535 C521 0.950 . S
H536 C522 0.950 . S
H537 C523 0.950 . S
H538 C525 0.950 . S
H539 C526 0.956 1_455 S
C540 C541 1.386 . S
C540 C542 1.383 1_545 S
C540 H556 0.951 . S
C541 C540 1.386 . S
C541 C545 1.383 1_545 S
C542 C540 1.383 1_565 S
C542 C543 1.402 . S
C542 H557 0.951 . S
C543 C542 1.402 . S
C543 C544 1.375 . S
C543 C546 1.481 . S
C544 C543 1.375 . S
C544 C545 1.367 . S
C544 H558 0.951 . S
C545 C541 1.383 1_565 S
C545 C544 1.367 . S
C545 H559 0.950 . S
C546 C543 1.481 . S
C546 C547 1.297 . S
C546 H560 0.950 . S
C547 C546 1.297 . S
C547 C548 1.479 . S
C547 H561 0.950 . S
C548 C547 1.479 . S
C548 C549 1.375 . S
C548 C554 1.404 . S
C549 C548 1.375 . S
C549 C550 1.369 . S
C549 H562 0.950 . S
C550 C549 1.369 . S
C550 C551 1.392 . S
C550 H563 0.951 . S
C551 C550 1.392 . S
C551 C553 1.384 . S
H552 C554 0.949 . S
C553 C551 1.384 . S
C553 C554 1.385 . S
C553 H555 0.950 . S
C554 C548 1.404 . S
C554 H552 0.949 . S
C554 C553 1.385 . S
H555 C553 0.950 . S
H556 C540 0.951 . S
H557 C542 0.951 . S
H558 C544 0.951 . S
H559 C545 0.950 . S
H560 C546 0.950 . S
H561 C547 0.950 . S
H562 C549 0.950 . S
H563 C550 0.951 . S
C205 C2 1.377 . S
C215 C104 1.370 . S
C229 C36 1.375 . S
C239 C138 1.372 . S
C253 C172 1.385 . S
C263 C70 1.352 . S
C277 C101 2.102 . S
C287 C203 2.095 . S
C301 C135 2.101 . S
C311 C33 2.096 . S
C325 C169 2.107 . S
C335 C67 2.093 . S
C349 C20 0.727 . S
C359 C122 0.697 . S
C373 C156 0.691 . S
C383 C54 0.779 . S
C397 C190 0.688 . S
C407 C88 0.780 . S
C421 C9 1.655 . S
C431 C175 1.670 . S
C445 C5 1.684 . S
C455 C43 1.603 . S
C469 C39 1.669 . S
C479 C77 1.607 . S
C493 C73 1.687 . S
C503 C111 1.670 . S
C517 C107 1.690 . S
C527 C145 1.666 . S
C541 C179 1.650 . S
C551 C141 1.691 . S
