# Generated by pormake.
# Topology wlm, (5)-cn, num edge types: 1
# Building blocks:
#     Node 0, Type 0, BuildingBlock: XOMCOT_clean_sbu_1, # of connection points: 5
#     Node 1, Type 0, BuildingBlock: XOMCOT_clean_sbu_1, # of connection points: 5
#     Node 2, Type 0, BuildingBlock: XOMCOT_clean_sbu_1, # of connection points: 5
#     Node 3, Type 0, BuildingBlock: XOMCOT_clean_sbu_1, # of connection points: 5
#     Node 4, Type 0, BuildingBlock: XOMCOT_clean_sbu_1, # of connection points: 5
#     Node 5, Type 0, BuildingBlock: XOMCOT_clean_sbu_1, # of connection points: 5
#     Node 6, Type 0, BuildingBlock: XOMCOT_clean_sbu_1, # of connection points: 5
#     Node 7, Type 0, BuildingBlock: XOMCOT_clean_sbu_1, # of connection points: 5
#     Node 8, Type 0, BuildingBlock: XOMCOT_clean_sbu_1, # of connection points: 5
#     Node 9, Type 0, BuildingBlock: XOMCOT_clean_sbu_1, # of connection points: 5
#     Node 10, Type 0, BuildingBlock: XOMCOT_clean_sbu_1, # of connection points: 5
#     Node 11, Type 0, BuildingBlock: XOMCOT_clean_sbu_1, # of connection points: 5
#     Node 12, Type 0, BuildingBlock: XOMCOT_clean_sbu_1, # of connection points: 5
#     Node 13, Type 0, BuildingBlock: XOMCOT_clean_sbu_1, # of connection points: 5
#     Node 14, Type 0, BuildingBlock: XOMCOT_clean_sbu_1, # of connection points: 5
#     Node 15, Type 0, BuildingBlock: XOMCOT_clean_sbu_1, # of connection points: 5
#     Node 16, Type 0, BuildingBlock: XOMCOT_clean_sbu_1, # of connection points: 5
#     Node 17, Type 0, BuildingBlock: XOMCOT_clean_sbu_1, # of connection points: 5
#     Node 18, Type 0, BuildingBlock: XOMCOT_clean_sbu_1, # of connection points: 5
#     Node 19, Type 0, BuildingBlock: XOMCOT_clean_sbu_1, # of connection points: 5
#     Node 20, Type 0, BuildingBlock: XOMCOT_clean_sbu_1, # of connection points: 5
#     Node 21, Type 0, BuildingBlock: XOMCOT_clean_sbu_1, # of connection points: 5
#     Node 22, Type 0, BuildingBlock: XOMCOT_clean_sbu_1, # of connection points: 5
#     Node 23, Type 0, BuildingBlock: XOMCOT_clean_sbu_1, # of connection points: 5
#     Node 24, Type 0, BuildingBlock: XOMCOT_clean_sbu_1, # of connection points: 5
#     Node 25, Type 0, BuildingBlock: XOMCOT_clean_sbu_1, # of connection points: 5
#     Node 26, Type 0, BuildingBlock: XOMCOT_clean_sbu_1, # of connection points: 5
#     Node 27, Type 0, BuildingBlock: XOMCOT_clean_sbu_1, # of connection points: 5
#     Node 28, Type 0, BuildingBlock: XOMCOT_clean_sbu_1, # of connection points: 5
#     Node 29, Type 0, BuildingBlock: XOMCOT_clean_sbu_1, # of connection points: 5
#     Node 30, Type 0, BuildingBlock: XOMCOT_clean_sbu_1, # of connection points: 5
#     Node 31, Type 0, BuildingBlock: XOMCOT_clean_sbu_1, # of connection points: 5
#     Node 32, Type 0, BuildingBlock: XOMCOT_clean_sbu_1, # of connection points: 5
#     Node 33, Type 0, BuildingBlock: XOMCOT_clean_sbu_1, # of connection points: 5
#     Node 34, Type 0, BuildingBlock: XOMCOT_clean_sbu_1, # of connection points: 5
#     Node 35, Type 0, BuildingBlock: XOMCOT_clean_sbu_1, # of connection points: 5
#     Edge 36, Type (0, 0), BuildingBlock: OJICUG_clean_linker_0, # of connection points: 2
#     Edge 37, Type (0, 0), BuildingBlock: OJICUG_clean_linker_0, # of connection points: 2
#     Edge 38, Type (0, 0), BuildingBlock: OJICUG_clean_linker_0, # of connection points: 2
#     Edge 39, Type (0, 0), BuildingBlock: OJICUG_clean_linker_0, # of connection points: 2
#     Edge 40, Type (0, 0), BuildingBlock: OJICUG_clean_linker_0, # of connection points: 2
#     Edge 41, Type (0, 0), BuildingBlock: OJICUG_clean_linker_0, # of connection points: 2
#     Edge 42, Type (0, 0), BuildingBlock: OJICUG_clean_linker_0, # of connection points: 2
#     Edge 43, Type (0, 0), BuildingBlock: OJICUG_clean_linker_0, # of connection points: 2
#     Edge 44, Type (0, 0), BuildingBlock: OJICUG_clean_linker_0, # of connection points: 2
#     Edge 45, Type (0, 0), BuildingBlock: OJICUG_clean_linker_0, # of connection points: 2
#     Edge 46, Type (0, 0), BuildingBlock: OJICUG_clean_linker_0, # of connection points: 2
#     Edge 47, Type (0, 0), BuildingBlock: OJICUG_clean_linker_0, # of connection points: 2
#     Edge 48, Type (0, 0), BuildingBlock: OJICUG_clean_linker_0, # of connection points: 2
#     Edge 49, Type (0, 0), BuildingBlock: OJICUG_clean_linker_0, # of connection points: 2
#     Edge 50, Type (0, 0), BuildingBlock: OJICUG_clean_linker_0, # of connection points: 2
#     Edge 51, Type (0, 0), BuildingBlock: OJICUG_clean_linker_0, # of connection points: 2
#     Edge 52, Type (0, 0), BuildingBlock: OJICUG_clean_linker_0, # of connection points: 2
#     Edge 53, Type (0, 0), BuildingBlock: OJICUG_clean_linker_0, # of connection points: 2
#     Edge 54, Type (0, 0), BuildingBlock: OJICUG_clean_linker_0, # of connection points: 2
#     Edge 55, Type (0, 0), BuildingBlock: OJICUG_clean_linker_0, # of connection points: 2
#     Edge 56, Type (0, 0), BuildingBlock: OJICUG_clean_linker_0, # of connection points: 2
#     Edge 57, Type (0, 0), BuildingBlock: OJICUG_clean_linker_0, # of connection points: 2
#     Edge 58, Type (0, 0), BuildingBlock: OJICUG_clean_linker_0, # of connection points: 2
#     Edge 59, Type (0, 0), BuildingBlock: OJICUG_clean_linker_0, # of connection points: 2
#     Edge 60, Type (0, 0), BuildingBlock: OJICUG_clean_linker_0, # of connection points: 2
#     Edge 61, Type (0, 0), BuildingBlock: OJICUG_clean_linker_0, # of connection points: 2
#     Edge 62, Type (0, 0), BuildingBlock: OJICUG_clean_linker_0, # of connection points: 2
#     Edge 63, Type (0, 0), BuildingBlock: OJICUG_clean_linker_0, # of connection points: 2
#     Edge 64, Type (0, 0), BuildingBlock: OJICUG_clean_linker_0, # of connection points: 2
#     Edge 65, Type (0, 0), BuildingBlock: OJICUG_clean_linker_0, # of connection points: 2
#     Edge 66, Type (0, 0), BuildingBlock: OJICUG_clean_linker_0, # of connection points: 2
#     Edge 67, Type (0, 0), BuildingBlock: OJICUG_clean_linker_0, # of connection points: 2
#     Edge 68, Type (0, 0), BuildingBlock: OJICUG_clean_linker_0, # of connection points: 2
#     Edge 69, Type (0, 0), BuildingBlock: OJICUG_clean_linker_0, # of connection points: 2
#     Edge 70, Type (0, 0), BuildingBlock: OJICUG_clean_linker_0, # of connection points: 2
#     Edge 71, Type (0, 0), BuildingBlock: OJICUG_clean_linker_0, # of connection points: 2
#     Edge 72, Type (0, 0), BuildingBlock: OJICUG_clean_linker_0, # of connection points: 2
#     Edge 73, Type (0, 0), BuildingBlock: OJICUG_clean_linker_0, # of connection points: 2
#     Edge 74, Type (0, 0), BuildingBlock: OJICUG_clean_linker_0, # of connection points: 2
#     Edge 75, Type (0, 0), BuildingBlock: OJICUG_clean_linker_0, # of connection points: 2
#     Edge 76, Type (0, 0), BuildingBlock: OJICUG_clean_linker_0, # of connection points: 2
#     Edge 77, Type (0, 0), BuildingBlock: OJICUG_clean_linker_0, # of connection points: 2
#     Edge 78, Type (0, 0), BuildingBlock: OJICUG_clean_linker_0, # of connection points: 2
#     Edge 79, Type (0, 0), BuildingBlock: OJICUG_clean_linker_0, # of connection points: 2
#     Edge 80, Type (0, 0), BuildingBlock: OJICUG_clean_linker_0, # of connection points: 2
#     Edge 81, Type (0, 0), BuildingBlock: OJICUG_clean_linker_0, # of connection points: 2
#     Edge 82, Type (0, 0), BuildingBlock: OJICUG_clean_linker_0, # of connection points: 2
#     Edge 83, Type (0, 0), BuildingBlock: OJICUG_clean_linker_0, # of connection points: 2
#     Edge 84, Type (0, 0), BuildingBlock: OJICUG_clean_linker_0, # of connection points: 2
#     Edge 85, Type (0, 0), BuildingBlock: OJICUG_clean_linker_0, # of connection points: 2
#     Edge 86, Type (0, 0), BuildingBlock: OJICUG_clean_linker_0, # of connection points: 2
#     Edge 87, Type (0, 0), BuildingBlock: OJICUG_clean_linker_0, # of connection points: 2
#     Edge 88, Type (0, 0), BuildingBlock: OJICUG_clean_linker_0, # of connection points: 2
#     Edge 89, Type (0, 0), BuildingBlock: OJICUG_clean_linker_0, # of connection points: 2
#     Edge 90, Type (0, 0), BuildingBlock: OJICUG_clean_linker_0, # of connection points: 2
#     Edge 91, Type (0, 0), BuildingBlock: OJICUG_clean_linker_0, # of connection points: 2
#     Edge 92, Type (0, 0), BuildingBlock: OJICUG_clean_linker_0, # of connection points: 2
#     Edge 93, Type (0, 0), BuildingBlock: OJICUG_clean_linker_0, # of connection points: 2
#     Edge 94, Type (0, 0), BuildingBlock: OJICUG_clean_linker_0, # of connection points: 2
#     Edge 95, Type (0, 0), BuildingBlock: OJICUG_clean_linker_0, # of connection points: 2
#     Edge 96, Type (0, 0), BuildingBlock: OJICUG_clean_linker_0, # of connection points: 2
#     Edge 97, Type (0, 0), BuildingBlock: OJICUG_clean_linker_0, # of connection points: 2
#     Edge 98, Type (0, 0), BuildingBlock: OJICUG_clean_linker_0, # of connection points: 2
#     Edge 99, Type (0, 0), BuildingBlock: OJICUG_clean_linker_0, # of connection points: 2
#     Edge 100, Type (0, 0), BuildingBlock: OJICUG_clean_linker_0, # of connection points: 2
#     Edge 101, Type (0, 0), BuildingBlock: OJICUG_clean_linker_0, # of connection points: 2
#     Edge 102, Type (0, 0), BuildingBlock: OJICUG_clean_linker_0, # of connection points: 2
#     Edge 103, Type (0, 0), BuildingBlock: OJICUG_clean_linker_0, # of connection points: 2
#     Edge 104, Type (0, 0), BuildingBlock: OJICUG_clean_linker_0, # of connection points: 2
#     Edge 105, Type (0, 0), BuildingBlock: OJICUG_clean_linker_0, # of connection points: 2
#     Edge 106, Type (0, 0), BuildingBlock: OJICUG_clean_linker_0, # of connection points: 2
#     Edge 107, Type (0, 0), BuildingBlock: OJICUG_clean_linker_0, # of connection points: 2
#     Edge 108, Type (0, 0), BuildingBlock: OJICUG_clean_linker_0, # of connection points: 2
#     Edge 109, Type (0, 0), BuildingBlock: OJICUG_clean_linker_0, # of connection points: 2
#     Edge 110, Type (0, 0), BuildingBlock: OJICUG_clean_linker_0, # of connection points: 2
#     Edge 111, Type (0, 0), BuildingBlock: OJICUG_clean_linker_0, # of connection points: 2
#     Edge 112, Type (0, 0), BuildingBlock: OJICUG_clean_linker_0, # of connection points: 2
#     Edge 113, Type (0, 0), BuildingBlock: OJICUG_clean_linker_0, # of connection points: 2
#     Edge 114, Type (0, 0), BuildingBlock: OJICUG_clean_linker_0, # of connection points: 2
#     Edge 115, Type (0, 0), BuildingBlock: OJICUG_clean_linker_0, # of connection points: 2
#     Edge 116, Type (0, 0), BuildingBlock: OJICUG_clean_linker_0, # of connection points: 2
#     Edge 117, Type (0, 0), BuildingBlock: OJICUG_clean_linker_0, # of connection points: 2
#     Edge 118, Type (0, 0), BuildingBlock: OJICUG_clean_linker_0, # of connection points: 2
#     Edge 119, Type (0, 0), BuildingBlock: OJICUG_clean_linker_0, # of connection points: 2
#     Edge 120, Type (0, 0), BuildingBlock: OJICUG_clean_linker_0, # of connection points: 2
#     Edge 121, Type (0, 0), BuildingBlock: OJICUG_clean_linker_0, # of connection points: 2
#     Edge 122, Type (0, 0), BuildingBlock: OJICUG_clean_linker_0, # of connection points: 2
#     Edge 123, Type (0, 0), BuildingBlock: OJICUG_clean_linker_0, # of connection points: 2
#     Edge 124, Type (0, 0), BuildingBlock: OJICUG_clean_linker_0, # of connection points: 2
#     Edge 125, Type (0, 0), BuildingBlock: OJICUG_clean_linker_0, # of connection points: 2
# Relax obj value: 0.122
# Max RMSD: 0.110
# Mean RMSD: 0.110
data_MOF--net-wlm--node1-XOMCOT_clean_sbu_1--edge1-OJICUG_clean_linker_0
_symmetry_space_group_name_H-M    P1
_symmetry_Int_Tables_number       1
_symmetry_cell_setting            triclinic
loop_
_symmetry_equiv_pos_as_xyz
'x, y, z'
_cell_length_a     95.017882
_cell_length_b     95.134684
_cell_length_c     13.6598
_cell_angle_alpha  89.986522
_cell_angle_beta   90.04382
_cell_angle_gamma 119.97147
loop_
_atom_site_label
_atom_site_type_symbol
_atom_site_fract_x
_atom_site_fract_y
_atom_site_fract_z
_atom_type_partial_charge
C0 C 0.1464 0.43757 0.39096 0.0
C1 C 0.14754 0.43947 0.49091 0.0
N2 N 0.15848 0.43555 0.52422 0.0
N3 N 0.1567 0.43264 0.35992 0.0
C4 C 0.16391 0.4315 0.44306 0.0
H5 H 0.13795 0.43892 0.34442 0.0
Co6 Co 0.15726 0.42664 0.2292 0.0
C7 C 0.1895 0.42914 0.19879 0.0
O8 O 0.18227 0.41612 0.14391 0.0
N9 N 0.15724 0.42039 0.0939 0.0
C10 C 0.15283 0.40566 0.95786 0.0
C11 C 0.15115 0.40517 0.05764 0.0
C12 C 0.16252 0.42989 1.01226 0.0
N13 N 0.1599 0.4212 0.92873 0.0
O14 O 0.16113 0.44795 0.18768 0.0
H15 H 0.14587 0.39412 0.09965 0.0
H16 H 0.16812 0.44296 1.01353 0.0
O17 O 0.18111 0.43469 0.2399 0.0
C18 C 0.14845 0.44722 0.14967 0.0
O19 O 0.13569 0.43286 0.13412 0.0
N20 N 0.15127 0.40552 0.274 0.0
C21 C 0.13656 0.37314 0.33702 0.0
C22 C 0.15337 0.38368 0.34827 0.0
C23 C 0.16046 0.39989 0.31761 0.0
C24 C 0.13484 0.39575 0.26819 0.0
C25 C 0.1273 0.37952 0.29705 0.0
H26 H 0.17318 0.40784 0.33176 0.0
H27 H 0.12758 0.40054 0.23752 0.0
H28 H 0.17259 0.42731 0.44453 0.0
H29 H 0.14008 0.44251 0.53612 0.0
H30 H 0.14861 0.39525 0.90997 0.0
H31 H 0.16096 0.37957 0.38239 0.0
H32 H 0.11433 0.372 0.28627 0.0
C33 C 0.57154 0.71029 0.43486 0.0
C34 C 0.56954 0.70936 0.53471 0.0
N35 N 0.57196 0.72374 0.5677 0.0
N36 N 0.57499 0.7251 0.40366 0.0
C37 C 0.57526 0.7331 0.48648 0.0
H38 H 0.57127 0.70097 0.38841 0.0
Co39 Co 0.58038 0.73175 0.27306 0.0
C40 C 0.57822 0.76179 0.25005 0.0
O41 O 0.59126 0.76795 0.19515 0.0
N42 N 0.5861 0.73815 0.13721 0.0
C43 C 0.60046 0.74929 1.00092 0.0
C44 C 0.60114 0.74818 0.10057 0.0
C45 C 0.57652 0.7333 0.05569 0.0
N46 N 0.585 0.73988 0.9721 0.0
O47 O 0.55876 0.71479 0.23476 0.0
H48 H 0.61218 0.75472 0.14233 0.0
H49 H 0.56355 0.72502 0.05691 0.0
O50 O 0.57271 0.7477 0.28851 0.0
C51 C 0.55893 0.70246 0.19887 0.0
O52 O 0.57303 0.70348 0.18278 0.0
N53 N 0.60175 0.74641 0.31476 0.0
C54 C 0.63473 0.76385 0.36361 0.0
C55 C 0.62443 0.77009 0.38488 0.0
C56 C 0.60786 0.76106 0.36097 0.0
C57 C 0.6113 0.73961 0.30174 0.0
C58 C 0.62783 0.74821 0.32382 0.0
H59 H 0.60011 0.76587 0.38029 0.0
H60 H 0.60608 0.72761 0.2701 0.0
H61 H 0.5783 0.74568 0.48762 0.0
H62 H 0.56748 0.69917 0.58013 0.0
H63 H 0.61073 0.75613 0.95289 0.0
H64 H 0.62917 0.78196 0.41792 0.0
H65 H 0.63518 0.74266 0.30931 0.0
C66 C 0.29426 0.87327 0.39866 0.0
C67 C 0.29554 0.87394 0.49902 0.0
N68 N 0.28573 0.85896 0.53543 0.0
N69 N 0.28373 0.85796 0.37078 0.0
C70 C 0.27878 0.84947 0.45565 0.0
H71 H 0.30013 0.88347 0.34919 0.0
Co72 Co 0.27716 0.85232 0.24031 0.0
C73 C 0.25979 0.81628 0.24241 0.0
O74 O 0.27025 0.81639 0.17913 0.0
N75 N 0.2705 0.84686 0.10785 0.0
C76 C 0.25429 0.8366 0.97808 0.0
C77 C 0.25492 0.83763 0.07844 0.0
C78 C 0.2791 0.85137 0.02312 0.0
N79 N 0.26953 0.84525 0.94269 0.0
O80 O 0.29519 0.84839 0.22125 0.0
H81 H 0.24456 0.8322 0.12704 0.0
H82 H 0.29212 0.85907 0.02011 0.0
O83 O 0.26201 0.82974 0.27678 0.0
C84 C 0.30789 0.86135 0.19348 0.0
O85 O 0.30676 0.87434 0.17655 0.0
N86 N 0.26085 0.85782 0.26003 0.0
C87 C 0.24065 0.87073 0.29946 0.0
C88 C 0.23883 0.85712 0.35068 0.0
C89 C 0.24907 0.85087 0.33002 0.0
C90 C 0.26268 0.8709 0.20856 0.0
C91 C 0.25261 0.87745 0.22637 0.0
H92 H 0.24792 0.84088 0.37345 0.0
H93 H 0.27235 0.8766 0.15532 0.0
H94 H 0.26989 0.83668 0.45895 0.0
H95 H 0.30258 0.88484 0.54176 0.0
H96 H 0.24332 0.83035 0.93478 0.0
H97 H 0.22975 0.85151 0.40751 0.0
H98 H 0.25465 0.88811 0.18607 0.0
C99 C 0.42192 0.13456 0.63962 0.0
C100 C 0.42248 0.13387 0.53925 0.0
N101 N 0.42768 0.14885 0.50273 0.0
N102 N 0.42678 0.14989 0.66741 0.0
C103 C 0.43028 0.15836 0.58246 0.0
H104 H 0.4176 0.12437 0.68916 0.0
Co105 Co 0.42597 0.15562 0.79779 0.0
C106 C 0.44522 0.19153 0.79517 0.0
O107 O 0.45533 0.19104 0.85888 0.0
N108 N 0.42487 0.16117 0.93012 0.0
C109 C 0.41915 0.17163 0.05967 0.0
C110 C 0.41878 0.17062 0.95931 0.0
C111 C 0.42878 0.1565 1.01497 0.0
N112 N 0.42546 0.16274 0.09529 0.0
O113 O 0.44784 0.15928 0.81718 0.0
H114 H 0.41404 0.17621 0.91053 0.0
H115 H 0.43386 0.14859 0.01812 0.0
O116 O 0.4337 0.17824 0.76081 0.0
C117 C 0.44745 0.14627 0.84535 0.0
O118 O 0.43327 0.13333 0.86167 0.0
N119 N 0.40424 0.15034 0.77815 0.0
C120 C 0.37109 0.13748 0.73976 0.0
C121 C 0.38284 0.15117 0.68897 0.0
C122 C 0.39936 0.15743 0.70924 0.0
C123 C 0.39302 0.13717 0.82911 0.0
C124 C 0.37639 0.13064 0.81184 0.0
H125 H 0.40819 0.16755 0.66653 0.0
H126 H 0.39704 0.13139 0.8815 0.0
H127 H 0.43422 0.17115 0.57909 0.0
H128 H 0.41856 0.12295 0.4966 0.0
H129 H 0.4146 0.17803 0.10279 0.0
H130 H 0.37931 0.15686 0.63288 0.0
H131 H 0.36781 0.11991 0.85172 0.0
C132 C 0.87188 0.28734 0.65796 0.0
C133 C 0.8726 0.28861 0.55753 0.0
N134 N 0.85752 0.27928 0.52092 0.0
N135 N 0.85643 0.27728 0.68567 0.0
C136 C 0.84792 0.27263 0.60064 0.0
H137 H 0.8821 0.2929 0.70764 0.0
Co138 Co 0.85041 0.27077 0.8161 0.0
C139 C 0.81428 0.25292 0.80422 0.0
O140 O 0.8136 0.26325 0.86511 0.0
N141 N 0.84454 0.26421 0.94828 0.0
C142 C 0.83393 0.24819 0.07827 0.0
C143 C 0.8349 0.24874 0.97788 0.0
C144 C 0.84939 0.27283 0.03292 0.0
N145 N 0.84305 0.26336 0.11351 0.0
O146 O 0.84588 0.28841 0.83224 0.0
H147 H 0.82925 0.23836 0.92946 0.0
H148 H 0.85755 0.28577 0.0357 0.0
O149 O 0.82812 0.25526 0.77631 0.0
C150 C 0.85869 0.30124 0.86025 0.0
O151 O 0.87188 0.30044 0.87721 0.0
N152 N 0.85646 0.2548 0.8 0.0
C153 C 0.87035 0.23536 0.7659 0.0
C154 C 0.8573 0.23363 0.70876 0.0
C155 C 0.85047 0.24343 0.72724 0.0
C156 C 0.86898 0.25649 0.85719 0.0
C157 C 0.87595 0.24672 0.84234 0.0
H158 H 0.84089 0.24236 0.67986 0.0
H159 H 0.87395 0.26584 0.91271 0.0
H160 H 0.835 0.26417 0.59718 0.0
H161 H 0.88358 0.29531 0.5149 0.0
H162 H 0.82744 0.23728 0.12174 0.0
H163 H 0.85266 0.22503 0.64884 0.0
H164 H 0.88616 0.2486 0.88715 0.0
C165 C 0.72016 0.58633 0.66312 0.0
C166 C 0.71886 0.58578 0.56267 0.0
N167 N 0.72787 0.57965 0.52622 0.0
N168 N 0.72993 0.58059 0.69089 0.0
C169 C 0.73439 0.57652 0.606 0.0
H170 H 0.71474 0.59112 0.71282 0.0
Co171 Co 0.73609 0.5805 0.82138 0.0
C172 C 0.75438 0.56263 0.80483 0.0
O173 O 0.74366 0.55086 0.86029 0.0
N174 N 0.74235 0.5806 0.95374 0.0
C175 C 0.75829 0.58571 0.08404 0.0
C176 C 0.7578 0.58622 0.98372 0.0
C177 C 0.73369 0.57688 0.03818 0.0
N178 N 0.74311 0.57983 0.11894 0.0
O179 O 0.71853 0.55821 0.83286 0.0
H180 H 0.76823 0.59099 0.93571 0.0
H181 H 0.72077 0.57235 0.04075 0.0
O182 O 0.75205 0.5743 0.78088 0.0
C183 C 0.70562 0.55811 0.86058 0.0
O184 O 0.70653 0.57203 0.88096 0.0
N185 N 0.75185 0.60264 0.80989 0.0
C186 C 0.77079 0.63632 0.78437 0.0
C187 C 0.77311 0.62556 0.72499 0.0
C188 C 0.76351 0.60877 0.73886 0.0
C189 C 0.74959 0.61283 0.8694 0.0
C190 C 0.75905 0.62966 0.85892 0.0
H191 H 0.76491 0.60073 0.68917 0.0
H192 H 0.74006 0.60786 0.92381 0.0
H193 H 0.74252 0.57167 0.60275 0.0
H194 H 0.7123 0.59023 0.51995 0.0
H195 H 0.76918 0.59003 0.12775 0.0
H196 H 0.78173 0.62999 0.6652 0.0
H197 H 0.75691 0.63734 0.90785 0.0
C198 C 0.86382 0.56877 0.63063 0.0
C199 C 0.86269 0.56687 0.53067 0.0
N200 N 0.8517 0.57073 0.49739 0.0
N201 N 0.85347 0.57364 0.66169 0.0
C202 C 0.84624 0.57475 0.57857 0.0
H203 H 0.87229 0.56745 0.67715 0.0
Co204 Co 0.85286 0.57961 0.7924 0.0
C205 C 0.82059 0.57705 0.82218 0.0
O206 O 0.82778 0.59008 0.87711 0.0
N207 N 0.85282 0.58584 0.92771 0.0
C208 C 0.85717 0.60056 0.06373 0.0
C209 C 0.85885 0.60106 0.96394 0.0
C210 C 0.84758 0.57634 1.00936 0.0
N211 N 0.85016 0.58503 0.09288 0.0
O212 O 0.84904 0.55833 0.83391 0.0
H213 H 0.86409 0.6121 0.92192 0.0
H214 H 0.84205 0.56327 1.00813 0.0
O215 O 0.82901 0.57152 0.78137 0.0
C216 C 0.86176 0.55915 0.87183 0.0
O217 O 0.87447 0.57356 0.88717 0.0
N218 N 0.85884 0.60072 0.74767 0.0
C219 C 0.8736 0.63311 0.68512 0.0
C220 C 0.8568 0.6226 0.67359 0.0
C221 C 0.84968 0.60638 0.704 0.0
C222 C 0.87527 0.61046 0.75375 0.0
C223 C 0.88284 0.6267 0.7251 0.0
H224 H 0.83695 0.59844 0.68967 0.0
H225 H 0.8825 0.60565 0.78448 0.0
H226 H 0.83752 0.57889 0.57713 0.0
H227 H 0.87017 0.56387 0.48544 0.0
H228 H 0.86135 0.61096 0.1116 0.0
H229 H 0.84924 0.62675 0.63948 0.0
H230 H 0.8958 0.6342 0.73609 0.0
C231 C 0.44047 0.29542 0.62336 0.0
C232 C 0.44228 0.2961 0.52333 0.0
N233 N 0.43788 0.28113 0.49008 0.0
N234 N 0.43513 0.28013 0.65442 0.0
C235 C 0.4336 0.27165 0.57133 0.0
H236 H 0.44223 0.30534 0.66994 0.0
Co237 Co 0.42921 0.2735 0.78499 0.0
C238 C 0.43245 0.2441 0.81569 0.0
O239 O 0.42024 0.23837 0.87711 0.0
N240 N 0.423 0.26715 0.92014 0.0
C241 C 0.40813 0.25677 0.05561 0.0
C242 C 0.40773 0.25799 0.9558 0.0
C243 C 0.43244 0.27134 1.00215 0.0
N244 N 0.42366 0.26523 0.08536 0.0
O245 O 0.45063 0.29063 0.82632 0.0
H246 H 0.39669 0.25231 0.91337 0.0
H247 H 0.44553 0.27885 1.00141 0.0
O248 O 0.43706 0.25765 0.77185 0.0
C249 C 0.45005 0.30255 0.86535 0.0
O250 O 0.43574 0.30111 0.8811 0.0
N251 N 0.40805 0.2587 0.74105 0.0
C252 C 0.37525 0.24127 0.68821 0.0
C253 C 0.38528 0.23444 0.67676 0.0
C254 C 0.40175 0.24343 0.70306 0.0
C255 C 0.39875 0.26591 0.7451 0.0
C256 C 0.3823 0.25735 0.72082 0.0
H257 H 0.40927 0.23808 0.69189 0.0
H258 H 0.40409 0.27826 0.77133 0.0
H259 H 0.429 0.25871 0.57012 0.0
H260 H 0.44564 0.30666 0.4781 0.0
H261 H 0.39766 0.25059 0.10308 0.0
H262 H 0.38038 0.22217 0.64979 0.0
H263 H 0.37513 0.26326 0.72818 0.0
C264 C 0.71224 0.14168 0.62721 0.0
C265 C 0.71125 0.14267 0.52727 0.0
N266 N 0.72566 0.15453 0.49382 0.0
N267 N 0.72716 0.15294 0.65796 0.0
C268 C 0.73508 0.16063 0.57485 0.0
H269 H 0.70285 0.13278 0.67406 0.0
Co270 Co 0.734 0.15423 0.78857 0.0
C271 C 0.76342 0.18676 0.81237 0.0
O272 O 0.76998 0.17995 0.86444 0.0
N273 N 0.74055 0.155 0.92439 0.0
C274 C 0.75192 0.1521 0.06086 0.0
C275 C 0.7509 0.15037 0.96113 0.0
C276 C 0.73548 0.15948 1.00593 0.0
N277 N 0.74217 0.15774 0.08962 0.0
O278 O 0.71638 0.1579 0.82813 0.0
H279 H 0.75775 0.14625 0.91942 0.0
H280 H 0.72699 0.16391 1.00464 0.0
O281 O 0.74926 0.17804 0.77469 0.0
C282 C 0.70443 0.14527 0.86594 0.0
O283 O 0.70611 0.13262 0.88357 0.0
N284 N 0.7494 0.14848 0.74535 0.0
C285 C 0.76807 0.13462 0.68861 0.0
C286 C 0.77321 0.1509 0.66705 0.0
C287 C 0.76362 0.1576 0.69552 0.0
C288 C 0.74366 0.13231 0.7593 0.0
C289 C 0.75297 0.12524 0.73405 0.0
H290 H 0.76763 0.17001 0.67597 0.0
H291 H 0.73197 0.12499 0.79393 0.0
H292 H 0.74764 0.17022 0.57327 0.0
H293 H 0.70099 0.13458 0.48218 0.0
H294 H 0.75897 0.14892 0.10892 0.0
H295 H 0.78462 0.15842 0.6297 0.0
H296 H 0.74836 0.11251 0.74951 0.0
C297 C 0.58767 0.87099 0.41527 0.0
C298 C 0.58711 0.8717 0.51566 0.0
N299 N 0.5816 0.85667 0.55222 0.0
N300 N 0.58251 0.85559 0.38752 0.0
C301 C 0.57882 0.84711 0.47249 0.0
H302 H 0.59217 0.88119 0.36566 0.0
Co303 Co 0.5831 0.8497 0.25711 0.0
C304 C 0.56435 0.81365 0.26527 0.0
O305 O 0.55363 0.81345 0.2036 0.0
N306 N 0.58393 0.84397 0.12488 0.0
C307 C 0.58945 0.8334 0.99507 0.0
C308 C 0.58986 0.83439 0.09545 0.0
C309 C 0.58011 0.84876 0.04018 0.0
N310 N 0.5833 0.84245 0.95968 0.0
O311 O 0.56104 0.84556 0.2397 0.0
H312 H 0.59459 0.82875 0.14401 0.0
H313 H 0.57522 0.85683 0.0373 0.0
O314 O 0.5759 0.82727 0.29555 0.0
C315 C 0.56115 0.85846 0.21218 0.0
O316 O 0.5752 0.87156 0.19569 0.0
N317 N 0.605 0.85538 0.27464 0.0
C318 C 0.6383 0.86849 0.30886 0.0
C319 C 0.62677 0.8551 0.36281 0.0
C320 C 0.61017 0.84874 0.34472 0.0
C321 C 0.61599 0.86827 0.22077 0.0
C322 C 0.63269 0.87491 0.23595 0.0
H323 H 0.60154 0.83892 0.38999 0.0
H324 H 0.61176 0.87373 0.16751 0.0
H325 H 0.57458 0.83425 0.47589 0.0
H326 H 0.59122 0.88265 0.5583 0.0
H327 H 0.59391 0.82693 0.95175 0.0
H328 H 0.63052 0.84973 0.41969 0.0
H329 H 0.64111 0.88541 0.19367 0.0
C330 C 0.14524 0.71487 0.36752 0.0
C331 C 0.14585 0.71354 0.46755 0.0
N332 N 0.15921 0.7268 0.50153 0.0
N333 N 0.15818 0.72885 0.33749 0.0
C334 C 0.16654 0.73583 0.42084 0.0
H335 H 0.13561 0.70643 0.32001 0.0
Co336 Co 0.16105 0.73611 0.20716 0.0
C337 C 0.19352 0.76645 0.2082 0.0
O338 O 0.18713 0.77408 0.16315 0.0
N339 N 0.1636 0.74323 0.07111 0.0
C340 C 0.16374 0.7564 0.9348 0.0
C341 C 0.16208 0.75567 0.03449 0.0
C342 C 0.16617 0.7366 0.98922 0.0
N343 N 0.16622 0.74436 0.90571 0.0
O344 O 0.16548 0.71886 0.17284 0.0
H345 H 0.15988 0.76399 0.07643 0.0
H346 H 0.1679 0.72622 0.98972 0.0
O347 O 0.18462 0.75147 0.2319 0.0
C348 C 0.15281 0.70655 0.13807 0.0
O349 O 0.13998 0.70791 0.11923 0.0
N350 N 0.15437 0.75106 0.2448 0.0
C351 C 0.13928 0.76887 0.2952 0.0
C352 C 0.15446 0.77286 0.33483 0.0
C353 C 0.16178 0.76372 0.30921 0.0
C354 C 0.1391 0.74638 0.21153 0.0
C355 C 0.13155 0.75537 0.2334 0.0
H356 H 0.17327 0.76677 0.34226 0.0
H357 H 0.13291 0.73574 0.16553 0.0
H358 H 0.17758 0.74748 0.42278 0.0
H359 H 0.13666 0.70397 0.51223 0.0
H360 H 0.16255 0.76483 0.88698 0.0
H361 H 0.16063 0.78298 0.38485 0.0
H362 H 0.1196 0.75159 0.20373 0.0
C363 C 0.2896 0.41927 0.3559 0.0
C364 C 0.29089 0.41982 0.45634 0.0
N365 N 0.28186 0.42594 0.49276 0.0
N366 N 0.27983 0.42502 0.32806 0.0
C367 C 0.27536 0.42908 0.41295 0.0
H368 H 0.29501 0.41446 0.30625 0.0
Co369 Co 0.27362 0.42504 0.19755 0.0
C370 C 0.25556 0.44315 0.21343 0.0
O371 O 0.26627 0.45477 0.15708 0.0
N372 N 0.26732 0.42487 0.06522 0.0
C373 C 0.25136 0.41978 0.93501 0.0
C374 C 0.25187 0.41928 0.03534 0.0
C375 C 0.27596 0.42857 0.98073 0.0
N376 N 0.26654 0.42562 0.90002 0.0
O377 O 0.2913 0.44725 0.18517 0.0
H378 H 0.24145 0.41456 0.08345 0.0
H379 H 0.28888 0.4331 0.97809 0.0
O380 O 0.25782 0.43145 0.23796 0.0
C381 C 0.30409 0.44712 0.15737 0.0
O382 O 0.30298 0.43309 0.13777 0.0
N383 N 0.25777 0.40297 0.20986 0.0
C384 C 0.23888 0.36934 0.23752 0.0
C385 C 0.23658 0.38019 0.29613 0.0
C386 C 0.24615 0.39695 0.28117 0.0
C387 C 0.25997 0.39268 0.15092 0.0
C388 C 0.25053 0.37587 0.16246 0.0
H389 H 0.24479 0.40507 0.33037 0.0
H390 H 0.26947 0.39756 0.09628 0.0
H391 H 0.26721 0.43391 0.4162 0.0
H392 H 0.29742 0.41536 0.49909 0.0
H393 H 0.24047 0.41548 0.89135 0.0
H394 H 0.22802 0.37586 0.35622 0.0
H395 H 0.25264 0.36811 0.11403 0.0
C396 C 0.81356 0.76948 0.74579 0.0
C397 C 0.81467 0.77141 0.84574 0.0
N398 N 0.82585 0.76782 0.87908 0.0
N399 N 0.8241 0.76486 0.71485 0.0
C400 C 0.83144 0.76393 0.79796 0.0
H401 H 0.805 0.77064 0.69914 0.0
Co402 Co 0.82492 0.75904 0.5842 0.0
C403 C 0.8572 0.76152 0.55671 0.0
O404 O 0.85008 0.74852 0.50151 0.0
N405 N 0.82516 0.75295 0.44873 0.0
C406 C 0.82109 0.73833 0.3126 0.0
C407 C 0.81938 0.73778 0.41235 0.0
C408 C 0.83028 0.76248 0.36714 0.0
N409 N 0.82786 0.75384 0.28357 0.0
O410 O 0.82887 0.78041 0.54359 0.0
H411 H 0.81433 0.72673 0.45425 0.0
H412 H 0.83561 0.77553 0.36841 0.0
O413 O 0.84873 0.76707 0.59666 0.0
C414 C 0.81628 0.77979 0.50516 0.0
O415 O 0.80357 0.76548 0.48766 0.0
N416 N 0.8188 0.73786 0.62827 0.0
C417 C 0.80389 0.7054 0.68992 0.0
C418 C 0.82066 0.71592 0.70309 0.0
C419 C 0.82785 0.73217 0.67313 0.0
C420 C 0.80239 0.7281 0.62045 0.0
C421 C 0.79476 0.71183 0.64863 0.0
H422 H 0.84053 0.74011 0.68872 0.0
H423 H 0.79524 0.73292 0.5888 0.0
H424 H 0.84034 0.76002 0.79941 0.0
H425 H 0.80707 0.77425 0.89092 0.0
H426 H 0.81709 0.72796 0.26466 0.0
H427 H 0.82813 0.71176 0.73822 0.0
H428 H 0.78183 0.70433 0.63637 0.0
C429 C 0.25189 0.05016 0.7417 0.0
C430 C 0.25143 0.04898 0.84216 0.0
N431 N 0.24607 0.05864 0.87865 0.0
N432 N 0.2468 0.06045 0.71381 0.0
C433 C 0.24327 0.06539 0.79884 0.0
H434 H 0.25632 0.04438 0.69219 0.0
Co435 Co 0.24743 0.06706 0.58343 0.0
C436 C 0.22886 0.08481 0.59082 0.0
O437 O 0.21913 0.07581 0.5202 0.0
N438 N 0.24835 0.07378 0.4513 0.0
C439 C 0.25404 0.08992 0.32161 0.0
C440 C 0.25436 0.08929 0.42205 0.0
C441 C 0.24459 0.06522 0.36642 0.0
N442 N 0.24789 0.07476 0.28601 0.0
O443 O 0.22555 0.04896 0.56448 0.0
H444 H 0.25905 0.09962 0.4708 0.0
H445 H 0.23966 0.05227 0.36331 0.0
O446 O 0.23975 0.08185 0.62306 0.0
C447 C 0.22622 0.03647 0.53653 0.0
O448 O 0.24054 0.03796 0.52083 0.0
N449 N 0.26919 0.08345 0.6023 0.0
C450 C 0.30239 0.10349 0.63987 0.0
C451 C 0.29074 0.10558 0.69093 0.0
C452 C 0.27419 0.09543 0.67109 0.0
C453 C 0.28032 0.08139 0.55089 0.0
C454 C 0.29697 0.09137 0.56778 0.0
H455 H 0.26544 0.09682 0.7141 0.0
H456 H 0.2762 0.07158 0.49855 0.0
H457 H 0.23915 0.07411 0.80228 0.0
H458 H 0.25552 0.04212 0.88486 0.0
H459 H 0.25857 0.10087 0.27842 0.0
H460 H 0.29436 0.1148 0.747 0.0
H461 H 0.30548 0.08912 0.52765 0.0
C462 C 0.96283 0.19694 0.73115 0.0
C463 C 0.96387 0.19599 0.83108 0.0
N464 N 0.94961 0.18387 0.86454 0.0
N465 N 0.94803 0.18541 0.70045 0.0
C466 C 0.94022 0.17759 0.78354 0.0
H467 H 0.97209 0.20598 0.68423 0.0
Co468 Co 0.94115 0.18393 0.56986 0.0
C469 C 0.91171 0.15133 0.54806 0.0
O470 O 0.90506 0.15809 0.4964 0.0
N471 N 0.93454 0.18296 0.43391 0.0
C472 C 0.92298 0.18554 0.29733 0.0
C473 C 0.92398 0.18729 0.39703 0.0
C474 C 0.93977 0.17863 0.35245 0.0
N475 N 0.93298 0.18018 0.2687 0.0
O476 O 0.95887 0.18037 0.53103 0.0
H477 H 0.91694 0.19122 0.43865 0.0
H478 H 0.94847 0.17445 0.3538 0.0
O479 O 0.92595 0.1601 0.5847 0.0
C480 C 0.97079 0.193 0.49296 0.0
O481 O 0.96894 0.20551 0.47353 0.0
N482 N 0.9257 0.18964 0.61255 0.0
C483 C 0.90704 0.2035 0.66959 0.0
C484 C 0.90204 0.1873 0.69254 0.0
C485 C 0.91162 0.18059 0.66393 0.0
C486 C 0.9313 0.20575 0.59704 0.0
C487 C 0.92199 0.21281 0.62242 0.0
H488 H 0.90775 0.16827 0.68466 0.0
H489 H 0.9429 0.21303 0.56128 0.0
H490 H 0.92778 0.16777 0.78512 0.0
H491 H 0.97405 0.20425 0.87615 0.0
H492 H 0.91579 0.18852 0.24919 0.0
H493 H 0.89076 0.17983 0.73123 0.0
H494 H 0.9265 0.22549 0.60587 0.0
C495 C 0.08916 0.4698 0.93437 0.0
C496 C 0.09045 0.46923 0.8344 0.0
N497 N 0.09756 0.48449 0.79895 0.0
N498 N 0.09538 0.48533 0.96306 0.0
C499 C 0.10065 0.49406 0.87908 0.0
H500 H 0.08332 0.45946 0.98282 0.0
Co501 Co 0.09419 0.49106 0.09372 0.0
C502 C 0.09584 0.52318 0.04035 0.0
O503 O 0.08004 0.51672 0.04486 0.0
N504 N 0.09332 0.49672 0.22744 0.0
C505 C 0.08836 0.50709 0.3607 0.0
C506 C 0.08721 0.50596 0.26062 0.0
C507 C 0.09803 0.49229 0.31048 0.0
N508 N 0.0952 0.49851 0.39275 0.0
O509 O 0.11626 0.49526 0.1126 0.0
H510 H 0.08153 0.51106 0.21627 0.0
H511 H 0.10332 0.48455 0.31103 0.0
O512 O 0.10252 0.5145 0.05712 0.0
C513 C 0.11577 0.48195 0.13472 0.0
O514 O 0.10151 0.46897 0.14844 0.0
N515 N 0.07162 0.48439 0.07419 0.0
C516 C 0.03784 0.46898 0.04183 0.0
C517 C 0.04889 0.47893 0.97012 0.0
C518 C 0.06559 0.48611 0.98661 0.0
C519 C 0.061 0.47437 0.14376 0.0
C520 C 0.04415 0.4668 0.12985 0.0
H521 H 0.07366 0.49338 0.92869 0.0
H522 H 0.06549 0.47161 0.20943 0.0
H523 H 0.10595 0.5071 0.87639 0.0
H524 H 0.0856 0.45828 0.79091 0.0
H525 H 0.08383 0.51324 0.40644 0.0
H526 H 0.04474 0.4811 0.90098 0.0
H527 H 0.03619 0.45876 0.18618 0.0
C528 C 0.52978 0.62793 0.93411 0.0
C529 C 0.52869 0.62883 0.83422 0.0
N530 N 0.51683 0.61438 0.80124 0.0
N531 N 0.51852 0.61307 0.96535 0.0
C532 C 0.51084 0.60501 0.8825 0.0
H533 H 0.5388 0.63731 0.98052 0.0
Co534 Co 0.51741 0.60645 0.096 0.0
C535 C 0.48531 0.57633 0.11982 0.0
O536 O 0.49235 0.57024 0.17405 0.0
N537 N 0.51686 0.60008 0.23179 0.0
C538 C 0.52033 0.5891 0.3681 0.0
C539 C 0.5221 0.59024 0.26844 0.0
C540 C 0.51202 0.6048 0.31327 0.0
N541 N 0.51406 0.59831 0.39689 0.0
O542 O 0.51277 0.6234 0.13472 0.0
H543 H 0.52677 0.58385 0.22667 0.0
H544 H 0.50714 0.61292 0.31198 0.0
O545 O 0.49378 0.59044 0.08128 0.0
C546 C 0.52532 0.63568 0.17072 0.0
O547 O 0.53838 0.63459 0.18644 0.0
N548 N 0.52414 0.59186 0.05389 0.0
C549 C 0.5399 0.57475 1.00267 0.0
C550 C 0.52329 0.56833 0.98254 0.0
C551 C 0.51564 0.5772 1.00766 0.0
C552 C 0.54052 0.5988 0.06602 0.0
C553 C 0.54858 0.59037 0.04274 0.0
H554 H 0.50302 0.57227 0.98905 0.0
H555 H 0.54726 0.6108 0.09766 0.0
H556 H 0.50142 0.59239 0.88136 0.0
H557 H 0.53675 0.63904 0.78878 0.0
H558 H 0.52392 0.58238 0.41616 0.0
H559 H 0.51621 0.55647 0.94936 0.0
H560 H 0.56151 0.59605 0.05643 0.0
C561 C 0.38938 0.91903 0.98065 0.0
C562 C 0.3882 0.91856 0.88027 0.0
N563 N 0.39818 0.9136 0.84374 0.0
N564 N 0.4 0.91435 1.00841 0.0
C565 C 0.40518 0.91109 0.92348 0.0
H566 H 0.3833 0.92312 0.03024 0.0
Co567 Co 0.40635 0.91489 0.13877 0.0
C568 C 0.42143 0.89435 0.13616 0.0
O569 O 0.41011 0.88462 0.1977 0.0
N570 N 0.41288 0.91576 0.27112 0.0
C571 C 0.4291 0.92121 0.40034 0.0
C572 C 0.4284 0.92154 0.30002 0.0
C573 C 0.40438 0.91207 0.35609 0.0
N574 N 0.41396 0.91524 0.43624 0.0
O575 O 0.38776 0.89325 0.15696 0.0
H576 H 0.4387 0.92605 0.25106 0.0
H577 H 0.39142 0.90725 0.35945 0.0
O578 O 0.42096 0.90663 0.10205 0.0
C579 C 0.37535 0.894 0.1858 0.0
O580 O 0.37704 0.90832 0.20405 0.0
N581 N 0.4229 0.93645 0.12044 0.0
C582 C 0.44157 0.96958 0.07831 0.0
C583 C 0.44517 0.95835 0.03484 0.0
C584 C 0.43558 0.94175 0.05637 0.0
C585 C 0.41967 0.94723 0.16627 0.0
C586 C 0.42888 0.96382 0.14681 0.0
H587 H 0.43784 0.93317 0.01768 0.0
H588 H 0.40938 0.94281 0.21523 0.0
H589 H 0.41417 0.90731 0.9202 0.0
H590 H 0.38104 0.92232 0.83769 0.0
H591 H 0.44008 0.92558 0.4432 0.0
H592 H 0.45474 0.96222 0.98079 0.0
H593 H 0.42577 0.97201 0.18321 0.0
C594 C 0.53538 0.90908 0.9732 0.0
C595 C 0.53564 0.90851 0.87268 0.0
N596 N 0.5229 0.90947 0.83761 0.0
N597 N 0.52241 0.9102 1.00237 0.0
C598 C 0.51509 0.91052 0.91783 0.0
H599 H 0.54438 0.9091 0.02156 0.0
Co600 Co 0.51751 0.91224 0.13304 0.0
C601 C 0.48165 0.89264 0.13411 0.0
O602 O 0.48285 0.88288 0.19728 0.0
N603 N 0.51261 0.91458 0.26513 0.0
C604 C 0.50177 0.92047 0.3922 0.0
C605 C 0.50275 0.92033 0.29193 0.0
C606 C 0.51764 0.91153 0.35151 0.0
N607 N 0.51118 0.91495 0.43036 0.0
O608 O 0.5137 0.89046 0.15888 0.0
H609 H 0.49652 0.92415 0.24158 0.0
H610 H 0.52607 0.9071 0.357 0.0
O611 O 0.49461 0.90443 0.09821 0.0
C612 C 0.52662 0.89104 0.19119 0.0
O613 O 0.5395 0.90532 0.20643 0.0
N614 N 0.52333 0.93382 0.10805 0.0
C615 C 0.53797 0.96673 0.0613 0.0
C616 C 0.5216 0.95608 0.03801 0.0
C617 C 0.51451 0.93956 0.06119 0.0
C618 C 0.53907 0.94408 0.13366 0.0
C619 C 0.54665 0.96056 0.11083 0.0
H620 H 0.50218 0.93144 0.03877 0.0
H621 H 0.54592 0.93928 0.1697 0.0
H622 H 0.50433 0.91167 0.91501 0.0
H623 H 0.54487 0.90804 0.82873 0.0
H624 H 0.4945 0.92424 0.43322 0.0
H625 H 0.51452 0.96035 0.99906 0.0
H626 H 0.55925 0.96838 0.13113 0.0
C627 C 0.09424 0.62586 0.93168 0.0
C628 C 0.09469 0.62703 0.83122 0.0
N629 N 0.09973 0.61712 0.79463 0.0
N630 N 0.09901 0.61531 0.9594 0.0
C631 C 0.10231 0.61018 0.87435 0.0
H632 H 0.09014 0.63192 0.98137 0.0
Co633 Co 0.09874 0.60896 0.08976 0.0
C634 C 0.11638 0.59028 0.07961 0.0
O635 O 0.12655 0.5993 0.1485 0.0
N636 N 0.09812 0.60243 0.22193 0.0
C637 C 0.0922 0.58625 0.35161 0.0
C638 C 0.09189 0.58689 0.25126 0.0
C639 C 0.10201 0.61101 0.30675 0.0
N640 N 0.09857 0.60144 0.38716 0.0
O641 O 0.1209 0.62663 0.10466 0.0
H642 H 0.08695 0.57653 0.20266 0.0
H643 H 0.10706 0.62398 0.30983 0.0
O644 O 0.10559 0.59353 0.04912 0.0
C645 C 0.12063 0.63934 0.13228 0.0
O646 O 0.10651 0.63811 0.1513 0.0
N647 N 0.07676 0.59316 0.07489 0.0
C648 C 0.04314 0.57385 0.04797 0.0
C649 C 0.05401 0.57022 0.99962 0.0
C650 C 0.07079 0.5801 1.01346 0.0
C651 C 0.06646 0.59681 0.12311 0.0
C652 C 0.04965 0.58733 0.111 0.0
H653 H 0.07891 0.57749 0.97245 0.0
H654 H 0.07138 0.60747 0.16929 0.0
H655 H 0.10622 0.60131 0.87089 0.0
H656 H 0.0909 0.63416 0.78864 0.0
H657 H 0.08746 0.57528 0.3948 0.0
H658 H 0.04962 0.55993 0.95067 0.0
H659 H 0.04189 0.59092 0.14832 0.0
C660 C 0.38486 0.46715 0.95954 0.0
C661 C 0.38365 0.46644 0.85911 0.0
N662 N 0.39364 0.48136 0.82248 0.0
N663 N 0.39552 0.48244 0.98718 0.0
C664 C 0.40065 0.49085 0.90217 0.0
H665 H 0.37877 0.45702 1.00929 0.0
Co666 Co 0.40192 0.48833 0.11752 0.0
C667 C 0.41951 0.52438 0.10862 0.0
O668 O 0.40902 0.52468 0.16995 0.0
N669 N 0.40846 0.49409 0.24982 0.0
C670 C 0.42467 0.5045 0.37942 0.0
C671 C 0.42401 0.50351 0.27907 0.0
C672 C 0.3999 0.4894 0.33466 0.0
N673 N 0.40948 0.49561 0.41501 0.0
O674 O 0.38412 0.4927 0.13341 0.0
H675 H 0.43437 0.50902 0.23041 0.0
H676 H 0.38691 0.48145 0.33782 0.0
O677 O 0.41739 0.51072 0.0788 0.0
C678 C 0.37133 0.47992 0.16239 0.0
O679 O 0.3723 0.4669 0.18163 0.0
N680 N 0.41786 0.48231 0.10147 0.0
C681 C 0.43712 0.46812 0.06901 0.0
C682 C 0.44022 0.48229 0.01911 0.0
C683 C 0.43034 0.48912 0.03568 0.0
C684 C 0.4149 0.46877 0.15219 0.0
C685 C 0.42441 0.46153 0.13748 0.0
H686 H 0.43228 0.4994 0.99221 0.0
H687 H 0.40475 0.46327 0.20236 0.0
H688 H 0.40961 0.50361 0.89877 0.0
H689 H 0.37647 0.45555 0.81657 0.0
H690 H 0.43565 0.51084 0.42256 0.0
H691 H 0.4497 0.48763 0.96432 0.0
H692 H 0.42162 0.45068 0.17825 0.0
C693 C 0.25475 0.20476 0.73191 0.0
C694 C 0.25356 0.2054 0.83196 0.0
N695 N 0.24617 0.19014 0.86765 0.0
N696 N 0.24822 0.18918 0.70343 0.0
C697 C 0.24281 0.18051 0.78755 0.0
H698 H 0.26071 0.21506 0.68324 0.0
Co699 Co 0.24904 0.18313 0.5728 0.0
C700 C 0.24783 0.15146 0.63108 0.0
O701 O 0.26367 0.15818 0.62761 0.0
N702 N 0.2494 0.17709 0.43944 0.0
C703 C 0.2533 0.16588 0.30638 0.0
C704 C 0.25444 0.16694 0.40651 0.0
C705 C 0.24533 0.1821 0.35632 0.0
N706 N 0.24753 0.17541 0.27409 0.0
O707 O 0.22689 0.17878 0.5564 0.0
H708 H 0.25935 0.1611 0.45111 0.0
H709 H 0.24095 0.19062 0.35581 0.0
O710 O 0.24094 0.15985 0.6116 0.0
C711 C 0.22722 0.19201 0.53399 0.0
O712 O 0.2414 0.20504 0.51926 0.0
N713 N 0.27179 0.18991 0.58943 0.0
C714 C 0.30565 0.20536 0.61715 0.0
C715 C 0.29492 0.19654 0.69282 0.0
C716 C 0.27818 0.18917 0.6781 0.0
C717 C 0.28219 0.19888 0.51575 0.0
C718 C 0.29909 0.20634 0.52724 0.0
H719 H 0.27039 0.18258 0.7386 0.0
H720 H 0.27756 0.20094 0.44837 0.0
H721 H 0.23721 0.16745 0.7903 0.0
H722 H 0.25863 0.21638 0.87525 0.0
H723 H 0.25711 0.15909 0.26084 0.0
H724 H 0.29943 0.19545 0.76364 0.0
H725 H 0.30694 0.21348 0.46773 0.0
C726 C 0.80318 0.05096 0.70466 0.0
C727 C 0.80245 0.04967 0.80509 0.0
N728 N 0.81757 0.05883 0.84167 0.0
N729 N 0.81867 0.06086 0.67696 0.0
C730 C 0.82719 0.06541 0.76195 0.0
H731 H 0.79296 0.04549 0.65497 0.0
Co732 Co 0.82475 0.06728 0.54651 0.0
C733 C 0.8609 0.08513 0.55884 0.0
O734 O 0.8616 0.07475 0.49843 0.0
N735 N 0.83069 0.07376 0.41428 0.0
C736 C 0.84139 0.08974 0.2842 0.0
C737 C 0.8404 0.08921 0.38458 0.0
C738 C 0.82581 0.06512 0.32971 0.0
N739 N 0.8322 0.07456 0.24907 0.0
O740 O 0.82919 0.04956 0.53139 0.0
H741 H 0.84608 0.0996 0.43289 0.0
H742 H 0.81758 0.0522 0.32699 0.0
O743 O 0.84705 0.08279 0.58648 0.0
C744 C 0.81634 0.03673 0.5036 0.0
O745 O 0.80323 0.03763 0.48572 0.0
N746 N 0.81876 0.08331 0.56172 0.0
C747 C 0.80489 0.1028 0.59467 0.0
C748 C 0.81785 0.10449 0.6525 0.0
C749 C 0.82468 0.09467 0.63457 0.0
C750 C 0.80632 0.08167 0.50387 0.0
C751 C 0.79936 0.09146 0.51813 0.0
H752 H 0.83418 0.0957 0.68247 0.0
H753 H 0.80139 0.07232 0.44831 0.0
H754 H 0.84013 0.07372 0.76538 0.0
H755 H 0.79146 0.04307 0.84773 0.0
H756 H 0.84792 0.10063 0.24066 0.0
H757 H 0.82243 0.11307 0.71254 0.0
H758 H 0.78921 0.08961 0.47281 0.0
C759 C 0.9568 0.75124 0.71977 0.0
C760 C 0.95816 0.75183 0.82019 0.0
N761 N 0.9497 0.75857 0.85658 0.0
N762 N 0.94753 0.75757 0.69196 0.0
C763 C 0.94345 0.76202 0.77677 0.0
H764 H 0.96187 0.74609 0.67007 0.0
Co765 Co 0.94162 0.75809 0.56143 0.0
C766 C 0.92342 0.77605 0.57961 0.0
O767 O 0.93428 0.78798 0.52567 0.0
N768 N 0.93563 0.75843 0.429 0.0
C769 C 0.91987 0.75376 0.29831 0.0
C770 C 0.92026 0.75313 0.39857 0.0
C771 C 0.94435 0.76206 0.34481 0.0
N772 N 0.93503 0.75937 0.26382 0.0
O773 O 0.9593 0.78034 0.55288 0.0
H774 H 0.90978 0.74843 0.44616 0.0
H775 H 0.95722 0.76628 0.34262 0.0
O776 O 0.92569 0.76429 0.60243 0.0
C777 C 0.97225 0.78038 0.52687 0.0
O778 O 0.97123 0.76647 0.50473 0.0
N779 N 0.92574 0.73597 0.57039 0.0
C780 C 0.90663 0.70225 0.59296 0.0
C781 C 0.90441 0.71291 0.65388 0.0
C782 C 0.91409 0.72972 0.64145 0.0
C783 C 0.92789 0.72587 0.50933 0.0
C784 C 0.91833 0.70903 0.51831 0.0
H785 H 0.91279 0.73768 0.69236 0.0
H786 H 0.93743 0.73092 0.45495 0.0
H787 H 0.93581 0.76744 0.77994 0.0
H788 H 0.96439 0.74702 0.86296 0.0
H789 H 0.90904 0.74964 0.25426 0.0
H790 H 0.89582 0.70839 0.71383 0.0
H791 H 0.92039 0.70143 0.46823 0.0
C792 C 0.4704 0.08798 0.06929 0.0
C793 C 0.46965 0.08836 0.16978 0.0
N794 N 0.48464 0.09354 0.20654 0.0
N795 N 0.48578 0.09296 0.04168 0.0
C796 C 0.4942 0.0963 0.12687 0.0
H797 H 0.46023 0.08375 0.01955 0.0
Co798 Co 0.4919 0.09259 0.91142 0.0
C799 C 0.52819 0.11167 0.92056 0.0
O800 O 0.52884 0.1213 0.84957 0.0
N801 N 0.49784 0.09189 0.77944 0.0
C802 C 0.50854 0.08643 0.65001 0.0
C803 C 0.50762 0.08617 0.75043 0.0
C804 C 0.49287 0.09544 0.69444 0.0
N805 N 0.49925 0.09227 0.61416 0.0
O806 O 0.4953 0.11434 0.89342 0.0
H807 H 0.51344 0.08168 0.79931 0.0
H808 H 0.4846 0.10009 0.69115 0.0
O809 O 0.51438 0.1006 0.95179 0.0
C810 C 0.48214 0.11362 0.86476 0.0
O811 O 0.46943 0.0993 0.8476 0.0
N812 N 0.48686 0.07094 0.92928 0.0
C813 C 0.47376 0.03774 0.96542 0.0
C814 C 0.48818 0.04927 1.01154 0.0
C815 C 0.49448 0.06585 0.99305 0.0
C816 C 0.47315 0.05993 0.88161 0.0
C817 C 0.46645 0.0433 0.89814 0.0
H818 H 0.50503 0.07451 0.03345 0.0
H819 H 0.46708 0.06414 0.83267 0.0
H820 H 0.50702 0.10032 0.13048 0.0
H821 H 0.4587 0.08438 0.21225 0.0
H822 H 0.51514 0.08208 0.60704 0.0
H823 H 0.49412 0.04559 0.06508 0.0
H824 H 0.45541 0.03489 0.85995 0.0
C825 C 0.91627 0.38099 0.08014 0.0
C826 C 0.91587 0.37988 0.18063 0.0
N827 N 0.91132 0.39018 0.2172 0.0
N828 N 0.91194 0.39188 0.05235 0.0
C829 C 0.90898 0.39728 0.13743 0.0
H830 H 0.92008 0.37467 0.03052 0.0
Co831 Co 0.91252 0.39842 0.92203 0.0
C832 C 0.89489 0.41713 0.93169 0.0
O833 O 0.88491 0.40836 0.86139 0.0
N834 N 0.91344 0.40515 0.78995 0.0
C835 C 0.9196 0.42144 0.66057 0.0
C836 C 0.91982 0.42073 0.76098 0.0
C837 C 0.90955 0.39664 0.7049 0.0
N838 N 0.91314 0.40626 0.62467 0.0
O839 O 0.8904 0.38077 0.90476 0.0
H840 H 0.92474 0.43105 0.80987 0.0
H841 H 0.90436 0.38365 0.70149 0.0
O842 O 0.90557 0.41376 0.96253 0.0
C843 C 0.8908 0.36819 0.87577 0.0
O844 O 0.905 0.3695 0.85833 0.0
N845 N 0.93446 0.41419 0.93889 0.0
C846 C 0.96802 0.43344 0.96817 0.0
C847 C 0.95708 0.43711 1.01526 0.0
C848 C 0.94032 0.42726 1.0002 0.0
C849 C 0.94484 0.41051 0.89196 0.0
C850 C 0.96162 0.41996 0.90526 0.0
H851 H 0.93214 0.42992 0.04011 0.0
H852 H 0.93999 0.39985 0.84581 0.0
H853 H 0.9055 0.40648 0.1409 0.0
H854 H 0.91938 0.37254 0.22322 0.0
H855 H 0.92443 0.43244 0.61765 0.0
H856 H 0.96139 0.44742 0.06406 0.0
H857 H 0.96944 0.41635 0.8689 0.0
C858 C 0.62424 0.53819 0.0499 0.0
C859 C 0.62602 0.53885 0.15006 0.0
N860 N 0.61792 0.52361 0.18602 0.0
N861 N 0.61499 0.52263 0.02168 0.0
C862 C 0.61158 0.51398 0.106 0.0
H863 H 0.62876 0.54848 1.00096 0.0
Co864 Co 0.60798 0.51648 0.89132 0.0
C865 C 0.57727 0.48516 0.95066 0.0
O866 O 0.56824 0.49194 0.94301 0.0
N867 N 0.60144 0.51035 0.75785 0.0
C868 C 0.58632 0.49918 0.62461 0.0
C869 C 0.58626 0.50017 0.72479 0.0
C870 C 0.6105 0.51546 0.67461 0.0
N871 N 0.60159 0.50878 0.59232 0.0
O872 O 0.62552 0.51178 0.87519 0.0
H873 H 0.57552 0.49423 0.76919 0.0
H874 H 0.62337 0.52403 0.67394 0.0
O875 O 0.59258 0.49335 0.9319 0.0
C876 C 0.63846 0.52472 0.84964 0.0
O877 O 0.63761 0.53789 0.83334 0.0
N878 N 0.59227 0.52355 0.90759 0.0
C879 C 0.57393 0.53908 0.93426 0.0
C880 C 0.5757 0.53018 1.01005 0.0
C881 C 0.58507 0.5228 0.99592 0.0
C882 C 0.59098 0.53259 0.83382 0.0
C883 C 0.58162 0.54013 0.84482 0.0
H884 H 0.58615 0.51613 0.05642 0.0
H885 H 0.59773 0.53463 0.76671 0.0
H886 H 0.60396 0.50093 0.10893 0.0
H887 H 0.63206 0.54984 0.19318 0.0
H888 H 0.57571 0.49235 0.57907 0.0
H889 H 0.56998 0.52899 0.08046 0.0
H890 H 0.58103 0.54733 0.78522 0.0
C891 C 0.75541 0.8012 0.30678 0.0
C892 C 0.75657 0.80054 0.2067 0.0
N893 N 0.76396 0.81579 0.17091 0.0
N894 N 0.76196 0.81678 0.33514 0.0
C895 C 0.76733 0.82543 0.25096 0.0
H896 H 0.7495 0.79091 0.3556 0.0
Co897 Co 0.76135 0.82294 0.46573 0.0
C898 C 0.76215 0.85441 0.40677 0.0
O899 O 0.74632 0.8476 0.41179 0.0
N900 N 0.7612 0.82911 0.59909 0.0
C901 C 0.75743 0.84039 0.73221 0.0
C902 C 0.75628 0.83934 0.63211 0.0
C903 C 0.76522 0.82402 0.68217 0.0
N904 N 0.76308 0.83076 0.76443 0.0
O905 O 0.78358 0.82747 0.48045 0.0
H906 H 0.75141 0.84524 0.58766 0.0
H907 H 0.76946 0.8154 0.68264 0.0
O908 O 0.76919 0.84616 0.42599 0.0
C909 C 0.78337 0.81431 0.5032 0.0
O910 O 0.76925 0.80127 0.51928 0.0
N911 N 0.73855 0.81596 0.45089 0.0
C912 C 0.7046 0.80028 0.42633 0.0
C913 C 0.71512 0.80911 0.34978 0.0
C914 C 0.73191 0.81656 0.36286 0.0
C915 C 0.72836 0.80699 0.52535 0.0
C916 C 0.71144 0.79939 0.51541 0.0
H917 H 0.73954 0.82311 0.30167 0.0
H918 H 0.7332 0.80501 0.59217 0.0
H919 H 0.77299 0.8385 0.24819 0.0
H920 H 0.75151 0.78954 0.16351 0.0
H921 H 0.75367 0.84723 0.7778 0.0
H922 H 0.71042 0.81015 0.27954 0.0
H923 H 0.70379 0.79224 0.57556 0.0
C924 C 0.20613 0.95649 0.30434 0.0
C925 C 0.20678 0.95773 0.20397 0.0
N926 N 0.19185 0.94765 0.16748 0.0
N927 N 0.19088 0.94573 0.3322 0.0
C928 C 0.18241 0.94058 0.24725 0.0
H929 H 0.21633 0.96255 0.3538 0.0
Co930 Co 0.18531 0.93905 0.46262 0.0
C931 C 0.14921 0.92115 0.45899 0.0
O932 O 0.14904 0.93143 0.52252 0.0
N933 N 0.17992 0.93227 0.59491 0.0
C934 C 0.16987 0.91602 0.72447 0.0
C935 C 0.17088 0.91669 0.62408 0.0
C936 C 0.18435 0.94084 0.67978 0.0
N937 N 0.17835 0.93124 0.7601 0.0
O938 O 0.18091 0.95673 0.48258 0.0
H939 H 0.16556 0.90635 0.57529 0.0
H940 H 0.1919 0.95386 0.68295 0.0
O941 O 0.16281 0.92359 0.4256 0.0
C942 C 0.19383 0.96948 0.51047 0.0
O943 O 0.20698 0.96853 0.52584 0.0
N944 N 0.19132 0.92315 0.44252 0.0
C945 C 0.20526 0.90389 0.40247 0.0
C946 C 0.19141 0.90157 0.35155 0.0
C947 C 0.18463 0.91133 0.37258 0.0
C948 C 0.20462 0.92545 0.4937 0.0
C949 C 0.21169 0.91586 0.47558 0.0
H950 H 0.17445 0.90982 0.32947 0.0
H951 H 0.2101 0.93516 0.54686 0.0
H952 H 0.16968 0.93147 0.24387 0.0
H953 H 0.21765 0.96492 0.16127 0.0
H954 H 0.16375 0.90504 0.76759 0.0
H955 H 0.18601 0.89246 0.2947 0.0
H956 H 0.22252 0.91829 0.51564 0.0
C957 C 0.05359 0.25491 0.30823 0.0
C958 C 0.05223 0.25431 0.20783 0.0
N959 N 0.06077 0.24765 0.17147 0.0
N960 N 0.06293 0.24867 0.3361 0.0
C961 C 0.06707 0.24426 0.2513 0.0
H962 H 0.04849 0.26004 0.35786 0.0
Co963 Co 0.06891 0.24829 0.46668 0.0
C964 C 0.087 0.23024 0.44965 0.0
O965 O 0.07613 0.21841 0.5041 0.0
N966 N 0.07497 0.24809 0.59907 0.0
C967 C 0.09076 0.25286 0.72971 0.0
C968 C 0.09036 0.25349 0.62944 0.0
C969 C 0.06625 0.24441 0.68325 0.0
N970 N 0.07558 0.24716 0.76422 0.0
O971 O 0.05123 0.22605 0.47634 0.0
H972 H 0.10083 0.25821 0.58177 0.0
H973 H 0.05336 0.24009 0.68541 0.0
O974 O 0.0848 0.24201 0.42606 0.0
C975 C 0.0383 0.22609 0.5017 0.0
O976 O 0.03934 0.24006 0.52232 0.0
N977 N 0.08479 0.2704 0.45673 0.0
C978 C 0.10378 0.30409 0.43219 0.0
C979 C 0.10605 0.29337 0.37216 0.0
C980 C 0.09643 0.27657 0.38557 0.0
C981 C 0.08261 0.28056 0.51702 0.0
C982 C 0.09211 0.29739 0.50705 0.0
H983 H 0.09776 0.26856 0.3353 0.0
H984 H 0.07309 0.27557 0.5715 0.0
H985 H 0.0748 0.23894 0.24814 0.0
H986 H 0.04597 0.25907 0.16503 0.0
H987 H 0.1016 0.25702 0.77373 0.0
H988 H 0.11462 0.29782 0.31212 0.0
H989 H 0.09001 0.30504 0.55653 0.0
C990 C 0.19662 0.23637 0.28324 0.0
C991 C 0.19552 0.23446 0.18327 0.0
N992 N 0.1844 0.23814 0.1499 0.0
N993 N 0.18614 0.24107 0.31418 0.0
C994 C 0.17885 0.24206 0.23103 0.0
H995 H 0.20515 0.23516 0.32987 0.0
Co996 Co 0.18539 0.24697 0.44484 0.0
C997 C 0.15309 0.24442 0.47312 0.0
O998 O 0.16022 0.2574 0.52843 0.0
N999 N 0.18522 0.25313 0.58022 0.0
C1000 C 0.1894 0.26779 0.7163 0.0
C1001 C 0.19108 0.26832 0.61652 0.0
C1002 C 0.18008 0.24361 0.66187 0.0
N1003 N 0.18256 0.25227 0.74541 0.0
O1004 O 0.18153 0.22566 0.48599 0.0
H1005 H 0.19619 0.27936 0.57453 0.0
H1006 H 0.17469 0.23056 0.66065 0.0
O1007 O 0.16156 0.23889 0.43284 0.0
C1008 C 0.19419 0.2264 0.52418 0.0
O1009 O 0.2069 0.24077 0.54044 0.0
N1010 N 0.19141 0.26811 0.40034 0.0
C1011 C 0.20615 0.30047 0.33713 0.0
C1012 C 0.18938 0.28989 0.3248 0.0
C1013 C 0.18228 0.27369 0.35556 0.0
C1014 C 0.20782 0.27792 0.40748 0.0
C1015 C 0.21537 0.29415 0.37852 0.0
H1016 H 0.16959 0.26571 0.34047 0.0
H1017 H 0.21505 0.27318 0.43908 0.0
H1018 H 0.17 0.24604 0.22953 0.0
H1019 H 0.20309 0.23157 0.1381 0.0
H1020 H 0.19346 0.27818 0.7642 0.0
H1021 H 0.18183 0.29396 0.28962 0.0
H1022 H 0.22832 0.3017 0.39018 0.0
C1023 C 0.75778 0.95569 0.29268 0.0
C1024 C 0.75823 0.95688 0.19221 0.0
N1025 N 0.76366 0.94728 0.15567 0.0
N1026 N 0.76294 0.94544 0.32046 0.0
C1027 C 0.7665 0.94055 0.23543 0.0
H1028 H 0.75336 0.96147 0.3423 0.0
Co1029 Co 0.76252 0.93896 0.45082 0.0
C1030 C 0.781 0.92114 0.44222 0.0
O1031 O 0.79094 0.93032 0.51154 0.0
N1032 N 0.7618 0.93235 0.58302 0.0
C1033 C 0.75618 0.91622 0.71274 0.0
C1034 C 0.75585 0.91685 0.61232 0.0
C1035 C 0.76555 0.94091 0.66788 0.0
N1036 N 0.76228 0.93138 0.7483 0.0
O1037 O 0.78445 0.95703 0.46795 0.0
H1038 H 0.75115 0.90651 0.56364 0.0
H1039 H 0.7704 0.95386 0.67101 0.0
O1040 O 0.77001 0.92403 0.41078 0.0
C1041 C 0.7839 0.96955 0.49639 0.0
O1042 O 0.76964 0.96808 0.51405 0.0
N1043 N 0.7407 0.92265 0.43361 0.0
C1044 C 0.70738 0.90267 0.39948 0.0
C1045 C 0.71885 0.90046 0.34715 0.0
C1046 C 0.73547 0.91058 0.36525 0.0
C1047 C 0.72976 0.92486 0.48604 0.0
C1048 C 0.71306 0.91492 0.47087 0.0
H1049 H 0.74407 0.9091 0.32137 0.0
H1050 H 0.73406 0.93474 0.53795 0.0
H1051 H 0.77071 0.9319 0.23198 0.0
H1052 H 0.75413 0.96373 0.14956 0.0
H1053 H 0.75167 0.90528 0.75595 0.0
H1054 H 0.71503 0.89114 0.29154 0.0
H1055 H 0.7047 0.91728 0.51187 0.0
C1056 C 0.04851 0.8063 0.31916 0.0
C1057 C 0.04714 0.80696 0.21923 0.0
N1058 N 0.06035 0.82036 0.18545 0.0
N1059 N 0.06247 0.81926 0.34933 0.0
C1060 C 0.06941 0.82767 0.26616 0.0
H1061 H 0.04011 0.79664 0.36658 0.0
Co1062 Co 0.06961 0.82205 0.47979 0.0
C1063 C 0.09948 0.85481 0.48375 0.0
O1064 O 0.1071 0.84854 0.53029 0.0
N1065 N 0.07658 0.82446 0.61612 0.0
C1066 C 0.08963 0.8245 0.75288 0.0
C1067 C 0.0889 0.82276 0.65328 0.0
C1068 C 0.07001 0.82721 0.69765 0.0
N1069 N 0.0777 0.82721 0.78141 0.0
O1070 O 0.05193 0.82589 0.51371 0.0
H1071 H 0.09724 0.82053 0.61177 0.0
H1072 H 0.05972 0.82911 0.69662 0.0
O1073 O 0.08465 0.84574 0.45702 0.0
C1074 C 0.03971 0.81323 0.54914 0.0
O1075 O 0.04137 0.80068 0.57085 0.0
N1076 N 0.08502 0.81596 0.44188 0.0
C1077 C 0.1038 0.80193 0.39128 0.0
C1078 C 0.10754 0.81715 0.35398 0.0
C1079 C 0.09791 0.82393 0.37959 0.0
C1080 C 0.08056 0.80063 0.47242 0.0
C1081 C 0.09003 0.79359 0.45049 0.0
H1082 H 0.10079 0.83546 0.34824 0.0
H1083 H 0.06975 0.79401 0.51664 0.0
H1084 H 0.08104 0.83875 0.26439 0.0
H1085 H 0.03757 0.79776 0.17444 0.0
H1086 H 0.098 0.82325 0.80106 0.0
H1087 H 0.11785 0.82377 0.30584 0.0
H1088 H 0.08644 0.78159 0.47822 0.0
C1089 C 0.92168 0.53731 0.0864 0.0
C1090 C 0.92038 0.53786 0.18636 0.0
N1091 N 0.91337 0.52261 0.22181 0.0
N1092 N 0.91556 0.52179 0.0577 0.0
C1093 C 0.91034 0.51305 0.14168 0.0
H1094 H 0.92745 0.54766 0.03794 0.0
Co1095 Co 0.91678 0.51611 0.927 0.0
C1096 C 0.9152 0.48403 0.98032 0.0
O1097 O 0.93102 0.49054 0.97753 0.0
N1098 N 0.91767 0.51049 0.79334 0.0
C1099 C 0.92268 0.50013 0.66025 0.0
C1100 C 0.92382 0.50128 0.76033 0.0
C1101 C 0.91295 0.51489 0.71026 0.0
N1102 N 0.9158 0.50867 0.62807 0.0
O1103 O 0.89467 0.51178 0.90827 0.0
H1104 H 0.92951 0.4962 0.80488 0.0
H1105 H 0.90762 0.5226 0.70964 0.0
O1106 O 0.90854 0.49269 0.96304 0.0
C1107 C 0.89502 0.52502 0.88619 0.0
O1108 O 0.90921 0.53809 0.87242 0.0
N1109 N 0.93939 0.52289 0.94637 0.0
C1110 C 0.97321 0.53836 0.97778 0.0
C1111 C 0.96221 0.52846 0.04988 0.0
C1112 C 0.94549 0.52125 0.03385 0.0
C1113 C 0.94996 0.53291 0.87656 0.0
C1114 C 0.96681 0.54051 0.88999 0.0
H1115 H 0.93748 0.51402 0.09206 0.0
H1116 H 0.94541 0.53564 0.81101 0.0
H1117 H 0.90513 0.50003 0.14435 0.0
H1118 H 0.92516 0.54881 0.22986 0.0
H1119 H 0.92724 0.49399 0.6146 0.0
H1120 H 0.96643 0.52633 0.11892 0.0
H1121 H 0.97472 0.54853 0.8334 0.0
C1122 C 0.4721 0.38313 0.08133 0.0
C1123 C 0.4714 0.38193 0.18174 0.0
N1124 N 0.48637 0.39182 0.21834 0.0
N1125 N 0.48743 0.39367 0.05361 0.0
C1126 C 0.49588 0.39876 0.13865 0.0
H1127 H 0.46192 0.37713 0.03169 0.0
Co1128 Co 0.49338 0.40005 0.92319 0.0
C1129 C 0.52955 0.41821 0.93122 0.0
O1130 O 0.53021 0.40867 0.86403 0.0
N1131 N 0.49915 0.40659 0.79105 0.0
C1132 C 0.5094 0.42277 0.66139 0.0
C1133 C 0.50841 0.42214 0.76172 0.0
C1134 C 0.49452 0.398 0.70629 0.0
N1135 N 0.50065 0.40757 0.62589 0.0
O1136 O 0.49784 0.38238 0.90752 0.0
H1137 H 0.51382 0.4325 0.81032 0.0
H1138 H 0.48667 0.38501 0.70332 0.0
O1139 O 0.51572 0.41542 0.96276 0.0
C1140 C 0.48482 0.36962 0.88105 0.0
O1141 O 0.47186 0.37078 0.86303 0.0
N1142 N 0.48724 0.41587 0.93907 0.0
C1143 C 0.47237 0.43444 0.97317 0.0
C1144 C 0.48706 0.43826 0.01953 0.0
C1145 C 0.49425 0.42872 1.00217 0.0
C1146 C 0.47325 0.41227 0.89129 0.0
C1147 C 0.46565 0.42141 0.90691 0.0
H1148 H 0.50499 0.43125 0.04291 0.0
H1149 H 0.46766 0.40186 0.84314 0.0
H1150 H 0.50867 0.40765 0.14211 0.0
H1151 H 0.46049 0.37484 0.2243 0.0
H1152 H 0.51562 0.43373 0.61816 0.0
H1153 H 0.49256 0.44804 0.07231 0.0
H1154 H 0.45442 0.41809 0.86873 0.0
C1155 C 0.62273 0.08656 0.07494 0.0
C1156 C 0.6246 0.08788 0.17491 0.0
N1157 N 0.61636 0.09491 0.21025 0.0
N1158 N 0.61334 0.0927 0.04614 0.0
C1159 C 0.60983 0.09794 0.13005 0.0
H1160 H 0.62731 0.08077 0.02654 0.0
Co1161 Co 0.60643 0.09148 0.91542 0.0
C1162 C 0.57592 0.09309 0.96806 0.0
O1163 O 0.5666 0.07731 0.96375 0.0
N1164 N 0.59989 0.0906 0.78157 0.0
C1165 C 0.58452 0.08553 0.64822 0.0
C1166 C 0.58452 0.08437 0.74829 0.0
C1167 C 0.60902 0.09537 0.69857 0.0
N1168 N 0.59995 0.09248 0.61626 0.0
O1169 O 0.6242 0.11349 0.8968 0.0
H1170 H 0.57375 0.07861 0.79257 0.0
H1171 H 0.62207 0.10076 0.69803 0.0
O1172 O 0.59128 0.09977 0.95151 0.0
C1173 C 0.63699 0.11295 0.8743 0.0
O1174 O 0.63567 0.09869 0.85997 0.0
N1175 N 0.5906 0.06898 0.93482 0.0
C1176 C 0.5721 0.03532 0.96566 0.0
C1177 C 0.57312 0.04624 0.03772 0.0
C1178 C 0.58275 0.06292 0.02207 0.0
C1179 C 0.59015 0.05841 0.86529 0.0
C1180 C 0.58084 0.0416 0.87861 0.0
H1181 H 0.58358 0.07095 0.08033 0.0
H1182 H 0.59748 0.06294 0.8 0.0
H1183 H 0.60202 0.10318 0.13265 0.0
H1184 H 0.63077 0.08309 0.2185 0.0
H1185 H 0.57382 0.08091 0.60243 0.0
H1186 H 0.56699 0.04194 0.10732 0.0
H1187 H 0.58069 0.03359 0.82178 0.0
C1188 C 0.14625 0.47044 0.21848 0.0
C1189 C 0.1464 0.46157 0.13648 0.0
H1190 H 0.13632 0.48432 0.28209 0.0
C1191 C 0.13971 0.46316 0.04824 0.0
H1192 H 0.15094 0.46912 0.28808 0.0
C1193 C 0.1317 0.47216 0.0443 0.0
C1194 C 0.12998 0.47956 0.12886 0.0
H1195 H 0.13935 0.4562 0.98452 0.0
H1196 H 0.12531 0.47181 0.97778 0.0
C1197 C 0.13791 0.4792 0.21502 0.0
C1198 C 0.53031 0.65963 0.26997 0.0
C1199 C 0.52701 0.65196 0.17819 0.0
H1200 H 0.54229 0.68215 0.34844 0.0
C1201 C 0.53083 0.66157 0.09347 0.0
H1202 H 0.52785 0.65253 0.33635 0.0
C1203 C 0.53964 0.67856 0.10029 0.0
C1204 C 0.54428 0.68622 0.192 0.0
H1205 H 0.52871 0.65603 0.02177 0.0
H1206 H 0.54414 0.68564 0.0338 0.0
C1207 C 0.53864 0.67662 0.27682 0.0
C1208 C 0.34977 0.87486 0.10011 0.0
C1209 C 0.3587 0.87987 0.18768 0.0
H1210 H 0.32618 0.8646 0.03351 0.0
C1211 C 0.35026 0.87519 0.27707 0.0
H1212 H 0.35595 0.87879 0.03032 0.0
C1213 C 0.3332 0.86678 0.27891 0.0
C1214 C 0.3243 0.86321 0.19136 0.0
H1215 H 0.35684 0.87935 0.34554 0.0
H1216 H 0.32706 0.86471 0.34873 0.0
C1217 C 0.33272 0.86675 0.10196 0.0
C1218 C 0.47637 0.13246 0.76975 0.0
C1219 C 0.47975 0.12782 0.86054 0.0
H1220 H 0.46391 0.14285 0.69393 0.0
C1221 C 0.47545 0.13285 0.94653 0.0
H1222 H 0.47906 0.12826 0.70239 0.0
C1223 C 0.46651 0.14095 0.94164 0.0
C1224 C 0.46199 0.14442 0.85074 0.0
H1225 H 0.4774 0.12895 0.01729 0.0
H1226 H 0.46183 0.14312 1.0088 0.0
C1227 C 0.46769 0.14083 0.76489 0.0
C1228 C 0.86354 0.32656 0.77805 0.0
C1229 C 0.8601 0.31742 0.86446 0.0
H1230 H 0.87595 0.35037 0.71422 0.0
C1231 C 0.86346 0.32553 0.95489 0.0
H1232 H 0.86159 0.32066 0.70747 0.0
C1233 C 0.87141 0.34254 0.9588 0.0
C1234 C 0.87642 0.35173 0.8723 0.0
H1235 H 0.86138 0.31881 0.02248 0.0
H1236 H 0.87532 0.34849 0.02927 0.0
C1237 C 0.87177 0.34358 0.78195 0.0
C1238 C 0.66393 0.53066 0.7642 0.0
C1239 C 0.65483 0.52646 0.85124 0.0
H1240 H 0.68766 0.54349 0.69912 0.0
C1241 C 0.66307 0.52952 0.94099 0.0
H1242 H 0.6579 0.52892 0.69419 0.0
C1243 C 0.68013 0.53815 0.94385 0.0
C1244 C 0.68923 0.54358 0.85699 0.0
H1245 H 0.6564 0.52694 1.00917 0.0
H1246 H 0.68616 0.54197 1.01418 0.0
C1247 C 0.68099 0.53899 0.76701 0.0
C1248 C 0.8789 0.53456 0.97689 0.0
C1249 C 0.8807 0.52723 0.89224 0.0
H1250 H 0.87102 0.55031 0.0369 0.0
C1251 C 0.87268 0.52748 0.8062 0.0
H1252 H 0.88534 0.53497 0.04332 0.0
C1253 C 0.86418 0.53607 0.80293 0.0
C1254 C 0.86395 0.54489 0.88498 0.0
H1255 H 0.87433 0.5224 0.73909 0.0
H1256 H 0.85943 0.53732 0.73339 0.0
C1257 C 0.87072 0.54338 0.97314 0.0
C1258 C 0.47343 0.32782 0.79733 0.0
C1259 C 0.46451 0.31881 0.87915 0.0
H1260 H 0.48733 0.35161 0.73397 0.0
C1261 C 0.46616 0.32703 0.96763 0.0
H1262 H 0.4721 0.32184 0.72764 0.0
C1263 C 0.4752 0.344 0.97182 0.0
C1264 C 0.48256 0.35311 0.88721 0.0
H1265 H 0.45917 0.32042 0.03123 0.0
H1266 H 0.47487 0.35003 0.03839 0.0
C1267 C 0.48221 0.34488 0.80098 0.0
C1268 C 0.66249 0.12887 0.96683 0.0
C1269 C 0.6536 0.12707 0.88098 0.0
H1270 H 0.68592 0.13645 0.02938 0.0
C1271 C 0.6621 0.13476 0.79502 0.0
H1272 H 0.65625 0.12264 0.03325 0.0
C1273 C 0.6792 0.14296 0.79319 0.0
C1274 C 0.68798 0.14319 0.87669 0.0
H1275 H 0.65555 0.13308 0.72709 0.0
H1276 H 0.68538 0.14747 0.72392 0.0
C1277 C 0.67949 0.13673 0.96452 0.0
C1278 C 0.53203 0.8706 0.11349 0.0
C1279 C 0.52874 0.8767 0.19876 0.0
H1280 H 0.54495 0.85957 0.05125 0.0
C1281 C 0.53303 0.87304 0.28984 0.0
H1282 H 0.52937 0.87372 0.04223 0.0
C1283 C 0.5417 0.86468 0.29512 0.0
C1284 C 0.54648 0.8601 0.20927 0.0
H1285 H 0.53109 0.87804 0.35641 0.0
H1286 H 0.54623 0.86347 0.36559 0.0
C1287 C 0.54098 0.86251 0.11866 0.0
C1288 C 0.13762 0.66467 0.04015 0.0
C1289 C 0.13487 0.65588 0.12747 0.0
H1290 H 0.14587 0.68804 0.9751 0.0
C1291 C 0.14163 0.66446 0.2148 0.0
H1292 H 0.13208 0.65837 0.97247 0.0
C1293 C 0.14983 0.68151 0.21604 0.0
C1294 C 0.15101 0.69021 0.13034 0.0
H1295 H 0.1392 0.65798 0.28361 0.0
H1296 H 0.15354 0.68775 0.28578 0.0
C1297 C 0.14548 0.68166 0.04172 0.0
C1298 C 0.34609 0.474 0.25057 0.0
C1299 C 0.35497 0.4782 0.16269 0.0
H1300 H 0.32252 0.46138 0.31766 0.0
C1301 C 0.34654 0.47537 0.07381 0.0
H1302 H 0.35227 0.47559 0.31989 0.0
C1303 C 0.32947 0.46695 0.07248 0.0
C1304 C 0.32057 0.46152 0.16005 0.0
H1305 H 0.35304 0.47797 1.00498 0.0
H1306 H 0.32326 0.46328 1.00262 0.0
C1307 C 0.32904 0.46589 0.24931 0.0
C1308 C 0.79914 0.80489 0.40763 0.0
C1309 C 0.79762 0.81205 0.49391 0.0
H1310 H 0.80667 0.78914 0.3434 0.0
C1311 C 0.80581 0.81151 0.5784 0.0
H1312 H 0.79255 0.80469 0.34234 0.0
C1313 C 0.81421 0.80281 0.57857 0.0
C1314 C 0.81414 0.79414 0.49496 0.0
H1315 H 0.80439 0.81645 0.64671 0.0
H1316 H 0.81911 0.80135 0.64697 0.0
C1317 C 0.8072 0.79593 0.40833 0.0
C1318 C 0.1991 0.99522 0.4323 0.0
C1319 C 0.19536 0.98569 0.51725 0.0
H1320 H 0.21178 0.01929 0.3722 0.0
C1321 C 0.1986 0.99342 0.6089 0.0
H1322 H 0.19726 0.98962 0.36082 0.0
C1323 C 0.20668 0.01042 0.61546 0.0
C1324 C 0.21191 0.01998 0.53043 0.0
H1325 H 0.19633 0.9864 0.67542 0.0
H1326 H 0.21045 0.01606 0.68684 0.0
C1327 C 0.20743 0.01222 0.43884 0.0
C1328 C 0.99647 0.20244 0.40033 0.0
C1329 C 0.98741 0.19539 0.48572 0.0
H1330 H 0.02014 0.21714 0.33779 0.0
C1331 C 0.99567 0.19527 0.57087 0.0
H1332 H 0.99044 0.20299 0.33427 0.0
C1333 C 0.01276 0.20369 0.57334 0.0
C1334 C 0.02181 0.21193 0.48999 0.0
H1335 H 0.98904 0.1903 0.63835 0.0
H1336 H 0.01886 0.20505 0.64269 0.0
C1337 C 0.01349 0.2105 0.40224 0.0
C1338 C 0.20487 0.19464 0.45588 0.0
C1339 C 0.21296 0.19429 0.54133 0.0
H1340 H 0.19162 0.20463 0.38458 0.0
C1341 C 0.2113 0.20158 0.62655 0.0
H1342 H 0.2064 0.18958 0.38835 0.0
C1343 C 0.20319 0.21049 0.62387 0.0
C1344 C 0.19635 0.2121 0.53629 0.0
H1345 H 0.2178 0.20192 0.69254 0.0
H1346 H 0.2036 0.21739 0.68803 0.0
C1347 C 0.19643 0.2033 0.45371 0.0
C1348 C 0.80331 0.99499 0.41103 0.0
C1349 C 0.79818 0.9861 0.49857 0.0
H1350 H 0.81356 0.01853 0.34424 0.0
C1351 C 0.80275 0.99456 0.58796 0.0
H1352 H 0.79946 0.98881 0.34121 0.0
C1353 C 0.8111 0.01159 0.58973 0.0
C1354 C 0.81472 0.02045 0.5021 0.0
H1355 H 0.79849 0.988 0.65639 0.0
H1356 H 0.81304 0.01773 0.65946 0.0
C1357 C 0.81137 0.01203 0.41279 0.0
C1358 C 0.99654 0.79629 0.63017 0.0
C1359 C 0.98873 0.7945 0.53994 0.0
H1360 H 0.01919 0.80399 0.70396 0.0
C1361 C 0.99826 0.80229 0.45718 0.0
H1362 H 0.98951 0.78997 0.69435 0.0
C1363 C 0.01532 0.81063 0.46307 0.0
C1364 C 0.02308 0.8109 0.55127 0.0
H1365 H 0.99256 0.80062 0.38612 0.0
H1366 H 0.02233 0.81523 0.39641 0.0
C1367 C 0.01354 0.80427 0.63559 0.0
C1368 C 0.1287 0.33004 0.37684 0.0
C1369 C 0.11267 0.322 0.4129 0.0
H1370 H 0.14871 0.35225 0.32374 0.0
C1371 C 0.1049 0.33115 0.42723 0.0
H1372 H 0.13521 0.32353 0.3659 0.0
C1373 C 0.11279 0.34771 0.40522 0.0
C1374 C 0.12864 0.35567 0.3667 0.0
H1375 H 0.0925 0.32547 0.45331 0.0
H1376 H 0.10635 0.35424 0.41811 0.0
C1377 C 0.13656 0.34663 0.35385 0.0
C1378 C 0.66334 0.77381 0.30863 0.0
C1379 C 0.6526 0.77355 0.38026 0.0
H1380 H 0.68799 0.78227 0.26721 0.0
C1381 C 0.65909 0.78239 0.4672 0.0
H1382 H 0.65876 0.76728 0.2404 0.0
C1383 C 0.67595 0.79106 0.48263 0.0
C1384 C 0.68666 0.79125 0.41084 0.0
H1385 H 0.65113 0.78237 0.52398 0.0
H1386 H 0.68061 0.79771 0.5504 0.0
C1387 C 0.68012 0.78255 0.3236 0.0
C1388 C 0.21587 0.89203 0.27744 0.0
C1389 C 0.21349 0.89455 0.37615 0.0
H1390 H 0.22623 0.88254 0.17583 0.0
C1391 C 0.21962 0.88864 0.44924 0.0
H1392 H 0.21146 0.89657 0.21926 0.0
C1393 C 0.22809 0.88061 0.42431 0.0
C1394 C 0.23078 0.8784 0.32561 0.0
H1395 H 0.21791 0.89027 0.52592 0.0
H1396 H 0.23291 0.8765 0.48253 0.0
C1397 C 0.22447 0.88413 0.2525 0.0
C1398 C 0.33193 0.11923 0.59162 0.0
C1399 C 0.31999 0.1132 0.66527 0.0
H1400 H 0.35733 0.13164 0.55723 0.0
C1401 C 0.32503 0.11588 0.76373 0.0
H1402 H 0.32847 0.11747 0.5151 0.0
C1403 C 0.34157 0.12399 0.78792 0.0
C1404 C 0.35351 0.12978 0.71428 0.0
H1405 H 0.31617 0.11127 0.82232 0.0
H1406 H 0.34503 0.12564 0.86444 0.0
C1407 C 0.34847 0.12748 0.61581 0.0
C1408 C 0.89306 0.21887 0.62163 0.0
C1409 C 0.89685 0.21081 0.69419 0.0
H1410 H 0.88152 0.2327 0.58734 0.0
C1411 C 0.89132 0.21031 0.79025 0.0
H1412 H 0.89712 0.21938 0.54694 0.0
C1413 C 0.88259 0.21816 0.81376 0.0
C1414 C 0.87889 0.22631 0.74114 0.0
H1415 H 0.89415 0.20425 0.84761 0.0
H1416 H 0.87874 0.21789 0.88869 0.0
C1417 C 0.88405 0.2264 0.64463 0.0
C1418 C 0.77992 0.67995 0.75631 0.0
C1419 C 0.79586 0.68791 0.71914 0.0
H1420 H 0.7595 0.65772 0.80329 0.0
C1421 C 0.80377 0.67884 0.70727 0.0
H1422 H 0.77347 0.6865 0.76835 0.0
C1423 C 0.79583 0.66224 0.73001 0.0
C1424 C 0.77972 0.65422 0.7649 0.0
H1425 H 0.81599 0.68446 0.67819 0.0
H1426 H 0.80233 0.6557 0.7199 0.0
C1427 C 0.77195 0.66338 0.77815 0.0
C1428 C 0.87369 0.65967 0.66926 0.0
C1429 C 0.88156 0.65059 0.65586 0.0
H1430 H 0.87515 0.68283 0.65844 0.0
C1431 C 0.89742 0.65855 0.61743 0.0
H1432 H 0.86154 0.65405 0.6993 0.0
C1433 C 0.90537 0.67513 0.59615 0.0
C1434 C 0.89766 0.68432 0.61118 0.0
H1435 H 0.90382 0.65199 0.60414 0.0
H1436 H 0.91778 0.6808 0.57018 0.0
C1437 C 0.88161 0.67629 0.64702 0.0
C1438 C 0.32983 0.22342 0.72071 0.0
C1439 C 0.32352 0.2143 0.63459 0.0
H1440 H 0.351 0.23898 0.8048 0.0
C1441 C 0.33438 0.21394 0.566 0.0
H1442 H 0.32182 0.22409 0.77456 0.0
C1443 C 0.35118 0.22245 0.58369 0.0
C1444 C 0.35745 0.23172 0.66943 0.0
H1445 H 0.32986 0.20696 0.49918 0.0
H1446 H 0.35929 0.22202 0.52958 0.0
C1447 C 0.34657 0.23206 0.73767 0.0
C1448 C 0.78191 0.11915 0.7374 0.0
C1449 C 0.77829 0.12731 0.66464 0.0
H1450 H 0.79336 0.10526 0.77241 0.0
C1451 C 0.78402 0.12793 0.56901 0.0
H1452 H 0.77768 0.11855 0.81177 0.0
C1453 C 0.79279 0.1201 0.54607 0.0
C1454 C 0.79632 0.11185 0.61889 0.0
H1455 H 0.78133 0.13408 0.51153 0.0
H1456 H 0.7968 0.12046 0.47143 0.0
C1457 C 0.79095 0.11165 0.71501 0.0
C1458 C 0.68428 0.88995 0.27864 0.0
C1459 C 0.68968 0.89293 0.37639 0.0
H1460 H 0.66391 0.87988 0.18066 0.0
C1461 C 0.67802 0.88719 0.45162 0.0
H1462 H 0.69291 0.89433 0.21885 0.0
C1463 C 0.6614 0.87892 0.42969 0.0
C1464 C 0.65599 0.8763 0.33193 0.0
H1465 H 0.68176 0.88918 0.52766 0.0
H1466 H 0.65278 0.875 0.48948 0.0
C1467 C 0.66765 0.8818 0.2567 0.0
C1468 C 0.12854 0.78078 0.41816 0.0
C1469 C 0.13119 0.77833 0.32005 0.0
H1470 H 0.11758 0.79001 0.51742 0.0
C1471 C 0.12538 0.78431 0.24554 0.0
H1472 H 0.1328 0.7762 0.47692 0.0
C1473 C 0.11695 0.79246 0.26866 0.0
C1474 C 0.11384 0.79444 0.3667 0.0
H1475 H 0.1273 0.78261 0.16932 0.0
H1476 H 0.11243 0.79677 0.20986 0.0
C1477 C 0.11978 0.78859 0.44123 0.0
C1478 C 0.21398 0.34348 0.29406 0.0
C1479 C 0.23004 0.35149 0.25839 0.0
H1480 H 0.19395 0.32134 0.34772 0.0
C1481 C 0.23786 0.34235 0.24578 0.0
H1482 H 0.20744 0.34999 0.30374 0.0
C1483 C 0.22999 0.32584 0.2689 0.0
C1484 C 0.21409 0.3179 0.30679 0.0
H1485 H 0.25028 0.34801 0.22011 0.0
H1486 H 0.23646 0.31931 0.25724 0.0
C1487 C 0.20613 0.32694 0.3181 0.0
C1488 C 0.99204 0.44931 0.08043 0.0
C1489 C 0.98591 0.44319 0.98655 0.0
H1490 H 0.01306 0.46236 0.17135 0.0
C1491 C 0.99704 0.44599 0.91086 0.0
H1492 H 0.98388 0.44726 0.14095 0.0
C1493 C 0.01378 0.45437 0.92877 0.0
C1494 C 0.01994 0.46036 0.02279 0.0
H1495 H 0.99285 0.44168 0.83733 0.0
H1496 H 0.02186 0.45585 0.86888 0.0
C1497 C 0.00882 0.45779 0.09826 0.0
C1498 C 0.55423 0.5481 0.88005 0.0
C1499 C 0.56493 0.54797 0.95096 0.0
H1500 H 0.53779 0.55653 0.84086 0.0
C1501 C 0.56711 0.55654 0.03873 0.0
H1502 H 0.55222 0.54154 0.81192 0.0
C1503 C 0.55891 0.56508 0.05514 0.0
C1504 C 0.54823 0.56525 0.98447 0.0
H1505 H 0.57538 0.55687 0.09446 0.0
H1506 H 0.56088 0.57151 0.12376 0.0
C1507 C 0.54587 0.55655 0.89694 0.0
C1508 C 0.467 0.99585 0.03401 0.0
C1509 C 0.45007 0.98699 0.04803 0.0
H1510 H 0.48781 0.0188 0.99712 0.0
C1511 C 0.4411 0.99491 0.03267 0.0
H1512 H 0.47428 0.99014 0.04541 0.0
C1513 C 0.44879 0.01123 1.00517 0.0
C1514 C 0.46573 0.02018 0.99214 0.0
H1515 H 0.42802 0.98844 0.04126 0.0
H1516 H 0.44145 0.01691 0.99573 0.0
C1517 C 0.47476 0.01229 1.00701 0.0
C1518 C 0.53896 0.99363 0.04936 0.0
C1519 C 0.54622 0.98411 0.03206 0.0
H1520 H 0.54149 0.01732 0.04213 0.0
C1521 C 0.5617 0.99141 0.98862 0.0
H1522 H 0.52707 0.98835 0.08295 0.0
C1523 C 0.56988 0.0079 0.9646 0.0
C1524 C 0.56284 0.01754 0.98445 0.0
H1525 H 0.56753 0.98434 0.97344 0.0
H1526 H 0.58192 0.01321 0.93305 0.0
C1527 C 0.54725 0.0102 0.02652 0.0
C1528 C 0.99743 0.55296 0.08983 0.0
C1529 C 0.99114 0.54696 0.99604 0.0
H1530 H 0.01849 0.56565 0.18028 0.0
C1531 C 1.00215 0.54951 0.91996 0.0
H1532 H 0.98943 0.55149 0.15019 0.0
C1533 C 0.01895 0.55798 0.93693 0.0
C1534 C 0.02522 0.56411 0.03057 0.0
H1535 H 0.99781 0.54493 0.84702 0.0
H1536 H 0.02701 0.56001 0.87591 0.0
C1537 C 0.01419 0.56133 0.1069 0.0
C1538 C 0.47181 0.46025 1.00828 0.0
C1539 C 0.46353 0.44327 0.99779 0.0
H1540 H 0.47001 0.48145 0.03879 0.0
C1541 C 0.44661 0.43461 1.01202 0.0
H1542 H 0.48482 0.46729 0.99747 0.0
C1543 C 0.43817 0.44268 0.03574 0.0
C1544 C 0.44637 0.45966 0.04562 0.0
H1545 H 0.43986 0.42151 1.00586 0.0
H1546 H 0.42511 0.43559 0.04497 0.0
C1547 C 0.4633 0.46837 0.03129 0.0
C1548 C 0.21063 0.42416 0.27 0.0
C1549 C 0.20666 0.435 0.22504 0.0
H1550 H 0.22911 0.41842 0.30459 0.0
C1551 C 0.21923 0.44967 0.18771 0.0
H1552 H 0.20114 0.41264 0.29811 0.0
C1553 C 0.2354 0.45291 0.18963 0.0
C1554 C 0.23925 0.44153 0.22915 0.0
H1555 H 0.21645 0.45808 0.15095 0.0
H1556 H 0.24471 0.46389 0.1552 0.0
C1557 C 0.22672 0.42745 0.27305 0.0
C1558 C 0.55818 0.77128 0.22795 0.0
C1559 C 0.57181 0.77259 0.27638 0.0
H1560 H 0.54494 0.78321 0.18723 0.0
C1561 C 0.58154 0.78651 0.33228 0.0
H1562 H 0.55071 0.7608 0.18263 0.0
C1563 C 0.5783 0.79933 0.33527 0.0
C1564 C 0.56542 0.79868 0.28058 0.0
H1565 H 0.59229 0.78792 0.36898 0.0
H1566 H 0.58652 0.81014 0.37567 0.0
C1567 C 0.55499 0.7842 0.23015 0.0
C1568 C 0.23921 0.78739 0.19724 0.0
C1569 C 0.2435 0.80141 0.25338 0.0
H1570 H 0.21978 0.7649 0.14052 0.0
C1571 C 0.2313 0.80193 0.30899 0.0
H1572 H 0.24824 0.78651 0.1535 0.0
C1573 C 0.21507 0.78959 0.301 0.0
C1574 C 0.21066 0.77625 0.23913 0.0
H1575 H 0.23407 0.81236 0.35389 0.0
H1576 H 0.2058 0.79099 0.33858 0.0
C1577 C 0.22292 0.77491 0.19019 0.0
C1578 C 0.45438 0.22053 0.84093 0.0
C1579 C 0.44466 0.20683 0.78238 0.0
H1580 H 0.45824 0.24337 0.89611 0.0
C1581 C 0.43286 0.20719 0.72161 0.0
H1582 H 0.46357 0.22073 0.88881 0.0
C1583 C 0.42995 0.22024 0.72554 0.0
C1584 C 0.43889 0.23333 0.78924 0.0
H1585 H 0.42521 0.19696 0.67514 0.0
H1586 H 0.41998 0.21958 0.68336 0.0
C1587 C 0.45144 0.23359 0.84477 0.0
C1588 C 0.7721 0.21607 0.83576 0.0
C1589 C 0.77392 0.20406 0.78736 0.0
H1590 H 0.78342 0.2411 0.87838 0.0
C1591 C 0.78812 0.2087 0.73315 0.0
H1592 H 0.76141 0.21273 0.8798 0.0
C1593 C 0.8007 0.22486 0.73201 0.0
C1594 C 0.79954 0.23676 0.78687 0.0
H1595 H 0.78992 0.19962 0.69648 0.0
H1596 H 0.81174 0.22779 0.69299 0.0
C1597 C 0.78479 0.23229 0.83542 0.0
C1598 C 0.79087 0.55635 0.83057 0.0
C1599 C 0.80345 0.5712 0.79539 0.0
H1600 H 0.76533 0.54185 0.86076 0.0
C1601 C 0.79947 0.58213 0.75175 0.0
H1602 H 0.79366 0.54786 0.86622 0.0
C1603 C 0.78335 0.57872 0.74792 0.0
C1604 C 0.77078 0.56443 0.78974 0.0
H1605 H 0.80896 0.59377 0.72521 0.0
H1606 H 0.78094 0.58781 0.71747 0.0
C1607 C 0.77466 0.55299 0.82794 0.0
C1608 C 0.89429 0.7597 0.63303 0.0
C1609 C 0.90696 0.77416 0.59348 0.0
H1610 H 0.86862 0.74452 0.65253 0.0
C1611 C 0.90316 0.7857 0.55609 0.0
H1612 H 0.89663 0.75053 0.66278 0.0
C1613 C 0.88695 0.78231 0.55201 0.0
C1614 C 0.87428 0.76731 0.58483 0.0
H1615 H 0.91257 0.79697 0.52499 0.0
H1616 H 0.88424 0.79091 0.51703 0.0
C1617 C 0.87817 0.75626 0.62772 0.0
C1618 C 0.22735 0.12392 0.56775 0.0
C1619 C 0.23865 0.13355 0.63965 0.0
H1620 H 0.21526 0.10075 0.4957 0.0
C1621 C 0.24432 0.12614 0.70554 0.0
H1622 H 0.22302 0.12937 0.51487 0.0
C1623 C 0.23995 0.10984 0.69477 0.0
C1624 C 0.22996 0.10056 0.61684 0.0
H1625 H 0.2531 0.1333 0.76145 0.0
H1626 H 0.24526 0.10483 0.74397 0.0
C1627 C 0.22304 0.10754 0.5564 0.0
C1628 C 0.90309 0.12199 0.52658 0.0
C1629 C 0.90123 0.13405 0.57391 0.0
H1630 H 0.89181 0.09689 0.48534 0.0
C1631 C 0.88701 0.12947 0.62775 0.0
H1632 H 0.9138 0.12527 0.48282 0.0
C1633 C 0.87444 0.1133 0.62953 0.0
C1634 C 0.87563 0.10133 0.57569 0.0
H1635 H 0.88518 0.13859 0.66361 0.0
H1636 H 0.86339 0.11042 0.66818 0.0
C1637 C 0.89041 0.10575 0.52754 0.0
C1638 C 0.12158 0.56711 0.11328 0.0
C1639 C 0.11474 0.57429 0.05374 0.0
H1640 H 0.1212 0.54506 0.15439 0.0
C1641 C 0.10441 0.56505 0.9769 0.0
H1642 H 0.12961 0.57386 0.17313 0.0
C1643 C 0.09966 0.54865 0.96637 0.0
C1644 C 0.10529 0.54109 0.03138 0.0
H1645 H 0.09917 0.57021 0.92835 0.0
H1646 H 0.09066 0.54157 0.91133 0.0
C1647 C 0.11689 0.55063 0.10215 0.0
C1648 C 0.43971 0.55383 0.14332 0.0
C1649 C 0.43556 0.53935 0.09266 0.0
H1650 H 0.45891 0.57726 0.18993 0.0
C1651 C 0.44767 0.53872 0.03677 0.0
H1652 H 0.43074 0.55482 0.18712 0.0
C1653 C 0.46374 0.55155 0.03875 0.0
C1654 C 0.46805 0.56549 0.09477 0.0
H1655 H 0.44499 0.52792 0.99595 0.0
H1656 H 0.473 0.55017 1.00103 0.0
C1657 C 0.45582 0.56677 0.14448 0.0
C1658 C 0.45175 0.8797 0.1687 0.0
C1659 C 0.46562 0.89179 0.12051 0.0
H1660 H 0.42704 0.8709 0.21033 0.0
C1661 C 0.46422 0.90377 0.06786 0.0
H1662 H 0.45223 0.87019 0.20944 0.0
C1663 C 0.44967 0.90424 0.06878 0.0
C1664 C 0.4361 0.89266 0.12182 0.0
H1665 H 0.47452 0.91315 0.0287 0.0
H1666 H 0.44925 0.91402 0.03078 0.0
C1667 C 0.43722 0.88012 0.16924 0.0
C1668 C 0.56894 0.11339 0.90098 0.0
C1669 C 0.5674 0.10249 0.97525 0.0
H1670 H 0.55766 0.12497 0.82519 0.0
C1671 C 0.55442 0.09717 0.04153 0.0
H1672 H 0.57865 0.11741 0.84773 0.0
C1673 C 0.54242 0.10141 0.02875 0.0
C1674 C 0.54296 0.11091 0.94847 0.0
H1675 H 0.55289 0.08868 0.09911 0.0
H1676 H 0.53214 0.09633 0.0782 0.0
C1677 C 0.55681 0.11758 0.88769 0.0
C1678 C 0.9065 0.44192 0.03813 0.0
C1679 C 0.89643 0.433 0.95954 0.0
H1680 H 0.92001 0.46512 0.10738 0.0
C1681 C 0.88977 0.44041 0.90052 0.0
H1682 H 0.91158 0.43657 0.08638 0.0
C1683 C 0.8944 0.45684 0.91399 0.0
C1684 C 0.90577 0.46609 0.98658 0.0
H1685 H 0.88194 0.43391 0.8394 0.0
H1686 H 0.89025 0.46262 0.86223 0.0
C1687 C 0.91119 0.45827 0.05096 0.0
C1688 C 0.54351 0.44424 0.02606 0.0
C1689 C 0.54419 0.43421 0.9529 0.0
H1690 H 0.55386 0.46831 0.0837 0.0
C1691 C 0.55805 0.44059 0.89228 0.0
H1692 H 0.53324 0.43971 0.0753 0.0
C1693 C 0.57011 0.45706 0.89845 0.0
C1694 C 0.56847 0.46737 0.9652 0.0
H1695 H 0.55901 0.43322 0.83523 0.0
H1696 H 0.57988 0.46199 0.84533 0.0
C1697 C 0.55544 0.46062 0.03162 0.0
C1698 C 0.76952 0.89579 0.3409 0.0
C1699 C 0.77982 0.90532 0.41708 0.0
H1700 H 0.75619 0.87215 0.27679 0.0
C1701 C 0.78705 0.89856 0.47684 0.0
H1702 H 0.76397 0.90062 0.29225 0.0
C1703 C 0.78276 0.88218 0.46666 0.0
C1704 C 0.77119 0.87231 0.39663 0.0
H1705 H 0.79507 0.90555 0.53619 0.0
H1706 H 0.78736 0.87691 0.5191 0.0
C1707 C 0.76519 0.87949 0.33128 0.0
C1708 C 0.10774 0.88404 0.50516 0.0
C1709 C 0.10923 0.87201 0.45457 0.0
H1710 H 0.11918 0.90917 0.54557 0.0
C1711 C 0.12276 0.8767 0.39377 0.0
H1712 H 0.09759 0.88068 0.55418 0.0
C1713 C 0.13511 0.89295 0.38847 0.0
C1714 C 0.13441 0.90488 0.44565 0.0
H1715 H 0.12429 0.8676 0.35514 0.0
H1716 H 0.14568 0.89592 0.34437 0.0
C1717 C 0.12021 0.90034 0.50067 0.0
C1718 C 0.13222 0.24973 0.40128 0.0
C1719 C 0.13603 0.23867 0.44484 0.0
H1720 H 0.11385 0.25556 0.36559 0.0
C1721 C 0.12332 0.22375 0.47826 0.0
H1722 H 0.14181 0.26142 0.37606 0.0
C1723 C 0.10714 0.22045 0.47404 0.0
C1724 C 0.10342 0.23201 0.43594 0.0
H1725 H 0.12597 0.21516 0.51379 0.0
H1726 H 0.09769 0.20925 0.50558 0.0
C1727 C 0.11613 0.24638 0.39584 0.0
C1728 C 0.1651 0.41795 0.75468 0.0
C1729 C 0.16218 0.42661 0.82791 0.0
H1730 H 0.16633 0.41401 0.60118 0.0
C1731 C 0.15982 0.43948 0.79925 0.0
H1732 H 0.16714 0.40809 0.77432 0.0
C1733 C 0.15937 0.44289 0.69965 0.0
C1734 C 0.16139 0.43362 0.62624 0.0
H1735 H 0.15747 0.44634 0.85352 0.0
H1736 H 0.15695 0.4525 0.67999 0.0
C1737 C 0.16478 0.42144 0.65525 0.0
C1738 C 0.56466 0.71682 0.74265 0.0
C1739 C 0.5733 0.72848 0.6696 0.0
H1740 H 0.56145 0.71134 0.8964 0.0
C1741 C 0.58439 0.74442 0.69894 0.0
H1742 H 0.55587 0.70448 0.72264 0.0
C1743 C 0.58754 0.74832 0.79846 0.0
C1744 C 0.57961 0.73644 0.87135 0.0
H1745 H 0.5913 0.75369 0.64511 0.0
H1746 H 0.59663 0.76057 0.81846 0.0
C1747 C 0.56773 0.72078 0.84233 0.0
C1748 C 0.28912 0.86137 0.81103 0.0
C1749 C 0.27422 0.84803 0.84023 0.0
H1750 H 0.3046 0.87509 0.69256 0.0
C1751 C 0.26366 0.83774 0.76675 0.0
H1752 H 0.29761 0.86962 0.86461 0.0
C1753 C 0.26758 0.84104 0.66734 0.0
C1754 C 0.28223 0.8547 0.6381 0.0
H1755 H 0.25222 0.82715 0.78562 0.0
H1756 H 0.25887 0.8331 0.61362 0.0
C1757 C 0.29307 0.86463 0.7116 0.0
C1758 C 0.42766 0.16687 0.37071 0.0
C1759 C 0.42846 0.15311 0.40003 0.0
H1760 H 0.42643 0.18089 0.25239 0.0
C1761 C 0.42924 0.14312 0.32656 0.0
H1762 H 0.42699 0.17487 0.42436 0.0
C1763 C 0.42861 0.14642 0.2271 0.0
C1764 C 0.42726 0.15988 0.19782 0.0
H1765 H 0.43017 0.13258 0.34562 0.0
H1766 H 0.42876 0.13812 0.17357 0.0
C1767 C 0.42711 0.17022 0.27128 0.0
C1768 C 0.83907 0.26162 0.389 0.0
C1769 C 0.85316 0.2759 0.41819 0.0
H1770 H 0.82465 0.24662 0.2708 0.0
C1771 C 0.86336 0.28646 0.34455 0.0
H1772 H 0.8309 0.25311 0.44273 0.0
C1773 C 0.85991 0.28258 0.24508 0.0
C1774 C 0.8461 0.26804 0.21598 0.0
H1775 H 0.87418 0.29771 0.36351 0.0
H1776 H 0.86834 0.29084 0.19136 0.0
C1777 C 0.83558 0.25778 0.2896 0.0
C1778 C 0.74495 0.57783 0.39433 0.0
C1779 C 0.73101 0.57833 0.42353 0.0
H1780 H 0.75951 0.57755 0.27609 0.0
C1781 C 0.72056 0.57827 0.34992 0.0
H1782 H 0.75336 0.57792 0.44799 0.0
C1783 C 0.72425 0.57833 0.25042 0.0
C1784 C 0.73849 0.57842 0.22135 0.0
H1785 H 0.70955 0.57834 0.36889 0.0
H1786 H 0.71613 0.57879 0.19659 0.0
C1787 C 0.7486 0.57783 0.29495 0.0
C1788 C 0.84532 0.58478 0.3664 0.0
C1789 C 0.84876 0.57264 0.39539 0.0
H1790 H 0.84287 0.59808 0.24735 0.0
C1791 C 0.85083 0.5634 0.32195 0.0
H1792 H 0.84373 0.59218 0.42049 0.0
C1793 C 0.85034 0.5668 0.22236 0.0
C1794 C 0.84792 0.57962 0.19372 0.0
H1795 H 0.85329 0.55382 0.34159 0.0
H1796 H 0.85272 0.55996 0.16808 0.0
C1797 C 0.84497 0.58826 0.26697 0.0
C1798 C 0.4236 0.26075 0.35915 0.0
C1799 C 0.43589 0.27626 0.3881 0.0
H1800 H 0.41024 0.24504 0.24014 0.0
C1801 C 0.4453 0.28746 0.31464 0.0
H1802 H 0.41607 0.25184 0.41322 0.0
C1803 C 0.44193 0.28356 0.21506 0.0
C1804 C 0.42898 0.2684 0.1864 0.0
H1805 H 0.45502 0.29944 0.33419 0.0
H1806 H 0.44892 0.29271 0.16075 0.0
C1807 C 0.42016 0.25691 0.25971 0.0
C1808 C 0.72279 0.15553 0.21879 0.0
C1809 C 0.73857 0.15953 0.19032 0.0
H1810 H 0.70635 0.15094 0.33786 0.0
C1811 C 0.75043 0.16362 0.26364 0.0
H1812 H 0.71336 0.15225 0.16439 0.0
C1813 C 0.74644 0.16284 0.363 0.0
C1814 C 0.73042 0.15782 0.39185 0.0
H1815 H 0.76275 0.16694 0.24414 0.0
H1816 H 0.75572 0.16534 0.41711 0.0
C1817 C 0.71875 0.15462 0.31834 0.0
C1818 C 0.58064 0.85909 0.82795 0.0
C1819 C 0.5816 0.84541 0.85718 0.0
H1820 H 0.57953 0.87319 0.70943 0.0
C1821 C 0.5815 0.83496 0.78366 0.0
H1822 H 0.58069 0.86747 0.88158 0.0
C1823 C 0.58109 0.83839 0.68424 0.0
C1824 C 0.58068 0.85235 0.65494 0.0
H1825 H 0.5819 0.82412 0.80253 0.0
H1826 H 0.58157 0.83028 0.63058 0.0
C1827 C 0.58015 0.86248 0.72847 0.0
C1828 C 0.15779 0.71931 0.67718 0.0
C1829 C 0.16312 0.73128 0.60352 0.0
H1830 H 0.15475 0.71406 0.83122 0.0
C1831 C 0.17112 0.74766 0.63215 0.0
H1832 H 0.15179 0.70658 0.65789 0.0
C1833 C 0.17286 0.75191 0.73139 0.0
C1834 C 0.16674 0.73993 0.80491 0.0
H1835 H 0.17533 0.75722 0.578 0.0
H1836 H 0.17858 0.76463 0.75066 0.0
C1837 C 0.15963 0.72358 0.77667 0.0
C1838 C 0.26104 0.42761 0.72397 0.0
C1839 C 0.27116 0.42705 0.7976 0.0
H1840 H 0.2563 0.42756 0.5709 0.0
C1841 C 0.28543 0.42719 0.76856 0.0
H1842 H 0.25011 0.42786 0.7428 0.0
C1843 C 0.28914 0.4273 0.66907 0.0
C1844 C 0.27869 0.42722 0.59544 0.0
H1845 H 0.29355 0.42675 0.82238 0.0
H1846 H 0.30018 0.42726 0.65013 0.0
C1847 C 0.26472 0.42766 0.6246 0.0
C1848 C 0.83272 0.75417 1.01013 0.0
C1849 C 0.8289 0.76604 0.98108 0.0
H1850 H 0.83559 0.74114 0.12924 0.0
C1851 C 0.8266 0.77513 0.05445 0.0
H1852 H 0.83451 0.74688 0.95609 0.0
C1853 C 0.82721 0.77182 0.15406 0.0
C1854 C 0.83 0.75924 0.18276 0.0
H1855 H 0.82384 0.78452 0.03476 0.0
H1856 H 0.82464 0.77852 0.20833 0.0
C1857 C 0.83321 0.75078 0.10956 0.0
C1858 C 0.24586 0.07662 1.01034 0.0
C1859 C 0.24527 0.06214 0.98133 0.0
H1860 H 0.24682 0.09181 0.12836 0.0
C1861 C 0.24464 0.05147 0.05507 0.0
H1862 H 0.24642 0.08522 0.95649 0.0
C1863 C 0.24515 0.0554 0.15448 0.0
C1864 C 0.24625 0.07011 0.18348 0.0
H1865 H 0.24389 0.04007 0.03625 0.0
H1866 H 0.2451 0.04703 0.20824 0.0
C1867 C 0.24631 0.08051 0.10972 0.0
C1868 C 0.95663 0.18396 0.03997 0.0
C1869 C 0.94489 0.18047 0.9665 0.0
H1870 H 0.96203 0.18643 0.19392 0.0
C1871 C 0.92879 0.17504 0.99539 0.0
H1872 H 0.9691 0.18795 0.02042 0.0
C1873 C 0.92476 0.17414 0.09474 0.0
C1874 C 0.93667 0.17851 0.16803 0.0
H1875 H 0.91944 0.17231 0.9413 0.0
H1876 H 0.91236 0.1705 0.11428 0.0
C1877 C 0.95256 0.18293 0.13954 0.0
C1878 C 0.09921 0.50331 0.66722 0.0
C1879 C 0.09895 0.489 0.69636 0.0
H1880 H 0.09859 0.5177 0.54897 0.0
C1881 C 0.09884 0.47855 0.62272 0.0
H1882 H 0.09926 0.51167 0.72101 0.0
C1883 C 0.09819 0.48189 0.52324 0.0
C1884 C 0.09765 0.4958 0.49443 0.0
H1885 H 0.09893 0.46756 0.64185 0.0
H1886 H 0.09751 0.47324 0.46934 0.0
C1887 C 0.0986 0.50666 0.56791 0.0
C1888 C 0.50894 0.59374 0.67008 0.0
C1889 C 0.51351 0.60961 0.69934 0.0
H1890 H 0.50533 0.57767 0.55067 0.0
C1891 C 0.51635 0.62121 0.6262 0.0
H1892 H 0.50673 0.58452 0.724 0.0
C1893 C 0.51554 0.61727 0.52655 0.0
C1894 C 0.51203 0.60168 0.49762 0.0
H1895 H 0.51969 0.6335 0.64615 0.0
H1896 H 0.51855 0.62667 0.47243 0.0
C1897 C 0.50827 0.58985 0.57059 0.0
C1898 C 0.41992 0.91379 0.61229 0.0
C1899 C 0.4094 0.91363 0.53883 0.0
H1900 H 0.42482 0.91408 0.76529 0.0
C1901 C 0.39465 0.91244 0.56817 0.0
H1902 H 0.43124 0.91436 0.59344 0.0
C1903 C 0.39081 0.91197 0.66762 0.0
C1904 C 0.40162 0.91276 0.74105 0.0
H1905 H 0.38618 0.91229 0.51469 0.0
H1906 H 0.37937 0.91113 0.68663 0.0
C1907 C 0.41612 0.91342 0.71171 0.0
C1908 C 0.52358 0.90258 0.66331 0.0
C1909 C 0.51927 0.91028 0.73556 0.0
H1910 H 0.52417 0.89766 0.51124 0.0
C1911 C 0.51199 0.9193 0.70586 0.0
H1912 H 0.52902 0.89535 0.68373 0.0
C1913 C 0.50937 0.92083 0.60638 0.0
C1914 C 0.5138 0.91324 0.53352 0.0
H1915 H 0.50873 0.92557 0.75935 0.0
H1916 H 0.50413 0.92825 0.58711 0.0
C1917 C 0.52083 0.90397 0.56388 0.0
C1918 C 0.10117 0.62071 0.51888 0.0
C1919 C 0.1001 0.60602 0.48971 0.0
H1920 H 0.10222 0.63589 0.63731 0.0
C1921 C 0.09989 0.59552 0.56331 0.0
H1922 H 0.10134 0.62914 0.46516 0.0
C1923 C 0.10013 0.59928 0.66271 0.0
C1924 C 0.10067 0.61372 0.69193 0.0
H1925 H 0.0994 0.58425 0.5445 0.0
H1926 H 0.09944 0.5906 0.71634 0.0
C1927 C 0.10148 0.62451 0.61836 0.0
C1928 C 0.4154 0.50293 0.59111 0.0
C1929 C 0.40488 0.49263 0.51756 0.0
H1930 H 0.42029 0.50746 0.74414 0.0
C1931 C 0.39012 0.4791 0.54676 0.0
H1932 H 0.42673 0.51366 0.57231 0.0
C1933 C 0.38627 0.4757 0.64622 0.0
C1934 C 0.39708 0.48566 0.71977 0.0
H1935 H 0.38166 0.47084 0.49312 0.0
H1936 H 0.37483 0.46511 0.66517 0.0
C1937 C 0.41159 0.49948 0.69051 0.0
C1938 C 0.24581 0.19281 0.14363 0.0
C1939 C 0.24546 0.17843 0.17231 0.0
H1940 H 0.24595 0.20763 0.02534 0.0
C1941 C 0.2439 0.16736 0.09861 0.0
H1942 H 0.24697 0.20164 0.19763 0.0
C1943 C 0.24355 0.1709 0.99933 0.0
C1944 C 0.24466 0.1856 0.97032 0.0
H1945 H 0.24321 0.15599 0.11729 0.0
H1946 H 0.24299 0.1623 0.94551 0.0
C1947 C 0.2454 0.19632 0.04418 0.0
C1948 C 0.81168 0.05164 0.018 0.0
C1949 C 0.82196 0.06214 0.9444 0.0
H1950 H 0.80669 0.04727 0.17122 0.0
C1951 C 0.83617 0.0763 0.97363 0.0
H1952 H 0.80077 0.04047 0.999 0.0
C1953 C 0.8397 0.08009 0.07304 0.0
C1954 C 0.82911 0.0699 0.14662 0.0
H1955 H 0.8444 0.08476 0.91994 0.0
H1956 H 0.85072 0.09115 0.09189 0.0
C1957 C 0.81518 0.05546 0.11749 0.0
C1958 C 0.93328 0.76145 0.98855 0.0
C1959 C 0.94681 0.76021 0.95925 0.0
H1960 H 0.91918 0.76254 0.10692 0.0
C1961 C 0.95705 0.75983 0.03279 0.0
H1962 H 0.92505 0.76174 0.93497 0.0
C1963 C 0.95351 0.76003 0.13235 0.0
C1964 C 0.93964 0.76065 0.16147 0.0
H1965 H 0.96775 0.75918 1.01372 0.0
H1966 H 0.96141 0.75919 0.18621 0.0
C1967 C 0.92979 0.76171 0.08794 0.0
C1968 C 0.5065 0.09372 0.43784 0.0
C1969 C 0.49612 0.09372 0.51154 0.0
H1970 H 0.51106 0.0935 0.28473 0.0
C1971 C 0.48236 0.09459 0.4824 0.0
H1972 H 0.51739 0.09337 0.45652 0.0
C1973 C 0.47887 0.09496 0.38295 0.0
C1974 C 0.48896 0.09439 0.30928 0.0
H1975 H 0.47401 0.0946 0.53608 0.0
H1976 H 0.46813 0.09556 0.3641 0.0
C1977 C 0.50297 0.094 0.33844 0.0
C1978 C 0.9121 0.41231 0.44831 0.0
C1979 C 0.91155 0.40167 0.52206 0.0
H1980 H 0.91263 0.41722 0.29519 0.0
C1981 C 0.91 0.38677 0.49301 0.0
H1982 H 0.91298 0.42377 0.46694 0.0
C1983 C 0.90951 0.38287 0.3936 0.0
C1984 C 0.91062 0.39376 0.31988 0.0
H1985 H 0.90956 0.37821 0.54674 0.0
H1986 H 0.90837 0.3713 0.37481 0.0
C1987 C 0.91169 0.40845 0.34894 0.0
C1988 C 0.60111 0.50442 0.31743 0.0
C1989 C 0.61478 0.5191 0.2887 0.0
H1990 H 0.58644 0.4895 0.43499 0.0
C1991 C 0.62474 0.52978 0.36281 0.0
H1992 H 0.59307 0.49585 0.26347 0.0
C1993 C 0.62075 0.52624 0.46218 0.0
C1994 C 0.60669 0.51188 0.49056 0.0
H1995 H 0.63554 0.54107 0.34425 0.0
H1996 H 0.62844 0.53504 0.51633 0.0
C1997 C 0.59717 0.50087 0.41661 0.0
C1998 C 0.76472 0.80958 0.99437 0.0
C1999 C 0.76556 0.82034 0.06823 0.0
H2000 H 0.76319 0.8043 0.84086 0.0
C2001 C 0.76691 0.83515 0.0392 0.0
H2002 H 0.76398 0.79819 1.01319 0.0
C2003 C 0.7667 0.83876 0.93993 0.0
C2004 C 0.76504 0.82765 0.86622 0.0
H2005 H 0.76756 0.8438 0.09298 0.0
H2006 H 0.76758 0.85022 0.92124 0.0
C2007 C 0.76444 0.81316 0.89489 0.0
C2008 C 0.17094 0.92526 0.93611 0.0
C2009 C 0.18108 0.93593 0.86261 0.0
H2010 H 0.16636 0.92045 0.08926 0.0
C2011 C 0.19421 0.95097 0.89186 0.0
H2012 H 0.16051 0.9137 0.91725 0.0
C2013 C 0.19741 0.95497 0.99129 0.0
C2014 C 0.18763 0.94405 0.06479 0.0
H2015 H 0.20235 0.95955 0.83832 0.0
H2016 H 0.2077 0.96662 1.01033 0.0
C2017 C 0.17418 0.92924 0.03554 0.0
C2018 C 0.07733 0.24501 0.03948 0.0
C2019 C 0.06371 0.24607 0.0688 0.0
H2020 H 0.09155 0.24414 0.92107 0.0
C2021 C 0.05341 0.24635 0.99529 0.0
H2022 H 0.08561 0.2448 0.09306 0.0
C2023 C 0.05699 0.24623 0.89573 0.0
C2024 C 0.07096 0.2458 0.86657 0.0
H2025 H 0.04263 0.24686 1.01439 0.0
H2026 H 0.04904 0.24699 0.84191 0.0
C2027 C 0.08087 0.24483 0.94008 0.0
C2028 C 0.17729 0.25539 0.9195 0.0
C2029 C 0.18041 0.24687 0.84624 0.0
H2030 H 0.17601 0.25928 0.073 0.0
C2031 C 0.18308 0.23421 0.87487 0.0
H2032 H 0.175 0.26509 0.89989 0.0
C2033 C 0.18364 0.23086 0.97446 0.0
C2034 C 0.18141 0.23999 0.0479 0.0
H2035 H 0.18558 0.22746 0.82056 0.0
H2036 H 0.18629 0.2214 0.99409 0.0
C2037 C 0.17772 0.25196 0.01892 0.0
C2038 C 0.76386 0.92564 0.92455 0.0
C2039 C 0.76383 0.936 0.85083 0.0
H2040 H 0.76369 0.92089 0.07771 0.0
C2041 C 0.76472 0.95062 0.87985 0.0
H2042 H 0.7635 0.91442 0.90586 0.0
C2043 C 0.76512 0.95449 0.97928 0.0
C2044 C 0.76457 0.94384 0.05299 0.0
H2045 H 0.7647 0.95895 0.82609 0.0
H2046 H 0.76571 0.96581 0.99813 0.0
C2047 C 0.76419 0.92947 0.02392 0.0
C2048 C 0.08536 0.83407 0.95537 0.0
C2049 C 0.07332 0.82788 0.88205 0.0
H2050 H 0.09076 0.8366 0.10867 0.0
C2051 C 0.05697 0.82079 0.91047 0.0
H2052 H 0.09809 0.83979 0.93588 0.0
C2053 C 0.05275 0.81897 1.01002 0.0
C2054 C 0.06478 0.82433 0.08349 0.0
H2055 H 0.04741 0.81585 0.85602 0.0
H2056 H 0.04001 0.81295 0.0295 0.0
C2057 C 0.08116 0.83236 0.05466 0.0
C2058 C 0.91183 0.50385 0.35359 0.0
C2059 C 0.912 0.51811 0.32441 0.0
H2060 H 0.91254 0.48952 0.47189 0.0
C2061 C 0.91204 0.52853 0.39801 0.0
H2062 H 0.91185 0.49551 0.29983 0.0
C2063 C 0.91271 0.52521 0.4975 0.0
C2064 C 0.91334 0.51135 0.52636 0.0
H2065 H 0.91187 0.53947 0.37886 0.0
H2066 H 0.91333 0.53383 0.55136 0.0
C2067 C 0.91246 0.50052 0.45292 0.0
C2068 C 0.508 0.41348 0.4499 0.0
C2069 C 0.49769 0.40296 0.52334 0.0
H2070 H 0.51253 0.41839 0.2969 0.0
C2071 C 0.48414 0.38823 0.49401 0.0
H2072 H 0.51874 0.42479 0.46887 0.0
C2073 C 0.48072 0.38441 0.3945 0.0
C2074 C 0.49069 0.39522 0.32107 0.0
H2075 H 0.47587 0.37977 0.54761 0.0
H2076 H 0.47012 0.37299 0.3754 0.0
C2077 C 0.50454 0.4097 0.35046 0.0
C2078 C 0.5991 0.09644 0.34181 0.0
C2079 C 0.61322 0.09629 0.31279 0.0
H2080 H 0.58402 0.0957 0.45996 0.0
C2081 C 0.62363 0.09629 0.38649 0.0
H2082 H 0.59073 0.0964 0.28795 0.0
C2083 C 0.61963 0.09562 0.48593 0.0
C2084 C 0.6051 0.09496 0.51464 0.0
H2085 H 0.63477 0.09648 0.36743 0.0
H2086 H 0.62765 0.09502 0.53989 0.0
C2087 C 0.59512 0.09581 0.44109 0.0
loop_
_geom_bond_atom_site_label_1
_geom_bond_atom_site_label_2
_geom_bond_distance
_geom_bond_site_symmetry_2
_ccdc_geom_bond_type
C0 C1 1.351 . S
C0 N3 1.368 . S
C0 H5 0.931 . S
C1 C0 1.351 . S
C1 N2 1.373 . S
C1 H29 0.930 . S
N2 C1 1.373 . S
N2 C4 1.340 . S
N3 C0 1.368 . S
N3 C4 1.321 . S
N3 Co6 2.135 . S
C4 N2 1.340 . S
C4 N3 1.321 . S
C4 H28 0.930 . S
H5 C0 0.931 . S
Co6 N3 2.135 . S
Co6 N9 2.121 . S
Co6 O14 2.055 . S
Co6 O17 2.039 . S
Co6 N20 2.140 . S
C7 O8 1.227 . S
C7 O17 1.265 . S
O8 C7 1.227 . S
N9 Co6 2.121 . S
N9 C11 1.375 . S
N9 C12 1.313 . S
C10 C11 1.338 1_556 S
C10 N13 1.377 . S
C10 H30 0.930 . S
C11 N9 1.375 . S
C11 C10 1.338 1_554 S
C11 H15 0.931 . S
C12 N9 1.313 . S
C12 N13 1.344 1_554 S
C12 H16 0.930 . S
N13 C10 1.377 . S
N13 C12 1.344 1_556 S
O14 Co6 2.055 . S
O14 C18 1.253 . S
H15 C11 0.931 . S
H16 C12 0.930 . S
O17 Co6 2.039 . S
O17 C7 1.265 . S
C18 O14 1.253 . S
C18 O19 1.227 . S
O19 C18 1.227 . S
N20 Co6 2.140 . S
N20 C23 1.346 . S
N20 C24 1.345 . S
C21 C22 1.387 . S
C21 C25 1.391 . S
C22 C21 1.387 . S
C22 C23 1.369 . S
C22 H31 0.929 . S
C23 N20 1.346 . S
C23 C22 1.369 . S
C23 H26 0.928 . S
C24 N20 1.345 . S
C24 C25 1.371 . S
C24 H27 0.931 . S
C25 C21 1.391 . S
C25 C24 1.371 . S
C25 H32 0.930 . S
H26 C23 0.928 . S
H27 C24 0.931 . S
H28 C4 0.930 . S
H29 C1 0.930 . S
H30 C10 0.930 . S
H31 C22 0.929 . S
H32 C25 0.930 . S
C33 C34 1.351 . S
C33 N36 1.368 . S
C33 H38 0.931 . S
C34 C33 1.351 . S
C34 N35 1.373 . S
C34 H62 0.930 . S
N35 C34 1.373 . S
N35 C37 1.340 . S
N36 C33 1.368 . S
N36 C37 1.321 . S
N36 Co39 2.135 . S
C37 N35 1.340 . S
C37 N36 1.321 . S
C37 H61 0.930 . S
H38 C33 0.931 . S
Co39 N36 2.135 . S
Co39 N42 2.121 . S
Co39 O47 2.055 . S
Co39 O50 2.039 . S
Co39 N53 2.140 . S
C40 O41 1.227 . S
C40 O50 1.265 . S
O41 C40 1.227 . S
N42 Co39 2.121 . S
N42 C44 1.375 . S
N42 C45 1.313 . S
C43 C44 1.338 1_556 S
C43 N46 1.377 . S
C43 H63 0.930 . S
C44 N42 1.375 . S
C44 C43 1.338 1_554 S
C44 H48 0.931 . S
C45 N42 1.313 . S
C45 N46 1.344 1_554 S
C45 H49 0.930 . S
N46 C43 1.377 . S
N46 C45 1.344 1_556 S
O47 Co39 2.055 . S
O47 C51 1.253 . S
H48 C44 0.931 . S
H49 C45 0.930 . S
O50 Co39 2.039 . S
O50 C40 1.265 . S
C51 O47 1.253 . S
C51 O52 1.227 . S
O52 C51 1.227 . S
N53 Co39 2.140 . S
N53 C56 1.346 . S
N53 C57 1.345 . S
C54 C55 1.387 . S
C54 C58 1.391 . S
C55 C54 1.387 . S
C55 C56 1.369 . S
C55 H64 0.929 . S
C56 N53 1.346 . S
C56 C55 1.369 . S
C56 H59 0.928 . S
C57 N53 1.345 . S
C57 C58 1.371 . S
C57 H60 0.931 . S
C58 C54 1.391 . S
C58 C57 1.371 . S
C58 H65 0.930 . S
H59 C56 0.928 . S
H60 C57 0.931 . S
H61 C37 0.930 . S
H62 C34 0.930 . S
H63 C43 0.930 . S
H64 C55 0.929 . S
H65 C58 0.930 . S
C66 C67 1.351 . S
C66 N69 1.368 . S
C66 H71 0.931 . S
C67 C66 1.351 . S
C67 N68 1.373 . S
C67 H95 0.930 . S
N68 C67 1.373 . S
N68 C70 1.340 . S
N69 C66 1.368 . S
N69 C70 1.321 . S
N69 Co72 2.135 . S
C70 N68 1.340 . S
C70 N69 1.321 . S
C70 H94 0.930 . S
H71 C66 0.931 . S
Co72 N69 2.135 . S
Co72 N75 2.121 . S
Co72 O80 2.055 . S
Co72 O83 2.039 . S
Co72 N86 2.140 . S
C73 O74 1.227 . S
C73 O83 1.265 . S
O74 C73 1.227 . S
N75 Co72 2.121 . S
N75 C77 1.375 . S
N75 C78 1.313 . S
C76 C77 1.338 1_556 S
C76 N79 1.377 . S
C76 H96 0.930 . S
C77 N75 1.375 . S
C77 C76 1.338 1_554 S
C77 H81 0.931 . S
C78 N75 1.313 . S
C78 N79 1.344 1_554 S
C78 H82 0.930 . S
N79 C76 1.377 . S
N79 C78 1.344 1_556 S
O80 Co72 2.055 . S
O80 C84 1.253 . S
H81 C77 0.931 . S
H82 C78 0.930 . S
O83 Co72 2.039 . S
O83 C73 1.265 . S
C84 O80 1.253 . S
C84 O85 1.227 . S
O85 C84 1.227 . S
N86 Co72 2.140 . S
N86 C89 1.346 . S
N86 C90 1.345 . S
C87 C88 1.387 . S
C87 C91 1.391 . S
C88 C87 1.387 . S
C88 C89 1.369 . S
C88 H97 0.929 . S
C89 N86 1.346 . S
C89 C88 1.369 . S
C89 H92 0.928 . S
C90 N86 1.345 . S
C90 C91 1.371 . S
C90 H93 0.931 . S
C91 C87 1.391 . S
C91 C90 1.371 . S
C91 H98 0.930 . S
H92 C89 0.928 . S
H93 C90 0.931 . S
H94 C70 0.930 . S
H95 C67 0.930 . S
H96 C76 0.930 . S
H97 C88 0.929 . S
H98 C91 0.930 . S
C99 C100 1.351 . S
C99 N102 1.368 . S
C99 H104 0.931 . S
C100 C99 1.351 . S
C100 N101 1.373 . S
C100 H128 0.930 . S
N101 C100 1.373 . S
N101 C103 1.340 . S
N102 C99 1.368 . S
N102 C103 1.321 . S
N102 Co105 2.135 . S
C103 N101 1.340 . S
C103 N102 1.321 . S
C103 H127 0.930 . S
H104 C99 0.931 . S
Co105 N102 2.135 . S
Co105 N108 2.121 . S
Co105 O113 2.055 . S
Co105 O116 2.039 . S
Co105 N119 2.140 . S
C106 O107 1.227 . S
C106 O116 1.265 . S
O107 C106 1.227 . S
N108 Co105 2.121 . S
N108 C110 1.375 . S
N108 C111 1.313 . S
C109 C110 1.338 1_554 S
C109 N112 1.377 . S
C109 H129 0.930 . S
C110 N108 1.375 . S
C110 C109 1.338 1_556 S
C110 H114 0.931 . S
C111 N108 1.313 . S
C111 N112 1.344 1_556 S
C111 H115 0.930 . S
N112 C109 1.377 . S
N112 C111 1.344 1_554 S
O113 Co105 2.055 . S
O113 C117 1.253 . S
H114 C110 0.931 . S
H115 C111 0.930 . S
O116 Co105 2.039 . S
O116 C106 1.265 . S
C117 O113 1.253 . S
C117 O118 1.227 . S
O118 C117 1.227 . S
N119 Co105 2.140 . S
N119 C122 1.346 . S
N119 C123 1.345 . S
C120 C121 1.387 . S
C120 C124 1.391 . S
C121 C120 1.387 . S
C121 C122 1.369 . S
C121 H130 0.929 . S
C122 N119 1.346 . S
C122 C121 1.369 . S
C122 H125 0.928 . S
C123 N119 1.345 . S
C123 C124 1.371 . S
C123 H126 0.931 . S
C124 C120 1.391 . S
C124 C123 1.371 . S
C124 H131 0.930 . S
H125 C122 0.928 . S
H126 C123 0.931 . S
H127 C103 0.930 . S
H128 C100 0.930 . S
H129 C109 0.930 . S
H130 C121 0.929 . S
H131 C124 0.930 . S
C132 C133 1.351 . S
C132 N135 1.368 . S
C132 H137 0.931 . S
C133 C132 1.351 . S
C133 N134 1.373 . S
C133 H161 0.930 . S
N134 C133 1.373 . S
N134 C136 1.340 . S
N135 C132 1.368 . S
N135 C136 1.321 . S
N135 Co138 2.135 . S
C136 N134 1.340 . S
C136 N135 1.321 . S
C136 H160 0.930 . S
H137 C132 0.931 . S
Co138 N135 2.135 . S
Co138 N141 2.121 . S
Co138 O146 2.055 . S
Co138 O149 2.039 . S
Co138 N152 2.140 . S
C139 O140 1.227 . S
C139 O149 1.265 . S
O140 C139 1.227 . S
N141 Co138 2.121 . S
N141 C143 1.375 . S
N141 C144 1.313 . S
C142 C143 1.338 1_554 S
C142 N145 1.377 . S
C142 H162 0.930 . S
C143 N141 1.375 . S
C143 C142 1.338 1_556 S
C143 H147 0.931 . S
C144 N141 1.313 . S
C144 N145 1.344 1_556 S
C144 H148 0.930 . S
N145 C142 1.377 . S
N145 C144 1.344 1_554 S
O146 Co138 2.055 . S
O146 C150 1.253 . S
H147 C143 0.931 . S
H148 C144 0.930 . S
O149 Co138 2.039 . S
O149 C139 1.265 . S
C150 O146 1.253 . S
C150 O151 1.227 . S
O151 C150 1.227 . S
N152 Co138 2.140 . S
N152 C155 1.346 . S
N152 C156 1.345 . S
C153 C154 1.387 . S
C153 C157 1.391 . S
C154 C153 1.387 . S
C154 C155 1.369 . S
C154 H163 0.929 . S
C155 N152 1.346 . S
C155 C154 1.369 . S
C155 H158 0.928 . S
C156 N152 1.345 . S
C156 C157 1.371 . S
C156 H159 0.931 . S
C157 C153 1.391 . S
C157 C156 1.371 . S
C157 H164 0.930 . S
H158 C155 0.928 . S
H159 C156 0.931 . S
H160 C136 0.930 . S
H161 C133 0.930 . S
H162 C142 0.930 . S
H163 C154 0.929 . S
H164 C157 0.930 . S
C165 C166 1.351 . S
C165 N168 1.368 . S
C165 H170 0.931 . S
C166 C165 1.351 . S
C166 N167 1.373 . S
C166 H194 0.930 . S
N167 C166 1.373 . S
N167 C169 1.340 . S
N168 C165 1.368 . S
N168 C169 1.321 . S
N168 Co171 2.135 . S
C169 N167 1.340 . S
C169 N168 1.321 . S
C169 H193 0.930 . S
H170 C165 0.931 . S
Co171 N168 2.135 . S
Co171 N174 2.121 . S
Co171 O179 2.055 . S
Co171 O182 2.039 . S
Co171 N185 2.140 . S
C172 O173 1.227 . S
C172 O182 1.265 . S
O173 C172 1.227 . S
N174 Co171 2.121 . S
N174 C176 1.375 . S
N174 C177 1.313 . S
C175 C176 1.338 1_554 S
C175 N178 1.377 . S
C175 H195 0.930 . S
C176 N174 1.375 . S
C176 C175 1.338 1_556 S
C176 H180 0.931 . S
C177 N174 1.313 . S
C177 N178 1.344 1_556 S
C177 H181 0.930 . S
N178 C175 1.377 . S
N178 C177 1.344 1_554 S
O179 Co171 2.055 . S
O179 C183 1.253 . S
H180 C176 0.931 . S
H181 C177 0.930 . S
O182 Co171 2.039 . S
O182 C172 1.265 . S
C183 O179 1.253 . S
C183 O184 1.227 . S
O184 C183 1.227 . S
N185 Co171 2.140 . S
N185 C188 1.346 . S
N185 C189 1.345 . S
C186 C187 1.387 . S
C186 C190 1.391 . S
C187 C186 1.387 . S
C187 C188 1.369 . S
C187 H196 0.929 . S
C188 N185 1.346 . S
C188 C187 1.369 . S
C188 H191 0.928 . S
C189 N185 1.345 . S
C189 C190 1.371 . S
C189 H192 0.931 . S
C190 C186 1.391 . S
C190 C189 1.371 . S
C190 H197 0.930 . S
H191 C188 0.928 . S
H192 C189 0.931 . S
H193 C169 0.930 . S
H194 C166 0.930 . S
H195 C175 0.930 . S
H196 C187 0.929 . S
H197 C190 0.930 . S
C198 C199 1.351 . S
C198 N201 1.368 . S
C198 H203 0.931 . S
C199 C198 1.351 . S
C199 N200 1.373 . S
C199 H227 0.930 . S
N200 C199 1.373 . S
N200 C202 1.340 . S
N201 C198 1.368 . S
N201 C202 1.321 . S
N201 Co204 2.135 . S
C202 N200 1.340 . S
C202 N201 1.321 . S
C202 H226 0.930 . S
H203 C198 0.931 . S
Co204 N201 2.135 . S
Co204 N207 2.121 . S
Co204 O212 2.055 . S
Co204 O215 2.039 . S
Co204 N218 2.140 . S
C205 O206 1.227 . S
C205 O215 1.265 . S
O206 C205 1.227 . S
N207 Co204 2.121 . S
N207 C209 1.375 . S
N207 C210 1.313 . S
C208 C209 1.338 1_554 S
C208 N211 1.377 . S
C208 H228 0.930 . S
C209 N207 1.375 . S
C209 C208 1.338 1_556 S
C209 H213 0.931 . S
C210 N207 1.313 . S
C210 N211 1.344 1_556 S
C210 H214 0.930 . S
N211 C208 1.377 . S
N211 C210 1.344 1_554 S
O212 Co204 2.055 . S
O212 C216 1.253 . S
H213 C209 0.931 . S
H214 C210 0.930 . S
O215 Co204 2.039 . S
O215 C205 1.265 . S
C216 O212 1.253 . S
C216 O217 1.227 . S
O217 C216 1.227 . S
N218 Co204 2.140 . S
N218 C221 1.346 . S
N218 C222 1.345 . S
C219 C220 1.387 . S
C219 C223 1.391 . S
C220 C219 1.387 . S
C220 C221 1.369 . S
C220 H229 0.929 . S
C221 N218 1.346 . S
C221 C220 1.369 . S
C221 H224 0.928 . S
C222 N218 1.345 . S
C222 C223 1.371 . S
C222 H225 0.931 . S
C223 C219 1.391 . S
C223 C222 1.371 . S
C223 H230 0.930 . S
H224 C221 0.928 . S
H225 C222 0.931 . S
H226 C202 0.930 . S
H227 C199 0.930 . S
H228 C208 0.930 . S
H229 C220 0.929 . S
H230 C223 0.930 . S
C231 C232 1.351 . S
C231 N234 1.368 . S
C231 H236 0.931 . S
C232 C231 1.351 . S
C232 N233 1.373 . S
C232 H260 0.930 . S
N233 C232 1.373 . S
N233 C235 1.340 . S
N234 C231 1.368 . S
N234 C235 1.321 . S
N234 Co237 2.135 . S
C235 N233 1.340 . S
C235 N234 1.321 . S
C235 H259 0.930 . S
H236 C231 0.931 . S
Co237 N234 2.135 . S
Co237 N240 2.121 . S
Co237 O245 2.055 . S
Co237 O248 2.039 . S
Co237 N251 2.140 . S
C238 O239 1.227 . S
C238 O248 1.265 . S
O239 C238 1.227 . S
N240 Co237 2.121 . S
N240 C242 1.375 . S
N240 C243 1.313 . S
C241 C242 1.338 1_554 S
C241 N244 1.377 . S
C241 H261 0.930 . S
C242 N240 1.375 . S
C242 C241 1.338 1_556 S
C242 H246 0.931 . S
C243 N240 1.313 . S
C243 N244 1.344 1_556 S
C243 H247 0.930 . S
N244 C241 1.377 . S
N244 C243 1.344 1_554 S
O245 Co237 2.055 . S
O245 C249 1.253 . S
H246 C242 0.931 . S
H247 C243 0.930 . S
O248 Co237 2.039 . S
O248 C238 1.265 . S
C249 O245 1.253 . S
C249 O250 1.227 . S
O250 C249 1.227 . S
N251 Co237 2.140 . S
N251 C254 1.346 . S
N251 C255 1.345 . S
C252 C253 1.387 . S
C252 C256 1.391 . S
C253 C252 1.387 . S
C253 C254 1.369 . S
C253 H262 0.929 . S
C254 N251 1.346 . S
C254 C253 1.369 . S
C254 H257 0.928 . S
C255 N251 1.345 . S
C255 C256 1.371 . S
C255 H258 0.931 . S
C256 C252 1.391 . S
C256 C255 1.371 . S
C256 H263 0.930 . S
H257 C254 0.928 . S
H258 C255 0.931 . S
H259 C235 0.930 . S
H260 C232 0.930 . S
H261 C241 0.930 . S
H262 C253 0.929 . S
H263 C256 0.930 . S
C264 C265 1.351 . S
C264 N267 1.368 . S
C264 H269 0.931 . S
C265 C264 1.351 . S
C265 N266 1.373 . S
C265 H293 0.930 . S
N266 C265 1.373 . S
N266 C268 1.340 . S
N267 C264 1.368 . S
N267 C268 1.321 . S
N267 Co270 2.135 . S
C268 N266 1.340 . S
C268 N267 1.321 . S
C268 H292 0.930 . S
H269 C264 0.931 . S
Co270 N267 2.135 . S
Co270 N273 2.121 . S
Co270 O278 2.055 . S
Co270 O281 2.039 . S
Co270 N284 2.140 . S
C271 O272 1.227 . S
C271 O281 1.265 . S
O272 C271 1.227 . S
N273 Co270 2.121 . S
N273 C275 1.375 . S
N273 C276 1.313 . S
C274 C275 1.338 1_554 S
C274 N277 1.377 . S
C274 H294 0.930 . S
C275 N273 1.375 . S
C275 C274 1.338 1_556 S
C275 H279 0.931 . S
C276 N273 1.313 . S
C276 N277 1.344 1_556 S
C276 H280 0.930 . S
N277 C274 1.377 . S
N277 C276 1.344 1_554 S
O278 Co270 2.055 . S
O278 C282 1.253 . S
H279 C275 0.931 . S
H280 C276 0.930 . S
O281 Co270 2.039 . S
O281 C271 1.265 . S
C282 O278 1.253 . S
C282 O283 1.227 . S
O283 C282 1.227 . S
N284 Co270 2.140 . S
N284 C287 1.346 . S
N284 C288 1.345 . S
C285 C286 1.387 . S
C285 C289 1.391 . S
C286 C285 1.387 . S
C286 C287 1.369 . S
C286 H295 0.929 . S
C287 N284 1.346 . S
C287 C286 1.369 . S
C287 H290 0.928 . S
C288 N284 1.345 . S
C288 C289 1.371 . S
C288 H291 0.931 . S
C289 C285 1.391 . S
C289 C288 1.371 . S
C289 H296 0.930 . S
H290 C287 0.928 . S
H291 C288 0.931 . S
H292 C268 0.930 . S
H293 C265 0.930 . S
H294 C274 0.930 . S
H295 C286 0.929 . S
H296 C289 0.930 . S
C297 C298 1.351 . S
C297 N300 1.368 . S
C297 H302 0.931 . S
C298 C297 1.351 . S
C298 N299 1.373 . S
C298 H326 0.930 . S
N299 C298 1.373 . S
N299 C301 1.340 . S
N300 C297 1.368 . S
N300 C301 1.321 . S
N300 Co303 2.135 . S
C301 N299 1.340 . S
C301 N300 1.321 . S
C301 H325 0.930 . S
H302 C297 0.931 . S
Co303 N300 2.135 . S
Co303 N306 2.121 . S
Co303 O311 2.055 . S
Co303 O314 2.039 . S
Co303 N317 2.140 . S
C304 O305 1.227 . S
C304 O314 1.265 . S
O305 C304 1.227 . S
N306 Co303 2.121 . S
N306 C308 1.375 . S
N306 C309 1.313 . S
C307 C308 1.338 1_556 S
C307 N310 1.377 . S
C307 H327 0.930 . S
C308 N306 1.375 . S
C308 C307 1.338 1_554 S
C308 H312 0.931 . S
C309 N306 1.313 . S
C309 N310 1.344 1_554 S
C309 H313 0.930 . S
N310 C307 1.377 . S
N310 C309 1.344 1_556 S
O311 Co303 2.055 . S
O311 C315 1.253 . S
H312 C308 0.931 . S
H313 C309 0.930 . S
O314 Co303 2.039 . S
O314 C304 1.265 . S
C315 O311 1.253 . S
C315 O316 1.227 . S
O316 C315 1.227 . S
N317 Co303 2.140 . S
N317 C320 1.346 . S
N317 C321 1.345 . S
C318 C319 1.387 . S
C318 C322 1.391 . S
C319 C318 1.387 . S
C319 C320 1.369 . S
C319 H328 0.929 . S
C320 N317 1.346 . S
C320 C319 1.369 . S
C320 H323 0.928 . S
C321 N317 1.345 . S
C321 C322 1.371 . S
C321 H324 0.931 . S
C322 C318 1.391 . S
C322 C321 1.371 . S
C322 H329 0.930 . S
H323 C320 0.928 . S
H324 C321 0.931 . S
H325 C301 0.930 . S
H326 C298 0.930 . S
H327 C307 0.930 . S
H328 C319 0.929 . S
H329 C322 0.930 . S
C330 C331 1.351 . S
C330 N333 1.368 . S
C330 H335 0.931 . S
C331 C330 1.351 . S
C331 N332 1.373 . S
C331 H359 0.930 . S
N332 C331 1.373 . S
N332 C334 1.340 . S
N333 C330 1.368 . S
N333 C334 1.321 . S
N333 Co336 2.135 . S
C334 N332 1.340 . S
C334 N333 1.321 . S
C334 H358 0.930 . S
H335 C330 0.931 . S
Co336 N333 2.135 . S
Co336 N339 2.121 . S
Co336 O344 2.055 . S
Co336 O347 2.039 . S
Co336 N350 2.140 . S
C337 O338 1.227 . S
C337 O347 1.265 . S
O338 C337 1.227 . S
N339 Co336 2.121 . S
N339 C341 1.375 . S
N339 C342 1.313 . S
C340 C341 1.338 1_556 S
C340 N343 1.377 . S
C340 H360 0.930 . S
C341 N339 1.375 . S
C341 C340 1.338 1_554 S
C341 H345 0.931 . S
C342 N339 1.313 . S
C342 N343 1.344 1_554 S
C342 H346 0.930 . S
N343 C340 1.377 . S
N343 C342 1.344 1_556 S
O344 Co336 2.055 . S
O344 C348 1.253 . S
H345 C341 0.931 . S
H346 C342 0.930 . S
O347 Co336 2.039 . S
O347 C337 1.265 . S
C348 O344 1.253 . S
C348 O349 1.227 . S
O349 C348 1.227 . S
N350 Co336 2.140 . S
N350 C353 1.346 . S
N350 C354 1.345 . S
C351 C352 1.387 . S
C351 C355 1.391 . S
C352 C351 1.387 . S
C352 C353 1.369 . S
C352 H361 0.929 . S
C353 N350 1.346 . S
C353 C352 1.369 . S
C353 H356 0.928 . S
C354 N350 1.345 . S
C354 C355 1.371 . S
C354 H357 0.931 . S
C355 C351 1.391 . S
C355 C354 1.371 . S
C355 H362 0.930 . S
H356 C353 0.928 . S
H357 C354 0.931 . S
H358 C334 0.930 . S
H359 C331 0.930 . S
H360 C340 0.930 . S
H361 C352 0.929 . S
H362 C355 0.930 . S
C363 C364 1.351 . S
C363 N366 1.368 . S
C363 H368 0.931 . S
C364 C363 1.351 . S
C364 N365 1.373 . S
C364 H392 0.930 . S
N365 C364 1.373 . S
N365 C367 1.340 . S
N366 C363 1.368 . S
N366 C367 1.321 . S
N366 Co369 2.135 . S
C367 N365 1.340 . S
C367 N366 1.321 . S
C367 H391 0.930 . S
H368 C363 0.931 . S
Co369 N366 2.135 . S
Co369 N372 2.121 . S
Co369 O377 2.055 . S
Co369 O380 2.039 . S
Co369 N383 2.140 . S
C370 O371 1.227 . S
C370 O380 1.265 . S
O371 C370 1.227 . S
N372 Co369 2.121 . S
N372 C374 1.375 . S
N372 C375 1.313 . S
C373 C374 1.338 1_556 S
C373 N376 1.377 . S
C373 H393 0.930 . S
C374 N372 1.375 . S
C374 C373 1.338 1_554 S
C374 H378 0.931 . S
C375 N372 1.313 . S
C375 N376 1.344 1_554 S
C375 H379 0.930 . S
N376 C373 1.377 . S
N376 C375 1.344 1_556 S
O377 Co369 2.055 . S
O377 C381 1.253 . S
H378 C374 0.931 . S
H379 C375 0.930 . S
O380 Co369 2.039 . S
O380 C370 1.265 . S
C381 O377 1.253 . S
C381 O382 1.227 . S
O382 C381 1.227 . S
N383 Co369 2.140 . S
N383 C386 1.346 . S
N383 C387 1.345 . S
C384 C385 1.387 . S
C384 C388 1.391 . S
C385 C384 1.387 . S
C385 C386 1.369 . S
C385 H394 0.929 . S
C386 N383 1.346 . S
C386 C385 1.369 . S
C386 H389 0.928 . S
C387 N383 1.345 . S
C387 C388 1.371 . S
C387 H390 0.931 . S
C388 C384 1.391 . S
C388 C387 1.371 . S
C388 H395 0.930 . S
H389 C386 0.928 . S
H390 C387 0.931 . S
H391 C367 0.930 . S
H392 C364 0.930 . S
H393 C373 0.930 . S
H394 C385 0.929 . S
H395 C388 0.930 . S
C396 C397 1.351 . S
C396 N399 1.368 . S
C396 H401 0.931 . S
C397 C396 1.351 . S
C397 N398 1.373 . S
C397 H425 0.930 . S
N398 C397 1.373 . S
N398 C400 1.340 . S
N399 C396 1.368 . S
N399 C400 1.321 . S
N399 Co402 2.135 . S
C400 N398 1.340 . S
C400 N399 1.321 . S
C400 H424 0.930 . S
H401 C396 0.931 . S
Co402 N399 2.135 . S
Co402 N405 2.121 . S
Co402 O410 2.055 . S
Co402 O413 2.039 . S
Co402 N416 2.140 . S
C403 O404 1.227 . S
C403 O413 1.265 . S
O404 C403 1.227 . S
N405 Co402 2.121 . S
N405 C407 1.375 . S
N405 C408 1.313 . S
C406 C407 1.338 . S
C406 N409 1.377 . S
C406 H426 0.930 . S
C407 N405 1.375 . S
C407 C406 1.338 . S
C407 H411 0.931 . S
C408 N405 1.313 . S
C408 N409 1.344 . S
C408 H412 0.930 . S
N409 C406 1.377 . S
N409 C408 1.344 . S
O410 Co402 2.055 . S
O410 C414 1.253 . S
H411 C407 0.931 . S
H412 C408 0.930 . S
O413 Co402 2.039 . S
O413 C403 1.265 . S
C414 O410 1.253 . S
C414 O415 1.227 . S
O415 C414 1.227 . S
N416 Co402 2.140 . S
N416 C419 1.346 . S
N416 C420 1.345 . S
C417 C418 1.387 . S
C417 C421 1.391 . S
C418 C417 1.387 . S
C418 C419 1.369 . S
C418 H427 0.929 . S
C419 N416 1.346 . S
C419 C418 1.369 . S
C419 H422 0.928 . S
C420 N416 1.345 . S
C420 C421 1.371 . S
C420 H423 0.931 . S
C421 C417 1.391 . S
C421 C420 1.371 . S
C421 H428 0.930 . S
H422 C419 0.928 . S
H423 C420 0.931 . S
H424 C400 0.930 . S
H425 C397 0.930 . S
H426 C406 0.930 . S
H427 C418 0.929 . S
H428 C421 0.930 . S
C429 C430 1.351 . S
C429 N432 1.368 . S
C429 H434 0.931 . S
C430 C429 1.351 . S
C430 N431 1.373 . S
C430 H458 0.930 . S
N431 C430 1.373 . S
N431 C433 1.340 . S
N432 C429 1.368 . S
N432 C433 1.321 . S
N432 Co435 2.135 . S
C433 N431 1.340 . S
C433 N432 1.321 . S
C433 H457 0.930 . S
H434 C429 0.931 . S
Co435 N432 2.135 . S
Co435 N438 2.121 . S
Co435 O443 2.055 . S
Co435 O446 2.039 . S
Co435 N449 2.140 . S
C436 O437 1.227 . S
C436 O446 1.265 . S
O437 C436 1.227 . S
N438 Co435 2.121 . S
N438 C440 1.375 . S
N438 C441 1.313 . S
C439 C440 1.338 . S
C439 N442 1.377 . S
C439 H459 0.930 . S
C440 N438 1.375 . S
C440 C439 1.338 . S
C440 H444 0.931 . S
C441 N438 1.313 . S
C441 N442 1.344 . S
C441 H445 0.930 . S
N442 C439 1.377 . S
N442 C441 1.344 . S
O443 Co435 2.055 . S
O443 C447 1.253 . S
H444 C440 0.931 . S
H445 C441 0.930 . S
O446 Co435 2.039 . S
O446 C436 1.265 . S
C447 O443 1.253 . S
C447 O448 1.227 . S
O448 C447 1.227 . S
N449 Co435 2.140 . S
N449 C452 1.346 . S
N449 C453 1.345 . S
C450 C451 1.387 . S
C450 C454 1.391 . S
C451 C450 1.387 . S
C451 C452 1.369 . S
C451 H460 0.929 . S
C452 N449 1.346 . S
C452 C451 1.369 . S
C452 H455 0.928 . S
C453 N449 1.345 . S
C453 C454 1.371 . S
C453 H456 0.931 . S
C454 C450 1.391 . S
C454 C453 1.371 . S
C454 H461 0.930 . S
H455 C452 0.928 . S
H456 C453 0.931 . S
H457 C433 0.930 . S
H458 C430 0.930 . S
H459 C439 0.930 . S
H460 C451 0.929 . S
H461 C454 0.930 . S
C462 C463 1.351 . S
C462 N465 1.368 . S
C462 H467 0.931 . S
C463 C462 1.351 . S
C463 N464 1.373 . S
C463 H491 0.930 . S
N464 C463 1.373 . S
N464 C466 1.340 . S
N465 C462 1.368 . S
N465 C466 1.321 . S
N465 Co468 2.135 . S
C466 N464 1.340 . S
C466 N465 1.321 . S
C466 H490 0.930 . S
H467 C462 0.931 . S
Co468 N465 2.135 . S
Co468 N471 2.121 . S
Co468 O476 2.055 . S
Co468 O479 2.039 . S
Co468 N482 2.140 . S
C469 O470 1.227 . S
C469 O479 1.265 . S
O470 C469 1.227 . S
N471 Co468 2.121 . S
N471 C473 1.375 . S
N471 C474 1.313 . S
C472 C473 1.338 . S
C472 N475 1.377 . S
C472 H492 0.930 . S
C473 N471 1.375 . S
C473 C472 1.338 . S
C473 H477 0.931 . S
C474 N471 1.313 . S
C474 N475 1.344 . S
C474 H478 0.930 . S
N475 C472 1.377 . S
N475 C474 1.344 . S
O476 Co468 2.055 . S
O476 C480 1.253 . S
H477 C473 0.931 . S
H478 C474 0.930 . S
O479 Co468 2.039 . S
O479 C469 1.265 . S
C480 O476 1.253 . S
C480 O481 1.227 . S
O481 C480 1.227 . S
N482 Co468 2.140 . S
N482 C485 1.346 . S
N482 C486 1.345 . S
C483 C484 1.387 . S
C483 C487 1.391 . S
C484 C483 1.387 . S
C484 C485 1.369 . S
C484 H493 0.929 . S
C485 N482 1.346 . S
C485 C484 1.369 . S
C485 H488 0.928 . S
C486 N482 1.345 . S
C486 C487 1.371 . S
C486 H489 0.931 . S
C487 C483 1.391 . S
C487 C486 1.371 . S
C487 H494 0.930 . S
H488 C485 0.928 . S
H489 C486 0.931 . S
H490 C466 0.930 . S
H491 C463 0.930 . S
H492 C472 0.930 . S
H493 C484 0.929 . S
H494 C487 0.930 . S
C495 C496 1.351 . S
C495 N498 1.368 . S
C495 H500 0.931 . S
C496 C495 1.351 . S
C496 N497 1.373 . S
C496 H524 0.930 . S
N497 C496 1.373 . S
N497 C499 1.340 . S
N498 C495 1.368 . S
N498 C499 1.321 . S
N498 Co501 2.135 1_556 S
C499 N497 1.340 . S
C499 N498 1.321 . S
C499 H523 0.930 . S
H500 C495 0.931 . S
Co501 N498 2.135 1_554 S
Co501 N504 2.121 . S
Co501 O509 2.055 . S
Co501 O512 2.039 . S
Co501 N515 2.140 . S
C502 O503 1.227 1_554 S
C502 O512 1.265 . S
O503 C502 1.227 1_556 S
N504 Co501 2.121 . S
N504 C506 1.375 . S
N504 C507 1.313 . S
C505 C506 1.338 . S
C505 N508 1.377 . S
C505 H525 0.930 . S
C506 N504 1.375 . S
C506 C505 1.338 . S
C506 H510 0.931 . S
C507 N504 1.313 . S
C507 N508 1.344 . S
C507 H511 0.930 . S
N508 C505 1.377 . S
N508 C507 1.344 . S
O509 Co501 2.055 . S
O509 C513 1.253 . S
H510 C506 0.931 . S
H511 C507 0.930 . S
O512 Co501 2.039 . S
O512 C502 1.265 . S
C513 O509 1.253 . S
C513 O514 1.227 . S
O514 C513 1.227 . S
N515 Co501 2.140 . S
N515 C518 1.346 1_554 S
N515 C519 1.345 . S
C516 C517 1.387 1_554 S
C516 C520 1.391 . S
C517 C516 1.387 1_556 S
C517 C518 1.369 . S
C517 H526 0.929 . S
C518 N515 1.346 1_556 S
C518 C517 1.369 . S
C518 H521 0.928 . S
C519 N515 1.345 . S
C519 C520 1.371 . S
C519 H522 0.931 . S
C520 C516 1.391 . S
C520 C519 1.371 . S
C520 H527 0.930 . S
H521 C518 0.928 . S
H522 C519 0.931 . S
H523 C499 0.930 . S
H524 C496 0.930 . S
H525 C505 0.930 . S
H526 C517 0.929 . S
H527 C520 0.930 . S
C528 C529 1.351 . S
C528 N531 1.368 . S
C528 H533 0.931 . S
C529 C528 1.351 . S
C529 N530 1.373 . S
C529 H557 0.930 . S
N530 C529 1.373 . S
N530 C532 1.340 . S
N531 C528 1.368 . S
N531 C532 1.321 . S
N531 Co534 2.135 1_556 S
C532 N530 1.340 . S
C532 N531 1.321 . S
C532 H556 0.930 . S
H533 C528 0.931 . S
Co534 N531 2.135 1_554 S
Co534 N537 2.121 . S
Co534 O542 2.055 . S
Co534 O545 2.039 . S
Co534 N548 2.140 . S
C535 O536 1.227 1_554 S
C535 O545 1.265 . S
O536 C535 1.227 1_556 S
N537 Co534 2.121 . S
N537 C539 1.375 . S
N537 C540 1.313 . S
C538 C539 1.338 . S
C538 N541 1.377 . S
C538 H558 0.930 . S
C539 N537 1.375 . S
C539 C538 1.338 . S
C539 H543 0.931 . S
C540 N537 1.313 . S
C540 N541 1.344 . S
C540 H544 0.930 . S
N541 C538 1.377 . S
N541 C540 1.344 . S
O542 Co534 2.055 . S
O542 C546 1.253 . S
H543 C539 0.931 . S
H544 C540 0.930 . S
O545 Co534 2.039 . S
O545 C535 1.265 . S
C546 O542 1.253 . S
C546 O547 1.227 . S
O547 C546 1.227 . S
N548 Co534 2.140 . S
N548 C551 1.346 1_554 S
N548 C552 1.345 . S
C549 C550 1.387 1_554 S
C549 C553 1.391 . S
C550 C549 1.387 1_556 S
C550 C551 1.369 . S
C550 H559 0.929 . S
C551 N548 1.346 1_556 S
C551 C550 1.369 . S
C551 H554 0.928 . S
C552 N548 1.345 . S
C552 C553 1.371 . S
C552 H555 0.931 . S
C553 C549 1.391 . S
C553 C552 1.371 . S
C553 H560 0.930 . S
H554 C551 0.928 . S
H555 C552 0.931 . S
H556 C532 0.930 . S
H557 C529 0.930 . S
H558 C538 0.930 . S
H559 C550 0.929 . S
H560 C553 0.930 . S
C561 C562 1.351 . S
C561 N564 1.368 . S
C561 H566 0.931 . S
C562 C561 1.351 . S
C562 N563 1.373 . S
C562 H590 0.930 . S
N563 C562 1.373 . S
N563 C565 1.340 . S
N564 C561 1.368 . S
N564 C565 1.321 . S
N564 Co567 2.135 1_556 S
C565 N563 1.340 . S
C565 N564 1.321 . S
C565 H589 0.930 . S
H566 C561 0.931 . S
Co567 N564 2.135 1_554 S
Co567 N570 2.121 . S
Co567 O575 2.055 . S
Co567 O578 2.039 . S
Co567 N581 2.140 . S
C568 O569 1.227 1_554 S
C568 O578 1.265 . S
O569 C568 1.227 1_556 S
N570 Co567 2.121 . S
N570 C572 1.375 . S
N570 C573 1.313 . S
C571 C572 1.338 . S
C571 N574 1.377 . S
C571 H591 0.930 . S
C572 N570 1.375 . S
C572 C571 1.338 . S
C572 H576 0.931 . S
C573 N570 1.313 . S
C573 N574 1.344 . S
C573 H577 0.930 . S
N574 C571 1.377 . S
N574 C573 1.344 . S
O575 Co567 2.055 . S
O575 C579 1.253 . S
H576 C572 0.931 . S
H577 C573 0.930 . S
O578 Co567 2.039 . S
O578 C568 1.265 . S
C579 O575 1.253 . S
C579 O580 1.227 . S
O580 C579 1.227 . S
N581 Co567 2.140 . S
N581 C584 1.346 1_554 S
N581 C585 1.345 . S
C582 C583 1.387 1_554 S
C582 C586 1.391 . S
C583 C582 1.387 1_556 S
C583 C584 1.369 . S
C583 H592 0.929 . S
C584 N581 1.346 1_556 S
C584 C583 1.369 . S
C584 H587 0.928 . S
C585 N581 1.345 . S
C585 C586 1.371 . S
C585 H588 0.931 . S
C586 C582 1.391 . S
C586 C585 1.371 . S
C586 H593 0.930 . S
H587 C584 0.928 . S
H588 C585 0.931 . S
H589 C565 0.930 . S
H590 C562 0.930 . S
H591 C571 0.930 . S
H592 C583 0.929 . S
H593 C586 0.930 . S
C594 C595 1.351 . S
C594 N597 1.368 . S
C594 H599 0.931 . S
C595 C594 1.351 . S
C595 N596 1.373 . S
C595 H623 0.930 . S
N596 C595 1.373 . S
N596 C598 1.340 . S
N597 C594 1.368 . S
N597 C598 1.321 . S
N597 Co600 2.135 1_556 S
C598 N596 1.340 . S
C598 N597 1.321 . S
C598 H622 0.930 . S
H599 C594 0.931 . S
Co600 N597 2.135 1_554 S
Co600 N603 2.121 . S
Co600 O608 2.055 . S
Co600 O611 2.039 . S
Co600 N614 2.140 . S
C601 O602 1.227 1_554 S
C601 O611 1.265 . S
O602 C601 1.227 1_556 S
N603 Co600 2.121 . S
N603 C605 1.375 . S
N603 C606 1.313 . S
C604 C605 1.338 . S
C604 N607 1.377 . S
C604 H624 0.930 . S
C605 N603 1.375 . S
C605 C604 1.338 . S
C605 H609 0.931 . S
C606 N603 1.313 . S
C606 N607 1.344 . S
C606 H610 0.930 . S
N607 C604 1.377 . S
N607 C606 1.344 . S
O608 Co600 2.055 . S
O608 C612 1.253 . S
H609 C605 0.931 . S
H610 C606 0.930 . S
O611 Co600 2.039 . S
O611 C601 1.265 . S
C612 O608 1.253 . S
C612 O613 1.227 . S
O613 C612 1.227 . S
N614 Co600 2.140 . S
N614 C617 1.346 1_554 S
N614 C618 1.345 . S
C615 C616 1.387 1_554 S
C615 C619 1.391 . S
C616 C615 1.387 1_556 S
C616 C617 1.369 . S
C616 H625 0.929 . S
C617 N614 1.346 1_556 S
C617 C616 1.369 . S
C617 H620 0.928 . S
C618 N614 1.345 . S
C618 C619 1.371 . S
C618 H621 0.931 . S
C619 C615 1.391 . S
C619 C618 1.371 . S
C619 H626 0.930 . S
H620 C617 0.928 . S
H621 C618 0.931 . S
H622 C598 0.930 . S
H623 C595 0.930 . S
H624 C604 0.930 . S
H625 C616 0.929 . S
H626 C619 0.930 . S
C627 C628 1.351 . S
C627 N630 1.368 . S
C627 H632 0.931 . S
C628 C627 1.351 . S
C628 N629 1.373 . S
C628 H656 0.930 . S
N629 C628 1.373 . S
N629 C631 1.340 . S
N630 C627 1.368 . S
N630 C631 1.321 . S
N630 Co633 2.135 1_556 S
C631 N629 1.340 . S
C631 N630 1.321 . S
C631 H655 0.930 . S
H632 C627 0.931 . S
Co633 N630 2.135 1_554 S
Co633 N636 2.121 . S
Co633 O641 2.055 . S
Co633 O644 2.039 . S
Co633 N647 2.140 . S
C634 O635 1.227 1_554 S
C634 O644 1.265 . S
O635 C634 1.227 1_556 S
N636 Co633 2.121 . S
N636 C638 1.375 . S
N636 C639 1.313 . S
C637 C638 1.338 . S
C637 N640 1.377 . S
C637 H657 0.930 . S
C638 N636 1.375 . S
C638 C637 1.338 . S
C638 H642 0.931 . S
C639 N636 1.313 . S
C639 N640 1.344 . S
C639 H643 0.930 . S
N640 C637 1.377 . S
N640 C639 1.344 . S
O641 Co633 2.055 . S
O641 C645 1.253 . S
H642 C638 0.931 . S
H643 C639 0.930 . S
O644 Co633 2.039 . S
O644 C634 1.265 . S
C645 O641 1.253 . S
C645 O646 1.227 . S
O646 C645 1.227 . S
N647 Co633 2.140 . S
N647 C650 1.346 1_554 S
N647 C651 1.345 . S
C648 C649 1.387 1_554 S
C648 C652 1.391 . S
C649 C648 1.387 1_556 S
C649 C650 1.369 . S
C649 H658 0.929 . S
C650 N647 1.346 1_556 S
C650 C649 1.369 . S
C650 H653 0.928 . S
C651 N647 1.345 . S
C651 C652 1.371 . S
C651 H654 0.931 . S
C652 C648 1.391 . S
C652 C651 1.371 . S
C652 H659 0.930 . S
H653 C650 0.928 . S
H654 C651 0.931 . S
H655 C631 0.930 . S
H656 C628 0.930 . S
H657 C637 0.930 . S
H658 C649 0.929 . S
H659 C652 0.930 . S
C660 C661 1.351 . S
C660 N663 1.368 . S
C660 H665 0.931 . S
C661 C660 1.351 . S
C661 N662 1.373 . S
C661 H689 0.930 . S
N662 C661 1.373 . S
N662 C664 1.340 . S
N663 C660 1.368 . S
N663 C664 1.321 . S
N663 Co666 2.135 1_556 S
C664 N662 1.340 . S
C664 N663 1.321 . S
C664 H688 0.930 . S
H665 C660 0.931 . S
Co666 N663 2.135 1_554 S
Co666 N669 2.121 . S
Co666 O674 2.055 . S
Co666 O677 2.039 . S
Co666 N680 2.140 . S
C667 O668 1.227 1_554 S
C667 O677 1.265 . S
O668 C667 1.227 1_556 S
N669 Co666 2.121 . S
N669 C671 1.375 . S
N669 C672 1.313 . S
C670 C671 1.338 . S
C670 N673 1.377 . S
C670 H690 0.930 . S
C671 N669 1.375 . S
C671 C670 1.338 . S
C671 H675 0.931 . S
C672 N669 1.313 . S
C672 N673 1.344 . S
C672 H676 0.930 . S
N673 C670 1.377 . S
N673 C672 1.344 . S
O674 Co666 2.055 . S
O674 C678 1.253 . S
H675 C671 0.931 . S
H676 C672 0.930 . S
O677 Co666 2.039 . S
O677 C667 1.265 . S
C678 O674 1.253 . S
C678 O679 1.227 . S
O679 C678 1.227 . S
N680 Co666 2.140 . S
N680 C683 1.346 1_554 S
N680 C684 1.345 . S
C681 C682 1.387 1_554 S
C681 C685 1.391 . S
C682 C681 1.387 1_556 S
C682 C683 1.369 . S
C682 H691 0.929 . S
C683 N680 1.346 1_556 S
C683 C682 1.369 . S
C683 H686 0.928 . S
C684 N680 1.345 . S
C684 C685 1.371 . S
C684 H687 0.931 . S
C685 C681 1.391 . S
C685 C684 1.371 . S
C685 H692 0.930 . S
H686 C683 0.928 . S
H687 C684 0.931 . S
H688 C664 0.930 . S
H689 C661 0.930 . S
H690 C670 0.930 . S
H691 C682 0.929 . S
H692 C685 0.930 . S
C693 C694 1.351 . S
C693 N696 1.368 . S
C693 H698 0.931 . S
C694 C693 1.351 . S
C694 N695 1.373 . S
C694 H722 0.930 . S
N695 C694 1.373 . S
N695 C697 1.340 . S
N696 C693 1.368 . S
N696 C697 1.321 . S
N696 Co699 2.135 . S
C697 N695 1.340 . S
C697 N696 1.321 . S
C697 H721 0.930 . S
H698 C693 0.931 . S
Co699 N696 2.135 . S
Co699 N702 2.121 . S
Co699 O707 2.055 . S
Co699 O710 2.039 . S
Co699 N713 2.140 . S
C700 O701 1.227 . S
C700 O710 1.265 . S
O701 C700 1.227 . S
N702 Co699 2.121 . S
N702 C704 1.375 . S
N702 C705 1.313 . S
C703 C704 1.338 . S
C703 N706 1.377 . S
C703 H723 0.930 . S
C704 N702 1.375 . S
C704 C703 1.338 . S
C704 H708 0.931 . S
C705 N702 1.313 . S
C705 N706 1.344 . S
C705 H709 0.930 . S
N706 C703 1.377 . S
N706 C705 1.344 . S
O707 Co699 2.055 . S
O707 C711 1.253 . S
H708 C704 0.931 . S
H709 C705 0.930 . S
O710 Co699 2.039 . S
O710 C700 1.265 . S
C711 O707 1.253 . S
C711 O712 1.227 . S
O712 C711 1.227 . S
N713 Co699 2.140 . S
N713 C716 1.346 . S
N713 C717 1.345 . S
C714 C715 1.387 . S
C714 C718 1.391 . S
C715 C714 1.387 . S
C715 C716 1.369 . S
C715 H724 0.929 . S
C716 N713 1.346 . S
C716 C715 1.369 . S
C716 H719 0.928 . S
C717 N713 1.345 . S
C717 C718 1.371 . S
C717 H720 0.931 . S
C718 C714 1.391 . S
C718 C717 1.371 . S
C718 H725 0.930 . S
H719 C716 0.928 . S
H720 C717 0.931 . S
H721 C697 0.930 . S
H722 C694 0.930 . S
H723 C703 0.930 . S
H724 C715 0.929 . S
H725 C718 0.930 . S
C726 C727 1.351 . S
C726 N729 1.368 . S
C726 H731 0.931 . S
C727 C726 1.351 . S
C727 N728 1.373 . S
C727 H755 0.930 . S
N728 C727 1.373 . S
N728 C730 1.340 . S
N729 C726 1.368 . S
N729 C730 1.321 . S
N729 Co732 2.135 . S
C730 N728 1.340 . S
C730 N729 1.321 . S
C730 H754 0.930 . S
H731 C726 0.931 . S
Co732 N729 2.135 . S
Co732 N735 2.121 . S
Co732 O740 2.055 . S
Co732 O743 2.039 . S
Co732 N746 2.140 . S
C733 O734 1.227 . S
C733 O743 1.265 . S
O734 C733 1.227 . S
N735 Co732 2.121 . S
N735 C737 1.375 . S
N735 C738 1.313 . S
C736 C737 1.338 . S
C736 N739 1.377 . S
C736 H756 0.930 . S
C737 N735 1.375 . S
C737 C736 1.338 . S
C737 H741 0.931 . S
C738 N735 1.313 . S
C738 N739 1.344 . S
C738 H742 0.930 . S
N739 C736 1.377 . S
N739 C738 1.344 . S
O740 Co732 2.055 . S
O740 C744 1.253 . S
H741 C737 0.931 . S
H742 C738 0.930 . S
O743 Co732 2.039 . S
O743 C733 1.265 . S
C744 O740 1.253 . S
C744 O745 1.227 . S
O745 C744 1.227 . S
N746 Co732 2.140 . S
N746 C749 1.346 . S
N746 C750 1.345 . S
C747 C748 1.387 . S
C747 C751 1.391 . S
C748 C747 1.387 . S
C748 C749 1.369 . S
C748 H757 0.929 . S
C749 N746 1.346 . S
C749 C748 1.369 . S
C749 H752 0.928 . S
C750 N746 1.345 . S
C750 C751 1.371 . S
C750 H753 0.931 . S
C751 C747 1.391 . S
C751 C750 1.371 . S
C751 H758 0.930 . S
H752 C749 0.928 . S
H753 C750 0.931 . S
H754 C730 0.930 . S
H755 C727 0.930 . S
H756 C736 0.930 . S
H757 C748 0.929 . S
H758 C751 0.930 . S
C759 C760 1.351 . S
C759 N762 1.368 . S
C759 H764 0.931 . S
C760 C759 1.351 . S
C760 N761 1.373 . S
C760 H788 0.930 . S
N761 C760 1.373 . S
N761 C763 1.340 . S
N762 C759 1.368 . S
N762 C763 1.321 . S
N762 Co765 2.135 . S
C763 N761 1.340 . S
C763 N762 1.321 . S
C763 H787 0.930 . S
H764 C759 0.931 . S
Co765 N762 2.135 . S
Co765 N768 2.121 . S
Co765 O773 2.055 . S
Co765 O776 2.039 . S
Co765 N779 2.140 . S
C766 O767 1.227 . S
C766 O776 1.265 . S
O767 C766 1.227 . S
N768 Co765 2.121 . S
N768 C770 1.375 . S
N768 C771 1.313 . S
C769 C770 1.338 . S
C769 N772 1.377 . S
C769 H789 0.930 . S
C770 N768 1.375 . S
C770 C769 1.338 . S
C770 H774 0.931 . S
C771 N768 1.313 . S
C771 N772 1.344 . S
C771 H775 0.930 . S
N772 C769 1.377 . S
N772 C771 1.344 . S
O773 Co765 2.055 . S
O773 C777 1.253 . S
H774 C770 0.931 . S
H775 C771 0.930 . S
O776 Co765 2.039 . S
O776 C766 1.265 . S
C777 O773 1.253 . S
C777 O778 1.227 . S
O778 C777 1.227 . S
N779 Co765 2.140 . S
N779 C782 1.346 . S
N779 C783 1.345 . S
C780 C781 1.387 . S
C780 C784 1.391 . S
C781 C780 1.387 . S
C781 C782 1.369 . S
C781 H790 0.929 . S
C782 N779 1.346 . S
C782 C781 1.369 . S
C782 H785 0.928 . S
C783 N779 1.345 . S
C783 C784 1.371 . S
C783 H786 0.931 . S
C784 C780 1.391 . S
C784 C783 1.371 . S
C784 H791 0.930 . S
H785 C782 0.928 . S
H786 C783 0.931 . S
H787 C763 0.930 . S
H788 C760 0.930 . S
H789 C769 0.930 . S
H790 C781 0.929 . S
H791 C784 0.930 . S
C792 C793 1.351 . S
C792 N795 1.368 . S
C792 H797 0.931 . S
C793 C792 1.351 . S
C793 N794 1.373 . S
C793 H821 0.930 . S
N794 C793 1.373 . S
N794 C796 1.340 . S
N795 C792 1.368 . S
N795 C796 1.321 . S
N795 Co798 2.135 1_554 S
C796 N794 1.340 . S
C796 N795 1.321 . S
C796 H820 0.930 . S
H797 C792 0.931 . S
Co798 N795 2.135 1_556 S
Co798 N801 2.121 . S
Co798 O806 2.055 . S
Co798 O809 2.039 . S
Co798 N812 2.140 . S
C799 O800 1.227 1_556 S
C799 O809 1.265 . S
O800 C799 1.227 1_554 S
N801 Co798 2.121 . S
N801 C803 1.375 . S
N801 C804 1.313 . S
C802 C803 1.338 . S
C802 N805 1.377 . S
C802 H822 0.930 . S
C803 N801 1.375 . S
C803 C802 1.338 . S
C803 H807 0.931 . S
C804 N801 1.313 . S
C804 N805 1.344 . S
C804 H808 0.930 . S
N805 C802 1.377 . S
N805 C804 1.344 . S
O806 Co798 2.055 . S
O806 C810 1.253 . S
H807 C803 0.931 . S
H808 C804 0.930 . S
O809 Co798 2.039 . S
O809 C799 1.265 . S
C810 O806 1.253 . S
C810 O811 1.227 . S
O811 C810 1.227 . S
N812 Co798 2.140 . S
N812 C815 1.346 1_556 S
N812 C816 1.345 . S
C813 C814 1.387 1_556 S
C813 C817 1.391 . S
C814 C813 1.387 1_554 S
C814 C815 1.369 . S
C814 H823 0.929 . S
C815 N812 1.346 1_554 S
C815 C814 1.369 . S
C815 H818 0.928 . S
C816 N812 1.345 . S
C816 C817 1.371 . S
C816 H819 0.931 . S
C817 C813 1.391 . S
C817 C816 1.371 . S
C817 H824 0.930 . S
H818 C815 0.928 . S
H819 C816 0.931 . S
H820 C796 0.930 . S
H821 C793 0.930 . S
H822 C802 0.930 . S
H823 C814 0.929 . S
H824 C817 0.930 . S
C825 C826 1.351 . S
C825 N828 1.368 . S
C825 H830 0.931 . S
C826 C825 1.351 . S
C826 N827 1.373 . S
C826 H854 0.930 . S
N827 C826 1.373 . S
N827 C829 1.340 . S
N828 C825 1.368 . S
N828 C829 1.321 . S
N828 Co831 2.135 1_554 S
C829 N827 1.340 . S
C829 N828 1.321 . S
C829 H853 0.930 . S
H830 C825 0.931 . S
Co831 N828 2.135 1_556 S
Co831 N834 2.121 . S
Co831 O839 2.055 . S
Co831 O842 2.039 . S
Co831 N845 2.140 . S
C832 O833 1.227 1_556 S
C832 O842 1.265 . S
O833 C832 1.227 1_554 S
N834 Co831 2.121 . S
N834 C836 1.375 . S
N834 C837 1.313 . S
C835 C836 1.338 . S
C835 N838 1.377 . S
C835 H855 0.930 . S
C836 N834 1.375 . S
C836 C835 1.338 . S
C836 H840 0.931 . S
C837 N834 1.313 . S
C837 N838 1.344 . S
C837 H841 0.930 . S
N838 C835 1.377 . S
N838 C837 1.344 . S
O839 Co831 2.055 . S
O839 C843 1.253 . S
H840 C836 0.931 . S
H841 C837 0.930 . S
O842 Co831 2.039 . S
O842 C832 1.265 . S
C843 O839 1.253 . S
C843 O844 1.227 . S
O844 C843 1.227 . S
N845 Co831 2.140 . S
N845 C848 1.346 1_556 S
N845 C849 1.345 . S
C846 C847 1.387 1_556 S
C846 C850 1.391 . S
C847 C846 1.387 1_554 S
C847 C848 1.369 . S
C847 H856 0.929 . S
C848 N845 1.346 1_554 S
C848 C847 1.369 . S
C848 H851 0.928 . S
C849 N845 1.345 . S
C849 C850 1.371 . S
C849 H852 0.931 . S
C850 C846 1.391 . S
C850 C849 1.371 . S
C850 H857 0.930 . S
H851 C848 0.928 . S
H852 C849 0.931 . S
H853 C829 0.930 . S
H854 C826 0.930 . S
H855 C835 0.930 . S
H856 C847 0.929 . S
H857 C850 0.930 . S
C858 C859 1.351 . S
C858 N861 1.368 . S
C858 H863 0.931 . S
C859 C858 1.351 . S
C859 N860 1.373 . S
C859 H887 0.930 . S
N860 C859 1.373 . S
N860 C862 1.340 . S
N861 C858 1.368 . S
N861 C862 1.321 . S
N861 Co864 2.135 1_554 S
C862 N860 1.340 . S
C862 N861 1.321 . S
C862 H886 0.930 . S
H863 C858 0.931 . S
Co864 N861 2.135 1_556 S
Co864 N867 2.121 . S
Co864 O872 2.055 . S
Co864 O875 2.039 . S
Co864 N878 2.140 . S
C865 O866 1.227 1_556 S
C865 O875 1.265 . S
O866 C865 1.227 1_554 S
N867 Co864 2.121 . S
N867 C869 1.375 . S
N867 C870 1.313 . S
C868 C869 1.338 . S
C868 N871 1.377 . S
C868 H888 0.930 . S
C869 N867 1.375 . S
C869 C868 1.338 . S
C869 H873 0.931 . S
C870 N867 1.313 . S
C870 N871 1.344 . S
C870 H874 0.930 . S
N871 C868 1.377 . S
N871 C870 1.344 . S
O872 Co864 2.055 . S
O872 C876 1.253 . S
H873 C869 0.931 . S
H874 C870 0.930 . S
O875 Co864 2.039 . S
O875 C865 1.265 . S
C876 O872 1.253 . S
C876 O877 1.227 . S
O877 C876 1.227 . S
N878 Co864 2.140 . S
N878 C881 1.346 1_556 S
N878 C882 1.345 . S
C879 C880 1.387 1_556 S
C879 C883 1.391 . S
C880 C879 1.387 1_554 S
C880 C881 1.369 . S
C880 H889 0.929 . S
C881 N878 1.346 1_554 S
C881 C880 1.369 . S
C881 H884 0.928 . S
C882 N878 1.345 . S
C882 C883 1.371 . S
C882 H885 0.931 . S
C883 C879 1.391 . S
C883 C882 1.371 . S
C883 H890 0.930 . S
H884 C881 0.928 . S
H885 C882 0.931 . S
H886 C862 0.930 . S
H887 C859 0.930 . S
H888 C868 0.930 . S
H889 C880 0.929 . S
H890 C883 0.930 . S
C891 C892 1.351 . S
C891 N894 1.368 . S
C891 H896 0.931 . S
C892 C891 1.351 . S
C892 N893 1.373 . S
C892 H920 0.930 . S
N893 C892 1.373 . S
N893 C895 1.340 . S
N894 C891 1.368 . S
N894 C895 1.321 . S
N894 Co897 2.135 . S
C895 N893 1.340 . S
C895 N894 1.321 . S
C895 H919 0.930 . S
H896 C891 0.931 . S
Co897 N894 2.135 . S
Co897 N900 2.121 . S
Co897 O905 2.055 . S
Co897 O908 2.039 . S
Co897 N911 2.140 . S
C898 O899 1.227 . S
C898 O908 1.265 . S
O899 C898 1.227 . S
N900 Co897 2.121 . S
N900 C902 1.375 . S
N900 C903 1.313 . S
C901 C902 1.338 . S
C901 N904 1.377 . S
C901 H921 0.930 . S
C902 N900 1.375 . S
C902 C901 1.338 . S
C902 H906 0.931 . S
C903 N900 1.313 . S
C903 N904 1.344 . S
C903 H907 0.930 . S
N904 C901 1.377 . S
N904 C903 1.344 . S
O905 Co897 2.055 . S
O905 C909 1.253 . S
H906 C902 0.931 . S
H907 C903 0.930 . S
O908 Co897 2.039 . S
O908 C898 1.265 . S
C909 O905 1.253 . S
C909 O910 1.227 . S
O910 C909 1.227 . S
N911 Co897 2.140 . S
N911 C914 1.346 . S
N911 C915 1.345 . S
C912 C913 1.387 . S
C912 C916 1.391 . S
C913 C912 1.387 . S
C913 C914 1.369 . S
C913 H922 0.929 . S
C914 N911 1.346 . S
C914 C913 1.369 . S
C914 H917 0.928 . S
C915 N911 1.345 . S
C915 C916 1.371 . S
C915 H918 0.931 . S
C916 C912 1.391 . S
C916 C915 1.371 . S
C916 H923 0.930 . S
H917 C914 0.928 . S
H918 C915 0.931 . S
H919 C895 0.930 . S
H920 C892 0.930 . S
H921 C901 0.930 . S
H922 C913 0.929 . S
H923 C916 0.930 . S
C924 C925 1.351 . S
C924 N927 1.368 . S
C924 H929 0.931 . S
C925 C924 1.351 . S
C925 N926 1.373 . S
C925 H953 0.930 . S
N926 C925 1.373 . S
N926 C928 1.340 . S
N927 C924 1.368 . S
N927 C928 1.321 . S
N927 Co930 2.135 . S
C928 N926 1.340 . S
C928 N927 1.321 . S
C928 H952 0.930 . S
H929 C924 0.931 . S
Co930 N927 2.135 . S
Co930 N933 2.121 . S
Co930 O938 2.055 . S
Co930 O941 2.039 . S
Co930 N944 2.140 . S
C931 O932 1.227 . S
C931 O941 1.265 . S
O932 C931 1.227 . S
N933 Co930 2.121 . S
N933 C935 1.375 . S
N933 C936 1.313 . S
C934 C935 1.338 . S
C934 N937 1.377 . S
C934 H954 0.930 . S
C935 N933 1.375 . S
C935 C934 1.338 . S
C935 H939 0.931 . S
C936 N933 1.313 . S
C936 N937 1.344 . S
C936 H940 0.930 . S
N937 C934 1.377 . S
N937 C936 1.344 . S
O938 Co930 2.055 . S
O938 C942 1.253 . S
H939 C935 0.931 . S
H940 C936 0.930 . S
O941 Co930 2.039 . S
O941 C931 1.265 . S
C942 O938 1.253 . S
C942 O943 1.227 . S
O943 C942 1.227 . S
N944 Co930 2.140 . S
N944 C947 1.346 . S
N944 C948 1.345 . S
C945 C946 1.387 . S
C945 C949 1.391 . S
C946 C945 1.387 . S
C946 C947 1.369 . S
C946 H955 0.929 . S
C947 N944 1.346 . S
C947 C946 1.369 . S
C947 H950 0.928 . S
C948 N944 1.345 . S
C948 C949 1.371 . S
C948 H951 0.931 . S
C949 C945 1.391 . S
C949 C948 1.371 . S
C949 H956 0.930 . S
H950 C947 0.928 . S
H951 C948 0.931 . S
H952 C928 0.930 . S
H953 C925 0.930 . S
H954 C934 0.930 . S
H955 C946 0.929 . S
H956 C949 0.930 . S
C957 C958 1.351 . S
C957 N960 1.368 . S
C957 H962 0.931 . S
C958 C957 1.351 . S
C958 N959 1.373 . S
C958 H986 0.930 . S
N959 C958 1.373 . S
N959 C961 1.340 . S
N960 C957 1.368 . S
N960 C961 1.321 . S
N960 Co963 2.135 . S
C961 N959 1.340 . S
C961 N960 1.321 . S
C961 H985 0.930 . S
H962 C957 0.931 . S
Co963 N960 2.135 . S
Co963 N966 2.121 . S
Co963 O971 2.055 . S
Co963 O974 2.039 . S
Co963 N977 2.140 . S
C964 O965 1.227 . S
C964 O974 1.265 . S
O965 C964 1.227 . S
N966 Co963 2.121 . S
N966 C968 1.375 . S
N966 C969 1.313 . S
C967 C968 1.338 . S
C967 N970 1.377 . S
C967 H987 0.930 . S
C968 N966 1.375 . S
C968 C967 1.338 . S
C968 H972 0.931 . S
C969 N966 1.313 . S
C969 N970 1.344 . S
C969 H973 0.930 . S
N970 C967 1.377 . S
N970 C969 1.344 . S
O971 Co963 2.055 . S
O971 C975 1.253 . S
H972 C968 0.931 . S
H973 C969 0.930 . S
O974 Co963 2.039 . S
O974 C964 1.265 . S
C975 O971 1.253 . S
C975 O976 1.227 . S
O976 C975 1.227 . S
N977 Co963 2.140 . S
N977 C980 1.346 . S
N977 C981 1.345 . S
C978 C979 1.387 . S
C978 C982 1.391 . S
C979 C978 1.387 . S
C979 C980 1.369 . S
C979 H988 0.929 . S
C980 N977 1.346 . S
C980 C979 1.369 . S
C980 H983 0.928 . S
C981 N977 1.345 . S
C981 C982 1.371 . S
C981 H984 0.931 . S
C982 C978 1.391 . S
C982 C981 1.371 . S
C982 H989 0.930 . S
H983 C980 0.928 . S
H984 C981 0.931 . S
H985 C961 0.930 . S
H986 C958 0.930 . S
H987 C967 0.930 . S
H988 C979 0.929 . S
H989 C982 0.930 . S
C990 C991 1.351 . S
C990 N993 1.368 . S
C990 H995 0.931 . S
C991 C990 1.351 . S
C991 N992 1.373 . S
C991 H1019 0.930 . S
N992 C991 1.373 . S
N992 C994 1.340 . S
N993 C990 1.368 . S
N993 C994 1.321 . S
N993 Co996 2.135 . S
C994 N992 1.340 . S
C994 N993 1.321 . S
C994 H1018 0.930 . S
H995 C990 0.931 . S
Co996 N993 2.135 . S
Co996 N999 2.121 . S
Co996 O1004 2.055 . S
Co996 O1007 2.039 . S
Co996 N1010 2.140 . S
C997 O998 1.227 . S
C997 O1007 1.265 . S
O998 C997 1.227 . S
N999 Co996 2.121 . S
N999 C1001 1.375 . S
N999 C1002 1.313 . S
C1000 C1001 1.338 . S
C1000 N1003 1.377 . S
C1000 H1020 0.930 . S
C1001 N999 1.375 . S
C1001 C1000 1.338 . S
C1001 H1005 0.931 . S
C1002 N999 1.313 . S
C1002 N1003 1.344 . S
C1002 H1006 0.930 . S
N1003 C1000 1.377 . S
N1003 C1002 1.344 . S
O1004 Co996 2.055 . S
O1004 C1008 1.253 . S
H1005 C1001 0.931 . S
H1006 C1002 0.930 . S
O1007 Co996 2.039 . S
O1007 C997 1.265 . S
C1008 O1004 1.253 . S
C1008 O1009 1.227 . S
O1009 C1008 1.227 . S
N1010 Co996 2.140 . S
N1010 C1013 1.346 . S
N1010 C1014 1.345 . S
C1011 C1012 1.387 . S
C1011 C1015 1.391 . S
C1012 C1011 1.387 . S
C1012 C1013 1.369 . S
C1012 H1021 0.929 . S
C1013 N1010 1.346 . S
C1013 C1012 1.369 . S
C1013 H1016 0.928 . S
C1014 N1010 1.345 . S
C1014 C1015 1.371 . S
C1014 H1017 0.931 . S
C1015 C1011 1.391 . S
C1015 C1014 1.371 . S
C1015 H1022 0.930 . S
H1016 C1013 0.928 . S
H1017 C1014 0.931 . S
H1018 C994 0.930 . S
H1019 C991 0.930 . S
H1020 C1000 0.930 . S
H1021 C1012 0.929 . S
H1022 C1015 0.930 . S
C1023 C1024 1.351 . S
C1023 N1026 1.368 . S
C1023 H1028 0.931 . S
C1024 C1023 1.351 . S
C1024 N1025 1.373 . S
C1024 H1052 0.930 . S
N1025 C1024 1.373 . S
N1025 C1027 1.340 . S
N1026 C1023 1.368 . S
N1026 C1027 1.321 . S
N1026 Co1029 2.135 . S
C1027 N1025 1.340 . S
C1027 N1026 1.321 . S
C1027 H1051 0.930 . S
H1028 C1023 0.931 . S
Co1029 N1026 2.135 . S
Co1029 N1032 2.121 . S
Co1029 O1037 2.055 . S
Co1029 O1040 2.039 . S
Co1029 N1043 2.140 . S
C1030 O1031 1.227 . S
C1030 O1040 1.265 . S
O1031 C1030 1.227 . S
N1032 Co1029 2.121 . S
N1032 C1034 1.375 . S
N1032 C1035 1.313 . S
C1033 C1034 1.338 . S
C1033 N1036 1.377 . S
C1033 H1053 0.930 . S
C1034 N1032 1.375 . S
C1034 C1033 1.338 . S
C1034 H1038 0.931 . S
C1035 N1032 1.313 . S
C1035 N1036 1.344 . S
C1035 H1039 0.930 . S
N1036 C1033 1.377 . S
N1036 C1035 1.344 . S
O1037 Co1029 2.055 . S
O1037 C1041 1.253 . S
H1038 C1034 0.931 . S
H1039 C1035 0.930 . S
O1040 Co1029 2.039 . S
O1040 C1030 1.265 . S
C1041 O1037 1.253 . S
C1041 O1042 1.227 . S
O1042 C1041 1.227 . S
N1043 Co1029 2.140 . S
N1043 C1046 1.346 . S
N1043 C1047 1.345 . S
C1044 C1045 1.387 . S
C1044 C1048 1.391 . S
C1045 C1044 1.387 . S
C1045 C1046 1.369 . S
C1045 H1054 0.929 . S
C1046 N1043 1.346 . S
C1046 C1045 1.369 . S
C1046 H1049 0.928 . S
C1047 N1043 1.345 . S
C1047 C1048 1.371 . S
C1047 H1050 0.931 . S
C1048 C1044 1.391 . S
C1048 C1047 1.371 . S
C1048 H1055 0.930 . S
H1049 C1046 0.928 . S
H1050 C1047 0.931 . S
H1051 C1027 0.930 . S
H1052 C1024 0.930 . S
H1053 C1033 0.930 . S
H1054 C1045 0.929 . S
H1055 C1048 0.930 . S
C1056 C1057 1.351 . S
C1056 N1059 1.368 . S
C1056 H1061 0.931 . S
C1057 C1056 1.351 . S
C1057 N1058 1.373 . S
C1057 H1085 0.930 . S
N1058 C1057 1.373 . S
N1058 C1060 1.340 . S
N1059 C1056 1.368 . S
N1059 C1060 1.321 . S
N1059 Co1062 2.135 . S
C1060 N1058 1.340 . S
C1060 N1059 1.321 . S
C1060 H1084 0.930 . S
H1061 C1056 0.931 . S
Co1062 N1059 2.135 . S
Co1062 N1065 2.121 . S
Co1062 O1070 2.055 . S
Co1062 O1073 2.039 . S
Co1062 N1076 2.140 . S
C1063 O1064 1.227 . S
C1063 O1073 1.265 . S
O1064 C1063 1.227 . S
N1065 Co1062 2.121 . S
N1065 C1067 1.375 . S
N1065 C1068 1.313 . S
C1066 C1067 1.338 . S
C1066 N1069 1.377 . S
C1066 H1086 0.930 . S
C1067 N1065 1.375 . S
C1067 C1066 1.338 . S
C1067 H1071 0.931 . S
C1068 N1065 1.313 . S
C1068 N1069 1.344 . S
C1068 H1072 0.930 . S
N1069 C1066 1.377 . S
N1069 C1068 1.344 . S
O1070 Co1062 2.055 . S
O1070 C1074 1.253 . S
H1071 C1067 0.931 . S
H1072 C1068 0.930 . S
O1073 Co1062 2.039 . S
O1073 C1063 1.265 . S
C1074 O1070 1.253 . S
C1074 O1075 1.227 . S
O1075 C1074 1.227 . S
N1076 Co1062 2.140 . S
N1076 C1079 1.346 . S
N1076 C1080 1.345 . S
C1077 C1078 1.387 . S
C1077 C1081 1.391 . S
C1078 C1077 1.387 . S
C1078 C1079 1.369 . S
C1078 H1087 0.929 . S
C1079 N1076 1.346 . S
C1079 C1078 1.369 . S
C1079 H1082 0.928 . S
C1080 N1076 1.345 . S
C1080 C1081 1.371 . S
C1080 H1083 0.931 . S
C1081 C1077 1.391 . S
C1081 C1080 1.371 . S
C1081 H1088 0.930 . S
H1082 C1079 0.928 . S
H1083 C1080 0.931 . S
H1084 C1060 0.930 . S
H1085 C1057 0.930 . S
H1086 C1066 0.930 . S
H1087 C1078 0.929 . S
H1088 C1081 0.930 . S
C1089 C1090 1.351 . S
C1089 N1092 1.368 . S
C1089 H1094 0.931 . S
C1090 C1089 1.351 . S
C1090 N1091 1.373 . S
C1090 H1118 0.930 . S
N1091 C1090 1.373 . S
N1091 C1093 1.340 . S
N1092 C1089 1.368 . S
N1092 C1093 1.321 . S
N1092 Co1095 2.135 1_554 S
C1093 N1091 1.340 . S
C1093 N1092 1.321 . S
C1093 H1117 0.930 . S
H1094 C1089 0.931 . S
Co1095 N1092 2.135 1_556 S
Co1095 N1098 2.121 . S
Co1095 O1103 2.055 . S
Co1095 O1106 2.039 . S
Co1095 N1109 2.140 . S
C1096 O1097 1.227 1_556 S
C1096 O1106 1.265 . S
O1097 C1096 1.227 1_554 S
N1098 Co1095 2.121 . S
N1098 C1100 1.375 . S
N1098 C1101 1.313 . S
C1099 C1100 1.338 . S
C1099 N1102 1.377 . S
C1099 H1119 0.930 . S
C1100 N1098 1.375 . S
C1100 C1099 1.338 . S
C1100 H1104 0.931 . S
C1101 N1098 1.313 . S
C1101 N1102 1.344 . S
C1101 H1105 0.930 . S
N1102 C1099 1.377 . S
N1102 C1101 1.344 . S
O1103 Co1095 2.055 . S
O1103 C1107 1.253 . S
H1104 C1100 0.931 . S
H1105 C1101 0.930 . S
O1106 Co1095 2.039 . S
O1106 C1096 1.265 . S
C1107 O1103 1.253 . S
C1107 O1108 1.227 . S
O1108 C1107 1.227 . S
N1109 Co1095 2.140 . S
N1109 C1112 1.346 1_556 S
N1109 C1113 1.345 . S
C1110 C1111 1.387 1_556 S
C1110 C1114 1.391 . S
C1111 C1110 1.387 1_554 S
C1111 C1112 1.369 . S
C1111 H1120 0.929 . S
C1112 N1109 1.346 1_554 S
C1112 C1111 1.369 . S
C1112 H1115 0.928 . S
C1113 N1109 1.345 . S
C1113 C1114 1.371 . S
C1113 H1116 0.931 . S
C1114 C1110 1.391 . S
C1114 C1113 1.371 . S
C1114 H1121 0.930 . S
H1115 C1112 0.928 . S
H1116 C1113 0.931 . S
H1117 C1093 0.930 . S
H1118 C1090 0.930 . S
H1119 C1099 0.930 . S
H1120 C1111 0.929 . S
H1121 C1114 0.930 . S
C1122 C1123 1.351 . S
C1122 N1125 1.368 . S
C1122 H1127 0.931 . S
C1123 C1122 1.351 . S
C1123 N1124 1.373 . S
C1123 H1151 0.930 . S
N1124 C1123 1.373 . S
N1124 C1126 1.340 . S
N1125 C1122 1.368 . S
N1125 C1126 1.321 . S
N1125 Co1128 2.135 1_554 S
C1126 N1124 1.340 . S
C1126 N1125 1.321 . S
C1126 H1150 0.930 . S
H1127 C1122 0.931 . S
Co1128 N1125 2.135 1_556 S
Co1128 N1131 2.121 . S
Co1128 O1136 2.055 . S
Co1128 O1139 2.039 . S
Co1128 N1142 2.140 . S
C1129 O1130 1.227 1_556 S
C1129 O1139 1.265 . S
O1130 C1129 1.227 1_554 S
N1131 Co1128 2.121 . S
N1131 C1133 1.375 . S
N1131 C1134 1.313 . S
C1132 C1133 1.338 . S
C1132 N1135 1.377 . S
C1132 H1152 0.930 . S
C1133 N1131 1.375 . S
C1133 C1132 1.338 . S
C1133 H1137 0.931 . S
C1134 N1131 1.313 . S
C1134 N1135 1.344 . S
C1134 H1138 0.930 . S
N1135 C1132 1.377 . S
N1135 C1134 1.344 . S
O1136 Co1128 2.055 . S
O1136 C1140 1.253 . S
H1137 C1133 0.931 . S
H1138 C1134 0.930 . S
O1139 Co1128 2.039 . S
O1139 C1129 1.265 . S
C1140 O1136 1.253 . S
C1140 O1141 1.227 . S
O1141 C1140 1.227 . S
N1142 Co1128 2.140 . S
N1142 C1145 1.346 1_556 S
N1142 C1146 1.345 . S
C1143 C1144 1.387 1_556 S
C1143 C1147 1.391 . S
C1144 C1143 1.387 1_554 S
C1144 C1145 1.369 . S
C1144 H1153 0.929 . S
C1145 N1142 1.346 1_554 S
C1145 C1144 1.369 . S
C1145 H1148 0.928 . S
C1146 N1142 1.345 . S
C1146 C1147 1.371 . S
C1146 H1149 0.931 . S
C1147 C1143 1.391 . S
C1147 C1146 1.371 . S
C1147 H1154 0.930 . S
H1148 C1145 0.928 . S
H1149 C1146 0.931 . S
H1150 C1126 0.930 . S
H1151 C1123 0.930 . S
H1152 C1132 0.930 . S
H1153 C1144 0.929 . S
H1154 C1147 0.930 . S
C1155 C1156 1.351 . S
C1155 N1158 1.368 . S
C1155 H1160 0.931 . S
C1156 C1155 1.351 . S
C1156 N1157 1.373 . S
C1156 H1184 0.930 . S
N1157 C1156 1.373 . S
N1157 C1159 1.340 . S
N1158 C1155 1.368 . S
N1158 C1159 1.321 . S
N1158 Co1161 2.135 1_554 S
C1159 N1157 1.340 . S
C1159 N1158 1.321 . S
C1159 H1183 0.930 . S
H1160 C1155 0.931 . S
Co1161 N1158 2.135 1_556 S
Co1161 N1164 2.121 . S
Co1161 O1169 2.055 . S
Co1161 O1172 2.039 . S
Co1161 N1175 2.140 . S
C1162 O1163 1.227 1_556 S
C1162 O1172 1.265 . S
O1163 C1162 1.227 1_554 S
N1164 Co1161 2.121 . S
N1164 C1166 1.375 . S
N1164 C1167 1.313 . S
C1165 C1166 1.338 . S
C1165 N1168 1.377 . S
C1165 H1185 0.930 . S
C1166 N1164 1.375 . S
C1166 C1165 1.338 . S
C1166 H1170 0.931 . S
C1167 N1164 1.313 . S
C1167 N1168 1.344 . S
C1167 H1171 0.930 . S
N1168 C1165 1.377 . S
N1168 C1167 1.344 . S
O1169 Co1161 2.055 . S
O1169 C1173 1.253 . S
H1170 C1166 0.931 . S
H1171 C1167 0.930 . S
O1172 Co1161 2.039 . S
O1172 C1162 1.265 . S
C1173 O1169 1.253 . S
C1173 O1174 1.227 . S
O1174 C1173 1.227 . S
N1175 Co1161 2.140 . S
N1175 C1178 1.346 1_556 S
N1175 C1179 1.345 . S
C1176 C1177 1.387 1_556 S
C1176 C1180 1.391 . S
C1177 C1176 1.387 1_554 S
C1177 C1178 1.369 . S
C1177 H1186 0.929 . S
C1178 N1175 1.346 1_554 S
C1178 C1177 1.369 . S
C1178 H1181 0.928 . S
C1179 N1175 1.345 . S
C1179 C1180 1.371 . S
C1179 H1182 0.931 . S
C1180 C1176 1.391 . S
C1180 C1179 1.371 . S
C1180 H1187 0.930 . S
H1181 C1178 0.928 . S
H1182 C1179 0.931 . S
H1183 C1159 0.930 . S
H1184 C1156 0.930 . S
H1185 C1165 0.930 . S
H1186 C1177 0.929 . S
H1187 C1180 0.930 . S
C1188 C1189 1.387 . S
C1188 H1192 0.950 . S
C1188 C1197 1.390 . S
C1189 C1188 1.387 . S
C1189 C1191 1.387 . S
H1190 C1197 0.950 . S
C1191 C1189 1.387 . S
C1191 C1193 1.390 . S
C1191 H1195 0.950 . S
H1192 C1188 0.950 . S
C1193 C1191 1.390 . S
C1193 C1194 1.387 . S
C1193 H1196 0.950 . S
C1194 C1193 1.387 . S
C1194 C1197 1.387 . S
H1195 C1191 0.950 . S
H1196 C1193 0.950 . S
C1197 C1188 1.390 . S
C1197 H1190 0.950 . S
C1197 C1194 1.387 . S
C1198 C1199 1.387 . S
C1198 H1202 0.950 . S
C1198 C1207 1.390 . S
C1199 C1198 1.387 . S
C1199 C1201 1.387 . S
H1200 C1207 0.950 . S
C1201 C1199 1.387 . S
C1201 C1203 1.390 . S
C1201 H1205 0.950 . S
H1202 C1198 0.950 . S
C1203 C1201 1.390 . S
C1203 C1204 1.387 . S
C1203 H1206 0.950 . S
C1204 C1203 1.387 . S
C1204 C1207 1.387 . S
H1205 C1201 0.950 . S
H1206 C1203 0.950 . S
C1207 C1198 1.390 . S
C1207 H1200 0.950 . S
C1207 C1204 1.387 . S
C1208 C1209 1.387 . S
C1208 H1212 0.950 . S
C1208 C1217 1.390 . S
C1209 C1208 1.387 . S
C1209 C1211 1.387 . S
H1210 C1217 0.950 . S
C1211 C1209 1.387 . S
C1211 C1213 1.390 . S
C1211 H1215 0.950 . S
H1212 C1208 0.950 . S
C1213 C1211 1.390 . S
C1213 C1214 1.387 . S
C1213 H1216 0.950 . S
C1214 C1213 1.387 . S
C1214 C1217 1.387 . S
H1215 C1211 0.950 . S
H1216 C1213 0.950 . S
C1217 C1208 1.390 . S
C1217 H1210 0.950 . S
C1217 C1214 1.387 . S
C1218 C1219 1.387 . S
C1218 H1222 0.950 . S
C1218 C1227 1.390 . S
C1219 C1218 1.387 . S
C1219 C1221 1.387 . S
H1220 C1227 0.950 . S
C1221 C1219 1.387 . S
C1221 C1223 1.390 . S
C1221 H1225 0.950 . S
H1222 C1218 0.950 . S
C1223 C1221 1.390 . S
C1223 C1224 1.387 . S
C1223 H1226 0.950 . S
C1224 C1223 1.387 . S
C1224 C1227 1.387 . S
H1225 C1221 0.950 . S
H1226 C1223 0.950 . S
C1227 C1218 1.390 . S
C1227 H1220 0.950 . S
C1227 C1224 1.387 . S
C1228 C1229 1.387 . S
C1228 H1232 0.950 . S
C1228 C1237 1.390 . S
C1229 C1228 1.387 . S
C1229 C1231 1.387 . S
H1230 C1237 0.950 . S
C1231 C1229 1.387 . S
C1231 C1233 1.390 . S
C1231 H1235 0.950 . S
H1232 C1228 0.950 . S
C1233 C1231 1.390 . S
C1233 C1234 1.387 . S
C1233 H1236 0.950 . S
C1234 C1233 1.387 . S
C1234 C1237 1.387 . S
H1235 C1231 0.950 . S
H1236 C1233 0.950 . S
C1237 C1228 1.390 . S
C1237 H1230 0.950 . S
C1237 C1234 1.387 . S
C1238 C1239 1.387 . S
C1238 H1242 0.950 . S
C1238 C1247 1.390 . S
C1239 C1238 1.387 . S
C1239 C1241 1.387 . S
H1240 C1247 0.950 . S
C1241 C1239 1.387 . S
C1241 C1243 1.390 . S
C1241 H1245 0.950 . S
H1242 C1238 0.950 . S
C1243 C1241 1.390 . S
C1243 C1244 1.387 . S
C1243 H1246 0.950 . S
C1244 C1243 1.387 . S
C1244 C1247 1.387 . S
H1245 C1241 0.950 . S
H1246 C1243 0.950 . S
C1247 C1238 1.390 . S
C1247 H1240 0.950 . S
C1247 C1244 1.387 . S
C1248 C1249 1.387 . S
C1248 H1252 0.950 . S
C1248 C1257 1.390 . S
C1249 C1248 1.387 . S
C1249 C1251 1.387 . S
H1250 C1257 0.950 . S
C1251 C1249 1.387 . S
C1251 C1253 1.390 . S
C1251 H1255 0.950 . S
H1252 C1248 0.950 . S
C1253 C1251 1.390 . S
C1253 C1254 1.387 . S
C1253 H1256 0.950 . S
C1254 C1253 1.387 . S
C1254 C1257 1.387 . S
H1255 C1251 0.950 . S
H1256 C1253 0.950 . S
C1257 C1248 1.390 . S
C1257 H1250 0.950 . S
C1257 C1254 1.387 . S
C1258 C1259 1.387 . S
C1258 H1262 0.950 . S
C1258 C1267 1.390 . S
C1259 C1258 1.387 . S
C1259 C1261 1.387 . S
H1260 C1267 0.950 . S
C1261 C1259 1.387 . S
C1261 C1263 1.390 . S
C1261 H1265 0.950 . S
H1262 C1258 0.950 . S
C1263 C1261 1.390 . S
C1263 C1264 1.387 . S
C1263 H1266 0.950 . S
C1264 C1263 1.387 . S
C1264 C1267 1.387 . S
H1265 C1261 0.950 . S
H1266 C1263 0.950 . S
C1267 C1258 1.390 . S
C1267 H1260 0.950 . S
C1267 C1264 1.387 . S
C1268 C1269 1.387 . S
C1268 H1272 0.950 . S
C1268 C1277 1.390 . S
C1269 C1268 1.387 . S
C1269 C1271 1.387 . S
H1270 C1277 0.950 . S
C1271 C1269 1.387 . S
C1271 C1273 1.390 . S
C1271 H1275 0.950 . S
H1272 C1268 0.950 . S
C1273 C1271 1.390 . S
C1273 C1274 1.387 . S
C1273 H1276 0.950 . S
C1274 C1273 1.387 . S
C1274 C1277 1.387 . S
H1275 C1271 0.950 . S
H1276 C1273 0.950 . S
C1277 C1268 1.390 . S
C1277 H1270 0.950 . S
C1277 C1274 1.387 . S
C1278 C1279 1.387 . S
C1278 H1282 0.950 . S
C1278 C1287 1.390 . S
C1279 C1278 1.387 . S
C1279 C1281 1.387 . S
H1280 C1287 0.950 . S
C1281 C1279 1.387 . S
C1281 C1283 1.390 . S
C1281 H1285 0.950 . S
H1282 C1278 0.950 . S
C1283 C1281 1.390 . S
C1283 C1284 1.387 . S
C1283 H1286 0.950 . S
C1284 C1283 1.387 . S
C1284 C1287 1.387 . S
H1285 C1281 0.950 . S
H1286 C1283 0.950 . S
C1287 C1278 1.390 . S
C1287 H1280 0.950 . S
C1287 C1284 1.387 . S
C1288 C1289 1.387 . S
C1288 H1292 0.950 . S
C1288 C1297 1.390 . S
C1289 C1288 1.387 . S
C1289 C1291 1.387 . S
H1290 C1297 0.950 . S
C1291 C1289 1.387 . S
C1291 C1293 1.390 . S
C1291 H1295 0.950 . S
H1292 C1288 0.950 . S
C1293 C1291 1.390 . S
C1293 C1294 1.387 . S
C1293 H1296 0.950 . S
C1294 C1293 1.387 . S
C1294 C1297 1.387 . S
H1295 C1291 0.950 . S
H1296 C1293 0.950 . S
C1297 C1288 1.390 . S
C1297 H1290 0.950 . S
C1297 C1294 1.387 . S
C1298 C1299 1.387 . S
C1298 H1302 0.950 . S
C1298 C1307 1.390 . S
C1299 C1298 1.387 . S
C1299 C1301 1.387 . S
H1300 C1307 0.950 . S
C1301 C1299 1.387 . S
C1301 C1303 1.390 . S
C1301 H1305 0.950 . S
H1302 C1298 0.950 . S
C1303 C1301 1.390 . S
C1303 C1304 1.387 . S
C1303 H1306 0.950 . S
C1304 C1303 1.387 . S
C1304 C1307 1.387 . S
H1305 C1301 0.950 . S
H1306 C1303 0.950 . S
C1307 C1298 1.390 . S
C1307 H1300 0.950 . S
C1307 C1304 1.387 . S
C1308 C1309 1.387 . S
C1308 H1312 0.950 . S
C1308 C1317 1.390 . S
C1309 C1308 1.387 . S
C1309 C1311 1.387 . S
H1310 C1317 0.950 . S
C1311 C1309 1.387 . S
C1311 C1313 1.390 . S
C1311 H1315 0.950 . S
H1312 C1308 0.950 . S
C1313 C1311 1.390 . S
C1313 C1314 1.387 . S
C1313 H1316 0.950 . S
C1314 C1313 1.387 . S
C1314 C1317 1.387 . S
H1315 C1311 0.950 . S
H1316 C1313 0.950 . S
C1317 C1308 1.390 . S
C1317 H1310 0.950 . S
C1317 C1314 1.387 . S
C1318 C1319 1.387 . S
C1318 H1322 0.950 . S
C1318 C1327 1.390 1_565 S
C1319 C1318 1.387 . S
C1319 C1321 1.387 . S
H1320 C1327 0.950 . S
C1321 C1319 1.387 . S
C1321 C1323 1.390 1_565 S
C1321 H1325 0.950 . S
H1322 C1318 0.950 . S
C1323 C1321 1.390 1_545 S
C1323 C1324 1.387 . S
C1323 H1326 0.950 . S
C1324 C1323 1.387 . S
C1324 C1327 1.387 . S
H1325 C1321 0.950 . S
H1326 C1323 0.950 . S
C1327 C1318 1.390 1_545 S
C1327 H1320 0.950 . S
C1327 C1324 1.387 . S
C1328 C1329 1.387 . S
C1328 H1332 0.950 . S
C1328 C1337 1.390 1_655 S
C1329 C1328 1.387 . S
C1329 C1331 1.387 . S
H1330 C1337 0.950 . S
C1331 C1329 1.387 . S
C1331 C1333 1.390 1_655 S
C1331 H1335 0.950 . S
H1332 C1328 0.950 . S
C1333 C1331 1.390 1_455 S
C1333 C1334 1.387 . S
C1333 H1336 0.950 . S
C1334 C1333 1.387 . S
C1334 C1337 1.387 . S
H1335 C1331 0.950 . S
H1336 C1333 0.950 . S
C1337 C1328 1.390 1_455 S
C1337 H1330 0.950 . S
C1337 C1334 1.387 . S
C1338 C1339 1.387 . S
C1338 H1342 0.950 . S
C1338 C1347 1.390 . S
C1339 C1338 1.387 . S
C1339 C1341 1.387 . S
H1340 C1347 0.950 . S
C1341 C1339 1.387 . S
C1341 C1343 1.390 . S
C1341 H1345 0.950 . S
H1342 C1338 0.950 . S
C1343 C1341 1.390 . S
C1343 C1344 1.387 . S
C1343 H1346 0.950 . S
C1344 C1343 1.387 . S
C1344 C1347 1.387 . S
H1345 C1341 0.950 . S
H1346 C1343 0.950 . S
C1347 C1338 1.390 . S
C1347 H1340 0.950 . S
C1347 C1344 1.387 . S
C1348 C1349 1.387 . S
C1348 H1352 0.950 . S
C1348 C1357 1.390 1_565 S
C1349 C1348 1.387 . S
C1349 C1351 1.387 . S
H1350 C1357 0.950 . S
C1351 C1349 1.387 . S
C1351 C1353 1.390 1_565 S
C1351 H1355 0.950 . S
H1352 C1348 0.950 . S
C1353 C1351 1.390 1_545 S
C1353 C1354 1.387 . S
C1353 H1356 0.950 . S
C1354 C1353 1.387 . S
C1354 C1357 1.387 . S
H1355 C1351 0.950 . S
H1356 C1353 0.950 . S
C1357 C1348 1.390 1_545 S
C1357 H1350 0.950 . S
C1357 C1354 1.387 . S
C1358 C1359 1.387 . S
C1358 H1362 0.950 . S
C1358 C1367 1.390 1_655 S
C1359 C1358 1.387 . S
C1359 C1361 1.387 . S
H1360 C1367 0.950 . S
C1361 C1359 1.387 . S
C1361 C1363 1.390 1_655 S
C1361 H1365 0.950 . S
H1362 C1358 0.950 . S
C1363 C1361 1.390 1_455 S
C1363 C1364 1.387 . S
C1363 H1366 0.950 . S
C1364 C1363 1.387 . S
C1364 C1367 1.387 . S
H1365 C1361 0.950 . S
H1366 C1363 0.950 . S
C1367 C1358 1.390 1_455 S
C1367 H1360 0.950 . S
C1367 C1364 1.387 . S
C1368 C1369 1.387 . S
C1368 H1372 0.950 . S
C1368 C1377 1.390 . S
C1369 C1368 1.387 . S
C1369 C1371 1.387 . S
H1370 C1377 0.950 . S
C1371 C1369 1.387 . S
C1371 C1373 1.390 . S
C1371 H1375 0.950 . S
H1372 C1368 0.950 . S
C1373 C1371 1.390 . S
C1373 C1374 1.387 . S
C1373 H1376 0.950 . S
C1374 C1373 1.387 . S
C1374 C1377 1.387 . S
H1375 C1371 0.950 . S
H1376 C1373 0.950 . S
C1377 C1368 1.390 . S
C1377 H1370 0.950 . S
C1377 C1374 1.387 . S
C1378 C1379 1.387 . S
C1378 H1382 0.950 . S
C1378 C1387 1.390 . S
C1379 C1378 1.387 . S
C1379 C1381 1.387 . S
H1380 C1387 0.950 . S
C1381 C1379 1.387 . S
C1381 C1383 1.390 . S
C1381 H1385 0.950 . S
H1382 C1378 0.950 . S
C1383 C1381 1.390 . S
C1383 C1384 1.387 . S
C1383 H1386 0.950 . S
C1384 C1383 1.387 . S
C1384 C1387 1.387 . S
H1385 C1381 0.950 . S
H1386 C1383 0.950 . S
C1387 C1378 1.390 . S
C1387 H1380 0.950 . S
C1387 C1384 1.387 . S
C1388 C1389 1.387 . S
C1388 H1392 0.950 . S
C1388 C1397 1.390 . S
C1389 C1388 1.387 . S
C1389 C1391 1.387 . S
H1390 C1397 0.950 . S
C1391 C1389 1.387 . S
C1391 C1393 1.390 . S
C1391 H1395 0.950 . S
H1392 C1388 0.950 . S
C1393 C1391 1.390 . S
C1393 C1394 1.387 . S
C1393 H1396 0.950 . S
C1394 C1393 1.387 . S
C1394 C1397 1.387 . S
H1395 C1391 0.950 . S
H1396 C1393 0.950 . S
C1397 C1388 1.390 . S
C1397 H1390 0.950 . S
C1397 C1394 1.387 . S
C1398 C1399 1.387 . S
C1398 H1402 0.950 . S
C1398 C1407 1.390 . S
C1399 C1398 1.387 . S
C1399 C1401 1.387 . S
H1400 C1407 0.950 . S
C1401 C1399 1.387 . S
C1401 C1403 1.390 . S
C1401 H1405 0.950 . S
H1402 C1398 0.950 . S
C1403 C1401 1.390 . S
C1403 C1404 1.387 . S
C1403 H1406 0.950 . S
C1404 C1403 1.387 . S
C1404 C1407 1.387 . S
H1405 C1401 0.950 . S
H1406 C1403 0.950 . S
C1407 C1398 1.390 . S
C1407 H1400 0.950 . S
C1407 C1404 1.387 . S
C1408 C1409 1.387 . S
C1408 H1412 0.950 . S
C1408 C1417 1.390 . S
C1409 C1408 1.387 . S
C1409 C1411 1.387 . S
H1410 C1417 0.950 . S
C1411 C1409 1.387 . S
C1411 C1413 1.390 . S
C1411 H1415 0.950 . S
H1412 C1408 0.950 . S
C1413 C1411 1.390 . S
C1413 C1414 1.387 . S
C1413 H1416 0.950 . S
C1414 C1413 1.387 . S
C1414 C1417 1.387 . S
H1415 C1411 0.950 . S
H1416 C1413 0.950 . S
C1417 C1408 1.390 . S
C1417 H1410 0.950 . S
C1417 C1414 1.387 . S
C1418 C1419 1.387 . S
C1418 H1422 0.950 . S
C1418 C1427 1.390 . S
C1419 C1418 1.387 . S
C1419 C1421 1.387 . S
H1420 C1427 0.950 . S
C1421 C1419 1.387 . S
C1421 C1423 1.390 . S
C1421 H1425 0.950 . S
H1422 C1418 0.950 . S
C1423 C1421 1.390 . S
C1423 C1424 1.387 . S
C1423 H1426 0.950 . S
C1424 C1423 1.387 . S
C1424 C1427 1.387 . S
H1425 C1421 0.950 . S
H1426 C1423 0.950 . S
C1427 C1418 1.390 . S
C1427 H1420 0.950 . S
C1427 C1424 1.387 . S
C1428 C1429 1.387 . S
C1428 H1432 0.950 . S
C1428 C1437 1.390 . S
C1429 C1428 1.387 . S
C1429 C1431 1.387 . S
H1430 C1437 0.950 . S
C1431 C1429 1.387 . S
C1431 C1433 1.390 . S
C1431 H1435 0.950 . S
H1432 C1428 0.950 . S
C1433 C1431 1.390 . S
C1433 C1434 1.387 . S
C1433 H1436 0.950 . S
C1434 C1433 1.387 . S
C1434 C1437 1.387 . S
H1435 C1431 0.950 . S
H1436 C1433 0.950 . S
C1437 C1428 1.390 . S
C1437 H1430 0.950 . S
C1437 C1434 1.387 . S
C1438 C1439 1.387 . S
C1438 H1442 0.950 . S
C1438 C1447 1.390 . S
C1439 C1438 1.387 . S
C1439 C1441 1.387 . S
H1440 C1447 0.950 . S
C1441 C1439 1.387 . S
C1441 C1443 1.390 . S
C1441 H1445 0.950 . S
H1442 C1438 0.950 . S
C1443 C1441 1.390 . S
C1443 C1444 1.387 . S
C1443 H1446 0.950 . S
C1444 C1443 1.387 . S
C1444 C1447 1.387 . S
H1445 C1441 0.950 . S
H1446 C1443 0.950 . S
C1447 C1438 1.390 . S
C1447 H1440 0.950 . S
C1447 C1444 1.387 . S
C1448 C1449 1.387 . S
C1448 H1452 0.950 . S
C1448 C1457 1.390 . S
C1449 C1448 1.387 . S
C1449 C1451 1.387 . S
H1450 C1457 0.950 . S
C1451 C1449 1.387 . S
C1451 C1453 1.390 . S
C1451 H1455 0.950 . S
H1452 C1448 0.950 . S
C1453 C1451 1.390 . S
C1453 C1454 1.387 . S
C1453 H1456 0.950 . S
C1454 C1453 1.387 . S
C1454 C1457 1.387 . S
H1455 C1451 0.950 . S
H1456 C1453 0.950 . S
C1457 C1448 1.390 . S
C1457 H1450 0.950 . S
C1457 C1454 1.387 . S
C1458 C1459 1.387 . S
C1458 H1462 0.950 . S
C1458 C1467 1.390 . S
C1459 C1458 1.387 . S
C1459 C1461 1.387 . S
H1460 C1467 0.950 . S
C1461 C1459 1.387 . S
C1461 C1463 1.390 . S
C1461 H1465 0.950 . S
H1462 C1458 0.950 . S
C1463 C1461 1.390 . S
C1463 C1464 1.387 . S
C1463 H1466 0.950 . S
C1464 C1463 1.387 . S
C1464 C1467 1.387 . S
H1465 C1461 0.950 . S
H1466 C1463 0.950 . S
C1467 C1458 1.390 . S
C1467 H1460 0.950 . S
C1467 C1464 1.387 . S
C1468 C1469 1.387 . S
C1468 H1472 0.950 . S
C1468 C1477 1.390 . S
C1469 C1468 1.387 . S
C1469 C1471 1.387 . S
H1470 C1477 0.950 . S
C1471 C1469 1.387 . S
C1471 C1473 1.390 . S
C1471 H1475 0.950 . S
H1472 C1468 0.950 . S
C1473 C1471 1.390 . S
C1473 C1474 1.387 . S
C1473 H1476 0.950 . S
C1474 C1473 1.387 . S
C1474 C1477 1.387 . S
H1475 C1471 0.950 . S
H1476 C1473 0.950 . S
C1477 C1468 1.390 . S
C1477 H1470 0.950 . S
C1477 C1474 1.387 . S
C1478 C1479 1.387 . S
C1478 H1482 0.950 . S
C1478 C1487 1.390 . S
C1479 C1478 1.387 . S
C1479 C1481 1.387 . S
H1480 C1487 0.950 . S
C1481 C1479 1.387 . S
C1481 C1483 1.390 . S
C1481 H1485 0.950 . S
H1482 C1478 0.950 . S
C1483 C1481 1.390 . S
C1483 C1484 1.387 . S
C1483 H1486 0.950 . S
C1484 C1483 1.387 . S
C1484 C1487 1.387 . S
H1485 C1481 0.950 . S
H1486 C1483 0.950 . S
C1487 C1478 1.390 . S
C1487 H1480 0.950 . S
C1487 C1484 1.387 . S
C1488 C1489 1.387 1_554 S
C1488 H1492 0.950 . S
C1488 C1497 1.390 1_655 S
C1489 C1488 1.387 1_556 S
C1489 C1491 1.387 . S
H1490 C1497 0.950 . S
C1491 C1489 1.387 . S
C1491 C1493 1.390 1_655 S
C1491 H1495 0.950 . S
H1492 C1488 0.950 . S
C1493 C1491 1.390 1_455 S
C1493 C1494 1.387 1_556 S
C1493 H1496 0.950 . S
C1494 C1493 1.387 1_554 S
C1494 C1497 1.387 . S
H1495 C1491 0.950 . S
H1496 C1493 0.950 . S
C1497 C1488 1.390 1_455 S
C1497 H1490 0.950 . S
C1497 C1494 1.387 . S
C1498 C1499 1.387 . S
C1498 H1502 0.950 . S
C1498 C1507 1.390 . S
C1499 C1498 1.387 . S
C1499 C1501 1.387 1_556 S
H1500 C1507 0.950 . S
C1501 C1499 1.387 1_554 S
C1501 C1503 1.390 . S
C1501 H1505 0.950 . S
H1502 C1498 0.950 . S
C1503 C1501 1.390 . S
C1503 C1504 1.387 . S
C1503 H1506 0.950 . S
C1504 C1503 1.387 . S
C1504 C1507 1.387 1_554 S
H1505 C1501 0.950 . S
H1506 C1503 0.950 . S
C1507 C1498 1.390 . S
C1507 H1500 0.950 . S
C1507 C1504 1.387 1_556 S
C1508 C1509 1.387 . S
C1508 H1512 0.950 . S
C1508 C1517 1.390 1_564 S
C1509 C1508 1.387 . S
C1509 C1511 1.387 . S
H1510 C1517 0.950 . S
C1511 C1509 1.387 . S
C1511 C1513 1.390 1_564 S
C1511 H1515 0.950 . S
H1512 C1508 0.950 . S
C1513 C1511 1.390 1_546 S
C1513 C1514 1.387 . S
C1513 H1516 0.950 . S
C1514 C1513 1.387 . S
C1514 C1517 1.387 . S
H1515 C1511 0.950 . S
H1516 C1513 0.950 . S
C1517 C1508 1.390 1_546 S
C1517 H1510 0.950 . S
C1517 C1514 1.387 . S
C1518 C1519 1.387 . S
C1518 H1522 0.950 . S
C1518 C1527 1.390 1_564 S
C1519 C1518 1.387 . S
C1519 C1521 1.387 . S
H1520 C1527 0.950 . S
C1521 C1519 1.387 . S
C1521 C1523 1.390 1_564 S
C1521 H1525 0.950 . S
H1522 C1518 0.950 . S
C1523 C1521 1.390 1_546 S
C1523 C1524 1.387 . S
C1523 H1526 0.950 . S
C1524 C1523 1.387 . S
C1524 C1527 1.387 . S
H1525 C1521 0.950 . S
H1526 C1523 0.950 . S
C1527 C1518 1.390 1_546 S
C1527 H1520 0.950 . S
C1527 C1524 1.387 . S
C1528 C1529 1.387 1_554 S
C1528 H1532 0.950 . S
C1528 C1537 1.390 1_655 S
C1529 C1528 1.387 1_556 S
C1529 C1531 1.387 . S
H1530 C1537 0.950 . S
C1531 C1529 1.387 . S
C1531 C1533 1.390 1_655 S
C1531 H1535 0.950 . S
H1532 C1528 0.950 . S
C1533 C1531 1.390 1_455 S
C1533 C1534 1.387 1_556 S
C1533 H1536 0.950 . S
C1534 C1533 1.387 1_554 S
C1534 C1537 1.387 . S
H1535 C1531 0.950 . S
H1536 C1533 0.950 . S
C1537 C1528 1.390 1_455 S
C1537 H1530 0.950 . S
C1537 C1534 1.387 . S
C1538 C1539 1.387 1_554 S
C1538 H1542 0.950 . S
C1538 C1547 1.390 . S
C1539 C1538 1.387 1_556 S
C1539 C1541 1.387 . S
H1540 C1547 0.950 . S
C1541 C1539 1.387 . S
C1541 C1543 1.390 . S
C1541 H1545 0.950 . S
H1542 C1538 0.950 . S
C1543 C1541 1.390 . S
C1543 C1544 1.387 1_556 S
C1543 H1546 0.950 . S
C1544 C1543 1.387 1_554 S
C1544 C1547 1.387 . S
H1545 C1541 0.950 . S
H1546 C1543 0.950 . S
C1547 C1538 1.390 . S
C1547 H1540 0.950 . S
C1547 C1544 1.387 . S
C1548 C1549 1.387 . S
C1548 H1552 0.950 . S
C1548 C1557 1.390 . S
C1549 C1548 1.387 . S
C1549 C1551 1.387 . S
H1550 C1557 0.950 . S
C1551 C1549 1.387 . S
C1551 C1553 1.390 . S
C1551 H1555 0.950 . S
H1552 C1548 0.950 . S
C1553 C1551 1.390 . S
C1553 C1554 1.387 . S
C1553 H1556 0.950 . S
C1554 C1553 1.387 . S
C1554 C1557 1.387 . S
H1555 C1551 0.950 . S
H1556 C1553 0.950 . S
C1557 C1548 1.390 . S
C1557 H1550 0.950 . S
C1557 C1554 1.387 . S
C1558 C1559 1.387 . S
C1558 H1562 0.950 . S
C1558 C1567 1.390 . S
C1559 C1558 1.387 . S
C1559 C1561 1.387 . S
H1560 C1567 0.950 . S
C1561 C1559 1.387 . S
C1561 C1563 1.390 . S
C1561 H1565 0.950 . S
H1562 C1558 0.950 . S
C1563 C1561 1.390 . S
C1563 C1564 1.387 . S
C1563 H1566 0.950 . S
C1564 C1563 1.387 . S
C1564 C1567 1.387 . S
H1565 C1561 0.950 . S
H1566 C1563 0.950 . S
C1567 C1558 1.390 . S
C1567 H1560 0.950 . S
C1567 C1564 1.387 . S
C1568 C1569 1.387 . S
C1568 H1572 0.950 . S
C1568 C1577 1.390 . S
C1569 C1568 1.387 . S
C1569 C1571 1.387 . S
H1570 C1577 0.950 . S
C1571 C1569 1.387 . S
C1571 C1573 1.390 . S
C1571 H1575 0.950 . S
H1572 C1568 0.950 . S
C1573 C1571 1.390 . S
C1573 C1574 1.387 . S
C1573 H1576 0.950 . S
C1574 C1573 1.387 . S
C1574 C1577 1.387 . S
H1575 C1571 0.950 . S
H1576 C1573 0.950 . S
C1577 C1568 1.390 . S
C1577 H1570 0.950 . S
C1577 C1574 1.387 . S
C1578 C1579 1.387 . S
C1578 H1582 0.950 . S
C1578 C1587 1.390 . S
C1579 C1578 1.387 . S
C1579 C1581 1.387 . S
H1580 C1587 0.950 . S
C1581 C1579 1.387 . S
C1581 C1583 1.390 . S
C1581 H1585 0.950 . S
H1582 C1578 0.950 . S
C1583 C1581 1.390 . S
C1583 C1584 1.387 . S
C1583 H1586 0.950 . S
C1584 C1583 1.387 . S
C1584 C1587 1.387 . S
H1585 C1581 0.950 . S
H1586 C1583 0.950 . S
C1587 C1578 1.390 . S
C1587 H1580 0.950 . S
C1587 C1584 1.387 . S
C1588 C1589 1.387 . S
C1588 H1592 0.950 . S
C1588 C1597 1.390 . S
C1589 C1588 1.387 . S
C1589 C1591 1.387 . S
H1590 C1597 0.950 . S
C1591 C1589 1.387 . S
C1591 C1593 1.390 . S
C1591 H1595 0.950 . S
H1592 C1588 0.950 . S
C1593 C1591 1.390 . S
C1593 C1594 1.387 . S
C1593 H1596 0.950 . S
C1594 C1593 1.387 . S
C1594 C1597 1.387 . S
H1595 C1591 0.950 . S
H1596 C1593 0.950 . S
C1597 C1588 1.390 . S
C1597 H1590 0.950 . S
C1597 C1594 1.387 . S
C1598 C1599 1.387 . S
C1598 H1602 0.950 . S
C1598 C1607 1.390 . S
C1599 C1598 1.387 . S
C1599 C1601 1.387 . S
H1600 C1607 0.950 . S
C1601 C1599 1.387 . S
C1601 C1603 1.390 . S
C1601 H1605 0.950 . S
H1602 C1598 0.950 . S
C1603 C1601 1.390 . S
C1603 C1604 1.387 . S
C1603 H1606 0.950 . S
C1604 C1603 1.387 . S
C1604 C1607 1.387 . S
H1605 C1601 0.950 . S
H1606 C1603 0.950 . S
C1607 C1598 1.390 . S
C1607 H1600 0.950 . S
C1607 C1604 1.387 . S
C1608 C1609 1.387 . S
C1608 H1612 0.950 . S
C1608 C1617 1.390 . S
C1609 C1608 1.387 . S
C1609 C1611 1.387 . S
H1610 C1617 0.950 . S
C1611 C1609 1.387 . S
C1611 C1613 1.390 . S
C1611 H1615 0.950 . S
H1612 C1608 0.950 . S
C1613 C1611 1.390 . S
C1613 C1614 1.387 . S
C1613 H1616 0.950 . S
C1614 C1613 1.387 . S
C1614 C1617 1.387 . S
H1615 C1611 0.950 . S
H1616 C1613 0.950 . S
C1617 C1608 1.390 . S
C1617 H1610 0.950 . S
C1617 C1614 1.387 . S
C1618 C1619 1.387 . S
C1618 H1622 0.950 . S
C1618 C1627 1.390 . S
C1619 C1618 1.387 . S
C1619 C1621 1.387 . S
H1620 C1627 0.950 . S
C1621 C1619 1.387 . S
C1621 C1623 1.390 . S
C1621 H1625 0.950 . S
H1622 C1618 0.950 . S
C1623 C1621 1.390 . S
C1623 C1624 1.387 . S
C1623 H1626 0.950 . S
C1624 C1623 1.387 . S
C1624 C1627 1.387 . S
H1625 C1621 0.950 . S
H1626 C1623 0.950 . S
C1627 C1618 1.390 . S
C1627 H1620 0.950 . S
C1627 C1624 1.387 . S
C1628 C1629 1.387 . S
C1628 H1632 0.950 . S
C1628 C1637 1.390 . S
C1629 C1628 1.387 . S
C1629 C1631 1.387 . S
H1630 C1637 0.950 . S
C1631 C1629 1.387 . S
C1631 C1633 1.390 . S
C1631 H1635 0.950 . S
H1632 C1628 0.950 . S
C1633 C1631 1.390 . S
C1633 C1634 1.387 . S
C1633 H1636 0.950 . S
C1634 C1633 1.387 . S
C1634 C1637 1.387 . S
H1635 C1631 0.950 . S
H1636 C1633 0.950 . S
C1637 C1628 1.390 . S
C1637 H1630 0.950 . S
C1637 C1634 1.387 . S
C1638 C1639 1.387 . S
C1638 H1642 0.950 . S
C1638 C1647 1.390 . S
C1639 C1638 1.387 . S
C1639 C1641 1.387 1_554 S
H1640 C1647 0.950 . S
C1641 C1639 1.387 1_556 S
C1641 C1643 1.390 . S
C1641 H1645 0.950 . S
H1642 C1638 0.950 . S
C1643 C1641 1.390 . S
C1643 C1644 1.387 1_556 S
C1643 H1646 0.950 . S
C1644 C1643 1.387 1_554 S
C1644 C1647 1.387 . S
H1645 C1641 0.950 . S
H1646 C1643 0.950 . S
C1647 C1638 1.390 . S
C1647 H1640 0.950 . S
C1647 C1644 1.387 . S
C1648 C1649 1.387 . S
C1648 H1652 0.950 . S
C1648 C1657 1.390 . S
C1649 C1648 1.387 . S
C1649 C1651 1.387 1_554 S
H1650 C1657 0.950 . S
C1651 C1649 1.387 1_556 S
C1651 C1653 1.390 . S
C1651 H1655 0.950 . S
H1652 C1648 0.950 . S
C1653 C1651 1.390 . S
C1653 C1654 1.387 1_556 S
C1653 H1656 0.950 . S
C1654 C1653 1.387 1_554 S
C1654 C1657 1.387 . S
H1655 C1651 0.950 . S
H1656 C1653 0.950 . S
C1657 C1648 1.390 . S
C1657 H1650 0.950 . S
C1657 C1654 1.387 . S
C1658 C1659 1.387 . S
C1658 H1662 0.950 . S
C1658 C1667 1.390 . S
C1659 C1658 1.387 . S
C1659 C1661 1.387 1_554 S
H1660 C1667 0.950 . S
C1661 C1659 1.387 1_556 S
C1661 C1663 1.390 . S
C1661 H1665 0.950 . S
H1662 C1658 0.950 . S
C1663 C1661 1.390 . S
C1663 C1664 1.387 1_556 S
C1663 H1666 0.950 . S
C1664 C1663 1.387 1_554 S
C1664 C1667 1.387 . S
H1665 C1661 0.950 . S
H1666 C1663 0.950 . S
C1667 C1658 1.390 . S
C1667 H1660 0.950 . S
C1667 C1664 1.387 . S
C1668 C1669 1.387 . S
C1668 H1672 0.950 . S
C1668 C1677 1.390 . S
C1669 C1668 1.387 . S
C1669 C1671 1.387 1_556 S
H1670 C1677 0.950 . S
C1671 C1669 1.387 1_554 S
C1671 C1673 1.390 . S
C1671 H1675 0.950 . S
H1672 C1668 0.950 . S
C1673 C1671 1.390 . S
C1673 C1674 1.387 1_554 S
C1673 H1676 0.950 . S
C1674 C1673 1.387 1_556 S
C1674 C1677 1.387 . S
H1675 C1671 0.950 . S
H1676 C1673 0.950 . S
C1677 C1668 1.390 . S
C1677 H1670 0.950 . S
C1677 C1674 1.387 . S
C1678 C1679 1.387 1_554 S
C1678 H1682 0.950 . S
C1678 C1687 1.390 . S
C1679 C1678 1.387 1_556 S
C1679 C1681 1.387 . S
H1680 C1687 0.950 . S
C1681 C1679 1.387 . S
C1681 C1683 1.390 . S
C1681 H1685 0.950 . S
H1682 C1678 0.950 . S
C1683 C1681 1.390 . S
C1683 C1684 1.387 . S
C1683 H1686 0.950 . S
C1684 C1683 1.387 . S
C1684 C1687 1.387 1_556 S
H1685 C1681 0.950 . S
H1686 C1683 0.950 . S
C1687 C1678 1.390 . S
C1687 H1680 0.950 . S
C1687 C1684 1.387 1_554 S
C1688 C1689 1.387 1_554 S
C1688 H1692 0.950 . S
C1688 C1697 1.390 . S
C1689 C1688 1.387 1_556 S
C1689 C1691 1.387 . S
H1690 C1697 0.950 . S
C1691 C1689 1.387 . S
C1691 C1693 1.390 . S
C1691 H1695 0.950 . S
H1692 C1688 0.950 . S
C1693 C1691 1.390 . S
C1693 C1694 1.387 . S
C1693 H1696 0.950 . S
C1694 C1693 1.387 . S
C1694 C1697 1.387 1_556 S
H1695 C1691 0.950 . S
H1696 C1693 0.950 . S
C1697 C1688 1.390 . S
C1697 H1690 0.950 . S
C1697 C1694 1.387 1_554 S
C1698 C1699 1.387 . S
C1698 H1702 0.950 . S
C1698 C1707 1.390 . S
C1699 C1698 1.387 . S
C1699 C1701 1.387 . S
H1700 C1707 0.950 . S
C1701 C1699 1.387 . S
C1701 C1703 1.390 . S
C1701 H1705 0.950 . S
H1702 C1698 0.950 . S
C1703 C1701 1.390 . S
C1703 C1704 1.387 . S
C1703 H1706 0.950 . S
C1704 C1703 1.387 . S
C1704 C1707 1.387 . S
H1705 C1701 0.950 . S
H1706 C1703 0.950 . S
C1707 C1698 1.390 . S
C1707 H1700 0.950 . S
C1707 C1704 1.387 . S
C1708 C1709 1.387 . S
C1708 H1712 0.950 . S
C1708 C1717 1.390 . S
C1709 C1708 1.387 . S
C1709 C1711 1.387 . S
H1710 C1717 0.950 . S
C1711 C1709 1.387 . S
C1711 C1713 1.390 . S
C1711 H1715 0.950 . S
H1712 C1708 0.950 . S
C1713 C1711 1.390 . S
C1713 C1714 1.387 . S
C1713 H1716 0.950 . S
C1714 C1713 1.387 . S
C1714 C1717 1.387 . S
H1715 C1711 0.950 . S
H1716 C1713 0.950 . S
C1717 C1708 1.390 . S
C1717 H1710 0.950 . S
C1717 C1714 1.387 . S
C1718 C1719 1.387 . S
C1718 H1722 0.950 . S
C1718 C1727 1.390 . S
C1719 C1718 1.387 . S
C1719 C1721 1.387 . S
H1720 C1727 0.950 . S
C1721 C1719 1.387 . S
C1721 C1723 1.390 . S
C1721 H1725 0.950 . S
H1722 C1718 0.950 . S
C1723 C1721 1.390 . S
C1723 C1724 1.387 . S
C1723 H1726 0.950 . S
C1724 C1723 1.387 . S
C1724 C1727 1.387 . S
H1725 C1721 0.950 . S
H1726 C1723 0.950 . S
C1727 C1718 1.390 . S
C1727 H1720 0.950 . S
C1727 C1724 1.387 . S
C1728 C1729 1.387 . S
C1728 H1732 0.950 . S
C1728 C1737 1.390 . S
C1729 C1728 1.387 . S
C1729 C1731 1.387 . S
H1730 C1737 0.950 . S
C1731 C1729 1.387 . S
C1731 C1733 1.390 . S
C1731 H1735 0.950 . S
H1732 C1728 0.950 . S
C1733 C1731 1.390 . S
C1733 C1734 1.387 . S
C1733 H1736 0.950 . S
C1734 C1733 1.387 . S
C1734 C1737 1.387 . S
H1735 C1731 0.950 . S
H1736 C1733 0.950 . S
C1737 C1728 1.390 . S
C1737 H1730 0.950 . S
C1737 C1734 1.387 . S
C1738 C1739 1.387 . S
C1738 H1742 0.950 . S
C1738 C1747 1.390 . S
C1739 C1738 1.387 . S
C1739 C1741 1.387 . S
H1740 C1747 0.950 . S
C1741 C1739 1.387 . S
C1741 C1743 1.390 . S
C1741 H1745 0.950 . S
H1742 C1738 0.950 . S
C1743 C1741 1.390 . S
C1743 C1744 1.387 . S
C1743 H1746 0.950 . S
C1744 C1743 1.387 . S
C1744 C1747 1.387 . S
H1745 C1741 0.950 . S
H1746 C1743 0.950 . S
C1747 C1738 1.390 . S
C1747 H1740 0.950 . S
C1747 C1744 1.387 . S
C1748 C1749 1.387 . S
C1748 H1752 0.950 . S
C1748 C1757 1.390 . S
C1749 C1748 1.387 . S
C1749 C1751 1.387 . S
H1750 C1757 0.950 . S
C1751 C1749 1.387 . S
C1751 C1753 1.390 . S
C1751 H1755 0.950 . S
H1752 C1748 0.950 . S
C1753 C1751 1.390 . S
C1753 C1754 1.387 . S
C1753 H1756 0.950 . S
C1754 C1753 1.387 . S
C1754 C1757 1.387 . S
H1755 C1751 0.950 . S
H1756 C1753 0.950 . S
C1757 C1748 1.390 . S
C1757 H1750 0.950 . S
C1757 C1754 1.387 . S
C1758 C1759 1.387 . S
C1758 H1762 0.950 . S
C1758 C1767 1.390 . S
C1759 C1758 1.387 . S
C1759 C1761 1.387 . S
H1760 C1767 0.950 . S
C1761 C1759 1.387 . S
C1761 C1763 1.390 . S
C1761 H1765 0.950 . S
H1762 C1758 0.950 . S
C1763 C1761 1.390 . S
C1763 C1764 1.387 . S
C1763 H1766 0.950 . S
C1764 C1763 1.387 . S
C1764 C1767 1.387 . S
H1765 C1761 0.950 . S
H1766 C1763 0.950 . S
C1767 C1758 1.390 . S
C1767 H1760 0.950 . S
C1767 C1764 1.387 . S
C1768 C1769 1.387 . S
C1768 H1772 0.950 . S
C1768 C1777 1.390 . S
C1769 C1768 1.387 . S
C1769 C1771 1.387 . S
H1770 C1777 0.950 . S
C1771 C1769 1.387 . S
C1771 C1773 1.390 . S
C1771 H1775 0.950 . S
H1772 C1768 0.950 . S
C1773 C1771 1.390 . S
C1773 C1774 1.387 . S
C1773 H1776 0.950 . S
C1774 C1773 1.387 . S
C1774 C1777 1.387 . S
H1775 C1771 0.950 . S
H1776 C1773 0.950 . S
C1777 C1768 1.390 . S
C1777 H1770 0.950 . S
C1777 C1774 1.387 . S
C1778 C1779 1.387 . S
C1778 H1782 0.950 . S
C1778 C1787 1.390 . S
C1779 C1778 1.387 . S
C1779 C1781 1.387 . S
H1780 C1787 0.950 . S
C1781 C1779 1.387 . S
C1781 C1783 1.390 . S
C1781 H1785 0.950 . S
H1782 C1778 0.950 . S
C1783 C1781 1.390 . S
C1783 C1784 1.387 . S
C1783 H1786 0.950 . S
C1784 C1783 1.387 . S
C1784 C1787 1.387 . S
H1785 C1781 0.950 . S
H1786 C1783 0.950 . S
C1787 C1778 1.390 . S
C1787 H1780 0.950 . S
C1787 C1784 1.387 . S
C1788 C1789 1.387 . S
C1788 H1792 0.950 . S
C1788 C1797 1.390 . S
C1789 C1788 1.387 . S
C1789 C1791 1.387 . S
H1790 C1797 0.950 . S
C1791 C1789 1.387 . S
C1791 C1793 1.390 . S
C1791 H1795 0.950 . S
H1792 C1788 0.950 . S
C1793 C1791 1.390 . S
C1793 C1794 1.387 . S
C1793 H1796 0.950 . S
C1794 C1793 1.387 . S
C1794 C1797 1.387 . S
H1795 C1791 0.950 . S
H1796 C1793 0.950 . S
C1797 C1788 1.390 . S
C1797 H1790 0.950 . S
C1797 C1794 1.387 . S
C1798 C1799 1.387 . S
C1798 H1802 0.950 . S
C1798 C1807 1.390 . S
C1799 C1798 1.387 . S
C1799 C1801 1.387 . S
H1800 C1807 0.950 . S
C1801 C1799 1.387 . S
C1801 C1803 1.390 . S
C1801 H1805 0.950 . S
H1802 C1798 0.950 . S
C1803 C1801 1.390 . S
C1803 C1804 1.387 . S
C1803 H1806 0.950 . S
C1804 C1803 1.387 . S
C1804 C1807 1.387 . S
H1805 C1801 0.950 . S
H1806 C1803 0.950 . S
C1807 C1798 1.390 . S
C1807 H1800 0.950 . S
C1807 C1804 1.387 . S
C1808 C1809 1.387 . S
C1808 H1812 0.950 . S
C1808 C1817 1.390 . S
C1809 C1808 1.387 . S
C1809 C1811 1.387 . S
H1810 C1817 0.950 . S
C1811 C1809 1.387 . S
C1811 C1813 1.390 . S
C1811 H1815 0.950 . S
H1812 C1808 0.950 . S
C1813 C1811 1.390 . S
C1813 C1814 1.387 . S
C1813 H1816 0.950 . S
C1814 C1813 1.387 . S
C1814 C1817 1.387 . S
H1815 C1811 0.950 . S
H1816 C1813 0.950 . S
C1817 C1808 1.390 . S
C1817 H1810 0.950 . S
C1817 C1814 1.387 . S
C1818 C1819 1.387 . S
C1818 H1822 0.950 . S
C1818 C1827 1.390 . S
C1819 C1818 1.387 . S
C1819 C1821 1.387 . S
H1820 C1827 0.950 . S
C1821 C1819 1.387 . S
C1821 C1823 1.390 . S
C1821 H1825 0.950 . S
H1822 C1818 0.950 . S
C1823 C1821 1.390 . S
C1823 C1824 1.387 . S
C1823 H1826 0.950 . S
C1824 C1823 1.387 . S
C1824 C1827 1.387 . S
H1825 C1821 0.950 . S
H1826 C1823 0.950 . S
C1827 C1818 1.390 . S
C1827 H1820 0.950 . S
C1827 C1824 1.387 . S
C1828 C1829 1.387 . S
C1828 H1832 0.950 . S
C1828 C1837 1.390 . S
C1829 C1828 1.387 . S
C1829 C1831 1.387 . S
H1830 C1837 0.950 . S
C1831 C1829 1.387 . S
C1831 C1833 1.390 . S
C1831 H1835 0.950 . S
H1832 C1828 0.950 . S
C1833 C1831 1.390 . S
C1833 C1834 1.387 . S
C1833 H1836 0.950 . S
C1834 C1833 1.387 . S
C1834 C1837 1.387 . S
H1835 C1831 0.950 . S
H1836 C1833 0.950 . S
C1837 C1828 1.390 . S
C1837 H1830 0.950 . S
C1837 C1834 1.387 . S
C1838 C1839 1.387 . S
C1838 H1842 0.950 . S
C1838 C1847 1.390 . S
C1839 C1838 1.387 . S
C1839 C1841 1.387 . S
H1840 C1847 0.950 . S
C1841 C1839 1.387 . S
C1841 C1843 1.390 . S
C1841 H1845 0.950 . S
H1842 C1838 0.950 . S
C1843 C1841 1.390 . S
C1843 C1844 1.387 . S
C1843 H1846 0.950 . S
C1844 C1843 1.387 . S
C1844 C1847 1.387 . S
H1845 C1841 0.950 . S
H1846 C1843 0.950 . S
C1847 C1838 1.390 . S
C1847 H1840 0.950 . S
C1847 C1844 1.387 . S
C1848 C1849 1.387 . S
C1848 H1852 0.950 . S
C1848 C1857 1.390 . S
C1849 C1848 1.387 . S
C1849 C1851 1.387 . S
H1850 C1857 0.950 . S
C1851 C1849 1.387 . S
C1851 C1853 1.390 . S
C1851 H1855 0.950 . S
H1852 C1848 0.950 . S
C1853 C1851 1.390 . S
C1853 C1854 1.387 . S
C1853 H1856 0.950 . S
C1854 C1853 1.387 . S
C1854 C1857 1.387 . S
H1855 C1851 0.950 . S
H1856 C1853 0.950 . S
C1857 C1848 1.390 . S
C1857 H1850 0.950 . S
C1857 C1854 1.387 . S
C1858 C1859 1.387 . S
C1858 H1862 0.950 . S
C1858 C1867 1.390 . S
C1859 C1858 1.387 . S
C1859 C1861 1.387 . S
H1860 C1867 0.950 . S
C1861 C1859 1.387 . S
C1861 C1863 1.390 . S
C1861 H1865 0.950 . S
H1862 C1858 0.950 . S
C1863 C1861 1.390 . S
C1863 C1864 1.387 . S
C1863 H1866 0.950 . S
C1864 C1863 1.387 . S
C1864 C1867 1.387 . S
H1865 C1861 0.950 . S
H1866 C1863 0.950 . S
C1867 C1858 1.390 . S
C1867 H1860 0.950 . S
C1867 C1864 1.387 . S
C1868 C1869 1.387 . S
C1868 H1872 0.950 . S
C1868 C1877 1.390 . S
C1869 C1868 1.387 . S
C1869 C1871 1.387 . S
H1870 C1877 0.950 . S
C1871 C1869 1.387 . S
C1871 C1873 1.390 . S
C1871 H1875 0.950 . S
H1872 C1868 0.950 . S
C1873 C1871 1.390 . S
C1873 C1874 1.387 . S
C1873 H1876 0.950 . S
C1874 C1873 1.387 . S
C1874 C1877 1.387 . S
H1875 C1871 0.950 . S
H1876 C1873 0.950 . S
C1877 C1868 1.390 . S
C1877 H1870 0.950 . S
C1877 C1874 1.387 . S
C1878 C1879 1.387 . S
C1878 H1882 0.950 . S
C1878 C1887 1.390 . S
C1879 C1878 1.387 . S
C1879 C1881 1.387 . S
H1880 C1887 0.950 . S
C1881 C1879 1.387 . S
C1881 C1883 1.390 . S
C1881 H1885 0.950 . S
H1882 C1878 0.950 . S
C1883 C1881 1.390 . S
C1883 C1884 1.387 . S
C1883 H1886 0.950 . S
C1884 C1883 1.387 . S
C1884 C1887 1.387 . S
H1885 C1881 0.950 . S
H1886 C1883 0.950 . S
C1887 C1878 1.390 . S
C1887 H1880 0.950 . S
C1887 C1884 1.387 . S
C1888 C1889 1.387 . S
C1888 H1892 0.950 . S
C1888 C1897 1.390 . S
C1889 C1888 1.387 . S
C1889 C1891 1.387 . S
H1890 C1897 0.950 . S
C1891 C1889 1.387 . S
C1891 C1893 1.390 . S
C1891 H1895 0.950 . S
H1892 C1888 0.950 . S
C1893 C1891 1.390 . S
C1893 C1894 1.387 . S
C1893 H1896 0.950 . S
C1894 C1893 1.387 . S
C1894 C1897 1.387 . S
H1895 C1891 0.950 . S
H1896 C1893 0.950 . S
C1897 C1888 1.390 . S
C1897 H1890 0.950 . S
C1897 C1894 1.387 . S
C1898 C1899 1.387 . S
C1898 H1902 0.950 . S
C1898 C1907 1.390 . S
C1899 C1898 1.387 . S
C1899 C1901 1.387 . S
H1900 C1907 0.950 . S
C1901 C1899 1.387 . S
C1901 C1903 1.390 . S
C1901 H1905 0.950 . S
H1902 C1898 0.950 . S
C1903 C1901 1.390 . S
C1903 C1904 1.387 . S
C1903 H1906 0.950 . S
C1904 C1903 1.387 . S
C1904 C1907 1.387 . S
H1905 C1901 0.950 . S
H1906 C1903 0.950 . S
C1907 C1898 1.390 . S
C1907 H1900 0.950 . S
C1907 C1904 1.387 . S
C1908 C1909 1.387 . S
C1908 H1912 0.950 . S
C1908 C1917 1.390 . S
C1909 C1908 1.387 . S
C1909 C1911 1.387 . S
H1910 C1917 0.950 . S
C1911 C1909 1.387 . S
C1911 C1913 1.390 . S
C1911 H1915 0.950 . S
H1912 C1908 0.950 . S
C1913 C1911 1.390 . S
C1913 C1914 1.387 . S
C1913 H1916 0.950 . S
C1914 C1913 1.387 . S
C1914 C1917 1.387 . S
H1915 C1911 0.950 . S
H1916 C1913 0.950 . S
C1917 C1908 1.390 . S
C1917 H1910 0.950 . S
C1917 C1914 1.387 . S
C1918 C1919 1.387 . S
C1918 H1922 0.950 . S
C1918 C1927 1.390 . S
C1919 C1918 1.387 . S
C1919 C1921 1.387 . S
H1920 C1927 0.950 . S
C1921 C1919 1.387 . S
C1921 C1923 1.390 . S
C1921 H1925 0.950 . S
H1922 C1918 0.950 . S
C1923 C1921 1.390 . S
C1923 C1924 1.387 . S
C1923 H1926 0.950 . S
C1924 C1923 1.387 . S
C1924 C1927 1.387 . S
H1925 C1921 0.950 . S
H1926 C1923 0.950 . S
C1927 C1918 1.390 . S
C1927 H1920 0.950 . S
C1927 C1924 1.387 . S
C1928 C1929 1.387 . S
C1928 H1932 0.950 . S
C1928 C1937 1.390 . S
C1929 C1928 1.387 . S
C1929 C1931 1.387 . S
H1930 C1937 0.950 . S
C1931 C1929 1.387 . S
C1931 C1933 1.390 . S
C1931 H1935 0.950 . S
H1932 C1928 0.950 . S
C1933 C1931 1.390 . S
C1933 C1934 1.387 . S
C1933 H1936 0.950 . S
C1934 C1933 1.387 . S
C1934 C1937 1.387 . S
H1935 C1931 0.950 . S
H1936 C1933 0.950 . S
C1937 C1928 1.390 . S
C1937 H1930 0.950 . S
C1937 C1934 1.387 . S
C1938 C1939 1.387 . S
C1938 H1942 0.950 . S
C1938 C1947 1.390 . S
C1939 C1938 1.387 . S
C1939 C1941 1.387 . S
H1940 C1947 0.950 . S
C1941 C1939 1.387 . S
C1941 C1943 1.390 . S
C1941 H1945 0.950 . S
H1942 C1938 0.950 . S
C1943 C1941 1.390 . S
C1943 C1944 1.387 . S
C1943 H1946 0.950 . S
C1944 C1943 1.387 . S
C1944 C1947 1.387 . S
H1945 C1941 0.950 . S
H1946 C1943 0.950 . S
C1947 C1938 1.390 . S
C1947 H1940 0.950 . S
C1947 C1944 1.387 . S
C1948 C1949 1.387 . S
C1948 H1952 0.950 . S
C1948 C1957 1.390 . S
C1949 C1948 1.387 . S
C1949 C1951 1.387 . S
H1950 C1957 0.950 . S
C1951 C1949 1.387 . S
C1951 C1953 1.390 . S
C1951 H1955 0.950 . S
H1952 C1948 0.950 . S
C1953 C1951 1.390 . S
C1953 C1954 1.387 . S
C1953 H1956 0.950 . S
C1954 C1953 1.387 . S
C1954 C1957 1.387 . S
H1955 C1951 0.950 . S
H1956 C1953 0.950 . S
C1957 C1948 1.390 . S
C1957 H1950 0.950 . S
C1957 C1954 1.387 . S
C1958 C1959 1.387 . S
C1958 H1962 0.950 . S
C1958 C1967 1.390 . S
C1959 C1958 1.387 . S
C1959 C1961 1.387 . S
H1960 C1967 0.950 . S
C1961 C1959 1.387 . S
C1961 C1963 1.390 . S
C1961 H1965 0.950 . S
H1962 C1958 0.950 . S
C1963 C1961 1.390 . S
C1963 C1964 1.387 . S
C1963 H1966 0.950 . S
C1964 C1963 1.387 . S
C1964 C1967 1.387 . S
H1965 C1961 0.950 . S
H1966 C1963 0.950 . S
C1967 C1958 1.390 . S
C1967 H1960 0.950 . S
C1967 C1964 1.387 . S
C1968 C1969 1.387 . S
C1968 H1972 0.950 . S
C1968 C1977 1.390 . S
C1969 C1968 1.387 . S
C1969 C1971 1.387 . S
H1970 C1977 0.950 . S
C1971 C1969 1.387 . S
C1971 C1973 1.390 . S
C1971 H1975 0.950 . S
H1972 C1968 0.950 . S
C1973 C1971 1.390 . S
C1973 C1974 1.387 . S
C1973 H1976 0.950 . S
C1974 C1973 1.387 . S
C1974 C1977 1.387 . S
H1975 C1971 0.950 . S
H1976 C1973 0.950 . S
C1977 C1968 1.390 . S
C1977 H1970 0.950 . S
C1977 C1974 1.387 . S
C1978 C1979 1.387 . S
C1978 H1982 0.950 . S
C1978 C1987 1.390 . S
C1979 C1978 1.387 . S
C1979 C1981 1.387 . S
H1980 C1987 0.950 . S
C1981 C1979 1.387 . S
C1981 C1983 1.390 . S
C1981 H1985 0.950 . S
H1982 C1978 0.950 . S
C1983 C1981 1.390 . S
C1983 C1984 1.387 . S
C1983 H1986 0.950 . S
C1984 C1983 1.387 . S
C1984 C1987 1.387 . S
H1985 C1981 0.950 . S
H1986 C1983 0.950 . S
C1987 C1978 1.390 . S
C1987 H1980 0.950 . S
C1987 C1984 1.387 . S
C1988 C1989 1.387 . S
C1988 H1992 0.950 . S
C1988 C1997 1.390 . S
C1989 C1988 1.387 . S
C1989 C1991 1.387 . S
H1990 C1997 0.950 . S
C1991 C1989 1.387 . S
C1991 C1993 1.390 . S
C1991 H1995 0.950 . S
H1992 C1988 0.950 . S
C1993 C1991 1.390 . S
C1993 C1994 1.387 . S
C1993 H1996 0.950 . S
C1994 C1993 1.387 . S
C1994 C1997 1.387 . S
H1995 C1991 0.950 . S
H1996 C1993 0.950 . S
C1997 C1988 1.390 . S
C1997 H1990 0.950 . S
C1997 C1994 1.387 . S
C1998 C1999 1.387 . S
C1998 H2002 0.950 . S
C1998 C2007 1.390 . S
C1999 C1998 1.387 . S
C1999 C2001 1.387 . S
H2000 C2007 0.950 . S
C2001 C1999 1.387 . S
C2001 C2003 1.390 . S
C2001 H2005 0.950 . S
H2002 C1998 0.950 . S
C2003 C2001 1.390 . S
C2003 C2004 1.387 . S
C2003 H2006 0.950 . S
C2004 C2003 1.387 . S
C2004 C2007 1.387 . S
H2005 C2001 0.950 . S
H2006 C2003 0.950 . S
C2007 C1998 1.390 . S
C2007 H2000 0.950 . S
C2007 C2004 1.387 . S
C2008 C2009 1.387 . S
C2008 H2012 0.950 . S
C2008 C2017 1.390 . S
C2009 C2008 1.387 . S
C2009 C2011 1.387 . S
H2010 C2017 0.950 . S
C2011 C2009 1.387 . S
C2011 C2013 1.390 . S
C2011 H2015 0.950 . S
H2012 C2008 0.950 . S
C2013 C2011 1.390 . S
C2013 C2014 1.387 . S
C2013 H2016 0.950 . S
C2014 C2013 1.387 . S
C2014 C2017 1.387 . S
H2015 C2011 0.950 . S
H2016 C2013 0.950 . S
C2017 C2008 1.390 . S
C2017 H2010 0.950 . S
C2017 C2014 1.387 . S
C2018 C2019 1.387 . S
C2018 H2022 0.950 . S
C2018 C2027 1.390 . S
C2019 C2018 1.387 . S
C2019 C2021 1.387 . S
H2020 C2027 0.950 . S
C2021 C2019 1.387 . S
C2021 C2023 1.390 . S
C2021 H2025 0.950 . S
H2022 C2018 0.950 . S
C2023 C2021 1.390 . S
C2023 C2024 1.387 . S
C2023 H2026 0.950 . S
C2024 C2023 1.387 . S
C2024 C2027 1.387 . S
H2025 C2021 0.950 . S
H2026 C2023 0.950 . S
C2027 C2018 1.390 . S
C2027 H2020 0.950 . S
C2027 C2024 1.387 . S
C2028 C2029 1.387 . S
C2028 H2032 0.950 . S
C2028 C2037 1.390 . S
C2029 C2028 1.387 . S
C2029 C2031 1.387 . S
H2030 C2037 0.950 . S
C2031 C2029 1.387 . S
C2031 C2033 1.390 . S
C2031 H2035 0.950 . S
H2032 C2028 0.950 . S
C2033 C2031 1.390 . S
C2033 C2034 1.387 . S
C2033 H2036 0.950 . S
C2034 C2033 1.387 . S
C2034 C2037 1.387 . S
H2035 C2031 0.950 . S
H2036 C2033 0.950 . S
C2037 C2028 1.390 . S
C2037 H2030 0.950 . S
C2037 C2034 1.387 . S
C2038 C2039 1.387 . S
C2038 H2042 0.950 . S
C2038 C2047 1.390 . S
C2039 C2038 1.387 . S
C2039 C2041 1.387 . S
H2040 C2047 0.950 . S
C2041 C2039 1.387 . S
C2041 C2043 1.390 . S
C2041 H2045 0.950 . S
H2042 C2038 0.950 . S
C2043 C2041 1.390 . S
C2043 C2044 1.387 . S
C2043 H2046 0.950 . S
C2044 C2043 1.387 . S
C2044 C2047 1.387 . S
H2045 C2041 0.950 . S
H2046 C2043 0.950 . S
C2047 C2038 1.390 . S
C2047 H2040 0.950 . S
C2047 C2044 1.387 . S
C2048 C2049 1.387 . S
C2048 H2052 0.950 . S
C2048 C2057 1.390 . S
C2049 C2048 1.387 . S
C2049 C2051 1.387 . S
H2050 C2057 0.950 . S
C2051 C2049 1.387 . S
C2051 C2053 1.390 . S
C2051 H2055 0.950 . S
H2052 C2048 0.950 . S
C2053 C2051 1.390 . S
C2053 C2054 1.387 . S
C2053 H2056 0.950 . S
C2054 C2053 1.387 . S
C2054 C2057 1.387 . S
H2055 C2051 0.950 . S
H2056 C2053 0.950 . S
C2057 C2048 1.390 . S
C2057 H2050 0.950 . S
C2057 C2054 1.387 . S
C2058 C2059 1.387 . S
C2058 H2062 0.950 . S
C2058 C2067 1.390 . S
C2059 C2058 1.387 . S
C2059 C2061 1.387 . S
H2060 C2067 0.950 . S
C2061 C2059 1.387 . S
C2061 C2063 1.390 . S
C2061 H2065 0.950 . S
H2062 C2058 0.950 . S
C2063 C2061 1.390 . S
C2063 C2064 1.387 . S
C2063 H2066 0.950 . S
C2064 C2063 1.387 . S
C2064 C2067 1.387 . S
H2065 C2061 0.950 . S
H2066 C2063 0.950 . S
C2067 C2058 1.390 . S
C2067 H2060 0.950 . S
C2067 C2064 1.387 . S
C2068 C2069 1.387 . S
C2068 H2072 0.950 . S
C2068 C2077 1.390 . S
C2069 C2068 1.387 . S
C2069 C2071 1.387 . S
H2070 C2077 0.950 . S
C2071 C2069 1.387 . S
C2071 C2073 1.390 . S
C2071 H2075 0.950 . S
H2072 C2068 0.950 . S
C2073 C2071 1.390 . S
C2073 C2074 1.387 . S
C2073 H2076 0.950 . S
C2074 C2073 1.387 . S
C2074 C2077 1.387 . S
H2075 C2071 0.950 . S
H2076 C2073 0.950 . S
C2077 C2068 1.390 . S
C2077 H2070 0.950 . S
C2077 C2074 1.387 . S
C2078 C2079 1.387 . S
C2078 H2082 0.950 . S
C2078 C2087 1.390 . S
C2079 C2078 1.387 . S
C2079 C2081 1.387 . S
H2080 C2087 0.950 . S
C2081 C2079 1.387 . S
C2081 C2083 1.390 . S
C2081 H2085 0.950 . S
H2082 C2078 0.950 . S
C2083 C2081 1.390 . S
C2083 C2084 1.387 . S
C2083 H2086 0.950 . S
C2084 C2083 1.387 . S
C2084 C2087 1.387 . S
H2085 C2081 0.950 . S
H2086 C2083 0.950 . S
C2087 C2078 1.390 . S
C2087 H2080 0.950 . S
C2087 C2084 1.387 . S
C1189 C18 1.335 . S
C1194 C513 1.336 . S
C1199 C546 1.337 . S
C1204 C51 1.337 . S
C1209 C579 1.336 . S
C1214 C84 1.337 . S
C1219 C810 1.335 . S
C1224 C117 1.334 . S
C1229 C150 1.335 . S
C1234 C843 1.335 . S
C1239 C876 1.337 . S
C1244 C183 1.336 . S
C1249 C1107 1.336 . S
C1254 C216 1.336 . S
C1259 C249 1.337 . S
C1264 C1140 1.337 . S
C1269 C1173 1.336 . S
C1274 C282 1.335 . S
C1279 C612 1.336 . S
C1284 C315 1.336 . S
C1289 C645 1.335 . S
C1294 C348 1.335 . S
C1299 C678 1.335 . S
C1304 C381 1.336 . S
C1309 C909 1.335 . S
C1314 C414 1.336 . S
C1319 C942 1.337 . S
C1324 C447 1.337 . S
C1329 C480 1.337 . S
C1334 C975 1.336 . S
C1339 C711 1.334 . S
C1344 C1008 1.335 . S
C1349 C1041 1.334 . S
C1354 C744 1.334 . S
C1359 C777 1.335 . S
C1364 C1074 1.334 . S
C1369 C978 1.566 . S
C1374 C21 1.566 . S
C1379 C54 1.566 . S
C1384 C912 1.566 . S
C1389 C945 1.566 . S
C1394 C87 1.567 . S
C1399 C450 1.566 . S
C1404 C120 1.566 . S
C1409 C483 1.567 . S
C1414 C153 1.566 . S
C1419 C417 1.566 . S
C1424 C186 1.566 . S
C1429 C219 1.566 . S
C1434 C780 1.566 . S
C1439 C714 1.566 . S
C1444 C252 1.566 . S
C1449 C285 1.566 . S
C1454 C747 1.566 . S
C1459 C1044 1.566 . S
C1464 C318 1.566 . S
C1469 C351 1.566 . S
C1474 C1077 1.566 . S
C1479 C384 1.566 . S
C1484 C1011 1.566 . S
C1489 C846 1.566 . S
C1494 C516 1.566 . S
C1499 C879 1.566 . S
C1504 C549 1.566 . S
C1509 C582 1.566 . S
C1514 C813 1.566 . S
C1519 C615 1.566 . S
C1524 C1176 1.566 . S
C1529 C1110 1.566 . S
C1534 C648 1.566 . S
C1539 C1143 1.566 . S
C1544 C681 1.566 . S
C1549 C7 1.398 . S
C1554 C370 1.396 . S
C1559 C40 1.396 . S
C1564 C304 1.398 . S
C1569 C73 1.396 . S
C1574 C337 1.399 . S
C1579 C106 1.396 . S
C1584 C238 1.398 . S
C1589 C271 1.399 . S
C1594 C139 1.396 . S
C1599 C205 1.398 . S
C1604 C172 1.396 . S
C1609 C766 1.396 . S
C1614 C403 1.398 . S
C1619 C700 1.398 . S
C1624 C436 1.396 . S
C1629 C469 1.396 . S
C1634 C733 1.398 . S
C1639 C634 1.398 . S
C1644 C502 1.396 . S
C1649 C667 1.399 . S
C1654 C535 1.396 . S
C1659 C601 1.398 . S
C1664 C568 1.396 . S
C1669 C1162 1.398 . S
C1674 C799 1.397 . S
C1679 C832 1.398 . S
C1684 C1096 1.396 . S
C1689 C1129 1.396 . S
C1694 C865 1.399 . S
C1699 C1030 1.396 . S
C1704 C898 1.398 . S
C1709 C1063 1.398 . S
C1714 C931 1.396 . S
C1719 C997 1.396 . S
C1724 C964 1.398 . S
C1729 N13 1.427 . S
C1734 N2 1.425 . S
C1739 N35 1.426 . S
C1744 N46 1.428 . S
C1749 N79 1.429 . S
C1754 N68 1.426 . S
C1759 N101 1.423 . S
C1764 N112 1.426 . S
C1769 N134 1.424 . S
C1774 N145 1.426 . S
C1779 N167 1.424 . S
C1784 N178 1.426 . S
C1789 N200 1.426 . S
C1794 N211 1.428 . S
C1799 N233 1.426 . S
C1804 N244 1.428 . S
C1809 N277 1.426 . S
C1814 N266 1.424 . S
C1819 N310 1.427 . S
C1824 N299 1.425 . S
C1829 N332 1.424 . S
C1834 N343 1.427 . S
C1839 N376 1.429 . S
C1844 N365 1.426 . S
C1849 N398 1.424 1_554 S
C1854 N409 1.426 . S
C1859 N431 1.424 1_554 S
C1864 N442 1.426 . S
C1869 N464 1.424 1_554 S
C1874 N475 1.426 . S
C1879 N497 1.426 . S
C1884 N508 1.428 . S
C1889 N530 1.424 . S
C1894 N541 1.426 . S
C1899 N574 1.426 . S
C1904 N563 1.423 . S
C1909 N596 1.424 . S
C1914 N607 1.426 . S
C1919 N640 1.426 . S
C1924 N629 1.424 . S
C1929 N673 1.428 . S
C1934 N662 1.426 . S
C1939 N706 1.429 . S
C1944 N695 1.426 1_554 S
C1949 N728 1.424 1_554 S
C1954 N739 1.426 . S
C1959 N761 1.426 1_554 S
C1964 N772 1.429 . S
C1969 N805 1.426 . S
C1974 N794 1.424 . S
C1979 N838 1.426 . S
C1984 N827 1.424 . S
C1989 N860 1.426 . S
C1994 N871 1.428 . S
C1999 N893 1.424 1_556 S
C2004 N904 1.426 . S
C2009 N937 1.426 . S
C2014 N926 1.424 1_556 S
C2019 N959 1.424 1_556 S
C2024 N970 1.426 . S
C2029 N1003 1.426 . S
C2034 N992 1.424 1_556 S
C2039 N1036 1.428 . S
C2044 N1025 1.426 1_556 S
C2049 N1069 1.427 . S
C2054 N1058 1.424 1_556 S
C2059 N1091 1.424 . S
C2064 N1102 1.426 . S
C2069 N1135 1.428 . S
C2074 N1124 1.426 . S
C2079 N1157 1.424 . S
C2084 N1168 1.426 . S
