# Generated by pormake.
# Topology yfj, (5)-cn, num edge types: 1
# Building blocks:
#     Node 0, Type 0, BuildingBlock: XOMCOT_clean_sbu_1, # of connection points: 5
#     Node 1, Type 0, BuildingBlock: XOMCOT_clean_sbu_1, # of connection points: 5
#     Node 2, Type 0, BuildingBlock: XOMCOT_clean_sbu_1, # of connection points: 5
#     Node 3, Type 0, BuildingBlock: XOMCOT_clean_sbu_1, # of connection points: 5
#     Node 4, Type 0, BuildingBlock: XOMCOT_clean_sbu_1, # of connection points: 5
#     Node 5, Type 0, BuildingBlock: XOMCOT_clean_sbu_1, # of connection points: 5
#     Node 6, Type 0, BuildingBlock: XOMCOT_clean_sbu_1, # of connection points: 5
#     Node 7, Type 0, BuildingBlock: XOMCOT_clean_sbu_1, # of connection points: 5
#     Node 8, Type 0, BuildingBlock: XOMCOT_clean_sbu_1, # of connection points: 5
#     Node 9, Type 0, BuildingBlock: XOMCOT_clean_sbu_1, # of connection points: 5
#     Node 10, Type 0, BuildingBlock: XOMCOT_clean_sbu_1, # of connection points: 5
#     Node 11, Type 0, BuildingBlock: XOMCOT_clean_sbu_1, # of connection points: 5
#     Node 12, Type 0, BuildingBlock: XOMCOT_clean_sbu_1, # of connection points: 5
#     Node 13, Type 0, BuildingBlock: XOMCOT_clean_sbu_1, # of connection points: 5
#     Node 14, Type 0, BuildingBlock: XOMCOT_clean_sbu_1, # of connection points: 5
#     Node 15, Type 0, BuildingBlock: XOMCOT_clean_sbu_1, # of connection points: 5
#     Edge 16, Type (0, 0), BuildingBlock: OJICUG_clean_linker_0, # of connection points: 2
#     Edge 17, Type (0, 0), BuildingBlock: OJICUG_clean_linker_0, # of connection points: 2
#     Edge 18, Type (0, 0), BuildingBlock: OJICUG_clean_linker_0, # of connection points: 2
#     Edge 19, Type (0, 0), BuildingBlock: OJICUG_clean_linker_0, # of connection points: 2
#     Edge 20, Type (0, 0), BuildingBlock: OJICUG_clean_linker_0, # of connection points: 2
#     Edge 21, Type (0, 0), BuildingBlock: OJICUG_clean_linker_0, # of connection points: 2
#     Edge 22, Type (0, 0), BuildingBlock: OJICUG_clean_linker_0, # of connection points: 2
#     Edge 23, Type (0, 0), BuildingBlock: OJICUG_clean_linker_0, # of connection points: 2
#     Edge 24, Type (0, 0), BuildingBlock: OJICUG_clean_linker_0, # of connection points: 2
#     Edge 25, Type (0, 0), BuildingBlock: OJICUG_clean_linker_0, # of connection points: 2
#     Edge 26, Type (0, 0), BuildingBlock: OJICUG_clean_linker_0, # of connection points: 2
#     Edge 27, Type (0, 0), BuildingBlock: OJICUG_clean_linker_0, # of connection points: 2
#     Edge 28, Type (0, 0), BuildingBlock: OJICUG_clean_linker_0, # of connection points: 2
#     Edge 29, Type (0, 0), BuildingBlock: OJICUG_clean_linker_0, # of connection points: 2
#     Edge 30, Type (0, 0), BuildingBlock: OJICUG_clean_linker_0, # of connection points: 2
#     Edge 31, Type (0, 0), BuildingBlock: OJICUG_clean_linker_0, # of connection points: 2
#     Edge 32, Type (0, 0), BuildingBlock: OJICUG_clean_linker_0, # of connection points: 2
#     Edge 33, Type (0, 0), BuildingBlock: OJICUG_clean_linker_0, # of connection points: 2
#     Edge 34, Type (0, 0), BuildingBlock: OJICUG_clean_linker_0, # of connection points: 2
#     Edge 35, Type (0, 0), BuildingBlock: OJICUG_clean_linker_0, # of connection points: 2
#     Edge 36, Type (0, 0), BuildingBlock: OJICUG_clean_linker_0, # of connection points: 2
#     Edge 37, Type (0, 0), BuildingBlock: OJICUG_clean_linker_0, # of connection points: 2
#     Edge 38, Type (0, 0), BuildingBlock: OJICUG_clean_linker_0, # of connection points: 2
#     Edge 39, Type (0, 0), BuildingBlock: OJICUG_clean_linker_0, # of connection points: 2
#     Edge 40, Type (0, 0), BuildingBlock: OJICUG_clean_linker_0, # of connection points: 2
#     Edge 41, Type (0, 0), BuildingBlock: OJICUG_clean_linker_0, # of connection points: 2
#     Edge 42, Type (0, 0), BuildingBlock: OJICUG_clean_linker_0, # of connection points: 2
#     Edge 43, Type (0, 0), BuildingBlock: OJICUG_clean_linker_0, # of connection points: 2
#     Edge 44, Type (0, 0), BuildingBlock: OJICUG_clean_linker_0, # of connection points: 2
#     Edge 45, Type (0, 0), BuildingBlock: OJICUG_clean_linker_0, # of connection points: 2
#     Edge 46, Type (0, 0), BuildingBlock: OJICUG_clean_linker_0, # of connection points: 2
#     Edge 47, Type (0, 0), BuildingBlock: OJICUG_clean_linker_0, # of connection points: 2
#     Edge 48, Type (0, 0), BuildingBlock: OJICUG_clean_linker_0, # of connection points: 2
#     Edge 49, Type (0, 0), BuildingBlock: OJICUG_clean_linker_0, # of connection points: 2
#     Edge 50, Type (0, 0), BuildingBlock: OJICUG_clean_linker_0, # of connection points: 2
#     Edge 51, Type (0, 0), BuildingBlock: OJICUG_clean_linker_0, # of connection points: 2
#     Edge 52, Type (0, 0), BuildingBlock: OJICUG_clean_linker_0, # of connection points: 2
#     Edge 53, Type (0, 0), BuildingBlock: OJICUG_clean_linker_0, # of connection points: 2
#     Edge 54, Type (0, 0), BuildingBlock: OJICUG_clean_linker_0, # of connection points: 2
#     Edge 55, Type (0, 0), BuildingBlock: OJICUG_clean_linker_0, # of connection points: 2
# Relax obj value: 0.475
# Max RMSD: 0.243
# Mean RMSD: 0.243
data_MOF--net-yfj--node1-XOMCOT_clean_sbu_1--edge1-OJICUG_clean_linker_0
_symmetry_space_group_name_H-M    P1
_symmetry_Int_Tables_number       1
_symmetry_cell_setting            triclinic
loop_
_symmetry_equiv_pos_as_xyz
'x, y, z'
_cell_length_a     37.342859
_cell_length_b     37.313791
_cell_length_c     32.279543
_cell_angle_alpha  89.950614
_cell_angle_beta   90.062928
_cell_angle_gamma 90.117243
loop_
_atom_site_label
_atom_site_type_symbol
_atom_site_fract_x
_atom_site_fract_y
_atom_site_fract_z
_atom_type_partial_charge
C0 C 0.10675 0.07434 0.39033 0.0
C1 C 0.10143 0.06698 0.43164 0.0
N2 N 0.10943 0.09652 0.45392 0.0
N3 N 0.1176 0.10859 0.38605 0.0
C4 C 0.1194 0.12134 0.4254 0.0
H5 H 0.10365 0.05567 0.36495 0.0
Co6 Co 0.13257 0.12953 0.33553 0.0
C7 C 0.10269 0.2039 0.36382 0.0
O8 O 0.07099 0.20408 0.34617 0.0
N9 N 0.15025 0.14939 0.28556 0.0
C10 C 0.16841 0.18405 0.23339 0.0
C11 C 0.14642 0.18191 0.26784 0.0
C12 C 0.17447 0.13236 0.26128 0.0
N13 N 0.18593 0.15269 0.22924 0.0
O14 O 0.17751 0.13336 0.35691 0.0
H15 H 0.12945 0.20303 0.27953 0.0
H16 H 0.18413 0.10559 0.26759 0.0
O17 O 0.1235 0.17715 0.35872 0.0
C18 C 0.19525 0.10455 0.35873 0.0
O19 O 0.18134 0.07465 0.34438 0.0
N20 N 0.08656 0.1222 0.31253 0.0
C21 C 0.03473 0.06962 0.29839 0.0
C22 C 0.03022 0.09501 0.33021 0.0
C23 C 0.05632 0.12169 0.33638 0.0
C24 C 0.08828 0.10121 0.27794 0.0
C25 C 0.06271 0.07496 0.27027 0.0
H26 H 0.05502 0.13764 0.36428 0.0
H27 H 0.11208 0.10033 0.25928 0.0
H28 H 0.12842 0.1481 0.433 0.0
H29 H 0.09341 0.04132 0.44427 0.0
H30 H 0.17129 0.20693 0.21302 0.0
H31 H 0.00852 0.09243 0.35224 0.0
H32 H 0.06761 0.05627 0.24527 0.0
C33 C 0.92782 0.61322 0.64195 0.0
C34 C 0.93558 0.60907 0.68345 0.0
N35 N 0.90517 0.61364 0.7051 0.0
N36 N 0.89266 0.6206 0.63739 0.0
C37 C 0.87954 0.62057 0.6766 0.0
H38 H 0.94686 0.61241 0.61675 0.0
Co39 Co 0.87126 0.63653 0.58744 0.0
C40 C 0.79689 0.60854 0.61882 0.0
O41 O 0.79576 0.57627 0.60267 0.0
N42 N 0.85108 0.65533 0.53816 0.0
C43 C 0.81611 0.67562 0.48733 0.0
C44 C 0.81803 0.65311 0.52144 0.0
C45 C 0.86862 0.67914 0.51364 0.0
N46 N 0.84813 0.69188 0.4824 0.0
O47 O 0.86961 0.68128 0.60952 0.0
H48 H 0.79642 0.63696 0.53368 0.0
H49 H 0.89591 0.68762 0.51922 0.0
O50 O 0.82385 0.6288 0.61195 0.0
C51 C 0.89944 0.69737 0.61116 0.0
O52 O 0.92739 0.68364 0.59229 0.0
N53 N 0.87652 0.59043 0.56399 0.0
C54 C 0.92974 0.53946 0.5503 0.0
C55 C 0.90472 0.53485 0.58248 0.0
C56 C 0.87769 0.56049 0.5884 0.0
C57 C 0.89669 0.59177 0.52875 0.0
C58 C 0.92345 0.56675 0.52144 0.0
H59 H 0.86213 0.55925 0.61658 0.0
H60 H 0.89672 0.6151 0.5092 0.0
H61 H 0.85228 0.62756 0.68447 0.0
H62 H 0.96164 0.60374 0.69679 0.0
H63 H 0.79291 0.67977 0.4678 0.0
H64 H 0.9078 0.51351 0.60493 0.0
H65 H 0.94165 0.57167 0.49598 0.0
C66 C 0.40022 0.43682 0.88258 0.0
C67 C 0.40857 0.44398 0.92327 0.0
N68 N 0.40077 0.41484 0.94635 0.0
N69 N 0.38757 0.40308 0.87944 0.0
C70 C 0.38776 0.3905 0.91896 0.0
H71 H 0.40311 0.45509 0.85676 0.0
Co72 Co 0.37073 0.38204 0.82949 0.0
C73 C 0.39255 0.30649 0.86018 0.0
O74 O 0.42335 0.30401 0.84081 0.0
N75 N 0.35123 0.36219 0.78027 0.0
C76 C 0.32977 0.3268 0.73048 0.0
C77 C 0.35267 0.32888 0.76414 0.0
C78 C 0.32765 0.37982 0.75557 0.0
N79 N 0.31401 0.35898 0.72511 0.0
O80 O 0.32527 0.38562 0.84938 0.0
H81 H 0.36845 0.30714 0.77657 0.0
H82 H 0.31966 0.40729 0.7608 0.0
O83 O 0.37326 0.33446 0.85557 0.0
C84 C 0.31135 0.41656 0.84807 0.0
O85 O 0.32966 0.44395 0.83367 0.0
N86 N 0.41774 0.38225 0.80746 0.0
C87 C 0.46988 0.43479 0.79652 0.0
C88 C 0.47301 0.40957 0.82877 0.0
C89 C 0.44691 0.38266 0.83314 0.0
C90 C 0.41863 0.40174 0.77163 0.0
C91 C 0.4442 0.42839 0.76577 0.0
H92 H 0.44671 0.36719 0.86147 0.0
H93 H 0.3963 0.40175 0.75052 0.0
H94 H 0.37859 0.364 0.92752 0.0
H95 H 0.41898 0.4691 0.93495 0.0
H96 H 0.32486 0.30328 0.7117 0.0
H97 H 0.49325 0.41263 0.85256 0.0
H98 H 0.44074 0.44655 0.73991 0.0
C99 C 0.57037 0.90531 0.14857 0.0
C100 C 0.56507 0.91265 0.1899 0.0
N101 N 0.59535 0.90489 0.21092 0.0
N102 N 0.60405 0.8934 0.14298 0.0
C103 C 0.61851 0.89307 0.18163 0.0
H104 H 0.55063 0.9077 0.12417 0.0
Co105 Co 0.62282 0.87553 0.09251 0.0
C106 C 0.699 0.90681 0.11626 0.0
O107 O 0.70114 0.93839 0.09843 0.0
N108 N 0.64092 0.85575 1.04268 0.0
C109 C 0.66603 0.84763 0.98085 0.0
C110 C 0.66554 0.86877 1.01606 0.0
C111 C 0.62728 0.82648 1.02325 0.0
N112 N 0.64187 0.82099 0.98542 0.0
O113 O 0.62923 0.83253 0.11782 0.0
H114 H 0.68097 0.89295 1.02108 0.0
H115 H 0.6055 0.81062 1.03563 0.0
O116 O 0.67077 0.88789 0.11168 0.0
C117 C 0.60057 0.81544 0.12486 0.0
O118 O 0.5702 0.8268 0.10902 0.0
N119 N 0.61275 0.91918 0.06607 0.0
C120 C 0.5612 0.97062 0.04747 0.0
C121 C 0.58811 0.97777 0.07697 0.0
C122 C 0.61426 0.9517 0.08542 0.0
C123 C 0.58936 0.91382 1.03413 0.0
C124 C 0.56384 0.93931 1.02396 0.0
H125 H 0.63191 0.95553 0.11163 0.0
H126 H 0.58651 0.88777 1.02011 0.0
H127 H 0.64531 0.88368 0.18823 0.0
H128 H 0.54028 0.92187 0.2035 0.0
H129 H 0.68253 0.85189 0.95373 0.0
H130 H 0.5872 1.00185 0.09564 0.0
H131 H 0.54358 0.93228 1.00132 0.0
C132 C 0.11002 0.43257 0.94394 0.0
C133 C 0.10136 0.43919 0.9032 0.0
N134 N 0.11039 0.41037 0.88026 0.0
N135 N 0.12404 0.39945 0.94727 0.0
C136 C 0.12427 0.38671 0.90784 0.0
H137 H 0.10718 0.45109 0.96948 0.0
Co138 Co 0.14486 0.38021 0.99612 0.0
C139 C 0.12049 0.30343 0.97022 0.0
O140 O 0.09046 0.30047 0.99107 0.0
N141 N 0.16806 0.36215 0.04401 0.0
C142 C 0.18921 0.32964 0.09647 0.0
C143 C 0.16558 0.33022 0.06342 0.0
C144 C 0.1932 0.38044 0.06592 0.0
N145 N 0.20652 0.36139 0.09814 0.0
O146 O 0.188 0.3818 0.97004 0.0
H147 H 0.14785 0.30871 0.05427 0.0
H148 H 0.20176 0.4073 0.05807 0.0
O149 O 0.13929 0.33193 0.97323 0.0
C150 C 0.20096 0.41282 0.96451 0.0
O151 O 0.18694 0.44052 0.98361 0.0
N152 N 0.10021 0.38206 1.0235 0.0
C153 C 0.04681 0.43204 1.03938 0.0
C154 C 0.04185 0.40568 1.00874 0.0
C155 C 0.06878 0.38017 1.00182 0.0
C156 C 0.10224 0.40321 0.05796 0.0
C157 C 0.07586 0.42837 0.06642 0.0
H158 H 0.06701 0.36385 0.97425 0.0
H159 H 0.12674 0.40551 0.07532 0.0
H160 H 0.13516 0.36089 0.89943 0.0
H161 H 0.09043 0.46399 0.89132 0.0
H162 H 0.19299 0.30765 0.11791 0.0
H163 H 0.01926 0.40693 0.98774 0.0
H164 H 0.0809 0.44776 0.09069 0.0
C165 C 0.58804 0.6076 0.20623 0.0
C166 C 0.5787 0.60066 0.16578 0.0
N167 N 0.60557 0.61157 0.14078 0.0
N168 N 0.62102 0.62229 0.20738 0.0
C169 C 0.63069 0.62501 0.16696 0.0
H170 H 0.57151 0.60288 0.23319 0.0
Co171 Co 0.64377 0.64006 0.25591 0.0
C172 C 0.72066 0.61897 0.23005 0.0
O173 O 0.72716 0.59627 0.26024 0.0
N174 N 0.66461 0.66079 0.30428 0.0
C175 C 0.69935 0.68653 0.3521 0.0
C176 C 0.69844 0.66319 0.31888 0.0
C177 C 0.64566 0.68299 0.3294 0.0
N178 N 0.66603 0.69907 0.35872 0.0
O179 O 0.64089 0.68493 0.23428 0.0
H180 H 0.7215 0.65032 0.30562 0.0
H181 H 0.61744 0.68832 0.32514 0.0
O182 O 0.69053 0.63508 0.22817 0.0
C183 C 0.6101 0.69905 0.23573 0.0
O184 O 0.58304 0.68128 0.25175 0.0
N185 N 0.64344 0.59389 0.27947 0.0
C186 C 0.5927 0.54017 0.2905 0.0
C187 C 0.61905 0.53697 0.25951 0.0
C188 C 0.64504 0.56402 0.25507 0.0
C189 C 0.6228 0.59357 0.3143 0.0
C190 C 0.59709 0.56711 0.32027 0.0
H191 H 0.66151 0.56412 0.22752 0.0
H192 H 0.62118 0.61677 0.33397 0.0
H193 H 0.65525 0.63751 0.15696 0.0
H194 H 0.55344 0.58942 0.1557 0.0
H195 H 0.72294 0.69412 0.36954 0.0
H196 H 0.61747 0.51591 0.23653 0.0
H197 H 0.57793 0.57081 0.34503 0.0
C198 C 0.4061 0.08005 0.43811 0.0
C199 C 0.41165 0.07244 0.39693 0.0
N200 N 0.40285 0.10149 0.37418 0.0
N201 N 0.39436 0.11401 0.44186 0.0
C202 C 0.39227 0.12629 0.40231 0.0
H203 H 0.40934 0.06162 0.46373 0.0
Co204 Co 0.37741 0.13464 0.49163 0.0
C205 C 0.4079 0.20924 0.46483 0.0
O206 O 0.43901 0.2095 0.48383 0.0
N207 N 0.35776 0.15411 0.54075 0.0
C208 C 0.33881 0.18765 0.59341 0.0
C209 C 0.36125 0.18632 0.55929 0.0
C210 C 0.33318 0.13651 0.56413 0.0
N211 N 0.32132 0.1561 0.59652 0.0
O212 O 0.33331 0.13791 0.46786 0.0
H213 H 0.37862 0.20762 0.54863 0.0
H214 H 0.32392 0.10968 0.55723 0.0
O215 O 0.38694 0.1824 0.46894 0.0
C216 C 0.31662 0.10851 0.46459 0.0
O217 O 0.33018 0.0793 0.48107 0.0
N218 N 0.42261 0.12785 0.51691 0.0
C219 C 0.47408 0.07563 0.5334 0.0
C220 C 0.47968 0.1012 0.50193 0.0
C221 C 0.4537 0.12767 0.49454 0.0
C222 C 0.41981 0.10684 0.55142 0.0
C223 C 0.44514 0.08073 0.56021 0.0
H224 H 0.45591 0.14363 0.46669 0.0
H225 H 0.39543 0.10573 0.56901 0.0
H226 H 0.38225 0.15259 0.39431 0.0
H227 H 0.42012 0.04684 0.3847 0.0
H228 H 0.33586 0.21 0.61448 0.0
H229 H 0.50216 0.09888 0.48096 0.0
H230 H 0.43933 0.06196 0.58491 0.0
C231 C 0.94001 0.90055 0.69468 0.0
C232 C 0.94619 0.9067 0.65328 0.0
N233 N 0.91612 0.89895 0.63178 0.0
N234 N 0.90599 0.88936 0.69992 0.0
C235 C 0.8922 0.88824 0.66094 0.0
H236 H 0.95933 0.90334 0.71948 0.0
Co237 Co 0.88673 0.8734 0.75112 0.0
C238 C 0.8114 0.90248 0.72566 0.0
O239 O 0.81142 0.9339 0.74396 0.0
N240 N 0.86861 0.85466 0.80156 0.0
C241 C 0.83614 0.83609 0.85536 0.0
C242 C 0.83692 0.85843 0.82106 0.0
C243 C 0.88652 0.83007 0.82464 0.0
N244 N 0.86753 0.81834 0.85766 0.0
O245 O 0.88328 0.82873 0.72943 0.0
H246 H 0.8155 0.87574 0.81078 0.0
H247 H 0.91296 0.82046 0.81682 0.0
O248 O 0.83841 0.8818 0.72951 0.0
C249 C 0.91209 0.81124 0.72586 0.0
O250 O 0.94253 0.82528 0.73838 0.0
N251 N 0.89366 0.91936 0.77451 0.0
C252 C 0.94581 0.97161 0.78827 0.0
C253 C 0.92004 0.97611 0.75681 0.0
C254 C 0.89354 0.94979 0.75088 0.0
C255 C 0.91491 0.91772 0.80892 0.0
C256 C 0.94097 0.94351 0.81641 0.0
H257 H 0.87721 0.95115 0.72325 0.0
H258 H 0.91622 0.89387 0.82755 0.0
H259 H 0.8653 0.87921 0.65405 0.0
H260 H 0.97142 0.91516 0.64002 0.0
H261 H 0.81416 0.83321 0.87694 0.0
H262 H 0.92221 0.99794 0.73484 0.0
H263 H 0.95992 0.93864 0.84117 0.0
C264 C 0.6021 0.5808 0.89849 0.0
C265 C 0.59621 0.57366 0.93978 0.0
N266 N 0.60727 0.60204 0.96239 0.0
N267 N 0.61619 0.61389 0.89449 0.0
C268 C 0.61961 0.62587 0.93401 0.0
H269 H 0.59736 0.56258 0.87301 0.0
Co270 Co 0.63401 0.6345 0.84483 0.0
C271 C 0.60543 0.71166 0.86515 0.0
O272 O 0.58334 0.71782 0.83429 0.0
N273 N 0.65464 0.65372 0.79555 0.0
C274 C 0.67423 0.68592 0.74185 0.0
C275 C 0.6516 0.68545 0.77577 0.0
C276 C 0.67942 0.63559 0.77299 0.0
N277 N 0.69161 0.65433 0.73996 0.0
O278 O 0.67742 0.63914 0.86974 0.0
H279 H 0.63442 0.70712 0.78513 0.0
H280 H 0.68841 0.60889 0.78084 0.0
O281 O 0.62249 0.68208 0.86711 0.0
C282 C 0.69457 0.61016 0.87377 0.0
O283 O 0.68138 0.58035 0.85828 0.0
N284 N 0.58975 0.62661 0.81837 0.0
C285 C 0.53762 0.57519 0.80099 0.0
C286 C 0.53138 0.60184 0.83106 0.0
C287 C 0.55774 0.62804 0.83878 0.0
C288 C 0.59371 0.60416 0.78536 0.0
C289 C 0.56798 0.57859 0.77597 0.0
H290 H 0.55476 0.64543 0.86534 0.0
H291 H 0.61901 0.60167 0.76982 0.0
H292 H 0.63219 0.65106 0.94176 0.0
H293 H 0.58586 0.54875 0.95212 0.0
H294 H 0.67729 0.70771 0.71998 0.0
H295 H 0.50792 0.60064 0.8507 0.0
H296 H 0.57435 0.55881 0.75259 0.0
C297 C 0.42402 0.10646 0.13116 0.0
C298 C 0.43268 0.09951 0.17179 0.0
N299 N 0.40478 0.10886 0.19599 0.0
N300 N 0.3905 0.11964 0.12917 0.0
C301 C 0.37958 0.1212 0.16925 0.0
H302 H 0.44145 0.10309 0.10471 0.0
Co303 Co 0.36927 0.13824 0.08033 0.0
C304 C 0.2937 0.11311 0.10861 0.0
O305 O 0.29087 0.08337 0.08712 0.0
N306 N 0.34961 0.15947 1.03214 0.0
C307 C 0.31556 0.18149 0.98147 0.0
C308 C 0.31671 0.15821 1.01489 0.0
C309 C 0.36785 0.18346 1.00858 0.0
N310 N 0.3479 0.1973 0.97746 0.0
O311 O 0.37063 0.18238 0.10412 0.0
H312 H 0.29477 0.14196 1.02608 0.0
H313 H 0.39528 0.19116 1.01471 0.0
O314 O 0.32177 0.1325 0.10532 0.0
C315 C 0.40139 0.19651 0.1067 0.0
O316 O 0.42873 0.18142 0.08802 0.0
N317 N 0.37121 0.09263 0.05512 0.0
C318 C 0.42233 0.03988 1.04173 0.0
C319 C 0.39637 0.03556 0.0729 0.0
C320 C 0.37027 0.0621 0.07857 0.0
C321 C 0.39181 0.0936 1.02019 0.0
C322 C 0.41762 0.06755 1.01298 0.0
H323 H 0.35434 0.06118 0.1065 0.0
H324 H 0.39317 0.11734 1.00131 0.0
H325 H 0.35399 0.132 0.17866 0.0
H326 H 0.45824 0.08963 0.18266 0.0
H327 H 0.29269 0.18631 0.96162 0.0
H328 H 0.39844 0.01397 0.09521 0.0
H329 H 0.43663 0.07195 0.98817 0.0
C330 C 0.90166 0.93033 0.39041 0.0
C331 C 0.91029 0.93717 0.43109 0.0
N332 N 0.90123 0.90843 0.45427 0.0
N333 N 0.88766 0.89714 0.38729 0.0
C334 C 0.88736 0.88457 0.42684 0.0
H335 H 0.90454 0.94876 0.36474 0.0
Co336 Co 0.8669 0.87801 0.33823 0.0
C337 C 0.89029 0.80113 0.36408 0.0
O338 O 0.92035 0.79851 0.34324 0.0
N339 N 0.84368 0.86016 0.29013 0.0
C340 C 0.82161 0.8276 0.23816 0.0
C341 C 0.84496 0.82785 0.27149 0.0
C342 C 0.8195 0.87901 0.26746 0.0
N343 N 0.80569 0.85995 0.23552 0.0
O344 O 0.8236 0.88024 0.36385 0.0
H345 H 0.86162 0.8058 0.28139 0.0
H346 H 0.81197 0.9063 0.27452 0.0
O347 O 0.87149 0.82958 0.36133 0.0
C348 C 0.81125 0.91157 0.36846 0.0
O349 O 0.82585 0.93863 0.34859 0.0
N350 N 0.91189 0.87938 0.3112 0.0
C351 C 0.96514 0.93003 0.29596 0.0
C352 C 0.96989 0.90378 0.32682 0.0
C353 C 0.94308 0.87792 0.33339 0.0
C354 C 0.91032 0.90022 0.27642 0.0
C355 C 0.93653 0.92579 0.26836 0.0
H356 H 0.94464 0.86167 0.36107 0.0
H357 H 0.88619 0.90202 0.25834 0.0
H358 H 0.87644 0.85875 0.43547 0.0
H359 H 0.92121 0.96206 0.44279 0.0
H360 H 0.81706 0.80542 0.21721 0.0
H361 H 0.99221 0.90532 0.34819 0.0
H362 H 0.93164 0.94494 0.2438 0.0
C363 C 0.07218 0.40032 0.63986 0.0
C364 C 0.06591 0.40712 0.6811 0.0
N365 N 0.09563 0.39897 0.70298 0.0
N366 N 0.10592 0.38828 0.63515 0.0
C367 C 0.11944 0.38734 0.67424 0.0
H368 H 0.05316 0.4034 0.61482 0.0
Co369 Co 0.12535 0.37182 0.58439 0.0
C370 C 0.20119 0.39841 0.61011 0.0
O371 O 0.20201 0.42911 0.59022 0.0
N372 N 0.14367 0.35264 0.53434 0.0
C373 C 0.17687 0.33286 0.48184 0.0
C374 C 0.17584 0.35562 0.51568 0.0
C375 C 0.12569 0.32818 0.51111 0.0
N376 N 0.14516 0.31563 0.47895 0.0
O377 O 0.12606 0.32672 0.60576 0.0
H378 H 0.19748 0.37255 0.52632 0.0
H379 H 0.09892 0.31904 0.51839 0.0
O380 O 0.17372 0.37811 0.60712 0.0
C381 C 0.09627 0.31055 0.60793 0.0
O382 O 0.06677 0.32642 0.59551 0.0
N383 N 0.121 0.41815 0.5612 0.0
C384 C 0.06972 0.47119 0.54826 0.0
C385 C 0.09559 0.475 0.57973 0.0
C386 C 0.12165 0.4483 0.58526 0.0
C387 C 0.10003 0.4174 0.52652 0.0
C388 C 0.0743 0.44353 0.51952 0.0
H389 H 0.13784 0.44903 0.61304 0.0
H390 H 0.09848 0.39385 0.5074 0.0
H391 H 0.14609 0.37792 0.68152 0.0
H392 H 0.04085 0.4164 0.69396 0.0
H393 H 0.19931 0.32922 0.46107 0.0
H394 H 0.09376 0.49653 0.60209 0.0
H395 H 0.05534 0.43919 0.49462 0.0
C396 C 0.61307 0.93871 0.45157 0.0
C397 C 0.60522 0.94589 0.41076 0.0
N398 N 0.61353 0.91691 0.38772 0.0
N399 N 0.62596 0.90513 0.45488 0.0
C400 C 0.62636 0.89265 0.41533 0.0
H401 H 0.6098 0.95692 0.47735 0.0
Co402 Co 0.64274 0.88444 0.50507 0.0
C403 C 0.621 0.80844 0.47532 0.0
O404 O 0.59054 0.8055 0.49534 0.0
N405 N 0.66217 0.86496 0.55457 0.0
C406 C 0.68296 0.83014 0.60526 0.0
C407 C 0.66027 0.8319 0.57138 0.0
C408 C 0.68584 0.88277 0.57907 0.0
N409 N 0.69908 0.86227 0.61009 0.0
O410 O 0.68821 0.88797 0.4852 0.0
H411 H 0.64423 0.81014 0.55935 0.0
H412 H 0.69411 0.91012 0.57338 0.0
O413 O 0.64002 0.83673 0.47942 0.0
C414 C 0.70228 0.91891 0.48597 0.0
O415 O 0.68407 0.94651 0.49976 0.0
N416 N 0.5958 0.88468 0.52702 0.0
C417 C 0.54235 0.93563 0.53822 0.0
C418 C 0.53967 0.91023 0.50611 0.0
C419 C 0.56651 0.8842 0.50154 0.0
C420 C 0.59483 0.90445 0.56259 0.0
C421 C 0.56855 0.93022 0.56862 0.0
H422 H 0.56693 0.86864 0.47331 0.0
H423 H 0.61744 0.90539 0.58326 0.0
H424 H 0.63591 0.8663 0.40692 0.0
H425 H 0.59487 0.97097 0.39898 0.0
H426 H 0.68742 0.80687 0.62461 0.0
H427 H 0.51914 0.91255 0.48256 0.0
H428 H 0.57182 0.94863 0.59426 0.0
C429 C 0.08496 0.10505 0.69641 0.0
C430 C 0.07668 0.0976 0.65578 0.0
N431 N 0.10483 0.10673 0.6318 0.0
N432 N 0.1185 0.11832 0.69859 0.0
C433 C 0.12978 0.11945 0.65862 0.0
H434 H 0.06732 0.10186 0.72272 0.0
Co435 Co 0.13982 0.1373 0.74718 0.0
C436 C 0.21511 0.11223 0.71741 0.0
O437 O 0.21788 0.08155 0.73711 0.0
N438 N 0.15984 0.15881 0.79499 0.0
C439 C 0.19449 0.1799 0.84567 0.0
C440 C 0.19276 0.15691 0.81209 0.0
C441 C 0.14215 0.18295 0.81878 0.0
N442 N 0.16247 0.19615 0.84995 0.0
O443 O 0.13857 0.18124 0.72281 0.0
H444 H 0.21426 0.14023 0.80081 0.0
H445 H 0.11479 0.19101 0.81295 0.0
O446 O 0.18721 0.1315 0.72211 0.0
C447 C 0.10784 0.19524 0.71972 0.0
O448 O 0.08047 0.18075 0.73912 0.0
N449 N 0.13764 0.09186 0.77305 0.0
C450 C 0.08609 0.03954 0.78845 0.0
C451 C 0.11162 0.03468 0.75689 0.0
C452 C 0.1379 0.06103 0.75017 0.0
C453 C 0.11751 0.09338 0.80831 0.0
C454 C 0.0915 0.06765 0.81645 0.0
H455 H 0.15349 0.05961 0.72203 0.0
H456 H 0.11663 0.1173 0.82683 0.0
H457 H 0.1555 0.13012 0.64932 0.0
H458 H 0.05125 0.08744 0.64472 0.0
H459 H 0.21746 0.1841 0.86557 0.0
H460 H 0.10917 0.01272 0.73516 0.0
H461 H 0.07294 0.07264 0.84152 0.0
C462 C 0.89983 0.57855 0.94342 0.0
C463 C 0.903 0.57212 0.90156 0.0
N464 N 0.8989 0.60339 0.88135 0.0
N465 N 0.89349 0.61373 0.94967 0.0
C466 C 0.89321 0.62823 0.91109 0.0
H467 H 0.9006 0.55862 0.96776 0.0
Co468 Co 0.87962 0.63366 1.00107 0.0
C469 C 0.91121 0.70842 0.97463 0.0
O470 O 0.94335 0.70847 0.9912 0.0
N471 N 0.86354 0.65271 0.05224 0.0
C472 C 0.85824 0.67814 0.11443 0.0
C473 C 0.87836 0.67676 0.07838 0.0
C474 C 0.8344 0.6403 0.07286 0.0
N475 N 0.83048 0.65519 0.11068 0.0
O476 O 0.83471 0.6398 0.97998 0.0
H477 H 0.9029 0.69129 0.07234 0.0
H478 H 0.81719 0.61925 0.06133 0.0
O479 O 0.89064 0.68144 0.97981 0.0
C480 C 0.81701 0.61088 0.97801 0.0
O481 O 0.83064 0.58125 0.99338 0.0
N482 N 0.92498 0.62353 1.02326 0.0
C483 C 0.97615 0.57051 1.03708 0.0
C484 C 0.98147 0.59671 1.00624 0.0
C485 C 0.95559 0.62351 1.00012 0.0
C486 C 0.92175 0.60084 0.05626 0.0
C487 C 0.94711 0.57454 0.06397 0.0
H488 H 0.95766 0.6405 0.97307 0.0
H489 H 0.89701 0.59909 0.07334 0.0
H490 H 0.88694 0.65598 0.90464 0.0
H491 H 0.90731 0.54637 0.88698 0.0
H492 H 0.86377 0.69449 0.14138 0.0
H493 H 1.00381 0.59483 0.98501 0.0
H494 H 0.94144 0.5549 0.08781 0.0
C495 C 0.44546 0.40325 0.18518 0.0
C496 C 0.45103 0.40998 0.14372 0.0
N497 N 0.42062 0.40252 0.12277 0.0
N498 N 0.41148 0.39208 0.19085 0.0
C499 C 0.39715 0.39146 0.15216 0.0
H500 H 0.46509 0.40582 0.20967 0.0
Co501 Co 0.39177 0.37594 0.24166 0.0
C502 C 0.31724 0.40599 0.21368 0.0
O503 O 0.31787 0.43857 0.229 0.0
N504 N 0.37274 0.35709 0.29155 0.0
C505 C 0.33882 0.33907 0.34437 0.0
C506 C 0.34085 0.36166 0.31039 0.0
C507 C 0.38952 0.33177 0.31471 0.0
N508 N 0.36961 0.32037 0.34714 0.0
O509 O 0.38797 0.33142 0.21946 0.0
H510 H 0.32016 0.37973 0.29986 0.0
H511 H 0.41579 0.32142 0.30737 0.0
O512 O 0.34376 0.38505 0.21966 0.0
C513 C 0.41662 0.31359 0.21637 0.0
O514 O 0.44717 0.32742 0.22885 0.0
N515 N 0.39928 0.42161 0.26578 0.0
C516 C 0.45228 0.47259 0.28218 0.0
C517 C 0.4274 0.47801 0.24995 0.0
C518 C 0.40046 0.45235 0.24269 0.0
C519 C 0.41977 0.41906 0.30075 0.0
C520 C 0.44619 0.44414 0.30951 0.0
H521 H 0.3848 0.45448 0.21462 0.0
H522 H 0.4202 0.39497 0.31901 0.0
H523 H 0.37013 0.38265 0.1456 0.0
H524 H 0.47599 0.41875 0.13003 0.0
H525 H 0.31641 0.33668 0.36545 0.0
H526 H 0.43049 0.50014 0.22853 0.0
H527 H 0.46441 0.43846 0.33478 0.0
C528 C 0.086 0.07723 0.52228 0.0
C529 C 0.10834 0.09981 0.49874 0.0
H530 H 0.06785 0.06121 0.58223 0.0
C531 C 0.12985 0.12488 0.52001 0.0
H532 H 0.06872 0.05788 0.50729 0.0
C533 C 0.12912 0.12701 0.56356 0.0
C534 C 0.10667 0.10432 0.58694 0.0
H535 H 0.14762 0.14254 0.5031 0.0
H536 H 0.14578 0.14677 0.57881 0.0
C537 C 0.08521 0.07942 0.56554 0.0
C538 C 0.87554 0.58747 0.81209 0.0
C539 C 0.89843 0.60826 0.83704 0.0
H540 H 0.85912 0.57381 0.7501 0.0
C541 C 0.92229 0.63221 0.81791 0.0
H542 H 0.85694 0.56885 0.82625 0.0
C543 C 0.92427 0.63421 0.77454 0.0
C544 C 0.9016 0.61317 0.74958 0.0
H545 H 0.94027 0.64831 0.83657 0.0
H546 H 0.94361 0.65206 0.76035 0.0
C547 C 0.8767 0.59035 0.76875 0.0
C548 C 0.38925 0.38447 0.05758 0.0
C549 C 0.41511 0.40543 0.07832 0.0
H550 H 0.36445 0.37081 0.99955 0.0
C551 C 0.43604 0.42919 0.05461 0.0
H552 H 0.37281 0.36564 0.0746 0.0
C553 C 0.4314 0.43199 1.01169 0.0
C554 C 0.40565 0.4111 0.99081 0.0
H555 H 0.45594 0.44607 0.06926 0.0
H556 H 0.44838 0.45041 0.99481 0.0
C557 C 0.3847 0.38715 1.01437 0.0
C558 C 0.58419 0.93463 0.32177 0.0
C559 C 0.60924 0.91333 0.34312 0.0
H560 H 0.56065 0.94919 0.26384 0.0
C561 C 0.63005 0.88911 0.31987 0.0
H562 H 0.5673 0.95327 0.33831 0.0
C563 C 0.62595 0.88652 0.27655 0.0
C564 C 0.60073 0.90788 0.2554 0.0
H565 H 0.64979 0.87243 0.335 0.0
H566 H 0.64218 0.86742 0.25979 0.0
C567 C 0.58005 0.93198 0.27879 0.0
C568 C 0.07819 0.42498 0.77078 0.0
C569 C 0.10003 0.40171 0.74764 0.0
H570 H 0.06375 0.44542 0.8302 0.0
C571 C 0.12556 0.38103 0.76922 0.0
H572 H 0.05855 0.44174 0.7556 0.0
C573 C 0.12885 0.38348 0.81262 0.0
C574 C 0.10684 0.40682 0.83559 0.0
H575 H 0.14273 0.36262 0.75271 0.0
H576 H 0.14894 0.36742 0.82804 0.0
C577 C 0.08148 0.42743 0.81387 0.0
C578 C 0.62959 0.62929 1.02842 0.0
C579 C 0.60694 0.60509 1.00734 0.0
H580 H 0.64702 0.65049 0.0869 0.0
C581 C 0.58401 0.58338 1.03122 0.0
H582 H 0.64785 0.64634 1.0114 0.0
C583 C 0.58382 0.58547 0.07452 0.0
C584 C 0.6064 0.60953 0.09576 0.0
H585 H 0.5658 0.56473 1.01654 0.0
H586 H 0.56603 0.56777 0.09129 0.0
C587 C 0.62938 0.63142 0.07199 0.0
C588 C 0.42562 0.08159 0.30584 0.0
C589 C 0.40327 0.10411 0.32927 0.0
H590 H 0.44309 0.06484 0.24599 0.0
C591 C 0.38101 0.12834 0.30782 0.0
H592 H 0.44346 0.06287 0.32094 0.0
C593 C 0.38107 0.12976 0.26421 0.0
C594 C 0.40354 0.10712 0.24093 0.0
H595 H 0.36318 0.14591 0.32462 0.0
H596 H 0.36386 0.1489 0.24883 0.0
C597 C 0.4257 0.08302 0.26253 0.0
C598 C 0.88249 0.88241 0.52242 0.0
C599 C 0.90482 0.90522 0.49899 0.0
H600 H 0.86832 0.86252 0.58281 0.0
C601 C 0.93053 0.92578 0.52031 0.0
H602 H 0.86214 0.8664 0.50729 0.0
C603 C 0.93382 0.92385 0.56344 0.0
C604 C 0.91163 0.90117 0.58706 0.0
H605 H 0.94853 0.94336 0.50363 0.0
H606 H 0.95375 0.94057 0.57827 0.0
C607 C 0.88576 0.88051 0.5659 0.0
C608 C 0.24026 0.0982 0.15346 0.0
C609 C 0.26507 0.12359 0.1386 0.0
H610 H 0.196 0.08746 0.19416 0.0
C611 C 0.2629 0.15893 0.15373 0.0
H612 H 0.24117 0.07073 0.14273 0.0
C613 C 0.2366 0.16862 0.18274 0.0
C614 C 0.21225 0.14306 0.19816 0.0
H615 H 0.28156 0.17922 0.14311 0.0
H616 H 0.23584 0.19597 0.19387 0.0
C617 C 0.21447 0.10772 0.18315 0.0
C618 C 0.83336 0.74369 0.4369 0.0
C619 C 0.85825 0.71839 0.45158 0.0
H620 H 0.82393 0.78974 0.39846 0.0
C621 C 0.89352 0.71999 0.43629 0.0
H622 H 0.80609 0.74344 0.44823 0.0
C623 C 0.90366 0.74616 0.40721 0.0
C624 C 0.879 0.77196 0.39318 0.0
H625 H 0.91329 0.70079 0.44668 0.0
H626 H 0.93109 0.74659 0.39636 0.0
C627 C 0.84368 0.77033 0.40845 0.0
C628 C 0.28388 0.4038 0.67985 0.0
C629 C 0.28657 0.36856 0.69516 0.0
H630 H 0.25554 0.44072 0.64071 0.0
C631 C 0.26144 0.34305 0.68132 0.0
H632 H 0.30289 0.42406 0.68957 0.0
C633 C 0.23401 0.35267 0.65364 0.0
C634 C 0.23125 0.38795 0.63837 0.0
H635 H 0.26242 0.31578 0.6927 0.0
H636 H 0.21484 0.33239 0.64429 0.0
C637 C 0.25681 0.41329 0.65159 0.0
C638 C 0.63207 0.80143 0.91252 0.0
C639 C 0.63199 0.79381 0.95529 0.0
H640 H 0.62288 0.78177 0.85071 0.0
C641 C 0.6219 0.75916 0.96806 0.0
H642 H 0.63928 0.82791 0.9016 0.0
C643 C 0.613 0.73265 0.93887 0.0
C644 C 0.61322 0.74025 0.89617 0.0
H645 H 0.6215 0.75237 1.00067 0.0
H646 H 0.60541 0.70631 0.94979 0.0
C647 C 0.62237 0.77511 0.88337 0.0
C648 C 0.25709 0.34736 0.14575 0.0
C649 C 0.23364 0.37251 0.12784 0.0
H650 H 0.3017 0.33804 0.1863 0.0
C651 C 0.23732 0.40872 0.13944 0.0
H652 H 0.2553 0.31933 0.13737 0.0
C653 C 0.2637 0.41946 0.16804 0.0
C654 C 0.28756 0.39438 0.18539 0.0
H655 H 0.21956 0.42878 0.12665 0.0
H656 H 0.26579 0.44758 0.17595 0.0
C657 C 0.28382 0.35816 0.1738 0.0
C658 C 0.60913 0.75229 0.43345 0.0
C659 C 0.63285 0.77955 0.44622 0.0
H660 H 0.60094 0.70559 0.39567 0.0
C661 C 0.66784 0.77944 0.42996 0.0
H662 H 0.58196 0.75149 0.4451 0.0
C663 C 0.6788 0.7529 0.40187 0.0
C664 C 0.65495 0.72592 0.38866 0.0
H665 H 0.68689 0.79997 0.43889 0.0
H666 H 0.7058 0.75398 0.38981 0.0
C667 C 0.61994 0.72604 0.40485 0.0
C668 C 0.24524 0.15958 0.67348 0.0
C669 C 0.24338 0.1238 0.68738 0.0
H670 H 0.27165 0.19794 0.6342 0.0
C671 C 0.26806 0.09905 0.67117 0.0
H672 H 0.22667 0.17941 0.68515 0.0
C673 C 0.29343 0.10961 0.64139 0.0
C674 C 0.29533 0.14537 0.62758 0.0
H675 H 0.26739 0.07128 0.68091 0.0
H676 H 0.31184 0.08981 0.62939 0.0
C677 C 0.27111 0.17029 0.64434 0.0
C678 C 0.92496 0.76185 0.92882 0.0
C679 C 0.89979 0.73796 0.94604 0.0
H680 H 0.93455 0.80578 0.88714 0.0
C681 C 0.86364 0.74161 0.93415 0.0
H682 H 0.95302 0.75984 0.93698 0.0
C683 C 0.85301 0.76827 0.9059 0.0
C684 C 0.87829 0.79165 0.88803 0.0
H685 H 0.84345 0.72371 0.94658 0.0
H686 H 0.82506 0.77 0.89724 0.0
C687 C 0.91441 0.78808 0.89996 0.0
C688 C 0.72017 0.60669 0.69731 0.0
C689 C 0.71752 0.64293 0.7091 0.0
H690 H 0.74646 0.56755 0.65927 0.0
C691 C 0.74066 0.66781 0.69008 0.0
H692 H 0.7026 0.58684 0.71097 0.0
C693 C 0.76609 0.65672 0.66069 0.0
C694 C 0.76871 0.62048 0.6488 0.0
H695 H 0.73961 0.69585 0.69856 0.0
H696 H 0.7838 0.67663 0.64731 0.0
C697 C 0.74517 0.59568 0.66735 0.0
C698 C 0.39442 0.22576 0.9331 0.0
C699 C 0.3588 0.22404 0.94724 0.0
H700 H 0.43283 0.2524 0.8943 0.0
C701 C 0.3342 0.24927 0.93173 0.0
H702 H 0.414 0.20661 0.94408 0.0
C703 C 0.34509 0.27585 0.90349 0.0
C704 C 0.38073 0.27756 0.88932 0.0
H705 H 0.30666 0.24897 0.94214 0.0
H706 H 0.32549 0.29512 0.89275 0.0
C707 C 0.40516 0.25192 0.9043 0.0
C708 C 0.75451 0.84729 0.18822 0.0
C709 C 0.77942 0.87161 0.20512 0.0
H710 H 0.7097 0.8392 0.14755 0.0
C711 C 0.77814 0.90752 0.19173 0.0
H712 H 0.75448 0.81953 0.198 0.0
C713 C 0.75275 0.91876 0.16223 0.0
C714 C 0.72746 0.89455 0.14581 0.0
H715 H 0.79707 0.9269 0.20376 0.0
H716 H 0.75256 0.94663 0.15283 0.0
C717 C 0.72872 0.85865 0.15932 0.0
C718 C 0.14974 0.2373 0.40496 0.0
C719 C 0.1138 0.23367 0.3922 0.0
H720 H 0.18787 0.26617 0.44205 0.0
C721 C 0.08854 0.25802 0.40806 0.0
H722 H 0.16999 0.21906 0.39355 0.0
C723 C 0.09879 0.28478 0.4364 0.0
C724 C 0.1347 0.28838 0.44914 0.0
H725 H 0.06063 0.25605 0.39917 0.0
H726 H 0.07859 0.30288 0.44814 0.0
C727 C 0.16008 0.26445 0.4327 0.0
C728 C 0.7295 0.9076 0.65457 0.0
C729 C 0.72633 0.87209 0.64022 0.0
H730 H 0.75807 0.94491 0.69309 0.0
C731 C 0.75081 0.84653 0.65526 0.0
H732 H 0.711 0.92793 0.64395 0.0
C733 C 0.77806 0.85631 0.68315 0.0
C734 C 0.78132 0.89185 0.69743 0.0
H735 H 0.74948 0.81905 0.64466 0.0
H736 H 0.79674 0.83595 0.69337 0.0
C737 C 0.7564 0.91728 0.68301 0.0
C738 C 0.10686 0.24925 0.92587 0.0
C739 C 0.1316 0.27484 0.94044 0.0
H740 H 0.09715 0.20452 0.88546 0.0
C741 C 0.16686 0.27366 0.92498 0.0
H742 H 0.07946 0.2494 0.93682 0.0
C743 C 0.17709 0.2476 0.89594 0.0
C744 C 0.15218 0.22244 0.88082 0.0
H745 H 0.18665 0.29295 0.93533 0.0
H746 H 0.20435 0.24763 0.88458 0.0
C747 C 0.11692 0.22365 0.89617 0.0
C748 C 0.81122 0.6439 0.18336 0.0
C749 C 0.80305 0.64668 0.14089 0.0
H750 H 0.79181 0.63203 0.24466 0.0
C751 C 0.76765 0.6399 0.12813 0.0
H752 H 0.8383 0.6486 0.19411 0.0
C753 C 0.74101 0.63106 0.15704 0.0
C754 C 0.74918 0.6279 0.19941 0.0
H755 H 0.76049 0.64181 0.09569 0.0
H756 H 0.71417 0.62595 0.14601 0.0
C757 C 0.78469 0.63412 0.21221 0.0
C758 C 0.41468 0.28908 0.3909 0.0
C759 C 0.37903 0.29322 0.37749 0.0
H760 H 0.45164 0.26012 0.42937 0.0
C761 C 0.35286 0.27005 0.39393 0.0
H762 H 0.43544 0.30662 0.37914 0.0
C763 C 0.36218 0.24304 0.42232 0.0
C764 C 0.39785 0.23889 0.4358 0.0
H765 H 0.32523 0.27227 0.38407 0.0
H766 H 0.34137 0.22534 0.4337 0.0
C767 C 0.4239 0.26254 0.41995 0.0
C768 C 0.00684 0.01776 0.26003 0.0
C769 C 0.01478 0.0349 0.29779 0.0
H770 H 0.98714 0.97081 0.22965 0.0
C771 C 0.00766 0.01642 0.33491 0.0
H772 H 0.01183 0.03108 0.23078 0.0
C773 C 0.99297 0.98184 0.33427 0.0
C774 C 0.98527 0.96465 0.29646 0.0
H775 H 0.01415 0.0283 0.36459 0.0
H776 H 0.98688 0.96897 0.36351 0.0
C777 C 0.99262 0.98308 0.25938 0.0
C778 C 0.01771 0.49846 0.58654 0.0
C779 C 0.03518 0.49131 0.54881 0.0
H780 H 0.97105 0.51895 0.61669 0.0
C781 C 0.01705 0.49914 0.51166 0.0
H782 H 0.03035 0.49207 0.61582 0.0
C783 C 0.98228 0.51291 0.51215 0.0
C784 C 0.96481 0.52023 0.54981 0.0
H785 H 0.02955 0.49424 0.48196 0.0
H786 H 0.96917 0.51793 0.48279 0.0
C787 C 0.98312 0.51291 0.58703 0.0
C788 C 0.49823 0.48792 0.76099 0.0
C789 C 0.48862 0.47019 0.79783 0.0
H790 H 0.51885 0.53548 0.73277 0.0
C791 C 0.49308 0.48851 0.83564 0.0
H792 H 0.4953 0.47483 0.73125 0.0
C793 C 0.50723 0.52333 0.83656 0.0
C794 C 0.51698 0.54091 0.79966 0.0
H795 H 0.48511 0.47622 0.86461 0.0
H796 H 0.5115 0.53602 0.86632 0.0
C797 C 0.5118 0.52284 0.76186 0.0
C798 C 0.47504 0.01562 0.08115 0.0
C799 C 0.4572 0.02056 0.04313 0.0
H800 H 0.52203 0.99668 0.11228 0.0
C801 C 0.47502 0.01109 1.00639 0.0
H802 H 0.46259 0.02354 0.11001 0.0
C803 C 0.50961 0.99686 1.00763 0.0
C804 C 0.52725 0.99143 0.04566 0.0
H805 H 0.46222 0.01467 0.97656 0.0
H806 H 0.52239 0.98959 0.97873 0.0
C807 C 0.5096 1.00119 0.0824 0.0
C808 C 0.01868 0.48442 0.07605 0.0
C809 C 0.02647 0.46637 1.03891 0.0
H810 H 0.99858 0.53194 0.1047 0.0
C811 C 0.01909 0.48373 1.00113 0.0
H812 H 0.02407 0.47198 0.10573 0.0
C813 C 1.00421 0.51814 1.00053 0.0
C814 C 0.9965 0.53618 1.0377 0.0
H815 H 0.02558 0.47111 0.97189 0.0
H816 H 0.99798 0.53023 0.97088 0.0
C817 C 1.00413 0.5189 0.07545 0.0
C818 C 0.50617 0.50052 0.24781 0.0
C819 C 0.48718 0.4922 0.28422 0.0
H820 H 0.5542 0.52178 0.2211 0.0
C821 C 0.50399 0.49847 0.32261 0.0
H822 H 0.49455 0.49539 0.21764 0.0
C823 C 0.53888 0.51193 0.32457 0.0
C824 C 0.55784 0.52051 0.28823 0.0
H825 H 0.49028 0.49268 0.35139 0.0
H826 H 0.55087 0.51589 0.35477 0.0
C827 C 0.54094 0.51467 0.24979 0.0
C828 C 0.51348 0.98837 0.57365 0.0
C829 C 0.52274 0.97048 0.53684 0.0
H830 H 0.49339 0.03604 0.60176 0.0
C831 C 0.51736 0.98836 0.49891 0.0
H832 H 0.51704 0.9756 0.6035 0.0
C833 C 0.50296 0.02299 0.49786 0.0
C834 C 0.49394 0.04092 0.53474 0.0
H835 H 0.52497 0.97595 0.46991 0.0
H836 H 0.49816 0.03532 0.46799 0.0
C837 C 0.49975 0.02317 0.57264 0.0
C838 C 0.03313 0.01287 0.82585 0.0
C839 C 0.05109 0.02012 0.78846 0.0
H840 H 0.98536 0.9942 0.85524 0.0
C841 C 0.0332 0.01294 0.75094 0.0
H842 H 0.04593 0.01795 0.85538 0.0
C843 C 0.99847 0.99868 0.75087 0.0
C844 C 0.98051 0.99155 0.7883 0.0
H845 H 0.04568 0.01901 0.72149 0.0
H846 H 0.98608 0.99245 0.72139 0.0
C847 C 0.99827 0.99917 0.82576 0.0
C848 C 0.27345 0.13828 0.41848 0.0
C849 C 0.28571 0.10673 0.43729 0.0
H850 H 0.2356 0.16194 0.37766 0.0
C851 C 0.26954 0.07376 0.42789 0.0
H852 H 0.28574 0.16405 0.42478 0.0
C853 C 0.24081 0.07256 0.40048 0.0
C854 C 0.22813 0.10436 0.38264 0.0
H855 H 0.27892 0.04905 0.44174 0.0
H856 H 0.22791 0.04709 0.39435 0.0
C857 C 0.24493 0.13708 0.39129 0.0
C858 C 0.87494 0.73462 0.66706 0.0
C859 C 0.90381 0.72601 0.64119 0.0
H860 H 0.85576 0.76772 0.71568 0.0
C861 C 0.93696 0.74316 0.64642 0.0
H862 H 0.84924 0.72128 0.66435 0.0
C863 C 0.94072 0.76974 0.6763 0.0
C864 C 0.91128 0.77914 0.70082 0.0
H865 H 0.95971 0.73645 0.62715 0.0
H866 H 0.96595 0.78395 0.67887 0.0
C867 C 0.87872 0.76087 0.69677 0.0
C868 C 0.22702 0.39199 0.89912 0.0
C869 C 0.22583 0.41792 0.93053 0.0
H870 H 0.25519 0.37237 0.84657 0.0
C871 C 0.24853 0.44783 0.92903 0.0
H872 H 0.20882 0.36933 0.89878 0.0
C873 C 0.27486 0.44973 0.89858 0.0
C874 C 0.27809 0.42175 0.8699 0.0
H875 H 0.24736 0.4684 0.95265 0.0
H876 H 0.29438 0.47123 0.89968 0.0
C877 C 0.25303 0.39395 0.86891 0.0
C878 C 0.6318 0.78297 0.18035 0.0
C879 C 0.60103 0.7873 0.15591 0.0
H880 H 0.65806 0.75167 0.22628 0.0
C881 C 0.57104 0.76532 0.16227 0.0
H882 H 0.65494 0.80028 0.17694 0.0
C883 C 0.57278 0.73764 0.19108 0.0
C884 C 0.60453 0.73207 0.21331 0.0
H885 H 0.54686 0.76872 0.14412 0.0
H886 H 0.55028 0.71945 0.19412 0.0
C887 C 0.6335 0.75551 0.2089 0.0
C888 C 0.7395 0.64228 0.91537 0.0
C889 C 0.72602 0.60974 0.9002 0.0
H890 H 0.77862 0.66793 0.95295 0.0
C891 C 0.74156 0.57723 0.91234 0.0
H892 H 0.72779 0.66774 0.90667 0.0
C893 C 0.77063 0.57736 0.93922 0.0
C894 C 0.78433 0.61001 0.95378 0.0
H895 H 0.73127 0.55182 0.90125 0.0
H896 H 0.78282 0.55208 0.94774 0.0
C897 C 0.76843 0.6424 0.94202 0.0
C898 C 0.44011 0.24253 0.13987 0.0
C899 C 0.40685 0.22525 0.13636 0.0
H900 H 0.46963 0.28461 0.16942 0.0
C901 C 0.37862 0.23456 0.16285 0.0
H902 H 0.46236 0.23529 0.12009 0.0
C903 C 0.38294 0.26194 0.19106 0.0
C904 C 0.41545 0.28053 0.19307 0.0
H905 H 0.35292 0.22105 0.16156 0.0
H906 H 0.3604 0.26944 0.21031 0.0
C907 C 0.44443 0.27021 0.16831 0.0
C908 C 0.78614 0.8931 0.43534 0.0
C909 C 0.78691 0.91787 0.40263 0.0
H910 H 0.75862 0.87531 0.48929 0.0
C911 C 0.76433 0.9478 0.40308 0.0
H912 H 0.80428 0.87048 0.43643 0.0
C913 C 0.7384 0.95073 0.43386 0.0
C914 C 0.73549 0.92377 0.46392 0.0
H915 H 0.76522 0.9675 0.37843 0.0
H916 H 0.71884 0.97208 0.43198 0.0
C917 C 0.76056 0.89612 0.46591 0.0
C918 C 0.0706 0.24264 0.68708 0.0
C919 C 0.10236 0.22269 0.68846 0.0
H920 H 0.04338 0.28685 0.65885 0.0
C921 C 0.1292 0.22842 0.6588 0.0
H922 H 0.04936 0.23807 0.70931 0.0
C923 C 0.12554 0.25548 0.63001 0.0
C924 C 0.0951 0.27718 0.63056 0.0
H925 H 0.15349 0.21258 0.65832 0.0
H926 H 0.14731 0.26059 0.60859 0.0
C927 C 0.06696 0.26999 0.65803 0.0
loop_
_geom_bond_atom_site_label_1
_geom_bond_atom_site_label_2
_geom_bond_distance
_geom_bond_site_symmetry_2
_ccdc_geom_bond_type
C0 C1 1.351 . S
C0 N3 1.368 . S
C0 H5 0.931 . S
C1 C0 1.351 . S
C1 N2 1.373 . S
C1 H29 0.930 . S
N2 C1 1.373 . S
N2 C4 1.340 . S
N3 C0 1.368 . S
N3 C4 1.321 . S
N3 Co6 2.135 . S
C4 N2 1.340 . S
C4 N3 1.321 . S
C4 H28 0.930 . S
H5 C0 0.931 . S
Co6 N3 2.135 . S
Co6 N9 2.121 . S
Co6 O14 2.055 . S
Co6 O17 2.039 . S
Co6 N20 2.140 . S
C7 O8 1.227 . S
C7 O17 1.265 . S
O8 C7 1.227 . S
N9 Co6 2.121 . S
N9 C11 1.375 . S
N9 C12 1.313 . S
C10 C11 1.338 . S
C10 N13 1.377 . S
C10 H30 0.930 . S
C11 N9 1.375 . S
C11 C10 1.338 . S
C11 H15 0.931 . S
C12 N9 1.313 . S
C12 N13 1.344 . S
C12 H16 0.930 . S
N13 C10 1.377 . S
N13 C12 1.344 . S
O14 Co6 2.055 . S
O14 C18 1.253 . S
H15 C11 0.931 . S
H16 C12 0.930 . S
O17 Co6 2.039 . S
O17 C7 1.265 . S
C18 O14 1.253 . S
C18 O19 1.227 . S
O19 C18 1.227 . S
N20 Co6 2.140 . S
N20 C23 1.346 . S
N20 C24 1.345 . S
C21 C22 1.387 . S
C21 C25 1.391 . S
C22 C21 1.387 . S
C22 C23 1.369 . S
C22 H31 0.929 . S
C23 N20 1.346 . S
C23 C22 1.369 . S
C23 H26 0.928 . S
C24 N20 1.345 . S
C24 C25 1.371 . S
C24 H27 0.931 . S
C25 C21 1.391 . S
C25 C24 1.371 . S
C25 H32 0.930 . S
H26 C23 0.928 . S
H27 C24 0.931 . S
H28 C4 0.930 . S
H29 C1 0.930 . S
H30 C10 0.930 . S
H31 C22 0.929 . S
H32 C25 0.930 . S
C33 C34 1.351 . S
C33 N36 1.368 . S
C33 H38 0.931 . S
C34 C33 1.351 . S
C34 N35 1.373 . S
C34 H62 0.930 . S
N35 C34 1.373 . S
N35 C37 1.340 . S
N36 C33 1.368 . S
N36 C37 1.321 . S
N36 Co39 2.135 . S
C37 N35 1.340 . S
C37 N36 1.321 . S
C37 H61 0.930 . S
H38 C33 0.931 . S
Co39 N36 2.135 . S
Co39 N42 2.121 . S
Co39 O47 2.055 . S
Co39 O50 2.039 . S
Co39 N53 2.140 . S
C40 O41 1.227 . S
C40 O50 1.265 . S
O41 C40 1.227 . S
N42 Co39 2.121 . S
N42 C44 1.375 . S
N42 C45 1.313 . S
C43 C44 1.338 . S
C43 N46 1.377 . S
C43 H63 0.930 . S
C44 N42 1.375 . S
C44 C43 1.338 . S
C44 H48 0.931 . S
C45 N42 1.313 . S
C45 N46 1.344 . S
C45 H49 0.930 . S
N46 C43 1.377 . S
N46 C45 1.344 . S
O47 Co39 2.055 . S
O47 C51 1.253 . S
H48 C44 0.931 . S
H49 C45 0.930 . S
O50 Co39 2.039 . S
O50 C40 1.265 . S
C51 O47 1.253 . S
C51 O52 1.227 . S
O52 C51 1.227 . S
N53 Co39 2.140 . S
N53 C56 1.346 . S
N53 C57 1.345 . S
C54 C55 1.387 . S
C54 C58 1.391 . S
C55 C54 1.387 . S
C55 C56 1.369 . S
C55 H64 0.929 . S
C56 N53 1.346 . S
C56 C55 1.369 . S
C56 H59 0.928 . S
C57 N53 1.345 . S
C57 C58 1.371 . S
C57 H60 0.931 . S
C58 C54 1.391 . S
C58 C57 1.371 . S
C58 H65 0.930 . S
H59 C56 0.928 . S
H60 C57 0.931 . S
H61 C37 0.930 . S
H62 C34 0.930 . S
H63 C43 0.930 . S
H64 C55 0.929 . S
H65 C58 0.930 . S
C66 C67 1.351 . S
C66 N69 1.368 . S
C66 H71 0.931 . S
C67 C66 1.351 . S
C67 N68 1.373 . S
C67 H95 0.930 . S
N68 C67 1.373 . S
N68 C70 1.340 . S
N69 C66 1.368 . S
N69 C70 1.321 . S
N69 Co72 2.135 . S
C70 N68 1.340 . S
C70 N69 1.321 . S
C70 H94 0.930 . S
H71 C66 0.931 . S
Co72 N69 2.135 . S
Co72 N75 2.121 . S
Co72 O80 2.055 . S
Co72 O83 2.039 . S
Co72 N86 2.140 . S
C73 O74 1.227 . S
C73 O83 1.265 . S
O74 C73 1.227 . S
N75 Co72 2.121 . S
N75 C77 1.375 . S
N75 C78 1.313 . S
C76 C77 1.338 . S
C76 N79 1.377 . S
C76 H96 0.930 . S
C77 N75 1.375 . S
C77 C76 1.338 . S
C77 H81 0.931 . S
C78 N75 1.313 . S
C78 N79 1.344 . S
C78 H82 0.930 . S
N79 C76 1.377 . S
N79 C78 1.344 . S
O80 Co72 2.055 . S
O80 C84 1.253 . S
H81 C77 0.931 . S
H82 C78 0.930 . S
O83 Co72 2.039 . S
O83 C73 1.265 . S
C84 O80 1.253 . S
C84 O85 1.227 . S
O85 C84 1.227 . S
N86 Co72 2.140 . S
N86 C89 1.346 . S
N86 C90 1.345 . S
C87 C88 1.387 . S
C87 C91 1.391 . S
C88 C87 1.387 . S
C88 C89 1.369 . S
C88 H97 0.929 . S
C89 N86 1.346 . S
C89 C88 1.369 . S
C89 H92 0.928 . S
C90 N86 1.345 . S
C90 C91 1.371 . S
C90 H93 0.931 . S
C91 C87 1.391 . S
C91 C90 1.371 . S
C91 H98 0.930 . S
H92 C89 0.928 . S
H93 C90 0.931 . S
H94 C70 0.930 . S
H95 C67 0.930 . S
H96 C76 0.930 . S
H97 C88 0.929 . S
H98 C91 0.930 . S
C99 C100 1.351 . S
C99 N102 1.368 . S
C99 H104 0.931 . S
C100 C99 1.351 . S
C100 N101 1.373 . S
C100 H128 0.930 . S
N101 C100 1.373 . S
N101 C103 1.340 . S
N102 C99 1.368 . S
N102 C103 1.321 . S
N102 Co105 2.135 . S
C103 N101 1.340 . S
C103 N102 1.321 . S
C103 H127 0.930 . S
H104 C99 0.931 . S
Co105 N102 2.135 . S
Co105 N108 2.121 . S
Co105 O113 2.055 . S
Co105 O116 2.039 . S
Co105 N119 2.140 . S
C106 O107 1.227 . S
C106 O116 1.265 . S
O107 C106 1.227 . S
N108 Co105 2.121 . S
N108 C110 1.375 . S
N108 C111 1.334 . S
C109 C110 1.338 1_556 S
C109 N112 1.377 . S
C109 H129 0.930 . S
C110 N108 1.375 . S
C110 C109 1.338 1_554 S
C110 H114 0.931 . S
C111 N108 1.334 . S
C111 N112 1.316 1_554 S
C111 H115 0.938 . S
N112 C109 1.377 . S
N112 C111 1.316 1_556 S
O113 Co105 2.055 . S
O113 C117 1.253 . S
H114 C110 0.931 . S
H115 C111 0.938 . S
O116 Co105 2.039 . S
O116 C106 1.265 . S
C117 O113 1.253 . S
C117 O118 1.227 . S
O118 C117 1.227 . S
N119 Co105 2.140 . S
N119 C122 1.346 . S
N119 C123 1.345 . S
C120 C121 1.387 . S
C120 C124 1.391 . S
C121 C120 1.387 . S
C121 C122 1.369 . S
C121 H130 0.929 . S
C122 N119 1.346 . S
C122 C121 1.369 . S
C122 H125 0.928 . S
C123 N119 1.345 . S
C123 C124 1.371 . S
C123 H126 0.931 . S
C124 C120 1.391 . S
C124 C123 1.371 . S
C124 H131 0.930 . S
H125 C122 0.928 . S
H126 C123 0.931 . S
H127 C103 0.930 . S
H128 C100 0.930 . S
H129 C109 0.930 . S
H130 C121 0.929 . S
H131 C124 0.930 . S
C132 C133 1.351 . S
C132 N135 1.368 . S
C132 H137 0.931 . S
C133 C132 1.351 . S
C133 N134 1.373 . S
C133 H161 0.930 . S
N134 C133 1.373 . S
N134 C136 1.340 . S
N135 C132 1.368 . S
N135 C136 1.321 . S
N135 Co138 2.135 . S
C136 N134 1.340 . S
C136 N135 1.321 . S
C136 H160 0.930 . S
H137 C132 0.931 . S
Co138 N135 2.135 . S
Co138 N141 2.121 . S
Co138 O146 2.055 . S
Co138 O149 2.039 . S
Co138 N152 2.140 . S
C139 O140 1.227 . S
C139 O149 1.265 . S
O140 C139 1.227 . S
N141 Co138 2.121 . S
N141 C143 1.375 . S
N141 C144 1.334 . S
C142 C143 1.338 1_554 S
C142 N145 1.377 . S
C142 H162 0.930 . S
C143 N141 1.375 . S
C143 C142 1.338 1_556 S
C143 H147 0.931 . S
C144 N141 1.334 . S
C144 N145 1.316 1_556 S
C144 H148 0.938 . S
N145 C142 1.377 . S
N145 C144 1.316 1_554 S
O146 Co138 2.055 . S
O146 C150 1.253 . S
H147 C143 0.931 . S
H148 C144 0.938 . S
O149 Co138 2.039 . S
O149 C139 1.265 . S
C150 O146 1.253 . S
C150 O151 1.227 . S
O151 C150 1.227 . S
N152 Co138 2.140 . S
N152 C155 1.346 . S
N152 C156 1.345 . S
C153 C154 1.387 . S
C153 C157 1.391 . S
C154 C153 1.387 . S
C154 C155 1.369 . S
C154 H163 0.929 . S
C155 N152 1.346 . S
C155 C154 1.369 . S
C155 H158 0.928 . S
C156 N152 1.345 . S
C156 C157 1.371 . S
C156 H159 0.931 . S
C157 C153 1.391 . S
C157 C156 1.371 . S
C157 H164 0.930 . S
H158 C155 0.928 . S
H159 C156 0.931 . S
H160 C136 0.930 . S
H161 C133 0.930 . S
H162 C142 0.930 . S
H163 C154 0.929 . S
H164 C157 0.930 . S
C165 C166 1.351 . S
C165 N168 1.368 . S
C165 H170 0.931 . S
C166 C165 1.351 . S
C166 N167 1.373 . S
C166 H194 0.930 . S
N167 C166 1.373 . S
N167 C169 1.340 . S
N168 C165 1.368 . S
N168 C169 1.321 . S
N168 Co171 2.135 . S
C169 N167 1.340 . S
C169 N168 1.321 . S
C169 H193 0.930 . S
H170 C165 0.931 . S
Co171 N168 2.135 . S
Co171 N174 2.121 . S
Co171 O179 2.055 . S
Co171 O182 2.039 . S
Co171 N185 2.140 . S
C172 O173 1.227 . S
C172 O182 1.265 . S
O173 C172 1.227 . S
N174 Co171 2.121 . S
N174 C176 1.375 . S
N174 C177 1.313 . S
C175 C176 1.338 . S
C175 N178 1.377 . S
C175 H195 0.930 . S
C176 N174 1.375 . S
C176 C175 1.338 . S
C176 H180 0.931 . S
C177 N174 1.313 . S
C177 N178 1.344 . S
C177 H181 0.930 . S
N178 C175 1.377 . S
N178 C177 1.344 . S
O179 Co171 2.055 . S
O179 C183 1.253 . S
H180 C176 0.931 . S
H181 C177 0.930 . S
O182 Co171 2.039 . S
O182 C172 1.265 . S
C183 O179 1.253 . S
C183 O184 1.227 . S
O184 C183 1.227 . S
N185 Co171 2.140 . S
N185 C188 1.346 . S
N185 C189 1.345 . S
C186 C187 1.387 . S
C186 C190 1.391 . S
C187 C186 1.387 . S
C187 C188 1.369 . S
C187 H196 0.929 . S
C188 N185 1.346 . S
C188 C187 1.369 . S
C188 H191 0.928 . S
C189 N185 1.345 . S
C189 C190 1.371 . S
C189 H192 0.931 . S
C190 C186 1.391 . S
C190 C189 1.371 . S
C190 H197 0.930 . S
H191 C188 0.928 . S
H192 C189 0.931 . S
H193 C169 0.930 . S
H194 C166 0.930 . S
H195 C175 0.930 . S
H196 C187 0.929 . S
H197 C190 0.930 . S
C198 C199 1.351 . S
C198 N201 1.368 . S
C198 H203 0.931 . S
C199 C198 1.351 . S
C199 N200 1.373 . S
C199 H227 0.930 . S
N200 C199 1.373 . S
N200 C202 1.340 . S
N201 C198 1.368 . S
N201 C202 1.321 . S
N201 Co204 2.135 . S
C202 N200 1.340 . S
C202 N201 1.321 . S
C202 H226 0.930 . S
H203 C198 0.931 . S
Co204 N201 2.135 . S
Co204 N207 2.121 . S
Co204 O212 2.055 . S
Co204 O215 2.039 . S
Co204 N218 2.140 . S
C205 O206 1.227 . S
C205 O215 1.265 . S
O206 C205 1.227 . S
N207 Co204 2.121 . S
N207 C209 1.375 . S
N207 C210 1.313 . S
C208 C209 1.338 . S
C208 N211 1.377 . S
C208 H228 0.930 . S
C209 N207 1.375 . S
C209 C208 1.338 . S
C209 H213 0.931 . S
C210 N207 1.313 . S
C210 N211 1.344 . S
C210 H214 0.930 . S
N211 C208 1.377 . S
N211 C210 1.344 . S
O212 Co204 2.055 . S
O212 C216 1.253 . S
H213 C209 0.931 . S
H214 C210 0.930 . S
O215 Co204 2.039 . S
O215 C205 1.265 . S
C216 O212 1.253 . S
C216 O217 1.227 . S
O217 C216 1.227 . S
N218 Co204 2.140 . S
N218 C221 1.346 . S
N218 C222 1.345 . S
C219 C220 1.387 . S
C219 C223 1.391 . S
C220 C219 1.387 . S
C220 C221 1.369 . S
C220 H229 0.929 . S
C221 N218 1.346 . S
C221 C220 1.369 . S
C221 H224 0.928 . S
C222 N218 1.345 . S
C222 C223 1.371 . S
C222 H225 0.931 . S
C223 C219 1.391 . S
C223 C222 1.371 . S
C223 H230 0.930 . S
H224 C221 0.928 . S
H225 C222 0.931 . S
H226 C202 0.930 . S
H227 C199 0.930 . S
H228 C208 0.930 . S
H229 C220 0.929 . S
H230 C223 0.930 . S
C231 C232 1.351 . S
C231 N234 1.368 . S
C231 H236 0.931 . S
C232 C231 1.351 . S
C232 N233 1.373 . S
C232 H260 0.930 . S
N233 C232 1.373 . S
N233 C235 1.340 . S
N234 C231 1.368 . S
N234 C235 1.321 . S
N234 Co237 2.135 . S
C235 N233 1.340 . S
C235 N234 1.321 . S
C235 H259 0.930 . S
H236 C231 0.931 . S
Co237 N234 2.135 . S
Co237 N240 2.121 . S
Co237 O245 2.055 . S
Co237 O248 2.039 . S
Co237 N251 2.140 . S
C238 O239 1.227 . S
C238 O248 1.265 . S
O239 C238 1.227 . S
N240 Co237 2.121 . S
N240 C242 1.375 . S
N240 C243 1.313 . S
C241 C242 1.338 . S
C241 N244 1.377 . S
C241 H261 0.930 . S
C242 N240 1.375 . S
C242 C241 1.338 . S
C242 H246 0.931 . S
C243 N240 1.313 . S
C243 N244 1.344 . S
C243 H247 0.930 . S
N244 C241 1.377 . S
N244 C243 1.344 . S
O245 Co237 2.055 . S
O245 C249 1.253 . S
H246 C242 0.931 . S
H247 C243 0.930 . S
O248 Co237 2.039 . S
O248 C238 1.265 . S
C249 O245 1.253 . S
C249 O250 1.227 . S
O250 C249 1.227 . S
N251 Co237 2.140 . S
N251 C254 1.346 . S
N251 C255 1.345 . S
C252 C253 1.387 . S
C252 C256 1.391 . S
C253 C252 1.387 . S
C253 C254 1.369 . S
C253 H262 0.929 . S
C254 N251 1.346 . S
C254 C253 1.369 . S
C254 H257 0.928 . S
C255 N251 1.345 . S
C255 C256 1.371 . S
C255 H258 0.931 . S
C256 C252 1.391 . S
C256 C255 1.371 . S
C256 H263 0.930 . S
H257 C254 0.928 . S
H258 C255 0.931 . S
H259 C235 0.930 . S
H260 C232 0.930 . S
H261 C241 0.930 . S
H262 C253 0.929 . S
H263 C256 0.930 . S
C264 C265 1.351 . S
C264 N267 1.368 . S
C264 H269 0.931 . S
C265 C264 1.351 . S
C265 N266 1.373 . S
C265 H293 0.930 . S
N266 C265 1.373 . S
N266 C268 1.340 . S
N267 C264 1.368 . S
N267 C268 1.321 . S
N267 Co270 2.135 . S
C268 N266 1.340 . S
C268 N267 1.321 . S
C268 H292 0.930 . S
H269 C264 0.931 . S
Co270 N267 2.135 . S
Co270 N273 2.121 . S
Co270 O278 2.055 . S
Co270 O281 2.039 . S
Co270 N284 2.140 . S
C271 O272 1.227 . S
C271 O281 1.265 . S
O272 C271 1.227 . S
N273 Co270 2.121 . S
N273 C275 1.375 . S
N273 C276 1.313 . S
C274 C275 1.338 . S
C274 N277 1.377 . S
C274 H294 0.930 . S
C275 N273 1.375 . S
C275 C274 1.338 . S
C275 H279 0.931 . S
C276 N273 1.313 . S
C276 N277 1.344 . S
C276 H280 0.930 . S
N277 C274 1.377 . S
N277 C276 1.344 . S
O278 Co270 2.055 . S
O278 C282 1.253 . S
H279 C275 0.931 . S
H280 C276 0.930 . S
O281 Co270 2.039 . S
O281 C271 1.265 . S
C282 O278 1.253 . S
C282 O283 1.227 . S
O283 C282 1.227 . S
N284 Co270 2.140 . S
N284 C287 1.346 . S
N284 C288 1.345 . S
C285 C286 1.387 . S
C285 C289 1.391 . S
C286 C285 1.387 . S
C286 C287 1.369 . S
C286 H295 0.929 . S
C287 N284 1.346 . S
C287 C286 1.369 . S
C287 H290 0.928 . S
C288 N284 1.345 . S
C288 C289 1.371 . S
C288 H291 0.931 . S
C289 C285 1.391 . S
C289 C288 1.371 . S
C289 H296 0.930 . S
H290 C287 0.928 . S
H291 C288 0.931 . S
H292 C268 0.930 . S
H293 C265 0.930 . S
H294 C274 0.930 . S
H295 C286 0.929 . S
H296 C289 0.930 . S
C297 C298 1.351 . S
C297 N300 1.368 . S
C297 H302 0.931 . S
C298 C297 1.351 . S
C298 N299 1.373 . S
C298 H326 0.930 . S
N299 C298 1.373 . S
N299 C301 1.340 . S
N300 C297 1.368 . S
N300 C301 1.321 . S
N300 Co303 2.135 . S
C301 N299 1.340 . S
C301 N300 1.321 . S
C301 H325 0.930 . S
H302 C297 0.931 . S
Co303 N300 2.135 . S
Co303 N306 2.121 . S
Co303 O311 2.055 . S
Co303 O314 2.039 . S
Co303 N317 2.140 . S
C304 O305 1.227 . S
C304 O314 1.265 . S
O305 C304 1.227 . S
N306 Co303 2.121 . S
N306 C308 1.375 . S
N306 C309 1.334 . S
C307 C308 1.338 1_556 S
C307 N310 1.377 . S
C307 H327 0.930 . S
C308 N306 1.375 . S
C308 C307 1.338 1_554 S
C308 H312 0.931 . S
C309 N306 1.334 . S
C309 N310 1.316 1_554 S
C309 H313 0.938 . S
N310 C307 1.377 . S
N310 C309 1.316 1_556 S
O311 Co303 2.055 . S
O311 C315 1.253 . S
H312 C308 0.931 . S
H313 C309 0.938 . S
O314 Co303 2.039 . S
O314 C304 1.265 . S
C315 O311 1.253 . S
C315 O316 1.227 . S
O316 C315 1.227 . S
N317 Co303 2.140 . S
N317 C320 1.346 . S
N317 C321 1.345 . S
C318 C319 1.387 . S
C318 C322 1.391 . S
C319 C318 1.387 . S
C319 C320 1.369 . S
C319 H328 0.929 . S
C320 N317 1.346 . S
C320 C319 1.369 . S
C320 H323 0.928 . S
C321 N317 1.345 . S
C321 C322 1.371 . S
C321 H324 0.931 . S
C322 C318 1.391 . S
C322 C321 1.371 . S
C322 H329 0.930 . S
H323 C320 0.928 . S
H324 C321 0.931 . S
H325 C301 0.930 . S
H326 C298 0.930 . S
H327 C307 0.930 . S
H328 C319 0.929 . S
H329 C322 0.930 . S
C330 C331 1.351 . S
C330 N333 1.368 . S
C330 H335 0.931 . S
C331 C330 1.351 . S
C331 N332 1.373 . S
C331 H359 0.930 . S
N332 C331 1.373 . S
N332 C334 1.340 . S
N333 C330 1.368 . S
N333 C334 1.321 . S
N333 Co336 2.135 . S
C334 N332 1.340 . S
C334 N333 1.321 . S
C334 H358 0.930 . S
H335 C330 0.931 . S
Co336 N333 2.135 . S
Co336 N339 2.121 . S
Co336 O344 2.055 . S
Co336 O347 2.039 . S
Co336 N350 2.140 . S
C337 O338 1.227 . S
C337 O347 1.265 . S
O338 C337 1.227 . S
N339 Co336 2.121 . S
N339 C341 1.375 . S
N339 C342 1.313 . S
C340 C341 1.338 . S
C340 N343 1.377 . S
C340 H360 0.930 . S
C341 N339 1.375 . S
C341 C340 1.338 . S
C341 H345 0.931 . S
C342 N339 1.313 . S
C342 N343 1.344 . S
C342 H346 0.930 . S
N343 C340 1.377 . S
N343 C342 1.344 . S
O344 Co336 2.055 . S
O344 C348 1.253 . S
H345 C341 0.931 . S
H346 C342 0.930 . S
O347 Co336 2.039 . S
O347 C337 1.265 . S
C348 O344 1.253 . S
C348 O349 1.227 . S
O349 C348 1.227 . S
N350 Co336 2.140 . S
N350 C353 1.346 . S
N350 C354 1.345 . S
C351 C352 1.387 . S
C351 C355 1.391 . S
C352 C351 1.387 . S
C352 C353 1.369 . S
C352 H361 0.929 . S
C353 N350 1.346 . S
C353 C352 1.369 . S
C353 H356 0.928 . S
C354 N350 1.345 . S
C354 C355 1.371 . S
C354 H357 0.931 . S
C355 C351 1.391 . S
C355 C354 1.371 . S
C355 H362 0.930 . S
H356 C353 0.928 . S
H357 C354 0.931 . S
H358 C334 0.930 . S
H359 C331 0.930 . S
H360 C340 0.930 . S
H361 C352 0.929 . S
H362 C355 0.930 . S
C363 C364 1.351 . S
C363 N366 1.368 . S
C363 H368 0.931 . S
C364 C363 1.351 . S
C364 N365 1.373 . S
C364 H392 0.930 . S
N365 C364 1.373 . S
N365 C367 1.340 . S
N366 C363 1.368 . S
N366 C367 1.321 . S
N366 Co369 2.135 . S
C367 N365 1.340 . S
C367 N366 1.321 . S
C367 H391 0.930 . S
H368 C363 0.931 . S
Co369 N366 2.135 . S
Co369 N372 2.121 . S
Co369 O377 2.055 . S
Co369 O380 2.039 . S
Co369 N383 2.140 . S
C370 O371 1.227 . S
C370 O380 1.265 . S
O371 C370 1.227 . S
N372 Co369 2.121 . S
N372 C374 1.375 . S
N372 C375 1.313 . S
C373 C374 1.338 . S
C373 N376 1.377 . S
C373 H393 0.930 . S
C374 N372 1.375 . S
C374 C373 1.338 . S
C374 H378 0.931 . S
C375 N372 1.313 . S
C375 N376 1.344 . S
C375 H379 0.930 . S
N376 C373 1.377 . S
N376 C375 1.344 . S
O377 Co369 2.055 . S
O377 C381 1.253 . S
H378 C374 0.931 . S
H379 C375 0.930 . S
O380 Co369 2.039 . S
O380 C370 1.265 . S
C381 O377 1.253 . S
C381 O382 1.227 . S
O382 C381 1.227 . S
N383 Co369 2.140 . S
N383 C386 1.346 . S
N383 C387 1.345 . S
C384 C385 1.387 . S
C384 C388 1.391 . S
C385 C384 1.387 . S
C385 C386 1.369 . S
C385 H394 0.929 . S
C386 N383 1.346 . S
C386 C385 1.369 . S
C386 H389 0.928 . S
C387 N383 1.345 . S
C387 C388 1.371 . S
C387 H390 0.931 . S
C388 C384 1.391 . S
C388 C387 1.371 . S
C388 H395 0.930 . S
H389 C386 0.928 . S
H390 C387 0.931 . S
H391 C367 0.930 . S
H392 C364 0.930 . S
H393 C373 0.930 . S
H394 C385 0.929 . S
H395 C388 0.930 . S
C396 C397 1.351 . S
C396 N399 1.368 . S
C396 H401 0.931 . S
C397 C396 1.351 . S
C397 N398 1.373 . S
C397 H425 0.930 . S
N398 C397 1.373 . S
N398 C400 1.340 . S
N399 C396 1.368 . S
N399 C400 1.321 . S
N399 Co402 2.135 . S
C400 N398 1.340 . S
C400 N399 1.321 . S
C400 H424 0.930 . S
H401 C396 0.931 . S
Co402 N399 2.135 . S
Co402 N405 2.121 . S
Co402 O410 2.055 . S
Co402 O413 2.039 . S
Co402 N416 2.140 . S
C403 O404 1.227 . S
C403 O413 1.265 . S
O404 C403 1.227 . S
N405 Co402 2.121 . S
N405 C407 1.375 . S
N405 C408 1.313 . S
C406 C407 1.338 . S
C406 N409 1.377 . S
C406 H426 0.930 . S
C407 N405 1.375 . S
C407 C406 1.338 . S
C407 H411 0.931 . S
C408 N405 1.313 . S
C408 N409 1.344 . S
C408 H412 0.930 . S
N409 C406 1.377 . S
N409 C408 1.344 . S
O410 Co402 2.055 . S
O410 C414 1.253 . S
H411 C407 0.931 . S
H412 C408 0.930 . S
O413 Co402 2.039 . S
O413 C403 1.265 . S
C414 O410 1.253 . S
C414 O415 1.227 . S
O415 C414 1.227 . S
N416 Co402 2.140 . S
N416 C419 1.346 . S
N416 C420 1.345 . S
C417 C418 1.387 . S
C417 C421 1.391 . S
C418 C417 1.387 . S
C418 C419 1.369 . S
C418 H427 0.929 . S
C419 N416 1.346 . S
C419 C418 1.369 . S
C419 H422 0.928 . S
C420 N416 1.345 . S
C420 C421 1.371 . S
C420 H423 0.931 . S
C421 C417 1.391 . S
C421 C420 1.371 . S
C421 H428 0.930 . S
H422 C419 0.928 . S
H423 C420 0.931 . S
H424 C400 0.930 . S
H425 C397 0.930 . S
H426 C406 0.930 . S
H427 C418 0.929 . S
H428 C421 0.930 . S
C429 C430 1.351 . S
C429 N432 1.368 . S
C429 H434 0.931 . S
C430 C429 1.351 . S
C430 N431 1.373 . S
C430 H458 0.930 . S
N431 C430 1.373 . S
N431 C433 1.340 . S
N432 C429 1.368 . S
N432 C433 1.321 . S
N432 Co435 2.135 . S
C433 N431 1.340 . S
C433 N432 1.321 . S
C433 H457 0.930 . S
H434 C429 0.931 . S
Co435 N432 2.135 . S
Co435 N438 2.121 . S
Co435 O443 2.055 . S
Co435 O446 2.039 . S
Co435 N449 2.140 . S
C436 O437 1.227 . S
C436 O446 1.265 . S
O437 C436 1.227 . S
N438 Co435 2.121 . S
N438 C440 1.375 . S
N438 C441 1.313 . S
C439 C440 1.338 . S
C439 N442 1.377 . S
C439 H459 0.930 . S
C440 N438 1.375 . S
C440 C439 1.338 . S
C440 H444 0.931 . S
C441 N438 1.313 . S
C441 N442 1.344 . S
C441 H445 0.930 . S
N442 C439 1.377 . S
N442 C441 1.344 . S
O443 Co435 2.055 . S
O443 C447 1.253 . S
H444 C440 0.931 . S
H445 C441 0.930 . S
O446 Co435 2.039 . S
O446 C436 1.265 . S
C447 O443 1.253 . S
C447 O448 1.227 . S
O448 C447 1.227 . S
N449 Co435 2.140 . S
N449 C452 1.346 . S
N449 C453 1.345 . S
C450 C451 1.387 . S
C450 C454 1.391 . S
C451 C450 1.387 . S
C451 C452 1.369 . S
C451 H460 0.929 . S
C452 N449 1.346 . S
C452 C451 1.369 . S
C452 H455 0.928 . S
C453 N449 1.345 . S
C453 C454 1.371 . S
C453 H456 0.931 . S
C454 C450 1.391 . S
C454 C453 1.371 . S
C454 H461 0.930 . S
H455 C452 0.928 . S
H456 C453 0.931 . S
H457 C433 0.930 . S
H458 C430 0.930 . S
H459 C439 0.930 . S
H460 C451 0.929 . S
H461 C454 0.930 . S
C462 C463 1.351 . S
C462 N465 1.368 . S
C462 H467 0.931 . S
C463 C462 1.351 . S
C463 N464 1.373 . S
C463 H491 0.930 . S
N464 C463 1.373 . S
N464 C466 1.340 . S
N465 C462 1.368 . S
N465 C466 1.321 . S
N465 Co468 2.135 . S
C466 N464 1.340 . S
C466 N465 1.321 . S
C466 H490 0.930 . S
H467 C462 0.931 . S
Co468 N465 2.135 . S
Co468 N471 2.121 . S
Co468 O476 2.055 . S
Co468 O479 2.039 . S
Co468 N482 2.140 . S
C469 O470 1.227 . S
C469 O479 1.265 . S
O470 C469 1.227 . S
N471 Co468 2.121 . S
N471 C473 1.375 . S
N471 C474 1.334 . S
C472 C473 1.338 1_554 S
C472 N475 1.377 . S
C472 H492 0.930 . S
C473 N471 1.375 . S
C473 C472 1.338 1_556 S
C473 H477 0.931 . S
C474 N471 1.334 . S
C474 N475 1.316 1_556 S
C474 H478 0.938 . S
N475 C472 1.377 . S
N475 C474 1.316 1_554 S
O476 Co468 2.055 . S
O476 C480 1.253 . S
H477 C473 0.931 . S
H478 C474 0.938 . S
O479 Co468 2.039 . S
O479 C469 1.265 . S
C480 O476 1.253 . S
C480 O481 1.227 . S
O481 C480 1.227 . S
N482 Co468 2.140 . S
N482 C485 1.346 . S
N482 C486 1.345 . S
C483 C484 1.387 . S
C483 C487 1.391 . S
C484 C483 1.387 . S
C484 C485 1.369 . S
C484 H493 0.929 . S
C485 N482 1.346 . S
C485 C484 1.369 . S
C485 H488 0.928 . S
C486 N482 1.345 . S
C486 C487 1.371 . S
C486 H489 0.931 . S
C487 C483 1.391 . S
C487 C486 1.371 . S
C487 H494 0.930 . S
H488 C485 0.928 . S
H489 C486 0.931 . S
H490 C466 0.930 . S
H491 C463 0.930 . S
H492 C472 0.930 . S
H493 C484 0.929 . S
H494 C487 0.930 . S
C495 C496 1.351 . S
C495 N498 1.368 . S
C495 H500 0.931 . S
C496 C495 1.351 . S
C496 N497 1.373 . S
C496 H524 0.930 . S
N497 C496 1.373 . S
N497 C499 1.340 . S
N498 C495 1.368 . S
N498 C499 1.321 . S
N498 Co501 2.135 . S
C499 N497 1.340 . S
C499 N498 1.321 . S
C499 H523 0.930 . S
H500 C495 0.931 . S
Co501 N498 2.135 . S
Co501 N504 2.121 . S
Co501 O509 2.055 . S
Co501 O512 2.039 . S
Co501 N515 2.140 . S
C502 O503 1.227 . S
C502 O512 1.265 . S
O503 C502 1.227 . S
N504 Co501 2.121 . S
N504 C506 1.375 . S
N504 C507 1.313 . S
C505 C506 1.338 . S
C505 N508 1.377 . S
C505 H525 0.930 . S
C506 N504 1.375 . S
C506 C505 1.338 . S
C506 H510 0.931 . S
C507 N504 1.313 . S
C507 N508 1.344 . S
C507 H511 0.930 . S
N508 C505 1.377 . S
N508 C507 1.344 . S
O509 Co501 2.055 . S
O509 C513 1.253 . S
H510 C506 0.931 . S
H511 C507 0.930 . S
O512 Co501 2.039 . S
O512 C502 1.265 . S
C513 O509 1.253 . S
C513 O514 1.227 . S
O514 C513 1.227 . S
N515 Co501 2.140 . S
N515 C518 1.346 . S
N515 C519 1.345 . S
C516 C517 1.387 . S
C516 C520 1.391 . S
C517 C516 1.387 . S
C517 C518 1.369 . S
C517 H526 0.929 . S
C518 N515 1.346 . S
C518 C517 1.369 . S
C518 H521 0.928 . S
C519 N515 1.345 . S
C519 C520 1.371 . S
C519 H522 0.931 . S
C520 C516 1.391 . S
C520 C519 1.371 . S
C520 H527 0.930 . S
H521 C518 0.928 . S
H522 C519 0.931 . S
H523 C499 0.930 . S
H524 C496 0.930 . S
H525 C505 0.930 . S
H526 C517 0.929 . S
H527 C520 0.930 . S
C528 C529 1.387 . S
C528 H532 0.950 . S
C528 C537 1.390 . S
C529 C528 1.387 . S
C529 C531 1.387 . S
H530 C537 0.950 . S
C531 C529 1.387 . S
C531 C533 1.390 . S
C531 H535 0.950 . S
H532 C528 0.950 . S
C533 C531 1.390 . S
C533 C534 1.387 . S
C533 H536 0.950 . S
C534 C533 1.387 . S
C534 C537 1.387 . S
H535 C531 0.950 . S
H536 C533 0.950 . S
C537 C528 1.390 . S
C537 H530 0.950 . S
C537 C534 1.387 . S
C538 C539 1.387 . S
C538 H542 0.950 . S
C538 C547 1.390 . S
C539 C538 1.387 . S
C539 C541 1.387 . S
H540 C547 0.950 . S
C541 C539 1.387 . S
C541 C543 1.390 . S
C541 H545 0.950 . S
H542 C538 0.950 . S
C543 C541 1.390 . S
C543 C544 1.387 . S
C543 H546 0.950 . S
C544 C543 1.387 . S
C544 C547 1.387 . S
H545 C541 0.950 . S
H546 C543 0.950 . S
C547 C538 1.390 . S
C547 H540 0.950 . S
C547 C544 1.387 . S
C548 C549 1.387 . S
C548 H552 0.950 . S
C548 C557 1.390 1_554 S
C549 C548 1.387 . S
C549 C551 1.387 . S
H550 C557 0.950 . S
C551 C549 1.387 . S
C551 C553 1.390 1_554 S
C551 H555 0.950 . S
H552 C548 0.950 . S
C553 C551 1.390 1_556 S
C553 C554 1.387 . S
C553 H556 0.950 . S
C554 C553 1.387 . S
C554 C557 1.387 . S
H555 C551 0.950 . S
H556 C553 0.950 . S
C557 C548 1.390 1_556 S
C557 H550 0.950 . S
C557 C554 1.387 . S
C558 C559 1.387 . S
C558 H562 0.950 . S
C558 C567 1.390 . S
C559 C558 1.387 . S
C559 C561 1.387 . S
H560 C567 0.950 . S
C561 C559 1.387 . S
C561 C563 1.390 . S
C561 H565 0.950 . S
H562 C558 0.950 . S
C563 C561 1.390 . S
C563 C564 1.387 . S
C563 H566 0.950 . S
C564 C563 1.387 . S
C564 C567 1.387 . S
H565 C561 0.950 . S
H566 C563 0.950 . S
C567 C558 1.390 . S
C567 H560 0.950 . S
C567 C564 1.387 . S
C568 C569 1.387 . S
C568 H572 0.950 . S
C568 C577 1.390 . S
C569 C568 1.387 . S
C569 C571 1.387 . S
H570 C577 0.950 . S
C571 C569 1.387 . S
C571 C573 1.390 . S
C571 H575 0.950 . S
H572 C568 0.950 . S
C573 C571 1.390 . S
C573 C574 1.387 . S
C573 H576 0.950 . S
C574 C573 1.387 . S
C574 C577 1.387 . S
H575 C571 0.950 . S
H576 C573 0.950 . S
C577 C568 1.390 . S
C577 H570 0.950 . S
C577 C574 1.387 . S
C578 C579 1.387 . S
C578 H582 0.950 . S
C578 C587 1.390 1_556 S
C579 C578 1.387 . S
C579 C581 1.387 . S
H580 C587 0.950 . S
C581 C579 1.387 . S
C581 C583 1.390 1_556 S
C581 H585 0.950 . S
H582 C578 0.950 . S
C583 C581 1.390 1_554 S
C583 C584 1.387 . S
C583 H586 0.950 . S
C584 C583 1.387 . S
C584 C587 1.387 . S
H585 C581 0.950 . S
H586 C583 0.950 . S
C587 C578 1.390 1_554 S
C587 H580 0.950 . S
C587 C584 1.387 . S
C588 C589 1.387 . S
C588 H592 0.950 . S
C588 C597 1.390 . S
C589 C588 1.387 . S
C589 C591 1.387 . S
H590 C597 0.950 . S
C591 C589 1.387 . S
C591 C593 1.390 . S
C591 H595 0.950 . S
H592 C588 0.950 . S
C593 C591 1.390 . S
C593 C594 1.387 . S
C593 H596 0.950 . S
C594 C593 1.387 . S
C594 C597 1.387 . S
H595 C591 0.950 . S
H596 C593 0.950 . S
C597 C588 1.390 . S
C597 H590 0.950 . S
C597 C594 1.387 . S
C598 C599 1.387 . S
C598 H602 0.950 . S
C598 C607 1.390 . S
C599 C598 1.387 . S
C599 C601 1.387 . S
H600 C607 0.950 . S
C601 C599 1.387 . S
C601 C603 1.390 . S
C601 H605 0.950 . S
H602 C598 0.950 . S
C603 C601 1.390 . S
C603 C604 1.387 . S
C603 H606 0.950 . S
C604 C603 1.387 . S
C604 C607 1.387 . S
H605 C601 0.950 . S
H606 C603 0.950 . S
C607 C598 1.390 . S
C607 H600 0.950 . S
C607 C604 1.387 . S
C608 C609 1.387 . S
C608 H612 0.950 . S
C608 C617 1.390 . S
C609 C608 1.387 . S
C609 C611 1.387 . S
H610 C617 0.950 . S
C611 C609 1.387 . S
C611 C613 1.390 . S
C611 H615 0.950 . S
H612 C608 0.950 . S
C613 C611 1.390 . S
C613 C614 1.387 . S
C613 H616 0.950 . S
C614 C613 1.387 . S
C614 C617 1.387 . S
H615 C611 0.950 . S
H616 C613 0.950 . S
C617 C608 1.390 . S
C617 H610 0.950 . S
C617 C614 1.387 . S
C618 C619 1.387 . S
C618 H622 0.950 . S
C618 C627 1.390 . S
C619 C618 1.387 . S
C619 C621 1.387 . S
H620 C627 0.950 . S
C621 C619 1.387 . S
C621 C623 1.390 . S
C621 H625 0.950 . S
H622 C618 0.950 . S
C623 C621 1.390 . S
C623 C624 1.387 . S
C623 H626 0.950 . S
C624 C623 1.387 . S
C624 C627 1.387 . S
H625 C621 0.950 . S
H626 C623 0.950 . S
C627 C618 1.390 . S
C627 H620 0.950 . S
C627 C624 1.387 . S
C628 C629 1.387 . S
C628 H632 0.950 . S
C628 C637 1.390 . S
C629 C628 1.387 . S
C629 C631 1.387 . S
H630 C637 0.950 . S
C631 C629 1.387 . S
C631 C633 1.390 . S
C631 H635 0.950 . S
H632 C628 0.950 . S
C633 C631 1.390 . S
C633 C634 1.387 . S
C633 H636 0.950 . S
C634 C633 1.387 . S
C634 C637 1.387 . S
H635 C631 0.950 . S
H636 C633 0.950 . S
C637 C628 1.390 . S
C637 H630 0.950 . S
C637 C634 1.387 . S
C638 C639 1.387 . S
C638 H642 0.950 . S
C638 C647 1.390 . S
C639 C638 1.387 . S
C639 C641 1.387 . S
H640 C647 0.950 . S
C641 C639 1.387 . S
C641 C643 1.390 . S
C641 H645 0.950 . S
H642 C638 0.950 . S
C643 C641 1.390 . S
C643 C644 1.387 . S
C643 H646 0.950 . S
C644 C643 1.387 . S
C644 C647 1.387 . S
H645 C641 0.950 . S
H646 C643 0.950 . S
C647 C638 1.390 . S
C647 H640 0.950 . S
C647 C644 1.387 . S
C648 C649 1.387 . S
C648 H652 0.950 . S
C648 C657 1.390 . S
C649 C648 1.387 . S
C649 C651 1.387 . S
H650 C657 0.950 . S
C651 C649 1.387 . S
C651 C653 1.390 . S
C651 H655 0.950 . S
H652 C648 0.950 . S
C653 C651 1.390 . S
C653 C654 1.387 . S
C653 H656 0.950 . S
C654 C653 1.387 . S
C654 C657 1.387 . S
H655 C651 0.950 . S
H656 C653 0.950 . S
C657 C648 1.390 . S
C657 H650 0.950 . S
C657 C654 1.387 . S
C658 C659 1.387 . S
C658 H662 0.950 . S
C658 C667 1.390 . S
C659 C658 1.387 . S
C659 C661 1.387 . S
H660 C667 0.950 . S
C661 C659 1.387 . S
C661 C663 1.390 . S
C661 H665 0.950 . S
H662 C658 0.950 . S
C663 C661 1.390 . S
C663 C664 1.387 . S
C663 H666 0.950 . S
C664 C663 1.387 . S
C664 C667 1.387 . S
H665 C661 0.950 . S
H666 C663 0.950 . S
C667 C658 1.390 . S
C667 H660 0.950 . S
C667 C664 1.387 . S
C668 C669 1.387 . S
C668 H672 0.950 . S
C668 C677 1.390 . S
C669 C668 1.387 . S
C669 C671 1.387 . S
H670 C677 0.950 . S
C671 C669 1.387 . S
C671 C673 1.390 . S
C671 H675 0.950 . S
H672 C668 0.950 . S
C673 C671 1.390 . S
C673 C674 1.387 . S
C673 H676 0.950 . S
C674 C673 1.387 . S
C674 C677 1.387 . S
H675 C671 0.950 . S
H676 C673 0.950 . S
C677 C668 1.390 . S
C677 H670 0.950 . S
C677 C674 1.387 . S
C678 C679 1.387 . S
C678 H682 0.950 . S
C678 C687 1.390 . S
C679 C678 1.387 . S
C679 C681 1.387 . S
H680 C687 0.950 . S
C681 C679 1.387 . S
C681 C683 1.390 . S
C681 H685 0.950 . S
H682 C678 0.950 . S
C683 C681 1.390 . S
C683 C684 1.387 . S
C683 H686 0.950 . S
C684 C683 1.387 . S
C684 C687 1.387 . S
H685 C681 0.950 . S
H686 C683 0.950 . S
C687 C678 1.390 . S
C687 H680 0.950 . S
C687 C684 1.387 . S
C688 C689 1.387 . S
C688 H692 0.950 . S
C688 C697 1.390 . S
C689 C688 1.387 . S
C689 C691 1.387 . S
H690 C697 0.950 . S
C691 C689 1.387 . S
C691 C693 1.390 . S
C691 H695 0.950 . S
H692 C688 0.950 . S
C693 C691 1.390 . S
C693 C694 1.387 . S
C693 H696 0.950 . S
C694 C693 1.387 . S
C694 C697 1.387 . S
H695 C691 0.950 . S
H696 C693 0.950 . S
C697 C688 1.390 . S
C697 H690 0.950 . S
C697 C694 1.387 . S
C698 C699 1.387 . S
C698 H702 0.950 . S
C698 C707 1.390 . S
C699 C698 1.387 . S
C699 C701 1.387 . S
H700 C707 0.950 . S
C701 C699 1.387 . S
C701 C703 1.390 . S
C701 H705 0.950 . S
H702 C698 0.950 . S
C703 C701 1.390 . S
C703 C704 1.387 . S
C703 H706 0.950 . S
C704 C703 1.387 . S
C704 C707 1.387 . S
H705 C701 0.950 . S
H706 C703 0.950 . S
C707 C698 1.390 . S
C707 H700 0.950 . S
C707 C704 1.387 . S
C708 C709 1.387 . S
C708 H712 0.950 . S
C708 C717 1.390 . S
C709 C708 1.387 . S
C709 C711 1.387 . S
H710 C717 0.950 . S
C711 C709 1.387 . S
C711 C713 1.390 . S
C711 H715 0.950 . S
H712 C708 0.950 . S
C713 C711 1.390 . S
C713 C714 1.387 . S
C713 H716 0.950 . S
C714 C713 1.387 . S
C714 C717 1.387 . S
H715 C711 0.950 . S
H716 C713 0.950 . S
C717 C708 1.390 . S
C717 H710 0.950 . S
C717 C714 1.387 . S
C718 C719 1.387 . S
C718 H722 0.950 . S
C718 C727 1.390 . S
C719 C718 1.387 . S
C719 C721 1.387 . S
H720 C727 0.950 . S
C721 C719 1.387 . S
C721 C723 1.390 . S
C721 H725 0.950 . S
H722 C718 0.950 . S
C723 C721 1.390 . S
C723 C724 1.387 . S
C723 H726 0.950 . S
C724 C723 1.387 . S
C724 C727 1.387 . S
H725 C721 0.950 . S
H726 C723 0.950 . S
C727 C718 1.390 . S
C727 H720 0.950 . S
C727 C724 1.387 . S
C728 C729 1.387 . S
C728 H732 0.950 . S
C728 C737 1.390 . S
C729 C728 1.387 . S
C729 C731 1.387 . S
H730 C737 0.950 . S
C731 C729 1.387 . S
C731 C733 1.390 . S
C731 H735 0.950 . S
H732 C728 0.950 . S
C733 C731 1.390 . S
C733 C734 1.387 . S
C733 H736 0.950 . S
C734 C733 1.387 . S
C734 C737 1.387 . S
H735 C731 0.950 . S
H736 C733 0.950 . S
C737 C728 1.390 . S
C737 H730 0.950 . S
C737 C734 1.387 . S
C738 C739 1.387 . S
C738 H742 0.950 . S
C738 C747 1.390 . S
C739 C738 1.387 . S
C739 C741 1.387 . S
H740 C747 0.950 . S
C741 C739 1.387 . S
C741 C743 1.390 . S
C741 H745 0.950 . S
H742 C738 0.950 . S
C743 C741 1.390 . S
C743 C744 1.387 . S
C743 H746 0.950 . S
C744 C743 1.387 . S
C744 C747 1.387 . S
H745 C741 0.950 . S
H746 C743 0.950 . S
C747 C738 1.390 . S
C747 H740 0.950 . S
C747 C744 1.387 . S
C748 C749 1.387 . S
C748 H752 0.950 . S
C748 C757 1.390 . S
C749 C748 1.387 . S
C749 C751 1.387 . S
H750 C757 0.950 . S
C751 C749 1.387 . S
C751 C753 1.390 . S
C751 H755 0.950 . S
H752 C748 0.950 . S
C753 C751 1.390 . S
C753 C754 1.387 . S
C753 H756 0.950 . S
C754 C753 1.387 . S
C754 C757 1.387 . S
H755 C751 0.950 . S
H756 C753 0.950 . S
C757 C748 1.390 . S
C757 H750 0.950 . S
C757 C754 1.387 . S
C758 C759 1.387 . S
C758 H762 0.950 . S
C758 C767 1.390 . S
C759 C758 1.387 . S
C759 C761 1.387 . S
H760 C767 0.950 . S
C761 C759 1.387 . S
C761 C763 1.390 . S
C761 H765 0.950 . S
H762 C758 0.950 . S
C763 C761 1.390 . S
C763 C764 1.387 . S
C763 H766 0.950 . S
C764 C763 1.387 . S
C764 C767 1.387 . S
H765 C761 0.950 . S
H766 C763 0.950 . S
C767 C758 1.390 . S
C767 H760 0.950 . S
C767 C764 1.387 . S
C768 C769 1.387 . S
C768 H772 0.950 . S
C768 C777 1.390 1_445 S
C769 C768 1.387 . S
C769 C771 1.387 . S
H770 C777 0.950 . S
C771 C769 1.387 . S
C771 C773 1.390 1_445 S
C771 H775 0.950 . S
H772 C768 0.950 . S
C773 C771 1.390 1_665 S
C773 C774 1.387 . S
C773 H776 0.950 . S
C774 C773 1.387 . S
C774 C777 1.387 . S
H775 C771 0.950 . S
H776 C773 0.950 . S
C777 C768 1.390 1_665 S
C777 H770 0.950 . S
C777 C774 1.387 . S
C778 C779 1.387 . S
C778 H782 0.950 . S
C778 C787 1.390 1_455 S
C779 C778 1.387 . S
C779 C781 1.387 . S
H780 C787 0.950 . S
C781 C779 1.387 . S
C781 C783 1.390 1_455 S
C781 H785 0.950 . S
H782 C778 0.950 . S
C783 C781 1.390 1_655 S
C783 C784 1.387 . S
C783 H786 0.950 . S
C784 C783 1.387 . S
C784 C787 1.387 . S
H785 C781 0.950 . S
H786 C783 0.950 . S
C787 C778 1.390 1_655 S
C787 H780 0.950 . S
C787 C784 1.387 . S
C788 C789 1.387 . S
C788 H792 0.950 . S
C788 C797 1.390 . S
C789 C788 1.387 . S
C789 C791 1.387 . S
H790 C797 0.950 . S
C791 C789 1.387 . S
C791 C793 1.390 . S
C791 H795 0.950 . S
H792 C788 0.950 . S
C793 C791 1.390 . S
C793 C794 1.387 . S
C793 H796 0.950 . S
C794 C793 1.387 . S
C794 C797 1.387 . S
H795 C791 0.950 . S
H796 C793 0.950 . S
C797 C788 1.390 . S
C797 H790 0.950 . S
C797 C794 1.387 . S
C798 C799 1.387 . S
C798 H802 0.950 . S
C798 C807 1.390 1_545 S
C799 C798 1.387 . S
C799 C801 1.387 . S
H800 C807 0.950 . S
C801 C799 1.387 . S
C801 C803 1.390 1_545 S
C801 H805 0.950 1_554 S
H802 C798 0.950 . S
C803 C801 1.390 1_565 S
C803 C804 1.387 . S
C803 H806 0.950 1_554 S
C804 C803 1.387 . S
C804 C807 1.387 . S
H805 C801 0.950 1_556 S
H806 C803 0.950 1_556 S
C807 C798 1.390 1_565 S
C807 H800 0.950 . S
C807 C804 1.387 . S
C808 C809 1.387 . S
C808 H812 0.950 1_556 S
C808 C817 1.390 1_455 S
C809 C808 1.387 . S
C809 C811 1.387 . S
H810 C817 0.950 1_554 S
C811 C809 1.387 . S
C811 C813 1.390 1_455 S
C811 H815 0.950 . S
H812 C808 0.950 1_554 S
C813 C811 1.390 1_655 S
C813 C814 1.387 . S
C813 H816 0.950 . S
C814 C813 1.387 . S
C814 C817 1.387 . S
H815 C811 0.950 . S
H816 C813 0.950 . S
C817 C808 1.390 1_655 S
C817 H810 0.950 1_556 S
C817 C814 1.387 . S
C818 C819 1.387 . S
C818 H822 0.950 . S
C818 C827 1.390 . S
C819 C818 1.387 . S
C819 C821 1.387 . S
H820 C827 0.950 . S
C821 C819 1.387 . S
C821 C823 1.390 . S
C821 H825 0.950 . S
H822 C818 0.950 . S
C823 C821 1.390 . S
C823 C824 1.387 . S
C823 H826 0.950 . S
C824 C823 1.387 . S
C824 C827 1.387 . S
H825 C821 0.950 . S
H826 C823 0.950 . S
C827 C818 1.390 . S
C827 H820 0.950 . S
C827 C824 1.387 . S
C828 C829 1.387 . S
C828 H832 0.950 . S
C828 C837 1.390 1_565 S
C829 C828 1.387 . S
C829 C831 1.387 . S
H830 C837 0.950 . S
C831 C829 1.387 . S
C831 C833 1.390 1_565 S
C831 H835 0.950 . S
H832 C828 0.950 . S
C833 C831 1.390 1_545 S
C833 C834 1.387 . S
C833 H836 0.950 . S
C834 C833 1.387 . S
C834 C837 1.387 . S
H835 C831 0.950 . S
H836 C833 0.950 . S
C837 C828 1.390 1_545 S
C837 H830 0.950 . S
C837 C834 1.387 . S
C838 C839 1.387 . S
C838 H842 0.950 . S
C838 C847 1.390 1_445 S
C839 C838 1.387 . S
C839 C841 1.387 . S
H840 C847 0.950 . S
C841 C839 1.387 . S
C841 C843 1.390 1_445 S
C841 H845 0.950 . S
H842 C838 0.950 . S
C843 C841 1.390 1_665 S
C843 C844 1.387 . S
C843 H846 0.950 . S
C844 C843 1.387 . S
C844 C847 1.387 . S
H845 C841 0.950 . S
H846 C843 0.950 . S
C847 C838 1.390 1_665 S
C847 H840 0.950 . S
C847 C844 1.387 . S
C848 C849 1.387 . S
C848 H852 0.950 . S
C848 C857 1.390 . S
C849 C848 1.387 . S
C849 C851 1.387 . S
H850 C857 0.950 . S
C851 C849 1.387 . S
C851 C853 1.390 . S
C851 H855 0.950 . S
H852 C848 0.950 . S
C853 C851 1.390 . S
C853 C854 1.387 . S
C853 H856 0.950 . S
C854 C853 1.387 . S
C854 C857 1.387 . S
H855 C851 0.950 . S
H856 C853 0.950 . S
C857 C848 1.390 . S
C857 H850 0.950 . S
C857 C854 1.387 . S
C858 C859 1.387 . S
C858 H862 0.950 . S
C858 C867 1.390 . S
C859 C858 1.387 . S
C859 C861 1.387 . S
H860 C867 0.950 . S
C861 C859 1.387 . S
C861 C863 1.390 . S
C861 H865 0.950 . S
H862 C858 0.950 . S
C863 C861 1.390 . S
C863 C864 1.387 . S
C863 H866 0.950 . S
C864 C863 1.387 . S
C864 C867 1.387 . S
H865 C861 0.950 . S
H866 C863 0.950 . S
C867 C858 1.390 . S
C867 H860 0.950 . S
C867 C864 1.387 . S
C868 C869 1.387 . S
C868 H872 0.950 . S
C868 C877 1.390 . S
C869 C868 1.387 . S
C869 C871 1.387 . S
H870 C877 0.950 . S
C871 C869 1.387 . S
C871 C873 1.390 . S
C871 H875 0.950 . S
H872 C868 0.950 . S
C873 C871 1.390 . S
C873 C874 1.387 . S
C873 H876 0.950 . S
C874 C873 1.387 . S
C874 C877 1.387 . S
H875 C871 0.950 . S
H876 C873 0.950 . S
C877 C868 1.390 . S
C877 H870 0.950 . S
C877 C874 1.387 . S
C878 C879 1.387 . S
C878 H882 0.950 . S
C878 C887 1.390 . S
C879 C878 1.387 . S
C879 C881 1.387 . S
H880 C887 0.950 . S
C881 C879 1.387 . S
C881 C883 1.390 . S
C881 H885 0.950 . S
H882 C878 0.950 . S
C883 C881 1.390 . S
C883 C884 1.387 . S
C883 H886 0.950 . S
C884 C883 1.387 . S
C884 C887 1.387 . S
H885 C881 0.950 . S
H886 C883 0.950 . S
C887 C878 1.390 . S
C887 H880 0.950 . S
C887 C884 1.387 . S
C888 C889 1.387 . S
C888 H892 0.950 . S
C888 C897 1.390 . S
C889 C888 1.387 . S
C889 C891 1.387 . S
H890 C897 0.950 . S
C891 C889 1.387 . S
C891 C893 1.390 . S
C891 H895 0.950 . S
H892 C888 0.950 . S
C893 C891 1.390 . S
C893 C894 1.387 . S
C893 H896 0.950 . S
C894 C893 1.387 . S
C894 C897 1.387 . S
H895 C891 0.950 . S
H896 C893 0.950 . S
C897 C888 1.390 . S
C897 H890 0.950 . S
C897 C894 1.387 . S
C898 C899 1.387 . S
C898 H902 0.950 . S
C898 C907 1.390 . S
C899 C898 1.387 . S
C899 C901 1.387 . S
H900 C907 0.950 . S
C901 C899 1.387 . S
C901 C903 1.390 . S
C901 H905 0.950 . S
H902 C898 0.950 . S
C903 C901 1.390 . S
C903 C904 1.387 . S
C903 H906 0.950 . S
C904 C903 1.387 . S
C904 C907 1.387 . S
H905 C901 0.950 . S
H906 C903 0.950 . S
C907 C898 1.390 . S
C907 H900 0.950 . S
C907 C904 1.387 . S
C908 C909 1.387 . S
C908 H912 0.950 . S
C908 C917 1.390 . S
C909 C908 1.387 . S
C909 C911 1.387 . S
H910 C917 0.950 . S
C911 C909 1.387 . S
C911 C913 1.390 . S
C911 H915 0.950 . S
H912 C908 0.950 . S
C913 C911 1.390 . S
C913 C914 1.387 . S
C913 H916 0.950 . S
C914 C913 1.387 . S
C914 C917 1.387 . S
H915 C911 0.950 . S
H916 C913 0.950 . S
C917 C908 1.390 . S
C917 H910 0.950 . S
C917 C914 1.387 . S
C918 C919 1.387 . S
C918 H922 0.950 . S
C918 C927 1.390 . S
C919 C918 1.387 . S
C919 C921 1.387 . S
H920 C927 0.950 . S
C921 C919 1.387 . S
C921 C923 1.390 . S
C921 H925 0.950 . S
H922 C918 0.950 . S
C923 C921 1.390 . S
C923 C924 1.387 . S
C923 H926 0.950 . S
C924 C923 1.387 . S
C924 C927 1.387 . S
H925 C921 0.950 . S
H926 C923 0.950 . S
C927 C918 1.390 . S
C927 H920 0.950 . S
C927 C924 1.387 . S
C529 N2 0.645 . S
C534 N431 0.644 . S
C539 N464 0.642 . S
C544 N35 0.638 . S
C549 N497 0.637 . S
C554 N68 0.635 . S
C559 N398 0.641 . S
C564 N101 0.637 . S
C569 N365 0.640 . S
C574 N134 0.644 . S
C579 N266 0.634 . S
C584 N167 0.636 . S
C589 N200 0.643 . S
C594 N299 0.638 . S
C599 N332 0.634 . S
C604 N233 0.636 . S
C609 C304 2.064 . S
C614 N13 2.214 . S
C619 N46 2.216 . S
C624 C337 2.062 . S
C629 N79 2.214 . S
C634 C370 2.063 . S
C639 N112 2.214 . S
C644 C271 2.061 . S
C649 N145 2.215 . S
C654 C502 2.061 . S
C659 C403 2.063 . S
C664 N178 2.214 . S
C669 C436 2.061 . S
C674 N211 2.215 . S
C679 C469 2.062 . S
C684 N244 2.214 . S
C689 N277 2.215 . S
C694 C40 2.064 . S
C699 N310 2.215 . S
C704 C73 2.064 . S
C709 N343 2.214 . S
C714 C106 2.061 . S
C719 C7 2.063 . S
C724 N376 2.216 . S
C729 N409 2.214 . S
C734 C238 2.064 . S
C739 C139 2.064 . S
C744 N442 2.215 . S
C749 N475 2.214 . S
C754 C172 2.061 . S
C759 N508 2.215 . S
C764 C205 2.064 . S
C769 C21 1.382 . S
C774 C351 1.382 . S
C779 C384 1.381 . S
C784 C54 1.381 . S
C789 C87 1.382 . S
C794 C285 1.382 . S
C799 C318 1.381 . S
C804 C120 1.381 . S
C809 C153 1.382 . S
C814 C483 1.382 . S
C819 C516 1.381 . S
C824 C186 1.381 . S
C829 C417 1.382 . S
C834 C219 1.382 . S
C839 C450 1.382 . S
C844 C252 1.382 . S
C849 C216 1.041 . S
C854 C18 1.041 . S
C859 C51 1.041 . S
C864 C249 1.041 . S
C869 C150 1.041 . S
C874 C84 1.041 . S
C879 C117 1.041 . S
C884 C183 1.041 . S
C889 C282 1.041 . S
C894 C480 1.041 . S
C899 C315 1.035 . S
C904 C513 1.035 . S
C909 C348 1.041 . S
C914 C414 1.041 . S
C919 C447 1.035 . S
C924 C381 1.035 . S
