# Generated by pormake.
# Topology fnu, (5)-cn, num edge types: 1
# Building blocks:
#     Node 0, Type 0, BuildingBlock: XOMCOT_clean_sbu_0, # of connection points: 5
#     Node 1, Type 0, BuildingBlock: XOMCOT_clean_sbu_0, # of connection points: 5
#     Node 2, Type 0, BuildingBlock: XOMCOT_clean_sbu_0, # of connection points: 5
#     Node 3, Type 0, BuildingBlock: XOMCOT_clean_sbu_0, # of connection points: 5
#     Node 4, Type 0, BuildingBlock: XOMCOT_clean_sbu_0, # of connection points: 5
#     Node 5, Type 0, BuildingBlock: XOMCOT_clean_sbu_0, # of connection points: 5
#     Edge 6, Type (0, 0), BuildingBlock: CIFDUS_clean_linker_0, # of connection points: 2
#     Edge 7, Type (0, 0), BuildingBlock: CIFDUS_clean_linker_0, # of connection points: 2
#     Edge 8, Type (0, 0), BuildingBlock: CIFDUS_clean_linker_0, # of connection points: 2
#     Edge 9, Type (0, 0), BuildingBlock: CIFDUS_clean_linker_0, # of connection points: 2
#     Edge 10, Type (0, 0), BuildingBlock: CIFDUS_clean_linker_0, # of connection points: 2
#     Edge 11, Type (0, 0), BuildingBlock: CIFDUS_clean_linker_0, # of connection points: 2
#     Edge 12, Type (0, 0), BuildingBlock: CIFDUS_clean_linker_0, # of connection points: 2
#     Edge 13, Type (0, 0), BuildingBlock: CIFDUS_clean_linker_0, # of connection points: 2
#     Edge 14, Type (0, 0), BuildingBlock: CIFDUS_clean_linker_0, # of connection points: 2
#     Edge 15, Type (0, 0), BuildingBlock: CIFDUS_clean_linker_0, # of connection points: 2
#     Edge 16, Type (0, 0), BuildingBlock: CIFDUS_clean_linker_0, # of connection points: 2
#     Edge 17, Type (0, 0), BuildingBlock: CIFDUS_clean_linker_0, # of connection points: 2
#     Edge 18, Type (0, 0), BuildingBlock: CIFDUS_clean_linker_0, # of connection points: 2
#     Edge 19, Type (0, 0), BuildingBlock: CIFDUS_clean_linker_0, # of connection points: 2
#     Edge 20, Type (0, 0), BuildingBlock: CIFDUS_clean_linker_0, # of connection points: 2
# Relax obj value: 0.179
# Max RMSD: 0.132
# Mean RMSD: 0.132
data_MOF--net-fnu--node1-XOMCOT_clean_sbu_0--edge1-CIFDUS_clean_linker_0
_symmetry_space_group_name_H-M    P1
_symmetry_Int_Tables_number       1
_symmetry_cell_setting            triclinic
loop_
_symmetry_equiv_pos_as_xyz
'x, y, z'
_cell_length_a     22.831182
_cell_length_b     25.243532
_cell_length_c     30.128425
_cell_angle_alpha  90.036128
_cell_angle_beta   98.297684
_cell_angle_gamma 123.48216
loop_
_atom_site_label
_atom_site_type_symbol
_atom_site_fract_x
_atom_site_fract_y
_atom_site_fract_z
_atom_type_partial_charge
Co0 Co 0.10875 0.07447 0.25582 0.0
C1 C 0.11366 0.06973 0.35505 0.0
C2 C 0.21813 0.12935 0.33836 0.0
C3 C 0.22424 0.13207 0.38454 0.0
N4 N 0.14886 0.08989 0.31968 0.0
N5 N 0.15852 0.09481 0.39518 0.0
H6 H 1.05623 0.03979 0.3516 0.0
H7 H 0.26147 0.1565 0.32007 0.0
C8 C 0.23134 0.11704 0.20335 0.0
O9 O 0.18671 0.08925 0.16527 0.0
N10 N 1.06498 0.05851 0.19288 0.0
C11 C 1.00637 1.00298 0.17268 0.0
C12 C 0.98374 1.01289 0.13078 0.0
C13 C 0.07502 0.10208 0.16352 0.0
N14 N 1.02703 0.07515 0.12491 0.0
C15 C 1.02548 0.94254 0.27148 0.0
C16 C 0.07891 0.90286 0.2124 0.0
C17 C 1.01337 0.85725 0.22487 0.0
C18 C 0.98942 0.87748 0.25736 0.0
C19 C 0.11402 0.96701 0.22815 0.0
N20 N 0.08433 0.98693 0.2544 0.0
H21 H 1.00194 0.95739 0.29278 0.0
H22 H 0.1618 1.00018 0.21572 0.0
H23 H 0.98023 0.95822 0.18739 0.0
H24 H 0.11719 0.15231 0.17013 0.0
O25 O 1.02102 0.06057 0.2693 0.0
O26 O 0.1157 0.15393 0.25892 0.0
O27 O 0.20816 0.11053 0.24077 0.0
C28 C 1.0496 0.12098 0.26472 0.0
H29 H 0.27352 0.16024 0.40838 0.0
H30 H 0.94012 0.97644 0.10594 0.0
H31 H 0.10086 0.89053 0.18793 0.0
H32 H 0.94084 0.84405 0.26982 0.0
Co33 Co 1.05107 0.04732 0.76379 0.0
C34 C 1.05086 1.03262 0.66565 0.0
C35 C 0.94468 0.98215 0.68029 0.0
C36 C 0.94065 0.97448 0.63447 0.0
N37 N 1.0138 1.01807 0.70006 0.0
N38 N 1.0074 1.00627 0.62517 0.0
H39 H 0.10839 0.06232 0.67001 0.0
H40 H 0.89981 0.9641 0.69745 0.0
C41 C 0.92783 0.96584 0.81552 0.0
O42 O 0.97221 0.98452 0.8539 0.0
N43 N 0.09222 0.07962 0.82645 0.0
C44 C 0.15364 0.08871 0.84787 0.0
C45 C 0.17266 0.12211 0.889 0.0
C46 C 0.07668 0.11053 0.85424 0.0
N47 N 0.12405 0.13547 0.8932 0.0
C48 C 0.14176 1.00394 0.75439 0.0
C49 C 0.08744 0.91051 0.813 0.0
C50 C 0.15373 0.93101 0.80147 0.0
C51 C 0.17867 0.97596 0.7696 0.0
C52 C 1.05165 0.93869 0.7963 0.0
N53 N 0.08113 0.98798 0.76985 0.0
H54 H 0.16534 0.04217 0.73303 0.0
H55 H 1.00261 0.92274 0.80745 0.0
H56 H 0.18378 0.07325 0.83453 0.0
H57 H 1.03065 0.11325 0.84654 0.0
O58 O 0.1376 0.12242 0.75009 0.0
O59 O 1.03861 0.11652 0.75598 0.0
O60 O 0.95152 0.98204 0.7782 0.0
C61 C 0.105 0.15142 0.75097 0.0
H62 H 0.89207 0.94917 0.60977 0.0
H63 H 0.21717 0.13313 0.91475 0.0
H64 H 1.06484 0.87574 0.83705 0.0
H65 H 0.22806 0.99182 0.75796 0.0
Co66 Co 0.75973 0.3832 0.58203 0.0
C67 C 0.75757 0.38323 0.67995 0.0
C68 C 0.8546 0.39777 0.66589 0.0
C69 C 0.85525 0.39548 0.7117 0.0
N70 N 0.79342 0.39044 0.64602 0.0
N71 N 0.79399 0.38609 0.72043 0.0
H72 H 0.70542 0.37533 0.67524 0.0
H73 H 0.89514 0.40246 0.6484 0.0
C74 C 0.88547 0.42812 0.5331 0.0
O75 O 0.84195 0.39548 0.49543 0.0
N76 N 0.72277 0.37485 0.51889 0.0
C77 C 0.66493 0.32238 0.49482 0.0
C78 C 0.64752 0.33927 0.45419 0.0
C79 C 0.73804 0.42317 0.49331 0.0
N80 N 0.69356 0.40271 0.45334 0.0
C81 C 0.67506 0.25082 0.59295 0.0
C82 C 0.73043 0.21223 0.5347 0.0
C83 C 0.66396 0.1665 0.54606 0.0
C84 C 0.63897 0.18614 0.57813 0.0
C85 C 0.76558 0.27622 0.55122 0.0
N86 N 0.73464 0.29557 0.57674 0.0
H87 H 0.65203 0.26534 0.61502 0.0
H88 H 0.81557 0.30954 0.54127 0.0
H89 H 0.636 0.27531 0.50622 0.0
H90 H 0.78091 0.47237 0.50395 0.0
O91 O 0.66932 0.36629 0.59263 0.0
O92 O 0.76555 0.46204 0.58899 0.0
O93 O 0.86147 0.42353 0.56998 0.0
C94 C 0.69796 0.42727 0.59126 0.0
H95 H 0.89647 0.39815 0.73637 0.0
H96 H 0.60549 0.30691 0.42688 0.0
H97 H 0.75354 0.19991 0.51108 0.0
H98 H 0.59001 0.15242 0.59012 0.0
Co99 Co 0.76148 0.40401 0.11049 0.0
C100 C 0.76253 0.40033 0.01241 0.0
C101 C 0.66703 0.31834 0.0284 0.0
C102 C 0.6663 0.31227 0.98281 0.0
N103 N 0.72728 0.37383 0.04696 0.0
N104 N 0.72662 0.36376 0.97287 0.0
H105 H 0.81413 0.44496 0.01612 0.0
H106 H 0.62744 0.28326 0.04673 0.0
C107 C 0.63519 0.32556 0.16 0.0
O108 O 0.67835 0.34498 0.19893 0.0
N109 N 0.79952 0.43664 0.17304 0.0
C110 C 0.85855 0.44414 0.19715 0.0
C111 C 0.87531 0.47898 0.23738 0.0
C112 C 0.7837 0.47007 0.19789 0.0
N113 N 0.82782 0.49483 0.23796 0.0
C114 C 0.8448 0.35426 0.09995 0.0
C115 C 0.79633 0.2682 0.16399 0.0
C116 C 0.85903 0.28436 0.14892 0.0
C117 C 0.88081 0.32542 0.11454 0.0
C118 C 0.76136 0.29733 0.14798 0.0
N119 N 0.78831 0.34294 0.11857 0.0
H120 H 0.86537 0.38908 0.0758 0.0
H121 H 0.71568 0.28562 0.16193 0.0
H122 H 0.88803 0.42616 0.18625 0.0
H123 H 0.73905 0.47415 0.18741 0.0
O124 O 0.85074 0.47682 0.09841 0.0
O125 O 0.75366 0.47565 0.10094 0.0
O126 O 0.66022 0.3411 0.12306 0.0
C127 C 0.82133 0.50871 0.09868 0.0
H128 H 0.62594 0.2717 0.95923 0.0
H129 H 0.91681 0.48867 0.26514 0.0
H130 H 0.7766 0.23652 0.19019 0.0
H131 H 0.92723 0.33756 0.10037 0.0
Co132 Co 0.39944 0.71992 0.90793 0.0
C133 C 0.3948 0.71077 1.00559 0.0
C134 C 0.48857 0.72056 0.98948 0.0
C135 C 0.48856 0.7144 0.03489 0.0
N136 N 0.42983 0.71848 0.97111 0.0
N137 N 0.42949 0.7082 0.04503 0.0
H138 H 0.34485 0.70702 1.00199 0.0
H139 H 0.52809 0.72472 0.9712 0.0
C140 C 0.52454 0.7581 0.86096 0.0
O141 O 0.47994 0.72008 0.82514 0.0
N142 N 0.36727 0.72153 0.84545 0.0
C143 C 0.30364 0.67832 0.81997 0.0
C144 C 0.29657 0.70339 0.78079 0.0
C145 C 0.39647 0.77318 0.82217 0.0
N146 N 0.35509 0.76301 0.78216 0.0
C147 C 0.30261 0.58375 0.89316 0.0
C148 C 0.39808 0.55614 0.87386 0.0
C149 C 0.32499 0.50774 0.86491 0.0
C150 C 0.27749 0.5217 0.87687 0.0
C151 C 0.42095 0.61766 0.89048 0.0
N152 N 0.37282 0.63214 0.89637 0.0
H153 H 0.26437 0.59319 0.90093 0.0
H154 H 0.47739 0.65315 0.89782 0.0
H155 H 0.26368 0.63243 0.82919 0.0
H156 H 0.44733 0.81727 0.8343 0.0
O157 O 0.30931 0.70301 0.91912 0.0
O158 O 0.40739 0.79904 0.92033 0.0
O159 O 0.50117 0.76002 0.89681 0.0
C160 C 0.33924 0.76445 0.92093 0.0
H161 H 0.5281 0.71273 0.05824 0.0
H162 H 0.25298 0.67848 0.7526 0.0
H163 H 0.43732 0.54734 0.86678 0.0
H164 H 0.22094 0.48523 0.87297 0.0
Co165 Co 0.41034 0.7076 0.43757 0.0
C166 C 0.40935 0.70505 0.33945 0.0
C167 C 0.3063 0.63405 0.35412 0.0
C168 C 0.30361 0.62989 0.30815 0.0
N169 N 0.37275 0.68131 0.37377 0.0
N170 N 0.36861 0.67449 0.299 0.0
H171 H 0.46492 0.74384 0.34391 0.0
H172 H 0.26277 0.60365 0.37162 0.0
C173 C 0.26942 0.65547 0.46503 0.0
O174 O 0.28532 0.714 0.46724 0.0
N175 N 0.45099 0.73536 0.50062 0.0
C176 C 0.51145 0.74196 0.52127 0.0
C177 C 0.53288 0.77588 0.56251 0.0
C178 C 0.43816 0.76756 0.52898 0.0
N179 N 0.48699 0.79243 0.56728 0.0
C180 C 0.48598 0.65164 0.42064 0.0
C181 C 0.44269 0.57113 0.48855 0.0
C182 C 0.50168 0.58314 0.4704 0.0
C183 C 0.52055 0.6212 0.43419 0.0
C184 C 0.40905 0.60179 0.47367 0.0
N185 N 0.43345 0.64419 0.44192 0.0
H186 H 0.50547 0.68534 0.39569 0.0
H187 H 0.36887 0.59673 0.49161 0.0
H188 H 0.54006 0.72563 0.50675 0.0
H189 H 0.39638 0.77559 0.52076 0.0
O190 O 0.49966 0.7805 0.42523 0.0
O191 O 0.40492 0.78102 0.43225 0.0
O192 O 0.31253 0.64357 0.45249 0.0
C193 C 0.47178 0.81328 0.42822 0.0
H194 H 0.25777 0.5954 0.28359 0.0
H195 H 0.57852 0.78681 0.58706 0.0
H196 H 0.42622 0.54275 0.51674 0.0
H197 H 0.56441 0.63049 0.41814 0.0
H198 H 0.29743 0.15301 0.12992 0.0
H199 H 0.34133 0.16468 0.27514 0.0
H200 H 0.46906 0.22913 0.27407 0.0
H201 H 0.56823 0.28367 0.23238 0.0
H202 H 0.52578 0.27256 0.08711 0.0
H203 H 0.39746 0.20594 0.08784 0.0
C204 C 0.33482 0.16924 0.1614 0.0
C205 C 0.30931 0.15409 0.20267 0.0
C206 C 0.40854 0.2064 0.16053 0.0
C207 C 0.35893 0.17596 0.24298 0.0
C208 C 0.4322 0.21274 0.24237 0.0
C209 C 0.53117 0.26656 0.20071 0.0
C210 C 0.55703 0.28323 0.15967 0.0
C211 C 0.45757 0.22853 0.20139 0.0
C212 C 0.5077 0.26051 0.11917 0.0
C213 C 0.43421 0.22244 0.11958 0.0
H214 H 0.09281 0.23908 0.24108 0.0
H215 H 0.90564 0.05911 0.26148 0.0
H216 H 0.82965 0.09334 0.2268 0.0
H217 H 0.81631 0.17061 0.18468 0.0
H218 H 1.00474 0.35127 0.16588 0.0
H219 H 0.07988 0.31914 0.2043 0.0
C220 C 1.03546 0.20775 0.23887 0.0
C221 C 1.00504 0.14662 0.25393 0.0
C222 C 0.99209 0.227 0.21781 0.0
C223 C 0.93056 0.10659 0.25046 0.0
C224 C 0.887 0.12587 0.23014 0.0
C225 C 0.87376 0.20343 0.18938 0.0
C226 C 0.90431 0.26307 0.17155 0.0
C227 C 0.91715 0.18535 0.21264 0.0
C228 C 0.97916 0.30432 0.17779 0.0
C229 C 1.02247 0.28641 0.20045 0.0
H230 H 0.77831 0.58369 0.12364 0.0
H231 H 0.96553 0.58987 0.10425 0.0
H232 H 1.04173 0.69745 0.14307 0.0
H233 H 1.05501 0.78525 0.18854 0.0
H234 H 0.86709 0.78039 0.20504 0.0
H235 H 0.79179 0.67551 0.16332 0.0
C236 C 0.83576 0.6091 0.12683 0.0
C237 C 0.86604 0.57863 0.1109 0.0
C238 C 0.87933 0.67033 0.15023 0.0
C239 C 0.94068 0.61222 0.11586 0.0
C240 C 0.98436 0.67351 0.1386 0.0
C241 C 0.99771 0.76207 0.1826 0.0
C242 C 0.9675 0.79133 0.20084 0.0
C243 C 0.95425 0.70233 0.157 0.0
C244 C 0.89263 0.759 0.19301 0.0
C245 C 0.84916 0.69915 0.16834 0.0
H246 H 0.23908 0.23252 0.79642 0.0
H247 H 1.05698 0.22609 0.72539 0.0
H248 H 0.11171 0.33781 0.75237 0.0
H249 H 0.20601 0.43374 0.80147 0.0
H250 H 0.38332 0.43714 0.87801 0.0
H251 H 0.33624 0.33056 0.8433 0.0
C252 C 0.21249 0.25627 0.78575 0.0
C253 C 0.14464 0.22159 0.75834 0.0
C254 C 0.24285 0.31959 0.80311 0.0
C255 C 0.10964 0.25219 0.74596 0.0
C256 C 0.14062 0.31581 0.76174 0.0
C257 C 0.23427 0.41113 0.81085 0.0
C258 C 0.29788 0.44348 0.84277 0.0
C259 C 0.20619 0.34933 0.7914 0.0
C260 C 0.33454 0.41381 0.85346 0.0
C261 C 0.30748 0.35264 0.83372 0.0
H262 H 0.59048 0.78091 0.78775 0.0
H263 H 0.63424 0.82591 0.93191 0.0
H264 H 0.76198 0.89282 0.93034 0.0
H265 H 0.86128 0.93954 0.88824 0.0
H266 H 0.81821 0.89597 0.74402 0.0
H267 H 0.69039 0.82784 0.74549 0.0
C268 C 0.62791 0.80499 0.81891 0.0
C269 C 0.60245 0.79793 0.85996 0.0
C270 C 0.70155 0.84392 0.81775 0.0
C271 C 0.652 0.83027 0.89985 0.0
C272 C 0.72521 0.8686 0.89899 0.0
C273 C 0.82413 0.91491 0.85705 0.0
C274 C 0.84983 0.92312 0.81601 0.0
C275 C 0.75059 0.87586 0.85815 0.0
C276 C 0.80039 0.8911 0.77604 0.0
C277 C 0.7271 0.85186 0.77689 0.0
H278 H 0.10971 0.81527 0.8348 0.0
H279 H 0.29988 0.99884 0.82306 0.0
H280 H 0.37332 0.96593 0.86299 0.0
H281 H 0.38451 0.88434 0.89945 0.0
H282 H 0.19488 0.70246 0.91376 0.0
H283 H 0.12062 0.73719 0.87703 0.0
C284 C 0.16709 0.84877 0.84144 0.0
C285 C 0.19852 0.90945 0.82505 0.0
C286 C 0.20944 0.83037 0.86586 0.0
C287 C 0.27347 0.95116 0.83373 0.0
C288 C 0.31584 0.93278 0.85732 0.0
C289 C 0.32694 0.85279 0.89562 0.0
C290 C 0.29544 0.79088 0.90957 0.0
C291 C 0.28447 0.87248 0.87344 0.0
C292 C 0.22067 0.75051 0.90371 0.0
C293 C 0.1781 0.77009 0.88219 0.0
H294 H 0.96174 0.41609 0.47728 0.0
H295 H 0.98168 0.54103 0.58461 0.0
H296 H 0.1032 0.62236 0.5736 0.0
H297 H 0.20044 0.66093 0.52937 0.0
H298 H 0.18363 0.53279 0.42597 0.0
H299 H 1.06437 0.4497 0.43945 0.0
C300 C 0.99308 0.46082 0.49866 0.0
C301 C 0.96251 0.47273 0.53149 0.0
C302 C 1.06317 0.50699 0.49246 0.0
C303 C 1.00402 0.53059 0.55925 0.0
C304 C 0.07332 0.57729 0.55272 0.0
C305 C 0.1707 0.61462 0.51 0.0
C306 C 0.20022 0.60332 0.47615 0.0
C307 C 0.10287 0.56654 0.51877 0.0
C308 C 0.1619 0.54277 0.45198 0.0
C309 C 0.09366 0.4953 0.45964 0.0
H310 H 0.73922 0.54246 0.56229 0.0
H311 H 0.55478 0.36634 0.59065 0.0
H312 H 0.47712 0.39826 0.55475 0.0
H313 H 0.46127 0.47248 0.51006 0.0
H314 H 0.6471 0.64872 0.4825 0.0
H315 H 0.72404 0.61896 0.52172 0.0
C316 C 0.68218 0.5116 0.56162 0.0
C317 C 0.65294 0.45224 0.57942 0.0
C318 C 0.63778 0.52929 0.53969 0.0
C319 C 0.57876 0.41254 0.57758 0.0
C320 C 0.53425 0.43045 0.55657 0.0
C321 C 0.51859 0.50475 0.5129 0.0
C322 C 0.54782 0.56249 0.49258 0.0
C323 C 0.56308 0.48807 0.53655 0.0
C324 C 0.62246 0.60313 0.49644 0.0
C325 C 0.66684 0.58664 0.51955 0.0
H326 H 0.42972 0.89049 0.44895 0.0
H327 H 0.6167 0.89277 0.43555 0.0
H328 H 0.69311 1.00219 0.47141 0.0
H329 H 0.70637 0.09327 0.51278 0.0
H330 H 0.51827 0.09107 0.52366 0.0
H331 H 0.44316 0.98467 0.48427 0.0
C332 C 0.4872 0.91532 0.45291 0.0
C333 C 0.51733 0.88336 0.4395 0.0
C334 C 0.53079 0.97762 0.47451 0.0
C335 C 0.59198 0.91629 0.44525 0.0
C336 C 0.63576 0.97867 0.46625 0.0
C337 C 0.64909 0.07018 0.50611 0.0
C338 C 0.61862 0.10055 0.52222 0.0
C339 C 0.6057 1.00922 0.48209 0.0
C340 C 0.54383 0.06872 0.51331 0.0
C341 C 0.50051 1.00796 0.49004 0.0
H342 H 0.1259 0.10469 0.59867 0.0
H343 H 0.9324 0.9213 0.55123 0.0
H344 H 0.96143 0.93253 0.47551 0.0
H345 H 1.04182 0.99464 0.42224 0.0
H346 H 0.23475 0.17854 0.46989 0.0
H347 H 0.20655 0.16635 0.54563 0.0
C348 C 0.09046 0.06686 0.57194 0.0
C349 C 1.02687 1.01231 0.58087 0.0
C350 C 0.10744 0.07365 0.52822 0.0
C351 C 0.98119 0.96422 0.5454 0.0
C352 C 0.99791 0.97048 0.502 0.0
C353 C 0.07746 1.03225 0.44907 0.0
C354 C 0.14058 0.08729 0.44001 0.0
C355 C 1.0607 1.02517 0.49288 0.0
C356 C 0.18641 0.13513 0.47563 0.0
C357 C 0.17011 0.12842 0.51913 0.0
H358 H 0.64398 0.32075 0.89047 0.0
H359 H 0.86315 0.43198 0.95798 0.0
H360 H 0.90347 0.44981 0.88551 0.0
H361 H 0.87674 0.43276 0.80275 0.0
H362 H 0.65752 0.31899 0.73538 0.0
H363 H 0.61725 0.30339 0.80776 0.0
C364 C 0.70054 0.34854 0.88937 0.0
C365 C 0.75026 0.375 0.9298 0.0
C366 C 0.72351 0.35829 0.84747 0.0
C367 C 0.82349 0.41176 0.92756 0.0
C368 C 0.84671 0.42164 0.88605 0.0
C369 C 0.82018 0.40418 0.80388 0.0
C370 C 0.77044 0.37729 0.76346 0.0
C371 C 0.79722 0.39497 0.84577 0.0
C372 C 0.69721 0.34115 0.76571 0.0
C373 C 0.67401 0.33178 0.80721 0.0
H374 H 0.28529 0.64662 0.2175 0.0
H375 H 0.50281 0.72739 0.28204 0.0
H376 H 0.54102 0.7467 0.20905 0.0
H377 H 0.51302 0.74006 0.12685 0.0
H378 H 0.29475 0.65448 0.06177 0.0
H379 H 0.2569 0.63799 0.1349 0.0
C380 C 0.34094 0.66793 0.21566 0.0
C381 C 0.39091 0.68566 0.25552 0.0
C382 C 0.36266 0.67829 0.17337 0.0
C383 C 0.4631 0.71415 0.25225 0.0
C384 C 0.48507 0.72485 0.21037 0.0
C385 C 0.45705 0.71722 0.12846 0.0
C386 C 0.40709 0.69869 0.08849 0.0
C387 C 0.43532 0.70701 0.1707 0.0
C388 C 0.33486 0.67019 0.0917 0.0
C389 C 0.31293 0.66026 0.13363 0.0
H390 H 0.14398 0.17047 0.09631 0.0
H391 H 0.91613 0.04038 0.05807 0.0
H392 H 0.92508 0.06064 0.97935 0.0
H393 H 1.00056 0.09442 0.92138 0.0
H394 H 0.22874 0.22061 0.95959 0.0
H395 H 0.21682 0.22462 0.03858 0.0
C396 C 0.09598 0.14846 0.0711 0.0
C397 C 1.02979 0.10227 0.08269 0.0
C398 C 0.10183 0.15902 0.02581 0.0
C399 C 0.968 0.07454 0.04961 0.0
C400 C 0.97308 0.08613 1.00463 0.0
C401 C 1.04742 0.12493 0.94671 0.0
C402 C 0.11556 0.15558 0.93504 0.0
C403 C 1.0402 0.12509 0.99211 0.0
C404 C 0.17585 0.19525 0.96817 0.0
C405 C 0.16905 0.19733 0.01329 0.0
H406 H 0.69906 0.45546 0.25676 0.0
H407 H 0.92424 0.5749 0.30955 0.0
H408 H 0.89897 0.56991 0.38605 0.0
H409 H 0.81573 0.5058 0.43606 0.0
H410 H 0.59125 0.37855 0.38283 0.0
H411 H 0.61311 0.41321 0.30794 0.0
C412 C 0.7426 0.48275 0.28471 0.0
C413 C 0.81351 0.51338 0.27793 0.0
C414 C 0.72765 0.47668 0.32849 0.0
C415 C 0.86926 0.54932 0.31439 0.0
C416 C 0.85479 0.54614 0.35805 0.0
C417 C 0.77108 0.4874 0.4086 0.0
C418 C 0.70239 0.43763 0.41447 0.0
C419 C 0.7845 0.50577 0.36551 0.0
C420 C 0.64506 0.41509 0.3786 0.0
C421 C 0.65753 0.43499 0.33585 0.0
H422 H 0.37595 0.79466 0.58623 0.0
H423 H 0.59343 0.85895 0.63962 0.0
H424 H 0.5754 0.87344 0.71505 0.0
H425 H 0.48881 0.83793 0.76562 0.0
H426 H 0.27005 0.76783 0.71221 0.0
H427 H 0.29867 0.7883 0.63651 0.0
C428 C 0.42041 0.81374 0.61381 0.0
C429 C 0.48452 0.82156 0.60749 0.0
C430 C 0.40918 0.82049 0.65723 0.0
C431 C 0.54204 0.84878 0.64379 0.0
C432 C 0.53199 0.85757 0.68702 0.0
C433 C 0.44799 0.82974 0.73784 0.0
C434 C 0.37672 0.79858 0.7439 0.0
C435 C 0.46418 0.83879 0.69437 0.0
C436 C 0.32478 0.78956 0.70777 0.0
C437 C 0.34108 0.801 0.66455 0.0
loop_
_geom_bond_atom_site_label_1
_geom_bond_atom_site_label_2
_geom_bond_distance
_geom_bond_site_symmetry_2
_ccdc_geom_bond_type
Co0 N4 2.148 . S
Co0 N10 2.128 . S
Co0 N20 2.194 1_445 S
Co0 O25 2.351 1_455 S
Co0 O26 2.155 . S
Co0 O27 2.096 . S
C1 N4 1.301 . S
C1 N5 1.328 . S
C1 H6 0.930 1_455 S
C2 C3 1.333 . S
C2 N4 1.317 . S
C2 H7 0.930 . S
C3 C2 1.333 . S
C3 N5 1.350 . S
C3 H29 0.931 . S
N4 Co0 2.148 . S
N4 C1 1.301 . S
N4 C2 1.317 . S
N5 C1 1.328 . S
N5 C3 1.350 . S
H6 C1 0.930 1_655 S
H7 C2 0.930 . S
C8 O9 1.224 . S
C8 O27 1.247 . S
O9 C8 1.224 . S
N10 Co0 2.128 . S
N10 C11 1.355 1_445 S
N10 C13 1.311 . S
C11 N10 1.355 1_665 S
C11 C12 1.363 . S
C11 H23 0.929 . S
C12 C11 1.363 . S
C12 N14 1.375 1_665 S
C12 H30 0.931 . S
C13 N10 1.311 . S
C13 N14 1.347 . S
C13 H24 0.929 . S
N14 C12 1.375 1_445 S
N14 C13 1.347 . S
C15 C18 1.365 . S
C15 N20 1.328 . S
C15 H21 0.929 . S
C16 C17 1.362 . S
C16 C19 1.378 1_655 S
C16 H31 0.929 1_655 S
C17 C16 1.362 . S
C17 C18 1.366 . S
C18 C15 1.365 . S
C18 C17 1.366 . S
C18 H32 0.930 . S
C19 C16 1.378 1_455 S
C19 N20 1.315 1_455 S
C19 H22 0.930 . S
N20 Co0 2.194 1_665 S
N20 C15 1.328 . S
N20 C19 1.315 1_655 S
H21 C15 0.929 . S
H22 C19 0.930 . S
H23 C11 0.929 . S
H24 C13 0.929 . S
O25 Co0 2.351 1_655 S
O25 C28 1.244 . S
O26 Co0 2.155 . S
O26 C28 1.240 1_455 S
O27 Co0 2.096 . S
O27 C8 1.247 . S
C28 O25 1.244 . S
C28 O26 1.240 1_655 S
H29 C3 0.931 . S
H30 C12 0.931 . S
H31 C16 0.929 1_455 S
H32 C18 0.930 . S
Co33 N37 2.148 . S
Co33 N43 2.128 1_655 S
Co33 N53 2.194 1_645 S
Co33 O58 2.351 1_655 S
Co33 O59 2.155 1_655 S
Co33 O60 2.096 1_545 S
C34 N37 1.301 1_455 S
C34 N38 1.328 1_455 S
C34 H39 0.930 . S
C35 C36 1.333 . S
C35 N37 1.317 1_565 S
C35 H40 0.930 . S
C36 C35 1.333 . S
C36 N38 1.350 1_565 S
C36 H62 0.931 . S
N37 Co33 2.148 . S
N37 C34 1.301 1_655 S
N37 C35 1.317 1_545 S
N38 C34 1.328 1_655 S
N38 C36 1.350 1_545 S
H39 C34 0.930 . S
H40 C35 0.930 . S
C41 O42 1.224 . S
C41 O60 1.247 . S
O42 C41 1.224 . S
N43 Co33 2.128 1_455 S
N43 C44 1.355 . S
N43 C46 1.311 1_455 S
C44 N43 1.355 . S
C44 C45 1.363 . S
C44 H56 0.929 . S
C45 C44 1.363 . S
C45 N47 1.375 . S
C45 H63 0.931 . S
C46 N43 1.311 1_655 S
C46 N47 1.347 1_655 S
C46 H57 0.929 1_545 S
N47 C45 1.375 . S
N47 C46 1.347 1_455 S
C48 C51 1.365 1_545 S
C48 N53 1.328 1_545 S
C48 H54 0.929 . S
C49 C50 1.362 . S
C49 C52 1.378 . S
C49 H64 0.929 . S
C50 C49 1.362 . S
C50 C51 1.366 . S
C51 C48 1.365 1_565 S
C51 C50 1.366 . S
C51 H65 0.930 . S
C52 C49 1.378 . S
C52 N53 1.315 . S
C52 H55 0.930 1_455 S
N53 Co33 2.194 1_465 S
N53 C48 1.328 1_565 S
N53 C52 1.315 . S
H54 C48 0.929 . S
H55 C52 0.930 1_655 S
H56 C44 0.929 . S
H57 C46 0.929 1_565 S
O58 Co33 2.351 1_455 S
O58 C61 1.244 . S
O59 Co33 2.155 1_455 S
O59 C61 1.240 . S
O60 Co33 2.096 1_565 S
O60 C41 1.247 . S
C61 O58 1.244 . S
C61 O59 1.240 . S
H62 C36 0.931 . S
H63 C45 0.931 . S
H64 C49 0.929 . S
H65 C51 0.930 . S
Co66 N70 2.148 . S
Co66 N76 2.128 . S
Co66 N86 2.194 . S
Co66 O91 2.351 . S
Co66 O92 2.155 . S
Co66 O93 2.096 . S
C67 N70 1.301 . S
C67 N71 1.328 . S
C67 H72 0.930 . S
C68 C69 1.333 . S
C68 N70 1.317 . S
C68 H73 0.930 . S
C69 C68 1.333 . S
C69 N71 1.350 . S
C69 H95 0.931 . S
N70 Co66 2.148 . S
N70 C67 1.301 . S
N70 C68 1.317 . S
N71 C67 1.328 . S
N71 C69 1.350 . S
H72 C67 0.930 . S
H73 C68 0.930 . S
C74 O75 1.224 . S
C74 O93 1.247 . S
O75 C74 1.224 . S
N76 Co66 2.128 . S
N76 C77 1.355 . S
N76 C79 1.311 . S
C77 N76 1.355 . S
C77 C78 1.363 . S
C77 H89 0.929 . S
C78 C77 1.363 . S
C78 N80 1.375 . S
C78 H96 0.931 . S
C79 N76 1.311 . S
C79 N80 1.347 . S
C79 H90 0.929 . S
N80 C78 1.375 . S
N80 C79 1.347 . S
C81 C84 1.365 . S
C81 N86 1.328 . S
C81 H87 0.929 . S
C82 C83 1.362 . S
C82 C85 1.378 . S
C82 H97 0.929 . S
C83 C82 1.362 . S
C83 C84 1.366 . S
C84 C81 1.365 . S
C84 C83 1.366 . S
C84 H98 0.930 . S
C85 C82 1.378 . S
C85 N86 1.315 . S
C85 H88 0.930 . S
N86 Co66 2.194 . S
N86 C81 1.328 . S
N86 C85 1.315 . S
H87 C81 0.929 . S
H88 C85 0.930 . S
H89 C77 0.929 . S
H90 C79 0.929 . S
O91 Co66 2.351 . S
O91 C94 1.244 . S
O92 Co66 2.155 . S
O92 C94 1.240 . S
O93 Co66 2.096 . S
O93 C74 1.247 . S
C94 O91 1.244 . S
C94 O92 1.240 . S
H95 C69 0.931 . S
H96 C78 0.931 . S
H97 C82 0.929 . S
H98 C84 0.930 . S
Co99 N103 2.148 . S
Co99 N109 2.128 . S
Co99 N119 2.194 . S
Co99 O124 2.351 . S
Co99 O125 2.155 . S
Co99 O126 2.096 . S
C100 N103 1.301 . S
C100 N104 1.328 1_554 S
C100 H105 0.930 . S
C101 C102 1.333 1_554 S
C101 N103 1.317 . S
C101 H106 0.930 . S
C102 C101 1.333 1_556 S
C102 N104 1.350 . S
C102 H128 0.931 . S
N103 Co99 2.148 . S
N103 C100 1.301 . S
N103 C101 1.317 . S
N104 C100 1.328 1_556 S
N104 C102 1.350 . S
H105 C100 0.930 . S
H106 C101 0.930 . S
C107 O108 1.224 . S
C107 O126 1.247 . S
O108 C107 1.224 . S
N109 Co99 2.128 . S
N109 C110 1.355 . S
N109 C112 1.311 . S
C110 N109 1.355 . S
C110 C111 1.363 . S
C110 H122 0.929 . S
C111 C110 1.363 . S
C111 N113 1.375 . S
C111 H129 0.931 . S
C112 N109 1.311 . S
C112 N113 1.347 . S
C112 H123 0.929 . S
N113 C111 1.375 . S
N113 C112 1.347 . S
C114 C117 1.365 . S
C114 N119 1.328 . S
C114 H120 0.929 . S
C115 C116 1.362 . S
C115 C118 1.378 . S
C115 H130 0.929 . S
C116 C115 1.362 . S
C116 C117 1.366 . S
C117 C114 1.365 . S
C117 C116 1.366 . S
C117 H131 0.930 . S
C118 C115 1.378 . S
C118 N119 1.315 . S
C118 H121 0.930 . S
N119 Co99 2.194 . S
N119 C114 1.328 . S
N119 C118 1.315 . S
H120 C114 0.929 . S
H121 C118 0.930 . S
H122 C110 0.929 . S
H123 C112 0.929 . S
O124 Co99 2.351 . S
O124 C127 1.244 . S
O125 Co99 2.155 . S
O125 C127 1.240 . S
O126 Co99 2.096 . S
O126 C107 1.247 . S
C127 O124 1.244 . S
C127 O125 1.240 . S
H128 C102 0.931 . S
H129 C111 0.931 . S
H130 C115 0.929 . S
H131 C117 0.930 . S
Co132 N136 2.148 . S
Co132 N142 2.128 . S
Co132 N152 2.194 . S
Co132 O157 2.351 . S
Co132 O158 2.155 . S
Co132 O159 2.096 . S
C133 N136 1.301 . S
C133 N137 1.328 1_556 S
C133 H138 0.930 . S
C134 C135 1.333 1_556 S
C134 N136 1.317 . S
C134 H139 0.930 . S
C135 C134 1.333 1_554 S
C135 N137 1.350 . S
C135 H161 0.931 . S
N136 Co132 2.148 . S
N136 C133 1.301 . S
N136 C134 1.317 . S
N137 C133 1.328 1_554 S
N137 C135 1.350 . S
H138 C133 0.930 . S
H139 C134 0.930 . S
C140 O141 1.224 . S
C140 O159 1.247 . S
O141 C140 1.224 . S
N142 Co132 2.128 . S
N142 C143 1.355 . S
N142 C145 1.311 . S
C143 N142 1.355 . S
C143 C144 1.363 . S
C143 H155 0.929 . S
C144 C143 1.363 . S
C144 N146 1.375 . S
C144 H162 0.931 . S
C145 N142 1.311 . S
C145 N146 1.347 . S
C145 H156 0.929 . S
N146 C144 1.375 . S
N146 C145 1.347 . S
C147 C150 1.365 . S
C147 N152 1.328 . S
C147 H153 0.929 . S
C148 C149 1.362 . S
C148 C151 1.378 . S
C148 H163 0.929 . S
C149 C148 1.362 . S
C149 C150 1.366 . S
C150 C147 1.365 . S
C150 C149 1.366 . S
C150 H164 0.930 . S
C151 C148 1.378 . S
C151 N152 1.315 . S
C151 H154 0.930 . S
N152 Co132 2.194 . S
N152 C147 1.328 . S
N152 C151 1.315 . S
H153 C147 0.929 . S
H154 C151 0.930 . S
H155 C143 0.929 . S
H156 C145 0.929 . S
O157 Co132 2.351 . S
O157 C160 1.244 . S
O158 Co132 2.155 . S
O158 C160 1.240 . S
O159 Co132 2.096 . S
O159 C140 1.247 . S
C160 O157 1.244 . S
C160 O158 1.240 . S
H161 C135 0.931 . S
H162 C144 0.931 . S
H163 C148 0.929 . S
H164 C150 0.930 . S
Co165 N169 2.148 . S
Co165 N175 2.128 . S
Co165 N185 2.194 . S
Co165 O190 2.351 . S
Co165 O191 2.155 . S
Co165 O192 2.096 . S
C166 N169 1.301 . S
C166 N170 1.328 . S
C166 H171 0.930 . S
C167 C168 1.333 . S
C167 N169 1.317 . S
C167 H172 0.930 . S
C168 C167 1.333 . S
C168 N170 1.350 . S
C168 H194 0.931 . S
N169 Co165 2.148 . S
N169 C166 1.301 . S
N169 C167 1.317 . S
N170 C166 1.328 . S
N170 C168 1.350 . S
H171 C166 0.930 . S
H172 C167 0.930 . S
C173 O174 1.224 . S
C173 O192 1.247 . S
O174 C173 1.224 . S
N175 Co165 2.128 . S
N175 C176 1.355 . S
N175 C178 1.311 . S
C176 N175 1.355 . S
C176 C177 1.363 . S
C176 H188 0.929 . S
C177 C176 1.363 . S
C177 N179 1.375 . S
C177 H195 0.931 . S
C178 N175 1.311 . S
C178 N179 1.347 . S
C178 H189 0.929 . S
N179 C177 1.375 . S
N179 C178 1.347 . S
C180 C183 1.365 . S
C180 N185 1.328 . S
C180 H186 0.929 . S
C181 C182 1.362 . S
C181 C184 1.378 . S
C181 H196 0.929 . S
C182 C181 1.362 . S
C182 C183 1.366 . S
C183 C180 1.365 . S
C183 C182 1.366 . S
C183 H197 0.930 . S
C184 C181 1.378 . S
C184 N185 1.315 . S
C184 H187 0.930 . S
N185 Co165 2.194 . S
N185 C180 1.328 . S
N185 C184 1.315 . S
H186 C180 0.929 . S
H187 C184 0.930 . S
H188 C176 0.929 . S
H189 C178 0.929 . S
O190 Co165 2.351 . S
O190 C193 1.244 . S
O191 Co165 2.155 . S
O191 C193 1.240 . S
O192 Co165 2.096 . S
O192 C173 1.247 . S
C193 O190 1.244 . S
C193 O191 1.240 . S
H194 C168 0.931 . S
H195 C177 0.931 . S
H196 C181 0.929 . S
H197 C183 0.930 . S
H198 C204 0.930 . S
H199 C207 0.930 . S
H200 C208 0.930 . S
H201 C209 0.930 . S
H202 C212 0.930 . S
H203 C213 0.930 . S
C204 H198 0.930 . S
C204 C205 1.355 . S
C204 C206 1.415 . S
C205 C204 1.355 . S
C205 C207 1.419 . S
C206 C204 1.415 . S
C206 C211 1.425 . S
C206 C213 1.409 . S
C207 H199 0.930 . S
C207 C205 1.419 . S
C207 C208 1.362 . S
C208 H200 0.930 . S
C208 C207 1.362 . S
C208 C211 1.409 . S
C209 H201 0.930 . S
C209 C210 1.355 . S
C209 C211 1.415 . S
C210 C209 1.355 . S
C210 C212 1.419 . S
C211 C206 1.425 . S
C211 C208 1.409 . S
C211 C209 1.415 . S
C212 H202 0.930 . S
C212 C210 1.419 . S
C212 C213 1.362 . S
C213 H203 0.930 . S
C213 C206 1.409 . S
C213 C212 1.362 . S
H214 C220 0.930 . S
H215 C223 0.930 . S
H216 C224 0.930 . S
H217 C225 0.930 . S
H218 C228 0.930 . S
H219 C229 0.930 . S
C220 H214 0.930 . S
C220 C221 1.355 . S
C220 C222 1.415 . S
C221 C220 1.355 . S
C221 C223 1.419 . S
C222 C220 1.415 . S
C222 C227 1.425 . S
C222 C229 1.409 . S
C223 H215 0.930 . S
C223 C221 1.419 . S
C223 C224 1.362 . S
C224 H216 0.930 . S
C224 C223 1.362 . S
C224 C227 1.409 . S
C225 H217 0.930 . S
C225 C226 1.355 . S
C225 C227 1.415 . S
C226 C225 1.355 . S
C226 C228 1.419 . S
C227 C222 1.425 . S
C227 C224 1.409 . S
C227 C225 1.415 . S
C228 H218 0.930 . S
C228 C226 1.419 . S
C228 C229 1.362 . S
C229 H219 0.930 . S
C229 C222 1.409 . S
C229 C228 1.362 . S
H230 C236 0.930 . S
H231 C239 0.930 . S
H232 C240 0.930 . S
H233 C241 0.930 . S
H234 C244 0.930 . S
H235 C245 0.930 . S
C236 H230 0.930 . S
C236 C237 1.355 . S
C236 C238 1.415 . S
C237 C236 1.355 . S
C237 C239 1.419 . S
C238 C236 1.415 . S
C238 C243 1.425 . S
C238 C245 1.409 . S
C239 H231 0.930 . S
C239 C237 1.419 . S
C239 C240 1.362 . S
C240 H232 0.930 . S
C240 C239 1.362 . S
C240 C243 1.409 . S
C241 H233 0.930 . S
C241 C242 1.355 . S
C241 C243 1.415 . S
C242 C241 1.355 . S
C242 C244 1.419 . S
C243 C238 1.425 . S
C243 C240 1.409 . S
C243 C241 1.415 . S
C244 H234 0.930 . S
C244 C242 1.419 . S
C244 C245 1.362 . S
C245 H235 0.930 . S
C245 C238 1.409 . S
C245 C244 1.362 . S
H246 C252 0.930 . S
H247 C255 0.930 . S
H248 C256 0.930 . S
H249 C257 0.930 . S
H250 C260 0.930 . S
H251 C261 0.930 . S
C252 H246 0.930 . S
C252 C253 1.355 . S
C252 C254 1.415 . S
C253 C252 1.355 . S
C253 C255 1.419 . S
C254 C252 1.415 . S
C254 C259 1.425 . S
C254 C261 1.409 . S
C255 H247 0.930 . S
C255 C253 1.419 . S
C255 C256 1.362 . S
C256 H248 0.930 . S
C256 C255 1.362 . S
C256 C259 1.409 . S
C257 H249 0.930 . S
C257 C258 1.355 . S
C257 C259 1.415 . S
C258 C257 1.355 . S
C258 C260 1.419 . S
C259 C254 1.425 . S
C259 C256 1.409 . S
C259 C257 1.415 . S
C260 H250 0.930 . S
C260 C258 1.419 . S
C260 C261 1.362 . S
C261 H251 0.930 . S
C261 C254 1.409 . S
C261 C260 1.362 . S
H262 C268 0.930 . S
H263 C271 0.930 . S
H264 C272 0.930 . S
H265 C273 0.930 . S
H266 C276 0.930 . S
H267 C277 0.930 . S
C268 H262 0.930 . S
C268 C269 1.355 . S
C268 C270 1.415 . S
C269 C268 1.355 . S
C269 C271 1.419 . S
C270 C268 1.415 . S
C270 C275 1.425 . S
C270 C277 1.409 . S
C271 H263 0.930 . S
C271 C269 1.419 . S
C271 C272 1.362 . S
C272 H264 0.930 . S
C272 C271 1.362 . S
C272 C275 1.409 . S
C273 H265 0.930 . S
C273 C274 1.355 . S
C273 C275 1.415 . S
C274 C273 1.355 . S
C274 C276 1.419 . S
C275 C270 1.425 . S
C275 C272 1.409 . S
C275 C273 1.415 . S
C276 H266 0.930 . S
C276 C274 1.419 . S
C276 C277 1.362 . S
C277 H267 0.930 . S
C277 C270 1.409 . S
C277 C276 1.362 . S
H278 C284 0.930 . S
H279 C287 0.930 . S
H280 C288 0.930 . S
H281 C289 0.930 . S
H282 C292 0.930 . S
H283 C293 0.930 . S
C284 H278 0.930 . S
C284 C285 1.355 . S
C284 C286 1.415 . S
C285 C284 1.355 . S
C285 C287 1.419 . S
C286 C284 1.415 . S
C286 C291 1.425 . S
C286 C293 1.409 . S
C287 H279 0.930 . S
C287 C285 1.419 . S
C287 C288 1.362 . S
C288 H280 0.930 . S
C288 C287 1.362 . S
C288 C291 1.409 . S
C289 H281 0.930 . S
C289 C290 1.355 . S
C289 C291 1.415 . S
C290 C289 1.355 . S
C290 C292 1.419 . S
C291 C286 1.425 . S
C291 C288 1.409 . S
C291 C289 1.415 . S
C292 H282 0.930 . S
C292 C290 1.419 . S
C292 C293 1.362 . S
C293 H283 0.930 . S
C293 C286 1.409 . S
C293 C292 1.362 . S
H294 C300 0.930 . S
H295 C303 0.930 . S
H296 C304 0.930 . S
H297 C305 0.930 . S
H298 C308 0.930 . S
H299 C309 0.930 1_655 S
C300 H294 0.930 . S
C300 C301 1.355 . S
C300 C302 1.415 . S
C301 C300 1.355 . S
C301 C303 1.419 . S
C302 C300 1.415 . S
C302 C307 1.425 1_655 S
C302 C309 1.409 1_655 S
C303 H295 0.930 . S
C303 C301 1.419 . S
C303 C304 1.362 1_655 S
C304 H296 0.930 . S
C304 C303 1.362 1_455 S
C304 C307 1.409 . S
C305 H297 0.930 . S
C305 C306 1.355 . S
C305 C307 1.415 . S
C306 C305 1.355 . S
C306 C308 1.419 . S
C307 C302 1.425 1_455 S
C307 C304 1.409 . S
C307 C305 1.415 . S
C308 H298 0.930 . S
C308 C306 1.419 . S
C308 C309 1.362 . S
C309 H299 0.930 1_455 S
C309 C302 1.409 1_455 S
C309 C308 1.362 . S
H310 C316 0.930 . S
H311 C319 0.930 . S
H312 C320 0.930 . S
H313 C321 0.930 . S
H314 C324 0.930 . S
H315 C325 0.930 . S
C316 H310 0.930 . S
C316 C317 1.355 . S
C316 C318 1.415 . S
C317 C316 1.355 . S
C317 C319 1.419 . S
C318 C316 1.415 . S
C318 C323 1.425 . S
C318 C325 1.409 . S
C319 H311 0.930 . S
C319 C317 1.419 . S
C319 C320 1.362 . S
C320 H312 0.930 . S
C320 C319 1.362 . S
C320 C323 1.409 . S
C321 H313 0.930 . S
C321 C322 1.355 . S
C321 C323 1.415 . S
C322 C321 1.355 . S
C322 C324 1.419 . S
C323 C318 1.425 . S
C323 C320 1.409 . S
C323 C321 1.415 . S
C324 H314 0.930 . S
C324 C322 1.419 . S
C324 C325 1.362 . S
C325 H315 0.930 . S
C325 C318 1.409 . S
C325 C324 1.362 . S
H326 C332 0.930 . S
H327 C335 0.930 . S
H328 C336 0.930 . S
H329 C337 0.930 . S
H330 C340 0.930 . S
H331 C341 0.930 . S
C332 H326 0.930 . S
C332 C333 1.355 . S
C332 C334 1.415 . S
C333 C332 1.355 . S
C333 C335 1.419 . S
C334 C332 1.415 . S
C334 C339 1.425 . S
C334 C341 1.409 . S
C335 H327 0.930 . S
C335 C333 1.419 . S
C335 C336 1.362 . S
C336 H328 0.930 . S
C336 C335 1.362 . S
C336 C339 1.409 . S
C337 H329 0.930 . S
C337 C338 1.355 . S
C337 C339 1.415 1_545 S
C338 C337 1.355 . S
C338 C340 1.419 . S
C339 C334 1.425 . S
C339 C336 1.409 . S
C339 C337 1.415 1_565 S
C340 H330 0.930 . S
C340 C338 1.419 . S
C340 C341 1.362 1_545 S
C341 H331 0.930 . S
C341 C334 1.409 . S
C341 C340 1.362 1_565 S
H342 C348 0.930 . S
H343 C351 0.930 . S
H344 C352 0.930 . S
H345 C353 0.937 . S
H346 C356 0.930 . S
H347 C357 0.930 . S
C348 H342 0.930 . S
C348 C349 1.355 1_455 S
C348 C350 1.415 . S
C349 C348 1.355 1_655 S
C349 C351 1.419 1_545 S
C350 C348 1.415 . S
C350 C355 1.425 1_455 S
C350 C357 1.409 . S
C351 H343 0.930 . S
C351 C349 1.419 1_565 S
C351 C352 1.362 . S
C352 H344 0.930 . S
C352 C351 1.362 . S
C352 C355 1.409 1_565 S
C353 H345 0.937 . S
C353 C354 1.350 1_665 S
C353 C355 1.413 1_565 S
C354 C353 1.350 1_445 S
C354 C356 1.419 . S
C355 C350 1.425 1_655 S
C355 C352 1.409 1_545 S
C355 C353 1.413 1_545 S
C356 H346 0.930 . S
C356 C354 1.419 . S
C356 C357 1.362 . S
C357 H347 0.930 . S
C357 C350 1.409 . S
C357 C356 1.362 . S
H358 C364 0.930 . S
H359 C367 0.930 . S
H360 C368 0.930 . S
H361 C369 0.930 . S
H362 C372 0.930 . S
H363 C373 0.930 . S
C364 H358 0.930 . S
C364 C365 1.355 . S
C364 C366 1.415 . S
C365 C364 1.355 . S
C365 C367 1.419 . S
C366 C364 1.415 . S
C366 C371 1.425 . S
C366 C373 1.409 . S
C367 H359 0.930 . S
C367 C365 1.419 . S
C367 C368 1.362 . S
C368 H360 0.930 . S
C368 C367 1.362 . S
C368 C371 1.409 . S
C369 H361 0.930 . S
C369 C370 1.355 . S
C369 C371 1.415 . S
C370 C369 1.355 . S
C370 C372 1.419 . S
C371 C366 1.425 . S
C371 C368 1.409 . S
C371 C369 1.415 . S
C372 H362 0.930 . S
C372 C370 1.419 . S
C372 C373 1.362 . S
C373 H363 0.930 . S
C373 C366 1.409 . S
C373 C372 1.362 . S
H374 C380 0.930 . S
H375 C383 0.930 . S
H376 C384 0.930 . S
H377 C385 0.930 . S
H378 C388 0.930 . S
H379 C389 0.930 . S
C380 H374 0.930 . S
C380 C381 1.355 . S
C380 C382 1.415 . S
C381 C380 1.355 . S
C381 C383 1.419 . S
C382 C380 1.415 . S
C382 C387 1.425 . S
C382 C389 1.409 . S
C383 H375 0.930 . S
C383 C381 1.419 . S
C383 C384 1.362 . S
C384 H376 0.930 . S
C384 C383 1.362 . S
C384 C387 1.409 . S
C385 H377 0.930 . S
C385 C386 1.355 . S
C385 C387 1.415 . S
C386 C385 1.355 . S
C386 C388 1.419 . S
C387 C382 1.425 . S
C387 C384 1.409 . S
C387 C385 1.415 . S
C388 H378 0.930 . S
C388 C386 1.419 . S
C388 C389 1.362 . S
C389 H379 0.930 . S
C389 C382 1.409 . S
C389 C388 1.362 . S
H390 C396 0.930 . S
H391 C399 0.930 . S
H392 C400 0.930 . S
H393 C401 0.930 . S
H394 C404 0.930 . S
H395 C405 0.930 . S
C396 H390 0.930 . S
C396 C397 1.355 . S
C396 C398 1.415 . S
C397 C396 1.355 . S
C397 C399 1.419 1_445 S
C398 C396 1.415 . S
C398 C403 1.425 1_444 S
C398 C405 1.409 1_554 S
C399 H391 0.930 . S
C399 C397 1.419 1_665 S
C399 C400 1.362 . S
C400 H392 0.930 . S
C400 C399 1.362 . S
C400 C403 1.409 1_554 S
C401 H393 0.930 . S
C401 C402 1.355 1_565 S
C401 C403 1.415 . S
C402 C401 1.355 1_545 S
C402 C404 1.419 1_655 S
C403 C398 1.425 1_666 S
C403 C400 1.409 1_556 S
C403 C401 1.415 . S
C404 H394 0.930 . S
C404 C402 1.419 1_455 S
C404 C405 1.362 . S
C405 H395 0.930 . S
C405 C398 1.409 1_556 S
C405 C404 1.362 . S
H406 C412 0.930 . S
H407 C415 0.930 . S
H408 C416 0.930 . S
H409 C417 0.930 . S
H410 C420 0.930 . S
H411 C421 0.930 . S
C412 H406 0.930 . S
C412 C413 1.355 . S
C412 C414 1.415 . S
C413 C412 1.355 . S
C413 C415 1.419 . S
C414 C412 1.415 . S
C414 C419 1.425 . S
C414 C421 1.409 . S
C415 H407 0.930 . S
C415 C413 1.419 . S
C415 C416 1.362 . S
C416 H408 0.930 . S
C416 C415 1.362 . S
C416 C419 1.409 . S
C417 H409 0.930 . S
C417 C418 1.355 . S
C417 C419 1.415 . S
C418 C417 1.355 . S
C418 C420 1.419 . S
C419 C414 1.425 . S
C419 C416 1.409 . S
C419 C417 1.415 . S
C420 H410 0.930 . S
C420 C418 1.419 . S
C420 C421 1.362 . S
C421 H411 0.930 . S
C421 C414 1.409 . S
C421 C420 1.362 . S
H422 C428 0.930 . S
H423 C431 0.930 . S
H424 C432 0.930 . S
H425 C433 0.930 . S
H426 C436 0.930 . S
H427 C437 0.930 . S
C428 H422 0.930 . S
C428 C429 1.355 . S
C428 C430 1.415 . S
C429 C428 1.355 . S
C429 C431 1.419 . S
C430 C428 1.415 . S
C430 C435 1.425 . S
C430 C437 1.409 . S
C431 H423 0.930 . S
C431 C429 1.419 . S
C431 C432 1.362 . S
C432 H424 0.930 . S
C432 C431 1.362 . S
C432 C435 1.409 . S
C433 H425 0.930 . S
C433 C434 1.355 . S
C433 C435 1.415 . S
C434 C433 1.355 . S
C434 C436 1.419 . S
C435 C430 1.425 . S
C435 C432 1.409 . S
C435 C433 1.415 . S
C436 H426 0.930 . S
C436 C434 1.419 . S
C436 C437 1.362 . S
C437 H427 0.930 . S
C437 C430 1.409 . S
C437 C436 1.362 . S
C205 C8 1.923 . S
C210 C107 1.925 . S
C221 C28 1.604 . S
C226 C116 1.632 . S
C237 C127 1.605 . S
C242 C17 1.633 . S
C253 C61 1.539 . S
C258 C149 1.598 . S
C269 C140 1.909 . S
C274 C41 1.913 . S
C285 C50 1.617 . S
C290 C160 1.577 . S
C301 C74 1.921 . S
C306 C173 1.918 . S
C317 C94 1.595 . S
C322 C182 1.626 . S
C333 C193 1.603 . S
C338 C83 1.631 . S
C349 N38 2.118 . S
C354 N5 2.118 . S
C365 N104 2.124 . S
C370 N71 2.129 . S
C381 N170 2.128 . S
C386 N137 2.134 . S
C397 N14 0.430 . S
C402 N47 0.431 1_655 S
C413 N113 0.542 . S
C418 N80 0.549 . S
C429 N179 0.438 . S
C434 N146 0.441 . S
