# Generated by pormake.
# Topology lcy-e, (6)-cn, num edge types: 1
# Building blocks:
#     Node 0, Type 0, BuildingBlock: NUHQIS_clean_sbu_0, # of connection points: 6
#     Node 1, Type 0, BuildingBlock: NUHQIS_clean_sbu_0, # of connection points: 6
#     Node 2, Type 0, BuildingBlock: NUHQIS_clean_sbu_0, # of connection points: 6
#     Node 3, Type 0, BuildingBlock: NUHQIS_clean_sbu_0, # of connection points: 6
#     Node 4, Type 0, BuildingBlock: NUHQIS_clean_sbu_0, # of connection points: 6
#     Node 5, Type 0, BuildingBlock: NUHQIS_clean_sbu_0, # of connection points: 6
#     Node 6, Type 0, BuildingBlock: NUHQIS_clean_sbu_0, # of connection points: 6
#     Node 7, Type 0, BuildingBlock: NUHQIS_clean_sbu_0, # of connection points: 6
#     Node 8, Type 0, BuildingBlock: NUHQIS_clean_sbu_0, # of connection points: 6
#     Node 9, Type 0, BuildingBlock: NUHQIS_clean_sbu_0, # of connection points: 6
#     Node 10, Type 0, BuildingBlock: NUHQIS_clean_sbu_0, # of connection points: 6
#     Node 11, Type 0, BuildingBlock: NUHQIS_clean_sbu_0, # of connection points: 6
#     Edge 12, Type (0, 0), BuildingBlock: XUDNAN_clean_linker_2, # of connection points: 2
#     Edge 13, Type (0, 0), BuildingBlock: XUDNAN_clean_linker_2, # of connection points: 2
#     Edge 14, Type (0, 0), BuildingBlock: XUDNAN_clean_linker_2, # of connection points: 2
#     Edge 15, Type (0, 0), BuildingBlock: XUDNAN_clean_linker_2, # of connection points: 2
#     Edge 16, Type (0, 0), BuildingBlock: XUDNAN_clean_linker_2, # of connection points: 2
#     Edge 17, Type (0, 0), BuildingBlock: XUDNAN_clean_linker_2, # of connection points: 2
#     Edge 18, Type (0, 0), BuildingBlock: XUDNAN_clean_linker_2, # of connection points: 2
#     Edge 19, Type (0, 0), BuildingBlock: XUDNAN_clean_linker_2, # of connection points: 2
#     Edge 20, Type (0, 0), BuildingBlock: XUDNAN_clean_linker_2, # of connection points: 2
#     Edge 21, Type (0, 0), BuildingBlock: XUDNAN_clean_linker_2, # of connection points: 2
#     Edge 22, Type (0, 0), BuildingBlock: XUDNAN_clean_linker_2, # of connection points: 2
#     Edge 23, Type (0, 0), BuildingBlock: XUDNAN_clean_linker_2, # of connection points: 2
#     Edge 24, Type (0, 0), BuildingBlock: XUDNAN_clean_linker_2, # of connection points: 2
#     Edge 25, Type (0, 0), BuildingBlock: XUDNAN_clean_linker_2, # of connection points: 2
#     Edge 26, Type (0, 0), BuildingBlock: XUDNAN_clean_linker_2, # of connection points: 2
#     Edge 27, Type (0, 0), BuildingBlock: XUDNAN_clean_linker_2, # of connection points: 2
#     Edge 28, Type (0, 0), BuildingBlock: XUDNAN_clean_linker_2, # of connection points: 2
#     Edge 29, Type (0, 0), BuildingBlock: XUDNAN_clean_linker_2, # of connection points: 2
#     Edge 30, Type (0, 0), BuildingBlock: XUDNAN_clean_linker_2, # of connection points: 2
#     Edge 31, Type (0, 0), BuildingBlock: XUDNAN_clean_linker_2, # of connection points: 2
#     Edge 32, Type (0, 0), BuildingBlock: XUDNAN_clean_linker_2, # of connection points: 2
#     Edge 33, Type (0, 0), BuildingBlock: XUDNAN_clean_linker_2, # of connection points: 2
#     Edge 34, Type (0, 0), BuildingBlock: XUDNAN_clean_linker_2, # of connection points: 2
#     Edge 35, Type (0, 0), BuildingBlock: XUDNAN_clean_linker_2, # of connection points: 2
#     Edge 36, Type (0, 0), BuildingBlock: XUDNAN_clean_linker_2, # of connection points: 2
#     Edge 37, Type (0, 0), BuildingBlock: XUDNAN_clean_linker_2, # of connection points: 2
#     Edge 38, Type (0, 0), BuildingBlock: XUDNAN_clean_linker_2, # of connection points: 2
#     Edge 39, Type (0, 0), BuildingBlock: XUDNAN_clean_linker_2, # of connection points: 2
#     Edge 40, Type (0, 0), BuildingBlock: XUDNAN_clean_linker_2, # of connection points: 2
#     Edge 41, Type (0, 0), BuildingBlock: XUDNAN_clean_linker_2, # of connection points: 2
#     Edge 42, Type (0, 0), BuildingBlock: XUDNAN_clean_linker_2, # of connection points: 2
#     Edge 43, Type (0, 0), BuildingBlock: XUDNAN_clean_linker_2, # of connection points: 2
#     Edge 44, Type (0, 0), BuildingBlock: XUDNAN_clean_linker_2, # of connection points: 2
#     Edge 45, Type (0, 0), BuildingBlock: XUDNAN_clean_linker_2, # of connection points: 2
#     Edge 46, Type (0, 0), BuildingBlock: XUDNAN_clean_linker_2, # of connection points: 2
#     Edge 47, Type (0, 0), BuildingBlock: XUDNAN_clean_linker_2, # of connection points: 2
# Relax obj value: 0.180
# Max RMSD: 0.286
# Mean RMSD: 0.270
data_MOF--net-lcy-e--node1-NUHQIS_clean_sbu_0--edge1-XUDNAN_clean_linker_2
_symmetry_space_group_name_H-M    P1
_symmetry_Int_Tables_number       1
_symmetry_cell_setting            triclinic
loop_
_symmetry_equiv_pos_as_xyz
'x, y, z'
_cell_length_a     43.690466
_cell_length_b     45.72601
_cell_length_c     43.49346
_cell_angle_alpha  89.595039
_cell_angle_beta   90.285115
_cell_angle_gamma 89.543705
loop_
_atom_site_label
_atom_site_type_symbol
_atom_site_fract_x
_atom_site_fract_y
_atom_site_fract_z
_atom_type_partial_charge
Tb0 Tb 0.1326 0.25892 0.5162 0.0
Eu1 Eu 0.12195 0.3071 0.46033 0.0
C2 C 0.179 0.26265 0.46208 0.0
C3 C 0.16265 0.32212 0.51674 0.0
C4 C 0.12599 0.19481 0.56941 0.0
C5 C 0.12617 0.15243 0.60329 0.0
C6 C 0.13943 0.1785 0.59332 0.0
C7 C 0.09889 0.18489 0.55565 0.0
C8 C 0.08554 0.15874 0.56563 0.0
C9 C 0.09911 0.14213 0.58953 0.0
C10 C 0.14154 0.22111 0.55806 0.0
O11 O 0.08612 0.27446 0.52145 0.0
O12 O 0.09376 0.32043 0.50242 0.0
O13 O 0.08427 0.2746 0.45565 0.0
O14 O 0.10756 0.2355 0.48003 0.0
C15 C 0.07967 0.30243 0.52141 0.0
O16 O 0.11772 0.35244 0.4444 0.0
O17 O 0.11257 0.31704 0.41198 0.0
O18 O 0.15794 0.27452 0.44412 0.0
O19 O 0.17562 0.26226 0.49201 0.0
O20 O 0.14737 0.30228 0.53255 0.0
O21 O 0.16322 0.32126 0.48672 0.0
C22 C 0.08663 0.24646 0.46115 0.0
O23 O 0.15262 0.21925 0.53038 0.0
O24 O 0.12776 0.24611 0.5625 0.0
C25 C 0.13148 0.36234 0.392 0.0
C26 C 0.15583 0.39815 0.34462 0.0
C27 C 0.15285 0.40869 0.3748 0.0
C28 C 0.14074 0.39109 0.39813 0.0
C29 C 0.13567 0.35133 0.36212 0.0
C30 C 0.14785 0.36898 0.33875 0.0
C31 C 0.11448 0.34528 0.41556 0.0
H32 H 0.13757 0.14 0.62134 0.0
H33 H 0.16052 0.18569 0.60396 0.0
H34 H 0.08828 0.1972 0.53701 0.0
H35 H 0.06458 0.1516 0.55473 0.0
H36 H 0.15918 0.43092 0.38026 0.0
H37 H 0.13771 0.40039 0.42076 0.0
H38 H 0.12849 0.32939 0.35646 0.0
H39 H 0.14959 0.36022 0.31574 0.0
Tb40 Tb 1.00449 0.90474 0.71713 0.0
Eu41 Eu 0.05826 0.93213 0.76222 0.0
C42 C 0.06914 0.87614 0.72057 0.0
C43 C 0.01395 0.88305 0.78566 0.0
C44 C 0.95212 0.89775 0.65022 0.0
C45 C 0.94752 0.89883 0.59442 0.0
C46 C 0.95942 0.88618 0.62132 0.0
C47 C 0.93191 0.92182 0.65172 0.0
C48 C 0.91974 0.9343 0.62477 0.0
C49 C 0.92774 0.92317 0.59582 0.0
C50 C 0.96691 0.88524 0.67814 0.0
O51 O 0.98335 0.94427 0.73462 0.0
O52 O 0.01378 0.95339 0.7772 0.0
O53 O 0.04737 0.96713 0.72798 0.0
O54 O 0.0298 0.93713 0.68991 0.0
C55 C 0.98827 0.957 0.76119 0.0
O56 O 0.07748 0.94 0.80784 0.0
O57 O 0.10286 0.95262 0.76724 0.0
O58 O 0.08029 0.9017 0.72802 0.0
O59 O 0.0397 0.87121 0.72252 0.0
O60 O 0.99397 0.88937 0.76379 0.0
O61 O 0.04275 0.89019 0.78326 0.0
C62 C 0.04032 0.96256 0.69916 0.0
O63 O 0.99644 0.88146 0.67649 0.0
O64 O 0.9589 0.89588 0.70468 0.0
C65 C 0.13097 0.93376 0.8092 0.0
C66 C 0.1838 0.9048 0.83187 0.0
C67 C 0.17591 0.93294 0.84231 0.0
C68 C 0.14971 0.94731 0.831 0.0
C69 C 0.1385 0.90558 0.79899 0.0
C70 C 0.16471 0.89126 0.81015 0.0
C71 C 0.10364 0.94892 0.79703 0.0
H72 H 0.95376 0.88952 0.57247 0.0
H73 H 0.9748 0.86757 0.61951 0.0
H74 H 0.92586 0.93134 0.67361 0.0
H75 H 0.90469 0.95315 0.62655 0.0
H76 H 0.19027 0.94406 0.8588 0.0
H77 H 0.1442 0.96905 0.83913 0.0
H78 H 0.12411 0.89468 0.78233 0.0
H79 H 0.16987 0.86946 0.80197 0.0
Tb80 Tb 0.38927 0.82548 0.00925 0.0
Eu81 Eu 0.40808 0.7709 0.96319 0.0
C82 C 0.35824 0.81831 0.94539 0.0
C83 C 0.35744 0.76357 0.01246 0.0
C84 C 0.38454 0.89584 0.05443 0.0
C85 C 0.3743 0.94171 0.08024 0.0
C86 C 0.36424 0.91484 0.06924 0.0
C87 C 0.41542 0.9037 0.05144 0.0
C88 C 0.42561 0.93069 0.06267 0.0
C89 C 0.40495 0.95022 0.07667 0.0
C90 C 0.37225 0.86891 0.04094 0.0
O91 O 0.42811 0.80569 0.03275 0.0
O92 O 0.42921 0.76013 0.00955 0.0
O93 O 0.45016 0.79759 0.96875 0.0
O94 O 0.42734 0.84144 0.98086 0.0
C95 C 0.4367 0.77807 0.03194 0.0
O96 O 0.4073 0.72456 0.9515 0.0
O97 O 0.42829 0.75569 0.92044 0.0
O98 O 0.38312 0.80536 0.93555 0.0
O99 O 0.35324 0.82077 0.97496 0.0
O100 O 0.36921 0.78536 0.0281 0.0
O101 O 0.36182 0.76173 0.98283 0.0
C102 C 0.45126 0.82605 0.97173 0.0
O103 O 0.37119 0.86807 0.01104 0.0
O104 O 0.38149 0.8441 0.05271 0.0
C105 C 0.40186 0.71659 0.89835 0.0
C106 C 0.37019 0.69465 0.8469 0.0
C107 C 0.39868 0.68265 0.85583 0.0
C108 C 0.41439 0.69357 0.88134 0.0
C109 C 0.37328 0.72839 0.88988 0.0
C110 C 0.35758 0.71752 0.86438 0.0
C111 C 0.41899 0.72887 0.92429 0.0
H112 H 0.35793 0.95602 0.09137 0.0
H113 H 0.34036 0.90913 0.0718 0.0
H114 H 0.4314 0.88928 0.03993 0.0
H115 H 0.44933 0.93669 0.05954 0.0
H116 H 0.4092 0.66528 0.84267 0.0
H117 H 0.4365 0.68432 0.88754 0.0
H118 H 0.36327 0.74618 0.90285 0.0
H119 H 0.33552 0.72699 0.8584 0.0
Tb120 Tb 0.51286 0.16882 0.21841 0.0
Eu121 Eu 0.4578 0.14033 0.26081 0.0
C122 C 0.44869 0.2007 0.22404 0.0
C123 C 0.49911 0.19483 0.28487 0.0
C124 C 0.56843 0.17152 0.15351 0.0
C125 C 0.563 0.15648 0.10012 0.0
C126 C 0.55064 0.16907 0.12664 0.0
C127 C 0.59888 0.16146 0.15312 0.0
C128 C 0.61117 0.14867 0.12672 0.0
C129 C 0.59337 0.14582 0.09986 0.0
C130 C 0.55563 0.18346 0.18241 0.0
O131 O 0.53328 0.14758 0.25806 0.0
O132 O 0.49955 0.1102 0.26294 0.0
O133 O 0.44891 0.12916 0.21163 0.0
O134 O 0.49895 0.12735 0.19772 0.0
C135 C 0.52725 0.12084 0.26665 0.0
O136 O 0.44058 0.12177 0.30389 0.0
O137 O 0.41094 0.12464 0.26392 0.0
O138 O 0.44273 0.18603 0.2493 0.0
O139 O 0.47127 0.19312 0.2057 0.0
O140 O 0.51276 0.1984 0.25799 0.0
O141 O 0.47982 0.17364 0.29076 0.0
C142 C 0.47035 0.12 0.19321 0.0
O143 O 0.52821 0.19492 0.18151 0.0
O144 O 0.55944 0.16711 0.20672 0.0
C145 C 0.38863 0.13427 0.31231 0.0
C146 C 0.34497 0.1623 0.35012 0.0
C147 C 0.35738 0.13481 0.35839 0.0
C148 C 0.37893 0.12094 0.33964 0.0
C149 C 0.37605 0.16159 0.30376 0.0
C150 C 0.35427 0.17537 0.32239 0.0
C151 C 0.41256 0.12007 0.29352 0.0
H152 H 0.5487 0.15519 0.07979 0.0
H153 H 0.52708 0.17663 0.12611 0.0
H154 H 0.6131 0.16303 0.17352 0.0
H155 H 0.63444 0.1404 0.12769 0.0
H156 H 0.35048 0.12404 0.37948 0.0
H157 H 0.38833 0.09992 0.34669 0.0
H158 H 0.38336 0.17251 0.2829 0.0
H159 H 0.34543 0.19665 0.31556 0.0
Tb160 Tb 0.64128 0.32331 0.48015 0.0
Eu161 Eu 0.61961 0.28047 0.53772 0.0
C162 C 0.66966 0.32867 0.5451 0.0
C163 C 0.67056 0.25993 0.48897 0.0
C164 C 0.6451 0.39027 0.4317 0.0
C165 C 0.62894 0.42708 0.39416 0.0
C166 C 0.64059 0.39918 0.4011 0.0
C167 C 0.63798 0.40991 0.45537 0.0
C168 C 0.62655 0.43798 0.44846 0.0
C169 C 0.62161 0.44694 0.41771 0.0
C170 C 0.65452 0.35969 0.43831 0.0
O171 O 0.61855 0.28621 0.46024 0.0
O172 O 0.58487 0.27572 0.49899 0.0
O173 O 0.5934 0.32252 0.54278 0.0
O174 O 0.5963 0.33984 0.49324 0.0
C175 C 0.59275 0.275 0.46976 0.0
O176 O 0.61013 0.23744 0.55793 0.0
O177 O 0.60523 0.27637 0.58542 0.0
O178 O 0.6651 0.3007 0.54976 0.0
O179 O 0.65421 0.34269 0.52367 0.0
O180 O 0.67547 0.28744 0.48069 0.0
O181 O 0.64823 0.25244 0.50733 0.0
C182 C 0.58402 0.34019 0.52075 0.0
O183 O 0.67166 0.3548 0.46255 0.0
O184 O 0.6327 0.3406 0.4361 0.0
C185 C 0.62216 0.23356 0.61097 0.0
C186 C 0.65197 0.20834 0.66266 0.0
C187 C 0.62308 0.19834 0.65313 0.0
C188 C 0.6083 0.2109 0.62756 0.0
C189 C 0.65135 0.24309 0.61984 0.0
C190 C 0.66607 0.23066 0.64549 0.0
C191 C 0.60551 0.24787 0.58534 0.0
H192 H 0.6249 0.43269 0.37026 0.0
H193 H 0.6454 0.38423 0.38248 0.0
H194 H 0.64083 0.40341 0.47923 0.0
H195 H 0.62158 0.45263 0.46726 0.0
H196 H 0.61146 0.18139 0.66597 0.0
H197 H 0.58576 0.20329 0.62108 0.0
H198 H 0.66255 0.26046 0.60722 0.0
H199 H 0.68849 0.23859 0.65194 0.0
Tb200 Tb 0.9656 0.42358 0.74091 0.0
Eu201 Eu 0.01807 0.39862 0.78991 0.0
C202 C 0.97393 0.45295 0.80505 0.0
C203 C 0.03182 0.44947 0.74473 0.0
C204 C 0.89852 0.43001 0.68686 0.0
C205 C 0.86118 0.43546 0.64571 0.0
C206 C 0.88783 0.44462 0.6605 0.0
C207 C 0.88272 0.4054 0.69776 0.0
C208 C 0.85592 0.39618 0.68292 0.0
C209 C 0.84453 0.4115 0.65705 0.0
C210 C 0.92541 0.44161 0.70309 0.0
O211 O 0.97924 0.3807 0.72485 0.0
O212 O 0.0288 0.38026 0.74228 0.0
O213 O 0.98199 0.36409 0.78805 0.0
O214 O 0.94197 0.39364 0.77221 0.0
C215 C 0.00788 0.37237 0.722 0.0
O216 O 0.06629 0.39495 0.80375 0.0
O217 O 0.03104 0.37749 0.83324 0.0
O218 O 0.98582 0.4284 0.81577 0.0
O219 O 0.97048 0.45744 0.77536 0.0
O220 O 0.0105 0.4396 0.72617 0.0
O221 O 0.03093 0.44328 0.77401 0.0
C222 C 0.95252 0.36917 0.78474 0.0
O223 O 0.92316 0.44403 0.73283 0.0
O224 O 0.95202 0.43124 0.69503 0.0
C225 C 0.07359 0.40026 0.8578 0.0
C226 C 0.09998 0.43098 0.90795 0.0
C227 C 0.1176 0.42353 0.88206 0.0
C228 C 0.10458 0.40832 0.85736 0.0
C229 C 0.05605 0.40741 0.88378 0.0
C230 C 0.06907 0.42246 0.90848 0.0
C231 C 0.05977 0.38486 0.83108 0.0
H232 H 0.85345 0.44738 0.62547 0.0
H233 H 0.89984 0.46351 0.65162 0.0
H234 H 0.89074 0.39373 0.71806 0.0
H235 H 0.84361 0.37771 0.69228 0.0
H236 H 0.14135 0.42993 0.88055 0.0
H237 H 0.11871 0.40312 0.83771 0.0
H238 H 0.03213 0.4015 0.88509 0.0
H239 H 0.05483 0.42721 0.92815 0.0
Tb240 Tb 0.89346 0.80357 0.03917 0.0
Eu241 Eu 0.88416 0.75506 0.98384 0.0
C242 C 0.93274 0.74591 0.03846 0.0
C243 C 0.93506 0.80326 0.97908 0.0
C244 C 0.88098 0.84916 0.10995 0.0
C245 C 0.86523 0.8444 0.16341 0.0
C246 C 0.88049 0.83332 0.1378 0.0
C247 C 0.86553 0.8762 0.10826 0.0
C248 C 0.85022 0.88729 0.13391 0.0
C249 C 0.85017 0.87167 0.16191 0.0
C250 C 0.89933 0.83854 0.08362 0.0
O251 O 0.85493 0.81954 0.01171 0.0
O252 O 0.86837 0.79928 0.9656 0.0
O253 O 0.83984 0.76027 1.00885 0.0
O254 O 0.85977 0.77204 0.05562 0.0
C255 C 0.85504 0.82018 0.98151 0.0
O256 O 0.88911 0.73963 0.93663 0.0
O257 O 0.86396 0.71383 0.96981 0.0
O258 O 0.91245 0.73274 0.02109 0.0
O259 O 0.93272 0.77439 0.04177 0.0
O260 O 0.92119 0.81884 1.00043 0.0
O261 O 0.92971 0.7753 0.97551 0.0
C262 C 0.83735 0.76171 0.03877 0.0
O263 O 0.90788 0.81119 0.08439 0.0
O264 O 0.89076 0.8466 0.05606 0.0
C265 C 0.88938 0.68818 0.93065 0.0
C266 C 0.9141 0.63442 0.91051 0.0
C267 C 0.88729 0.64611 0.89701 0.0
C268 C 0.87509 0.67272 0.907 0.0
C269 C 0.91633 0.67695 0.94405 0.0
C270 C 0.92861 0.65027 0.93405 0.0
C271 C 0.87493 0.71513 0.94201 0.0
H272 H 0.86612 0.83199 0.18469 0.0
H273 H 0.8925 0.8126 0.1401 0.0
H274 H 0.86569 0.88906 0.08724 0.0
H275 H 0.83858 0.90822 0.13185 0.0
H276 H 0.87522 0.63434 0.87921 0.0
H277 H 0.85413 0.68098 0.89658 0.0
H278 H 0.92763 0.68862 0.96244 0.0
H279 H 0.94946 0.6421 0.94472 0.0
Tb280 Tb 0.56006 0.65914 0.2563 0.0
Eu281 Eu 0.50244 0.68225 0.29814 0.0
C282 C 0.54694 0.62908 0.31955 0.0
C283 C 0.49404 0.63033 0.25259 0.0
C284 C 0.62799 0.65569 0.20407 0.0
C285 C 0.65968 0.65304 0.15855 0.0
C286 C 0.63864 0.64032 0.17849 0.0
C287 C 0.63922 0.68384 0.20994 0.0
C288 C 0.66061 0.69653 0.19005 0.0
C289 C 0.6706 0.6814 0.16386 0.0
C290 C 0.60408 0.64233 0.22313 0.0
O291 O 0.54538 0.69986 0.2359 0.0
O292 O 0.4948 0.69838 0.24882 0.0
O293 O 0.53523 0.71953 0.29535 0.0
O294 O 0.579 0.69281 0.28702 0.0
C295 C 0.51672 0.706 0.22967 0.0
O296 O 0.45326 0.68621 0.30654 0.0
O297 O 0.48564 0.70552 0.33824 0.0
O298 O 0.53175 0.65245 0.32867 0.0
O299 O 0.55395 0.62534 0.2906 0.0
O300 O 0.51778 0.64009 0.2371 0.0
O301 O 0.48912 0.63825 0.28093 0.0
C302 C 0.56511 0.71719 0.2954 0.0
O303 O 0.60607 0.6458 0.25281 0.0
O304 O 0.57615 0.64592 0.21316 0.0
C305 C 0.442 0.68279 0.35943 0.0
C306 C 0.41289 0.65038 0.4063 0.0
C307 C 0.39555 0.66433 0.38301 0.0
C308 C 0.41001 0.68041 0.35981 0.0
C309 C 0.4593 0.66927 0.38293 0.0
C310 C 0.4449 0.65347 0.40618 0.0
C311 C 0.45729 0.69775 0.33361 0.0
H312 H 0.66723 0.64078 0.13872 0.0
H313 H 0.63021 0.61861 0.17359 0.0
H314 H 0.63105 0.69616 0.22948 0.0
H315 H 0.66854 0.71849 0.19454 0.0
H316 H 0.37089 0.66219 0.38223 0.0
H317 H 0.39625 0.69048 0.34178 0.0
H318 H 0.48405 0.67052 0.38319 0.0
H319 H 0.45898 0.64359 0.42405 0.0
Tb320 Tb 0.24293 0.56548 0.12392 0.0
Eu321 Eu 0.28478 0.50629 0.11089 0.0
C322 C 0.23453 0.50804 0.1653 0.0
C323 C 0.30498 0.55295 0.15981 0.0
C324 C 0.17796 0.62032 0.12275 0.0
C325 C 0.12569 0.63023 0.13925 0.0
C326 C 0.15502 0.61906 0.14525 0.0
C327 C 0.17058 0.6325 0.09379 0.0
C328 C 0.14114 0.64371 0.08777 0.0
C329 C 0.1185 0.64322 0.11066 0.0
C330 C 0.20975 0.61082 0.13045 0.0
O331 O 0.26486 0.56964 0.07953 0.0
O332 O 0.30891 0.54577 0.09095 0.0
O333 O 0.25055 0.511 0.07219 0.0
O334 O 0.21327 0.53558 0.09867 0.0
C335 C 0.29454 0.56748 0.07712 0.0
O336 O 0.32973 0.48484 0.10965 0.0
O337 O 0.28952 0.46179 0.09389 0.0
O338 O 0.24993 0.49148 0.14602 0.0
O339 O 0.23327 0.5367 0.16255 0.0
O340 O 0.28824 0.57302 0.14532 0.0
O341 O 0.29934 0.52503 0.15607 0.0
C342 C 0.22182 0.51906 0.07547 0.0
O343 O 0.21302 0.5904 0.15122 0.0
O344 O 0.22873 0.60702 0.10786 0.0
C345 C 0.32918 0.43349 0.11727 0.0
C346 C 0.35015 0.38225 0.14787 0.0
C347 C 0.37029 0.39929 0.13018 0.0
C348 C 0.35987 0.42457 0.11499 0.0
C349 C 0.30903 0.41677 0.13513 0.0
C350 C 0.31936 0.39136 0.15012 0.0
C351 C 0.31864 0.45995 0.10055 0.0
H352 H 0.10872 0.62911 0.15728 0.0
H353 H 0.15991 0.60998 0.16784 0.0
H354 H 0.18773 0.63408 0.07598 0.0
H355 H 0.13652 0.65382 0.06562 0.0
H356 H 0.39423 0.39332 0.12832 0.0
H357 H 0.37583 0.43721 0.10142 0.0
H358 H 0.28522 0.42318 0.13737 0.0
H359 H 0.30303 0.37866 0.16314 0.0
Tb360 Tb 0.77631 0.08097 0.89624 0.0
Eu361 Eu 0.73163 0.03023 0.86714 0.0
C362 C 0.71357 0.06758 0.92673 0.0
C363 C 0.78013 1.01486 0.9179 0.0
C364 C 0.82217 0.14891 0.90144 0.0
C365 C 0.81964 0.20186 0.89515 0.0
C366 C 0.80923 0.17614 0.90902 0.0
C367 C 0.84634 0.14807 0.88018 0.0
C368 C 0.85689 0.17385 0.86644 0.0
C369 C 0.84347 0.20102 0.87356 0.0
C370 C 0.8099 0.12176 0.91548 0.0
O371 O 0.79436 0.07126 0.85112 0.0
O372 O 0.77905 1.02372 0.84689 0.0
O373 O 0.73214 0.06654 0.83214 0.0
O374 O 0.74396 0.10348 0.86545 0.0
C375 C 0.79877 0.04463 0.84089 0.0
O376 O 0.72198 0.9844 0.85707 0.0
O377 O 0.68864 1.01804 0.84529 0.0
O378 O 0.7038 0.0569 0.90053 0.0
O379 O 0.74287 0.07169 0.93183 0.0
O380 O 0.79548 0.03833 0.90985 0.0
O381 O 0.75088 1.01278 0.91167 0.0
C382 C 0.73336 0.09445 0.83878 0.0
O383 O 0.78034 0.12099 0.91928 0.0
O384 O 0.82044 0.09689 0.90534 0.0
C385 C 0.66978 0.97228 0.86215 0.0
C386 C 0.62533 0.93683 0.89061 0.0
C387 C 0.64443 0.92547 0.86754 0.0
C388 C 0.66638 0.94305 0.85343 0.0
C389 C 0.65053 0.98386 0.88495 0.0
C390 C 0.62835 0.96632 0.89891 0.0
C391 C 0.69404 0.99002 0.84793 0.0
H392 H 0.80915 0.22247 0.90152 0.0
H393 H 0.79082 0.17754 0.92556 0.0
H394 H 0.85694 0.1275 0.87386 0.0
H395 H 0.87516 0.17244 0.84976 0.0
H396 H 0.64243 0.90291 0.86044 0.0
H397 H 0.68097 0.93371 0.83592 0.0
H398 H 0.65289 1.00632 0.89225 0.0
H399 H 0.61417 0.97558 0.91679 0.0
Tb400 Tb 0.74464 1.00629 0.39759 0.0
Eu401 Eu 0.79369 0.05215 0.36598 0.0
C402 C 0.81124 1.00969 0.42306 0.0
C403 C 0.75475 0.07044 0.42195 0.0
C404 C 0.6928 0.94355 0.4007 0.0
C405 C 0.66413 0.89801 0.4021 0.0
C406 C 0.67702 0.92202 0.41729 0.0
C407 C 0.69591 0.94049 0.36877 0.0
C408 C 0.68299 0.91664 0.3536 0.0
C409 C 0.66671 0.89514 0.36998 0.0
C410 C 0.70697 0.96859 0.41661 0.0
O411 O 0.72754 1.01707 0.35232 0.0
O412 O 0.74544 0.06362 0.34866 0.0
O413 O 0.78819 1.01652 0.33155 0.0
O414 O 0.77293 0.98091 0.36563 0.0
C415 C 0.72461 0.04387 0.34206 0.0
O416 O 0.80696 0.09751 0.35708 0.0
O417 O 0.83636 0.06187 0.34236 0.0
O418 O 0.82032 1.02057 0.39653 0.0
O419 O 0.78211 1.00879 0.43035 0.0
O420 O 0.73386 0.05093 0.41444 0.0
O421 O 0.78304 0.06646 0.41345 0.0
C422 C 0.78376 0.98894 0.33862 0.0
O423 O 0.73647 0.96657 0.42068 0.0
O424 O 0.69903 0.99457 0.40665 0.0
C425 C 0.86057 0.10594 0.35738 0.0
C426 C 0.91412 0.13589 0.37587 0.0
C427 C 0.8935 0.14846 0.35444 0.0
C428 C 0.86714 0.13363 0.34528 0.0
C429 C 0.8804 0.09363 0.37964 0.0
C430 C 0.90693 0.10849 0.38882 0.0
C431 C 0.83351 0.09011 0.34574 0.0
H432 H 0.6516 0.88204 0.41542 0.0
H433 H 0.67459 0.92382 0.44198 0.0
H434 H 0.70839 0.95659 0.35553 0.0
H435 H 0.68592 0.91496 0.32896 0.0
H436 H 0.89785 0.16979 0.34447 0.0
H437 H 0.85206 0.14367 0.32833 0.0
H438 H 0.87569 0.07232 0.38951 0.0
H439 H 0.92226 0.09811 0.4053 0.0
Tb440 Tb 0.23824 0.57598 0.61663 0.0
Eu441 Eu 0.29106 0.52725 0.63851 0.0
C442 C 0.29826 0.56727 0.57904 0.0
C443 C 0.23877 0.51129 0.5899 0.0
C444 C 0.19126 0.64488 0.61704 0.0
C445 C 0.15537 0.67262 0.64854 0.0
C446 C 0.16483 0.64617 0.63536 0.0
C447 C 0.2077 0.67077 0.61188 0.0
C448 C 0.19827 0.69713 0.62505 0.0
C449 C 0.17205 0.69844 0.64364 0.0
C450 C 0.20122 0.61696 0.60269 0.0
O451 O 0.22114 0.55754 0.65953 0.0
O452 O 0.24758 0.51373 0.66117 0.0
O453 O 0.28647 0.55977 0.6766 0.0
O454 O 0.27143 0.59796 0.64584 0.0
C455 C 0.22418 0.53024 0.66895 0.0
O456 O 0.30824 0.48244 0.6438 0.0
O457 O 0.33635 0.5188 0.65797 0.0
O458 O 0.31192 0.55753 0.60398 0.0
O459 O 0.26839 0.57014 0.57737 0.0
O460 O 0.22255 0.53446 0.59793 0.0
O461 O 0.26798 0.5085 0.59683 0.0
C462 C 0.28295 0.58791 0.67181 0.0
O463 O 0.22946 0.61552 0.5933 0.0
O464 O 0.19312 0.59268 0.61612 0.0
C465 C 0.36138 0.47814 0.63567 0.0
C466 C 0.40993 0.45287 0.60211 0.0
C467 C 0.39338 0.43613 0.62355 0.0
C468 C 0.36936 0.44867 0.64017 0.0
C469 C 0.37778 0.49495 0.6143 0.0
C470 C 0.40185 0.48247 0.59775 0.0
C471 C 0.33536 0.49078 0.65259 0.0
H472 H 0.13519 0.67274 0.66289 0.0
H473 H 0.15145 0.62672 0.63956 0.0
H474 H 0.22788 0.67075 0.59751 0.0
H475 H 0.21136 0.71664 0.62024 0.0
H476 H 0.39864 0.41317 0.62715 0.0
H477 H 0.35682 0.43528 0.65635 0.0
H478 H 0.37198 0.51774 0.61035 0.0
H479 H 0.4143 0.49613 0.58176 0.0
H480 H 0.21756 0.34428 0.53781 0.0
H481 H 0.12179 0.36567 0.52338 0.0
H482 H 0.13087 0.41614 0.54007 0.0
H483 H 0.22901 0.39117 0.60555 0.0
H484 H 0.26689 0.40195 0.59407 0.0
H485 H 0.25239 0.36672 0.58315 0.0
H486 H 0.2631 0.37916 0.52602 0.0
H487 H 0.27716 0.4146 0.53674 0.0
H488 H 0.24642 0.41175 0.50916 0.0
H489 H 0.15033 0.4648 0.55554 0.0
H490 H 0.17852 0.50824 0.57261 0.0
H491 H 0.26249 0.45671 0.57643 0.0
C492 C 0.19851 0.35951 0.53897 0.0
C493 C 0.16867 0.35084 0.53058 0.0
C494 C 0.14445 0.37153 0.53112 0.0
C495 C 0.14949 0.4004 0.54013 0.0
C496 C 0.17909 0.40845 0.54813 0.0
C497 C 0.20322 0.38867 0.54789 0.0
C498 C 0.23289 0.40351 0.55691 0.0
C499 C 0.24607 0.39004 0.58669 0.0
C500 C 0.25627 0.40217 0.53063 0.0
C501 C 0.22159 0.43461 0.56198 0.0
C502 C 0.19049 0.43691 0.55668 0.0
C503 C 0.17471 0.4633 0.55986 0.0
C504 C 0.191 0.48794 0.56943 0.0
C505 C 0.2228 0.48609 0.57579 0.0
C506 C 0.23827 0.45904 0.57154 0.0
H507 H 0.81681 0.99359 0.81203 0.0
H508 H 0.84889 0.07977 0.83768 0.0
H509 H 0.9006 0.06687 0.82004 0.0
H510 H 0.88323 0.95404 0.83451 0.0
H511 H 0.88258 0.92907 0.80263 0.0
H512 H 0.84744 0.94517 0.81617 0.0
H513 H 0.83566 0.96546 0.76155 0.0
H514 H 0.8706 0.94914 0.74772 0.0
H515 H 0.86365 0.98774 0.74232 0.0
H516 H 0.95027 0.04303 0.8046 0.0
H517 H 0.99272 1.01186 0.78534 0.0
H518 H 0.92808 0.94303 0.76551 0.0
C519 C 0.83457 1.00992 0.81344 0.0
C520 C 0.8286 0.03772 0.82625 0.0
C521 C 0.85265 0.05837 0.82783 0.0
C522 C 0.88226 0.05122 0.818 0.0
C523 C 0.88754 1.02347 0.80615 0.0
C524 C 0.86427 1.00332 0.80321 0.0
C525 C 0.87616 0.97506 0.78949 0.0
C526 C 0.87211 0.94932 0.81205 0.0
C527 C 0.86059 0.969 0.75842 0.0
C528 C 0.9097 0.98245 0.78543 0.0
C529 C 0.9159 1.01032 0.79564 0.0
C530 C 0.94562 1.02135 0.79602 0.0
C531 C 0.96958 1.00353 0.78523 0.0
C532 C 0.96346 0.97538 0.77365 0.0
C533 C 0.93317 0.96477 0.77377 0.0
H534 H 0.31359 0.7237 0.99592 0.0
H535 H 0.38278 0.74157 0.0649 0.0
H536 H 0.37695 0.69178 0.08614 0.0
H537 H 0.26466 0.68084 0.0486 0.0
H538 H 0.25275 0.65629 0.01867 0.0
H539 H 0.26243 0.69351 0.00929 0.0
H540 H 0.30193 0.67448 0.96975 0.0
H541 H 0.29296 0.63721 0.97962 0.0
H542 H 0.33188 0.64975 0.9823 0.0
H543 H 0.36815 0.63813 0.09546 0.0
H544 H 0.34675 0.58871 0.10282 0.0
H545 H 0.27904 0.60697 0.0318 0.0
C546 C 0.32694 0.71728 0.01593 0.0
C547 C 0.3486 0.73651 0.02885 0.0
C548 C 0.36581 0.72736 0.05491 0.0
C549 C 0.36294 0.69896 0.06688 0.0
C550 C 0.34218 0.68017 0.05296 0.0
C551 C 0.32362 0.68927 0.02884 0.0
C552 C 0.30196 0.66516 0.01926 0.0
C553 C 0.26847 0.67451 0.02426 0.0
C554 C 0.30753 0.65613 0.98574 0.0
C555 C 0.31157 0.64103 0.04148 0.0
C556 C 0.33535 0.64993 0.06015 0.0
C557 C 0.34905 0.63109 0.08156 0.0
C558 C 0.33706 0.60291 0.08519 0.0
C559 C 0.31131 0.59403 0.06782 0.0
C560 C 0.29881 0.6132 0.04531 0.0
H561 H 0.57827 0.14101 0.29554 0.0
H562 H 0.53512 0.0611 0.26498 0.0
H563 H 0.58221 0.03328 0.27897 0.0
H564 H 0.6524 0.12621 0.26816 0.0
H565 H 0.67226 0.14171 0.30053 0.0
H566 H 0.63481 0.1552 0.28992 0.0
H567 H 0.61456 0.14423 0.34471 0.0
H568 H 0.6523 0.13175 0.35561 0.0
H569 H 0.61985 0.1082 0.36101 0.0
H570 H 0.63496 1.01507 0.29321 0.0
H571 H 0.68707 1.00593 0.31282 0.0
H572 H 0.69598 0.09789 0.3351 0.0
C573 C 0.57856 0.11757 0.29212 0.0
C574 C 0.55305 0.10313 0.2791 0.0
C575 C 0.55427 0.07249 0.27515 0.0
C576 C 0.581 0.05662 0.28278 0.0
C577 C 0.60607 0.07174 0.29464 0.0
C578 C 0.60485 0.10144 0.29988 0.0
C579 C 0.63482 0.11248 0.31311 0.0
C580 C 0.64943 0.13524 0.29163 0.0
C581 C 0.63009 0.12489 0.34554 0.0
C582 C 0.65342 0.08437 0.31411 0.0
C583 C 0.63638 0.0612 0.30321 0.0
C584 C 0.64839 0.033 0.30195 0.0
C585 C 0.67814 0.0281 0.31306 0.0
C586 C 0.69575 0.05122 0.32547 0.0
C587 C 0.68335 0.07987 0.32537 0.0
H588 H 0.64946 0.20694 0.47133 0.0
H589 H 0.73264 0.25761 0.47838 0.0
H590 H 0.76294 0.21381 0.46338 0.0
H591 H 0.67815 0.14028 0.50136 0.0
H592 H 0.65742 0.11722 0.4752 0.0
H593 H 0.64219 0.15259 0.48519 0.0
H594 H 0.63932 0.16737 0.42759 0.0
H595 H 0.65395 0.13181 0.41745 0.0
H596 H 0.6731 0.16428 0.40419 0.0
H597 H 0.78392 0.16365 0.45239 0.0
H598 H 0.79484 0.11295 0.43812 0.0
H599 H 0.69737 0.09478 0.43481 0.0
C600 C 0.67408 0.20888 0.46943 0.0
C601 C 0.68888 0.23557 0.47621 0.0
C602 C 0.72097 0.23743 0.47315 0.0
C603 C 0.73826 0.21261 0.46488 0.0
C604 C 0.72297 0.18641 0.45923 0.0
C605 C 0.69153 0.18456 0.46068 0.0
C606 C 0.68061 0.15396 0.45301 0.0
C607 C 0.66359 0.14021 0.48032 0.0
C608 C 0.66057 0.15439 0.42383 0.0
C609 C 0.71095 0.13856 0.4475 0.0
C610 C 0.73501 0.15771 0.45155 0.0
C611 C 0.76525 0.14862 0.44876 0.0
C612 C 0.77114 0.11954 0.44075 0.0
C613 C 0.74696 0.09959 0.4351 0.0
C614 C 0.71639 0.10928 0.43901 0.0
H615 H 0.04967 0.50009 0.71468 0.0
H616 H 0.08183 0.41577 0.74837 0.0
H617 H 0.13479 0.42882 0.73549 0.0
H618 H 0.10362 0.50455 0.65018 0.0
H619 H 0.109 0.5434 0.654 0.0
H620 H 0.07327 0.52718 0.66519 0.0
H621 H 0.07917 0.54977 0.71936 0.0
H622 H 0.11521 0.56557 0.70848 0.0
H623 H 0.11315 0.5419 0.74171 0.0
H624 H 0.18375 0.45086 0.72152 0.0
H625 H 0.22687 0.47884 0.70078 0.0
H626 H 0.16446 0.54934 0.6747 0.0
C627 C 0.06793 0.48436 0.71877 0.0
C628 C 0.06198 0.45698 0.73256 0.0
C629 C 0.0862 0.4369 0.73798 0.0
C630 C 0.1163 0.44413 0.73082 0.0
C631 C 0.12175 0.47155 0.71816 0.0
C632 C 0.09838 0.49126 0.71164 0.0
C633 C 0.11101 0.51911 0.69757 0.0
C634 C 0.09848 0.52383 0.66479 0.0
C635 C 0.10422 0.54565 0.71801 0.0
C636 C 0.14499 0.51183 0.69736 0.0
C637 C 0.15051 0.48435 0.70962 0.0
C638 C 0.17982 0.47239 0.71173 0.0
C639 C 0.20418 0.48853 0.69997 0.0
C640 C 0.19909 0.51629 0.68615 0.0
C641 C 0.16915 0.52835 0.68549 0.0
H642 H 0.76425 0.97219 0.95981 0.0
H643 H 0.83337 0.99577 0.89304 0.0
H644 H 0.85811 0.9474 0.90001 0.0
H645 H 0.81762 0.93279 0.01136 0.0
H646 H 0.78975 0.90574 0.02201 0.0
H647 H 0.77747 0.94218 0.0115 0.0
H648 H 0.74169 0.92057 0.96991 0.0
H649 H 0.75429 0.8841 0.97991 0.0
H650 H 0.75753 0.89706 0.94083 0.0
H651 H 0.87283 0.89506 0.91103 0.0
H652 H 0.88258 0.84567 0.93245 0.0
H653 H 0.80743 0.85734 0.99614 0.0
C654 C 0.78489 0.96725 0.94711 0.0
C655 C 0.79707 0.98774 0.92606 0.0
C656 C 0.82399 0.98056 0.90967 0.0
C657 C 0.83801 0.95303 0.91322 0.0
C658 C 0.82521 0.9331 0.93377 0.0
C659 C 0.79977 0.94013 0.9511 0.0
C660 C 0.79152 0.91512 0.97259 0.0
C661 C 0.79426 0.92452 1.00637 0.0
C662 C 0.75935 0.90354 0.96537 0.0
C663 C 0.81605 0.89286 0.96437 0.0
C664 C 0.83483 0.90349 0.94145 0.0
C665 C 0.85846 0.88662 0.92919 0.0
C666 C 0.86361 0.85846 0.94127 0.0
C667 C 0.84566 0.84766 0.96581 0.0
C668 C 0.82144 0.86506 0.97732 0.0
H669 H 0.44771 0.65085 0.21565 0.0
H670 H 0.48468 0.57193 0.25766 0.0
H671 H 0.4398 0.54421 0.23908 0.0
H672 H 0.36997 0.63671 0.23547 0.0
H673 H 0.35362 0.6518 0.20063 0.0
H674 H 0.38957 0.66531 0.21492 0.0
H675 H 0.41611 0.65334 0.16316 0.0
H676 H 0.37958 0.64146 0.14888 0.0
H677 H 0.4123 0.6172 0.14728 0.0
H678 H 0.39022 0.52581 0.21867 0.0
H679 H 0.34056 0.51615 0.19443 0.0
H680 H 0.33402 0.60701 0.16492 0.0
C681 C 0.44663 0.62754 0.2201 0.0
C682 C 0.46996 0.61316 0.23729 0.0
C683 C 0.46736 0.58301 0.24388 0.0
C684 C 0.44186 0.56722 0.23361 0.0
C685 C 0.41896 0.58205 0.21713 0.0
C686 C 0.4211 0.61149 0.21019 0.0
C687 C 0.39255 0.62227 0.19322 0.0
C688 C 0.37542 0.64539 0.2122 0.0
C689 C 0.40066 0.63424 0.16121 0.0
C690 C 0.37428 0.59413 0.19113 0.0
C691 C 0.38994 0.57139 0.20546 0.0
C692 C 0.37785 0.54339 0.20721 0.0
C693 C 0.34943 0.53818 0.19335 0.0
C694 C 0.3331 0.56074 0.17758 0.0
C695 C 0.34567 0.58928 0.17689 0.0
H696 H 0.55583 0.21325 0.30302 0.0
H697 H 0.45975 0.21596 0.32726 0.0
H698 H 0.47291 0.23675 0.37784 0.0
H699 H 0.58223 0.18972 0.37478 0.0
H700 H 0.61682 0.21092 0.37496 0.0
H701 H 0.60006 0.19988 0.33902 0.0
H702 H 0.59718 0.25375 0.32034 0.0
H703 H 0.61478 0.26499 0.35584 0.0
H704 H 0.57862 0.28075 0.34399 0.0
H705 H 0.49696 0.25268 0.42784 0.0
H706 H 0.53019 0.26804 0.47119 0.0
H707 H 0.61019 0.25387 0.41428 0.0
C708 C 0.53757 0.21935 0.31853 0.0
C709 C 0.50678 0.21354 0.31117 0.0
C710 C 0.48348 0.22065 0.33247 0.0
C711 C 0.49073 0.23228 0.36129 0.0
C712 C 0.52142 0.23655 0.3685 0.0
C713 C 0.54446 0.23072 0.34759 0.0
C714 C 0.57568 0.23582 0.36169 0.0
C715 C 0.59481 0.2074 0.36267 0.0
C716 C 0.59255 0.26029 0.34444 0.0
C717 C 0.56655 0.24527 0.39368 0.0
C718 C 0.5352 0.24545 0.3973 0.0
C719 C 0.52158 0.2529 0.42521 0.0
C720 C 0.54055 0.2613 0.44978 0.0
C721 C 0.57266 0.26227 0.44605 0.0
C722 C 0.58566 0.25361 0.41778 0.0
H723 H 0.09723 0.34248 0.5645 0.0
H724 H 0.02359 0.28423 0.53982 0.0
H725 H 0.99805 0.29489 0.58925 0.0
H726 H 0.10139 0.32159 0.64225 0.0
H727 H 0.10966 0.35744 0.65696 0.0
H728 H 0.12072 0.34798 0.61842 0.0
H729 H 0.09054 0.39238 0.59657 0.0
H730 H 0.07993 0.40245 0.63508 0.0
H731 H 0.05073 0.39706 0.60629 0.0
H732 H 0.98149 0.31052 0.64183 0.0
H733 H 0.97356 0.33161 0.69328 0.0
H734 H 0.0593 0.37818 0.68566 0.0
C735 C 0.07507 0.33307 0.56887 0.0
C736 C 0.06168 0.31348 0.54773 0.0
C737 C 0.03368 0.29996 0.5553 0.0
C738 C 0.01919 0.30572 0.58341 0.0
C739 C 0.03328 0.32468 0.60402 0.0
C740 C 0.06052 0.33831 0.59708 0.0
C741 C 0.07163 0.35652 0.62402 0.0
C742 C 0.10269 0.34519 0.63612 0.0
C743 C 0.07329 0.38903 0.61495 0.0
C744 C 0.04633 0.35104 0.6472 0.0
C745 C 0.02446 0.33263 0.63506 0.0
C746 C 0.99851 0.32485 0.65159 0.0
C747 C 0.99429 0.33681 0.68089 0.0
C748 C 0.01603 0.35611 0.69372 0.0
C749 C 0.0427 0.36288 0.6768 0.0
H750 H 0.98519 0.83271 0.80539 0.0
H751 H 0.01957 0.91641 0.83566 0.0
H752 H 1.00489 0.90471 0.88906 0.0
H753 H 0.92059 0.82889 0.85741 0.0
H754 H 0.92488 0.79017 0.86439 0.0
H755 H 0.93703 0.80572 0.82835 0.0
H756 H 0.99122 0.7835 0.83704 0.0
H757 H 0.97927 0.76824 0.8733 0.0
H758 H 0.01199 0.79196 0.87174 0.0
H759 H 0.98531 0.88467 0.93884 0.0
H760 H 0.96264 0.85687 0.98202 0.0
H761 H 0.94442 0.78478 0.92032 0.0
C762 C 0.98928 0.84853 0.82333 0.0
C763 C 1.00328 0.87548 0.81667 0.0
C764 C 0.00881 0.89564 0.84056 0.0
C765 C 1.0006 0.8892 0.87089 0.0
C766 C 0.98725 0.86229 0.877 0.0
C767 C 0.9817 0.84219 0.85399 0.0
C768 C 0.96774 0.8146 0.86711 0.0
C769 C 0.93566 0.80957 0.8535 0.0
C770 C 0.98882 0.788 0.86199 0.0
C771 C 0.96615 0.8225 0.90087 0.0
C772 C 0.97734 0.85016 0.90607 0.0
C773 C 0.9768 0.8628 0.93518 0.0
C774 C 0.964 0.84686 0.95957 0.0
C775 C 0.95235 0.81849 0.95472 0.0
C776 C 0.9539 0.80611 0.92502 0.0
H777 H 0.46277 0.73106 0.20737 0.0
H778 H 0.55534 0.70666 0.18104 0.0
H779 H 0.54458 0.72181 0.12798 0.0
H780 H 0.42569 0.70867 0.13734 0.0
H781 H 0.39933 0.73915 0.13594 0.0
H782 H 0.41369 0.72596 0.17244 0.0
H783 H 0.43342 0.77789 0.18521 0.0
H784 H 0.41896 0.79121 0.14882 0.0
H785 H 0.4587 0.79606 0.15872 0.0
H786 H 0.52336 0.73582 0.07687 0.0
H787 H 0.49407 0.75463 0.03178 0.0
H788 H 0.41757 0.77523 0.09108 0.0
C789 C 0.48078 0.72916 0.19047 0.0
C790 C 0.50987 0.7177 0.19855 0.0
C791 C 0.53288 0.71556 0.17568 0.0
C792 C 0.52701 0.72394 0.14529 0.0
C793 C 0.49814 0.73486 0.13798 0.0
C794 C 0.47551 0.73803 0.15988 0.0
C795 C 0.44678 0.75131 0.14571 0.0
C796 C 0.41978 0.73 0.14801 0.0
C797 C 0.43902 0.78088 0.1605 0.0
C798 C 0.45702 0.75511 0.11265 0.0
C799 C 0.48651 0.74485 0.10859 0.0
C800 C 0.50039 0.74436 0.07976 0.0
C801 C 0.4837 0.75495 0.05435 0.0
C802 C 0.45395 0.76645 0.0583 0.0
C803 C 0.44051 0.7667 0.08774 0.0
H804 H 0.195 0.38783 0.29556 0.0
H805 H 0.13584 0.45412 0.3354 0.0
H806 H 0.14892 0.48809 0.29349 0.0
H807 H 0.25404 0.43732 0.27016 0.0
H808 H 0.2616 0.41814 0.2349 0.0
H809 H 0.2476 0.3985 0.26794 0.0
H810 H 0.20219 0.37937 0.23553 0.0
H811 H 0.21604 0.39906 0.20243 0.0
H812 H 0.17749 0.40511 0.21567 0.0
H813 H 0.16773 0.51502 0.24816 0.0
H814 H 0.19263 0.53453 0.20207 0.0
H815 H 0.24036 0.45169 0.18972 0.0
C816 C 0.18475 0.40946 0.29536 0.0
C817 C 0.16457 0.41835 0.31907 0.0
C818 C 0.15179 0.44692 0.31797 0.0
C819 C 0.15888 0.46635 0.29408 0.0
C820 C 0.17883 0.457 0.27125 0.0
C821 C 0.19173 0.42933 0.27159 0.0
C822 C 0.21291 0.4253 0.24422 0.0
C823 C 0.246 0.41948 0.25495 0.0
C824 C 0.20146 0.40075 0.22322 0.0
C825 C 0.2098 0.45505 0.22857 0.0
C826 C 0.18991 0.47282 0.24467 0.0
C827 C 0.18338 0.50134 0.23534 0.0
C828 C 0.19777 0.51224 0.20905 0.0
C829 C 0.21862 0.49476 0.19213 0.0
C830 C 0.22446 0.4656 0.20197 0.0
H831 H 0.86884 0.94088 0.58272 0.0
H832 H 0.9601 0.93691 0.54404 0.0
H833 H 0.94064 0.95964 0.49596 0.0
H834 H 0.82879 0.92318 0.51354 0.0
H835 H 0.79701 0.94747 0.52088 0.0
H836 H 0.81836 0.93177 0.55252 0.0
H837 H 0.82891 0.98365 0.57354 0.0
H838 H 0.80757 0.99951 0.54196 0.0
H839 H 0.8465 1.01051 0.54893 0.0
H840 H 0.91103 0.98284 0.45196 0.0
H841 H 0.87322 1.00297 0.41485 0.0
H842 H 0.80128 0.99092 0.48222 0.0
C843 C 0.88477 0.94505 0.56423 0.0
C844 C 0.91599 0.93715 0.5671 0.0
C845 C 0.93603 0.94255 0.54221 0.0
C846 C 0.92523 0.9556 0.5149 0.0
C847 C 0.8943 0.96302 0.51277 0.0
C848 C 0.87433 0.95785 0.53673 0.0
C849 C 0.842 0.96712 0.52827 0.0
C850 C 0.82027 0.94082 0.52883 0.0
C851 C 0.83059 0.99166 0.54943 0.0
C852 C 0.84688 0.97825 0.4958 0.0
C853 C 0.87721 0.97589 0.48732 0.0
C854 C 0.88719 0.98478 0.45834 0.0
C855 C 0.86554 0.99622 0.43742 0.0
C856 C 0.83423 0.99849 0.44551 0.0
C857 C 0.82499 0.98944 0.4752 0.0
H858 H 0.31357 0.57572 0.72584 0.0
H859 H 0.27505 0.64742 0.67178 0.0
H860 H 0.2922 0.68233 0.71115 0.0
H861 H 0.29406 0.60457 0.80048 0.0
H862 H 0.32899 0.59173 0.81842 0.0
H863 H 0.31309 0.57228 0.78628 0.0
H864 H 0.36436 0.57744 0.75711 0.0
H865 H 0.3804 0.59693 0.78912 0.0
H866 H 0.38035 0.61327 0.75129 0.0
H867 H 0.31427 0.70957 0.756 0.0
H868 H 0.34023 0.72721 0.80279 0.0
H869 H 0.36397 0.63774 0.82777 0.0
C870 C 0.30861 0.59874 0.72228 0.0
C871 C 0.29297 0.60879 0.69565 0.0
C872 C 0.28707 0.63915 0.69191 0.0
C873 C 0.29667 0.65917 0.71418 0.0
C874 C 0.31214 0.64853 0.74007 0.0
C875 C 0.31809 0.61904 0.74423 0.0
C876 C 0.33556 0.61335 0.77388 0.0
C877 C 0.3168 0.59436 0.79608 0.0
C878 C 0.36703 0.59943 0.76745 0.0
C879 C 0.33868 0.64428 0.78565 0.0
C880 C 0.3249 0.66423 0.76588 0.0
C881 C 0.325 0.69414 0.77174 0.0
C882 C 0.33966 0.70392 0.79848 0.0
C883 C 0.35408 0.68388 0.81904 0.0
C884 C 0.35342 0.65366 0.81242 0.0
H885 H 0.65238 0.14848 0.07724 0.0
H886 H 0.56368 0.10969 0.05928 0.0
H887 H 0.58468 0.0856 0.01338 0.0
H888 H 0.67348 0.16128 0.99894 0.0
H889 H 0.7132 0.1518 1.00485 0.0
H890 H 0.69107 0.16647 0.03606 0.0
H891 H 0.70511 0.12124 0.06964 0.0
H892 H 0.72729 0.10643 0.03852 0.0
H893 H 0.69712 0.08513 0.05547 0.0
H894 H 0.61524 0.06601 0.96886 0.0
H895 H 0.65324 0.05189 0.92974 0.0
H896 H 0.72266 0.1014 0.97804 0.0
C897 C 0.63735 0.13472 0.0639 0.0
C898 C 0.60619 0.13126 0.07199 0.0
C899 C 0.5874 0.1133 0.05341 0.0
C900 C 0.5992 0.09927 0.02736 0.0
C901 C 0.62995 0.10316 0.02016 0.0
C902 C 0.6488 0.12036 0.03795 0.0
C903 C 0.68109 0.12077 0.02529 0.0
C904 C 0.69024 0.15193 0.01572 0.0
C905 C 0.704 0.1076 0.04862 0.0
C906 C 0.67742 0.1012 0.99754 0.0
C907 C 0.64771 0.09134 0.99494 0.0
C908 C 0.6386 0.0735 0.97076 0.0
C909 C 0.66038 0.06562 0.94861 0.0
C910 C 0.69102 0.07538 0.95083 0.0
C911 C 0.69954 0.0933 0.9758 0.0
H912 H 0.65583 0.15079 0.68176 0.0
H913 H 0.68145 0.23872 0.70792 0.0
H914 H 0.70509 0.21924 0.75558 0.0
H915 H 0.63659 0.12534 0.75753 0.0
H916 H 0.65189 0.08906 0.75184 0.0
H917 H 0.63735 0.10985 0.71953 0.0
H918 H 0.68927 0.10358 0.69169 0.0
H919 H 0.70394 0.08273 0.72389 0.0
H920 H 0.72401 0.1147 0.71069 0.0
H921 H 0.7248 0.19033 0.80116 0.0
H922 H 0.74086 0.15391 0.8403 0.0
H923 H 0.7028 0.08468 0.78433 0.0
C924 C 0.66631 0.16596 0.69756 0.0
C925 C 0.66682 0.19631 0.69102 0.0
C926 C 0.68111 0.21536 0.71218 0.0
C927 C 0.69444 0.20452 0.73943 0.0
C928 C 0.69343 0.17454 0.74521 0.0
C929 C 0.67988 0.15549 0.72482 0.0
C930 C 0.68208 0.1242 0.73644 0.0
C931 C 0.65007 0.11137 0.74165 0.0
C932 C 0.70095 0.10519 0.71437 0.0
C933 C 0.69884 0.12864 0.76663 0.0
C934 C 0.70509 0.15785 0.7713 0.0
C935 C 0.72009 0.16738 0.79771 0.0
C936 C 0.72906 0.1465 0.81987 0.0
C937 C 0.72314 0.11638 0.81548 0.0
C938 C 0.70779 0.10749 0.78841 0.0
H939 H 0.2291 0.47837 0.0296 0.0
H940 H 0.16232 0.53808 0.06872 0.0
H941 H 0.12432 0.52256 0.02997 0.0
H942 H 0.20723 0.48856 0.9503 0.0
H943 H 0.21307 0.45072 0.94038 0.0
H944 H 0.23511 0.46669 0.97099 0.0
H945 H 0.21673 0.42626 1.00845 0.0
H946 H 0.19471 0.41012 0.97793 0.0
H947 H 0.17628 0.42039 0.01328 0.0
H948 H 0.09368 0.50087 0.9863 0.0
H949 H 0.0723 0.47385 0.94243 0.0
H950 H 0.15845 0.42681 0.93284 0.0
C951 C 0.20652 0.48828 0.03003 0.0
C952 C 0.1988 0.50956 0.05229 0.0
C953 C 0.16886 0.52174 0.05204 0.0
C954 C 0.1471 0.51309 0.03003 0.0
C955 C 0.1555 0.49211 1.00845 0.0
C956 C 0.18446 0.47976 1.00837 0.0
C957 C 0.18752 0.4573 0.983 0.0
C958 C 0.2122 0.46637 0.95979 0.0
C959 C 0.1942 0.42671 0.99648 0.0
C960 C 0.15578 0.45897 0.96873 0.0
C961 C 0.13771 0.47925 0.9837 0.0
C962 C 0.10759 0.48478 0.97458 0.0
C963 C 0.09556 0.4691 0.94969 0.0
C964 C 0.11346 0.44786 0.9341 0.0
C965 C 0.1441 0.44298 0.94389 0.0
H966 H 0.81364 0.99641 0.28394 0.0
H967 H 0.76909 0.93059 0.34014 0.0
H968 H 0.77976 0.89354 0.30037 0.0
H969 H 0.78694 0.97073 0.21068 0.0
H970 H 0.82225 0.97883 0.19125 0.0
H971 H 0.81075 1.00013 0.22397 0.0
H972 H 0.86229 0.98802 0.25116 0.0
H973 H 0.87402 0.96684 0.21847 0.0
H974 H 0.87381 0.95034 0.25623 0.0
H975 H 0.79562 0.86365 0.25411 0.0
H976 H 0.81663 0.84315 0.20614 0.0
H977 H 0.85153 0.92869 0.18126 0.0
C978 C 0.80604 0.97424 0.28795 0.0
C979 C 0.79054 0.96643 0.31522 0.0
C980 C 0.78115 0.93709 0.31953 0.0
C981 C 0.787 0.91591 0.29701 0.0
C982 C 0.8023 0.92442 0.27037 0.0
C983 C 0.81177 0.95287 0.26584 0.0
C984 C 0.82827 0.95635 0.23553 0.0
C985 C 0.81101 0.97778 0.2141 0.0
C986 C 0.86157 0.96595 0.24067 0.0
C987 C 0.82673 0.92537 0.22369 0.0
C988 C 0.81155 0.90728 0.24401 0.0
C989 C 0.8076 0.87763 0.23808 0.0
C990 C 0.81974 0.86616 0.21083 0.0
C991 C 0.83577 0.88426 0.18986 0.0
C992 C 0.83902 0.91431 0.19647 0.0
H993 H 0.28996 0.61093 0.53605 0.0
H994 H 0.34967 0.53843 0.56162 0.0
H995 H 0.38346 0.54998 0.51799 0.0
H996 H 0.29913 0.60556 0.45237 0.0
H997 H 0.2997 0.64465 0.44673 0.0
H998 H 0.27849 0.62913 0.47823 0.0
H999 H 0.30859 0.66128 0.51657 0.0
H1000 H 0.32986 0.67688 0.48522 0.0
H1001 H 0.34984 0.65964 0.51695 0.0
H1002 H 0.41136 0.56982 0.47296 0.0
H1003 H 0.4338 0.5986 0.43085 0.0
H1004 H 0.35818 0.66064 0.43615 0.0
C1005 C 0.3099 0.59728 0.53206 0.0
C1006 C 0.31724 0.57372 0.55199 0.0
C1007 C 0.34381 0.55665 0.54661 0.0
C1008 C 0.36301 0.56292 0.52181 0.0
C1009 C 0.35544 0.58652 0.50279 0.0
C1010 C 0.32968 0.6036 0.50766 0.0
C1011 C 0.32819 0.629 0.48508 0.0
C1012 C 0.29968 0.62695 0.46437 0.0
C1013 C 0.32919 0.65844 0.50197 0.0
C1014 C 0.35726 0.62363 0.467 0.0
C1015 C 0.37235 0.59878 0.47739 0.0
C1016 C 0.39985 0.58941 0.46468 0.0
C1017 C 0.41255 0.60609 0.44092 0.0
C1018 C 0.39802 0.63215 0.43035 0.0
C1019 C 0.36977 0.64074 0.44344 0.0
H1020 H 0.19368 0.25097 0.40109 0.0
H1021 H 0.22911 0.24438 0.49447 0.0
H1022 H 0.27523 0.21969 0.47552 0.0
H1023 H 0.22025 0.18112 0.37651 0.0
H1024 H 0.23065 0.19278 0.33831 0.0
H1025 H 0.20062 0.21163 0.35856 0.0
H1026 H 0.22905 0.26067 0.3514 0.0
H1027 H 0.25912 0.24197 0.331 0.0
H1028 H 0.2682 0.26365 0.36423 0.0
H1029 H 0.31619 0.19341 0.44788 0.0
H1030 H 0.35103 0.16835 0.41212 0.0
H1031 H 0.29087 0.19148 0.33587 0.0
C1032 C 0.21132 0.24467 0.41746 0.0
C1033 C 0.20756 0.2497 0.44934 0.0
C1034 C 0.23118 0.24081 0.46998 0.0
C1035 C 0.25762 0.22675 0.45945 0.0
C1036 C 0.26042 0.22169 0.42812 0.0
C1037 C 0.23813 0.23049 0.40729 0.0
C1038 C 0.2469 0.22154 0.37488 0.0
C1039 C 0.22319 0.20051 0.36127 0.0
C1040 C 0.25107 0.24857 0.35416 0.0
C1041 C 0.2773 0.20606 0.38098 0.0
C1042 C 0.28455 0.2065 0.41191 0.0
C1043 C 0.31088 0.19301 0.42356 0.0
C1044 C 0.33043 0.17863 0.40309 0.0
C1045 C 0.32368 0.17782 0.37123 0.0
C1046 C 0.29678 0.19194 0.36007 0.0
H1047 H 0.09442 0.12136 0.64862 0.0
H1048 H 0.07364 0.09884 0.55407 0.0
H1049 H 0.05419 0.05087 0.57155 0.0
H1050 H 0.12234 0.05156 0.67117 0.0
H1051 H 0.10667 0.05333 0.70938 0.0
H1052 H 0.1168 0.08646 0.68944 0.0
H1053 H 0.0617 0.10663 0.69678 0.0
H1054 H 0.05142 0.07356 0.71682 0.0
H1055 H 0.0296 0.08545 0.68369 0.0
H1056 H 0.03933 1.00379 0.59991 0.0
H1057 H 0.02997 0.96297 0.6364 0.0
H1058 H 0.06187 1.01717 0.71143 0.0
C1059 C 0.0858 0.1064 0.6315 0.0
C1060 C 0.08563 0.11393 0.59994 0.0
C1061 C 0.07369 0.09377 0.57843 0.0
C1062 C 0.06274 0.06638 0.58812 0.0
C1063 C 0.06378 0.05951 0.61941 0.0
C1064 C 0.07491 0.07908 0.64073 0.0
C1065 C 0.07446 0.06634 0.67289 0.0
C1066 C 0.107 0.0643 0.6865 0.0
C1067 C 0.05301 0.08405 0.69377 0.0
C1068 C 0.0617 0.03637 0.66637 0.0
C1069 C 0.0555 0.03275 0.63547 0.0
C1070 C 0.04401 1.00648 0.62418 0.0
C1071 C 0.03881 0.98339 0.64506 0.0
C1072 C 0.04522 0.98674 0.67681 0.0
C1073 C 0.05668 1.01372 0.68736 0.0
H1074 H 0.20574 0.9019 0.89123 0.0
H1075 H 0.2256 0.87359 0.79835 0.0
H1076 H 0.27227 0.84827 0.8172 0.0
H1077 H 0.28377 0.91555 0.9139 0.0
H1078 H 0.27862 0.90231 0.95265 0.0
H1079 H 0.24674 0.9181 0.93183 0.0
H1080 H 0.21548 0.87095 0.94111 0.0
H1081 H 0.24727 0.85501 0.96194 0.0
H1082 H 0.23112 0.83616 0.92949 0.0
H1083 H 0.31716 0.82645 0.84613 0.0
H1084 H 0.35639 0.80902 0.88318 0.0
H1085 H 0.30711 0.85159 0.95714 0.0
C1086 C 0.22002 0.89057 0.87481 0.0
C1087 C 0.21197 0.88972 0.8433 0.0
C1088 C 0.23109 0.87427 0.82265 0.0
C1089 C 0.25773 0.85996 0.8331 0.0
C1090 C 0.26496 0.86122 0.86429 0.0
C1091 C 0.24664 0.87608 0.88486 0.0
C1092 C 0.25942 0.87388 0.91725 0.0
C1093 C 0.26762 0.90427 0.92962 0.0
C1094 C 0.23699 0.85805 0.93871 0.0
C1095 C 0.28784 0.85553 0.91167 0.0
C1096 C 0.29067 0.8485 0.88096 0.0
C1097 C 0.31518 0.83182 0.87024 0.0
C1098 C 0.33739 0.82207 0.89146 0.0
C1099 C 0.33487 0.82893 0.92308 0.0
C1100 C 0.30969 0.84588 0.93316 0.0
H1101 H 0.49588 0.06692 0.17789 0.0
H1102 H 0.42356 0.12828 0.15338 0.0
H1103 H 0.40307 0.09316 0.11584 0.0
H1104 H 0.50471 0.03231 0.10008 0.0
H1105 H 0.51007 0.99631 0.11647 0.0
H1106 H 0.52254 0.02804 0.13733 0.0
H1107 H 0.48984 1.01207 0.18391 0.0
H1108 H 0.47713 0.98045 0.1632 0.0
H1109 H 0.44947 1.0058 0.17861 0.0
H1110 H 0.38698 0.05039 0.08571 0.0
H1111 H 0.37502 1.00162 0.06548 0.0
H1112 H 0.45599 0.96584 0.11056 0.0
C1113 C 0.47641 0.0732 0.16374 0.0
C1114 C 0.46156 0.10045 0.16791 0.0
C1115 C 0.43538 0.10762 0.1501 0.0
C1116 C 0.42366 0.08785 0.12871 0.0
C1117 C 0.43821 0.06082 0.12562 0.0
C1118 C 0.464 0.05336 0.14259 0.0
C1119 C 0.47294 1.02159 0.1373 0.0
C1120 C 0.50444 1.01944 0.12187 0.0
C1121 C 0.47229 1.00395 0.16755 0.0
C1122 C 0.44761 1.01223 0.11551 0.0
C1123 C 0.4282 0.03544 0.10874 0.0
C1124 C 0.40216 0.03211 0.09059 0.0
C1125 C 0.39544 1.00426 0.07938 0.0
C1126 C 0.41447 0.9799 0.08654 0.0
C1127 C 0.44125 0.98412 0.10438 0.0
H1128 H 0.8221 0.35643 0.64385 0.0
H1129 H 0.79949 0.44894 0.63753 0.0
H1130 H 0.75134 0.43717 0.61098 0.0
H1131 H 0.79355 0.33679 0.57062 0.0
H1132 H 0.77812 0.30212 0.58261 0.0
H1133 H 0.81021 0.31737 0.60289 0.0
H1134 H 0.78023 0.31416 0.65401 0.0
H1135 H 0.74801 0.29887 0.63387 0.0
H1136 H 0.74303 0.33129 0.6567 0.0
H1137 H 0.70778 0.41638 0.58235 0.0
H1138 H 0.67015 0.38741 0.5537 0.0
H1139 H 0.71882 0.30763 0.57928 0.0
C1140 C 0.80677 0.37415 0.63729 0.0
C1141 C 0.81477 0.40367 0.64255 0.0
C1142 C 0.79421 0.42622 0.63328 0.0
C1143 C 0.76664 0.41975 0.6184 0.0
C1144 C 0.75969 0.39057 0.61311 0.0
C1145 C 0.77896 0.36805 0.62237 0.0
C1146 C 0.76623 0.33864 0.61275 0.0
C1147 C 0.78834 0.32281 0.59092 0.0
C1148 C 0.75894 0.31962 0.64102 0.0
C1149 C 0.73716 0.34829 0.59614 0.0
C1150 C 0.7339 0.37837 0.59683 0.0
C1151 C 0.70986 0.39279 0.58192 0.0
C1152 C 0.68865 0.37611 0.5656 0.0
C1153 C 0.69144 0.34525 0.56435 0.0
C1154 C 0.71585 0.33115 0.58019 0.0
H1155 H 0.94977 0.50699 0.79097 0.0
H1156 H 0.98153 0.45356 0.86786 0.0
H1157 H 0.97064 0.49438 0.90322 0.0
H1158 H 0.98093 0.5747 0.8173 0.0
H1159 H 0.94902 0.59642 0.80356 0.0
H1160 H 0.95906 0.5629 0.78445 0.0
H1161 H 0.90393 0.5438 0.79226 0.0
H1162 H 0.89368 0.5773 0.8113 0.0
H1163 H 0.88806 0.54267 0.83043 0.0
H1164 H 0.95623 0.54148 0.9302 0.0
H1165 H 0.93824 0.59026 0.94665 0.0
H1166 H 0.9171 0.6128 0.85172 0.0
C1167 C 0.95438 0.50374 0.81525 0.0
C1168 C 0.96646 0.47697 0.8266 0.0
C1169 C 0.97217 0.47378 0.85857 0.0
C1170 C 0.96613 0.49689 0.87885 0.0
C1171 C 0.9544 0.52303 0.86682 0.0
C1172 C 0.94853 0.52652 0.83576 0.0
C1173 C 0.93591 0.55676 0.82859 0.0
C1174 C 0.95753 0.57369 0.80721 0.0
C1175 C 0.90347 0.55501 0.81484 0.0
C1176 C 0.93545 0.56976 0.86049 0.0
C1177 C 0.94628 0.55003 0.88224 0.0
C1178 C 0.94781 0.55712 0.91333 0.0
C1179 C 0.93773 0.58499 0.92242 0.0
C1180 C 0.92623 0.60547 0.90052 0.0
C1181 C 0.92539 0.59762 0.86913 0.0
H1182 H 0.82354 0.75645 0.10073 0.0
H1183 H 0.78601 0.74332 0.00915 0.0
H1184 H 0.73873 0.72432 0.03167 0.0
H1185 H 0.79345 0.69166 0.13401 0.0
H1186 H 0.78475 0.70771 0.17071 0.0
H1187 H 0.81534 0.72221 0.14774 0.0
H1188 H 0.79013 0.77363 0.14937 0.0
H1189 H 0.75943 0.75927 0.17238 0.0
H1190 H 0.75098 0.77825 0.13684 0.0
H1191 H 0.69688 0.70424 0.06295 0.0
H1192 H 0.66214 0.68405 0.10205 0.0
H1193 H 0.7252 0.7099 0.17412 0.0
C1194 C 0.80525 0.74984 0.08545 0.0
C1195 C 0.80862 0.75141 0.05311 0.0
C1196 C 0.78416 0.74235 0.03396 0.0
C1197 C 0.75707 0.73156 0.04652 0.0
C1198 C 0.75458 0.73002 0.07833 0.0
C1199 C 0.77785 0.73894 0.09765 0.0
C1200 C 0.76938 0.73387 0.13109 0.0
C1201 C 0.79208 0.71259 0.1468 0.0
C1202 C 0.76736 0.76299 0.14844 0.0
C1203 C 0.73801 0.7202 0.12737 0.0
C1204 C 0.72998 0.71841 0.09667 0.0
C1205 C 0.70277 0.70566 0.08708 0.0
C1206 C 0.68328 0.69413 0.10943 0.0
C1207 C 0.69103 0.69537 0.14103 0.0
C1208 C 0.71859 0.70896 0.15012 0.0
H1209 H 0.63466 0.4826 0.36805 0.0
H1210 H 0.57789 0.47845 0.44961 0.0
H1211 H 0.55482 0.52625 0.4357 0.0
H1212 H 0.64697 0.5607 0.36733 0.0
H1213 H 0.64445 0.56343 0.32603 0.0
H1214 H 0.6581 0.5301 0.34386 0.0
H1215 H 0.61642 0.50083 0.31501 0.0
H1216 H 0.60273 0.53403 0.29704 0.0
H1217 H 0.5768 0.5115 0.31871 0.0
H1218 H 0.5363 0.57474 0.41105 0.0
H1219 H 0.52329 0.61707 0.37719 0.0
H1220 H 0.59066 0.5871 0.31134 0.0
C1221 C 0.61732 0.49153 0.38306 0.0
C1222 C 0.60833 0.47649 0.41008 0.0
C1223 C 0.58577 0.48956 0.4291 0.0
C1224 C 0.57232 0.51672 0.42128 0.0
C1225 C 0.58153 0.53069 0.39429 0.0
C1226 C 0.60349 0.5184 0.37548 0.0
C1227 C 0.60852 0.53692 0.34701 0.0
C1228 C 0.64147 0.54847 0.34602 0.0
C1229 C 0.60064 0.5198 0.31772 0.0
C1230 C 0.58573 0.56142 0.35247 0.0
C1231 C 0.57053 0.55777 0.37998 0.0
C1232 C 0.54817 0.57777 0.3895 0.0
C1233 C 0.54097 0.60182 0.37019 0.0
C1234 C 0.55584 0.60542 0.34155 0.0
C1235 C 0.5787 0.58499 0.33298 0.0
H1236 H 0.3925 0.34144 0.1279 0.0
H1237 H 0.33314 0.36188 0.20481 0.0
H1238 H 0.35061 0.31698 0.23138 0.0
H1239 H 0.38364 0.2634 0.13008 0.0
H1240 H 0.4231 0.25568 0.12108 0.0
H1241 H 0.4053 0.28902 0.10742 0.0
H1242 H 0.44792 0.31929 0.13353 0.0
H1243 H 0.46592 0.28604 0.14714 0.0
H1244 H 0.45552 0.31422 0.174 0.0
H1245 H 0.3744 0.27016 0.2498 0.0
H1246 H 0.40448 0.22541 0.25997 0.0
H1247 H 0.45032 0.236 0.17218 0.0
C1248 C 0.38332 0.33668 0.15043 0.0
C1249 C 0.36117 0.35525 0.16406 0.0
C1250 C 0.34958 0.34783 0.19349 0.0
C1251 C 0.35952 0.32243 0.2089 0.0
C1252 C 0.38123 0.30466 0.19475 0.0
C1253 C 0.39316 0.3115 0.16628 0.0
C1254 C 0.41678 0.28893 0.15652 0.0
C1255 C 0.40658 0.27334 0.12703 0.0
C1256 C 0.4484 0.30296 0.15258 0.0
C1257 C 0.41629 0.26838 0.18403 0.0
C1258 C 0.39547 0.27782 0.20569 0.0
C1259 C 0.3908 0.26255 0.23303 0.0
C1260 C 0.40801 0.23706 0.23854 0.0
C1261 C 0.42984 0.22705 0.21689 0.0
C1262 C 0.43386 0.24299 0.18921 0.0
H1263 H 0.96584 0.31573 0.81105 0.0
H1264 H 0.88964 0.37165 0.78321 0.0
H1265 H 0.85347 0.33454 0.80229 0.0
H1266 H 0.931 0.24725 0.79047 0.0
H1267 H 0.94723 0.22765 0.82283 0.0
H1268 H 0.96706 0.25849 0.80668 0.0
H1269 H 0.96805 0.28316 0.86014 0.0
H1270 H 0.94824 0.2524 0.87646 0.0
H1271 H 0.93266 0.28878 0.88047 0.0
H1272 H 0.82557 0.2916 0.82558 0.0
H1273 H 0.80817 0.24584 0.85023 0.0
H1274 H 0.90268 0.2181 0.86258 0.0
C1275 C 0.94156 0.32024 0.80885 0.0
C1276 C 0.93065 0.34673 0.79565 0.0
C1277 C 0.89863 0.3516 0.79326 0.0
C1278 C 0.87788 0.33063 0.80403 0.0
C1279 C 0.88946 0.30485 0.81704 0.0
C1280 C 0.92056 0.29955 0.81939 0.0
C1281 C 0.92713 0.27016 0.83445 0.0
C1282 C 0.94411 0.24968 0.81228 0.0
C1283 C 0.94508 0.27386 0.86467 0.0
C1284 C 0.89486 0.25977 0.84036 0.0
C1285 C 0.87345 0.28009 0.83019 0.0
C1286 C 0.84215 0.27553 0.83359 0.0
C1287 C 0.83249 0.24955 0.84778 0.0
C1288 C 0.85404 0.22838 0.85837 0.0
C1289 C 0.88563 0.23367 0.85443 0.0
H1290 H 0.08102 0.64306 0.05886 0.0
H1291 H 0.08807 0.67801 0.15119 0.0
H1292 H 0.03933 0.70442 0.14364 0.0
H1293 H 0.0509 0.70772 0.0237 0.0
H1294 H 0.02519 0.6891 0.99803 0.0
H1295 H 0.05975 0.67115 0.0111 0.0
H1296 H 0.02787 0.62778 0.03171 0.0
H1297 H 0.99318 0.64569 0.01876 0.0
H1298 H 0.99729 0.63465 0.05844 0.0
H1299 H 0.99279 0.7303 0.12537 0.0
H1300 H 0.94977 0.75364 0.09739 0.0
H1301 H 0.97023 0.70148 0.01706 0.0
C1302 C 0.07218 0.65614 0.07752 0.0
C1303 C 0.08834 0.65814 0.10579 0.0
C1304 C 0.07594 0.67555 0.1296 0.0
C1305 C 0.04828 0.69079 0.12549 0.0
C1306 C 0.03301 0.68837 0.09748 0.0
C1307 C 0.04432 0.67142 0.07388 0.0
C1308 C 0.02356 0.67352 0.04574 0.0
C1309 C 0.04089 0.68613 0.01801 0.0
C1310 C 0.00965 0.64363 0.03823 0.0
C1311 C 0.99925 0.69478 0.05708 0.0
C1312 C 1.00528 0.70295 0.08704 0.0
C1313 C 0.98753 0.72375 0.10209 0.0
C1314 C 0.96318 0.7369 0.08602 0.0
C1315 C 0.95648 0.72902 0.05533 0.0
C1316 C 0.97445 0.70733 0.04079 0.0
H1317 H 0.66355 0.83643 0.38659 0.0
H1318 H 0.63504 0.89832 0.31569 0.0
H1319 H 0.60961 0.85866 0.28763 0.0
H1320 H 0.67757 0.77484 0.33512 0.0
H1321 H 0.66298 0.74795 0.36166 0.0
H1322 H 0.68022 0.7809 0.37596 0.0
H1323 H 0.63107 0.79265 0.40668 0.0
H1324 H 0.61377 0.75969 0.39263 0.0
H1325 H 0.59475 0.79444 0.38687 0.0
H1326 H 0.58466 0.81353 0.26857 0.0
H1327 H 0.5615 0.76521 0.25967 0.0
H1328 H 0.60645 0.73101 0.34153 0.0
C1329 C 0.65197 0.84162 0.36515 0.0
C1330 C 0.65159 0.87062 0.35328 0.0
C1331 C 0.63622 0.87633 0.32506 0.0
C1332 C 0.62156 0.85392 0.30896 0.0
C1333 C 0.62249 0.82568 0.32117 0.0
C1334 C 0.6373 0.81935 0.34858 0.0
C1335 C 0.63415 0.7871 0.35678 0.0
C1336 C 0.66561 0.77179 0.35741 0.0
C1337 C 0.61744 0.78325 0.38756 0.0
C1338 C 0.61477 0.77648 0.33 0.0
C1339 C 0.60847 0.79921 0.30973 0.0
C1340 C 0.58977 0.79549 0.28404 0.0
C1341 C 0.57678 0.76799 0.27913 0.0
C1342 C 0.58269 0.74438 0.29955 0.0
C1343 C 0.60224 0.74855 0.32515 0.0
H1344 H 0.55377 0.34772 0.57524 0.0
H1345 H 0.55584 0.37871 0.48063 0.0
H1346 H 0.51194 0.41148 0.49119 0.0
H1347 H 0.47281 0.3469 0.58319 0.0
H1348 H 0.47329 0.35919 0.62247 0.0
H1349 H 0.50529 0.33876 0.60761 0.0
H1350 H 0.54197 0.38049 0.6231 0.0
H1351 H 0.5101 0.40102 0.63812 0.0
H1352 H 0.53446 0.41718 0.60943 0.0
H1353 H 0.46661 0.43982 0.51194 0.0
H1354 H 0.42429 0.46205 0.54133 0.0
H1355 H 0.45327 0.41325 0.62254 0.0
C1356 C 0.54514 0.36142 0.55668 0.0
C1357 C 0.55826 0.36052 0.52705 0.0
C1358 C 0.54618 0.37893 0.50351 0.0
C1359 C 0.52124 0.39764 0.50928 0.0
C1360 C 0.50874 0.39776 0.53872 0.0
C1361 C 0.52039 0.38022 0.56204 0.0
C1362 C 0.5028 0.3843 0.59161 0.0
C1363 C 0.48765 0.35558 0.60181 0.0
C1364 C 0.52357 0.39648 0.61706 0.0
C1365 C 0.47919 0.40669 0.58125 0.0
C1366 C 0.48299 0.41423 0.55069 0.0
C1367 C 0.46358 0.43424 0.53595 0.0
C1368 C 0.4397 0.44688 0.55291 0.0
C1369 C 0.43542 0.43951 0.58433 0.0
C1370 C 0.45561 0.41916 0.59852 0.0
H1371 H 0.11336 0.72034 0.65005 0.0
H1372 H 0.20847 0.74063 0.6691 0.0
H1373 H 0.19265 0.78817 0.6906 0.0
H1374 H 0.08974 0.79247 0.628 0.0
H1375 H 0.05272 0.79009 0.6459 0.0
H1376 H 0.07143 0.75748 0.63222 0.0
H1377 H 0.0672 0.73392 0.68638 0.0
H1378 H 0.04834 0.76641 0.70018 0.0
H1379 H 0.08241 0.75289 0.71921 0.0
H1380 H 0.1665 0.83419 0.70911 0.0
H1381 H 0.13186 0.8744 0.72452 0.0
H1382 H 0.05374 0.82354 0.69479 0.0
C1383 C 0.13087 0.73459 0.65907 0.0
C1384 C 0.16223 0.72669 0.65768 0.0
C1385 C 0.18436 0.74629 0.66939 0.0
C1386 C 0.17559 0.77331 0.68184 0.0
C1387 C 0.14455 0.78049 0.68258 0.0
C1388 C 0.12252 0.76164 0.67165 0.0
C1389 C 0.09071 0.7747 0.67499 0.0
C1390 C 0.07525 0.77894 0.6434 0.0
C1391 C 0.07101 0.75585 0.69648 0.0
C1392 C 0.0983 0.80383 0.68949 0.0
C1393 C 0.12949 0.8068 0.69359 0.0
C1394 C 0.14202 0.83205 0.7061 0.0
C1395 C 0.12215 0.85483 0.71471 0.0
C1396 C 0.09005 0.85217 0.71095 0.0
C1397 C 0.07813 0.82624 0.69816 0.0
H1398 H 0.46215 0.88327 0.95313 0.0
H1399 H 0.50734 0.80061 0.97454 0.0
H1400 H 0.5567 0.82126 0.95921 0.0
H1401 H 0.50456 0.89867 0.88619 0.0
H1402 H 0.5073 0.93752 0.8923 0.0
H1403 H 0.47548 0.91757 0.90781 0.0
H1404 H 0.48831 0.93646 0.96234 0.0
H1405 H 0.52012 0.95661 0.94695 0.0
H1406 H 0.52623 0.93077 0.9779 0.0
H1407 H 0.60026 0.84854 0.93813 0.0
H1408 H 0.63647 0.88205 0.91309 0.0
H1409 H 0.56463 0.94777 0.90448 0.0
C1410 C 0.48256 0.86979 0.95511 0.0
C1411 C 0.48083 0.84029 0.96496 0.0
C1412 C 0.50799 0.82318 0.96683 0.0
C1413 C 0.53624 0.83473 0.95831 0.0
C1414 C 0.53714 0.86354 0.94797 0.0
C1415 C 0.51118 0.881 0.94644 0.0
C1416 C 0.51866 0.91079 0.93284 0.0
C1417 C 0.50041 0.91645 0.90302 0.0
C1418 C 0.51299 0.9351 0.95642 0.0
C1419 C 0.55262 0.90695 0.92642 0.0
C1420 C 0.56272 0.87954 0.93559 0.0
C1421 C 0.59274 0.87017 0.93104 0.0
C1422 C 0.61308 0.88928 0.91659 0.0
C1423 C 0.60338 0.91745 0.90674 0.0
C1424 C 0.57277 0.92647 0.91206 0.0
H1425 H 0.94341 0.14135 0.43253 0.0
H1426 H 0.9517 0.16446 0.33591 0.0
H1427 H 0.99862 0.19172 0.34731 0.0
H1428 H 0.96817 0.209 0.46241 0.0
H1429 H 0.98959 0.19362 0.49424 0.0
H1430 H 0.95749 0.17415 0.47859 0.0
H1431 H 0.99223 0.1289 0.46961 0.0
H1432 H 0.02447 0.1483 0.48522 0.0
H1433 H 0.02665 0.13275 0.44731 0.0
H1434 H 0.04165 0.2198 0.36887 0.0
H1435 H 0.07952 0.24667 0.39976 0.0
H1436 H 0.04668 0.20431 0.4826 0.0
C1437 C 0.95538 0.15175 0.41372 0.0
C1438 C 0.9435 0.15093 0.38329 0.0
C1439 C 0.9598 0.16518 0.35946 0.0
C1440 C 0.98672 0.18053 0.36565 0.0
C1441 C 0.99748 0.18131 0.39581 0.0
C1442 C 0.98255 0.1672 0.4195 0.0
C1443 C 0.99867 0.17266 0.45004 0.0
C1444 C 0.9772 0.18829 0.47264 0.0
C1445 C 0.01125 0.14394 0.46386 0.0
C1446 C 0.02451 0.19253 0.43977 0.0
C1447 C 0.02331 0.19704 0.40831 0.0
C1448 C 0.04319 0.21605 0.39343 0.0
C1449 C 0.06461 0.23121 0.41113 0.0
C1450 C 0.06634 0.22712 0.44335 0.0
C1451 C 0.04634 0.20718 0.45786 0.0
loop_
_geom_bond_atom_site_label_1
_geom_bond_atom_site_label_2
_geom_bond_distance
_geom_bond_site_symmetry_2
_ccdc_geom_bond_type
Tb0 C10 2.825 . S
Tb0 O11 2.347 . S
Tb0 O14 2.366 . S
Tb0 O19 2.418 . S
Tb0 O20 2.384 . S
Tb0 O23 2.479 . S
Tb0 O24 2.471 . S
Eu1 O12 2.418 . S
Eu1 O13 2.384 . S
Eu1 O16 2.479 . S
Eu1 O17 2.471 . S
Eu1 O18 2.347 . S
Eu1 O21 2.366 . S
Eu1 C31 2.825 . S
C2 O18 1.259 . S
C2 O19 1.265 . S
C3 O20 1.255 . S
C3 O21 1.265 . S
C4 C6 1.380 . S
C4 C7 1.374 . S
C4 C10 1.507 . S
C5 C6 1.384 . S
C5 C9 1.387 . S
C5 H32 0.930 . S
C6 C4 1.380 . S
C6 C5 1.384 . S
C6 H33 0.931 . S
C7 C4 1.374 . S
C7 C8 1.390 . S
C7 H34 0.930 . S
C8 C7 1.390 . S
C8 C9 1.391 . S
C8 H35 0.930 . S
C9 C5 1.387 . S
C9 C8 1.391 . S
C10 Tb0 2.825 . S
C10 C4 1.507 . S
C10 O23 1.238 . S
C10 O24 1.247 . S
O11 Tb0 2.347 . S
O11 C15 1.259 . S
O12 Eu1 2.418 . S
O12 C15 1.265 . S
O13 Eu1 2.384 . S
O13 C22 1.255 . S
O14 Tb0 2.366 . S
O14 C22 1.265 . S
C15 O11 1.259 . S
C15 O12 1.265 . S
O16 Eu1 2.479 . S
O16 C31 1.238 . S
O17 Eu1 2.471 . S
O17 C31 1.247 . S
O18 Eu1 2.347 . S
O18 C2 1.259 . S
O19 Tb0 2.418 . S
O19 C2 1.265 . S
O20 Tb0 2.384 . S
O20 C3 1.255 . S
O21 Eu1 2.366 . S
O21 C3 1.265 . S
C22 O13 1.255 . S
C22 O14 1.265 . S
O23 Tb0 2.479 . S
O23 C10 1.238 . S
O24 Tb0 2.471 . S
O24 C10 1.247 . S
C25 C28 1.380 . S
C25 C29 1.374 . S
C25 C31 1.507 . S
C26 C27 1.387 . S
C26 C30 1.391 . S
C27 C26 1.387 . S
C27 C28 1.384 . S
C27 H36 0.930 . S
C28 C25 1.380 . S
C28 C27 1.384 . S
C28 H37 0.931 . S
C29 C25 1.374 . S
C29 C30 1.390 . S
C29 H38 0.930 . S
C30 C26 1.391 . S
C30 C29 1.390 . S
C30 H39 0.930 . S
C31 Eu1 2.825 . S
C31 O16 1.238 . S
C31 O17 1.247 . S
C31 C25 1.507 . S
H32 C5 0.930 . S
H33 C6 0.931 . S
H34 C7 0.930 . S
H35 C8 0.930 . S
H36 C27 0.930 . S
H37 C28 0.931 . S
H38 C29 0.930 . S
H39 C30 0.930 . S
Tb40 C50 2.825 . S
Tb40 O51 2.347 . S
Tb40 O54 2.366 1_655 S
Tb40 O59 2.418 1_655 S
Tb40 O60 2.384 . S
Tb40 O63 2.479 . S
Tb40 O64 2.471 . S
Eu41 O52 2.418 . S
Eu41 O53 2.384 . S
Eu41 O56 2.479 . S
Eu41 O57 2.471 . S
Eu41 O58 2.347 . S
Eu41 O61 2.366 . S
Eu41 C71 2.825 . S
C42 O58 1.259 . S
C42 O59 1.265 . S
C43 O60 1.255 1_455 S
C43 O61 1.265 . S
C44 C46 1.380 . S
C44 C47 1.374 . S
C44 C50 1.507 . S
C45 C46 1.384 . S
C45 C49 1.387 . S
C45 H72 0.930 . S
C46 C44 1.380 . S
C46 C45 1.384 . S
C46 H73 0.931 . S
C47 C44 1.374 . S
C47 C48 1.390 . S
C47 H74 0.930 . S
C48 C47 1.390 . S
C48 C49 1.391 . S
C48 H75 0.930 . S
C49 C45 1.387 . S
C49 C48 1.391 . S
C50 Tb40 2.825 . S
C50 C44 1.507 . S
C50 O63 1.238 . S
C50 O64 1.247 . S
O51 Tb40 2.347 . S
O51 C55 1.259 . S
O52 Eu41 2.418 . S
O52 C55 1.265 1_455 S
O53 Eu41 2.384 . S
O53 C62 1.255 . S
O54 Tb40 2.366 1_455 S
O54 C62 1.265 . S
C55 O51 1.259 . S
C55 O52 1.265 1_655 S
O56 Eu41 2.479 . S
O56 C71 1.238 . S
O57 Eu41 2.471 . S
O57 C71 1.247 . S
O58 Eu41 2.347 . S
O58 C42 1.259 . S
O59 Tb40 2.418 1_455 S
O59 C42 1.265 . S
O60 Tb40 2.384 . S
O60 C43 1.255 1_655 S
O61 Eu41 2.366 . S
O61 C43 1.265 . S
C62 O53 1.255 . S
C62 O54 1.265 . S
O63 Tb40 2.479 . S
O63 C50 1.238 . S
O64 Tb40 2.471 . S
O64 C50 1.247 . S
C65 C68 1.380 . S
C65 C69 1.374 . S
C65 C71 1.507 . S
C66 C67 1.387 . S
C66 C70 1.391 . S
C67 C66 1.387 . S
C67 C68 1.384 . S
C67 H76 0.930 . S
C68 C65 1.380 . S
C68 C67 1.384 . S
C68 H77 0.931 . S
C69 C65 1.374 . S
C69 C70 1.390 . S
C69 H78 0.930 . S
C70 C66 1.391 . S
C70 C69 1.390 . S
C70 H79 0.930 . S
C71 Eu41 2.825 . S
C71 O56 1.238 . S
C71 O57 1.247 . S
C71 C65 1.507 . S
H72 C45 0.930 . S
H73 C46 0.931 . S
H74 C47 0.930 . S
H75 C48 0.930 . S
H76 C67 0.930 . S
H77 C68 0.931 . S
H78 C69 0.930 . S
H79 C70 0.930 . S
Tb80 C90 2.825 . S
Tb80 O91 2.347 . S
Tb80 O94 2.366 1_554 S
Tb80 O99 2.418 1_554 S
Tb80 O100 2.384 . S
Tb80 O103 2.479 . S
Tb80 O104 2.471 . S
Eu81 O92 2.418 1_556 S
Eu81 O93 2.384 . S
Eu81 O96 2.479 . S
Eu81 O97 2.471 . S
Eu81 O98 2.347 . S
Eu81 O101 2.366 . S
Eu81 C111 2.825 . S
C82 O98 1.259 . S
C82 O99 1.265 . S
C83 O100 1.255 . S
C83 O101 1.265 1_554 S
C84 C86 1.380 . S
C84 C87 1.374 . S
C84 C90 1.507 . S
C85 C86 1.384 . S
C85 C89 1.387 . S
C85 H112 0.930 . S
C86 C84 1.380 . S
C86 C85 1.384 . S
C86 H113 0.931 . S
C87 C84 1.374 . S
C87 C88 1.390 . S
C87 H114 0.930 . S
C88 C87 1.390 . S
C88 C89 1.391 . S
C88 H115 0.930 . S
C89 C85 1.387 . S
C89 C88 1.391 . S
C90 Tb80 2.825 . S
C90 C84 1.507 . S
C90 O103 1.238 . S
C90 O104 1.247 . S
O91 Tb80 2.347 . S
O91 C95 1.259 . S
O92 Eu81 2.418 1_554 S
O92 C95 1.265 . S
O93 Eu81 2.384 . S
O93 C102 1.255 . S
O94 Tb80 2.366 1_556 S
O94 C102 1.265 . S
C95 O91 1.259 . S
C95 O92 1.265 . S
O96 Eu81 2.479 . S
O96 C111 1.238 . S
O97 Eu81 2.471 . S
O97 C111 1.247 . S
O98 Eu81 2.347 . S
O98 C82 1.259 . S
O99 Tb80 2.418 1_556 S
O99 C82 1.265 . S
O100 Tb80 2.384 . S
O100 C83 1.255 . S
O101 Eu81 2.366 . S
O101 C83 1.265 1_556 S
C102 O93 1.255 . S
C102 O94 1.265 . S
O103 Tb80 2.479 . S
O103 C90 1.238 . S
O104 Tb80 2.471 . S
O104 C90 1.247 . S
C105 C108 1.380 . S
C105 C109 1.374 . S
C105 C111 1.507 . S
C106 C107 1.387 . S
C106 C110 1.391 . S
C107 C106 1.387 . S
C107 C108 1.384 . S
C107 H116 0.930 . S
C108 C105 1.380 . S
C108 C107 1.384 . S
C108 H117 0.931 . S
C109 C105 1.374 . S
C109 C110 1.390 . S
C109 H118 0.930 . S
C110 C106 1.391 . S
C110 C109 1.390 . S
C110 H119 0.930 . S
C111 Eu81 2.825 . S
C111 O96 1.238 . S
C111 O97 1.247 . S
C111 C105 1.507 . S
H112 C85 0.930 . S
H113 C86 0.931 . S
H114 C87 0.930 . S
H115 C88 0.930 . S
H116 C107 0.930 . S
H117 C108 0.931 . S
H118 C109 0.930 . S
H119 C110 0.930 . S
Tb120 C130 2.825 . S
Tb120 O131 2.347 . S
Tb120 O134 2.366 . S
Tb120 O139 2.418 . S
Tb120 O140 2.384 . S
Tb120 O143 2.479 . S
Tb120 O144 2.471 . S
Eu121 O132 2.418 . S
Eu121 O133 2.384 . S
Eu121 O136 2.479 . S
Eu121 O137 2.471 . S
Eu121 O138 2.347 . S
Eu121 O141 2.366 . S
Eu121 C151 2.825 . S
C122 O138 1.259 . S
C122 O139 1.265 . S
C123 O140 1.255 . S
C123 O141 1.265 . S
C124 C126 1.380 . S
C124 C127 1.374 . S
C124 C130 1.507 . S
C125 C126 1.384 . S
C125 C129 1.387 . S
C125 H152 0.930 . S
C126 C124 1.380 . S
C126 C125 1.384 . S
C126 H153 0.931 . S
C127 C124 1.374 . S
C127 C128 1.390 . S
C127 H154 0.930 . S
C128 C127 1.390 . S
C128 C129 1.391 . S
C128 H155 0.930 . S
C129 C125 1.387 . S
C129 C128 1.391 . S
C130 Tb120 2.825 . S
C130 C124 1.507 . S
C130 O143 1.238 . S
C130 O144 1.247 . S
O131 Tb120 2.347 . S
O131 C135 1.259 . S
O132 Eu121 2.418 . S
O132 C135 1.265 . S
O133 Eu121 2.384 . S
O133 C142 1.255 . S
O134 Tb120 2.366 . S
O134 C142 1.265 . S
C135 O131 1.259 . S
C135 O132 1.265 . S
O136 Eu121 2.479 . S
O136 C151 1.238 . S
O137 Eu121 2.471 . S
O137 C151 1.247 . S
O138 Eu121 2.347 . S
O138 C122 1.259 . S
O139 Tb120 2.418 . S
O139 C122 1.265 . S
O140 Tb120 2.384 . S
O140 C123 1.255 . S
O141 Eu121 2.366 . S
O141 C123 1.265 . S
C142 O133 1.255 . S
C142 O134 1.265 . S
O143 Tb120 2.479 . S
O143 C130 1.238 . S
O144 Tb120 2.471 . S
O144 C130 1.247 . S
C145 C148 1.380 . S
C145 C149 1.374 . S
C145 C151 1.507 . S
C146 C147 1.387 . S
C146 C150 1.391 . S
C147 C146 1.387 . S
C147 C148 1.384 . S
C147 H156 0.930 . S
C148 C145 1.380 . S
C148 C147 1.384 . S
C148 H157 0.931 . S
C149 C145 1.374 . S
C149 C150 1.390 . S
C149 H158 0.930 . S
C150 C146 1.391 . S
C150 C149 1.390 . S
C150 H159 0.930 . S
C151 Eu121 2.825 . S
C151 O136 1.238 . S
C151 O137 1.247 . S
C151 C145 1.507 . S
H152 C125 0.930 . S
H153 C126 0.931 . S
H154 C127 0.930 . S
H155 C128 0.930 . S
H156 C147 0.930 . S
H157 C148 0.931 . S
H158 C149 0.930 . S
H159 C150 0.930 . S
Tb160 C170 2.825 . S
Tb160 O171 2.347 . S
Tb160 O174 2.366 . S
Tb160 O179 2.418 . S
Tb160 O180 2.384 . S
Tb160 O183 2.479 . S
Tb160 O184 2.471 . S
Eu161 O172 2.418 . S
Eu161 O173 2.384 . S
Eu161 O176 2.479 . S
Eu161 O177 2.471 . S
Eu161 O178 2.347 . S
Eu161 O181 2.366 . S
Eu161 C191 2.825 . S
C162 O178 1.259 . S
C162 O179 1.265 . S
C163 O180 1.255 . S
C163 O181 1.265 . S
C164 C166 1.380 . S
C164 C167 1.374 . S
C164 C170 1.507 . S
C165 C166 1.384 . S
C165 C169 1.387 . S
C165 H192 0.930 . S
C166 C164 1.380 . S
C166 C165 1.384 . S
C166 H193 0.931 . S
C167 C164 1.374 . S
C167 C168 1.390 . S
C167 H194 0.930 . S
C168 C167 1.390 . S
C168 C169 1.391 . S
C168 H195 0.930 . S
C169 C165 1.387 . S
C169 C168 1.391 . S
C170 Tb160 2.825 . S
C170 C164 1.507 . S
C170 O183 1.238 . S
C170 O184 1.247 . S
O171 Tb160 2.347 . S
O171 C175 1.259 . S
O172 Eu161 2.418 . S
O172 C175 1.265 . S
O173 Eu161 2.384 . S
O173 C182 1.255 . S
O174 Tb160 2.366 . S
O174 C182 1.265 . S
C175 O171 1.259 . S
C175 O172 1.265 . S
O176 Eu161 2.479 . S
O176 C191 1.238 . S
O177 Eu161 2.471 . S
O177 C191 1.247 . S
O178 Eu161 2.347 . S
O178 C162 1.259 . S
O179 Tb160 2.418 . S
O179 C162 1.265 . S
O180 Tb160 2.384 . S
O180 C163 1.255 . S
O181 Eu161 2.366 . S
O181 C163 1.265 . S
C182 O173 1.255 . S
C182 O174 1.265 . S
O183 Tb160 2.479 . S
O183 C170 1.238 . S
O184 Tb160 2.471 . S
O184 C170 1.247 . S
C185 C188 1.380 . S
C185 C189 1.374 . S
C185 C191 1.507 . S
C186 C187 1.387 . S
C186 C190 1.391 . S
C187 C186 1.387 . S
C187 C188 1.384 . S
C187 H196 0.930 . S
C188 C185 1.380 . S
C188 C187 1.384 . S
C188 H197 0.931 . S
C189 C185 1.374 . S
C189 C190 1.390 . S
C189 H198 0.930 . S
C190 C186 1.391 . S
C190 C189 1.390 . S
C190 H199 0.930 . S
C191 Eu161 2.825 . S
C191 O176 1.238 . S
C191 O177 1.247 . S
C191 C185 1.507 . S
H192 C165 0.930 . S
H193 C166 0.931 . S
H194 C167 0.930 . S
H195 C168 0.930 . S
H196 C187 0.930 . S
H197 C188 0.931 . S
H198 C189 0.930 . S
H199 C190 0.930 . S
Tb200 C210 2.825 . S
Tb200 O211 2.347 . S
Tb200 O214 2.366 . S
Tb200 O219 2.418 . S
Tb200 O220 2.384 . S
Tb200 O223 2.479 . S
Tb200 O224 2.471 . S
Eu201 O212 2.418 . S
Eu201 O213 2.384 1_455 S
Eu201 O216 2.479 . S
Eu201 O217 2.471 . S
Eu201 O218 2.347 1_455 S
Eu201 O221 2.366 . S
Eu201 C231 2.825 . S
C202 O218 1.259 . S
C202 O219 1.265 . S
C203 O220 1.255 1_455 S
C203 O221 1.265 . S
C204 C206 1.380 . S
C204 C207 1.374 . S
C204 C210 1.507 . S
C205 C206 1.384 . S
C205 C209 1.387 . S
C205 H232 0.930 . S
C206 C204 1.380 . S
C206 C205 1.384 . S
C206 H233 0.931 . S
C207 C204 1.374 . S
C207 C208 1.390 . S
C207 H234 0.930 . S
C208 C207 1.390 . S
C208 C209 1.391 . S
C208 H235 0.930 . S
C209 C205 1.387 . S
C209 C208 1.391 . S
C210 Tb200 2.825 . S
C210 C204 1.507 . S
C210 O223 1.238 . S
C210 O224 1.247 . S
O211 Tb200 2.347 . S
O211 C215 1.259 1_655 S
O212 Eu201 2.418 . S
O212 C215 1.265 . S
O213 Eu201 2.384 1_655 S
O213 C222 1.255 . S
O214 Tb200 2.366 . S
O214 C222 1.265 . S
C215 O211 1.259 1_455 S
C215 O212 1.265 . S
O216 Eu201 2.479 . S
O216 C231 1.238 . S
O217 Eu201 2.471 . S
O217 C231 1.247 . S
O218 Eu201 2.347 1_655 S
O218 C202 1.259 . S
O219 Tb200 2.418 . S
O219 C202 1.265 . S
O220 Tb200 2.384 . S
O220 C203 1.255 1_655 S
O221 Eu201 2.366 . S
O221 C203 1.265 . S
C222 O213 1.255 . S
C222 O214 1.265 . S
O223 Tb200 2.479 . S
O223 C210 1.238 . S
O224 Tb200 2.471 . S
O224 C210 1.247 . S
C225 C228 1.380 . S
C225 C229 1.374 . S
C225 C231 1.507 . S
C226 C227 1.387 . S
C226 C230 1.391 . S
C227 C226 1.387 . S
C227 C228 1.384 . S
C227 H236 0.930 . S
C228 C225 1.380 . S
C228 C227 1.384 . S
C228 H237 0.931 . S
C229 C225 1.374 . S
C229 C230 1.390 . S
C229 H238 0.930 . S
C230 C226 1.391 . S
C230 C229 1.390 . S
C230 H239 0.930 . S
C231 Eu201 2.825 . S
C231 O216 1.238 . S
C231 O217 1.247 . S
C231 C225 1.507 . S
H232 C205 0.930 . S
H233 C206 0.931 . S
H234 C207 0.930 . S
H235 C208 0.930 . S
H236 C227 0.930 . S
H237 C228 0.931 . S
H238 C229 0.930 . S
H239 C230 0.930 . S
Tb240 C250 2.825 . S
Tb240 O251 2.347 1_554 S
Tb240 O254 2.366 . S
Tb240 O259 2.418 . S
Tb240 O260 2.384 1_554 S
Tb240 O263 2.479 . S
Tb240 O264 2.471 . S
Eu241 O252 2.418 . S
Eu241 O253 2.384 1_556 S
Eu241 O256 2.479 . S
Eu241 O257 2.471 . S
Eu241 O258 2.347 1_556 S
Eu241 O261 2.366 . S
Eu241 C271 2.825 . S
C242 O258 1.259 . S
C242 O259 1.265 . S
C243 O260 1.255 . S
C243 O261 1.265 . S
C244 C246 1.380 . S
C244 C247 1.374 . S
C244 C250 1.507 . S
C245 C246 1.384 . S
C245 C249 1.387 . S
C245 H272 0.930 . S
C246 C244 1.380 . S
C246 C245 1.384 . S
C246 H273 0.931 . S
C247 C244 1.374 . S
C247 C248 1.390 . S
C247 H274 0.930 . S
C248 C247 1.390 . S
C248 C249 1.391 . S
C248 H275 0.930 . S
C249 C245 1.387 . S
C249 C248 1.391 . S
C250 Tb240 2.825 . S
C250 C244 1.507 . S
C250 O263 1.238 . S
C250 O264 1.247 . S
O251 Tb240 2.347 1_556 S
O251 C255 1.259 . S
O252 Eu241 2.418 . S
O252 C255 1.265 . S
O253 Eu241 2.384 1_554 S
O253 C262 1.255 . S
O254 Tb240 2.366 . S
O254 C262 1.265 . S
C255 O251 1.259 . S
C255 O252 1.265 . S
O256 Eu241 2.479 . S
O256 C271 1.238 . S
O257 Eu241 2.471 . S
O257 C271 1.247 . S
O258 Eu241 2.347 1_554 S
O258 C242 1.259 . S
O259 Tb240 2.418 . S
O259 C242 1.265 . S
O260 Tb240 2.384 1_556 S
O260 C243 1.255 . S
O261 Eu241 2.366 . S
O261 C243 1.265 . S
C262 O253 1.255 . S
C262 O254 1.265 . S
O263 Tb240 2.479 . S
O263 C250 1.238 . S
O264 Tb240 2.471 . S
O264 C250 1.247 . S
C265 C268 1.380 . S
C265 C269 1.374 . S
C265 C271 1.507 . S
C266 C267 1.387 . S
C266 C270 1.391 . S
C267 C266 1.387 . S
C267 C268 1.384 . S
C267 H276 0.930 . S
C268 C265 1.380 . S
C268 C267 1.384 . S
C268 H277 0.931 . S
C269 C265 1.374 . S
C269 C270 1.390 . S
C269 H278 0.930 . S
C270 C266 1.391 . S
C270 C269 1.390 . S
C270 H279 0.930 . S
C271 Eu241 2.825 . S
C271 O256 1.238 . S
C271 O257 1.247 . S
C271 C265 1.507 . S
H272 C245 0.930 . S
H273 C246 0.931 . S
H274 C247 0.930 . S
H275 C248 0.930 . S
H276 C267 0.930 . S
H277 C268 0.931 . S
H278 C269 0.930 . S
H279 C270 0.930 . S
Tb280 C290 2.825 . S
Tb280 O291 2.347 . S
Tb280 O294 2.366 . S
Tb280 O299 2.418 . S
Tb280 O300 2.384 . S
Tb280 O303 2.479 . S
Tb280 O304 2.471 . S
Eu281 O292 2.418 . S
Eu281 O293 2.384 . S
Eu281 O296 2.479 . S
Eu281 O297 2.471 . S
Eu281 O298 2.347 . S
Eu281 O301 2.366 . S
Eu281 C311 2.825 . S
C282 O298 1.259 . S
C282 O299 1.265 . S
C283 O300 1.255 . S
C283 O301 1.265 . S
C284 C286 1.380 . S
C284 C287 1.374 . S
C284 C290 1.507 . S
C285 C286 1.384 . S
C285 C289 1.387 . S
C285 H312 0.930 . S
C286 C284 1.380 . S
C286 C285 1.384 . S
C286 H313 0.931 . S
C287 C284 1.374 . S
C287 C288 1.390 . S
C287 H314 0.930 . S
C288 C287 1.390 . S
C288 C289 1.391 . S
C288 H315 0.930 . S
C289 C285 1.387 . S
C289 C288 1.391 . S
C290 Tb280 2.825 . S
C290 C284 1.507 . S
C290 O303 1.238 . S
C290 O304 1.247 . S
O291 Tb280 2.347 . S
O291 C295 1.259 . S
O292 Eu281 2.418 . S
O292 C295 1.265 . S
O293 Eu281 2.384 . S
O293 C302 1.255 . S
O294 Tb280 2.366 . S
O294 C302 1.265 . S
C295 O291 1.259 . S
C295 O292 1.265 . S
O296 Eu281 2.479 . S
O296 C311 1.238 . S
O297 Eu281 2.471 . S
O297 C311 1.247 . S
O298 Eu281 2.347 . S
O298 C282 1.259 . S
O299 Tb280 2.418 . S
O299 C282 1.265 . S
O300 Tb280 2.384 . S
O300 C283 1.255 . S
O301 Eu281 2.366 . S
O301 C283 1.265 . S
C302 O293 1.255 . S
C302 O294 1.265 . S
O303 Tb280 2.479 . S
O303 C290 1.238 . S
O304 Tb280 2.471 . S
O304 C290 1.247 . S
C305 C308 1.380 . S
C305 C309 1.374 . S
C305 C311 1.507 . S
C306 C307 1.387 . S
C306 C310 1.391 . S
C307 C306 1.387 . S
C307 C308 1.384 . S
C307 H316 0.930 . S
C308 C305 1.380 . S
C308 C307 1.384 . S
C308 H317 0.931 . S
C309 C305 1.374 . S
C309 C310 1.390 . S
C309 H318 0.930 . S
C310 C306 1.391 . S
C310 C309 1.390 . S
C310 H319 0.930 . S
C311 Eu281 2.825 . S
C311 O296 1.238 . S
C311 O297 1.247 . S
C311 C305 1.507 . S
H312 C285 0.930 . S
H313 C286 0.931 . S
H314 C287 0.930 . S
H315 C288 0.930 . S
H316 C307 0.930 . S
H317 C308 0.931 . S
H318 C309 0.930 . S
H319 C310 0.930 . S
Tb320 C330 2.825 . S
Tb320 O331 2.347 . S
Tb320 O334 2.366 . S
Tb320 O339 2.418 . S
Tb320 O340 2.384 . S
Tb320 O343 2.479 . S
Tb320 O344 2.471 . S
Eu321 O332 2.418 . S
Eu321 O333 2.384 . S
Eu321 O336 2.479 . S
Eu321 O337 2.471 . S
Eu321 O338 2.347 . S
Eu321 O341 2.366 . S
Eu321 C351 2.825 . S
C322 O338 1.259 . S
C322 O339 1.265 . S
C323 O340 1.255 . S
C323 O341 1.265 . S
C324 C326 1.380 . S
C324 C327 1.374 . S
C324 C330 1.507 . S
C325 C326 1.384 . S
C325 C329 1.387 . S
C325 H352 0.930 . S
C326 C324 1.380 . S
C326 C325 1.384 . S
C326 H353 0.931 . S
C327 C324 1.374 . S
C327 C328 1.390 . S
C327 H354 0.930 . S
C328 C327 1.390 . S
C328 C329 1.391 . S
C328 H355 0.930 . S
C329 C325 1.387 . S
C329 C328 1.391 . S
C330 Tb320 2.825 . S
C330 C324 1.507 . S
C330 O343 1.238 . S
C330 O344 1.247 . S
O331 Tb320 2.347 . S
O331 C335 1.259 . S
O332 Eu321 2.418 . S
O332 C335 1.265 . S
O333 Eu321 2.384 . S
O333 C342 1.255 . S
O334 Tb320 2.366 . S
O334 C342 1.265 . S
C335 O331 1.259 . S
C335 O332 1.265 . S
O336 Eu321 2.479 . S
O336 C351 1.238 . S
O337 Eu321 2.471 . S
O337 C351 1.247 . S
O338 Eu321 2.347 . S
O338 C322 1.259 . S
O339 Tb320 2.418 . S
O339 C322 1.265 . S
O340 Tb320 2.384 . S
O340 C323 1.255 . S
O341 Eu321 2.366 . S
O341 C323 1.265 . S
C342 O333 1.255 . S
C342 O334 1.265 . S
O343 Tb320 2.479 . S
O343 C330 1.238 . S
O344 Tb320 2.471 . S
O344 C330 1.247 . S
C345 C348 1.380 . S
C345 C349 1.374 . S
C345 C351 1.507 . S
C346 C347 1.387 . S
C346 C350 1.391 . S
C347 C346 1.387 . S
C347 C348 1.384 . S
C347 H356 0.930 . S
C348 C345 1.380 . S
C348 C347 1.384 . S
C348 H357 0.931 . S
C349 C345 1.374 . S
C349 C350 1.390 . S
C349 H358 0.930 . S
C350 C346 1.391 . S
C350 C349 1.390 . S
C350 H359 0.930 . S
C351 Eu321 2.825 . S
C351 O336 1.238 . S
C351 O337 1.247 . S
C351 C345 1.507 . S
H352 C325 0.930 . S
H353 C326 0.931 . S
H354 C327 0.930 . S
H355 C328 0.930 . S
H356 C347 0.930 . S
H357 C348 0.931 . S
H358 C349 0.930 . S
H359 C350 0.930 . S
Tb360 C370 2.825 . S
Tb360 O371 2.347 . S
Tb360 O374 2.366 . S
Tb360 O379 2.418 . S
Tb360 O380 2.384 1_545 S
Tb360 O383 2.479 . S
Tb360 O384 2.471 . S
Eu361 O372 2.418 . S
Eu361 O373 2.384 1_565 S
Eu361 O376 2.479 . S
Eu361 O377 2.471 . S
Eu361 O378 2.347 1_565 S
Eu361 O381 2.366 . S
Eu361 C391 2.825 . S
C362 O378 1.259 . S
C362 O379 1.265 . S
C363 O380 1.255 . S
C363 O381 1.265 . S
C364 C366 1.380 . S
C364 C367 1.374 . S
C364 C370 1.507 . S
C365 C366 1.384 . S
C365 C369 1.387 . S
C365 H392 0.930 . S
C366 C364 1.380 . S
C366 C365 1.384 . S
C366 H393 0.931 . S
C367 C364 1.374 . S
C367 C368 1.390 . S
C367 H394 0.930 . S
C368 C367 1.390 . S
C368 C369 1.391 . S
C368 H395 0.930 . S
C369 C365 1.387 . S
C369 C368 1.391 . S
C370 Tb360 2.825 . S
C370 C364 1.507 . S
C370 O383 1.238 . S
C370 O384 1.247 . S
O371 Tb360 2.347 . S
O371 C375 1.259 1_545 S
O372 Eu361 2.418 . S
O372 C375 1.265 . S
O373 Eu361 2.384 1_545 S
O373 C382 1.255 . S
O374 Tb360 2.366 . S
O374 C382 1.265 . S
C375 O371 1.259 1_565 S
C375 O372 1.265 . S
O376 Eu361 2.479 . S
O376 C391 1.238 . S
O377 Eu361 2.471 . S
O377 C391 1.247 . S
O378 Eu361 2.347 1_545 S
O378 C362 1.259 . S
O379 Tb360 2.418 . S
O379 C362 1.265 . S
O380 Tb360 2.384 1_565 S
O380 C363 1.255 . S
O381 Eu361 2.366 . S
O381 C363 1.265 . S
C382 O373 1.255 . S
C382 O374 1.265 . S
O383 Tb360 2.479 . S
O383 C370 1.238 . S
O384 Tb360 2.471 . S
O384 C370 1.247 . S
C385 C388 1.380 . S
C385 C389 1.374 . S
C385 C391 1.507 . S
C386 C387 1.387 . S
C386 C390 1.391 . S
C387 C386 1.387 . S
C387 C388 1.384 . S
C387 H396 0.930 . S
C388 C385 1.380 . S
C388 C387 1.384 . S
C388 H397 0.931 . S
C389 C385 1.374 . S
C389 C390 1.390 . S
C389 H398 0.930 . S
C390 C386 1.391 . S
C390 C389 1.390 . S
C390 H399 0.930 . S
C391 Eu361 2.825 . S
C391 O376 1.238 . S
C391 O377 1.247 . S
C391 C385 1.507 . S
H392 C365 0.930 . S
H393 C366 0.931 . S
H394 C367 0.930 . S
H395 C368 0.930 . S
H396 C387 0.930 . S
H397 C388 0.931 . S
H398 C389 0.930 . S
H399 C390 0.930 . S
Tb400 C410 2.825 . S
Tb400 O411 2.347 1_565 S
Tb400 O414 2.366 . S
Tb400 O419 2.418 . S
Tb400 O420 2.384 1_565 S
Tb400 O423 2.479 . S
Tb400 O424 2.471 . S
Eu401 O412 2.418 . S
Eu401 O413 2.384 1_545 S
Eu401 O416 2.479 . S
Eu401 O417 2.471 . S
Eu401 O418 2.347 1_545 S
Eu401 O421 2.366 . S
Eu401 C431 2.825 . S
C402 O418 1.259 . S
C402 O419 1.265 . S
C403 O420 1.255 . S
C403 O421 1.265 . S
C404 C406 1.380 . S
C404 C407 1.374 . S
C404 C410 1.507 . S
C405 C406 1.384 . S
C405 C409 1.387 . S
C405 H432 0.930 . S
C406 C404 1.380 . S
C406 C405 1.384 . S
C406 H433 0.931 . S
C407 C404 1.374 . S
C407 C408 1.390 . S
C407 H434 0.930 . S
C408 C407 1.390 . S
C408 C409 1.391 . S
C408 H435 0.930 . S
C409 C405 1.387 . S
C409 C408 1.391 . S
C410 Tb400 2.825 . S
C410 C404 1.507 . S
C410 O423 1.238 . S
C410 O424 1.247 . S
O411 Tb400 2.347 1_545 S
O411 C415 1.259 . S
O412 Eu401 2.418 . S
O412 C415 1.265 . S
O413 Eu401 2.384 1_565 S
O413 C422 1.255 . S
O414 Tb400 2.366 . S
O414 C422 1.265 . S
C415 O411 1.259 . S
C415 O412 1.265 . S
O416 Eu401 2.479 . S
O416 C431 1.238 . S
O417 Eu401 2.471 . S
O417 C431 1.247 . S
O418 Eu401 2.347 1_565 S
O418 C402 1.259 . S
O419 Tb400 2.418 . S
O419 C402 1.265 . S
O420 Tb400 2.384 1_545 S
O420 C403 1.255 . S
O421 Eu401 2.366 . S
O421 C403 1.265 . S
C422 O413 1.255 . S
C422 O414 1.265 . S
O423 Tb400 2.479 . S
O423 C410 1.238 . S
O424 Tb400 2.471 . S
O424 C410 1.247 . S
C425 C428 1.380 . S
C425 C429 1.374 . S
C425 C431 1.507 . S
C426 C427 1.387 . S
C426 C430 1.391 . S
C427 C426 1.387 . S
C427 C428 1.384 . S
C427 H436 0.930 . S
C428 C425 1.380 . S
C428 C427 1.384 . S
C428 H437 0.931 . S
C429 C425 1.374 . S
C429 C430 1.390 . S
C429 H438 0.930 . S
C430 C426 1.391 . S
C430 C429 1.390 . S
C430 H439 0.930 . S
C431 Eu401 2.825 . S
C431 O416 1.238 . S
C431 O417 1.247 . S
C431 C425 1.507 . S
H432 C405 0.930 . S
H433 C406 0.931 . S
H434 C407 0.930 . S
H435 C408 0.930 . S
H436 C427 0.930 . S
H437 C428 0.931 . S
H438 C429 0.930 . S
H439 C430 0.930 . S
Tb440 C450 2.825 . S
Tb440 O451 2.347 . S
Tb440 O454 2.366 . S
Tb440 O459 2.418 . S
Tb440 O460 2.384 . S
Tb440 O463 2.479 . S
Tb440 O464 2.471 . S
Eu441 O452 2.418 . S
Eu441 O453 2.384 . S
Eu441 O456 2.479 . S
Eu441 O457 2.471 . S
Eu441 O458 2.347 . S
Eu441 O461 2.366 . S
Eu441 C471 2.825 . S
C442 O458 1.259 . S
C442 O459 1.265 . S
C443 O460 1.255 . S
C443 O461 1.265 . S
C444 C446 1.380 . S
C444 C447 1.374 . S
C444 C450 1.507 . S
C445 C446 1.384 . S
C445 C449 1.387 . S
C445 H472 0.930 . S
C446 C444 1.380 . S
C446 C445 1.384 . S
C446 H473 0.931 . S
C447 C444 1.374 . S
C447 C448 1.390 . S
C447 H474 0.930 . S
C448 C447 1.390 . S
C448 C449 1.391 . S
C448 H475 0.930 . S
C449 C445 1.387 . S
C449 C448 1.391 . S
C450 Tb440 2.825 . S
C450 C444 1.507 . S
C450 O463 1.238 . S
C450 O464 1.247 . S
O451 Tb440 2.347 . S
O451 C455 1.259 . S
O452 Eu441 2.418 . S
O452 C455 1.265 . S
O453 Eu441 2.384 . S
O453 C462 1.255 . S
O454 Tb440 2.366 . S
O454 C462 1.265 . S
C455 O451 1.259 . S
C455 O452 1.265 . S
O456 Eu441 2.479 . S
O456 C471 1.238 . S
O457 Eu441 2.471 . S
O457 C471 1.247 . S
O458 Eu441 2.347 . S
O458 C442 1.259 . S
O459 Tb440 2.418 . S
O459 C442 1.265 . S
O460 Tb440 2.384 . S
O460 C443 1.255 . S
O461 Eu441 2.366 . S
O461 C443 1.265 . S
C462 O453 1.255 . S
C462 O454 1.265 . S
O463 Tb440 2.479 . S
O463 C450 1.238 . S
O464 Tb440 2.471 . S
O464 C450 1.247 . S
C465 C468 1.380 . S
C465 C469 1.374 . S
C465 C471 1.507 . S
C466 C467 1.387 . S
C466 C470 1.391 . S
C467 C466 1.387 . S
C467 C468 1.384 . S
C467 H476 0.930 . S
C468 C465 1.380 . S
C468 C467 1.384 . S
C468 H477 0.931 . S
C469 C465 1.374 . S
C469 C470 1.390 . S
C469 H478 0.930 . S
C470 C466 1.391 . S
C470 C469 1.390 . S
C470 H479 0.930 . S
C471 Eu441 2.825 . S
C471 O456 1.238 . S
C471 O457 1.247 . S
C471 C465 1.507 . S
H472 C445 0.930 . S
H473 C446 0.931 . S
H474 C447 0.930 . S
H475 C448 0.930 . S
H476 C467 0.930 . S
H477 C468 0.931 . S
H478 C469 0.930 . S
H479 C470 0.930 . S
H480 C492 0.930 . S
H481 C494 0.930 . S
H482 C495 0.930 . S
H483 C499 0.959 . S
H484 C499 0.959 . S
H485 C499 0.961 . S
H486 C500 0.960 . S
H487 C500 0.961 . S
H488 C500 0.959 . S
H489 C503 0.929 . S
H490 C504 0.931 . S
H491 C506 0.930 . S
C492 H480 0.930 . S
C492 C493 1.399 . S
C492 C497 1.399 . S
C493 C492 1.399 . S
C493 C494 1.376 . S
C494 H481 0.930 . S
C494 C493 1.376 . S
C494 C495 1.388 . S
C495 H482 0.930 . S
C495 C494 1.388 . S
C495 C496 1.390 . S
C496 C495 1.390 . S
C496 C497 1.394 . S
C496 C502 1.465 . S
C497 C492 1.399 . S
C497 C496 1.394 . S
C497 C498 1.516 . S
C498 C497 1.516 . S
C498 C499 1.502 . S
C498 C500 1.561 . S
C498 C501 1.526 . S
C499 H483 0.959 . S
C499 H484 0.959 . S
C499 H485 0.961 . S
C499 C498 1.502 . S
C500 H486 0.960 . S
C500 H487 0.961 . S
C500 H488 0.959 . S
C500 C498 1.561 . S
C501 C498 1.526 . S
C501 C502 1.396 . S
C501 C506 1.390 . S
C502 C496 1.465 . S
C502 C501 1.396 . S
C502 C503 1.399 . S
C503 H489 0.929 . S
C503 C502 1.399 . S
C503 C504 1.385 . S
C504 H490 0.931 . S
C504 C503 1.385 . S
C504 C505 1.389 . S
C505 C504 1.389 . S
C505 C506 1.387 . S
C506 H491 0.930 . S
C506 C501 1.390 . S
C506 C505 1.387 . S
H507 C519 0.930 . S
H508 C521 0.930 . S
H509 C522 0.930 . S
H510 C526 0.959 . S
H511 C526 0.959 . S
H512 C526 0.961 . S
H513 C527 0.960 . S
H514 C527 0.961 . S
H515 C527 0.959 . S
H516 C530 0.929 . S
H517 C531 0.931 . S
H518 C533 0.930 . S
C519 H507 0.930 . S
C519 C520 1.399 . S
C519 C524 1.399 . S
C520 C519 1.399 . S
C520 C521 1.376 . S
C521 H508 0.930 . S
C521 C520 1.376 . S
C521 C522 1.388 . S
C522 H509 0.930 . S
C522 C521 1.388 . S
C522 C523 1.390 . S
C523 C522 1.390 . S
C523 C524 1.394 . S
C523 C529 1.465 . S
C524 C519 1.399 . S
C524 C523 1.394 . S
C524 C525 1.516 . S
C525 C524 1.516 . S
C525 C526 1.502 . S
C525 C527 1.561 . S
C525 C528 1.526 . S
C526 H510 0.959 . S
C526 H511 0.959 . S
C526 H512 0.961 . S
C526 C525 1.502 . S
C527 H513 0.960 . S
C527 H514 0.961 . S
C527 H515 0.959 . S
C527 C525 1.561 . S
C528 C525 1.526 . S
C528 C529 1.396 . S
C528 C533 1.390 . S
C529 C523 1.465 . S
C529 C528 1.396 . S
C529 C530 1.399 . S
C530 H516 0.929 . S
C530 C529 1.399 . S
C530 C531 1.385 . S
C531 H517 0.931 . S
C531 C530 1.385 . S
C531 C532 1.389 . S
C532 C531 1.389 . S
C532 C533 1.387 . S
C533 H518 0.930 . S
C533 C528 1.390 . S
C533 C532 1.387 . S
H534 C546 0.930 1_556 S
H535 C548 0.930 . S
H536 C549 0.930 . S
H537 C553 0.959 1_554 S
H538 C553 0.959 . S
H539 C553 0.961 . S
H540 C554 0.960 . S
H541 C554 0.961 . S
H542 C554 0.959 . S
H543 C557 0.929 . S
H544 C558 0.931 . S
H545 C560 0.930 . S
C546 H534 0.930 1_554 S
C546 C547 1.399 . S
C546 C551 1.399 . S
C547 C546 1.399 . S
C547 C548 1.376 . S
C548 H535 0.930 . S
C548 C547 1.376 . S
C548 C549 1.388 . S
C549 H536 0.930 . S
C549 C548 1.388 . S
C549 C550 1.390 . S
C550 C549 1.390 . S
C550 C551 1.394 . S
C550 C556 1.465 . S
C551 C546 1.399 . S
C551 C550 1.394 . S
C551 C552 1.516 . S
C552 C551 1.516 . S
C552 C553 1.502 1_554 S
C552 C554 1.561 1_554 S
C552 C555 1.526 . S
C553 H537 0.959 1_556 S
C553 H538 0.959 . S
C553 H539 0.961 . S
C553 C552 1.502 1_556 S
C554 H540 0.960 . S
C554 H541 0.961 . S
C554 H542 0.959 . S
C554 C552 1.561 1_556 S
C555 C552 1.526 . S
C555 C556 1.396 . S
C555 C560 1.390 . S
C556 C550 1.465 . S
C556 C555 1.396 . S
C556 C557 1.399 . S
C557 H543 0.929 . S
C557 C556 1.399 . S
C557 C558 1.385 . S
C558 H544 0.931 . S
C558 C557 1.385 . S
C558 C559 1.389 . S
C559 C558 1.389 . S
C559 C560 1.387 . S
C560 H545 0.930 . S
C560 C555 1.390 . S
C560 C559 1.387 . S
H561 C573 0.930 . S
H562 C575 0.930 . S
H563 C576 0.930 . S
H564 C580 0.959 . S
H565 C580 0.959 . S
H566 C580 0.961 . S
H567 C581 0.960 . S
H568 C581 0.961 . S
H569 C581 0.959 . S
H570 C584 0.929 . S
H571 C585 0.931 1_565 S
H572 C587 0.930 . S
C573 H561 0.930 . S
C573 C574 1.399 . S
C573 C578 1.399 . S
C574 C573 1.399 . S
C574 C575 1.376 . S
C575 H562 0.930 . S
C575 C574 1.376 . S
C575 C576 1.388 . S
C576 H563 0.930 . S
C576 C575 1.388 . S
C576 C577 1.390 . S
C577 C576 1.390 . S
C577 C578 1.394 . S
C577 C583 1.465 . S
C578 C573 1.399 . S
C578 C577 1.394 . S
C578 C579 1.516 . S
C579 C578 1.516 . S
C579 C580 1.502 . S
C579 C581 1.561 . S
C579 C582 1.526 . S
C580 H564 0.959 . S
C580 H565 0.959 . S
C580 H566 0.961 . S
C580 C579 1.502 . S
C581 H567 0.960 . S
C581 H568 0.961 . S
C581 H569 0.959 . S
C581 C579 1.561 . S
C582 C579 1.526 . S
C582 C583 1.396 . S
C582 C587 1.390 . S
C583 C577 1.465 . S
C583 C582 1.396 . S
C583 C584 1.399 . S
C584 H570 0.929 . S
C584 C583 1.399 . S
C584 C585 1.385 . S
C585 H571 0.931 1_545 S
C585 C584 1.385 . S
C585 C586 1.389 . S
C586 C585 1.389 . S
C586 C587 1.387 . S
C587 H572 0.930 . S
C587 C582 1.390 . S
C587 C586 1.387 . S
H588 C600 0.930 . S
H589 C602 0.930 . S
H590 C603 0.930 . S
H591 C607 0.959 . S
H592 C607 0.959 . S
H593 C607 0.961 . S
H594 C608 0.960 . S
H595 C608 0.961 . S
H596 C608 0.959 . S
H597 C611 0.929 . S
H598 C612 0.931 . S
H599 C614 0.930 . S
C600 H588 0.930 . S
C600 C601 1.399 . S
C600 C605 1.399 . S
C601 C600 1.399 . S
C601 C602 1.376 . S
C602 H589 0.930 . S
C602 C601 1.376 . S
C602 C603 1.388 . S
C603 H590 0.930 . S
C603 C602 1.388 . S
C603 C604 1.390 . S
C604 C603 1.390 . S
C604 C605 1.394 . S
C604 C610 1.465 . S
C605 C600 1.399 . S
C605 C604 1.394 . S
C605 C606 1.516 . S
C606 C605 1.516 . S
C606 C607 1.502 . S
C606 C608 1.561 . S
C606 C609 1.526 . S
C607 H591 0.959 . S
C607 H592 0.959 . S
C607 H593 0.961 . S
C607 C606 1.502 . S
C608 H594 0.960 . S
C608 H595 0.961 . S
C608 H596 0.959 . S
C608 C606 1.561 . S
C609 C606 1.526 . S
C609 C610 1.396 . S
C609 C614 1.390 . S
C610 C604 1.465 . S
C610 C609 1.396 . S
C610 C611 1.399 . S
C611 H597 0.929 . S
C611 C610 1.399 . S
C611 C612 1.385 . S
C612 H598 0.931 . S
C612 C611 1.385 . S
C612 C613 1.389 . S
C613 C612 1.389 . S
C613 C614 1.387 . S
C614 H599 0.930 . S
C614 C609 1.390 . S
C614 C613 1.387 . S
H615 C627 0.930 . S
H616 C629 0.930 . S
H617 C630 0.930 . S
H618 C634 0.959 . S
H619 C634 0.959 . S
H620 C634 0.961 . S
H621 C635 0.960 . S
H622 C635 0.961 . S
H623 C635 0.959 . S
H624 C638 0.929 . S
H625 C639 0.931 . S
H626 C641 0.930 . S
C627 H615 0.930 . S
C627 C628 1.399 . S
C627 C632 1.399 . S
C628 C627 1.399 . S
C628 C629 1.376 . S
C629 H616 0.930 . S
C629 C628 1.376 . S
C629 C630 1.388 . S
C630 H617 0.930 . S
C630 C629 1.388 . S
C630 C631 1.390 . S
C631 C630 1.390 . S
C631 C632 1.394 . S
C631 C637 1.465 . S
C632 C627 1.399 . S
C632 C631 1.394 . S
C632 C633 1.516 . S
C633 C632 1.516 . S
C633 C634 1.502 . S
C633 C635 1.561 . S
C633 C636 1.526 . S
C634 H618 0.959 . S
C634 H619 0.959 . S
C634 H620 0.961 . S
C634 C633 1.502 . S
C635 H621 0.960 . S
C635 H622 0.961 . S
C635 H623 0.959 . S
C635 C633 1.561 . S
C636 C633 1.526 . S
C636 C637 1.396 . S
C636 C641 1.390 . S
C637 C631 1.465 . S
C637 C636 1.396 . S
C637 C638 1.399 . S
C638 H624 0.929 . S
C638 C637 1.399 . S
C638 C639 1.385 . S
C639 H625 0.931 . S
C639 C638 1.385 . S
C639 C640 1.389 . S
C640 C639 1.389 . S
C640 C641 1.387 . S
C641 H626 0.930 . S
C641 C636 1.390 . S
C641 C640 1.387 . S
H642 C654 0.930 . S
H643 C656 0.930 . S
H644 C657 0.930 . S
H645 C661 0.959 . S
H646 C661 0.959 1_554 S
H647 C661 0.961 . S
H648 C662 0.960 1_554 S
H649 C662 0.961 1_554 S
H650 C662 0.959 . S
H651 C665 0.929 . S
H652 C666 0.931 . S
H653 C668 0.930 . S
C654 H642 0.930 . S
C654 C655 1.399 . S
C654 C659 1.399 . S
C655 C654 1.399 . S
C655 C656 1.376 . S
C656 H643 0.930 . S
C656 C655 1.376 . S
C656 C657 1.388 . S
C657 H644 0.930 . S
C657 C656 1.388 . S
C657 C658 1.390 . S
C658 C657 1.390 . S
C658 C659 1.394 . S
C658 C664 1.465 . S
C659 C654 1.399 . S
C659 C658 1.394 . S
C659 C660 1.516 . S
C660 C659 1.516 . S
C660 C661 1.502 . S
C660 C662 1.561 . S
C660 C663 1.526 . S
C661 H645 0.959 . S
C661 H646 0.959 1_556 S
C661 H647 0.961 . S
C661 C660 1.502 . S
C662 H648 0.960 1_556 S
C662 H649 0.961 1_556 S
C662 H650 0.959 . S
C662 C660 1.561 . S
C663 C660 1.526 . S
C663 C664 1.396 . S
C663 C668 1.390 . S
C664 C658 1.465 . S
C664 C663 1.396 . S
C664 C665 1.399 . S
C665 H651 0.929 . S
C665 C664 1.399 . S
C665 C666 1.385 . S
C666 H652 0.931 . S
C666 C665 1.385 . S
C666 C667 1.389 . S
C667 C666 1.389 . S
C667 C668 1.387 . S
C668 H653 0.930 . S
C668 C663 1.390 . S
C668 C667 1.387 . S
H669 C681 0.930 . S
H670 C683 0.930 . S
H671 C684 0.930 . S
H672 C688 0.959 . S
H673 C688 0.959 . S
H674 C688 0.961 . S
H675 C689 0.960 . S
H676 C689 0.961 . S
H677 C689 0.959 . S
H678 C692 0.929 . S
H679 C693 0.931 . S
H680 C695 0.930 . S
C681 H669 0.930 . S
C681 C682 1.399 . S
C681 C686 1.399 . S
C682 C681 1.399 . S
C682 C683 1.376 . S
C683 H670 0.930 . S
C683 C682 1.376 . S
C683 C684 1.388 . S
C684 H671 0.930 . S
C684 C683 1.388 . S
C684 C685 1.390 . S
C685 C684 1.390 . S
C685 C686 1.394 . S
C685 C691 1.465 . S
C686 C681 1.399 . S
C686 C685 1.394 . S
C686 C687 1.516 . S
C687 C686 1.516 . S
C687 C688 1.502 . S
C687 C689 1.561 . S
C687 C690 1.526 . S
C688 H672 0.959 . S
C688 H673 0.959 . S
C688 H674 0.961 . S
C688 C687 1.502 . S
C689 H675 0.960 . S
C689 H676 0.961 . S
C689 H677 0.959 . S
C689 C687 1.561 . S
C690 C687 1.526 . S
C690 C691 1.396 . S
C690 C695 1.390 . S
C691 C685 1.465 . S
C691 C690 1.396 . S
C691 C692 1.399 . S
C692 H678 0.929 . S
C692 C691 1.399 . S
C692 C693 1.385 . S
C693 H679 0.931 . S
C693 C692 1.385 . S
C693 C694 1.389 . S
C694 C693 1.389 . S
C694 C695 1.387 . S
C695 H680 0.930 . S
C695 C690 1.390 . S
C695 C694 1.387 . S
H696 C708 0.930 . S
H697 C710 0.930 . S
H698 C711 0.930 . S
H699 C715 0.959 . S
H700 C715 0.959 . S
H701 C715 0.961 . S
H702 C716 0.960 . S
H703 C716 0.961 . S
H704 C716 0.959 . S
H705 C719 0.929 . S
H706 C720 0.931 . S
H707 C722 0.930 . S
C708 H696 0.930 . S
C708 C709 1.399 . S
C708 C713 1.399 . S
C709 C708 1.399 . S
C709 C710 1.376 . S
C710 H697 0.930 . S
C710 C709 1.376 . S
C710 C711 1.388 . S
C711 H698 0.930 . S
C711 C710 1.388 . S
C711 C712 1.390 . S
C712 C711 1.390 . S
C712 C713 1.394 . S
C712 C718 1.465 . S
C713 C708 1.399 . S
C713 C712 1.394 . S
C713 C714 1.516 . S
C714 C713 1.516 . S
C714 C715 1.502 . S
C714 C716 1.561 . S
C714 C717 1.526 . S
C715 H699 0.959 . S
C715 H700 0.959 . S
C715 H701 0.961 . S
C715 C714 1.502 . S
C716 H702 0.960 . S
C716 H703 0.961 . S
C716 H704 0.959 . S
C716 C714 1.561 . S
C717 C714 1.526 . S
C717 C718 1.396 . S
C717 C722 1.390 . S
C718 C712 1.465 . S
C718 C717 1.396 . S
C718 C719 1.399 . S
C719 H705 0.929 . S
C719 C718 1.399 . S
C719 C720 1.385 . S
C720 H706 0.931 . S
C720 C719 1.385 . S
C720 C721 1.389 . S
C721 C720 1.389 . S
C721 C722 1.387 . S
C722 H707 0.930 . S
C722 C717 1.390 . S
C722 C721 1.387 . S
H723 C735 0.930 . S
H724 C737 0.930 . S
H725 C738 0.930 . S
H726 C742 0.959 . S
H727 C742 0.959 . S
H728 C742 0.961 . S
H729 C743 0.960 . S
H730 C743 0.961 . S
H731 C743 0.959 . S
H732 C746 0.929 1_655 S
H733 C747 0.931 . S
H734 C749 0.930 . S
C735 H723 0.930 . S
C735 C736 1.399 . S
C735 C740 1.399 . S
C736 C735 1.399 . S
C736 C737 1.376 . S
C737 H724 0.930 . S
C737 C736 1.376 . S
C737 C738 1.388 . S
C738 H725 0.930 . S
C738 C737 1.388 . S
C738 C739 1.390 . S
C739 C738 1.390 . S
C739 C740 1.394 . S
C739 C745 1.465 . S
C740 C735 1.399 . S
C740 C739 1.394 . S
C740 C741 1.516 . S
C741 C740 1.516 . S
C741 C742 1.502 . S
C741 C743 1.561 . S
C741 C744 1.526 . S
C742 H726 0.959 . S
C742 H727 0.959 . S
C742 H728 0.961 . S
C742 C741 1.502 . S
C743 H729 0.960 . S
C743 H730 0.961 . S
C743 H731 0.959 . S
C743 C741 1.561 . S
C744 C741 1.526 . S
C744 C745 1.396 . S
C744 C749 1.390 . S
C745 C739 1.465 . S
C745 C744 1.396 . S
C745 C746 1.399 . S
C746 H732 0.929 1_455 S
C746 C745 1.399 . S
C746 C747 1.385 1_455 S
C747 H733 0.931 . S
C747 C746 1.385 1_655 S
C747 C748 1.389 1_655 S
C748 C747 1.389 1_455 S
C748 C749 1.387 . S
C749 H734 0.930 . S
C749 C744 1.390 . S
C749 C748 1.387 . S
H750 C762 0.930 . S
H751 C764 0.917 1_455 S
H752 C765 0.930 . S
H753 C769 0.959 . S
H754 C769 0.959 . S
H755 C769 0.961 . S
H756 C770 0.960 . S
H757 C770 0.961 . S
H758 C770 0.953 1_455 S
H759 C773 0.929 . S
H760 C774 0.931 . S
H761 C776 0.930 . S
C762 H750 0.930 . S
C762 C763 1.399 . S
C762 C767 1.399 . S
C763 C762 1.399 . S
C763 C764 1.376 . S
C764 H751 0.917 1_655 S
C764 C763 1.376 . S
C764 C765 1.388 . S
C765 H752 0.930 . S
C765 C764 1.388 . S
C765 C766 1.390 . S
C766 C765 1.390 . S
C766 C767 1.394 . S
C766 C772 1.465 . S
C767 C762 1.399 . S
C767 C766 1.394 . S
C767 C768 1.516 . S
C768 C767 1.516 . S
C768 C769 1.502 . S
C768 C770 1.561 . S
C768 C771 1.526 . S
C769 H753 0.959 . S
C769 H754 0.959 . S
C769 H755 0.961 . S
C769 C768 1.502 . S
C770 H756 0.960 . S
C770 H757 0.961 . S
C770 H758 0.953 1_655 S
C770 C768 1.561 . S
C771 C768 1.526 . S
C771 C772 1.396 . S
C771 C776 1.390 . S
C772 C766 1.465 . S
C772 C771 1.396 . S
C772 C773 1.399 . S
C773 H759 0.929 . S
C773 C772 1.399 . S
C773 C774 1.385 . S
C774 H760 0.931 . S
C774 C773 1.385 . S
C774 C775 1.389 . S
C775 C774 1.389 . S
C775 C776 1.387 . S
C776 H761 0.930 . S
C776 C771 1.390 . S
C776 C775 1.387 . S
H777 C789 0.930 . S
H778 C791 0.930 . S
H779 C792 0.930 . S
H780 C796 0.959 . S
H781 C796 0.959 . S
H782 C796 0.961 . S
H783 C797 0.960 . S
H784 C797 0.961 . S
H785 C797 0.959 . S
H786 C800 0.929 . S
H787 C801 0.931 . S
H788 C803 0.930 . S
C789 H777 0.930 . S
C789 C790 1.399 . S
C789 C794 1.399 . S
C790 C789 1.399 . S
C790 C791 1.376 . S
C791 H778 0.930 . S
C791 C790 1.376 . S
C791 C792 1.388 . S
C792 H779 0.930 . S
C792 C791 1.388 . S
C792 C793 1.390 . S
C793 C792 1.390 . S
C793 C794 1.394 . S
C793 C799 1.465 . S
C794 C789 1.399 . S
C794 C793 1.394 . S
C794 C795 1.516 . S
C795 C794 1.516 . S
C795 C796 1.502 . S
C795 C797 1.561 . S
C795 C798 1.526 . S
C796 H780 0.959 . S
C796 H781 0.959 . S
C796 H782 0.961 . S
C796 C795 1.502 . S
C797 H783 0.960 . S
C797 H784 0.961 . S
C797 H785 0.959 . S
C797 C795 1.561 . S
C798 C795 1.526 . S
C798 C799 1.396 . S
C798 C803 1.390 . S
C799 C793 1.465 . S
C799 C798 1.396 . S
C799 C800 1.399 . S
C800 H786 0.929 . S
C800 C799 1.399 . S
C800 C801 1.385 . S
C801 H787 0.931 . S
C801 C800 1.385 . S
C801 C802 1.389 . S
C802 C801 1.389 . S
C802 C803 1.387 . S
C803 H788 0.930 . S
C803 C798 1.390 . S
C803 C802 1.387 . S
H804 C816 0.930 . S
H805 C818 0.930 . S
H806 C819 0.930 . S
H807 C823 0.959 . S
H808 C823 0.959 . S
H809 C823 0.961 . S
H810 C824 0.960 . S
H811 C824 0.961 . S
H812 C824 0.959 . S
H813 C827 0.929 . S
H814 C828 0.931 . S
H815 C830 0.930 . S
C816 H804 0.930 . S
C816 C817 1.399 . S
C816 C821 1.399 . S
C817 C816 1.399 . S
C817 C818 1.376 . S
C818 H805 0.930 . S
C818 C817 1.376 . S
C818 C819 1.388 . S
C819 H806 0.930 . S
C819 C818 1.388 . S
C819 C820 1.390 . S
C820 C819 1.390 . S
C820 C821 1.394 . S
C820 C826 1.465 . S
C821 C816 1.399 . S
C821 C820 1.394 . S
C821 C822 1.516 . S
C822 C821 1.516 . S
C822 C823 1.502 . S
C822 C824 1.561 . S
C822 C825 1.526 . S
C823 H807 0.959 . S
C823 H808 0.959 . S
C823 H809 0.961 . S
C823 C822 1.502 . S
C824 H810 0.960 . S
C824 H811 0.961 . S
C824 H812 0.959 . S
C824 C822 1.561 . S
C825 C822 1.526 . S
C825 C826 1.396 . S
C825 C830 1.390 . S
C826 C820 1.465 . S
C826 C825 1.396 . S
C826 C827 1.399 . S
C827 H813 0.929 . S
C827 C826 1.399 . S
C827 C828 1.385 . S
C828 H814 0.931 . S
C828 C827 1.385 . S
C828 C829 1.389 . S
C829 C828 1.389 . S
C829 C830 1.387 . S
C830 H815 0.930 . S
C830 C825 1.390 . S
C830 C829 1.387 . S
H831 C843 0.930 . S
H832 C845 0.930 . S
H833 C846 0.930 . S
H834 C850 0.959 . S
H835 C850 0.959 1_545 S
H836 C850 0.961 . S
H837 C851 0.960 . S
H838 C851 0.961 . S
H839 C851 0.959 . S
H840 C854 0.929 . S
H841 C855 0.931 . S
H842 C857 0.930 . S
C843 H831 0.930 . S
C843 C844 1.399 . S
C843 C848 1.399 . S
C844 C843 1.399 . S
C844 C845 1.376 . S
C845 H832 0.930 . S
C845 C844 1.376 . S
C845 C846 1.388 . S
C846 H833 0.930 . S
C846 C845 1.388 . S
C846 C847 1.390 . S
C847 C846 1.390 . S
C847 C848 1.394 . S
C847 C853 1.465 . S
C848 C843 1.399 . S
C848 C847 1.394 . S
C848 C849 1.516 . S
C849 C848 1.516 . S
C849 C850 1.502 . S
C849 C851 1.561 1_565 S
C849 C852 1.526 . S
C850 H834 0.959 . S
C850 H835 0.959 1_565 S
C850 H836 0.961 . S
C850 C849 1.502 . S
C851 H837 0.960 . S
C851 H838 0.961 . S
C851 H839 0.959 . S
C851 C849 1.561 1_545 S
C852 C849 1.526 . S
C852 C853 1.396 . S
C852 C857 1.390 . S
C853 C847 1.465 . S
C853 C852 1.396 . S
C853 C854 1.399 . S
C854 H840 0.929 . S
C854 C853 1.399 . S
C854 C855 1.385 . S
C855 H841 0.931 . S
C855 C854 1.385 . S
C855 C856 1.389 . S
C856 C855 1.389 . S
C856 C857 1.387 . S
C857 H842 0.930 . S
C857 C852 1.390 . S
C857 C856 1.387 . S
H858 C870 0.930 . S
H859 C872 0.930 . S
H860 C873 0.930 . S
H861 C877 0.959 . S
H862 C877 0.959 . S
H863 C877 0.961 . S
H864 C878 0.960 . S
H865 C878 0.961 . S
H866 C878 0.959 . S
H867 C881 0.929 . S
H868 C882 0.931 . S
H869 C884 0.930 . S
C870 H858 0.930 . S
C870 C871 1.399 . S
C870 C875 1.399 . S
C871 C870 1.399 . S
C871 C872 1.376 . S
C872 H859 0.930 . S
C872 C871 1.376 . S
C872 C873 1.388 . S
C873 H860 0.930 . S
C873 C872 1.388 . S
C873 C874 1.390 . S
C874 C873 1.390 . S
C874 C875 1.394 . S
C874 C880 1.465 . S
C875 C870 1.399 . S
C875 C874 1.394 . S
C875 C876 1.516 . S
C876 C875 1.516 . S
C876 C877 1.502 . S
C876 C878 1.561 . S
C876 C879 1.526 . S
C877 H861 0.959 . S
C877 H862 0.959 . S
C877 H863 0.961 . S
C877 C876 1.502 . S
C878 H864 0.960 . S
C878 H865 0.961 . S
C878 H866 0.959 . S
C878 C876 1.561 . S
C879 C876 1.526 . S
C879 C880 1.396 . S
C879 C884 1.390 . S
C880 C874 1.465 . S
C880 C879 1.396 . S
C880 C881 1.399 . S
C881 H867 0.929 . S
C881 C880 1.399 . S
C881 C882 1.385 . S
C882 H868 0.931 . S
C882 C881 1.385 . S
C882 C883 1.389 . S
C883 C882 1.389 . S
C883 C884 1.387 . S
C884 H869 0.930 . S
C884 C879 1.390 . S
C884 C883 1.387 . S
H885 C897 0.930 . S
H886 C899 0.930 . S
H887 C900 0.930 1_556 S
H888 C904 0.966 . S
H889 C904 0.964 . S
H890 C904 0.949 1_554 S
H891 C905 0.960 . S
H892 C905 0.961 . S
H893 C905 0.959 . S
H894 C908 0.929 . S
H895 C909 0.931 . S
H896 C911 0.930 . S
C897 H885 0.930 . S
C897 C898 1.399 . S
C897 C902 1.399 . S
C898 C897 1.399 . S
C898 C899 1.376 . S
C899 H886 0.930 . S
C899 C898 1.376 . S
C899 C900 1.388 . S
C900 H887 0.930 1_554 S
C900 C899 1.388 . S
C900 C901 1.390 1_554 S
C901 C900 1.390 1_556 S
C901 C902 1.394 1_556 S
C901 C907 1.465 . S
C902 C897 1.399 . S
C902 C901 1.394 1_554 S
C902 C903 1.519 . S
C903 C902 1.519 . S
C903 C904 1.502 1_554 S
C903 C905 1.564 . S
C903 C906 1.520 1_554 S
C904 H888 0.966 . S
C904 H889 0.964 . S
C904 H890 0.949 1_556 S
C904 C903 1.502 1_556 S
C905 H891 0.960 . S
C905 H892 0.961 . S
C905 H893 0.959 . S
C905 C903 1.564 . S
C906 C903 1.520 1_556 S
C906 C907 1.396 . S
C906 C911 1.390 . S
C907 C901 1.465 . S
C907 C906 1.396 . S
C907 C908 1.399 . S
C908 H894 0.929 . S
C908 C907 1.399 . S
C908 C909 1.385 . S
C909 H895 0.931 . S
C909 C908 1.385 . S
C909 C910 1.389 . S
C910 C909 1.389 . S
C910 C911 1.387 . S
C911 H896 0.930 . S
C911 C906 1.390 . S
C911 C910 1.387 . S
H912 C924 0.930 . S
H913 C926 0.930 . S
H914 C927 0.930 . S
H915 C931 0.959 . S
H916 C931 0.959 . S
H917 C931 0.961 . S
H918 C932 0.960 . S
H919 C932 0.961 . S
H920 C932 0.959 . S
H921 C935 0.929 . S
H922 C936 0.931 . S
H923 C938 0.930 . S
C924 H912 0.930 . S
C924 C925 1.399 . S
C924 C929 1.399 . S
C925 C924 1.399 . S
C925 C926 1.376 . S
C926 H913 0.930 . S
C926 C925 1.376 . S
C926 C927 1.388 . S
C927 H914 0.930 . S
C927 C926 1.388 . S
C927 C928 1.390 . S
C928 C927 1.390 . S
C928 C929 1.394 . S
C928 C934 1.465 . S
C929 C924 1.399 . S
C929 C928 1.394 . S
C929 C930 1.516 . S
C930 C929 1.516 . S
C930 C931 1.502 . S
C930 C932 1.561 . S
C930 C933 1.526 . S
C931 H915 0.959 . S
C931 H916 0.959 . S
C931 H917 0.961 . S
C931 C930 1.502 . S
C932 H918 0.960 . S
C932 H919 0.961 . S
C932 H920 0.959 . S
C932 C930 1.561 . S
C933 C930 1.526 . S
C933 C934 1.396 . S
C933 C938 1.390 . S
C934 C928 1.465 . S
C934 C933 1.396 . S
C934 C935 1.399 . S
C935 H921 0.929 . S
C935 C934 1.399 . S
C935 C936 1.385 . S
C936 H922 0.931 . S
C936 C935 1.385 . S
C936 C937 1.389 . S
C937 C936 1.389 . S
C937 C938 1.387 . S
C938 H923 0.930 . S
C938 C933 1.390 . S
C938 C937 1.387 . S
H939 C951 0.930 . S
H940 C953 0.930 . S
H941 C954 0.930 . S
H942 C958 0.959 . S
H943 C958 0.959 . S
H944 C958 0.961 . S
H945 C959 0.960 . S
H946 C959 0.961 . S
H947 C959 0.959 . S
H948 C962 0.929 . S
H949 C963 0.931 . S
H950 C965 0.930 . S
C951 H939 0.930 . S
C951 C952 1.399 . S
C951 C956 1.399 1_554 S
C952 C951 1.399 . S
C952 C953 1.376 . S
C953 H940 0.930 . S
C953 C952 1.376 . S
C953 C954 1.388 1_554 S
C954 H941 0.930 . S
C954 C953 1.388 1_556 S
C954 C955 1.390 . S
C955 C954 1.390 . S
C955 C956 1.394 . S
C955 C961 1.465 . S
C956 C951 1.399 1_556 S
C956 C955 1.394 . S
C956 C957 1.516 . S
C957 C956 1.516 . S
C957 C958 1.502 . S
C957 C959 1.561 . S
C957 C960 1.526 . S
C958 H942 0.959 . S
C958 H943 0.959 . S
C958 H944 0.961 . S
C958 C957 1.502 . S
C959 H945 0.960 . S
C959 H946 0.961 . S
C959 H947 0.959 . S
C959 C957 1.561 . S
C960 C957 1.526 . S
C960 C961 1.396 . S
C960 C965 1.390 . S
C961 C955 1.465 . S
C961 C960 1.396 . S
C961 C962 1.399 . S
C962 H948 0.929 . S
C962 C961 1.399 . S
C962 C963 1.385 . S
C963 H949 0.931 . S
C963 C962 1.385 . S
C963 C964 1.389 . S
C964 C963 1.389 . S
C964 C965 1.387 . S
C965 H950 0.930 . S
C965 C960 1.390 . S
C965 C964 1.387 . S
H966 C978 0.930 . S
H967 C980 0.930 . S
H968 C981 0.930 . S
H969 C985 0.959 . S
H970 C985 0.959 . S
H971 C985 0.961 . S
H972 C986 0.960 . S
H973 C986 0.961 . S
H974 C986 0.959 . S
H975 C989 0.929 . S
H976 C990 0.931 . S
H977 C992 0.930 . S
C978 H966 0.930 . S
C978 C979 1.399 . S
C978 C983 1.399 . S
C979 C978 1.399 . S
C979 C980 1.376 . S
C980 H967 0.930 . S
C980 C979 1.376 . S
C980 C981 1.388 . S
C981 H968 0.930 . S
C981 C980 1.388 . S
C981 C982 1.390 . S
C982 C981 1.390 . S
C982 C983 1.394 . S
C982 C988 1.465 . S
C983 C978 1.399 . S
C983 C982 1.394 . S
C983 C984 1.516 . S
C984 C983 1.516 . S
C984 C985 1.502 . S
C984 C986 1.561 . S
C984 C987 1.526 . S
C985 H969 0.959 . S
C985 H970 0.959 . S
C985 H971 0.961 . S
C985 C984 1.502 . S
C986 H972 0.960 . S
C986 H973 0.961 . S
C986 H974 0.959 . S
C986 C984 1.561 . S
C987 C984 1.526 . S
C987 C988 1.396 . S
C987 C992 1.390 . S
C988 C982 1.465 . S
C988 C987 1.396 . S
C988 C989 1.399 . S
C989 H975 0.929 . S
C989 C988 1.399 . S
C989 C990 1.385 . S
C990 H976 0.931 . S
C990 C989 1.385 . S
C990 C991 1.389 . S
C991 C990 1.389 . S
C991 C992 1.387 . S
C992 H977 0.930 . S
C992 C987 1.390 . S
C992 C991 1.387 . S
H993 C1005 0.930 . S
H994 C1007 0.930 . S
H995 C1008 0.930 . S
H996 C1012 0.959 . S
H997 C1012 0.959 . S
H998 C1012 0.961 . S
H999 C1013 0.960 . S
H1000 C1013 0.961 . S
H1001 C1013 0.959 . S
H1002 C1016 0.929 . S
H1003 C1017 0.931 . S
H1004 C1019 0.930 . S
C1005 H993 0.930 . S
C1005 C1006 1.399 . S
C1005 C1010 1.399 . S
C1006 C1005 1.399 . S
C1006 C1007 1.376 . S
C1007 H994 0.930 . S
C1007 C1006 1.376 . S
C1007 C1008 1.388 . S
C1008 H995 0.930 . S
C1008 C1007 1.388 . S
C1008 C1009 1.390 . S
C1009 C1008 1.390 . S
C1009 C1010 1.394 . S
C1009 C1015 1.465 . S
C1010 C1005 1.399 . S
C1010 C1009 1.394 . S
C1010 C1011 1.516 . S
C1011 C1010 1.516 . S
C1011 C1012 1.502 . S
C1011 C1013 1.561 . S
C1011 C1014 1.526 . S
C1012 H996 0.959 . S
C1012 H997 0.959 . S
C1012 H998 0.961 . S
C1012 C1011 1.502 . S
C1013 H999 0.960 . S
C1013 H1000 0.961 . S
C1013 H1001 0.959 . S
C1013 C1011 1.561 . S
C1014 C1011 1.526 . S
C1014 C1015 1.396 . S
C1014 C1019 1.390 . S
C1015 C1009 1.465 . S
C1015 C1014 1.396 . S
C1015 C1016 1.399 . S
C1016 H1002 0.929 . S
C1016 C1015 1.399 . S
C1016 C1017 1.385 . S
C1017 H1003 0.931 . S
C1017 C1016 1.385 . S
C1017 C1018 1.389 . S
C1018 C1017 1.389 . S
C1018 C1019 1.387 . S
C1019 H1004 0.930 . S
C1019 C1014 1.390 . S
C1019 C1018 1.387 . S
H1020 C1032 0.930 . S
H1021 C1034 0.930 . S
H1022 C1035 0.930 . S
H1023 C1039 0.959 . S
H1024 C1039 0.959 . S
H1025 C1039 0.961 . S
H1026 C1040 0.960 . S
H1027 C1040 0.961 . S
H1028 C1040 0.959 . S
H1029 C1043 0.929 . S
H1030 C1044 0.931 . S
H1031 C1046 0.930 . S
C1032 H1020 0.930 . S
C1032 C1033 1.399 . S
C1032 C1037 1.399 . S
C1033 C1032 1.399 . S
C1033 C1034 1.376 . S
C1034 H1021 0.930 . S
C1034 C1033 1.376 . S
C1034 C1035 1.388 . S
C1035 H1022 0.930 . S
C1035 C1034 1.388 . S
C1035 C1036 1.390 . S
C1036 C1035 1.390 . S
C1036 C1037 1.394 . S
C1036 C1042 1.465 . S
C1037 C1032 1.399 . S
C1037 C1036 1.394 . S
C1037 C1038 1.516 . S
C1038 C1037 1.516 . S
C1038 C1039 1.502 . S
C1038 C1040 1.561 . S
C1038 C1041 1.526 . S
C1039 H1023 0.959 . S
C1039 H1024 0.959 . S
C1039 H1025 0.961 . S
C1039 C1038 1.502 . S
C1040 H1026 0.960 . S
C1040 H1027 0.961 . S
C1040 H1028 0.959 . S
C1040 C1038 1.561 . S
C1041 C1038 1.526 . S
C1041 C1042 1.396 . S
C1041 C1046 1.390 . S
C1042 C1036 1.465 . S
C1042 C1041 1.396 . S
C1042 C1043 1.399 . S
C1043 H1029 0.929 . S
C1043 C1042 1.399 . S
C1043 C1044 1.385 . S
C1044 H1030 0.931 . S
C1044 C1043 1.385 . S
C1044 C1045 1.389 . S
C1045 C1044 1.389 . S
C1045 C1046 1.387 . S
C1046 H1031 0.930 . S
C1046 C1041 1.390 . S
C1046 C1045 1.387 . S
H1047 C1059 0.930 . S
H1048 C1061 0.930 . S
H1049 C1062 0.930 . S
H1050 C1066 0.959 . S
H1051 C1066 0.959 . S
H1052 C1066 0.961 . S
H1053 C1067 0.960 . S
H1054 C1067 0.961 . S
H1055 C1067 0.959 . S
H1056 C1070 0.929 . S
H1057 C1071 0.931 . S
H1058 C1073 0.930 . S
C1059 H1047 0.930 . S
C1059 C1060 1.399 . S
C1059 C1064 1.399 . S
C1060 C1059 1.399 . S
C1060 C1061 1.376 . S
C1061 H1048 0.930 . S
C1061 C1060 1.376 . S
C1061 C1062 1.388 . S
C1062 H1049 0.930 . S
C1062 C1061 1.388 . S
C1062 C1063 1.390 . S
C1063 C1062 1.390 . S
C1063 C1064 1.394 . S
C1063 C1069 1.465 . S
C1064 C1059 1.399 . S
C1064 C1063 1.394 . S
C1064 C1065 1.516 . S
C1065 C1064 1.516 . S
C1065 C1066 1.502 . S
C1065 C1067 1.561 . S
C1065 C1068 1.526 . S
C1066 H1050 0.959 . S
C1066 H1051 0.959 . S
C1066 H1052 0.961 . S
C1066 C1065 1.502 . S
C1067 H1053 0.960 . S
C1067 H1054 0.961 . S
C1067 H1055 0.959 . S
C1067 C1065 1.561 . S
C1068 C1065 1.526 . S
C1068 C1069 1.396 . S
C1068 C1073 1.390 1_545 S
C1069 C1063 1.465 . S
C1069 C1068 1.396 . S
C1069 C1070 1.399 1_545 S
C1070 H1056 0.929 . S
C1070 C1069 1.399 1_565 S
C1070 C1071 1.385 . S
C1071 H1057 0.931 . S
C1071 C1070 1.385 . S
C1071 C1072 1.389 . S
C1072 C1071 1.389 . S
C1072 C1073 1.387 . S
C1073 H1058 0.930 . S
C1073 C1068 1.390 1_565 S
C1073 C1072 1.387 . S
H1074 C1086 0.930 . S
H1075 C1088 0.930 . S
H1076 C1089 0.930 . S
H1077 C1093 0.959 . S
H1078 C1093 0.959 1_554 S
H1079 C1093 0.961 . S
H1080 C1094 0.960 . S
H1081 C1094 0.961 . S
H1082 C1094 0.959 . S
H1083 C1097 0.929 . S
H1084 C1098 0.931 . S
H1085 C1100 0.930 . S
C1086 H1074 0.930 . S
C1086 C1087 1.399 . S
C1086 C1091 1.399 . S
C1087 C1086 1.399 . S
C1087 C1088 1.376 . S
C1088 H1075 0.930 . S
C1088 C1087 1.376 . S
C1088 C1089 1.388 . S
C1089 H1076 0.930 . S
C1089 C1088 1.388 . S
C1089 C1090 1.390 . S
C1090 C1089 1.390 . S
C1090 C1091 1.394 . S
C1090 C1096 1.465 . S
C1091 C1086 1.399 . S
C1091 C1090 1.394 . S
C1091 C1092 1.516 . S
C1092 C1091 1.516 . S
C1092 C1093 1.502 . S
C1092 C1094 1.561 . S
C1092 C1095 1.526 . S
C1093 H1077 0.959 . S
C1093 H1078 0.959 1_556 S
C1093 H1079 0.961 . S
C1093 C1092 1.502 . S
C1094 H1080 0.960 . S
C1094 H1081 0.961 . S
C1094 H1082 0.959 . S
C1094 C1092 1.561 . S
C1095 C1092 1.526 . S
C1095 C1096 1.396 . S
C1095 C1100 1.390 . S
C1096 C1090 1.465 . S
C1096 C1095 1.396 . S
C1096 C1097 1.399 . S
C1097 H1083 0.929 . S
C1097 C1096 1.399 . S
C1097 C1098 1.385 . S
C1098 H1084 0.931 . S
C1098 C1097 1.385 . S
C1098 C1099 1.389 . S
C1099 C1098 1.389 . S
C1099 C1100 1.387 . S
C1100 H1085 0.930 . S
C1100 C1095 1.390 . S
C1100 C1099 1.387 . S
H1101 C1113 0.930 . S
H1102 C1115 0.930 . S
H1103 C1116 0.930 . S
H1104 C1120 0.959 . S
H1105 C1120 0.959 . S
H1106 C1120 0.961 . S
H1107 C1121 0.950 1_545 S
H1108 C1121 0.961 . S
H1109 C1121 0.959 . S
H1110 C1124 0.929 . S
H1111 C1125 0.931 . S
H1112 C1127 0.930 . S
C1113 H1101 0.930 . S
C1113 C1114 1.399 . S
C1113 C1118 1.399 . S
C1114 C1113 1.399 . S
C1114 C1115 1.376 . S
C1115 H1102 0.930 . S
C1115 C1114 1.376 . S
C1115 C1116 1.388 . S
C1116 H1103 0.930 . S
C1116 C1115 1.388 . S
C1116 C1117 1.390 . S
C1117 C1116 1.390 . S
C1117 C1118 1.394 . S
C1117 C1123 1.465 . S
C1118 C1113 1.399 . S
C1118 C1117 1.394 . S
C1118 C1119 1.516 1_545 S
C1119 C1118 1.516 1_565 S
C1119 C1120 1.502 . S
C1119 C1121 1.561 . S
C1119 C1122 1.526 . S
C1120 H1104 0.959 . S
C1120 H1105 0.959 . S
C1120 H1106 0.961 . S
C1120 C1119 1.502 . S
C1121 H1107 0.950 1_565 S
C1121 H1108 0.961 . S
C1121 H1109 0.959 . S
C1121 C1119 1.561 . S
C1122 C1119 1.526 . S
C1122 C1123 1.396 1_565 S
C1122 C1127 1.390 . S
C1123 C1117 1.465 . S
C1123 C1122 1.396 1_545 S
C1123 C1124 1.399 . S
C1124 H1110 0.929 . S
C1124 C1123 1.399 . S
C1124 C1125 1.385 1_545 S
C1125 H1111 0.931 . S
C1125 C1124 1.385 1_565 S
C1125 C1126 1.389 . S
C1126 C1125 1.389 . S
C1126 C1127 1.387 . S
C1127 H1112 0.930 . S
C1127 C1122 1.390 . S
C1127 C1126 1.387 . S
H1128 C1140 0.930 . S
H1129 C1142 0.930 . S
H1130 C1143 0.930 . S
H1131 C1147 0.959 . S
H1132 C1147 0.959 . S
H1133 C1147 0.961 . S
H1134 C1148 0.960 . S
H1135 C1148 0.961 . S
H1136 C1148 0.959 . S
H1137 C1151 0.929 . S
H1138 C1152 0.931 . S
H1139 C1154 0.930 . S
C1140 H1128 0.930 . S
C1140 C1141 1.399 . S
C1140 C1145 1.399 . S
C1141 C1140 1.399 . S
C1141 C1142 1.376 . S
C1142 H1129 0.930 . S
C1142 C1141 1.376 . S
C1142 C1143 1.388 . S
C1143 H1130 0.930 . S
C1143 C1142 1.388 . S
C1143 C1144 1.390 . S
C1144 C1143 1.390 . S
C1144 C1145 1.394 . S
C1144 C1150 1.465 . S
C1145 C1140 1.399 . S
C1145 C1144 1.394 . S
C1145 C1146 1.516 . S
C1146 C1145 1.516 . S
C1146 C1147 1.502 . S
C1146 C1148 1.561 . S
C1146 C1149 1.526 . S
C1147 H1131 0.959 . S
C1147 H1132 0.959 . S
C1147 H1133 0.961 . S
C1147 C1146 1.502 . S
C1148 H1134 0.960 . S
C1148 H1135 0.961 . S
C1148 H1136 0.959 . S
C1148 C1146 1.561 . S
C1149 C1146 1.526 . S
C1149 C1150 1.396 . S
C1149 C1154 1.390 . S
C1150 C1144 1.465 . S
C1150 C1149 1.396 . S
C1150 C1151 1.399 . S
C1151 H1137 0.929 . S
C1151 C1150 1.399 . S
C1151 C1152 1.385 . S
C1152 H1138 0.931 . S
C1152 C1151 1.385 . S
C1152 C1153 1.389 . S
C1153 C1152 1.389 . S
C1153 C1154 1.387 . S
C1154 H1139 0.930 . S
C1154 C1149 1.390 . S
C1154 C1153 1.387 . S
H1155 C1167 0.930 . S
H1156 C1169 0.930 . S
H1157 C1170 0.930 . S
H1158 C1174 0.959 . S
H1159 C1174 0.959 . S
H1160 C1174 0.961 . S
H1161 C1175 0.960 . S
H1162 C1175 0.961 . S
H1163 C1175 0.959 . S
H1164 C1178 0.929 . S
H1165 C1179 0.931 . S
H1166 C1181 0.930 . S
C1167 H1155 0.930 . S
C1167 C1168 1.399 . S
C1167 C1172 1.399 . S
C1168 C1167 1.399 . S
C1168 C1169 1.376 . S
C1169 H1156 0.930 . S
C1169 C1168 1.376 . S
C1169 C1170 1.388 . S
C1170 H1157 0.930 . S
C1170 C1169 1.388 . S
C1170 C1171 1.390 . S
C1171 C1170 1.390 . S
C1171 C1172 1.394 . S
C1171 C1177 1.465 . S
C1172 C1167 1.399 . S
C1172 C1171 1.394 . S
C1172 C1173 1.516 . S
C1173 C1172 1.516 . S
C1173 C1174 1.502 . S
C1173 C1175 1.561 . S
C1173 C1176 1.526 . S
C1174 H1158 0.959 . S
C1174 H1159 0.959 . S
C1174 H1160 0.961 . S
C1174 C1173 1.502 . S
C1175 H1161 0.960 . S
C1175 H1162 0.961 . S
C1175 H1163 0.959 . S
C1175 C1173 1.561 . S
C1176 C1173 1.526 . S
C1176 C1177 1.396 . S
C1176 C1181 1.390 . S
C1177 C1171 1.465 . S
C1177 C1176 1.396 . S
C1177 C1178 1.399 . S
C1178 H1164 0.929 . S
C1178 C1177 1.399 . S
C1178 C1179 1.385 . S
C1179 H1165 0.931 . S
C1179 C1178 1.385 . S
C1179 C1180 1.389 . S
C1180 C1179 1.389 . S
C1180 C1181 1.387 . S
C1181 H1166 0.930 . S
C1181 C1176 1.390 . S
C1181 C1180 1.387 . S
H1182 C1194 0.930 . S
H1183 C1196 0.930 . S
H1184 C1197 0.930 . S
H1185 C1201 0.959 . S
H1186 C1201 0.959 . S
H1187 C1201 0.961 . S
H1188 C1202 0.960 . S
H1189 C1202 0.961 . S
H1190 C1202 0.959 . S
H1191 C1205 0.929 . S
H1192 C1206 0.931 . S
H1193 C1208 0.930 . S
C1194 H1182 0.930 . S
C1194 C1195 1.399 . S
C1194 C1199 1.399 . S
C1195 C1194 1.399 . S
C1195 C1196 1.376 . S
C1196 H1183 0.930 . S
C1196 C1195 1.376 . S
C1196 C1197 1.388 . S
C1197 H1184 0.930 . S
C1197 C1196 1.388 . S
C1197 C1198 1.390 . S
C1198 C1197 1.390 . S
C1198 C1199 1.394 . S
C1198 C1204 1.465 . S
C1199 C1194 1.399 . S
C1199 C1198 1.394 . S
C1199 C1200 1.516 . S
C1200 C1199 1.516 . S
C1200 C1201 1.502 . S
C1200 C1202 1.561 . S
C1200 C1203 1.526 . S
C1201 H1185 0.959 . S
C1201 H1186 0.959 . S
C1201 H1187 0.961 . S
C1201 C1200 1.502 . S
C1202 H1188 0.960 . S
C1202 H1189 0.961 . S
C1202 H1190 0.959 . S
C1202 C1200 1.561 . S
C1203 C1200 1.526 . S
C1203 C1204 1.396 . S
C1203 C1208 1.390 . S
C1204 C1198 1.465 . S
C1204 C1203 1.396 . S
C1204 C1205 1.399 . S
C1205 H1191 0.929 . S
C1205 C1204 1.399 . S
C1205 C1206 1.385 . S
C1206 H1192 0.931 . S
C1206 C1205 1.385 . S
C1206 C1207 1.389 . S
C1207 C1206 1.389 . S
C1207 C1208 1.387 . S
C1208 H1193 0.930 . S
C1208 C1203 1.390 . S
C1208 C1207 1.387 . S
H1209 C1221 0.930 . S
H1210 C1223 0.930 . S
H1211 C1224 0.930 . S
H1212 C1228 0.959 . S
H1213 C1228 0.959 . S
H1214 C1228 0.961 . S
H1215 C1229 0.960 . S
H1216 C1229 0.961 . S
H1217 C1229 0.959 . S
H1218 C1232 0.929 . S
H1219 C1233 0.931 . S
H1220 C1235 0.930 . S
C1221 H1209 0.930 . S
C1221 C1222 1.399 . S
C1221 C1226 1.399 . S
C1222 C1221 1.399 . S
C1222 C1223 1.376 . S
C1223 H1210 0.930 . S
C1223 C1222 1.376 . S
C1223 C1224 1.388 . S
C1224 H1211 0.930 . S
C1224 C1223 1.388 . S
C1224 C1225 1.390 . S
C1225 C1224 1.390 . S
C1225 C1226 1.394 . S
C1225 C1231 1.465 . S
C1226 C1221 1.399 . S
C1226 C1225 1.394 . S
C1226 C1227 1.516 . S
C1227 C1226 1.516 . S
C1227 C1228 1.502 . S
C1227 C1229 1.561 . S
C1227 C1230 1.526 . S
C1228 H1212 0.959 . S
C1228 H1213 0.959 . S
C1228 H1214 0.961 . S
C1228 C1227 1.502 . S
C1229 H1215 0.960 . S
C1229 H1216 0.961 . S
C1229 H1217 0.959 . S
C1229 C1227 1.561 . S
C1230 C1227 1.526 . S
C1230 C1231 1.396 . S
C1230 C1235 1.390 . S
C1231 C1225 1.465 . S
C1231 C1230 1.396 . S
C1231 C1232 1.399 . S
C1232 H1218 0.929 . S
C1232 C1231 1.399 . S
C1232 C1233 1.385 . S
C1233 H1219 0.931 . S
C1233 C1232 1.385 . S
C1233 C1234 1.389 . S
C1234 C1233 1.389 . S
C1234 C1235 1.387 . S
C1235 H1220 0.930 . S
C1235 C1230 1.390 . S
C1235 C1234 1.387 . S
H1236 C1248 0.930 . S
H1237 C1250 0.930 . S
H1238 C1251 0.930 . S
H1239 C1255 0.959 . S
H1240 C1255 0.959 . S
H1241 C1255 0.961 . S
H1242 C1256 0.960 . S
H1243 C1256 0.961 . S
H1244 C1256 0.959 . S
H1245 C1259 0.929 . S
H1246 C1260 0.931 . S
H1247 C1262 0.930 . S
C1248 H1236 0.930 . S
C1248 C1249 1.399 . S
C1248 C1253 1.399 . S
C1249 C1248 1.399 . S
C1249 C1250 1.376 . S
C1250 H1237 0.930 . S
C1250 C1249 1.376 . S
C1250 C1251 1.388 . S
C1251 H1238 0.930 . S
C1251 C1250 1.388 . S
C1251 C1252 1.390 . S
C1252 C1251 1.390 . S
C1252 C1253 1.394 . S
C1252 C1258 1.465 . S
C1253 C1248 1.399 . S
C1253 C1252 1.394 . S
C1253 C1254 1.516 . S
C1254 C1253 1.516 . S
C1254 C1255 1.502 . S
C1254 C1256 1.561 . S
C1254 C1257 1.526 . S
C1255 H1239 0.959 . S
C1255 H1240 0.959 . S
C1255 H1241 0.961 . S
C1255 C1254 1.502 . S
C1256 H1242 0.960 . S
C1256 H1243 0.961 . S
C1256 H1244 0.959 . S
C1256 C1254 1.561 . S
C1257 C1254 1.526 . S
C1257 C1258 1.396 . S
C1257 C1262 1.390 . S
C1258 C1252 1.465 . S
C1258 C1257 1.396 . S
C1258 C1259 1.399 . S
C1259 H1245 0.929 . S
C1259 C1258 1.399 . S
C1259 C1260 1.385 . S
C1260 H1246 0.931 . S
C1260 C1259 1.385 . S
C1260 C1261 1.389 . S
C1261 C1260 1.389 . S
C1261 C1262 1.387 . S
C1262 H1247 0.930 . S
C1262 C1257 1.390 . S
C1262 C1261 1.387 . S
H1263 C1275 0.930 . S
H1264 C1277 0.930 . S
H1265 C1278 0.930 . S
H1266 C1282 0.959 . S
H1267 C1282 0.959 . S
H1268 C1282 0.961 . S
H1269 C1283 0.960 . S
H1270 C1283 0.961 . S
H1271 C1283 0.959 . S
H1272 C1286 0.929 . S
H1273 C1287 0.931 . S
H1274 C1289 0.930 . S
C1275 H1263 0.930 . S
C1275 C1276 1.399 . S
C1275 C1280 1.399 . S
C1276 C1275 1.399 . S
C1276 C1277 1.376 . S
C1277 H1264 0.930 . S
C1277 C1276 1.376 . S
C1277 C1278 1.388 . S
C1278 H1265 0.930 . S
C1278 C1277 1.388 . S
C1278 C1279 1.390 . S
C1279 C1278 1.390 . S
C1279 C1280 1.394 . S
C1279 C1285 1.465 . S
C1280 C1275 1.399 . S
C1280 C1279 1.394 . S
C1280 C1281 1.516 . S
C1281 C1280 1.516 . S
C1281 C1282 1.502 . S
C1281 C1283 1.561 . S
C1281 C1284 1.526 . S
C1282 H1266 0.959 . S
C1282 H1267 0.959 . S
C1282 H1268 0.961 . S
C1282 C1281 1.502 . S
C1283 H1269 0.960 . S
C1283 H1270 0.961 . S
C1283 H1271 0.959 . S
C1283 C1281 1.561 . S
C1284 C1281 1.526 . S
C1284 C1285 1.396 . S
C1284 C1289 1.390 . S
C1285 C1279 1.465 . S
C1285 C1284 1.396 . S
C1285 C1286 1.399 . S
C1286 H1272 0.929 . S
C1286 C1285 1.399 . S
C1286 C1287 1.385 . S
C1287 H1273 0.931 . S
C1287 C1286 1.385 . S
C1287 C1288 1.389 . S
C1288 C1287 1.389 . S
C1288 C1289 1.387 . S
C1289 H1274 0.930 . S
C1289 C1284 1.390 . S
C1289 C1288 1.387 . S
H1290 C1302 0.930 . S
H1291 C1304 0.930 . S
H1292 C1305 0.930 . S
H1293 C1309 0.959 1_554 S
H1294 C1309 0.959 . S
H1295 C1309 0.961 . S
H1296 C1310 0.960 1_455 S
H1297 C1310 0.961 . S
H1298 C1310 0.949 1_554 S
H1299 C1313 0.929 . S
H1300 C1314 0.931 . S
H1301 C1316 0.930 1_556 S
C1302 H1290 0.930 . S
C1302 C1303 1.399 . S
C1302 C1307 1.399 . S
C1303 C1302 1.399 . S
C1303 C1304 1.376 . S
C1304 H1291 0.930 . S
C1304 C1303 1.376 . S
C1304 C1305 1.388 . S
C1305 H1292 0.930 . S
C1305 C1304 1.388 . S
C1305 C1306 1.390 . S
C1306 C1305 1.390 . S
C1306 C1307 1.394 . S
C1306 C1312 1.465 1_455 S
C1307 C1302 1.399 . S
C1307 C1306 1.394 . S
C1307 C1308 1.516 . S
C1308 C1307 1.516 . S
C1308 C1309 1.502 1_554 S
C1308 C1310 1.561 1_454 S
C1308 C1311 1.526 1_455 S
C1309 H1293 0.959 1_556 S
C1309 H1294 0.959 . S
C1309 H1295 0.961 . S
C1309 C1308 1.502 1_556 S
C1310 H1296 0.960 1_655 S
C1310 H1297 0.961 . S
C1310 H1298 0.949 1_556 S
C1310 C1308 1.561 1_656 S
C1311 C1308 1.526 1_655 S
C1311 C1312 1.396 . S
C1311 C1316 1.390 . S
C1312 C1306 1.465 1_655 S
C1312 C1311 1.396 . S
C1312 C1313 1.399 . S
C1313 H1299 0.929 . S
C1313 C1312 1.399 . S
C1313 C1314 1.385 . S
C1314 H1300 0.931 . S
C1314 C1313 1.385 . S
C1314 C1315 1.389 . S
C1315 C1314 1.389 . S
C1315 C1316 1.387 . S
C1316 H1301 0.930 1_554 S
C1316 C1311 1.390 . S
C1316 C1315 1.387 . S
H1317 C1329 0.930 . S
H1318 C1331 0.930 . S
H1319 C1332 0.930 . S
H1320 C1336 0.959 . S
H1321 C1336 0.959 . S
H1322 C1336 0.961 . S
H1323 C1337 0.960 . S
H1324 C1337 0.961 . S
H1325 C1337 0.959 . S
H1326 C1340 0.929 . S
H1327 C1341 0.931 . S
H1328 C1343 0.930 . S
C1329 H1317 0.930 . S
C1329 C1330 1.399 . S
C1329 C1334 1.399 . S
C1330 C1329 1.399 . S
C1330 C1331 1.376 . S
C1331 H1318 0.930 . S
C1331 C1330 1.376 . S
C1331 C1332 1.388 . S
C1332 H1319 0.930 . S
C1332 C1331 1.388 . S
C1332 C1333 1.390 . S
C1333 C1332 1.390 . S
C1333 C1334 1.394 . S
C1333 C1339 1.465 . S
C1334 C1329 1.399 . S
C1334 C1333 1.394 . S
C1334 C1335 1.516 . S
C1335 C1334 1.516 . S
C1335 C1336 1.502 . S
C1335 C1337 1.561 . S
C1335 C1338 1.526 . S
C1336 H1320 0.959 . S
C1336 H1321 0.959 . S
C1336 H1322 0.961 . S
C1336 C1335 1.502 . S
C1337 H1323 0.960 . S
C1337 H1324 0.961 . S
C1337 H1325 0.959 . S
C1337 C1335 1.561 . S
C1338 C1335 1.526 . S
C1338 C1339 1.396 . S
C1338 C1343 1.390 . S
C1339 C1333 1.465 . S
C1339 C1338 1.396 . S
C1339 C1340 1.399 . S
C1340 H1326 0.929 . S
C1340 C1339 1.399 . S
C1340 C1341 1.385 . S
C1341 H1327 0.931 . S
C1341 C1340 1.385 . S
C1341 C1342 1.389 . S
C1342 C1341 1.389 . S
C1342 C1343 1.387 . S
C1343 H1328 0.930 . S
C1343 C1338 1.390 . S
C1343 C1342 1.387 . S
H1344 C1356 0.930 . S
H1345 C1358 0.930 . S
H1346 C1359 0.930 . S
H1347 C1363 0.959 . S
H1348 C1363 0.959 . S
H1349 C1363 0.961 . S
H1350 C1364 0.960 . S
H1351 C1364 0.961 . S
H1352 C1364 0.959 . S
H1353 C1367 0.929 . S
H1354 C1368 0.931 . S
H1355 C1370 0.930 . S
C1356 H1344 0.930 . S
C1356 C1357 1.399 . S
C1356 C1361 1.399 . S
C1357 C1356 1.399 . S
C1357 C1358 1.376 . S
C1358 H1345 0.930 . S
C1358 C1357 1.376 . S
C1358 C1359 1.388 . S
C1359 H1346 0.930 . S
C1359 C1358 1.388 . S
C1359 C1360 1.390 . S
C1360 C1359 1.390 . S
C1360 C1361 1.394 . S
C1360 C1366 1.465 . S
C1361 C1356 1.399 . S
C1361 C1360 1.394 . S
C1361 C1362 1.516 . S
C1362 C1361 1.516 . S
C1362 C1363 1.502 . S
C1362 C1364 1.561 . S
C1362 C1365 1.526 . S
C1363 H1347 0.959 . S
C1363 H1348 0.959 . S
C1363 H1349 0.961 . S
C1363 C1362 1.502 . S
C1364 H1350 0.960 . S
C1364 H1351 0.961 . S
C1364 H1352 0.959 . S
C1364 C1362 1.561 . S
C1365 C1362 1.526 . S
C1365 C1366 1.396 . S
C1365 C1370 1.390 . S
C1366 C1360 1.465 . S
C1366 C1365 1.396 . S
C1366 C1367 1.399 . S
C1367 H1353 0.929 . S
C1367 C1366 1.399 . S
C1367 C1368 1.385 . S
C1368 H1354 0.931 . S
C1368 C1367 1.385 . S
C1368 C1369 1.389 . S
C1369 C1368 1.389 . S
C1369 C1370 1.387 . S
C1370 H1355 0.930 . S
C1370 C1365 1.390 . S
C1370 C1369 1.387 . S
H1371 C1383 0.930 . S
H1372 C1385 0.930 . S
H1373 C1386 0.930 . S
H1374 C1390 0.959 . S
H1375 C1390 0.959 . S
H1376 C1390 0.961 . S
H1377 C1391 0.960 . S
H1378 C1391 0.961 . S
H1379 C1391 0.959 . S
H1380 C1394 0.929 . S
H1381 C1395 0.931 . S
H1382 C1397 0.930 . S
C1383 H1371 0.930 . S
C1383 C1384 1.399 . S
C1383 C1388 1.399 . S
C1384 C1383 1.399 . S
C1384 C1385 1.376 . S
C1385 H1372 0.930 . S
C1385 C1384 1.376 . S
C1385 C1386 1.388 . S
C1386 H1373 0.930 . S
C1386 C1385 1.388 . S
C1386 C1387 1.390 . S
C1387 C1386 1.390 . S
C1387 C1388 1.394 . S
C1387 C1393 1.465 . S
C1388 C1383 1.399 . S
C1388 C1387 1.394 . S
C1388 C1389 1.516 . S
C1389 C1388 1.516 . S
C1389 C1390 1.502 . S
C1389 C1391 1.561 . S
C1389 C1392 1.526 . S
C1390 H1374 0.959 . S
C1390 H1375 0.959 . S
C1390 H1376 0.961 . S
C1390 C1389 1.502 . S
C1391 H1377 0.960 . S
C1391 H1378 0.961 . S
C1391 H1379 0.959 . S
C1391 C1389 1.561 . S
C1392 C1389 1.526 . S
C1392 C1393 1.396 . S
C1392 C1397 1.390 . S
C1393 C1387 1.465 . S
C1393 C1392 1.396 . S
C1393 C1394 1.399 . S
C1394 H1380 0.929 . S
C1394 C1393 1.399 . S
C1394 C1395 1.385 . S
C1395 H1381 0.931 . S
C1395 C1394 1.385 . S
C1395 C1396 1.389 . S
C1396 C1395 1.389 . S
C1396 C1397 1.387 . S
C1397 H1382 0.930 . S
C1397 C1392 1.390 . S
C1397 C1396 1.387 . S
H1398 C1410 0.930 . S
H1399 C1412 0.930 . S
H1400 C1413 0.930 . S
H1401 C1417 0.959 . S
H1402 C1417 0.959 . S
H1403 C1417 0.961 . S
H1404 C1418 0.960 . S
H1405 C1418 0.961 . S
H1406 C1418 0.959 . S
H1407 C1421 0.929 . S
H1408 C1422 0.931 . S
H1409 C1424 0.930 . S
C1410 H1398 0.930 . S
C1410 C1411 1.399 . S
C1410 C1415 1.399 . S
C1411 C1410 1.399 . S
C1411 C1412 1.376 . S
C1412 H1399 0.930 . S
C1412 C1411 1.376 . S
C1412 C1413 1.388 . S
C1413 H1400 0.930 . S
C1413 C1412 1.388 . S
C1413 C1414 1.390 . S
C1414 C1413 1.390 . S
C1414 C1415 1.394 . S
C1414 C1420 1.465 . S
C1415 C1410 1.399 . S
C1415 C1414 1.394 . S
C1415 C1416 1.516 . S
C1416 C1415 1.516 . S
C1416 C1417 1.502 . S
C1416 C1418 1.561 . S
C1416 C1419 1.526 . S
C1417 H1401 0.959 . S
C1417 H1402 0.959 . S
C1417 H1403 0.961 . S
C1417 C1416 1.502 . S
C1418 H1404 0.960 . S
C1418 H1405 0.961 . S
C1418 H1406 0.959 . S
C1418 C1416 1.561 . S
C1419 C1416 1.526 . S
C1419 C1420 1.396 . S
C1419 C1424 1.390 . S
C1420 C1414 1.465 . S
C1420 C1419 1.396 . S
C1420 C1421 1.399 . S
C1421 H1407 0.929 . S
C1421 C1420 1.399 . S
C1421 C1422 1.385 . S
C1422 H1408 0.931 . S
C1422 C1421 1.385 . S
C1422 C1423 1.389 . S
C1423 C1422 1.389 . S
C1423 C1424 1.387 . S
C1424 H1409 0.930 . S
C1424 C1419 1.390 . S
C1424 C1423 1.387 . S
H1425 C1437 0.930 . S
H1426 C1439 0.930 . S
H1427 C1440 0.930 . S
H1428 C1444 0.959 . S
H1429 C1444 0.959 . S
H1430 C1444 0.961 . S
H1431 C1445 0.960 . S
H1432 C1445 0.961 1_455 S
H1433 C1445 0.959 1_455 S
H1434 C1448 0.929 . S
H1435 C1449 0.931 . S
H1436 C1451 0.930 . S
C1437 H1425 0.930 . S
C1437 C1438 1.399 . S
C1437 C1442 1.399 . S
C1438 C1437 1.399 . S
C1438 C1439 1.376 . S
C1439 H1426 0.930 . S
C1439 C1438 1.376 . S
C1439 C1440 1.388 . S
C1440 H1427 0.930 . S
C1440 C1439 1.388 . S
C1440 C1441 1.390 . S
C1441 C1440 1.390 . S
C1441 C1442 1.394 . S
C1441 C1447 1.465 1_655 S
C1442 C1437 1.399 . S
C1442 C1441 1.394 . S
C1442 C1443 1.516 . S
C1443 C1442 1.516 . S
C1443 C1444 1.502 . S
C1443 C1445 1.561 . S
C1443 C1446 1.526 1_655 S
C1444 H1428 0.959 . S
C1444 H1429 0.959 . S
C1444 H1430 0.961 . S
C1444 C1443 1.502 . S
C1445 H1431 0.960 . S
C1445 H1432 0.961 1_655 S
C1445 H1433 0.959 1_655 S
C1445 C1443 1.561 . S
C1446 C1443 1.526 1_455 S
C1446 C1447 1.396 . S
C1446 C1451 1.390 . S
C1447 C1441 1.465 1_455 S
C1447 C1446 1.396 . S
C1447 C1448 1.399 . S
C1448 H1434 0.929 . S
C1448 C1447 1.399 . S
C1448 C1449 1.385 . S
C1449 H1435 0.931 . S
C1449 C1448 1.385 . S
C1449 C1450 1.389 . S
C1450 C1449 1.389 . S
C1450 C1451 1.387 . S
C1451 H1436 0.930 . S
C1451 C1446 1.390 . S
C1451 C1450 1.387 . S
C493 C3 1.586 . S
C505 C443 1.600 . S
C520 C375 1.669 . S
C532 C55 1.696 . S
C547 C83 1.548 . S
C559 C335 1.584 . S
C574 C135 1.728 . S
C586 C415 1.723 . S
C601 C163 1.967 . S
C613 C403 1.946 . S
C628 C203 1.408 . S
C640 C455 1.461 . S
C655 C363 1.993 . S
C667 C255 2.026 . S
C682 C283 1.581 . S
C694 C323 1.585 . S
C709 C123 1.419 . S
C721 C175 1.442 . S
C736 C15 1.516 . S
C748 C215 1.520 . S
C763 C43 1.765 1_655 S
C775 C243 1.754 . S
C790 C295 1.692 . S
C802 C95 1.705 . S
C817 C26 1.708 . S
C829 C322 1.697 . S
C844 C49 0.890 . S
C856 C402 0.923 . S
C871 C462 2.346 . S
C883 C106 2.217 . S
C898 C129 1.397 . S
C910 C362 1.383 . S
C925 C186 1.468 . S
C937 C382 1.583 . S
C952 C342 2.099 . S
C964 C226 1.995 . S
C979 C422 1.600 . S
C991 C249 1.588 . S
C1006 C442 1.211 . S
C1018 C306 1.130 . S
C1033 C2 1.935 . S
C1045 C146 2.000 . S
C1060 C9 2.013 . S
C1072 C62 2.000 . S
C1087 C66 1.593 . S
C1099 C82 1.683 . S
C1114 C142 2.026 . S
C1126 C89 2.061 . S
C1141 C209 0.939 . S
C1153 C162 0.945 . S
C1168 C202 1.484 . S
C1180 C266 1.419 . S
C1195 C262 1.019 . S
C1207 C289 1.010 . S
C1222 C169 1.495 . S
C1234 C282 1.372 . S
C1249 C346 2.057 . S
C1261 C122 2.003 . S
C1276 C222 2.289 . S
C1288 C369 2.301 . S
C1303 C329 1.417 . S
C1315 C242 1.389 . S
C1330 C409 1.560 . S
C1342 C302 1.517 . S
C1357 C182 1.969 . S
C1369 C466 1.872 . S
C1384 C449 1.212 . S
C1396 C42 1.122 . S
C1411 C102 1.912 . S
C1423 C386 1.932 . S
C1438 C426 1.690 . S
C1450 C22 1.734 . S
