# Generated by pormake.
# Topology qtz-e, (6)-cn, num edge types: 1
# Building blocks:
#     Node 0, Type 0, BuildingBlock: BETFEN_clean_sbu_0, # of connection points: 6
#     Node 1, Type 0, BuildingBlock: BETFEN_clean_sbu_0, # of connection points: 6
#     Node 2, Type 0, BuildingBlock: BETFEN_clean_sbu_0, # of connection points: 6
#     Node 3, Type 0, BuildingBlock: BETFEN_clean_sbu_0, # of connection points: 6
#     Node 4, Type 0, BuildingBlock: BETFEN_clean_sbu_0, # of connection points: 6
#     Node 5, Type 0, BuildingBlock: BETFEN_clean_sbu_0, # of connection points: 6
#     Edge 6, Type (0, 0), BuildingBlock: AJUNOK_clean_linker_0, # of connection points: 2
#     Edge 7, Type (0, 0), BuildingBlock: AJUNOK_clean_linker_0, # of connection points: 2
#     Edge 8, Type (0, 0), BuildingBlock: AJUNOK_clean_linker_0, # of connection points: 2
#     Edge 9, Type (0, 0), BuildingBlock: AJUNOK_clean_linker_0, # of connection points: 2
#     Edge 10, Type (0, 0), BuildingBlock: AJUNOK_clean_linker_0, # of connection points: 2
#     Edge 11, Type (0, 0), BuildingBlock: AJUNOK_clean_linker_0, # of connection points: 2
#     Edge 12, Type (0, 0), BuildingBlock: AJUNOK_clean_linker_0, # of connection points: 2
#     Edge 13, Type (0, 0), BuildingBlock: AJUNOK_clean_linker_0, # of connection points: 2
#     Edge 14, Type (0, 0), BuildingBlock: AJUNOK_clean_linker_0, # of connection points: 2
#     Edge 15, Type (0, 0), BuildingBlock: AJUNOK_clean_linker_0, # of connection points: 2
#     Edge 16, Type (0, 0), BuildingBlock: AJUNOK_clean_linker_0, # of connection points: 2
#     Edge 17, Type (0, 0), BuildingBlock: AJUNOK_clean_linker_0, # of connection points: 2
#     Edge 18, Type (0, 0), BuildingBlock: AJUNOK_clean_linker_0, # of connection points: 2
#     Edge 19, Type (0, 0), BuildingBlock: AJUNOK_clean_linker_0, # of connection points: 2
#     Edge 20, Type (0, 0), BuildingBlock: AJUNOK_clean_linker_0, # of connection points: 2
#     Edge 21, Type (0, 0), BuildingBlock: AJUNOK_clean_linker_0, # of connection points: 2
#     Edge 22, Type (0, 0), BuildingBlock: AJUNOK_clean_linker_0, # of connection points: 2
#     Edge 23, Type (0, 0), BuildingBlock: AJUNOK_clean_linker_0, # of connection points: 2
# Relax obj value: 0.223
# Max RMSD: 0.227
# Mean RMSD: 0.227
data_MOF--net-qtz-e--node1-BETFEN_clean_sbu_0--edge1-AJUNOK_clean_linker_0
_symmetry_space_group_name_H-M    P1
_symmetry_Int_Tables_number       1
_symmetry_cell_setting            triclinic
loop_
_symmetry_equiv_pos_as_xyz
'x, y, z'
_cell_length_a     19.129268
_cell_length_b     19.082757
_cell_length_c     41.66758
_cell_angle_alpha  90.076521
_cell_angle_beta   90.056603
_cell_angle_gamma 119.98802
loop_
_atom_site_label
_atom_site_type_symbol
_atom_site_fract_x
_atom_site_fract_y
_atom_site_fract_z
_atom_type_partial_charge
Pr0 Pr 0.33816 0.49271 0.12867 0.0
Pr1 Pr 0.21972 0.31603 0.14545 0.0
C2 C 0.44561 0.63203 0.09991 0.0
C3 C 0.45444 0.66328 0.06665 0.0
C4 C 0.39186 0.67006 0.05179 0.0
C5 C 0.40011 0.69877 1.02034 0.0
C6 C 0.47096 0.72125 1.00287 0.0
C7 C 0.5332 0.71363 1.01765 0.0
C8 C 0.52518 0.68542 0.04922 0.0
C9 C 0.18489 0.4632 0.14286 0.0
C10 C 0.27362 0.35241 0.06895 0.0
C11 C 0.09254 0.17908 0.16693 0.0
C12 C 0.06823 0.15189 0.20055 0.0
C13 C 0.1269 0.17091 0.22454 0.0
C14 C 0.10475 0.1546 0.25691 0.0
C15 C 0.02337 0.11917 0.26618 0.0
C16 C 0.96464 0.09979 0.24214 0.0
C17 C 0.98684 0.11583 0.20969 0.0
C18 C 0.37795 0.37099 0.1663 0.0
C19 C 0.295 0.45347 0.20424 0.0
O20 O 0.46006 0.5727 0.10476 0.0
O21 O 0.3832 0.62323 0.11592 0.0
O22 O 0.19807 0.4165 0.12525 0.0
O23 O 0.25048 0.52704 0.15188 0.0
O24 O 0.23743 0.29393 0.09052 0.0
O25 O 0.30586 0.42921 0.07768 0.0
O26 O 0.08742 0.24252 0.15859 0.0
O27 O 0.15843 0.18163 0.15632 0.0
O28 O 0.35841 0.38728 0.13957 0.0
O29 O 0.31454 0.31854 0.18173 0.0
O30 O 0.35491 0.50253 0.18502 0.0
O31 O 0.23208 0.38689 0.19311 0.0
H32 H 0.3361 0.65296 0.06438 0.0
H33 H 0.35106 0.70375 1.00973 0.0
H34 H 0.58759 0.72781 1.00459 0.0
H35 H 0.57399 0.68011 0.0599 0.0
H36 H 0.19034 0.20065 0.21841 0.0
H37 H 0.15172 0.17215 0.27481 0.0
H38 H 0.90149 0.07268 0.24848 0.0
H39 H 0.94057 0.10196 0.19179 0.0
Pr40 Pr 0.63423 0.14502 0.54757 0.0
Pr41 Pr 0.73607 0.07331 0.52485 0.0
C42 C 0.53736 0.19846 0.57043 0.0
C43 C 0.52661 0.22163 0.60351 0.0
C44 C 0.58852 0.29043 0.61905 0.0
C45 C 0.58018 0.30765 0.65113 0.0
C46 C 0.51011 0.25621 0.66864 0.0
C47 C 0.44759 0.18848 0.6528 0.0
C48 C 0.45565 0.17161 0.6207 0.0
C49 C 0.80161 0.25423 0.55096 0.0
C50 C 0.67793 0.04522 0.602 0.0
C51 C 0.84681 0.04073 0.50031 0.0
C52 C 0.882 0.05391 0.46749 0.0
C53 C 0.87769 0.98877 0.45004 0.0
C54 C 0.90305 0.99852 0.41792 0.0
C55 C 0.93386 0.07389 0.4025 0.0
C56 C 0.93965 0.13937 0.42023 0.0
C57 C 0.91382 0.12956 0.45223 0.0
C58 C 0.57421 0.98284 0.50668 0.0
C59 C 0.6855 0.16708 0.47158 0.0
O60 O 0.51255 0.12183 0.56569 0.0
O61 O 0.60573 0.24569 0.55598 0.0
O62 O 0.76485 0.20484 0.52874 0.0
O63 O 0.75222 0.23892 0.57472 0.0
O64 O 0.73062 0.0451 0.58125 0.0
O65 O 0.6303 0.07351 0.59357 0.0
O66 O 0.86623 0.10516 0.51779 0.0
O67 O 0.77041 0.9859 0.50269 0.0
O68 O 0.59819 0.01462 0.53418 0.0
O69 O 0.63383 0.99187 0.48907 0.0
O70 O 0.62565 0.15527 0.49098 0.0
O71 O 0.74399 0.15514 0.48184 0.0
H72 H 0.64407 0.33063 0.60663 0.0
H73 H 0.62865 0.36151 0.66214 0.0
H74 H 0.39277 0.14728 0.66544 0.0
H75 H 0.40685 0.1182 0.6095 0.0
H76 H 0.85263 0.92963 0.46102 0.0
H77 H 0.89631 0.94635 0.40489 0.0
H78 H 0.96406 0.19832 0.40921 0.0
H79 H 0.91748 0.18102 0.46479 0.0
Pr80 Pr 0.47655 0.82455 0.79171 0.0
Pr81 Pr 0.6528 0.89804 0.8125 0.0
C82 C 0.32655 0.77402 0.76935 0.0
C83 C 0.29207 0.75123 0.73629 0.0
C84 C 0.28304 0.68141 0.72078 0.0
C85 C 0.25554 0.66366 0.68891 0.0
C86 C 0.23621 0.71509 0.67168 0.0
C87 C 0.24576 0.78507 0.68719 0.0
C88 C 0.27263 0.80249 0.71907 0.0
C89 C 0.53355 0.71407 0.79034 0.0
C90 C 0.61752 0.92002 0.73542 0.0
C91 C 0.7951 0.92663 0.83647 0.0
C92 C 0.81605 0.91287 0.86946 0.0
C93 C 0.87694 0.97739 0.88707 0.0
C94 C 0.89215 0.967 0.91918 0.0
C95 C 0.84739 0.89144 0.93448 0.0
C96 C 0.78674 0.82676 0.91671 0.0
C97 C 0.77109 0.83734 0.88471 0.0
C98 C 0.58271 0.98958 0.83125 0.0
C99 C 0.51345 0.81312 0.86816 0.0
O100 O 0.37917 0.85048 0.77419 0.0
O101 O 0.34664 0.72573 0.78374 0.0
O102 O 0.54857 0.7669 0.81137 0.0
O103 O 0.49643 0.72538 0.76655 0.0
O104 O 0.67241 0.924 0.75604 0.0
O105 O 0.54177 0.89022 0.74435 0.0
O106 O 0.74846 0.86231 0.8192 0.0
O107 O 0.77635 0.98361 0.83369 0.0
O108 O 0.57168 0.95545 0.80407 0.0
O109 O 0.63811 0.98496 0.84733 0.0
O110 O 0.46084 0.81677 0.84843 0.0
O111 O 0.58358 0.82509 0.8577 0.0
H112 H 0.29803 0.64069 0.73311 0.0
H113 H 0.24895 0.60934 0.6778 0.0
H114 H 0.23381 0.82747 0.67449 0.0
H115 H 0.27968 0.85712 0.73008 0.0
H116 H 0.91157 0.03659 0.8762 0.0
H117 H 0.93765 0.01892 0.93226 0.0
H118 H 0.75096 0.76778 0.9276 0.0
H119 H 0.7227 0.78649 0.87213 0.0
Pr120 Pr 0.8091 0.47147 0.21651 0.0
Pr121 Pr 0.88298 0.6469 0.1947 0.0
C122 C 0.75711 0.31972 0.23698 0.0
C123 C 0.73196 0.28453 0.26948 0.0
C124 C 0.68141 0.30172 0.28846 0.0
C125 C 0.66717 0.27812 0.32071 0.0
C126 C 0.7041 0.23797 0.33476 0.0
C127 C 0.75178 0.21774 0.31542 0.0
C128 C 0.76563 0.24089 0.28312 0.0
C129 C 0.70045 0.52981 0.21919 0.0
C130 C 0.90189 0.61289 0.27267 0.0
C131 C 0.91941 0.79077 0.16953 0.0
C132 C 0.9151 0.81297 0.13556 0.0
C133 C 0.95394 0.79493 0.11086 0.0
C134 C 0.94503 0.81038 0.07868 0.0
C135 C 0.89674 0.84387 0.07021 0.0
C136 C 0.85759 0.86164 0.09483 0.0
C137 C 0.867 0.84674 0.12713 0.0
C138 C 0.97249 0.57271 0.1791 0.0
C139 C 0.79332 0.5055 0.13992 0.0
O140 O 0.83371 0.37304 0.23377 0.0
O141 O 0.71014 0.34094 0.22225 0.0
O142 O 0.75152 0.544 0.19755 0.0
O143 O 0.71284 0.49285 0.24275 0.0
O144 O 0.90702 0.66741 0.25147 0.0
O145 O 0.87318 0.53676 0.26413 0.0
O146 O 0.85028 0.74376 0.18368 0.0
O147 O 0.97439 0.77122 0.17636 0.0
O148 O 0.93924 0.56699 0.20585 0.0
O149 O 0.96505 0.62253 0.16028 0.0
O150 O 0.80193 0.45575 0.15964 0.0
O151 O 0.80585 0.5762 0.15024 0.0
H152 H 0.65529 0.33617 0.27877 0.0
H153 H 0.63067 0.29493 0.33508 0.0
H154 H 0.78029 0.18598 0.32556 0.0
H155 H 0.8051 0.22729 0.26911 0.0
H156 H 0.99021 0.76739 0.11626 0.0
H157 H 0.97457 0.7943 0.06031 0.0
H158 H 0.81979 0.88729 0.08908 0.0
H159 H 0.83561 0.86044 0.14553 0.0
Pr160 Pr 0.13254 0.63197 0.4588 0.0
Pr161 Pr 0.06483 0.74013 0.48073 0.0
C162 C 0.17949 0.5295 0.43602 0.0
C163 C 0.20409 0.51799 0.40326 0.0
C164 C 0.28144 0.57161 0.39097 0.0
C165 C 0.30214 0.56361 0.35939 0.0
C166 C 0.24605 0.502 0.33913 0.0
C167 C 0.16939 0.44733 0.35168 0.0
C168 C 0.14882 0.45508 0.38327 0.0
C169 C 0.24591 0.79917 0.45828 0.0
C170 C 0.03629 0.68116 0.40398 0.0
C171 C 0.04298 0.85925 0.5036 0.0
C172 C 0.05467 0.89355 0.5366 0.0
C173 C 0.98755 0.87657 0.55578 0.0
C174 C 0.99761 0.90169 0.58793 0.0
C175 C 0.0751 0.94499 0.60162 0.0
C176 C 0.1423 0.96288 0.58235 0.0
C177 C 0.13227 0.93776 0.55026 0.0
C178 C 0.96926 0.5796 0.49934 0.0
C179 C 0.14368 0.67665 0.53629 0.0
O180 O 0.10362 0.5085 0.4399 0.0
O181 O 0.22834 0.59655 0.45118 0.0
O182 O 0.19325 0.76113 0.47914 0.0
O183 O 0.23446 0.751 0.43428 0.0
O184 O 0.03818 0.73506 0.42458 0.0
O185 O 0.06239 0.63142 0.41224 0.0
O186 O 0.10803 0.87333 0.4878 0.0
O187 O 0.98322 0.78505 0.49984 0.0
O188 O 0.00386 0.60132 0.4722 0.0
O189 O 0.9746 0.64073 0.51499 0.0
O190 O 0.14067 0.62205 0.51561 0.0
O191 O 0.13084 0.73533 0.52696 0.0
H192 H 0.32603 0.62049 0.40564 0.0
H193 H 0.36239 0.60549 0.35093 0.0
H194 H 0.12448 0.39914 0.33685 0.0
H195 H 0.08894 0.41244 0.39189 0.0
H196 H 0.92701 0.84243 0.54606 0.0
H197 H 0.94468 0.88717 0.60213 0.0
H198 H 0.20271 0.99471 0.59231 0.0
H199 H 0.18546 0.95163 0.5364 0.0
Pr200 Pr 0.48559 0.33123 0.88178 0.0
Pr201 Pr 0.31054 0.22697 0.8597 0.0
C202 C 0.63515 0.43076 0.90457 0.0
C203 C 0.66771 0.43844 0.93756 0.0
C204 C 0.64461 0.36941 0.95665 0.0
C205 C 0.6683 0.37701 0.98891 0.0
C206 C 0.71527 0.45378 1.00294 0.0
C207 C 0.73955 0.52274 0.98362 0.0
C208 C 0.71609 0.51512 0.95131 0.0
C209 C 0.43008 0.16378 0.88221 0.0
C210 C 0.34202 0.28615 0.93672 0.0
C211 C 0.16804 0.11104 0.83674 0.0
C212 C 0.14317 0.08136 0.80323 0.0
C213 C 0.12713 0.12678 0.78083 0.0
C214 C 0.1135 0.10402 0.74845 0.0
C215 C 0.11559 0.03534 0.73757 0.0
C216 C 0.12819 0.98794 0.7601 0.0
C217 C 0.14188 0.0107 0.79254 0.0
C218 C 0.37884 0.38804 0.84142 0.0
C219 C 0.45313 0.28856 0.80425 0.0
O220 O 0.58166 0.4537 0.90087 0.0
O221 O 0.61585 0.36376 0.88913 0.0
O222 O 0.41576 0.20201 0.86124 0.0
O223 O 0.46546 0.2115 0.90646 0.0
O224 O 0.28939 0.23258 0.91612 0.0
O225 O 0.418 0.33376 0.92839 0.0
O226 O 0.22036 0.09476 0.85016 0.0
O227 O 0.18266 0.18445 0.84317 0.0
O228 O 0.38992 0.36525 0.86865 0.0
O229 O 0.3235 0.32791 0.82519 0.0
O230 O 0.50471 0.34171 0.82527 0.0
O231 O 0.38021 0.23163 0.81298 0.0
H232 H 0.60612 0.30938 0.94693 0.0
H233 H 0.64709 0.32277 1.00321 0.0
H234 H 0.77576 0.5828 0.99368 0.0
H235 H 0.734 0.56923 0.93727 0.0
H236 H 0.12698 0.18122 0.78808 0.0
H237 H 0.10192 0.14066 0.73183 0.0
H238 H 0.12984 0.9345 0.75247 0.0
H239 H 0.15373 0.97414 0.8091 0.0
C240 C 0.24462 0.41637 0.29285 0.0
C241 C 0.26678 0.49351 0.30514 0.0
C242 C 0.25774 0.40525 0.26059 0.0
C243 C 0.29429 0.47069 0.23905 0.0
H244 H 0.21583 0.36366 0.30822 0.0
H245 H 0.23763 0.34426 0.25227 0.0
S246 S 0.36319 0.685 0.25851 0.0
N247 N 0.32698 0.63683 0.29275 0.0
N248 N 0.35288 0.61551 0.23224 0.0
C249 C 0.31905 0.54848 0.25103 0.0
C250 C 0.30499 0.55994 0.28398 0.0
C251 C 0.41346 0.27043 0.74656 0.0
C252 C 0.47413 0.29065 0.7698 0.0
C253 C 0.42682 0.26233 0.71404 0.0
C254 C 0.50098 0.27251 0.70318 0.0
H255 H 0.3544 0.25973 0.75363 0.0
H256 H 0.37804 0.24697 0.69728 0.0
S257 S 0.67934 0.32408 0.75461 0.0
N258 N 0.61154 0.3215 0.77985 0.0
N259 N 0.63624 0.30352 0.71882 0.0
C260 C 0.56288 0.29415 0.72616 0.0
C261 C 0.54953 0.30377 0.75939 0.0
C262 C 0.41522 0.70993 0.94683 0.0
C263 C 0.47906 0.75034 0.96907 0.0
C264 C 0.42425 0.73297 0.9143 0.0
C265 C 0.49772 0.79657 0.90289 0.0
H266 H 0.35882 0.65824 0.95436 0.0
H267 H 0.375 0.69841 0.89777 0.0
S268 S 0.67924 0.92903 0.95174 0.0
N269 N 0.61451 0.86353 0.97769 0.0
N270 N 0.63297 0.90372 0.91666 0.0
C271 C 0.56062 0.83936 0.92507 0.0
C272 C 0.55099 0.81706 0.9581 0.0
C273 C 0.61932 0.16812 0.41924 0.0
C274 C 0.68963 0.19321 0.43768 0.0
C275 C 0.62393 0.18342 0.38596 0.0
C276 C 0.69893 0.22359 0.37004 0.0
H277 H 0.56046 0.13399 0.43032 0.0
H278 H 0.56848 0.16177 0.37245 0.0
S279 S 0.9007 0.31283 0.40826 0.0
N280 N 0.83649 0.2685 0.43794 0.0
N281 N 0.84471 0.29533 0.37586 0.0
C282 C 0.76938 0.25178 0.3885 0.0
C283 C 0.76482 0.23713 0.42217 0.0
C284 C 0.24561 0.67285 0.61473 0.0
C285 C 0.2069 0.69667 0.63761 0.0
C286 C 0.22257 0.66181 0.58205 0.0
C287 C 0.16035 0.6747 0.57108 0.0
H288 H 0.29603 0.66556 0.62189 0.0
H289 H 0.25606 0.64685 0.56511 0.0
S290 S 0.03232 0.7261 0.62156 0.0
N291 N 0.09687 0.72324 0.64708 0.0
N292 N 0.05588 0.70546 0.58608 0.0
C293 C 0.119 0.69486 0.59392 0.0
C294 C 0.14163 0.70512 0.62701 0.0
C295 C 0.73662 0.52697 0.08928 0.0
C296 C 0.76902 0.48491 0.10565 0.0
C297 C 0.71945 0.51607 0.05636 0.0
C298 C 0.73376 0.46255 0.03809 0.0
H299 H 0.72477 0.56957 0.10194 0.0
H300 H 0.69441 0.5499 0.04514 0.0
S301 S 0.81953 0.33873 0.06885 0.0
N302 N 0.81533 0.38778 0.10083 0.0
N303 N 0.78309 0.3672 0.03876 0.0
C304 C 0.76514 0.41908 0.05409 0.0
C305 C 0.78271 0.43024 0.08785 0.0
C306 C 0.5247 0.47466 0.16342 0.0
C307 C 0.45854 0.41823 0.18148 0.0
C308 C 0.60207 0.51716 0.17698 0.0
C309 C 0.61654 0.5042 0.20906 0.0
H310 H 0.51729 0.48419 0.13832 0.0
H311 H 0.65168 0.55697 0.16154 0.0
S312 S 0.46067 0.37364 0.26816 0.0
N313 N 0.41026 0.35973 0.23436 0.0
N314 N 0.5558 0.43898 0.25967 0.0
C315 C 0.54968 0.45275 0.22807 0.0
C316 C 0.47077 0.40954 0.21428 0.0
C317 C 0.93316 0.43307 0.49767 0.0
C318 C 0.93458 0.498 0.51416 0.0
C319 C 0.89711 0.35539 0.51139 0.0
C320 C 0.86008 0.33932 0.54187 0.0
H321 H 0.95802 0.44169 0.47372 0.0
H322 H 0.89473 0.30647 0.49737 0.0
S323 S 0.85839 0.49138 0.59696 0.0
N324 N 0.90394 0.54287 0.56435 0.0
N325 N 0.83626 0.39752 0.58964 0.0
C326 C 0.8666 0.40507 0.55954 0.0
C327 C 0.9033 0.48403 0.5457 0.0
C328 C 0.4449 0.07987 0.83904 0.0
C329 C 0.45503 0.10486 0.87154 0.0
C330 C 0.48425 0.04053 0.82617 0.0
C331 C 0.53536 0.02476 0.84525 0.0
H332 H 0.40949 0.0943 0.82297 0.0
H333 H 0.47692 0.02514 0.80085 0.0
S334 S 0.57206 0.06581 0.93281 0.0
N335 N 0.51231 0.10177 0.92317 0.0
N336 N 0.58644 0.02886 0.89923 0.0
C337 C 0.54155 0.04448 0.87821 0.0
C338 C 0.5012 0.08396 0.89132 0.0
C339 C 0.51856 0.61574 0.83355 0.0
C340 C 0.50903 0.63037 0.80099 0.0
C341 C 0.47837 0.53717 0.84647 0.0
C342 C 0.42725 0.47022 0.82735 0.0
H343 H 0.55397 0.66575 0.84968 0.0
H344 H 0.48495 0.52932 0.87183 0.0
S345 S 0.39365 0.4736 0.73951 0.0
N346 N 0.45322 0.56953 0.74919 0.0
N347 N 0.37804 0.42247 0.77319 0.0
C348 C 0.42227 0.48329 0.79427 0.0
C349 C 0.46327 0.5631 0.78115 0.0
C350 C 0.07759 0.49121 0.12681 0.0
C351 C 0.10699 0.4577 0.14934 0.0
C352 C 0.03018 0.52455 0.13653 0.0
C353 C 0.01099 0.52564 0.16911 0.0
H354 H 0.0978 0.49891 0.10211 0.0
H355 H 0.01238 0.55376 0.11862 0.0
S356 S 0.06419 0.43485 0.23669 0.0
N357 N 0.10612 0.41921 0.20491 0.0
N358 N 0.01717 0.48173 0.22324 0.0
C359 C 0.03383 0.48565 0.19137 0.0
C360 C 0.08189 0.45167 0.18142 0.0
C361 C 0.39578 0.87581 0.44972 0.0
C362 C 0.32906 0.85978 0.46892 0.0
C363 C 0.47459 0.91709 0.46214 0.0
C364 C 0.49007 0.94355 0.49435 0.0
H365 H 0.38698 0.85316 0.42534 0.0
H366 H 0.52363 0.9263 0.44649 0.0
S367 S 0.33759 0.92431 0.55386 0.0
N368 N 0.28499 0.88148 0.52102 0.0
N369 N 0.43248 0.95518 0.54455 0.0
C370 C 0.42455 0.9315 0.51337 0.0
C371 C 0.34434 0.89088 0.50057 0.0
C372 C 0.26833 0.23752 0.99083 0.0
C373 C 0.31647 0.30049 0.96927 0.0
C374 C 0.25293 0.25392 1.02263 0.0
C375 C 0.28373 0.33401 1.03418 0.0
H376 H 0.24482 0.17522 0.98351 0.0
H377 H 0.21779 0.20329 0.03844 0.0
S378 S 0.40631 0.52 0.98559 0.0
N379 N 0.39003 0.44543 0.96113 0.0
N380 N 0.36067 0.47659 1.01943 0.0
C381 C 0.32902 0.39698 1.01204 0.0
C382 C 0.3454 0.38017 0.98014 0.0
C383 C 0.93013 0.12336 0.34676 0.0
C384 C 0.9573 0.08406 0.36778 0.0
C385 C 0.95072 0.13337 0.31401 0.0
C386 C 0.00022 0.1054 0.30088 0.0
H387 H 0.89187 0.14598 0.35564 0.0
H388 H 0.92864 0.16438 0.29893 0.0
S389 S 0.08755 0.99871 0.34541 0.0
N390 N 0.0369 0.01751 0.3729 0.0
N391 N 0.07497 0.03576 0.31149 0.0
C392 C 0.02783 0.06608 0.32159 0.0
C393 C 0.00643 0.0554 0.35491 0.0
C394 C 0.58083 0.96158 0.68366 0.0
C395 C 0.63823 0.95157 0.70135 0.0
C396 C 0.59489 0.99061 0.65202 0.0
C397 C 0.6671 0.01116 0.6356 0.0
H398 H 0.52373 0.94756 0.69438 0.0
H399 H 0.54764 0.99674 0.64032 0.0
S400 S 0.83806 0.99542 0.67004 0.0
N401 N 0.77124 0.96435 0.69946 0.0
N402 N 0.7973 0.01822 0.63969 0.0
C403 C 0.72525 0.00072 0.6526 0.0
C404 C 0.71109 0.97151 0.68539 0.0
C405 C 0.79611 0.83804 0.99015 0.0
C406 C 0.86181 0.88043 0.96908 0.0
C407 C 0.80783 0.82772 1.02278 0.0
C408 C 0.88579 0.85824 0.03572 0.0
H409 H 0.73488 0.81306 0.98144 0.0
H410 H 0.75529 0.79437 0.03788 0.0
S411 S 0.0784 0.97263 0.99111 0.0
N412 N 0.00801 0.95195 0.96382 0.0
N413 N 0.02981 0.9332 1.02497 0.0
C414 C 0.952 0.90044 1.015 0.0
C415 C 0.94012 0.91144 0.98182 0.0
C416 C 0.02332 0.72984 0.34812 0.0
C417 C 0.9964 0.66855 0.37167 0.0
C418 C 0.99089 0.71327 0.31645 0.0
C419 C 0.92991 0.63485 0.30713 0.0
H420 H 0.07188 0.79012 0.35381 0.0
H421 H 0.01585 0.76147 0.29889 0.0
S422 S 0.82957 0.45737 0.36168 0.0
N423 N 0.89965 0.5292 0.38429 0.0
N424 N 0.83775 0.49844 0.32607 0.0
C425 C 0.89971 0.57484 0.33128 0.0
C426 C 0.93314 0.59151 0.36308 0.0
C427 C 0.05048 0.9345 0.6927 0.0
C428 C 0.10583 0.01381 0.70275 0.0
C429 C 0.04008 0.91312 0.66002 0.0
C430 C 0.08565 0.96977 0.63609 0.0
H431 H 0.01421 0.88878 0.71022 0.0
H432 H 0.99662 0.85141 0.65348 0.0
S433 S 0.23873 0.18536 0.64967 0.0
N434 N 0.207 0.14915 0.68603 0.0
N435 N 0.18739 0.10901 0.62479 0.0
C436 C 0.14129 0.0492 0.64583 0.0
C437 C 0.15132 0.07119 0.67905 0.0
loop_
_geom_bond_atom_site_label_1
_geom_bond_atom_site_label_2
_geom_bond_distance
_geom_bond_site_symmetry_2
_ccdc_geom_bond_type
Pr0 C2 2.880 . S
Pr0 O20 2.562 . S
Pr0 O21 2.490 . S
Pr0 O22 2.695 . S
Pr0 O23 2.512 . S
Pr0 O25 2.437 . S
Pr0 O28 2.436 . S
Pr0 O30 2.438 . S
Pr1 C11 2.880 . S
Pr1 O22 2.436 . S
Pr1 O24 2.438 . S
Pr1 O26 2.562 . S
Pr1 O27 2.490 . S
Pr1 O28 2.695 . S
Pr1 O29 2.512 . S
Pr1 O31 2.437 . S
C2 Pr0 2.880 . S
C2 C3 1.491 1_554 S
C2 O20 1.254 . S
C2 O21 1.225 . S
C3 C2 1.491 1_556 S
C3 C4 1.392 . S
C3 C8 1.356 . S
C4 C3 1.392 . S
C4 C5 1.368 . S
C4 H32 0.929 . S
C5 C4 1.368 . S
C5 C6 1.386 . S
C5 H33 0.929 . S
C6 C5 1.386 . S
C6 C7 1.373 . S
C7 C6 1.373 . S
C7 C8 1.409 . S
C7 H34 0.931 . S
C8 C3 1.356 . S
C8 C7 1.409 . S
C8 H35 0.930 . S
C9 O22 1.270 . S
C9 O23 1.248 . S
C10 O24 1.267 . S
C10 O25 1.278 . S
C11 Pr1 2.880 . S
C11 C12 1.491 . S
C11 O26 1.254 . S
C11 O27 1.225 . S
C12 C11 1.491 . S
C12 C13 1.392 . S
C12 C17 1.356 . S
C13 C12 1.392 . S
C13 C14 1.368 . S
C13 H36 0.929 . S
C14 C13 1.368 . S
C14 C15 1.386 . S
C14 H37 0.929 . S
C15 C14 1.386 . S
C15 C16 1.373 . S
C16 C15 1.373 . S
C16 C17 1.409 . S
C16 H38 0.931 . S
C17 C12 1.356 . S
C17 C16 1.409 . S
C17 H39 0.930 . S
C18 O28 1.270 . S
C18 O29 1.248 . S
C19 O30 1.267 . S
C19 O31 1.278 . S
O20 Pr0 2.562 . S
O20 C2 1.254 . S
O21 Pr0 2.490 . S
O21 C2 1.225 . S
O22 Pr0 2.695 . S
O22 Pr1 2.436 . S
O22 C9 1.270 . S
O23 Pr0 2.512 . S
O23 C9 1.248 . S
O24 Pr1 2.438 . S
O24 C10 1.267 . S
O25 Pr0 2.437 . S
O25 C10 1.278 . S
O26 Pr1 2.562 . S
O26 C11 1.254 . S
O27 Pr1 2.490 . S
O27 C11 1.225 . S
O28 Pr0 2.436 . S
O28 Pr1 2.695 . S
O28 C18 1.270 . S
O29 Pr1 2.512 . S
O29 C18 1.248 . S
O30 Pr0 2.438 . S
O30 C19 1.267 . S
O31 Pr1 2.437 . S
O31 C19 1.278 . S
H32 C4 0.929 . S
H33 C5 0.929 . S
H34 C7 0.931 . S
H35 C8 0.930 . S
H36 C13 0.929 . S
H37 C14 0.929 . S
H38 C16 0.931 . S
H39 C17 0.930 . S
Pr40 C42 2.880 . S
Pr40 O60 2.562 . S
Pr40 O61 2.490 . S
Pr40 O62 2.695 . S
Pr40 O63 2.512 . S
Pr40 O65 2.437 . S
Pr40 O68 2.436 1_545 S
Pr40 O70 2.438 . S
Pr41 C51 2.880 . S
Pr41 O62 2.436 . S
Pr41 O64 2.438 1_545 S
Pr41 O66 2.562 . S
Pr41 O67 2.490 1_545 S
Pr41 O68 2.695 1_545 S
Pr41 O69 2.512 1_545 S
Pr41 O71 2.437 . S
C42 Pr40 2.880 . S
C42 C43 1.491 . S
C42 O60 1.254 . S
C42 O61 1.225 . S
C43 C42 1.491 . S
C43 C44 1.392 . S
C43 C48 1.356 . S
C44 C43 1.392 . S
C44 C45 1.368 . S
C44 H72 0.929 . S
C45 C44 1.368 . S
C45 C46 1.386 . S
C45 H73 0.929 . S
C46 C45 1.386 . S
C46 C47 1.373 . S
C47 C46 1.373 . S
C47 C48 1.409 . S
C47 H74 0.931 1_545 S
C48 C43 1.356 . S
C48 C47 1.409 . S
C48 H75 0.930 1_545 S
C49 O62 1.270 . S
C49 O63 1.248 . S
C50 O64 1.267 1_545 S
C50 O65 1.278 . S
C51 Pr41 2.880 . S
C51 C52 1.491 . S
C51 O66 1.254 . S
C51 O67 1.225 1_545 S
C52 C51 1.491 . S
C52 C53 1.392 1_545 S
C52 C57 1.356 . S
C53 C52 1.392 1_565 S
C53 C54 1.368 . S
C53 H76 0.929 . S
C54 C53 1.368 . S
C54 C55 1.386 1_565 S
C54 H77 0.929 . S
C55 C54 1.386 1_545 S
C55 C56 1.373 . S
C56 C55 1.373 . S
C56 C57 1.409 . S
C56 H78 0.931 . S
C57 C52 1.356 . S
C57 C56 1.409 . S
C57 H79 0.930 . S
C58 O68 1.270 . S
C58 O69 1.248 . S
C59 O70 1.267 . S
C59 O71 1.278 . S
O60 Pr40 2.562 . S
O60 C42 1.254 . S
O61 Pr40 2.490 . S
O61 C42 1.225 . S
O62 Pr40 2.695 . S
O62 Pr41 2.436 . S
O62 C49 1.270 . S
O63 Pr40 2.512 . S
O63 C49 1.248 . S
O64 Pr41 2.438 1_565 S
O64 C50 1.267 1_565 S
O65 Pr40 2.437 . S
O65 C50 1.278 . S
O66 Pr41 2.562 . S
O66 C51 1.254 . S
O67 Pr41 2.490 1_565 S
O67 C51 1.225 1_565 S
O68 Pr40 2.436 1_565 S
O68 Pr41 2.695 1_565 S
O68 C58 1.270 . S
O69 Pr41 2.512 1_565 S
O69 C58 1.248 . S
O70 Pr40 2.438 . S
O70 C59 1.267 . S
O71 Pr41 2.437 . S
O71 C59 1.278 . S
H72 C44 0.929 . S
H73 C45 0.929 . S
H74 C47 0.931 1_565 S
H75 C48 0.930 1_565 S
H76 C53 0.929 . S
H77 C54 0.929 . S
H78 C56 0.931 . S
H79 C57 0.930 . S
Pr80 C82 2.880 . S
Pr80 O100 2.562 . S
Pr80 O101 2.490 . S
Pr80 O102 2.695 . S
Pr80 O103 2.512 . S
Pr80 O105 2.437 . S
Pr80 O108 2.436 . S
Pr80 O110 2.438 . S
Pr81 C91 2.880 . S
Pr81 O102 2.436 . S
Pr81 O104 2.438 . S
Pr81 O106 2.562 . S
Pr81 O107 2.490 1_565 S
Pr81 O108 2.695 . S
Pr81 O109 2.512 1_565 S
Pr81 O111 2.437 . S
C82 Pr80 2.880 . S
C82 C83 1.491 . S
C82 O100 1.254 . S
C82 O101 1.225 . S
C83 C82 1.491 . S
C83 C84 1.392 . S
C83 C88 1.356 . S
C84 C83 1.392 . S
C84 C85 1.368 . S
C84 H112 0.929 . S
C85 C84 1.368 . S
C85 C86 1.386 . S
C85 H113 0.929 . S
C86 C85 1.386 . S
C86 C87 1.373 . S
C87 C86 1.373 . S
C87 C88 1.409 . S
C87 H114 0.931 . S
C88 C83 1.356 . S
C88 C87 1.409 . S
C88 H115 0.930 . S
C89 O102 1.270 . S
C89 O103 1.248 . S
C90 O104 1.267 . S
C90 O105 1.278 . S
C91 Pr81 2.880 . S
C91 C92 1.491 . S
C91 O106 1.254 . S
C91 O107 1.225 1_565 S
C92 C91 1.491 . S
C92 C93 1.392 1_565 S
C92 C97 1.356 . S
C93 C92 1.392 1_545 S
C93 C94 1.368 . S
C93 H116 0.929 . S
C94 C93 1.368 . S
C94 C95 1.386 1_545 S
C94 H117 0.929 . S
C95 C94 1.386 1_565 S
C95 C96 1.373 . S
C96 C95 1.373 . S
C96 C97 1.409 . S
C96 H118 0.931 . S
C97 C92 1.356 . S
C97 C96 1.409 . S
C97 H119 0.930 . S
C98 O108 1.270 1_545 S
C98 O109 1.248 . S
C99 O110 1.267 . S
C99 O111 1.278 . S
O100 Pr80 2.562 . S
O100 C82 1.254 . S
O101 Pr80 2.490 . S
O101 C82 1.225 . S
O102 Pr80 2.695 . S
O102 Pr81 2.436 . S
O102 C89 1.270 . S
O103 Pr80 2.512 . S
O103 C89 1.248 . S
O104 Pr81 2.438 . S
O104 C90 1.267 . S
O105 Pr80 2.437 . S
O105 C90 1.278 . S
O106 Pr81 2.562 . S
O106 C91 1.254 . S
O107 Pr81 2.490 1_545 S
O107 C91 1.225 1_545 S
O108 Pr80 2.436 . S
O108 Pr81 2.695 . S
O108 C98 1.270 1_565 S
O109 Pr81 2.512 1_545 S
O109 C98 1.248 . S
O110 Pr80 2.438 . S
O110 C99 1.267 . S
O111 Pr81 2.437 . S
O111 C99 1.278 . S
H112 C84 0.929 . S
H113 C85 0.929 . S
H114 C87 0.931 . S
H115 C88 0.930 . S
H116 C93 0.929 . S
H117 C94 0.929 . S
H118 C96 0.931 . S
H119 C97 0.930 . S
Pr120 C122 2.880 . S
Pr120 O140 2.562 . S
Pr120 O141 2.490 . S
Pr120 O142 2.695 . S
Pr120 O143 2.512 . S
Pr120 O145 2.437 . S
Pr120 O148 2.436 . S
Pr120 O150 2.438 . S
Pr121 C131 2.880 . S
Pr121 O142 2.436 . S
Pr121 O144 2.438 . S
Pr121 O146 2.562 . S
Pr121 O147 2.490 1_655 S
Pr121 O148 2.695 . S
Pr121 O149 2.512 1_655 S
Pr121 O151 2.437 . S
C122 Pr120 2.880 . S
C122 C123 1.491 . S
C122 O140 1.254 . S
C122 O141 1.225 . S
C123 C122 1.491 . S
C123 C124 1.392 . S
C123 C128 1.356 . S
C124 C123 1.392 . S
C124 C125 1.368 . S
C124 H152 0.929 . S
C125 C124 1.368 . S
C125 C126 1.386 . S
C125 H153 0.929 . S
C126 C125 1.386 . S
C126 C127 1.373 . S
C127 C126 1.373 . S
C127 C128 1.409 . S
C127 H154 0.931 . S
C128 C123 1.356 . S
C128 C127 1.409 . S
C128 H155 0.930 . S
C129 O142 1.270 . S
C129 O143 1.248 . S
C130 O144 1.267 . S
C130 O145 1.278 . S
C131 Pr121 2.880 . S
C131 C132 1.491 . S
C131 O146 1.254 . S
C131 O147 1.225 1_655 S
C132 C131 1.491 . S
C132 C133 1.392 1_655 S
C132 C137 1.356 . S
C133 C132 1.392 1_455 S
C133 C134 1.368 . S
C133 H156 0.929 . S
C134 C133 1.368 . S
C134 C135 1.386 1_455 S
C134 H157 0.929 . S
C135 C134 1.386 1_655 S
C135 C136 1.373 . S
C136 C135 1.373 . S
C136 C137 1.409 . S
C136 H158 0.931 . S
C137 C132 1.356 . S
C137 C136 1.409 . S
C137 H159 0.930 . S
C138 O148 1.270 1_455 S
C138 O149 1.248 . S
C139 O150 1.267 . S
C139 O151 1.278 . S
O140 Pr120 2.562 . S
O140 C122 1.254 . S
O141 Pr120 2.490 . S
O141 C122 1.225 . S
O142 Pr120 2.695 . S
O142 Pr121 2.436 . S
O142 C129 1.270 . S
O143 Pr120 2.512 . S
O143 C129 1.248 . S
O144 Pr121 2.438 . S
O144 C130 1.267 . S
O145 Pr120 2.437 . S
O145 C130 1.278 . S
O146 Pr121 2.562 . S
O146 C131 1.254 . S
O147 Pr121 2.490 1_455 S
O147 C131 1.225 1_455 S
O148 Pr120 2.436 . S
O148 Pr121 2.695 . S
O148 C138 1.270 1_655 S
O149 Pr121 2.512 1_455 S
O149 C138 1.248 . S
O150 Pr120 2.438 . S
O150 C139 1.267 . S
O151 Pr121 2.437 . S
O151 C139 1.278 . S
H152 C124 0.929 . S
H153 C125 0.929 . S
H154 C127 0.931 . S
H155 C128 0.930 . S
H156 C133 0.929 . S
H157 C134 0.929 . S
H158 C136 0.931 . S
H159 C137 0.930 . S
Pr160 C162 2.880 . S
Pr160 O180 2.562 . S
Pr160 O181 2.490 . S
Pr160 O182 2.695 . S
Pr160 O183 2.512 . S
Pr160 O185 2.437 . S
Pr160 O188 2.436 1_455 S
Pr160 O190 2.438 . S
Pr161 C171 2.880 . S
Pr161 O182 2.436 . S
Pr161 O184 2.438 1_455 S
Pr161 O186 2.562 . S
Pr161 O187 2.490 1_455 S
Pr161 O188 2.695 1_455 S
Pr161 O189 2.512 1_455 S
Pr161 O191 2.437 . S
C162 Pr160 2.880 . S
C162 C163 1.491 . S
C162 O180 1.254 . S
C162 O181 1.225 . S
C163 C162 1.491 . S
C163 C164 1.392 . S
C163 C168 1.356 . S
C164 C163 1.392 . S
C164 C165 1.368 . S
C164 H192 0.929 . S
C165 C164 1.368 . S
C165 C166 1.386 . S
C165 H193 0.929 . S
C166 C165 1.386 . S
C166 C167 1.373 . S
C167 C166 1.373 . S
C167 C168 1.409 . S
C167 H194 0.931 1_455 S
C168 C163 1.356 . S
C168 C167 1.409 . S
C168 H195 0.930 1_455 S
C169 O182 1.270 . S
C169 O183 1.248 . S
C170 O184 1.267 1_455 S
C170 O185 1.278 . S
C171 Pr161 2.880 . S
C171 C172 1.491 . S
C171 O186 1.254 . S
C171 O187 1.225 1_455 S
C172 C171 1.491 . S
C172 C173 1.392 1_455 S
C172 C177 1.356 . S
C173 C172 1.392 1_655 S
C173 C174 1.368 . S
C173 H196 0.929 . S
C174 C173 1.368 . S
C174 C175 1.386 1_655 S
C174 H197 0.929 . S
C175 C174 1.386 1_455 S
C175 C176 1.373 . S
C176 C175 1.373 . S
C176 C177 1.409 . S
C176 H198 0.931 . S
C177 C172 1.356 . S
C177 C176 1.409 . S
C177 H199 0.930 . S
C178 O188 1.270 . S
C178 O189 1.248 . S
C179 O190 1.267 . S
C179 O191 1.278 . S
O180 Pr160 2.562 . S
O180 C162 1.254 . S
O181 Pr160 2.490 . S
O181 C162 1.225 . S
O182 Pr160 2.695 . S
O182 Pr161 2.436 . S
O182 C169 1.270 . S
O183 Pr160 2.512 . S
O183 C169 1.248 . S
O184 Pr161 2.438 1_655 S
O184 C170 1.267 1_655 S
O185 Pr160 2.437 . S
O185 C170 1.278 . S
O186 Pr161 2.562 . S
O186 C171 1.254 . S
O187 Pr161 2.490 1_655 S
O187 C171 1.225 1_655 S
O188 Pr160 2.436 1_655 S
O188 Pr161 2.695 1_655 S
O188 C178 1.270 . S
O189 Pr161 2.512 1_655 S
O189 C178 1.248 . S
O190 Pr160 2.438 . S
O190 C179 1.267 . S
O191 Pr161 2.437 . S
O191 C179 1.278 . S
H192 C164 0.929 . S
H193 C165 0.929 . S
H194 C167 0.931 1_655 S
H195 C168 0.930 1_655 S
H196 C173 0.929 . S
H197 C174 0.929 . S
H198 C176 0.931 . S
H199 C177 0.930 . S
Pr200 C202 2.880 . S
Pr200 O220 2.562 . S
Pr200 O221 2.490 . S
Pr200 O222 2.695 . S
Pr200 O223 2.512 . S
Pr200 O225 2.437 . S
Pr200 O228 2.436 . S
Pr200 O230 2.438 . S
Pr201 C211 2.880 . S
Pr201 O222 2.436 . S
Pr201 O224 2.438 . S
Pr201 O226 2.562 . S
Pr201 O227 2.490 . S
Pr201 O228 2.695 . S
Pr201 O229 2.512 . S
Pr201 O231 2.437 . S
C202 Pr200 2.880 . S
C202 C203 1.491 . S
C202 O220 1.254 . S
C202 O221 1.225 . S
C203 C202 1.491 . S
C203 C204 1.392 . S
C203 C208 1.356 . S
C204 C203 1.392 . S
C204 C205 1.368 . S
C204 H232 0.929 . S
C205 C204 1.368 . S
C205 C206 1.402 . S
C205 H233 0.929 . S
C206 C205 1.402 . S
C206 C207 1.392 . S
C207 C206 1.392 . S
C207 C208 1.409 . S
C207 H234 0.931 . S
C208 C203 1.356 . S
C208 C207 1.409 . S
C208 H235 0.930 . S
C209 O222 1.270 . S
C209 O223 1.248 . S
C210 O224 1.267 . S
C210 O225 1.278 . S
C211 Pr201 2.880 . S
C211 C212 1.491 . S
C211 O226 1.254 . S
C211 O227 1.225 . S
C212 C211 1.491 . S
C212 C213 1.392 . S
C212 C217 1.356 . S
C213 C212 1.392 . S
C213 C214 1.368 . S
C213 H236 0.929 . S
C214 C213 1.368 . S
C214 C215 1.386 . S
C214 H237 0.929 . S
C215 C214 1.386 . S
C215 C216 1.373 . S
C216 C215 1.373 . S
C216 C217 1.409 . S
C216 H238 0.931 . S
C217 C212 1.356 . S
C217 C216 1.409 . S
C217 H239 0.930 . S
C218 O228 1.270 . S
C218 O229 1.248 . S
C219 O230 1.267 . S
C219 O231 1.278 . S
O220 Pr200 2.562 . S
O220 C202 1.254 . S
O221 Pr200 2.490 . S
O221 C202 1.225 . S
O222 Pr200 2.695 . S
O222 Pr201 2.436 . S
O222 C209 1.270 . S
O223 Pr200 2.512 . S
O223 C209 1.248 . S
O224 Pr201 2.438 . S
O224 C210 1.267 . S
O225 Pr200 2.437 . S
O225 C210 1.278 . S
O226 Pr201 2.562 . S
O226 C211 1.254 . S
O227 Pr201 2.490 . S
O227 C211 1.225 . S
O228 Pr200 2.436 . S
O228 Pr201 2.695 . S
O228 C218 1.270 . S
O229 Pr201 2.512 . S
O229 C218 1.248 . S
O230 Pr200 2.438 . S
O230 C219 1.267 . S
O231 Pr201 2.437 . S
O231 C219 1.278 . S
H232 C204 0.929 . S
H233 C205 0.929 . S
H234 C207 0.931 . S
H235 C208 0.930 . S
H236 C213 0.929 . S
H237 C214 0.929 . S
H238 C216 0.931 . S
H239 C217 0.930 . S
C240 C241 1.369 . S
C240 C242 1.419 . S
C240 H244 0.930 . S
C241 C240 1.369 . S
C241 C250 1.429 . S
C242 C240 1.419 . S
C242 C243 1.363 . S
C242 H245 0.929 . S
C243 C242 1.363 . S
C243 C249 1.428 . S
H244 C240 0.930 . S
H245 C242 0.929 . S
S246 N247 1.613 . S
S246 N248 1.610 . S
N247 S246 1.613 . S
N247 C250 1.350 . S
N248 S246 1.610 . S
N248 C249 1.351 . S
C249 C243 1.428 . S
C249 N248 1.351 . S
C249 C250 1.434 . S
C250 C241 1.429 . S
C250 N247 1.350 . S
C250 C249 1.434 . S
C251 C252 1.369 . S
C251 C253 1.419 . S
C251 H255 0.930 . S
C252 C251 1.369 . S
C252 C261 1.429 . S
C253 C251 1.419 . S
C253 C254 1.363 . S
C253 H256 0.929 . S
C254 C253 1.363 . S
C254 C260 1.428 . S
H255 C251 0.930 . S
H256 C253 0.929 . S
S257 N258 1.613 . S
S257 N259 1.610 . S
N258 S257 1.613 . S
N258 C261 1.350 . S
N259 S257 1.610 . S
N259 C260 1.351 . S
C260 C254 1.428 . S
C260 N259 1.351 . S
C260 C261 1.434 . S
C261 C252 1.429 . S
C261 N258 1.350 . S
C261 C260 1.434 . S
C262 C263 1.369 . S
C262 C264 1.419 . S
C262 H266 0.930 . S
C263 C262 1.369 . S
C263 C272 1.429 . S
C264 C262 1.419 . S
C264 C265 1.363 . S
C264 H267 0.929 . S
C265 C264 1.363 . S
C265 C271 1.428 . S
H266 C262 0.930 . S
H267 C264 0.929 . S
S268 N269 1.613 . S
S268 N270 1.610 . S
N269 S268 1.613 . S
N269 C272 1.350 . S
N270 S268 1.610 . S
N270 C271 1.351 . S
C271 C265 1.428 . S
C271 N270 1.351 . S
C271 C272 1.434 . S
C272 C263 1.429 . S
C272 N269 1.350 . S
C272 C271 1.434 . S
C273 C274 1.369 . S
C273 C275 1.419 . S
C273 H277 0.930 . S
C274 C273 1.369 . S
C274 C283 1.429 . S
C275 C273 1.419 . S
C275 C276 1.363 . S
C275 H278 0.929 . S
C276 C275 1.363 . S
C276 C282 1.428 . S
H277 C273 0.930 . S
H278 C275 0.929 . S
S279 N280 1.613 . S
S279 N281 1.610 . S
N280 S279 1.613 . S
N280 C283 1.350 . S
N281 S279 1.610 . S
N281 C282 1.351 . S
C282 C276 1.428 . S
C282 N281 1.351 . S
C282 C283 1.434 . S
C283 C274 1.429 . S
C283 N280 1.350 . S
C283 C282 1.434 . S
C284 C285 1.369 . S
C284 C286 1.419 . S
C284 H288 0.930 . S
C285 C284 1.369 . S
C285 C294 1.429 . S
C286 C284 1.419 . S
C286 C287 1.363 . S
C286 H289 0.929 . S
C287 C286 1.363 . S
C287 C293 1.428 . S
H288 C284 0.930 . S
H289 C286 0.929 . S
S290 N291 1.613 . S
S290 N292 1.610 . S
N291 S290 1.613 . S
N291 C294 1.350 . S
N292 S290 1.610 . S
N292 C293 1.351 . S
C293 C287 1.428 . S
C293 N292 1.351 . S
C293 C294 1.434 . S
C294 C285 1.429 . S
C294 N291 1.350 . S
C294 C293 1.434 . S
C295 C296 1.369 . S
C295 C297 1.419 . S
C295 H299 0.930 . S
C296 C295 1.369 . S
C296 C305 1.429 . S
C297 C295 1.419 . S
C297 C298 1.363 . S
C297 H300 0.929 . S
C298 C297 1.363 . S
C298 C304 1.428 . S
H299 C295 0.930 . S
H300 C297 0.929 . S
S301 N302 1.613 . S
S301 N303 1.608 1_554 S
N302 S301 1.613 . S
N302 C305 1.350 . S
N303 S301 1.608 1_556 S
N303 C304 1.338 1_556 S
C304 C298 1.428 . S
C304 N303 1.338 1_554 S
C304 C305 1.434 . S
C305 C296 1.429 . S
C305 N302 1.350 . S
C305 C304 1.434 . S
C306 C307 1.369 . S
C306 C308 1.419 . S
C306 H310 0.930 . S
C307 C306 1.369 . S
C307 C316 1.429 . S
C308 C306 1.419 . S
C308 C309 1.363 . S
C308 H311 0.929 . S
C309 C308 1.363 . S
C309 C315 1.428 . S
H310 C306 0.930 . S
H311 C308 0.929 . S
S312 N313 1.613 . S
S312 N314 1.610 . S
N313 S312 1.613 . S
N313 C316 1.350 . S
N314 S312 1.610 . S
N314 C315 1.351 . S
C315 C309 1.428 . S
C315 N314 1.351 . S
C315 C316 1.434 . S
C316 C307 1.429 . S
C316 N313 1.350 . S
C316 C315 1.434 . S
C317 C318 1.369 . S
C317 C319 1.419 . S
C317 H321 0.930 . S
C318 C317 1.369 . S
C318 C327 1.429 . S
C319 C317 1.419 . S
C319 C320 1.363 . S
C319 H322 0.929 . S
C320 C319 1.363 . S
C320 C326 1.428 . S
H321 C317 0.930 . S
H322 C319 0.929 . S
S323 N324 1.613 . S
S323 N325 1.610 . S
N324 S323 1.613 . S
N324 C327 1.350 . S
N325 S323 1.610 . S
N325 C326 1.351 . S
C326 C320 1.428 . S
C326 N325 1.351 . S
C326 C327 1.434 . S
C327 C318 1.429 . S
C327 N324 1.350 . S
C327 C326 1.434 . S
C328 C329 1.369 . S
C328 C330 1.419 . S
C328 H332 0.930 . S
C329 C328 1.369 . S
C329 C338 1.429 . S
C330 C328 1.419 . S
C330 C331 1.363 . S
C330 H333 0.929 . S
C331 C330 1.363 . S
C331 C337 1.428 . S
H332 C328 0.930 . S
H333 C330 0.929 . S
S334 N335 1.613 . S
S334 N336 1.610 . S
N335 S334 1.613 . S
N335 C338 1.350 . S
N336 S334 1.610 . S
N336 C337 1.351 . S
C337 C331 1.428 . S
C337 N336 1.351 . S
C337 C338 1.434 . S
C338 C329 1.429 . S
C338 N335 1.350 . S
C338 C337 1.434 . S
C339 C340 1.369 . S
C339 C341 1.419 . S
C339 H343 0.930 . S
C340 C339 1.369 . S
C340 C349 1.429 . S
C341 C339 1.419 . S
C341 C342 1.363 . S
C341 H344 0.929 . S
C342 C341 1.363 . S
C342 C348 1.428 . S
H343 C339 0.930 . S
H344 C341 0.929 . S
S345 N346 1.613 . S
S345 N347 1.610 . S
N346 S345 1.613 . S
N346 C349 1.350 . S
N347 S345 1.610 . S
N347 C348 1.351 . S
C348 C342 1.428 . S
C348 N347 1.351 . S
C348 C349 1.434 . S
C349 C340 1.429 . S
C349 N346 1.350 . S
C349 C348 1.434 . S
C350 C351 1.369 . S
C350 C352 1.419 . S
C350 H354 0.930 . S
C351 C350 1.369 . S
C351 C360 1.429 . S
C352 C350 1.419 . S
C352 C353 1.363 . S
C352 H355 0.929 . S
C353 C352 1.363 . S
C353 C359 1.428 . S
H354 C350 0.930 . S
H355 C352 0.929 . S
S356 N357 1.613 . S
S356 N358 1.610 . S
N357 S356 1.613 . S
N357 C360 1.350 . S
N358 S356 1.610 . S
N358 C359 1.351 . S
C359 C353 1.428 . S
C359 N358 1.351 . S
C359 C360 1.434 . S
C360 C351 1.429 . S
C360 N357 1.350 . S
C360 C359 1.434 . S
C361 C362 1.369 . S
C361 C363 1.419 . S
C361 H365 0.930 . S
C362 C361 1.369 . S
C362 C371 1.429 . S
C363 C361 1.419 . S
C363 C364 1.363 . S
C363 H366 0.929 . S
C364 C363 1.363 . S
C364 C370 1.428 . S
H365 C361 0.930 . S
H366 C363 0.929 . S
S367 N368 1.613 . S
S367 N369 1.610 . S
N368 S367 1.613 . S
N368 C371 1.350 . S
N369 S367 1.610 . S
N369 C370 1.351 . S
C370 C364 1.428 . S
C370 N369 1.351 . S
C370 C371 1.434 . S
C371 C362 1.429 . S
C371 N368 1.350 . S
C371 C370 1.434 . S
C372 C373 1.369 . S
C372 C374 1.419 . S
C372 H376 0.930 . S
C373 C372 1.369 . S
C373 C382 1.429 . S
C374 C372 1.419 . S
C374 C375 1.363 1_556 S
C374 H377 0.929 . S
C375 C374 1.363 1_554 S
C375 C381 1.428 1_554 S
H376 C372 0.930 . S
H377 C374 0.929 . S
S378 N379 1.613 . S
S378 N380 1.610 . S
N379 S378 1.613 . S
N379 C382 1.350 . S
N380 S378 1.610 . S
N380 C381 1.351 . S
C381 C375 1.428 1_556 S
C381 N380 1.351 . S
C381 C382 1.434 . S
C382 C373 1.429 . S
C382 N379 1.350 . S
C382 C381 1.434 . S
C383 C384 1.369 . S
C383 C385 1.419 1_655 S
C383 H387 0.930 . S
C384 C383 1.369 . S
C384 C393 1.429 1_545 S
C385 C383 1.419 1_455 S
C385 C386 1.363 . S
C385 H388 0.929 . S
C386 C385 1.363 . S
C386 C392 1.428 1_545 S
H387 C383 0.930 . S
H388 C385 0.929 . S
S389 N390 1.613 . S
S389 N391 1.610 1_655 S
N390 S389 1.613 . S
N390 C393 1.350 . S
N391 S389 1.610 1_455 S
N391 C392 1.351 . S
C392 C386 1.428 1_565 S
C392 N391 1.351 . S
C392 C393 1.434 1_455 S
C393 C384 1.429 1_565 S
C393 N390 1.350 . S
C393 C392 1.434 1_655 S
C394 C395 1.369 . S
C394 C396 1.419 . S
C394 H398 0.930 . S
C395 C394 1.369 . S
C395 C404 1.429 1_565 S
C396 C394 1.419 . S
C396 C397 1.363 . S
C396 H399 0.929 . S
C397 C396 1.363 . S
C397 C403 1.428 1_565 S
H398 C394 0.930 . S
H399 C396 0.929 . S
S400 N401 1.613 . S
S400 N402 1.610 . S
N401 S400 1.613 . S
N401 C404 1.350 . S
N402 S400 1.610 . S
N402 C403 1.351 . S
C403 C397 1.428 1_545 S
C403 N402 1.351 . S
C403 C404 1.434 . S
C404 C395 1.429 1_545 S
C404 N401 1.350 . S
C404 C403 1.434 . S
C405 C406 1.369 . S
C405 C407 1.419 . S
C405 H409 0.930 . S
C406 C405 1.369 . S
C406 C415 1.429 . S
C407 C405 1.419 . S
C407 C408 1.363 . S
C407 H410 0.929 . S
C408 C407 1.363 . S
C408 C414 1.424 1_655 S
H409 C405 0.930 . S
H410 C407 0.929 . S
S411 N412 1.613 . S
S411 N413 1.615 . S
N412 S411 1.613 . S
N412 C415 1.350 1_445 S
N413 S411 1.615 . S
N413 C414 1.365 1_545 S
C414 C408 1.424 1_455 S
C414 N413 1.365 1_565 S
C414 C415 1.424 1_455 S
C415 C406 1.429 . S
C415 N412 1.350 1_665 S
C415 C414 1.424 1_655 S
C416 C417 1.369 1_455 S
C416 C418 1.419 . S
C416 H420 0.930 . S
C417 C416 1.369 1_655 S
C417 C426 1.429 . S
C418 C416 1.419 . S
C418 C419 1.363 1_455 S
C418 H421 0.929 . S
C419 C418 1.363 1_655 S
C419 C425 1.428 . S
H420 C416 0.930 . S
H421 C418 0.929 . S
S422 N423 1.613 . S
S422 N424 1.610 . S
N423 S422 1.613 . S
N423 C426 1.350 . S
N424 S422 1.610 . S
N424 C425 1.351 . S
C425 C419 1.428 . S
C425 N424 1.351 . S
C425 C426 1.434 . S
C426 C417 1.429 . S
C426 N423 1.350 . S
C426 C425 1.434 . S
C427 C428 1.369 1_565 S
C427 C429 1.419 1_455 S
C427 H431 0.930 1_455 S
C428 C427 1.369 1_545 S
C428 C437 1.429 . S
C429 C427 1.419 1_655 S
C429 C430 1.363 1_655 S
C429 H432 0.929 . S
C430 C429 1.363 1_455 S
C430 C436 1.428 . S
H431 C427 0.930 1_655 S
H432 C429 0.929 . S
S433 N434 1.613 . S
S433 N435 1.610 . S
N434 S433 1.613 . S
N434 C437 1.350 . S
N435 S433 1.610 . S
N435 C436 1.351 1_545 S
C436 C430 1.428 . S
C436 N435 1.351 1_565 S
C436 C437 1.434 1_565 S
C437 C428 1.429 . S
C437 N434 1.350 . S
C437 C436 1.434 1_545 S
C241 C166 1.725 . S
C243 C19 1.782 . S
C252 C219 1.784 . S
C254 C46 1.725 . S
C263 C6 1.727 . S
C265 C99 1.781 . S
C274 C59 1.778 . S
C276 C126 1.731 . S
C285 C86 1.730 . S
C287 C179 1.780 . S
C296 C139 1.782 . S
C298 C206 1.695 1_554 S
C307 C18 1.907 . S
C309 C129 1.672 . S
C318 C178 1.914 . S
C320 C49 1.664 . S
C329 C209 1.665 . S
C331 C98 1.910 . S
C340 C89 1.663 . S
C342 C218 1.915 . S
C351 C9 1.669 . S
C353 C138 1.915 . S
C362 C169 1.675 . S
C364 C58 1.912 . S
C373 C210 1.860 . S
C375 C10 1.856 . S
C384 C55 0.992 . S
C386 C15 0.992 . S
C395 C90 1.861 . S
C397 C50 1.856 1_565 S
C406 C95 0.990 . S
C408 C135 0.993 1_556 S
C417 C170 1.857 1_655 S
C419 C130 1.857 . S
C428 C215 0.991 . S
C430 C175 0.986 . S
