# Generated by pormake.
# Topology smm, (6)-cn, num edge types: 1
# Building blocks:
#     Node 0, Type 0, BuildingBlock: CUWYAW_clean_sbu_0, # of connection points: 6
#     Node 1, Type 0, BuildingBlock: CUWYAW_clean_sbu_0, # of connection points: 6
#     Node 2, Type 0, BuildingBlock: CUWYAW_clean_sbu_0, # of connection points: 6
#     Node 3, Type 0, BuildingBlock: CUWYAW_clean_sbu_0, # of connection points: 6
#     Node 4, Type 0, BuildingBlock: CUWYAW_clean_sbu_0, # of connection points: 6
#     Node 5, Type 0, BuildingBlock: CUWYAW_clean_sbu_0, # of connection points: 6
#     Node 6, Type 0, BuildingBlock: CUWYAW_clean_sbu_0, # of connection points: 6
#     Node 7, Type 0, BuildingBlock: CUWYAW_clean_sbu_0, # of connection points: 6
#     Node 8, Type 0, BuildingBlock: CUWYAW_clean_sbu_0, # of connection points: 6
#     Edge 9, Type (0, 0), BuildingBlock: TEMPAE_clean_linker_10, # of connection points: 2
#     Edge 10, Type (0, 0), BuildingBlock: TEMPAE_clean_linker_10, # of connection points: 2
#     Edge 11, Type (0, 0), BuildingBlock: TEMPAE_clean_linker_10, # of connection points: 2
#     Edge 12, Type (0, 0), BuildingBlock: TEMPAE_clean_linker_10, # of connection points: 2
#     Edge 13, Type (0, 0), BuildingBlock: TEMPAE_clean_linker_10, # of connection points: 2
#     Edge 14, Type (0, 0), BuildingBlock: TEMPAE_clean_linker_10, # of connection points: 2
#     Edge 15, Type (0, 0), BuildingBlock: TEMPAE_clean_linker_10, # of connection points: 2
#     Edge 16, Type (0, 0), BuildingBlock: TEMPAE_clean_linker_10, # of connection points: 2
#     Edge 17, Type (0, 0), BuildingBlock: TEMPAE_clean_linker_10, # of connection points: 2
#     Edge 18, Type (0, 0), BuildingBlock: TEMPAE_clean_linker_10, # of connection points: 2
#     Edge 19, Type (0, 0), BuildingBlock: TEMPAE_clean_linker_10, # of connection points: 2
#     Edge 20, Type (0, 0), BuildingBlock: TEMPAE_clean_linker_10, # of connection points: 2
#     Edge 21, Type (0, 0), BuildingBlock: TEMPAE_clean_linker_10, # of connection points: 2
#     Edge 22, Type (0, 0), BuildingBlock: TEMPAE_clean_linker_10, # of connection points: 2
#     Edge 23, Type (0, 0), BuildingBlock: TEMPAE_clean_linker_10, # of connection points: 2
#     Edge 24, Type (0, 0), BuildingBlock: TEMPAE_clean_linker_10, # of connection points: 2
#     Edge 25, Type (0, 0), BuildingBlock: TEMPAE_clean_linker_10, # of connection points: 2
#     Edge 26, Type (0, 0), BuildingBlock: TEMPAE_clean_linker_10, # of connection points: 2
#     Edge 27, Type (0, 0), BuildingBlock: TEMPAE_clean_linker_10, # of connection points: 2
#     Edge 28, Type (0, 0), BuildingBlock: TEMPAE_clean_linker_10, # of connection points: 2
#     Edge 29, Type (0, 0), BuildingBlock: TEMPAE_clean_linker_10, # of connection points: 2
#     Edge 30, Type (0, 0), BuildingBlock: TEMPAE_clean_linker_10, # of connection points: 2
#     Edge 31, Type (0, 0), BuildingBlock: TEMPAE_clean_linker_10, # of connection points: 2
#     Edge 32, Type (0, 0), BuildingBlock: TEMPAE_clean_linker_10, # of connection points: 2
#     Edge 33, Type (0, 0), BuildingBlock: TEMPAE_clean_linker_10, # of connection points: 2
#     Edge 34, Type (0, 0), BuildingBlock: TEMPAE_clean_linker_10, # of connection points: 2
#     Edge 35, Type (0, 0), BuildingBlock: TEMPAE_clean_linker_10, # of connection points: 2
# Relax obj value: 0.027
# Max RMSD: 0.101
# Mean RMSD: 0.101
data_MOF--net-smm--node1-CUWYAW_clean_sbu_0--edge1-TEMPAE_clean_linker_10
_symmetry_space_group_name_H-M    P1
_symmetry_Int_Tables_number       1
_symmetry_cell_setting            triclinic
loop_
_symmetry_equiv_pos_as_xyz
'x, y, z'
_cell_length_a     71.940595
_cell_length_b     71.89622
_cell_length_c     14.451061
_cell_angle_alpha  90.056838
_cell_angle_beta   89.980345
_cell_angle_gamma 119.99073
loop_
_atom_site_label
_atom_site_type_symbol
_atom_site_fract_x
_atom_site_fract_y
_atom_site_fract_z
_atom_type_partial_charge
C0 C 0.08909 0.18982 0.89673 0.0
Eu1 Eu 0.06031 0.19927 0.95541 0.0
C2 C 0.09744 0.1749 0.91329 0.0
C3 C 0.10533 0.17324 0.00017 0.0
C4 C 0.11472 0.16032 0.01165 0.0
C5 C 0.11648 0.14876 0.93658 0.0
C6 C 0.10812 0.15013 0.85033 0.0
C7 C 0.09879 0.16305 0.8389 0.0
C8 C 0.05304 0.2028 0.1365 0.0
C9 C 1.01321 0.15547 0.97919 0.0
C10 C 0.99341 0.21216 0.08358 0.0
Eu11 Eu 1.02027 0.20311 0.00034 0.0
C12 C 0.98698 0.22865 0.09965 0.0
C13 C 0.97748 0.23473 0.02962 0.0
C14 C 0.969 0.24815 0.04958 0.0
C15 C 0.96968 0.25577 0.14016 0.0
C16 C 0.97976 0.25014 0.20939 0.0
C17 C 0.98821 0.23674 0.18943 0.0
C18 C 0.02563 0.19845 0.81859 0.0
C19 C 0.0662 0.24657 0.95011 0.0
O20 O 0.06994 0.1818 0.86053 0.0
O21 O 0.09287 0.20442 0.95955 0.0
O22 O 0.07206 0.21164 0.1008 0.0
O23 O 0.03914 0.1918 0.07725 0.0
O24 O 0.03296 0.16462 0.94518 0.0
O25 O 1.00543 0.16705 0.01643 0.0
O26 O 1.01123 0.21512 0.12158 0.0
O27 O 0.98991 0.20304 0.00198 0.0
O28 O 1.00704 0.19237 0.85605 0.0
O29 O 0.04048 0.20908 0.87556 0.0
O30 O 0.04751 0.23824 -0.00577 0.0
O31 O 0.07311 0.23404 0.91517 0.0
H32 H 0.10462 0.18221 0.05898 0.0
H33 H 0.12111 0.15987 0.07889 0.0
H34 H 0.10879 0.1412 0.79126 0.0
H35 H 0.09288 0.16404 0.77116 0.0
H36 H 0.97602 0.22865 0.95983 0.0
H37 H 0.96121 0.25191 -0.00547 0.0
H38 H 0.98093 0.25592 0.27957 0.0
H39 H 0.99525 0.23222 0.24513 0.0
C40 C 0.87948 0.92441 0.88813 0.0
Eu41 Eu 0.87128 0.88716 0.95414 0.0
C42 C 0.89395 0.94779 0.90118 0.0
C43 C 0.91412 0.95622 0.94391 0.0
C44 C 0.92733 0.97854 0.95518 0.0
C45 C 0.92065 0.99287 0.92385 0.0
C46 C 0.90034 0.98419 0.88168 0.0
C47 C 0.88721 0.96197 0.87055 0.0
C48 C 0.86749 0.87642 0.13516 0.0
C49 C 0.91556 0.8848 0.98038 0.0
C50 C 0.86134 0.8077 0.07681 0.0
Eu51 Eu 0.86829 0.84344 -0.00161 0.0
C52 C 0.84591 0.78492 0.09795 0.0
C53 C 0.82487 0.77416 0.06303 0.0
C54 C 0.81102 0.75232 0.08376 0.0
C55 C 0.81795 0.74088 0.13992 0.0
C56 C 0.83909 0.75192 0.17439 0.0
C57 C 0.85281 0.77361 0.15377 0.0
C58 C 0.87321 0.85452 0.81766 0.0
C59 C 0.82423 0.84497 0.95234 0.0
O60 O 0.88774 0.91322 0.85436 0.0
O61 O 0.86554 0.91425 0.95389 0.0
O62 O 0.8601 0.88798 0.10002 0.0
O63 O 0.87852 0.87332 0.07659 0.0
O64 O 0.90623 0.8953 0.94704 0.0
O65 O 0.90419 0.86525 0.01577 0.0
O66 O 0.85906 0.8225 0.1197 0.0
O67 O 0.86764 0.81278 -0.00905 0.0
O68 O 0.88092 0.84334 0.85474 0.0
O69 O 0.86184 0.85755 0.87508 0.0
O70 O 0.83293 0.83465 -0.0061 0.0
O71 O 0.83633 0.8646 0.9187 0.0
H72 H 0.91966 0.94558 0.96834 0.0
H73 H 0.94291 0.98458 0.98722 0.0
H74 H 0.89442 0.99457 0.85813 0.0
H75 H 0.87166 0.95583 0.83795 0.0
H76 H 0.8192 0.7826 0.01978 0.0
H77 H 0.79483 0.74447 0.05651 0.0
H78 H 0.84524 0.7437 0.21619 0.0
H79 H 0.86902 0.78155 0.18102 0.0
C80 C 0.1467 0.98221 0.89617 0.0
Eu81 Eu 0.18468 1.01045 0.9587 0.0
C82 C 0.12349 0.97452 0.91122 0.0
C83 C 0.11346 0.96615 -0.00313 0.0
C84 C 0.0912 0.95728 0.00706 0.0
C85 C 0.07835 0.95653 0.93195 0.0
C86 C 0.08855 0.9654 0.84696 0.0
C87 C 0.11079 0.97421 0.83677 0.0
C88 C 0.19515 0.01735 0.14049 0.0
C89 C 0.18803 0.05756 0.98556 0.0
C90 C 0.26463 0.07772 0.08597 0.0
Eu91 Eu 0.22861 0.05055 0.00439 0.0
C92 C 0.28758 0.08429 0.10169 0.0
C93 C 0.30306 0.09375 0.03129 0.0
C94 C 0.32498 0.10242 0.05089 0.0
C95 C 0.33203 0.10198 0.14146 0.0
C96 C 0.31642 0.09193 0.21105 0.0
C97 C 0.29453 0.08328 0.19145 0.0
C98 C 0.21794 0.04513 0.82337 0.0
C99 C 0.2262 1.00461 0.95433 0.0
O100 O 0.15847 1.00124 0.85929 0.0
O101 O 0.15693 0.97814 0.96069 0.0
O102 O 0.1844 0.9984 0.10421 0.0
O103 O 0.19848 0.03144 0.08133 0.0
O104 O 0.17741 0.03786 0.95084 0.0
O105 O 0.20737 0.06527 0.02261 0.0
O106 O 0.24986 0.05997 0.12494 0.0
O107 O 0.25888 0.08093 0.00422 0.0
O108 O 0.23038 0.06379 0.86049 0.0
O109 O 0.21432 0.03038 0.87967 0.0
O110 O 0.23662 0.02342 -0.0024 0.0
O111 O 0.20666 0.9975 0.9203 0.0
H112 H 0.12271 0.96604 0.05574 0.0
H113 H 0.084 0.95045 0.07331 0.0
H114 H 0.07935 0.9655 0.7879 0.0
H115 H 0.11803 0.98049 0.76992 0.0
H116 H 0.29834 0.09503 0.96149 0.0
H117 H 0.33647 0.11018 -0.00442 0.0
H118 H 0.32111 0.09094 0.28124 0.0
H119 H 0.28305 0.07628 0.24741 0.0
C120 C 0.75698 0.52577 0.22441 0.0
Eu121 Eu 0.72735 0.53384 0.2846 0.0
C122 C 0.76617 0.5116 0.24045 0.0
C123 C 0.78827 0.51998 0.2277 0.0
C124 C 0.79753 0.50701 0.23917 0.0
C125 C 0.78491 0.48522 0.26372 0.0
C126 C 0.76273 0.4769 0.27783 0.0
C127 C 0.75344 0.48994 0.26623 0.0
C128 C 0.72 0.53736 0.46584 0.0
C129 C 0.68105 0.48942 0.31122 0.0
C130 C 0.6584 0.54383 0.41146 0.0
Eu131 Eu 0.68653 0.53651 0.32919 0.0
C132 C 0.64945 0.55834 0.42277 0.0
C133 C 0.62738 0.54916 0.4395 0.0
C134 C 0.61832 0.56207 0.45769 0.0
C135 C 0.63111 0.5846 0.45965 0.0
C136 C 0.65323 0.59385 0.44047 0.0
C137 C 0.66233 0.58084 0.42254 0.0
C138 C 0.69211 0.53161 0.14796 0.0
C139 C 0.7317 0.58066 0.27822 0.0
O140 O 0.73767 0.51719 0.1891 0.0
O141 O 0.76037 0.54003 0.28824 0.0
O142 O 0.73901 0.54619 0.43007 0.0
O143 O 0.70615 0.5262 0.40663 0.0
O144 O 0.70065 0.49886 0.27557 0.0
O145 O 0.67308 0.50075 0.34911 0.0
O146 O 0.67755 0.54994 0.44494 0.0
O147 O 0.65458 0.53314 0.33378 0.0
O148 O 0.67347 0.52549 0.18479 0.0
O149 O 0.70682 0.54269 0.20465 0.0
O150 O 0.71281 0.57196 0.32084 0.0
O151 O 0.73931 0.56855 0.24519 0.0
H152 H 0.79844 0.53665 0.20819 0.0
H153 H 0.81468 0.51415 0.22928 0.0
H154 H 0.75244 0.46018 0.29604 0.0
H155 H 0.73634 0.48305 0.27663 0.0
H156 H 0.6171 0.53186 0.44003 0.0
H157 H 0.60122 0.55435 0.47038 0.0
H158 H 0.6636 0.61112 0.4418 0.0
H159 H 0.67943 0.58834 0.40999 0.0
C160 C 0.54892 0.25813 0.22488 0.0
Eu161 Eu 0.53941 0.22005 0.28561 0.0
C162 C 0.56406 0.2814 0.24062 0.0
C163 C 0.56611 0.29111 0.32749 0.0
C164 C 0.57924 0.31341 0.33841 0.0
C165 C 0.59063 0.32657 0.2628 0.0
C166 C 0.58888 0.31667 0.17653 0.0
C167 C 0.57574 0.29442 0.16565 0.0
C168 C 0.53618 0.20975 0.46708 0.0
C169 C 0.5833 0.2169 0.30918 0.0
C170 C 0.52702 0.14062 0.41507 0.0
Eu171 Eu 0.53583 0.17644 0.33178 0.0
C172 C 0.51057 0.11773 0.43163 0.0
C173 C 0.50447 0.10205 0.36195 0.0
C174 C 0.4911 0.08018 0.38238 0.0
C175 C 0.48356 0.07339 0.47309 0.0
C176 C 0.48919 0.0892 0.54196 0.0
C177 C 0.50254 0.11103 0.52153 0.0
C178 C 0.53987 0.18599 0.14946 0.0
C179 C 0.49218 0.17868 0.28318 0.0
O180 O 0.55669 0.24674 0.18873 0.0
O181 O 0.53447 0.24759 0.28845 0.0
O182 O 0.5272 0.21975 0.4309 0.0
O183 O 0.54721 0.20677 0.40819 0.0
O184 O 0.57403 0.22732 0.2745 0.0
O185 O 0.57184 0.19769 0.34757 0.0
O186 O 0.52416 0.15554 0.45336 0.0
O187 O 0.53593 0.14615 0.33311 0.0
O188 O 0.54651 0.17395 0.18711 0.0
O189 O 0.52936 0.19022 0.20694 0.0
O190 O 0.50068 0.16849 0.32736 0.0
O191 O 0.50457 0.19801 0.2471 0.0
H192 H 0.55729 0.28156 0.38677 0.0
H193 H 0.57997 0.32039 0.40569 0.0
H194 H 0.59766 0.32613 0.11702 0.0
H195 H 0.57446 0.28739 0.09791 0.0
H196 H 0.51051 0.10656 0.29209 0.0
H197 H 0.48733 0.06853 0.32763 0.0
H198 H 0.48346 0.0847 0.61222 0.0
H199 H 0.50707 0.12267 0.57696 0.0
C200 C 0.81456 0.31728 0.22074 0.0
Eu201 Eu 0.85223 0.34576 0.28509 0.0
C202 C 0.79127 0.30899 0.23594 0.0
C203 C 0.7817 0.30199 0.32346 0.0
C204 C 0.7594 0.29251 0.33431 0.0
C205 C 0.74606 0.28979 0.25801 0.0
C206 C 0.75581 0.29732 0.17101 0.0
C207 C 0.77808 0.30673 0.16018 0.0
C208 C 0.86277 0.35252 0.46653 0.0
C209 C 0.85512 0.39267 0.31189 0.0
C210 C 0.93215 0.41365 0.40982 0.0
Eu211 Eu 0.89592 0.38605 0.33078 0.0
C212 C 0.95499 0.41989 0.42655 0.0
C213 C 0.97065 0.42927 0.35672 0.0
C214 C 0.9925 0.43765 0.37704 0.0
C215 C 0.99932 0.43701 0.4678 0.0
C216 C 0.98356 0.42706 0.53687 0.0
C217 C 0.96174 0.41867 0.51655 0.0
C218 C 0.8853 0.38019 0.14937 0.0
C219 C 0.89386 0.34018 0.28286 0.0
O220 O 0.82598 0.33657 0.18577 0.0
O221 O 0.82495 0.3132 0.28444 0.0
O222 O 0.85146 0.33361 0.43068 0.0
O223 O 0.86592 0.3667 0.40828 0.0
O224 O 0.84475 0.37304 0.27628 0.0
O225 O 0.87438 0.40044 0.34986 0.0
O226 O 0.91715 0.3965 0.45151 0.0
O227 O 0.92648 0.41614 0.32665 0.0
O228 O 0.89667 0.39903 0.18697 0.0
O229 O 0.88194 0.36569 0.20664 0.0
O230 O 0.90412 0.35901 0.32606 0.0
O231 O 0.87441 0.33302 0.24788 0.0
H232 H 0.79139 0.30346 0.38336 0.0
H233 H 0.75256 0.28678 0.40221 0.0
H234 H 0.74621 0.29592 0.11088 0.0
H235 H 0.785 0.31195 0.09197 0.0
H236 H 0.96612 0.43073 0.2868 0.0
H237 H 1.00411 0.44536 0.32211 0.0
H238 H 0.98808 0.42593 0.6072 0.0
H239 H 0.95014 0.41173 0.57214 0.0
C240 C 0.42491 0.8586 0.56521 0.0
Eu241 Eu 0.39527 0.86654 0.6265 0.0
C242 C 0.43435 0.84472 0.58148 0.0
C243 C 0.4238 0.82576 0.63386 0.0
C244 C 0.43334 0.81303 0.64769 0.0
C245 C 0.4536 0.81898 0.60923 0.0
C246 C 0.46406 0.83809 0.55737 0.0
C247 C 0.45455 0.85076 0.54376 0.0
C248 C 0.38799 0.86999 0.80789 0.0
C249 C 0.34862 0.82228 0.65145 0.0
C250 C 0.32731 0.87801 0.75396 0.0
Eu251 Eu 0.35474 0.86963 0.6715 0.0
C252 C 0.32054 0.89425 0.76974 0.0
C253 C 0.31083 0.90005 0.69954 0.0
C254 C 0.30207 0.91323 0.71919 0.0
C255 C 0.30266 0.92089 0.8096 0.0
C256 C 0.31294 0.91555 0.87899 0.0
C257 C 0.32168 0.90238 0.85935 0.0
C258 C 0.36018 0.86464 0.49024 0.0
C259 C 0.40014 0.91348 0.62077 0.0
O260 O 0.4054 0.84956 0.53184 0.0
O261 O 0.42834 0.87296 0.62854 0.0
O262 O 0.407 0.87875 0.77211 0.0
O263 O 0.37411 0.85895 0.74854 0.0
O264 O 0.3684 0.83163 0.61754 0.0
O265 O 0.34056 0.83367 0.68813 0.0
O266 O 0.34517 0.8812 0.79256 0.0
O267 O 0.3241 0.86899 0.67225 0.0
O268 O 0.34154 0.85842 0.52743 0.0
O269 O 0.37495 0.8757 0.54678 0.0
O270 O 0.38147 0.90494 0.665 0.0
O271 O 0.40732 0.90116 0.58603 0.0
H272 H 0.40819 0.82079 0.66371 0.0
H273 H 0.4247 0.79835 0.68725 0.0
H274 H 0.47978 0.84342 0.52792 0.0
H275 H 0.46303 0.86538 0.50356 0.0
H276 H 0.30945 0.89392 0.62987 0.0
H277 H 0.29413 0.91677 0.66403 0.0
H278 H 0.31405 0.92138 0.94905 0.0
H279 H 0.32887 0.89808 0.91517 0.0
C280 C 0.21583 0.59135 0.55307 0.0
Eu281 Eu 0.20678 0.55349 0.61528 0.0
C282 C 0.23001 0.61467 0.56921 0.0
C283 C 0.24989 0.62301 0.61446 0.0
C284 C 0.26302 0.6453 0.62696 0.0
C285 C 0.25656 0.6597 0.59421 0.0
C286 C 0.23651 0.65111 0.54979 0.0
C287 C 0.22345 0.62892 0.53751 0.0
C288 C 0.20346 0.54322 0.79692 0.0
C289 C 0.25039 0.54988 0.63896 0.0
C290 C 0.19376 0.47379 0.745 0.0
Eu291 Eu 0.20273 0.50965 0.66166 0.0
C292 C 0.17732 0.45088 0.76145 0.0
C293 C 0.1712 0.43522 0.69162 0.0
C294 C 0.15786 0.41334 0.71195 0.0
C295 C 0.15038 0.40651 0.8027 0.0
C296 C 0.15604 0.42229 0.87172 0.0
C297 C 0.16935 0.44413 0.85139 0.0
C298 C 0.20695 0.51926 0.47933 0.0
C299 C 0.15935 0.51223 0.61246 0.0
O300 O 0.22462 0.5805 0.52125 0.0
O301 O 0.2011 0.58067 0.6153 0.0
O302 O 0.19478 0.55349 0.76077 0.0
O303 O 0.21434 0.54004 0.73799 0.0
O304 O 0.24133 0.56047 0.60385 0.0
O305 O 0.23874 0.53075 0.67774 0.0
O306 O 0.19085 0.4887 0.78306 0.0
O307 O 0.20276 0.47933 0.66322 0.0
O308 O 0.21333 0.50701 0.51698 0.0
O309 O 0.19652 0.52362 0.53673 0.0
O310 O 0.16766 0.50194 0.6572 0.0
O311 O 0.17192 0.53148 0.57609 0.0
H312 H 0.2553 0.61232 0.63958 0.0
H313 H 0.2784 0.65128 0.6608 0.0
H314 H 0.23077 0.66156 0.52505 0.0
H315 H 0.20814 0.62285 0.50279 0.0
H316 H 0.17719 0.43977 0.62172 0.0
H317 H 0.15407 0.40172 0.65706 0.0
H318 H 0.15036 0.41776 0.94202 0.0
H319 H 0.17391 0.45575 0.90693 0.0
C320 C 0.48185 0.64666 0.56242 0.0
Eu321 Eu 0.51763 0.67864 0.62579 0.0
C322 C 0.45831 0.63769 0.57423 0.0
C323 C 0.44834 0.63118 0.66128 0.0
C324 C 0.42601 0.62195 0.6701 0.0
C325 C 0.41302 0.61903 0.59222 0.0
C326 C 0.42314 0.62584 0.50542 0.0
C327 C 0.44545 0.63498 0.49661 0.0
C328 C 0.52582 0.68773 0.80778 0.0
C329 C 0.52112 0.72433 0.66065 0.0
C330 C 0.59718 0.7484 0.75183 0.0
Eu331 Eu 0.56296 0.71701 0.67378 0.0
C332 C 0.62012 0.75634 0.77192 0.0
C333 C 0.63107 0.7463 0.73632 0.0
C334 C 0.65291 0.75442 0.75703 0.0
C335 C 0.66418 0.77269 0.81402 0.0
C336 C 0.65299 0.78258 0.84915 0.0
C337 C 0.63127 0.77449 0.82842 0.0
C338 C 0.55466 0.70845 0.4916 0.0
C339 C 0.56 0.67259 0.61866 0.0
O340 O 0.49253 0.66515 0.51974 0.0
O341 O 0.49252 0.64501 0.63236 0.0
O342 O 0.50688 0.67986 0.77189 0.0
O343 O 0.53898 0.68836 0.74876 0.0
O344 O 0.50967 0.70507 0.62325 0.0
O345 O 0.54093 0.73141 0.69221 0.0
O346 O 0.58307 0.7312 0.79598 0.0
O347 O 0.59178 0.74868 0.66556 0.0
O348 O 0.57357 0.71549 0.52761 0.0
O349 O 0.54159 0.70765 0.55166 0.0
O350 O 0.57084 0.69038 0.66796 0.0
O351 O 0.54052 0.66649 0.5858 0.0
H352 H 0.45773 0.63299 0.72269 0.0
H353 H 0.41889 0.61672 0.73793 0.0
H354 H 0.41384 0.62425 0.44399 0.0
H355 H 0.45266 0.63985 0.42869 0.0
H356 H 0.62275 0.73221 0.69277 0.0
H357 H 0.66087 0.74623 0.72934 0.0
H358 H 0.66109 0.79685 0.89177 0.0
H359 H 0.62315 0.78252 0.85644 0.0
C360 C 0.07091 0.28372 0.96136 0.0
C361 C 0.07863 0.27019 0.93191 0.0
C362 C 0.08212 0.30589 0.9416 0.0
C363 C 0.10163 0.31491 0.89121 0.0
C364 C 0.1096 0.30138 0.86193 0.0
C365 C 0.09805 0.27928 0.88251 0.0
C366 C 0.07302 0.31965 0.97427 0.0
C367 C 0.13032 0.31026 0.80829 0.0
C368 C 0.12165 0.3684 0.76532 0.0
C369 C 0.13745 0.38306 0.82609 0.0
C370 C 0.1098 0.34629 0.78588 0.0
C371 C 0.11376 0.33848 0.8693 0.0
C372 C 0.12958 0.35319 0.93116 0.0
C373 C 0.14119 0.37519 0.90888 0.0
C374 C 0.09306 0.33124 0.71801 0.0
C375 C 0.13444 0.34563 0.02061 0.0
H376 H 0.05594 0.27697 -0.00059 0.0
H377 H 0.10424 0.26909 0.85923 0.0
H378 H 0.08474 0.33265 0.0199 0.0
H379 H 0.0701 0.32744 0.91415 0.0
H380 H 0.05772 0.31025 0.01275 0.0
H381 H 0.13445 0.2977 0.791 0.0
H382 H 0.12908 0.31768 0.74302 0.0
H383 H 0.14367 0.32304 0.849 0.0
H384 H 0.1184 0.37423 0.70174 0.0
H385 H 0.15356 0.38621 0.95579 0.0
H386 H 0.07717 0.32251 0.75246 0.0
H387 H 0.0971 0.31903 0.69387 0.0
H388 H 0.0917 0.33981 0.65677 0.0
H389 H 0.11963 0.33699 0.0628 0.0
H390 H 0.14687 0.35911 0.06228 0.0
H391 H 0.1401 0.33415 0.00566 0.0
C392 C 0.78765 0.81154 0.95266 0.0
C393 C 0.80055 0.83365 0.9357 0.0
C394 C 0.76544 0.80062 0.93359 0.0
C395 C 0.75574 0.81206 0.8974 0.0
C396 C 0.76865 0.83441 0.88106 0.0
C397 C 0.79081 0.84487 0.89996 0.0
C398 C 0.75238 0.77679 0.95152 0.0
C399 C 0.75904 0.84734 0.84343 0.0
C400 C 0.70208 0.78274 0.7689 0.0
C401 C 0.68751 0.78165 0.83648 0.0
C402 C 0.72419 0.79217 0.7882 0.0
C403 C 0.73209 0.8008 0.87729 0.0
C404 C 0.71743 0.79936 0.94629 0.0
C405 C 0.69543 0.7898 0.92522 0.0
C406 C 0.73919 0.79331 0.71251 0.0
C407 C 0.72505 0.80827 0.04221 0.0
H408 H 0.79493 0.80263 0.97977 0.0
H409 H 0.80053 0.86194 0.88669 0.0
H410 H 0.73936 0.77337 0.00155 0.0
H411 H 0.74464 0.76821 0.88642 0.0
H412 H 0.76228 0.77017 0.97934 0.0
H413 H 0.77118 0.8646 0.83506 0.0
H414 H 0.75147 0.84084 0.77525 0.0
H415 H 0.74625 0.846 0.89054 0.0
H416 H 0.69629 0.77673 0.69989 0.0
H417 H 0.68436 0.78873 0.97867 0.0
H418 H 0.74879 0.78604 0.7365 0.0
H419 H 0.75063 0.81034 0.69543 0.0
H420 H 0.73047 0.78493 0.64846 0.0
H421 H 0.73393 0.80089 0.07333 0.0
H422 H 0.71159 0.80537 0.0889 0.0
H423 H 0.73634 0.82582 0.03823 0.0
C424 C 0.25875 1.00011 0.96498 0.0
C425 C 0.23743 0.9922 0.93623 0.0
C426 C 0.26976 0.98894 0.9454 0.0
C427 C 0.25927 0.96928 0.89589 0.0
C428 C 0.23772 0.96114 0.86726 0.0
C429 C 0.22711 0.97265 0.88765 0.0
C430 C 0.29269 0.99824 0.97734 0.0
C431 C 0.22587 0.94026 0.81453 0.0
C432 C 0.29285 0.94925 0.77073 0.0
C433 C 0.29194 0.93368 0.83227 0.0
C434 C 0.28245 0.961 0.79072 0.0
C435 C 0.27077 0.95719 0.87434 0.0
C436 C 0.26987 0.94159 0.93691 0.0
C437 C 0.2804 0.93007 0.91519 0.0
C438 C 0.28392 0.9775 0.72208 0.0
C439 C 0.25756 0.93689 0.02661 0.0
H440 H 0.26698 1.01519 0.00237 0.0
H441 H 0.21068 0.96632 0.86489 0.0
H442 H 0.2941 0.98668 0.02344 0.0
H443 H 0.3033 1.00104 0.91695 0.0
H444 H 0.29859 1.01365 0.01512 0.0
H445 H 0.20914 0.93601 0.7976 0.0
H446 H 0.23445 0.94137 0.74913 0.0
H447 H 0.22543 0.92703 0.85575 0.0
H448 H 0.30189 0.95241 0.70703 0.0
H449 H 0.27922 0.91788 0.9627 0.0
H450 H 0.29108 0.9935 0.7557 0.0
H451 H 0.26761 0.97331 0.69842 0.0
H452 H 0.29374 0.97872 0.66059 0.0
H453 H 0.26372 0.9518 0.06823 0.0
H454 H 0.25872 0.92459 0.06872 0.0
H455 H 0.24039 0.93112 0.01201 0.0
C456 C 0.45516 0.14619 0.29629 0.0
C457 C 0.46852 0.16739 0.26601 0.0
C458 C 0.43296 0.13511 0.27731 0.0
C459 C 0.42375 0.14541 0.22692 0.0
C460 C 0.43712 0.16686 0.19686 0.0
C461 C 0.45925 0.17754 0.21664 0.0
C462 C 0.41937 0.11229 0.31077 0.0
C463 C 0.42804 0.17852 0.1432 0.0
C464 C 0.37009 0.11148 0.10296 0.0
C465 C 0.35551 0.11265 0.16407 0.0
C466 C 0.39224 0.12187 0.12279 0.0
C467 C 0.40016 0.13383 0.20579 0.0
C468 C 0.38553 0.13499 0.26797 0.0
C469 C 0.36349 0.12445 0.24643 0.0
C470 C 0.40719 0.12013 0.0546 0.0
C471 C 0.39321 0.1476 0.35699 0.0
H472 H 0.46205 0.1381 0.33432 0.0
H473 H 0.46932 0.19388 0.19274 0.0
H474 H 0.40644 0.11105 0.35669 0.0
H475 H 0.41151 0.10144 0.25104 0.0
H476 H 0.4289 0.10654 0.3492 0.0
H477 H 0.44049 0.1952 0.12534 0.0
H478 H 0.42053 0.16971 0.07826 0.0
H479 H 0.41529 0.17909 0.18417 0.0
H480 H 0.36417 0.10224 0.03971 0.0
H481 H 0.35253 0.12583 0.29358 0.0
H482 H 0.41606 0.11311 0.08898 0.0
H483 H 0.41928 0.13635 0.02986 0.0
H484 H 0.39854 0.11005 -0.00625 0.0
H485 H 0.402 0.14159 0.39911 0.0
H486 H 0.37979 0.14658 0.39898 0.0
H487 H 0.40459 0.16474 0.34143 0.0
C488 C 0.89487 0.30824 0.21691 0.0
C489 C 0.90513 0.32777 0.26568 0.0
C490 C 0.90548 0.2967 0.19714 0.0
C491 C 0.92696 0.30479 0.22661 0.0
C492 C 0.93738 0.32441 0.27639 0.0
C493 C 0.92637 0.33563 0.29534 0.0
C494 C 0.8937 0.27586 0.14412 0.0
C495 C 0.96024 0.33365 0.30922 0.0
C496 C 0.94768 0.26525 0.24598 0.0
C497 C 0.95925 0.26881 0.16314 0.0
C498 C 0.93734 0.27694 0.26781 0.0
C499 C 0.93845 0.29266 0.20544 0.0
C500 C 0.9502 0.29647 0.12202 0.0
C501 C 0.96041 0.28453 0.10192 0.0
C502 C 0.92495 0.27224 0.35727 0.0
C503 C 0.95189 0.3131 0.05359 0.0
H504 H 0.8785 0.30195 0.19344 0.0
H505 H 0.93453 0.35068 0.33291 0.0
H506 H 0.90238 0.277 0.07901 0.0
H507 H 0.89316 0.26259 0.1854 0.0
H508 H 0.877 0.27163 0.12662 0.0
H509 H 0.96608 0.34902 0.34724 0.0
H510 H 0.96153 0.32203 0.35534 0.0
H511 H 0.97096 0.3365 0.24923 0.0
H512 H 0.94631 0.25293 0.29327 0.0
H513 H 0.96947 0.28766 0.0383 0.0
H514 H 0.90779 0.26647 0.34229 0.0
H515 H 0.93106 0.28714 0.39888 0.0
H516 H 0.92605 0.25993 0.39953 0.0
H517 H 0.93566 0.30897 0.02916 0.0
H518 H 0.96187 0.31439 -0.00745 0.0
H519 H 0.95899 0.32904 0.08763 0.0
C520 C 0.78995 0.703 0.09453 0.0
C521 C 0.80357 0.71751 0.16198 0.0
C522 C 0.77746 0.68082 0.1132 0.0
C523 C 0.77856 0.6728 0.20144 0.0
C524 C 0.79189 0.6874 0.27039 0.0
C525 C 0.80411 0.70947 0.25004 0.0
C526 C 0.76341 0.66589 0.0377 0.0
C527 C 0.79359 0.67967 0.36542 0.0
C528 C 0.73443 0.61706 0.27843 0.0
C529 C 0.74374 0.6043 0.26005 0.0
C530 C 0.74543 0.63925 0.25898 0.0
C531 C 0.76639 0.6491 0.22089 0.0
C532 C 0.77592 0.63633 0.20274 0.0
C533 C 0.76449 0.61417 0.22213 0.0
C534 C 0.73457 0.65216 0.27892 0.0
C535 C 0.79827 0.64611 0.16304 0.0
H536 H 0.78949 0.70888 0.02605 0.0
H537 H 0.81419 0.72048 0.30347 0.0
H538 H 0.7691 0.6546 0.01876 0.0
H539 H 0.74666 0.65609 0.06275 0.0
H540 H 0.76342 0.67469 0.97453 0.0
H541 H 0.80425 0.69309 0.41216 0.0
H542 H 0.77747 0.67063 0.39758 0.0
H543 H 0.79996 0.66849 0.35966 0.0
H544 H 0.71839 0.60969 0.30725 0.0
H545 H 0.77193 0.60457 0.20771 0.0
H546 H 0.73348 0.65996 0.21454 0.0
H547 H 0.74424 0.66513 0.32911 0.0
H548 H 0.71815 0.64212 0.30751 0.0
H549 H 0.79901 0.65378 0.0955 0.0
H550 H 0.80343 0.63405 0.15276 0.0
H551 H 0.80989 0.65887 0.2099 0.0
C552 C 0.12663 0.51141 0.54521 0.0
C553 C 0.13571 0.50112 0.59493 0.0
C554 C 0.10451 0.50092 0.52517 0.0
C555 C 0.09095 0.47952 0.5553 0.0
C556 C 0.09996 0.46907 0.60604 0.0
C557 C 0.12214 0.47996 0.62528 0.0
C558 C 0.09565 0.51274 0.47116 0.0
C559 C 0.08616 0.44629 0.63957 0.0
C560 C 0.03075 0.45913 0.57358 0.0
C561 C 1.02276 0.4474 0.49109 0.0
C562 C 0.05277 0.46946 0.59558 0.0
C563 C 0.06736 0.46813 0.53378 0.0
C564 C 0.05942 0.4562 0.45073 0.0
C565 C 0.03731 0.44603 0.43041 0.0
C566 C 0.06046 0.48206 0.68463 0.0
C567 C 0.07433 0.45425 0.38295 0.0
H568 H 0.13685 0.52773 0.52125 0.0
H569 H 0.12888 0.47176 0.66359 0.0
H570 H 0.08815 0.50396 0.40617 0.0
H571 H 0.08295 0.51346 0.51184 0.0
H572 H 0.10823 0.52938 0.45336 0.0
H573 H 0.09554 0.44041 0.67831 0.0
H574 H 0.07325 0.4452 0.68521 0.0
H575 H 0.07827 0.43545 0.57985 0.0
H576 H 1.01982 0.46066 0.62043 0.0
H577 H 0.03138 0.43683 0.36706 0.0
H578 H 0.07197 0.49917 0.66912 0.0
H579 H 0.0691 0.47593 0.72701 0.0
H580 H 0.04707 0.48117 0.72634 0.0
H581 H 0.08654 0.47042 0.35816 0.0
H582 H 0.06567 0.44418 0.3221 0.0
H583 H 0.08306 0.44713 0.4177 0.0
C584 C 0.56142 0.64305 0.53029 0.0
C585 C 0.57047 0.65969 0.59593 0.0
C586 C 0.57148 0.63118 0.50649 0.0
C587 C 0.59105 0.63586 0.54972 0.0
C588 C 0.60024 0.65259 0.61615 0.0
C589 C 0.58993 0.66432 0.63809 0.0
C590 C 0.56116 0.61361 0.43487 0.0
C591 C 0.62096 0.65806 0.66455 0.0
C592 C 0.60606 0.59187 0.5549 0.0
C593 C 0.62131 0.59814 0.48353 0.0
C594 C 0.59623 0.604 0.57722 0.0
C595 C 0.60164 0.62295 0.52701 0.0
C596 C 0.61713 0.6295 0.45532 0.0
C597 C 0.62682 0.61709 0.43471 0.0
C598 C 0.57999 0.59648 0.65473 0.0
C599 C 0.62332 0.64952 0.39968 0.0
H600 H 0.54651 0.63939 0.4966 0.0
H601 H 0.59714 0.67711 0.68884 0.0
H602 H 0.57253 0.61673 0.37717 0.0
H603 H 0.55728 0.59797 0.46593 0.0
H604 H 0.54621 0.61223 0.40611 0.0
H605 H 0.62613 0.67161 0.71398 0.0
H606 H 0.61903 0.64384 0.70291 0.0
H607 H 0.63389 0.66239 0.6129 0.0
H608 H 0.60192 0.57748 0.59421 0.0
H609 H 0.63841 0.62201 0.37898 0.0
H610 H 0.5643 0.59355 0.62795 0.0
H611 H 0.58524 0.60914 0.70854 0.0
H612 H 0.57765 0.5815 0.68765 0.0
H613 H 0.60895 0.6481 0.36457 0.0
H614 H 0.63568 0.65252 0.34657 0.0
H615 H 0.62961 0.66366 0.44624 0.0
C616 C 0.47432 0.04212 0.57957 0.0
C617 C 0.47062 0.04996 0.49662 0.0
C618 C 0.46274 0.02012 0.6019 0.0
C619 C 0.44698 1.00539 0.53992 0.0
C620 C 0.44302 1.01316 0.45639 0.0
C621 C 0.45485 0.03527 0.43579 0.0
C622 C 0.46759 1.0126 0.69145 0.0
C623 C 0.42635 0.99808 0.38839 0.0
C624 C 0.43176 0.94634 0.55301 0.0
C625 C 0.41233 0.9371 0.60232 0.0
C626 C 0.44314 0.96844 0.53241 0.0
C627 C 0.43498 0.98181 0.56162 0.0
C628 C 0.41544 0.97263 0.61183 0.0
C629 C 0.40439 0.95046 0.6316 0.0
C630 C 0.4639 0.97748 0.47892 0.0
C631 C 0.40614 0.98623 0.64439 0.0
H632 H 0.48667 0.05316 0.62654 0.0
H633 H 0.45162 0.04109 0.37209 0.0
H634 H 0.45275 1.00383 0.73335 0.0
H635 H 0.4734 1.00123 0.67662 0.0
H636 H 0.4799 0.0261 0.73338 0.0
H637 H 0.42493 1.00664 0.32724 0.0
H638 H 0.43052 0.98597 0.36409 0.0
H639 H 0.41047 0.98923 0.42275 0.0
H640 H 0.43811 0.93628 0.52987 0.0
H641 H 0.38941 0.94358 0.66956 0.0
H642 H 0.47718 0.9903 0.51983 0.0
H643 H 0.46262 0.98492 0.41375 0.0
H644 H 0.46815 0.96502 0.46149 0.0
H645 H 0.41777 0.99924 0.69027 0.0
H646 H 0.39082 0.97672 0.6826 0.0
H647 H 0.40321 0.994 0.58426 0.0
C648 C 0.15695 0.0629 0.94593 0.0
C649 C 0.17762 0.07109 0.98343 0.0
C650 C 0.147 0.07547 0.941 0.0
C651 C 0.15791 0.09689 0.9742 0.0
C652 C 0.17869 0.10522 0.013 0.0
C653 C 0.18827 0.09225 0.01717 0.0
C654 C 0.12486 0.06587 0.89918 0.0
C655 C 0.1909 0.12793 0.04926 0.0
C656 C 0.1407 0.13537 0.87704 0.0
C657 C 0.12735 0.13569 0.94736 0.0
C658 C 0.15086 0.12304 0.88533 0.0
C659 C 0.14774 0.11066 0.9661 0.0
C660 C 0.13449 0.11105 0.03782 0.0
C661 C 0.12447 0.12351 0.02762 0.0
C662 C 0.16486 0.12318 0.80717 0.0
C663 C 0.13066 0.09808 0.12501 0.0
H664 H 0.14847 0.0466 0.91964 0.0
H665 H 0.20421 0.09881 0.0463 0.0
H666 H 0.11367 0.06682 0.9493 0.0
H667 H 0.12537 0.07519 0.83713 0.0
H668 H 0.11828 0.04882 0.87867 0.0
H669 H 0.20666 0.13188 0.0794 0.0
H670 H 0.19367 0.1394 -0.00757 0.0
H671 H 0.18132 0.13038 0.10305 0.0
H672 H 0.14342 0.14499 0.81545 0.0
H673 H 0.11405 0.12339 0.08206 0.0
H674 H 0.15839 0.10667 0.77956 0.0
H675 H 0.18129 0.12853 0.83307 0.0
H676 H 0.16593 0.13388 0.74954 0.0
H677 H 0.12271 0.08074 0.10766 0.0
H678 H 0.1205 0.1006 0.17558 0.0
H679 H 0.1462 0.10243 0.15844 0.0
C680 C 0.93585 0.03066 0.86357 0.0
C681 C 0.93465 0.01673 0.93448 0.0
C682 C 0.94848 0.05311 0.8729 0.0
C683 C 0.96037 0.06208 0.95513 0.0
C684 C 0.95936 0.04815 0.02686 0.0
C685 C 0.94657 0.02572 0.0157 0.0
C686 C 0.94914 0.06726 0.79433 0.0
C687 C 0.97176 0.05697 0.11566 0.0
C688 C 1.0082 0.1191 0.94029 0.0
C689 C 0.99975 0.13152 0.97619 0.0
C690 C 0.99572 0.09658 0.93448 0.0
C691 C 0.97412 0.086 0.96505 0.0
C692 C 0.96553 0.09837 0.00238 0.0
C693 C 0.97841 0.12092 0.00757 0.0
C694 C 1.00561 0.08411 0.89443 0.0
C695 C 0.9426 0.08779 0.03574 0.0
H696 H 0.92705 0.02399 0.79987 0.0
H697 H 0.94562 1.01521 0.07145 0.0
H698 H 0.94386 0.0785 0.81911 0.0
H699 H 0.96584 0.07713 0.76886 0.0
H700 H 0.93875 0.05785 0.73545 0.0
H701 H 0.96929 0.04407 0.16488 0.0
H702 H 0.98916 0.06685 0.10044 0.0
H703 H 0.96679 0.06762 0.14977 0.0
H704 H 0.02465 0.12699 0.91596 0.0
H705 H 0.97165 0.13025 0.03548 0.0
H706 H 0.99677 0.07549 0.83113 0.0
H707 H 1.00427 0.07183 0.94459 0.0
H708 H 1.0228 0.09463 0.87638 0.0
H709 H 0.93152 0.07934 0.97738 0.0
H710 H 0.93849 0.09953 0.06557 0.0
H711 H 0.93977 0.07555 0.08902 0.0
C712 C 0.95185 0.91655 0.94405 0.0
C713 C 0.93951 0.89551 0.97811 0.0
C714 C 0.97438 0.92671 0.93868 0.0
C715 C 0.98504 0.91565 0.96786 0.0
C716 C 0.97273 0.89452 0.00329 0.0
C717 C 0.95019 0.88473 0.00803 0.0
C718 C 0.98678 0.94925 0.90061 0.0
C719 C 0.98338 0.88212 0.03531 0.0
C720 C 0.0408 0.9336 0.86922 0.0
C721 C 0.05441 0.94612 0.94145 0.0
C722 C 1.01831 0.92361 0.87703 0.0
C723 C 1.00899 0.92603 0.95927 0.0
C724 C 1.02258 0.93857 0.03262 0.0
C725 C 0.04504 0.94844 0.02284 0.0
C726 C 1.0045 0.9104 0.79706 0.0
C727 C 1.01339 0.94164 0.12144 0.0
H728 H 0.9439 0.92514 0.92083 0.0
H729 H 0.94093 0.8685 0.03445 0.0
H730 H 0.99895 0.96001 0.9516 0.0
H731 H 0.99551 0.94936 0.83714 0.0
H732 H 0.97621 0.95592 0.88344 0.0
H733 H 0.97167 0.86606 0.0632 0.0
H734 H 0.99211 0.87995 0.9768 0.0
H735 H 0.9954 0.89128 0.0898 0.0
H736 H 0.04771 0.93131 0.80663 0.0
H737 H 0.0553 0.95825 0.07877 0.0
H738 H 0.99434 0.91702 0.77274 0.0
H739 H 0.99354 0.89367 0.81996 0.0
H740 H 1.01417 0.91006 0.73784 0.0
H741 H 1.00384 0.94954 0.10667 0.0
H742 H 0.02605 0.95154 0.17258 0.0
H743 H 1.00236 0.92581 0.15304 0.0
C744 C 0.78888 0.4562 0.34488 0.0
C745 C 0.79494 0.47134 0.27322 0.0
C746 C 0.79848 0.44334 0.35483 0.0
C747 C 0.81452 0.44553 0.29148 0.0
C748 C 0.82064 0.46071 0.21889 0.0
C749 C 0.81082 0.47337 0.21069 0.0
C750 C 0.79149 0.42742 0.4334 0.0
C751 C 0.8375 0.46351 0.14924 0.0
C752 C 0.85353 0.42592 0.35527 0.0
C753 C 0.84457 0.40607 0.30921 0.0
C754 C 0.84376 0.43873 0.35146 0.0
C755 C 0.82463 0.43169 0.29972 0.0
C756 C 0.81547 0.41163 0.25357 0.0
C757 C 0.82545 0.39909 0.25911 0.0
C758 C 0.85403 0.45991 0.40228 0.0
C759 C 0.7952 0.4035 0.1971 0.0
H760 H 0.77684 0.45461 0.39427 0.0
H761 H 0.81543 0.48472 0.15413 0.0
H762 H 0.78503 0.41094 0.40558 0.0
H763 H 0.8055 0.4309 0.47743 0.0
H764 H 0.77901 0.42778 0.47738 0.0
H765 H 0.84066 0.47617 0.09748 0.0
H766 H 0.85274 0.46779 0.18519 0.0
H767 H 0.83229 0.44816 0.11217 0.0
H768 H 0.86822 0.4315 0.39445 0.0
H769 H 0.81834 0.38385 0.22292 0.0
H770 H 0.84232 0.46039 0.45079 0.0
H771 H 0.85879 0.47324 0.35226 0.0
H772 H 0.86845 0.4628 0.44201 0.0
H773 H 0.78209 0.40255 0.24084 0.0
H774 H 0.78985 0.38739 0.16677 0.0
H775 H 0.79787 0.41489 0.14006 0.0
C776 C 0.64679 0.4547 0.34351 0.0
C777 C 0.6679 0.46546 0.30935 0.0
C778 C 0.63409 0.43214 0.33926 0.0
C779 C 0.64262 0.41991 0.29997 0.0
C780 C 0.664 0.43065 0.26655 0.0
C781 C 0.67632 0.4532 0.27153 0.0
C782 C 0.61141 0.4214 0.37585 0.0
C783 C 0.67381 0.41832 0.22428 0.0
C784 C 0.61627 0.35986 0.35294 0.0
C785 C 0.6039 0.35052 0.27307 0.0
C786 C 0.62878 0.38233 0.36298 0.0
C787 C 0.62905 0.39595 0.29147 0.0
C788 C 0.61655 0.38665 0.21094 0.0
C789 C 0.60416 0.36416 0.20283 0.0
C790 C 0.64186 0.39151 0.44993 0.0
C791 C 0.61629 0.4005 0.13303 0.0
H792 H 0.64006 0.46392 0.37292 0.0
H793 H 0.69259 0.46122 0.24496 0.0
H794 H 0.59993 0.41267 0.31903 0.0
H795 H 0.60915 0.40936 0.42922 0.0
H796 H 0.60732 0.43307 0.40661 0.0
H797 H 0.69086 0.42895 0.20432 0.0
H798 H 0.67292 0.40613 0.27384 0.0
H799 H 0.66461 0.4096 0.16179 0.0
H800 H 0.61645 0.34957 0.40728 0.0
H801 H 0.59441 0.35725 0.14155 0.0
H802 H 0.63737 0.40253 0.48413 0.0
H803 H 0.65915 0.40109 0.43218 0.0
H804 H 0.63959 0.37883 0.50001 0.0
H805 H 0.61075 0.41142 0.15913 0.0
H806 H 0.60566 0.39083 0.07518 0.0
H807 H 0.63277 0.41069 0.10566 0.0
C808 C 0.61798 0.21725 0.34173 0.0
C809 C 0.60722 0.22743 0.30579 0.0
C810 C 0.64053 0.22703 0.33707 0.0
C811 C 0.65273 0.24752 0.2954 0.0
C812 C 0.64197 0.25794 0.25971 0.0
C813 C 0.61945 0.24782 0.26532 0.0
C814 C 0.65132 0.21536 0.3762 0.0
C815 C 0.65424 0.27976 0.21467 0.0
C816 C 0.7127 0.28217 0.34727 0.0
C817 C 0.72211 0.27879 0.26849 0.0
C818 C 0.69023 0.27192 0.35753 0.0
C819 C 0.67667 0.25794 0.2873 0.0
C820 C 0.68604 0.25435 0.20795 0.0
C821 C 0.70854 0.26473 0.19965 0.0
C822 C 0.68098 0.27625 0.44323 0.0
C823 C 0.67227 0.2396 0.13135 0.0
H824 H 0.60879 0.20154 0.37323 0.0
H825 H 0.61144 0.25594 0.23728 0.0
H826 H 0.66013 0.21235 0.32059 0.0
H827 H 0.66328 0.22545 0.42931 0.0
H828 H 0.63967 0.19975 0.40806 0.0
H829 H 0.64357 0.28592 0.19189 0.0
H830 H 0.66627 0.29147 0.26366 0.0
H831 H 0.66312 0.27889 0.15359 0.0
H832 H 0.72291 0.29314 0.40052 0.0
H833 H 0.7155 0.26161 0.13928 0.0
H834 H 0.66998 0.26092 0.47859 0.0
H835 H 0.67139 0.28384 0.42368 0.0
H836 H 0.69362 0.28694 0.49292 0.0
H837 H 0.66142 0.22332 0.15936 0.0
H838 H 0.68197 0.23827 0.07466 0.0
H839 H 0.662 0.2456 0.10186 0.0
C840 C 0.48982 0.73021 0.63805 0.0
C841 C 0.51144 0.73851 0.66306 0.0
C842 C 0.48049 0.74334 0.63414 0.0
C843 C 0.49301 0.76548 0.65548 0.0
C844 C 0.51471 0.77392 0.68278 0.0
C845 C 0.52365 0.76036 0.68644 0.0
C846 C 0.45729 0.73356 0.60513 0.0
C847 C 0.52864 0.79741 0.70606 0.0
C848 C 0.47475 0.80223 0.54843 0.0
C849 C 0.46381 0.80537 0.62199 0.0
C850 C 0.48458 0.78966 0.55895 0.0
C851 C 0.48353 0.77982 0.64522 0.0
C852 C 0.47261 0.78296 0.71997 0.0
C853 C 0.46288 0.79563 0.70747 0.0
C854 C 0.49587 0.78665 0.47709 0.0
C855 C 0.47108 0.77281 0.81309 0.0
H856 H 0.48009 0.71337 0.62036 0.0
H857 H 0.54033 0.76699 0.7058 0.0
H858 H 0.44814 0.73681 0.65823 0.0
H859 H 0.45624 0.74102 0.53964 0.0
H860 H 0.44947 0.71592 0.59461 0.0
H861 H 0.54484 0.80131 0.73044 0.0
H862 H 0.53049 0.80728 0.64405 0.0
H863 H 0.52089 0.8021 0.7605 0.0
H864 H 0.47533 0.80936 0.48166 0.0
H865 H 0.45474 0.79812 0.76517 0.0
H866 H 0.48784 0.7694 0.45788 0.0
H867 H 0.5127 0.79167 0.49551 0.0
H868 H 0.49596 0.79598 0.4157 0.0
H869 H 0.46244 0.75506 0.80609 0.0
H870 H 0.46257 0.77726 0.86498 0.0
H871 H 0.48739 0.77777 0.83954 0.0
C872 C 0.27234 0.69751 0.53352 0.0
C873 C 0.27058 0.68354 0.60532 0.0
C874 C 0.285 0.71995 0.54312 0.0
C875 C 0.29635 0.72886 0.62659 0.0
C876 C 0.29478 0.71489 0.69921 0.0
C877 C 0.28198 0.69247 0.68771 0.0
C878 C 0.28627 0.73415 0.46358 0.0
C879 C 0.30655 0.72366 0.78938 0.0
C880 C 0.34417 0.78599 0.61545 0.0
C881 C 0.33537 0.79832 0.64875 0.0
C882 C 0.3318 0.76345 0.60947 0.0
C883 C 0.30998 0.75278 0.63713 0.0
C884 C 0.30107 0.76507 0.67198 0.0
C885 C 0.31383 0.78762 0.67747 0.0
C886 C 0.34204 0.75107 0.57221 0.0
C887 C 0.2779 0.75441 0.70216 0.0
H888 H 0.26394 0.69088 0.46896 0.0
H889 H 0.28059 0.68192 0.74408 0.0
H890 H 0.28078 0.74535 0.48645 0.0
H891 H 0.30317 0.74405 0.44046 0.0
H892 H 0.27636 0.72477 0.40355 0.0
H893 H 0.30377 0.71073 0.83901 0.0
H894 H 0.32405 0.73358 0.77633 0.0
H895 H 0.30131 0.73426 0.82197 0.0
H896 H 0.36078 0.79395 0.59329 0.0
H897 H 0.3068 0.79689 0.70331 0.0
H898 H 0.33376 0.74255 0.5078 0.0
H899 H 0.34028 0.7387 0.62286 0.0
H900 H 0.35938 0.76163 0.55683 0.0
H901 H 0.26726 0.74602 0.64249 0.0
H902 H 0.27355 0.76609 0.73058 0.0
H903 H 0.2747 0.74211 0.75567 0.0
C904 C 0.37977 0.61291 0.67829 0.0
C905 C 0.38907 0.60875 0.60121 0.0
C906 C 0.35732 0.60333 0.68744 0.0
C907 C 0.34366 0.58927 0.61769 0.0
C908 C 0.35291 0.58496 0.53983 0.0
C909 C 0.37539 0.59466 0.53271 0.0
C910 C 0.34821 0.6084 0.77161 0.0
C911 C 0.33903 0.57011 0.46372 0.0
C912 C 0.28473 0.5497 0.6731 0.0
C913 C 0.27429 0.56006 0.63559 0.0
C914 C 0.30723 0.55906 0.66857 0.0
C915 C 0.31974 0.5793 0.62527 0.0
C916 C 0.30931 0.58991 0.58791 0.0
C917 C 0.28682 0.58022 0.59357 0.0
C918 C 0.31764 0.54721 0.7097 0.0
C919 C 0.32192 0.61147 0.54106 0.0
H920 H 0.39005 0.62396 0.73117 0.0
H921 H 0.38224 0.59095 0.47361 0.0
H922 H 0.3389 0.61616 0.75013 0.0
H923 H 0.33698 0.59335 0.80825 0.0
H924 H 0.3609 0.61921 0.82084 0.0
H925 H 0.34864 0.56838 0.40773 0.0
H926 H 0.32794 0.55398 0.49257 0.0
H927 H 0.32901 0.57628 0.43312 0.0
H928 H 0.27531 0.53417 0.70586 0.0
H929 H 0.27905 0.58847 0.56432 0.0
H930 H 0.32966 0.55739 0.76245 0.0
H931 H 0.32632 0.54375 0.65503 0.0
H932 H 0.30578 0.53183 0.74254 0.0
H933 H 0.33408 0.62328 0.58936 0.0
H934 H 0.3115 0.61782 0.51695 0.0
H935 H 0.33068 0.61011 0.48063 0.0
C936 C 1.01757 0.20518 0.65896 0.0
C937 C 0.02911 0.1993 0.71838 0.0
C938 C 1.02142 0.20683 0.5633 0.0
C939 C 0.03648 0.20157 0.5267 0.0
C940 C 0.04784 0.19522 0.58674 0.0
C941 C 0.04433 0.19464 0.68226 0.0
C942 C 1.00963 0.21447 0.50169 0.0
C943 C 0.06344 0.18872 0.55011 0.0
C944 C 0.0309 0.18498 0.27487 0.0
C945 C 0.04846 0.20291 0.23527 0.0
C946 C 0.02683 0.18431 0.36995 0.0
C947 C 0.04017 0.20236 0.4255 0.0
C948 C 0.05747 0.22084 0.38488 0.0
C949 C 0.06169 0.22072 0.29018 0.0
C950 C 1.0087 0.16405 0.41131 0.0
C951 C 0.07152 0.24068 0.44142 0.0
H952 H 1.00597 0.20904 0.6876 0.0
H953 H 0.05311 0.19004 0.72855 0.0
H954 H 1.02131 0.22862 0.46107 0.0
H955 H 0.99947 0.20173 0.45149 0.0
H956 H 0.99925 0.21894 0.54171 0.0
H957 H 0.07026 0.18332 0.60598 0.0
H958 H 0.05528 0.1755 0.49915 0.0
H959 H 0.07684 0.20241 0.51354 0.0
H960 H 1.02076 0.17119 0.23195 0.0
H961 H 0.07513 0.23464 0.25876 0.0
H962 H 0.99705 0.16757 0.44594 0.0
H963 H 1.01511 0.15769 0.46487 0.0
H964 H 1.00002 0.15135 0.35851 0.0
H965 H 0.06146 0.24581 0.47971 0.0
H966 H 0.08317 0.25425 0.39788 0.0
H967 H 0.08059 0.23706 0.49352 0.0
C968 C 0.8848 0.85284 0.65687 0.0
C969 C 0.87392 0.85918 0.71815 0.0
C970 C 0.88454 0.85611 0.56129 0.0
C971 C 0.87314 0.86595 0.52674 0.0
C972 C 0.86253 0.87282 0.58871 0.0
C973 C 0.86307 0.86936 0.68385 0.0
C974 C 0.89612 0.84868 0.4972 0.0
C975 C 0.85027 0.88344 0.5544 0.0
C976 C 0.88576 0.88995 0.28557 0.0
C977 C 0.86894 0.87376 0.23456 0.0
C978 C 0.88741 0.8876 0.38103 0.0
C979 C 0.87184 0.8686 0.42555 0.0
C980 C 0.85486 0.85217 0.37352 0.0
C981 C 0.85361 0.85499 0.27819 0.0
C982 C 0.90572 0.90543 0.43423 0.0
C983 C 0.83801 0.83168 0.41859 0.0
H984 H 0.89326 0.84504 0.68347 0.0
H985 H 0.85472 0.87436 0.73131 0.0
H986 H 0.88445 0.83616 0.44964 0.0
H987 H 0.90778 0.86225 0.45385 0.0
H988 H 0.90484 0.84197 0.5354 0.0
H989 H 0.8435 0.88846 0.61195 0.0
H990 H 0.86093 0.89778 0.51233 0.0
H991 H 0.83692 0.87219 0.50896 0.0
H992 H 0.89758 0.90442 0.25064 0.0
H993 H 0.84067 0.84256 0.23766 0.0
H994 H 0.91527 0.89921 0.46894 0.0
H995 H 0.89933 0.9115 0.48916 0.0
H996 H 0.91655 0.91908 0.38899 0.0
H997 H 0.84572 0.82348 0.45305 0.0
H998 H 0.82603 0.82041 0.36803 0.0
H999 H 0.82947 0.83544 0.47284 0.0
C1000 C 0.19522 0.0351 0.68323 0.0
C1001 C 0.21519 0.04164 0.72352 0.0
C1002 C 0.19224 0.03136 0.58768 0.0
C1003 C 0.20962 0.03393 0.53221 0.0
C1004 C 0.22983 0.04045 0.57335 0.0
C1005 C 0.23241 0.04439 0.66887 0.0
C1006 C 0.17054 0.02472 0.54609 0.0
C1007 C 0.24863 0.04304 0.51668 0.0
C1008 C 0.1957 1.00501 0.30097 0.0
C1009 C 0.19965 0.0217 0.23997 0.0
C1010 C 0.19921 1.00883 0.39633 0.0
C1011 C 0.20663 0.0298 0.43113 0.0
C1012 C 0.21085 0.04676 0.36951 0.0
C1013 C 0.20741 0.04252 0.27445 0.0
C1014 C 0.19482 0.99041 0.45991 0.0
C1015 C 0.21864 0.0693 0.40413 0.0
H1016 H 0.18201 0.03309 0.72643 0.0
H1017 H 0.2478 0.04933 0.70121 0.0
H1018 H 0.17217 0.0364 0.49206 0.0
H1019 H 0.164 1.00883 0.51201 0.0
H1020 H 0.15881 0.02372 0.59872 0.0
H1021 H 0.2632 0.04804 0.55951 0.0
H1022 H 0.24439 0.02767 0.48179 0.0
H1023 H 0.2525 0.0552 0.46172 0.0
H1024 H 0.18979 0.98892 0.27418 0.0
H1025 H 0.21046 0.05545 0.22724 0.0
H1026 H 0.18194 0.98769 0.5096 0.0
H1027 H 0.20938 0.9944 0.50097 0.0
H1028 H 0.18984 0.97525 0.42146 0.0
H1029 H 0.20671 0.06933 0.45269 0.0
H1030 H 0.22136 0.08071 0.34696 0.0
H1031 H 0.23387 0.07519 0.44299 0.0
C1032 C 0.73063 0.5532 0.62336 0.0
C1033 C 0.71545 0.53737 0.56492 0.0
C1034 C 0.72663 0.55299 0.71846 0.0
C1035 C 0.70726 0.53622 0.75567 0.0
C1036 C 0.69186 0.52024 0.69658 0.0
C1037 C 0.69603 0.52118 0.6015 0.0
C1038 C 0.74315 0.57061 0.77916 0.0
C1039 C 0.67124 0.50186 0.73405 0.0
C1040 C 0.70724 0.52354 0.01013 0.0
C1041 C 0.69566 0.53252 0.04806 0.0
C1042 C 0.71095 0.52442 0.91462 0.0
C1043 C 0.70332 0.53506 0.85676 0.0
C1044 C 0.69178 0.54438 0.89539 0.0
C1045 C 0.6878 0.54271 -0.00912 0.0
C1046 C 0.72282 0.51381 0.87561 0.0
C1047 C 0.68387 0.55629 0.83611 0.0
H1048 H 0.74557 0.5658 0.59461 0.0
H1049 H 0.68432 0.5089 0.55608 0.0
H1050 H 0.73562 0.57834 0.81881 0.0
H1051 H 0.74956 0.56372 0.83016 0.0
H1052 H 0.75678 0.58314 0.73857 0.0
H1053 H 0.66098 0.49072 0.67868 0.0
H1054 H 0.67493 0.49263 0.7851 0.0
H1055 H 0.66195 0.50811 0.7708 0.0
H1056 H 0.71299 0.51545 0.05496 0.0
H1057 H 0.67896 0.54977 0.02125 0.0
H1058 H 0.73767 0.5259 0.84027 0.0
H1059 H 0.71272 0.50165 0.82309 0.0
H1060 H 0.72726 0.5058 0.92996 0.0
H1061 H 0.69755 0.56956 0.79878 0.0
H1062 H 0.67567 0.56313 0.87745 0.0
H1063 H 0.67251 0.54535 0.78309 0.0
C1064 C 0.51739 0.19638 0.61707 0.0
C1065 C 0.53645 0.20569 0.56614 0.0
C1066 C 0.51748 0.19212 0.71173 0.0
C1067 C 0.53726 0.19833 0.75655 0.0
C1068 C 0.5566 0.20808 0.70511 0.0
C1069 C 0.55588 0.21116 0.60974 0.0
C1070 C 0.49645 0.18081 0.76347 0.0
C1071 C 0.57807 0.21573 0.75109 0.0
C1072 C 0.53859 0.20696 0.01576 0.0
C1073 C 0.5394 0.18914 0.04924 0.0
C1074 C 0.53844 0.21044 0.92047 0.0
C1075 C 0.5378 0.19502 0.85761 0.0
C1076 C 0.53788 0.17657 0.89134 0.0
C1077 C 0.53922 0.17412 0.987 0.0
C1078 C 0.53926 0.23075 0.88722 0.0
C1079 C 0.5362 0.15929 0.82658 0.0
H1080 H 0.50239 0.19199 0.5823 0.0
H1081 H 0.57059 0.21848 0.56964 0.0
H1082 H 0.49489 0.16647 0.79948 0.0
H1083 H 0.49599 0.1916 0.81718 0.0
H1084 H 0.48242 0.17565 0.71693 0.0
H1085 H 0.59165 0.22375 0.70163 0.0
H1086 H 0.58038 0.22721 0.80742 0.0
H1087 H 0.57861 0.202 0.78308 0.0
H1088 H 0.53845 0.21838 0.0641 0.0
H1089 H 0.5395 0.16014 0.01323 0.0
H1090 H 0.5243 0.22675 0.84946 0.0
H1091 H 0.55279 0.23935 0.83814 0.0
H1092 H 0.54124 0.24178 0.9451 0.0
H1093 H 0.52181 0.15358 0.78186 0.0
H1094 H 0.5351 0.14533 0.86437 0.0
H1095 H 0.55038 0.16589 0.78035 0.0
C1096 C 0.85037 0.35901 0.61644 0.0
C1097 C 0.86559 0.35655 0.56601 0.0
C1098 C 0.8529 0.36299 0.71193 0.0
C1099 C 0.87119 0.36473 0.75696 0.0
C1100 C 0.88669 0.36241 0.70546 0.0
C1101 C 0.88362 0.35824 0.6102 0.0
C1102 C 0.83601 0.36526 0.76462 0.0
C1103 C 0.90648 0.36435 0.75093 0.0
C1104 C 0.88843 0.39362 0.98789 0.0
C1105 C 0.88081 0.37634 0.04965 0.0
C1106 C 0.88523 0.39008 0.89226 0.0
C1107 C 0.87405 0.36877 0.85813 0.0
C1108 C 0.86591 0.35128 0.92055 0.0
C1109 C 0.86942 0.35529 0.01571 0.0
C1110 C 0.89414 0.40912 0.82766 0.0
C1111 C 0.85377 0.32833 0.88676 0.0
H1112 H 0.83647 0.35771 0.58109 0.0
H1113 H 0.89534 0.3564 0.57007 0.0
H1114 H 0.82912 0.35296 0.81997 0.0
H1115 H 0.84337 0.38121 0.79875 0.0
H1116 H 0.82277 0.36349 0.71914 0.0
H1117 H 0.91714 0.36252 0.70065 0.0
H1118 H 0.91571 0.38023 0.78523 0.0
H1119 H 0.90176 0.35192 0.80536 0.0
H1120 H 0.89721 0.40991 0.01419 0.0
H1121 H 0.86343 0.34191 0.06352 0.0
H1122 H 0.88109 0.40841 0.7842 0.0
H1123 H 0.90603 0.40864 0.78022 0.0
H1124 H 0.90204 0.42466 0.86545 0.0
H1125 H 0.83982 0.32573 0.84429 0.0
H1126 H 0.84789 0.31659 0.94459 0.0
H1127 H 0.8643 0.32503 0.84183 0.0
C1128 C 0.37541 0.85667 0.3524 0.0
C1129 C 0.36365 0.86546 0.39023 0.0
C1130 C 0.37908 0.85749 0.25686 0.0
C1131 C 0.37124 0.86791 0.19878 0.0
C1132 C 0.35951 0.87705 0.23728 0.0
C1133 C 0.35557 0.87542 0.33283 0.0
C1134 C 0.39113 0.84705 0.21803 0.0
C1135 C 0.3514 0.88875 0.1778 0.0
C1136 C 0.39851 0.886 0.96521 0.0
C1137 C 0.38342 0.87004 0.90695 0.0
C1138 C 0.39448 0.88587 0.06026 0.0
C1139 C 0.37517 0.86903 0.09764 0.0
C1140 C 0.35986 0.85292 0.03872 0.0
C1141 C 0.36405 0.8538 0.94366 0.0
C1142 C 0.41089 0.90364 0.1207 0.0
C1143 C 0.33932 0.83446 0.07637 0.0
H1144 H 0.38135 0.84877 0.39736 0.0
H1145 H 0.3466 0.88234 0.36307 0.0
H1146 H 0.38111 0.83483 0.16557 0.0
H1147 H 0.40593 0.85922 0.18266 0.0
H1148 H 0.39567 0.83915 0.27249 0.0
H1149 H 0.34304 0.89543 0.219 0.0
H1150 H 0.365 0.9021 0.14048 0.0
H1151 H 0.34013 0.87773 0.12475 0.0
H1152 H 0.41341 0.89864 0.93635 0.0
H1153 H 0.35241 0.84143 0.89838 0.0
H1154 H 0.41745 0.89692 0.17183 0.0
H1155 H 0.40322 0.91125 0.16021 0.0
H1156 H 0.42443 0.91623 0.07994 0.0
H1157 H 0.34312 0.82536 0.12765 0.0
H1158 H 0.32912 0.82323 0.02112 0.0
H1159 H 0.32992 0.84061 0.11288 0.0
C1160 C 0.22308 0.54423 0.9393 0.0
C1161 C 0.20373 0.53918 0.89604 0.0
C1162 C 0.22381 0.54116 0.03468 0.0
C1163 C 0.20453 0.53185 0.08652 0.0
C1164 C 0.18481 0.52607 0.04207 0.0
C1165 C 0.18474 0.53032 0.94737 0.0
C1166 C 0.24524 0.54834 0.08025 0.0
C1167 C 0.16382 0.51524 0.09424 0.0
C1168 C 0.20593 0.50727 0.31682 0.0
C1169 C 0.20659 0.5225 0.37915 0.0
C1170 C 0.20463 0.50979 0.22119 0.0
C1171 C 0.20507 0.5285 0.18756 0.0
C1172 C 0.20621 0.54414 0.25051 0.0
C1173 C 0.20634 0.54062 0.34579 0.0
C1174 C 0.20244 0.49231 0.15636 0.0
C1175 C 0.20757 0.5647 0.21735 0.0
H1176 H 0.23775 0.55121 0.89892 0.0
H1177 H 0.16979 0.52625 0.91289 0.0
H1178 H 0.24789 0.55992 0.13657 0.0
H1179 H 0.24543 0.53442 0.11218 0.0
H1180 H 0.25879 0.55607 0.03053 0.0
H1181 H 0.1498 0.51042 0.04801 0.0
H1182 H 0.16189 0.50074 0.13012 0.0
H1183 H 0.16375 0.5262 0.14808 0.0
H1184 H 0.20578 0.49306 0.34297 0.0
H1185 H 0.20662 0.55223 0.39424 0.0
H1186 H 0.21655 0.4986 0.10978 0.0
H1187 H 0.18804 0.4869 0.11199 0.0
H1188 H 0.20104 0.47821 0.19406 0.0
H1189 H 0.22118 0.57307 0.16843 0.0
H1190 H 0.20978 0.5758 0.27529 0.0
H1191 H 0.19273 0.56106 0.17941 0.0
C1192 C 0.56365 0.70118 0.33427 0.0
C1193 C 0.54978 0.7042 0.39227 0.0
C1194 C 0.55958 0.69773 0.239 0.0
C1195 C 0.54147 0.69778 0.20089 0.0
C1196 C 0.52735 0.7007 0.25952 0.0
C1197 C 0.53156 0.70364 0.35485 0.0
C1198 C 0.57473 0.69417 0.17907 0.0
C1199 C 0.50806 0.70118 0.22132 0.0
C1200 C 0.5432 0.71064 0.94503 0.0
C1201 C 0.52997 0.69026 0.90755 0.0
C1202 C 0.54703 0.71335 0.04066 0.0
C1203 C 0.53751 0.69515 0.09945 0.0
C1204 C 0.52416 0.67448 0.06129 0.0
C1205 C 0.52035 0.67232 0.96555 0.0
C1206 C 0.56104 0.73569 0.07884 0.0
C1207 C 0.51401 0.65467 0.12145 0.0
H1208 H 0.57765 0.70142 0.3635 0.0
H1209 H 0.52086 0.70603 0.39982 0.0
H1210 H 0.56568 0.6789 0.14008 0.0
H1211 H 0.58246 0.70728 0.12748 0.0
H1212 H 0.58748 0.69358 0.22013 0.0
H1213 H 0.49864 0.70355 0.27629 0.0
H1214 H 0.51333 0.71437 0.17016 0.0
H1215 H 0.49738 0.68595 0.18451 0.0
H1216 H 0.55017 0.7245 0.89972 0.0
H1217 H 0.51005 0.65658 0.93573 0.0
H1218 H 0.57498 0.7366 0.11582 0.0
H1219 H 0.55185 0.73945 0.12983 0.0
H1220 H 0.56709 0.74813 0.0238 0.0
H1221 H 0.52664 0.65332 0.15988 0.0
H1222 H 0.50444 0.63974 0.08063 0.0
H1223 H 0.50337 0.65593 0.17355 0.0
loop_
_geom_bond_atom_site_label_1
_geom_bond_atom_site_label_2
_geom_bond_distance
_geom_bond_site_symmetry_2
_ccdc_geom_bond_type
C0 Eu1 2.835 1_556 S
C0 C2 1.500 . S
C0 O20 1.257 . S
C0 O21 1.260 1_556 S
Eu1 C0 2.835 1_554 S
Eu1 O20 2.473 1_554 S
Eu1 O21 2.480 . S
Eu1 O22 2.430 . S
Eu1 O23 2.670 . S
Eu1 O24 2.394 . S
Eu1 O29 2.355 1_554 S
Eu1 O31 2.374 1_554 S
C2 C0 1.500 . S
C2 C3 1.377 1_556 S
C2 C7 1.377 . S
C3 C2 1.377 1_554 S
C3 C4 1.395 . S
C3 H32 0.931 . S
C4 C3 1.395 . S
C4 C5 1.383 1_554 S
C4 H33 0.931 . S
C5 C4 1.383 1_556 S
C5 C6 1.394 . S
C6 C5 1.394 . S
C6 C7 1.378 . S
C6 H34 0.931 . S
C7 C2 1.377 . S
C7 C6 1.378 . S
C7 H35 0.931 . S
C8 O22 1.259 . S
C8 O23 1.270 . S
C9 O24 1.251 1_655 S
C9 O25 1.251 . S
C10 Eu11 2.835 1_554 S
C10 C12 1.500 . S
C10 O26 1.257 . S
C10 O27 1.260 1_554 S
Eu11 C10 2.835 1_556 S
Eu11 O23 2.355 1_656 S
Eu11 O25 2.374 1_556 S
Eu11 O26 2.473 1_556 S
Eu11 O27 2.480 . S
Eu11 O28 2.430 . S
Eu11 O29 2.670 1_655 S
Eu11 O30 2.394 1_655 S
C12 C10 1.500 . S
C12 C13 1.377 1_554 S
C12 C17 1.377 . S
C13 C12 1.377 1_556 S
C13 C14 1.395 . S
C13 H36 0.931 . S
C14 C13 1.395 . S
C14 C15 1.383 1_556 S
C14 H37 0.931 . S
C15 C14 1.383 1_554 S
C15 C16 1.394 . S
C16 C15 1.394 . S
C16 C17 1.378 . S
C16 H38 0.931 . S
C17 C12 1.377 . S
C17 C16 1.378 . S
C17 H39 0.931 . S
C18 O28 1.259 1_455 S
C18 O29 1.270 . S
C19 O30 1.251 . S
C19 O31 1.251 . S
O20 C0 1.257 . S
O20 Eu1 2.473 1_556 S
O21 C0 1.260 1_554 S
O21 Eu1 2.480 . S
O22 Eu1 2.430 . S
O22 C8 1.259 . S
O23 Eu1 2.670 . S
O23 C8 1.270 . S
O23 Eu11 2.355 1_454 S
O24 Eu1 2.394 . S
O24 C9 1.251 1_455 S
O25 C9 1.251 . S
O25 Eu11 2.374 1_554 S
O26 C10 1.257 . S
O26 Eu11 2.473 1_554 S
O27 C10 1.260 1_556 S
O27 Eu11 2.480 . S
O28 Eu11 2.430 . S
O28 C18 1.259 1_655 S
O29 Eu1 2.355 1_556 S
O29 Eu11 2.670 1_455 S
O29 C18 1.270 . S
O30 Eu11 2.394 1_455 S
O30 C19 1.251 . S
O31 Eu1 2.374 1_556 S
O31 C19 1.251 . S
H32 C3 0.931 . S
H33 C4 0.931 . S
H34 C6 0.931 . S
H35 C7 0.931 . S
H36 C13 0.931 . S
H37 C14 0.931 . S
H38 C16 0.931 . S
H39 C17 0.931 . S
C40 Eu41 2.835 1_556 S
C40 C42 1.500 . S
C40 O60 1.257 . S
C40 O61 1.260 1_556 S
Eu41 C40 2.835 1_554 S
Eu41 O60 2.473 1_554 S
Eu41 O61 2.480 . S
Eu41 O62 2.430 . S
Eu41 O63 2.670 . S
Eu41 O64 2.394 . S
Eu41 O69 2.355 1_554 S
Eu41 O71 2.374 1_554 S
C42 C40 1.500 . S
C42 C43 1.377 1_556 S
C42 C47 1.377 . S
C43 C42 1.377 1_554 S
C43 C44 1.395 . S
C43 H72 0.931 . S
C44 C43 1.395 . S
C44 C45 1.383 1_554 S
C44 H73 0.931 . S
C45 C44 1.383 1_556 S
C45 C46 1.394 . S
C46 C45 1.394 . S
C46 C47 1.378 . S
C46 H74 0.931 . S
C47 C42 1.377 . S
C47 C46 1.378 . S
C47 H75 0.931 . S
C48 O62 1.259 . S
C48 O63 1.270 . S
C49 O64 1.251 . S
C49 O65 1.251 . S
C50 Eu51 2.835 1_554 S
C50 C52 1.500 . S
C50 O66 1.257 . S
C50 O67 1.260 1_554 S
Eu51 C50 2.835 1_556 S
Eu51 O63 2.355 1_556 S
Eu51 O65 2.374 1_556 S
Eu51 O66 2.473 1_556 S
Eu51 O67 2.480 . S
Eu51 O68 2.430 . S
Eu51 O69 2.670 . S
Eu51 O70 2.394 . S
C52 C50 1.500 . S
C52 C53 1.377 1_554 S
C52 C57 1.377 . S
C53 C52 1.377 1_556 S
C53 C54 1.395 . S
C53 H76 0.931 . S
C54 C53 1.395 . S
C54 C55 1.383 1_556 S
C54 H77 0.931 . S
C55 C54 1.383 1_554 S
C55 C56 1.394 . S
C56 C55 1.394 . S
C56 C57 1.378 . S
C56 H78 0.931 . S
C57 C52 1.377 . S
C57 C56 1.378 . S
C57 H79 0.931 . S
C58 O68 1.259 . S
C58 O69 1.270 . S
C59 O70 1.251 . S
C59 O71 1.251 . S
O60 C40 1.257 . S
O60 Eu41 2.473 1_556 S
O61 C40 1.260 1_554 S
O61 Eu41 2.480 . S
O62 Eu41 2.430 . S
O62 C48 1.259 . S
O63 Eu41 2.670 . S
O63 C48 1.270 . S
O63 Eu51 2.355 1_554 S
O64 Eu41 2.394 . S
O64 C49 1.251 . S
O65 C49 1.251 . S
O65 Eu51 2.374 1_554 S
O66 C50 1.257 . S
O66 Eu51 2.473 1_554 S
O67 C50 1.260 1_556 S
O67 Eu51 2.480 . S
O68 Eu51 2.430 . S
O68 C58 1.259 . S
O69 Eu41 2.355 1_556 S
O69 Eu51 2.670 . S
O69 C58 1.270 . S
O70 Eu51 2.394 . S
O70 C59 1.251 . S
O71 Eu41 2.374 1_556 S
O71 C59 1.251 . S
H72 C43 0.931 . S
H73 C44 0.931 . S
H74 C46 0.931 . S
H75 C47 0.931 . S
H76 C53 0.931 . S
H77 C54 0.931 . S
H78 C56 0.931 . S
H79 C57 0.931 . S
C80 Eu81 2.835 1_556 S
C80 C82 1.500 . S
C80 O100 1.257 . S
C80 O101 1.260 1_556 S
Eu81 C80 2.835 1_554 S
Eu81 O100 2.473 1_554 S
Eu81 O101 2.480 . S
Eu81 O102 2.430 . S
Eu81 O103 2.670 1_565 S
Eu81 O104 2.394 1_565 S
Eu81 O109 2.355 1_564 S
Eu81 O111 2.374 1_554 S
C82 C80 1.500 . S
C82 C83 1.377 1_556 S
C82 C87 1.377 . S
C83 C82 1.377 1_554 S
C83 C84 1.395 . S
C83 H112 0.931 . S
C84 C83 1.395 . S
C84 C85 1.383 1_554 S
C84 H113 0.931 . S
C85 C84 1.383 1_556 S
C85 C86 1.394 . S
C86 C85 1.394 . S
C86 C87 1.378 . S
C86 H114 0.931 . S
C87 C82 1.377 . S
C87 C86 1.378 . S
C87 H115 0.931 . S
C88 O102 1.259 1_545 S
C88 O103 1.270 . S
C89 O104 1.251 . S
C89 O105 1.251 . S
C90 Eu91 2.835 1_554 S
C90 C92 1.500 . S
C90 O106 1.257 . S
C90 O107 1.260 1_554 S
Eu91 C90 2.835 1_556 S
Eu91 O103 2.355 1_556 S
Eu91 O105 2.374 1_556 S
Eu91 O106 2.473 1_556 S
Eu91 O107 2.480 . S
Eu91 O108 2.430 . S
Eu91 O109 2.670 . S
Eu91 O110 2.394 . S
C92 C90 1.500 . S
C92 C93 1.377 1_554 S
C92 C97 1.377 . S
C93 C92 1.377 1_556 S
C93 C94 1.395 . S
C93 H116 0.931 . S
C94 C93 1.395 . S
C94 C95 1.383 1_556 S
C94 H117 0.931 . S
C95 C94 1.383 1_554 S
C95 C96 1.394 . S
C96 C95 1.394 . S
C96 C97 1.378 . S
C96 H118 0.931 . S
C97 C92 1.377 . S
C97 C96 1.378 . S
C97 H119 0.931 . S
C98 O108 1.259 . S
C98 O109 1.270 . S
C99 O110 1.251 1_565 S
C99 O111 1.251 . S
O100 C80 1.257 . S
O100 Eu81 2.473 1_556 S
O101 C80 1.260 1_554 S
O101 Eu81 2.480 . S
O102 Eu81 2.430 . S
O102 C88 1.259 1_565 S
O103 Eu81 2.670 1_545 S
O103 C88 1.270 . S
O103 Eu91 2.355 1_554 S
O104 Eu81 2.394 1_545 S
O104 C89 1.251 . S
O105 C89 1.251 . S
O105 Eu91 2.374 1_554 S
O106 C90 1.257 . S
O106 Eu91 2.473 1_554 S
O107 C90 1.260 1_556 S
O107 Eu91 2.480 . S
O108 Eu91 2.430 . S
O108 C98 1.259 . S
O109 Eu81 2.355 1_546 S
O109 Eu91 2.670 . S
O109 C98 1.270 . S
O110 Eu91 2.394 . S
O110 C99 1.251 1_545 S
O111 Eu81 2.374 1_556 S
O111 C99 1.251 . S
H112 C83 0.931 . S
H113 C84 0.931 . S
H114 C86 0.931 . S
H115 C87 0.931 . S
H116 C93 0.931 . S
H117 C94 0.931 . S
H118 C96 0.931 . S
H119 C97 0.931 . S
C120 Eu121 2.835 . S
C120 C122 1.500 . S
C120 O140 1.257 . S
C120 O141 1.260 . S
Eu121 C120 2.835 . S
Eu121 O140 2.473 . S
Eu121 O141 2.480 . S
Eu121 O142 2.430 . S
Eu121 O143 2.670 . S
Eu121 O144 2.394 . S
Eu121 O149 2.355 . S
Eu121 O151 2.374 . S
C122 C120 1.500 . S
C122 C123 1.377 . S
C122 C127 1.377 . S
C123 C122 1.377 . S
C123 C124 1.395 . S
C123 H152 0.931 . S
C124 C123 1.395 . S
C124 C125 1.383 . S
C124 H153 0.931 . S
C125 C124 1.383 . S
C125 C126 1.394 . S
C126 C125 1.394 . S
C126 C127 1.378 . S
C126 H154 0.931 . S
C127 C122 1.377 . S
C127 C126 1.378 . S
C127 H155 0.931 . S
C128 O142 1.259 . S
C128 O143 1.270 . S
C129 O144 1.251 . S
C129 O145 1.251 . S
C130 Eu131 2.835 . S
C130 C132 1.500 . S
C130 O146 1.257 . S
C130 O147 1.260 . S
Eu131 C130 2.835 . S
Eu131 O143 2.355 . S
Eu131 O145 2.374 . S
Eu131 O146 2.473 . S
Eu131 O147 2.480 . S
Eu131 O148 2.430 . S
Eu131 O149 2.670 . S
Eu131 O150 2.394 . S
C132 C130 1.500 . S
C132 C133 1.377 . S
C132 C137 1.377 . S
C133 C132 1.377 . S
C133 C134 1.395 . S
C133 H156 0.931 . S
C134 C133 1.395 . S
C134 C135 1.383 . S
C134 H157 0.931 . S
C135 C134 1.383 . S
C135 C136 1.394 . S
C136 C135 1.394 . S
C136 C137 1.378 . S
C136 H158 0.931 . S
C137 C132 1.377 . S
C137 C136 1.378 . S
C137 H159 0.931 . S
C138 O148 1.259 . S
C138 O149 1.270 . S
C139 O150 1.251 . S
C139 O151 1.251 . S
O140 C120 1.257 . S
O140 Eu121 2.473 . S
O141 C120 1.260 . S
O141 Eu121 2.480 . S
O142 Eu121 2.430 . S
O142 C128 1.259 . S
O143 Eu121 2.670 . S
O143 C128 1.270 . S
O143 Eu131 2.355 . S
O144 Eu121 2.394 . S
O144 C129 1.251 . S
O145 C129 1.251 . S
O145 Eu131 2.374 . S
O146 C130 1.257 . S
O146 Eu131 2.473 . S
O147 C130 1.260 . S
O147 Eu131 2.480 . S
O148 Eu131 2.430 . S
O148 C138 1.259 . S
O149 Eu121 2.355 . S
O149 Eu131 2.670 . S
O149 C138 1.270 . S
O150 Eu131 2.394 . S
O150 C139 1.251 . S
O151 Eu121 2.374 . S
O151 C139 1.251 . S
H152 C123 0.931 . S
H153 C124 0.931 . S
H154 C126 0.931 . S
H155 C127 0.931 . S
H156 C133 0.931 . S
H157 C134 0.931 . S
H158 C136 0.931 . S
H159 C137 0.931 . S
C160 Eu161 2.835 . S
C160 C162 1.500 . S
C160 O180 1.257 . S
C160 O181 1.260 . S
Eu161 C160 2.835 . S
Eu161 O180 2.473 . S
Eu161 O181 2.480 . S
Eu161 O182 2.430 . S
Eu161 O183 2.670 . S
Eu161 O184 2.394 . S
Eu161 O189 2.355 . S
Eu161 O191 2.374 . S
C162 C160 1.500 . S
C162 C163 1.377 . S
C162 C167 1.377 . S
C163 C162 1.377 . S
C163 C164 1.395 . S
C163 H192 0.931 . S
C164 C163 1.395 . S
C164 C165 1.383 . S
C164 H193 0.931 . S
C165 C164 1.383 . S
C165 C166 1.394 . S
C166 C165 1.394 . S
C166 C167 1.378 . S
C166 H194 0.931 . S
C167 C162 1.377 . S
C167 C166 1.378 . S
C167 H195 0.931 . S
C168 O182 1.259 . S
C168 O183 1.270 . S
C169 O184 1.251 . S
C169 O185 1.251 . S
C170 Eu171 2.835 . S
C170 C172 1.500 . S
C170 O186 1.257 . S
C170 O187 1.260 . S
Eu171 C170 2.835 . S
Eu171 O183 2.355 . S
Eu171 O185 2.374 . S
Eu171 O186 2.473 . S
Eu171 O187 2.480 . S
Eu171 O188 2.430 . S
Eu171 O189 2.670 . S
Eu171 O190 2.394 . S
C172 C170 1.500 . S
C172 C173 1.377 . S
C172 C177 1.377 . S
C173 C172 1.377 . S
C173 C174 1.395 . S
C173 H196 0.931 . S
C174 C173 1.395 . S
C174 C175 1.383 . S
C174 H197 0.931 . S
C175 C174 1.383 . S
C175 C176 1.394 . S
C176 C175 1.394 . S
C176 C177 1.378 . S
C176 H198 0.931 . S
C177 C172 1.377 . S
C177 C176 1.378 . S
C177 H199 0.931 . S
C178 O188 1.259 . S
C178 O189 1.270 . S
C179 O190 1.251 . S
C179 O191 1.251 . S
O180 C160 1.257 . S
O180 Eu161 2.473 . S
O181 C160 1.260 . S
O181 Eu161 2.480 . S
O182 Eu161 2.430 . S
O182 C168 1.259 . S
O183 Eu161 2.670 . S
O183 C168 1.270 . S
O183 Eu171 2.355 . S
O184 Eu161 2.394 . S
O184 C169 1.251 . S
O185 C169 1.251 . S
O185 Eu171 2.374 . S
O186 C170 1.257 . S
O186 Eu171 2.473 . S
O187 C170 1.260 . S
O187 Eu171 2.480 . S
O188 Eu171 2.430 . S
O188 C178 1.259 . S
O189 Eu161 2.355 . S
O189 Eu171 2.670 . S
O189 C178 1.270 . S
O190 Eu171 2.394 . S
O190 C179 1.251 . S
O191 Eu161 2.374 . S
O191 C179 1.251 . S
H192 C163 0.931 . S
H193 C164 0.931 . S
H194 C166 0.931 . S
H195 C167 0.931 . S
H196 C173 0.931 . S
H197 C174 0.931 . S
H198 C176 0.931 . S
H199 C177 0.931 . S
C200 Eu201 2.835 . S
C200 C202 1.500 . S
C200 O220 1.257 . S
C200 O221 1.260 . S
Eu201 C200 2.835 . S
Eu201 O220 2.473 . S
Eu201 O221 2.480 . S
Eu201 O222 2.430 . S
Eu201 O223 2.670 . S
Eu201 O224 2.394 . S
Eu201 O229 2.355 . S
Eu201 O231 2.374 . S
C202 C200 1.500 . S
C202 C203 1.377 . S
C202 C207 1.377 . S
C203 C202 1.377 . S
C203 C204 1.395 . S
C203 H232 0.931 . S
C204 C203 1.395 . S
C204 C205 1.383 . S
C204 H233 0.931 . S
C205 C204 1.383 . S
C205 C206 1.394 . S
C206 C205 1.394 . S
C206 C207 1.378 . S
C206 H234 0.931 . S
C207 C202 1.377 . S
C207 C206 1.378 . S
C207 H235 0.931 . S
C208 O222 1.259 . S
C208 O223 1.270 . S
C209 O224 1.251 . S
C209 O225 1.251 . S
C210 Eu211 2.835 . S
C210 C212 1.500 . S
C210 O226 1.257 . S
C210 O227 1.260 . S
Eu211 C210 2.835 . S
Eu211 O223 2.355 . S
Eu211 O225 2.374 . S
Eu211 O226 2.473 . S
Eu211 O227 2.480 . S
Eu211 O228 2.430 . S
Eu211 O229 2.670 . S
Eu211 O230 2.394 . S
C212 C210 1.500 . S
C212 C213 1.377 . S
C212 C217 1.377 . S
C213 C212 1.377 . S
C213 C214 1.395 . S
C213 H236 0.931 . S
C214 C213 1.395 . S
C214 C215 1.383 . S
C214 H237 0.931 . S
C215 C214 1.383 . S
C215 C216 1.394 . S
C216 C215 1.394 . S
C216 C217 1.378 . S
C216 H238 0.931 . S
C217 C212 1.377 . S
C217 C216 1.378 . S
C217 H239 0.931 . S
C218 O228 1.259 . S
C218 O229 1.270 . S
C219 O230 1.251 . S
C219 O231 1.251 . S
O220 C200 1.257 . S
O220 Eu201 2.473 . S
O221 C200 1.260 . S
O221 Eu201 2.480 . S
O222 Eu201 2.430 . S
O222 C208 1.259 . S
O223 Eu201 2.670 . S
O223 C208 1.270 . S
O223 Eu211 2.355 . S
O224 Eu201 2.394 . S
O224 C209 1.251 . S
O225 C209 1.251 . S
O225 Eu211 2.374 . S
O226 C210 1.257 . S
O226 Eu211 2.473 . S
O227 C210 1.260 . S
O227 Eu211 2.480 . S
O228 Eu211 2.430 . S
O228 C218 1.259 . S
O229 Eu201 2.355 . S
O229 Eu211 2.670 . S
O229 C218 1.270 . S
O230 Eu211 2.394 . S
O230 C219 1.251 . S
O231 Eu201 2.374 . S
O231 C219 1.251 . S
H232 C203 0.931 . S
H233 C204 0.931 . S
H234 C206 0.931 . S
H235 C207 0.931 . S
H236 C213 0.931 . S
H237 C214 0.931 . S
H238 C216 0.931 . S
H239 C217 0.931 . S
C240 Eu241 2.835 . S
C240 C242 1.500 . S
C240 O260 1.257 . S
C240 O261 1.260 . S
Eu241 C240 2.835 . S
Eu241 O260 2.473 . S
Eu241 O261 2.480 . S
Eu241 O262 2.430 . S
Eu241 O263 2.670 . S
Eu241 O264 2.394 . S
Eu241 O269 2.355 . S
Eu241 O271 2.374 . S
C242 C240 1.500 . S
C242 C243 1.377 . S
C242 C247 1.377 . S
C243 C242 1.377 . S
C243 C244 1.395 . S
C243 H272 0.931 . S
C244 C243 1.395 . S
C244 C245 1.383 . S
C244 H273 0.931 . S
C245 C244 1.383 . S
C245 C246 1.394 . S
C246 C245 1.394 . S
C246 C247 1.378 . S
C246 H274 0.931 . S
C247 C242 1.377 . S
C247 C246 1.378 . S
C247 H275 0.931 . S
C248 O262 1.259 . S
C248 O263 1.270 . S
C249 O264 1.251 . S
C249 O265 1.251 . S
C250 Eu251 2.835 . S
C250 C252 1.500 . S
C250 O266 1.257 . S
C250 O267 1.260 . S
Eu251 C250 2.835 . S
Eu251 O263 2.355 . S
Eu251 O265 2.374 . S
Eu251 O266 2.473 . S
Eu251 O267 2.480 . S
Eu251 O268 2.430 . S
Eu251 O269 2.670 . S
Eu251 O270 2.394 . S
C252 C250 1.500 . S
C252 C253 1.377 . S
C252 C257 1.377 . S
C253 C252 1.377 . S
C253 C254 1.395 . S
C253 H276 0.931 . S
C254 C253 1.395 . S
C254 C255 1.383 . S
C254 H277 0.931 . S
C255 C254 1.383 . S
C255 C256 1.394 . S
C256 C255 1.394 . S
C256 C257 1.378 . S
C256 H278 0.931 . S
C257 C252 1.377 . S
C257 C256 1.378 . S
C257 H279 0.931 . S
C258 O268 1.259 . S
C258 O269 1.270 . S
C259 O270 1.251 . S
C259 O271 1.251 . S
O260 C240 1.257 . S
O260 Eu241 2.473 . S
O261 C240 1.260 . S
O261 Eu241 2.480 . S
O262 Eu241 2.430 . S
O262 C248 1.259 . S
O263 Eu241 2.670 . S
O263 C248 1.270 . S
O263 Eu251 2.355 . S
O264 Eu241 2.394 . S
O264 C249 1.251 . S
O265 C249 1.251 . S
O265 Eu251 2.374 . S
O266 C250 1.257 . S
O266 Eu251 2.473 . S
O267 C250 1.260 . S
O267 Eu251 2.480 . S
O268 Eu251 2.430 . S
O268 C258 1.259 . S
O269 Eu241 2.355 . S
O269 Eu251 2.670 . S
O269 C258 1.270 . S
O270 Eu251 2.394 . S
O270 C259 1.251 . S
O271 Eu241 2.374 . S
O271 C259 1.251 . S
H272 C243 0.931 . S
H273 C244 0.931 . S
H274 C246 0.931 . S
H275 C247 0.931 . S
H276 C253 0.931 . S
H277 C254 0.931 . S
H278 C256 0.931 . S
H279 C257 0.931 . S
C280 Eu281 2.835 . S
C280 C282 1.500 . S
C280 O300 1.257 . S
C280 O301 1.260 . S
Eu281 C280 2.835 . S
Eu281 O300 2.473 . S
Eu281 O301 2.480 . S
Eu281 O302 2.430 . S
Eu281 O303 2.670 . S
Eu281 O304 2.394 . S
Eu281 O309 2.355 . S
Eu281 O311 2.374 . S
C282 C280 1.500 . S
C282 C283 1.377 . S
C282 C287 1.377 . S
C283 C282 1.377 . S
C283 C284 1.395 . S
C283 H312 0.931 . S
C284 C283 1.395 . S
C284 C285 1.383 . S
C284 H313 0.931 . S
C285 C284 1.383 . S
C285 C286 1.394 . S
C286 C285 1.394 . S
C286 C287 1.378 . S
C286 H314 0.931 . S
C287 C282 1.377 . S
C287 C286 1.378 . S
C287 H315 0.931 . S
C288 O302 1.259 . S
C288 O303 1.270 . S
C289 O304 1.251 . S
C289 O305 1.251 . S
C290 Eu291 2.835 . S
C290 C292 1.500 . S
C290 O306 1.257 . S
C290 O307 1.260 . S
Eu291 C290 2.835 . S
Eu291 O303 2.355 . S
Eu291 O305 2.374 . S
Eu291 O306 2.473 . S
Eu291 O307 2.480 . S
Eu291 O308 2.430 . S
Eu291 O309 2.670 . S
Eu291 O310 2.394 . S
C292 C290 1.500 . S
C292 C293 1.377 . S
C292 C297 1.377 . S
C293 C292 1.377 . S
C293 C294 1.395 . S
C293 H316 0.931 . S
C294 C293 1.395 . S
C294 C295 1.383 . S
C294 H317 0.931 . S
C295 C294 1.383 . S
C295 C296 1.394 . S
C296 C295 1.394 . S
C296 C297 1.378 . S
C296 H318 0.931 . S
C297 C292 1.377 . S
C297 C296 1.378 . S
C297 H319 0.931 . S
C298 O308 1.259 . S
C298 O309 1.270 . S
C299 O310 1.251 . S
C299 O311 1.251 . S
O300 C280 1.257 . S
O300 Eu281 2.473 . S
O301 C280 1.260 . S
O301 Eu281 2.480 . S
O302 Eu281 2.430 . S
O302 C288 1.259 . S
O303 Eu281 2.670 . S
O303 C288 1.270 . S
O303 Eu291 2.355 . S
O304 Eu281 2.394 . S
O304 C289 1.251 . S
O305 C289 1.251 . S
O305 Eu291 2.374 . S
O306 C290 1.257 . S
O306 Eu291 2.473 . S
O307 C290 1.260 . S
O307 Eu291 2.480 . S
O308 Eu291 2.430 . S
O308 C298 1.259 . S
O309 Eu281 2.355 . S
O309 Eu291 2.670 . S
O309 C298 1.270 . S
O310 Eu291 2.394 . S
O310 C299 1.251 . S
O311 Eu281 2.374 . S
O311 C299 1.251 . S
H312 C283 0.931 . S
H313 C284 0.931 . S
H314 C286 0.931 . S
H315 C287 0.931 . S
H316 C293 0.931 . S
H317 C294 0.931 . S
H318 C296 0.931 . S
H319 C297 0.931 . S
C320 Eu321 2.835 . S
C320 C322 1.500 . S
C320 O340 1.257 . S
C320 O341 1.260 . S
Eu321 C320 2.835 . S
Eu321 O340 2.473 . S
Eu321 O341 2.480 . S
Eu321 O342 2.430 . S
Eu321 O343 2.670 . S
Eu321 O344 2.394 . S
Eu321 O349 2.355 . S
Eu321 O351 2.374 . S
C322 C320 1.500 . S
C322 C323 1.377 . S
C322 C327 1.377 . S
C323 C322 1.377 . S
C323 C324 1.395 . S
C323 H352 0.931 . S
C324 C323 1.395 . S
C324 C325 1.383 . S
C324 H353 0.931 . S
C325 C324 1.383 . S
C325 C326 1.394 . S
C326 C325 1.394 . S
C326 C327 1.378 . S
C326 H354 0.931 . S
C327 C322 1.377 . S
C327 C326 1.378 . S
C327 H355 0.931 . S
C328 O342 1.259 . S
C328 O343 1.270 . S
C329 O344 1.251 . S
C329 O345 1.251 . S
C330 Eu331 2.835 . S
C330 C332 1.500 . S
C330 O346 1.257 . S
C330 O347 1.260 . S
Eu331 C330 2.835 . S
Eu331 O343 2.355 . S
Eu331 O345 2.374 . S
Eu331 O346 2.473 . S
Eu331 O347 2.480 . S
Eu331 O348 2.430 . S
Eu331 O349 2.670 . S
Eu331 O350 2.394 . S
C332 C330 1.500 . S
C332 C333 1.377 . S
C332 C337 1.377 . S
C333 C332 1.377 . S
C333 C334 1.395 . S
C333 H356 0.931 . S
C334 C333 1.395 . S
C334 C335 1.383 . S
C334 H357 0.931 . S
C335 C334 1.383 . S
C335 C336 1.394 . S
C336 C335 1.394 . S
C336 C337 1.378 . S
C336 H358 0.931 . S
C337 C332 1.377 . S
C337 C336 1.378 . S
C337 H359 0.931 . S
C338 O348 1.259 . S
C338 O349 1.270 . S
C339 O350 1.251 . S
C339 O351 1.251 . S
O340 C320 1.257 . S
O340 Eu321 2.473 . S
O341 C320 1.260 . S
O341 Eu321 2.480 . S
O342 Eu321 2.430 . S
O342 C328 1.259 . S
O343 Eu321 2.670 . S
O343 C328 1.270 . S
O343 Eu331 2.355 . S
O344 Eu321 2.394 . S
O344 C329 1.251 . S
O345 C329 1.251 . S
O345 Eu331 2.374 . S
O346 C330 1.257 . S
O346 Eu331 2.473 . S
O347 C330 1.260 . S
O347 Eu331 2.480 . S
O348 Eu331 2.430 . S
O348 C338 1.259 . S
O349 Eu321 2.355 . S
O349 Eu331 2.670 . S
O349 C338 1.270 . S
O350 Eu331 2.394 . S
O350 C339 1.251 . S
O351 Eu321 2.374 . S
O351 C339 1.251 . S
H352 C323 0.931 . S
H353 C324 0.931 . S
H354 C326 0.931 . S
H355 C327 0.931 . S
H356 C333 0.931 . S
H357 C334 0.931 . S
H358 C336 0.931 . S
H359 C337 0.931 . S
C360 C361 1.391 1_554 S
C360 C362 1.394 1_554 S
C360 H376 0.931 . S
C361 C360 1.391 1_556 S
C361 C365 1.376 . S
C362 C360 1.394 1_556 S
C362 C363 1.369 . S
C362 C366 1.531 1_556 S
C363 C362 1.369 . S
C363 C364 1.410 . S
C363 C371 1.503 . S
C364 C363 1.410 . S
C364 C365 1.392 . S
C364 C367 1.511 . S
C365 C361 1.376 . S
C365 C364 1.392 . S
C365 H377 0.929 . S
C366 C362 1.531 1_554 S
C366 H378 0.960 . S
C366 H379 0.962 1_554 S
C366 H380 0.960 . S
C367 C364 1.511 . S
C367 H381 0.961 . S
C367 H382 0.961 . S
C367 H383 0.961 . S
C368 C369 1.370 . S
C368 C370 1.363 . S
C368 H384 0.931 . S
C369 C368 1.370 . S
C369 C373 1.408 . S
C370 C368 1.363 . S
C370 C371 1.370 . S
C370 C374 1.524 . S
C371 C363 1.503 . S
C371 C370 1.370 . S
C371 C372 1.403 . S
C372 C371 1.403 . S
C372 C373 1.404 . S
C372 C375 1.539 . S
C373 C369 1.408 . S
C373 C372 1.404 . S
C373 H385 0.930 . S
C374 C370 1.524 . S
C374 H386 0.956 . S
C374 H387 0.961 . S
C374 H388 0.961 . S
C375 C372 1.539 . S
C375 H389 0.958 1_556 S
C375 H390 0.961 . S
C375 H391 0.960 . S
H376 C360 0.931 . S
H377 C365 0.929 . S
H378 C366 0.960 . S
H379 C366 0.962 1_556 S
H380 C366 0.960 . S
H381 C367 0.961 . S
H382 C367 0.961 . S
H383 C367 0.961 . S
H384 C368 0.931 . S
H385 C373 0.930 . S
H386 C374 0.956 . S
H387 C374 0.961 . S
H388 C374 0.961 . S
H389 C375 0.958 1_554 S
H390 C375 0.961 . S
H391 C375 0.960 . S
C392 C393 1.391 . S
C392 C394 1.394 . S
C392 H408 0.931 . S
C393 C392 1.391 . S
C393 C397 1.376 1_556 S
C394 C392 1.394 . S
C394 C395 1.369 . S
C394 C398 1.531 . S
C395 C394 1.369 . S
C395 C396 1.410 . S
C395 C403 1.503 . S
C396 C395 1.410 . S
C396 C397 1.392 1_556 S
C396 C399 1.511 1_556 S
C397 C393 1.376 1_554 S
C397 C396 1.392 1_554 S
C397 H409 0.929 . S
C398 C394 1.531 . S
C398 H410 0.960 . S
C398 H411 0.962 . S
C398 H412 0.960 . S
C399 C396 1.511 1_554 S
C399 H413 0.961 . S
C399 H414 0.961 . S
C399 H415 0.961 . S
C400 C401 1.370 . S
C400 C402 1.363 . S
C400 H416 0.931 . S
C401 C400 1.370 . S
C401 C405 1.408 . S
C402 C400 1.363 . S
C402 C403 1.370 . S
C402 C406 1.524 . S
C403 C395 1.503 . S
C403 C402 1.370 . S
C403 C404 1.403 . S
C404 C403 1.403 . S
C404 C405 1.404 . S
C404 C407 1.539 . S
C405 C401 1.408 . S
C405 C404 1.404 . S
C405 H417 0.930 . S
C406 C402 1.524 . S
C406 H418 0.956 . S
C406 H419 0.961 . S
C406 H420 0.961 . S
C407 C404 1.539 . S
C407 H421 0.958 . S
C407 H422 0.961 . S
C407 H423 0.960 . S
H408 C392 0.931 . S
H409 C397 0.929 . S
H410 C398 0.960 . S
H411 C398 0.962 . S
H412 C398 0.960 . S
H413 C399 0.961 . S
H414 C399 0.961 . S
H415 C399 0.961 . S
H416 C400 0.931 . S
H417 C405 0.930 . S
H418 C406 0.956 . S
H419 C406 0.961 . S
H420 C406 0.961 . S
H421 C407 0.958 . S
H422 C407 0.961 . S
H423 C407 0.960 . S
C424 C425 1.391 . S
C424 C426 1.394 . S
C424 H440 0.931 1_565 S
C425 C424 1.391 . S
C425 C429 1.376 . S
C426 C424 1.394 . S
C426 C427 1.369 . S
C426 C430 1.531 . S
C427 C426 1.369 . S
C427 C428 1.410 . S
C427 C435 1.503 . S
C428 C427 1.410 . S
C428 C429 1.392 . S
C428 C431 1.511 . S
C429 C425 1.376 . S
C429 C428 1.392 . S
C429 H441 0.929 . S
C430 C426 1.531 . S
C430 H442 0.960 . S
C430 H443 0.962 1_565 S
C430 H444 0.960 1_565 S
C431 C428 1.511 . S
C431 H445 0.961 . S
C431 H446 0.961 . S
C431 H447 0.961 . S
C432 C433 1.370 . S
C432 C434 1.363 . S
C432 H448 0.931 . S
C433 C432 1.370 . S
C433 C437 1.408 . S
C434 C432 1.363 . S
C434 C435 1.370 . S
C434 C438 1.524 . S
C435 C427 1.503 . S
C435 C434 1.370 . S
C435 C436 1.403 . S
C436 C435 1.403 . S
C436 C437 1.404 . S
C436 C439 1.539 1_556 S
C437 C433 1.408 . S
C437 C436 1.404 . S
C437 H449 0.930 . S
C438 C434 1.524 . S
C438 H450 0.956 . S
C438 H451 0.961 . S
C438 H452 0.961 . S
C439 C436 1.539 1_554 S
C439 H453 0.958 . S
C439 H454 0.961 . S
C439 H455 0.960 . S
H440 C424 0.931 1_545 S
H441 C429 0.929 . S
H442 C430 0.960 . S
H443 C430 0.962 1_545 S
H444 C430 0.960 1_545 S
H445 C431 0.961 . S
H446 C431 0.961 . S
H447 C431 0.961 . S
H448 C432 0.931 . S
H449 C437 0.930 . S
H450 C438 0.956 . S
H451 C438 0.961 . S
H452 C438 0.961 . S
H453 C439 0.958 . S
H454 C439 0.961 . S
H455 C439 0.960 . S
C456 C457 1.391 . S
C456 C458 1.394 . S
C456 H472 0.931 . S
C457 C456 1.391 . S
C457 C461 1.376 . S
C458 C456 1.394 . S
C458 C459 1.369 . S
C458 C462 1.531 . S
C459 C458 1.369 . S
C459 C460 1.410 . S
C459 C467 1.503 . S
C460 C459 1.410 . S
C460 C461 1.392 . S
C460 C463 1.511 . S
C461 C457 1.376 . S
C461 C460 1.392 . S
C461 H473 0.929 . S
C462 C458 1.531 . S
C462 H474 0.960 . S
C462 H475 0.962 . S
C462 H476 0.960 . S
C463 C460 1.511 . S
C463 H477 0.961 . S
C463 H478 0.961 . S
C463 H479 0.961 . S
C464 C465 1.370 . S
C464 C466 1.363 . S
C464 H480 0.931 1_554 S
C465 C464 1.370 . S
C465 C469 1.408 . S
C466 C464 1.363 . S
C466 C467 1.370 . S
C466 C470 1.524 . S
C467 C459 1.503 . S
C467 C466 1.370 . S
C467 C468 1.403 . S
C468 C467 1.403 . S
C468 C469 1.404 . S
C468 C471 1.539 . S
C469 C465 1.408 . S
C469 C468 1.404 . S
C469 H481 0.930 . S
C470 C466 1.524 . S
C470 H482 0.956 . S
C470 H483 0.961 . S
C470 H484 0.961 1_554 S
C471 C468 1.539 . S
C471 H485 0.958 . S
C471 H486 0.961 . S
C471 H487 0.960 . S
H472 C456 0.931 . S
H473 C461 0.929 . S
H474 C462 0.960 . S
H475 C462 0.962 . S
H476 C462 0.960 . S
H477 C463 0.961 . S
H478 C463 0.961 . S
H479 C463 0.961 . S
H480 C464 0.931 1_556 S
H481 C469 0.930 . S
H482 C470 0.956 . S
H483 C470 0.961 . S
H484 C470 0.961 1_556 S
H485 C471 0.958 . S
H486 C471 0.961 . S
H487 C471 0.960 . S
C488 C489 1.391 . S
C488 C490 1.394 . S
C488 H504 0.931 . S
C489 C488 1.391 . S
C489 C493 1.376 . S
C490 C488 1.394 . S
C490 C491 1.369 . S
C490 C494 1.531 . S
C491 C490 1.369 . S
C491 C492 1.410 . S
C491 C499 1.503 . S
C492 C491 1.410 . S
C492 C493 1.392 . S
C492 C495 1.511 . S
C493 C489 1.376 . S
C493 C492 1.392 . S
C493 H505 0.929 . S
C494 C490 1.531 . S
C494 H506 0.960 . S
C494 H507 0.962 . S
C494 H508 0.960 . S
C495 C492 1.511 . S
C495 H509 0.961 . S
C495 H510 0.961 . S
C495 H511 0.961 . S
C496 C497 1.370 . S
C496 C498 1.363 . S
C496 H512 0.931 . S
C497 C496 1.370 . S
C497 C501 1.408 . S
C498 C496 1.363 . S
C498 C499 1.370 . S
C498 C502 1.524 . S
C499 C491 1.503 . S
C499 C498 1.370 . S
C499 C500 1.403 . S
C500 C499 1.403 . S
C500 C501 1.404 . S
C500 C503 1.539 . S
C501 C497 1.408 . S
C501 C500 1.404 . S
C501 H513 0.930 1_554 S
C502 C498 1.524 . S
C502 H514 0.956 . S
C502 H515 0.961 . S
C502 H516 0.961 . S
C503 C500 1.539 . S
C503 H517 0.958 . S
C503 H518 0.961 1_554 S
C503 H519 0.960 . S
H504 C488 0.931 . S
H505 C493 0.929 . S
H506 C494 0.960 . S
H507 C494 0.962 . S
H508 C494 0.960 . S
H509 C495 0.961 . S
H510 C495 0.961 . S
H511 C495 0.961 . S
H512 C496 0.931 . S
H513 C501 0.930 1_556 S
H514 C502 0.956 . S
H515 C502 0.961 . S
H516 C502 0.961 . S
H517 C503 0.958 . S
H518 C503 0.961 1_556 S
H519 C503 0.960 . S
C520 C521 1.391 . S
C520 C522 1.394 . S
C520 H536 0.931 . S
C521 C520 1.391 . S
C521 C525 1.376 . S
C522 C520 1.394 . S
C522 C523 1.369 . S
C522 C526 1.531 . S
C523 C522 1.369 . S
C523 C524 1.410 . S
C523 C531 1.503 . S
C524 C523 1.410 . S
C524 C525 1.392 . S
C524 C527 1.511 . S
C525 C521 1.376 . S
C525 C524 1.392 . S
C525 H537 0.929 . S
C526 C522 1.531 . S
C526 H538 0.960 . S
C526 H539 0.962 . S
C526 H540 0.960 . S
C527 C524 1.511 . S
C527 H541 0.961 . S
C527 H542 0.961 . S
C527 H543 0.961 . S
C528 C529 1.370 . S
C528 C530 1.363 . S
C528 H544 0.931 . S
C529 C528 1.370 . S
C529 C533 1.408 . S
C530 C528 1.363 . S
C530 C531 1.370 . S
C530 C534 1.524 . S
C531 C523 1.503 . S
C531 C530 1.370 . S
C531 C532 1.403 . S
C532 C531 1.403 . S
C532 C533 1.404 . S
C532 C535 1.539 . S
C533 C529 1.408 . S
C533 C532 1.404 . S
C533 H545 0.930 . S
C534 C530 1.524 . S
C534 H546 0.956 . S
C534 H547 0.961 . S
C534 H548 0.961 . S
C535 C532 1.539 . S
C535 H549 0.958 . S
C535 H550 0.961 . S
C535 H551 0.960 . S
H536 C520 0.931 . S
H537 C525 0.929 . S
H538 C526 0.960 . S
H539 C526 0.962 . S
H540 C526 0.960 . S
H541 C527 0.961 . S
H542 C527 0.961 . S
H543 C527 0.961 . S
H544 C528 0.931 . S
H545 C533 0.930 . S
H546 C534 0.956 . S
H547 C534 0.961 . S
H548 C534 0.961 . S
H549 C535 0.958 . S
H550 C535 0.961 . S
H551 C535 0.960 . S
C552 C553 1.391 . S
C552 C554 1.394 . S
C552 H568 0.931 . S
C553 C552 1.391 . S
C553 C557 1.376 . S
C554 C552 1.394 . S
C554 C555 1.369 . S
C554 C558 1.531 . S
C555 C554 1.369 . S
C555 C556 1.410 . S
C555 C563 1.503 . S
C556 C555 1.410 . S
C556 C557 1.392 . S
C556 C559 1.511 . S
C557 C553 1.376 . S
C557 C556 1.392 . S
C557 H569 0.929 . S
C558 C554 1.531 . S
C558 H570 0.960 . S
C558 H571 0.962 . S
C558 H572 0.960 . S
C559 C556 1.511 . S
C559 H573 0.961 . S
C559 H574 0.961 . S
C559 H575 0.961 . S
C560 C561 1.370 . S
C560 C562 1.363 . S
C560 H576 0.931 . S
C561 C560 1.370 . S
C561 C565 1.408 . S
C562 C560 1.363 . S
C562 C563 1.370 . S
C562 C566 1.524 . S
C563 C555 1.503 . S
C563 C562 1.370 . S
C563 C564 1.403 . S
C564 C563 1.403 . S
C564 C565 1.404 . S
C564 C567 1.539 . S
C565 C561 1.408 . S
C565 C564 1.404 . S
C565 H577 0.930 . S
C566 C562 1.524 . S
C566 H578 0.956 . S
C566 H579 0.961 . S
C566 H580 0.961 . S
C567 C564 1.539 . S
C567 H581 0.958 . S
C567 H582 0.961 . S
C567 H583 0.960 . S
H568 C552 0.931 . S
H569 C557 0.929 . S
H570 C558 0.960 . S
H571 C558 0.962 . S
H572 C558 0.960 . S
H573 C559 0.961 . S
H574 C559 0.961 . S
H575 C559 0.961 . S
H576 C560 0.931 . S
H577 C565 0.930 . S
H578 C566 0.956 . S
H579 C566 0.961 . S
H580 C566 0.961 . S
H581 C567 0.958 . S
H582 C567 0.961 . S
H583 C567 0.960 . S
C584 C585 1.391 . S
C584 C586 1.394 . S
C584 H600 0.931 . S
C585 C584 1.391 . S
C585 C589 1.376 . S
C586 C584 1.394 . S
C586 C587 1.369 . S
C586 C590 1.531 . S
C587 C586 1.369 . S
C587 C588 1.410 . S
C587 C595 1.503 . S
C588 C587 1.410 . S
C588 C589 1.392 . S
C588 C591 1.511 . S
C589 C585 1.376 . S
C589 C588 1.392 . S
C589 H601 0.929 . S
C590 C586 1.531 . S
C590 H602 0.960 . S
C590 H603 0.962 . S
C590 H604 0.960 . S
C591 C588 1.511 . S
C591 H605 0.961 . S
C591 H606 0.961 . S
C591 H607 0.961 . S
C592 C593 1.370 . S
C592 C594 1.363 . S
C592 H608 0.931 . S
C593 C592 1.370 . S
C593 C597 1.408 . S
C594 C592 1.363 . S
C594 C595 1.370 . S
C594 C598 1.524 . S
C595 C587 1.503 . S
C595 C594 1.370 . S
C595 C596 1.403 . S
C596 C595 1.403 . S
C596 C597 1.404 . S
C596 C599 1.539 . S
C597 C593 1.408 . S
C597 C596 1.404 . S
C597 H609 0.930 . S
C598 C594 1.524 . S
C598 H610 0.956 . S
C598 H611 0.961 . S
C598 H612 0.961 . S
C599 C596 1.539 . S
C599 H613 0.958 . S
C599 H614 0.961 . S
C599 H615 0.960 . S
H600 C584 0.931 . S
H601 C589 0.929 . S
H602 C590 0.960 . S
H603 C590 0.962 . S
H604 C590 0.960 . S
H605 C591 0.961 . S
H606 C591 0.961 . S
H607 C591 0.961 . S
H608 C592 0.931 . S
H609 C597 0.930 . S
H610 C598 0.956 . S
H611 C598 0.961 . S
H612 C598 0.961 . S
H613 C599 0.958 . S
H614 C599 0.961 . S
H615 C599 0.960 . S
C616 C617 1.391 . S
C616 C618 1.394 1_545 S
C616 H632 0.931 . S
C617 C616 1.391 . S
C617 C621 1.376 . S
C618 C616 1.394 1_565 S
C618 C619 1.369 . S
C618 C622 1.531 . S
C619 C618 1.369 . S
C619 C620 1.410 . S
C619 C627 1.503 . S
C620 C619 1.410 . S
C620 C621 1.392 1_565 S
C620 C623 1.511 . S
C621 C617 1.376 . S
C621 C620 1.392 1_545 S
C621 H633 0.929 . S
C622 C618 1.531 . S
C622 H634 0.960 . S
C622 H635 0.962 . S
C622 H636 0.960 1_565 S
C623 C620 1.511 . S
C623 H637 0.961 . S
C623 H638 0.961 . S
C623 H639 0.961 . S
C624 C625 1.370 . S
C624 C626 1.363 . S
C624 H640 0.931 . S
C625 C624 1.370 . S
C625 C629 1.408 . S
C626 C624 1.363 . S
C626 C627 1.370 . S
C626 C630 1.524 . S
C627 C619 1.503 . S
C627 C626 1.370 . S
C627 C628 1.403 . S
C628 C627 1.403 . S
C628 C629 1.404 . S
C628 C631 1.539 . S
C629 C625 1.408 . S
C629 C628 1.404 . S
C629 H641 0.930 . S
C630 C626 1.524 . S
C630 H642 0.956 . S
C630 H643 0.961 . S
C630 H644 0.961 . S
C631 C628 1.539 . S
C631 H645 0.958 . S
C631 H646 0.961 . S
C631 H647 0.960 . S
H632 C616 0.931 . S
H633 C621 0.929 . S
H634 C622 0.960 . S
H635 C622 0.962 . S
H636 C622 0.960 1_545 S
H637 C623 0.961 . S
H638 C623 0.961 . S
H639 C623 0.961 . S
H640 C624 0.931 . S
H641 C629 0.930 . S
H642 C630 0.956 . S
H643 C630 0.961 . S
H644 C630 0.961 . S
H645 C631 0.958 . S
H646 C631 0.961 . S
H647 C631 0.960 . S
C648 C649 1.391 . S
C648 C650 1.394 . S
C648 H664 0.931 . S
C649 C648 1.391 . S
C649 C653 1.376 1_554 S
C650 C648 1.394 . S
C650 C651 1.369 . S
C650 C654 1.531 . S
C651 C650 1.369 . S
C651 C652 1.410 1_554 S
C651 C659 1.503 1_554 S
C652 C651 1.410 1_556 S
C652 C653 1.392 . S
C652 C655 1.511 . S
C653 C649 1.376 1_556 S
C653 C652 1.392 . S
C653 H665 0.929 . S
C654 C650 1.531 . S
C654 H666 0.960 . S
C654 H667 0.962 1_554 S
C654 H668 0.960 . S
C655 C652 1.511 . S
C655 H669 0.961 . S
C655 H670 0.961 . S
C655 H671 0.961 1_556 S
C656 C657 1.370 . S
C656 C658 1.363 . S
C656 H672 0.931 . S
C657 C656 1.370 . S
C657 C661 1.408 1_556 S
C658 C656 1.363 . S
C658 C659 1.370 . S
C658 C662 1.524 . S
C659 C651 1.503 1_556 S
C659 C658 1.370 . S
C659 C660 1.403 1_556 S
C660 C659 1.403 1_554 S
C660 C661 1.404 . S
C660 C663 1.539 . S
C661 C657 1.408 1_554 S
C661 C660 1.404 . S
C661 H673 0.930 . S
C662 C658 1.524 . S
C662 H674 0.956 . S
C662 H675 0.961 . S
C662 H676 0.961 . S
C663 C660 1.539 . S
C663 H677 0.958 . S
C663 H678 0.961 . S
C663 H679 0.960 . S
H664 C648 0.931 . S
H665 C653 0.929 . S
H666 C654 0.960 . S
H667 C654 0.962 1_556 S
H668 C654 0.960 . S
H669 C655 0.961 . S
H670 C655 0.961 . S
H671 C655 0.961 1_554 S
H672 C656 0.931 . S
H673 C661 0.930 . S
H674 C662 0.956 . S
H675 C662 0.961 . S
H676 C662 0.961 . S
H677 C663 0.958 . S
H678 C663 0.961 . S
H679 C663 0.960 . S
C680 C681 1.391 . S
C680 C682 1.394 . S
C680 H696 0.931 . S
C681 C680 1.391 . S
C681 C685 1.376 1_556 S
C682 C680 1.394 . S
C682 C683 1.369 . S
C682 C686 1.531 . S
C683 C682 1.369 . S
C683 C684 1.410 1_556 S
C683 C691 1.503 . S
C684 C683 1.410 1_554 S
C684 C685 1.392 . S
C684 C687 1.511 . S
C685 C681 1.376 1_554 S
C685 C684 1.392 . S
C685 H697 0.929 . S
C686 C682 1.531 . S
C686 H698 0.960 . S
C686 H699 0.962 . S
C686 H700 0.960 . S
C687 C684 1.511 . S
C687 H701 0.961 . S
C687 H702 0.961 . S
C687 H703 0.961 . S
C688 C689 1.370 . S
C688 C690 1.363 . S
C688 H704 0.931 1_655 S
C689 C688 1.370 . S
C689 C693 1.408 1_554 S
C690 C688 1.363 . S
C690 C691 1.370 1_554 S
C690 C694 1.524 . S
C691 C683 1.503 . S
C691 C690 1.370 1_556 S
C691 C692 1.403 . S
C692 C691 1.403 . S
C692 C693 1.404 . S
C692 C695 1.539 . S
C693 C689 1.408 1_556 S
C693 C692 1.404 . S
C693 H705 0.930 . S
C694 C690 1.524 . S
C694 H706 0.956 . S
C694 H707 0.961 . S
C694 H708 0.961 . S
C695 C692 1.539 . S
C695 H709 0.958 . S
C695 H710 0.961 . S
C695 H711 0.960 . S
H696 C680 0.931 . S
H697 C685 0.929 . S
H698 C686 0.960 . S
H699 C686 0.962 . S
H700 C686 0.960 . S
H701 C687 0.961 . S
H702 C687 0.961 . S
H703 C687 0.961 . S
H704 C688 0.931 1_455 S
H705 C693 0.930 . S
H706 C694 0.956 . S
H707 C694 0.961 . S
H708 C694 0.961 . S
H709 C695 0.958 . S
H710 C695 0.961 . S
H711 C695 0.960 . S
C712 C713 1.391 . S
C712 C714 1.393 1_554 S
C712 H728 0.931 . S
C713 C712 1.391 . S
C713 C717 1.376 . S
C714 C712 1.393 1_556 S
C714 C715 1.368 1_556 S
C714 C718 1.532 . S
C715 C714 1.368 1_554 S
C715 C716 1.410 . S
C715 C723 1.503 1_554 S
C716 C715 1.410 . S
C716 C717 1.392 . S
C716 C719 1.511 . S
C717 C713 1.376 . S
C717 C716 1.392 . S
C717 H729 0.929 . S
C718 C714 1.532 . S
C718 H730 0.960 1_556 S
C718 H731 0.962 . S
C718 H732 0.960 1_556 S
C719 C716 1.511 . S
C719 H733 0.961 . S
C719 H734 0.961 1_554 S
C719 H735 0.961 . S
C720 C721 1.370 . S
C720 C722 1.363 1_455 S
C720 H736 0.931 . S
C721 C720 1.370 . S
C721 C725 1.408 1_556 S
C722 C720 1.363 1_655 S
C722 C723 1.370 . S
C722 C726 1.524 . S
C723 C715 1.503 1_556 S
C723 C722 1.370 . S
C723 C724 1.403 1_556 S
C724 C723 1.403 1_554 S
C724 C725 1.404 1_655 S
C724 C727 1.539 . S
C725 C721 1.408 1_554 S
C725 C724 1.404 1_455 S
C725 H737 0.930 . S
C726 C722 1.524 . S
C726 H738 0.956 . S
C726 H739 0.961 . S
C726 H740 0.961 . S
C727 C724 1.539 . S
C727 H741 0.958 . S
C727 H742 1.003 . S
C727 H743 0.960 . S
H728 C712 0.931 . S
H729 C717 0.929 . S
H730 C718 0.960 1_554 S
H731 C718 0.962 . S
H732 C718 0.960 1_554 S
H733 C719 0.961 . S
H734 C719 0.961 1_556 S
H735 C719 0.961 . S
H736 C720 0.931 . S
H737 C725 0.930 . S
H738 C726 0.956 . S
H739 C726 0.961 . S
H740 C726 0.961 . S
H741 C727 0.958 . S
H742 C727 1.003 . S
H743 C727 0.960 . S
C744 C745 1.391 . S
C744 C746 1.394 . S
C744 H760 0.931 . S
C745 C744 1.391 . S
C745 C749 1.376 . S
C746 C744 1.394 . S
C746 C747 1.369 . S
C746 C750 1.531 . S
C747 C746 1.369 . S
C747 C748 1.410 . S
C747 C755 1.503 . S
C748 C747 1.410 . S
C748 C749 1.392 . S
C748 C751 1.511 . S
C749 C745 1.376 . S
C749 C748 1.392 . S
C749 H761 0.929 . S
C750 C746 1.531 . S
C750 H762 0.960 . S
C750 H763 0.962 . S
C750 H764 0.960 . S
C751 C748 1.511 . S
C751 H765 0.961 . S
C751 H766 0.961 . S
C751 H767 0.961 . S
C752 C753 1.370 . S
C752 C754 1.363 . S
C752 H768 0.931 . S
C753 C752 1.370 . S
C753 C757 1.408 . S
C754 C752 1.363 . S
C754 C755 1.370 . S
C754 C758 1.524 . S
C755 C747 1.503 . S
C755 C754 1.370 . S
C755 C756 1.403 . S
C756 C755 1.403 . S
C756 C757 1.404 . S
C756 C759 1.539 . S
C757 C753 1.408 . S
C757 C756 1.404 . S
C757 H769 0.930 . S
C758 C754 1.524 . S
C758 H770 0.956 . S
C758 H771 0.961 . S
C758 H772 0.961 . S
C759 C756 1.539 . S
C759 H773 0.958 . S
C759 H774 0.961 . S
C759 H775 0.960 . S
H760 C744 0.931 . S
H761 C749 0.929 . S
H762 C750 0.960 . S
H763 C750 0.962 . S
H764 C750 0.960 . S
H765 C751 0.961 . S
H766 C751 0.961 . S
H767 C751 0.961 . S
H768 C752 0.931 . S
H769 C757 0.930 . S
H770 C758 0.956 . S
H771 C758 0.961 . S
H772 C758 0.961 . S
H773 C759 0.958 . S
H774 C759 0.961 . S
H775 C759 0.960 . S
C776 C777 1.391 . S
C776 C778 1.394 . S
C776 H792 0.931 . S
C777 C776 1.391 . S
C777 C781 1.376 . S
C778 C776 1.394 . S
C778 C779 1.369 . S
C778 C782 1.531 . S
C779 C778 1.369 . S
C779 C780 1.410 . S
C779 C787 1.503 . S
C780 C779 1.410 . S
C780 C781 1.392 . S
C780 C783 1.511 . S
C781 C777 1.376 . S
C781 C780 1.392 . S
C781 H793 0.929 . S
C782 C778 1.531 . S
C782 H794 0.960 . S
C782 H795 0.962 . S
C782 H796 0.960 . S
C783 C780 1.511 . S
C783 H797 0.961 . S
C783 H798 0.961 . S
C783 H799 0.961 . S
C784 C785 1.370 . S
C784 C786 1.363 . S
C784 H800 0.931 . S
C785 C784 1.370 . S
C785 C789 1.408 . S
C786 C784 1.363 . S
C786 C787 1.370 . S
C786 C790 1.524 . S
C787 C779 1.503 . S
C787 C786 1.370 . S
C787 C788 1.403 . S
C788 C787 1.403 . S
C788 C789 1.404 . S
C788 C791 1.539 . S
C789 C785 1.408 . S
C789 C788 1.404 . S
C789 H801 0.930 . S
C790 C786 1.524 . S
C790 H802 0.956 . S
C790 H803 0.961 . S
C790 H804 0.961 . S
C791 C788 1.539 . S
C791 H805 0.958 . S
C791 H806 0.961 . S
C791 H807 0.960 . S
H792 C776 0.931 . S
H793 C781 0.929 . S
H794 C782 0.960 . S
H795 C782 0.962 . S
H796 C782 0.960 . S
H797 C783 0.961 . S
H798 C783 0.961 . S
H799 C783 0.961 . S
H800 C784 0.931 . S
H801 C789 0.930 . S
H802 C790 0.956 . S
H803 C790 0.961 . S
H804 C790 0.961 . S
H805 C791 0.958 . S
H806 C791 0.961 . S
H807 C791 0.960 . S
C808 C809 1.391 . S
C808 C810 1.394 . S
C808 H824 0.931 . S
C809 C808 1.391 . S
C809 C813 1.376 . S
C810 C808 1.394 . S
C810 C811 1.369 . S
C810 C814 1.531 . S
C811 C810 1.369 . S
C811 C812 1.410 . S
C811 C819 1.503 . S
C812 C811 1.410 . S
C812 C813 1.392 . S
C812 C815 1.511 . S
C813 C809 1.376 . S
C813 C812 1.392 . S
C813 H825 0.929 . S
C814 C810 1.531 . S
C814 H826 0.960 . S
C814 H827 0.962 . S
C814 H828 0.960 . S
C815 C812 1.511 . S
C815 H829 0.961 . S
C815 H830 0.961 . S
C815 H831 0.961 . S
C816 C817 1.370 . S
C816 C818 1.363 . S
C816 H832 0.931 . S
C817 C816 1.370 . S
C817 C821 1.408 . S
C818 C816 1.363 . S
C818 C819 1.370 . S
C818 C822 1.524 . S
C819 C811 1.503 . S
C819 C818 1.370 . S
C819 C820 1.403 . S
C820 C819 1.403 . S
C820 C821 1.404 . S
C820 C823 1.539 . S
C821 C817 1.408 . S
C821 C820 1.404 . S
C821 H833 0.930 . S
C822 C818 1.524 . S
C822 H834 0.956 . S
C822 H835 0.961 . S
C822 H836 0.961 . S
C823 C820 1.539 . S
C823 H837 0.958 . S
C823 H838 0.961 . S
C823 H839 0.960 . S
H824 C808 0.931 . S
H825 C813 0.929 . S
H826 C814 0.960 . S
H827 C814 0.962 . S
H828 C814 0.960 . S
H829 C815 0.961 . S
H830 C815 0.961 . S
H831 C815 0.961 . S
H832 C816 0.931 . S
H833 C821 0.930 . S
H834 C822 0.956 . S
H835 C822 0.961 . S
H836 C822 0.961 . S
H837 C823 0.958 . S
H838 C823 0.961 . S
H839 C823 0.960 . S
C840 C841 1.391 . S
C840 C842 1.394 . S
C840 H856 0.931 . S
C841 C840 1.391 . S
C841 C845 1.376 . S
C842 C840 1.394 . S
C842 C843 1.369 . S
C842 C846 1.531 . S
C843 C842 1.369 . S
C843 C844 1.410 . S
C843 C851 1.503 . S
C844 C843 1.410 . S
C844 C845 1.392 . S
C844 C847 1.511 . S
C845 C841 1.376 . S
C845 C844 1.392 . S
C845 H857 0.929 . S
C846 C842 1.531 . S
C846 H858 0.960 . S
C846 H859 0.962 . S
C846 H860 0.960 . S
C847 C844 1.511 . S
C847 H861 0.961 . S
C847 H862 0.961 . S
C847 H863 0.961 . S
C848 C849 1.370 . S
C848 C850 1.363 . S
C848 H864 0.931 . S
C849 C848 1.370 . S
C849 C853 1.408 . S
C850 C848 1.363 . S
C850 C851 1.370 . S
C850 C854 1.524 . S
C851 C843 1.503 . S
C851 C850 1.370 . S
C851 C852 1.403 . S
C852 C851 1.403 . S
C852 C853 1.404 . S
C852 C855 1.539 . S
C853 C849 1.408 . S
C853 C852 1.404 . S
C853 H865 0.930 . S
C854 C850 1.524 . S
C854 H866 0.956 . S
C854 H867 0.961 . S
C854 H868 0.961 . S
C855 C852 1.539 . S
C855 H869 0.958 . S
C855 H870 0.961 . S
C855 H871 0.960 . S
H856 C840 0.931 . S
H857 C845 0.929 . S
H858 C846 0.960 . S
H859 C846 0.962 . S
H860 C846 0.960 . S
H861 C847 0.961 . S
H862 C847 0.961 . S
H863 C847 0.961 . S
H864 C848 0.931 . S
H865 C853 0.930 . S
H866 C854 0.956 . S
H867 C854 0.961 . S
H868 C854 0.961 . S
H869 C855 0.958 . S
H870 C855 0.961 . S
H871 C855 0.960 . S
C872 C873 1.391 . S
C872 C874 1.394 . S
C872 H888 0.931 . S
C873 C872 1.391 . S
C873 C877 1.376 . S
C874 C872 1.394 . S
C874 C875 1.369 . S
C874 C878 1.531 . S
C875 C874 1.369 . S
C875 C876 1.410 . S
C875 C883 1.503 . S
C876 C875 1.410 . S
C876 C877 1.392 . S
C876 C879 1.511 . S
C877 C873 1.376 . S
C877 C876 1.392 . S
C877 H889 0.929 . S
C878 C874 1.531 . S
C878 H890 0.960 . S
C878 H891 0.962 . S
C878 H892 0.960 . S
C879 C876 1.511 . S
C879 H893 0.961 . S
C879 H894 0.961 . S
C879 H895 0.961 . S
C880 C881 1.370 . S
C880 C882 1.363 . S
C880 H896 0.931 . S
C881 C880 1.370 . S
C881 C885 1.408 . S
C882 C880 1.363 . S
C882 C883 1.370 . S
C882 C886 1.524 . S
C883 C875 1.503 . S
C883 C882 1.370 . S
C883 C884 1.403 . S
C884 C883 1.403 . S
C884 C885 1.404 . S
C884 C887 1.539 . S
C885 C881 1.408 . S
C885 C884 1.404 . S
C885 H897 0.930 . S
C886 C882 1.524 . S
C886 H898 0.956 . S
C886 H899 0.961 . S
C886 H900 0.961 . S
C887 C884 1.539 . S
C887 H901 0.958 . S
C887 H902 0.961 . S
C887 H903 0.960 . S
H888 C872 0.931 . S
H889 C877 0.929 . S
H890 C878 0.960 . S
H891 C878 0.962 . S
H892 C878 0.960 . S
H893 C879 0.961 . S
H894 C879 0.961 . S
H895 C879 0.961 . S
H896 C880 0.931 . S
H897 C885 0.930 . S
H898 C886 0.956 . S
H899 C886 0.961 . S
H900 C886 0.961 . S
H901 C887 0.958 . S
H902 C887 0.961 . S
H903 C887 0.960 . S
C904 C905 1.391 . S
C904 C906 1.394 . S
C904 H920 0.931 . S
C905 C904 1.391 . S
C905 C909 1.376 . S
C906 C904 1.394 . S
C906 C907 1.369 . S
C906 C910 1.531 . S
C907 C906 1.369 . S
C907 C908 1.410 . S
C907 C915 1.503 . S
C908 C907 1.410 . S
C908 C909 1.392 . S
C908 C911 1.511 . S
C909 C905 1.376 . S
C909 C908 1.392 . S
C909 H921 0.929 . S
C910 C906 1.531 . S
C910 H922 0.960 . S
C910 H923 0.962 . S
C910 H924 0.960 . S
C911 C908 1.511 . S
C911 H925 0.961 . S
C911 H926 0.961 . S
C911 H927 0.961 . S
C912 C913 1.370 . S
C912 C914 1.363 . S
C912 H928 0.931 . S
C913 C912 1.370 . S
C913 C917 1.408 . S
C914 C912 1.363 . S
C914 C915 1.370 . S
C914 C918 1.524 . S
C915 C907 1.503 . S
C915 C914 1.370 . S
C915 C916 1.403 . S
C916 C915 1.403 . S
C916 C917 1.404 . S
C916 C919 1.539 . S
C917 C913 1.408 . S
C917 C916 1.404 . S
C917 H929 0.930 . S
C918 C914 1.524 . S
C918 H930 0.956 . S
C918 H931 0.961 . S
C918 H932 0.961 . S
C919 C916 1.539 . S
C919 H933 0.958 . S
C919 H934 0.961 . S
C919 H935 0.960 . S
H920 C904 0.931 . S
H921 C909 0.929 . S
H922 C910 0.960 . S
H923 C910 0.962 . S
H924 C910 0.960 . S
H925 C911 0.961 . S
H926 C911 0.961 . S
H927 C911 0.961 . S
H928 C912 0.931 . S
H929 C917 0.930 . S
H930 C918 0.956 . S
H931 C918 0.961 . S
H932 C918 0.961 . S
H933 C919 0.958 . S
H934 C919 0.961 . S
H935 C919 0.960 . S
C936 C937 1.391 . S
C936 C938 1.394 . S
C936 H952 0.931 1_455 S
C937 C936 1.391 . S
C937 C941 1.376 . S
C938 C936 1.394 . S
C938 C939 1.369 . S
C938 C942 1.531 1_455 S
C939 C938 1.369 . S
C939 C940 1.410 . S
C939 C947 1.503 . S
C940 C939 1.410 . S
C940 C941 1.392 . S
C940 C943 1.511 . S
C941 C937 1.376 . S
C941 C940 1.392 . S
C941 H953 0.929 . S
C942 C938 1.531 1_655 S
C942 H954 0.960 . S
C942 H955 0.962 . S
C942 H956 0.960 . S
C943 C940 1.511 . S
C943 H957 0.961 . S
C943 H958 0.961 . S
C943 H959 0.961 . S
C944 C945 1.370 . S
C944 C946 1.363 . S
C944 H960 0.931 1_455 S
C945 C944 1.370 . S
C945 C949 1.408 . S
C946 C944 1.363 . S
C946 C947 1.370 . S
C946 C950 1.524 1_455 S
C947 C939 1.503 . S
C947 C946 1.370 . S
C947 C948 1.403 . S
C948 C947 1.403 . S
C948 C949 1.404 . S
C948 C951 1.539 . S
C949 C945 1.408 . S
C949 C948 1.404 . S
C949 H961 0.930 . S
C950 C946 1.524 1_655 S
C950 H962 0.956 . S
C950 H963 0.984 . S
C950 H964 0.961 . S
C951 C948 1.539 . S
C951 H965 0.958 . S
C951 H966 0.961 . S
C951 H967 0.960 . S
H952 C936 0.931 1_655 S
H953 C941 0.929 . S
H954 C942 0.960 . S
H955 C942 0.962 . S
H956 C942 0.960 . S
H957 C943 0.961 . S
H958 C943 0.961 . S
H959 C943 0.961 . S
H960 C944 0.931 1_655 S
H961 C949 0.930 . S
H962 C950 0.956 . S
H963 C950 0.984 . S
H964 C950 0.961 . S
H965 C951 0.958 . S
H966 C951 0.961 . S
H967 C951 0.960 . S
C968 C969 1.391 . S
C968 C970 1.394 . S
C968 H984 0.931 . S
C969 C968 1.391 . S
C969 C973 1.376 . S
C970 C968 1.394 . S
C970 C971 1.369 . S
C970 C974 1.531 . S
C971 C970 1.369 . S
C971 C972 1.410 . S
C971 C979 1.503 . S
C972 C971 1.410 . S
C972 C973 1.392 . S
C972 C975 1.511 . S
C973 C969 1.376 . S
C973 C972 1.392 . S
C973 H985 0.929 . S
C974 C970 1.531 . S
C974 H986 0.960 . S
C974 H987 0.962 . S
C974 H988 0.960 . S
C975 C972 1.511 . S
C975 H989 0.961 . S
C975 H990 0.961 . S
C975 H991 0.961 . S
C976 C977 1.370 . S
C976 C978 1.363 . S
C976 H992 0.931 . S
C977 C976 1.370 . S
C977 C981 1.408 . S
C978 C976 1.363 . S
C978 C979 1.370 . S
C978 C982 1.524 . S
C979 C971 1.503 . S
C979 C978 1.370 . S
C979 C980 1.403 . S
C980 C979 1.403 . S
C980 C981 1.404 . S
C980 C983 1.539 . S
C981 C977 1.408 . S
C981 C980 1.404 . S
C981 H993 0.930 . S
C982 C978 1.524 . S
C982 H994 0.956 . S
C982 H995 0.961 . S
C982 H996 0.961 . S
C983 C980 1.539 . S
C983 H997 0.958 . S
C983 H998 0.961 . S
C983 H999 0.960 . S
H984 C968 0.931 . S
H985 C973 0.929 . S
H986 C974 0.960 . S
H987 C974 0.962 . S
H988 C974 0.960 . S
H989 C975 0.961 . S
H990 C975 0.961 . S
H991 C975 0.961 . S
H992 C976 0.931 . S
H993 C981 0.930 . S
H994 C982 0.956 . S
H995 C982 0.961 . S
H996 C982 0.961 . S
H997 C983 0.958 . S
H998 C983 0.961 . S
H999 C983 0.960 . S
C1000 C1001 1.391 . S
C1000 C1002 1.394 . S
C1000 H1016 0.931 . S
C1001 C1000 1.391 . S
C1001 C1005 1.376 . S
C1002 C1000 1.394 . S
C1002 C1003 1.369 . S
C1002 C1006 1.531 . S
C1003 C1002 1.369 . S
C1003 C1004 1.410 . S
C1003 C1011 1.503 . S
C1004 C1003 1.410 . S
C1004 C1005 1.392 . S
C1004 C1007 1.471 1_545 S
C1005 C1001 1.376 . S
C1005 C1004 1.392 . S
C1005 H1017 0.929 . S
C1006 C1002 1.531 . S
C1006 H1018 0.960 . S
C1006 H1019 0.962 . S
C1006 H1020 0.960 . S
C1007 C1004 1.471 1_565 S
C1007 H1021 1.004 . S
C1007 H1022 0.970 . S
C1007 H1023 0.953 1_565 S
C1008 C1009 1.370 . S
C1008 C1010 1.363 . S
C1008 H1024 0.931 1_545 S
C1009 C1008 1.370 . S
C1009 C1013 1.408 . S
C1010 C1008 1.363 . S
C1010 C1011 1.370 . S
C1010 C1014 1.524 1_545 S
C1011 C1003 1.503 . S
C1011 C1010 1.370 . S
C1011 C1012 1.403 . S
C1012 C1011 1.403 . S
C1012 C1013 1.404 . S
C1012 C1015 1.539 . S
C1013 C1009 1.408 . S
C1013 C1012 1.404 . S
C1013 H1025 0.930 . S
C1014 C1010 1.524 1_565 S
C1014 H1026 0.956 . S
C1014 H1027 0.961 . S
C1014 H1028 0.961 . S
C1015 C1012 1.539 . S
C1015 H1029 0.958 . S
C1015 H1030 0.961 . S
C1015 H1031 0.960 . S
H1016 C1000 0.931 . S
H1017 C1005 0.929 . S
H1018 C1006 0.960 . S
H1019 C1006 0.962 . S
H1020 C1006 0.960 . S
H1021 C1007 1.004 . S
H1022 C1007 0.970 . S
H1023 C1007 0.953 1_545 S
H1024 C1008 0.931 1_565 S
H1025 C1013 0.930 . S
H1026 C1014 0.956 . S
H1027 C1014 0.961 . S
H1028 C1014 0.961 . S
H1029 C1015 0.958 . S
H1030 C1015 0.961 . S
H1031 C1015 0.960 . S
C1032 C1033 1.391 . S
C1032 C1034 1.394 . S
C1032 H1048 0.931 . S
C1033 C1032 1.391 . S
C1033 C1037 1.376 . S
C1034 C1032 1.394 . S
C1034 C1035 1.369 . S
C1034 C1038 1.531 . S
C1035 C1034 1.369 . S
C1035 C1036 1.410 . S
C1035 C1043 1.503 . S
C1036 C1035 1.410 . S
C1036 C1037 1.392 . S
C1036 C1039 1.511 . S
C1037 C1033 1.376 . S
C1037 C1036 1.392 . S
C1037 H1049 0.929 . S
C1038 C1034 1.531 . S
C1038 H1050 0.960 . S
C1038 H1051 0.962 . S
C1038 H1052 0.960 . S
C1039 C1036 1.511 . S
C1039 H1053 0.961 . S
C1039 H1054 0.961 . S
C1039 H1055 0.961 . S
C1040 C1041 1.370 . S
C1040 C1042 1.363 1_554 S
C1040 H1056 0.931 . S
C1041 C1040 1.370 . S
C1041 C1045 1.408 . S
C1042 C1040 1.363 1_556 S
C1042 C1043 1.370 . S
C1042 C1046 1.524 . S
C1043 C1035 1.503 . S
C1043 C1042 1.370 . S
C1043 C1044 1.403 . S
C1044 C1043 1.403 . S
C1044 C1045 1.404 1_556 S
C1044 C1047 1.539 . S
C1045 C1041 1.408 . S
C1045 C1044 1.404 1_554 S
C1045 H1057 0.930 . S
C1046 C1042 1.524 . S
C1046 H1058 0.956 . S
C1046 H1059 0.961 . S
C1046 H1060 0.961 . S
C1047 C1044 1.539 . S
C1047 H1061 0.958 . S
C1047 H1062 0.961 . S
C1047 H1063 0.960 . S
H1048 C1032 0.931 . S
H1049 C1037 0.929 . S
H1050 C1038 0.960 . S
H1051 C1038 0.962 . S
H1052 C1038 0.960 . S
H1053 C1039 0.961 . S
H1054 C1039 0.961 . S
H1055 C1039 0.961 . S
H1056 C1040 0.931 . S
H1057 C1045 0.930 . S
H1058 C1046 0.956 . S
H1059 C1046 0.961 . S
H1060 C1046 0.961 . S
H1061 C1047 0.958 . S
H1062 C1047 0.961 . S
H1063 C1047 0.960 . S
C1064 C1065 1.391 . S
C1064 C1066 1.394 . S
C1064 H1080 0.931 . S
C1065 C1064 1.391 . S
C1065 C1069 1.376 . S
C1066 C1064 1.394 . S
C1066 C1067 1.369 . S
C1066 C1070 1.531 . S
C1067 C1066 1.369 . S
C1067 C1068 1.410 . S
C1067 C1075 1.503 . S
C1068 C1067 1.410 . S
C1068 C1069 1.392 . S
C1068 C1071 1.511 . S
C1069 C1065 1.376 . S
C1069 C1068 1.392 . S
C1069 H1081 0.929 . S
C1070 C1066 1.531 . S
C1070 H1082 0.960 . S
C1070 H1083 0.962 . S
C1070 H1084 0.960 . S
C1071 C1068 1.511 . S
C1071 H1085 0.961 . S
C1071 H1086 0.961 . S
C1071 H1087 0.961 . S
C1072 C1073 1.370 . S
C1072 C1074 1.363 1_554 S
C1072 H1088 0.931 . S
C1073 C1072 1.370 . S
C1073 C1077 1.408 . S
C1074 C1072 1.363 1_556 S
C1074 C1075 1.370 . S
C1074 C1078 1.524 . S
C1075 C1067 1.503 . S
C1075 C1074 1.370 . S
C1075 C1076 1.403 . S
C1076 C1075 1.403 . S
C1076 C1077 1.404 1_556 S
C1076 C1079 1.539 . S
C1077 C1073 1.408 . S
C1077 C1076 1.404 1_554 S
C1077 H1089 0.930 . S
C1078 C1074 1.524 . S
C1078 H1090 0.956 . S
C1078 H1091 0.961 . S
C1078 H1092 0.961 . S
C1079 C1076 1.539 . S
C1079 H1093 0.958 . S
C1079 H1094 0.961 . S
C1079 H1095 0.960 . S
H1080 C1064 0.931 . S
H1081 C1069 0.929 . S
H1082 C1070 0.960 . S
H1083 C1070 0.962 . S
H1084 C1070 0.960 . S
H1085 C1071 0.961 . S
H1086 C1071 0.961 . S
H1087 C1071 0.961 . S
H1088 C1072 0.931 . S
H1089 C1077 0.930 . S
H1090 C1078 0.956 . S
H1091 C1078 0.961 . S
H1092 C1078 0.961 . S
H1093 C1079 0.958 . S
H1094 C1079 0.961 . S
H1095 C1079 0.960 . S
C1096 C1097 1.391 . S
C1096 C1098 1.394 . S
C1096 H1112 0.931 . S
C1097 C1096 1.391 . S
C1097 C1101 1.376 . S
C1098 C1096 1.394 . S
C1098 C1099 1.369 . S
C1098 C1102 1.531 . S
C1099 C1098 1.369 . S
C1099 C1100 1.410 . S
C1099 C1107 1.503 . S
C1100 C1099 1.410 . S
C1100 C1101 1.392 . S
C1100 C1103 1.511 . S
C1101 C1097 1.376 . S
C1101 C1100 1.392 . S
C1101 H1113 0.929 . S
C1102 C1098 1.531 . S
C1102 H1114 0.960 . S
C1102 H1115 0.962 . S
C1102 H1116 0.960 . S
C1103 C1100 1.511 . S
C1103 H1117 0.961 . S
C1103 H1118 0.961 . S
C1103 H1119 0.961 . S
C1104 C1105 1.370 . S
C1104 C1106 1.363 1_554 S
C1104 H1120 0.931 . S
C1105 C1104 1.370 . S
C1105 C1109 1.408 . S
C1106 C1104 1.363 1_556 S
C1106 C1107 1.370 . S
C1106 C1110 1.524 . S
C1107 C1099 1.503 . S
C1107 C1106 1.370 . S
C1107 C1108 1.403 . S
C1108 C1107 1.403 . S
C1108 C1109 1.404 1_556 S
C1108 C1111 1.539 . S
C1109 C1105 1.408 . S
C1109 C1108 1.404 1_554 S
C1109 H1121 0.930 . S
C1110 C1106 1.524 . S
C1110 H1122 0.956 . S
C1110 H1123 0.961 . S
C1110 H1124 0.961 . S
C1111 C1108 1.539 . S
C1111 H1125 0.958 . S
C1111 H1126 0.961 . S
C1111 H1127 0.960 . S
H1112 C1096 0.931 . S
H1113 C1101 0.929 . S
H1114 C1102 0.960 . S
H1115 C1102 0.962 . S
H1116 C1102 0.960 . S
H1117 C1103 0.961 . S
H1118 C1103 0.961 . S
H1119 C1103 0.961 . S
H1120 C1104 0.931 . S
H1121 C1109 0.930 . S
H1122 C1110 0.956 . S
H1123 C1110 0.961 . S
H1124 C1110 0.961 . S
H1125 C1111 0.958 . S
H1126 C1111 0.961 . S
H1127 C1111 0.960 . S
C1128 C1129 1.391 . S
C1128 C1130 1.394 . S
C1128 H1144 0.931 . S
C1129 C1128 1.391 . S
C1129 C1133 1.376 . S
C1130 C1128 1.394 . S
C1130 C1131 1.369 . S
C1130 C1134 1.531 . S
C1131 C1130 1.369 . S
C1131 C1132 1.410 . S
C1131 C1139 1.503 . S
C1132 C1131 1.410 . S
C1132 C1133 1.392 . S
C1132 C1135 1.511 . S
C1133 C1129 1.376 . S
C1133 C1132 1.392 . S
C1133 H1145 0.929 . S
C1134 C1130 1.531 . S
C1134 H1146 0.960 . S
C1134 H1147 0.962 . S
C1134 H1148 0.960 . S
C1135 C1132 1.511 . S
C1135 H1149 0.961 . S
C1135 H1150 0.961 . S
C1135 H1151 0.961 . S
C1136 C1137 1.370 . S
C1136 C1138 1.363 1_556 S
C1136 H1152 0.931 . S
C1137 C1136 1.370 . S
C1137 C1141 1.408 . S
C1138 C1136 1.363 1_554 S
C1138 C1139 1.370 . S
C1138 C1142 1.524 . S
C1139 C1131 1.503 . S
C1139 C1138 1.370 . S
C1139 C1140 1.403 . S
C1140 C1139 1.403 . S
C1140 C1141 1.404 1_554 S
C1140 C1143 1.539 . S
C1141 C1137 1.408 . S
C1141 C1140 1.404 1_556 S
C1141 H1153 0.930 . S
C1142 C1138 1.524 . S
C1142 H1154 0.956 . S
C1142 H1155 0.961 . S
C1142 H1156 0.961 . S
C1143 C1140 1.539 . S
C1143 H1157 0.958 . S
C1143 H1158 0.961 . S
C1143 H1159 0.960 . S
H1144 C1128 0.931 . S
H1145 C1133 0.929 . S
H1146 C1134 0.960 . S
H1147 C1134 0.962 . S
H1148 C1134 0.960 . S
H1149 C1135 0.961 . S
H1150 C1135 0.961 . S
H1151 C1135 0.961 . S
H1152 C1136 0.931 . S
H1153 C1141 0.930 . S
H1154 C1142 0.956 . S
H1155 C1142 0.961 . S
H1156 C1142 0.961 . S
H1157 C1143 0.958 . S
H1158 C1143 0.961 . S
H1159 C1143 0.960 . S
C1160 C1161 1.391 . S
C1160 C1162 1.394 1_556 S
C1160 H1176 0.931 . S
C1161 C1160 1.391 . S
C1161 C1165 1.376 . S
C1162 C1160 1.394 1_554 S
C1162 C1163 1.369 . S
C1162 C1166 1.531 . S
C1163 C1162 1.369 . S
C1163 C1164 1.410 . S
C1163 C1171 1.503 . S
C1164 C1163 1.410 . S
C1164 C1165 1.392 1_554 S
C1164 C1167 1.511 . S
C1165 C1161 1.376 . S
C1165 C1164 1.392 1_556 S
C1165 H1177 0.929 . S
C1166 C1162 1.531 . S
C1166 H1178 0.960 . S
C1166 H1179 0.962 . S
C1166 H1180 0.960 . S
C1167 C1164 1.511 . S
C1167 H1181 0.961 . S
C1167 H1182 0.961 . S
C1167 H1183 0.961 . S
C1168 C1169 1.370 . S
C1168 C1170 1.363 . S
C1168 H1184 0.931 . S
C1169 C1168 1.370 . S
C1169 C1173 1.408 . S
C1170 C1168 1.363 . S
C1170 C1171 1.370 . S
C1170 C1174 1.524 . S
C1171 C1163 1.503 . S
C1171 C1170 1.370 . S
C1171 C1172 1.403 . S
C1172 C1171 1.403 . S
C1172 C1173 1.404 . S
C1172 C1175 1.539 . S
C1173 C1169 1.408 . S
C1173 C1172 1.404 . S
C1173 H1185 0.930 . S
C1174 C1170 1.524 . S
C1174 H1186 0.956 . S
C1174 H1187 0.961 . S
C1174 H1188 0.961 . S
C1175 C1172 1.539 . S
C1175 H1189 0.958 . S
C1175 H1190 0.961 . S
C1175 H1191 0.960 . S
H1176 C1160 0.931 . S
H1177 C1165 0.929 . S
H1178 C1166 0.960 . S
H1179 C1166 0.962 . S
H1180 C1166 0.960 . S
H1181 C1167 0.961 . S
H1182 C1167 0.961 . S
H1183 C1167 0.961 . S
H1184 C1168 0.931 . S
H1185 C1173 0.930 . S
H1186 C1174 0.956 . S
H1187 C1174 0.961 . S
H1188 C1174 0.961 . S
H1189 C1175 0.958 . S
H1190 C1175 0.961 . S
H1191 C1175 0.960 . S
C1192 C1193 1.391 . S
C1192 C1194 1.394 . S
C1192 H1208 0.931 . S
C1193 C1192 1.391 . S
C1193 C1197 1.376 . S
C1194 C1192 1.394 . S
C1194 C1195 1.369 . S
C1194 C1198 1.531 . S
C1195 C1194 1.369 . S
C1195 C1196 1.410 . S
C1195 C1203 1.503 . S
C1196 C1195 1.410 . S
C1196 C1197 1.392 . S
C1196 C1199 1.511 . S
C1197 C1193 1.376 . S
C1197 C1196 1.392 . S
C1197 H1209 0.929 . S
C1198 C1194 1.531 . S
C1198 H1210 0.960 . S
C1198 H1211 0.962 . S
C1198 H1212 0.960 . S
C1199 C1196 1.511 . S
C1199 H1213 0.961 . S
C1199 H1214 0.961 . S
C1199 H1215 0.961 . S
C1200 C1201 1.370 . S
C1200 C1202 1.363 1_556 S
C1200 H1216 0.931 . S
C1201 C1200 1.370 . S
C1201 C1205 1.408 . S
C1202 C1200 1.363 1_554 S
C1202 C1203 1.370 . S
C1202 C1206 1.524 . S
C1203 C1195 1.503 . S
C1203 C1202 1.370 . S
C1203 C1204 1.403 . S
C1204 C1203 1.403 . S
C1204 C1205 1.404 1_554 S
C1204 C1207 1.539 . S
C1205 C1201 1.408 . S
C1205 C1204 1.404 1_556 S
C1205 H1217 0.930 . S
C1206 C1202 1.524 . S
C1206 H1218 0.956 . S
C1206 H1219 0.961 . S
C1206 H1220 0.961 . S
C1207 C1204 1.539 . S
C1207 H1221 0.958 . S
C1207 H1222 0.961 . S
C1207 H1223 0.960 . S
H1208 C1192 0.931 . S
H1209 C1197 0.929 . S
H1210 C1198 0.960 . S
H1211 C1198 0.962 . S
H1212 C1198 0.960 . S
H1213 C1199 0.961 . S
H1214 C1199 0.961 . S
H1215 C1199 0.961 . S
H1216 C1200 0.931 . S
H1217 C1205 0.930 . S
H1218 C1206 0.956 . S
H1219 C1206 0.961 . S
H1220 C1206 0.961 . S
H1221 C1207 0.958 . S
H1222 C1207 0.961 . S
H1223 C1207 0.960 . S
C361 C19 1.763 . S
C369 C295 1.806 . S
C393 C59 1.764 . S
C401 C335 1.809 . S
C425 C99 1.775 . S
C433 C255 1.806 . S
C457 C179 1.774 . S
C465 C95 1.805 . S
C489 C219 1.720 . S
C497 C15 1.814 . S
C521 C55 1.796 . S
C529 C139 1.759 . S
C553 C299 1.734 . S
C561 C215 1.814 1_455 S
C585 C339 1.758 . S
C593 C135 1.810 . S
C617 C175 1.797 . S
C625 C259 1.762 . S
C649 C89 1.684 . S
C657 C5 1.667 . S
C681 C45 1.675 1_545 S
C689 C9 1.691 . S
C713 C49 1.686 . S
C721 C85 1.667 . S
C745 C125 1.684 . S
C753 C209 1.692 . S
C777 C129 1.689 . S
C785 C165 1.680 . S
C809 C169 1.687 . S
C817 C205 1.679 . S
C841 C329 1.683 . S
C849 C245 1.669 . S
C873 C285 1.680 . S
C881 C249 1.691 . S
C905 C325 1.678 . S
C913 C289 1.694 . S
C937 C18 1.109 . S
C945 C8 1.091 . S
C969 C58 1.061 . S
C977 C48 1.112 . S
C1001 C98 1.057 . S
C1009 C88 1.114 . S
C1033 C128 1.122 . S
C1041 C138 1.086 . S
C1065 C168 1.135 . S
C1073 C178 1.082 . S
C1097 C208 1.078 . S
C1105 C218 1.103 . S
C1129 C258 1.077 . S
C1137 C248 1.109 . S
C1161 C288 1.057 . S
C1169 C298 1.115 . S
C1193 C338 1.135 . S
C1201 C328 1.082 . S
