# Generated by pormake.
# Topology vbm, (6)-cn, num edge types: 1
# Building blocks:
#     Node 0, Type 0, BuildingBlock: CUWYAW_clean_sbu_0, # of connection points: 6
#     Node 1, Type 0, BuildingBlock: CUWYAW_clean_sbu_0, # of connection points: 6
#     Node 2, Type 0, BuildingBlock: CUWYAW_clean_sbu_0, # of connection points: 6
#     Node 3, Type 0, BuildingBlock: CUWYAW_clean_sbu_0, # of connection points: 6
#     Node 4, Type 0, BuildingBlock: CUWYAW_clean_sbu_0, # of connection points: 6
#     Node 5, Type 0, BuildingBlock: CUWYAW_clean_sbu_0, # of connection points: 6
#     Node 6, Type 0, BuildingBlock: CUWYAW_clean_sbu_0, # of connection points: 6
#     Node 7, Type 0, BuildingBlock: CUWYAW_clean_sbu_0, # of connection points: 6
#     Node 8, Type 0, BuildingBlock: CUWYAW_clean_sbu_0, # of connection points: 6
#     Node 9, Type 0, BuildingBlock: CUWYAW_clean_sbu_0, # of connection points: 6
#     Node 10, Type 0, BuildingBlock: CUWYAW_clean_sbu_0, # of connection points: 6
#     Node 11, Type 0, BuildingBlock: CUWYAW_clean_sbu_0, # of connection points: 6
#     Node 12, Type 0, BuildingBlock: CUWYAW_clean_sbu_0, # of connection points: 6
#     Node 13, Type 0, BuildingBlock: CUWYAW_clean_sbu_0, # of connection points: 6
#     Node 14, Type 0, BuildingBlock: CUWYAW_clean_sbu_0, # of connection points: 6
#     Node 15, Type 0, BuildingBlock: CUWYAW_clean_sbu_0, # of connection points: 6
#     Edge 16, Type (0, 0), BuildingBlock: OJICUG_clean_linker_0, # of connection points: 2
#     Edge 17, Type (0, 0), BuildingBlock: OJICUG_clean_linker_0, # of connection points: 2
#     Edge 18, Type (0, 0), BuildingBlock: OJICUG_clean_linker_0, # of connection points: 2
#     Edge 19, Type (0, 0), BuildingBlock: OJICUG_clean_linker_0, # of connection points: 2
#     Edge 20, Type (0, 0), BuildingBlock: OJICUG_clean_linker_0, # of connection points: 2
#     Edge 21, Type (0, 0), BuildingBlock: OJICUG_clean_linker_0, # of connection points: 2
#     Edge 22, Type (0, 0), BuildingBlock: OJICUG_clean_linker_0, # of connection points: 2
#     Edge 23, Type (0, 0), BuildingBlock: OJICUG_clean_linker_0, # of connection points: 2
#     Edge 24, Type (0, 0), BuildingBlock: OJICUG_clean_linker_0, # of connection points: 2
#     Edge 25, Type (0, 0), BuildingBlock: OJICUG_clean_linker_0, # of connection points: 2
#     Edge 26, Type (0, 0), BuildingBlock: OJICUG_clean_linker_0, # of connection points: 2
#     Edge 27, Type (0, 0), BuildingBlock: OJICUG_clean_linker_0, # of connection points: 2
#     Edge 28, Type (0, 0), BuildingBlock: OJICUG_clean_linker_0, # of connection points: 2
#     Edge 29, Type (0, 0), BuildingBlock: OJICUG_clean_linker_0, # of connection points: 2
#     Edge 30, Type (0, 0), BuildingBlock: OJICUG_clean_linker_0, # of connection points: 2
#     Edge 31, Type (0, 0), BuildingBlock: OJICUG_clean_linker_0, # of connection points: 2
#     Edge 32, Type (0, 0), BuildingBlock: OJICUG_clean_linker_0, # of connection points: 2
#     Edge 33, Type (0, 0), BuildingBlock: OJICUG_clean_linker_0, # of connection points: 2
#     Edge 34, Type (0, 0), BuildingBlock: OJICUG_clean_linker_0, # of connection points: 2
#     Edge 35, Type (0, 0), BuildingBlock: OJICUG_clean_linker_0, # of connection points: 2
#     Edge 36, Type (0, 0), BuildingBlock: OJICUG_clean_linker_0, # of connection points: 2
#     Edge 37, Type (0, 0), BuildingBlock: OJICUG_clean_linker_0, # of connection points: 2
#     Edge 38, Type (0, 0), BuildingBlock: OJICUG_clean_linker_0, # of connection points: 2
#     Edge 39, Type (0, 0), BuildingBlock: OJICUG_clean_linker_0, # of connection points: 2
#     Edge 40, Type (0, 0), BuildingBlock: OJICUG_clean_linker_0, # of connection points: 2
#     Edge 41, Type (0, 0), BuildingBlock: OJICUG_clean_linker_0, # of connection points: 2
#     Edge 42, Type (0, 0), BuildingBlock: OJICUG_clean_linker_0, # of connection points: 2
#     Edge 43, Type (0, 0), BuildingBlock: OJICUG_clean_linker_0, # of connection points: 2
#     Edge 44, Type (0, 0), BuildingBlock: OJICUG_clean_linker_0, # of connection points: 2
#     Edge 45, Type (0, 0), BuildingBlock: OJICUG_clean_linker_0, # of connection points: 2
#     Edge 46, Type (0, 0), BuildingBlock: OJICUG_clean_linker_0, # of connection points: 2
#     Edge 47, Type (0, 0), BuildingBlock: OJICUG_clean_linker_0, # of connection points: 2
#     Edge 48, Type (0, 0), BuildingBlock: OJICUG_clean_linker_0, # of connection points: 2
#     Edge 49, Type (0, 0), BuildingBlock: OJICUG_clean_linker_0, # of connection points: 2
#     Edge 50, Type (0, 0), BuildingBlock: OJICUG_clean_linker_0, # of connection points: 2
#     Edge 51, Type (0, 0), BuildingBlock: OJICUG_clean_linker_0, # of connection points: 2
#     Edge 52, Type (0, 0), BuildingBlock: OJICUG_clean_linker_0, # of connection points: 2
#     Edge 53, Type (0, 0), BuildingBlock: OJICUG_clean_linker_0, # of connection points: 2
#     Edge 54, Type (0, 0), BuildingBlock: OJICUG_clean_linker_0, # of connection points: 2
#     Edge 55, Type (0, 0), BuildingBlock: OJICUG_clean_linker_0, # of connection points: 2
#     Edge 56, Type (0, 0), BuildingBlock: OJICUG_clean_linker_0, # of connection points: 2
#     Edge 57, Type (0, 0), BuildingBlock: OJICUG_clean_linker_0, # of connection points: 2
#     Edge 58, Type (0, 0), BuildingBlock: OJICUG_clean_linker_0, # of connection points: 2
#     Edge 59, Type (0, 0), BuildingBlock: OJICUG_clean_linker_0, # of connection points: 2
#     Edge 60, Type (0, 0), BuildingBlock: OJICUG_clean_linker_0, # of connection points: 2
#     Edge 61, Type (0, 0), BuildingBlock: OJICUG_clean_linker_0, # of connection points: 2
#     Edge 62, Type (0, 0), BuildingBlock: OJICUG_clean_linker_0, # of connection points: 2
#     Edge 63, Type (0, 0), BuildingBlock: OJICUG_clean_linker_0, # of connection points: 2
# Relax obj value: 0.061
# Max RMSD: 0.151
# Mean RMSD: 0.151
data_MOF--net-vbm--node1-CUWYAW_clean_sbu_0--edge1-OJICUG_clean_linker_0
_symmetry_space_group_name_H-M    P1
_symmetry_Int_Tables_number       1
_symmetry_cell_setting            triclinic
loop_
_symmetry_equiv_pos_as_xyz
'x, y, z'
_cell_length_a     39.804077
_cell_length_b     21.343632
_cell_length_c     38.423809
_cell_angle_alpha  90.063704
_cell_angle_beta   90.035928
_cell_angle_gamma 89.86849
loop_
_atom_site_label
_atom_site_type_symbol
_atom_site_fract_x
_atom_site_fract_y
_atom_site_fract_z
_atom_type_partial_charge
C0 C 0.06391 0.32822 0.18328 0.0
Eu1 Eu 0.08707 0.21409 0.18458 0.0
C2 C 0.07622 0.39274 0.17827 0.0
C3 C 0.10585 0.41381 0.19431 0.0
C4 C 0.11592 0.47627 0.1909 0.0
C5 C 0.09653 0.51895 0.17145 0.0
C6 C 0.06731 0.49715 0.15475 0.0
C7 C 0.05727 0.43471 0.15818 0.0
C8 C 0.0881 0.13616 0.24076 0.0
C9 C 0.16894 0.21474 0.18851 0.0
C10 C 0.15098 0.97625 0.19492 0.0
Eu11 Eu 0.12767 0.08621 0.17795 0.0
C12 C 0.14643 0.9104 0.18485 0.0
C13 C 0.11974 0.89244 0.16321 0.0
C14 C 0.11299 0.82893 0.15757 0.0
C15 C 0.1328 0.78232 0.17352 0.0
C16 C 0.16032 0.80084 0.19409 0.0
C17 C 0.16701 0.86434 0.19974 0.0
C18 C 0.12008 0.13759 0.11366 0.0
C19 C 0.04627 0.09364 0.16232 0.0
O20 O 0.06401 0.29145 0.15592 0.0
O21 O 0.07331 0.29953 0.21183 0.0
O22 O 0.06185 0.16818 0.23133 0.0
O23 O 0.11237 0.14833 0.22083 0.0
O24 O 0.14088 0.24622 0.18263 0.0
O25 O 0.16977 0.15287 0.19167 0.0
O26 O 0.12484 1.00251 0.20962 0.0
O27 O 0.166 1.01319 0.17259 0.0
O28 O 0.13604 0.08555 0.11947 0.0
O29 O 0.10934 0.15916 0.14211 0.0
O30 O 0.07257 0.0589 0.17161 0.0
O31 O 0.04737 0.15528 0.16041 0.0
H32 H 0.12086 0.3824 0.21008 0.0
H33 H 0.13834 0.49152 0.20443 0.0
H34 H 0.05205 0.52845 0.13916 0.0
H35 H 0.03438 0.41938 0.14552 0.0
H36 H 0.10352 0.92749 0.15157 0.0
H37 H 0.0919 0.81631 0.14119 0.0
H38 H 0.17586 0.76633 0.20709 0.0
H39 H 0.18755 0.87745 0.21675 0.0
C40 C 0.89907 0.74598 0.18474 0.0
Eu41 Eu 0.87382 0.85919 0.18132 0.0
C42 C 0.88884 0.67959 0.18395 0.0
C43 C 0.91129 0.63379 0.19597 0.0
C44 C 0.90265 0.57029 0.19497 0.0
C45 C 0.87124 0.55113 0.18193 0.0
C46 C 0.84865 0.59746 0.17009 0.0
C47 C 0.85738 0.66108 0.17108 0.0
C48 C 0.87369 0.94177 0.23579 0.0
C49 C 0.79264 0.8554 0.18778 0.0
C50 C 0.81005 0.0909 0.16925 0.0
Eu51 Eu 0.8348 0.97715 0.16973 0.0
C52 C 0.82016 0.15722 0.17133 0.0
C53 C 0.79746 0.20345 0.16039 0.0
C54 C 0.80603 0.26688 0.16214 0.0
C55 C 0.83761 0.28558 0.1749 0.0
C56 C 0.86037 0.2389 0.18596 0.0
C57 C 0.85174 0.17525 0.18414 0.0
C58 C 0.83504 0.89974 0.11335 0.0
C59 C 0.91663 0.975 0.15969 0.0
O60 O 0.89597 0.77766 0.15579 0.0
O61 O 0.89017 0.77857 0.21204 0.0
O62 O 0.8999 0.91006 0.22609 0.0
O63 O 0.84885 0.92698 0.21723 0.0
O64 O 0.82039 0.8242 0.18057 0.0
O65 O 0.79232 0.91723 0.1895 0.0
O66 O 0.81346 0.05715 0.19741 0.0
O67 O 0.81857 0.06032 0.14113 0.0
O68 O 0.80905 0.93035 0.12466 0.0
O69 O 0.86017 0.91115 0.13261 0.0
O70 O 0.8897 1.00857 0.1679 0.0
O71 O 0.91549 0.91359 0.15787 0.0
H72 H 0.93575 0.64712 0.20589 0.0
H73 H 0.9209 0.53613 0.20382 0.0
H74 H 0.8241 0.58463 0.16029 0.0
H75 H 0.83966 0.69575 0.16169 0.0
H76 H 0.7729 0.19047 0.15058 0.0
H77 H 0.78767 0.30135 0.15393 0.0
H78 H 0.88502 0.25149 0.1956 0.0
H79 H 0.86966 0.14019 0.19267 0.0
C80 C 0.06447 0.74636 0.40343 0.0
Eu81 Eu 0.08753 0.86033 0.40048 0.0
C82 C 0.07766 0.68203 0.40637 0.0
C83 C 0.10792 0.66456 0.39028 0.0
C84 C 0.11926 0.60259 0.39195 0.0
C85 C 0.10046 0.55674 0.40958 0.0
C86 C 0.07045 0.57483 0.42621 0.0
C87 C 0.05921 0.6369 0.42461 0.0
C88 C 0.08807 0.93567 0.34316 0.0
C89 C 0.16918 0.85944 0.39389 0.0
C90 C 0.15057 0.09718 0.38608 0.0
Eu91 Eu 0.12774 0.9881 0.40482 0.0
C92 C 0.14716 0.16358 0.39559 0.0
C93 C 0.11972 0.18477 0.4153 0.0
C94 C 0.11443 0.24902 0.4202 0.0
C95 C 0.13647 0.29309 0.40542 0.0
C96 C 0.1647 0.27127 0.38693 0.0
C97 C 0.16993 0.20709 0.38203 0.0
C98 C 0.12107 0.94061 0.47009 0.0
C99 C 0.04661 0.98104 0.42143 0.0
O100 O 0.06758 0.78236 0.43089 0.0
O101 O 0.07078 0.7758 0.37427 0.0
O102 O 0.06176 0.90493 0.35346 0.0
O103 O 0.11245 0.924 0.36304 0.0
O104 O 0.14139 0.82796 0.40062 0.0
O105 O 0.16972 0.92125 0.39061 0.0
O106 O 0.12358 0.07133 0.37294 0.0
O107 O 0.16652 0.06043 0.4079 0.0
O108 O 0.13685 0.99216 0.463 0.0
O109 O 0.11003 0.91697 0.44224 0.0
O110 O 0.07252 1.01535 0.41089 0.0
O111 O 0.04821 0.91969 0.42481 0.0
H112 H 0.12252 0.69861 0.37596 0.0
H113 H 0.1427 0.59055 0.37926 0.0
H114 H 0.05512 0.54068 0.43961 0.0
H115 H 0.03573 0.64945 0.4371 0.0
H116 H 0.10176 0.15175 0.42583 0.0
H117 H 0.09229 0.26416 0.4343 0.0
H118 H 0.18244 0.30389 0.3757 0.0
H119 H 0.19122 0.1915 0.36671 0.0
C120 C 0.89853 0.32972 0.39945 0.0
Eu121 Eu 0.87458 0.2162 0.39693 0.0
C122 C 0.88696 0.39435 0.40511 0.0
C123 C 0.91056 0.44285 0.4065 0.0
C124 C 0.9 0.50506 0.40986 0.0
C125 C 0.86558 0.51983 0.41158 0.0
C126 C 0.84199 0.47087 0.41079 0.0
C127 C 0.85265 0.40856 0.40784 0.0
C128 C 0.87408 0.13999 0.33986 0.0
C129 C 0.79282 0.21588 0.39203 0.0
C130 C 0.81277 0.97796 0.3847 0.0
Eu131 Eu 0.83503 0.08815 0.40219 0.0
C132 C 0.81859 0.9121 0.39453 0.0
C133 C 0.79193 0.86935 0.39356 0.0
C134 C 0.7977 0.80561 0.39977 0.0
C135 C 0.83035 0.78338 0.40685 0.0
C136 C 0.85681 0.82693 0.40877 0.0
C137 C 0.85097 0.8906 0.40285 0.0
C138 C 0.84195 0.13669 0.46727 0.0
C139 C 0.91605 0.09616 0.41863 0.0
O140 O 0.89768 0.29219 0.42639 0.0
O141 O 0.88829 0.30271 0.37074 0.0
O142 O 0.90029 0.17127 0.34996 0.0
O143 O 0.84975 0.15149 0.35983 0.0
O144 O 0.8206 0.24791 0.39806 0.0
O145 O 0.79237 0.15401 0.38909 0.0
O146 O 0.83784 1.00604 0.36915 0.0
O147 O 0.79749 1.01391 0.40745 0.0
O148 O 0.82644 0.08476 0.4604 0.0
O149 O 0.85268 0.16034 0.43929 0.0
O150 O 0.89022 0.06118 0.40855 0.0
O151 O 0.91434 0.15762 0.42111 0.0
H152 H 0.93717 0.43268 0.40441 0.0
H153 H 0.91875 0.54177 0.41004 0.0
H154 H 0.81534 0.48078 0.41242 0.0
H155 H 0.83418 0.37155 0.40729 0.0
H156 H 0.76674 0.88507 0.38731 0.0
H157 H 0.77661 0.77371 0.39867 0.0
H158 H 0.88235 0.81172 0.41365 0.0
H159 H 0.87198 0.92273 0.40382 0.0
C160 C 0.80825 0.08999 0.90894 0.0
Eu161 Eu 0.83285 0.97615 0.90843 0.0
C162 C 0.81846 0.15624 0.90685 0.0
C163 C 0.79603 0.20257 0.91827 0.0
C164 C 0.80467 0.26594 0.91645 0.0
C165 C 0.83604 0.28448 0.90314 0.0
C166 C 0.85853 0.2377 0.89161 0.0
C167 C 0.84984 0.1741 0.8935 0.0
C168 C 0.83367 0.89909 0.96483 0.0
C169 C 0.91454 0.97372 0.91849 0.0
C170 C 0.8971 0.74481 0.89244 0.0
Eu171 Eu 0.87181 0.85791 0.89644 0.0
C172 C 0.88697 0.6784 0.89338 0.0
C173 C 0.9093 0.63265 0.88104 0.0
C174 C 0.90074 0.56913 0.88215 0.0
C175 C 0.86955 0.54992 0.89565 0.0
C176 C 0.84708 0.5962 0.90782 0.0
C177 C 0.85572 0.65985 0.9067 0.0
C178 C 0.87177 0.94111 0.84239 0.0
C179 C 0.79056 0.85467 0.89069 0.0
O180 O 0.81155 0.05612 0.88077 0.0
O181 O 0.81678 0.05949 0.93706 0.0
O182 O 0.80758 0.92986 0.95388 0.0
O183 O 0.85854 0.90998 0.9452 0.0
O184 O 0.88764 1.0074 0.91036 0.0
O185 O 0.91345 0.91228 0.92005 0.0
O186 O 0.89453 0.77652 0.92148 0.0
O187 O 0.8876 0.77729 0.86534 0.0
O188 O 0.89792 0.90911 0.85193 0.0
O189 O 0.84692 0.92604 0.86081 0.0
O190 O 0.81832 0.82338 0.89776 0.0
O191 O 0.79027 0.91644 0.88885 0.0
H192 H 0.77164 0.18971 0.9285 0.0
H193 H 0.78651 0.30049 0.92503 0.0
H194 H 0.88302 0.25017 0.88155 0.0
H195 H 0.86755 0.13895 0.88459 0.0
H196 H 0.93359 0.64604 0.87076 0.0
H197 H 0.91888 0.53499 0.87303 0.0
H198 H 0.82269 0.58332 0.91797 0.0
H199 H 0.8381 0.69449 0.91634 0.0
C200 C 0.15003 0.97927 0.91013 0.0
Eu201 Eu 0.12518 0.09295 0.91046 0.0
C202 C 0.13981 0.91298 0.90837 0.0
C203 C 0.16263 0.86674 0.91902 0.0
C204 C 0.15395 0.80334 0.91752 0.0
C205 C 0.12216 0.78469 0.90531 0.0
C206 C 0.09929 0.83139 0.89454 0.0
C207 C 0.10802 0.89501 0.89611 0.0
C208 C 0.12383 0.16786 0.96786 0.0
C209 C 0.04344 0.09426 0.92017 0.0
C210 C 0.06042 0.32439 0.89768 0.0
Eu211 Eu 0.08588 0.21126 0.89983 0.0
C212 C 0.07069 0.39077 0.89795 0.0
C213 C 0.04803 0.43646 0.88622 0.0
C214 C 0.05668 0.49996 0.88688 0.0
C215 C 0.08831 0.51923 0.89929 0.0
C216 C 0.11112 0.47301 0.9108 0.0
C217 C 0.10238 0.40939 0.91015 0.0
C218 C 0.08656 0.13017 0.84472 0.0
C219 C 0.16705 0.21498 0.89285 0.0
O220 O 0.14576 1.01304 0.88211 0.0
O221 O 0.14238 1.00984 0.93852 0.0
O222 O 0.15018 0.13863 0.95631 0.0
O223 O 0.09909 0.1573 0.94793 0.0
O224 O 0.07044 0.06113 0.91171 0.0
O225 O 0.04441 0.15562 0.92266 0.0
O226 O 0.0649 0.2927 0.92645 0.0
O227 O 0.068 0.29181 0.86995 0.0
O228 O 0.06019 0.16139 0.85445 0.0
O229 O 0.11121 0.14494 0.86355 0.0
O230 O 0.13935 0.24607 0.90044 0.0
O231 O 0.16743 0.15322 0.89083 0.0
H232 H 0.18734 0.87968 0.9284 0.0
H233 H 0.1724 0.76885 0.9255 0.0
H234 H 0.07448 0.81885 0.88533 0.0
H235 H 0.09001 0.93008 0.88779 0.0
H236 H 0.0234 0.42304 0.87682 0.0
H237 H 0.03829 0.53406 0.87828 0.0
H238 H 0.13584 0.48592 0.92011 0.0
H239 H 0.12026 0.37482 0.91932 0.0
C240 C 0.81176 0.97822 0.69565 0.0
Eu241 Eu 0.83467 0.08738 0.67718 0.0
C242 C 0.81619 0.91226 0.68575 0.0
C243 C 0.84214 0.89411 0.66319 0.0
C244 C 0.84865 0.83057 0.65723 0.0
C245 C 0.82932 0.78413 0.67377 0.0
C246 C 0.80255 0.80284 0.69537 0.0
C247 C 0.79612 0.86638 0.70134 0.0
C248 C 0.84195 0.13501 0.61194 0.0
C249 C 0.91589 0.09446 0.66145 0.0
C250 C 0.89777 0.32928 0.67893 0.0
Eu251 Eu 0.87466 0.21541 0.68188 0.0
C252 C 0.88531 0.3939 0.67456 0.0
C253 C 0.85614 0.41492 0.69154 0.0
C254 C 0.84602 0.47753 0.68879 0.0
C255 C 0.86491 0.52036 0.66904 0.0
C256 C 0.8936 0.49856 0.65134 0.0
C257 C 0.90369 0.43599 0.65413 0.0
C258 C 0.87338 0.14038 0.73935 0.0
C259 C 0.79301 0.21583 0.68731 0.0
O260 O 0.83818 1.00466 0.70964 0.0
O261 O 0.79622 1.01472 0.67338 0.0
O262 O 0.82614 0.0834 0.61884 0.0
O263 O 0.85266 0.15858 0.63995 0.0
O264 O 0.88986 0.06007 0.67158 0.0
O265 O 0.9144 0.15587 0.65834 0.0
O266 O 0.896 0.29237 0.65171 0.0
O267 O 0.88998 0.30092 0.70805 0.0
O268 O 0.89982 0.1711 0.72938 0.0
O269 O 0.84933 0.15194 0.71905 0.0
O270 O 0.82077 0.24748 0.68071 0.0
O271 O 0.79253 0.15406 0.69078 0.0
H272 H 0.85793 0.92905 0.65098 0.0
H273 H 0.86914 0.81779 0.64009 0.0
H274 H 0.78743 0.76841 0.70882 0.0
H275 H 0.77613 0.87966 0.71903 0.0
H276 H 0.84156 0.38333 0.70754 0.0
H277 H 0.82402 0.49278 0.70307 0.0
H278 H 0.90843 0.52999 0.63548 0.0
H279 H 0.92621 0.42065 0.64073 0.0
C280 C 0.14909 0.09376 0.70015 0.0
Eu281 Eu 0.12685 0.9846 0.68067 0.0
C282 C 0.14478 0.15965 0.6901 0.0
C283 C 0.11922 0.17753 0.66699 0.0
C284 C 0.11284 0.24099 0.66072 0.0
C285 C 0.13194 0.28761 0.67745 0.0
C286 C 0.15831 0.26918 0.69964 0.0
C287 C 0.1646 0.20571 0.70595 0.0
C288 C 0.1207 0.93857 0.61496 0.0
C289 C 0.04596 0.97751 0.66292 0.0
C290 C 0.06392 0.74265 0.68004 0.0
Eu291 Eu 0.08688 0.85659 0.68368 0.0
C292 C 0.07649 0.67806 0.67582 0.0
C293 C 0.10561 0.65732 0.69299 0.0
C294 C 0.1157 0.59463 0.69056 0.0
C295 C 0.09685 0.55147 0.67092 0.0
C296 C 0.06825 0.57303 0.65296 0.0
C297 C 0.05817 0.63566 0.65545 0.0
C298 C 0.08701 0.93075 0.7416 0.0
C299 C 0.16851 0.85613 0.69011 0.0
O300 O 0.12234 0.06713 0.71325 0.0
O301 O 0.16535 0.05734 0.67837 0.0
O302 O 0.13637 0.99 0.62263 0.0
O303 O 0.10951 0.91418 0.6425 0.0
O304 O 0.07173 1.01177 0.67392 0.0
O305 O 0.04755 0.91616 0.65949 0.0
O306 O 0.0661 0.77963 0.65294 0.0
O307 O 0.07125 0.77093 0.70935 0.0
O308 O 0.06075 0.90036 0.73079 0.0
O309 O 0.11147 0.91939 0.72182 0.0
O310 O 0.1408 0.82472 0.68285 0.0
O311 O 0.16892 0.91776 0.69432 0.0
H312 H 0.10363 0.14245 0.65456 0.0
H313 H 0.09264 0.25358 0.64315 0.0
H314 H 0.17323 0.30379 0.71325 0.0
H315 H 0.18428 0.19264 0.72406 0.0
H316 H 0.12015 0.68917 0.70893 0.0
H317 H 0.13764 0.57961 0.70503 0.0
H318 H 0.05346 0.54136 0.63715 0.0
H319 H 0.03569 0.65079 0.6419 0.0
C320 C 0.56478 0.82879 0.18339 0.0
Eu321 Eu 0.58716 0.71423 0.18514 0.0
C322 C 0.57771 0.89283 0.17808 0.0
C323 C 0.60627 0.9146 0.19586 0.0
C324 C 0.6167 0.97678 0.19217 0.0
C325 C 0.59883 1.01845 0.17059 0.0
C326 C 0.57087 0.99581 0.15204 0.0
C327 C 0.5604 0.93371 0.15583 0.0
C328 C 0.58797 0.63655 0.24144 0.0
C329 C 0.66892 0.71378 0.18969 0.0
C330 C 0.65043 0.47599 0.19606 0.0
Eu331 Eu 0.62721 0.58577 0.17871 0.0
C332 C 0.64682 0.41008 0.18581 0.0
C333 C 0.62241 0.39181 0.16152 0.0
C334 C 0.61635 0.3282 0.15537 0.0
C335 C 0.63456 0.28188 0.17348 0.0
C336 C 0.65985 0.30073 0.19684 0.0
C337 C 0.66585 0.3643 0.20297 0.0
C338 C 0.62008 0.63716 0.11438 0.0
C339 C 0.5458 0.5945 0.1629 0.0
O340 O 0.56458 0.79165 0.15618 0.0
O341 O 0.57378 0.80018 0.2121 0.0
O342 O 0.5618 0.66883 0.23203 0.0
O343 O 0.61221 0.64836 0.22144 0.0
O344 O 0.64107 0.74559 0.18338 0.0
O345 O 0.66943 0.65192 0.19295 0.0
O346 O 0.62359 0.50146 0.20982 0.0
O347 O 0.66593 0.51338 0.17431 0.0
O348 O 0.6358 0.58488 0.12025 0.0
O349 O 0.60935 0.65891 0.14279 0.0
O350 O 0.57191 0.55927 0.17227 0.0
O351 O 0.54726 0.65609 0.16093 0.0
H352 H 0.62014 0.88402 0.21318 0.0
H353 H 0.63811 0.99266 0.20714 0.0
H354 H 0.55686 1.02624 0.13475 0.0
H355 H 0.53841 0.91782 0.14174 0.0
H356 H 0.6074 0.42669 0.14814 0.0
H357 H 0.597 0.31527 0.13691 0.0
H358 H 0.67403 0.26643 0.21155 0.0
H359 H 0.68458 0.37768 0.22205 0.0
C360 C 0.39685 0.24447 0.17581 0.0
Eu361 Eu 0.37394 0.35864 0.18009 0.0
C362 C 0.38415 0.1799 0.17222 0.0
C363 C 0.35571 0.15948 0.19059 0.0
C364 C 0.34554 0.09685 0.1887 0.0
C365 C 0.36364 0.05338 0.16843 0.0
C366 C 0.39155 0.07459 0.14932 0.0
C367 C 0.40169 0.13719 0.15125 0.0
C368 C 0.37363 0.43123 0.23864 0.0
C369 C 0.29235 0.35786 0.18676 0.0
C370 C 0.31173 0.59544 0.19785 0.0
Eu371 Eu 0.33405 0.48644 0.17775 0.0
C372 C 0.31599 0.66151 0.18815 0.0
C373 C 0.34111 0.6795 0.16464 0.0
C374 C 0.34741 0.74301 0.15855 0.0
C375 C 0.3287 0.78962 0.17589 0.0
C376 C 0.30279 0.77108 0.19855 0.0
C377 C 0.29656 0.70756 0.20465 0.0
C378 C 0.3401 0.44249 0.11157 0.0
C379 C 0.41522 0.47939 0.16079 0.0
O380 O 0.39368 0.28131 0.14874 0.0
O381 O 0.3906 0.27303 0.20529 0.0
O382 O 0.39994 0.40117 0.22756 0.0
O383 O 0.34915 0.42061 0.21872 0.0
O384 O 0.32015 0.32645 0.17972 0.0
O385 O 0.2918 0.41959 0.19075 0.0
O386 O 0.33851 0.5684 0.2108 0.0
O387 O 0.2955 0.55949 0.17587 0.0
O388 O 0.32453 0.49381 0.11987 0.0
O389 O 0.35143 0.41689 0.13882 0.0
O390 O 0.38928 0.51348 0.17177 0.0
O391 O 0.41357 0.4182 0.15669 0.0
H392 H 0.34179 0.19155 0.20704 0.0
H393 H 0.32416 0.08211 0.20403 0.0
H394 H 0.40574 0.04269 0.13302 0.0
H395 H 0.42363 0.15203 0.13679 0.0
H396 H 0.3564 0.64446 0.1517 0.0
H397 H 0.36723 0.75563 0.14059 0.0
H398 H 0.28816 0.80562 0.21263 0.0
H399 H 0.27722 0.69442 0.22307 0.0
C400 C 0.56504 0.24661 0.40395 0.0
Eu401 Eu 0.58792 0.36067 0.40106 0.0
C402 C 0.5777 0.18212 0.40855 0.0
C403 C 0.60731 0.16156 0.3922 0.0
C404 C 0.61751 0.09896 0.39492 0.0
C405 C 0.59831 0.05567 0.41403 0.0
C406 C 0.56922 0.07707 0.4312 0.0
C407 C 0.55903 0.13961 0.42842 0.0
C408 C 0.58829 0.43577 0.34362 0.0
C409 C 0.66947 0.35908 0.39478 0.0
C410 C 0.65119 0.59762 0.38648 0.0
Eu411 Eu 0.62854 0.48818 0.40496 0.0
C412 C 0.64703 0.66352 0.39678 0.0
C413 C 0.62095 0.6817 0.41917 0.0
C414 C 0.61452 0.74525 0.42524 0.0
C415 C 0.63406 0.79172 0.409 0.0
C416 C 0.66102 0.77299 0.38766 0.0
C417 C 0.66737 0.70942 0.38156 0.0
C418 C 0.62201 0.44098 0.47034 0.0
C419 C 0.54737 0.48181 0.42176 0.0
O420 O 0.56634 0.28374 0.43112 0.0
O421 O 0.57308 0.27489 0.37488 0.0
O422 O 0.56202 0.4051 0.35407 0.0
O423 O 0.61277 0.42404 0.36337 0.0
O424 O 0.6417 0.32831 0.40243 0.0
O425 O 0.67013 0.42069 0.39044 0.0
O426 O 0.62443 0.57148 0.37306 0.0
O427 O 0.66722 0.56064 0.40813 0.0
O428 O 0.63795 0.49226 0.4631 0.0
O429 O 0.6108 0.41736 0.44256 0.0
O430 O 0.5734 0.51574 0.41117 0.0
O431 O 0.54871 0.42045 0.42523 0.0
H432 H 0.62216 0.19349 0.37668 0.0
H433 H 0.63985 0.08411 0.38107 0.0
H434 H 0.55414 0.04535 0.44662 0.0
H435 H 0.53619 0.15457 0.44135 0.0
H436 H 0.60494 0.6468 0.43111 0.0
H437 H 0.59388 0.75803 0.44219 0.0
H438 H 0.67635 0.80743 0.37446 0.0
H439 H 0.68746 0.69616 0.364 0.0
C440 C 0.3991 0.82659 0.39117 0.0
Eu441 Eu 0.37412 0.71364 0.39653 0.0
C442 C 0.38894 0.89306 0.39238 0.0
C443 C 0.41116 0.93871 0.38 0.0
C444 C 0.40261 1.00229 0.38142 0.0
C445 C 0.37154 1.02166 0.39528 0.0
C446 C 0.34917 0.97548 0.40748 0.0
C447 C 0.3578 0.91177 0.40605 0.0
C448 C 0.37395 0.62906 0.34297 0.0
C449 C 0.29298 0.71751 0.39178 0.0
C450 C 0.31119 0.48238 0.41095 0.0
Eu451 Eu 0.33568 0.59609 0.40964 0.0
C452 C 0.32129 0.416 0.40863 0.0
C453 C 0.29887 0.36995 0.42011 0.0
C454 C 0.30734 0.30645 0.41796 0.0
C455 C 0.33854 0.2875 0.40425 0.0
C456 C 0.36103 0.33402 0.39269 0.0
C457 C 0.3525 0.39775 0.39491 0.0
C458 C 0.33607 0.67495 0.4654 0.0
C459 C 0.41741 0.59931 0.41982 0.0
O460 O 0.39768 0.79527 0.42037 0.0
O461 O 0.38859 0.7938 0.36458 0.0
O462 O 0.40013 0.66102 0.35227 0.0
O463 O 0.34917 0.64451 0.36147 0.0
O464 O 0.32074 0.7488 0.39837 0.0
O465 O 0.29276 0.65568 0.3903 0.0
O466 O 0.31381 0.51599 0.38266 0.0
O467 O 0.32044 0.51303 0.43879 0.0
O468 O 0.31015 0.64373 0.45461 0.0
O469 O 0.36104 0.66336 0.44595 0.0
O470 O 0.3907 0.56511 0.41186 0.0
O471 O 0.41596 0.66073 0.42076 0.0
H472 H 0.43537 0.9252 0.36946 0.0
H473 H 0.42068 1.03634 0.37226 0.0
H474 H 0.32487 0.9885 0.41791 0.0
H475 H 0.34027 0.87719 0.41572 0.0
H476 H 0.27459 0.38312 0.43062 0.0
H477 H 0.28917 0.27212 0.42659 0.0
H478 H 0.38539 0.32124 0.38232 0.0
H479 H 0.3702 0.43268 0.38594 0.0
C480 C 0.30974 0.59328 0.87816 0.0
Eu481 Eu 0.33199 0.48508 0.89949 0.0
C482 C 0.3128 0.65985 0.88724 0.0
C483 C 0.33177 0.679 0.9161 0.0
C484 C 0.33721 0.7428 0.92233 0.0
C485 C 0.32384 0.78843 0.89973 0.0
C486 C 0.30414 0.76874 0.87134 0.0
C487 C 0.29875 0.705 0.86515 0.0
C488 C 0.33805 0.4418 0.96581 0.0
C489 C 0.4129 0.47777 0.91754 0.0
C490 C 0.39397 0.24207 0.90367 0.0
Eu491 Eu 0.372 0.35657 0.89812 0.0
C492 C 0.38028 0.17797 0.90622 0.0
C493 C 0.35602 0.1559 0.88263 0.0
C494 C 0.34524 0.09362 0.88397 0.0
C495 C 0.35834 0.05214 0.90905 0.0
C496 C 0.38179 0.07511 0.93332 0.0
C497 C 0.3927 0.13729 0.93183 0.0
C498 C 0.37207 0.42837 0.83938 0.0
C499 C 0.29043 0.35653 0.89007 0.0
O500 O 0.33726 0.56692 0.86652 0.0
O501 O 0.29313 0.55746 0.89986 0.0
O502 O 0.32234 0.49299 0.95747 0.0
O503 O 0.34928 0.41623 0.93854 0.0
O504 O 0.38715 0.51182 0.90608 0.0
O505 O 0.41129 0.41661 0.92178 0.0
O506 O 0.38949 0.27898 0.93056 0.0
O507 O 0.39012 0.271 0.87388 0.0
O508 O 0.39828 0.39804 0.85057 0.0
O509 O 0.34754 0.41803 0.85922 0.0
O510 O 0.31815 0.32492 0.89719 0.0
O511 O 0.2899 0.41823 0.88628 0.0
H512 H 0.34295 0.64459 0.93332 0.0
H513 H 0.35218 0.75641 0.94463 0.0
H514 H 0.29391 0.80246 0.85312 0.0
H515 H 0.28437 0.6909 0.84251 0.0
H516 H 0.34585 0.18633 0.86267 0.0
H517 H 0.32744 0.07754 0.86462 0.0
H518 H 0.39193 0.04492 0.95339 0.0
H519 H 0.41127 0.15339 0.95041 0.0
C520 C 0.64921 0.47918 0.91111 0.0
Eu521 Eu 0.62447 0.59291 0.91123 0.0
C522 C 0.63901 0.41294 0.90902 0.0
C523 C 0.66153 0.36665 0.92026 0.0
C524 C 0.65296 0.30326 0.91822 0.0
C525 C 0.62159 0.28469 0.90485 0.0
C526 C 0.59892 0.33149 0.89375 0.0
C527 C 0.60757 0.39508 0.8958 0.0
C528 C 0.62348 0.66795 0.96856 0.0
C529 C 0.54269 0.59512 0.92083 0.0
C530 C 0.56025 0.82444 0.898 0.0
Eu531 Eu 0.58564 0.71132 0.90044 0.0
C532 C 0.57044 0.89083 0.89804 0.0
C533 C 0.54787 0.93612 0.88568 0.0
C534 C 0.55636 0.99967 0.88622 0.0
C535 C 0.5877 1.01937 0.89914 0.0
C536 C 0.61049 0.97355 0.91117 0.0
C537 C 0.60191 0.90986 0.91067 0.0
C538 C 0.58633 0.63016 0.84532 0.0
C539 C 0.66676 0.71453 0.89352 0.0
O540 O 0.64539 0.51312 0.88308 0.0
O541 O 0.64111 0.50956 0.93943 0.0
O542 O 0.64972 0.63855 0.95691 0.0
O543 O 0.59864 0.65761 0.94872 0.0
O544 O 0.56955 0.5616 0.91232 0.0
O545 O 0.54399 0.65641 0.9234 0.0
O546 O 0.56481 0.79306 0.92686 0.0
O547 O 0.56777 0.79161 0.87035 0.0
O548 O 0.55994 0.66132 0.85505 0.0
O549 O 0.61092 0.64485 0.86421 0.0
O550 O 0.63914 0.74589 0.90107 0.0
O551 O 0.66695 0.65275 0.89158 0.0
H552 H 0.68587 0.37956 0.93064 0.0
H553 H 0.67082 0.26881 0.92756 0.0
H554 H 0.57469 0.31897 0.88301 0.0
H555 H 0.58983 0.4302 0.88693 0.0
H556 H 0.5235 0.92231 0.87572 0.0
H557 H 0.53841 1.03337 0.87623 0.0
H558 H 0.6347 0.98697 0.92161 0.0
H559 H 0.61966 0.8756 0.92044 0.0
C560 C 0.31062 0.48042 0.66761 0.0
Eu561 Eu 0.33511 0.59409 0.6693 0.0
C562 C 0.32068 0.41407 0.67013 0.0
C563 C 0.29841 0.36794 0.65835 0.0
C564 C 0.30687 0.30446 0.66065 0.0
C565 C 0.3379 0.28561 0.67481 0.0
C566 C 0.36024 0.33221 0.68669 0.0
C567 C 0.35172 0.39591 0.68432 0.0
C568 C 0.33573 0.67297 0.6137 0.0
C569 C 0.41689 0.59691 0.66016 0.0
C570 C 0.39866 0.82489 0.6879 0.0
Eu571 Eu 0.37367 0.71192 0.68268 0.0
C572 C 0.3884 0.89131 0.68687 0.0
C573 C 0.41049 0.937 0.69957 0.0
C574 C 0.40189 1.00055 0.6982 0.0
C575 C 0.37091 1.01986 0.68407 0.0
C576 C 0.34866 0.97365 0.6716 0.0
C577 C 0.35733 0.90996 0.67299 0.0
C578 C 0.37318 0.62725 0.73609 0.0
C579 C 0.29251 0.7152 0.68792 0.0
O580 O 0.31282 0.51417 0.69593 0.0
O581 O 0.32027 0.51091 0.63991 0.0
O582 O 0.30977 0.64167 0.62424 0.0
O583 O 0.36064 0.66155 0.63328 0.0
O584 O 0.39008 0.56297 0.66794 0.0
O585 O 0.41554 0.65834 0.65888 0.0
O586 O 0.39693 0.79355 0.65868 0.0
O587 O 0.38849 0.79208 0.71458 0.0
O588 O 0.39942 0.65932 0.72715 0.0
O589 O 0.34856 0.64295 0.71744 0.0
O590 O 0.32018 0.74669 0.68116 0.0
O591 O 0.29237 0.65338 0.68918 0.0
H592 H 0.27426 0.38104 0.64749 0.0
H593 H 0.28882 0.27007 0.65177 0.0
H594 H 0.38447 0.3195 0.69741 0.0
H595 H 0.3693 0.43091 0.69354 0.0
H596 H 0.43463 0.92353 0.71028 0.0
H597 H 0.41985 1.03464 0.7076 0.0
H598 H 0.32443 0.98663 0.66096 0.0
H599 H 0.3399 0.87536 0.66309 0.0
C600 C 0.64986 0.59477 0.70069 0.0
Eu601 Eu 0.62748 0.4858 0.681 0.0
C602 C 0.64559 0.66073 0.69076 0.0
C603 C 0.62021 0.6787 0.66746 0.0
C604 C 0.61387 0.74219 0.66122 0.0
C605 C 0.63282 0.78876 0.67819 0.0
C606 C 0.65902 0.77023 0.70058 0.0
C607 C 0.66527 0.70673 0.70685 0.0
C608 C 0.62128 0.44005 0.61523 0.0
C609 C 0.54666 0.47893 0.66313 0.0
C610 C 0.56451 0.24374 0.67984 0.0
Eu611 Eu 0.58742 0.35769 0.68372 0.0
C612 C 0.57719 0.17918 0.67577 0.0
C613 C 0.60609 0.15851 0.6934 0.0
C614 C 0.61625 0.09585 0.69113 0.0
C615 C 0.59771 0.05263 0.67122 0.0
C616 C 0.56935 0.07411 0.65281 0.0
C617 C 0.55921 0.13673 0.65513 0.0
C618 C 0.58742 0.43155 0.74173 0.0
C619 C 0.66908 0.35722 0.68992 0.0
O620 O 0.6231 0.56813 0.71378 0.0
O621 O 0.66605 0.55844 0.67881 0.0
O622 O 0.63694 0.49148 0.62294 0.0
O623 O 0.61009 0.41565 0.64276 0.0
O624 O 0.57243 0.51307 0.67424 0.0
O625 O 0.54818 0.41758 0.65959 0.0
O626 O 0.56693 0.28073 0.65275 0.0
O627 O 0.57151 0.27206 0.70922 0.0
O628 O 0.56121 0.40111 0.73085 0.0
O629 O 0.61196 0.42035 0.722 0.0
O630 O 0.64133 0.32581 0.68289 0.0
O631 O 0.66956 0.41883 0.69421 0.0
H632 H 0.60473 0.64368 0.65483 0.0
H633 H 0.59383 0.75484 0.64348 0.0
H634 H 0.67383 0.80478 0.71437 0.0
H635 H 0.68482 0.69359 0.72509 0.0
H636 H 0.62037 0.19039 0.70957 0.0
H637 H 0.63799 0.08088 0.70594 0.0
H638 H 0.55481 0.04239 0.63679 0.0
H639 H 0.53691 0.1518 0.64123 0.0
C640 C 0.23191 0.22072 0.19036 0.0
C641 C 0.20061 0.25107 0.19052 0.0
H642 H 0.28525 0.23047 0.18894 0.0
C643 C 0.19976 0.31708 0.19107 0.0
H644 H 0.23355 0.17006 0.18989 0.0
C645 C 0.22946 0.35191 0.19076 0.0
C646 C 0.26074 0.32156 0.18957 0.0
H647 H 0.1761 0.34215 0.19126 0.0
H648 H 0.22782 0.40258 0.19063 0.0
C649 C 0.26161 0.25555 0.18974 0.0
C650 C 0.76172 0.75362 0.19293 0.0
C651 C 0.76101 0.81957 0.19146 0.0
H652 H 0.73337 0.66844 0.19375 0.0
C653 C 0.72981 0.85027 0.19155 0.0
H654 H 0.78535 0.7284 0.19319 0.0
C655 C 0.70001 0.81578 0.19178 0.0
C656 C 0.70068 0.74976 0.19214 0.0
H657 H 0.72833 0.90091 0.19044 0.0
H658 H 0.67643 0.84112 0.19103 0.0
C659 C 0.73189 0.71911 0.19335 0.0
C660 C 0.23014 0.72265 0.39157 0.0
C661 C 0.26119 0.75318 0.38903 0.0
H662 H 0.17696 0.73212 0.3955 0.0
C663 C 0.26171 0.81895 0.38616 0.0
H664 H 0.22884 0.67215 0.39394 0.0
C665 C 0.23186 0.85356 0.38686 0.0
C666 C 0.20084 0.82317 0.39063 0.0
H667 H 0.28525 0.84396 0.38393 0.0
H668 H 0.23321 0.90415 0.38521 0.0
C669 C 0.20034 0.75726 0.39253 0.0
C670 C 0.76139 0.31656 0.38389 0.0
C671 C 0.76098 0.25148 0.38978 0.0
H672 H 0.733 0.4017 0.38076 0.0
C673 C 0.73009 0.22174 0.39537 0.0
H674 H 0.78471 0.34072 0.37873 0.0
C675 C 0.7004 0.2567 0.39641 0.0
C676 C 0.7009 0.32217 0.39167 0.0
H677 H 0.7289 0.17174 0.4 0.0
H678 H 0.67714 0.23229 0.40164 0.0
C679 C 0.73169 0.35156 0.38484 0.0
C680 C 0.69781 0.81603 0.88855 0.0
C681 C 0.69837 0.75007 0.88929 0.0
H682 H 0.72637 0.90088 0.88812 0.0
C683 C 0.72944 0.71901 0.88773 0.0
H684 H 0.67427 0.84153 0.88935 0.0
C685 C 0.75933 0.75317 0.887 0.0
C686 C 0.75881 0.81913 0.88768 0.0
H687 H 0.73078 0.66832 0.8881 0.0
H688 H 0.78289 0.72768 0.88665 0.0
C689 C 0.7277 0.85019 0.88769 0.0
C690 C 0.22756 0.35124 0.88673 0.0
C691 C 0.25878 0.32056 0.88743 0.0
H692 H 0.17415 0.34195 0.88767 0.0
C693 C 0.25952 0.25456 0.88744 0.0
H694 H 0.22607 0.40192 0.88661 0.0
C695 C 0.22975 0.22008 0.88801 0.0
C696 C 0.19856 0.25082 0.88878 0.0
H697 H 0.28315 0.22927 0.88769 0.0
H698 H 0.23125 0.16943 0.88888 0.0
C699 C 0.19778 0.31674 0.88747 0.0
C700 C 0.73196 0.35209 0.69199 0.0
C701 C 0.70086 0.3213 0.69187 0.0
H702 H 0.78534 0.34304 0.69048 0.0
C703 C 0.70033 0.25532 0.69191 0.0
H704 H 0.73329 0.40278 0.6919 0.0
C705 C 0.73021 0.22093 0.6913 0.0
C706 C 0.7613 0.25173 0.69033 0.0
H707 H 0.67681 0.22999 0.69191 0.0
H708 H 0.72886 0.17025 0.69077 0.0
C709 C 0.76184 0.3177 0.69107 0.0
C710 C 0.23134 0.85086 0.69468 0.0
C711 C 0.20027 0.82013 0.69253 0.0
H712 H 0.28481 0.84179 0.69513 0.0
C713 C 0.1998 0.75418 0.69113 0.0
H714 H 0.23264 0.9015 0.69588 0.0
C715 C 0.22971 0.71985 0.69083 0.0
C716 C 0.26077 0.7507 0.69166 0.0
H717 H 0.17633 0.72883 0.6896 0.0
H718 H 0.22843 0.66927 0.68892 0.0
C719 C 0.26127 0.81652 0.69416 0.0
C720 C 0.05755 1.01136 0.304 0.0
C721 C 0.08793 0.98598 0.31637 0.0
H722 H 0.03379 0.07913 0.27072 0.0
C723 C 0.11831 1.01052 0.3037 0.0
H724 H 0.03373 0.99363 0.31333 0.0
C725 C 0.11835 0.05982 0.27958 0.0
C726 C 0.088 0.08527 0.26721 0.0
H727 H 0.14213 0.99194 0.3127 0.0
H728 H 0.14219 0.07786 0.27045 0.0
C729 C 0.05759 0.06066 0.2798 0.0
C730 C 0.84367 0.06775 0.29884 0.0
C731 C 0.87409 0.09062 0.31246 0.0
H732 H 0.81968 1.00263 0.26423 0.0
C733 C 0.90439 0.06466 0.3003 0.0
H734 H 0.81991 0.0869 0.30763 0.0
C735 C 0.90425 1.01607 0.27561 0.0
C736 C 0.87381 0.99286 0.2622 0.0
H737 H 0.92823 0.08119 0.3103 0.0
H738 H 0.92801 0.99682 0.26691 0.0
C739 C 0.84354 1.0195 0.27398 0.0
C740 C 0.84243 0.06812 0.77976 0.0
C741 C 0.87302 0.09093 0.7666 0.0
H742 H 0.81801 1.00267 0.81377 0.0
C743 C 0.90317 0.06471 0.77898 0.0
H744 H 0.81879 0.08746 0.77076 0.0
C745 C 0.90271 1.01588 0.80342 0.0
C746 C 0.87211 0.99265 0.81635 0.0
H747 H 0.92713 0.0812 0.76932 0.0
H748 H 0.92636 0.99639 0.81228 0.0
C749 C 0.84198 1.01958 0.80439 0.0
C750 C 0.0563 0.05516 0.80516 0.0
C751 C 0.08664 0.07881 0.81854 0.0
H752 H 0.03258 0.98937 0.77069 0.0
C753 C 0.11702 0.05223 0.80703 0.0
H754 H 0.03246 0.07438 0.81367 0.0
C755 C 0.11708 1.00346 0.78252 0.0
C756 C 0.08676 0.98023 0.76887 0.0
H757 H 0.14081 0.06953 0.81674 0.0
H758 H 0.14091 0.98435 0.77392 0.0
C759 C 0.05635 1.00619 0.78073 0.0
C760 C 0.55759 0.512 0.30493 0.0
C761 C 0.58801 0.4862 0.31691 0.0
H762 H 0.5337 0.58023 0.27201 0.0
C763 C 0.61833 0.51042 0.30393 0.0
H764 H 0.53381 0.49452 0.31453 0.0
C765 C 0.61828 0.5598 0.27988 0.0
C766 C 0.58789 0.58569 0.26789 0.0
H767 H 0.64218 0.49151 0.31263 0.0
H768 H 0.64208 0.57754 0.27048 0.0
C769 C 0.55753 0.56142 0.2808 0.0
C770 C 0.40424 0.55464 0.30288 0.0
C771 C 0.37391 0.57779 0.31665 0.0
H772 H 0.42799 0.48975 0.26779 0.0
C773 C 0.34357 0.55106 0.30524 0.0
H774 H 0.42805 0.57397 0.31127 0.0
C775 C 0.34355 0.50287 0.28034 0.0
C776 C 0.37385 0.48014 0.2663 0.0
H777 H 0.31978 0.56788 0.31527 0.0
H778 H 0.31973 0.48377 0.27178 0.0
C779 C 0.40423 0.50613 0.27813 0.0
C780 C 0.34232 0.50028 0.7977 0.0
C781 C 0.37253 0.47737 0.81187 0.0
H782 H 0.31881 0.56588 0.76299 0.0
C783 C 0.403 0.50337 0.80041 0.0
H784 H 0.31844 0.48115 0.80598 0.0
C785 C 0.4032 0.55219 0.77593 0.0
C786 C 0.37295 0.57561 0.76208 0.0
H787 H 0.42668 0.48682 0.81087 0.0
H788 H 0.42707 0.57157 0.76782 0.0
C789 C 0.34253 0.54881 0.77309 0.0
C790 C 0.5563 0.55547 0.80537 0.0
C791 C 0.58655 0.57906 0.81899 0.0
H792 H 0.53282 0.4899 0.7706 0.0
C793 C 0.61701 0.55264 0.80759 0.0
H794 H 0.53241 0.57457 0.81379 0.0
C795 C 0.61724 0.50409 0.78294 0.0
C796 C 0.58702 0.4809 0.76908 0.0
H797 H 0.64074 0.56988 0.8175 0.0
H798 H 0.64113 0.4851 0.77444 0.0
C799 C 0.55652 0.5067 0.78082 0.0
C800 C 0.15008 0.18564 1.02576 0.0
C801 C 0.12066 0.17976 1.0058 0.0
H802 H 0.17257 0.17777 0.07621 0.0
C803 C 0.08967 0.17372 1.02316 0.0
H804 H 0.1743 0.19062 1.0132 0.0
C805 C 0.0887 0.16717 0.0596 0.0
C806 C 0.11867 0.16681 0.07895 0.0
H807 H 0.06659 0.16874 1.00848 0.0
H808 H 0.06501 0.15675 0.07217 0.0
C809 C 0.14911 0.17866 0.06188 0.0
C810 C 0.86699 0.88825 1.02048 0.0
C811 C 0.83643 0.88276 1.00226 0.0
H812 H 0.89078 0.89735 0.07056 0.0
C813 C 0.8069 0.87155 1.0212 0.0
H814 H 0.89016 0.89706 1.00656 0.0
C815 C 0.80726 0.87165 0.05755 0.0
C816 C 0.83715 0.88303 0.07592 0.0
H817 H 0.78303 0.86663 1.0079 0.0
H818 H 0.78365 0.86681 0.07131 0.0
C819 C 0.86735 0.8884 0.05711 0.0
C820 C 0.14984 0.9114 0.52434 0.0
C821 C 0.11961 0.91484 0.50568 0.0
H822 H 0.17354 0.91409 0.57426 0.0
C823 C 0.08905 0.91125 0.52393 0.0
H824 H 0.17369 0.915 0.51089 0.0
C825 C 0.08896 0.91072 0.56063 0.0
C826 C 0.11943 0.91377 0.57912 0.0
H827 H 0.06542 0.91546 0.51011 0.0
H828 H 0.06527 0.91454 0.57434 0.0
C829 C 0.14975 0.91086 0.56063 0.0
C830 C 0.87431 0.16234 0.55805 0.0
C831 C 0.84375 0.16099 0.5764 0.0
H832 H 0.8979 0.15724 0.5076 0.0
C833 C 0.81358 0.16674 0.55782 0.0
H834 H 0.89787 0.15626 0.57179 0.0
C835 C 0.8136 0.16745 0.5215 0.0
C836 C 0.84379 0.16234 0.5029 0.0
H837 H 0.7897 0.16475 0.57133 0.0
H838 H 0.78973 0.16589 0.50792 0.0
C839 C 0.87433 0.16297 0.52135 0.0
C840 C 0.64914 0.67768 0.06249 0.0
C841 C 0.6187 0.6663 0.07965 0.0
H842 H 0.67421 0.68957 1.01376 0.0
C843 C 0.58867 0.66732 0.06043 0.0
H844 H 0.67264 0.67631 0.07674 0.0
C845 C 0.58953 0.67407 1.02399 0.0
C846 C 0.62049 0.67968 1.00653 0.0
H847 H 0.56496 0.6573 0.07308 0.0
H848 H 0.56637 0.66958 1.0094 0.0
C849 C 0.65001 0.68493 1.02639 0.0
C850 C 0.36984 0.41098 1.01991 0.0
C851 C 0.33924 0.41838 1.00197 0.0
H852 H 0.39431 0.41159 0.07008 0.0
C853 C 0.30923 0.41957 1.02104 0.0
H854 H 0.39337 0.41142 1.00577 0.0
C855 C 0.30976 0.41949 0.05732 0.0
C856 C 0.34031 0.41836 0.0755 0.0
H857 H 0.28537 0.42593 1.00787 0.0
H858 H 0.28628 0.42586 0.07119 0.0
C859 C 0.37037 0.41103 0.05666 0.0
C860 C 0.65071 0.41253 0.52474 0.0
C861 C 0.62052 0.41552 0.50599 0.0
H862 H 0.67427 0.41589 0.57471 0.0
C863 C 0.58992 0.41179 0.52416 0.0
H864 H 0.67458 0.41623 0.51135 0.0
C865 C 0.58974 0.41159 0.56086 0.0
C866 C 0.62016 0.41512 0.57942 0.0
H867 H 0.56632 0.41563 0.51026 0.0
H868 H 0.566 0.41527 0.5745 0.0
C869 C 0.65053 0.41234 0.56103 0.0
C870 C 0.36881 0.68461 0.55802 0.0
C871 C 0.3384 0.69052 0.57645 0.0
H872 H 0.39218 0.6757 0.50774 0.0
C873 C 0.30881 0.70301 0.55777 0.0
H874 H 0.39201 0.67479 0.57173 0.0
C875 C 0.30891 0.7036 0.52142 0.0
C876 C 0.3386 0.69165 0.50281 0.0
H877 H 0.28506 0.70826 0.57125 0.0
H878 H 0.28522 0.70925 0.50784 0.0
C879 C 0.36891 0.68515 0.52138 0.0
C880 C 0.95225 0.07121 0.15603 0.0
C881 C 0.94964 1.00571 0.15597 0.0
H882 H -0.01516 0.15039 0.15752 0.0
C883 C 0.97919 0.96935 0.15489 0.0
H884 H 0.92999 0.10049 0.15672 0.0
C885 C 0.0107 0.99785 0.15567 0.0
C886 C 0.01332 0.0633 0.15715 0.0
H887 H 0.9781 0.91865 0.15476 0.0
H888 H 0.03295 0.9685 0.15603 0.0
C889 C -0.01623 0.09973 0.15641 0.0
C890 C 0.97836 0.10391 0.42504 0.0
C891 C 0.94919 0.06667 0.42413 0.0
H892 H 0.03211 0.10613 0.4249 0.0
C893 C 0.95242 1.00135 0.42585 0.0
H894 H 0.97679 0.15453 0.42381 0.0
C895 C -0.0158 0.97373 0.42689 0.0
C896 C 0.01339 1.01088 0.42575 0.0
H897 H 0.93047 0.97146 0.42544 0.0
H898 H -0.01422 0.92306 0.42704 0.0
C899 C 0.01014 0.07627 0.42561 0.0
C900 C -0.01905 0.09905 0.92471 0.0
C901 C 0.01063 0.0631 0.92367 0.0
H902 H 0.92721 0.09901 0.9238 0.0
C903 C 0.00837 0.99757 0.9236 0.0
H904 H -0.01818 0.14977 0.92478 0.0
C905 C 0.97702 0.96856 0.92336 0.0
C906 C 0.94735 1.00457 0.92278 0.0
H907 H 0.03077 0.96866 0.92293 0.0
H908 H 0.97614 0.91787 0.9224 0.0
C909 C 0.9496 0.07006 0.92407 0.0
C910 C 0.95198 0.99895 0.65605 0.0
C911 C 0.949 0.06438 0.65694 0.0
H912 H -0.01497 0.92016 0.65664 0.0
C913 C 0.97832 0.10118 0.65639 0.0
H914 H 0.92989 0.96938 0.65625 0.0
C915 C 0.00999 0.07306 0.657 0.0
C916 C 0.01295 1.00763 0.65769 0.0
H917 H 0.97694 0.15185 0.65703 0.0
H918 H 0.03207 0.10262 0.65792 0.0
C919 C -0.01635 0.97084 0.65618 0.0
C920 C 0.45157 0.57465 0.15703 0.0
C921 C 0.44842 0.50925 0.1566 0.0
H922 H 0.48479 0.65286 0.15877 0.0
C923 C 0.47769 0.47211 0.15504 0.0
H924 H 0.42955 0.60453 0.15808 0.0
C925 C 0.50946 0.4997 0.15583 0.0
C926 C 0.51261 0.56503 0.15773 0.0
H927 H 0.4762 0.42145 0.15468 0.0
H928 H 0.53148 0.46977 0.1559 0.0
C929 C 0.48333 0.60226 0.15735 0.0
C930 C 0.45331 0.50383 0.42643 0.0
C931 C 0.45045 0.56919 0.42465 0.0
H932 H 0.48626 0.42492 0.42758 0.0
C933 C 0.4798 0.6059 0.42525 0.0
H934 H 0.43118 0.47436 0.4262 0.0
C935 C 0.51142 0.57768 0.42573 0.0
C936 C 0.51432 0.51222 0.42604 0.0
H937 H 0.47847 0.65654 0.42401 0.0
H938 H 0.53354 0.60713 0.42488 0.0
C939 C 0.48494 0.47561 0.42735 0.0
C940 C 0.47526 0.47113 0.92393 0.0
C941 C 0.44585 0.50788 0.92257 0.0
H942 H 0.52905 0.46984 0.92428 0.0
C943 C 0.44861 0.57331 0.92347 0.0
H944 H 0.47402 0.42046 0.92321 0.0
C945 C 0.48017 0.60148 0.92446 0.0
C946 C 0.50961 0.56476 0.9241 0.0
H947 H 0.42644 0.60282 0.92261 0.0
H948 H 0.48141 0.65216 0.9242 0.0
C949 C 0.50685 0.49932 0.92445 0.0
C950 C 0.47939 0.60313 0.65637 0.0
C951 C 0.44999 0.56656 0.65642 0.0
H952 H 0.5331 0.60414 0.65846 0.0
C953 C 0.4528 0.50112 0.65548 0.0
H954 H 0.4781 0.65382 0.65702 0.0
C955 C 0.4844 0.47274 0.65594 0.0
C956 C 0.51376 0.50929 0.65779 0.0
H957 H 0.43064 0.47174 0.65535 0.0
H958 H 0.48566 0.42205 0.6563 0.0
C959 C 0.51097 0.57476 0.65726 0.0
C960 C 0.08976 0.69649 0.17284 0.0
C961 C 0.12358 0.71492 0.17062 0.0
H962 H 0.05482 0.62072 0.17536 0.0
C963 C 0.14844 0.66831 0.16738 0.0
H964 H 0.07 0.731 0.17602 0.0
C965 C 0.1397 0.60482 0.16701 0.0
C966 C 0.1059 0.58642 0.16988 0.0
H967 H 0.1747 0.6809 0.16519 0.0
H968 H 0.15945 0.57013 0.16446 0.0
C969 C 0.08104 0.63312 0.17248 0.0
C970 C 0.8371 0.3947 0.14976 0.0
C971 C 0.84653 0.3535 0.17666 0.0
H972 H 0.83776 0.4885 0.13005 0.0
C973 C 0.86408 0.37798 0.20539 0.0
H974 H 0.82405 0.37744 0.12696 0.0
C975 C 0.87187 0.4419 0.2072 0.0
C976 C 0.86242 0.48312 0.1803 0.0
H977 H 0.87128 0.34794 0.22684 0.0
H978 H 0.88493 0.45916 0.23 0.0
C979 C 0.84492 0.45856 0.15155 0.0
C980 C 0.1332 0.39949 0.37789 0.0
C981 C 0.12894 0.36134 0.40737 0.0
H982 H 0.12717 0.49031 0.35532 0.0
C983 C 0.1162 0.38845 0.43802 0.0
H984 H 0.14234 0.37995 0.35364 0.0
C985 C 0.1075 0.45201 0.439 0.0
C986 C 0.11129 0.48991 0.40932 0.0
H987 H 0.11298 0.36054 0.4613 0.0
H988 H 0.09785 0.47149 0.46305 0.0
C989 C 0.12448 0.4629 0.37885 0.0
C990 C 0.87063 0.62953 0.4346 0.0
C991 C 0.85451 0.5863 0.41267 0.0
H992 H 0.87494 0.72501 0.4509 0.0
C993 C 0.82892 0.60763 0.39042 0.0
H994 H 0.89012 0.61426 0.45239 0.0
C995 C 0.82049 0.67123 0.38918 0.0
C996 C 0.83726 0.71497 0.4104 0.0
H997 H 0.81631 0.5755 0.37294 0.0
H998 H 0.8017 0.68631 0.37058 0.0
C999 C 0.86198 0.69303 0.43363 0.0
C1000 C 0.86204 0.37675 0.87226 0.0
C1001 C 0.845 0.35235 0.90129 0.0
H1002 H 0.88245 0.45787 0.84732 0.0
C1003 C 0.83607 0.39359 0.92838 0.0
H1004 H 0.86885 0.34666 0.85066 0.0
C1005 C 0.84386 0.45744 0.92647 0.0
C1006 C 0.86082 0.48192 0.89742 0.0
H1007 H 0.82343 0.37639 0.9514 0.0
H1008 H 0.83707 0.48744 0.94811 0.0
C1009 C 0.86981 0.44065 0.87034 0.0
C1010 C 0.08728 0.62831 0.87386 0.0
C1011 C 0.09714 0.58723 0.90067 0.0
H1012 H 0.08763 0.72216 0.85406 0.0
C1013 C 0.11508 0.61191 0.92909 0.0
H1014 H 0.07386 0.61094 0.85131 0.0
C1015 C 0.12296 0.67575 0.93065 0.0
C1016 C 0.11315 0.71681 0.90383 0.0
H1017 H 0.12256 0.58207 0.95052 0.0
H1018 H 0.13637 0.69311 0.9532 0.0
C1019 C 0.09514 0.69222 0.87544 0.0
C1020 C 0.81322 0.67055 0.66756 0.0
C1021 C 0.83828 0.71667 0.6703 0.0
H1022 H 0.80191 0.57262 0.66436 0.0
C1023 C 0.87211 0.69769 0.67137 0.0
H1024 H 0.78694 0.68362 0.66626 0.0
C1025 C 0.88067 0.63421 0.67037 0.0
C1026 C 0.85563 0.58798 0.66822 0.0
H1027 H 0.89202 0.73183 0.67414 0.0
H1028 H 0.90693 0.62135 0.67236 0.0
C1029 C 0.8218 0.60694 0.66652 0.0
C1030 C 0.08933 0.37422 0.67409 0.0
C1031 C 0.12314 0.35504 0.67352 0.0
H1032 H 0.05463 0.45076 0.67429 0.0
C1033 C 0.1483 0.40094 0.67083 0.0
H1034 H 0.06934 0.34024 0.6768 0.0
C1035 C 0.13984 0.46457 0.66932 0.0
C1036 C 0.10602 0.48378 0.67053 0.0
H1037 H 0.17456 0.38768 0.66991 0.0
H1038 H 0.15981 0.49873 0.66719 0.0
C1039 C 0.08089 0.43773 0.67265 0.0
C1040 C 0.64218 0.10437 0.16893 0.0
C1041 C 0.60827 0.08588 0.16884 0.0
H1042 H 0.67713 0.1806 0.16978 0.0
C1043 C 0.58325 0.13252 0.16852 0.0
H1044 H 0.66211 0.06974 0.16865 0.0
C1045 C 0.59186 0.19593 0.16904 0.0
C1046 C 0.62572 0.21444 0.16996 0.0
H1047 H 0.55689 0.12012 0.16907 0.0
H1048 H 0.57188 0.23042 0.17 0.0
C1049 C 0.6508 0.16791 0.16952 0.0
C1050 C 0.3712 0.87599 0.17141 0.0
C1051 C 0.3374 0.85707 0.17197 0.0
H1052 H 0.40591 0.95223 0.17042 0.0
C1053 C 0.31218 0.90326 0.17024 0.0
H1054 H 0.39128 0.84183 0.17338 0.0
C1055 C 0.3206 0.96684 0.1685 0.0
C1056 C 0.35444 0.98574 0.16849 0.0
H1057 H 0.28589 0.89027 0.17018 0.0
H1058 H 0.30057 1.00119 0.1671 0.0
C1059 C 0.37961 0.93944 0.16972 0.0
C1060 C 0.64147 0.96901 0.41668 0.0
C1061 C 0.60765 0.988 0.41469 0.0
H1062 H 0.67636 0.89233 0.41709 0.0
C1063 C 0.58267 0.94171 0.4121 0.0
H1064 H 0.66134 1.00332 0.41917 0.0
C1065 C 0.59126 0.87823 0.41103 0.0
C1066 C 0.62508 0.85923 0.41245 0.0
H1067 H 0.55642 0.95451 0.40983 0.0
H1068 H 0.57138 0.8441 0.40796 0.0
C1069 C 0.65009 0.90538 0.41554 0.0
C1070 C 0.37164 0.13115 0.3704 0.0
C1071 C 0.36286 0.08974 0.3974 0.0
H1072 H 0.37066 0.22536 0.35115 0.0
C1073 C 0.3462 0.11416 0.42673 0.0
H1074 H 0.38405 0.11399 0.34719 0.0
C1075 C 0.33855 0.17811 0.42899 0.0
C1076 C 0.34731 0.2195 0.402 0.0
H1077 H 0.33957 0.08404 0.44831 0.0
H1078 H 0.32615 0.19526 0.45222 0.0
C1079 C 0.36401 0.19515 0.37268 0.0
C1080 C 0.30743 0.90246 0.89867 0.0
C1081 C 0.3319 0.85597 0.90447 0.0
H1082 H 0.29627 1.00056 0.8963 0.0
C1083 C 0.36469 0.87458 0.91319 0.0
H1084 H 0.28182 0.88972 0.89234 0.0
C1085 C 0.37303 0.93804 0.91529 0.0
C1086 C 0.34876 0.98464 0.90883 0.0
H1087 H 0.3843 0.84008 0.91726 0.0
H1088 H 0.39884 0.95046 0.92088 0.0
C1089 C 0.31574 0.96602 0.90088 0.0
C1090 C 0.63693 0.17188 0.8931 0.0
C1091 C 0.6127 0.21682 0.90275 0.0
H1092 H 0.64807 0.07499 0.88398 0.0
C1093 C 0.58012 0.19618 0.91095 0.0
H1094 H 0.66212 0.18604 0.88604 0.0
C1095 C 0.57206 0.13238 0.90976 0.0
C1096 C 0.59635 0.08741 0.9003 0.0
H1097 H 0.56095 0.22922 0.91901 0.0
H1098 H 0.54689 0.11819 0.91689 0.0
C1099 C 0.62888 0.10807 0.89193 0.0
C1100 C 0.37071 0.1294 0.70903 0.0
C1101 C 0.36222 0.08792 0.68189 0.0
H1102 H 0.36948 0.22365 0.72831 0.0
C1103 C 0.34589 0.11224 0.65237 0.0
H1104 H 0.38287 0.11229 0.73239 0.0
C1105 C 0.33824 0.17616 0.65003 0.0
C1106 C 0.34668 0.21764 0.67716 0.0
H1107 H 0.33951 0.08206 0.63069 0.0
H1108 H 0.3261 0.19324 0.62665 0.0
C1109 C 0.36307 0.19338 0.70668 0.0
C1110 C 0.59023 0.87536 0.67434 0.0
C1111 C 0.62405 0.85621 0.67424 0.0
H1112 H 0.55549 0.95186 0.67404 0.0
C1113 C 0.64922 0.90216 0.67192 0.0
H1114 H 0.57021 0.84136 0.67676 0.0
C1115 C 0.64076 0.96578 0.6703 0.0
C1116 C 0.60692 0.98494 0.67101 0.0
H1117 H 0.6755 0.88894 0.67137 0.0
H1118 H 0.66074 0.99997 0.66846 0.0
C1119 C 0.58178 0.93886 0.67278 0.0
loop_
_geom_bond_atom_site_label_1
_geom_bond_atom_site_label_2
_geom_bond_distance
_geom_bond_site_symmetry_2
_ccdc_geom_bond_type
C0 Eu1 2.835 . S
C0 C2 1.500 . S
C0 O20 1.257 . S
C0 O21 1.260 . S
Eu1 C0 2.835 . S
Eu1 O20 2.473 . S
Eu1 O21 2.480 . S
Eu1 O22 2.430 . S
Eu1 O23 2.670 . S
Eu1 O24 2.394 . S
Eu1 O29 2.355 . S
Eu1 O31 2.374 . S
C2 C0 1.500 . S
C2 C3 1.377 . S
C2 C7 1.377 . S
C3 C2 1.377 . S
C3 C4 1.395 . S
C3 H32 0.931 . S
C4 C3 1.395 . S
C4 C5 1.383 . S
C4 H33 0.931 . S
C5 C4 1.383 . S
C5 C6 1.394 . S
C6 C5 1.394 . S
C6 C7 1.378 . S
C6 H34 0.931 . S
C7 C2 1.377 . S
C7 C6 1.378 . S
C7 H35 0.931 . S
C8 O22 1.259 . S
C8 O23 1.270 . S
C9 O24 1.251 . S
C9 O25 1.251 . S
C10 Eu11 2.835 1_565 S
C10 C12 1.500 . S
C10 O26 1.257 . S
C10 O27 1.260 . S
Eu11 C10 2.835 1_545 S
Eu11 O23 2.355 . S
Eu11 O25 2.374 . S
Eu11 O26 2.473 1_545 S
Eu11 O27 2.480 1_545 S
Eu11 O28 2.430 . S
Eu11 O29 2.670 . S
Eu11 O30 2.394 . S
C12 C10 1.500 . S
C12 C13 1.377 . S
C12 C17 1.377 . S
C13 C12 1.377 . S
C13 C14 1.395 . S
C13 H36 0.931 . S
C14 C13 1.395 . S
C14 C15 1.383 . S
C14 H37 0.931 . S
C15 C14 1.383 . S
C15 C16 1.394 . S
C16 C15 1.394 . S
C16 C17 1.378 . S
C16 H38 0.931 . S
C17 C12 1.377 . S
C17 C16 1.378 . S
C17 H39 0.931 . S
C18 O28 1.259 . S
C18 O29 1.270 . S
C19 O30 1.251 . S
C19 O31 1.251 . S
O20 C0 1.257 . S
O20 Eu1 2.473 . S
O21 C0 1.260 . S
O21 Eu1 2.480 . S
O22 Eu1 2.430 . S
O22 C8 1.259 . S
O23 Eu1 2.670 . S
O23 C8 1.270 . S
O23 Eu11 2.355 . S
O24 Eu1 2.394 . S
O24 C9 1.251 . S
O25 C9 1.251 . S
O25 Eu11 2.374 . S
O26 C10 1.257 . S
O26 Eu11 2.473 1_565 S
O27 C10 1.260 . S
O27 Eu11 2.480 1_565 S
O28 Eu11 2.430 . S
O28 C18 1.259 . S
O29 Eu1 2.355 . S
O29 Eu11 2.670 . S
O29 C18 1.270 . S
O30 Eu11 2.394 . S
O30 C19 1.251 . S
O31 Eu1 2.374 . S
O31 C19 1.251 . S
H32 C3 0.931 . S
H33 C4 0.931 . S
H34 C6 0.931 . S
H35 C7 0.931 . S
H36 C13 0.931 . S
H37 C14 0.931 . S
H38 C16 0.931 . S
H39 C17 0.931 . S
C40 Eu41 2.835 . S
C40 C42 1.500 . S
C40 O60 1.257 . S
C40 O61 1.260 . S
Eu41 C40 2.835 . S
Eu41 O60 2.473 . S
Eu41 O61 2.480 . S
Eu41 O62 2.430 . S
Eu41 O63 2.670 . S
Eu41 O64 2.394 . S
Eu41 O69 2.355 . S
Eu41 O71 2.374 . S
C42 C40 1.500 . S
C42 C43 1.377 . S
C42 C47 1.377 . S
C43 C42 1.377 . S
C43 C44 1.395 . S
C43 H72 0.931 . S
C44 C43 1.395 . S
C44 C45 1.383 . S
C44 H73 0.931 . S
C45 C44 1.383 . S
C45 C46 1.394 . S
C46 C45 1.394 . S
C46 C47 1.378 . S
C46 H74 0.931 . S
C47 C42 1.377 . S
C47 C46 1.378 . S
C47 H75 0.931 . S
C48 O62 1.259 . S
C48 O63 1.270 . S
C49 O64 1.251 . S
C49 O65 1.251 . S
C50 Eu51 2.835 1_545 S
C50 C52 1.500 . S
C50 O66 1.257 . S
C50 O67 1.260 . S
Eu51 C50 2.835 1_565 S
Eu51 O63 2.355 . S
Eu51 O65 2.374 . S
Eu51 O66 2.473 1_565 S
Eu51 O67 2.480 1_565 S
Eu51 O68 2.430 . S
Eu51 O69 2.670 . S
Eu51 O70 2.394 . S
C52 C50 1.500 . S
C52 C53 1.377 . S
C52 C57 1.377 . S
C53 C52 1.377 . S
C53 C54 1.395 . S
C53 H76 0.931 . S
C54 C53 1.395 . S
C54 C55 1.383 . S
C54 H77 0.931 . S
C55 C54 1.383 . S
C55 C56 1.394 . S
C56 C55 1.394 . S
C56 C57 1.378 . S
C56 H78 0.931 . S
C57 C52 1.377 . S
C57 C56 1.378 . S
C57 H79 0.931 . S
C58 O68 1.259 . S
C58 O69 1.270 . S
C59 O70 1.251 . S
C59 O71 1.251 . S
O60 C40 1.257 . S
O60 Eu41 2.473 . S
O61 C40 1.260 . S
O61 Eu41 2.480 . S
O62 Eu41 2.430 . S
O62 C48 1.259 . S
O63 Eu41 2.670 . S
O63 C48 1.270 . S
O63 Eu51 2.355 . S
O64 Eu41 2.394 . S
O64 C49 1.251 . S
O65 C49 1.251 . S
O65 Eu51 2.374 . S
O66 C50 1.257 . S
O66 Eu51 2.473 1_545 S
O67 C50 1.260 . S
O67 Eu51 2.480 1_545 S
O68 Eu51 2.430 . S
O68 C58 1.259 . S
O69 Eu41 2.355 . S
O69 Eu51 2.670 . S
O69 C58 1.270 . S
O70 Eu51 2.394 . S
O70 C59 1.251 . S
O71 Eu41 2.374 . S
O71 C59 1.251 . S
H72 C43 0.931 . S
H73 C44 0.931 . S
H74 C46 0.931 . S
H75 C47 0.931 . S
H76 C53 0.931 . S
H77 C54 0.931 . S
H78 C56 0.931 . S
H79 C57 0.931 . S
C80 Eu81 2.835 . S
C80 C82 1.500 . S
C80 O100 1.257 . S
C80 O101 1.260 . S
Eu81 C80 2.835 . S
Eu81 O100 2.473 . S
Eu81 O101 2.480 . S
Eu81 O102 2.430 . S
Eu81 O103 2.670 . S
Eu81 O104 2.394 . S
Eu81 O109 2.355 . S
Eu81 O111 2.374 . S
C82 C80 1.500 . S
C82 C83 1.377 . S
C82 C87 1.377 . S
C83 C82 1.377 . S
C83 C84 1.395 . S
C83 H112 0.931 . S
C84 C83 1.395 . S
C84 C85 1.383 . S
C84 H113 0.931 . S
C85 C84 1.383 . S
C85 C86 1.394 . S
C86 C85 1.394 . S
C86 C87 1.378 . S
C86 H114 0.931 . S
C87 C82 1.377 . S
C87 C86 1.378 . S
C87 H115 0.931 . S
C88 O102 1.259 . S
C88 O103 1.270 . S
C89 O104 1.251 . S
C89 O105 1.251 . S
C90 Eu91 2.835 1_545 S
C90 C92 1.500 . S
C90 O106 1.257 . S
C90 O107 1.260 . S
Eu91 C90 2.835 1_565 S
Eu91 O103 2.355 . S
Eu91 O105 2.374 . S
Eu91 O106 2.473 1_565 S
Eu91 O107 2.480 1_565 S
Eu91 O108 2.430 . S
Eu91 O109 2.670 . S
Eu91 O110 2.394 . S
C92 C90 1.500 . S
C92 C93 1.377 . S
C92 C97 1.377 . S
C93 C92 1.377 . S
C93 C94 1.395 . S
C93 H116 0.931 . S
C94 C93 1.395 . S
C94 C95 1.383 . S
C94 H117 0.931 . S
C95 C94 1.383 . S
C95 C96 1.394 . S
C96 C95 1.394 . S
C96 C97 1.378 . S
C96 H118 0.931 . S
C97 C92 1.377 . S
C97 C96 1.378 . S
C97 H119 0.931 . S
C98 O108 1.259 . S
C98 O109 1.270 . S
C99 O110 1.251 . S
C99 O111 1.251 . S
O100 C80 1.257 . S
O100 Eu81 2.473 . S
O101 C80 1.260 . S
O101 Eu81 2.480 . S
O102 Eu81 2.430 . S
O102 C88 1.259 . S
O103 Eu81 2.670 . S
O103 C88 1.270 . S
O103 Eu91 2.355 . S
O104 Eu81 2.394 . S
O104 C89 1.251 . S
O105 C89 1.251 . S
O105 Eu91 2.374 . S
O106 C90 1.257 . S
O106 Eu91 2.473 1_545 S
O107 C90 1.260 . S
O107 Eu91 2.480 1_545 S
O108 Eu91 2.430 . S
O108 C98 1.259 . S
O109 Eu81 2.355 . S
O109 Eu91 2.670 . S
O109 C98 1.270 . S
O110 Eu91 2.394 . S
O110 C99 1.251 . S
O111 Eu81 2.374 . S
O111 C99 1.251 . S
H112 C83 0.931 . S
H113 C84 0.931 . S
H114 C86 0.931 . S
H115 C87 0.931 . S
H116 C93 0.931 . S
H117 C94 0.931 . S
H118 C96 0.931 . S
H119 C97 0.931 . S
C120 Eu121 2.835 . S
C120 C122 1.500 . S
C120 O140 1.257 . S
C120 O141 1.260 . S
Eu121 C120 2.835 . S
Eu121 O140 2.473 . S
Eu121 O141 2.480 . S
Eu121 O142 2.430 . S
Eu121 O143 2.670 . S
Eu121 O144 2.394 . S
Eu121 O149 2.355 . S
Eu121 O151 2.374 . S
C122 C120 1.500 . S
C122 C123 1.377 . S
C122 C127 1.377 . S
C123 C122 1.377 . S
C123 C124 1.395 . S
C123 H152 0.931 . S
C124 C123 1.395 . S
C124 C125 1.383 . S
C124 H153 0.931 . S
C125 C124 1.383 . S
C125 C126 1.394 . S
C126 C125 1.394 . S
C126 C127 1.378 . S
C126 H154 0.931 . S
C127 C122 1.377 . S
C127 C126 1.378 . S
C127 H155 0.931 . S
C128 O142 1.259 . S
C128 O143 1.270 . S
C129 O144 1.251 . S
C129 O145 1.251 . S
C130 Eu131 2.835 1_565 S
C130 C132 1.500 . S
C130 O146 1.257 . S
C130 O147 1.260 . S
Eu131 C130 2.835 1_545 S
Eu131 O143 2.355 . S
Eu131 O145 2.374 . S
Eu131 O146 2.473 1_545 S
Eu131 O147 2.480 1_545 S
Eu131 O148 2.430 . S
Eu131 O149 2.670 . S
Eu131 O150 2.394 . S
C132 C130 1.500 . S
C132 C133 1.377 . S
C132 C137 1.377 . S
C133 C132 1.377 . S
C133 C134 1.395 . S
C133 H156 0.931 . S
C134 C133 1.395 . S
C134 C135 1.383 . S
C134 H157 0.931 . S
C135 C134 1.383 . S
C135 C136 1.394 . S
C136 C135 1.394 . S
C136 C137 1.378 . S
C136 H158 0.931 . S
C137 C132 1.377 . S
C137 C136 1.378 . S
C137 H159 0.931 . S
C138 O148 1.259 . S
C138 O149 1.270 . S
C139 O150 1.251 . S
C139 O151 1.251 . S
O140 C120 1.257 . S
O140 Eu121 2.473 . S
O141 C120 1.260 . S
O141 Eu121 2.480 . S
O142 Eu121 2.430 . S
O142 C128 1.259 . S
O143 Eu121 2.670 . S
O143 C128 1.270 . S
O143 Eu131 2.355 . S
O144 Eu121 2.394 . S
O144 C129 1.251 . S
O145 C129 1.251 . S
O145 Eu131 2.374 . S
O146 C130 1.257 . S
O146 Eu131 2.473 1_565 S
O147 C130 1.260 . S
O147 Eu131 2.480 1_565 S
O148 Eu131 2.430 . S
O148 C138 1.259 . S
O149 Eu121 2.355 . S
O149 Eu131 2.670 . S
O149 C138 1.270 . S
O150 Eu131 2.394 . S
O150 C139 1.251 . S
O151 Eu121 2.374 . S
O151 C139 1.251 . S
H152 C123 0.931 . S
H153 C124 0.931 . S
H154 C126 0.931 . S
H155 C127 0.931 . S
H156 C133 0.931 . S
H157 C134 0.931 . S
H158 C136 0.931 . S
H159 C137 0.931 . S
C160 Eu161 2.835 1_545 S
C160 C162 1.500 . S
C160 O180 1.257 . S
C160 O181 1.260 . S
Eu161 C160 2.835 1_565 S
Eu161 O180 2.473 1_565 S
Eu161 O181 2.480 1_565 S
Eu161 O182 2.430 . S
Eu161 O183 2.670 . S
Eu161 O184 2.394 . S
Eu161 O189 2.355 . S
Eu161 O191 2.374 . S
C162 C160 1.500 . S
C162 C163 1.377 . S
C162 C167 1.377 . S
C163 C162 1.377 . S
C163 C164 1.395 . S
C163 H192 0.931 . S
C164 C163 1.395 . S
C164 C165 1.383 . S
C164 H193 0.931 . S
C165 C164 1.383 . S
C165 C166 1.394 . S
C166 C165 1.394 . S
C166 C167 1.378 . S
C166 H194 0.931 . S
C167 C162 1.377 . S
C167 C166 1.378 . S
C167 H195 0.931 . S
C168 O182 1.259 . S
C168 O183 1.270 . S
C169 O184 1.251 . S
C169 O185 1.251 . S
C170 Eu171 2.835 . S
C170 C172 1.500 . S
C170 O186 1.257 . S
C170 O187 1.260 . S
Eu171 C170 2.835 . S
Eu171 O183 2.355 . S
Eu171 O185 2.374 . S
Eu171 O186 2.473 . S
Eu171 O187 2.480 . S
Eu171 O188 2.430 . S
Eu171 O189 2.670 . S
Eu171 O190 2.394 . S
C172 C170 1.500 . S
C172 C173 1.377 . S
C172 C177 1.377 . S
C173 C172 1.377 . S
C173 C174 1.395 . S
C173 H196 0.931 . S
C174 C173 1.395 . S
C174 C175 1.383 . S
C174 H197 0.931 . S
C175 C174 1.383 . S
C175 C176 1.394 . S
C176 C175 1.394 . S
C176 C177 1.378 . S
C176 H198 0.931 . S
C177 C172 1.377 . S
C177 C176 1.378 . S
C177 H199 0.931 . S
C178 O188 1.259 . S
C178 O189 1.270 . S
C179 O190 1.251 . S
C179 O191 1.251 . S
O180 C160 1.257 . S
O180 Eu161 2.473 1_545 S
O181 C160 1.260 . S
O181 Eu161 2.480 1_545 S
O182 Eu161 2.430 . S
O182 C168 1.259 . S
O183 Eu161 2.670 . S
O183 C168 1.270 . S
O183 Eu171 2.355 . S
O184 Eu161 2.394 . S
O184 C169 1.251 . S
O185 C169 1.251 . S
O185 Eu171 2.374 . S
O186 C170 1.257 . S
O186 Eu171 2.473 . S
O187 C170 1.260 . S
O187 Eu171 2.480 . S
O188 Eu171 2.430 . S
O188 C178 1.259 . S
O189 Eu161 2.355 . S
O189 Eu171 2.670 . S
O189 C178 1.270 . S
O190 Eu171 2.394 . S
O190 C179 1.251 . S
O191 Eu161 2.374 . S
O191 C179 1.251 . S
H192 C163 0.931 . S
H193 C164 0.931 . S
H194 C166 0.931 . S
H195 C167 0.931 . S
H196 C173 0.931 . S
H197 C174 0.931 . S
H198 C176 0.931 . S
H199 C177 0.931 . S
C200 Eu201 2.835 1_565 S
C200 C202 1.500 . S
C200 O220 1.257 . S
C200 O221 1.260 . S
Eu201 C200 2.835 1_545 S
Eu201 O220 2.473 1_545 S
Eu201 O221 2.480 1_545 S
Eu201 O222 2.430 . S
Eu201 O223 2.670 . S
Eu201 O224 2.394 . S
Eu201 O229 2.355 . S
Eu201 O231 2.374 . S
C202 C200 1.500 . S
C202 C203 1.377 . S
C202 C207 1.377 . S
C203 C202 1.377 . S
C203 C204 1.395 . S
C203 H232 0.931 . S
C204 C203 1.395 . S
C204 C205 1.383 . S
C204 H233 0.931 . S
C205 C204 1.383 . S
C205 C206 1.394 . S
C206 C205 1.394 . S
C206 C207 1.378 . S
C206 H234 0.931 . S
C207 C202 1.377 . S
C207 C206 1.378 . S
C207 H235 0.931 . S
C208 O222 1.259 . S
C208 O223 1.270 . S
C209 O224 1.251 . S
C209 O225 1.251 . S
C210 Eu211 2.835 . S
C210 C212 1.500 . S
C210 O226 1.257 . S
C210 O227 1.260 . S
Eu211 C210 2.835 . S
Eu211 O223 2.355 . S
Eu211 O225 2.374 . S
Eu211 O226 2.473 . S
Eu211 O227 2.480 . S
Eu211 O228 2.430 . S
Eu211 O229 2.670 . S
Eu211 O230 2.394 . S
C212 C210 1.500 . S
C212 C213 1.377 . S
C212 C217 1.377 . S
C213 C212 1.377 . S
C213 C214 1.395 . S
C213 H236 0.931 . S
C214 C213 1.395 . S
C214 C215 1.383 . S
C214 H237 0.931 . S
C215 C214 1.383 . S
C215 C216 1.394 . S
C216 C215 1.394 . S
C216 C217 1.378 . S
C216 H238 0.931 . S
C217 C212 1.377 . S
C217 C216 1.378 . S
C217 H239 0.931 . S
C218 O228 1.259 . S
C218 O229 1.270 . S
C219 O230 1.251 . S
C219 O231 1.251 . S
O220 C200 1.257 . S
O220 Eu201 2.473 1_565 S
O221 C200 1.260 . S
O221 Eu201 2.480 1_565 S
O222 Eu201 2.430 . S
O222 C208 1.259 . S
O223 Eu201 2.670 . S
O223 C208 1.270 . S
O223 Eu211 2.355 . S
O224 Eu201 2.394 . S
O224 C209 1.251 . S
O225 C209 1.251 . S
O225 Eu211 2.374 . S
O226 C210 1.257 . S
O226 Eu211 2.473 . S
O227 C210 1.260 . S
O227 Eu211 2.480 . S
O228 Eu211 2.430 . S
O228 C218 1.259 . S
O229 Eu201 2.355 . S
O229 Eu211 2.670 . S
O229 C218 1.270 . S
O230 Eu211 2.394 . S
O230 C219 1.251 . S
O231 Eu201 2.374 . S
O231 C219 1.251 . S
H232 C203 0.931 . S
H233 C204 0.931 . S
H234 C206 0.931 . S
H235 C207 0.931 . S
H236 C213 0.931 . S
H237 C214 0.931 . S
H238 C216 0.931 . S
H239 C217 0.931 . S
C240 Eu241 2.835 1_565 S
C240 C242 1.500 . S
C240 O260 1.257 . S
C240 O261 1.260 . S
Eu241 C240 2.835 1_545 S
Eu241 O260 2.473 1_545 S
Eu241 O261 2.480 1_545 S
Eu241 O262 2.430 . S
Eu241 O263 2.670 . S
Eu241 O264 2.394 . S
Eu241 O269 2.355 . S
Eu241 O271 2.374 . S
C242 C240 1.500 . S
C242 C243 1.377 . S
C242 C247 1.377 . S
C243 C242 1.377 . S
C243 C244 1.395 . S
C243 H272 0.931 . S
C244 C243 1.395 . S
C244 C245 1.383 . S
C244 H273 0.931 . S
C245 C244 1.383 . S
C245 C246 1.394 . S
C246 C245 1.394 . S
C246 C247 1.378 . S
C246 H274 0.931 . S
C247 C242 1.377 . S
C247 C246 1.378 . S
C247 H275 0.931 . S
C248 O262 1.259 . S
C248 O263 1.270 . S
C249 O264 1.251 . S
C249 O265 1.251 . S
C250 Eu251 2.835 . S
C250 C252 1.500 . S
C250 O266 1.257 . S
C250 O267 1.260 . S
Eu251 C250 2.835 . S
Eu251 O263 2.355 . S
Eu251 O265 2.374 . S
Eu251 O266 2.473 . S
Eu251 O267 2.480 . S
Eu251 O268 2.430 . S
Eu251 O269 2.670 . S
Eu251 O270 2.394 . S
C252 C250 1.500 . S
C252 C253 1.377 . S
C252 C257 1.377 . S
C253 C252 1.377 . S
C253 C254 1.395 . S
C253 H276 0.931 . S
C254 C253 1.395 . S
C254 C255 1.383 . S
C254 H277 0.931 . S
C255 C254 1.383 . S
C255 C256 1.394 . S
C256 C255 1.394 . S
C256 C257 1.378 . S
C256 H278 0.931 . S
C257 C252 1.377 . S
C257 C256 1.378 . S
C257 H279 0.931 . S
C258 O268 1.259 . S
C258 O269 1.270 . S
C259 O270 1.251 . S
C259 O271 1.251 . S
O260 C240 1.257 . S
O260 Eu241 2.473 1_565 S
O261 C240 1.260 . S
O261 Eu241 2.480 1_565 S
O262 Eu241 2.430 . S
O262 C248 1.259 . S
O263 Eu241 2.670 . S
O263 C248 1.270 . S
O263 Eu251 2.355 . S
O264 Eu241 2.394 . S
O264 C249 1.251 . S
O265 C249 1.251 . S
O265 Eu251 2.374 . S
O266 C250 1.257 . S
O266 Eu251 2.473 . S
O267 C250 1.260 . S
O267 Eu251 2.480 . S
O268 Eu251 2.430 . S
O268 C258 1.259 . S
O269 Eu241 2.355 . S
O269 Eu251 2.670 . S
O269 C258 1.270 . S
O270 Eu251 2.394 . S
O270 C259 1.251 . S
O271 Eu241 2.374 . S
O271 C259 1.251 . S
H272 C243 0.931 . S
H273 C244 0.931 . S
H274 C246 0.931 . S
H275 C247 0.931 . S
H276 C253 0.931 . S
H277 C254 0.931 . S
H278 C256 0.931 . S
H279 C257 0.931 . S
C280 Eu281 2.835 1_545 S
C280 C282 1.500 . S
C280 O300 1.257 . S
C280 O301 1.260 . S
Eu281 C280 2.835 1_565 S
Eu281 O300 2.473 1_565 S
Eu281 O301 2.480 1_565 S
Eu281 O302 2.430 . S
Eu281 O303 2.670 . S
Eu281 O304 2.394 . S
Eu281 O309 2.355 . S
Eu281 O311 2.374 . S
C282 C280 1.500 . S
C282 C283 1.377 . S
C282 C287 1.377 . S
C283 C282 1.377 . S
C283 C284 1.395 . S
C283 H312 0.931 . S
C284 C283 1.395 . S
C284 C285 1.383 . S
C284 H313 0.931 . S
C285 C284 1.383 . S
C285 C286 1.394 . S
C286 C285 1.394 . S
C286 C287 1.378 . S
C286 H314 0.931 . S
C287 C282 1.377 . S
C287 C286 1.378 . S
C287 H315 0.931 . S
C288 O302 1.259 . S
C288 O303 1.270 . S
C289 O304 1.251 . S
C289 O305 1.251 . S
C290 Eu291 2.835 . S
C290 C292 1.500 . S
C290 O306 1.257 . S
C290 O307 1.260 . S
Eu291 C290 2.835 . S
Eu291 O303 2.355 . S
Eu291 O305 2.374 . S
Eu291 O306 2.473 . S
Eu291 O307 2.480 . S
Eu291 O308 2.430 . S
Eu291 O309 2.670 . S
Eu291 O310 2.394 . S
C292 C290 1.500 . S
C292 C293 1.377 . S
C292 C297 1.377 . S
C293 C292 1.377 . S
C293 C294 1.395 . S
C293 H316 0.931 . S
C294 C293 1.395 . S
C294 C295 1.383 . S
C294 H317 0.931 . S
C295 C294 1.383 . S
C295 C296 1.394 . S
C296 C295 1.394 . S
C296 C297 1.378 . S
C296 H318 0.931 . S
C297 C292 1.377 . S
C297 C296 1.378 . S
C297 H319 0.931 . S
C298 O308 1.259 . S
C298 O309 1.270 . S
C299 O310 1.251 . S
C299 O311 1.251 . S
O300 C280 1.257 . S
O300 Eu281 2.473 1_545 S
O301 C280 1.260 . S
O301 Eu281 2.480 1_545 S
O302 Eu281 2.430 . S
O302 C288 1.259 . S
O303 Eu281 2.670 . S
O303 C288 1.270 . S
O303 Eu291 2.355 . S
O304 Eu281 2.394 . S
O304 C289 1.251 . S
O305 C289 1.251 . S
O305 Eu291 2.374 . S
O306 C290 1.257 . S
O306 Eu291 2.473 . S
O307 C290 1.260 . S
O307 Eu291 2.480 . S
O308 Eu291 2.430 . S
O308 C298 1.259 . S
O309 Eu281 2.355 . S
O309 Eu291 2.670 . S
O309 C298 1.270 . S
O310 Eu291 2.394 . S
O310 C299 1.251 . S
O311 Eu281 2.374 . S
O311 C299 1.251 . S
H312 C283 0.931 . S
H313 C284 0.931 . S
H314 C286 0.931 . S
H315 C287 0.931 . S
H316 C293 0.931 . S
H317 C294 0.931 . S
H318 C296 0.931 . S
H319 C297 0.931 . S
C320 Eu321 2.835 . S
C320 C322 1.500 . S
C320 O340 1.257 . S
C320 O341 1.260 . S
Eu321 C320 2.835 . S
Eu321 O340 2.473 . S
Eu321 O341 2.480 . S
Eu321 O342 2.430 . S
Eu321 O343 2.670 . S
Eu321 O344 2.394 . S
Eu321 O349 2.355 . S
Eu321 O351 2.374 . S
C322 C320 1.500 . S
C322 C323 1.377 . S
C322 C327 1.377 . S
C323 C322 1.377 . S
C323 C324 1.395 . S
C323 H352 0.931 . S
C324 C323 1.395 . S
C324 C325 1.383 . S
C324 H353 0.931 . S
C325 C324 1.383 . S
C325 C326 1.394 . S
C326 C325 1.394 . S
C326 C327 1.378 . S
C326 H354 0.931 . S
C327 C322 1.377 . S
C327 C326 1.378 . S
C327 H355 0.931 . S
C328 O342 1.259 . S
C328 O343 1.270 . S
C329 O344 1.251 . S
C329 O345 1.251 . S
C330 Eu331 2.835 . S
C330 C332 1.500 . S
C330 O346 1.257 . S
C330 O347 1.260 . S
Eu331 C330 2.835 . S
Eu331 O343 2.355 . S
Eu331 O345 2.374 . S
Eu331 O346 2.473 . S
Eu331 O347 2.480 . S
Eu331 O348 2.430 . S
Eu331 O349 2.670 . S
Eu331 O350 2.394 . S
C332 C330 1.500 . S
C332 C333 1.377 . S
C332 C337 1.377 . S
C333 C332 1.377 . S
C333 C334 1.395 . S
C333 H356 0.931 . S
C334 C333 1.395 . S
C334 C335 1.383 . S
C334 H357 0.931 . S
C335 C334 1.383 . S
C335 C336 1.394 . S
C336 C335 1.394 . S
C336 C337 1.378 . S
C336 H358 0.931 . S
C337 C332 1.377 . S
C337 C336 1.378 . S
C337 H359 0.931 . S
C338 O348 1.259 . S
C338 O349 1.270 . S
C339 O350 1.251 . S
C339 O351 1.251 . S
O340 C320 1.257 . S
O340 Eu321 2.473 . S
O341 C320 1.260 . S
O341 Eu321 2.480 . S
O342 Eu321 2.430 . S
O342 C328 1.259 . S
O343 Eu321 2.670 . S
O343 C328 1.270 . S
O343 Eu331 2.355 . S
O344 Eu321 2.394 . S
O344 C329 1.251 . S
O345 C329 1.251 . S
O345 Eu331 2.374 . S
O346 C330 1.257 . S
O346 Eu331 2.473 . S
O347 C330 1.260 . S
O347 Eu331 2.480 . S
O348 Eu331 2.430 . S
O348 C338 1.259 . S
O349 Eu321 2.355 . S
O349 Eu331 2.670 . S
O349 C338 1.270 . S
O350 Eu331 2.394 . S
O350 C339 1.251 . S
O351 Eu321 2.374 . S
O351 C339 1.251 . S
H352 C323 0.931 . S
H353 C324 0.931 . S
H354 C326 0.931 . S
H355 C327 0.931 . S
H356 C333 0.931 . S
H357 C334 0.931 . S
H358 C336 0.931 . S
H359 C337 0.931 . S
C360 Eu361 2.835 . S
C360 C362 1.500 . S
C360 O380 1.257 . S
C360 O381 1.260 . S
Eu361 C360 2.835 . S
Eu361 O380 2.473 . S
Eu361 O381 2.480 . S
Eu361 O382 2.430 . S
Eu361 O383 2.670 . S
Eu361 O384 2.394 . S
Eu361 O389 2.355 . S
Eu361 O391 2.374 . S
C362 C360 1.500 . S
C362 C363 1.377 . S
C362 C367 1.377 . S
C363 C362 1.377 . S
C363 C364 1.395 . S
C363 H392 0.931 . S
C364 C363 1.395 . S
C364 C365 1.383 . S
C364 H393 0.931 . S
C365 C364 1.383 . S
C365 C366 1.394 . S
C366 C365 1.394 . S
C366 C367 1.378 . S
C366 H394 0.931 . S
C367 C362 1.377 . S
C367 C366 1.378 . S
C367 H395 0.931 . S
C368 O382 1.259 . S
C368 O383 1.270 . S
C369 O384 1.251 . S
C369 O385 1.251 . S
C370 Eu371 2.835 . S
C370 C372 1.500 . S
C370 O386 1.257 . S
C370 O387 1.260 . S
Eu371 C370 2.835 . S
Eu371 O383 2.355 . S
Eu371 O385 2.374 . S
Eu371 O386 2.473 . S
Eu371 O387 2.480 . S
Eu371 O388 2.430 . S
Eu371 O389 2.670 . S
Eu371 O390 2.394 . S
C372 C370 1.500 . S
C372 C373 1.377 . S
C372 C377 1.377 . S
C373 C372 1.377 . S
C373 C374 1.395 . S
C373 H396 0.931 . S
C374 C373 1.395 . S
C374 C375 1.383 . S
C374 H397 0.931 . S
C375 C374 1.383 . S
C375 C376 1.394 . S
C376 C375 1.394 . S
C376 C377 1.378 . S
C376 H398 0.931 . S
C377 C372 1.377 . S
C377 C376 1.378 . S
C377 H399 0.931 . S
C378 O388 1.259 . S
C378 O389 1.270 . S
C379 O390 1.251 . S
C379 O391 1.251 . S
O380 C360 1.257 . S
O380 Eu361 2.473 . S
O381 C360 1.260 . S
O381 Eu361 2.480 . S
O382 Eu361 2.430 . S
O382 C368 1.259 . S
O383 Eu361 2.670 . S
O383 C368 1.270 . S
O383 Eu371 2.355 . S
O384 Eu361 2.394 . S
O384 C369 1.251 . S
O385 C369 1.251 . S
O385 Eu371 2.374 . S
O386 C370 1.257 . S
O386 Eu371 2.473 . S
O387 C370 1.260 . S
O387 Eu371 2.480 . S
O388 Eu371 2.430 . S
O388 C378 1.259 . S
O389 Eu361 2.355 . S
O389 Eu371 2.670 . S
O389 C378 1.270 . S
O390 Eu371 2.394 . S
O390 C379 1.251 . S
O391 Eu361 2.374 . S
O391 C379 1.251 . S
H392 C363 0.931 . S
H393 C364 0.931 . S
H394 C366 0.931 . S
H395 C367 0.931 . S
H396 C373 0.931 . S
H397 C374 0.931 . S
H398 C376 0.931 . S
H399 C377 0.931 . S
C400 Eu401 2.835 . S
C400 C402 1.500 . S
C400 O420 1.257 . S
C400 O421 1.260 . S
Eu401 C400 2.835 . S
Eu401 O420 2.473 . S
Eu401 O421 2.480 . S
Eu401 O422 2.430 . S
Eu401 O423 2.670 . S
Eu401 O424 2.394 . S
Eu401 O429 2.355 . S
Eu401 O431 2.374 . S
C402 C400 1.500 . S
C402 C403 1.377 . S
C402 C407 1.377 . S
C403 C402 1.377 . S
C403 C404 1.395 . S
C403 H432 0.931 . S
C404 C403 1.395 . S
C404 C405 1.383 . S
C404 H433 0.931 . S
C405 C404 1.383 . S
C405 C406 1.394 . S
C406 C405 1.394 . S
C406 C407 1.378 . S
C406 H434 0.931 . S
C407 C402 1.377 . S
C407 C406 1.378 . S
C407 H435 0.931 . S
C408 O422 1.259 . S
C408 O423 1.270 . S
C409 O424 1.251 . S
C409 O425 1.251 . S
C410 Eu411 2.835 . S
C410 C412 1.500 . S
C410 O426 1.257 . S
C410 O427 1.260 . S
Eu411 C410 2.835 . S
Eu411 O423 2.355 . S
Eu411 O425 2.374 . S
Eu411 O426 2.473 . S
Eu411 O427 2.480 . S
Eu411 O428 2.430 . S
Eu411 O429 2.670 . S
Eu411 O430 2.394 . S
C412 C410 1.500 . S
C412 C413 1.377 . S
C412 C417 1.377 . S
C413 C412 1.377 . S
C413 C414 1.395 . S
C413 H436 0.931 . S
C414 C413 1.395 . S
C414 C415 1.383 . S
C414 H437 0.931 . S
C415 C414 1.383 . S
C415 C416 1.394 . S
C416 C415 1.394 . S
C416 C417 1.378 . S
C416 H438 0.931 . S
C417 C412 1.377 . S
C417 C416 1.378 . S
C417 H439 0.931 . S
C418 O428 1.259 . S
C418 O429 1.270 . S
C419 O430 1.251 . S
C419 O431 1.251 . S
O420 C400 1.257 . S
O420 Eu401 2.473 . S
O421 C400 1.260 . S
O421 Eu401 2.480 . S
O422 Eu401 2.430 . S
O422 C408 1.259 . S
O423 Eu401 2.670 . S
O423 C408 1.270 . S
O423 Eu411 2.355 . S
O424 Eu401 2.394 . S
O424 C409 1.251 . S
O425 C409 1.251 . S
O425 Eu411 2.374 . S
O426 C410 1.257 . S
O426 Eu411 2.473 . S
O427 C410 1.260 . S
O427 Eu411 2.480 . S
O428 Eu411 2.430 . S
O428 C418 1.259 . S
O429 Eu401 2.355 . S
O429 Eu411 2.670 . S
O429 C418 1.270 . S
O430 Eu411 2.394 . S
O430 C419 1.251 . S
O431 Eu401 2.374 . S
O431 C419 1.251 . S
H432 C403 0.931 . S
H433 C404 0.931 . S
H434 C406 0.931 . S
H435 C407 0.931 . S
H436 C413 0.931 . S
H437 C414 0.931 . S
H438 C416 0.931 . S
H439 C417 0.931 . S
C440 Eu441 2.835 . S
C440 C442 1.500 . S
C440 O460 1.257 . S
C440 O461 1.260 . S
Eu441 C440 2.835 . S
Eu441 O460 2.473 . S
Eu441 O461 2.480 . S
Eu441 O462 2.430 . S
Eu441 O463 2.670 . S
Eu441 O464 2.394 . S
Eu441 O469 2.355 . S
Eu441 O471 2.374 . S
C442 C440 1.500 . S
C442 C443 1.377 . S
C442 C447 1.377 . S
C443 C442 1.377 . S
C443 C444 1.395 . S
C443 H472 0.931 . S
C444 C443 1.395 . S
C444 C445 1.383 . S
C444 H473 0.931 . S
C445 C444 1.383 . S
C445 C446 1.394 . S
C446 C445 1.394 . S
C446 C447 1.378 . S
C446 H474 0.931 . S
C447 C442 1.377 . S
C447 C446 1.378 . S
C447 H475 0.931 . S
C448 O462 1.259 . S
C448 O463 1.270 . S
C449 O464 1.251 . S
C449 O465 1.251 . S
C450 Eu451 2.835 . S
C450 C452 1.500 . S
C450 O466 1.257 . S
C450 O467 1.260 . S
Eu451 C450 2.835 . S
Eu451 O463 2.355 . S
Eu451 O465 2.374 . S
Eu451 O466 2.473 . S
Eu451 O467 2.480 . S
Eu451 O468 2.430 . S
Eu451 O469 2.670 . S
Eu451 O470 2.394 . S
C452 C450 1.500 . S
C452 C453 1.377 . S
C452 C457 1.377 . S
C453 C452 1.377 . S
C453 C454 1.395 . S
C453 H476 0.931 . S
C454 C453 1.395 . S
C454 C455 1.383 . S
C454 H477 0.931 . S
C455 C454 1.383 . S
C455 C456 1.394 . S
C456 C455 1.394 . S
C456 C457 1.378 . S
C456 H478 0.931 . S
C457 C452 1.377 . S
C457 C456 1.378 . S
C457 H479 0.931 . S
C458 O468 1.259 . S
C458 O469 1.270 . S
C459 O470 1.251 . S
C459 O471 1.251 . S
O460 C440 1.257 . S
O460 Eu441 2.473 . S
O461 C440 1.260 . S
O461 Eu441 2.480 . S
O462 Eu441 2.430 . S
O462 C448 1.259 . S
O463 Eu441 2.670 . S
O463 C448 1.270 . S
O463 Eu451 2.355 . S
O464 Eu441 2.394 . S
O464 C449 1.251 . S
O465 C449 1.251 . S
O465 Eu451 2.374 . S
O466 C450 1.257 . S
O466 Eu451 2.473 . S
O467 C450 1.260 . S
O467 Eu451 2.480 . S
O468 Eu451 2.430 . S
O468 C458 1.259 . S
O469 Eu441 2.355 . S
O469 Eu451 2.670 . S
O469 C458 1.270 . S
O470 Eu451 2.394 . S
O470 C459 1.251 . S
O471 Eu441 2.374 . S
O471 C459 1.251 . S
H472 C443 0.931 . S
H473 C444 0.931 . S
H474 C446 0.931 . S
H475 C447 0.931 . S
H476 C453 0.931 . S
H477 C454 0.931 . S
H478 C456 0.931 . S
H479 C457 0.931 . S
C480 Eu481 2.835 . S
C480 C482 1.500 . S
C480 O500 1.257 . S
C480 O501 1.260 . S
Eu481 C480 2.835 . S
Eu481 O500 2.473 . S
Eu481 O501 2.480 . S
Eu481 O502 2.430 . S
Eu481 O503 2.670 . S
Eu481 O504 2.394 . S
Eu481 O509 2.355 . S
Eu481 O511 2.374 . S
C482 C480 1.500 . S
C482 C483 1.377 . S
C482 C487 1.377 . S
C483 C482 1.377 . S
C483 C484 1.395 . S
C483 H512 0.931 . S
C484 C483 1.395 . S
C484 C485 1.383 . S
C484 H513 0.931 . S
C485 C484 1.383 . S
C485 C486 1.394 . S
C486 C485 1.394 . S
C486 C487 1.378 . S
C486 H514 0.931 . S
C487 C482 1.377 . S
C487 C486 1.378 . S
C487 H515 0.931 . S
C488 O502 1.259 . S
C488 O503 1.270 . S
C489 O504 1.251 . S
C489 O505 1.251 . S
C490 Eu491 2.835 . S
C490 C492 1.500 . S
C490 O506 1.257 . S
C490 O507 1.260 . S
Eu491 C490 2.835 . S
Eu491 O503 2.355 . S
Eu491 O505 2.374 . S
Eu491 O506 2.473 . S
Eu491 O507 2.480 . S
Eu491 O508 2.430 . S
Eu491 O509 2.670 . S
Eu491 O510 2.394 . S
C492 C490 1.500 . S
C492 C493 1.377 . S
C492 C497 1.377 . S
C493 C492 1.377 . S
C493 C494 1.395 . S
C493 H516 0.931 . S
C494 C493 1.395 . S
C494 C495 1.383 . S
C494 H517 0.931 . S
C495 C494 1.383 . S
C495 C496 1.394 . S
C496 C495 1.394 . S
C496 C497 1.378 . S
C496 H518 0.931 . S
C497 C492 1.377 . S
C497 C496 1.378 . S
C497 H519 0.931 . S
C498 O508 1.259 . S
C498 O509 1.270 . S
C499 O510 1.251 . S
C499 O511 1.251 . S
O500 C480 1.257 . S
O500 Eu481 2.473 . S
O501 C480 1.260 . S
O501 Eu481 2.480 . S
O502 Eu481 2.430 . S
O502 C488 1.259 . S
O503 Eu481 2.670 . S
O503 C488 1.270 . S
O503 Eu491 2.355 . S
O504 Eu481 2.394 . S
O504 C489 1.251 . S
O505 C489 1.251 . S
O505 Eu491 2.374 . S
O506 C490 1.257 . S
O506 Eu491 2.473 . S
O507 C490 1.260 . S
O507 Eu491 2.480 . S
O508 Eu491 2.430 . S
O508 C498 1.259 . S
O509 Eu481 2.355 . S
O509 Eu491 2.670 . S
O509 C498 1.270 . S
O510 Eu491 2.394 . S
O510 C499 1.251 . S
O511 Eu481 2.374 . S
O511 C499 1.251 . S
H512 C483 0.931 . S
H513 C484 0.931 . S
H514 C486 0.931 . S
H515 C487 0.931 . S
H516 C493 0.931 . S
H517 C494 0.931 . S
H518 C496 0.931 . S
H519 C497 0.931 . S
C520 Eu521 2.835 . S
C520 C522 1.500 . S
C520 O540 1.257 . S
C520 O541 1.260 . S
Eu521 C520 2.835 . S
Eu521 O540 2.473 . S
Eu521 O541 2.480 . S
Eu521 O542 2.430 . S
Eu521 O543 2.670 . S
Eu521 O544 2.394 . S
Eu521 O549 2.355 . S
Eu521 O551 2.374 . S
C522 C520 1.500 . S
C522 C523 1.377 . S
C522 C527 1.377 . S
C523 C522 1.377 . S
C523 C524 1.395 . S
C523 H552 0.931 . S
C524 C523 1.395 . S
C524 C525 1.383 . S
C524 H553 0.931 . S
C525 C524 1.383 . S
C525 C526 1.394 . S
C526 C525 1.394 . S
C526 C527 1.378 . S
C526 H554 0.931 . S
C527 C522 1.377 . S
C527 C526 1.378 . S
C527 H555 0.931 . S
C528 O542 1.259 . S
C528 O543 1.270 . S
C529 O544 1.251 . S
C529 O545 1.251 . S
C530 Eu531 2.835 . S
C530 C532 1.500 . S
C530 O546 1.257 . S
C530 O547 1.260 . S
Eu531 C530 2.835 . S
Eu531 O543 2.355 . S
Eu531 O545 2.374 . S
Eu531 O546 2.473 . S
Eu531 O547 2.480 . S
Eu531 O548 2.430 . S
Eu531 O549 2.670 . S
Eu531 O550 2.394 . S
C532 C530 1.500 . S
C532 C533 1.377 . S
C532 C537 1.377 . S
C533 C532 1.377 . S
C533 C534 1.395 . S
C533 H556 0.931 . S
C534 C533 1.395 . S
C534 C535 1.383 . S
C534 H557 0.931 . S
C535 C534 1.383 . S
C535 C536 1.394 . S
C536 C535 1.394 . S
C536 C537 1.378 . S
C536 H558 0.931 . S
C537 C532 1.377 . S
C537 C536 1.378 . S
C537 H559 0.931 . S
C538 O548 1.259 . S
C538 O549 1.270 . S
C539 O550 1.251 . S
C539 O551 1.251 . S
O540 C520 1.257 . S
O540 Eu521 2.473 . S
O541 C520 1.260 . S
O541 Eu521 2.480 . S
O542 Eu521 2.430 . S
O542 C528 1.259 . S
O543 Eu521 2.670 . S
O543 C528 1.270 . S
O543 Eu531 2.355 . S
O544 Eu521 2.394 . S
O544 C529 1.251 . S
O545 C529 1.251 . S
O545 Eu531 2.374 . S
O546 C530 1.257 . S
O546 Eu531 2.473 . S
O547 C530 1.260 . S
O547 Eu531 2.480 . S
O548 Eu531 2.430 . S
O548 C538 1.259 . S
O549 Eu521 2.355 . S
O549 Eu531 2.670 . S
O549 C538 1.270 . S
O550 Eu531 2.394 . S
O550 C539 1.251 . S
O551 Eu521 2.374 . S
O551 C539 1.251 . S
H552 C523 0.931 . S
H553 C524 0.931 . S
H554 C526 0.931 . S
H555 C527 0.931 . S
H556 C533 0.931 . S
H557 C534 0.931 . S
H558 C536 0.931 . S
H559 C537 0.931 . S
C560 Eu561 2.835 . S
C560 C562 1.500 . S
C560 O580 1.257 . S
C560 O581 1.260 . S
Eu561 C560 2.835 . S
Eu561 O580 2.473 . S
Eu561 O581 2.480 . S
Eu561 O582 2.430 . S
Eu561 O583 2.670 . S
Eu561 O584 2.394 . S
Eu561 O589 2.355 . S
Eu561 O591 2.374 . S
C562 C560 1.500 . S
C562 C563 1.377 . S
C562 C567 1.377 . S
C563 C562 1.377 . S
C563 C564 1.395 . S
C563 H592 0.931 . S
C564 C563 1.395 . S
C564 C565 1.383 . S
C564 H593 0.931 . S
C565 C564 1.383 . S
C565 C566 1.394 . S
C566 C565 1.394 . S
C566 C567 1.378 . S
C566 H594 0.931 . S
C567 C562 1.377 . S
C567 C566 1.378 . S
C567 H595 0.931 . S
C568 O582 1.259 . S
C568 O583 1.270 . S
C569 O584 1.251 . S
C569 O585 1.251 . S
C570 Eu571 2.835 . S
C570 C572 1.500 . S
C570 O586 1.257 . S
C570 O587 1.260 . S
Eu571 C570 2.835 . S
Eu571 O583 2.355 . S
Eu571 O585 2.374 . S
Eu571 O586 2.473 . S
Eu571 O587 2.480 . S
Eu571 O588 2.430 . S
Eu571 O589 2.670 . S
Eu571 O590 2.394 . S
C572 C570 1.500 . S
C572 C573 1.377 . S
C572 C577 1.377 . S
C573 C572 1.377 . S
C573 C574 1.395 . S
C573 H596 0.931 . S
C574 C573 1.395 . S
C574 C575 1.383 . S
C574 H597 0.931 . S
C575 C574 1.383 . S
C575 C576 1.394 . S
C576 C575 1.394 . S
C576 C577 1.378 . S
C576 H598 0.931 . S
C577 C572 1.377 . S
C577 C576 1.378 . S
C577 H599 0.931 . S
C578 O588 1.259 . S
C578 O589 1.270 . S
C579 O590 1.251 . S
C579 O591 1.251 . S
O580 C560 1.257 . S
O580 Eu561 2.473 . S
O581 C560 1.260 . S
O581 Eu561 2.480 . S
O582 Eu561 2.430 . S
O582 C568 1.259 . S
O583 Eu561 2.670 . S
O583 C568 1.270 . S
O583 Eu571 2.355 . S
O584 Eu561 2.394 . S
O584 C569 1.251 . S
O585 C569 1.251 . S
O585 Eu571 2.374 . S
O586 C570 1.257 . S
O586 Eu571 2.473 . S
O587 C570 1.260 . S
O587 Eu571 2.480 . S
O588 Eu571 2.430 . S
O588 C578 1.259 . S
O589 Eu561 2.355 . S
O589 Eu571 2.670 . S
O589 C578 1.270 . S
O590 Eu571 2.394 . S
O590 C579 1.251 . S
O591 Eu561 2.374 . S
O591 C579 1.251 . S
H592 C563 0.931 . S
H593 C564 0.931 . S
H594 C566 0.931 . S
H595 C567 0.931 . S
H596 C573 0.931 . S
H597 C574 0.931 . S
H598 C576 0.931 . S
H599 C577 0.931 . S
C600 Eu601 2.835 . S
C600 C602 1.500 . S
C600 O620 1.257 . S
C600 O621 1.260 . S
Eu601 C600 2.835 . S
Eu601 O620 2.473 . S
Eu601 O621 2.480 . S
Eu601 O622 2.430 . S
Eu601 O623 2.670 . S
Eu601 O624 2.394 . S
Eu601 O629 2.355 . S
Eu601 O631 2.374 . S
C602 C600 1.500 . S
C602 C603 1.377 . S
C602 C607 1.377 . S
C603 C602 1.377 . S
C603 C604 1.395 . S
C603 H632 0.931 . S
C604 C603 1.395 . S
C604 C605 1.383 . S
C604 H633 0.931 . S
C605 C604 1.383 . S
C605 C606 1.394 . S
C606 C605 1.394 . S
C606 C607 1.378 . S
C606 H634 0.931 . S
C607 C602 1.377 . S
C607 C606 1.378 . S
C607 H635 0.931 . S
C608 O622 1.259 . S
C608 O623 1.270 . S
C609 O624 1.251 . S
C609 O625 1.251 . S
C610 Eu611 2.835 . S
C610 C612 1.500 . S
C610 O626 1.257 . S
C610 O627 1.260 . S
Eu611 C610 2.835 . S
Eu611 O623 2.355 . S
Eu611 O625 2.374 . S
Eu611 O626 2.473 . S
Eu611 O627 2.480 . S
Eu611 O628 2.430 . S
Eu611 O629 2.670 . S
Eu611 O630 2.394 . S
C612 C610 1.500 . S
C612 C613 1.377 . S
C612 C617 1.377 . S
C613 C612 1.377 . S
C613 C614 1.395 . S
C613 H636 0.931 . S
C614 C613 1.395 . S
C614 C615 1.383 . S
C614 H637 0.931 . S
C615 C614 1.383 . S
C615 C616 1.394 . S
C616 C615 1.394 . S
C616 C617 1.378 . S
C616 H638 0.931 . S
C617 C612 1.377 . S
C617 C616 1.378 . S
C617 H639 0.931 . S
C618 O628 1.259 . S
C618 O629 1.270 . S
C619 O630 1.251 . S
C619 O631 1.251 . S
O620 C600 1.257 . S
O620 Eu601 2.473 . S
O621 C600 1.260 . S
O621 Eu601 2.480 . S
O622 Eu601 2.430 . S
O622 C608 1.259 . S
O623 Eu601 2.670 . S
O623 C608 1.270 . S
O623 Eu611 2.355 . S
O624 Eu601 2.394 . S
O624 C609 1.251 . S
O625 C609 1.251 . S
O625 Eu611 2.374 . S
O626 C610 1.257 . S
O626 Eu611 2.473 . S
O627 C610 1.260 . S
O627 Eu611 2.480 . S
O628 Eu611 2.430 . S
O628 C618 1.259 . S
O629 Eu601 2.355 . S
O629 Eu611 2.670 . S
O629 C618 1.270 . S
O630 Eu611 2.394 . S
O630 C619 1.251 . S
O631 Eu601 2.374 . S
O631 C619 1.251 . S
H632 C603 0.931 . S
H633 C604 0.931 . S
H634 C606 0.931 . S
H635 C607 0.931 . S
H636 C613 0.931 . S
H637 C614 0.931 . S
H638 C616 0.931 . S
H639 C617 0.931 . S
C640 C641 1.387 . S
C640 H644 0.950 . S
C640 C649 1.390 . S
C641 C640 1.387 . S
C641 C643 1.387 . S
H642 C649 0.950 . S
C643 C641 1.387 . S
C643 C645 1.390 . S
C643 H647 0.950 . S
H644 C640 0.950 . S
C645 C643 1.390 . S
C645 C646 1.387 . S
C645 H648 0.950 . S
C646 C645 1.387 . S
C646 C649 1.387 . S
H647 C643 0.950 . S
H648 C645 0.950 . S
C649 C640 1.390 . S
C649 H642 0.950 . S
C649 C646 1.387 . S
C650 C651 1.387 . S
C650 H654 0.950 . S
C650 C659 1.390 . S
C651 C650 1.387 . S
C651 C653 1.387 . S
H652 C659 0.950 . S
C653 C651 1.387 . S
C653 C655 1.390 . S
C653 H657 0.950 . S
H654 C650 0.950 . S
C655 C653 1.390 . S
C655 C656 1.387 . S
C655 H658 0.950 . S
C656 C655 1.387 . S
C656 C659 1.387 . S
H657 C653 0.950 . S
H658 C655 0.950 . S
C659 C650 1.390 . S
C659 H652 0.950 . S
C659 C656 1.387 . S
C660 C661 1.387 . S
C660 H664 0.950 . S
C660 C669 1.390 . S
C661 C660 1.387 . S
C661 C663 1.387 . S
H662 C669 0.950 . S
C663 C661 1.387 . S
C663 C665 1.390 . S
C663 H667 0.950 . S
H664 C660 0.950 . S
C665 C663 1.390 . S
C665 C666 1.387 . S
C665 H668 0.950 . S
C666 C665 1.387 . S
C666 C669 1.387 . S
H667 C663 0.950 . S
H668 C665 0.950 . S
C669 C660 1.390 . S
C669 H662 0.950 . S
C669 C666 1.387 . S
C670 C671 1.387 . S
C670 H674 0.950 . S
C670 C679 1.390 . S
C671 C670 1.387 . S
C671 C673 1.387 . S
H672 C679 0.950 . S
C673 C671 1.387 . S
C673 C675 1.390 . S
C673 H677 0.950 . S
H674 C670 0.950 . S
C675 C673 1.390 . S
C675 C676 1.387 . S
C675 H678 0.950 . S
C676 C675 1.387 . S
C676 C679 1.387 . S
H677 C673 0.950 . S
H678 C675 0.950 . S
C679 C670 1.390 . S
C679 H672 0.950 . S
C679 C676 1.387 . S
C680 C681 1.387 . S
C680 H684 0.950 . S
C680 C689 1.390 . S
C681 C680 1.387 . S
C681 C683 1.387 . S
H682 C689 0.950 . S
C683 C681 1.387 . S
C683 C685 1.390 . S
C683 H687 0.950 . S
H684 C680 0.950 . S
C685 C683 1.390 . S
C685 C686 1.387 . S
C685 H688 0.950 . S
C686 C685 1.387 . S
C686 C689 1.387 . S
H687 C683 0.950 . S
H688 C685 0.950 . S
C689 C680 1.390 . S
C689 H682 0.950 . S
C689 C686 1.387 . S
C690 C691 1.387 . S
C690 H694 0.950 . S
C690 C699 1.390 . S
C691 C690 1.387 . S
C691 C693 1.387 . S
H692 C699 0.950 . S
C693 C691 1.387 . S
C693 C695 1.390 . S
C693 H697 0.950 . S
H694 C690 0.950 . S
C695 C693 1.390 . S
C695 C696 1.387 . S
C695 H698 0.950 . S
C696 C695 1.387 . S
C696 C699 1.387 . S
H697 C693 0.950 . S
H698 C695 0.950 . S
C699 C690 1.390 . S
C699 H692 0.950 . S
C699 C696 1.387 . S
C700 C701 1.387 . S
C700 H704 0.950 . S
C700 C709 1.390 . S
C701 C700 1.387 . S
C701 C703 1.387 . S
H702 C709 0.950 . S
C703 C701 1.387 . S
C703 C705 1.390 . S
C703 H707 0.950 . S
H704 C700 0.950 . S
C705 C703 1.390 . S
C705 C706 1.387 . S
C705 H708 0.950 . S
C706 C705 1.387 . S
C706 C709 1.387 . S
H707 C703 0.950 . S
H708 C705 0.950 . S
C709 C700 1.390 . S
C709 H702 0.950 . S
C709 C706 1.387 . S
C710 C711 1.387 . S
C710 H714 0.950 . S
C710 C719 1.390 . S
C711 C710 1.387 . S
C711 C713 1.387 . S
H712 C719 0.950 . S
C713 C711 1.387 . S
C713 C715 1.390 . S
C713 H717 0.950 . S
H714 C710 0.950 . S
C715 C713 1.390 . S
C715 C716 1.387 . S
C715 H718 0.950 . S
C716 C715 1.387 . S
C716 C719 1.387 . S
H717 C713 0.950 . S
H718 C715 0.950 . S
C719 C710 1.390 . S
C719 H712 0.950 . S
C719 C716 1.387 . S
C720 C721 1.387 . S
C720 H724 0.950 . S
C720 C729 1.390 1_565 S
C721 C720 1.387 . S
C721 C723 1.387 . S
H722 C729 0.950 . S
C723 C721 1.387 . S
C723 C725 1.390 1_565 S
C723 H727 0.950 . S
H724 C720 0.950 . S
C725 C723 1.390 1_545 S
C725 C726 1.387 . S
C725 H728 0.950 . S
C726 C725 1.387 . S
C726 C729 1.387 . S
H727 C723 0.950 . S
H728 C725 0.950 . S
C729 C720 1.390 1_545 S
C729 H722 0.950 . S
C729 C726 1.387 . S
C730 C731 1.387 . S
C730 H734 0.950 . S
C730 C739 1.390 1_545 S
C731 C730 1.387 . S
C731 C733 1.387 . S
H732 C739 0.950 . S
C733 C731 1.387 . S
C733 C735 1.390 1_545 S
C733 H737 0.950 . S
H734 C730 0.950 . S
C735 C733 1.390 1_565 S
C735 C736 1.387 . S
C735 H738 0.950 . S
C736 C735 1.387 . S
C736 C739 1.387 . S
H737 C733 0.950 . S
H738 C735 0.950 . S
C739 C730 1.390 1_565 S
C739 H732 0.950 . S
C739 C736 1.387 . S
C740 C741 1.387 . S
C740 H744 0.950 . S
C740 C749 1.390 1_545 S
C741 C740 1.387 . S
C741 C743 1.387 . S
H742 C749 0.950 . S
C743 C741 1.387 . S
C743 C745 1.390 1_545 S
C743 H747 0.950 . S
H744 C740 0.950 . S
C745 C743 1.390 1_565 S
C745 C746 1.387 . S
C745 H748 0.950 . S
C746 C745 1.387 . S
C746 C749 1.387 . S
H747 C743 0.950 . S
H748 C745 0.950 . S
C749 C740 1.390 1_565 S
C749 H742 0.950 . S
C749 C746 1.387 . S
C750 C751 1.387 . S
C750 H754 0.950 . S
C750 C759 1.390 1_545 S
C751 C750 1.387 . S
C751 C753 1.387 . S
H752 C759 0.950 . S
C753 C751 1.387 . S
C753 C755 1.390 1_545 S
C753 H757 0.950 . S
H754 C750 0.950 . S
C755 C753 1.390 1_565 S
C755 C756 1.387 . S
C755 H758 0.950 . S
C756 C755 1.387 . S
C756 C759 1.387 . S
H757 C753 0.950 . S
H758 C755 0.950 . S
C759 C750 1.390 1_565 S
C759 H752 0.950 . S
C759 C756 1.387 . S
C760 C761 1.387 . S
C760 H764 0.950 . S
C760 C769 1.390 . S
C761 C760 1.387 . S
C761 C763 1.387 . S
H762 C769 0.950 . S
C763 C761 1.387 . S
C763 C765 1.390 . S
C763 H767 0.950 . S
H764 C760 0.950 . S
C765 C763 1.390 . S
C765 C766 1.387 . S
C765 H768 0.950 . S
C766 C765 1.387 . S
C766 C769 1.387 . S
H767 C763 0.950 . S
H768 C765 0.950 . S
C769 C760 1.390 . S
C769 H762 0.950 . S
C769 C766 1.387 . S
C770 C771 1.387 . S
C770 H774 0.950 . S
C770 C779 1.390 . S
C771 C770 1.387 . S
C771 C773 1.387 . S
H772 C779 0.950 . S
C773 C771 1.387 . S
C773 C775 1.390 . S
C773 H777 0.950 . S
H774 C770 0.950 . S
C775 C773 1.390 . S
C775 C776 1.387 . S
C775 H778 0.950 . S
C776 C775 1.387 . S
C776 C779 1.387 . S
H777 C773 0.950 . S
H778 C775 0.950 . S
C779 C770 1.390 . S
C779 H772 0.950 . S
C779 C776 1.387 . S
C780 C781 1.387 . S
C780 H784 0.950 . S
C780 C789 1.390 . S
C781 C780 1.387 . S
C781 C783 1.387 . S
H782 C789 0.950 . S
C783 C781 1.387 . S
C783 C785 1.390 . S
C783 H787 0.950 . S
H784 C780 0.950 . S
C785 C783 1.390 . S
C785 C786 1.387 . S
C785 H788 0.950 . S
C786 C785 1.387 . S
C786 C789 1.387 . S
H787 C783 0.950 . S
H788 C785 0.950 . S
C789 C780 1.390 . S
C789 H782 0.950 . S
C789 C786 1.387 . S
C790 C791 1.387 . S
C790 H794 0.950 . S
C790 C799 1.390 . S
C791 C790 1.387 . S
C791 C793 1.387 . S
H792 C799 0.950 . S
C793 C791 1.387 . S
C793 C795 1.390 . S
C793 H797 0.950 . S
H794 C790 0.950 . S
C795 C793 1.390 . S
C795 C796 1.387 . S
C795 H798 0.950 . S
C796 C795 1.387 . S
C796 C799 1.387 . S
H797 C793 0.950 . S
H798 C795 0.950 . S
C799 C790 1.390 . S
C799 H792 0.950 . S
C799 C796 1.387 . S
C800 C801 1.387 . S
C800 H804 0.950 . S
C800 C809 1.390 1_556 S
C801 C800 1.387 . S
C801 C803 1.387 . S
H802 C809 0.950 . S
C803 C801 1.387 . S
C803 C805 1.390 1_556 S
C803 H807 0.950 . S
H804 C800 0.950 . S
C805 C803 1.390 1_554 S
C805 C806 1.387 . S
C805 H808 0.950 . S
C806 C805 1.387 . S
C806 C809 1.387 . S
H807 C803 0.950 . S
H808 C805 0.950 . S
C809 C800 1.390 1_554 S
C809 H802 0.950 . S
C809 C806 1.387 . S
C810 C811 1.387 . S
C810 H814 0.950 . S
C810 C819 1.390 1_556 S
C811 C810 1.387 . S
C811 C813 1.387 . S
H812 C819 0.950 . S
C813 C811 1.387 . S
C813 C815 1.390 1_556 S
C813 H817 0.950 . S
H814 C810 0.950 . S
C815 C813 1.390 1_554 S
C815 C816 1.387 . S
C815 H818 0.950 . S
C816 C815 1.387 . S
C816 C819 1.387 . S
H817 C813 0.950 . S
H818 C815 0.950 . S
C819 C810 1.390 1_554 S
C819 H812 0.950 . S
C819 C816 1.387 . S
C820 C821 1.387 . S
C820 H824 0.950 . S
C820 C829 1.390 . S
C821 C820 1.387 . S
C821 C823 1.387 . S
H822 C829 0.950 . S
C823 C821 1.387 . S
C823 C825 1.390 . S
C823 H827 0.950 . S
H824 C820 0.950 . S
C825 C823 1.390 . S
C825 C826 1.387 . S
C825 H828 0.950 . S
C826 C825 1.387 . S
C826 C829 1.387 . S
H827 C823 0.950 . S
H828 C825 0.950 . S
C829 C820 1.390 . S
C829 H822 0.950 . S
C829 C826 1.387 . S
C830 C831 1.387 . S
C830 H834 0.950 . S
C830 C839 1.390 . S
C831 C830 1.387 . S
C831 C833 1.387 . S
H832 C839 0.950 . S
C833 C831 1.387 . S
C833 C835 1.390 . S
C833 H837 0.950 . S
H834 C830 0.950 . S
C835 C833 1.390 . S
C835 C836 1.387 . S
C835 H838 0.950 . S
C836 C835 1.387 . S
C836 C839 1.387 . S
H837 C833 0.950 . S
H838 C835 0.950 . S
C839 C830 1.390 . S
C839 H832 0.950 . S
C839 C836 1.387 . S
C840 C841 1.387 . S
C840 H844 0.950 . S
C840 C849 1.390 1_554 S
C841 C840 1.387 . S
C841 C843 1.387 . S
H842 C849 0.950 . S
C843 C841 1.387 . S
C843 C845 1.390 1_554 S
C843 H847 0.950 . S
H844 C840 0.950 . S
C845 C843 1.390 1_556 S
C845 C846 1.387 . S
C845 H848 0.950 . S
C846 C845 1.387 . S
C846 C849 1.387 . S
H847 C843 0.950 . S
H848 C845 0.950 . S
C849 C840 1.390 1_556 S
C849 H842 0.950 . S
C849 C846 1.387 . S
C850 C851 1.387 . S
C850 H854 0.950 . S
C850 C859 1.390 1_556 S
C851 C850 1.387 . S
C851 C853 1.387 . S
H852 C859 0.950 . S
C853 C851 1.387 . S
C853 C855 1.390 1_556 S
C853 H857 0.950 . S
H854 C850 0.950 . S
C855 C853 1.390 1_554 S
C855 C856 1.387 . S
C855 H858 0.950 . S
C856 C855 1.387 . S
C856 C859 1.387 . S
H857 C853 0.950 . S
H858 C855 0.950 . S
C859 C850 1.390 1_554 S
C859 H852 0.950 . S
C859 C856 1.387 . S
C860 C861 1.387 . S
C860 H864 0.950 . S
C860 C869 1.390 . S
C861 C860 1.387 . S
C861 C863 1.387 . S
H862 C869 0.950 . S
C863 C861 1.387 . S
C863 C865 1.390 . S
C863 H867 0.950 . S
H864 C860 0.950 . S
C865 C863 1.390 . S
C865 C866 1.387 . S
C865 H868 0.950 . S
C866 C865 1.387 . S
C866 C869 1.387 . S
H867 C863 0.950 . S
H868 C865 0.950 . S
C869 C860 1.390 . S
C869 H862 0.950 . S
C869 C866 1.387 . S
C870 C871 1.387 . S
C870 H874 0.950 . S
C870 C879 1.390 . S
C871 C870 1.387 . S
C871 C873 1.387 . S
H872 C879 0.950 . S
C873 C871 1.387 . S
C873 C875 1.390 . S
C873 H877 0.950 . S
H874 C870 0.950 . S
C875 C873 1.390 . S
C875 C876 1.387 . S
C875 H878 0.950 . S
C876 C875 1.387 . S
C876 C879 1.387 . S
H877 C873 0.950 . S
H878 C875 0.950 . S
C879 C870 1.390 . S
C879 H872 0.950 . S
C879 C876 1.387 . S
C880 C881 1.387 . S
C880 H884 0.950 . S
C880 C889 1.390 1_665 S
C881 C880 1.387 . S
C881 C883 1.387 . S
H882 C889 0.950 . S
C883 C881 1.387 . S
C883 C885 1.390 1_665 S
C883 H887 0.950 . S
H884 C880 0.950 . S
C885 C883 1.390 1_445 S
C885 C886 1.387 . S
C885 H888 0.950 . S
C886 C885 1.387 . S
C886 C889 1.387 . S
H887 C883 0.950 . S
H888 C885 0.950 . S
C889 C880 1.390 1_445 S
C889 H882 0.950 . S
C889 C886 1.387 . S
C890 C891 1.387 . S
C890 H894 0.950 . S
C890 C899 1.390 1_645 S
C891 C890 1.387 . S
C891 C893 1.387 . S
H892 C899 0.950 . S
C893 C891 1.387 . S
C893 C895 1.390 1_645 S
C893 H897 0.950 . S
H894 C890 0.950 . S
C895 C893 1.390 1_465 S
C895 C896 1.387 . S
C895 H898 0.950 . S
C896 C895 1.387 . S
C896 C899 1.387 . S
H897 C893 0.950 . S
H898 C895 0.950 . S
C899 C890 1.390 1_465 S
C899 H892 0.950 . S
C899 C896 1.387 . S
C900 C901 1.387 . S
C900 H904 0.950 . S
C900 C909 1.390 1_445 S
C901 C900 1.387 . S
C901 C903 1.387 . S
H902 C909 0.950 . S
C903 C901 1.387 . S
C903 C905 1.390 1_445 S
C903 H907 0.950 . S
H904 C900 0.950 . S
C905 C903 1.390 1_665 S
C905 C906 1.387 . S
C905 H908 0.950 . S
C906 C905 1.387 . S
C906 C909 1.387 . S
H907 C903 0.950 . S
H908 C905 0.950 . S
C909 C900 1.390 1_665 S
C909 H902 0.950 . S
C909 C906 1.387 . S
C910 C911 1.387 . S
C910 H914 0.950 . S
C910 C919 1.390 1_645 S
C911 C910 1.387 . S
C911 C913 1.387 . S
H912 C919 0.950 . S
C913 C911 1.387 . S
C913 C915 1.390 1_645 S
C913 H917 0.950 . S
H914 C910 0.950 . S
C915 C913 1.390 1_465 S
C915 C916 1.387 . S
C915 H918 0.950 . S
C916 C915 1.387 . S
C916 C919 1.387 . S
H917 C913 0.950 . S
H918 C915 0.950 . S
C919 C910 1.390 1_465 S
C919 H912 0.950 . S
C919 C916 1.387 . S
C920 C921 1.387 . S
C920 H924 0.950 . S
C920 C929 1.390 . S
C921 C920 1.387 . S
C921 C923 1.387 . S
H922 C929 0.950 . S
C923 C921 1.387 . S
C923 C925 1.390 . S
C923 H927 0.950 . S
H924 C920 0.950 . S
C925 C923 1.390 . S
C925 C926 1.387 . S
C925 H928 0.950 . S
C926 C925 1.387 . S
C926 C929 1.387 . S
H927 C923 0.950 . S
H928 C925 0.950 . S
C929 C920 1.390 . S
C929 H922 0.950 . S
C929 C926 1.387 . S
C930 C931 1.387 . S
C930 H934 0.950 . S
C930 C939 1.390 . S
C931 C930 1.387 . S
C931 C933 1.387 . S
H932 C939 0.950 . S
C933 C931 1.387 . S
C933 C935 1.390 . S
C933 H937 0.950 . S
H934 C930 0.950 . S
C935 C933 1.390 . S
C935 C936 1.387 . S
C935 H938 0.950 . S
C936 C935 1.387 . S
C936 C939 1.387 . S
H937 C933 0.950 . S
H938 C935 0.950 . S
C939 C930 1.390 . S
C939 H932 0.950 . S
C939 C936 1.387 . S
C940 C941 1.387 . S
C940 H944 0.950 . S
C940 C949 1.390 . S
C941 C940 1.387 . S
C941 C943 1.387 . S
H942 C949 0.950 . S
C943 C941 1.387 . S
C943 C945 1.390 . S
C943 H947 0.950 . S
H944 C940 0.950 . S
C945 C943 1.390 . S
C945 C946 1.387 . S
C945 H948 0.950 . S
C946 C945 1.387 . S
C946 C949 1.387 . S
H947 C943 0.950 . S
H948 C945 0.950 . S
C949 C940 1.390 . S
C949 H942 0.950 . S
C949 C946 1.387 . S
C950 C951 1.387 . S
C950 H954 0.950 . S
C950 C959 1.390 . S
C951 C950 1.387 . S
C951 C953 1.387 . S
H952 C959 0.950 . S
C953 C951 1.387 . S
C953 C955 1.390 . S
C953 H957 0.950 . S
H954 C950 0.950 . S
C955 C953 1.390 . S
C955 C956 1.387 . S
C955 H958 0.950 . S
C956 C955 1.387 . S
C956 C959 1.387 . S
H957 C953 0.950 . S
H958 C955 0.950 . S
C959 C950 1.390 . S
C959 H952 0.950 . S
C959 C956 1.387 . S
C960 C961 1.387 . S
C960 H964 0.950 . S
C960 C969 1.390 . S
C961 C960 1.387 . S
C961 C963 1.387 . S
H962 C969 0.950 . S
C963 C961 1.387 . S
C963 C965 1.390 . S
C963 H967 0.950 . S
H964 C960 0.950 . S
C965 C963 1.390 . S
C965 C966 1.387 . S
C965 H968 0.950 . S
C966 C965 1.387 . S
C966 C969 1.387 . S
H967 C963 0.950 . S
H968 C965 0.950 . S
C969 C960 1.390 . S
C969 H962 0.950 . S
C969 C966 1.387 . S
C970 C971 1.387 . S
C970 H974 0.950 . S
C970 C979 1.390 . S
C971 C970 1.387 . S
C971 C973 1.387 . S
H972 C979 0.950 . S
C973 C971 1.387 . S
C973 C975 1.390 . S
C973 H977 0.950 . S
H974 C970 0.950 . S
C975 C973 1.390 . S
C975 C976 1.387 . S
C975 H978 0.950 . S
C976 C975 1.387 . S
C976 C979 1.387 . S
H977 C973 0.950 . S
H978 C975 0.950 . S
C979 C970 1.390 . S
C979 H972 0.950 . S
C979 C976 1.387 . S
C980 C981 1.387 . S
C980 H984 0.950 . S
C980 C989 1.390 . S
C981 C980 1.387 . S
C981 C983 1.387 . S
H982 C989 0.950 . S
C983 C981 1.387 . S
C983 C985 1.390 . S
C983 H987 0.950 . S
H984 C980 0.950 . S
C985 C983 1.390 . S
C985 C986 1.387 . S
C985 H988 0.950 . S
C986 C985 1.387 . S
C986 C989 1.387 . S
H987 C983 0.950 . S
H988 C985 0.950 . S
C989 C980 1.390 . S
C989 H982 0.950 . S
C989 C986 1.387 . S
C990 C991 1.387 . S
C990 H994 0.950 . S
C990 C999 1.390 . S
C991 C990 1.387 . S
C991 C993 1.387 . S
H992 C999 0.950 . S
C993 C991 1.387 . S
C993 C995 1.390 . S
C993 H997 0.950 . S
H994 C990 0.950 . S
C995 C993 1.390 . S
C995 C996 1.387 . S
C995 H998 0.950 . S
C996 C995 1.387 . S
C996 C999 1.387 . S
H997 C993 0.950 . S
H998 C995 0.950 . S
C999 C990 1.390 . S
C999 H992 0.950 . S
C999 C996 1.387 . S
C1000 C1001 1.387 . S
C1000 H1004 0.950 . S
C1000 C1009 1.390 . S
C1001 C1000 1.387 . S
C1001 C1003 1.387 . S
H1002 C1009 0.950 . S
C1003 C1001 1.387 . S
C1003 C1005 1.390 . S
C1003 H1007 0.950 . S
H1004 C1000 0.950 . S
C1005 C1003 1.390 . S
C1005 C1006 1.387 . S
C1005 H1008 0.950 . S
C1006 C1005 1.387 . S
C1006 C1009 1.387 . S
H1007 C1003 0.950 . S
H1008 C1005 0.950 . S
C1009 C1000 1.390 . S
C1009 H1002 0.950 . S
C1009 C1006 1.387 . S
C1010 C1011 1.387 . S
C1010 H1014 0.950 . S
C1010 C1019 1.390 . S
C1011 C1010 1.387 . S
C1011 C1013 1.387 . S
H1012 C1019 0.950 . S
C1013 C1011 1.387 . S
C1013 C1015 1.390 . S
C1013 H1017 0.950 . S
H1014 C1010 0.950 . S
C1015 C1013 1.390 . S
C1015 C1016 1.387 . S
C1015 H1018 0.950 . S
C1016 C1015 1.387 . S
C1016 C1019 1.387 . S
H1017 C1013 0.950 . S
H1018 C1015 0.950 . S
C1019 C1010 1.390 . S
C1019 H1012 0.950 . S
C1019 C1016 1.387 . S
C1020 C1021 1.387 . S
C1020 H1024 0.950 . S
C1020 C1029 1.390 . S
C1021 C1020 1.387 . S
C1021 C1023 1.387 . S
H1022 C1029 0.950 . S
C1023 C1021 1.387 . S
C1023 C1025 1.390 . S
C1023 H1027 0.950 . S
H1024 C1020 0.950 . S
C1025 C1023 1.390 . S
C1025 C1026 1.387 . S
C1025 H1028 0.950 . S
C1026 C1025 1.387 . S
C1026 C1029 1.387 . S
H1027 C1023 0.950 . S
H1028 C1025 0.950 . S
C1029 C1020 1.390 . S
C1029 H1022 0.950 . S
C1029 C1026 1.387 . S
C1030 C1031 1.387 . S
C1030 H1034 0.950 . S
C1030 C1039 1.390 . S
C1031 C1030 1.387 . S
C1031 C1033 1.387 . S
H1032 C1039 0.950 . S
C1033 C1031 1.387 . S
C1033 C1035 1.390 . S
C1033 H1037 0.950 . S
H1034 C1030 0.950 . S
C1035 C1033 1.390 . S
C1035 C1036 1.387 . S
C1035 H1038 0.950 . S
C1036 C1035 1.387 . S
C1036 C1039 1.387 . S
H1037 C1033 0.950 . S
H1038 C1035 0.950 . S
C1039 C1030 1.390 . S
C1039 H1032 0.950 . S
C1039 C1036 1.387 . S
C1040 C1041 1.387 . S
C1040 H1044 0.950 . S
C1040 C1049 1.390 . S
C1041 C1040 1.387 . S
C1041 C1043 1.387 . S
H1042 C1049 0.950 . S
C1043 C1041 1.387 . S
C1043 C1045 1.390 . S
C1043 H1047 0.950 . S
H1044 C1040 0.950 . S
C1045 C1043 1.390 . S
C1045 C1046 1.387 . S
C1045 H1048 0.950 . S
C1046 C1045 1.387 . S
C1046 C1049 1.387 . S
H1047 C1043 0.950 . S
H1048 C1045 0.950 . S
C1049 C1040 1.390 . S
C1049 H1042 0.950 . S
C1049 C1046 1.387 . S
C1050 C1051 1.387 . S
C1050 H1054 0.950 . S
C1050 C1059 1.390 . S
C1051 C1050 1.387 . S
C1051 C1053 1.387 . S
H1052 C1059 0.950 . S
C1053 C1051 1.387 . S
C1053 C1055 1.390 . S
C1053 H1057 0.950 . S
H1054 C1050 0.950 . S
C1055 C1053 1.390 . S
C1055 C1056 1.387 . S
C1055 H1058 0.950 . S
C1056 C1055 1.387 . S
C1056 C1059 1.387 . S
H1057 C1053 0.950 . S
H1058 C1055 0.950 . S
C1059 C1050 1.390 . S
C1059 H1052 0.950 . S
C1059 C1056 1.387 . S
C1060 C1061 1.387 . S
C1060 H1064 0.950 . S
C1060 C1069 1.390 . S
C1061 C1060 1.387 . S
C1061 C1063 1.387 . S
H1062 C1069 0.950 . S
C1063 C1061 1.387 . S
C1063 C1065 1.390 . S
C1063 H1067 0.950 . S
H1064 C1060 0.950 . S
C1065 C1063 1.390 . S
C1065 C1066 1.387 . S
C1065 H1068 0.950 . S
C1066 C1065 1.387 . S
C1066 C1069 1.387 . S
H1067 C1063 0.950 . S
H1068 C1065 0.950 . S
C1069 C1060 1.390 . S
C1069 H1062 0.950 . S
C1069 C1066 1.387 . S
C1070 C1071 1.387 . S
C1070 H1074 0.950 . S
C1070 C1079 1.390 . S
C1071 C1070 1.387 . S
C1071 C1073 1.387 . S
H1072 C1079 0.950 . S
C1073 C1071 1.387 . S
C1073 C1075 1.390 . S
C1073 H1077 0.950 . S
H1074 C1070 0.950 . S
C1075 C1073 1.390 . S
C1075 C1076 1.387 . S
C1075 H1078 0.950 . S
C1076 C1075 1.387 . S
C1076 C1079 1.387 . S
H1077 C1073 0.950 . S
H1078 C1075 0.950 . S
C1079 C1070 1.390 . S
C1079 H1072 0.950 . S
C1079 C1076 1.387 . S
C1080 C1081 1.387 . S
C1080 H1084 0.950 . S
C1080 C1089 1.390 . S
C1081 C1080 1.387 . S
C1081 C1083 1.387 . S
H1082 C1089 0.950 . S
C1083 C1081 1.387 . S
C1083 C1085 1.390 . S
C1083 H1087 0.950 . S
H1084 C1080 0.950 . S
C1085 C1083 1.390 . S
C1085 C1086 1.387 . S
C1085 H1088 0.950 . S
C1086 C1085 1.387 . S
C1086 C1089 1.387 . S
H1087 C1083 0.950 . S
H1088 C1085 0.950 . S
C1089 C1080 1.390 . S
C1089 H1082 0.950 . S
C1089 C1086 1.387 . S
C1090 C1091 1.387 . S
C1090 H1094 0.950 . S
C1090 C1099 1.390 . S
C1091 C1090 1.387 . S
C1091 C1093 1.387 . S
H1092 C1099 0.950 . S
C1093 C1091 1.387 . S
C1093 C1095 1.390 . S
C1093 H1097 0.950 . S
H1094 C1090 0.950 . S
C1095 C1093 1.390 . S
C1095 C1096 1.387 . S
C1095 H1098 0.950 . S
C1096 C1095 1.387 . S
C1096 C1099 1.387 . S
H1097 C1093 0.950 . S
H1098 C1095 0.950 . S
C1099 C1090 1.390 . S
C1099 H1092 0.950 . S
C1099 C1096 1.387 . S
C1100 C1101 1.387 . S
C1100 H1104 0.950 . S
C1100 C1109 1.390 . S
C1101 C1100 1.387 . S
C1101 C1103 1.387 . S
H1102 C1109 0.950 . S
C1103 C1101 1.387 . S
C1103 C1105 1.390 . S
C1103 H1107 0.950 . S
H1104 C1100 0.950 . S
C1105 C1103 1.390 . S
C1105 C1106 1.387 . S
C1105 H1108 0.950 . S
C1106 C1105 1.387 . S
C1106 C1109 1.387 . S
H1107 C1103 0.950 . S
H1108 C1105 0.950 . S
C1109 C1100 1.390 . S
C1109 H1102 0.950 . S
C1109 C1106 1.387 . S
C1110 C1111 1.387 . S
C1110 H1114 0.950 . S
C1110 C1119 1.390 . S
C1111 C1110 1.387 . S
C1111 C1113 1.387 . S
H1112 C1119 0.950 . S
C1113 C1111 1.387 . S
C1113 C1115 1.390 . S
C1113 H1117 0.950 . S
H1114 C1110 0.950 . S
C1115 C1113 1.390 . S
C1115 C1116 1.387 . S
C1115 H1118 0.950 . S
C1116 C1115 1.387 . S
C1116 C1119 1.387 . S
H1117 C1113 0.950 . S
H1118 C1115 0.950 . S
C1119 C1110 1.390 . S
C1119 H1112 0.950 . S
C1119 C1116 1.387 . S
C641 C9 1.627 . S
C646 C369 1.627 . S
C651 C49 1.627 . S
C656 C329 1.627 . S
C661 C449 1.626 . S
C666 C89 1.626 . S
C671 C129 1.627 . S
C676 C409 1.627 . S
C681 C539 1.626 . S
C686 C179 1.626 . S
C691 C499 1.626 . S
C696 C219 1.626 . S
C701 C619 1.626 . S
C706 C259 1.626 . S
C711 C299 1.626 . S
C716 C579 1.626 . S
C721 C88 1.771 . S
C726 C8 1.771 . S
C731 C128 1.770 . S
C736 C48 1.770 . S
C741 C258 1.771 . S
C746 C178 1.771 . S
C751 C218 1.770 . S
C756 C298 1.770 . S
C761 C408 1.771 . S
C766 C328 1.771 . S
C771 C448 1.771 . S
C776 C368 1.771 . S
C781 C498 1.771 . S
C786 C578 1.771 . S
C791 C538 1.770 . S
C796 C618 1.770 . S
C801 C208 1.521 . S
C806 C18 1.524 . S
C811 C168 1.524 . S
C816 C58 1.522 . S
C821 C98 1.524 . S
C826 C288 1.521 . S
C831 C248 1.524 . S
C836 C138 1.521 . S
C841 C338 1.524 . S
C846 C528 1.521 . S
C851 C488 1.523 . S
C856 C378 1.522 . S
C861 C418 1.524 . S
C866 C608 1.521 . S
C871 C568 1.524 . S
C876 C458 1.521 . S
C881 C59 1.605 . S
C886 C19 1.605 . S
C891 C139 1.605 . S
C896 C99 1.605 . S
C901 C209 1.605 . S
C906 C169 1.605 . S
C911 C249 1.605 . S
C916 C289 1.605 . S
C921 C379 1.607 . S
C926 C339 1.607 . S
C931 C459 1.605 . S
C936 C419 1.605 . S
C941 C489 1.607 . S
C946 C529 1.607 . S
C951 C569 1.605 . S
C956 C609 1.605 . S
C961 C15 1.444 . S
C966 C5 1.444 . S
C971 C55 1.444 . S
C976 C45 1.444 . S
C981 C95 1.443 . S
C986 C85 1.443 . S
C991 C125 1.443 . S
C996 C135 1.443 . S
C1001 C165 1.444 . S
C1006 C175 1.444 . S
C1011 C215 1.444 . S
C1016 C205 1.444 . S
C1021 C245 1.444 . S
C1026 C255 1.444 . S
C1031 C285 1.443 . S
C1036 C295 1.443 . S
C1041 C325 1.443 1_545 S
C1046 C335 1.443 . S
C1051 C375 1.444 . S
C1056 C365 1.444 1_565 S
C1061 C405 1.443 1_565 S
C1066 C415 1.443 . S
C1071 C445 1.443 1_545 S
C1076 C455 1.443 . S
C1081 C485 1.444 . S
C1086 C495 1.444 1_565 S
C1091 C525 1.443 . S
C1096 C535 1.443 1_545 S
C1101 C575 1.444 1_545 S
C1106 C565 1.444 . S
C1111 C605 1.443 . S
C1116 C615 1.443 1_565 S
