# Generated by pormake.
# Topology dmp, (4)-cn, num edge types: 1
# Building blocks:
#     Node 0, Type 0, BuildingBlock: QUQFOY_clean_sbu_3, # of connection points: 4
#     Node 1, Type 0, BuildingBlock: QUQFOY_clean_sbu_3, # of connection points: 4
#     Node 2, Type 0, BuildingBlock: QUQFOY_clean_sbu_3, # of connection points: 4
#     Node 3, Type 0, BuildingBlock: QUQFOY_clean_sbu_3, # of connection points: 4
#     Edge 4, Type (0, 0), BuildingBlock: XUDNAN_clean_linker_2, # of connection points: 2
#     Edge 5, Type (0, 0), BuildingBlock: XUDNAN_clean_linker_2, # of connection points: 2
#     Edge 6, Type (0, 0), BuildingBlock: XUDNAN_clean_linker_2, # of connection points: 2
#     Edge 7, Type (0, 0), BuildingBlock: XUDNAN_clean_linker_2, # of connection points: 2
#     Edge 8, Type (0, 0), BuildingBlock: XUDNAN_clean_linker_2, # of connection points: 2
#     Edge 9, Type (0, 0), BuildingBlock: XUDNAN_clean_linker_2, # of connection points: 2
#     Edge 10, Type (0, 0), BuildingBlock: XUDNAN_clean_linker_2, # of connection points: 2
#     Edge 11, Type (0, 0), BuildingBlock: XUDNAN_clean_linker_2, # of connection points: 2
# Relax obj value: 0.084
# Max RMSD: 0.187
# Mean RMSD: 0.187
data_MOF--net-dmp--node1-QUQFOY_clean_sbu_3--edge1-XUDNAN_clean_linker_2
_symmetry_space_group_name_H-M    P1
_symmetry_Int_Tables_number       1
_symmetry_cell_setting            triclinic
loop_
_symmetry_equiv_pos_as_xyz
'x, y, z'
_cell_length_a     42.550878
_cell_length_b     19.825787
_cell_length_c     15.883387
_cell_angle_alpha  89.907796
_cell_angle_beta   92.874302
_cell_angle_gamma 89.902158
loop_
_atom_site_label
_atom_site_type_symbol
_atom_site_fract_x
_atom_site_fract_y
_atom_site_fract_z
_atom_type_partial_charge
C0 C 0.0479 0.16844 0.01469 0.0
O1 O 0.07045 0.19047 0.97304 0.0
Cd2 Cd 0.11493 0.25284 0.03032 0.0
O3 O 0.04572 0.18478 0.09176 0.0
Cd4 Cd 0.0744 0.25769 0.19733 0.0
C5 C 0.13537 0.14873 0.20036 0.0
O6 O 0.10072 0.34553 0.11462 0.0
O7 O 0.11809 0.32562 0.24242 0.0
O8 O 0.02895 0.32494 0.23608 0.0
C9 C 0.12033 0.35943 0.17527 0.0
O10 O 0.14062 0.17437 0.12878 0.0
C11 C 0.02996 0.30599 0.31262 0.0
O12 O 0.11138 0.16629 0.24034 0.0
O13 O 0.05077 0.2624 0.33443 0.0
C14 C 0.38273 0.6516 0.47498 0.0
O15 O 0.36 0.67453 0.51525 0.0
Cd16 Cd 0.3177 0.73954 0.44992 0.0
O17 O 0.38655 0.67069 0.3995 0.0
Cd18 Cd 0.36341 0.75289 0.29468 0.0
C19 C 0.30461 0.64245 0.26836 0.0
O20 O 0.33468 0.83649 0.37754 0.0
O21 O 0.32255 0.82706 0.24412 0.0
O22 O 0.41285 0.81303 0.29592 0.0
C23 C 0.31794 0.85615 0.3134 0.0
O24 O 0.29758 0.66417 0.34051 0.0
C25 C 0.41616 0.81102 0.21698 0.0
O26 O 0.32896 0.66363 0.23266 0.0
O27 O 0.39535 0.7789 0.1729 0.0
C28 C 0.89719 0.80656 0.86671 0.0
O29 O 0.87868 0.79815 0.92598 0.0
Cd30 Cd 0.82933 0.74155 0.89684 0.0
O31 O 0.8924 0.7752 0.79738 0.0
Cd32 Cd 0.85722 0.68729 0.73412 0.0
C33 C 0.80631 0.81267 0.7029 0.0
O34 O 0.83054 0.62741 0.84839 0.0
O35 O 0.80749 0.6335 0.72367 0.0
O36 O 0.898 0.60248 0.73175 0.0
C37 C 0.8075 0.61076 0.79832 0.0
O38 O 0.80459 0.80697 0.78244 0.0
C39 C 0.89794 0.59583 0.65231 0.0
O40 O 0.82499 0.77584 0.66241 0.0
O41 O 0.87917 0.63363 0.60862 0.0
C42 C 0.53427 0.29034 0.626 0.0
O43 O 0.55242 0.2821 0.56589 0.0
Cd44 Cd 0.60267 0.22784 0.5883 0.0
O45 O 0.54046 0.26173 0.6968 0.0
Cd46 Cd 0.58006 0.18196 0.76134 0.0
C47 C 0.63035 0.31061 0.76893 0.0
O48 O 0.60249 0.11563 0.64506 0.0
O49 O 0.63054 0.12966 0.76105 0.0
O50 O 0.54129 0.09849 0.8037 0.0
C51 C 0.62752 0.10211 0.68922 0.0
O52 O 0.63084 0.3004 0.68982 0.0
C53 C 0.54855 0.10254 0.88207 0.0
O54 O 0.61253 0.27623 0.81468 0.0
O55 O 0.56996 0.14444 0.90417 0.0
H56 H 0.28561 0.91567 0.18249 0.0
H57 H 0.28947 0.90208 0.45538 0.0
H58 H 0.24121 0.97273 0.45829 0.0
H59 H 0.25923 0.0872 0.16625 0.0
H60 H 0.23477 0.07109 0.07252 0.0
H61 H 0.26958 0.02122 0.09468 0.0
H62 H 0.23581 0.9124 0.08472 0.0
H63 H 0.20081 0.96202 0.06382 0.0
H64 H 0.20285 0.90344 0.15083 0.0
H65 H 0.19057 0.04326 0.42752 0.0
H66 H 0.14643 0.11346 0.36773 0.0
H67 H 0.17792 0.07668 0.11631 0.0
C68 C 0.27652 0.92775 0.24316 0.0
C69 C 0.29122 0.90341 0.31874 0.0
C70 C 0.27861 0.92065 0.39671 0.0
C71 C 0.25113 0.96029 0.39884 0.0
C72 C 0.23681 -0.01781 0.3225 0.0
C73 C 0.24942 0.96686 0.24631 0.0
C74 C 0.23016 -0.00386 0.17275 0.0
C75 C 0.24959 0.04694 0.12371 0.0
C76 C 0.21661 0.94015 0.11465 0.0
C77 C 0.20462 0.03079 0.219 0.0
C78 C 0.20849 0.0221 0.30526 0.0
C79 C 0.18743 0.05035 0.36005 0.0
C80 C 0.16233 0.08971 0.3256 0.0
C81 C 0.15881 0.10064 0.23744 0.0
C82 C 0.18001 0.06963 0.18401 0.0
H83 H 0.16542 0.3878 0.29587 0.0
H84 H 0.13822 0.42943 0.03403 0.0
H85 H 0.18664 0.49827 0.0223 0.0
H86 H 0.19481 0.548 0.34765 0.0
H87 H 0.22605 0.51586 0.41747 0.0
H88 H 0.1903 0.46852 0.40099 0.0
H89 H 0.22281 0.36496 0.35573 0.0
H90 H 0.25867 0.41254 0.37077 0.0
H91 H 0.24896 0.37335 0.27051 0.0
H92 H 0.23834 0.56721 0.04449 0.0
H93 H 0.28391 0.63468 0.1011 0.0
H94 H 0.2752 0.54207 0.34594 0.0
C95 C 0.1695 0.41105 0.23565 0.0
C96 C 0.14803 0.4033 0.16584 0.0
C97 C 0.15437 0.43494 0.08847 0.0
C98 C 0.18189 0.47364 0.08116 0.0
C99 C 0.20277 0.47947 0.15157 0.0
C100 C 0.19662 0.44897 0.22729 0.0
C101 C 0.22154 0.46443 0.29524 0.0
C102 C 0.20732 0.50142 0.36966 0.0
C103 C 0.23903 0.39998 0.32476 0.0
C104 C 0.24252 0.51 0.24702 0.0
C105 C 0.23182 0.51774 0.16388 0.0
C106 C 0.24701 0.56081 0.10923 0.0
C107 C 0.27299 0.59847 0.14152 0.0
C108 C 0.283 0.59305 0.2276 0.0
C109 C 0.26811 0.54675 0.27969 0.0
H110 H 0.68792 0.10501 0.74938 0.0
H111 H 0.62666 0.00903 0.55925 0.0
H112 H 0.67096 0.93511 0.52074 0.0
H113 H 0.76224 0.09369 0.63452 0.0
H114 H 0.78489 0.07768 0.73146 0.0
H115 H 0.75018 0.12994 0.73183 0.0
H116 H 0.72712 0.05274 0.8454 0.0
H117 H 0.76169 0.00088 0.84574 0.0
H118 H 0.72347 0.96351 0.82543 0.0
H119 H 0.7204 0.86037 0.5202 0.0
H120 H 0.7673 0.79121 0.56256 0.0
H121 H 0.79461 0.93924 0.75208 0.0
C122 C 0.68387 0.06942 0.69834 0.0
C123 C 0.65388 0.06245 0.65743 0.0
C124 C 0.64957 0.01529 0.59108 0.0
C125 C 0.67463 0.97339 0.56871 0.0
C126 C 0.70384 -0.0195 0.61225 0.0
C127 C 0.70845 0.02804 0.67524 0.0
C128 C 0.74058 0.02185 0.71932 0.0
C129 C 0.76066 0.08452 0.70328 0.0
C130 C 0.73803 0.00892 0.81451 0.0
C131 C 0.75293 0.96091 0.67478 0.0
C132 C 0.73192 0.93838 0.61167 0.0
C133 C 0.73729 0.8786 0.56802 0.0
C134 C 0.76407 0.83983 0.59193 0.0
C135 C 0.78461 0.86076 0.65963 0.0
C136 C 0.77952 0.92309 0.69896 0.0
H137 H 0.75059 0.60236 0.7163 0.0
H138 H 0.80335 0.5282 0.93815 0.0
H139 H 0.75859 0.45328 0.96951 0.0
H140 H 0.67107 0.59336 0.80298 0.0
H141 H 0.6537 0.56769 0.70229 0.0
H142 H 0.6875 0.62251 0.70705 0.0
H143 H 0.71743 0.53845 0.61483 0.0
H144 H 0.68386 0.4837 0.60971 0.0
H145 H 0.72159 0.45179 0.64828 0.0
H146 H 0.70996 0.37616 0.96423 0.0
H147 H 0.66498 0.30269 0.91936 0.0
H148 H 0.64635 0.42924 0.70002 0.0
C149 C 0.75264 0.57133 0.77251 0.0
C150 C 0.78042 0.57079 0.82472 0.0
C151 C 0.78213 0.52949 0.89757 0.0
C152 C 0.7568 0.48705 0.91588 0.0
C153 C 0.72994 0.48768 0.8614 0.0
C154 C 0.72779 0.52939 0.79151 0.0
C155 C 0.69814 0.51691 0.73774 0.0
C156 C 0.67631 0.5788 0.73755 0.0
C157 C 0.70573 0.49645 0.64739 0.0
C158 C 0.68453 0.45899 0.78545 0.0
C159 C 0.70259 0.44364 0.85789 0.0
C160 C 0.69542 0.38862 0.9085 0.0
C161 C 0.6698 0.34735 0.88285 0.0
C162 C 0.6523 0.36082 0.80653 0.0
C163 C 0.65928 0.41832 0.75898 0.0
H164 H -0.00045 0.10121 0.08776 0.0
H165 H 0.04669 0.12129 0.85263 0.0
H166 H 0.01381 0.03014 0.79068 0.0
H167 H -0.00664 0.92279 0.0854 0.0
H168 H 0.95488 0.9203 0.12789 0.0
H169 H -0.01898 -0.01054 0.15346 0.0
H170 H 0.93861 0.07466 0.09784 0.0
H171 H 0.91219 0.0058 0.07309 0.0
H172 H 0.92151 0.06545 0.99233 0.0
H173 H -0.02209 0.93328 0.75617 0.0
H174 H 0.93826 0.8428 0.74747 0.0
H175 H 0.91386 0.88576 0.00432 0.0
C176 C 0.00271 0.08712 0.02288 0.0
C177 C 0.02578 0.1186 0.97518 0.0
C178 C 0.02921 0.09817 0.8906 0.0
C179 C 0.01069 0.04623 0.85481 0.0
C180 C -0.01127 0.01528 0.90416 0.0
C181 C -0.01563 0.03536 0.98601 0.0
C182 C 0.95927 -0.00674 0.02548 0.0
C183 C -0.02704 0.95414 0.10262 0.0
C184 C 0.93123 0.03743 0.04851 0.0
C185 C 0.95038 0.94611 0.95315 0.0
C186 C 0.96776 0.95959 0.88394 0.0
C187 C 0.96403 0.92244 0.80981 0.0
C188 C 0.9415 0.87089 0.80567 0.0
C189 C 0.92287 0.85698 0.87517 0.0
C190 C 0.92771 0.8949 0.9501 0.0
H191 H 0.49914 0.01458 0.85461 0.0
H192 H 0.56355 0.09341 0.05098 0.0
H193 H 0.53882 0.0213 0.15561 0.0
H194 H 0.4317 0.00838 0.97929 0.0
H195 H 0.4165 0.93144 0.93279 0.0
H196 H 0.44021 -0.01308 0.87253 0.0
H197 H 0.47844 0.88829 0.84572 0.0
H198 H 0.45494 0.83257 0.90641 0.0
H199 H 0.49626 0.84264 0.93408 0.0
H200 H 0.50645 0.94378 0.23954 0.0
H201 H 0.46681 0.86956 0.29915 0.0
H202 H 0.42295 0.84039 0.04914 0.0
C203 C 0.50813 0.01644 0.91956 0.0
C204 C 0.53334 0.05959 0.9446 0.0
C205 C 0.54427 0.06084 0.03029 0.0
C206 C 0.53046 0.01985 0.09016 0.0
C207 C 0.50574 -0.02215 0.06341 0.0
C208 C 0.49454 -0.02403 0.98029 0.0
C209 C 0.46686 0.92813 0.96896 0.0
C210 C 0.43706 0.96599 0.9365 0.0
C211 C 0.4746 0.86943 0.91032 0.0
C212 C 0.46404 0.90403 0.05892 0.0
C213 C 0.48689 0.93302 0.11213 0.0
C214 C 0.48855 0.92046 0.19848 0.0
C215 C 0.46591 0.87816 0.23171 0.0
C216 C 0.44185 0.8489 0.17882 0.0
C217 C 0.44128 0.86129 0.09104 0.0
H218 H 0.90905 0.57706 0.4839 0.0
H219 H 0.93301 0.49892 0.73458 0.0
H220 H 0.96671 0.41255 0.67376 0.0
H221 H 0.90746 0.41539 0.37546 0.0
H222 H 0.92511 0.44788 0.28292 0.0
H223 H 0.90163 0.5024 0.3453 0.0
H224 H 0.94814 0.58624 0.36301 0.0
H225 H -0.02833 0.53218 0.30035 0.0
H226 H -0.01417 0.55641 0.4048 0.0
H227 H -0.00148 0.33586 0.5874 0.0
H228 H 0.02882 0.27752 0.48085 0.0
H229 H -0.01464 0.40546 0.28554 0.0
C230 C 0.92129 0.54157 0.52585 0.0
C231 C 0.9183 0.54476 0.61404 0.0
C232 C 0.93491 0.49766 0.66686 0.0
C233 C 0.95404 0.44814 0.63292 0.0
C234 C 0.95647 0.44627 0.54594 0.0
C235 C 0.94074 0.49186 0.49299 0.0
C236 C 0.94851 0.48012 0.40198 0.0
C237 C 0.91891 0.46026 0.34826 0.0
C238 C 0.96449 0.54244 0.36542 0.0
C239 C -0.02874 0.42133 0.41239 0.0
C240 C -0.02475 0.40227 0.49591 0.0
C241 C -0.00447 0.35012 0.5217 0.0
C242 C 0.0126 0.3172 0.46065 0.0
C243 C 0.00944 0.33672 0.37482 0.0
C244 C -0.01184 0.38901 0.35054 0.0
H245 H 0.43202 0.5856 0.40485 0.0
H246 H 0.38029 0.59716 0.63334 0.0
H247 H 0.41229 0.50388 0.69489 0.0
H248 H 0.43915 0.40616 0.39978 0.0
H249 H 0.47843 0.40653 0.36227 0.0
H250 H 0.45201 0.4754 0.33639 0.0
H251 H 0.49268 0.5604 0.40067 0.0
H252 H 0.51937 0.49188 0.4259 0.0
H253 H 0.50801 0.54865 0.50758 0.0
H254 H 0.44921 0.4077 0.73078 0.0
H255 H 0.49048 0.32002 0.74148 0.0
H256 H 0.51798 0.37091 0.48947 0.0
C257 C 0.42754 0.56896 0.46809 0.0
C258 C 0.40358 0.59893 0.51416 0.0
C259 C 0.3985 0.57526 0.59668 0.0
C260 C 0.4165 0.52209 0.63218 0.0
C261 C 0.43954 0.49303 0.58452 0.0
C262 C 0.44528 0.51593 0.50453 0.0
C263 C 0.47151 0.47606 0.46675 0.0
C264 C 0.45954 0.43883 0.38656 0.0
C265 C 0.49955 0.52199 0.44923 0.0
C266 C 0.47958 0.42709 0.53795 0.0
C267 C 0.4608 0.4376 0.6052 0.0
C268 C 0.46407 0.399 0.67851 0.0
C269 C 0.48753 0.34913 0.68386 0.0
C270 C 0.50748 0.33825 0.6163 0.0
C271 C 0.50304 0.37745 0.54209 0.0
loop_
_geom_bond_atom_site_label_1
_geom_bond_atom_site_label_2
_geom_bond_distance
_geom_bond_site_symmetry_2
_ccdc_geom_bond_type
C0 O1 1.306 . S
C0 O3 1.160 . S
O1 C0 1.306 . S
O1 Cd2 2.228 . S
Cd2 O1 2.228 . S
Cd2 O6 2.273 . S
Cd2 O10 2.277 . S
O3 C0 1.160 . S
O3 Cd4 2.203 . S
Cd4 O3 2.203 . S
Cd4 O6 2.411 . S
Cd4 O7 2.333 . S
Cd4 O8 2.352 . S
Cd4 O12 2.277 . S
Cd4 O13 2.356 . S
C5 O10 1.209 . S
C5 O12 1.226 . S
O6 Cd2 2.273 . S
O6 Cd4 2.411 . S
O6 C9 1.320 . S
O7 Cd4 2.333 . S
O7 C9 1.214 . S
O8 Cd4 2.352 . S
O8 C11 1.258 . S
C9 O6 1.320 . S
C9 O7 1.214 . S
O10 Cd2 2.277 . S
O10 C5 1.209 . S
C11 O8 1.258 . S
C11 O13 1.282 . S
O12 Cd4 2.277 . S
O12 C5 1.226 . S
O13 Cd4 2.356 . S
O13 C11 1.282 . S
C14 O15 1.306 . S
C14 O17 1.160 . S
O15 C14 1.306 . S
O15 Cd16 2.228 . S
Cd16 O15 2.228 . S
Cd16 O20 2.273 . S
Cd16 O24 2.277 . S
O17 C14 1.160 . S
O17 Cd18 2.203 . S
Cd18 O17 2.203 . S
Cd18 O20 2.411 . S
Cd18 O21 2.333 . S
Cd18 O22 2.352 . S
Cd18 O26 2.277 . S
Cd18 O27 2.356 . S
C19 O24 1.209 . S
C19 O26 1.226 . S
O20 Cd16 2.273 . S
O20 Cd18 2.411 . S
O20 C23 1.320 . S
O21 Cd18 2.333 . S
O21 C23 1.214 . S
O22 Cd18 2.352 . S
O22 C25 1.258 . S
C23 O20 1.320 . S
C23 O21 1.214 . S
O24 Cd16 2.277 . S
O24 C19 1.209 . S
C25 O22 1.258 . S
C25 O27 1.282 . S
O26 Cd18 2.277 . S
O26 C19 1.226 . S
O27 Cd18 2.356 . S
O27 C25 1.282 . S
C28 O29 1.306 . S
C28 O31 1.160 . S
O29 C28 1.306 . S
O29 Cd30 2.228 . S
Cd30 O29 2.228 . S
Cd30 O34 2.273 . S
Cd30 O38 2.277 . S
O31 C28 1.160 . S
O31 Cd32 2.203 . S
Cd32 O31 2.203 . S
Cd32 O34 2.411 . S
Cd32 O35 2.333 . S
Cd32 O36 2.352 . S
Cd32 O40 2.277 . S
Cd32 O41 2.356 . S
C33 O38 1.209 . S
C33 O40 1.226 . S
O34 Cd30 2.273 . S
O34 Cd32 2.411 . S
O34 C37 1.320 . S
O35 Cd32 2.333 . S
O35 C37 1.214 . S
O36 Cd32 2.352 . S
O36 C39 1.258 . S
C37 O34 1.320 . S
C37 O35 1.214 . S
O38 Cd30 2.277 . S
O38 C33 1.209 . S
C39 O36 1.258 . S
C39 O41 1.282 . S
O40 Cd32 2.277 . S
O40 C33 1.226 . S
O41 Cd32 2.356 . S
O41 C39 1.282 . S
C42 O43 1.306 . S
C42 O45 1.160 . S
O43 C42 1.306 . S
O43 Cd44 2.228 . S
Cd44 O43 2.228 . S
Cd44 O48 2.273 . S
Cd44 O52 2.277 . S
O45 C42 1.160 . S
O45 Cd46 2.203 . S
Cd46 O45 2.203 . S
Cd46 O48 2.411 . S
Cd46 O49 2.333 . S
Cd46 O50 2.352 . S
Cd46 O54 2.277 . S
Cd46 O55 2.356 . S
C47 O52 1.209 . S
C47 O54 1.226 . S
O48 Cd44 2.273 . S
O48 Cd46 2.411 . S
O48 C51 1.320 . S
O49 Cd46 2.333 . S
O49 C51 1.214 . S
O50 Cd46 2.352 . S
O50 C53 1.258 . S
C51 O48 1.320 . S
C51 O49 1.214 . S
O52 Cd44 2.277 . S
O52 C47 1.209 . S
C53 O50 1.258 . S
C53 O55 1.282 . S
O54 Cd46 2.277 . S
O54 C47 1.226 . S
O55 Cd46 2.356 . S
O55 C53 1.282 . S
H56 C68 0.930 . S
H57 C70 0.930 . S
H58 C71 0.930 . S
H59 C75 0.959 . S
H60 C75 0.959 . S
H61 C75 0.961 . S
H62 C76 0.960 . S
H63 C76 0.961 1_545 S
H64 C76 0.959 . S
H65 C79 0.938 . S
H66 C80 0.931 . S
H67 C82 0.930 . S
C68 H56 0.930 . S
C68 C69 1.399 . S
C68 C73 1.399 . S
C69 C68 1.399 . S
C69 C70 1.376 . S
C70 H57 0.930 . S
C70 C69 1.376 . S
C70 C71 1.388 . S
C71 H58 0.930 . S
C71 C70 1.388 . S
C71 C72 1.390 . S
C72 C71 1.390 . S
C72 C73 1.394 . S
C72 C78 1.465 . S
C73 C68 1.399 . S
C73 C72 1.394 . S
C73 C74 1.516 1_565 S
C74 C73 1.516 1_545 S
C74 C75 1.502 . S
C74 C76 1.561 1_545 S
C74 C77 1.526 . S
C75 H59 0.959 . S
C75 H60 0.959 . S
C75 H61 0.961 . S
C75 C74 1.502 . S
C76 H62 0.960 . S
C76 H63 0.961 1_565 S
C76 H64 0.959 . S
C76 C74 1.561 1_565 S
C77 C74 1.526 . S
C77 C78 1.396 1_545 S
C77 C82 1.390 . S
C78 C72 1.465 . S
C78 C77 1.396 1_565 S
C78 C79 1.400 . S
C79 H65 0.938 . S
C79 C78 1.400 . S
C79 C80 1.375 1_565 S
C80 H66 0.931 . S
C80 C79 1.375 1_545 S
C80 C81 1.389 . S
C81 C80 1.389 . S
C81 C82 1.387 . S
C82 H67 0.930 . S
C82 C77 1.390 . S
C82 C81 1.387 . S
H83 C95 0.930 . S
H84 C97 0.930 . S
H85 C98 0.930 . S
H86 C102 0.959 . S
H87 C102 0.959 . S
H88 C102 0.961 . S
H89 C103 0.960 . S
H90 C103 0.961 . S
H91 C103 0.959 . S
H92 C106 0.929 . S
H93 C107 0.931 . S
H94 C109 0.930 . S
C95 H83 0.930 . S
C95 C96 1.399 . S
C95 C100 1.399 . S
C96 C95 1.399 . S
C96 C97 1.376 . S
C97 H84 0.930 . S
C97 C96 1.376 . S
C97 C98 1.388 . S
C98 H85 0.930 . S
C98 C97 1.388 . S
C98 C99 1.390 . S
C99 C98 1.390 . S
C99 C100 1.394 . S
C99 C105 1.465 . S
C100 C95 1.399 . S
C100 C99 1.394 . S
C100 C101 1.516 . S
C101 C100 1.516 . S
C101 C102 1.502 . S
C101 C103 1.561 . S
C101 C104 1.526 . S
C102 H86 0.959 . S
C102 H87 0.959 . S
C102 H88 0.961 . S
C102 C101 1.502 . S
C103 H89 0.960 . S
C103 H90 0.961 . S
C103 H91 0.959 . S
C103 C101 1.561 . S
C104 C101 1.526 . S
C104 C105 1.396 . S
C104 C109 1.390 . S
C105 C99 1.465 . S
C105 C104 1.396 . S
C105 C106 1.399 . S
C106 H92 0.929 . S
C106 C105 1.399 . S
C106 C107 1.385 . S
C107 H93 0.931 . S
C107 C106 1.385 . S
C107 C108 1.389 . S
C108 C107 1.389 . S
C108 C109 1.387 . S
C109 H94 0.930 . S
C109 C104 1.390 . S
C109 C108 1.387 . S
H110 C122 0.930 . S
H111 C124 0.930 . S
H112 C125 0.930 . S
H113 C129 0.959 . S
H114 C129 0.959 . S
H115 C129 0.961 . S
H116 C130 0.960 . S
H117 C130 0.961 . S
H118 C130 0.959 . S
H119 C133 0.929 . S
H120 C134 0.931 . S
H121 C136 0.930 . S
C122 H110 0.930 . S
C122 C123 1.399 . S
C122 C127 1.399 . S
C123 C122 1.399 . S
C123 C124 1.376 . S
C124 H111 0.930 . S
C124 C123 1.376 . S
C124 C125 1.388 1_545 S
C125 H112 0.930 . S
C125 C124 1.388 1_565 S
C125 C126 1.390 1_565 S
C126 C125 1.390 1_545 S
C126 C127 1.394 . S
C126 C132 1.465 1_545 S
C127 C122 1.399 . S
C127 C126 1.394 . S
C127 C128 1.516 . S
C128 C127 1.516 . S
C128 C129 1.502 . S
C128 C130 1.561 . S
C128 C131 1.515 1_545 S
C129 H113 0.959 . S
C129 H114 0.959 . S
C129 H115 0.961 . S
C129 C128 1.502 . S
C130 H116 0.960 . S
C130 H117 0.961 . S
C130 H118 0.959 . S
C130 C128 1.561 . S
C131 C128 1.515 1_565 S
C131 C132 1.402 . S
C131 C136 1.394 . S
C132 C126 1.465 1_565 S
C132 C131 1.402 . S
C132 C133 1.399 . S
C133 H119 0.929 . S
C133 C132 1.399 . S
C133 C134 1.385 . S
C134 H120 0.931 . S
C134 C133 1.385 . S
C134 C135 1.389 . S
C135 C134 1.389 . S
C135 C136 1.387 . S
C136 H121 0.930 . S
C136 C131 1.394 . S
C136 C135 1.387 . S
H137 C149 0.930 . S
H138 C151 0.930 . S
H139 C152 0.930 . S
H140 C156 0.959 . S
H141 C156 0.959 1_554 S
H142 C156 0.961 . S
H143 C157 0.960 . S
H144 C157 0.961 . S
H145 C157 0.959 . S
H146 C160 0.929 . S
H147 C161 0.931 . S
H148 C163 0.930 . S
C149 H137 0.930 . S
C149 C150 1.399 . S
C149 C154 1.399 . S
C150 C149 1.399 . S
C150 C151 1.376 . S
C151 H138 0.930 . S
C151 C150 1.376 . S
C151 C152 1.388 . S
C152 H139 0.930 . S
C152 C151 1.388 . S
C152 C153 1.390 . S
C153 C152 1.390 . S
C153 C154 1.394 . S
C153 C159 1.465 . S
C154 C149 1.399 . S
C154 C153 1.394 . S
C154 C155 1.516 . S
C155 C154 1.516 . S
C155 C156 1.502 . S
C155 C157 1.561 . S
C155 C158 1.526 . S
C156 H140 0.959 . S
C156 H141 0.959 1_556 S
C156 H142 0.961 . S
C156 C155 1.502 . S
C157 H143 0.960 . S
C157 H144 0.961 . S
C157 H145 0.959 . S
C157 C155 1.561 . S
C158 C155 1.526 . S
C158 C159 1.396 . S
C158 C163 1.390 . S
C159 C153 1.465 . S
C159 C158 1.396 . S
C159 C160 1.399 . S
C160 H146 0.929 . S
C160 C159 1.399 . S
C160 C161 1.385 . S
C161 H147 0.931 . S
C161 C160 1.385 . S
C161 C162 1.389 . S
C162 C161 1.389 . S
C162 C163 1.387 . S
C163 H148 0.930 . S
C163 C158 1.390 . S
C163 C162 1.387 . S
H164 C176 0.930 . S
H165 C178 0.930 1_556 S
H166 C179 0.930 . S
H167 C183 0.959 . S
H168 C183 0.959 . S
H169 C183 0.961 . S
H170 C184 0.960 . S
H171 C184 0.961 . S
H172 C184 0.959 . S
H173 C187 0.929 1_455 S
H174 C188 0.931 . S
H175 C190 0.930 1_554 S
C176 H164 0.930 . S
C176 C177 1.399 . S
C176 C181 1.399 . S
C177 C176 1.399 . S
C177 C178 1.376 . S
C178 H165 0.930 1_554 S
C178 C177 1.376 . S
C178 C179 1.388 1_554 S
C179 H166 0.930 . S
C179 C178 1.388 1_556 S
C179 C180 1.390 . S
C180 C179 1.390 . S
C180 C181 1.394 1_556 S
C180 C186 1.465 1_445 S
C181 C176 1.399 . S
C181 C180 1.394 1_554 S
C181 C182 1.519 1_455 S
C182 C181 1.519 1_655 S
C182 C183 1.499 1_545 S
C182 C184 1.564 . S
C182 C185 1.523 1_544 S
C183 H167 0.959 . S
C183 H168 0.959 . S
C183 H169 0.961 . S
C183 C182 1.499 1_565 S
C184 H170 0.960 . S
C184 H171 0.961 . S
C184 H172 0.959 . S
C184 C182 1.564 . S
C185 C182 1.523 1_566 S
C185 C186 1.396 . S
C185 C190 1.390 . S
C186 C180 1.465 1_665 S
C186 C185 1.396 . S
C186 C187 1.399 . S
C187 H173 0.929 1_655 S
C187 C186 1.399 . S
C187 C188 1.385 . S
C188 H174 0.931 . S
C188 C187 1.385 . S
C188 C189 1.389 . S
C189 C188 1.389 . S
C189 C190 1.387 . S
C190 H175 0.930 1_556 S
C190 C185 1.390 . S
C190 C189 1.387 . S
H191 C203 0.930 . S
H192 C205 0.930 . S
H193 C206 0.930 . S
H194 C210 0.959 1_545 S
H195 C210 0.959 . S
H196 C210 0.961 . S
H197 C211 0.960 . S
H198 C211 0.961 . S
H199 C211 0.959 . S
H200 C214 0.931 . S
H201 C215 0.931 . S
H202 C217 0.930 1_556 S
C203 H191 0.930 . S
C203 C204 1.399 . S
C203 C208 1.399 . S
C204 C203 1.399 . S
C204 C205 1.376 1_556 S
C205 H192 0.930 . S
C205 C204 1.376 1_554 S
C205 C206 1.388 . S
C206 H193 0.930 . S
C206 C205 1.388 . S
C206 C207 1.390 . S
C207 C206 1.390 . S
C207 C208 1.394 1_554 S
C207 C213 1.465 1_545 S
C208 C203 1.399 . S
C208 C207 1.394 1_556 S
C208 C209 1.516 1_545 S
C209 C208 1.516 1_565 S
C209 C210 1.502 . S
C209 C211 1.561 . S
C209 C212 1.526 . S
C210 H194 0.959 1_565 S
C210 H195 0.959 . S
C210 H196 0.961 . S
C210 C209 1.502 . S
C211 H197 0.960 . S
C211 H198 0.961 . S
C211 H199 0.959 . S
C211 C209 1.561 . S
C212 C209 1.526 . S
C212 C213 1.396 1_556 S
C212 C217 1.390 1_556 S
C213 C207 1.465 1_565 S
C213 C212 1.396 1_554 S
C213 C214 1.399 . S
C214 H200 0.931 . S
C214 C213 1.399 . S
C214 C215 1.385 . S
C215 H201 0.931 . S
C215 C214 1.385 . S
C215 C216 1.389 . S
C216 C215 1.389 . S
C216 C217 1.387 . S
C217 H202 0.930 1_554 S
C217 C212 1.390 1_554 S
C217 C216 1.387 . S
H218 C230 0.930 . S
H219 C232 0.930 . S
H220 C233 0.930 1_455 S
H221 C237 0.959 . S
H222 C237 0.959 . S
H223 C237 0.961 . S
H224 C238 0.977 . S
H225 C238 0.961 . S
H226 C238 0.959 . S
H227 C241 0.929 . S
H228 C242 0.931 . S
H229 C244 0.930 . S
C230 H218 0.930 . S
C230 C231 1.399 . S
C230 C235 1.399 . S
C231 C230 1.399 . S
C231 C232 1.376 . S
C232 H219 0.930 . S
C232 C231 1.376 . S
C232 C233 1.388 . S
C233 H220 0.930 1_655 S
C233 C232 1.388 . S
C233 C234 1.390 . S
C234 C233 1.390 . S
C234 C235 1.394 . S
C234 C240 1.465 1_655 S
C235 C230 1.399 . S
C235 C234 1.394 . S
C235 C236 1.516 . S
C236 C235 1.516 . S
C236 C237 1.502 . S
C236 C238 1.561 1_655 S
C236 C239 1.526 1_655 S
C237 H221 0.959 . S
C237 H222 0.959 . S
C237 H223 0.961 . S
C237 C236 1.502 . S
C238 H224 0.977 . S
C238 H225 0.961 . S
C238 H226 0.959 . S
C238 C236 1.561 1_455 S
C239 C236 1.526 1_455 S
C239 C240 1.396 . S
C239 C244 1.390 . S
C240 C234 1.465 1_455 S
C240 C239 1.396 . S
C240 C241 1.399 . S
C241 H227 0.929 . S
C241 C240 1.399 . S
C241 C242 1.385 . S
C242 H228 0.931 . S
C242 C241 1.385 . S
C242 C243 1.389 . S
C243 C242 1.389 . S
C243 C244 1.387 . S
C244 H229 0.930 . S
C244 C239 1.390 . S
C244 C243 1.387 . S
H245 C257 0.930 . S
H246 C259 0.930 . S
H247 C260 0.930 . S
H248 C264 0.959 . S
H249 C264 0.959 . S
H250 C264 0.961 . S
H251 C265 0.960 . S
H252 C265 0.961 . S
H253 C265 0.959 . S
H254 C268 0.929 . S
H255 C269 0.931 . S
H256 C271 0.930 . S
C257 H245 0.930 . S
C257 C258 1.399 . S
C257 C262 1.399 . S
C258 C257 1.399 . S
C258 C259 1.376 . S
C259 H246 0.930 . S
C259 C258 1.376 . S
C259 C260 1.388 . S
C260 H247 0.930 . S
C260 C259 1.388 . S
C260 C261 1.390 . S
C261 C260 1.390 . S
C261 C262 1.394 . S
C261 C267 1.465 . S
C262 C257 1.399 . S
C262 C261 1.394 . S
C262 C263 1.516 . S
C263 C262 1.516 . S
C263 C264 1.502 . S
C263 C265 1.561 . S
C263 C266 1.526 . S
C264 H248 0.959 . S
C264 H249 0.959 . S
C264 H250 0.961 . S
C264 C263 1.502 . S
C265 H251 0.960 . S
C265 H252 0.961 . S
C265 H253 0.959 . S
C265 C263 1.561 . S
C266 C263 1.526 . S
C266 C267 1.396 . S
C266 C271 1.390 . S
C267 C261 1.465 . S
C267 C266 1.396 . S
C267 C268 1.399 . S
C268 H254 0.929 . S
C268 C267 1.399 . S
C268 C269 1.385 . S
C269 H255 0.931 . S
C269 C268 1.385 . S
C269 C270 1.389 . S
C270 C269 1.389 . S
C270 C271 1.387 . S
C271 H256 0.930 . S
C271 C266 1.390 . S
C271 C270 1.387 . S
C69 C23 1.038 . S
C81 C5 1.067 . S
C96 C9 1.046 . S
C108 C19 1.064 . S
C123 C51 1.034 . S
C135 C33 1.004 . S
C150 C37 0.997 . S
C162 C47 1.002 . S
C177 C0 1.530 . S
C189 C28 1.517 . S
C204 C53 1.546 . S
C216 C25 1.527 . S
C231 C39 1.534 . S
C243 C11 1.549 . S
C258 C14 1.539 . S
C270 C42 1.506 . S
