# Generated by pormake.
# Topology zfw, (5)-cn, num edge types: 1
# Building blocks:
#     Node 0, Type 0, BuildingBlock: BEQFEK_clean_sbu_0, # of connection points: 5
#     Node 1, Type 0, BuildingBlock: BEQFEK_clean_sbu_0, # of connection points: 5
#     Node 2, Type 0, BuildingBlock: BEQFEK_clean_sbu_0, # of connection points: 5
#     Node 3, Type 0, BuildingBlock: BEQFEK_clean_sbu_0, # of connection points: 5
#     Node 4, Type 0, BuildingBlock: BEQFEK_clean_sbu_0, # of connection points: 5
#     Node 5, Type 0, BuildingBlock: BEQFEK_clean_sbu_0, # of connection points: 5
#     Node 6, Type 0, BuildingBlock: BEQFEK_clean_sbu_0, # of connection points: 5
#     Node 7, Type 0, BuildingBlock: BEQFEK_clean_sbu_0, # of connection points: 5
#     Node 8, Type 0, BuildingBlock: BEQFEK_clean_sbu_0, # of connection points: 5
#     Node 9, Type 0, BuildingBlock: BEQFEK_clean_sbu_0, # of connection points: 5
#     Node 10, Type 0, BuildingBlock: BEQFEK_clean_sbu_0, # of connection points: 5
#     Node 11, Type 0, BuildingBlock: BEQFEK_clean_sbu_0, # of connection points: 5
#     Node 12, Type 0, BuildingBlock: BEQFEK_clean_sbu_0, # of connection points: 5
#     Node 13, Type 0, BuildingBlock: BEQFEK_clean_sbu_0, # of connection points: 5
#     Node 14, Type 0, BuildingBlock: BEQFEK_clean_sbu_0, # of connection points: 5
#     Node 15, Type 0, BuildingBlock: BEQFEK_clean_sbu_0, # of connection points: 5
#     Edge 16, Type (0, 0), BuildingBlock: KIFKEQ_clean_linker_1, # of connection points: 2
#     Edge 17, Type (0, 0), BuildingBlock: KIFKEQ_clean_linker_1, # of connection points: 2
#     Edge 18, Type (0, 0), BuildingBlock: KIFKEQ_clean_linker_1, # of connection points: 2
#     Edge 19, Type (0, 0), BuildingBlock: KIFKEQ_clean_linker_1, # of connection points: 2
#     Edge 20, Type (0, 0), BuildingBlock: KIFKEQ_clean_linker_1, # of connection points: 2
#     Edge 21, Type (0, 0), BuildingBlock: KIFKEQ_clean_linker_1, # of connection points: 2
#     Edge 22, Type (0, 0), BuildingBlock: KIFKEQ_clean_linker_1, # of connection points: 2
#     Edge 23, Type (0, 0), BuildingBlock: KIFKEQ_clean_linker_1, # of connection points: 2
#     Edge 24, Type (0, 0), BuildingBlock: KIFKEQ_clean_linker_1, # of connection points: 2
#     Edge 25, Type (0, 0), BuildingBlock: KIFKEQ_clean_linker_1, # of connection points: 2
#     Edge 26, Type (0, 0), BuildingBlock: KIFKEQ_clean_linker_1, # of connection points: 2
#     Edge 27, Type (0, 0), BuildingBlock: KIFKEQ_clean_linker_1, # of connection points: 2
#     Edge 28, Type (0, 0), BuildingBlock: KIFKEQ_clean_linker_1, # of connection points: 2
#     Edge 29, Type (0, 0), BuildingBlock: KIFKEQ_clean_linker_1, # of connection points: 2
#     Edge 30, Type (0, 0), BuildingBlock: KIFKEQ_clean_linker_1, # of connection points: 2
#     Edge 31, Type (0, 0), BuildingBlock: KIFKEQ_clean_linker_1, # of connection points: 2
#     Edge 32, Type (0, 0), BuildingBlock: KIFKEQ_clean_linker_1, # of connection points: 2
#     Edge 33, Type (0, 0), BuildingBlock: KIFKEQ_clean_linker_1, # of connection points: 2
#     Edge 34, Type (0, 0), BuildingBlock: KIFKEQ_clean_linker_1, # of connection points: 2
#     Edge 35, Type (0, 0), BuildingBlock: KIFKEQ_clean_linker_1, # of connection points: 2
#     Edge 36, Type (0, 0), BuildingBlock: KIFKEQ_clean_linker_1, # of connection points: 2
#     Edge 37, Type (0, 0), BuildingBlock: KIFKEQ_clean_linker_1, # of connection points: 2
#     Edge 38, Type (0, 0), BuildingBlock: KIFKEQ_clean_linker_1, # of connection points: 2
#     Edge 39, Type (0, 0), BuildingBlock: KIFKEQ_clean_linker_1, # of connection points: 2
#     Edge 40, Type (0, 0), BuildingBlock: KIFKEQ_clean_linker_1, # of connection points: 2
#     Edge 41, Type (0, 0), BuildingBlock: KIFKEQ_clean_linker_1, # of connection points: 2
#     Edge 42, Type (0, 0), BuildingBlock: KIFKEQ_clean_linker_1, # of connection points: 2
#     Edge 43, Type (0, 0), BuildingBlock: KIFKEQ_clean_linker_1, # of connection points: 2
#     Edge 44, Type (0, 0), BuildingBlock: KIFKEQ_clean_linker_1, # of connection points: 2
#     Edge 45, Type (0, 0), BuildingBlock: KIFKEQ_clean_linker_1, # of connection points: 2
#     Edge 46, Type (0, 0), BuildingBlock: KIFKEQ_clean_linker_1, # of connection points: 2
#     Edge 47, Type (0, 0), BuildingBlock: KIFKEQ_clean_linker_1, # of connection points: 2
#     Edge 48, Type (0, 0), BuildingBlock: KIFKEQ_clean_linker_1, # of connection points: 2
#     Edge 49, Type (0, 0), BuildingBlock: KIFKEQ_clean_linker_1, # of connection points: 2
#     Edge 50, Type (0, 0), BuildingBlock: KIFKEQ_clean_linker_1, # of connection points: 2
#     Edge 51, Type (0, 0), BuildingBlock: KIFKEQ_clean_linker_1, # of connection points: 2
#     Edge 52, Type (0, 0), BuildingBlock: KIFKEQ_clean_linker_1, # of connection points: 2
#     Edge 53, Type (0, 0), BuildingBlock: KIFKEQ_clean_linker_1, # of connection points: 2
#     Edge 54, Type (0, 0), BuildingBlock: KIFKEQ_clean_linker_1, # of connection points: 2
#     Edge 55, Type (0, 0), BuildingBlock: KIFKEQ_clean_linker_1, # of connection points: 2
# Relax obj value: 0.381
# Max RMSD: 0.227
# Mean RMSD: 0.227
data_MOF--net-zfw--node1-BEQFEK_clean_sbu_0--edge1-KIFKEQ_clean_linker_1
_symmetry_space_group_name_H-M    P1
_symmetry_Int_Tables_number       1
_symmetry_cell_setting            triclinic
loop_
_symmetry_equiv_pos_as_xyz
'x, y, z'
_cell_length_a     70.557577
_cell_length_b     70.538023
_cell_length_c     18.107982
_cell_angle_alpha  90.017312
_cell_angle_beta   89.99474
_cell_angle_gamma 90.004967
loop_
_atom_site_label
_atom_site_type_symbol
_atom_site_fract_x
_atom_site_fract_y
_atom_site_fract_z
_atom_type_partial_charge
Co0 Co 0.01453 0.09526 0.31964 0.0
Co1 Co 0.01365 0.11616 0.16869 0.0
C2 C 0.98384 0.12292 0.28184 0.0
O3 O 0.99217 0.11184 0.32646 0.0
O4 O 0.99016 0.12561 0.21691 0.0
C5 C 0.99856 0.07658 0.44133 0.0
O6 O 0.98296 0.0781 0.40211 0.0
C7 C -0.00013 0.12219 0.01955 0.0
C8 C 0.02585 0.13175 0.96282 0.0
C9 C 0.00738 0.1258 0.95002 0.0
N10 N 0.01356 0.12492 0.06991 0.0
N11 N 0.02886 0.13129 0.03606 0.0
C12 C 0.98014 0.11607 0.03885 0.0
H13 H 0.97502 0.12435 0.08689 0.0
H14 H 0.98013 0.10092 0.05524 0.0
H15 H 0.97025 0.1183 0.99202 0.0
C16 C 0.01573 0.06144 0.22289 0.0
N17 N 0.01455 0.0803 0.23356 0.0
N18 N 0.01544 0.08904 0.16944 0.0
C19 C 0.01794 0.07593 0.11596 0.0
C20 C 0.01797 0.05807 0.14801 0.0
C21 C 0.01584 0.04715 0.28385 0.0
H22 H 0.02684 0.05103 0.32493 0.0
H23 H 0.00192 0.04741 0.31237 0.0
H24 H 0.01863 0.03264 0.2628 0.0
O25 O 0.03741 0.1114 0.32377 0.0
O26 O 0.03603 0.12738 0.21839 0.0
H27 H 0.0301 0.09264 0.02916 0.0
H28 H 0.02653 0.06821 0.00459 0.0
C29 C 0.02055 0.08031 0.03571 0.0
H30 H 0.00662 0.08362 0.01105 0.0
H31 H 0.04175 0.13396 0.06231 0.0
O32 O 0.01433 0.08029 0.41077 0.0
C33 C 0.04401 0.12388 0.28 0.0
Co34 Co 0.16577 0.74886 0.55823 0.0
Co35 Co 0.14471 0.7488 0.40758 0.0
C36 C 0.13819 0.71831 0.51942 0.0
O37 O 0.14985 0.72603 0.56349 0.0
O38 O 0.13491 0.72548 0.45624 0.0
C39 C 0.18458 0.73303 0.68023 0.0
O40 O 0.18318 0.71736 0.64132 0.0
C41 C 0.139 0.73494 0.25855 0.0
C42 C 0.12913 0.76075 0.20146 0.0
C43 C 0.13536 0.74236 0.1889 0.0
N44 N 0.136 0.74862 0.30876 0.0
N45 N 0.12946 0.76381 0.2747 0.0
C46 C 0.14542 0.71533 0.27814 0.0
H47 H 0.1374 0.7102 0.32684 0.0
H48 H 0.16063 0.71554 0.29357 0.0
H49 H 0.14313 0.70532 0.23171 0.0
C50 C 0.19951 0.75044 0.46149 0.0
N51 N 0.18066 0.74934 0.47225 0.0
N52 N 0.17188 0.7505 0.40829 0.0
C53 C 0.18497 0.75317 0.35485 0.0
C54 C 0.20286 0.75295 0.38674 0.0
C55 C 0.21384 0.75012 0.52231 0.0
H56 H 0.2101 0.76098 0.5642 0.0
H57 H 0.21345 0.73608 0.54986 0.0
H58 H 0.22837 0.75287 0.50134 0.0
O59 O 0.14922 0.77156 0.56348 0.0
O60 O 0.13368 0.77119 0.45699 0.0
H61 H 0.19256 0.7626 0.24447 0.0
H62 H 0.17754 0.74235 0.24881 0.0
C63 C 0.18056 0.75619 0.27485 0.0
H64 H 0.16806 0.76555 0.2691 0.0
H65 H 0.12658 0.77668 0.30081 0.0
O66 O 0.18074 0.74874 0.6494 0.0
C67 C 0.137 0.77865 0.51969 0.0
Co68 Co 0.51355 0.90113 0.81289 0.0
Co69 Co 0.51377 0.88009 0.66217 0.0
C70 C 0.54405 0.87344 0.77476 0.0
O71 O 0.53629 0.88509 0.81878 0.0
O72 O 0.53699 0.87024 0.71132 0.0
C73 C 0.52934 0.92002 0.93477 0.0
O74 O 0.54499 0.91861 0.89581 0.0
C75 C 0.52776 0.87462 0.51323 0.0
C76 C 0.50212 0.86439 0.45589 0.0
C77 C 0.52042 0.8709 0.4435 0.0
N78 N 0.5141 0.8714 0.56332 0.0
N79 N 0.49902 0.86466 0.52911 0.0
C80 C 0.54726 0.88132 0.53304 0.0
H81 H 0.5524 0.87351 0.5822 0.0
H82 H 0.54685 0.89657 0.54781 0.0
H83 H 0.55735 0.87903 0.4869 0.0
C84 C 0.51224 0.93489 0.71609 0.0
N85 N 0.51329 0.91604 0.7269 0.0
N86 N 0.5121 0.90725 0.66294 0.0
C87 C 0.50941 0.92033 0.60952 0.0
C88 C 0.5097 0.93822 0.64135 0.0
C89 C 0.51259 0.94926 0.77683 0.0
H90 H 0.50163 0.94564 0.81845 0.0
H91 H 0.52658 0.94874 0.80475 0.0
H92 H 0.51002 0.9638 0.75568 0.0
O93 O 0.49075 0.88466 0.81748 0.0
O94 O 0.49129 0.86912 0.71094 0.0
H95 H 0.49698 0.90325 0.52428 0.0
H96 H 0.49936 0.92783 0.49994 0.0
C97 C 0.50613 0.91591 0.52966 0.0
H98 H 0.5199 0.91319 0.50265 0.0
H99 H 0.48619 0.86158 0.55511 0.0
O100 O 0.51363 0.91612 0.90406 0.0
C101 C 0.48371 0.87247 0.7734 0.0
Co102 Co 0.36004 0.24916 0.07253 0.0
Co103 Co 0.3809 0.24729 0.92165 0.0
C104 C 0.38828 0.27852 0.03102 0.0
O105 O 0.37611 0.27183 0.07549 0.0
O106 O 0.39158 0.27045 0.96948 0.0
C107 C 0.3415 0.26553 0.19453 0.0
O108 O 0.34346 0.28123 0.15621 0.0
C109 C 0.38676 0.26078 0.77252 0.0
C110 C 0.39574 0.23466 0.71523 0.0
C111 C 0.39 0.25322 0.7028 0.0
N112 N 0.38949 0.24705 0.8227 0.0
N113 N 0.3955 0.23165 0.78851 0.0
C114 C 0.38084 0.28055 0.7922 0.0
H115 H 0.38902 0.28549 0.84076 0.0
H116 H 0.36564 0.28069 0.80779 0.0
H117 H 0.38334 0.29049 0.74574 0.0
C118 C 0.32618 0.24761 0.97614 0.0
N119 N 0.34506 0.2483 0.98668 0.0
N120 N 0.35375 0.2465 0.92277 0.0
C121 C 0.34057 0.2438 0.86972 0.0
C122 C 0.32273 0.24467 0.90168 0.0
C123 C 0.31188 0.24874 0.03696 0.0
H124 H 0.31515 0.23785 0.07928 0.0
H125 H 0.3129 0.26282 0.06394 0.0
H126 H 0.29725 0.24656 0.01613 0.0
O127 O 0.3766 0.22648 0.0803 0.0
O128 O 0.39097 0.22456 0.97134 0.0
H129 H 0.35705 0.23031 0.7852 0.0
H130 H 0.33266 0.23392 0.76026 0.0
C131 C 0.34487 0.24011 0.79003 0.0
H132 H 0.34836 0.25367 0.76269 0.0
H133 H 0.39806 0.21872 0.8146 0.0
O134 O 0.34503 0.24978 0.16349 0.0
C135 C 0.38799 0.21824 0.03613 0.0
Co136 Co 0.01162 0.90134 0.67663 0.0
Co137 Co 0.01367 0.88029 0.82698 0.0
C138 C 0.98151 0.87402 0.72168 0.0
O139 O 0.98868 0.88563 0.67598 0.0
O140 O 0.9895 0.87071 0.78341 0.0
C141 C 0.99564 0.92006 0.55257 0.0
O142 O 0.97948 0.91706 0.58666 0.0
C143 C 0.00283 0.87572 0.97997 0.0
C144 C 0.02912 0.86437 0.02878 0.0
C145 C 0.01151 0.87178 0.0468 0.0
N146 N 0.01494 0.87136 0.92543 0.0
N147 N 0.03034 0.86384 0.9547 0.0
C148 C 0.98457 0.88614 0.96827 0.0
H149 H 0.98432 0.89295 0.91305 0.0
H150 H 0.98227 0.89691 0.01204 0.0
H151 H 0.97272 0.87583 0.97127 0.0
C152 C 0.01429 0.93511 0.77262 0.0
N153 N 0.0133 0.91623 0.76227 0.0
N154 N 0.01571 0.90749 0.82577 0.0
C155 C 0.01931 0.92067 0.87808 0.0
C156 C 0.0182 0.93853 0.84637 0.0
C157 C 0.01244 0.94941 0.71213 0.0
H158 H 0.0234 0.94665 0.66953 0.0
H159 H 0.99838 0.94782 0.6854 0.0
H160 H 0.01406 0.96411 0.73316 0.0
O161 O 0.03418 0.88465 0.66672 0.0
O162 O 0.0352 0.86913 0.77309 0.0
H163 H 0.03295 0.92779 0.98162 0.0
H164 H 0.01106 0.91538 0.98945 0.0
C165 C 0.02424 0.91643 0.95664 0.0
H166 H 0.03228 0.903 0.96006 0.0
H167 H 0.04236 0.86003 0.92456 0.0
O168 O 0.01104 0.91655 0.58619 0.0
C169 C 0.04182 0.87242 0.70901 0.0
Co170 Co 0.36076 0.74684 0.92137 0.0
Co171 Co 0.38153 0.74847 0.07232 0.0
C172 C 0.38828 0.71677 0.96558 0.0
O173 O 0.37675 0.72408 0.91995 0.0
O174 O 0.39136 0.72449 0.02803 0.0
C175 C 0.34202 0.73067 0.79794 0.0
O176 O 0.34495 0.7146 0.83279 0.0
C177 C 0.38604 0.73738 0.22513 0.0
C178 C 0.39723 0.76366 0.2747 0.0
C179 C 0.38991 0.74598 0.29222 0.0
N180 N 0.39035 0.74961 0.17094 0.0
N181 N 0.39778 0.765 0.20067 0.0
C182 C 0.37577 0.71906 0.21288 0.0
H183 H 0.36892 0.71888 0.15773 0.0
H184 H 0.36506 0.71655 0.2567 0.0
H185 H 0.38618 0.70729 0.21527 0.0
C186 C 0.32683 0.74907 0.01648 0.0
N187 N 0.34572 0.74811 0.00669 0.0
N188 N 0.35433 0.75031 0.07058 0.0
C189 C 0.34104 0.75372 0.12266 0.0
C190 C 0.32326 0.75271 0.09032 0.0
C191 C 0.31265 0.74753 0.9554 0.0
H192 H 0.31568 0.75851 0.91317 0.0
H193 H 0.31409 0.73348 0.92841 0.0
H194 H 0.29794 0.74933 0.9759 0.0
O195 O 0.3772 0.76961 0.91282 0.0
O196 O 0.3926 0.77023 0.01953 0.0
H197 H 0.35848 0.76656 0.20568 0.0
H198 H 0.33365 0.76692 0.22681 0.0
C199 C 0.34513 0.75842 0.20157 0.0
H200 H 0.34625 0.74512 0.23367 0.0
H201 H 0.40155 0.77709 0.17087 0.0
O202 O 0.34567 0.74617 0.83073 0.0
C203 C 0.38935 0.77712 0.95587 0.0
Co204 Co 0.51456 0.09498 0.16919 0.0
Co205 Co 0.51311 0.11599 0.31991 0.0
C206 C 0.54406 0.1232 0.20929 0.0
O207 O 0.5372 0.11102 0.16525 0.0
O208 O 0.53619 0.12657 0.27116 0.0
C209 C 0.53073 0.07636 0.04713 0.0
O210 O 0.54642 0.07816 0.08559 0.0
C211 C 0.52688 0.12166 0.46881 0.0
C212 C 0.50104 0.13128 0.52638 0.0
C213 C 0.51948 0.12515 0.53861 0.0
N214 N 0.51316 0.12464 0.41881 0.0
N215 N 0.49794 0.13103 0.45316 0.0
C216 C 0.54648 0.1153 0.44888 0.0
H217 H 0.55147 0.12318 0.39965 0.0
H218 H 0.54633 0.10004 0.43426 0.0
H219 H 0.55656 0.11779 0.49491 0.0
C220 C 0.5131 0.0612 0.26603 0.0
N221 N 0.51388 0.08007 0.25525 0.0
N222 N 0.51219 0.08883 0.31908 0.0
C223 C 0.50943 0.07571 0.37231 0.0
C224 C 0.5102 0.05783 0.34056 0.0
C225 C 0.51406 0.04684 0.20536 0.0
H226 H 0.50309 0.05011 0.16336 0.0
H227 H 0.52809 0.0478 0.1779 0.0
H228 H 0.5119 0.03223 0.22645 0.0
O229 O 0.49187 0.11156 0.16216 0.0
O230 O 0.49029 0.12609 0.2709 0.0
H231 H 0.49611 0.09251 0.45635 0.0
H232 H 0.49905 0.06802 0.48124 0.0
C233 C 0.50563 0.08009 0.45186 0.0
H234 H 0.51919 0.08323 0.47984 0.0
H235 H 0.48504 0.13385 0.42724 0.0
O236 O 0.515 0.07994 0.07822 0.0
C237 C 0.48379 0.12303 0.20644 0.0
Co238 Co 0.16672 0.24976 0.42656 0.0
Co239 Co 0.14534 0.24921 0.57661 0.0
C240 C 0.13906 0.28009 0.4658 0.0
O241 O 0.1509 0.27264 0.42174 0.0
O242 O 0.1356 0.27261 0.52829 0.0
C243 C 0.1855 0.26555 0.30419 0.0
O244 O 0.18391 0.28132 0.34234 0.0
C245 C 0.13966 0.26288 0.72579 0.0
C246 C 0.12959 0.23709 0.78247 0.0
C247 C 0.13601 0.2554 0.79536 0.0
N248 N 0.1365 0.2493 0.67533 0.0
N249 N 0.12984 0.23412 0.70915 0.0
C250 C 0.1463 0.28244 0.70648 0.0
H251 H 0.13848 0.28764 0.65745 0.0
H252 H 0.16156 0.28209 0.69179 0.0
H253 H 0.14396 0.29246 0.75283 0.0
C254 C 0.20026 0.24798 0.52438 0.0
N255 N 0.18143 0.24903 0.51301 0.0
N256 N 0.1725 0.24754 0.57656 0.0
C257 C 0.18547 0.24466 0.63025 0.0
C258 C 0.20342 0.24512 0.59907 0.0
C259 C 0.21474 0.24868 0.46415 0.0
H260 H 0.2114 0.23771 0.42218 0.0
H261 H 0.21402 0.26269 0.43647 0.0
H262 H 0.22927 0.24633 0.4857 0.0
O263 O 0.1501 0.22712 0.4199 0.0
O264 O 0.13447 0.22689 0.52623 0.0
H265 H 0.19277 0.23435 0.73968 0.0
H266 H 0.17801 0.25481 0.73726 0.0
C267 C 0.18089 0.24113 0.70979 0.0
H268 H 0.16828 0.23188 0.71427 0.0
H269 H 0.12684 0.22131 0.68283 0.0
O270 O 0.18187 0.24989 0.3358 0.0
C271 C 0.13788 0.21976 0.46302 0.0
Co272 Co 0.86093 0.24842 0.42333 0.0
Co273 Co 0.88148 0.24778 0.57505 0.0
C274 C 0.88851 0.21787 0.46191 0.0
O275 O 0.87742 0.22605 0.41695 0.0
O276 O 0.8911 0.22435 0.52664 0.0
C277 C 0.84197 0.23216 0.30302 0.0
O278 O 0.84339 0.21678 0.34359 0.0
C279 C 0.88579 0.23334 0.72364 0.0
C280 C 0.89699 0.25829 0.78284 0.0
C281 C 0.88967 0.24023 0.79387 0.0
N282 N 0.88975 0.24702 0.67444 0.0
N283 N 0.89703 0.26167 0.70978 0.0
C284 C 0.87818 0.21425 0.7026 0.0
H285 H 0.86302 0.21546 0.68723 0.0
H286 H 0.87982 0.20391 0.74832 0.0
H287 H 0.88587 0.20886 0.65356 0.0
C288 C 0.82691 0.24981 0.51885 0.0
N289 N 0.84578 0.2485 0.5088 0.0
N290 N 0.8544 0.24979 0.57304 0.0
C291 C 0.84122 0.25284 0.62582 0.0
C292 C 0.82343 0.25264 0.59333 0.0
C293 C 0.8127 0.24958 0.45759 0.0
H294 H 0.8166 0.26039 0.4158 0.0
H295 H 0.81304 0.23552 0.4301 0.0
H296 H 0.79816 0.25243 0.47813 0.0
O297 O 0.87718 0.27129 0.4202 0.0
O298 O 0.89288 0.27024 0.52644 0.0
H299 H 0.85853 0.26519 0.71062 0.0
H300 H 0.8338 0.26415 0.73357 0.0
C301 C 0.8455 0.25658 0.70551 0.0
H302 H 0.84744 0.24293 0.73442 0.0
H303 H 0.90076 0.27445 0.68462 0.0
O304 O 0.84612 0.24806 0.33177 0.0
C305 C 0.8895 0.27806 0.46438 0.0
Co306 Co 0.66713 0.7502 0.92235 0.0
Co307 Co 0.64614 0.74832 0.07293 0.0
C308 C 0.63922 0.77979 0.96399 0.0
O309 O 0.65142 0.7731 0.91967 0.0
O310 O 0.63571 0.7716 0.02511 0.0
C311 C 0.68587 0.76633 0.80024 0.0
O312 O 0.68407 0.78207 0.83842 0.0
C313 C 0.64062 0.76192 0.22202 0.0
C314 C 0.63105 0.73604 0.27944 0.0
C315 C 0.63724 0.75446 0.29179 0.0
N316 N 0.63755 0.74824 0.17189 0.0
N317 N 0.63119 0.733 0.20615 0.0
C318 C 0.64703 0.78153 0.20225 0.0
H319 H 0.63905 0.78662 0.15344 0.0
H320 H 0.66225 0.78131 0.18705 0.0
H321 H 0.64469 0.79157 0.24854 0.0
C322 C 0.70092 0.7482 0.01904 0.0
N323 N 0.68206 0.74905 0.00829 0.0
N324 N 0.67329 0.74719 0.07202 0.0
C325 C 0.68641 0.74425 0.12513 0.0
C326 C 0.70429 0.74507 0.09344 0.0
C327 C 0.71528 0.7494 0.95846 0.0
H328 H 0.71204 0.73856 0.91587 0.0
H329 H 0.71429 0.76352 0.93175 0.0
H330 H 0.72989 0.74719 0.97946 0.0
O331 O 0.6502 0.72776 0.9141 0.0
O332 O 0.63581 0.72572 0.02296 0.0
H333 H 0.66958 0.73086 0.20882 0.0
H334 H 0.69407 0.73369 0.23382 0.0
C335 C 0.68202 0.74035 0.20457 0.0
H336 H 0.67891 0.75388 0.23284 0.0
H337 H 0.62831 0.72012 0.18011 0.0
O338 O 0.68218 0.75063 0.83144 0.0
C339 C 0.63871 0.71954 0.95791 0.0
Co340 Co 0.66665 0.24761 0.06476 0.0
Co341 Co 0.64578 0.24914 0.91381 0.0
C342 C 0.63884 0.2179 0.02383 0.0
O343 O 0.65098 0.22472 0.0681 0.0
O344 O 0.63541 0.22592 0.96234 0.0
C345 C 0.68563 0.23156 0.18626 0.0
O346 O 0.68406 0.2159 0.1474 0.0
C347 C 0.64105 0.23506 0.76509 0.0
C348 C 0.6305 0.26037 0.70647 0.0
C349 C 0.63742 0.24217 0.69498 0.0
N350 N 0.63737 0.24873 0.81461 0.0
N351 N 0.63045 0.26361 0.77963 0.0
C352 C 0.64824 0.21579 0.78575 0.0
H353 H 0.66349 0.21663 0.8002 0.0
H354 H 0.64617 0.20549 0.7401 0.0
H355 H 0.64061 0.21059 0.83523 0.0
C356 C 0.7005 0.24968 0.96845 0.0
N357 N 0.68163 0.24866 0.97899 0.0
N358 N 0.6729 0.25051 0.9152 0.0
C359 C 0.68602 0.25368 0.86231 0.0
C360 C 0.70388 0.25296 0.89416 0.0
C361 C 0.71482 0.24858 0.02915 0.0
H362 H 0.71142 0.2593 0.07196 0.0
H363 H 0.71401 0.2344 0.05549 0.0
H364 H 0.72942 0.25101 0.00834 0.0
O365 O 0.64967 0.27003 0.07179 0.0
O366 O 0.63527 0.2718 0.96279 0.0
H367 H 0.66883 0.26682 0.77908 0.0
H368 H 0.69346 0.26523 0.75497 0.0
C369 C 0.68165 0.25786 0.78305 0.0
H370 H 0.67925 0.24438 0.75337 0.0
H371 H 0.62703 0.27644 0.80511 0.0
O372 O 0.68162 0.24728 0.15587 0.0
C373 C 0.63816 0.27812 0.02767 0.0
Co374 Co 0.86027 0.7485 0.56961 0.0
Co375 Co 0.88159 0.74864 0.41941 0.0
C376 C 0.88786 0.7791 0.53183 0.0
O377 O 0.87615 0.77135 0.57558 0.0
O378 O 0.89123 0.77198 0.46861 0.0
C379 C 0.84143 0.76417 0.69187 0.0
O380 O 0.84283 0.77989 0.65333 0.0
C381 C 0.88724 0.76254 0.27039 0.0
C382 C 0.89752 0.73685 0.21349 0.0
C383 C 0.891 0.75514 0.20076 0.0
N384 N 0.89043 0.74893 0.3207 0.0
N385 N 0.89721 0.73383 0.28675 0.0
C386 C 0.8805 0.78205 0.28989 0.0
H387 H 0.88824 0.78723 0.33919 0.0
H388 H 0.86523 0.78165 0.30429 0.0
H389 H 0.88287 0.79213 0.24373 0.0
C390 C 0.82669 0.74702 0.4718 0.0
N391 N 0.84552 0.74807 0.48316 0.0
N392 N 0.85443 0.74684 0.41948 0.0
C393 C 0.84144 0.74412 0.36569 0.0
C394 C 0.8235 0.74443 0.39696 0.0
C395 C 0.81222 0.74749 0.5321 0.0
H396 H 0.81568 0.73651 0.57384 0.0
H397 H 0.81278 0.76148 0.56004 0.0
H398 H 0.7977 0.74502 0.51053 0.0
O399 O 0.87691 0.72583 0.57505 0.0
O400 O 0.89259 0.72626 0.46886 0.0
H401 H 0.85869 0.7317 0.28095 0.0
H402 H 0.83417 0.73402 0.25594 0.0
C403 C 0.84601 0.74083 0.28596 0.0
H404 H 0.84873 0.75461 0.25899 0.0
H405 H 0.90028 0.72101 0.31293 0.0
O406 O 0.84518 0.7485 0.66054 0.0
C407 C 0.88921 0.71879 0.53148 0.0
Co408 Co 0.51343 0.59511 0.818 0.0
Co409 Co 0.51462 0.61636 0.66773 0.0
C410 C 0.48347 0.62287 0.77833 0.0
O411 O 0.4905 0.61073 0.82211 0.0
O412 O 0.49133 0.62648 0.71663 0.0
C413 C 0.49764 0.57629 0.94036 0.0
O414 O 0.48187 0.57786 0.90223 0.0
C415 C 0.50083 0.62201 0.51877 0.0
C416 C 0.52659 0.63198 0.46156 0.0
C417 C 0.50824 0.62561 0.44905 0.0
N418 N 0.51448 0.62514 0.56895 0.0
N419 N 0.52964 0.63174 0.53482 0.0
C420 C 0.48129 0.61541 0.53846 0.0
H421 H 0.47619 0.6232 0.58774 0.0
H422 H 0.48161 0.60014 0.55291 0.0
H423 H 0.47121 0.61781 0.49236 0.0
C424 C 0.5153 0.56148 0.72027 0.0
N425 N 0.5144 0.58032 0.73157 0.0
N426 N 0.51602 0.5892 0.66797 0.0
C427 C 0.51886 0.57619 0.61439 0.0
C428 C 0.51822 0.55824 0.64563 0.0
C429 C 0.51433 0.54702 0.78052 0.0
H430 H 0.52519 0.55029 0.82295 0.0
H431 H 0.50024 0.54783 0.80758 0.0
H432 H 0.51663 0.53246 0.7591 0.0
O433 O 0.53578 0.61215 0.82559 0.0
O434 O 0.53723 0.62685 0.71722 0.0
H435 H 0.5318 0.5933 0.53047 0.0
H436 H 0.52927 0.56881 0.50514 0.0
C437 C 0.5225 0.58072 0.53487 0.0
H438 H 0.50886 0.58364 0.50716 0.0
H439 H 0.54249 0.63471 0.56089 0.0
O440 O 0.51329 0.58 0.90881 0.0
C441 C 0.54369 0.62385 0.78177 0.0
Co442 Co 0.01437 0.40165 0.31504 0.0
Co443 Co 0.0137 0.3803 0.16491 0.0
C444 C 0.04478 0.37415 0.27492 0.0
O445 O 0.03734 0.38595 0.31918 0.0
O446 O 0.03722 0.37065 0.21261 0.0
C447 C 0.03018 0.42041 0.43748 0.0
O448 O 0.04596 0.41882 0.39939 0.0
C449 C 0.0272 0.37442 0.01558 0.0
C450 C 0.00123 0.36473 0.95913 0.0
C451 C 0.01962 0.37089 0.94609 0.0
N452 N 0.01361 0.37146 0.06617 0.0
N453 N 0.99832 0.36502 0.03248 0.0
C454 C 0.04687 0.38077 0.03468 0.0
H455 H 0.05205 0.37273 0.08319 0.0
H456 H 0.04673 0.39598 0.05012 0.0
H457 H 0.05679 0.37844 0.988 0.0
C458 C 0.01231 0.43521 0.21748 0.0
N459 N 0.0134 0.41638 0.22871 0.0
N460 N 0.01194 0.40747 0.16508 0.0
C461 C 0.00909 0.42047 0.11145 0.0
C462 C 0.00949 0.43842 0.14281 0.0
C463 C 0.01304 0.44966 0.27784 0.0
H464 H 0.0022 0.44622 0.32014 0.0
H465 H 0.02712 0.44904 0.30502 0.0
H466 H 0.01054 0.4642 0.25651 0.0
O467 O 0.99187 0.38487 0.32233 0.0
O468 O 0.99153 0.36929 0.21589 0.0
H469 H 0.9964 0.40345 0.02671 0.0
H470 H -0.00063 0.4279 0.00131 0.0
C471 C 0.00582 0.41592 0.03171 0.0
H472 H 0.01957 0.4128 0.00519 0.0
H473 H 0.98549 0.3622 0.05892 0.0
O474 O 0.01453 0.41679 0.40582 0.0
C475 C 0.98451 0.37262 0.27935 0.0
Co476 Co 0.51254 0.40208 0.16917 0.0
Co477 Co 0.51459 0.38105 0.31966 0.0
C478 C 0.48318 0.37391 0.21069 0.0
O479 O 0.48978 0.38616 0.16632 0.0
O480 O 0.49137 0.3705 0.27187 0.0
C481 C 0.49631 0.42068 0.04698 0.0
O482 O 0.48057 0.41873 0.08499 0.0
C483 C 0.50108 0.37532 0.46875 0.0
C484 C 0.52707 0.36599 0.52599 0.0
C485 C 0.5086 0.37199 0.53846 0.0
N486 N 0.51477 0.3724 0.41854 0.0
N487 N 0.53008 0.36618 0.45269 0.0
C488 C 0.48141 0.38153 0.44911 0.0
H489 H 0.47637 0.37349 0.40034 0.0
H490 H 0.48148 0.39676 0.4339 0.0
H491 H 0.47142 0.37911 0.49546 0.0
C492 C 0.51439 0.43586 0.26616 0.0
N493 N 0.51362 0.41699 0.25526 0.0
N494 N 0.51554 0.40821 0.31893 0.0
C495 C 0.51842 0.42132 0.37213 0.0
C496 C 0.51753 0.43921 0.34059 0.0
C497 C 0.51316 0.45023 0.20566 0.0
H498 H 0.52404 0.44707 0.16317 0.0
H499 H 0.49907 0.44917 0.17876 0.0
H500 H 0.51527 0.46485 0.22677 0.0
O501 O 0.53507 0.38531 0.16073 0.0
O502 O 0.5372 0.37087 0.26945 0.0
H503 H 0.53196 0.40457 0.4557 0.0
H504 H 0.5288 0.429 0.48113 0.0
C505 C 0.52232 0.4169 0.45156 0.0
H506 H 0.50881 0.4136 0.4796 0.0
H507 H 0.54297 0.36345 0.42657 0.0
O508 O 0.51202 0.41716 0.07836 0.0
C509 C 0.54335 0.37384 0.20441 0.0
Co510 Co 0.0147 0.59563 0.67291 0.0
Co511 Co 0.01435 0.61634 0.82428 0.0
C512 C 0.04492 0.62333 0.71269 0.0
O513 O 0.03745 0.61162 0.6682 0.0
O514 O 0.03755 0.62647 0.77563 0.0
C515 C 0.03091 0.57665 0.55211 0.0
O516 O 0.04638 0.57807 0.59214 0.0
C517 C 0.0287 0.62064 0.97285 0.0
C518 C 0.00371 0.63172 0.03211 0.0
C519 C 0.02178 0.62444 0.04312 0.0
N520 N 0.01503 0.62461 0.92366 0.0
N521 N 0.00035 0.63182 0.95903 0.0
C522 C 0.0478 0.61308 0.95174 0.0
H523 H 0.04664 0.59785 0.93717 0.0
H524 H 0.05818 0.61492 -0.00281 0.0
H525 H 0.05308 0.62063 0.9022 0.0
C526 C 0.01311 0.56165 0.76849 0.0
N527 N 0.01423 0.58052 0.75831 0.0
N528 N 0.01266 0.58919 0.82238 0.0
C529 C 0.00957 0.57601 0.87513 0.0
C530 C 0.01008 0.55819 0.84286 0.0
C531 C 0.0138 0.54739 0.70742 0.0
H532 H 0.00304 0.55105 0.6651 0.0
H533 H 0.02792 0.54798 0.68057 0.0
H534 H 0.01117 0.53281 0.72801 0.0
O535 O 0.99191 0.61218 0.66838 0.0
O536 O 0.99186 0.62738 0.7758 0.0
H537 H 0.99782 0.56857 0.98205 0.0
H538 H 0.019 0.58228 0.98437 0.0
C539 C 0.00548 0.5803 0.95455 0.0
H540 H 0.99682 0.59332 0.95909 0.0
H541 H 0.98757 0.63552 0.93387 0.0
O542 O 0.01507 0.58079 0.58138 0.0
C543 C 0.98459 0.62419 0.71262 0.0
H544 H 0.11052 0.2004 0.53893 0.0
H545 H 0.13971 0.20183 0.32899 0.0
H546 H 0.09 0.17533 0.49289 0.0
H547 H 0.11934 0.17646 0.28352 0.0
H548 H 0.064 0.12131 0.40918 0.0
H549 H 0.08897 0.14234 0.45295 0.0
H550 H 0.08598 0.17391 0.24888 0.0
H551 H 0.06127 0.15271 0.20437 0.0
C552 C 0.11275 0.1952 0.48329 0.0
C553 C 0.12667 0.20326 0.43748 0.0
C554 C 0.10105 0.18073 0.45706 0.0
C555 C 0.103 0.17396 0.38443 0.0
C556 C 0.11733 0.18156 0.33941 0.0
C557 C 0.12906 0.19603 0.36567 0.0
C558 C 0.06881 0.13259 0.3732 0.0
C559 C 0.06049 0.13541 0.30347 0.0
C560 C 0.08307 0.14469 0.39851 0.0
C561 C 0.08935 0.15988 0.35468 0.0
C562 C 0.08159 0.16223 0.28376 0.0
C563 C 0.06733 0.15014 0.25842 0.0
H564 H 0.13978 0.79825 0.64982 0.0
H565 H 0.10827 0.79631 0.44513 0.0
H566 H 0.11894 0.82326 0.69477 0.0
H567 H 0.08723 0.82098 0.49085 0.0
H568 H 0.06133 0.84487 0.783 0.0
H569 H 0.08622 0.82443 0.73543 0.0
H570 H 0.08447 0.85408 0.52678 0.0
H571 H 0.0592 0.87435 0.57381 0.0
C572 C 0.12851 0.80323 0.61415 0.0
C573 C 0.12559 0.79513 0.54411 0.0
C574 C 0.11651 0.81751 0.64012 0.0
C575 C 0.10133 0.82399 0.59668 0.0
C576 C 0.0989 0.81644 0.52546 0.0
C577 C 0.1109 0.80219 0.49943 0.0
C578 C 0.06633 0.84717 0.72716 0.0
C579 C 0.05813 0.86116 0.68203 0.0
C580 C 0.08073 0.83552 0.70005 0.0
C581 C 0.0873 0.83759 0.62722 0.0
C582 C 0.07954 0.85197 0.58282 0.0
C583 C 0.06511 0.86364 0.60993 0.0
H584 H 0.46592 0.84409 0.69731 0.0
H585 H 0.46401 0.87503 0.90338 0.0
H586 H 0.44103 0.82313 0.74158 0.0
H587 H 0.43877 0.85427 0.94691 0.0
H588 H 0.41674 0.79638 0.03168 0.0
H589 H 0.43728 0.82142 0.98598 0.0
H590 H 0.40789 0.82051 0.77668 0.0
H591 H 0.38752 0.79509 0.82183 0.0
C592 C 0.46 0.84662 0.75162 0.0
C593 C 0.46713 0.86112 0.79709 0.0
C594 C 0.44562 0.83466 0.77681 0.0
C595 C 0.438 0.83695 0.84798 0.0
C596 C 0.44456 0.85195 0.89226 0.0
C597 C 0.45897 0.8639 0.86711 0.0
C598 C 0.41451 0.80161 0.97611 0.0
C599 C 0.40059 0.79358 0.9302 0.0
C600 C 0.42622 0.81608 0.95008 0.0
C601 C 0.42427 0.82292 0.87758 0.0
C602 C 0.40992 0.81537 0.83248 0.0
C603 C 0.39819 0.80086 0.85851 0.0
H604 H 0.47655 0.13502 0.06683 0.0
H605 H 0.45405 0.13594 0.28837 0.0
H606 H 0.45158 0.15625 0.02643 0.0
H607 H 0.42803 0.15603 0.24731 0.0
H608 H 0.40039 0.21151 0.17559 0.0
H609 H 0.42178 0.18671 0.21633 0.0
H610 H 0.42079 0.16229 -0.00313 0.0
H611 H 0.40055 0.18815 0.95536 0.0
C612 C 0.46591 0.13941 0.10646 0.0
C613 C 0.46728 0.134 0.18077 0.0
C614 C 0.45143 0.15151 0.08325 0.0
C615 C 0.43767 0.1581 0.13348 0.0
C616 C 0.43859 0.15178 0.20725 0.0
C617 C 0.4534 0.14011 0.23084 0.0
C618 C 0.40465 0.20071 0.13637 0.0
C619 C 0.39899 0.2018 0.06226 0.0
C620 C 0.41684 0.18634 0.15978 0.0
C621 C 0.42326 0.17238 0.10999 0.0
C622 C 0.41668 0.173 0.03654 0.0
C623 C 0.40492 0.18772 0.01271 0.0
H624 H 0.91518 0.79902 0.45733 0.0
H625 H 0.88538 0.79681 0.66588 0.0
H626 H 0.93553 0.82399 0.50591 0.0
H627 H 0.90559 0.82194 0.71385 0.0
H628 H 0.9639 0.84514 0.79642 0.0
H629 H 0.93908 0.82421 0.75005 0.0
H630 H 0.93612 0.85694 0.54881 0.0
H631 H 0.96105 0.87769 0.59438 0.0
C632 C 0.91277 0.80404 0.51308 0.0
C633 C 0.89875 0.79578 0.55781 0.0
C634 C 0.92438 0.81843 0.54085 0.0
C635 C 0.92224 0.82486 0.61394 0.0
C636 C 0.90776 0.8171 0.65771 0.0
C637 C 0.89612 0.80276 0.62994 0.0
C638 C 0.95776 0.84805 0.74277 0.0
C639 C 0.96463 0.86297 0.69889 0.0
C640 C 0.94348 0.83609 0.71628 0.0
C641 C 0.93578 0.83881 0.64539 0.0
C642 C 0.94201 0.85428 0.60308 0.0
C643 C 0.95624 0.86623 0.62952 0.0
H644 H 0.90246 0.18819 0.54259 0.0
H645 H 0.90017 0.21111 0.32185 0.0
H646 H 0.92266 0.16249 0.49891 0.0
H647 H 0.9215 0.18662 0.27899 0.0
H648 H 0.95367 0.13621 0.20246 0.0
H649 H 0.92792 0.15625 0.2467 0.0
H650 H 0.95295 0.15615 0.46514 0.0
H651 H 0.97752 0.13493 0.4218 0.0
C652 C 0.90637 0.18773 0.48476 0.0
C653 C 0.8998 0.20162 0.43566 0.0
C654 C 0.91811 0.1731 0.45959 0.0
C655 C 0.92404 0.1724 0.3852 0.0
C656 C 0.91707 0.18624 0.33616 0.0
C657 C 0.90491 0.20047 0.36088 0.0
C658 C 0.9534 0.14032 0.2601 0.0
C659 C 0.96757 0.13409 0.30863 0.0
C660 C 0.93875 0.15197 0.28558 0.0
C661 C 0.9383 0.15817 0.35967 0.0
C662 C 0.9524 0.15151 0.40823 0.0
C663 C 0.96667 0.13942 0.38323 0.0
H664 H 0.56234 0.15153 0.28475 0.0
H665 H 0.56302 0.12082 0.07799 0.0
H666 H 0.5871 0.17249 0.23827 0.0
H667 H 0.58789 0.14164 0.03221 0.0
H668 H 0.64145 0.1985 0.15407 0.0
H669 H 0.62055 0.17366 0.19953 0.0
H670 H 0.58933 0.17515 -0.00557 0.0
H671 H 0.61037 0.19989 0.94827 0.0
C672 C 0.56794 0.14907 0.22988 0.0
C673 C 0.56056 0.13459 0.18498 0.0
C674 C 0.58219 0.16103 0.20334 0.0
C675 C 0.58935 0.15879 0.13133 0.0
C676 C 0.58246 0.14389 0.08748 0.0
C677 C 0.56827 0.1319 0.11403 0.0
C678 C 0.63028 0.1934 0.11815 0.0
C679 C 0.6275 0.20131 0.04762 0.0
C680 C 0.61824 0.17923 0.14452 0.0
C681 C 0.6032 0.17257 0.10089 0.0
C682 C 0.60089 0.17989 0.02919 0.0
C683 C 0.6129 0.19413 0.00283 0.0
H684 H 0.56167 0.87559 0.90902 0.0
H685 H 0.56389 0.84617 0.69959 0.0
H686 H 0.58673 0.85522 0.95648 0.0
H687 H 0.58877 0.82566 0.74768 0.0
H688 H 0.6426 0.80009 0.83615 0.0
H689 H 0.6217 0.82491 0.79062 0.0
H690 H 0.58893 0.82168 0.99175 0.0
H691 H 0.61 0.797 0.03807 0.0
C692 C 0.5676 0.86489 0.8728 0.0
C693 C 0.56065 0.86242 0.80056 0.0
C694 C 0.5819 0.85316 0.90027 0.0
C695 C 0.58963 0.83874 0.8561 0.0
C696 C 0.58322 0.83675 0.78293 0.0
C697 C 0.56888 0.84846 0.75545 0.0
C698 C 0.63109 0.80482 0.87122 0.0
C699 C 0.62788 0.79641 0.94061 0.0
C700 C 0.61905 0.81898 0.84482 0.0
C701 C 0.60356 0.82513 0.8872 0.0
C702 C 0.60084 0.81735 0.95795 0.0
C703 C 0.61287 0.80314 0.9844 0.0
H704 H 0.62629 0.71326 0.81811 0.0
H705 H 0.62585 0.68934 0.03735 0.0
H706 H 0.60493 0.68858 0.77597 0.0
H707 H 0.60565 0.6636 -0.00558 0.0
H708 H 0.55046 0.63576 0.92189 0.0
H709 H 0.575 0.65731 0.96369 0.0
H710 H 0.59891 0.65798 0.74341 0.0
H711 H 0.57329 0.63755 0.70097 0.0
C712 C 0.62196 0.70238 0.85682 0.0
C713 C 0.62757 0.70326 0.93105 0.0
C714 C 0.60979 0.68807 0.8326 0.0
C715 C 0.60332 0.67397 0.88164 0.0
C716 C 0.60979 0.67442 0.95528 0.0
C717 C 0.62154 0.68908 0.97993 0.0
C718 C 0.56108 0.64042 0.88268 0.0
C719 C 0.55993 0.63513 0.80815 0.0
C720 C 0.57531 0.65272 0.90669 0.0
C721 C 0.58907 0.65962 0.8571 0.0
C722 C 0.58836 0.65348 0.78305 0.0
C723 C 0.57377 0.64161 0.75865 0.0
H724 H 0.57352 0.36082 0.2836 0.0
H725 H 0.54961 0.3616 0.06434 0.0
H726 H 0.5991 0.34045 0.24042 0.0
H727 H 0.57413 0.34009 0.02192 0.0
H728 H 0.62484 0.30792 0.94697 0.0
H729 H 0.60471 0.33377 0.98948 0.0
H730 H 0.60491 0.30969 0.20947 0.0
H731 H 0.62616 0.2849 0.16764 0.0
C732 C 0.57376 0.35656 0.22612 0.0
C733 C 0.55961 0.36272 0.17731 0.0
C734 C 0.58832 0.34472 0.20131 0.0
C735 C 0.58871 0.33829 0.12762 0.0
C736 C 0.57468 0.34491 0.07862 0.0
C737 C 0.56046 0.35718 0.10299 0.0
C738 C 0.62074 0.30841 0.0046 0.0
C739 C 0.627 0.29444 0.05402 0.0
C740 C 0.60904 0.32313 0.02904 0.0
C741 C 0.60287 0.32387 0.10303 0.0
C742 C 0.60955 0.30998 0.15253 0.0
C743 C 0.62166 0.29561 0.12849 0.0
H744 H 0.96691 0.37421 0.41408 0.0
H745 H 0.96519 0.34514 0.20389 0.0
H746 H 0.94182 0.35361 0.46025 0.0
H747 H 0.94041 0.32439 0.25061 0.0
H748 H 0.9184 0.29538 0.53952 0.0
H749 H 0.93944 0.3202 0.49472 0.0
H750 H 0.90754 0.32318 0.29143 0.0
H751 H 0.88668 0.2981 0.33546 0.0
C752 C 0.9611 0.36353 0.3775 0.0
C753 C 0.96816 0.36125 0.30538 0.0
C754 C 0.94679 0.35167 0.40417 0.0
C755 C 0.93919 0.3373 0.35926 0.0
C756 C 0.94581 0.33545 0.28638 0.0
C757 C 0.96012 0.34729 0.25973 0.0
C758 C 0.91573 0.30145 0.48559 0.0
C759 C 0.90096 0.29458 0.44082 0.0
C760 C 0.92773 0.31577 0.46007 0.0
C761 C 0.92524 0.32356 0.38927 0.0
C762 C 0.91001 0.31724 0.34575 0.0
C763 C 0.898 0.30293 0.37122 0.0
H764 H 0.91725 0.70049 0.45528 0.0
H765 H 0.88714 0.69983 0.66329 0.0
H766 H 0.93818 0.67566 0.5001 0.0
H767 H 0.90791 0.67465 0.70747 0.0
H768 H 0.96602 0.652 0.78919 0.0
H769 H 0.94098 0.67273 0.74454 0.0
H770 H 0.9403 0.64259 0.53682 0.0
H771 H 0.96566 0.62204 0.5808 0.0
C772 C 0.9149 0.69487 0.51019 0.0
C773 C 0.90061 0.70231 0.55591 0.0
C774 C 0.92685 0.68052 0.53572 0.0
C775 C 0.92478 0.67324 0.60753 0.0
C776 C 0.91004 0.68016 0.65227 0.0
C777 C 0.89808 0.69453 0.62675 0.0
C778 C 0.96042 0.64964 0.73425 0.0
C779 C 0.96801 0.63546 0.68835 0.0
C780 C 0.94596 0.66147 0.70881 0.0
C781 C 0.93872 0.65939 0.63694 0.0
C782 C 0.94578 0.64474 0.59206 0.0
C783 C 0.96026 0.6329 0.61747 0.0
H784 H 0.41652 0.29652 0.95419 0.0
H785 H 0.38611 0.29788 0.16152 0.0
H786 H 0.43758 0.32141 -0.00093 0.0
H787 H 0.40702 0.32288 0.2057 0.0
H788 H 0.46533 0.34558 0.28755 0.0
H789 H 0.44058 0.32438 0.24269 0.0
H790 H 0.43885 0.35499 0.03624 0.0
H791 H 0.46372 0.37606 0.08042 0.0
C792 C 0.41415 0.30229 0.00885 0.0
C793 C 0.39972 0.29507 0.05438 0.0
C794 C 0.42616 0.31662 0.03446 0.0
C795 C 0.42403 0.32401 0.10616 0.0
C796 C 0.40919 0.31727 0.15064 0.0
C797 C 0.39714 0.30301 0.12501 0.0
C798 C 0.45952 0.34795 0.23295 0.0
C799 C 0.46664 0.36243 0.18745 0.0
C800 C 0.44527 0.33584 0.20734 0.0
C801 C 0.43786 0.33794 0.13568 0.0
C802 C 0.44448 0.35285 0.09126 0.0
C803 C 0.45866 0.36499 0.11689 0.0
H804 H 0.41653 0.6985 0.04151 0.0
H805 H 0.38558 0.69735 0.83542 0.0
H806 H 0.4376 0.6738 -0.005 0.0
H807 H 0.40648 0.67257 0.78964 0.0
H808 H 0.46487 0.65113 0.70377 0.0
H809 H 0.43989 0.67173 0.75095 0.0
H810 H 0.43939 0.64041 0.9559 0.0
H811 H 0.46447 0.61995 0.90941 0.0
C812 C 0.41401 0.69278 0.98687 0.0
C813 C 0.39947 0.70005 0.94205 0.0
C814 C 0.42604 0.67857 0.96028 0.0
C815 C 0.4238 0.67137 0.88833 0.0
C816 C 0.40876 0.67806 0.84481 0.0
C817 C 0.39671 0.6922 0.87137 0.0
C818 C 0.45928 0.64848 0.75853 0.0
C819 C 0.46681 0.63398 0.80292 0.0
C820 C 0.4449 0.66023 0.78548 0.0
C821 C 0.43776 0.65777 0.8574 0.0
C822 C 0.44479 0.64284 0.90071 0.0
C823 C 0.45911 0.63105 0.87375 0.0
H824 H 0.11029 0.69905 0.44553 0.0
H825 H 0.14114 0.69994 0.65186 0.0
H826 H 0.08986 0.67413 0.49392 0.0
H827 H 0.12089 0.67483 0.69955 0.0
H828 H 0.06324 0.65187 0.78658 0.0
H829 H 0.0878 0.67281 0.73864 0.0
H830 H 0.08871 0.64111 0.5345 0.0
H831 H 0.06395 0.62036 0.58169 0.0
C832 C 0.11292 0.69374 0.50071 0.0
C833 C 0.12725 0.70163 0.54496 0.0
C834 C 0.10125 0.67938 0.52836 0.0
C835 C 0.10367 0.67259 0.60081 0.0
C836 C 0.11848 0.67996 0.64396 0.0
C837 C 0.13015 0.69429 0.61635 0.0
C838 C 0.06883 0.64921 0.73185 0.0
C839 C 0.06147 0.63455 0.68779 0.0
C840 C 0.08299 0.66117 0.70446 0.0
C841 C 0.09009 0.65871 0.63249 0.0
C842 C 0.0833 0.64356 0.58968 0.0
C843 C 0.06918 0.6316 0.61701 0.0
H844 H 0.14211 0.29891 0.33434 0.0
H845 H 0.111 0.299 0.54015 0.0
H846 H 0.12169 0.32397 0.28729 0.0
H847 H 0.09042 0.32388 0.49241 0.0
H848 H 0.06386 0.3774 0.40573 0.0
H849 H 0.08897 0.35702 0.45252 0.0
H850 H 0.08851 0.32547 0.248 0.0
H851 H 0.06358 0.34602 0.20049 0.0
C852 C 0.13104 0.30439 0.3699 0.0
C853 C 0.12809 0.29681 0.44089 0.0
C854 C 0.11928 0.31868 0.34266 0.0
C855 C 0.10435 0.32579 0.38581 0.0
C856 C 0.10191 0.31882 0.45798 0.0
C857 C 0.11366 0.30448 0.48524 0.0
C858 C 0.06927 0.36628 0.37022 0.0
C859 C 0.06156 0.36323 0.2995 0.0
C860 C 0.0836 0.35454 0.39732 0.0
C861 C 0.09061 0.33953 0.3543 0.0
C862 C 0.08352 0.33701 0.28233 0.0
C863 C 0.06916 0.34874 0.2552 0.0
H864 H 0.99143 0.03034 0.14299 0.0
H865 H 0.04748 0.04474 0.06676 0.0
H866 H 0.9921 0.0014 0.06831 0.0
H867 H 0.04806 0.01623 0.98995 0.0
H868 H 0.0487 0.95375 0.91652 0.0
H869 H 0.04928 0.98213 0.9941 0.0
H870 H 0.99071 0.99312 0.93833 0.0
H871 H 0.99012 0.96431 0.86303 0.0
C872 C 0.00393 0.02715 0.11052 0.0
C873 C 0.01932 0.03969 0.10968 0.0
C874 C 0.00426 0.01077 0.06713 0.0
C875 C 0.02002 0.00666 0.02225 0.0
C876 C 0.03573 0.01893 0.02397 0.0
C877 C 0.03539 0.03526 0.06754 0.0
C878 C 0.03603 0.96234 0.92094 0.0
C879 C 0.01932 0.95689 0.88487 0.0
C880 C 0.03635 0.97861 0.96492 0.0
C881 C 0.01996 0.98977 0.97317 0.0
C882 C 0.00345 0.98461 0.93446 0.0
C883 C 0.00314 0.96831 0.89067 0.0
H884 H 0.3081 0.78314 0.16123 0.0
H885 H 0.29716 0.72482 0.1043 0.0
H886 H 0.27941 0.78378 0.237 0.0
H887 H 0.26805 0.72549 0.17777 0.0
H888 H 0.23019 0.72604 0.38087 0.0
H889 H 0.2593 0.72658 0.3073 0.0
H890 H 0.24531 0.78293 0.23074 0.0
H891 H 0.21662 0.78247 0.30651 0.0
C892 C 0.29936 0.77054 0.16454 0.0
C893 C 0.30479 0.75387 0.12805 0.0
C894 C 0.28292 0.7709 0.20745 0.0
C895 C 0.27155 0.75461 0.21418 0.0
C896 C 0.2767 0.73815 0.17506 0.0
C897 C 0.29319 0.7378 0.13234 0.0
C898 C 0.23358 0.73859 0.34895 0.0
C899 C 0.22124 0.75414 0.34838 0.0
C900 C 0.25006 0.73884 0.30621 0.0
C901 C 0.25448 0.75469 0.26224 0.0
C902 C 0.24238 0.77053 0.26407 0.0
C903 C 0.22593 0.77026 0.307 0.0
H904 H 0.53765 0.03119 0.35242 0.0
H905 H 0.48003 0.0435 0.41524 0.0
H906 H 0.53692 0.00229 0.42726 0.0
H907 H 0.47932 0.01499 0.49204 0.0
H908 H 0.47994 0.95226 0.56334 0.0
H909 H 0.47951 0.98077 0.48651 0.0
H910 H 0.53647 0.99407 0.55785 0.0
H911 H 0.53693 0.96516 0.63267 0.0
C912 C 0.52481 0.02755 0.38198 0.0
C913 C 0.50895 0.03947 0.37896 0.0
C914 C 0.52443 0.01119 0.42545 0.0
C915 C 0.50815 0.00648 0.46649 0.0
C916 C 0.49205 0.01815 0.46099 0.0
C917 C 0.49245 0.03448 0.41741 0.0
C918 C 0.49228 0.9614 0.56256 0.0
C919 C 0.50854 0.95657 0.60283 0.0
C920 C 0.49204 0.97773 0.51898 0.0
C921 C 0.50805 0.98957 0.51532 0.0
C922 C 0.52406 0.98503 0.55821 0.0
C923 C 0.52428 0.96867 0.60167 0.0
H924 H 0.30828 0.21469 0.82617 0.0
H925 H 0.29612 0.27221 0.89104 0.0
H926 H 0.2798 0.21423 0.74925 0.0
H927 H 0.26722 0.27172 0.81617 0.0
H928 H 0.23031 0.27237 0.61008 0.0
H929 H 0.25906 0.27167 0.68572 0.0
H930 H 0.24565 0.21446 0.75383 0.0
H931 H 0.21731 0.21513 0.67612 0.0
C932 C 0.29929 0.22713 0.82446 0.0
C933 C 0.30433 0.24354 0.86346 0.0
C934 C 0.28298 0.22688 0.78082 0.0
C935 C 0.27136 0.24302 0.77584 0.0
C936 C 0.27609 0.25919 0.81755 0.0
C937 C 0.29244 0.25943 0.86105 0.0
C938 C 0.23376 0.25961 0.64056 0.0
C939 C 0.22169 0.24386 0.63817 0.0
C940 C 0.25003 0.25925 0.6845 0.0
C941 C 0.2545 0.2431 0.7267 0.0
C942 C 0.24267 0.2271 0.72191 0.0
C943 C 0.22644 0.22747 0.67781 0.0
H944 H 0.71834 0.28316 0.81979 0.0
H945 H 0.73045 0.22546 0.88224 0.0
H946 H 0.74674 0.28374 0.74242 0.0
H947 H 0.75929 0.22609 0.80717 0.0
H948 H 0.79635 0.22558 0.60247 0.0
H949 H 0.76743 0.22634 0.67708 0.0
H950 H 0.78085 0.28347 0.74616 0.0
H951 H 0.80935 0.28277 0.66929 0.0
C952 C 0.72729 0.27069 0.8174 0.0
C953 C 0.72225 0.2542 0.85581 0.0
C954 C 0.74357 0.27103 0.77353 0.0
C955 C 0.75516 0.25487 0.7678 0.0
C956 C 0.75044 0.23862 0.80902 0.0
C957 C 0.73412 0.2383 0.85268 0.0
C958 C 0.79286 0.23835 0.63287 0.0
C959 C 0.805 0.25404 0.63117 0.0
C960 C 0.77649 0.23873 0.67624 0.0
C961 C 0.772 0.25486 0.71859 0.0
C962 C 0.78386 0.27085 0.71418 0.0
C963 C 0.80018 0.27045 0.6706 0.0
H964 H 0.71863 0.71484 0.16777 0.0
H965 H 0.73092 0.77254 0.1059 0.0
H966 H 0.74705 0.71411 0.24499 0.0
H967 H 0.75975 0.77179 0.18112 0.0
H968 H 0.79663 0.77173 0.38733 0.0
H969 H 0.76788 0.77131 0.3116 0.0
H970 H 0.78122 0.71431 0.24066 0.0
H971 H 0.80956 0.71469 0.31842 0.0
C972 C 0.72763 0.72727 0.17021 0.0
C973 C 0.72264 0.74381 0.13193 0.0
C974 C 0.74391 0.72686 0.21404 0.0
C975 C 0.75556 0.74298 0.21996 0.0
C976 C 0.75087 0.75928 0.17902 0.0
C977 C 0.73455 0.75967 0.13531 0.0
C978 C 0.79316 0.75908 0.35622 0.0
C979 C 0.80522 0.74331 0.35782 0.0
C980 C 0.77689 0.75888 0.31222 0.0
C981 C 0.7724 0.74287 0.2692 0.0
C982 C 0.78421 0.72684 0.27322 0.0
C983 C 0.80044 0.72705 0.31735 0.0
H984 H 0.54807 0.54408 0.56844 0.0
H985 H 0.49075 0.53156 0.63465 0.0
H986 H 0.54843 0.51583 0.4902 0.0
H987 H 0.49116 0.50286 0.55861 0.0
H988 H 0.54773 0.45346 0.41532 0.0
H989 H 0.54845 0.48179 0.49311 0.0
H990 H 0.49087 0.4947 0.42857 0.0
H991 H 0.49011 0.46592 0.35294 0.0
C992 C 0.53565 0.53507 0.56671 0.0
C993 C 0.51932 0.53995 0.60651 0.0
C994 C 0.53585 0.51888 0.5223 0.0
C995 C 0.51973 0.5072 0.51739 0.0
C996 C 0.50365 0.51177 0.55986 0.0
C997 C 0.50347 0.52801 0.60407 0.0
C998 C 0.53531 0.46249 0.41775 0.0
C999 C 0.5188 0.45756 0.3792 0.0
C1000 C 0.53572 0.47872 0.46191 0.0
C1001 C 0.51963 0.4904 0.46782 0.0
C1002 C 0.50336 0.48579 0.42653 0.0
C1003 C 0.50297 0.4695 0.38256 0.0
H1004 H 0.03751 0.53155 0.85447 0.0
H1005 H 0.97979 0.54368 0.91655 0.0
H1006 H 0.03674 0.50254 0.92862 0.0
H1007 H 0.97904 0.51505 0.99272 0.0
H1008 H 0.97979 0.45231 0.06398 0.0
H1009 H 0.97935 0.48081 0.98702 0.0
H1010 H 0.0362 0.49428 0.05909 0.0
H1011 H 0.03669 0.4654 0.13399 0.0
C1012 C 0.02463 0.52785 0.88373 0.0
C1013 C 0.00877 0.53977 0.88078 0.0
C1014 C 0.02423 0.51143 0.9268 0.0
C1015 C 0.00792 0.50664 0.96751 0.0
C1016 C 0.9918 0.51829 0.96197 0.0
C1017 C 0.99223 0.53469 0.91878 0.0
C1018 C 0.99211 0.46148 0.06329 0.0
C1019 C 0.00835 0.45672 0.10385 0.0
C1020 C 0.99186 0.47781 0.01965 0.0
C1021 C 0.00783 0.4897 0.01621 0.0
C1022 C 0.02382 0.48521 0.05929 0.0
C1023 C 0.02405 0.46886 0.10279 0.0
H1024 H 0.98478 0.09481 0.91811 0.0
H1025 H 0.01621 0.14055 0.81651 0.0
H1026 H 0.98019 0.08027 0.79785 0.0
H1027 H 0.0122 0.12534 0.69638 0.0
H1028 H 0.02805 0.0776 0.5383 0.0
H1029 H 0.02686 0.08949 0.66437 0.0
H1030 H 0.96579 0.09043 0.6557 0.0
H1031 H 0.96679 0.07882 0.52826 0.0
C1032 C 0.99007 0.10225 0.87032 0.0
C1033 C 0.00067 0.11911 0.87714 0.0
C1034 C 0.98763 0.09368 0.80143 0.0
C1035 C 0.99607 0.10161 0.73876 0.0
C1036 C 0.00574 0.11892 0.74458 0.0
C1037 C 0.00793 0.12764 0.8131 0.0
C1038 C 0.01432 0.07986 0.56355 0.0
C1039 C 0.99752 0.07768 0.52265 0.0
C1040 C 0.01368 0.08679 0.63546 0.0
C1041 C 0.99626 0.0913 0.6682 0.0
C1042 C 0.97937 0.08722 0.63073 0.0
C1043 C 0.97998 0.08048 0.55812 0.0
H1044 H 0.16652 0.71993 0.15741 0.0
H1045 H 0.12067 0.75105 0.05513 0.0
H1046 H 0.18108 0.71525 0.03729 0.0
H1047 H 0.13592 0.74695 0.93513 0.0
H1048 H 0.18365 0.76266 0.77666 0.0
H1049 H 0.17183 0.76164 0.90285 0.0
H1050 H 0.17078 0.70055 0.89529 0.0
H1051 H 0.18231 0.70137 0.76773 0.0
C1052 C 0.15907 0.72514 0.10953 0.0
C1053 C 0.14216 0.73566 0.11612 0.0
C1054 C 0.16765 0.72264 0.04071 0.0
C1055 C 0.15969 0.73096 0.97785 0.0
C1056 C 0.14236 0.74059 0.98346 0.0
C1057 C 0.13362 0.74283 0.05192 0.0
C1058 C 0.18138 0.74896 0.80218 0.0
C1059 C 0.18351 0.7321 0.76157 0.0
C1060 C 0.17449 0.74842 0.87417 0.0
C1061 C 0.16998 0.73104 0.90726 0.0
C1062 C 0.17401 0.71409 0.87005 0.0
C1063 C 0.1807 0.71461 0.79737 0.0
H1064 H 0.56103 0.91798 0.02214 0.0
H1065 H 0.49976 0.91909 0.03139 0.0
H1066 H 0.56195 0.90657 0.14983 0.0
H1067 H 0.50087 0.90738 0.15773 0.0
H1068 H 0.51187 0.85616 0.30964 0.0
H1069 H 0.51584 0.87147 0.18973 0.0
H1070 H 0.54715 0.9169 0.2921 0.0
H1071 H 0.54259 0.90228 0.41216 0.0
C1072 C 0.54781 0.91635 0.05188 0.0
C1073 C 0.5303 0.91905 0.01613 0.0
C1074 C 0.54838 0.90973 0.12464 0.0
C1075 C 0.53147 0.90566 0.16198 0.0
C1076 C 0.51407 0.91008 0.12894 0.0
C1077 C 0.51348 0.9169 0.05687 0.0
C1078 C 0.51998 0.86919 0.30651 0.0
C1079 C 0.52706 0.87778 0.37077 0.0
C1080 C 0.52215 0.87795 0.2381 0.0
C1081 C 0.53162 0.89538 0.23257 0.0
C1082 C 0.53987 0.9034 0.29547 0.0
C1083 C 0.53744 0.89479 0.36425 0.0
H1084 H 0.34054 0.23571 0.28989 0.0
H1085 H 0.34496 0.29688 0.28321 0.0
H1086 H 0.35214 0.23586 0.41647 0.0
H1087 H 0.35624 0.29684 0.41113 0.0
H1088 H 0.3594 0.27651 0.67255 0.0
H1089 H 0.34494 0.28201 0.55285 0.0
H1090 H 0.38891 0.24902 0.44883 0.0
H1091 H 0.40412 0.24413 0.56846 0.0
C1092 C 0.34342 0.24923 0.31601 0.0
C1093 C 0.34226 0.26625 0.27592 0.0
C1094 C 0.35017 0.24926 0.38821 0.0
C1095 C 0.35549 0.26632 0.42198 0.0
C1096 C 0.35238 0.28353 0.38533 0.0
C1097 C 0.34582 0.28351 0.31245 0.0
C1098 C 0.36666 0.27118 0.62438 0.0
C1099 C 0.38323 0.26012 0.63031 0.0
C1100 C 0.35811 0.27415 0.55581 0.0
C1101 C 0.36576 0.26574 0.49253 0.0
C1102 C 0.38273 0.25548 0.49751 0.0
C1103 C 0.39145 0.25278 0.56575 0.0
H1104 H 0.02679 0.92357 0.46543 0.0
H1105 H 0.96582 0.9182 0.45553 0.0
H1106 H 0.02908 0.91464 0.33749 0.0
H1107 H 0.96798 0.91032 0.32468 0.0
H1108 H 0.98243 0.86599 0.14366 0.0
H1109 H 0.97682 0.88296 0.25962 0.0
H1110 H 0.02517 0.91892 0.21382 0.0
H1111 H 0.03158 0.90075 0.10291 0.0
C1112 C 0.01378 0.92116 0.4351 0.0
C1113 C 0.99617 0.92108 0.4712 0.0
C1114 C 0.01506 0.91611 0.36103 0.0
C1115 C -0.00128 0.91128 0.32067 0.0
C1116 C 0.9809 0.91333 0.3547 0.0
C1117 C 0.97964 0.91814 0.42946 0.0
C1118 C 0.99185 0.87742 0.15946 0.0
C1119 C 0.00762 0.88186 0.116 0.0
C1120 C 0.9885 0.8874 0.22498 0.0
C1121 C 0.00063 0.9023 0.24672 0.0
C1122 C 0.01583 0.90724 0.20036 0.0
C1123 C 0.01949 0.89689 0.13657 0.0
H1124 H 0.34406 0.70057 0.70225 0.0
H1125 H 0.33799 0.76151 0.70959 0.0
H1126 H 0.35175 0.70242 0.57116 0.0
H1127 H 0.34672 0.76352 0.58137 0.0
H1128 H 0.36056 0.76565 0.3472 0.0
H1129 H 0.34237 0.75917 0.45794 0.0
H1130 H 0.379 0.71144 0.50562 0.0
H1131 H 0.39598 0.71708 0.3897 0.0
C1132 C 0.34392 0.71431 0.67556 0.0
C1133 C 0.34085 0.73094 0.71662 0.0
C1134 C 0.34861 0.7154 0.60066 0.0
C1135 C 0.35042 0.73314 0.56584 0.0
C1136 C 0.34544 0.74955 0.60556 0.0
C1137 C 0.34051 0.74843 0.67976 0.0
C1138 C 0.36453 0.75365 0.38114 0.0
C1139 C 0.37976 0.74198 0.36114 0.0
C1140 C 0.35419 0.74997 0.44486 0.0
C1141 C 0.35933 0.73495 0.49177 0.0
C1142 C 0.37442 0.72299 0.47055 0.0
C1143 C 0.38439 0.72635 0.40505 0.0
H1144 H 0.54228 0.0942 0.5693 0.0
H1145 H 0.51076 0.13963 0.67277 0.0
H1146 H 0.54749 0.07974 0.6892 0.0
H1147 H 0.51537 0.12445 0.79261 0.0
H1148 H 0.50094 0.07632 0.95152 0.0
H1149 H 0.50142 0.08803 0.82513 0.0
H1150 H 0.56246 0.0907 0.83096 0.0
H1151 H 0.56217 0.0793 0.95872 0.0
C1152 C 0.53708 0.1016 0.61736 0.0
C1153 C 0.52632 0.11837 0.61118 0.0
C1154 C 0.53989 0.09307 0.68606 0.0
C1155 C 0.53163 0.10093 0.74924 0.0
C1156 C 0.52171 0.1181 0.74401 0.0
C1157 C 0.51917 0.1268 0.67565 0.0
C1158 C 0.51453 0.07892 0.92557 0.0
C1159 C 0.5315 0.0773 0.96575 0.0
C1160 C 0.51475 0.08573 0.85348 0.0
C1161 C 0.53194 0.09067 0.81986 0.0
C1162 C 0.54905 0.08714 0.85663 0.0
C1163 C 0.54885 0.08051 0.92941 0.0
H1164 H 0.16723 0.27779 0.82698 0.0
H1165 H 0.12151 0.24646 0.92926 0.0
H1166 H 0.18177 0.28252 0.94701 0.0
H1167 H 0.13676 0.25059 0.04922 0.0
H1168 H 0.18434 0.23559 0.20928 0.0
H1169 H 0.17243 0.23622 0.08319 0.0
H1170 H 0.17165 0.29734 0.08761 0.0
H1171 H 0.18325 0.29691 0.21507 0.0
C1172 C 0.1598 0.27253 0.87482 0.0
C1173 C 0.14291 0.26197 0.86822 0.0
C1174 C 0.16837 0.27506 0.94361 0.0
C1175 C 0.16046 0.26671 0.0065 0.0
C1176 C 0.14318 0.25698 0.00088 0.0
C1177 C 0.13443 0.25472 0.93243 0.0
C1178 C 0.1821 0.24922 0.18309 0.0
C1179 C 0.18434 0.2662 0.22281 0.0
C1180 C 0.17516 0.24953 0.11117 0.0
C1181 C 0.17071 0.26681 0.0772 0.0
C1182 C 0.17482 0.28387 0.11352 0.0
C1183 C 0.18156 0.28358 0.18615 0.0
H1184 H 0.84118 0.261 0.20314 0.0
H1185 H 0.84463 0.19989 0.21918 0.0
H1186 H 0.85218 0.25932 0.07579 0.0
H1187 H 0.85537 0.1984 0.09065 0.0
H1188 H 0.90509 0.24688 0.92818 0.0
H1189 H 0.88987 0.24261 0.04823 0.0
H1190 H 0.84257 0.21482 0.94356 0.0
H1191 H 0.85716 0.21965 0.82348 0.0
C1192 C 0.8437 0.24718 0.17894 0.0
C1193 C 0.84244 0.23061 0.22176 0.0
C1194 C 0.85008 0.24627 0.1063 0.0
C1195 C 0.85495 0.22878 0.07493 0.0
C1196 C 0.85179 0.21202 0.11454 0.0
C1197 C 0.84556 0.21292 0.18777 0.0
C1198 C 0.89167 0.23946 0.9308 0.0
C1199 C 0.88255 0.23344 0.866 0.0
C1200 C 0.88297 0.23708 -0.00073 0.0
C1201 C 0.8651 0.2285 0.00418 0.0
C1202 C 0.85645 0.22134 0.94056 0.0
C1203 C 0.86502 0.22394 0.87179 0.0
H1204 H 0.68288 0.79765 0.71127 0.0
H1205 H 0.68636 0.73642 0.70513 0.0
H1206 H 0.67164 0.7977 0.5833 0.0
H1207 H 0.6748 0.73666 0.5785 0.0
H1208 H 0.6683 0.77717 0.32199 0.0
H1209 H 0.68282 0.78251 0.44169 0.0
H1210 H 0.63821 0.75043 0.54586 0.0
H1211 H 0.62295 0.74571 0.4262 0.0
C1212 C 0.68182 0.78428 0.68214 0.0
C1213 C 0.68511 0.767 0.71884 0.0
C1214 C 0.67529 0.78435 0.60923 0.0
C1215 C 0.67193 0.76716 0.5727 0.0
C1216 C 0.67697 0.75005 0.60666 0.0
C1217 C 0.68369 0.74996 0.67889 0.0
C1218 C 0.66093 0.77201 0.37016 0.0
C1219 C 0.64415 0.76126 0.36426 0.0
C1220 C 0.6695 0.77488 0.43875 0.0
C1221 C 0.66168 0.76669 0.50209 0.0
C1222 C 0.64452 0.75673 0.49712 0.0
C1223 C 0.63578 0.75412 0.42887 0.0
H1224 H 0.62267 0.24984 0.56036 0.0
H1225 H 0.66931 0.22056 0.6655 0.0
H1226 H 0.63798 0.24527 0.44069 0.0
H1227 H 0.68392 0.21538 0.54578 0.0
H1228 H 0.68618 0.26116 0.28276 0.0
H1229 H 0.67494 0.26044 0.40984 0.0
H1230 H 0.67217 0.19941 0.40222 0.0
H1231 H 0.6831 0.19994 0.27383 0.0
C1232 C 0.63581 0.24192 0.55793 0.0
C1233 C 0.64453 0.23538 0.62277 0.0
C1234 C 0.64457 0.2394 0.48966 0.0
C1235 C 0.6621 0.23011 0.48494 0.0
C1236 C 0.67032 0.22248 0.54858 0.0
C1237 C 0.66171 0.22526 0.61717 0.0
C1238 C 0.68368 0.24753 0.30848 0.0
C1239 C 0.6851 0.23063 0.26766 0.0
C1240 C 0.67715 0.24716 0.38097 0.0
C1241 C 0.67231 0.22991 0.41427 0.0
C1242 C 0.67569 0.21286 0.3768 0.0
C1243 C 0.68204 0.21321 0.30365 0.0
H1244 H 0.90569 0.74632 0.06705 0.0
H1245 H 0.8597 0.77738 0.16882 0.0
H1246 H 0.89044 0.75021 0.947 0.0
H1247 H 0.84514 0.78186 0.04865 0.0
H1248 H 0.84341 0.79572 0.78016 0.0
H1249 H 0.85506 0.79652 0.90754 0.0
H1250 H 0.85493 0.7354 0.91356 0.0
H1251 H 0.84299 0.7344 0.78754 0.0
C1252 C 0.89271 0.75448 0.06374 0.0
C1253 C 0.88414 0.76169 0.12785 0.0
C1254 C 0.88396 0.7566 -0.00477 0.0
C1255 C 0.86659 0.76616 0.98944 0.0
C1256 C 0.8586 0.77452 0.05219 0.0
C1257 C 0.86719 0.77213 0.12106 0.0
C1258 C 0.84526 0.78246 0.80942 0.0
C1259 C 0.84265 0.76498 0.77322 0.0
C1260 C 0.85202 0.78296 0.882 0.0
C1261 C 0.85633 0.76602 0.91876 0.0
C1262 C 0.85205 0.74863 0.88525 0.0
C1263 C 0.84509 0.7481 0.81336 0.0
H1264 H 0.51704 0.64011 0.31502 0.0
H1265 H 0.48574 0.59444 0.41786 0.0
H1266 H 0.51274 0.62485 0.19513 0.0
H1267 H 0.48083 0.57991 0.2979 0.0
H1268 H 0.46628 0.57868 0.02946 0.0
H1269 H 0.46592 0.59023 0.15703 0.0
H1270 H 0.52702 0.58898 0.16151 0.0
H1271 H 0.52758 0.57713 0.0353 0.0
C1272 C 0.50875 0.6272 0.31199 0.0
C1273 C 0.50156 0.61873 0.37633 0.0
C1274 C 0.50639 0.61846 0.24358 0.0
C1275 C 0.49662 0.60119 0.23814 0.0
C1276 C 0.48833 0.59329 0.30117 0.0
C1277 C 0.49095 0.60187 0.36992 0.0
C1278 C 0.47962 0.58025 0.05842 0.0
C1279 C 0.49698 0.57738 0.02174 0.0
C1280 C 0.47937 0.58696 0.13111 0.0
C1281 C 0.49645 0.59093 0.16747 0.0
C1282 C 0.5137 0.58636 0.1335 0.0
C1283 C 0.51397 0.57945 0.06151 0.0
H1284 H 0.01049 0.35649 0.81218 0.0
H1285 H 0.04227 0.4019 0.91453 0.0
H1286 H 0.01473 0.37173 0.69225 0.0
H1287 H 0.04713 0.41642 0.79454 0.0
H1288 H 0.06151 0.4179 0.52669 0.0
H1289 H 0.06182 0.40625 0.65407 0.0
H1290 H 0.00073 0.4075 0.65828 0.0
H1291 H 0.00021 0.41946 0.53227 0.0
C1292 C 0.01887 0.36934 0.80902 0.0
C1293 C 0.02623 0.37773 0.87323 0.0
C1294 C 0.0212 0.37807 0.7406 0.0
C1295 C 0.0311 0.39526 0.73501 0.0
C1296 C 0.03954 0.40309 0.7979 0.0
C1297 C 0.03694 0.39452 0.86667 0.0
C1298 C 0.04816 0.41631 0.55556 0.0
C1299 C 0.03081 0.41923 0.51885 0.0
C1300 C 0.04838 0.40953 0.62813 0.0
C1301 C 0.03129 0.40553 0.66435 0.0
C1302 C 0.01406 0.41013 0.63036 0.0
C1303 C 0.01381 0.41711 0.55849 0.0
H1304 H 0.51756 0.35779 0.67281 0.0
H1305 H 0.48562 0.40284 0.56885 0.0
H1306 H 0.51275 0.37302 0.79251 0.0
H1307 H 0.48021 0.41731 0.68859 0.0
H1308 H 0.52628 0.42121 0.9522 0.0
H1309 H 0.52617 0.40958 0.82565 0.0
H1310 H 0.46516 0.40619 0.82975 0.0
H1311 H 0.46507 0.4175 0.95765 0.0
C1312 C 0.50903 0.37055 0.67555 0.0
C1313 C 0.50177 0.37884 0.61099 0.0
C1314 C 0.50637 0.37927 0.74382 0.0
C1315 C 0.49625 0.39634 0.74888 0.0
C1316 C 0.48796 0.40408 0.68559 0.0
C1317 C 0.49087 0.39553 0.61698 0.0
C1318 C 0.51277 0.41847 0.92583 0.0
C1319 C 0.49571 0.41985 0.96556 0.0
C1320 C 0.51276 0.4117 0.85365 0.0
C1321 C 0.4957 0.40658 0.81951 0.0
C1322 C 0.47847 0.4099 0.85583 0.0
C1323 C 0.47847 0.41647 0.9287 0.0
H1324 H 0.00184 0.57574 0.45329 0.0
H1325 H 0.06296 0.57945 0.46712 0.0
H1326 H 0.00316 0.58678 0.32594 0.0
H1327 H 0.06408 0.5902 0.33856 0.0
H1328 H 0.01491 0.63966 0.17763 0.0
H1329 H 0.01936 0.62442 0.29751 0.0
H1330 H 0.04769 0.57749 0.19237 0.0
H1331 H 0.04266 0.59208 0.07245 0.0
C1332 C 0.01559 0.57833 0.4286 0.0
C1333 C 0.03226 0.57713 0.4708 0.0
C1334 C 0.01629 0.58473 0.35596 0.0
C1335 C 0.03368 0.58967 0.32396 0.0
C1336 C 0.05054 0.58656 0.36294 0.0
C1337 C 0.04985 0.58032 0.43618 0.0
C1338 C 0.02248 0.62631 0.18009 0.0
C1339 C 0.0286 0.61731 0.1152 0.0
C1340 C 0.02495 0.61761 0.24847 0.0
C1341 C 0.03375 0.59983 0.25322 0.0
C1342 C 0.04099 0.59129 0.18951 0.0
C1343 C 0.03828 0.59987 0.12082 0.0
loop_
_geom_bond_atom_site_label_1
_geom_bond_atom_site_label_2
_geom_bond_distance
_geom_bond_site_symmetry_2
_ccdc_geom_bond_type
Co0 O3 1.970 1_455 S
Co0 N17 1.989 . S
Co0 O25 1.967 . S
Co0 O32 1.920 . S
Co1 O4 2.001 . S
Co1 N10 2.022 . S
Co1 N18 1.993 . S
Co1 O26 1.941 . S
C2 O3 1.258 . S
C2 O4 1.243 1_655 S
O3 Co0 1.970 1_655 S
O3 C2 1.258 . S
O4 Co1 2.001 . S
O4 C2 1.243 1_455 S
C5 O6 1.235 1_455 S
C5 O32 1.289 . S
O6 C5 1.235 1_655 S
C7 C9 1.389 1_554 S
C7 N10 1.358 . S
C7 C12 1.505 1_455 S
C8 C9 1.387 . S
C8 N11 1.347 . S
C9 C7 1.389 1_556 S
C9 C8 1.387 . S
N10 Co1 2.022 . S
N10 C7 1.358 . S
N10 N11 1.361 1_554 S
N11 C8 1.347 . S
N11 N10 1.361 1_556 S
N11 H31 0.860 1_556 S
C12 C7 1.505 1_655 S
C12 H13 0.961 . S
C12 H14 0.961 . S
C12 H15 0.960 . S
H13 C12 0.961 . S
H14 C12 0.961 . S
H15 C12 0.960 . S
C16 N17 1.342 . S
C16 C20 1.401 . S
C16 C21 1.499 . S
N17 Co0 1.989 . S
N17 C16 1.342 . S
N17 N18 1.388 . S
N18 Co1 1.993 . S
N18 N17 1.388 . S
N18 C19 1.346 . S
C19 N18 1.346 . S
C19 C20 1.396 . S
C19 C29 1.510 . S
C20 C16 1.401 . S
C20 C19 1.396 . S
C21 C16 1.499 . S
C21 H22 0.959 . S
C21 H23 0.960 . S
C21 H24 0.961 . S
H22 C21 0.959 . S
H23 C21 0.960 . S
H24 C21 0.961 . S
O25 Co0 1.967 . S
O25 C33 1.258 . S
O26 Co1 1.941 . S
O26 C33 1.266 . S
H27 C29 0.959 . S
H28 C29 0.961 . S
C29 C19 1.510 . S
C29 H27 0.959 . S
C29 H28 0.961 . S
C29 H30 0.960 . S
H30 C29 0.960 . S
H31 N11 0.860 1_554 S
O32 Co0 1.920 . S
O32 C5 1.289 . S
C33 O25 1.258 . S
C33 O26 1.266 . S
Co34 O37 1.970 . S
Co34 N51 1.989 . S
Co34 O59 1.967 . S
Co34 O66 1.920 . S
Co35 O38 1.966 . S
Co35 N44 2.022 . S
Co35 N52 1.993 . S
Co35 O60 1.941 . S
C36 O37 1.258 . S
C36 O38 1.263 . S
O37 Co34 1.970 . S
O37 C36 1.258 . S
O38 Co35 1.966 . S
O38 C36 1.263 . S
C39 O40 1.235 . S
C39 O66 1.289 . S
O40 C39 1.235 . S
C41 C43 1.400 . S
C41 N44 1.351 . S
C41 C46 1.501 . S
C42 C43 1.387 . S
C42 N45 1.341 . S
C43 C41 1.400 . S
C43 C42 1.387 . S
N44 Co35 2.022 . S
N44 C41 1.351 . S
N44 N45 1.365 . S
N45 C42 1.341 . S
N45 N44 1.365 . S
N45 H65 0.862 . S
C46 C41 1.501 . S
C46 H47 0.961 . S
C46 H48 0.961 . S
C46 H49 0.960 . S
H47 C46 0.961 . S
H48 C46 0.961 . S
H49 C46 0.960 . S
C50 N51 1.342 . S
C50 C54 1.401 . S
C50 C55 1.499 . S
N51 Co34 1.989 . S
N51 C50 1.342 . S
N51 N52 1.388 . S
N52 Co35 1.993 . S
N52 N51 1.388 . S
N52 C53 1.346 . S
C53 N52 1.346 . S
C53 C54 1.396 . S
C53 C63 1.510 . S
C54 C50 1.401 . S
C54 C53 1.396 . S
C55 C50 1.499 . S
C55 H56 0.959 . S
C55 H57 0.960 . S
C55 H58 0.961 . S
H56 C55 0.959 . S
H57 C55 0.960 . S
H58 C55 0.961 . S
O59 Co34 1.967 . S
O59 C67 1.258 . S
O60 Co35 1.941 . S
O60 C67 1.266 . S
H61 C63 0.959 . S
H62 C63 0.961 . S
C63 C53 1.510 . S
C63 H61 0.959 . S
C63 H62 0.961 . S
C63 H64 0.960 . S
H64 C63 0.960 . S
H65 N45 0.862 . S
O66 Co34 1.920 . S
O66 C39 1.289 . S
C67 O59 1.258 . S
C67 O60 1.266 . S
Co68 O71 1.970 . S
Co68 N85 1.989 . S
Co68 O93 1.967 . S
Co68 O100 1.920 . S
Co69 O72 1.966 . S
Co69 N78 2.022 . S
Co69 N86 1.993 . S
Co69 O94 1.941 . S
C70 O71 1.258 . S
C70 O72 1.263 . S
O71 Co68 1.970 . S
O71 C70 1.258 . S
O72 Co69 1.966 . S
O72 C70 1.263 . S
C73 O74 1.235 . S
C73 O100 1.289 . S
O74 C73 1.235 . S
C75 C77 1.400 . S
C75 N78 1.351 . S
C75 C80 1.501 . S
C76 C77 1.387 . S
C76 N79 1.341 . S
C77 C75 1.400 . S
C77 C76 1.387 . S
N78 Co69 2.022 . S
N78 C75 1.351 . S
N78 N79 1.365 . S
N79 C76 1.341 . S
N79 N78 1.365 . S
N79 H99 0.862 . S
C80 C75 1.501 . S
C80 H81 0.961 . S
C80 H82 0.961 . S
C80 H83 0.960 . S
H81 C80 0.961 . S
H82 C80 0.961 . S
H83 C80 0.960 . S
C84 N85 1.342 . S
C84 C88 1.401 . S
C84 C89 1.499 . S
N85 Co68 1.989 . S
N85 C84 1.342 . S
N85 N86 1.388 . S
N86 Co69 1.993 . S
N86 N85 1.388 . S
N86 C87 1.346 . S
C87 N86 1.346 . S
C87 C88 1.396 . S
C87 C97 1.510 . S
C88 C84 1.401 . S
C88 C87 1.396 . S
C89 C84 1.499 . S
C89 H90 0.959 . S
C89 H91 0.960 . S
C89 H92 0.961 . S
H90 C89 0.959 . S
H91 C89 0.960 . S
H92 C89 0.961 . S
O93 Co68 1.967 . S
O93 C101 1.258 . S
O94 Co69 1.941 . S
O94 C101 1.266 . S
H95 C97 0.959 . S
H96 C97 0.961 . S
C97 C87 1.510 . S
C97 H95 0.959 . S
C97 H96 0.961 . S
C97 H98 0.960 . S
H98 C97 0.960 . S
H99 N79 0.862 . S
O100 Co68 1.920 . S
O100 C73 1.289 . S
C101 O93 1.258 . S
C101 O94 1.266 . S
Co102 O105 1.970 . S
Co102 N119 1.989 . S
Co102 O127 1.967 . S
Co102 O134 1.920 . S
Co103 O106 1.966 . S
Co103 N112 2.022 . S
Co103 N120 1.993 . S
Co103 O128 1.941 . S
C104 O105 1.258 . S
C104 O106 1.263 1_554 S
O105 Co102 1.970 . S
O105 C104 1.258 . S
O106 Co103 1.966 . S
O106 C104 1.263 1_556 S
C107 O108 1.235 . S
C107 O134 1.289 . S
O108 C107 1.235 . S
C109 C111 1.400 . S
C109 N112 1.351 . S
C109 C114 1.501 . S
C110 C111 1.387 . S
C110 N113 1.341 . S
C111 C109 1.400 . S
C111 C110 1.387 . S
N112 Co103 2.022 . S
N112 C109 1.351 . S
N112 N113 1.365 . S
N113 C110 1.341 . S
N113 N112 1.365 . S
N113 H133 0.862 . S
C114 C109 1.501 . S
C114 H115 0.961 . S
C114 H116 0.961 . S
C114 H117 0.960 . S
H115 C114 0.961 . S
H116 C114 0.961 . S
H117 C114 0.960 . S
C118 N119 1.342 . S
C118 C122 1.401 1_554 S
C118 C123 1.499 . S
N119 Co102 1.989 . S
N119 C118 1.342 . S
N119 N120 1.388 1_554 S
N120 Co103 1.993 . S
N120 N119 1.388 1_556 S
N120 C121 1.346 . S
C121 N120 1.346 . S
C121 C122 1.396 . S
C121 C131 1.510 . S
C122 C118 1.401 1_556 S
C122 C121 1.396 . S
C123 C118 1.499 . S
C123 H124 0.959 . S
C123 H125 0.960 . S
C123 H126 0.961 . S
H124 C123 0.959 . S
H125 C123 0.960 . S
H126 C123 0.961 . S
O127 Co102 1.967 . S
O127 C135 1.258 . S
O128 Co103 1.941 . S
O128 C135 1.266 1_556 S
H129 C131 0.959 . S
H130 C131 0.961 . S
C131 C121 1.510 . S
C131 H129 0.959 . S
C131 H130 0.961 . S
C131 H132 0.960 . S
H132 C131 0.960 . S
H133 N113 0.862 . S
O134 Co102 1.920 . S
O134 C107 1.289 . S
C135 O127 1.258 . S
C135 O128 1.266 1_554 S
Co136 O139 1.970 1_455 S
Co136 N153 1.989 . S
Co136 O161 1.967 . S
Co136 O168 1.920 . S
Co137 O140 2.001 . S
Co137 N146 2.022 . S
Co137 N154 1.993 . S
Co137 O162 1.941 . S
C138 O139 1.258 . S
C138 O140 1.243 1_655 S
O139 Co136 1.970 1_655 S
O139 C138 1.258 . S
O140 Co137 2.001 . S
O140 C138 1.243 1_455 S
C141 O142 1.235 1_455 S
C141 O168 1.289 . S
O142 C141 1.235 1_655 S
C143 C145 1.389 1_556 S
C143 N146 1.358 . S
C143 C148 1.505 1_455 S
C144 C145 1.387 . S
C144 N147 1.347 . S
C145 C143 1.389 1_554 S
C145 C144 1.387 . S
N146 Co137 2.022 . S
N146 C143 1.358 . S
N146 N147 1.361 1_556 S
N147 C144 1.347 . S
N147 N146 1.361 1_554 S
N147 H167 0.860 1_554 S
C148 C143 1.505 1_655 S
C148 H149 0.961 . S
C148 H150 0.961 . S
C148 H151 0.960 . S
H149 C148 0.961 . S
H150 C148 0.961 . S
H151 C148 0.960 . S
C152 N153 1.342 . S
C152 C156 1.401 . S
C152 C157 1.499 . S
N153 Co136 1.989 . S
N153 C152 1.342 . S
N153 N154 1.388 . S
N154 Co137 1.993 . S
N154 N153 1.388 . S
N154 C155 1.346 . S
C155 N154 1.346 . S
C155 C156 1.396 . S
C155 C165 1.510 . S
C156 C152 1.401 . S
C156 C155 1.396 . S
C157 C152 1.499 . S
C157 H158 0.959 . S
C157 H159 0.960 . S
C157 H160 0.961 . S
H158 C157 0.959 . S
H159 C157 0.960 . S
H160 C157 0.961 . S
O161 Co136 1.967 . S
O161 C169 1.258 . S
O162 Co137 1.941 . S
O162 C169 1.266 . S
H163 C165 0.959 . S
H164 C165 0.961 . S
C165 C155 1.510 . S
C165 H163 0.959 . S
C165 H164 0.961 . S
C165 H166 0.960 . S
H166 C165 0.960 . S
H167 N147 0.860 1_556 S
O168 Co136 1.920 . S
O168 C141 1.289 . S
C169 O161 1.258 . S
C169 O162 1.266 . S
Co170 O173 1.970 . S
Co170 N187 1.989 . S
Co170 O195 1.967 . S
Co170 O202 1.920 . S
Co171 O174 1.966 . S
Co171 N180 2.022 . S
Co171 N188 1.993 . S
Co171 O196 1.941 . S
C172 O173 1.258 . S
C172 O174 1.263 1_556 S
O173 Co170 1.970 . S
O173 C172 1.258 . S
O174 Co171 1.966 . S
O174 C172 1.263 1_554 S
C175 O176 1.235 . S
C175 O202 1.289 . S
O176 C175 1.235 . S
C177 C179 1.400 . S
C177 N180 1.351 . S
C177 C182 1.501 . S
C178 C179 1.387 . S
C178 N181 1.341 . S
C179 C177 1.400 . S
C179 C178 1.387 . S
N180 Co171 2.022 . S
N180 C177 1.351 . S
N180 N181 1.365 . S
N181 C178 1.341 . S
N181 N180 1.365 . S
N181 H201 0.862 . S
C182 C177 1.501 . S
C182 H183 0.961 . S
C182 H184 0.961 . S
C182 H185 0.960 . S
H183 C182 0.961 . S
H184 C182 0.961 . S
H185 C182 0.960 . S
C186 N187 1.342 . S
C186 C190 1.401 1_556 S
C186 C191 1.499 . S
N187 Co170 1.989 . S
N187 C186 1.342 . S
N187 N188 1.388 1_556 S
N188 Co171 1.993 . S
N188 N187 1.388 1_554 S
N188 C189 1.346 . S
C189 N188 1.346 . S
C189 C190 1.396 . S
C189 C199 1.510 . S
C190 C186 1.401 1_554 S
C190 C189 1.396 . S
C191 C186 1.499 . S
C191 H192 0.959 . S
C191 H193 0.960 . S
C191 H194 0.961 . S
H192 C191 0.959 . S
H193 C191 0.960 . S
H194 C191 0.961 . S
O195 Co170 1.967 . S
O195 C203 1.258 . S
O196 Co171 1.941 . S
O196 C203 1.266 1_554 S
H197 C199 0.959 . S
H198 C199 0.961 . S
C199 C189 1.510 . S
C199 H197 0.959 . S
C199 H198 0.961 . S
C199 H200 0.960 . S
H200 C199 0.960 . S
H201 N181 0.862 . S
O202 Co170 1.920 . S
O202 C175 1.289 . S
C203 O195 1.258 . S
C203 O196 1.266 1_556 S
Co204 O207 1.970 . S
Co204 N221 1.989 . S
Co204 O229 1.967 . S
Co204 O236 1.920 . S
Co205 O208 1.966 . S
Co205 N214 2.022 . S
Co205 N222 1.993 . S
Co205 O230 1.941 . S
C206 O207 1.258 . S
C206 O208 1.263 . S
O207 Co204 1.970 . S
O207 C206 1.258 . S
O208 Co205 1.966 . S
O208 C206 1.263 . S
C209 O210 1.235 . S
C209 O236 1.289 . S
O210 C209 1.235 . S
C211 C213 1.400 . S
C211 N214 1.351 . S
C211 C216 1.501 . S
C212 C213 1.387 . S
C212 N215 1.341 . S
C213 C211 1.400 . S
C213 C212 1.387 . S
N214 Co205 2.022 . S
N214 C211 1.351 . S
N214 N215 1.365 . S
N215 C212 1.341 . S
N215 N214 1.365 . S
N215 H235 0.862 . S
C216 C211 1.501 . S
C216 H217 0.961 . S
C216 H218 0.961 . S
C216 H219 0.960 . S
H217 C216 0.961 . S
H218 C216 0.961 . S
H219 C216 0.960 . S
C220 N221 1.342 . S
C220 C224 1.401 . S
C220 C225 1.499 . S
N221 Co204 1.989 . S
N221 C220 1.342 . S
N221 N222 1.388 . S
N222 Co205 1.993 . S
N222 N221 1.388 . S
N222 C223 1.346 . S
C223 N222 1.346 . S
C223 C224 1.396 . S
C223 C233 1.510 . S
C224 C220 1.401 . S
C224 C223 1.396 . S
C225 C220 1.499 . S
C225 H226 0.959 . S
C225 H227 0.960 . S
C225 H228 0.961 . S
H226 C225 0.959 . S
H227 C225 0.960 . S
H228 C225 0.961 . S
O229 Co204 1.967 . S
O229 C237 1.258 . S
O230 Co205 1.941 . S
O230 C237 1.266 . S
H231 C233 0.959 . S
H232 C233 0.961 . S
C233 C223 1.510 . S
C233 H231 0.959 . S
C233 H232 0.961 . S
C233 H234 0.960 . S
H234 C233 0.960 . S
H235 N215 0.862 . S
O236 Co204 1.920 . S
O236 C209 1.289 . S
C237 O229 1.258 . S
C237 O230 1.266 . S
Co238 O241 1.970 . S
Co238 N255 1.989 . S
Co238 O263 1.967 . S
Co238 O270 1.920 . S
Co239 O242 1.966 . S
Co239 N248 2.022 . S
Co239 N256 1.993 . S
Co239 O264 1.941 . S
C240 O241 1.258 . S
C240 O242 1.263 . S
O241 Co238 1.970 . S
O241 C240 1.258 . S
O242 Co239 1.966 . S
O242 C240 1.263 . S
C243 O244 1.235 . S
C243 O270 1.289 . S
O244 C243 1.235 . S
C245 C247 1.400 . S
C245 N248 1.351 . S
C245 C250 1.501 . S
C246 C247 1.387 . S
C246 N249 1.341 . S
C247 C245 1.400 . S
C247 C246 1.387 . S
N248 Co239 2.022 . S
N248 C245 1.351 . S
N248 N249 1.365 . S
N249 C246 1.341 . S
N249 N248 1.365 . S
N249 H269 0.862 . S
C250 C245 1.501 . S
C250 H251 0.961 . S
C250 H252 0.961 . S
C250 H253 0.960 . S
H251 C250 0.961 . S
H252 C250 0.961 . S
H253 C250 0.960 . S
C254 N255 1.342 . S
C254 C258 1.401 . S
C254 C259 1.499 . S
N255 Co238 1.989 . S
N255 C254 1.342 . S
N255 N256 1.388 . S
N256 Co239 1.993 . S
N256 N255 1.388 . S
N256 C257 1.346 . S
C257 N256 1.346 . S
C257 C258 1.396 . S
C257 C267 1.510 . S
C258 C254 1.401 . S
C258 C257 1.396 . S
C259 C254 1.499 . S
C259 H260 0.959 . S
C259 H261 0.960 . S
C259 H262 0.961 . S
H260 C259 0.959 . S
H261 C259 0.960 . S
H262 C259 0.961 . S
O263 Co238 1.967 . S
O263 C271 1.258 . S
O264 Co239 1.941 . S
O264 C271 1.266 . S
H265 C267 0.959 . S
H266 C267 0.961 . S
C267 C257 1.510 . S
C267 H265 0.959 . S
C267 H266 0.961 . S
C267 H268 0.960 . S
H268 C267 0.960 . S
H269 N249 0.862 . S
O270 Co238 1.920 . S
O270 C243 1.289 . S
C271 O263 1.258 . S
C271 O264 1.266 . S
Co272 O275 1.970 . S
Co272 N289 1.989 . S
Co272 O297 1.967 . S
Co272 O304 1.920 . S
Co273 O276 1.966 . S
Co273 N282 2.022 . S
Co273 N290 1.993 . S
Co273 O298 1.941 . S
C274 O275 1.258 . S
C274 O276 1.263 . S
O275 Co272 1.970 . S
O275 C274 1.258 . S
O276 Co273 1.966 . S
O276 C274 1.263 . S
C277 O278 1.235 . S
C277 O304 1.289 . S
O278 C277 1.235 . S
C279 C281 1.400 . S
C279 N282 1.351 . S
C279 C284 1.501 . S
C280 C281 1.387 . S
C280 N283 1.341 . S
C281 C279 1.400 . S
C281 C280 1.387 . S
N282 Co273 2.022 . S
N282 C279 1.351 . S
N282 N283 1.365 . S
N283 C280 1.341 . S
N283 N282 1.365 . S
N283 H303 0.862 . S
C284 C279 1.501 . S
C284 H285 0.961 . S
C284 H286 0.961 . S
C284 H287 0.960 . S
H285 C284 0.961 . S
H286 C284 0.961 . S
H287 C284 0.960 . S
C288 N289 1.342 . S
C288 C292 1.401 . S
C288 C293 1.499 . S
N289 Co272 1.989 . S
N289 C288 1.342 . S
N289 N290 1.388 . S
N290 Co273 1.993 . S
N290 N289 1.388 . S
N290 C291 1.346 . S
C291 N290 1.346 . S
C291 C292 1.396 . S
C291 C301 1.510 . S
C292 C288 1.401 . S
C292 C291 1.396 . S
C293 C288 1.499 . S
C293 H294 0.959 . S
C293 H295 0.960 . S
C293 H296 0.961 . S
H294 C293 0.959 . S
H295 C293 0.960 . S
H296 C293 0.961 . S
O297 Co272 1.967 . S
O297 C305 1.258 . S
O298 Co273 1.941 . S
O298 C305 1.266 . S
H299 C301 0.959 . S
H300 C301 0.961 . S
C301 C291 1.510 . S
C301 H299 0.959 . S
C301 H300 0.961 . S
C301 H302 0.960 . S
H302 C301 0.960 . S
H303 N283 0.862 . S
O304 Co272 1.920 . S
O304 C277 1.289 . S
C305 O297 1.258 . S
C305 O298 1.266 . S
Co306 O309 1.970 . S
Co306 N323 1.989 . S
Co306 O331 1.967 . S
Co306 O338 1.920 . S
Co307 O310 1.966 . S
Co307 N316 2.022 . S
Co307 N324 1.993 . S
Co307 O332 1.941 . S
C308 O309 1.258 . S
C308 O310 1.263 1_556 S
O309 Co306 1.970 . S
O309 C308 1.258 . S
O310 Co307 1.966 . S
O310 C308 1.263 1_554 S
C311 O312 1.235 . S
C311 O338 1.289 . S
O312 C311 1.235 . S
C313 C315 1.400 . S
C313 N316 1.351 . S
C313 C318 1.501 . S
C314 C315 1.387 . S
C314 N317 1.341 . S
C315 C313 1.400 . S
C315 C314 1.387 . S
N316 Co307 2.022 . S
N316 C313 1.351 . S
N316 N317 1.365 . S
N317 C314 1.341 . S
N317 N316 1.365 . S
N317 H337 0.862 . S
C318 C313 1.501 . S
C318 H319 0.961 . S
C318 H320 0.961 . S
C318 H321 0.960 . S
H319 C318 0.961 . S
H320 C318 0.961 . S
H321 C318 0.960 . S
C322 N323 1.342 . S
C322 C326 1.401 1_556 S
C322 C327 1.499 . S
N323 Co306 1.989 . S
N323 C322 1.342 . S
N323 N324 1.388 1_556 S
N324 Co307 1.993 . S
N324 N323 1.388 1_554 S
N324 C325 1.346 . S
C325 N324 1.346 . S
C325 C326 1.396 . S
C325 C335 1.510 . S
C326 C322 1.401 1_554 S
C326 C325 1.396 . S
C327 C322 1.499 . S
C327 H328 0.959 . S
C327 H329 0.960 . S
C327 H330 0.961 . S
H328 C327 0.959 . S
H329 C327 0.960 . S
H330 C327 0.961 . S
O331 Co306 1.967 . S
O331 C339 1.258 . S
O332 Co307 1.941 . S
O332 C339 1.266 1_554 S
H333 C335 0.959 . S
H334 C335 0.961 . S
C335 C325 1.510 . S
C335 H333 0.959 . S
C335 H334 0.961 . S
C335 H336 0.960 . S
H336 C335 0.960 . S
H337 N317 0.862 . S
O338 Co306 1.920 . S
O338 C311 1.289 . S
C339 O331 1.258 . S
C339 O332 1.266 1_556 S
Co340 O343 1.970 . S
Co340 N357 1.989 . S
Co340 O365 1.967 . S
Co340 O372 1.920 . S
Co341 O344 1.966 . S
Co341 N350 2.022 . S
Co341 N358 1.993 . S
Co341 O366 1.941 . S
C342 O343 1.258 . S
C342 O344 1.263 1_554 S
O343 Co340 1.970 . S
O343 C342 1.258 . S
O344 Co341 1.966 . S
O344 C342 1.263 1_556 S
C345 O346 1.235 . S
C345 O372 1.289 . S
O346 C345 1.235 . S
C347 C349 1.400 . S
C347 N350 1.351 . S
C347 C352 1.501 . S
C348 C349 1.387 . S
C348 N351 1.341 . S
C349 C347 1.400 . S
C349 C348 1.387 . S
N350 Co341 2.022 . S
N350 C347 1.351 . S
N350 N351 1.365 . S
N351 C348 1.341 . S
N351 N350 1.365 . S
N351 H371 0.862 . S
C352 C347 1.501 . S
C352 H353 0.961 . S
C352 H354 0.961 . S
C352 H355 0.960 . S
H353 C352 0.961 . S
H354 C352 0.961 . S
H355 C352 0.960 . S
C356 N357 1.342 . S
C356 C360 1.401 1_554 S
C356 C361 1.499 . S
N357 Co340 1.989 . S
N357 C356 1.342 . S
N357 N358 1.388 1_554 S
N358 Co341 1.993 . S
N358 N357 1.388 1_556 S
N358 C359 1.346 . S
C359 N358 1.346 . S
C359 C360 1.396 . S
C359 C369 1.510 . S
C360 C356 1.401 1_556 S
C360 C359 1.396 . S
C361 C356 1.499 . S
C361 H362 0.959 . S
C361 H363 0.960 . S
C361 H364 0.961 . S
H362 C361 0.959 . S
H363 C361 0.960 . S
H364 C361 0.961 . S
O365 Co340 1.967 . S
O365 C373 1.258 . S
O366 Co341 1.941 . S
O366 C373 1.266 1_556 S
H367 C369 0.959 . S
H368 C369 0.961 . S
C369 C359 1.510 . S
C369 H367 0.959 . S
C369 H368 0.961 . S
C369 H370 0.960 . S
H370 C369 0.960 . S
H371 N351 0.862 . S
O372 Co340 1.920 . S
O372 C345 1.289 . S
C373 O365 1.258 . S
C373 O366 1.266 1_554 S
Co374 O377 1.970 . S
Co374 N391 1.989 . S
Co374 O399 1.967 . S
Co374 O406 1.920 . S
Co375 O378 1.966 . S
Co375 N384 2.022 . S
Co375 N392 1.993 . S
Co375 O400 1.941 . S
C376 O377 1.258 . S
C376 O378 1.263 . S
O377 Co374 1.970 . S
O377 C376 1.258 . S
O378 Co375 1.966 . S
O378 C376 1.263 . S
C379 O380 1.235 . S
C379 O406 1.289 . S
O380 C379 1.235 . S
C381 C383 1.400 . S
C381 N384 1.351 . S
C381 C386 1.501 . S
C382 C383 1.387 . S
C382 N385 1.341 . S
C383 C381 1.400 . S
C383 C382 1.387 . S
N384 Co375 2.022 . S
N384 C381 1.351 . S
N384 N385 1.365 . S
N385 C382 1.341 . S
N385 N384 1.365 . S
N385 H405 0.862 . S
C386 C381 1.501 . S
C386 H387 0.961 . S
C386 H388 0.961 . S
C386 H389 0.960 . S
H387 C386 0.961 . S
H388 C386 0.961 . S
H389 C386 0.960 . S
C390 N391 1.342 . S
C390 C394 1.401 . S
C390 C395 1.499 . S
N391 Co374 1.989 . S
N391 C390 1.342 . S
N391 N392 1.388 . S
N392 Co375 1.993 . S
N392 N391 1.388 . S
N392 C393 1.346 . S
C393 N392 1.346 . S
C393 C394 1.396 . S
C393 C403 1.510 . S
C394 C390 1.401 . S
C394 C393 1.396 . S
C395 C390 1.499 . S
C395 H396 0.959 . S
C395 H397 0.960 . S
C395 H398 0.961 . S
H396 C395 0.959 . S
H397 C395 0.960 . S
H398 C395 0.961 . S
O399 Co374 1.967 . S
O399 C407 1.258 . S
O400 Co375 1.941 . S
O400 C407 1.266 . S
H401 C403 0.959 . S
H402 C403 0.961 . S
C403 C393 1.510 . S
C403 H401 0.959 . S
C403 H402 0.961 . S
C403 H404 0.960 . S
H404 C403 0.960 . S
H405 N385 0.862 . S
O406 Co374 1.920 . S
O406 C379 1.289 . S
C407 O399 1.258 . S
C407 O400 1.266 . S
Co408 O411 1.970 . S
Co408 N425 1.989 . S
Co408 O433 1.967 . S
Co408 O440 1.920 . S
Co409 O412 1.966 . S
Co409 N418 2.022 . S
Co409 N426 1.993 . S
Co409 O434 1.941 . S
C410 O411 1.258 . S
C410 O412 1.263 . S
O411 Co408 1.970 . S
O411 C410 1.258 . S
O412 Co409 1.966 . S
O412 C410 1.263 . S
C413 O414 1.235 . S
C413 O440 1.289 . S
O414 C413 1.235 . S
C415 C417 1.400 . S
C415 N418 1.351 . S
C415 C420 1.501 . S
C416 C417 1.387 . S
C416 N419 1.341 . S
C417 C415 1.400 . S
C417 C416 1.387 . S
N418 Co409 2.022 . S
N418 C415 1.351 . S
N418 N419 1.365 . S
N419 C416 1.341 . S
N419 N418 1.365 . S
N419 H439 0.862 . S
C420 C415 1.501 . S
C420 H421 0.961 . S
C420 H422 0.961 . S
C420 H423 0.960 . S
H421 C420 0.961 . S
H422 C420 0.961 . S
H423 C420 0.960 . S
C424 N425 1.342 . S
C424 C428 1.401 . S
C424 C429 1.499 . S
N425 Co408 1.989 . S
N425 C424 1.342 . S
N425 N426 1.388 . S
N426 Co409 1.993 . S
N426 N425 1.388 . S
N426 C427 1.346 . S
C427 N426 1.346 . S
C427 C428 1.396 . S
C427 C437 1.510 . S
C428 C424 1.401 . S
C428 C427 1.396 . S
C429 C424 1.499 . S
C429 H430 0.959 . S
C429 H431 0.960 . S
C429 H432 0.961 . S
H430 C429 0.959 . S
H431 C429 0.960 . S
H432 C429 0.961 . S
O433 Co408 1.967 . S
O433 C441 1.258 . S
O434 Co409 1.941 . S
O434 C441 1.266 . S
H435 C437 0.959 . S
H436 C437 0.961 . S
C437 C427 1.510 . S
C437 H435 0.959 . S
C437 H436 0.961 . S
C437 H438 0.960 . S
H438 C437 0.960 . S
H439 N419 0.862 . S
O440 Co408 1.920 . S
O440 C413 1.289 . S
C441 O433 1.258 . S
C441 O434 1.266 . S
Co442 O445 1.970 . S
Co442 N459 1.989 . S
Co442 O467 1.967 1_455 S
Co442 O474 1.920 . S
Co443 O446 1.966 . S
Co443 N452 2.022 . S
Co443 N460 1.993 . S
Co443 O468 1.941 1_455 S
C444 O445 1.258 . S
C444 O446 1.263 . S
O445 Co442 1.970 . S
O445 C444 1.258 . S
O446 Co443 1.966 . S
O446 C444 1.263 . S
C447 O448 1.235 . S
C447 O474 1.289 . S
O448 C447 1.235 . S
C449 C451 1.389 1_554 S
C449 N452 1.358 . S
C449 C454 1.505 . S
C450 C451 1.404 . S
C450 N453 1.342 1_455 S
C451 C449 1.389 1_556 S
C451 C450 1.404 . S
N452 Co443 2.022 . S
N452 C449 1.358 . S
N452 N453 1.361 1_454 S
N453 C450 1.342 1_655 S
N453 N452 1.361 1_656 S
N453 H473 0.860 1_556 S
C454 C449 1.505 . S
C454 H455 0.961 . S
C454 H456 0.961 . S
C454 H457 0.960 . S
H455 C454 0.961 . S
H456 C454 0.961 . S
H457 C454 0.960 . S
C458 N459 1.342 . S
C458 C462 1.401 . S
C458 C463 1.499 . S
N459 Co442 1.989 . S
N459 C458 1.342 . S
N459 N460 1.388 . S
N460 Co443 1.993 . S
N460 N459 1.388 . S
N460 C461 1.346 . S
C461 N460 1.346 . S
C461 C462 1.396 . S
C461 C471 1.510 . S
C462 C458 1.401 . S
C462 C461 1.396 . S
C463 C458 1.499 . S
C463 H464 0.959 . S
C463 H465 0.960 . S
C463 H466 0.961 1_455 S
H464 C463 0.959 . S
H465 C463 0.960 . S
H466 C463 0.961 1_655 S
O467 Co442 1.967 1_655 S
O467 C475 1.258 . S
O468 Co443 1.941 1_655 S
O468 C475 1.266 . S
H469 C471 0.959 1_655 S
H470 C471 0.961 . S
C471 C461 1.510 . S
C471 H469 0.959 1_455 S
C471 H470 0.961 . S
C471 H472 0.960 . S
H472 C471 0.960 . S
H473 N453 0.860 1_554 S
O474 Co442 1.920 . S
O474 C447 1.289 . S
C475 O467 1.258 . S
C475 O468 1.266 . S
Co476 O479 1.970 . S
Co476 N493 1.989 . S
Co476 O501 1.967 . S
Co476 O508 1.920 . S
Co477 O480 1.966 . S
Co477 N486 2.022 . S
Co477 N494 1.993 . S
Co477 O502 1.941 . S
C478 O479 1.258 . S
C478 O480 1.263 . S
O479 Co476 1.970 . S
O479 C478 1.258 . S
O480 Co477 1.966 . S
O480 C478 1.263 . S
C481 O482 1.235 . S
C481 O508 1.289 . S
O482 C481 1.235 . S
C483 C485 1.400 . S
C483 N486 1.351 . S
C483 C488 1.501 . S
C484 C485 1.387 . S
C484 N487 1.341 . S
C485 C483 1.400 . S
C485 C484 1.387 . S
N486 Co477 2.022 . S
N486 C483 1.351 . S
N486 N487 1.365 . S
N487 C484 1.341 . S
N487 N486 1.365 . S
N487 H507 0.862 . S
C488 C483 1.501 . S
C488 H489 0.961 . S
C488 H490 0.961 . S
C488 H491 0.960 . S
H489 C488 0.961 . S
H490 C488 0.961 . S
H491 C488 0.960 . S
C492 N493 1.342 . S
C492 C496 1.401 . S
C492 C497 1.499 . S
N493 Co476 1.989 . S
N493 C492 1.342 . S
N493 N494 1.388 . S
N494 Co477 1.993 . S
N494 N493 1.388 . S
N494 C495 1.346 . S
C495 N494 1.346 . S
C495 C496 1.396 . S
C495 C505 1.510 . S
C496 C492 1.401 . S
C496 C495 1.396 . S
C497 C492 1.499 . S
C497 H498 0.959 . S
C497 H499 0.960 . S
C497 H500 0.961 . S
H498 C497 0.959 . S
H499 C497 0.960 . S
H500 C497 0.961 . S
O501 Co476 1.967 . S
O501 C509 1.258 . S
O502 Co477 1.941 . S
O502 C509 1.266 . S
H503 C505 0.959 . S
H504 C505 0.961 . S
C505 C495 1.510 . S
C505 H503 0.959 . S
C505 H504 0.961 . S
C505 H506 0.960 . S
H506 C505 0.960 . S
H507 N487 0.862 . S
O508 Co476 1.920 . S
O508 C481 1.289 . S
C509 O501 1.258 . S
C509 O502 1.266 . S
Co510 O513 1.970 . S
Co510 N527 1.989 . S
Co510 O535 1.967 1_455 S
Co510 O542 1.920 . S
Co511 O514 1.966 . S
Co511 N520 2.022 . S
Co511 N528 1.993 . S
Co511 O536 1.941 1_455 S
C512 O513 1.258 . S
C512 O514 1.263 . S
O513 Co510 1.970 . S
O513 C512 1.258 . S
O514 Co511 1.966 . S
O514 C512 1.263 . S
C515 O516 1.235 . S
C515 O542 1.289 . S
O516 C515 1.235 . S
C517 C519 1.389 1_556 S
C517 N520 1.358 . S
C517 C522 1.505 . S
C518 C519 1.404 . S
C518 N521 1.342 1_455 S
C519 C517 1.389 1_554 S
C519 C518 1.404 . S
N520 Co511 2.022 . S
N520 C517 1.358 . S
N520 N521 1.361 1_456 S
N521 C518 1.342 1_655 S
N521 N520 1.361 1_654 S
N521 H541 0.860 1_554 S
C522 C517 1.505 . S
C522 H523 0.961 . S
C522 H524 0.961 . S
C522 H525 0.960 . S
H523 C522 0.961 . S
H524 C522 0.961 . S
H525 C522 0.960 . S
C526 N527 1.342 . S
C526 C530 1.401 . S
C526 C531 1.499 . S
N527 Co510 1.989 . S
N527 C526 1.342 . S
N527 N528 1.388 . S
N528 Co511 1.993 . S
N528 N527 1.388 . S
N528 C529 1.346 . S
C529 N528 1.346 . S
C529 C530 1.396 . S
C529 C539 1.510 . S
C530 C526 1.401 . S
C530 C529 1.396 . S
C531 C526 1.499 . S
C531 H532 0.959 . S
C531 H533 0.960 . S
C531 H534 0.961 1_455 S
H532 C531 0.959 . S
H533 C531 0.960 . S
H534 C531 0.961 1_655 S
O535 Co510 1.967 1_655 S
O535 C543 1.258 . S
O536 Co511 1.941 1_655 S
O536 C543 1.266 . S
H537 C539 0.959 1_655 S
H538 C539 0.961 . S
C539 C529 1.510 . S
C539 H537 0.959 1_455 S
C539 H538 0.961 . S
C539 H540 0.960 . S
H540 C539 0.960 . S
H541 N521 0.860 1_556 S
O542 Co510 1.920 . S
O542 C515 1.289 . S
C543 O535 1.258 . S
C543 O536 1.266 . S
H544 C552 0.950 . S
H545 C557 0.950 . S
H546 C554 0.950 . S
H547 C556 0.950 . S
H548 C558 0.950 . S
H549 C560 0.950 . S
H550 C562 0.950 . S
H551 C563 0.950 . S
C552 H544 0.950 . S
C552 C553 1.386 . S
C552 C554 1.391 . S
C553 C552 1.386 . S
C553 C557 1.393 . S
C554 H546 0.950 . S
C554 C552 1.391 . S
C554 C555 1.400 . S
C555 C554 1.400 . S
C555 C556 1.398 . S
C555 C561 1.491 . S
C556 H547 0.950 . S
C556 C555 1.398 . S
C556 C557 1.391 . S
C557 H545 0.950 . S
C557 C553 1.393 . S
C557 C556 1.391 . S
C558 H548 0.950 . S
C558 C559 1.386 . S
C558 C560 1.391 . S
C559 C558 1.386 . S
C559 C563 1.393 . S
C560 H549 0.950 . S
C560 C558 1.391 . S
C560 C561 1.400 . S
C561 C555 1.491 . S
C561 C560 1.400 . S
C561 C562 1.398 . S
C562 H550 0.950 . S
C562 C561 1.398 . S
C562 C563 1.391 . S
C563 H551 0.950 . S
C563 C559 1.393 . S
C563 C562 1.391 . S
H564 C572 0.950 . S
H565 C577 0.950 . S
H566 C574 0.950 . S
H567 C576 0.950 . S
H568 C578 0.950 . S
H569 C580 0.950 . S
H570 C582 0.950 . S
H571 C583 0.950 . S
C572 H564 0.950 . S
C572 C573 1.386 . S
C572 C574 1.391 . S
C573 C572 1.386 . S
C573 C577 1.393 . S
C574 H566 0.950 . S
C574 C572 1.391 . S
C574 C575 1.400 . S
C575 C574 1.400 . S
C575 C576 1.398 . S
C575 C581 1.491 . S
C576 H567 0.950 . S
C576 C575 1.398 . S
C576 C577 1.391 . S
C577 H565 0.950 . S
C577 C573 1.393 . S
C577 C576 1.391 . S
C578 H568 0.950 . S
C578 C579 1.386 . S
C578 C580 1.391 . S
C579 C578 1.386 . S
C579 C583 1.393 . S
C580 H569 0.950 . S
C580 C578 1.391 . S
C580 C581 1.400 . S
C581 C575 1.491 . S
C581 C580 1.400 . S
C581 C582 1.398 . S
C582 H570 0.950 . S
C582 C581 1.398 . S
C582 C583 1.391 . S
C583 H571 0.950 . S
C583 C579 1.393 . S
C583 C582 1.391 . S
H584 C592 0.950 . S
H585 C597 0.950 . S
H586 C594 0.950 . S
H587 C596 0.950 . S
H588 C598 0.950 1_554 S
H589 C600 0.950 . S
H590 C602 0.950 . S
H591 C603 0.950 . S
C592 H584 0.950 . S
C592 C593 1.386 . S
C592 C594 1.391 . S
C593 C592 1.386 . S
C593 C597 1.393 . S
C594 H586 0.950 . S
C594 C592 1.391 . S
C594 C595 1.400 . S
C595 C594 1.400 . S
C595 C596 1.398 . S
C595 C601 1.491 . S
C596 H587 0.950 . S
C596 C595 1.398 . S
C596 C597 1.391 . S
C597 H585 0.950 . S
C597 C593 1.393 . S
C597 C596 1.391 . S
C598 H588 0.950 1_556 S
C598 C599 1.386 . S
C598 C600 1.391 . S
C599 C598 1.386 . S
C599 C603 1.393 . S
C600 H589 0.950 . S
C600 C598 1.391 . S
C600 C601 1.400 . S
C601 C595 1.491 . S
C601 C600 1.400 . S
C601 C602 1.398 . S
C602 H590 0.950 . S
C602 C601 1.398 . S
C602 C603 1.391 . S
C603 H591 0.950 . S
C603 C599 1.393 . S
C603 C602 1.391 . S
H604 C612 0.950 . S
H605 C617 0.950 . S
H606 C614 0.950 . S
H607 C616 0.950 . S
H608 C618 0.950 . S
H609 C620 0.950 . S
H610 C622 0.950 . S
H611 C623 0.950 1_556 S
C612 H604 0.950 . S
C612 C613 1.386 . S
C612 C614 1.391 . S
C613 C612 1.386 . S
C613 C617 1.393 . S
C614 H606 0.950 . S
C614 C612 1.391 . S
C614 C615 1.400 . S
C615 C614 1.400 . S
C615 C616 1.398 . S
C615 C621 1.491 . S
C616 H607 0.950 . S
C616 C615 1.398 . S
C616 C617 1.391 . S
C617 H605 0.950 . S
C617 C613 1.393 . S
C617 C616 1.391 . S
C618 H608 0.950 . S
C618 C619 1.386 . S
C618 C620 1.391 . S
C619 C618 1.386 . S
C619 C623 1.393 . S
C620 H609 0.950 . S
C620 C618 1.391 . S
C620 C621 1.400 . S
C621 C615 1.491 . S
C621 C620 1.400 . S
C621 C622 1.398 . S
C622 H610 0.950 . S
C622 C621 1.398 . S
C622 C623 1.391 . S
C623 H611 0.950 1_554 S
C623 C619 1.393 . S
C623 C622 1.391 . S
H624 C632 0.950 . S
H625 C637 0.950 . S
H626 C634 0.950 . S
H627 C636 0.950 . S
H628 C638 0.950 . S
H629 C640 0.950 . S
H630 C642 0.950 . S
H631 C643 0.950 . S
C632 H624 0.950 . S
C632 C633 1.386 . S
C632 C634 1.391 . S
C633 C632 1.386 . S
C633 C637 1.393 . S
C634 H626 0.950 . S
C634 C632 1.391 . S
C634 C635 1.400 . S
C635 C634 1.400 . S
C635 C636 1.398 . S
C635 C641 1.491 . S
C636 H627 0.950 . S
C636 C635 1.398 . S
C636 C637 1.391 . S
C637 H625 0.950 . S
C637 C633 1.393 . S
C637 C636 1.391 . S
C638 H628 0.950 . S
C638 C639 1.386 . S
C638 C640 1.391 . S
C639 C638 1.386 . S
C639 C643 1.393 . S
C640 H629 0.950 . S
C640 C638 1.391 . S
C640 C641 1.400 . S
C641 C635 1.491 . S
C641 C640 1.400 . S
C641 C642 1.398 . S
C642 H630 0.950 . S
C642 C641 1.398 . S
C642 C643 1.391 . S
C643 H631 0.950 . S
C643 C639 1.393 . S
C643 C642 1.391 . S
H644 C652 0.950 . S
H645 C657 0.950 . S
H646 C654 0.950 . S
H647 C656 0.950 . S
H648 C658 0.950 . S
H649 C660 0.950 . S
H650 C662 0.950 . S
H651 C663 0.950 . S
C652 H644 0.950 . S
C652 C653 1.386 . S
C652 C654 1.391 . S
C653 C652 1.386 . S
C653 C657 1.393 . S
C654 H646 0.950 . S
C654 C652 1.391 . S
C654 C655 1.400 . S
C655 C654 1.400 . S
C655 C656 1.398 . S
C655 C661 1.491 . S
C656 H647 0.950 . S
C656 C655 1.398 . S
C656 C657 1.391 . S
C657 H645 0.950 . S
C657 C653 1.393 . S
C657 C656 1.391 . S
C658 H648 0.950 . S
C658 C659 1.386 . S
C658 C660 1.391 . S
C659 C658 1.386 . S
C659 C663 1.393 . S
C660 H649 0.950 . S
C660 C658 1.391 . S
C660 C661 1.400 . S
C661 C655 1.491 . S
C661 C660 1.400 . S
C661 C662 1.398 . S
C662 H650 0.950 . S
C662 C661 1.398 . S
C662 C663 1.391 . S
C663 H651 0.950 . S
C663 C659 1.393 . S
C663 C662 1.391 . S
H664 C672 0.950 . S
H665 C677 0.950 . S
H666 C674 0.950 . S
H667 C676 0.950 . S
H668 C678 0.950 . S
H669 C680 0.950 . S
H670 C682 0.950 . S
H671 C683 0.950 . S
C672 H664 0.950 . S
C672 C673 1.386 . S
C672 C674 1.391 . S
C673 C672 1.386 . S
C673 C677 1.393 . S
C674 H666 0.950 . S
C674 C672 1.391 . S
C674 C675 1.400 . S
C675 C674 1.400 . S
C675 C676 1.398 . S
C675 C681 1.491 . S
C676 H667 0.950 . S
C676 C675 1.398 . S
C676 C677 1.391 . S
C677 H665 0.950 . S
C677 C673 1.393 . S
C677 C676 1.391 . S
C678 H668 0.950 . S
C678 C679 1.386 . S
C678 C680 1.391 . S
C679 C678 1.386 . S
C679 C683 1.393 . S
C680 H669 0.950 . S
C680 C678 1.391 . S
C680 C681 1.400 . S
C681 C675 1.491 . S
C681 C680 1.400 . S
C681 C682 1.398 . S
C682 H670 0.950 . S
C682 C681 1.398 . S
C682 C683 1.391 . S
C683 H671 0.950 . S
C683 C679 1.393 . S
C683 C682 1.391 . S
H684 C692 0.950 . S
H685 C697 0.950 . S
H686 C694 0.950 . S
H687 C696 0.950 . S
H688 C698 0.950 . S
H689 C700 0.950 . S
H690 C702 0.950 1_554 S
H691 C703 0.950 . S
C692 H684 0.950 . S
C692 C693 1.386 . S
C692 C694 1.391 . S
C693 C692 1.386 . S
C693 C697 1.393 . S
C694 H686 0.950 . S
C694 C692 1.391 . S
C694 C695 1.400 . S
C695 C694 1.400 . S
C695 C696 1.398 . S
C695 C701 1.491 . S
C696 H687 0.950 . S
C696 C695 1.398 . S
C696 C697 1.391 . S
C697 H685 0.950 . S
C697 C693 1.393 . S
C697 C696 1.391 . S
C698 H688 0.950 . S
C698 C699 1.386 . S
C698 C700 1.391 . S
C699 C698 1.386 . S
C699 C703 1.393 1_556 S
C700 H689 0.950 . S
C700 C698 1.391 . S
C700 C701 1.400 . S
C701 C695 1.491 . S
C701 C700 1.400 . S
C701 C702 1.398 . S
C702 H690 0.950 1_556 S
C702 C701 1.398 . S
C702 C703 1.391 1_556 S
C703 H691 0.950 . S
C703 C699 1.393 1_554 S
C703 C702 1.391 1_554 S
H704 C712 0.950 . S
H705 C717 0.950 1_554 S
H706 C714 0.950 . S
H707 C716 0.950 . S
H708 C718 0.950 . S
H709 C720 0.950 . S
H710 C722 0.950 . S
H711 C723 0.950 . S
C712 H704 0.950 . S
C712 C713 1.386 . S
C712 C714 1.391 . S
C713 C712 1.386 . S
C713 C717 1.393 . S
C714 H706 0.950 . S
C714 C712 1.391 . S
C714 C715 1.400 . S
C715 C714 1.400 . S
C715 C716 1.398 . S
C715 C721 1.491 . S
C716 H707 0.950 . S
C716 C715 1.398 . S
C716 C717 1.391 . S
C717 H705 0.950 1_556 S
C717 C713 1.393 . S
C717 C716 1.391 . S
C718 H708 0.950 . S
C718 C719 1.386 . S
C718 C720 1.391 . S
C719 C718 1.386 . S
C719 C723 1.393 . S
C720 H709 0.950 . S
C720 C718 1.391 . S
C720 C721 1.400 . S
C721 C715 1.491 . S
C721 C720 1.400 . S
C721 C722 1.398 . S
C722 H710 0.950 . S
C722 C721 1.398 . S
C722 C723 1.391 . S
C723 H711 0.950 . S
C723 C719 1.393 . S
C723 C722 1.391 . S
H724 C732 0.950 . S
H725 C737 0.950 . S
H726 C734 0.950 . S
H727 C736 0.950 . S
H728 C738 0.950 1_556 S
H729 C740 0.950 . S
H730 C742 0.950 . S
H731 C743 0.950 . S
C732 H724 0.950 . S
C732 C733 1.386 . S
C732 C734 1.391 . S
C733 C732 1.386 . S
C733 C737 1.393 . S
C734 H726 0.950 . S
C734 C732 1.391 . S
C734 C735 1.400 . S
C735 C734 1.400 . S
C735 C736 1.398 . S
C735 C741 1.491 . S
C736 H727 0.950 . S
C736 C735 1.398 . S
C736 C737 1.391 . S
C737 H725 0.950 . S
C737 C733 1.393 . S
C737 C736 1.391 . S
C738 H728 0.950 1_554 S
C738 C739 1.386 . S
C738 C740 1.391 . S
C739 C738 1.386 . S
C739 C743 1.393 . S
C740 H729 0.950 . S
C740 C738 1.391 . S
C740 C741 1.400 . S
C741 C735 1.491 . S
C741 C740 1.400 . S
C741 C742 1.398 . S
C742 H730 0.950 . S
C742 C741 1.398 . S
C742 C743 1.391 . S
C743 H731 0.950 . S
C743 C739 1.393 . S
C743 C742 1.391 . S
H744 C752 0.950 . S
H745 C757 0.950 . S
H746 C754 0.950 . S
H747 C756 0.950 . S
H748 C758 0.950 . S
H749 C760 0.950 . S
H750 C762 0.950 . S
H751 C763 0.950 . S
C752 H744 0.950 . S
C752 C753 1.386 . S
C752 C754 1.391 . S
C753 C752 1.386 . S
C753 C757 1.393 . S
C754 H746 0.950 . S
C754 C752 1.391 . S
C754 C755 1.400 . S
C755 C754 1.400 . S
C755 C756 1.398 . S
C755 C761 1.491 . S
C756 H747 0.950 . S
C756 C755 1.398 . S
C756 C757 1.391 . S
C757 H745 0.950 . S
C757 C753 1.393 . S
C757 C756 1.391 . S
C758 H748 0.950 . S
C758 C759 1.386 . S
C758 C760 1.391 . S
C759 C758 1.386 . S
C759 C763 1.393 . S
C760 H749 0.950 . S
C760 C758 1.391 . S
C760 C761 1.400 . S
C761 C755 1.491 . S
C761 C760 1.400 . S
C761 C762 1.398 . S
C762 H750 0.950 . S
C762 C761 1.398 . S
C762 C763 1.391 . S
C763 H751 0.950 . S
C763 C759 1.393 . S
C763 C762 1.391 . S
H764 C772 0.950 . S
H765 C777 0.950 . S
H766 C774 0.950 . S
H767 C776 0.950 . S
H768 C778 0.950 . S
H769 C780 0.950 . S
H770 C782 0.950 . S
H771 C783 0.950 . S
C772 H764 0.950 . S
C772 C773 1.386 . S
C772 C774 1.391 . S
C773 C772 1.386 . S
C773 C777 1.393 . S
C774 H766 0.950 . S
C774 C772 1.391 . S
C774 C775 1.400 . S
C775 C774 1.400 . S
C775 C776 1.398 . S
C775 C781 1.491 . S
C776 H767 0.950 . S
C776 C775 1.398 . S
C776 C777 1.391 . S
C777 H765 0.950 . S
C777 C773 1.393 . S
C777 C776 1.391 . S
C778 H768 0.950 . S
C778 C779 1.386 . S
C778 C780 1.391 . S
C779 C778 1.386 . S
C779 C783 1.393 . S
C780 H769 0.950 . S
C780 C778 1.391 . S
C780 C781 1.400 . S
C781 C775 1.491 . S
C781 C780 1.400 . S
C781 C782 1.398 . S
C782 H770 0.950 . S
C782 C781 1.398 . S
C782 C783 1.391 . S
C783 H771 0.950 . S
C783 C779 1.393 . S
C783 C782 1.391 . S
H784 C792 0.950 1_556 S
H785 C797 0.950 . S
H786 C794 0.950 . S
H787 C796 0.950 . S
H788 C798 0.950 . S
H789 C800 0.950 . S
H790 C802 0.950 . S
H791 C803 0.950 . S
C792 H784 0.950 1_554 S
C792 C793 1.386 . S
C792 C794 1.391 . S
C793 C792 1.386 . S
C793 C797 1.393 . S
C794 H786 0.950 . S
C794 C792 1.391 . S
C794 C795 1.400 . S
C795 C794 1.400 . S
C795 C796 1.398 . S
C795 C801 1.491 . S
C796 H787 0.950 . S
C796 C795 1.398 . S
C796 C797 1.391 . S
C797 H785 0.950 . S
C797 C793 1.393 . S
C797 C796 1.391 . S
C798 H788 0.950 . S
C798 C799 1.386 . S
C798 C800 1.391 . S
C799 C798 1.386 . S
C799 C803 1.393 . S
C800 H789 0.950 . S
C800 C798 1.391 . S
C800 C801 1.400 . S
C801 C795 1.491 . S
C801 C800 1.400 . S
C801 C802 1.398 . S
C802 H790 0.950 . S
C802 C801 1.398 . S
C802 C803 1.391 . S
C803 H791 0.950 . S
C803 C799 1.393 . S
C803 C802 1.391 . S
H804 C812 0.950 1_554 S
H805 C817 0.950 . S
H806 C814 0.950 . S
H807 C816 0.950 . S
H808 C818 0.950 . S
H809 C820 0.950 . S
H810 C822 0.950 . S
H811 C823 0.950 . S
C812 H804 0.950 1_556 S
C812 C813 1.386 . S
C812 C814 1.391 . S
C813 C812 1.386 . S
C813 C817 1.393 . S
C814 H806 0.950 . S
C814 C812 1.391 . S
C814 C815 1.400 . S
C815 C814 1.400 . S
C815 C816 1.398 . S
C815 C821 1.491 . S
C816 H807 0.950 . S
C816 C815 1.398 . S
C816 C817 1.391 . S
C817 H805 0.950 . S
C817 C813 1.393 . S
C817 C816 1.391 . S
C818 H808 0.950 . S
C818 C819 1.386 . S
C818 C820 1.391 . S
C819 C818 1.386 . S
C819 C823 1.393 . S
C820 H809 0.950 . S
C820 C818 1.391 . S
C820 C821 1.400 . S
C821 C815 1.491 . S
C821 C820 1.400 . S
C821 C822 1.398 . S
C822 H810 0.950 . S
C822 C821 1.398 . S
C822 C823 1.391 . S
C823 H811 0.950 . S
C823 C819 1.393 . S
C823 C822 1.391 . S
H824 C832 0.950 . S
H825 C837 0.950 . S
H826 C834 0.950 . S
H827 C836 0.950 . S
H828 C838 0.950 . S
H829 C840 0.950 . S
H830 C842 0.950 . S
H831 C843 0.950 . S
C832 H824 0.950 . S
C832 C833 1.386 . S
C832 C834 1.391 . S
C833 C832 1.386 . S
C833 C837 1.393 . S
C834 H826 0.950 . S
C834 C832 1.391 . S
C834 C835 1.400 . S
C835 C834 1.400 . S
C835 C836 1.398 . S
C835 C841 1.491 . S
C836 H827 0.950 . S
C836 C835 1.398 . S
C836 C837 1.391 . S
C837 H825 0.950 . S
C837 C833 1.393 . S
C837 C836 1.391 . S
C838 H828 0.950 . S
C838 C839 1.386 . S
C838 C840 1.391 . S
C839 C838 1.386 . S
C839 C843 1.393 . S
C840 H829 0.950 . S
C840 C838 1.391 . S
C840 C841 1.400 . S
C841 C835 1.491 . S
C841 C840 1.400 . S
C841 C842 1.398 . S
C842 H830 0.950 . S
C842 C841 1.398 . S
C842 C843 1.391 . S
C843 H831 0.950 . S
C843 C839 1.393 . S
C843 C842 1.391 . S
H844 C852 0.950 . S
H845 C857 0.950 . S
H846 C854 0.950 . S
H847 C856 0.950 . S
H848 C858 0.950 . S
H849 C860 0.950 . S
H850 C862 0.950 . S
H851 C863 0.950 . S
C852 H844 0.950 . S
C852 C853 1.386 . S
C852 C854 1.391 . S
C853 C852 1.386 . S
C853 C857 1.393 . S
C854 H846 0.950 . S
C854 C852 1.391 . S
C854 C855 1.400 . S
C855 C854 1.400 . S
C855 C856 1.398 . S
C855 C861 1.491 . S
C856 H847 0.950 . S
C856 C855 1.398 . S
C856 C857 1.391 . S
C857 H845 0.950 . S
C857 C853 1.393 . S
C857 C856 1.391 . S
C858 H848 0.950 . S
C858 C859 1.386 . S
C858 C860 1.391 . S
C859 C858 1.386 . S
C859 C863 1.393 . S
C860 H849 0.950 . S
C860 C858 1.391 . S
C860 C861 1.400 . S
C861 C855 1.491 . S
C861 C860 1.400 . S
C861 C862 1.398 . S
C862 H850 0.950 . S
C862 C861 1.398 . S
C862 C863 1.391 . S
C863 H851 0.950 . S
C863 C859 1.393 . S
C863 C862 1.391 . S
H864 C872 0.950 1_655 S
H865 C877 0.950 . S
H866 C874 0.950 1_655 S
H867 C876 0.950 . S
H868 C878 0.950 . S
H869 C880 0.950 . S
H870 C882 0.950 1_655 S
H871 C883 0.950 1_655 S
C872 H864 0.950 1_455 S
C872 C873 1.386 . S
C872 C874 1.391 . S
C873 C872 1.386 . S
C873 C877 1.393 . S
C874 H866 0.950 1_455 S
C874 C872 1.391 . S
C874 C875 1.400 . S
C875 C874 1.400 . S
C875 C876 1.398 . S
C875 C881 1.491 1_544 S
C876 H867 0.950 . S
C876 C875 1.398 . S
C876 C877 1.391 . S
C877 H865 0.950 . S
C877 C873 1.393 . S
C877 C876 1.391 . S
C878 H868 0.950 . S
C878 C879 1.386 . S
C878 C880 1.391 . S
C879 C878 1.386 . S
C879 C883 1.393 . S
C880 H869 0.950 . S
C880 C878 1.391 . S
C880 C881 1.400 . S
C881 C875 1.491 1_566 S
C881 C880 1.400 . S
C881 C882 1.398 . S
C882 H870 0.950 1_455 S
C882 C881 1.398 . S
C882 C883 1.391 . S
C883 H871 0.950 1_455 S
C883 C879 1.393 . S
C883 C882 1.391 . S
H884 C892 0.950 . S
H885 C897 0.950 . S
H886 C894 0.950 . S
H887 C896 0.950 . S
H888 C898 0.950 . S
H889 C900 0.950 . S
H890 C902 0.950 . S
H891 C903 0.950 . S
C892 H884 0.950 . S
C892 C893 1.386 . S
C892 C894 1.391 . S
C893 C892 1.386 . S
C893 C897 1.393 . S
C894 H886 0.950 . S
C894 C892 1.391 . S
C894 C895 1.400 . S
C895 C894 1.400 . S
C895 C896 1.398 . S
C895 C901 1.491 . S
C896 H887 0.950 . S
C896 C895 1.398 . S
C896 C897 1.391 . S
C897 H885 0.950 . S
C897 C893 1.393 . S
C897 C896 1.391 . S
C898 H888 0.950 . S
C898 C899 1.386 . S
C898 C900 1.391 . S
C899 C898 1.386 . S
C899 C903 1.393 . S
C900 H889 0.950 . S
C900 C898 1.391 . S
C900 C901 1.400 . S
C901 C895 1.491 . S
C901 C900 1.400 . S
C901 C902 1.398 . S
C902 H890 0.950 . S
C902 C901 1.398 . S
C902 C903 1.391 . S
C903 H891 0.950 . S
C903 C899 1.393 . S
C903 C902 1.391 . S
H904 C912 0.950 . S
H905 C917 0.950 . S
H906 C914 0.950 . S
H907 C916 0.950 . S
H908 C918 0.950 . S
H909 C920 0.950 . S
H910 C922 0.950 . S
H911 C923 0.950 . S
C912 H904 0.950 . S
C912 C913 1.386 . S
C912 C914 1.391 . S
C913 C912 1.386 . S
C913 C917 1.393 . S
C914 H906 0.950 . S
C914 C912 1.391 . S
C914 C915 1.400 . S
C915 C914 1.400 . S
C915 C916 1.398 . S
C915 C921 1.491 1_545 S
C916 H907 0.950 . S
C916 C915 1.398 . S
C916 C917 1.391 . S
C917 H905 0.950 . S
C917 C913 1.393 . S
C917 C916 1.391 . S
C918 H908 0.950 . S
C918 C919 1.386 . S
C918 C920 1.391 . S
C919 C918 1.386 . S
C919 C923 1.393 . S
C920 H909 0.950 . S
C920 C918 1.391 . S
C920 C921 1.400 . S
C921 C915 1.491 1_565 S
C921 C920 1.400 . S
C921 C922 1.398 . S
C922 H910 0.950 . S
C922 C921 1.398 . S
C922 C923 1.391 . S
C923 H911 0.950 . S
C923 C919 1.393 . S
C923 C922 1.391 . S
H924 C932 0.950 . S
H925 C937 0.950 . S
H926 C934 0.950 . S
H927 C936 0.950 . S
H928 C938 0.950 . S
H929 C940 0.950 . S
H930 C942 0.950 . S
H931 C943 0.950 . S
C932 H924 0.950 . S
C932 C933 1.386 . S
C932 C934 1.391 . S
C933 C932 1.386 . S
C933 C937 1.393 . S
C934 H926 0.950 . S
C934 C932 1.391 . S
C934 C935 1.400 . S
C935 C934 1.400 . S
C935 C936 1.398 . S
C935 C941 1.491 . S
C936 H927 0.950 . S
C936 C935 1.398 . S
C936 C937 1.391 . S
C937 H925 0.950 . S
C937 C933 1.393 . S
C937 C936 1.391 . S
C938 H928 0.950 . S
C938 C939 1.386 . S
C938 C940 1.391 . S
C939 C938 1.386 . S
C939 C943 1.393 . S
C940 H929 0.950 . S
C940 C938 1.391 . S
C940 C941 1.400 . S
C941 C935 1.491 . S
C941 C940 1.400 . S
C941 C942 1.398 . S
C942 H930 0.950 . S
C942 C941 1.398 . S
C942 C943 1.391 . S
C943 H931 0.950 . S
C943 C939 1.393 . S
C943 C942 1.391 . S
H944 C952 0.950 . S
H945 C957 0.950 . S
H946 C954 0.950 . S
H947 C956 0.950 . S
H948 C958 0.950 . S
H949 C960 0.950 . S
H950 C962 0.950 . S
H951 C963 0.950 . S
C952 H944 0.950 . S
C952 C953 1.386 . S
C952 C954 1.391 . S
C953 C952 1.386 . S
C953 C957 1.393 . S
C954 H946 0.950 . S
C954 C952 1.391 . S
C954 C955 1.400 . S
C955 C954 1.400 . S
C955 C956 1.398 . S
C955 C961 1.491 . S
C956 H947 0.950 . S
C956 C955 1.398 . S
C956 C957 1.391 . S
C957 H945 0.950 . S
C957 C953 1.393 . S
C957 C956 1.391 . S
C958 H948 0.950 . S
C958 C959 1.386 . S
C958 C960 1.391 . S
C959 C958 1.386 . S
C959 C963 1.393 . S
C960 H949 0.950 . S
C960 C958 1.391 . S
C960 C961 1.400 . S
C961 C955 1.491 . S
C961 C960 1.400 . S
C961 C962 1.398 . S
C962 H950 0.950 . S
C962 C961 1.398 . S
C962 C963 1.391 . S
C963 H951 0.950 . S
C963 C959 1.393 . S
C963 C962 1.391 . S
H964 C972 0.950 . S
H965 C977 0.950 . S
H966 C974 0.950 . S
H967 C976 0.950 . S
H968 C978 0.950 . S
H969 C980 0.950 . S
H970 C982 0.950 . S
H971 C983 0.950 . S
C972 H964 0.950 . S
C972 C973 1.386 . S
C972 C974 1.391 . S
C973 C972 1.386 . S
C973 C977 1.393 . S
C974 H966 0.950 . S
C974 C972 1.391 . S
C974 C975 1.400 . S
C975 C974 1.400 . S
C975 C976 1.398 . S
C975 C981 1.491 . S
C976 H967 0.950 . S
C976 C975 1.398 . S
C976 C977 1.391 . S
C977 H965 0.950 . S
C977 C973 1.393 . S
C977 C976 1.391 . S
C978 H968 0.950 . S
C978 C979 1.386 . S
C978 C980 1.391 . S
C979 C978 1.386 . S
C979 C983 1.393 . S
C980 H969 0.950 . S
C980 C978 1.391 . S
C980 C981 1.400 . S
C981 C975 1.491 . S
C981 C980 1.400 . S
C981 C982 1.398 . S
C982 H970 0.950 . S
C982 C981 1.398 . S
C982 C983 1.391 . S
C983 H971 0.950 . S
C983 C979 1.393 . S
C983 C982 1.391 . S
H984 C992 0.950 . S
H985 C997 0.950 . S
H986 C994 0.950 . S
H987 C996 0.950 . S
H988 C998 0.950 . S
H989 C1000 0.950 . S
H990 C1002 0.950 . S
H991 C1003 0.950 . S
C992 H984 0.950 . S
C992 C993 1.386 . S
C992 C994 1.391 . S
C993 C992 1.386 . S
C993 C997 1.393 . S
C994 H986 0.950 . S
C994 C992 1.391 . S
C994 C995 1.400 . S
C995 C994 1.400 . S
C995 C996 1.398 . S
C995 C1001 1.491 . S
C996 H987 0.950 . S
C996 C995 1.398 . S
C996 C997 1.391 . S
C997 H985 0.950 . S
C997 C993 1.393 . S
C997 C996 1.391 . S
C998 H988 0.950 . S
C998 C999 1.386 . S
C998 C1000 1.391 . S
C999 C998 1.386 . S
C999 C1003 1.393 . S
C1000 H989 0.950 . S
C1000 C998 1.391 . S
C1000 C1001 1.400 . S
C1001 C995 1.491 . S
C1001 C1000 1.400 . S
C1001 C1002 1.398 . S
C1002 H990 0.950 . S
C1002 C1001 1.398 . S
C1002 C1003 1.391 . S
C1003 H991 0.950 . S
C1003 C999 1.393 . S
C1003 C1002 1.391 . S
H1004 C1012 0.950 . S
H1005 C1017 0.950 . S
H1006 C1014 0.950 1_554 S
H1007 C1016 0.950 . S
H1008 C1018 0.950 . S
H1009 C1020 0.950 1_556 S
H1010 C1022 0.950 . S
H1011 C1023 0.950 . S
C1012 H1004 0.950 . S
C1012 C1013 1.386 . S
C1012 C1014 1.391 . S
C1013 C1012 1.386 . S
C1013 C1017 1.393 1_455 S
C1014 H1006 0.950 1_556 S
C1014 C1012 1.391 . S
C1014 C1015 1.400 . S
C1015 C1014 1.400 . S
C1015 C1016 1.398 1_455 S
C1015 C1021 1.491 1_556 S
C1016 H1007 0.950 . S
C1016 C1015 1.398 1_655 S
C1016 C1017 1.391 . S
C1017 H1005 0.950 . S
C1017 C1013 1.393 1_655 S
C1017 C1016 1.391 . S
C1018 H1008 0.950 . S
C1018 C1019 1.386 1_655 S
C1018 C1020 1.391 . S
C1019 C1018 1.386 1_455 S
C1019 C1023 1.393 . S
C1020 H1009 0.950 1_554 S
C1020 C1018 1.391 . S
C1020 C1021 1.400 1_655 S
C1021 C1015 1.491 1_554 S
C1021 C1020 1.400 1_455 S
C1021 C1022 1.398 . S
C1022 H1010 0.950 . S
C1022 C1021 1.398 . S
C1022 C1023 1.391 . S
C1023 H1011 0.950 . S
C1023 C1019 1.393 . S
C1023 C1022 1.391 . S
H1024 C1032 0.950 . S
H1025 C1037 0.950 . S
H1026 C1034 0.950 . S
H1027 C1036 0.950 . S
H1028 C1038 0.950 . S
H1029 C1040 0.950 . S
H1030 C1042 0.950 . S
H1031 C1043 0.950 . S
C1032 H1024 0.950 . S
C1032 C1033 1.386 1_655 S
C1032 C1034 1.391 . S
C1033 C1032 1.386 1_455 S
C1033 C1037 1.393 . S
C1034 H1026 0.950 . S
C1034 C1032 1.391 . S
C1034 C1035 1.400 1_655 S
C1035 C1034 1.400 1_455 S
C1035 C1036 1.398 . S
C1035 C1041 1.491 . S
C1036 H1027 0.950 . S
C1036 C1035 1.398 . S
C1036 C1037 1.391 . S
C1037 H1025 0.950 . S
C1037 C1033 1.393 . S
C1037 C1036 1.391 . S
C1038 H1028 0.950 . S
C1038 C1039 1.386 . S
C1038 C1040 1.391 . S
C1039 C1038 1.386 . S
C1039 C1043 1.393 1_455 S
C1040 H1029 0.950 . S
C1040 C1038 1.391 . S
C1040 C1041 1.400 . S
C1041 C1035 1.491 . S
C1041 C1040 1.400 . S
C1041 C1042 1.398 1_455 S
C1042 H1030 0.950 . S
C1042 C1041 1.398 1_655 S
C1042 C1043 1.391 . S
C1043 H1031 0.950 . S
C1043 C1039 1.393 1_655 S
C1043 C1042 1.391 . S
H1044 C1052 0.950 . S
H1045 C1057 0.950 . S
H1046 C1054 0.950 . S
H1047 C1056 0.950 1_556 S
H1048 C1058 0.950 . S
H1049 C1060 0.950 . S
H1050 C1062 0.950 . S
H1051 C1063 0.950 . S
C1052 H1044 0.950 . S
C1052 C1053 1.386 . S
C1052 C1054 1.391 . S
C1053 C1052 1.386 . S
C1053 C1057 1.393 . S
C1054 H1046 0.950 . S
C1054 C1052 1.391 . S
C1054 C1055 1.400 1_554 S
C1055 C1054 1.400 1_556 S
C1055 C1056 1.398 1_556 S
C1055 C1061 1.491 . S
C1056 H1047 0.950 1_554 S
C1056 C1055 1.398 1_554 S
C1056 C1057 1.391 . S
C1057 H1045 0.950 . S
C1057 C1053 1.393 . S
C1057 C1056 1.391 . S
C1058 H1048 0.950 . S
C1058 C1059 1.386 . S
C1058 C1060 1.391 . S
C1059 C1058 1.386 . S
C1059 C1063 1.393 . S
C1060 H1049 0.950 . S
C1060 C1058 1.391 . S
C1060 C1061 1.400 . S
C1061 C1055 1.491 . S
C1061 C1060 1.400 . S
C1061 C1062 1.398 . S
C1062 H1050 0.950 . S
C1062 C1061 1.398 . S
C1062 C1063 1.391 . S
C1063 H1051 0.950 . S
C1063 C1059 1.393 . S
C1063 C1062 1.391 . S
H1064 C1072 0.950 . S
H1065 C1077 0.950 . S
H1066 C1074 0.950 . S
H1067 C1076 0.950 . S
H1068 C1078 0.950 . S
H1069 C1080 0.950 . S
H1070 C1082 0.950 . S
H1071 C1083 0.950 . S
C1072 H1064 0.950 . S
C1072 C1073 1.386 . S
C1072 C1074 1.391 . S
C1073 C1072 1.386 . S
C1073 C1077 1.393 . S
C1074 H1066 0.950 . S
C1074 C1072 1.391 . S
C1074 C1075 1.400 . S
C1075 C1074 1.400 . S
C1075 C1076 1.398 . S
C1075 C1081 1.491 . S
C1076 H1067 0.950 . S
C1076 C1075 1.398 . S
C1076 C1077 1.391 . S
C1077 H1065 0.950 . S
C1077 C1073 1.393 . S
C1077 C1076 1.391 . S
C1078 H1068 0.950 . S
C1078 C1079 1.386 . S
C1078 C1080 1.391 . S
C1079 C1078 1.386 . S
C1079 C1083 1.393 . S
C1080 H1069 0.950 . S
C1080 C1078 1.391 . S
C1080 C1081 1.400 . S
C1081 C1075 1.491 . S
C1081 C1080 1.400 . S
C1081 C1082 1.398 . S
C1082 H1070 0.950 . S
C1082 C1081 1.398 . S
C1082 C1083 1.391 . S
C1083 H1071 0.950 . S
C1083 C1079 1.393 . S
C1083 C1082 1.391 . S
H1084 C1092 0.950 . S
H1085 C1097 0.950 . S
H1086 C1094 0.950 . S
H1087 C1096 0.950 . S
H1088 C1098 0.950 . S
H1089 C1100 0.950 . S
H1090 C1102 0.950 . S
H1091 C1103 0.950 . S
C1092 H1084 0.950 . S
C1092 C1093 1.386 . S
C1092 C1094 1.391 . S
C1093 C1092 1.386 . S
C1093 C1097 1.393 . S
C1094 H1086 0.950 . S
C1094 C1092 1.391 . S
C1094 C1095 1.400 . S
C1095 C1094 1.400 . S
C1095 C1096 1.398 . S
C1095 C1101 1.491 . S
C1096 H1087 0.950 . S
C1096 C1095 1.398 . S
C1096 C1097 1.391 . S
C1097 H1085 0.950 . S
C1097 C1093 1.393 . S
C1097 C1096 1.391 . S
C1098 H1088 0.950 . S
C1098 C1099 1.386 . S
C1098 C1100 1.391 . S
C1099 C1098 1.386 . S
C1099 C1103 1.393 . S
C1100 H1089 0.950 . S
C1100 C1098 1.391 . S
C1100 C1101 1.400 . S
C1101 C1095 1.491 . S
C1101 C1100 1.400 . S
C1101 C1102 1.398 . S
C1102 H1090 0.950 . S
C1102 C1101 1.398 . S
C1102 C1103 1.391 . S
C1103 H1091 0.950 . S
C1103 C1099 1.393 . S
C1103 C1102 1.391 . S
H1104 C1112 0.950 . S
H1105 C1117 0.950 . S
H1106 C1114 0.950 . S
H1107 C1116 0.950 . S
H1108 C1118 0.950 . S
H1109 C1120 0.950 . S
H1110 C1122 0.950 . S
H1111 C1123 0.950 . S
C1112 H1104 0.950 . S
C1112 C1113 1.386 . S
C1112 C1114 1.391 . S
C1113 C1112 1.386 . S
C1113 C1117 1.393 1_455 S
C1114 H1106 0.950 . S
C1114 C1112 1.391 . S
C1114 C1115 1.400 . S
C1115 C1114 1.400 . S
C1115 C1116 1.398 1_455 S
C1115 C1121 1.491 . S
C1116 H1107 0.950 . S
C1116 C1115 1.398 1_655 S
C1116 C1117 1.391 . S
C1117 H1105 0.950 . S
C1117 C1113 1.393 1_655 S
C1117 C1116 1.391 . S
C1118 H1108 0.950 . S
C1118 C1119 1.386 1_655 S
C1118 C1120 1.391 . S
C1119 C1118 1.386 1_455 S
C1119 C1123 1.393 . S
C1120 H1109 0.950 . S
C1120 C1118 1.391 . S
C1120 C1121 1.400 1_655 S
C1121 C1115 1.491 . S
C1121 C1120 1.400 1_455 S
C1121 C1122 1.398 . S
C1122 H1110 0.950 . S
C1122 C1121 1.398 . S
C1122 C1123 1.391 . S
C1123 H1111 0.950 . S
C1123 C1119 1.393 . S
C1123 C1122 1.391 . S
H1124 C1132 0.950 . S
H1125 C1137 0.950 . S
H1126 C1134 0.950 . S
H1127 C1136 0.950 . S
H1128 C1138 0.950 . S
H1129 C1140 0.950 . S
H1130 C1142 0.950 . S
H1131 C1143 0.950 . S
C1132 H1124 0.950 . S
C1132 C1133 1.386 . S
C1132 C1134 1.391 . S
C1133 C1132 1.386 . S
C1133 C1137 1.393 . S
C1134 H1126 0.950 . S
C1134 C1132 1.391 . S
C1134 C1135 1.400 . S
C1135 C1134 1.400 . S
C1135 C1136 1.398 . S
C1135 C1141 1.491 . S
C1136 H1127 0.950 . S
C1136 C1135 1.398 . S
C1136 C1137 1.391 . S
C1137 H1125 0.950 . S
C1137 C1133 1.393 . S
C1137 C1136 1.391 . S
C1138 H1128 0.950 . S
C1138 C1139 1.386 . S
C1138 C1140 1.391 . S
C1139 C1138 1.386 . S
C1139 C1143 1.393 . S
C1140 H1129 0.950 . S
C1140 C1138 1.391 . S
C1140 C1141 1.400 . S
C1141 C1135 1.491 . S
C1141 C1140 1.400 . S
C1141 C1142 1.398 . S
C1142 H1130 0.950 . S
C1142 C1141 1.398 . S
C1142 C1143 1.391 . S
C1143 H1131 0.950 . S
C1143 C1139 1.393 . S
C1143 C1142 1.391 . S
H1144 C1152 0.950 . S
H1145 C1157 0.950 . S
H1146 C1154 0.950 . S
H1147 C1156 0.950 . S
H1148 C1158 0.950 1_554 S
H1149 C1160 0.950 . S
H1150 C1162 0.950 . S
H1151 C1163 0.950 . S
C1152 H1144 0.950 . S
C1152 C1153 1.386 . S
C1152 C1154 1.391 . S
C1153 C1152 1.386 . S
C1153 C1157 1.393 . S
C1154 H1146 0.950 . S
C1154 C1152 1.391 . S
C1154 C1155 1.400 . S
C1155 C1154 1.400 . S
C1155 C1156 1.398 . S
C1155 C1161 1.491 . S
C1156 H1147 0.950 . S
C1156 C1155 1.398 . S
C1156 C1157 1.391 . S
C1157 H1145 0.950 . S
C1157 C1153 1.393 . S
C1157 C1156 1.391 . S
C1158 H1148 0.950 1_556 S
C1158 C1159 1.386 . S
C1158 C1160 1.391 . S
C1159 C1158 1.386 . S
C1159 C1163 1.393 . S
C1160 H1149 0.950 . S
C1160 C1158 1.391 . S
C1160 C1161 1.400 . S
C1161 C1155 1.491 . S
C1161 C1160 1.400 . S
C1161 C1162 1.398 . S
C1162 H1150 0.950 . S
C1162 C1161 1.398 . S
C1162 C1163 1.391 . S
C1163 H1151 0.950 . S
C1163 C1159 1.393 . S
C1163 C1162 1.391 . S
H1164 C1172 0.950 . S
H1165 C1177 0.950 . S
H1166 C1174 0.950 . S
H1167 C1176 0.950 1_554 S
H1168 C1178 0.950 . S
H1169 C1180 0.950 . S
H1170 C1182 0.950 . S
H1171 C1183 0.950 . S
C1172 H1164 0.950 . S
C1172 C1173 1.386 . S
C1172 C1174 1.391 . S
C1173 C1172 1.386 . S
C1173 C1177 1.393 . S
C1174 H1166 0.950 . S
C1174 C1172 1.391 . S
C1174 C1175 1.400 1_556 S
C1175 C1174 1.400 1_554 S
C1175 C1176 1.398 1_554 S
C1175 C1181 1.491 . S
C1176 H1167 0.950 1_556 S
C1176 C1175 1.398 1_556 S
C1176 C1177 1.391 . S
C1177 H1165 0.950 . S
C1177 C1173 1.393 . S
C1177 C1176 1.391 . S
C1178 H1168 0.950 . S
C1178 C1179 1.386 . S
C1178 C1180 1.391 . S
C1179 C1178 1.386 . S
C1179 C1183 1.393 . S
C1180 H1169 0.950 . S
C1180 C1178 1.391 . S
C1180 C1181 1.400 . S
C1181 C1175 1.491 . S
C1181 C1180 1.400 . S
C1181 C1182 1.398 . S
C1182 H1170 0.950 . S
C1182 C1181 1.398 . S
C1182 C1183 1.391 . S
C1183 H1171 0.950 . S
C1183 C1179 1.393 . S
C1183 C1182 1.391 . S
H1184 C1192 0.950 . S
H1185 C1197 0.950 . S
H1186 C1194 0.950 . S
H1187 C1196 0.950 . S
H1188 C1198 0.950 . S
H1189 C1200 0.950 1_554 S
H1190 C1202 0.950 . S
H1191 C1203 0.950 . S
C1192 H1184 0.950 . S
C1192 C1193 1.386 . S
C1192 C1194 1.391 . S
C1193 C1192 1.386 . S
C1193 C1197 1.393 . S
C1194 H1186 0.950 . S
C1194 C1192 1.391 . S
C1194 C1195 1.400 . S
C1195 C1194 1.400 . S
C1195 C1196 1.398 . S
C1195 C1201 1.491 . S
C1196 H1187 0.950 . S
C1196 C1195 1.398 . S
C1196 C1197 1.391 . S
C1197 H1185 0.950 . S
C1197 C1193 1.393 . S
C1197 C1196 1.391 . S
C1198 H1188 0.950 . S
C1198 C1199 1.386 . S
C1198 C1200 1.391 . S
C1199 C1198 1.386 . S
C1199 C1203 1.393 . S
C1200 H1189 0.950 1_556 S
C1200 C1198 1.391 . S
C1200 C1201 1.400 1_556 S
C1201 C1195 1.491 . S
C1201 C1200 1.400 1_554 S
C1201 C1202 1.398 1_554 S
C1202 H1190 0.950 . S
C1202 C1201 1.398 1_556 S
C1202 C1203 1.391 . S
C1203 H1191 0.950 . S
C1203 C1199 1.393 . S
C1203 C1202 1.391 . S
H1204 C1212 0.950 . S
H1205 C1217 0.950 . S
H1206 C1214 0.950 . S
H1207 C1216 0.950 . S
H1208 C1218 0.950 . S
H1209 C1220 0.950 . S
H1210 C1222 0.950 . S
H1211 C1223 0.950 . S
C1212 H1204 0.950 . S
C1212 C1213 1.386 . S
C1212 C1214 1.391 . S
C1213 C1212 1.386 . S
C1213 C1217 1.393 . S
C1214 H1206 0.950 . S
C1214 C1212 1.391 . S
C1214 C1215 1.400 . S
C1215 C1214 1.400 . S
C1215 C1216 1.398 . S
C1215 C1221 1.491 . S
C1216 H1207 0.950 . S
C1216 C1215 1.398 . S
C1216 C1217 1.391 . S
C1217 H1205 0.950 . S
C1217 C1213 1.393 . S
C1217 C1216 1.391 . S
C1218 H1208 0.950 . S
C1218 C1219 1.386 . S
C1218 C1220 1.391 . S
C1219 C1218 1.386 . S
C1219 C1223 1.393 . S
C1220 H1209 0.950 . S
C1220 C1218 1.391 . S
C1220 C1221 1.400 . S
C1221 C1215 1.491 . S
C1221 C1220 1.400 . S
C1221 C1222 1.398 . S
C1222 H1210 0.950 . S
C1222 C1221 1.398 . S
C1222 C1223 1.391 . S
C1223 H1211 0.950 . S
C1223 C1219 1.393 . S
C1223 C1222 1.391 . S
H1224 C1232 0.950 . S
H1225 C1237 0.950 . S
H1226 C1234 0.950 . S
H1227 C1236 0.950 . S
H1228 C1238 0.950 . S
H1229 C1240 0.950 . S
H1230 C1242 0.950 . S
H1231 C1243 0.950 . S
C1232 H1224 0.950 . S
C1232 C1233 1.386 . S
C1232 C1234 1.391 . S
C1233 C1232 1.386 . S
C1233 C1237 1.393 . S
C1234 H1226 0.950 . S
C1234 C1232 1.391 . S
C1234 C1235 1.400 . S
C1235 C1234 1.400 . S
C1235 C1236 1.398 . S
C1235 C1241 1.491 . S
C1236 H1227 0.950 . S
C1236 C1235 1.398 . S
C1236 C1237 1.391 . S
C1237 H1225 0.950 . S
C1237 C1233 1.393 . S
C1237 C1236 1.391 . S
C1238 H1228 0.950 . S
C1238 C1239 1.386 . S
C1238 C1240 1.391 . S
C1239 C1238 1.386 . S
C1239 C1243 1.393 . S
C1240 H1229 0.950 . S
C1240 C1238 1.391 . S
C1240 C1241 1.400 . S
C1241 C1235 1.491 . S
C1241 C1240 1.400 . S
C1241 C1242 1.398 . S
C1242 H1230 0.950 . S
C1242 C1241 1.398 . S
C1242 C1243 1.391 . S
C1243 H1231 0.950 . S
C1243 C1239 1.393 . S
C1243 C1242 1.391 . S
H1244 C1252 0.950 . S
H1245 C1257 0.950 . S
H1246 C1254 0.950 1_556 S
H1247 C1256 0.950 . S
H1248 C1258 0.950 . S
H1249 C1260 0.950 . S
H1250 C1262 0.950 . S
H1251 C1263 0.950 . S
C1252 H1244 0.950 . S
C1252 C1253 1.386 . S
C1252 C1254 1.391 . S
C1253 C1252 1.386 . S
C1253 C1257 1.393 . S
C1254 H1246 0.950 1_554 S
C1254 C1252 1.391 . S
C1254 C1255 1.400 1_554 S
C1255 C1254 1.400 1_556 S
C1255 C1256 1.398 1_556 S
C1255 C1261 1.491 . S
C1256 H1247 0.950 . S
C1256 C1255 1.398 1_554 S
C1256 C1257 1.391 . S
C1257 H1245 0.950 . S
C1257 C1253 1.393 . S
C1257 C1256 1.391 . S
C1258 H1248 0.950 . S
C1258 C1259 1.386 . S
C1258 C1260 1.391 . S
C1259 C1258 1.386 . S
C1259 C1263 1.393 . S
C1260 H1249 0.950 . S
C1260 C1258 1.391 . S
C1260 C1261 1.400 . S
C1261 C1255 1.491 . S
C1261 C1260 1.400 . S
C1261 C1262 1.398 . S
C1262 H1250 0.950 . S
C1262 C1261 1.398 . S
C1262 C1263 1.391 . S
C1263 H1251 0.950 . S
C1263 C1259 1.393 . S
C1263 C1262 1.391 . S
H1264 C1272 0.950 . S
H1265 C1277 0.950 . S
H1266 C1274 0.950 . S
H1267 C1276 0.950 . S
H1268 C1278 0.950 . S
H1269 C1280 0.950 . S
H1270 C1282 0.950 . S
H1271 C1283 0.950 . S
C1272 H1264 0.950 . S
C1272 C1273 1.386 . S
C1272 C1274 1.391 . S
C1273 C1272 1.386 . S
C1273 C1277 1.393 . S
C1274 H1266 0.950 . S
C1274 C1272 1.391 . S
C1274 C1275 1.400 . S
C1275 C1274 1.400 . S
C1275 C1276 1.398 . S
C1275 C1281 1.491 . S
C1276 H1267 0.950 . S
C1276 C1275 1.398 . S
C1276 C1277 1.391 . S
C1277 H1265 0.950 . S
C1277 C1273 1.393 . S
C1277 C1276 1.391 . S
C1278 H1268 0.950 . S
C1278 C1279 1.386 . S
C1278 C1280 1.391 . S
C1279 C1278 1.386 . S
C1279 C1283 1.393 . S
C1280 H1269 0.950 . S
C1280 C1278 1.391 . S
C1280 C1281 1.400 . S
C1281 C1275 1.491 . S
C1281 C1280 1.400 . S
C1281 C1282 1.398 . S
C1282 H1270 0.950 . S
C1282 C1281 1.398 . S
C1282 C1283 1.391 . S
C1283 H1271 0.950 . S
C1283 C1279 1.393 . S
C1283 C1282 1.391 . S
H1284 C1292 0.950 . S
H1285 C1297 0.950 . S
H1286 C1294 0.950 . S
H1287 C1296 0.950 . S
H1288 C1298 0.950 . S
H1289 C1300 0.950 . S
H1290 C1302 0.950 . S
H1291 C1303 0.950 . S
C1292 H1284 0.950 . S
C1292 C1293 1.386 . S
C1292 C1294 1.391 . S
C1293 C1292 1.386 . S
C1293 C1297 1.393 . S
C1294 H1286 0.950 . S
C1294 C1292 1.391 . S
C1294 C1295 1.400 . S
C1295 C1294 1.400 . S
C1295 C1296 1.398 . S
C1295 C1301 1.491 . S
C1296 H1287 0.950 . S
C1296 C1295 1.398 . S
C1296 C1297 1.391 . S
C1297 H1285 0.950 . S
C1297 C1293 1.393 . S
C1297 C1296 1.391 . S
C1298 H1288 0.950 . S
C1298 C1299 1.386 . S
C1298 C1300 1.391 . S
C1299 C1298 1.386 . S
C1299 C1303 1.393 . S
C1300 H1289 0.950 . S
C1300 C1298 1.391 . S
C1300 C1301 1.400 . S
C1301 C1295 1.491 . S
C1301 C1300 1.400 . S
C1301 C1302 1.398 . S
C1302 H1290 0.950 . S
C1302 C1301 1.398 . S
C1302 C1303 1.391 . S
C1303 H1291 0.950 . S
C1303 C1299 1.393 . S
C1303 C1302 1.391 . S
H1304 C1312 0.950 . S
H1305 C1317 0.950 . S
H1306 C1314 0.950 . S
H1307 C1316 0.950 . S
H1308 C1318 0.950 . S
H1309 C1320 0.950 . S
H1310 C1322 0.950 . S
H1311 C1323 0.950 1_554 S
C1312 H1304 0.950 . S
C1312 C1313 1.386 . S
C1312 C1314 1.391 . S
C1313 C1312 1.386 . S
C1313 C1317 1.393 . S
C1314 H1306 0.950 . S
C1314 C1312 1.391 . S
C1314 C1315 1.400 . S
C1315 C1314 1.400 . S
C1315 C1316 1.398 . S
C1315 C1321 1.491 . S
C1316 H1307 0.950 . S
C1316 C1315 1.398 . S
C1316 C1317 1.391 . S
C1317 H1305 0.950 . S
C1317 C1313 1.393 . S
C1317 C1316 1.391 . S
C1318 H1308 0.950 . S
C1318 C1319 1.386 . S
C1318 C1320 1.391 . S
C1319 C1318 1.386 . S
C1319 C1323 1.393 . S
C1320 H1309 0.950 . S
C1320 C1318 1.391 . S
C1320 C1321 1.400 . S
C1321 C1315 1.491 . S
C1321 C1320 1.400 . S
C1321 C1322 1.398 . S
C1322 H1310 0.950 . S
C1322 C1321 1.398 . S
C1322 C1323 1.391 . S
C1323 H1311 0.950 1_556 S
C1323 C1319 1.393 . S
C1323 C1322 1.391 . S
H1324 C1332 0.950 . S
H1325 C1337 0.950 . S
H1326 C1334 0.950 . S
H1327 C1336 0.950 . S
H1328 C1338 0.950 . S
H1329 C1340 0.950 . S
H1330 C1342 0.950 . S
H1331 C1343 0.950 . S
C1332 H1324 0.950 . S
C1332 C1333 1.386 . S
C1332 C1334 1.391 . S
C1333 C1332 1.386 . S
C1333 C1337 1.393 . S
C1334 H1326 0.950 . S
C1334 C1332 1.391 . S
C1334 C1335 1.400 . S
C1335 C1334 1.400 . S
C1335 C1336 1.398 . S
C1335 C1341 1.491 . S
C1336 H1327 0.950 . S
C1336 C1335 1.398 . S
C1336 C1337 1.391 . S
C1337 H1325 0.950 . S
C1337 C1333 1.393 . S
C1337 C1336 1.391 . S
C1338 H1328 0.950 . S
C1338 C1339 1.386 . S
C1338 C1340 1.391 . S
C1339 C1338 1.386 . S
C1339 C1343 1.393 . S
C1340 H1329 0.950 . S
C1340 C1338 1.391 . S
C1340 C1341 1.400 . S
C1341 C1335 1.491 . S
C1341 C1340 1.400 . S
C1341 C1342 1.398 . S
C1342 H1330 0.950 . S
C1342 C1341 1.398 . S
C1342 C1343 1.391 . S
C1343 H1331 0.950 . S
C1343 C1339 1.393 . S
C1343 C1342 1.391 . S
C553 C271 1.205 . S
C559 C33 1.206 . S
C573 C67 1.218 . S
C579 C169 1.214 . S
C593 C101 1.203 . S
C599 C203 1.213 . S
C613 C237 1.219 . S
C619 C135 1.210 . S
C633 C376 1.670 . S
C639 C138 1.670 . S
C653 C274 1.657 . S
C659 C2 1.657 . S
C673 C206 1.671 . S
C679 C342 1.671 . S
C693 C70 1.665 . S
C699 C308 1.666 . S
C713 C339 1.211 . S
C719 C441 1.203 . S
C733 C509 1.209 . S
C739 C373 1.219 . S
C753 C475 1.213 . S
C759 C305 1.218 . S
C773 C407 1.207 . S
C779 C543 1.218 . S
C793 C104 1.669 . S
C799 C478 1.669 . S
C813 C172 1.659 . S
C819 C410 1.659 . S
C833 C36 1.667 . S
C839 C512 1.666 . S
C853 C240 1.665 . S
C859 C444 1.666 . S
C873 C20 1.660 . S
C879 C156 1.660 . S
C893 C190 1.681 . S
C899 C54 1.675 . S
C913 C224 1.660 . S
C919 C88 1.659 . S
C933 C122 1.680 . S
C939 C258 1.672 . S
C953 C360 1.680 . S
C959 C292 1.680 . S
C973 C326 1.681 . S
C979 C394 1.674 . S
C993 C428 1.676 . S
C999 C496 1.666 . S
C1013 C530 1.667 . S
C1019 C462 1.660 . S
C1033 C9 0.832 . S
C1039 C5 0.860 . S
C1053 C43 0.857 . S
C1059 C39 0.863 . S
C1073 C73 0.865 1_554 S
C1079 C77 0.851 . S
C1093 C107 0.820 . S
C1099 C111 0.814 . S
C1113 C141 0.823 . S
C1119 C145 0.822 . S
C1133 C175 0.853 . S
C1139 C179 0.818 . S
C1153 C213 0.858 . S
C1159 C209 0.862 1_556 S
C1173 C247 0.856 . S
C1179 C243 0.863 . S
C1193 C277 0.839 . S
C1199 C281 0.846 . S
C1213 C311 0.836 . S
C1219 C315 0.799 . S
C1233 C349 0.799 . S
C1239 C345 0.836 . S
C1253 C383 0.806 . S
C1259 C379 0.818 . S
C1273 C417 0.822 . S
C1279 C413 0.823 1_554 S
C1293 C451 0.795 . S
C1299 C447 0.822 . S
C1313 C485 0.795 . S
C1319 C481 0.830 1_556 S
C1333 C515 0.839 . S
C1339 C519 0.846 . S
