# Generated by pormake.
# Topology smu, (6)-cn, num edge types: 1
# Building blocks:
#     Node 0, Type 0, BuildingBlock: JUFBIX_clean_sbu_0, # of connection points: 6
#     Node 1, Type 0, BuildingBlock: JUFBIX_clean_sbu_0, # of connection points: 6
#     Node 2, Type 0, BuildingBlock: JUFBIX_clean_sbu_0, # of connection points: 6
#     Node 3, Type 0, BuildingBlock: JUFBIX_clean_sbu_0, # of connection points: 6
#     Node 4, Type 0, BuildingBlock: JUFBIX_clean_sbu_0, # of connection points: 6
#     Node 5, Type 0, BuildingBlock: JUFBIX_clean_sbu_0, # of connection points: 6
#     Edge 6, Type (0, 0), BuildingBlock: OJICUG_clean_linker_0, # of connection points: 2
#     Edge 7, Type (0, 0), BuildingBlock: OJICUG_clean_linker_0, # of connection points: 2
#     Edge 8, Type (0, 0), BuildingBlock: OJICUG_clean_linker_0, # of connection points: 2
#     Edge 9, Type (0, 0), BuildingBlock: OJICUG_clean_linker_0, # of connection points: 2
#     Edge 10, Type (0, 0), BuildingBlock: OJICUG_clean_linker_0, # of connection points: 2
#     Edge 11, Type (0, 0), BuildingBlock: OJICUG_clean_linker_0, # of connection points: 2
#     Edge 12, Type (0, 0), BuildingBlock: OJICUG_clean_linker_0, # of connection points: 2
#     Edge 13, Type (0, 0), BuildingBlock: OJICUG_clean_linker_0, # of connection points: 2
#     Edge 14, Type (0, 0), BuildingBlock: OJICUG_clean_linker_0, # of connection points: 2
#     Edge 15, Type (0, 0), BuildingBlock: OJICUG_clean_linker_0, # of connection points: 2
#     Edge 16, Type (0, 0), BuildingBlock: OJICUG_clean_linker_0, # of connection points: 2
#     Edge 17, Type (0, 0), BuildingBlock: OJICUG_clean_linker_0, # of connection points: 2
#     Edge 18, Type (0, 0), BuildingBlock: OJICUG_clean_linker_0, # of connection points: 2
#     Edge 19, Type (0, 0), BuildingBlock: OJICUG_clean_linker_0, # of connection points: 2
#     Edge 20, Type (0, 0), BuildingBlock: OJICUG_clean_linker_0, # of connection points: 2
#     Edge 21, Type (0, 0), BuildingBlock: OJICUG_clean_linker_0, # of connection points: 2
#     Edge 22, Type (0, 0), BuildingBlock: OJICUG_clean_linker_0, # of connection points: 2
#     Edge 23, Type (0, 0), BuildingBlock: OJICUG_clean_linker_0, # of connection points: 2
# Relax obj value: 0.442
# Max RMSD: 0.310
# Mean RMSD: 0.309
data_MOF--net-smu--node1-JUFBIX_clean_sbu_0--edge1-OJICUG_clean_linker_0
_symmetry_space_group_name_H-M    P1
_symmetry_Int_Tables_number       1
_symmetry_cell_setting            triclinic
loop_
_symmetry_equiv_pos_as_xyz
'x, y, z'
_cell_length_a     23.427957
_cell_length_b     23.460546
_cell_length_c     20.516644
_cell_angle_alpha  91.802671
_cell_angle_beta   89.340427
_cell_angle_gamma 120.19026
loop_
_atom_site_label
_atom_site_type_symbol
_atom_site_fract_x
_atom_site_fract_y
_atom_site_fract_z
_atom_type_partial_charge
Co0 Co 0.34711 0.03995 0.26735 0.0
C1 C 0.39917 0.10401 0.15549 0.0
Co2 Co 0.4195 0.14413 0.28714 0.0
C3 C 0.21909 0.93302 0.27358 0.0
C4 C 0.27096 0.913 0.19828 0.0
N5 N 0.28029 0.95362 0.25014 0.0
N6 N 0.17151 0.88439 0.23655 0.0
C7 C 0.20393 0.87052 0.18962 0.0
H8 H 0.20908 0.95995 0.31142 0.0
H9 H 0.30914 0.91924 0.16422 0.0
C10 C 0.36366 0.06666 0.39776 0.0
N11 N 0.47997 0.23356 0.30523 0.0
C12 C 0.4799 0.28693 0.2815 0.0
C13 C 0.52508 0.25829 0.35377 0.0
N14 N 0.52201 0.34357 0.31435 0.0
C15 C 0.55084 0.32556 0.35949 0.0
C16 C 0.29681 0.12629 0.27398 0.0
O17 O 0.32777 1.02637 0.3539 0.0
O18 O 0.41012 0.12384 0.38154 0.0
O19 O 0.3545 0.16569 0.29329 0.0
O20 O 0.28158 0.06794 0.25626 0.0
O21 O 0.42654 0.15736 0.19094 0.0
H22 H 0.53662 0.22893 0.38476 0.0
H23 H 0.44708 0.28379 0.24305 0.0
O24 O 0.3646 0.04965 0.1819 0.0
O25 O 0.41758 1.01741 0.27729 0.0
O26 O 0.48603 0.12517 0.28197 0.0
C27 C 0.47676 0.06722 0.28019 0.0
H28 H 0.18096 0.8362 0.14881 0.0
H29 H 0.58788 0.35869 0.39443 0.0
Co30 Co 0.79103 0.66252 0.25738 0.0
C31 C 0.76038 0.69776 0.13745 0.0
Co32 Co 0.76088 0.73713 0.26094 0.0
C33 C 0.87388 0.60291 0.27354 0.0
C34 C 0.79578 0.55038 0.20396 0.0
N35 N 0.81878 0.60008 0.24907 0.0
N36 N 0.88686 0.55826 0.24396 0.0
C37 C 0.83735 0.52483 0.20065 0.0
H38 H 0.90632 0.63986 0.30911 0.0
H39 H 0.75358 0.53617 0.17266 0.0
C40 C 0.78305 0.70742 0.38206 0.0
N41 N 0.74093 0.80436 0.26836 0.0
C42 C 0.78041 0.86482 0.24431 0.0
C43 C 0.70713 0.81409 0.31682 0.0
N44 N 0.77709 0.91267 0.27907 0.0
C45 C 0.72956 0.88073 0.32375 0.0
C46 C 0.65708 0.60693 0.26786 0.0
O47 O 0.78934 0.66089 0.35456 0.0
O48 O 0.7767 0.74677 0.34717 0.0
O49 O 0.66851 0.66633 0.27628 0.0
O50 O 0.70438 0.59692 0.25595 0.0
O51 O 0.74344 0.7298 0.17507 0.0
H52 H 0.67544 0.77688 0.35069 0.0
H53 H 0.81776 0.87484 0.20785 0.0
O54 O 0.78823 0.66758 0.16083 0.0
O55 O 0.87853 0.72612 0.25865 0.0
O56 O 0.85413 0.80321 0.24607 0.0
C57 C 0.89707 0.78554 0.24994 0.0
H58 H 0.83231 0.48546 0.16786 0.0
H59 H 0.71654 0.90411 0.36281 0.0
Co60 Co 1.04471 0.32228 0.2718 0.0
C61 C 0.97604 0.30252 0.15985 0.0
Co62 Co 0.94116 0.29531 0.29223 0.0
C63 C 0.15337 0.30452 0.28172 0.0
C64 C 0.1662 0.36366 0.19961 0.0
N65 N 0.13021 0.34051 0.25435 0.0
N66 N 0.1987 0.30012 0.24453 0.0
C67 C 0.20801 0.3383 0.19317 0.0
H68 H 0.13011 0.27376 0.32314 0.0
H69 H 0.15658 0.38962 0.16254 0.0
C70 C 1.02338 0.32396 0.40261 0.0
N71 N 0.85239 0.26789 0.31013 0.0
C72 C 0.79784 0.21408 0.28487 0.0
C73 C 0.82958 0.28907 0.36036 0.0
N74 N 0.74241 0.19999 0.31847 0.0
C75 C 0.76234 0.24759 0.36562 0.0
C76 C 0.95646 0.18719 0.28396 0.0
O77 O 0.06425 0.33201 0.35859 0.0
O78 O 0.96366 0.30602 0.38676 0.0
O79 O 0.91713 0.20808 0.29332 0.0
O80 O 1.01688 0.22805 0.27302 0.0
O81 O 0.9259 0.28963 0.1958 0.0
H82 H 0.86033 0.33016 0.39305 0.0
H83 H 0.79937 0.18348 0.24506 0.0
O84 O 1.02905 0.31427 0.18593 0.0
O85 O 0.06713 0.41629 0.26946 0.0
O86 O 0.96246 0.38132 0.29226 0.0
C87 C 1.01989 0.42827 0.28098 0.0
H88 H 0.23841 0.34291 0.15128 0.0
H89 H 0.73062 0.2517 0.40195 0.0
Co90 Co 0.15935 0.40307 0.79244 0.0
C91 C 0.07735 0.34645 0.9018 0.0
Co92 Co 0.05494 0.32983 0.77054 0.0
C93 C 0.30249 0.46432 0.78602 0.0
C94 C 0.27205 0.50803 0.86173 0.0
N95 N 0.24839 0.46354 0.81166 0.0
N96 N 0.35864 0.50644 0.81897 0.0
C97 C 0.33946 0.53436 0.86631 0.0
H98 H 0.30023 0.43218 0.74586 0.0
H99 H 0.24191 0.51888 0.89434 0.0
C100 C 0.12375 0.38264 0.6603 0.0
N101 N 0.96912 0.26304 0.75148 0.0
C102 C 0.94703 0.20223 0.77456 0.0
C103 C 0.93159 0.25297 0.69819 0.0
N104 N 0.90071 0.15417 0.73597 0.0
C105 C 0.88968 0.18589 0.68833 0.0
C106 C 0.08203 0.45989 0.78601 0.0
O107 O 0.17547 0.41307 0.69663 0.0
O108 O 0.0689 0.34495 0.6854 0.0
O109 O 1.03255 0.40093 0.77827 0.0
O110 O 0.13972 0.46907 0.79205 0.0
O111 O 1.03718 0.31293 0.85704 0.0
H112 H 0.93995 0.29062 0.66406 0.0
H113 H 0.97172 0.19278 0.81347 0.0
O114 O 0.13624 0.39085 0.88666 0.0
O115 O 0.18149 0.33854 0.7935 0.0
O116 O 0.08281 0.26377 0.7613 0.0
C117 C 0.14173 0.28006 0.77595 0.0
H118 H 0.37184 0.57123 0.90196 0.0
H119 H 0.8579 0.16238 0.64638 0.0
Co120 Co 0.30938 0.92509 0.77972 0.0
C121 C 0.33485 1.0052 0.89436 0.0
Co122 Co 0.33986 1.02952 0.76524 0.0
C123 C 0.22668 0.78111 0.77353 0.0
C124 C 0.30767 0.81528 0.84046 0.0
N125 N 0.28237 0.83642 0.79468 0.0
N126 N 0.21559 0.72698 0.80572 0.0
C127 C 0.26685 0.74843 0.84742 0.0
H128 H 0.19272 0.78123 0.73825 0.0
H129 H 0.35122 0.84707 0.86941 0.0
C130 C 0.32375 0.96245 0.65011 0.0
N131 N 0.35816 0.11501 0.75149 0.0
C132 C 0.31974 0.13665 0.7792 0.0
C133 C 0.38474 0.15283 0.69902 0.0
N134 N 0.31752 0.18307 0.74439 0.0
C135 C 0.35929 0.19444 0.69426 0.0
C136 C 0.44398 1.00444 0.77157 0.0
O137 O 0.30243 0.91 0.68323 0.0
O138 O 0.34111 1.01666 0.67889 0.0
O139 O 0.43385 0.05344 0.76936 0.0
O140 O 0.39568 0.94631 0.77501 0.0
O141 O 0.34056 0.04599 0.85292 0.0
H142 H 0.41352 0.14487 0.66206 0.0
H143 H 0.28603 0.11167 0.81867 0.0
O144 O 0.32105 0.94709 0.87492 0.0
O145 O 0.22206 0.90155 0.78474 0.0
O146 O 0.24543 1.00048 0.7594 0.0
C147 C 0.20294 0.94115 0.77167 0.0
H148 H 0.27369 0.718 0.88148 0.0
H149 H 0.36655 0.22625 0.65413 0.0
Co150 Co 0.67834 0.77483 0.76009 0.0
C151 C 0.72975 0.76417 0.87952 0.0
Co152 Co 0.75218 0.74391 0.75409 0.0
C153 C 0.61947 0.85923 0.74996 0.0
C154 C 0.5642 0.77598 0.81021 0.0
N155 N 0.61565 0.8023 0.76871 0.0
N156 N 0.57366 0.86989 0.7797 0.0
C157 C 0.53858 0.81729 0.81713 0.0
H158 H 0.658 0.89451 0.71899 0.0
H159 H 0.54899 0.73171 0.83715 0.0
C160 C 0.7055 0.74579 0.63467 0.0
N161 N 0.82017 0.72492 0.74795 0.0
C162 C 0.87972 0.76695 0.77488 0.0
C163 C 0.83267 0.69091 0.70123 0.0
N164 N 0.92926 0.7636 0.74492 0.0
C165 C 0.89999 0.71509 0.69892 0.0
C166 C 0.62274 0.64067 0.76556 0.0
O167 O 0.67667 0.77427 0.66285 0.0
O168 O 0.73809 0.72817 0.66803 0.0
O169 O 0.68224 0.65162 0.76948 0.0
O170 O 0.61278 0.68815 0.75758 0.0
O171 O 0.76783 0.75776 0.84058 0.0
H172 H 0.79681 0.65696 0.6659 0.0
H173 H 0.88783 0.80619 0.80944 0.0
O174 O 0.68309 0.77123 0.8566 0.0
O175 O 0.74236 0.86213 0.76301 0.0
O176 O 0.81781 0.83682 0.73848 0.0
C177 C 0.80109 0.88016 0.74867 0.0
H178 H 0.4984 0.81022 0.84884 0.0
H179 H 0.92568 0.70188 0.66275 0.0
C180 C 0.39481 1.01883 0.99929 0.0
C181 C 0.35303 1.03163 0.96214 0.0
H182 H 0.44817 0.03817 0.089 0.0
C183 C 0.339 0.08071 0.98506 0.0
H184 H 0.40867 0.98341 0.98185 0.0
C185 C 0.36275 0.11323 0.04566 0.0
C186 C 0.40237 0.09851 0.0841 0.0
H187 H 0.30824 0.09295 0.95646 0.0
H188 H 0.34603 0.14599 0.06451 0.0
C189 C 0.41961 0.05231 0.05926 0.0
C190 C 0.76467 0.78991 0.53291 0.0
C191 C 0.71171 0.73759 0.56421 0.0
H192 H 0.833 0.82007 0.45383 0.0
C193 C 0.68831 0.67289 0.53877 0.0
H194 H 0.78666 0.83968 0.55344 0.0
C195 C 0.71651 0.66102 0.48283 0.0
C196 C 0.7696 0.7136 0.4517 0.0
H197 H 0.65007 0.6311 0.56423 0.0
H198 H 0.69547 0.61121 0.46283 0.0
C199 C 0.79336 0.77808 0.47785 0.0
C200 C 1.0323 0.37861 0.07147 0.0
C201 C 0.98238 0.31502 0.08949 0.0
H202 H 0.10416 0.43831 1.00026 0.0
C203 C 0.96475 0.26231 0.04494 0.0
H204 H 1.04987 0.41963 0.10619 0.0
C205 C 0.99737 0.27278 0.98489 0.0
C206 C 1.04962 0.33589 0.9686 0.0
H207 H 0.92933 0.21239 0.05841 0.0
H208 H 0.98276 0.23089 0.95159 0.0
C209 C 0.06578 0.38895 1.01207 0.0
C210 C 0.40783 0.04757 0.50048 0.0
C211 C 0.35414 0.03955 0.46377 0.0
H212 H 0.43939 1.02248 0.58718 0.0
C213 C 0.28975 0.99275 0.4836 0.0
H214 H 0.45793 0.08103 0.48511 0.0
C215 C 0.27907 0.95778 0.54089 0.0
C216 C 0.33259 0.96764 0.57913 0.0
H217 H 0.24729 0.98398 0.45506 0.0
H218 H 0.22897 0.92699 0.55785 0.0
C219 C 0.39711 1.01166 0.5572 0.0
C220 C 0.68171 0.71677 0.98806 0.0
C221 C 0.73678 0.75146 0.94822 0.0
H222 H 0.64604 0.66887 0.07907 0.0
C223 C 0.79859 0.76134 0.96902 0.0
H224 H 0.63333 0.70664 0.97265 0.0
C225 C 0.80527 0.73705 0.02797 0.0
C226 C 0.75044 0.70286 0.0679 0.0
H227 H 0.84208 0.78739 0.93897 0.0
H228 H 0.85383 0.74811 0.04389 0.0
C229 C 0.68866 0.69311 0.04759 0.0
C230 C 0.09811 0.32461 0.48829 0.0
C231 C 0.0506 0.34125 0.46964 0.0
H232 H 0.16298 0.32842 0.56367 0.0
C233 C 1.04094 0.38491 0.50983 0.0
H234 H 0.10805 0.29247 0.45711 0.0
C235 C 0.07577 0.40881 0.56887 0.0
C236 C 0.12009 0.3887 0.58967 0.0
H237 H 1.00686 0.4008 0.49553 0.0
H238 H 0.06366 0.43856 0.60127 0.0
C239 C 0.13185 0.34738 0.54794 0.0
C240 C 0.56456 0.07654 0.35043 0.0
C241 C 0.53761 0.06402 0.28721 0.0
H242 H 0.65114 0.13128 0.41012 0.0
C243 C 0.58151 0.08504 0.23412 0.0
H244 H 0.53226 0.06257 0.39241 0.0
C245 C 0.64995 0.12538 0.24421 0.0
C246 C 0.67565 0.14584 0.30767 0.0
H247 H 0.56236 0.0779 0.18486 0.0
H248 H 0.68174 0.14587 0.20243 0.0
C249 C 0.63267 0.11767 0.3606 0.0
C250 C 0.56697 0.49941 0.22831 0.0
C251 C 0.59358 0.54658 0.28 0.0
H252 H 0.52375 0.39732 0.19865 0.0
C253 C 0.58214 0.52393 0.34402 0.0
H254 H 0.57647 0.51525 0.17833 0.0
C255 C 0.55423 0.45644 0.35563 0.0
C256 C 0.53558 0.40998 0.30342 0.0
H257 H 0.60292 0.55883 0.38479 0.0
H258 H 0.55152 0.44108 0.40532 0.0
C259 C 0.53799 0.43174 0.23988 0.0
C260 C 1.01173 0.50604 0.21012 0.0
C261 C 1.02345 0.49236 0.27312 0.0
H262 H 0.95705 0.53627 0.15126 0.0
C263 C 1.00251 0.51657 0.3265 0.0
H264 H 1.02606 0.48748 0.16798 0.0
C265 C 0.96233 0.54435 0.31701 0.0
C266 C 0.94213 0.54808 0.25391 0.0
H267 H 1.00935 0.50556 0.37574 0.0
H268 H 0.94147 0.55622 0.35904 0.0
C269 C 0.97066 0.5326 0.20055 0.0
C270 C 0.09816 0.55951 0.73309 0.0
C271 C 0.07864 0.52101 0.78918 0.0
H272 H 0.15811 0.6563 0.69438 0.0
C273 C 0.09252 0.55395 0.8504 0.0
H274 H 0.09001 0.53575 0.68524 0.0
C275 C 0.13368 0.62261 0.85565 0.0
C276 C 0.16039 0.66018 0.79973 0.0
H277 H 0.07977 0.52594 0.89455 0.0
H278 H 0.14883 0.64579 0.90367 0.0
C279 C 0.13849 0.6286 0.7383 0.0
C280 C 0.52773 0.99555 0.83224 0.0
C281 C 0.50904 1.00902 0.77239 0.0
H282 H 0.56136 0.93837 0.88143 0.0
C283 C 0.5284 0.98931 0.71464 0.0
H284 H 0.51226 1.00857 0.87758 0.0
C285 C 0.55633 0.94849 0.71682 0.0
C286 C 0.56496 0.92657 0.77683 0.0
H287 H 0.51323 0.99735 0.66774 0.0
H288 H 0.56424 0.9283 0.6717 0.0
C289 C 0.55433 0.95385 0.83448 0.0
C290 C 0.47221 0.54169 0.85722 0.0
C291 C 0.42553 0.52065 0.80624 0.0
H292 H 0.57473 0.5923 0.88377 0.0
C293 C 0.44736 0.5206 0.74211 0.0
H294 H 0.45699 0.54101 0.90734 0.0
C295 C 0.51511 0.54909 0.72877 0.0
C296 C 0.56241 0.57774 0.77921 0.0
H297 H 0.41288 0.50454 0.7017 0.0
H298 H 0.53088 0.55644 0.67835 0.0
C299 C 0.53978 0.5693 0.84386 0.0
C300 C 0.24307 0.18467 0.32107 0.0
C301 C 0.25358 0.1539 0.26629 0.0
H302 H 0.21903 0.25661 0.35685 0.0
C303 C 0.24319 0.16975 0.20381 0.0
H304 H 0.25322 0.17495 0.36962 0.0
C305 C 0.22543 0.21801 0.19631 0.0
C306 C 0.21767 0.2509 0.25128 0.0
H307 H 0.25353 0.14844 0.16085 0.0
H308 H 0.21874 0.23022 0.14763 0.0
C309 C 0.22487 0.2323 0.31369 0.0
C310 C 1.00682 0.85099 0.30015 0.0
C311 C 0.96816 0.82992 0.24332 0.0
H312 H 0.10125 0.88251 0.34288 0.0
C313 C 0.9977 0.8294 0.18358 0.0
H314 H 0.9843 0.84878 0.34716 0.0
C315 C 0.0644 0.8474 0.18103 0.0
C316 C 0.10264 0.86572 0.23842 0.0
H317 H 0.96801 0.81062 0.13955 0.0
H318 H 0.08555 0.84573 0.13436 0.0
C319 C 0.07339 0.8689 0.29774 0.0
C320 C 0.9125 0.07886 0.22631 0.0
C321 C 0.92795 0.11558 0.28523 0.0
H322 H 0.8504 0.98541 0.1778 0.0
C323 C 0.89553 0.08402 0.34238 0.0
H324 H 0.9349 0.10288 0.18119 0.0
C325 C 0.84633 1.01766 0.34041 0.0
C326 C 0.82805 0.98134 0.281 0.0
H327 H 0.90526 0.112 0.38802 0.0
H328 H 0.82197 0.99523 0.38538 0.0
C329 C 0.86311 1.01215 0.22425 0.0
C330 C 0.18934 0.22841 0.70431 0.0
C331 C 0.16929 0.23661 0.76692 0.0
H332 H 0.25366 0.20608 0.64785 0.0
C333 C 0.19659 0.22441 0.82149 0.0
H334 H 0.17082 0.2402 0.66166 0.0
C335 C 0.24485 0.20655 0.81385 0.0
C336 C 0.2676 0.20152 0.75146 0.0
H337 H 0.18376 0.23307 0.87027 0.0
H338 H 0.26646 0.19936 0.85694 0.0
C339 C 0.2382 0.21104 0.69658 0.0
C340 C 0.09115 0.8922 0.8178 0.0
C341 C 0.13181 0.91277 0.76273 0.0
H342 H 0.99456 0.82746 0.85517 0.0
C343 C 0.10454 0.88535 0.70119 0.0
H344 H 0.11187 0.91065 0.86602 0.0
C345 C 1.03813 0.83611 0.69514 0.0
C346 C 0.99789 0.81368 0.75062 0.0
H347 H 0.13576 0.89861 0.65843 0.0
H348 H 1.01855 0.81498 0.64729 0.0
C349 C 1.0246 0.84365 0.81172 0.0
C350 C 0.88113 0.05708 0.79737 0.0
C351 C 0.88185 0.0854 0.7377 0.0
H352 H 0.85783 0.96896 0.84692 0.0
C353 C 0.86717 0.04632 0.68005 0.0
H354 H 0.89185 0.08556 0.84268 0.0
C355 C 0.84896 0.97967 0.6826 0.0
C356 C 0.84558 0.95113 0.74266 0.0
H357 H 0.86854 0.06678 0.63315 0.0
H358 H 0.833 0.94934 0.63823 0.0
C359 C 0.863 0.99067 0.79979 0.0
loop_
_geom_bond_atom_site_label_1
_geom_bond_atom_site_label_2
_geom_bond_distance
_geom_bond_site_symmetry_2
_ccdc_geom_bond_type
Co0 N5 2.057 1_545 S
Co0 O17 2.021 . S
Co0 O20 2.062 . S
Co0 O24 2.117 . S
Co0 O25 2.020 . S
C1 O21 1.259 . S
C1 O24 1.258 . S
Co2 N11 2.057 . S
Co2 O18 2.117 . S
Co2 O19 2.020 . S
Co2 O21 2.021 . S
Co2 O26 2.062 . S
C3 N5 1.316 . S
C3 N6 1.347 . S
C3 H8 0.931 . S
C4 N5 1.375 . S
C4 C7 1.350 . S
C4 H9 0.930 . S
N5 Co0 2.057 1_565 S
N5 C3 1.316 . S
N5 C4 1.375 . S
N6 C3 1.347 . S
N6 C7 1.373 . S
C7 C4 1.350 . S
C7 N6 1.373 . S
C7 H28 0.931 . S
H8 C3 0.931 . S
H9 C4 0.930 . S
C10 O17 1.259 . S
C10 O18 1.258 . S
N11 Co2 2.057 . S
N11 C12 1.316 . S
N11 C13 1.375 . S
C12 N11 1.316 . S
C12 N14 1.347 . S
C12 H23 0.931 . S
C13 N11 1.375 . S
C13 C15 1.350 . S
C13 H22 0.930 . S
N14 C12 1.347 . S
N14 C15 1.373 . S
C15 C13 1.350 . S
C15 N14 1.373 . S
C15 H29 0.931 . S
C16 O19 1.256 . S
C16 O20 1.255 . S
O17 Co0 2.021 . S
O17 C10 1.259 . S
O18 Co2 2.117 . S
O18 C10 1.258 . S
O19 Co2 2.020 . S
O19 C16 1.256 . S
O20 Co0 2.062 . S
O20 C16 1.255 . S
O21 C1 1.259 . S
O21 Co2 2.021 . S
H22 C13 0.930 . S
H23 C12 0.931 . S
O24 Co0 2.117 . S
O24 C1 1.258 . S
O25 Co0 2.020 . S
O25 C27 1.256 . S
O26 Co2 2.062 . S
O26 C27 1.255 . S
C27 O25 1.256 . S
C27 O26 1.255 . S
H28 C7 0.931 . S
H29 C15 0.931 . S
Co30 N35 2.057 . S
Co30 O47 2.021 . S
Co30 O50 2.062 . S
Co30 O54 2.117 . S
Co30 O55 2.020 . S
C31 O51 1.259 . S
C31 O54 1.258 . S
Co32 N41 2.057 . S
Co32 O48 2.117 . S
Co32 O49 2.020 . S
Co32 O51 2.021 . S
Co32 O56 2.062 . S
C33 N35 1.316 . S
C33 N36 1.347 . S
C33 H38 0.931 . S
C34 N35 1.375 . S
C34 C37 1.350 . S
C34 H39 0.930 . S
N35 Co30 2.057 . S
N35 C33 1.316 . S
N35 C34 1.375 . S
N36 C33 1.347 . S
N36 C37 1.373 . S
C37 C34 1.350 . S
C37 N36 1.373 . S
C37 H58 0.931 . S
H38 C33 0.931 . S
H39 C34 0.930 . S
C40 O47 1.259 . S
C40 O48 1.258 . S
N41 Co32 2.057 . S
N41 C42 1.316 . S
N41 C43 1.375 . S
C42 N41 1.316 . S
C42 N44 1.347 . S
C42 H53 0.931 . S
C43 N41 1.375 . S
C43 C45 1.350 . S
C43 H52 0.930 . S
N44 C42 1.347 . S
N44 C45 1.373 . S
C45 C43 1.350 . S
C45 N44 1.373 . S
C45 H59 0.931 . S
C46 O49 1.256 . S
C46 O50 1.255 . S
O47 Co30 2.021 . S
O47 C40 1.259 . S
O48 Co32 2.117 . S
O48 C40 1.258 . S
O49 Co32 2.020 . S
O49 C46 1.256 . S
O50 Co30 2.062 . S
O50 C46 1.255 . S
O51 C31 1.259 . S
O51 Co32 2.021 . S
H52 C43 0.930 . S
H53 C42 0.931 . S
O54 Co30 2.117 . S
O54 C31 1.258 . S
O55 Co30 2.020 . S
O55 C57 1.256 . S
O56 Co32 2.062 . S
O56 C57 1.255 . S
C57 O55 1.256 . S
C57 O56 1.255 . S
H58 C37 0.931 . S
H59 C45 0.931 . S
Co60 N65 2.057 1_655 S
Co60 O77 2.021 . S
Co60 O80 2.062 . S
Co60 O84 2.117 . S
Co60 O85 2.020 . S
C61 O81 1.259 . S
C61 O84 1.258 . S
Co62 N71 2.057 . S
Co62 O78 2.117 . S
Co62 O79 2.020 . S
Co62 O81 2.021 . S
Co62 O86 2.062 . S
C63 N65 1.316 . S
C63 N66 1.347 . S
C63 H68 0.931 . S
C64 N65 1.375 . S
C64 C67 1.350 . S
C64 H69 0.930 . S
N65 Co60 2.057 1_455 S
N65 C63 1.316 . S
N65 C64 1.375 . S
N66 C63 1.347 . S
N66 C67 1.373 . S
C67 C64 1.350 . S
C67 N66 1.373 . S
C67 H88 0.931 . S
H68 C63 0.931 . S
H69 C64 0.930 . S
C70 O77 1.259 . S
C70 O78 1.258 . S
N71 Co62 2.057 . S
N71 C72 1.316 . S
N71 C73 1.375 . S
C72 N71 1.316 . S
C72 N74 1.347 . S
C72 H83 0.931 . S
C73 N71 1.375 . S
C73 C75 1.350 . S
C73 H82 0.930 . S
N74 C72 1.347 . S
N74 C75 1.373 . S
C75 C73 1.350 . S
C75 N74 1.373 . S
C75 H89 0.931 . S
C76 O79 1.256 . S
C76 O80 1.255 . S
O77 Co60 2.021 . S
O77 C70 1.259 . S
O78 Co62 2.117 . S
O78 C70 1.258 . S
O79 Co62 2.020 . S
O79 C76 1.256 . S
O80 Co60 2.062 . S
O80 C76 1.255 . S
O81 C61 1.259 . S
O81 Co62 2.021 . S
H82 C73 0.930 . S
H83 C72 0.931 . S
O84 Co60 2.117 . S
O84 C61 1.258 . S
O85 Co60 2.020 . S
O85 C87 1.256 . S
O86 Co62 2.062 . S
O86 C87 1.255 . S
C87 O85 1.256 . S
C87 O86 1.255 . S
H88 C67 0.931 . S
H89 C75 0.931 . S
Co90 N95 2.057 . S
Co90 O107 2.021 . S
Co90 O110 2.062 . S
Co90 O114 2.117 . S
Co90 O115 2.020 . S
C91 O111 1.259 . S
C91 O114 1.258 . S
Co92 N101 2.057 1_455 S
Co92 O108 2.117 . S
Co92 O109 2.020 . S
Co92 O111 2.021 . S
Co92 O116 2.062 . S
C93 N95 1.316 . S
C93 N96 1.347 . S
C93 H98 0.931 . S
C94 N95 1.375 . S
C94 C97 1.350 . S
C94 H99 0.930 . S
N95 Co90 2.057 . S
N95 C93 1.316 . S
N95 C94 1.375 . S
N96 C93 1.347 . S
N96 C97 1.373 . S
C97 C94 1.350 . S
C97 N96 1.373 . S
C97 H118 0.931 . S
H98 C93 0.931 . S
H99 C94 0.930 . S
C100 O107 1.259 . S
C100 O108 1.258 . S
N101 Co92 2.057 1_655 S
N101 C102 1.316 . S
N101 C103 1.375 . S
C102 N101 1.316 . S
C102 N104 1.347 . S
C102 H113 0.931 . S
C103 N101 1.375 . S
C103 C105 1.350 . S
C103 H112 0.930 . S
N104 C102 1.347 . S
N104 C105 1.373 . S
C105 C103 1.350 . S
C105 N104 1.373 . S
C105 H119 0.931 . S
C106 O109 1.256 . S
C106 O110 1.255 . S
O107 Co90 2.021 . S
O107 C100 1.259 . S
O108 Co92 2.117 . S
O108 C100 1.258 . S
O109 Co92 2.020 . S
O109 C106 1.256 . S
O110 Co90 2.062 . S
O110 C106 1.255 . S
O111 C91 1.259 . S
O111 Co92 2.021 . S
H112 C103 0.930 . S
H113 C102 0.931 . S
O114 Co90 2.117 . S
O114 C91 1.258 . S
O115 Co90 2.020 . S
O115 C117 1.256 . S
O116 Co92 2.062 . S
O116 C117 1.255 . S
C117 O115 1.256 . S
C117 O116 1.255 . S
H118 C97 0.931 . S
H119 C105 0.931 . S
Co120 N125 2.057 . S
Co120 O137 2.021 . S
Co120 O140 2.062 . S
Co120 O144 2.117 . S
Co120 O145 2.020 . S
C121 O141 1.259 . S
C121 O144 1.258 . S
Co122 N131 2.057 1_565 S
Co122 O138 2.117 . S
Co122 O139 2.020 . S
Co122 O141 2.021 . S
Co122 O146 2.062 . S
C123 N125 1.316 . S
C123 N126 1.347 . S
C123 H128 0.931 . S
C124 N125 1.375 . S
C124 C127 1.350 . S
C124 H129 0.930 . S
N125 Co120 2.057 . S
N125 C123 1.316 . S
N125 C124 1.375 . S
N126 C123 1.347 . S
N126 C127 1.373 . S
C127 C124 1.350 . S
C127 N126 1.373 . S
C127 H148 0.931 . S
H128 C123 0.931 . S
H129 C124 0.930 . S
C130 O137 1.259 . S
C130 O138 1.258 . S
N131 Co122 2.057 1_545 S
N131 C132 1.316 . S
N131 C133 1.375 . S
C132 N131 1.316 . S
C132 N134 1.347 . S
C132 H143 0.931 . S
C133 N131 1.375 . S
C133 C135 1.350 . S
C133 H142 0.930 . S
N134 C132 1.347 . S
N134 C135 1.373 . S
C135 C133 1.350 . S
C135 N134 1.373 . S
C135 H149 0.931 . S
C136 O139 1.256 . S
C136 O140 1.255 . S
O137 Co120 2.021 . S
O137 C130 1.259 . S
O138 Co122 2.117 . S
O138 C130 1.258 . S
O139 Co122 2.020 . S
O139 C136 1.256 . S
O140 Co120 2.062 . S
O140 C136 1.255 . S
O141 C121 1.259 . S
O141 Co122 2.021 . S
H142 C133 0.930 . S
H143 C132 0.931 . S
O144 Co120 2.117 . S
O144 C121 1.258 . S
O145 Co120 2.020 . S
O145 C147 1.256 . S
O146 Co122 2.062 . S
O146 C147 1.255 . S
C147 O145 1.256 . S
C147 O146 1.255 . S
H148 C127 0.931 . S
H149 C135 0.931 . S
Co150 N155 2.057 . S
Co150 O167 2.021 . S
Co150 O170 2.062 . S
Co150 O174 2.117 . S
Co150 O175 2.020 . S
C151 O171 1.259 . S
C151 O174 1.258 . S
Co152 N161 2.057 . S
Co152 O168 2.117 . S
Co152 O169 2.020 . S
Co152 O171 2.021 . S
Co152 O176 2.062 . S
C153 N155 1.316 . S
C153 N156 1.347 . S
C153 H158 0.931 . S
C154 N155 1.375 . S
C154 C157 1.350 . S
C154 H159 0.930 . S
N155 Co150 2.057 . S
N155 C153 1.316 . S
N155 C154 1.375 . S
N156 C153 1.347 . S
N156 C157 1.373 . S
C157 C154 1.350 . S
C157 N156 1.373 . S
C157 H178 0.931 . S
H158 C153 0.931 . S
H159 C154 0.930 . S
C160 O167 1.259 . S
C160 O168 1.258 . S
N161 Co152 2.057 . S
N161 C162 1.316 . S
N161 C163 1.375 . S
C162 N161 1.316 . S
C162 N164 1.347 . S
C162 H173 0.931 . S
C163 N161 1.375 . S
C163 C165 1.350 . S
C163 H172 0.930 . S
N164 C162 1.347 . S
N164 C165 1.373 . S
C165 C163 1.350 . S
C165 N164 1.373 . S
C165 H179 0.931 . S
C166 O169 1.256 . S
C166 O170 1.255 . S
O167 Co150 2.021 . S
O167 C160 1.259 . S
O168 Co152 2.117 . S
O168 C160 1.258 . S
O169 Co152 2.020 . S
O169 C166 1.256 . S
O170 Co150 2.062 . S
O170 C166 1.255 . S
O171 C151 1.259 . S
O171 Co152 2.021 . S
H172 C163 0.930 . S
H173 C162 0.931 . S
O174 Co150 2.117 . S
O174 C151 1.258 . S
O175 Co150 2.020 . S
O175 C177 1.256 . S
O176 Co152 2.062 . S
O176 C177 1.255 . S
C177 O175 1.256 . S
C177 O176 1.255 . S
H178 C157 0.931 . S
H179 C165 0.931 . S
C180 C181 1.387 . S
C180 H184 0.950 . S
C180 C189 1.390 1_566 S
C181 C180 1.387 . S
C181 C183 1.387 . S
H182 C189 0.950 . S
C183 C181 1.387 . S
C183 C185 1.390 1_566 S
C183 H187 0.950 . S
H184 C180 0.950 . S
C185 C183 1.390 1_544 S
C185 C186 1.387 . S
C185 H188 0.950 . S
C186 C185 1.387 . S
C186 C189 1.387 . S
H187 C183 0.950 . S
H188 C185 0.950 . S
C189 C180 1.390 1_544 S
C189 H182 0.950 . S
C189 C186 1.387 . S
C190 C191 1.387 . S
C190 H194 0.950 . S
C190 C199 1.390 . S
C191 C190 1.387 . S
C191 C193 1.387 . S
H192 C199 0.950 . S
C193 C191 1.387 . S
C193 C195 1.390 . S
C193 H197 0.950 . S
H194 C190 0.950 . S
C195 C193 1.390 . S
C195 C196 1.387 . S
C195 H198 0.950 . S
C196 C195 1.387 . S
C196 C199 1.387 . S
H197 C193 0.950 . S
H198 C195 0.950 . S
C199 C190 1.390 . S
C199 H192 0.950 . S
C199 C196 1.387 . S
C200 C201 1.387 . S
C200 H204 0.950 . S
C200 C209 1.390 1_654 S
C201 C200 1.387 . S
C201 C203 1.387 . S
H202 C209 0.950 . S
C203 C201 1.387 . S
C203 C205 1.390 1_654 S
C203 H207 0.950 . S
H204 C200 0.950 . S
C205 C203 1.390 1_456 S
C205 C206 1.387 . S
C205 H208 0.950 . S
C206 C205 1.387 . S
C206 C209 1.387 . S
H207 C203 0.950 . S
H208 C205 0.950 . S
C209 C200 1.390 1_456 S
C209 H202 0.950 . S
C209 C206 1.387 . S
C210 C211 1.387 . S
C210 H214 0.950 . S
C210 C219 1.390 1_545 S
C211 C210 1.387 . S
C211 C213 1.387 . S
H212 C219 0.950 . S
C213 C211 1.387 . S
C213 C215 1.390 1_545 S
C213 H217 0.950 . S
H214 C210 0.950 . S
C215 C213 1.390 1_565 S
C215 C216 1.387 . S
C215 H218 0.950 . S
C216 C215 1.387 . S
C216 C219 1.387 . S
H217 C213 0.950 . S
H218 C215 0.950 . S
C219 C210 1.390 1_565 S
C219 H212 0.950 . S
C219 C216 1.387 . S
C220 C221 1.387 1_554 S
C220 H224 0.950 . S
C220 C229 1.390 . S
C221 C220 1.387 1_556 S
C221 C223 1.387 . S
H222 C229 0.950 . S
C223 C221 1.387 . S
C223 C225 1.390 . S
C223 H227 0.950 . S
H224 C220 0.950 . S
C225 C223 1.390 . S
C225 C226 1.387 1_556 S
C225 H228 0.950 . S
C226 C225 1.387 1_554 S
C226 C229 1.387 . S
H227 C223 0.950 . S
H228 C225 0.950 . S
C229 C220 1.390 . S
C229 H222 0.950 . S
C229 C226 1.387 . S
C230 C231 1.387 . S
C230 H234 0.950 . S
C230 C239 1.390 1_655 S
C231 C230 1.387 . S
C231 C233 1.387 . S
H232 C239 0.950 . S
C233 C231 1.387 . S
C233 C235 1.390 1_655 S
C233 H237 0.950 . S
H234 C230 0.950 . S
C235 C233 1.390 1_455 S
C235 C236 1.387 . S
C235 H238 0.950 . S
C236 C235 1.387 . S
C236 C239 1.387 . S
H237 C233 0.950 . S
H238 C235 0.950 . S
C239 C230 1.390 1_455 S
C239 H232 0.950 . S
C239 C236 1.387 . S
C240 C241 1.387 . S
C240 H244 0.950 . S
C240 C249 1.390 . S
C241 C240 1.387 . S
C241 C243 1.387 . S
H242 C249 0.950 . S
C243 C241 1.387 . S
C243 C245 1.390 . S
C243 H247 0.950 . S
H244 C240 0.950 . S
C245 C243 1.390 . S
C245 C246 1.387 . S
C245 H248 0.950 . S
C246 C245 1.387 . S
C246 C249 1.387 . S
H247 C243 0.950 . S
H248 C245 0.950 . S
C249 C240 1.390 . S
C249 H242 0.950 . S
C249 C246 1.387 . S
C250 C251 1.387 . S
C250 H254 0.950 . S
C250 C259 1.390 . S
C251 C250 1.387 . S
C251 C253 1.387 . S
H252 C259 0.950 . S
C253 C251 1.387 . S
C253 C255 1.390 . S
C253 H257 0.950 . S
H254 C250 0.950 . S
C255 C253 1.390 . S
C255 C256 1.387 . S
C255 H258 0.950 . S
C256 C255 1.387 . S
C256 C259 1.387 . S
H257 C253 0.950 . S
H258 C255 0.950 . S
C259 C250 1.390 . S
C259 H252 0.950 . S
C259 C256 1.387 . S
C260 C261 1.387 . S
C260 H264 0.950 . S
C260 C269 1.390 . S
C261 C260 1.387 . S
C261 C263 1.387 . S
H262 C269 0.950 . S
C263 C261 1.387 . S
C263 C265 1.390 . S
C263 H267 0.950 . S
H264 C260 0.950 . S
C265 C263 1.390 . S
C265 C266 1.387 . S
C265 H268 0.950 . S
C266 C265 1.387 . S
C266 C269 1.387 . S
H267 C263 0.950 . S
H268 C265 0.950 . S
C269 C260 1.390 . S
C269 H262 0.950 . S
C269 C266 1.387 . S
C270 C271 1.387 . S
C270 H274 0.950 . S
C270 C279 1.390 . S
C271 C270 1.387 . S
C271 C273 1.387 . S
H272 C279 0.950 . S
C273 C271 1.387 . S
C273 C275 1.390 . S
C273 H277 0.950 . S
H274 C270 0.950 . S
C275 C273 1.390 . S
C275 C276 1.387 . S
C275 H278 0.950 . S
C276 C275 1.387 . S
C276 C279 1.387 . S
H277 C273 0.950 . S
H278 C275 0.950 . S
C279 C270 1.390 . S
C279 H272 0.950 . S
C279 C276 1.387 . S
C280 C281 1.387 . S
C280 H284 0.950 . S
C280 C289 1.390 . S
C281 C280 1.387 . S
C281 C283 1.387 . S
H282 C289 0.950 . S
C283 C281 1.387 . S
C283 C285 1.390 . S
C283 H287 0.950 . S
H284 C280 0.950 . S
C285 C283 1.390 . S
C285 C286 1.387 . S
C285 H288 0.950 . S
C286 C285 1.387 . S
C286 C289 1.387 . S
H287 C283 0.950 . S
H288 C285 0.950 . S
C289 C280 1.390 . S
C289 H282 0.950 . S
C289 C286 1.387 . S
C290 C291 1.387 . S
C290 H294 0.950 . S
C290 C299 1.390 . S
C291 C290 1.387 . S
C291 C293 1.387 . S
H292 C299 0.950 . S
C293 C291 1.387 . S
C293 C295 1.390 . S
C293 H297 0.950 . S
H294 C290 0.950 . S
C295 C293 1.390 . S
C295 C296 1.387 . S
C295 H298 0.950 . S
C296 C295 1.387 . S
C296 C299 1.387 . S
H297 C293 0.950 . S
H298 C295 0.950 . S
C299 C290 1.390 . S
C299 H292 0.950 . S
C299 C296 1.387 . S
C300 C301 1.387 . S
C300 H304 0.950 . S
C300 C309 1.390 . S
C301 C300 1.387 . S
C301 C303 1.387 . S
H302 C309 0.950 . S
C303 C301 1.387 . S
C303 C305 1.390 . S
C303 H307 0.950 . S
H304 C300 0.950 . S
C305 C303 1.390 . S
C305 C306 1.387 . S
C305 H308 0.950 . S
C306 C305 1.387 . S
C306 C309 1.387 . S
H307 C303 0.950 . S
H308 C305 0.950 . S
C309 C300 1.390 . S
C309 H302 0.950 . S
C309 C306 1.387 . S
C310 C311 1.387 . S
C310 H314 0.950 . S
C310 C319 1.390 1_655 S
C311 C310 1.387 . S
C311 C313 1.387 . S
H312 C319 0.950 . S
C313 C311 1.387 . S
C313 C315 1.390 1_655 S
C313 H317 0.950 . S
H314 C310 0.950 . S
C315 C313 1.390 1_455 S
C315 C316 1.387 . S
C315 H318 0.950 . S
C316 C315 1.387 . S
C316 C319 1.387 . S
H317 C313 0.950 . S
H318 C315 0.950 . S
C319 C310 1.390 1_455 S
C319 H312 0.950 . S
C319 C316 1.387 . S
C320 C321 1.387 . S
C320 H324 0.950 . S
C320 C329 1.390 1_545 S
C321 C320 1.387 . S
C321 C323 1.387 . S
H322 C329 0.950 . S
C323 C321 1.387 . S
C323 C325 1.390 1_545 S
C323 H327 0.950 . S
H324 C320 0.950 . S
C325 C323 1.390 1_565 S
C325 C326 1.387 . S
C325 H328 0.950 . S
C326 C325 1.387 . S
C326 C329 1.387 . S
H327 C323 0.950 . S
H328 C325 0.950 . S
C329 C320 1.390 1_565 S
C329 H322 0.950 . S
C329 C326 1.387 . S
C330 C331 1.387 . S
C330 H334 0.950 . S
C330 C339 1.390 . S
C331 C330 1.387 . S
C331 C333 1.387 . S
H332 C339 0.950 . S
C333 C331 1.387 . S
C333 C335 1.390 . S
C333 H337 0.950 . S
H334 C330 0.950 . S
C335 C333 1.390 . S
C335 C336 1.387 . S
C335 H338 0.950 . S
C336 C335 1.387 . S
C336 C339 1.387 . S
H337 C333 0.950 . S
H338 C335 0.950 . S
C339 C330 1.390 . S
C339 H332 0.950 . S
C339 C336 1.387 . S
C340 C341 1.387 . S
C340 H344 0.950 . S
C340 C349 1.390 1_455 S
C341 C340 1.387 . S
C341 C343 1.387 . S
H342 C349 0.950 . S
C343 C341 1.387 . S
C343 C345 1.390 1_455 S
C343 H347 0.950 . S
H344 C340 0.950 . S
C345 C343 1.390 1_655 S
C345 C346 1.387 . S
C345 H348 0.950 . S
C346 C345 1.387 . S
C346 C349 1.387 . S
H347 C343 0.950 . S
H348 C345 0.950 . S
C349 C340 1.390 1_655 S
C349 H342 0.950 . S
C349 C346 1.387 . S
C350 C351 1.387 . S
C350 H354 0.950 . S
C350 C359 1.390 1_545 S
C351 C350 1.387 . S
C351 C353 1.387 . S
H352 C359 0.950 . S
C353 C351 1.387 . S
C353 C355 1.390 1_545 S
C353 H357 0.950 . S
H354 C350 0.950 . S
C355 C353 1.390 1_565 S
C355 C356 1.387 . S
C355 H358 0.950 . S
C356 C355 1.387 . S
C356 C359 1.387 . S
H357 C353 0.950 . S
H358 C355 0.950 . S
C359 C350 1.390 1_565 S
C359 H352 0.950 . S
C359 C356 1.387 . S
C181 C121 2.016 . S
C186 C1 2.116 . S
C191 C160 2.183 . S
C196 C40 2.185 . S
C201 C61 2.205 . S
C206 C91 2.100 . S
C211 C10 2.126 . S
C216 C130 2.233 . S
C221 C151 2.062 . S
C226 C31 2.061 . S
C231 C70 2.042 . S
C236 C100 2.144 . S
C241 C27 1.347 . S
C246 N74 1.350 . S
C251 C46 1.350 . S
C256 N14 1.357 . S
C261 C87 1.350 . S
C266 N36 1.355 . S
C271 C106 1.349 . S
C276 N126 1.347 . S
C281 C136 1.350 . S
C286 N156 1.357 . S
C291 N96 1.361 . S
C296 C166 1.351 . S
C301 C16 1.266 . S
C306 N66 1.218 . S
C311 C57 1.268 . S
C316 N6 1.215 . S
C321 C76 1.262 . S
C326 N44 1.211 . S
C331 C117 1.267 . S
C336 N134 1.214 . S
C341 C147 1.263 . S
C346 N164 1.210 . S
C351 N104 1.216 . S
C356 C177 1.263 . S
