# Generated by pormake.
# Topology wna, (6)-cn, num edge types: 1
# Building blocks:
#     Node 0, Type 0, BuildingBlock: BETDAH_clean_sbu_0, # of connection points: 6
#     Node 1, Type 0, BuildingBlock: BETDAH_clean_sbu_0, # of connection points: 6
#     Node 2, Type 0, BuildingBlock: BETDAH_clean_sbu_0, # of connection points: 6
#     Node 3, Type 0, BuildingBlock: BETDAH_clean_sbu_0, # of connection points: 6
#     Node 4, Type 0, BuildingBlock: BETDAH_clean_sbu_0, # of connection points: 6
#     Node 5, Type 0, BuildingBlock: BETDAH_clean_sbu_0, # of connection points: 6
#     Node 6, Type 0, BuildingBlock: BETDAH_clean_sbu_0, # of connection points: 6
#     Node 7, Type 0, BuildingBlock: BETDAH_clean_sbu_0, # of connection points: 6
#     Node 8, Type 0, BuildingBlock: BETDAH_clean_sbu_0, # of connection points: 6
#     Node 9, Type 0, BuildingBlock: BETDAH_clean_sbu_0, # of connection points: 6
#     Node 10, Type 0, BuildingBlock: BETDAH_clean_sbu_0, # of connection points: 6
#     Node 11, Type 0, BuildingBlock: BETDAH_clean_sbu_0, # of connection points: 6
#     Node 12, Type 0, BuildingBlock: BETDAH_clean_sbu_0, # of connection points: 6
#     Node 13, Type 0, BuildingBlock: BETDAH_clean_sbu_0, # of connection points: 6
#     Node 14, Type 0, BuildingBlock: BETDAH_clean_sbu_0, # of connection points: 6
#     Node 15, Type 0, BuildingBlock: BETDAH_clean_sbu_0, # of connection points: 6
#     Node 16, Type 0, BuildingBlock: BETDAH_clean_sbu_0, # of connection points: 6
#     Node 17, Type 0, BuildingBlock: BETDAH_clean_sbu_0, # of connection points: 6
#     Node 18, Type 0, BuildingBlock: BETDAH_clean_sbu_0, # of connection points: 6
#     Node 19, Type 0, BuildingBlock: BETDAH_clean_sbu_0, # of connection points: 6
#     Node 20, Type 0, BuildingBlock: BETDAH_clean_sbu_0, # of connection points: 6
#     Node 21, Type 0, BuildingBlock: BETDAH_clean_sbu_0, # of connection points: 6
#     Node 22, Type 0, BuildingBlock: BETDAH_clean_sbu_0, # of connection points: 6
#     Node 23, Type 0, BuildingBlock: BETDAH_clean_sbu_0, # of connection points: 6
#     Node 24, Type 0, BuildingBlock: BETDAH_clean_sbu_0, # of connection points: 6
#     Node 25, Type 0, BuildingBlock: BETDAH_clean_sbu_0, # of connection points: 6
#     Node 26, Type 0, BuildingBlock: BETDAH_clean_sbu_0, # of connection points: 6
#     Node 27, Type 0, BuildingBlock: BETDAH_clean_sbu_0, # of connection points: 6
#     Node 28, Type 0, BuildingBlock: BETDAH_clean_sbu_0, # of connection points: 6
#     Node 29, Type 0, BuildingBlock: BETDAH_clean_sbu_0, # of connection points: 6
#     Node 30, Type 0, BuildingBlock: BETDAH_clean_sbu_0, # of connection points: 6
#     Node 31, Type 0, BuildingBlock: BETDAH_clean_sbu_0, # of connection points: 6
#     Node 32, Type 0, BuildingBlock: BETDAH_clean_sbu_0, # of connection points: 6
#     Node 33, Type 0, BuildingBlock: BETDAH_clean_sbu_0, # of connection points: 6
#     Node 34, Type 0, BuildingBlock: BETDAH_clean_sbu_0, # of connection points: 6
#     Node 35, Type 0, BuildingBlock: BETDAH_clean_sbu_0, # of connection points: 6
#     Edge 36, Type (0, 0), BuildingBlock: KIFKEQ_clean_linker_1, # of connection points: 2
#     Edge 37, Type (0, 0), BuildingBlock: KIFKEQ_clean_linker_1, # of connection points: 2
#     Edge 38, Type (0, 0), BuildingBlock: KIFKEQ_clean_linker_1, # of connection points: 2
#     Edge 39, Type (0, 0), BuildingBlock: KIFKEQ_clean_linker_1, # of connection points: 2
#     Edge 40, Type (0, 0), BuildingBlock: KIFKEQ_clean_linker_1, # of connection points: 2
#     Edge 41, Type (0, 0), BuildingBlock: KIFKEQ_clean_linker_1, # of connection points: 2
#     Edge 42, Type (0, 0), BuildingBlock: KIFKEQ_clean_linker_1, # of connection points: 2
#     Edge 43, Type (0, 0), BuildingBlock: KIFKEQ_clean_linker_1, # of connection points: 2
#     Edge 44, Type (0, 0), BuildingBlock: KIFKEQ_clean_linker_1, # of connection points: 2
#     Edge 45, Type (0, 0), BuildingBlock: KIFKEQ_clean_linker_1, # of connection points: 2
#     Edge 46, Type (0, 0), BuildingBlock: KIFKEQ_clean_linker_1, # of connection points: 2
#     Edge 47, Type (0, 0), BuildingBlock: KIFKEQ_clean_linker_1, # of connection points: 2
#     Edge 48, Type (0, 0), BuildingBlock: KIFKEQ_clean_linker_1, # of connection points: 2
#     Edge 49, Type (0, 0), BuildingBlock: KIFKEQ_clean_linker_1, # of connection points: 2
#     Edge 50, Type (0, 0), BuildingBlock: KIFKEQ_clean_linker_1, # of connection points: 2
#     Edge 51, Type (0, 0), BuildingBlock: KIFKEQ_clean_linker_1, # of connection points: 2
#     Edge 52, Type (0, 0), BuildingBlock: KIFKEQ_clean_linker_1, # of connection points: 2
#     Edge 53, Type (0, 0), BuildingBlock: KIFKEQ_clean_linker_1, # of connection points: 2
#     Edge 54, Type (0, 0), BuildingBlock: KIFKEQ_clean_linker_1, # of connection points: 2
#     Edge 55, Type (0, 0), BuildingBlock: KIFKEQ_clean_linker_1, # of connection points: 2
#     Edge 56, Type (0, 0), BuildingBlock: KIFKEQ_clean_linker_1, # of connection points: 2
#     Edge 57, Type (0, 0), BuildingBlock: KIFKEQ_clean_linker_1, # of connection points: 2
#     Edge 58, Type (0, 0), BuildingBlock: KIFKEQ_clean_linker_1, # of connection points: 2
#     Edge 59, Type (0, 0), BuildingBlock: KIFKEQ_clean_linker_1, # of connection points: 2
#     Edge 60, Type (0, 0), BuildingBlock: KIFKEQ_clean_linker_1, # of connection points: 2
#     Edge 61, Type (0, 0), BuildingBlock: KIFKEQ_clean_linker_1, # of connection points: 2
#     Edge 62, Type (0, 0), BuildingBlock: KIFKEQ_clean_linker_1, # of connection points: 2
#     Edge 63, Type (0, 0), BuildingBlock: KIFKEQ_clean_linker_1, # of connection points: 2
#     Edge 64, Type (0, 0), BuildingBlock: KIFKEQ_clean_linker_1, # of connection points: 2
#     Edge 65, Type (0, 0), BuildingBlock: KIFKEQ_clean_linker_1, # of connection points: 2
#     Edge 66, Type (0, 0), BuildingBlock: KIFKEQ_clean_linker_1, # of connection points: 2
#     Edge 67, Type (0, 0), BuildingBlock: KIFKEQ_clean_linker_1, # of connection points: 2
#     Edge 68, Type (0, 0), BuildingBlock: KIFKEQ_clean_linker_1, # of connection points: 2
#     Edge 69, Type (0, 0), BuildingBlock: KIFKEQ_clean_linker_1, # of connection points: 2
#     Edge 70, Type (0, 0), BuildingBlock: KIFKEQ_clean_linker_1, # of connection points: 2
#     Edge 71, Type (0, 0), BuildingBlock: KIFKEQ_clean_linker_1, # of connection points: 2
#     Edge 72, Type (0, 0), BuildingBlock: KIFKEQ_clean_linker_1, # of connection points: 2
#     Edge 73, Type (0, 0), BuildingBlock: KIFKEQ_clean_linker_1, # of connection points: 2
#     Edge 74, Type (0, 0), BuildingBlock: KIFKEQ_clean_linker_1, # of connection points: 2
#     Edge 75, Type (0, 0), BuildingBlock: KIFKEQ_clean_linker_1, # of connection points: 2
#     Edge 76, Type (0, 0), BuildingBlock: KIFKEQ_clean_linker_1, # of connection points: 2
#     Edge 77, Type (0, 0), BuildingBlock: KIFKEQ_clean_linker_1, # of connection points: 2
#     Edge 78, Type (0, 0), BuildingBlock: KIFKEQ_clean_linker_1, # of connection points: 2
#     Edge 79, Type (0, 0), BuildingBlock: KIFKEQ_clean_linker_1, # of connection points: 2
#     Edge 80, Type (0, 0), BuildingBlock: KIFKEQ_clean_linker_1, # of connection points: 2
#     Edge 81, Type (0, 0), BuildingBlock: KIFKEQ_clean_linker_1, # of connection points: 2
#     Edge 82, Type (0, 0), BuildingBlock: KIFKEQ_clean_linker_1, # of connection points: 2
#     Edge 83, Type (0, 0), BuildingBlock: KIFKEQ_clean_linker_1, # of connection points: 2
#     Edge 84, Type (0, 0), BuildingBlock: KIFKEQ_clean_linker_1, # of connection points: 2
#     Edge 85, Type (0, 0), BuildingBlock: KIFKEQ_clean_linker_1, # of connection points: 2
#     Edge 86, Type (0, 0), BuildingBlock: KIFKEQ_clean_linker_1, # of connection points: 2
#     Edge 87, Type (0, 0), BuildingBlock: KIFKEQ_clean_linker_1, # of connection points: 2
#     Edge 88, Type (0, 0), BuildingBlock: KIFKEQ_clean_linker_1, # of connection points: 2
#     Edge 89, Type (0, 0), BuildingBlock: KIFKEQ_clean_linker_1, # of connection points: 2
#     Edge 90, Type (0, 0), BuildingBlock: KIFKEQ_clean_linker_1, # of connection points: 2
#     Edge 91, Type (0, 0), BuildingBlock: KIFKEQ_clean_linker_1, # of connection points: 2
#     Edge 92, Type (0, 0), BuildingBlock: KIFKEQ_clean_linker_1, # of connection points: 2
#     Edge 93, Type (0, 0), BuildingBlock: KIFKEQ_clean_linker_1, # of connection points: 2
#     Edge 94, Type (0, 0), BuildingBlock: KIFKEQ_clean_linker_1, # of connection points: 2
#     Edge 95, Type (0, 0), BuildingBlock: KIFKEQ_clean_linker_1, # of connection points: 2
#     Edge 96, Type (0, 0), BuildingBlock: KIFKEQ_clean_linker_1, # of connection points: 2
#     Edge 97, Type (0, 0), BuildingBlock: KIFKEQ_clean_linker_1, # of connection points: 2
#     Edge 98, Type (0, 0), BuildingBlock: KIFKEQ_clean_linker_1, # of connection points: 2
#     Edge 99, Type (0, 0), BuildingBlock: KIFKEQ_clean_linker_1, # of connection points: 2
#     Edge 100, Type (0, 0), BuildingBlock: KIFKEQ_clean_linker_1, # of connection points: 2
#     Edge 101, Type (0, 0), BuildingBlock: KIFKEQ_clean_linker_1, # of connection points: 2
#     Edge 102, Type (0, 0), BuildingBlock: KIFKEQ_clean_linker_1, # of connection points: 2
#     Edge 103, Type (0, 0), BuildingBlock: KIFKEQ_clean_linker_1, # of connection points: 2
#     Edge 104, Type (0, 0), BuildingBlock: KIFKEQ_clean_linker_1, # of connection points: 2
#     Edge 105, Type (0, 0), BuildingBlock: KIFKEQ_clean_linker_1, # of connection points: 2
#     Edge 106, Type (0, 0), BuildingBlock: KIFKEQ_clean_linker_1, # of connection points: 2
#     Edge 107, Type (0, 0), BuildingBlock: KIFKEQ_clean_linker_1, # of connection points: 2
#     Edge 108, Type (0, 0), BuildingBlock: KIFKEQ_clean_linker_1, # of connection points: 2
#     Edge 109, Type (0, 0), BuildingBlock: KIFKEQ_clean_linker_1, # of connection points: 2
#     Edge 110, Type (0, 0), BuildingBlock: KIFKEQ_clean_linker_1, # of connection points: 2
#     Edge 111, Type (0, 0), BuildingBlock: KIFKEQ_clean_linker_1, # of connection points: 2
#     Edge 112, Type (0, 0), BuildingBlock: KIFKEQ_clean_linker_1, # of connection points: 2
#     Edge 113, Type (0, 0), BuildingBlock: KIFKEQ_clean_linker_1, # of connection points: 2
#     Edge 114, Type (0, 0), BuildingBlock: KIFKEQ_clean_linker_1, # of connection points: 2
#     Edge 115, Type (0, 0), BuildingBlock: KIFKEQ_clean_linker_1, # of connection points: 2
#     Edge 116, Type (0, 0), BuildingBlock: KIFKEQ_clean_linker_1, # of connection points: 2
#     Edge 117, Type (0, 0), BuildingBlock: KIFKEQ_clean_linker_1, # of connection points: 2
#     Edge 118, Type (0, 0), BuildingBlock: KIFKEQ_clean_linker_1, # of connection points: 2
#     Edge 119, Type (0, 0), BuildingBlock: KIFKEQ_clean_linker_1, # of connection points: 2
#     Edge 120, Type (0, 0), BuildingBlock: KIFKEQ_clean_linker_1, # of connection points: 2
#     Edge 121, Type (0, 0), BuildingBlock: KIFKEQ_clean_linker_1, # of connection points: 2
#     Edge 122, Type (0, 0), BuildingBlock: KIFKEQ_clean_linker_1, # of connection points: 2
#     Edge 123, Type (0, 0), BuildingBlock: KIFKEQ_clean_linker_1, # of connection points: 2
#     Edge 124, Type (0, 0), BuildingBlock: KIFKEQ_clean_linker_1, # of connection points: 2
#     Edge 125, Type (0, 0), BuildingBlock: KIFKEQ_clean_linker_1, # of connection points: 2
#     Edge 126, Type (0, 0), BuildingBlock: KIFKEQ_clean_linker_1, # of connection points: 2
#     Edge 127, Type (0, 0), BuildingBlock: KIFKEQ_clean_linker_1, # of connection points: 2
#     Edge 128, Type (0, 0), BuildingBlock: KIFKEQ_clean_linker_1, # of connection points: 2
#     Edge 129, Type (0, 0), BuildingBlock: KIFKEQ_clean_linker_1, # of connection points: 2
#     Edge 130, Type (0, 0), BuildingBlock: KIFKEQ_clean_linker_1, # of connection points: 2
#     Edge 131, Type (0, 0), BuildingBlock: KIFKEQ_clean_linker_1, # of connection points: 2
#     Edge 132, Type (0, 0), BuildingBlock: KIFKEQ_clean_linker_1, # of connection points: 2
#     Edge 133, Type (0, 0), BuildingBlock: KIFKEQ_clean_linker_1, # of connection points: 2
#     Edge 134, Type (0, 0), BuildingBlock: KIFKEQ_clean_linker_1, # of connection points: 2
#     Edge 135, Type (0, 0), BuildingBlock: KIFKEQ_clean_linker_1, # of connection points: 2
#     Edge 136, Type (0, 0), BuildingBlock: KIFKEQ_clean_linker_1, # of connection points: 2
#     Edge 137, Type (0, 0), BuildingBlock: KIFKEQ_clean_linker_1, # of connection points: 2
#     Edge 138, Type (0, 0), BuildingBlock: KIFKEQ_clean_linker_1, # of connection points: 2
#     Edge 139, Type (0, 0), BuildingBlock: KIFKEQ_clean_linker_1, # of connection points: 2
#     Edge 140, Type (0, 0), BuildingBlock: KIFKEQ_clean_linker_1, # of connection points: 2
#     Edge 141, Type (0, 0), BuildingBlock: KIFKEQ_clean_linker_1, # of connection points: 2
#     Edge 142, Type (0, 0), BuildingBlock: KIFKEQ_clean_linker_1, # of connection points: 2
#     Edge 143, Type (0, 0), BuildingBlock: KIFKEQ_clean_linker_1, # of connection points: 2
# Relax obj value: 0.159
# Max RMSD: 0.227
# Mean RMSD: 0.210
data_MOF--net-wna--node1-BETDAH_clean_sbu_0--edge1-KIFKEQ_clean_linker_1
_symmetry_space_group_name_H-M    P1
_symmetry_Int_Tables_number       1
_symmetry_cell_setting            triclinic
loop_
_symmetry_equiv_pos_as_xyz
'x, y, z'
_cell_length_a     41.609181
_cell_length_b     41.605455
_cell_length_c     153.19947
_cell_angle_alpha  90.037857
_cell_angle_beta   89.999776
_cell_angle_gamma 120.02865
loop_
_atom_site_label
_atom_site_type_symbol
_atom_site_fract_x
_atom_site_fract_y
_atom_site_fract_z
_atom_type_partial_charge
Ho0 Ho 0.11174 0.25256 0.17008 0.0
Ho1 Ho 0.11898 0.2425 0.19073 0.0
C2 C 0.19432 0.2953 0.17943 0.0
C3 C 0.10758 0.27777 0.15484 0.0
C4 C 0.12427 0.28916 0.14595 0.0
C5 C 0.14063 0.32649 0.14335 0.0
C6 C 0.15077 0.3368 0.13461 0.0
C7 C 0.14453 0.31 0.12818 0.0
C8 C 0.1293 0.2728 0.13087 0.0
C9 C 0.11927 0.26253 0.1396 0.0
C10 C 0.12286 0.19589 0.17444 0.0
C11 C 0.04137 0.19095 0.18069 0.0
C12 C 0.12241 0.21967 0.20627 0.0
C13 C 0.10295 0.21244 0.21485 0.0
C14 C 0.08416 0.17618 0.21823 0.0
C15 C 0.06756 0.16889 0.22651 0.0
C16 C 0.06943 0.19773 0.23172 0.0
C17 C 0.08787 0.23403 0.22827 0.0
C18 C 0.10442 0.24129 0.21997 0.0
C19 C 0.09185 0.28976 0.18722 0.0
O20 O 0.17392 0.29033 0.17229 0.0
O21 O 0.17944 0.27855 0.18698 0.0
O22 O 0.0915 0.24252 0.15683 0.0
O23 O 0.12448 0.29939 0.16153 0.0
O24 O 0.10715 0.19766 0.16728 0.0
O25 O 0.13616 0.22661 0.17845 0.0
O26 O 0.064 0.19343 0.18705 0.0
O27 O 0.05213 0.21591 0.17431 0.0
O28 O 0.14261 0.25431 0.20372 0.0
O29 O 0.10404 0.19716 0.19981 0.0
O30 O 0.09908 0.28271 0.19497 0.0
O31 O 0.10012 0.27146 0.18215 0.0
H32 H 0.14447 0.34768 0.14802 0.0
H33 H 0.16299 0.36581 0.13288 0.0
H34 H 0.12356 0.25118 0.12615 0.0
H35 H 0.10625 0.2334 0.1413 0.0
H36 H 0.08261 0.15334 0.21448 0.0
H37 H 0.05314 0.14049 0.22882 0.0
H38 H 0.09038 0.25711 0.23208 0.0
H39 H 0.11882 0.26964 0.21762 0.0
Ho40 Ho 0.76617 0.86365 0.16995 0.0
Ho41 Ho 0.7762 0.88143 0.19054 0.0
C42 C 0.72318 0.90338 0.17914 0.0
C43 C 0.74095 0.83367 0.15476 0.0
C44 C 0.7278 0.83738 0.14598 0.0
C45 C 0.69405 0.80834 0.14279 0.0
C46 C 0.68384 0.8076 0.13403 0.0
C47 C 0.70721 0.83586 0.12819 0.0
C48 C 0.74027 0.86584 0.1315 0.0
C49 C 0.75049 0.86655 0.14027 0.0
C50 C 0.8228 0.93172 0.1743 0.0
C51 C 0.82767 0.85502 0.1806 0.0
C52 C 0.7987 0.90822 0.20604 0.0
C53 C 0.80487 0.89562 0.21467 0.0
C54 C 0.84003 0.91492 0.21862 0.0
C55 C 0.84625 0.90476 0.22691 0.0
C56 C 0.81737 0.87508 0.23153 0.0
C57 C 0.78219 0.85557 0.22753 0.0
C58 C 0.77602 0.86564 0.21921 0.0
C59 C 0.72897 0.80687 0.18721 0.0
O60 O 0.72821 0.88784 0.17203 0.0
O61 O 0.73997 0.9055 0.1867 0.0
O62 O 0.77618 0.85504 0.15658 0.0
O63 O 0.71947 0.82751 0.16156 0.0
O64 O 0.8213 0.91395 0.1672 0.0
O65 O 0.79199 0.9143 0.17826 0.0
O66 O 0.82531 0.87547 0.18691 0.0
O67 O 0.8027 0.8407 0.17423 0.0
O68 O 0.76429 0.89441 0.20338 0.0
O69 O 0.82135 0.91159 0.1997 0.0
O70 O 0.73625 0.82154 0.19492 0.0
O71 O 0.74701 0.83322 0.18204 0.0
H72 H 0.67613 0.78533 0.14699 0.0
H73 H 0.65785 0.7844 0.1318 0.0
H74 H 0.75917 0.88799 0.12723 0.0
H75 H 0.77686 0.88925 0.14248 0.0
H76 H 0.86272 0.93829 0.21532 0.0
H77 H 0.87358 0.9208 0.22978 0.0
H78 H 0.75938 0.83228 0.23081 0.0
H79 H 0.74857 0.85004 0.21637 0.0
Ho80 Ho 0.15447 0.90554 0.17056 0.0
Ho81 Ho 0.14031 0.89963 0.19003 0.0
C82 C 0.11551 0.82375 0.17977 0.0
C83 C 0.18129 0.90903 0.155 0.0
C84 C 0.17832 0.89159 0.1463 0.0
C85 C 0.20818 0.88797 0.14323 0.0
C86 C 0.20966 0.87852 0.1345 0.0
C87 C 0.18136 0.87258 0.12855 0.0
C88 C 0.15061 0.87456 0.13174 0.0
C89 C 0.14916 0.88404 0.14048 0.0
C90 C 0.08579 0.89292 0.1747 0.0
C91 C 0.1629 0.97704 0.18034 0.0
C92 C 0.12235 0.90148 0.20625 0.0
C93 C 0.13686 0.92246 0.2146 0.0
C94 C 0.12236 0.94428 0.21781 0.0
C95 C 0.13225 0.96068 0.22611 0.0
C96 C 0.15681 0.95558 0.23149 0.0
C97 C 0.17203 0.93447 0.22818 0.0
C98 C 0.16212 0.91806 0.21987 0.0
C99 C 0.21112 0.91797 0.1853 0.0
O100 O 0.13659 0.84469 0.17324 0.0
O101 O 0.10817 0.83894 0.18652 0.0
O102 O 0.15732 0.91952 0.15691 0.0
O103 O 0.19124 0.8972 0.16184 0.0
O104 O 0.10443 0.91069 0.16785 0.0
O105 O 0.10275 0.87893 0.1786 0.0
O106 O 0.14536 0.95484 0.18697 0.0
O107 O 0.17555 0.96583 0.17376 0.0
O108 O 0.13657 0.88159 0.20345 0.0
O109 O 0.11502 0.91767 0.19986 0.0
O110 O 0.19328 0.8975 0.1919 0.0
O111 O 0.19134 0.92959 0.18188 0.0
H112 H 0.23128 0.89398 0.1475 0.0
H113 H 0.23347 0.87662 0.13237 0.0
H114 H 0.12839 0.87051 0.12739 0.0
H115 H 0.12588 0.88695 0.14257 0.0
H116 H 0.10258 0.948 0.21397 0.0
H117 H 0.12036 0.97719 0.22833 0.0
H118 H 0.19067 0.92947 0.23213 0.0
H119 H 0.17357 0.9011 0.21768 0.0
Ho120 Ho 0.25904 0.11174 0.35435 0.0
Ho121 Ho 0.25141 0.11722 0.33486 0.0
C122 C 0.30278 0.19349 0.34509 0.0
C123 C 0.28222 0.10864 0.36994 0.0
C124 C 0.29665 0.12645 0.3786 0.0
C125 C 0.33059 0.13109 0.38162 0.0
C126 C 0.34153 0.14076 0.39034 0.0
C127 C 0.31868 0.14583 0.39632 0.0
C128 C 0.28549 0.1429 0.39317 0.0
C129 C 0.27457 0.13325 0.38444 0.0
C130 C 0.20319 0.1243 0.35002 0.0
C131 C 0.19659 0.03978 0.34466 0.0
C132 C 0.23156 0.11516 0.31863 0.0
C133 C 0.22407 0.09353 0.31037 0.0
C134 C 0.18862 0.07738 0.30656 0.0
C135 C 0.18177 0.06044 0.29832 0.0
C136 C 0.21027 0.05932 0.2936 0.0
C137 C 0.24562 0.07484 0.29751 0.0
C138 C 0.25244 0.09172 0.30578 0.0
C139 C 0.30382 0.09912 0.33973 0.0
O140 O 0.30125 0.17273 0.35185 0.0
O141 O 0.28168 0.17824 0.33813 0.0
O142 O 0.24776 0.09811 0.36801 0.0
O143 O 0.30408 0.12022 0.36311 0.0
O144 O 0.20373 0.10647 0.35689 0.0
O145 O 0.2343 0.13826 0.34618 0.0
O146 O 0.20174 0.06133 0.33786 0.0
O147 O 0.21973 0.05151 0.35137 0.0
O148 O 0.26585 0.13397 0.32138 0.0
O149 O 0.20796 0.10011 0.32506 0.0
O150 O 0.30646 0.11933 0.33307 0.0
O151 O 0.27236 0.08753 0.34313 0.0
H152 H 0.34804 0.12568 0.37733 0.0
H153 H 0.36759 0.14341 0.39245 0.0
H154 H 0.26695 0.14627 0.39754 0.0
H155 H 0.24803 0.12955 0.38238 0.0
H156 H 0.16631 0.07876 0.30986 0.0
H157 H 0.15433 0.04932 0.29552 0.0
H158 H 0.26817 0.07412 0.29417 0.0
H159 H 0.28017 0.10397 0.30847 0.0
Ho160 Ho 0.91392 0.15485 0.35459 0.0
Ho161 Ho 0.90681 0.13761 0.33394 0.0
C162 C 0.83139 0.11488 0.34523 0.0
C163 C 0.91791 0.18426 0.36982 0.0
C164 C 0.90112 0.179 0.37867 0.0
C165 C 0.89263 0.20547 0.38194 0.0
C166 C 0.88283 0.20495 0.39073 0.0
C167 C 0.88151 0.17806 0.39653 0.0
C168 C 0.88865 0.1507 0.39317 0.0
C169 C 0.89832 0.15115 0.38437 0.0
C170 C 0.90315 0.08717 0.35018 0.0
C171 C 0.98455 0.16439 0.34398 0.0
C172 C 0.90342 0.11113 0.31842 0.0
C173 C 0.92288 0.12314 0.30983 0.0
C174 C 0.93976 0.10411 0.30627 0.0
C175 C 0.95632 0.11325 0.29798 0.0
C176 C 0.95631 0.14162 0.29296 0.0
C177 C 0.93982 0.16105 0.2966 0.0
C178 C 0.92332 0.15193 0.30491 0.0
C179 C 0.93369 0.21198 0.33746 0.0
O180 O 0.85175 0.13022 0.35238 0.0
O181 O 0.84633 0.11316 0.33767 0.0
O182 O 0.93385 0.16493 0.36785 0.0
O183 O 0.90108 0.18898 0.36312 0.0
O184 O 0.91887 0.10471 0.35735 0.0
O185 O 0.8897 0.10447 0.34619 0.0
O186 O 0.96201 0.14409 0.33761 0.0
O187 O 0.97358 0.17835 0.35036 0.0
O188 O 0.88333 0.12573 0.32093 0.0
O189 O 0.92175 0.10707 0.32489 0.0
O190 O 0.92655 0.19769 0.3297 0.0
O191 O 0.92545 0.18541 0.34254 0.0
H192 H 0.89508 0.22759 0.37776 0.0
H193 H 0.87792 0.2267 0.39305 0.0
H194 H 0.88734 0.12918 0.39738 0.0
H195 H 0.90479 0.13036 0.38211 0.0
H196 H 0.93983 0.08175 0.30988 0.0
H197 H 0.96923 0.09802 0.29553 0.0
H198 H 0.93879 0.18277 0.29294 0.0
H199 H 0.91046 0.16715 0.30741 0.0
Ho200 Ho 0.87034 0.76397 0.35378 0.0
Ho201 Ho 0.88298 0.77152 0.33409 0.0
C202 C 0.90747 0.71981 0.34432 0.0
C203 C 0.84371 0.74083 0.36935 0.0
C204 C 0.84696 0.72663 0.37805 0.0
C205 C 0.81764 0.6927 0.38108 0.0
C206 C 0.81626 0.68187 0.3898 0.0
C207 C 0.84411 0.70481 0.39579 0.0
C208 C 0.87438 0.73802 0.39264 0.0
C209 C 0.87574 0.74884 0.3839 0.0
C210 C 0.93893 0.81862 0.3492 0.0
C211 C 0.86259 0.82769 0.34405 0.0
C212 C 0.90049 0.79118 0.31786 0.0
C213 C 0.88656 0.79941 0.30966 0.0
C214 C 0.90222 0.83625 0.30672 0.0
C215 C 0.89278 0.84428 0.29854 0.0
C216 C 0.86755 0.81566 0.293 0.0
C217 C 0.85118 0.77882 0.29605 0.0
C218 C 0.86063 0.7708 0.30424 0.0
C219 C 0.81257 0.71991 0.33918 0.0
O220 O 0.88728 0.72039 0.35099 0.0
O221 O 0.91429 0.74191 0.3375 0.0
O222 O 0.86741 0.77537 0.36741 0.0
O223 O 0.83388 0.71887 0.36253 0.0
O224 O 0.92255 0.81792 0.35644 0.0
O225 O 0.92063 0.78768 0.34539 0.0
O226 O 0.87857 0.82205 0.33723 0.0
O227 O 0.8507 0.80442 0.35075 0.0
O228 O 0.88433 0.75679 0.32057 0.0
O229 O 0.90988 0.81478 0.32432 0.0
O230 O 0.82951 0.71688 0.33243 0.0
O231 O 0.83295 0.75135 0.34255 0.0
H232 H 0.79484 0.67514 0.37677 0.0
H233 H 0.79284 0.6558 0.3919 0.0
H234 H 0.89623 0.75663 0.39703 0.0
H235 H 0.8986 0.77539 0.38184 0.0
H236 H 0.92254 0.85896 0.31067 0.0
H237 H 0.90557 0.87302 0.29653 0.0
H238 H 0.83199 0.75595 0.29197 0.0
H239 H 0.84831 0.74203 0.30621 0.0
Ho240 Ho 0.90594 0.76943 0.8346 0.0
Ho241 Ho 0.9128 0.76301 0.85409 0.0
C242 C 0.98422 0.82475 0.84407 0.0
C243 C 0.90589 0.78807 0.81836 0.0
C244 C 0.92651 0.79704 0.80997 0.0
C245 C 0.92446 0.82245 0.80432 0.0
C246 C 0.94018 0.82901 0.79596 0.0
C247 C 0.95847 0.81028 0.79301 0.0
C248 C 0.96153 0.78559 0.7988 0.0
C249 C 0.94559 0.77893 0.80718 0.0
C250 C 0.92449 0.71756 0.8396 0.0
C251 C 0.83036 0.71875 0.84506 0.0
C252 C 0.91667 0.74084 0.86974 0.0
C253 C 0.89877 0.72607 0.87837 0.0
C254 C 0.89572 0.69291 0.8815 0.0
C255 C 0.88577 0.68184 0.8902 0.0
C256 C 0.87879 0.70376 0.89606 0.0
C257 C 0.88019 0.73612 0.89281 0.0
C258 C 0.89015 0.74719 0.88409 0.0
C259 C 0.90047 0.81883 0.84963 0.0
O260 O 0.96208 0.8193 0.83736 0.0
O261 O 0.97292 0.80175 0.85081 0.0
O262 O 0.89024 0.75382 0.82113 0.0
O263 O 0.92005 0.81211 0.82473 0.0
O264 O 0.903 0.71378 0.83312 0.0
O265 O 0.93646 0.74935 0.84283 0.0
O266 O 0.8515 0.72068 0.85178 0.0
O267 O 0.84524 0.7394 0.83803 0.0
O268 O 0.926 0.77496 0.86775 0.0
O269 O 0.90601 0.71884 0.86292 0.0
O270 O 0.91912 0.81887 0.8564 0.0
O271 O 0.88578 0.7873 0.84596 0.0
H272 H 0.90989 0.83675 0.8063 0.0
H273 H 0.93781 0.84872 0.79179 0.0
H274 H 0.97522 0.77052 0.79676 0.0
H275 H 0.9475 0.75906 0.8114 0.0
H276 H 0.90254 0.67621 0.8773 0.0
H277 H 0.88434 0.6564 0.89237 0.0
H278 H 0.87533 0.75395 0.89709 0.0
H279 H 0.89258 0.77313 0.88196 0.0
Ho280 Ho 0.25069 0.13877 0.83485 0.0
Ho281 Ho 0.25798 0.15246 0.85436 0.0
C282 C 0.1958 0.16173 0.84445 0.0
C283 C 0.23097 0.12058 0.81864 0.0
C284 C 0.22439 0.13506 0.81033 0.0
C285 C 0.18872 0.11736 0.8066 0.0
C286 C 0.18248 0.12773 0.79834 0.0
C287 C 0.21183 0.15601 0.79352 0.0
C288 C 0.24745 0.17425 0.79733 0.0
C289 C 0.25366 0.16393 0.80562 0.0
C290 C 0.30312 0.20934 0.83965 0.0
C291 C 0.30165 0.11391 0.84523 0.0
C292 C 0.28079 0.17865 0.86999 0.0
C293 C 0.29387 0.17392 0.8787 0.0
C294 C 0.32803 0.20209 0.88196 0.0
C295 C 0.33804 0.20191 0.89071 0.0
C296 C 0.31398 0.17367 0.89647 0.0
C297 C 0.28042 0.14466 0.89309 0.0
C298 C 0.27049 0.14478 0.88434 0.0
C299 C 0.20207 0.08407 0.84999 0.0
O300 O 0.20067 0.14435 0.83781 0.0
O301 O 0.21936 0.17405 0.85109 0.0
O302 O 0.26511 0.13517 0.82145 0.0
O303 O 0.20735 0.11298 0.82501 0.0
O304 O 0.30565 0.19172 0.83299 0.0
O305 O 0.27171 0.18963 0.84308 0.0
O306 O 0.30007 0.13333 0.85195 0.0
O307 O 0.28064 0.10792 0.83825 0.0
O308 O 0.24613 0.15606 0.86791 0.0
O309 O 0.30307 0.18792 0.86324 0.0
O310 O 0.20246 0.10248 0.85685 0.0
O311 O 0.23336 0.10108 0.84624 0.0
H312 H 0.16569 0.09469 0.81 0.0
H313 H 0.15478 0.11265 0.79561 0.0
H314 H 0.27067 0.19649 0.7939 0.0
H315 H 0.28157 0.17814 0.80824 0.0
H316 H 0.34637 0.22524 0.87784 0.0
H317 H 0.36392 0.22492 0.89305 0.0
H318 H 0.26142 0.12211 0.89726 0.0
H319 H 0.24384 0.12268 0.88209 0.0
Ho320 Ho 0.88095 0.11471 0.83485 0.0
Ho321 Ho 0.86804 0.10792 0.85429 0.0
C322 C 0.85887 0.03671 0.84429 0.0
C323 C 0.8978 0.11351 0.8185 0.0
C324 C 0.88294 0.09295 0.81011 0.0
C325 C 0.89175 0.06593 0.80741 0.0
C326 C 0.88175 0.04985 0.79907 0.0
C327 C 0.8629 0.06054 0.79314 0.0
C328 C 0.85342 0.08701 0.79593 0.0
C329 C 0.86337 0.10304 0.80426 0.0
C330 C 0.81045 0.096 0.83987 0.0
C331 C 0.9065 0.19036 0.84532 0.0
C332 C 0.84186 0.10365 0.86994 0.0
C333 C 0.84373 0.12134 0.87852 0.0
C334 C 0.81047 0.11412 0.88255 0.0
C335 C 0.8101 0.12473 0.89122 0.0
C336 C 0.8431 0.14296 0.89615 0.0
C337 C 0.87668 0.15143 0.89197 0.0
C338 C 0.87699 0.14067 0.88328 0.0
C339 C 0.93612 0.11999 0.84978 0.0
O340 O 0.87567 0.05903 0.83762 0.0
O341 O 0.84699 0.04782 0.85103 0.0
O342 O 0.88341 0.13294 0.82149 0.0
O343 O 0.90583 0.09734 0.82476 0.0
O344 O 0.82822 0.11759 0.83342 0.0
O345 O 0.83033 0.08407 0.84308 0.0
O346 O 0.88697 0.16921 0.852 0.0
O347 O 0.91241 0.1754 0.83831 0.0
O348 O 0.86824 0.09651 0.86802 0.0
O349 O 0.82941 0.11286 0.86309 0.0
O350 O 0.91734 0.10113 0.85652 0.0
O351 O 0.91943 0.13487 0.84614 0.0
H352 H 0.90736 0.05791 0.81165 0.0
H353 H 0.89001 0.02997 0.79716 0.0
H354 H 0.83847 0.09563 0.79163 0.0
H355 H 0.85643 0.12403 0.80604 0.0
H356 H 0.78435 0.09875 0.87909 0.0
H357 H 0.78358 0.11712 0.89417 0.0
H358 H 0.90278 0.16596 0.89546 0.0
H359 H 0.90311 0.14651 0.88038 0.0
Ho360 Ho 0.77474 0.90192 0.68944 0.0
Ho361 Ho 0.76715 0.90745 0.66989 0.0
C362 C 0.82944 0.9794 0.67965 0.0
C363 C 0.79443 0.90399 0.70568 0.0
C364 C 0.80031 0.92474 0.71405 0.0
C365 C 0.8365 0.94853 0.71714 0.0
C366 C 0.84253 0.96479 0.72546 0.0
C367 C 0.81251 0.95749 0.73097 0.0
C368 C 0.77627 0.93428 0.72779 0.0
C369 C 0.77025 0.9181 0.71947 0.0
C370 C 0.72211 0.91958 0.68457 0.0
C371 C 0.724 0.82564 0.67917 0.0
C372 C 0.7441 0.91047 0.65428 0.0
C373 C 0.72942 0.89273 0.64562 0.0
C374 C 0.69589 0.88904 0.64257 0.0
C375 C 0.68485 0.87942 0.63385 0.0
C376 C 0.70715 0.87341 0.6279 0.0
C377 C 0.7399 0.87541 0.63108 0.0
C378 C 0.75095 0.88504 0.63981 0.0
C379 C 0.82341 0.89568 0.67433 0.0
O380 O 0.82438 0.95771 0.68642 0.0
O381 O 0.8063 0.96774 0.67294 0.0
O382 O 0.76043 0.88373 0.70284 0.0
O383 O 0.81801 0.92049 0.69932 0.0
O384 O 0.7197 0.89967 0.69127 0.0
O385 O 0.75349 0.93126 0.68113 0.0
O386 O 0.72529 0.84631 0.67242 0.0
O387 O 0.74514 0.84102 0.68613 0.0
O388 O 0.77845 0.92052 0.65621 0.0
O389 O 0.72227 0.89931 0.66112 0.0
O390 O 0.82286 0.91347 0.66745 0.0
O391 O 0.79214 0.88132 0.67809 0.0
H392 H 0.86031 0.9538 0.71322 0.0
H393 H 0.87084 0.98207 0.72768 0.0
H394 H 0.75241 0.92837 0.73176 0.0
H395 H 0.74196 0.89971 0.71737 0.0
H396 H 0.67887 0.89515 0.64684 0.0
H397 H 0.65912 0.8775 0.63173 0.0
H398 H 0.75803 0.8713 0.62672 0.0
H399 H 0.77717 0.88801 0.64189 0.0
Ho400 Ho 0.11963 0.87838 0.68984 0.0
Ho401 Ho 0.11342 0.8647 0.67029 0.0
C402 C 0.04172 0.85507 0.68019 0.0
C403 C 0.11882 0.8974 0.70601 0.0
C404 C 0.09775 0.8846 0.71434 0.0
C405 C 0.0949 0.91057 0.71964 0.0
C406 C 0.07812 0.90053 0.72788 0.0
C407 C 0.06364 0.86411 0.73108 0.0
C408 C 0.06602 0.83789 0.72567 0.0
C409 C 0.08286 0.84801 0.7174 0.0
C410 C 0.10129 0.80778 0.68501 0.0
C411 C 0.19552 0.90306 0.67946 0.0
C412 C 0.10984 0.83835 0.65467 0.0
C413 C 0.12741 0.84143 0.64599 0.0
C414 C 0.13112 0.81163 0.64291 0.0
C415 C 0.14069 0.81026 0.63419 0.0
C416 C 0.14664 0.8386 0.62826 0.0
C417 C 0.14458 0.8693 0.63146 0.0
C418 C 0.13499 0.87065 0.6402 0.0
C419 C 0.12555 0.93292 0.6747 0.0
O420 O 0.06372 0.87212 0.68689 0.0
O421 O 0.05318 0.84316 0.67351 0.0
O422 O 0.13621 0.88041 0.70331 0.0
O423 O 0.10387 0.90606 0.69959 0.0
O424 O 0.12149 0.82535 0.69168 0.0
O425 O 0.08975 0.82761 0.68158 0.0
O426 O 0.17458 0.88378 0.67272 0.0
O427 O 0.18047 0.90891 0.68647 0.0
O428 O 0.09975 0.86259 0.65664 0.0
O429 O 0.12127 0.82784 0.6615 0.0
O430 O 0.10744 0.91441 0.66785 0.0
O431 O 0.14001 0.91605 0.67843 0.0
H432 H 0.10647 0.93904 0.71748 0.0
H433 H 0.07747 0.92174 0.73185 0.0
H434 H 0.0548 0.80948 0.72782 0.0
H435 H 0.08466 0.82734 0.71346 0.0
H436 H 0.12509 0.7885 0.64717 0.0
H437 H 0.14265 0.78649 0.63205 0.0
H438 H 0.14863 0.89155 0.62712 0.0
H439 H 0.13201 0.89388 0.64229 0.0
Ho440 Ho 0.14484 0.24906 0.68998 0.0
Ho441 Ho 0.1556 0.25347 0.67033 0.0
C442 C 0.16535 0.19199 0.68044 0.0
C443 C 0.12874 0.23178 0.70638 0.0
C444 C 0.14278 0.22397 0.71462 0.0
C445 C 0.12631 0.18748 0.71784 0.0
C446 C 0.13574 0.18014 0.7261 0.0
C447 C 0.16178 0.20912 0.73143 0.0
C448 C 0.17897 0.24557 0.7281 0.0
C449 C 0.16953 0.2529 0.71983 0.0
C450 C 0.21464 0.30007 0.68447 0.0
C451 C 0.11959 0.29951 0.67947 0.0
C452 C 0.18035 0.27438 0.65454 0.0
C453 C 0.1756 0.28733 0.64581 0.0
C454 C 0.20305 0.32209 0.64266 0.0
C455 C 0.20308 0.33209 0.63391 0.0
C456 C 0.17581 0.30742 0.62803 0.0
C457 C 0.14747 0.27324 0.63129 0.0
C458 C 0.14736 0.26331 0.64005 0.0
C459 C 0.0876 0.19925 0.67546 0.0
O460 O 0.1497 0.19833 0.68723 0.0
O461 O 0.17652 0.2144 0.6736 0.0
O462 O 0.14573 0.2658 0.70342 0.0
O463 O 0.11793 0.20727 0.70009 0.0
O464 O 0.19784 0.30442 0.69106 0.0
O465 O 0.19431 0.26802 0.68139 0.0
O466 O 0.13792 0.29673 0.67267 0.0
O467 O 0.11428 0.27935 0.68659 0.0
O468 O 0.15702 0.24011 0.65678 0.0
O469 O 0.19106 0.29726 0.6612 0.0
O470 O 0.10374 0.19853 0.6683 0.0
O471 O 0.1059 0.23103 0.67889 0.0
H472 H 0.10533 0.16456 0.71405 0.0
H473 H 0.12229 0.15165 0.72834 0.0
H474 H 0.1988 0.26873 0.73201 0.0
H475 H 0.18247 0.28145 0.71765 0.0
H476 H 0.22555 0.34097 0.64688 0.0
H477 H 0.22557 0.35849 0.63165 0.0
H478 H 0.12565 0.25373 0.62702 0.0
H479 H 0.12587 0.23617 0.6422 0.0
Ho480 Ho 0.78021 0.58815 0.50308 0.0
Ho481 Ho 0.78699 0.58224 0.52254 0.0
C482 C 0.86267 0.63233 0.5121 0.0
C483 C 0.77638 0.61022 0.48741 0.0
C484 C 0.79417 0.62485 0.47876 0.0
C485 C 0.79753 0.65816 0.47565 0.0
C486 C 0.80729 0.66911 0.46694 0.0
C487 C 0.81379 0.64693 0.46105 0.0
C488 C 0.8121 0.61441 0.46429 0.0
C489 C 0.80232 0.60345 0.47301 0.0
C490 C 0.79261 0.53245 0.50759 0.0
C491 C 0.70888 0.52638 0.51308 0.0
C492 C 0.78581 0.56413 0.53887 0.0
C493 C 0.76435 0.55658 0.54716 0.0
C494 C 0.74593 0.52045 0.55063 0.0
C495 C 0.72953 0.51342 0.55892 0.0
C496 C 0.73126 0.54239 0.56405 0.0
C497 C 0.74885 0.57842 0.56047 0.0
C498 C 0.76526 0.58545 0.55216 0.0
C499 C 0.76876 0.63422 0.5174 0.0
O500 O 0.84157 0.63042 0.50537 0.0
O501 O 0.8477 0.61171 0.51914 0.0
O502 O 0.76696 0.57609 0.48942 0.0
O503 O 0.78718 0.6323 0.49422 0.0
O504 O 0.7741 0.53237 0.50078 0.0
O505 O 0.80717 0.56395 0.51127 0.0
O506 O 0.73108 0.53205 0.51978 0.0
O507 O 0.72009 0.54926 0.50632 0.0
O508 O 0.80356 0.59822 0.53597 0.0
O509 O 0.7713 0.53989 0.53255 0.0
O510 O 0.79036 0.63813 0.52386 0.0
O511 O 0.75653 0.60222 0.51427 0.0
H512 H 0.79106 0.67506 0.47987 0.0
H513 H 0.80895 0.69467 0.46477 0.0
H514 H 0.81658 0.59638 0.45998 0.0
H515 H 0.79963 0.57739 0.47513 0.0
H516 H 0.74498 0.49763 0.547 0.0
H517 H 0.71575 0.48521 0.56136 0.0
H518 H 0.75115 0.60156 0.56422 0.0
H519 H 0.77955 0.61373 0.54977 0.0
Ho520 Ho 0.43486 0.19808 0.50356 0.0
Ho521 Ho 0.44178 0.21151 0.52294 0.0
C522 C 0.392 0.2374 0.5126 0.0
C523 C 0.41224 0.17181 0.48794 0.0
C524 C 0.39769 0.17515 0.4793 0.0
C525 C 0.36432 0.1453 0.47617 0.0
C526 C 0.35342 0.14425 0.46746 0.0
C527 C 0.37572 0.17296 0.4616 0.0
C528 C 0.40829 0.20372 0.46486 0.0
C529 C 0.41919 0.20476 0.47358 0.0
C530 C 0.49106 0.26641 0.50785 0.0
C531 C 0.49712 0.189 0.51344 0.0
C532 C 0.46015 0.22842 0.53926 0.0
C533 C 0.46637 0.21358 0.54756 0.0
C534 C 0.5023 0.22976 0.55111 0.0
C535 C 0.50835 0.21924 0.55938 0.0
C536 C 0.47857 0.19236 0.56437 0.0
C537 C 0.44267 0.17563 0.56072 0.0
C538 C 0.43663 0.18611 0.55244 0.0
C539 C 0.38958 0.14093 0.51794 0.0
O540 O 0.39202 0.21635 0.50606 0.0
O541 O 0.41412 0.24435 0.5194 0.0
O542 O 0.44652 0.19618 0.48991 0.0
O543 O 0.39029 0.16101 0.49476 0.0
O544 O 0.49057 0.24763 0.50106 0.0
O545 O 0.45981 0.24973 0.51163 0.0
O546 O 0.49208 0.20628 0.52008 0.0
O547 O 0.47363 0.17665 0.5068 0.0
O548 O 0.4262 0.21379 0.53632 0.0
O549 O 0.48427 0.23667 0.53297 0.0
O550 O 0.38575 0.15895 0.52435 0.0
O551 O 0.42145 0.16067 0.51478 0.0
H552 H 0.34734 0.12189 0.48037 0.0
H553 H 0.32782 0.12042 0.46527 0.0
H554 H 0.4264 0.22625 0.46057 0.0
H555 H 0.44528 0.22806 0.47573 0.0
H556 H 0.52573 0.2514 0.5476 0.0
H557 H 0.53631 0.23318 0.56197 0.0
H558 H 0.41908 0.15449 0.56429 0.0
H559 H 0.40852 0.17316 0.54996 0.0
Ho560 Ho 0.82502 0.24373 0.50353 0.0
Ho561 Ho 0.81204 0.23696 0.52296 0.0
C562 C 0.78632 0.16124 0.51252 0.0
C563 C 0.85085 0.24735 0.48785 0.0
C564 C 0.84655 0.22952 0.47913 0.0
C565 C 0.87117 0.21739 0.47656 0.0
C566 C 0.87217 0.20708 0.46787 0.0
C567 C 0.8488 0.20894 0.46147 0.0
C568 C 0.82318 0.21975 0.46415 0.0
C569 C 0.82212 0.22995 0.47283 0.0
C570 C 0.7568 0.23134 0.50795 0.0
C571 C 0.83463 0.31504 0.51352 0.0
C572 C 0.79517 0.23837 0.5393 0.0
C573 C 0.80954 0.25967 0.5476 0.0
C574 C 0.79173 0.27761 0.55127 0.0
C575 C 0.80181 0.29414 0.55956 0.0
C576 C 0.82989 0.29302 0.56446 0.0
C577 C 0.84826 0.2757 0.56069 0.0
C578 C 0.83822 0.25923 0.55239 0.0
C579 C 0.88239 0.25522 0.51788 0.0
O580 O 0.8058 0.18237 0.50583 0.0
O581 O 0.78052 0.17623 0.51954 0.0
O582 O 0.82753 0.25846 0.48994 0.0
O583 O 0.861 0.23521 0.4946 0.0
O584 O 0.77537 0.24975 0.50115 0.0
O585 O 0.77364 0.2168 0.51167 0.0
O586 O 0.81755 0.29271 0.52016 0.0
O587 O 0.84676 0.30388 0.50683 0.0
O588 O 0.81069 0.21987 0.53638 0.0
O589 O 0.78614 0.25352 0.53299 0.0
O590 O 0.8646 0.23363 0.52433 0.0
O591 O 0.86265 0.26741 0.51474 0.0
H592 H 0.89072 0.21718 0.4812 0.0
H593 H 0.89185 0.19832 0.46615 0.0
H594 H 0.805 0.22205 0.45945 0.0
H595 H 0.80315 0.2397 0.4745 0.0
H596 H 0.76916 0.27797 0.54783 0.0
H597 H 0.78661 0.3067 0.56224 0.0
H598 H 0.87035 0.27466 0.56418 0.0
H599 H 0.85247 0.24549 0.54981 0.0
Ho600 Ho 0.92493 0.44374 0.68784 0.0
Ho601 Ho 0.91782 0.44961 0.66837 0.0
C602 C 0.96777 0.52559 0.67871 0.0
C603 C 0.94738 0.43989 0.70346 0.0
C604 C 0.96328 0.45768 0.71201 0.0
C605 C 0.989 0.45014 0.71608 0.0
C606 C 0.99976 0.46063 0.72477 0.0
C607 C 0.98508 0.47903 0.72965 0.0
C608 C 0.9604 0.48793 0.72542 0.0
C609 C 0.94955 0.4773 0.71672 0.0
C610 C 0.86858 0.4553 0.68341 0.0
C611 C 0.86259 0.37193 0.67805 0.0
C612 C 0.89928 0.448 0.65205 0.0
C613 C 0.89245 0.42684 0.64373 0.0
C614 C 0.85625 0.40677 0.64033 0.0
C615 C 0.84967 0.39053 0.63201 0.0
C616 C 0.87916 0.39405 0.6268 0.0
C617 C 0.91533 0.41333 0.6303 0.0
C618 C 0.92189 0.42958 0.63863 0.0
C619 C 0.97017 0.43175 0.67344 0.0
O620 O 0.96773 0.50472 0.68528 0.0
O621 O 0.94568 0.51026 0.6719 0.0
O622 O 0.91377 0.43261 0.70159 0.0
O623 O 0.96889 0.44909 0.69658 0.0
O624 O 0.86906 0.43732 0.69026 0.0
O625 O 0.89988 0.46991 0.67966 0.0
O626 O 0.86806 0.39357 0.67125 0.0
O627 O 0.88548 0.38356 0.68481 0.0
O628 O 0.93335 0.46682 0.65495 0.0
O629 O 0.8752 0.43261 0.65838 0.0
O630 O 0.97384 0.45323 0.66697 0.0
O631 O 0.93831 0.41961 0.67663 0.0
H632 H 0.99958 0.43456 0.71266 0.0
H633 H 0.01836 0.45272 0.72776 0.0
H634 H 0.94894 0.50261 0.72888 0.0
H635 H 0.92952 0.48339 0.71378 0.0
H636 H 0.83296 0.40439 0.64403 0.0
H637 H 0.82138 0.37544 0.62964 0.0
H638 H 0.93886 0.41706 0.62649 0.0
H639 H 0.95023 0.44517 0.64096 0.0
Ho640 Ho 0.57798 0.48477 0.68742 0.0
Ho641 Ho 0.57204 0.47433 0.66774 0.0
C642 C 0.49614 0.44862 0.67818 0.0
C643 C 0.58146 0.50934 0.70322 0.0
C644 C 0.5637 0.50475 0.71194 0.0
C645 C 0.55718 0.53267 0.71514 0.0
C646 C 0.54714 0.53274 0.72389 0.0
C647 C 0.54364 0.50501 0.72973 0.0
C648 C 0.54872 0.47623 0.72642 0.0
C649 C 0.55863 0.47611 0.71767 0.0
C650 C 0.56453 0.41697 0.68223 0.0
C651 C 0.64947 0.49492 0.67736 0.0
C652 C 0.57349 0.45868 0.65132 0.0
C653 C 0.59533 0.4728 0.64308 0.0
C654 C 0.61513 0.45619 0.6398 0.0
C655 C 0.63178 0.4656 0.63153 0.0
C656 C 0.62893 0.49176 0.62624 0.0
C657 C 0.60995 0.50914 0.62962 0.0
C658 C 0.59328 0.49971 0.63791 0.0
C659 C 0.59046 0.54393 0.67338 0.0
O660 O 0.51711 0.46703 0.685 0.0
O661 O 0.51115 0.44336 0.67108 0.0
O662 O 0.59227 0.48589 0.701 0.0
O663 O 0.56956 0.5202 0.69655 0.0
O664 O 0.58114 0.433 0.68944 0.0
O665 O 0.55107 0.4352 0.67877 0.0
O666 O 0.62766 0.47935 0.67054 0.0
O667 O 0.63805 0.50595 0.6842 0.0
O668 O 0.55643 0.47559 0.65431 0.0
O669 O 0.58716 0.44778 0.65758 0.0
O670 O 0.56931 0.52716 0.66677 0.0
O671 O 0.60229 0.52363 0.67639 0.0
H672 H 0.56147 0.55548 0.71096 0.0
H673 H 0.54387 0.55558 0.72617 0.0
H674 H 0.5457 0.45406 0.73066 0.0
H675 H 0.56365 0.45424 0.71548 0.0
H676 H 0.61696 0.43509 0.64355 0.0
H677 H 0.64662 0.45201 0.62924 0.0
H678 H 0.60673 0.52909 0.62575 0.0
H679 H 0.57786 0.51277 0.64014 0.0
Ho680 Ho 0.53635 0.09711 0.68766 0.0
Ho681 Ho 0.54712 0.10233 0.66801 0.0
C682 C 0.57297 0.05228 0.67837 0.0
C683 C 0.51172 0.07633 0.70347 0.0
C684 C 0.51775 0.06622 0.71243 0.0
C685 C 0.50596 0.02921 0.71475 0.0
C686 C 0.5059 0.01932 0.72354 0.0
C687 C 0.51709 0.04609 0.73022 0.0
C688 C 0.53004 0.08323 0.72784 0.0
C689 C 0.53032 0.09311 0.7191 0.0
C690 C 0.6045 0.15167 0.68268 0.0
C691 C 0.52641 0.15879 0.67767 0.0
C692 C 0.56303 0.11965 0.65162 0.0
C693 C 0.54883 0.12706 0.64336 0.0
C694 C 0.56626 0.16319 0.6399 0.0
C695 C 0.55666 0.17011 0.63162 0.0
C696 C 0.52946 0.14104 0.62651 0.0
C697 C 0.51129 0.10499 0.63009 0.0
C698 C 0.52091 0.09807 0.63838 0.0
C699 C 0.47738 0.05075 0.67355 0.0
O700 O 0.553 0.05319 0.68504 0.0
O701 O 0.57939 0.07392 0.67148 0.0
O702 O 0.53235 0.11086 0.70104 0.0
O703 O 0.5037 0.05296 0.69698 0.0
O704 O 0.58859 0.15149 0.68995 0.0
O705 O 0.58612 0.12028 0.67908 0.0
O706 O 0.54194 0.15272 0.67083 0.0
O707 O 0.51538 0.13624 0.68448 0.0
O708 O 0.54663 0.08564 0.65459 0.0
O709 O 0.57327 0.14418 0.6579 0.0
O710 O 0.49437 0.04656 0.66696 0.0
O711 O 0.49759 0.08282 0.67661 0.0
H712 H 0.49548 1.00763 0.70982 0.0
H713 H 0.49551 0.99041 0.72512 0.0
H714 H 0.53938 0.10471 0.73278 0.0
H715 H 0.53909 0.12179 0.7176 0.0
H716 H 0.58811 0.1861 0.64352 0.0
H717 H 0.57089 0.19833 0.62919 0.0
H718 H 0.49051 0.08177 0.62635 0.0
H719 H 0.50715 0.06978 0.64077 0.0
Ho720 Ho 0.56754 0.1002 0.16761 0.0
Ho721 Ho 0.57695 0.09761 0.18701 0.0
C722 C 0.64653 0.15828 0.17642 0.0
C723 C 0.56669 0.11614 0.15119 0.0
C724 C 0.58798 0.12476 0.14289 0.0
C725 C 0.59068 0.15359 0.13762 0.0
C726 C 0.60785 0.16084 0.12942 0.0
C727 C 0.62291 0.13941 0.12623 0.0
C728 C 0.62062 0.11075 0.13158 0.0
C729 C 0.60338 0.10351 0.13982 0.0
C730 C 0.58734 0.04965 0.173 0.0
C731 C 0.49336 0.0518 0.17858 0.0
C732 C 0.58255 0.07903 0.20293 0.0
C733 C 0.56488 0.064 0.21158 0.0
C734 C 0.56077 0.03018 0.21454 0.0
C735 C 0.55108 0.01887 0.22324 0.0
C736 C 0.54546 0.04122 0.22926 0.0
C737 C 0.54799 0.07432 0.22618 0.0
C738 C 0.55766 0.08561 0.21748 0.0
C739 C 0.56428 0.15246 0.18193 0.0
O740 O 0.62316 0.15134 0.1699 0.0
O741 O 0.63675 0.13617 0.18331 0.0
O742 O 0.55167 0.08233 0.15423 0.0
O743 O 0.58004 0.14107 0.15739 0.0
O744 O 0.56439 0.0443 0.16673 0.0
O745 O 0.59968 0.08206 0.17589 0.0
O746 O 0.51544 0.05388 0.18511 0.0
O747 O 0.50742 0.072 0.17146 0.0
O748 O 0.58865 0.11188 0.20065 0.0
O749 O 0.57421 0.05646 0.19626 0.0
O750 O 0.58513 0.15484 0.18845 0.0
O751 O 0.54844 0.11994 0.17881 0.0
H752 H 0.57872 0.17015 0.13978 0.0
H753 H 0.60839 0.18272 0.12549 0.0
H754 H 0.63225 0.09392 0.12943 0.0
H755 H 0.60172 0.08104 0.14372 0.0
H756 H 0.56656 0.01308 0.21021 0.0
H757 H 0.54878 0.99289 0.22528 0.0
H758 H 0.54427 0.09253 0.2306 0.0
H759 H 0.56104 0.1121 0.21549 0.0
Ho760 Ho 0.91783 0.47143 0.16813 0.0
Ho761 Ho 0.92175 0.48282 0.18769 0.0
C762 C 0.8617 0.49407 0.17741 0.0
C763 C 0.90041 0.45505 0.15173 0.0
C764 C 0.89453 0.47012 0.14341 0.0
C765 C 0.85847 0.46004 0.1406 0.0
C766 C 0.85237 0.47041 0.13232 0.0
C767 C 0.88212 0.49092 0.12655 0.0
C768 C 0.91827 0.50164 0.12943 0.0
C769 C 0.92437 0.49131 0.13772 0.0
C770 C 0.9696 0.54142 0.17347 0.0
C771 C 0.96647 0.44467 0.17889 0.0
C772 C 0.94181 0.50736 0.20353 0.0
C773 C 0.95783 0.50588 0.2121 0.0
C774 C 0.98376 0.53936 0.21609 0.0
C775 C 0.99497 0.5401 0.22475 0.0
C776 C 0.98056 0.50726 0.22972 0.0
C777 C 0.95557 0.47346 0.22559 0.0
C778 C 0.94426 0.47279 0.21691 0.0
C779 C 0.86584 0.41595 0.18249 0.0
O780 O 0.86776 0.47778 0.1707 0.0
O781 O 0.88385 0.50497 0.1843 0.0
O782 O 0.93422 0.46992 0.15477 0.0
O783 O 0.87593 0.4462 0.15797 0.0
O784 O 0.97322 0.52429 0.16684 0.0
O785 O 0.93762 0.52142 0.1766 0.0
O786 O 0.96342 0.46297 0.18566 0.0
O787 O 0.94744 0.44024 0.17162 0.0
O788 O 0.909 0.47996 0.20143 0.0
O789 O 0.96376 0.52156 0.19677 0.0
O790 O 0.86427 0.43426 0.18917 0.0
O791 O 0.8982 0.43245 0.17928 0.0
H792 H 0.83474 0.44319 0.14473 0.0
H793 H 0.8241 0.46117 0.13032 0.0
H794 H 0.94199 0.51787 0.12526 0.0
H795 H 0.9525 0.49929 0.13958 0.0
H796 H 0.99424 0.56537 0.2126 0.0
H797 H 0.01376 0.56677 0.22766 0.0
H798 H 0.94427 0.44748 0.22911 0.0
H799 H 0.92408 0.4465 0.21405 0.0
Ho800 Ho 0.54753 0.4515 0.1684 0.0
Ho801 Ho 0.53513 0.44215 0.18777 0.0
C802 C 0.52692 0.37266 0.17721 0.0
C803 C 0.56397 0.45142 0.15198 0.0
C804 C 0.54996 0.4298 0.14371 0.0
C805 C 0.56636 0.40977 0.14045 0.0
C806 C 0.55686 0.39307 0.13218 0.0
C807 C 0.53082 0.39609 0.12688 0.0
C808 C 0.5137 0.41535 0.13024 0.0
C809 C 0.52322 0.43208 0.13852 0.0
C810 C 0.47686 0.4313 0.17366 0.0
C811 C 0.57354 0.52604 0.17932 0.0
C812 C 0.50921 0.43699 0.20349 0.0
C813 C 0.5122 0.45477 0.21214 0.0
C814 C 0.48238 0.45852 0.21518 0.0
C815 C 0.48113 0.46853 0.22387 0.0
C816 C 0.50959 0.47487 0.2298 0.0
C817 C 0.54026 0.4727 0.22664 0.0
C818 C 0.54151 0.46268 0.21794 0.0
C819 C 0.60316 0.45504 0.18304 0.0
O820 O 0.54323 0.39607 0.1707 0.0
O821 O 0.51467 0.38236 0.18413 0.0
O822 O 0.54689 0.46819 0.15503 0.0
O823 O 0.57478 0.4375 0.1582 0.0
O824 O 0.49447 0.45402 0.16737 0.0
O825 O 0.49705 0.41924 0.17661 0.0
O826 O 0.55533 0.50413 0.18602 0.0
O827 O 0.5781 0.512 0.17199 0.0
O828 O 0.53459 0.42861 0.20139 0.0
O829 O 0.49716 0.44723 0.19673 0.0
O830 O 0.58448 0.43534 0.1897 0.0
O831 O 0.58643 0.4704 0.17962 0.0
H832 H 0.58731 0.40774 0.14421 0.0
H833 H 0.57025 0.37802 0.12991 0.0
H834 H 0.49385 0.4187 0.12635 0.0
H835 H 0.51032 0.44766 0.14074 0.0
H836 H 0.45918 0.45224 0.21092 0.0
H837 H 0.45736 0.47054 0.22598 0.0
H838 H 0.56259 0.47703 0.23099 0.0
H839 H 0.56476 0.45967 0.21588 0.0
Ho840 Ho 0.43869 0.23475 0.02337 0.0
Ho841 Ho 0.4347 0.2403 1.00366 0.0
C842 C 0.49565 0.3121 0.01371 0.0
C843 C 0.4557 0.23633 0.03979 0.0
C844 C 0.46377 0.25839 0.04801 0.0
C845 C 0.50003 0.27683 0.05141 0.0
C846 C 0.50742 0.29361 0.05967 0.0
C847 C 0.47871 0.29227 0.06482 0.0
C848 C 0.44257 0.27469 0.0613 0.0
C849 C 0.43517 0.25789 0.05303 0.0
C850 C 0.38757 0.25293 0.01764 0.0
C851 C 0.38866 0.15868 0.01295 0.0
C852 C 0.41442 0.24359 0.98776 0.0
C853 C 0.4013 0.22576 0.97903 0.0
C854 C 0.36401 0.21119 0.97654 0.0
C855 C 0.35284 0.20085 0.96784 0.0
C856 C 0.37872 0.20511 0.96135 0.0
C857 C 0.41577 0.21843 0.96393 0.0
C858 C 0.42689 0.22866 0.97262 0.0
C859 C 0.48902 0.22721 1.0091 0.0
O860 O 0.48897 0.29064 0.02062 0.0
O861 O 0.47377 0.3004 1.00677 0.0
O862 O 0.42172 0.21965 0.03681 0.0
O863 O 0.48031 0.24957 0.03352 0.0
O864 O 0.38317 0.23195 0.02428 0.0
O865 O 0.4197 0.26473 0.01461 0.0
O866 O 0.39147 0.17947 1.00608 0.0
O867 O 0.40869 0.17383 0.02007 0.0
O868 O 0.44847 0.25384 0.99007 0.0
O869 O 0.39147 0.23229 0.9944 0.0
O870 O 0.48997 0.24381 1.00187 0.0
O871 O 0.45707 0.21361 0.01242 0.0
H872 H 0.52266 0.27745 0.04777 0.0
H873 H 0.53571 0.30736 0.06206 0.0
H874 H 0.41961 0.27267 0.06507 0.0
H875 H 0.40679 0.24357 0.0507 0.0
H876 H 0.34361 0.20905 0.98125 0.0
H877 H 0.32395 0.19015 0.96619 0.0
H878 H 0.43674 0.22266 0.95916 0.0
H879 H 0.456 0.24041 0.97422 0.0
Ho880 Ho 0.78676 0.20967 0.02317 0.0
Ho881 Ho 0.78069 0.19966 1.00341 0.0
C882 C 0.70922 0.18958 0.01353 0.0
C883 C 0.78654 0.2264 0.03955 0.0
C884 C 0.76505 0.21435 0.04782 0.0
C885 C 0.76653 0.24154 0.0535 0.0
C886 C 0.75014 0.23197 0.06179 0.0
C887 C 0.73176 0.19482 0.06465 0.0
C888 C 0.72924 0.16735 0.05883 0.0
C889 C 0.74582 0.17702 0.05052 0.0
C890 C 0.76804 0.14019 0.01748 0.0
C891 C 0.86246 0.23479 0.01262 0.0
C892 C 0.77633 0.17513 0.98758 0.0
C893 C 0.79375 0.17658 0.97898 0.0
C894 C 0.78648 0.14313 0.97504 0.0
C895 C 0.79669 0.14231 0.96635 0.0
C896 C 0.81454 0.17502 0.96132 0.0
C897 C 0.82309 0.20881 0.96541 0.0
C898 C 0.81274 0.20957 0.97412 0.0
C899 C 0.79393 0.26705 1.00889 0.0
O900 O 0.73059 0.20362 0.0205 0.0
O901 O 0.72084 0.17991 1.0065 0.0
O902 O 0.80079 0.20672 0.03663 0.0
O903 O 0.77415 0.23856 0.03327 0.0
O904 O 0.78924 0.15682 0.02409 0.0
O905 O 0.75636 0.16063 0.01444 0.0
O906 O 0.84147 0.21696 1.00576 0.0
O907 O 0.8476 0.23977 0.01978 0.0
O908 O 0.77091 0.20252 0.98967 0.0
O909 O 0.78399 0.16089 0.99434 0.0
O910 O 0.77664 0.25118 1.00174 0.0
O911 O 0.80776 0.24879 1.01215 0.0
H912 H 0.78121 0.27051 0.0516 0.0
H913 H 0.75211 0.25384 0.06598 0.0
H914 H 0.7155 0.1385 0.0608 0.0
H915 H 0.74433 0.15543 0.04629 0.0
H916 H 0.77135 0.11719 0.97857 0.0
H917 H 0.78904 0.11565 0.96348 0.0
H918 H 0.83734 0.23471 0.96185 0.0
H919 H 0.8186 0.23584 0.97694 0.0
Ho920 Ho 0.81106 0.58242 0.02317 0.0
Ho921 Ho 0.82101 0.58622 1.00345 0.0
C922 C 0.83082 0.52478 0.01355 0.0
C923 C 0.79567 0.5657 0.03961 0.0
C924 C 0.81051 0.55905 0.04788 0.0
C925 C 0.79936 0.52269 0.05065 0.0
C926 C 0.80942 0.51603 0.05891 0.0
C927 C 0.83069 0.54552 0.0647 0.0
C928 C 0.84252 0.58194 0.06184 0.0
C929 C 0.8325 0.5886 0.05358 0.0
C930 C 0.88051 0.63334 0.0175 0.0
C931 C 0.78535 0.63244 0.01262 0.0
C932 C 0.84534 0.60664 0.98761 0.0
C933 C 0.84249 0.62142 0.97895 0.0
C934 C 0.87184 0.65559 0.97603 0.0
C935 C 0.87358 0.66682 0.96732 0.0
C936 C 0.84609 0.64407 0.96124 0.0
C937 C 0.81581 0.61061 0.96427 0.0
C938 C 0.81408 0.59938 0.97299 0.0
C939 C 0.75349 0.53206 1.00886 0.0
O940 O 0.81613 0.53179 0.02043 0.0
O941 O 0.8412 0.54651 1.00659 0.0
O942 O 0.81168 0.59954 0.03655 0.0
O943 O 0.78534 0.54095 0.03338 0.0
O944 O 0.86391 0.63779 0.02412 0.0
O945 O 0.86016 0.60119 0.01446 0.0
O946 O 0.8035 0.62956 1.00579 0.0
O947 O 0.7802 0.61239 0.01975 0.0
O948 O 0.81972 0.57305 0.98977 0.0
O949 O 0.85823 0.62905 0.99434 0.0
O950 O 0.76925 0.53088 1.00167 0.0
O951 O 0.77183 0.56406 1.01216 0.0
H952 H 0.78188 0.49918 0.04652 0.0
H953 H 0.79935 0.48757 0.06088 0.0
H954 H 0.85936 0.60546 0.06603 0.0
H955 H 0.84131 0.61696 0.05175 0.0
H956 H 0.89441 0.67303 0.9804 0.0
H957 H 0.897 0.69307 0.96531 0.0
H958 H 0.79424 0.59212 0.95981 0.0
H959 H 0.79126 0.57264 0.97495 0.0
Ho960 Ho 0.44558 0.91815 0.83678 0.0
Ho961 Ho 0.45303 0.9132 0.85617 0.0
C962 C 0.52837 0.96244 0.84559 0.0
C963 C 0.44092 0.93871 0.821 0.0
C964 C 0.45709 0.94924 0.81207 0.0
C965 C 0.48768 0.98436 0.81017 0.0
C966 C 0.4988 0.99506 0.80147 0.0
C967 C 0.47944 0.97103 0.79446 0.0
C968 C 0.44939 0.93565 0.79645 0.0
C969 C 0.43843 0.92499 0.8051 0.0
C970 C 0.45783 0.86233 0.84133 0.0
C971 C 0.37454 0.8575 0.847 0.0
C972 C 0.45209 0.89605 0.87258 0.0
C973 C 0.43136 0.8905 0.88092 0.0
C974 C 0.40537 0.85454 0.88377 0.0
C975 C 0.38909 0.84871 0.89208 0.0
C976 C 0.39853 0.87865 0.89781 0.0
C977 C 0.42396 0.9147 0.89487 0.0
C978 C 0.44019 0.92053 0.88656 0.0
C979 C 0.43485 0.96525 0.85096 0.0
O980 O 0.50704 0.9605 0.83891 0.0
O981 O 0.51359 0.94197 0.85265 0.0
O982 O 0.42778 0.90423 0.82338 0.0
O983 O 0.45594 0.96205 0.82751 0.0
O984 O 0.43931 0.8623 0.83454 0.0
O985 O 0.47266 0.89393 0.84497 0.0
O986 O 0.39723 0.86269 0.85355 0.0
O987 O 0.38549 0.88077 0.84032 0.0
O988 O 0.47125 0.92977 0.86951 0.0
O989 O 0.43613 0.8715 0.86637 0.0
O990 O 0.45669 0.96932 0.85738 0.0
O991 O 0.42241 0.93311 0.84792 0.0
H992 H 0.50249 1.00392 0.81536 0.0
H993 H 0.52236 0.02235 0.80025 0.0
H994 H 0.43319 0.91651 0.7913 0.0
H995 H 0.41429 0.89803 0.80631 0.0
H996 H 0.39835 0.83067 0.87968 0.0
H997 H 0.37005 0.8205 0.89411 0.0
H998 H 0.43159 0.93855 0.89901 0.0
H999 H 0.46036 0.9486 0.88466 0.0
Ho1000 Ho 0.10091 0.53007 0.83674 0.0
Ho1001 Ho 0.1071 0.54279 0.85621 0.0
C1002 C 0.0566 0.56802 0.84576 0.0
C1003 C 0.07876 0.5037 0.82111 0.0
C1004 C 0.06315 0.50596 0.81255 0.0
C1005 C 0.03735 0.47286 0.80842 0.0
C1006 C 0.02672 0.47292 0.79974 0.0
C1007 C 0.04162 0.50618 0.79492 0.0
C1008 C 0.06642 0.53959 0.79921 0.0
C1009 C 0.07713 0.53948 0.80791 0.0
C1010 C 0.15654 0.59826 0.84125 0.0
C1011 C 0.1633 0.52123 0.84662 0.0
C1012 C 0.12533 0.55982 0.87255 0.0
C1013 C 0.13277 0.54593 0.88086 0.0
C1014 C 0.16865 0.56425 0.88447 0.0
C1015 C 0.17547 0.55482 0.89279 0.0
C1016 C 0.14654 0.52689 0.89779 0.0
C1017 C 0.11078 0.50787 0.89406 0.0
C1018 C 0.10396 0.51731 0.88573 0.0
C1019 C 0.05539 0.47239 0.85108 0.0
O1020 O 0.0585 0.54882 0.83904 0.0
O1021 O 0.07728 0.57377 0.8528 0.0
O1022 O 0.11246 0.52981 0.82302 0.0
O1023 O 0.05706 0.49157 0.82796 0.0
O1024 O 0.15657 0.57986 0.83443 0.0
O1025 O 0.12511 0.58126 0.84496 0.0
O1026 O 0.15729 0.53708 0.85342 0.0
O1027 O 0.14066 0.50988 0.83981 0.0
O1028 O 0.09124 0.54359 0.86964 0.0
O1029 O 0.14953 0.56938 0.86623 0.0
O1030 O 0.05141 0.49001 0.85755 0.0
O1031 O 0.0873 0.49238 0.84793 0.0
H1032 H 0.02657 0.44657 0.81179 0.0
H1033 H 1.00802 0.44654 0.79669 0.0
H1034 H 0.07806 0.56587 0.79581 0.0
H1035 H 0.09722 0.56547 0.81091 0.0
H1036 H 0.1914 0.58663 0.88094 0.0
H1037 H 0.2035 0.56973 0.89533 0.0
H1038 H 0.08764 0.4865 0.8977 0.0
H1039 H 0.07585 0.50281 0.88322 0.0
Ho1040 Ho 0.48972 0.57302 0.83684 0.0
Ho1041 Ho 0.47872 0.56713 0.85646 0.0
C1042 C 0.45254 0.49131 0.84602 0.0
C1043 C 0.51437 0.57654 0.82103 0.0
C1044 C 0.50963 0.55884 0.81228 0.0
C1045 C 0.53256 0.54457 0.80976 0.0
C1046 C 0.53333 0.53425 0.80106 0.0
C1047 C 0.51143 0.53821 0.79459 0.0
C1048 C 0.48749 0.55123 0.79721 0.0
C1049 C 0.48667 0.56146 0.8059 0.0
C1050 C 0.4218 0.5599 0.84187 0.0
C1051 C 0.49955 0.64449 0.84688 0.0
C1052 C 0.46294 0.56843 0.87287 0.0
C1053 C 0.47804 0.58933 0.8812 0.0
C1054 C 0.46911 0.6163 0.88387 0.0
C1055 C 0.47931 0.63266 0.89217 0.0
C1056 C 0.49849 0.62232 0.89808 0.0
C1057 C 0.50812 0.59593 0.89532 0.0
C1058 C 0.49796 0.57961 0.88702 0.0
C1059 C 0.54852 0.58535 0.85097 0.0
O1060 O 0.4727 0.51228 0.83938 0.0
O1061 O 0.44608 0.50649 0.85291 0.0
O1062 O 0.4912 0.58767 0.82327 0.0
O1063 O 0.52492 0.56435 0.8277 0.0
O1064 O 0.43799 0.57624 0.83466 0.0
O1065 O 0.43984 0.54639 0.84538 0.0
O1066 O 0.48346 0.62252 0.85364 0.0
O1067 O 0.511 0.63316 0.8401 0.0
O1068 O 0.47775 0.54946 0.86981 0.0
O1069 O 0.45402 0.58409 0.86666 0.0
O1070 O 0.53141 0.56409 0.85753 0.0
O1071 O 0.52839 0.59729 0.84791 0.0
H1072 H 0.55102 0.54265 0.81445 0.0
H1073 H 0.55168 0.52378 0.79938 0.0
H1074 H 0.47052 0.55521 0.79246 0.0
H1075 H 0.46911 0.57294 0.80753 0.0
H1076 H 0.45324 0.62403 0.87964 0.0
H1077 H 0.47093 0.65247 0.89407 0.0
H1078 H 0.52331 0.58759 0.89961 0.0
H1079 H 0.50498 0.55866 0.88526 0.0
Ho1080 Ho 0.59016 0.77598 0.02094 0.0
Ho1081 Ho 0.58372 0.78248 1.00151 0.0
C1082 C 0.63352 0.8583 1.01188 0.0
C1083 C 0.61268 0.77236 0.03657 0.0
C1084 C 0.62752 0.79012 0.04521 0.0
C1085 C 0.66115 0.79391 0.04822 0.0
C1086 C 0.67234 0.80353 0.05692 0.0
C1087 C 0.65008 0.80945 0.06291 0.0
C1088 C 0.61725 0.80739 0.05978 0.0
C1089 C 0.60605 0.79775 0.05106 0.0
C1090 C 0.53391 0.78765 0.01651 0.0
C1091 C 0.52842 0.70449 1.01099 0.0
C1092 C 0.56545 0.78083 0.98517 0.0
C1093 C 0.55979 0.75988 0.97686 0.0
C1094 C 0.52367 0.73614 0.97372 0.0
C1095 C 0.51789 0.71965 0.96544 0.0
C1096 C 0.54808 0.72665 0.96003 0.0
C1097 C 0.58423 0.74981 0.96326 0.0
C1098 C 0.59001 0.76624 0.97154 0.0
C1099 C 0.636 0.76453 1.00659 0.0
O1100 O 0.63216 0.83735 0.01858 0.0
O1101 O 0.61252 0.84315 1.00491 0.0
O1102 O 0.57849 0.76286 0.03461 0.0
O1103 O 0.63458 0.78317 0.02974 0.0
O1104 O 0.53422 0.7693 0.02331 0.0
O1105 O 0.56531 0.80248 0.01279 0.0
O1106 O 0.53355 0.72675 1.00434 0.0
O1107 O 0.55168 0.71577 0.01768 0.0
O1108 O 0.5993 0.80056 0.98814 0.0
O1109 O 0.54131 0.7647 0.99145 0.0
O1110 O 0.63967 0.78594 1.00011 0.0
O1111 O 0.60409 0.7523 1.00973 0.0
H1112 H 0.67812 0.78785 0.04392 0.0
H1113 H 0.69812 0.8055 0.05901 0.0
H1114 H 0.59916 0.81143 0.06416 0.0
H1115 H 0.57976 0.79472 0.04902 0.0
H1116 H 0.49975 0.7311 0.97757 0.0
H1117 H 0.48965 0.70241 0.96317 0.0
H1118 H 0.60821 0.7555 0.95936 0.0
H1119 H 0.61825 0.78459 0.97368 0.0
Ho1120 Ho 0.24369 0.81827 0.02103 0.0
Ho1121 Ho 0.23801 0.80773 1.00133 0.0
C1122 C 0.16201 0.78185 1.01172 0.0
C1123 C 0.24727 0.84316 0.03681 0.0
C1124 C 0.22979 0.84008 0.04551 0.0
C1125 C 0.2258 0.86973 0.04858 0.0
C1126 C 0.21635 0.87115 0.05732 0.0
C1127 C 0.2108 0.84301 0.06327 0.0
C1128 C 0.21316 0.81246 0.06008 0.0
C1129 C 0.22264 0.81107 0.05134 0.0
C1130 C 0.23049 0.75053 0.01587 0.0
C1131 C 0.31522 0.82811 1.01102 0.0
C1132 C 0.23965 0.79217 0.98491 0.0
C1133 C 0.26092 0.80723 0.97663 0.0
C1134 C 0.28594 0.79601 0.97376 0.0
C1135 C 0.30248 0.80624 0.96547 0.0
C1136 C 0.29425 0.82775 0.95978 0.0
C1137 C 0.26985 0.83964 0.96274 0.0
C1138 C 0.25336 0.82946 0.97103 0.0
C1139 C 0.25619 0.87728 1.00693 0.0
O1140 O 0.18282 0.80045 0.01854 0.0
O1141 O 0.17718 0.77643 1.00467 0.0
O1142 O 0.25643 0.81835 0.0347 0.0
O1143 O 0.23669 0.85493 0.03007 0.0
O1144 O 0.24704 0.76662 0.02308 0.0
O1145 O 0.21702 0.7687 0.01238 0.0
O1146 O 0.29346 0.81257 1.00419 0.0
O1147 O 0.30378 0.83907 0.01787 0.0
O1148 O 0.22107 0.80742 0.98795 0.0
O1149 O 0.25472 0.78267 0.99115 0.0
O1150 O 0.23533 0.86054 1.00029 0.0
O1151 O 0.26801 0.85703 1.00999 0.0
H1152 H 0.23152 0.89274 0.04431 0.0
H1153 H 0.21417 0.89481 0.05944 0.0
H1154 H 0.20943 0.79037 0.06444 0.0
H1155 H 0.22588 0.78797 0.04926 0.0
H1156 H 0.29194 0.77835 0.97781 0.0
H1157 H 0.32071 0.7961 0.96342 0.0
H1158 H 0.26319 0.85666 0.95863 0.0
H1159 H 0.23396 0.83834 0.97294 0.0
Ho1160 Ho 0.20131 0.43032 0.02113 0.0
Ho1161 Ho 0.21403 0.43695 1.00162 0.0
C1162 C 0.23993 0.38688 1.01193 0.0
C1163 C 0.17539 0.40764 0.03677 0.0
C1164 C 0.17944 0.39387 0.04545 0.0
C1165 C 0.15016 0.36044 0.04873 0.0
C1166 C 0.14985 0.35019 0.05748 0.0
C1167 C 0.17873 0.37328 0.06322 0.0
C1168 C 0.20882 0.406 0.05983 0.0
C1169 C 0.20918 0.41618 0.05107 0.0
C1170 C 0.26936 0.48632 0.01667 0.0
C1171 C 0.19152 0.49218 1.01128 0.0
C1172 C 0.23073 0.45547 0.98529 0.0
C1173 C 0.21617 0.46216 0.97699 0.0
C1174 C 0.2322 0.49829 0.97356 0.0
C1175 C 0.22214 0.50469 0.96527 0.0
C1176 C 0.1959 0.47508 0.96011 0.0
C1177 C 0.17927 0.43898 0.96364 0.0
C1178 C 0.18928 0.43259 0.97194 0.0
C1179 C 0.14394 0.38455 1.00674 0.0
O1180 O 0.22058 0.38836 0.01867 0.0
O1181 O 0.24565 0.40782 1.00495 0.0
O1182 O 0.19893 0.4421 0.03474 0.0
O1183 O 0.16518 0.38546 0.02999 0.0
O1184 O 0.25106 0.48591 0.02355 0.0
O1185 O 0.25245 0.45503 0.0129 0.0
O1186 O 0.20791 0.48676 1.00451 0.0
O1187 O 0.18008 0.46925 0.01802 0.0
O1188 O 0.21555 0.42144 0.98819 0.0
O1189 O 0.23956 0.47957 0.99162 0.0
O1190 O 0.16159 0.38102 1.00021 0.0
O1191 O 0.16363 0.41644 1.00992 0.0
H1192 H 0.12656 0.34295 0.04462 0.0
H1193 H 0.12602 0.32498 0.05983 0.0
H1194 H 0.23187 0.42422 0.06399 0.0
H1195 H 0.23214 0.44225 0.04881 0.0
H1196 H 0.25342 0.52163 0.97719 0.0
H1197 H 0.23599 0.53281 0.96278 0.0
H1198 H 0.1586 0.41548 0.95995 0.0
H1199 H 0.17647 0.40432 0.97431 0.0
Ho1200 Ho 0.24018 0.43823 0.50175 0.0
Ho1201 Ho 0.24645 0.43151 0.52125 0.0
C1202 C 0.31805 0.49352 0.51136 0.0
C1203 C 0.24164 0.45757 0.48552 0.0
C1204 C 0.26291 0.46473 0.47722 0.0
C1205 C 0.27987 0.50035 0.47349 0.0
C1206 C 0.29629 0.50694 0.4652 0.0
C1207 C 0.29605 0.47802 0.46035 0.0
C1208 C 0.27991 0.44253 0.4642 0.0
C1209 C 0.2635 0.43595 0.47251 0.0
C1210 C 0.25834 0.38596 0.50665 0.0
C1211 C 0.16425 0.38754 0.51213 0.0
C1212 C 0.24969 0.40911 0.53693 0.0
C1213 C 0.23159 0.39567 0.54561 0.0
C1214 C 0.21857 0.35869 0.54814 0.0
C1215 C 0.20788 0.34733 0.5568 0.0
C1216 C 0.21024 0.37273 0.56322 0.0
C1217 C 0.22197 0.40941 0.5606 0.0
C1218 C 0.23254 0.42072 0.55193 0.0
C1219 C 0.23406 0.48734 0.51677 0.0
O1220 O 0.29611 0.48803 0.50461 0.0
O1221 O 0.30665 0.47065 0.51812 0.0
O1222 O 0.22284 0.42338 0.48832 0.0
O1223 O 0.25701 0.48137 0.4919 0.0
O1224 O 0.23797 0.38317 0.50001 0.0
O1225 O 0.2701 0.41749 0.51004 0.0
O1226 O 0.18519 0.38941 0.51888 0.0
O1227 O 0.17933 0.40824 0.50511 0.0
O1228 O 0.26113 0.44362 0.53484 0.0
O1229 O 0.23749 0.38684 0.53016 0.0
O1230 O 0.25214 0.48714 0.52364 0.0
O1231 O 0.21971 0.45593 0.51307 0.0
H1232 H 0.27968 0.52306 0.47691 0.0
H1233 H 0.30896 0.53478 0.46256 0.0
H1234 H 0.27877 0.41942 0.46068 0.0
H1235 H 0.25043 0.40805 0.47513 0.0
H1236 H 0.21794 0.33876 0.54349 0.0
H1237 H 0.19841 0.3187 0.55849 0.0
H1238 H 0.22469 0.43001 0.56531 0.0
H1239 H 0.24297 0.4496 0.5503 0.0
Ho1240 Ho 0.58688 0.80952 0.50075 0.0
Ho1241 Ho 0.59144 0.82038 0.52044 0.0
C1242 C 0.52974 0.82996 0.51032 0.0
C1243 C 0.56961 0.79215 0.4844 0.0
C1244 C 0.56032 0.80385 0.47606 0.0
C1245 C 0.53453 0.77641 0.47044 0.0
C1246 C 0.52782 0.78558 0.4621 0.0
C1247 C 0.54676 0.82256 0.45912 0.0
C1248 C 0.57178 0.8503 0.46488 0.0
C1249 C 0.5786 0.84103 0.47325 0.0
C1250 C 0.63772 0.87942 0.50626 0.0
C1251 C 0.63771 0.78469 0.51129 0.0
C1252 C 0.6123 0.84531 0.53622 0.0
C1253 C 0.6267 0.84206 0.5449 0.0
C1254 C 0.66046 0.87156 0.54798 0.0
C1255 C 0.67135 0.8728 0.5567 0.0
C1256 C 0.64865 0.84463 0.56264 0.0
C1257 C 0.61562 0.81423 0.55945 0.0
C1258 C 0.60473 0.81301 0.55071 0.0
C1259 C 0.53731 0.75238 0.51525 0.0
O1260 O 0.53634 0.81478 0.50346 0.0
O1261 O 0.55193 0.84079 0.51721 0.0
O1262 O 0.60361 0.81164 0.48729 0.0
O1263 O 0.54512 0.78066 0.49069 0.0
O1264 O 0.64214 0.86262 0.49967 0.0
O1265 O 0.60571 0.85897 0.50936 0.0
O1266 O 0.63479 0.80286 0.51811 0.0
O1267 O 0.61765 0.77947 0.50415 0.0
O1268 O 0.57842 0.82033 0.53408 0.0
O1269 O 0.63477 0.85734 0.52949 0.0
O1270 O 0.53639 0.76857 0.5224 0.0
O1271 O 0.56914 0.77074 0.51186 0.0
H1272 H 0.5201 0.74755 0.47243 0.0
H1273 H 0.50786 0.76352 0.45795 0.0
H1274 H 0.58703 0.87903 0.46283 0.0
H1275 H 0.59876 0.8628 0.47743 0.0
H1276 H 0.67783 0.89459 0.54372 0.0
H1277 H 0.69728 0.89634 0.55883 0.0
H1278 H 0.59719 0.79214 0.56379 0.0
H1279 H 0.57831 0.79002 0.54863 0.0
Ho1280 Ho 0.21488 0.7832 0.50142 0.0
Ho1281 Ho 0.20226 0.77641 0.52089 0.0
C1282 C 0.19238 0.70504 0.51086 0.0
C1283 C 0.23157 0.78174 0.48507 0.0
C1284 C 0.21718 0.76037 0.47676 0.0
C1285 C 0.23098 0.73767 0.47373 0.0
C1286 C 0.22137 0.72117 0.46543 0.0
C1287 C 0.19782 0.72704 0.45987 0.0
C1288 C 0.18327 0.74903 0.46299 0.0
C1289 C 0.1929 0.76554 0.4713 0.0
C1290 C 0.14462 0.76488 0.50652 0.0
C1291 C 0.24057 0.85888 0.51192 0.0
C1292 C 0.17669 0.77253 0.5366 0.0
C1293 C 0.17963 0.79017 0.54527 0.0
C1294 C 0.14986 0.79402 0.54831 0.0
C1295 C 0.14837 0.80361 0.55702 0.0
C1296 C 0.17654 0.80941 0.563 0.0
C1297 C 0.2072 0.8072 0.55985 0.0
C1298 C 0.20868 0.7976 0.55112 0.0
C1299 C 0.27021 0.78842 0.51627 0.0
O1300 O 0.20916 0.72729 0.50419 0.0
O1301 O 0.18059 0.71626 0.5176 0.0
O1302 O 0.21594 0.80012 0.48799 0.0
O1303 O 0.24086 0.76684 0.49138 0.0
O1304 O 0.16236 0.78644 0.50006 0.0
O1305 O 0.16438 0.75275 0.5097 0.0
O1306 O 0.22129 0.83771 0.51862 0.0
O1307 O 0.24623 0.84397 0.50486 0.0
O1308 O 0.20168 0.76356 0.53455 0.0
O1309 O 0.16502 0.78299 0.52981 0.0
O1310 O 0.25173 0.76979 0.52306 0.0
O1311 O 0.25342 0.80327 0.51268 0.0
H1312 H 0.25005 0.73337 0.4777 0.0
H1313 H 0.23273 0.70401 0.46335 0.0
H1314 H 0.16545 0.75466 0.4589 0.0
H1315 H 0.18209 0.78326 0.47332 0.0
H1316 H 0.12684 0.7881 0.54402 0.0
H1317 H 0.12462 0.80568 0.55912 0.0
H1318 H 0.22932 0.81112 0.56422 0.0
H1319 H 0.23188 0.79448 0.54907 0.0
Ho1320 Ho 0.10847 0.56853 0.35618 0.0
Ho1321 Ho 0.10221 0.57515 0.33662 0.0
C1322 C 0.16394 0.64669 0.34662 0.0
C1323 C 0.12761 0.57009 0.37245 0.0
C1324 C 0.13471 0.59137 0.38075 0.0
C1325 C 0.16974 0.60665 0.38475 0.0
C1326 C 0.17618 0.62325 0.39302 0.0
C1327 C 0.14765 0.62492 0.39759 0.0
C1328 C 0.11273 0.61027 0.3935 0.0
C1329 C 0.10633 0.59372 0.3852 0.0
C1330 C 0.05639 0.58681 0.35116 0.0
C1331 C 0.0587 0.49257 0.34561 0.0
C1332 C 0.07971 0.57902 0.32101 0.0
C1333 C 0.06418 0.56131 0.31242 0.0
C1334 C 0.03769 0.56789 0.30841 0.0
C1335 C 0.02675 0.55716 0.29974 0.0
C1336 C 0.04202 0.53943 0.29481 0.0
C1337 C 0.06762 0.53162 0.29896 0.0
C1338 C 0.07865 0.54251 0.30765 0.0
C1339 C 0.15848 0.56377 0.34121 0.0
O1340 O 0.15842 0.6246 0.35334 0.0
O1341 O 0.14104 0.63532 0.33986 0.0
O1342 O 0.09345 0.55133 0.36961 0.0
O1343 O 0.15148 0.58544 0.36609 0.0
O1344 O 0.05339 0.5665 0.35783 0.0
O1345 O 0.08799 0.59847 0.34785 0.0
O1346 O 0.0611 0.51361 0.33883 0.0
O1347 O 0.07833 0.50752 0.3528 0.0
O1348 O 0.11361 0.58721 0.3229 0.0
O1349 O 0.058 0.56894 0.32787 0.0
O1350 O 0.15839 0.58219 0.3344 0.0
O1351 O 0.12687 0.54878 0.34484 0.0
H1352 H 0.19203 0.60484 0.38156 0.0
H1353 H 0.20328 0.63368 0.39596 0.0
H1354 H 0.09019 0.61144 0.39672 0.0
H1355 H 0.07892 0.58215 0.38236 0.0
H1356 H 0.02651 0.58284 0.31188 0.0
H1357 H 1.00746 0.56427 0.29681 0.0
H1358 H 0.07959 0.5175 0.29547 0.0
H1359 H 0.09928 0.53718 0.31054 0.0
Ho1360 Ho 0.45503 0.54509 0.35672 0.0
Ho1361 Ho 0.44919 0.53365 0.33707 0.0
C1362 C 0.37774 0.52432 0.34704 0.0
C1363 C 0.45362 0.56127 0.3731 0.0
C1364 C 0.43228 0.54663 0.38139 0.0
C1365 C 0.41119 0.5618 0.38469 0.0
C1366 C 0.39456 0.55169 0.39295 0.0
C1367 C 0.39876 0.52626 0.39822 0.0
C1368 C 0.41925 0.5105 0.39483 0.0
C1369 C 0.43583 0.52057 0.38655 0.0
C1370 C 0.43639 0.47515 0.35131 0.0
C1371 C 0.53086 0.57077 0.34631 0.0
C1372 C 0.44534 0.50825 0.32134 0.0
C1373 C 0.46286 0.51109 0.31267 0.0
C1374 C 0.46707 0.48145 0.30969 0.0
C1375 C 0.4765 0.47974 0.30098 0.0
C1376 C 0.48179 0.50755 0.29495 0.0
C1377 C 0.47924 0.53812 0.29804 0.0
C1378 C 0.46979 0.53982 0.30677 0.0
C1379 C 0.46238 0.60167 0.34206 0.0
O1380 O 0.3996 0.54024 0.35384 0.0
O1381 O 0.38911 0.51294 0.34025 0.0
O1382 O 0.47207 0.54578 0.37012 0.0
O1383 O 0.43857 0.57064 0.36684 0.0
O1384 O 0.45758 0.49217 0.35789 0.0
O1385 O 0.42474 0.4954 0.34818 0.0
O1386 O 0.50986 0.5506 0.33966 0.0
O1387 O 0.51574 0.57733 0.35319 0.0
O1388 O 0.43639 0.53326 0.3234 0.0
O1389 O 0.45582 0.49654 0.32812 0.0
O1390 O 0.44582 0.58529 0.33489 0.0
O1391 O 0.4759 0.58362 0.34557 0.0
H1392 H 0.40839 0.58241 0.38097 0.0
H1393 H 0.37949 0.56488 0.39534 0.0
H1394 H 0.42274 0.49047 0.39861 0.0
H1395 H 0.45211 0.50848 0.38429 0.0
H1396 H 0.46152 0.45867 0.31402 0.0
H1397 H 0.47884 0.4561 0.29892 0.0
H1398 H 0.48277 0.55995 0.29362 0.0
H1399 H 0.46638 0.56289 0.30878 0.0
Ho1400 Ho 0.47837 0.91528 0.35586 0.0
Ho1401 Ho 0.49112 0.92216 0.33641 0.0
C1402 C 0.50081 0.86001 0.34622 0.0
C1403 C 0.46055 0.89665 0.37213 0.0
C1404 C 0.47329 0.88825 0.38045 0.0
C1405 C 0.4472 0.85951 0.38574 0.0
C1406 C 0.45713 0.85266 0.39398 0.0
C1407 C 0.49358 0.87441 0.39719 0.0
C1408 C 0.51993 0.90293 0.39179 0.0
C1409 C 0.50991 0.90978 0.38352 0.0
C1410 C 0.54885 0.96731 0.35082 0.0
C1411 C 0.45252 0.96544 0.34557 0.0
C1412 C 0.5168 0.94443 0.32074 0.0
C1413 C 0.51381 0.95942 0.31213 0.0
C1414 C 0.54388 0.99276 0.30906 0.0
C1415 C 0.54523 1.00394 0.30037 0.0
C1416 C 0.51661 0.98193 0.29445 0.0
C1417 C 0.48565 0.94939 0.29764 0.0
C1418 C 0.4843 0.93823 0.30635 0.0
C1419 C 0.42301 0.86596 0.34088 0.0
O1420 O 0.48477 0.8656 0.35304 0.0
O1421 O 0.51194 0.88277 0.33944 0.0
O1422 O 0.47811 0.9309 0.36933 0.0
O1423 O 0.45088 0.87258 0.36577 0.0
O1424 O 0.53106 0.97106 0.35729 0.0
O1425 O 0.52892 0.93556 0.34757 0.0
O1426 O 0.47299 0.96504 0.33896 0.0
O1427 O 0.44607 0.94366 0.35242 0.0
O1428 O 0.49173 0.91042 0.32272 0.0
O1429 O 0.52854 0.96632 0.32757 0.0
O1430 O 0.44146 0.8663 0.33404 0.0
O1431 O 0.43989 0.89738 0.34459 0.0
H1432 H 0.4187 0.84276 0.38358 0.0
H1433 H 0.43582 0.83087 0.39794 0.0
H1434 H 0.54837 0.91999 0.39395 0.0
H1435 H 0.53067 0.93219 0.37959 0.0
H1436 H 0.56723 0.00951 0.31331 0.0
H1437 H 0.56922 0.02951 0.29823 0.0
H1438 H 0.46318 0.93149 0.2933 0.0
H1439 H 0.46084 0.91214 0.30843 0.0
H1440 H 0.16099 0.18741 0.18826 0.0
H1441 H 0.10577 0.13719 0.164 0.0
H1442 H 0.17668 0.13797 0.19008 0.0
H1443 H 0.12139 0.08869 0.16577 0.0
H1444 H 0.18174 0.02495 0.16648 0.0
H1445 H 0.17656 0.08081 0.16553 0.0
H1446 H 0.14362 0.06843 0.19259 0.0
H1447 H 0.14896 0.01273 0.19357 0.0
C1448 C 0.15228 0.16593 0.18333 0.0
C1449 C 0.13228 0.16631 0.17597 0.0
C1450 C 0.16122 0.13766 0.18437 0.0
C1451 C 0.15076 0.10963 0.178 0.0
C1452 C 0.13063 0.11019 0.1707 0.0
C1453 C 0.1214 0.13794 0.16973 0.0
C1454 C 0.17408 0.03448 0.17227 0.0
C1455 C 0.16548 0.01406 0.18007 0.0
C1456 C 0.17086 0.0664 0.17172 0.0
C1457 C 0.15924 0.07889 0.17896 0.0
C1458 C 0.15276 0.05972 0.1869 0.0
C1459 C 0.15566 0.02762 0.18744 0.0
H1460 H 0.99356 0.16274 0.16674 0.0
H1461 H 1.00506 0.14082 0.19377 0.0
H1462 H 0.93773 0.10165 0.1656 0.0
H1463 H 0.94944 0.0798 0.1926 0.0
H1464 H 0.83116 0.97808 0.18815 0.0
H1465 H 0.88027 0.0433 0.19005 0.0
H1466 H 0.92935 0.03839 0.16562 0.0
H1467 H 0.88109 0.97407 0.16378 0.0
C1468 C 0.98384 0.14528 0.17249 0.0
C1469 C 1.00409 0.15673 0.18032 0.0
C1470 C 0.95196 0.11008 0.17182 0.0
C1471 C 0.93928 0.08556 0.17898 0.0
C1472 C 0.95826 0.09793 0.18696 0.0
C1473 C 0.99032 0.13294 0.18761 0.0
C1474 C 0.8525 0.99109 0.18321 0.0
C1475 C 0.85216 0.97092 0.17581 0.0
C1476 C 0.8806 0.02838 0.18429 0.0
C1477 C 0.90854 0.0463 0.17792 0.0
C1478 C 0.90795 0.02587 0.17056 0.0
C1479 C 0.88035 0.98877 0.16955 0.0
H1480 H 0.0388 0.85488 0.18841 0.0
H1481 H 0.04349 0.90755 0.16381 0.0
H1482 H 0.97371 0.83928 0.19018 0.0
H1483 H 0.97926 0.89197 0.16552 0.0
H1484 H 0.85492 0.83371 0.16678 0.0
H1485 H 0.91543 0.8377 0.16568 0.0
H1486 H 0.9386 0.8736 0.19253 0.0
H1487 H 0.87816 0.86951 0.19365 0.0
C1488 C 0.02592 0.86291 0.18338 0.0
C1489 C 0.04629 0.88237 0.17597 0.0
C1490 C 0.98872 0.85407 0.18439 0.0
C1491 C 0.97108 0.86403 0.17794 0.0
C1492 C 0.99159 0.8832 0.17053 0.0
C1493 C 0.02863 0.8924 0.16959 0.0
C1494 C 0.87255 0.84173 0.1725 0.0
C1495 C 0.86164 0.85154 0.18028 0.0
C1496 C 0.9074 0.84429 0.17186 0.0
C1497 C 0.93211 0.85636 0.17899 0.0
C1498 C 0.92029 0.86406 0.18692 0.0
C1499 C 0.88562 0.86187 0.18754 0.0
H1500 H 0.14584 0.10948 0.36078 0.0
H1501 H 0.19527 0.1633 0.33637 0.0
H1502 H 0.09777 0.12582 0.35907 0.0
H1503 H 0.14636 0.1797 0.3346 0.0
H1504 H 0.02118 0.15096 0.3309 0.0
H1505 H 0.07722 0.14639 0.33207 0.0
H1506 H 0.08875 0.1803 0.35906 0.0
H1507 H 0.03248 0.18472 0.35792 0.0
C1508 C 0.14657 0.12505 0.35504 0.0
C1509 C 0.1745 0.13518 0.34872 0.0
C1510 C 0.11906 0.13469 0.3541 0.0
C1511 C 0.11831 0.15444 0.34674 0.0
C1512 C 0.14614 0.16448 0.34035 0.0
C1513 C 0.17416 0.15518 0.34136 0.0
C1514 C 0.03596 0.15808 0.33706 0.0
C1515 C 0.02202 0.16794 0.34434 0.0
C1516 C 0.06828 0.15562 0.33771 0.0
C1517 C 0.08734 0.16258 0.34568 0.0
C1518 C 0.07447 0.17426 0.35284 0.0
C1519 C 0.04233 0.17709 0.35217 0.0
H1520 H 0.8767 0.87753 0.33084 0.0
H1521 H 0.8451 0.85751 0.35801 0.0
H1522 H 0.88257 0.93881 0.33187 0.0
H1523 H 0.8508 0.91874 0.35901 0.0
H1524 H 0.92095 0.04585 0.36052 0.0
H1525 H 0.90574 0.98184 0.3587 0.0
H1526 H 0.84973 0.97541 0.33448 0.0
H1527 H 0.86502 0.04041 0.33637 0.0
C1528 C 0.87039 0.88589 0.337 0.0
C1529 C 0.86069 0.86254 0.34437 0.0
C1530 C 0.87361 0.92104 0.33757 0.0
C1531 C 0.86756 0.93393 0.34554 0.0
C1532 C 0.85618 0.9099 0.35279 0.0
C1533 C 0.85266 0.87463 0.35221 0.0
C1534 C 0.90526 0.03091 0.3548 0.0
C1535 C 0.89405 0.04824 0.34861 0.0
C1536 C 0.89628 0.99398 0.3538 0.0
C1537 C 0.87605 0.97319 0.34651 0.0
C1538 C 0.86529 0.99063 0.34019 0.0
C1539 C 0.874 0.02779 0.34125 0.0
H1540 H 0.97 0.8647 0.3353 0.0
H1541 H 0.99661 0.8334 0.35987 0.0
H1542 H 0.03392 0.91551 0.33394 0.0
H1543 H 0.06118 0.88218 0.35833 0.0
H1544 H 0.15951 1.00024 0.3591 0.0
H1545 H 0.09894 0.94449 0.35973 0.0
H1546 H 0.09596 0.93894 0.33151 0.0
H1547 H 0.1556 0.9963 0.33097 0.0
C1548 C 0.98998 0.86813 0.34027 0.0
C1549 C 0.97859 0.84526 0.34767 0.0
C1550 C 0.0268 0.89722 0.33951 0.0
C1551 C 0.05328 0.90365 0.34607 0.0
C1552 C 0.04181 0.87919 0.35325 0.0
C1553 C 1.00484 0.8508 0.3541 0.0
C1554 C 0.14612 0.98678 0.35304 0.0
C1555 C 0.16239 1.00275 0.34499 0.0
C1556 C 0.11122 0.9545 0.35338 0.0
C1557 C 0.09186 0.93672 0.34567 0.0
C1558 C 0.10917 0.95199 0.33761 0.0
C1559 C 0.14371 0.98477 0.33728 0.0
H1560 H 0.86025 0.82611 0.83614 0.0
H1561 H 0.91718 0.87721 0.86018 0.0
H1562 H 0.8441 0.87527 0.83442 0.0
H1563 H 0.90101 0.92538 0.85852 0.0
H1564 H 0.87296 1.0014 0.83095 0.0
H1565 H 0.87811 0.94551 0.83185 0.0
H1566 H 0.84503 0.93252 0.8589 0.0
H1567 H 0.83995 0.9884 0.85805 0.0
C1568 C 0.86911 0.84763 0.84106 0.0
C1569 C 0.88985 0.84767 0.84831 0.0
C1570 C 0.85996 0.87577 0.84007 0.0
C1571 C 0.87087 0.90402 0.8464 0.0
C1572 C 0.89149 0.90373 0.85362 0.0
C1573 C 0.901 0.87615 0.85453 0.0
C1574 C 0.86617 0.98632 0.83706 0.0
C1575 C 0.85634 0.9997 0.84446 0.0
C1576 C 0.86896 0.95413 0.83755 0.0
C1577 C 0.86237 0.93474 0.84546 0.0
C1578 C 0.85077 0.94709 0.85273 0.0
C1579 C 0.84764 0.97904 0.85223 0.0
H1580 H 0.14394 0.04186 0.86055 0.0
H1581 H 0.19453 0.03727 0.83633 0.0
H1582 H 0.09573 0.97753 0.85875 0.0
H1583 H 0.14541 0.97201 0.83446 0.0
H1584 H 0.01964 0.87474 0.83085 0.0
H1585 H 0.07547 0.9358 0.83189 0.0
H1586 H 0.08834 0.91443 0.85886 0.0
H1587 H 0.0325 0.85347 0.85786 0.0
C1588 C 0.14487 0.02701 0.85483 0.0
C1589 C 0.17321 0.04466 0.8486 0.0
C1590 C 0.11728 0.98994 0.85384 0.0
C1591 C 0.11687 0.9694 0.84652 0.0
C1592 C 0.14499 0.98707 0.84019 0.0
C1593 C 0.17311 0.02434 0.84126 0.0
C1594 C 0.03469 0.88275 0.83697 0.0
C1595 C 0.02128 0.85918 0.8443 0.0
C1596 C 0.06684 0.91775 0.83755 0.0
C1597 C 0.08616 0.9302 0.84548 0.0
C1598 C 0.07381 0.90589 0.85268 0.0
C1599 C 0.04188 0.87079 0.85209 0.0
H1600 H 0.98407 0.16078 0.83642 0.0
H1601 H 0.9776 0.10307 0.86035 0.0
H1602 H 0.04946 0.17711 0.83477 0.0
H1603 H 0.04205 0.11941 0.85876 0.0
H1604 H 0.16634 0.17995 0.85834 0.0
H1605 H 0.10536 0.17489 0.85926 0.0
H1606 H 0.08563 0.14348 0.83209 0.0
H1607 H 0.14662 0.1486 0.83114 0.0
C1608 C 0.99661 0.15178 0.84133 0.0
C1609 C 0.97568 0.13075 0.84853 0.0
C1610 C 0.03396 0.16104 0.84039 0.0
C1611 C 0.05116 0.14994 0.8467 0.0
C1612 C 0.03004 0.12907 0.85388 0.0
C1613 C 0.99288 0.11946 0.85474 0.0
C1614 C 0.14937 0.17266 0.85252 0.0
C1615 C 0.16141 0.16442 0.84469 0.0
C1616 C 0.11426 0.16952 0.85306 0.0
C1617 C 0.0904 0.15839 0.84577 0.0
C1618 C 0.1033 0.15226 0.83782 0.0
C1619 C 0.13827 0.15504 0.8373 0.0
H1620 H 0.83092 0.85608 0.6879 0.0
H1621 H 0.88178 0.91221 0.66379 0.0
H1622 H 0.88009 0.84003 0.6897 0.0
H1623 H 0.93005 0.89621 0.66554 0.0
H1624 H 0.99396 0.83606 0.6663 0.0
H1625 H 0.93798 0.84092 0.66528 0.0
H1626 H 0.94974 0.87367 0.69235 0.0
H1627 H 1.00564 0.86867 0.69341 0.0
C1628 C 0.85242 0.86481 0.68299 0.0
C1629 C 0.85237 0.88527 0.67569 0.0
C1630 C 0.88056 0.85571 0.68402 0.0
C1631 C 0.90878 0.86645 0.6777 0.0
C1632 C 0.90843 0.88681 0.67043 0.0
C1633 C 0.8808 0.89624 0.66947 0.0
C1634 C 0.98429 0.8436 0.67208 0.0
C1635 C 1.00459 0.85225 0.67991 0.0
C1636 C 0.95229 0.84663 0.67149 0.0
C1637 C 0.93958 0.8581 0.67871 0.0
C1638 C 0.95863 0.86462 0.68668 0.0
C1639 C 0.99083 0.86192 0.68726 0.0
H1640 H 0.18485 0.16288 0.66673 0.0
H1641 H 0.1501 0.14188 0.6937 0.0
H1642 H 0.17988 0.10201 0.66582 0.0
H1643 H 0.14506 0.08086 0.69275 0.0
H1644 H 0.16422 0.97994 0.68841 0.0
H1645 H 0.17946 0.04496 0.69028 0.0
H1646 H 0.12437 0.03872 0.66593 0.0
H1647 H 0.10913 0.97468 0.66413 0.0
C1648 C 0.17674 0.14561 0.67251 0.0
C1649 C 0.16761 0.15733 0.68026 0.0
C1650 C 0.17368 0.11056 0.67197 0.0
C1651 C 0.16168 0.08634 0.67919 0.0
C1652 C 0.15454 0.09883 0.68708 0.0
C1653 C 0.15729 0.13382 0.6876 0.0
C1654 C 0.15556 0.99266 0.68347 0.0
C1655 C 0.13563 0.97221 0.6761 0.0
C1656 C 0.16418 0.02978 0.68454 0.0
C1657 C 0.15352 0.04721 0.67819 0.0
C1658 C 0.13367 0.02653 0.67086 0.0
C1659 C 0.1247 0.98962 0.66986 0.0
H1660 H 0.86581 0.02083 0.66531 0.0
H1661 H 0.87103 0.02134 0.69344 0.0
H1662 H 0.92654 0.07666 0.66482 0.0
H1663 H 0.93085 0.07846 0.69304 0.0
H1664 H 0.05698 0.15059 0.6889 0.0
H1665 H 0.99276 0.10026 0.69018 0.0
H1666 H 0.96463 0.13936 0.66682 0.0
H1667 H 0.02944 0.188 0.66535 0.0
C1668 C 0.87951 0.03349 0.67141 0.0
C1669 C 0.86358 0.01653 0.67941 0.0
C1670 C 0.91448 0.06577 0.67115 0.0
C1671 C 0.93425 0.08242 0.67889 0.0
C1672 C 0.91726 0.06624 0.68691 0.0
C1673 C 0.88263 0.03359 0.68716 0.0
C1674 C 0.03675 0.14859 0.68415 0.0
C1675 C 0.04789 0.17311 0.67707 0.0
C1676 C 0.99979 0.11979 0.68487 0.0
C1677 C 0.973 0.11518 0.67857 0.0
C1678 C 0.98427 0.14113 0.6717 0.0
C1679 C 0.02134 0.16939 0.6709 0.0
H1680 H 0.81988 0.35039 0.52672 0.0
H1681 H 0.85409 0.36322 0.49972 0.0
H1682 H 0.81454 0.40614 0.52568 0.0
H1683 H 0.8488 0.41895 0.49872 0.0
H1684 H 0.77653 0.47412 0.49706 0.0
H1685 H 0.79278 0.42604 0.49886 0.0
H1686 H 0.84847 0.47625 0.52308 0.0
H1687 H 0.83224 0.52527 0.52121 0.0
C1688 C 0.82691 0.36542 0.5206 0.0
C1689 C 0.83714 0.35203 0.51328 0.0
C1690 C 0.82399 0.39752 0.52003 0.0
C1691 C 0.83085 0.4168 0.51209 0.0
C1692 C 0.84285 0.40446 0.5049 0.0
C1693 C 0.8461 0.37259 0.50549 0.0
C1694 C 0.79245 0.4752 0.50276 0.0
C1695 C 0.80324 0.50367 0.50898 0.0
C1696 C 0.80201 0.44768 0.50376 0.0
C1697 C 0.8223 0.44745 0.51106 0.0
C1698 C 0.83286 0.4757 0.51737 0.0
C1699 C 0.82366 0.50376 0.5163 0.0
H1700 H 0.49856 0.31428 0.52125 0.0
H1701 H 0.54938 0.30781 0.49725 0.0
H1702 H 0.54772 0.37964 0.52291 0.0
H1703 H 0.59762 0.37226 0.49884 0.0
H1704 H 0.67334 0.47719 0.52643 0.0
H1705 H 0.61761 0.416 0.52552 0.0
H1706 H 0.60517 0.43544 0.49839 0.0
H1707 H 0.66091 0.49656 0.49926 0.0
C1708 C 0.52005 0.32681 0.51633 0.0
C1709 C 0.51999 0.30591 0.50911 0.0
C1710 C 0.54819 0.36414 0.51728 0.0
C1711 C 0.57639 0.38134 0.51095 0.0
C1712 C 0.57602 0.36024 0.50375 0.0
C1713 C 0.54841 0.32309 0.50287 0.0
C1714 C 0.6584 0.46873 0.52029 0.0
C1715 C 0.6719 0.49182 0.51289 0.0
C1716 C 0.62631 0.43365 0.5198 0.0
C1717 C 0.60712 0.42061 0.51186 0.0
C1718 C 0.61959 0.44443 0.50457 0.0
C1719 C 0.65145 0.47962 0.50509 0.0
H1720 H 0.52625 0.17014 0.4996 0.0
H1721 H 0.54669 0.20301 0.52671 0.0
H1722 H 0.58728 0.17536 0.49866 0.0
H1723 H 0.60775 0.20831 0.52573 0.0
H1724 H 0.70938 0.19121 0.52142 0.0
H1725 H 0.64398 0.17473 0.52314 0.0
H1726 H 0.65046 0.23107 0.49898 0.0
H1727 H 0.71492 0.24754 0.49733 0.0
C1728 C 0.5434 0.17781 0.50541 0.0
C1729 C 0.53156 0.18644 0.51321 0.0
C1730 C 0.57853 0.18104 0.50485 0.0
C1731 C 0.6026 0.19265 0.5121 0.0
C1732 C 0.5899 0.19916 0.52004 0.0
C1733 C 0.5549 0.19627 0.52057 0.0
C1734 C 0.69663 0.19988 0.5165 0.0
C1735 C 0.71728 0.22055 0.50924 0.0
C1736 C 0.65929 0.19053 0.51747 0.0
C1737 C 0.64184 0.20121 0.51114 0.0
C1738 C 0.66268 0.22174 0.5039 0.0
C1739 C 0.69984 0.23143 0.50299 0.0
H1740 H 0.8607 0.49432 0.66976 0.0
H1741 H 0.80978 0.43813 0.69385 0.0
H1742 H 0.81095 0.50948 0.66783 0.0
H1743 H 0.76097 0.45332 0.69199 0.0
H1744 H 0.6976 0.51412 0.69117 0.0
H1745 H 0.75339 0.50904 0.69217 0.0
H1746 H 0.74068 0.4749 0.66519 0.0
H1747 H 0.68477 0.48002 0.66415 0.0
C1748 C 0.83906 0.48538 0.67464 0.0
C1749 C 0.83927 0.46518 0.68197 0.0
C1750 C 0.81058 0.49396 0.67353 0.0
C1751 C 0.7822 0.48299 0.67981 0.0
C1752 C 0.78269 0.46284 0.68711 0.0
C1753 C 0.81064 0.45391 0.68815 0.0
C1754 C 0.70694 0.50614 0.68539 0.0
C1755 C 0.68638 0.49721 0.6776 0.0
C1756 C 0.73887 0.50303 0.68598 0.0
C1757 C 0.7513 0.49117 0.67878 0.0
C1758 C 0.73198 0.48425 0.67084 0.0
C1759 C 0.6998 0.48705 0.67027 0.0
H1760 H 0.52831 0.20157 0.66388 0.0
H1761 H 0.52022 0.1947 0.69197 0.0
H1762 H 0.53133 0.26153 0.66433 0.0
H1763 H 0.52532 0.25545 0.69252 0.0
H1764 H 0.51638 0.35802 0.69197 0.0
H1765 H 0.50061 0.29338 0.69035 0.0
H1766 H 0.57118 0.32338 0.66753 0.0
H1767 H 0.58474 0.38746 0.66896 0.0
C1768 C 0.52701 0.21282 0.67017 0.0
C1769 C 0.52395 0.19324 0.67789 0.0
C1770 C 0.52914 0.24752 0.67044 0.0
C1771 C 0.52898 0.26401 0.67847 0.0
C1772 C 0.5249 0.24377 0.68618 0.0
C1773 C 0.5221 0.20878 0.68589 0.0
C1774 C 0.52774 0.35038 0.68651 0.0
C1775 C 0.55141 0.37741 0.68053 0.0
C1776 C 0.51915 0.3134 0.68562 0.0
C1777 C 0.53487 0.30271 0.67886 0.0
C1778 C 0.55791 0.32999 0.67275 0.0
C1779 C 0.56588 0.36686 0.67355 0.0
H1780 H 0.82605 0.3313 0.69244 0.0
H1781 H 0.82076 0.32953 0.66431 0.0
H1782 H 0.76537 0.27565 0.69304 0.0
H1783 H 0.76093 0.27237 0.66482 0.0
H1784 H 0.63491 0.19904 0.66899 0.0
H1785 H 0.69897 0.24958 0.66757 0.0
H1786 H 0.72744 0.21321 0.69133 0.0
H1787 H 0.66279 0.16457 0.69293 0.0
C1788 C 0.81234 0.31838 0.68636 0.0
C1789 C 0.82827 0.33494 0.67833 0.0
C1790 C 0.77737 0.28616 0.68669 0.0
C1791 C 0.75758 0.26906 0.67897 0.0
C1792 C 0.77452 0.2849 0.67092 0.0
C1793 C 0.80916 0.31757 0.67061 0.0
C1794 C 0.65518 0.20173 0.6738 0.0
C1795 C 0.64414 0.17804 0.68105 0.0
C1796 C 0.69206 0.23066 0.673 0.0
C1797 C 0.71892 0.23614 0.67938 0.0
C1798 C 0.70777 0.21089 0.6864 0.0
C1799 C 0.67077 0.1826 0.68728 0.0
H1800 H 0.61203 0.22606 0.18184 0.0
H1801 H 0.49655 0.14527 0.17778 0.0
H1802 H 0.59829 0.27634 0.17994 0.0
H1803 H 0.48244 0.19602 0.17621 0.0
H1804 H 0.49038 0.31227 0.18824 0.0
H1805 H 0.49533 0.25575 0.18842 0.0
H1806 H 0.56723 0.29519 0.16596 0.0
H1807 H 0.56182 0.35078 0.16558 0.0
C1808 C 0.58371 0.21914 0.18049 0.0
C1809 C 0.55539 0.1819 0.1799 0.0
C1810 C 0.57586 0.24786 0.17942 0.0
C1811 C 0.53931 0.24002 0.17798 0.0
C1812 C 0.51083 0.20273 0.17734 0.0
C1813 C 0.51891 0.17382 0.17817 0.0
C1814 C 0.50665 0.30854 0.18324 0.0
C1815 C 0.52576 0.33625 0.17692 0.0
C1816 C 0.50934 0.27615 0.18333 0.0
C1817 C 0.53169 0.27122 0.1772 0.0
C1818 C 0.54982 0.29831 0.17075 0.0
C1819 C 0.54662 0.33018 0.17056 0.0
H1820 H 0.79273 0.38645 0.18574 0.0
H1821 H 0.87166 0.35893 0.17488 0.0
H1822 H 0.74278 0.32246 0.18351 0.0
H1823 H 0.82131 0.29411 0.17286 0.0
H1824 H 0.70701 0.18087 0.18732 0.0
H1825 H 0.76321 0.24254 0.18789 0.0
H1826 H 0.72331 0.27795 0.16607 0.0
H1827 H 0.66784 0.2167 0.16531 0.0
C1828 C 0.79936 0.36668 0.18286 0.0
C1829 C 0.83604 0.37764 0.18047 0.0
C1830 C 0.7708 0.33012 0.1816 0.0
C1831 C 0.77836 0.30346 0.17809 0.0
C1832 C 0.81495 0.31425 0.17563 0.0
C1833 C 0.84359 0.35124 0.17672 0.0
C1834 C 0.71057 0.20153 0.18253 0.0
C1835 C 0.68281 0.19366 0.17627 0.0
C1836 C 0.74276 0.23672 0.18284 0.0
C1837 C 0.74752 0.26475 0.17698 0.0
C1838 C 0.72038 0.25666 0.1706 0.0
C1839 C 0.68861 0.22149 0.17019 0.0
H1840 H 0.81187 0.47918 0.16408 0.0
H1841 H 0.833 0.51452 0.19102 0.0
H1842 H 0.75108 0.47479 0.16496 0.0
H1843 H 0.77239 0.51011 0.19186 0.0
H1844 H 0.64501 0.43826 0.19348 0.0
H1845 H 0.70903 0.45368 0.19164 0.0
H1846 H 0.71544 0.51027 0.16754 0.0
H1847 H 0.65038 0.49495 0.16945 0.0
C1848 C 0.80391 0.48666 0.17015 0.0
C1849 C 0.82736 0.49693 0.1775 0.0
C1850 C 0.76907 0.48428 0.17063 0.0
C1851 C 0.75669 0.49173 0.1785 0.0
C1852 C 0.7809 0.50374 0.18572 0.0
C1853 C 0.81579 0.50645 0.18522 0.0
C1854 C 0.65995 0.45423 0.18779 0.0
C1855 C 0.64257 0.46556 0.18163 0.0
C1856 C 0.69687 0.46328 0.18678 0.0
C1857 C 0.71759 0.48358 0.1795 0.0
C1858 C 0.70022 0.49466 0.17323 0.0
C1859 C 0.66309 0.48601 0.17433 0.0
H1860 H 0.66612 0.1824 0.99936 0.0
H1861 H 0.66933 0.19278 0.02743 0.0
H1862 H 0.61034 0.18722 0.99894 0.0
H1863 H 0.61233 0.19576 0.02709 0.0
H1864 H 0.53996 0.24947 0.02214 0.0
H1865 H 0.5905 0.23593 0.02362 0.0
H1866 H 0.54745 0.16157 1.00148 0.0
H1867 H 0.4984 0.17707 0.99982 0.0
C1868 C 0.65439 0.18479 1.00548 0.0
C1869 C 0.67236 0.18729 0.01342 0.0
C1870 C 0.62211 0.18741 1.00525 0.0
C1871 C 0.60648 0.19207 0.01298 0.0
C1872 C 0.62374 0.19302 0.02097 0.0
C1873 C 0.65635 0.19094 0.02118 0.0
C1874 C 0.54114 0.22975 0.01772 0.0
C1875 C 0.51535 0.21409 1.01091 0.0
C1876 C 0.57004 0.22182 0.01855 0.0
C1877 C 0.57358 0.19775 0.01263 0.0
C1878 C 0.54643 0.18087 1.00605 0.0
C1879 C 0.51796 0.18931 1.00515 0.0
H1880 H 0.84723 0.32765 1.00045 0.0
H1881 H 0.76733 0.29432 0.02126 0.0
H1882 H 0.86211 0.39211 1.00217 0.0
H1883 H 0.78059 0.3583 0.02281 0.0
H1884 H 0.82399 0.47992 0.02736 0.0
H1885 H 0.82081 0.41986 0.027 0.0
H1886 H 0.83681 0.42976 0.99904 0.0
H1887 H 0.84154 0.49043 0.99949 0.0
C1888 C 0.83325 0.3344 1.00548 0.0
C1889 C 0.80655 0.30635 1.01081 0.0
C1890 C 0.84136 0.37124 1.00641 0.0
C1891 C 0.8224 0.38078 0.01259 0.0
C1892 C 0.79631 0.35248 0.01807 0.0
C1893 C 0.78855 0.31571 0.0172 0.0
C1894 C 0.82738 0.46952 0.02115 0.0
C1895 C 0.83303 0.49012 0.01345 0.0
C1896 C 0.82522 0.43479 0.02092 0.0
C1897 C 0.82818 0.4194 0.01298 0.0
C1898 C 0.83493 0.44064 1.00532 0.0
C1899 C 0.83752 0.47556 1.00556 0.0
H1900 H 0.53075 0.35523 0.99948 0.0
H1901 H 0.53934 0.35207 0.02751 0.0
H1902 H 0.59142 0.41101 0.99894 0.0
H1903 H 0.59937 0.40905 0.02706 0.0
H1904 H 0.72519 0.48084 0.02183 0.0
H1905 H 0.66108 0.43043 0.0234 0.0
H1906 H 0.62911 0.47394 1.00149 0.0
H1907 H 0.69371 0.5229 0.99973 0.0
C1908 C 0.54519 0.36699 1.00556 0.0
C1909 C 0.53014 0.34903 0.01353 0.0
C1910 C 0.58013 0.39925 1.00527 0.0
C1911 C 0.60083 0.41485 0.01296 0.0
C1912 C 0.58489 0.39764 0.02097 0.0
C1913 C 0.55019 0.36505 0.02125 0.0
C1914 C 0.70416 0.47978 0.01747 0.0
C1915 C 0.71409 0.50568 1.0107 0.0
C1916 C 0.6673 0.45096 0.01836 0.0
C1917 C 0.63949 0.44762 0.01253 0.0
C1918 C 0.64959 0.47483 1.00599 0.0
C1919 C 0.68652 0.50324 1.00503 0.0
H1920 H 0.4408 0.80365 0.83085 0.0
H1921 H 0.49821 0.85524 0.8548 0.0
H1922 H 0.45685 0.75542 0.83255 0.0
H1923 H 0.51425 0.80602 0.85657 0.0
H1924 H 0.51799 0.69242 0.83306 0.0
H1925 H 0.51277 0.7482 0.83215 0.0
H1926 H 0.48027 0.73584 0.85924 0.0
H1927 H 0.48554 0.68002 0.86019 0.0
C1928 C 0.45706 0.80481 0.83649 0.0
C1929 C 0.46839 0.83346 0.84267 0.0
C1930 C 0.46649 0.77718 0.83743 0.0
C1931 C 0.48722 0.77701 0.84464 0.0
C1932 C 0.4983 0.80542 0.85093 0.0
C1933 C 0.48921 0.8336 0.84992 0.0
C1934 C 0.51038 0.70188 0.83887 0.0
C1935 C 0.50191 0.68143 0.84667 0.0
C1936 C 0.50717 0.73379 0.83834 0.0
C1937 C 0.49571 0.74629 0.8456 0.0
C1938 C 0.48931 0.7271 0.85354 0.0
C1939 C 0.49218 0.69496 0.85406 0.0
H1940 H 0.16426 0.64498 0.85496 0.0
H1941 H 0.21431 0.64071 0.83062 0.0
H1942 H 0.2134 0.71027 0.85682 0.0
H1943 H 0.26246 0.70505 0.83242 0.0
H1944 H 0.32545 0.82911 0.83335 0.0
H1945 H 0.26948 0.7682 0.83242 0.0
H1946 H 0.2838 0.74637 0.85925 0.0
H1947 H 0.3398 0.80736 0.86022 0.0
C1948 C 0.18554 0.65799 0.85001 0.0
C1949 C 0.18531 0.63773 0.84263 0.0
C1950 C 0.21367 0.69526 0.85107 0.0
C1951 C 0.24162 0.71303 0.84471 0.0
C1952 C 0.24104 0.69257 0.83736 0.0
C1953 C 0.21348 0.65549 0.83636 0.0
C1954 C 0.31636 0.8117 0.83911 0.0
C1955 C 0.33742 0.82314 0.84683 0.0
C1956 C 0.28435 0.77664 0.83856 0.0
C1957 C 0.27237 0.75222 0.84573 0.0
C1958 C 0.29214 0.76451 0.85362 0.0
C1959 C 0.32439 0.79946 0.85415 0.0
H1960 H 0.39242 0.58002 0.85519 0.0
H1961 H 0.36276 0.51223 0.83206 0.0
H1962 H 0.32838 0.5665 0.85667 0.0
H1963 H 0.29815 0.49641 0.83374 0.0
H1964 H 0.19911 0.51522 0.83229 0.0
H1965 H 0.25996 0.52068 0.83168 0.0
H1966 H 0.26664 0.52695 0.85986 0.0
H1967 H 0.20653 0.52366 0.86038 0.0
C1968 C 0.37178 0.56132 0.85057 0.0
C1969 C 0.38227 0.54703 0.84354 0.0
C1970 C 0.33492 0.55336 0.85141 0.0
C1971 C 0.30757 0.53044 0.84529 0.0
C1972 C 0.31822 0.51489 0.83847 0.0
C1973 C 0.35518 0.52351 0.83755 0.0
C1974 C 0.21334 0.51724 0.83837 0.0
C1975 C 0.1979 0.51906 0.84638 0.0
C1976 C 0.2484 0.52024 0.83803 0.0
C1977 C 0.26885 0.52448 0.84572 0.0
C1978 C 0.25248 0.52465 0.85377 0.0
C1979 C 0.2177 0.52235 0.85408 0.0
H1980 H 0.47516 0.7701 0.027 0.0
H1981 H 0.52626 0.82761 1.00304 0.0
H1982 H 0.42656 0.78567 0.02531 0.0
H1983 H 0.47672 0.84318 1.00129 0.0
H1984 H 0.35077 0.81423 0.9977 0.0
H1985 H 0.40664 0.80906 0.99863 0.0
H1986 H 0.41894 0.84127 0.02575 0.0
H1987 H 0.36311 0.84636 0.02486 0.0
C1988 C 0.47612 0.78627 0.02137 0.0
C1989 C 0.50474 0.79778 0.01518 0.0
C1990 C 0.44829 0.79542 0.02043 0.0
C1991 C 0.44791 0.81605 0.01322 0.0
C1992 C 0.47627 0.82729 1.00693 0.0
C1993 C 0.50464 0.81847 1.00793 0.0
C1994 C 0.36569 0.82081 1.00383 0.0
C1995 C 0.35214 0.83042 1.01123 0.0
C1996 C 0.39786 0.818 1.00434 0.0
C1997 C 0.41706 0.82436 0.01228 0.0
C1998 C 0.40451 0.83569 0.01956 0.0
C1999 C 0.37257 0.83882 0.01903 0.0
H2000 H 0.18296 0.69193 0.02577 0.0
H2001 H 0.2497 0.72058 1.0025 0.0
H2002 H 0.16674 0.62717 0.02416 0.0
H2003 H 0.23577 0.65638 1.00108 0.0
H2004 H 0.19258 0.53459 0.99751 0.0
H2005 H 0.19569 0.5946 0.99799 0.0
H2006 H 0.19107 0.58894 0.0262 0.0
H2007 H 0.1858 0.52812 0.02562 0.0
C2008 C 0.19389 0.68409 0.02026 0.0
C2009 C 0.21724 0.71093 0.01421 0.0
C2010 C 0.18505 0.64704 0.01938 0.0
C2011 C 0.2002 0.63609 0.01254 0.0
C2012 C 0.22293 0.66318 1.00636 0.0
C2013 C 0.23112 0.70013 1.00716 0.0
C2014 C 0.19157 0.54595 1.00381 0.0
C2015 C 0.18885 0.52648 1.01153 0.0
C2016 C 0.19377 0.58067 1.0041 0.0
C2017 C 0.19408 0.59731 1.01214 0.0
C2018 C 0.19029 0.57715 0.01985 0.0
C2019 C 0.18738 0.54212 0.01954 0.0
H2020 H 0.3114 0.54443 0.02727 0.0
H2021 H 0.31635 0.49395 1.00306 0.0
H2022 H 0.37573 0.59265 0.02554 0.0
H2023 H 0.38163 0.5431 1.00126 0.0
H2024 H 0.47861 0.66902 0.99774 0.0
H2025 H 0.41767 0.61306 0.99873 0.0
H2026 H 0.43889 0.60015 0.02571 0.0
H2027 H 0.49977 0.65616 0.02476 0.0
C2028 C 0.32633 0.54352 0.02157 0.0
C2029 C 0.30876 0.51522 0.01532 0.0
C2030 C 0.3634 0.57112 0.02062 0.0
C2031 C 0.38405 0.57157 0.01332 0.0
C2032 C 0.36647 0.54347 1.00697 0.0
C2033 C 0.3292 0.51535 1.008 0.0
C2034 C 0.47059 0.65394 1.00386 0.0
C2035 C 0.49408 0.66738 1.0112 0.0
C2036 C 0.43566 0.62171 1.0044 0.0
C2037 C 0.42321 0.60233 0.01232 0.0
C2038 C 0.44745 0.61472 0.01954 0.0
C2039 C 0.48249 0.64674 0.01898 0.0
H2040 H 0.24979 0.54545 0.52734 0.0
H2041 H 0.19491 0.49485 0.50308 0.0
H2042 H 0.23369 0.59362 0.52553 0.0
H2043 H 0.1788 0.54396 0.5012 0.0
H2044 H 0.20738 0.66986 0.49765 0.0
H2045 H 0.21266 0.61408 0.49868 0.0
H2046 H 0.17785 0.60084 0.5256 0.0
H2047 H 0.17265 0.65661 0.52462 0.0
C2048 C 0.23408 0.5445 0.52161 0.0
C2049 C 0.22348 0.51616 0.51537 0.0
C2050 C 0.22461 0.57208 0.52061 0.0
C2051 C 0.20458 0.5725 0.51327 0.0
C2052 C 0.19422 0.54438 0.50694 0.0
C2053 C 0.20334 0.51626 0.50801 0.0
C2054 C 0.20022 0.65474 0.50376 0.0
C2055 C 0.18987 0.66803 0.51108 0.0
C2056 C 0.20311 0.62261 0.50432 0.0
C2057 C 0.19608 0.60319 0.51224 0.0
C2058 C 0.18395 0.61544 0.51943 0.0
C2059 C 0.18075 0.64734 0.51885 0.0
H2060 H 0.52769 0.69405 0.52507 0.0
H2061 H 0.48702 0.72185 0.50211 0.0
H2062 H 0.47908 0.62914 0.52366 0.0
H2063 H 0.43686 0.65749 0.50088 0.0
H2064 H 0.35873 0.53559 0.49749 0.0
H2065 H 0.41558 0.59566 0.4978 0.0
H2066 H 0.41637 0.59073 0.52599 0.0
H2067 H 0.36068 0.52981 0.52559 0.0
C2068 C 0.50841 0.68598 0.51966 0.0
C2069 C 0.51121 0.71264 0.51364 0.0
C2070 C 0.48017 0.64885 0.51889 0.0
C2071 C 0.45339 0.63761 0.5122 0.0
C2072 C 0.45705 0.66452 0.50604 0.0
C2073 C 0.48576 0.70155 0.50674 0.0
C2074 C 0.37145 0.5471 0.50375 0.0
C2075 C 0.35513 0.52782 0.51152 0.0
C2076 C 0.40397 0.58187 0.50394 0.0
C2077 C 0.42078 0.59875 0.51192 0.0
C2078 C 0.40492 0.57875 0.51968 0.0
C2079 C 0.37274 0.54367 0.51948 0.0
H2080 H 0.50032 0.8486 0.52411 0.0
H2081 H 0.47974 0.81517 0.49704 0.0
H2082 H 0.43928 0.84313 0.52507 0.0
H2083 H 0.41853 0.80968 0.49804 0.0
H2084 H 0.31722 0.82825 0.50268 0.0
H2085 H 0.38233 0.84392 0.50075 0.0
H2086 H 0.37615 0.78692 0.52477 0.0
H2087 H 0.31201 0.77122 0.52663 0.0
C2088 C 0.48312 0.84069 0.51832 0.0
C2089 C 0.495 0.83205 0.51052 0.0
C2090 C 0.44797 0.83736 0.51888 0.0
C2091 C 0.42381 0.82557 0.51166 0.0
C2092 C 0.43646 0.81896 0.50372 0.0
C2093 C 0.47155 0.82198 0.50317 0.0
C2094 C 0.32997 0.81925 0.50753 0.0
C2095 C 0.30952 0.79867 0.51482 0.0
C2096 C 0.36714 0.82811 0.50643 0.0
C2097 C 0.3846 0.81705 0.51267 0.0
C2098 C 0.36392 0.79652 0.51993 0.0
C2099 C 0.32695 0.7873 0.52096 0.0
H2100 H 0.21782 0.58196 0.33089 0.0
H2101 H 0.16583 0.52368 0.35471 0.0
H2102 H 0.26656 0.56667 0.33269 0.0
H2103 H 0.21558 0.50843 0.35658 0.0
H2104 H 0.32998 0.50591 0.33318 0.0
H2105 H 0.27405 0.51082 0.33224 0.0
H2106 H 0.28594 0.54307 0.35935 0.0
H2107 H 0.34196 0.53814 0.36033 0.0
C2108 C 0.2167 0.56568 0.33652 0.0
C2109 C 0.18777 0.55385 0.34264 0.0
C2110 C 0.24462 0.5567 0.33751 0.0
C2111 C 0.24481 0.53593 0.34471 0.0
C2112 C 0.21617 0.52442 0.35094 0.0
C2113 C 0.18769 0.53305 0.34988 0.0
C2114 C 0.32041 0.51342 0.33899 0.0
C2115 C 0.34078 0.52191 0.34681 0.0
C2116 C 0.2884 0.51644 0.33844 0.0
C2117 C 0.27571 0.52772 0.3457 0.0
C2118 C 0.29484 0.53417 0.35365 0.0
C2119 C 0.32709 0.53149 0.35419 0.0
H2120 H 0.50856 0.65971 0.33184 0.0
H2121 H 0.44466 0.63242 0.35555 0.0
H2122 H 0.5247 0.72448 0.33331 0.0
H2123 H 0.45844 0.69661 0.35683 0.0
H2124 H 0.50125 0.81851 0.36002 0.0
H2125 H 0.49836 0.7586 0.35962 0.0
H2126 H 0.50016 0.7625 0.33139 0.0
H2127 H 0.50527 0.82326 0.33189 0.0
C2128 C 0.49823 0.66785 0.33741 0.0
C2129 C 0.47569 0.64137 0.34362 0.0
C2130 C 0.50702 0.70491 0.33822 0.0
C2131 C 0.4926 0.71625 0.34514 0.0
C2132 C 0.47072 0.68953 0.35148 0.0
C2133 C 0.46261 0.65259 0.35076 0.0
C2134 C 0.50169 0.80679 0.35374 0.0
C2135 C 0.50359 0.82575 0.34599 0.0
C2136 C 0.49961 0.77211 0.35349 0.0
C2137 C 0.49857 0.75499 0.34547 0.0
C2138 C 0.50152 0.77465 0.33772 0.0
C2139 C 0.50434 0.80965 0.33799 0.0
H2140 H 0.21377 0.68239 0.35988 0.0
H2141 H 0.19294 0.69485 0.33282 0.0
H2142 H 0.27471 0.73845 0.3589 0.0
H2143 H 0.25377 0.75087 0.33187 0.0
H2144 H 0.38126 0.80748 0.33035 0.0
H2145 H 0.31711 0.75885 0.33211 0.0
H2146 H 0.31064 0.80857 0.3563 0.0
H2147 H 0.37575 0.85818 0.35447 0.0
C2148 C 0.22185 0.69738 0.35376 0.0
C2149 C 0.19841 0.68379 0.34641 0.0
C2150 C 0.25679 0.72967 0.35322 0.0
C2151 C 0.26934 0.74898 0.34529 0.0
C2152 C 0.24517 0.73639 0.33806 0.0
C2153 C 0.21014 0.70434 0.33862 0.0
C2154 C 0.36625 0.80835 0.33604 0.0
C2155 C 0.38363 0.83686 0.34226 0.0
C2156 C 0.32926 0.7805 0.33701 0.0
C2157 C 0.30849 0.77994 0.34429 0.0
C2158 C 0.32588 0.80824 0.35061 0.0
C2159 C 0.36307 0.83664 0.34956 0.0
H2160 H 0.23762 0.32948 0.16496 0.0
H2161 H 0.24589 0.31196 0.19245 0.0
H2162 H 0.30516 0.36268 0.16383 0.0
H2163 H 0.31332 0.34584 0.19137 0.0
H2164 H 0.43226 0.37313 0.18448 0.0
H2165 H 0.36469 0.34163 0.18594 0.0
H2166 H 0.36115 0.41801 0.16741 0.0
H2167 H 0.4285 0.44875 0.16583 0.0
C2168 C 0.25374 0.33298 0.1708 0.0
C2169 C 0.23589 0.3178 0.1788 0.0
C2170 C 0.29271 0.35228 0.17016 0.0
C2171 C 0.31519 0.35709 0.1775 0.0
C2172 C 0.29727 0.34233 0.18552 0.0
C2173 C 0.25835 0.32303 0.18616 0.0
C2174 C 0.41702 0.38326 0.18075 0.0
C2175 C 0.43587 0.41341 0.17501 0.0
C2176 C 0.37816 0.36529 0.18161 0.0
C2177 C 0.35695 0.37697 0.17677 0.0
C2178 C 0.37611 0.40761 0.17114 0.0
C2179 C 0.41491 0.42552 0.17028 0.0
H2180 H 0.56949 0.9834 0.1653 0.0
H2181 H 0.64558 0.06352 0.18381 0.0
H2182 H 0.60013 0.94674 0.16698 0.0
H2183 H 0.67695 0.02742 0.18536 0.0
H2184 H 0.68883 0.91189 0.16463 0.0
H2185 H 0.65552 0.94607 0.16341 0.0
H2186 H 0.6725 0.9719 0.19092 0.0
H2187 H 0.70647 0.9385 0.19209 0.0
C2188 C 0.59279 0.99319 0.16975 0.0
C2189 C 0.60507 0.02647 0.17441 0.0
C2190 C 0.61064 0.97227 0.17066 0.0
C2191 C 0.64136 0.98397 0.17627 0.0
C2192 C 0.65321 0.01707 0.18105 0.0
C2193 C 0.63531 0.03798 0.18013 0.0
C2194 C 0.68533 0.92465 0.17044 0.0
C2195 C 0.70058 0.92229 0.17846 0.0
C2196 C 0.66598 0.94423 0.16975 0.0
C2197 C 0.66119 0.96209 0.17706 0.0
C2198 C 0.676 0.95921 0.1851 0.0
C2199 C 0.69535 0.93967 0.18578 0.0
H2200 H 0.05031 0.77364 0.18749 0.0
H2201 H 0.13583 0.78001 0.17048 0.0
H2202 H 0.01626 0.70663 0.18607 0.0
H2203 H 0.10325 0.71243 0.1695 0.0
H2204 H 0.02096 0.59262 0.16235 0.0
H2205 H 0.05601 0.65968 0.16387 0.0
H2206 H 1.00761 0.65007 0.18942 0.0
H2207 H 0.9704 0.58302 0.18748 0.0
C2208 C 0.06223 0.7606 0.18355 0.0
C2209 C 0.09591 0.78237 0.1791 0.0
C2210 C 0.04272 0.72178 0.18278 0.0
C2211 C 0.05658 0.70313 0.17768 0.0
C2212 C 0.09078 0.72515 0.17334 0.0
C2213 C 0.10986 0.76415 0.17395 0.0
C2214 C 0.01784 0.60488 0.1683 0.0
C2215 C 0.99276 0.58236 0.17478 0.0
C2216 C 0.03833 0.64364 0.16923 0.0
C2217 C 0.03515 0.66126 0.17679 0.0
C2218 C 1.01057 0.63831 0.18338 0.0
C2219 C 0.98938 0.59956 0.18234 0.0
H2220 H 0.31629 0.24467 0.33224 0.0
H2221 H 0.33994 0.23663 0.35933 0.0
H2222 H 0.35013 0.31211 0.33332 0.0
H2223 H 0.37279 0.30411 0.36051 0.0
H2224 H 0.45595 0.42753 0.3586 0.0
H2225 H 0.42619 0.36038 0.3568 0.0
H2226 H 0.34702 0.3631 0.339 0.0
H2227 H 0.37781 0.43052 0.3406 0.0
C2228 C 0.32869 0.25724 0.33845 0.0
C2229 C 0.32526 0.23493 0.3457 0.0
C2230 C 0.34794 0.29613 0.33909 0.0
C2231 C 0.36426 0.31408 0.34702 0.0
C2232 C 0.36121 0.29168 0.35425 0.0
C2233 C 0.34212 0.25275 0.35359 0.0
C2234 C 0.43234 0.41379 0.35425 0.0
C2235 C 0.41925 0.43444 0.34976 0.0
C2236 C 0.41498 0.3751 0.35327 0.0
C2237 C 0.3838 0.35577 0.3478 0.0
C2238 C 0.37115 0.37671 0.34319 0.0
C2239 C 0.3887 0.41548 0.34414 0.0
H2240 H 0.59361 0.95563 0.33964 0.0
H2241 H 0.59702 0.03215 0.35911 0.0
H2242 H 0.66112 0.99201 0.33824 0.0
H2243 H 0.66439 0.06922 0.35758 0.0
H2244 H 0.78802 0.10435 0.35977 0.0
H2245 H 0.72048 0.06997 0.36086 0.0
H2246 H 0.7125 0.04796 0.33316 0.0
H2247 H 0.77993 0.08147 0.33211 0.0
C2248 C 0.60876 0.98047 0.34356 0.0
C2249 C 0.58982 0.99084 0.34951 0.0
C2250 C 0.64761 1.00156 0.34273 0.0
C2251 C 0.66874 0.03378 0.34781 0.0
C2252 C 0.6495 0.04438 0.35365 0.0
C2253 C 0.61068 0.02324 0.35449 0.0
C2254 C 0.77193 0.09238 0.35389 0.0
C2255 C 0.78983 0.09583 0.34585 0.0
C2256 C 0.73296 0.07268 0.35451 0.0
C2257 C 0.71052 0.05581 0.34711 0.0
C2258 C 0.7285 0.05982 0.33905 0.0
C2259 C 0.76743 0.07943 0.33844 0.0
H2260 H 0.97178 0.73409 0.33625 0.0
H2261 H 0.88844 0.65691 0.35398 0.0
H2262 H 1.00652 0.70195 0.33781 0.0
H2263 H 0.92167 0.62265 0.35511 0.0
H2264 H 1.00561 0.58742 0.36237 0.0
H2265 H 0.96967 0.61842 0.36068 0.0
H2266 H 0.01585 0.65426 0.33483 0.0
H2267 H 0.05394 0.62554 0.33693 0.0
C2268 C 0.96044 0.70968 0.34037 0.0
C2269 C 0.92719 0.69815 0.34498 0.0
C2270 C 0.98037 0.69085 0.34123 0.0
C2271 C 0.96735 0.65914 0.34658 0.0
C2272 C 0.93351 0.64724 0.35107 0.0
C2273 C 0.91404 0.66672 0.35037 0.0
C2274 C 1.00805 0.60195 0.35632 0.0
C2275 C 0.03276 0.60403 0.34979 0.0
C2276 C 0.98704 0.61963 0.35529 0.0
C2277 C 0.98933 0.63931 0.34759 0.0
C2278 C 0.01356 0.64043 0.34097 0.0
C2279 C 0.03527 0.6235 0.3421 0.0
H2280 H 0.59597 0.56593 0.85842 0.0
H2281 H 0.59353 0.64406 0.84034 0.0
H2282 H 0.6632 0.59579 0.85679 0.0
H2283 H 0.66101 0.67488 0.83888 0.0
H2284 H 0.78725 0.68222 0.85938 0.0
H2285 H 0.71967 0.64948 0.86054 0.0
H2286 H 0.71176 0.67106 0.83328 0.0
H2287 H 0.77913 0.70462 0.83221 0.0
C2288 C 0.60984 0.58955 0.85409 0.0
C2289 C 0.58931 0.6026 0.84952 0.0
C2290 C 0.64858 0.60696 0.8532 0.0
C2291 C 0.66807 0.63812 0.84775 0.0
C2292 C 0.64726 0.65076 0.84307 0.0
C2293 C 0.60845 0.63319 0.84393 0.0
C2294 C 0.77111 0.6798 0.85362 0.0
C2295 C 0.78892 0.69628 0.84571 0.0
C2296 C 0.73215 0.66081 0.85427 0.0
C2297 C 0.70976 0.65753 0.84701 0.0
C2298 C 0.72772 0.67345 0.83907 0.0
C2299 C 0.76659 0.69255 0.83844 0.0
H2300 H 0.33867 0.10777 0.8595 0.0
H2301 H 0.31537 0.07646 0.83238 0.0
H2302 H 0.37148 0.07304 0.86065 0.0
H2303 H 0.34904 0.04278 0.83343 0.0
H2304 H 0.4546 0.03224 0.8585 0.0
H2305 H 0.42487 0.06978 0.85691 0.0
H2306 H 0.3453 0.98841 0.83905 0.0
H2307 H 0.37596 0.95167 0.84046 0.0
C2308 C 0.34091 0.09389 0.85375 0.0
C2309 C 0.32413 0.09496 0.84586 0.0
C2310 C 0.35995 0.07399 0.85439 0.0
C2311 C 0.363 0.05468 0.84715 0.0
C2312 C 0.34682 0.05649 0.83922 0.0
C2313 C 0.32765 0.07618 0.83859 0.0
C2314 C 0.4309 0.02253 0.85418 0.0
C2315 C 0.41767 0.98891 0.84961 0.0
C2316 C 0.41356 0.04394 0.85332 0.0
C2317 C 0.38233 0.03232 0.84788 0.0
C2318 C 0.36949 0.9988 0.84322 0.0
C2319 C 0.38697 0.97749 0.84405 0.0
H2320 H 0.94357 0.24154 0.83246 0.0
H2321 H 0.91327 0.23354 0.85965 0.0
H2322 H 0.97741 0.30891 0.83353 0.0
H2323 H 0.94819 0.30113 0.86082 0.0
H2324 H 0.98881 0.42504 0.85872 0.0
H2325 H 0.95131 0.35775 0.85715 0.0
H2326 H 0.03198 0.35965 0.83907 0.0
H2327 H 0.0687 0.42712 0.84046 0.0
C2328 C 0.94412 0.25411 0.8387 0.0
C2329 C 0.92556 0.23181 0.84597 0.0
C2330 C 0.9639 0.29298 0.83933 0.0
C2331 C 0.96605 0.31099 0.84728 0.0
C2332 C 0.94698 0.28863 0.85454 0.0
C2333 C 0.92697 0.24966 0.85389 0.0
C2334 C 0.99838 0.41107 0.85436 0.0
C2335 C 0.0318 0.43152 0.84973 0.0
C2336 C 0.97699 0.3723 0.85351 0.0
C2337 C 0.98843 0.35271 0.84801 0.0
C2338 C 0.02175 0.37344 0.84328 0.0
C2339 C 0.04303 0.41226 0.84411 0.0
H2340 H 0.64983 0.58882 0.68388 0.0
H2341 H 0.57033 0.59129 0.66625 0.0
H2342 H 0.68076 0.65633 0.68538 0.0
H2343 H 0.60025 0.65847 0.66793 0.0
H2344 H 0.6864 0.78206 0.66502 0.0
H2345 H 0.65366 0.71451 0.66395 0.0
H2346 H 0.67768 0.70746 0.69109 0.0
H2347 H 0.71133 0.7749 0.69206 0.0
C2348 C 0.63868 0.60376 0.68041 0.0
C2349 C 0.60771 0.58465 0.67491 0.0
C2350 C 0.65631 0.64257 0.68129 0.0
C2351 C 0.64332 0.66335 0.67674 0.0
C2352 C 0.61172 0.64387 0.67141 0.0
C2353 C 0.59427 0.60516 0.6705 0.0
C2354 C 0.68454 0.76613 0.67077 0.0
C2355 C 0.7017 0.7842 0.67862 0.0
C2356 C 0.66553 0.72718 0.67018 0.0
C2357 C 0.66289 0.70505 0.67743 0.0
C2358 C 0.67955 0.72324 0.68531 0.0
C2359 C 0.69869 0.76214 0.68588 0.0
H2360 H 0.43262 0.0648 0.68417 0.0
H2361 H 0.42972 0.98367 0.66618 0.0
H2362 H 0.36515 0.02833 0.68566 0.0
H2363 H 0.3625 0.94645 0.66785 0.0
H2364 H 0.23869 0.90915 0.66521 0.0
H2365 H 0.30624 0.94375 0.66407 0.0
H2366 H 0.3141 0.97409 0.69129 0.0
H2367 H 0.2467 0.94052 0.69233 0.0
C2368 C 0.41759 0.03891 0.68061 0.0
C2369 C 0.4366 0.02727 0.67503 0.0
C2370 C 0.37878 0.01778 0.68149 0.0
C2371 C 0.35785 0.98423 0.67685 0.0
C2372 C 0.37721 0.97234 0.67141 0.0
C2373 C 0.41594 0.99356 0.6705 0.0
C2374 C 0.25481 0.92302 0.67097 0.0
C2375 C 0.23696 0.92198 0.67886 0.0
C2376 C 0.29376 0.94284 0.67034 0.0
C2377 C 0.31613 0.9621 0.67758 0.0
C2378 C 0.29815 0.96038 0.68551 0.0
C2379 C 0.25927 0.94076 0.68612 0.0
H2380 H 0.95793 0.37437 0.68432 0.0
H2381 H 0.03638 0.45066 0.66561 0.0
H2382 H 0.99501 0.34411 0.68582 0.0
H2383 H 0.07426 0.42132 0.66727 0.0
H2384 H 0.11192 0.33469 0.66503 0.0
H2385 H 0.0771 0.36739 0.66382 0.0
H2386 H 0.05019 0.34889 0.69126 0.0
H2387 H 0.08398 0.31534 0.69239 0.0
C2388 C 0.98336 0.38495 0.6806 0.0
C2389 C 0.99408 0.41487 0.67482 0.0
C2390 C 1.00487 0.36771 0.68148 0.0
C2391 C 0.03789 0.38 0.67665 0.0
C2392 C 0.04882 0.41046 0.67099 0.0
C2393 C 0.02722 0.42757 0.67009 0.0
C2394 C 0.09879 0.33779 0.67082 0.0
C2395 C 0.1008 0.32213 0.6788 0.0
C2396 C 0.07883 0.35676 0.67014 0.0
C2397 C 0.0604 0.36085 0.67743 0.0
C2398 C 0.0632 0.34584 0.68544 0.0
C2399 C 0.08296 0.32675 0.68611 0.0
H2400 H 0.90593 0.66834 0.49776 0.0
H2401 H 0.91375 0.64687 0.52501 0.0
H2402 H 0.97354 0.70097 0.49664 0.0
H2403 H 0.9811 0.68033 0.52398 0.0
H2404 H 0.09752 0.78421 0.49879 0.0
H2405 H 0.03023 0.7546 0.50031 0.0
H2406 H 0.03167 0.67601 0.51851 0.0
H2407 H 0.09912 0.70657 0.51716 0.0
C2408 C 0.92202 0.67094 0.50354 0.0
C2409 C 0.90411 0.65473 0.51147 0.0
C2410 C 0.96098 0.68987 0.50292 0.0
C2411 C 0.98328 0.69335 0.51021 0.0
C2412 C 0.96522 0.67774 0.51816 0.0
C2413 C 0.92636 0.6587 0.51877 0.0
C2414 C 0.08345 0.76075 0.50316 0.0
C2415 C 0.10377 0.74777 0.50785 0.0
C2416 C 0.04469 0.74349 0.50399 0.0
C2417 C 0.02498 0.71257 0.5095 0.0
C2418 C 0.04557 0.69997 0.51428 0.0
C2419 C 0.08438 0.71738 0.51348 0.0
H2420 H 0.32918 0.21876 0.5029 0.0
H2421 H 0.40679 0.30188 0.52065 0.0
H2422 H 0.29482 0.25201 0.50195 0.0
H2423 H 0.37447 0.33651 0.51928 0.0
H2424 H 0.29686 0.38247 0.52081 0.0
H2425 H 0.32608 0.34462 0.52259 0.0
H2426 H 0.2907 0.30055 0.49656 0.0
H2427 H 0.25939 0.33633 0.49515 0.0
C2428 C 0.33909 0.24433 0.50654 0.0
C2429 C 0.37064 0.25741 0.51189 0.0
C2430 C 0.31953 0.26377 0.50595 0.0
C2431 C 0.33145 0.29744 0.51053 0.0
C2432 C 0.36336 0.31045 0.51581 0.0
C2433 C 0.3823 0.2906 0.51655 0.0
C2434 C 0.29511 0.36437 0.51552 0.0
C2435 C 0.27572 0.36242 0.50785 0.0
C2436 C 0.31227 0.34279 0.51648 0.0
C2437 C 0.31139 0.31923 0.5097 0.0
C2438 C 0.29174 0.31744 0.50204 0.0
C2439 C 0.27388 0.33834 0.50118 0.0
H2440 H 0.70484 0.92712 0.49897 0.0
H2441 H 0.62357 0.92412 0.51692 0.0
H2442 H 0.74212 0.99429 0.50071 0.0
H2443 H 0.66015 0.9916 0.51849 0.0
H2444 H 0.78006 0.11823 0.49821 0.0
H2445 H 0.74509 0.05069 0.49698 0.0
H2446 H 0.71443 0.04251 0.52417 0.0
H2447 H 0.74837 0.10989 0.5253 0.0
C2448 C 0.69491 0.94087 0.5033 0.0
C2449 C 0.66116 0.92018 0.5078 0.0
C2450 C 0.71619 0.97958 0.50425 0.0
C2451 C 0.7043 0.99893 0.5097 0.0
C2452 C 0.67069 0.97798 0.51431 0.0
C2453 C 0.6495 0.93917 0.51339 0.0
C2454 C 0.76604 0.10204 0.50394 0.0
C2455 C 0.76712 0.11979 0.51185 0.0
C2456 C 0.746 0.0631 0.50326 0.0
C2457 C 0.72655 0.04063 0.51047 0.0
C2458 C 0.72828 0.05853 0.51841 0.0
C2459 C 0.74812 0.0974 0.51908 0.0
H2460 H 0.063 0.76607 0.67079 0.0
H2461 H 0.1001 0.75683 0.69644 0.0
H2462 H 0.03388 0.69905 0.66889 0.0
H2463 H 0.06882 0.68975 0.69492 0.0
H2464 H 0.03051 0.5697 0.68842 0.0
H2465 H 0.06486 0.63729 0.68945 0.0
H2466 H 0.98551 0.64236 0.67207 0.0
H2467 H 0.9532 0.57537 0.67063 0.0
C2468 C 0.06472 0.7496 0.67605 0.0
C2469 C 0.08398 0.76687 0.68375 0.0
C2470 C 0.04759 0.71088 0.67502 0.0
C2471 C 0.04837 0.68804 0.68176 0.0
C2472 C 0.06788 0.70574 0.68946 0.0
C2473 C 0.08571 0.74448 0.69039 0.0
C2474 C 0.02067 0.5854 0.68478 0.0
C2475 C 0.9892 0.56698 0.67941 0.0
C2476 C 0.04022 0.62439 0.68541 0.0
C2477 C 0.02835 0.6462 0.68086 0.0
C2478 C 0.99655 0.62736 0.67554 0.0
C2479 C 0.97763 0.58856 0.67475 0.0
H2480 H 0.2623 0.36706 0.69184 0.0
H2481 H 0.25919 0.28635 0.67367 0.0
H2482 H 0.32942 0.40452 0.69006 0.0
H2483 H 0.32663 0.32315 0.67205 0.0
H2484 H 0.44479 0.41188 0.66529 0.0
H2485 H 0.37739 0.378 0.66641 0.0
H2486 H 0.38571 0.40687 0.69373 0.0
H2487 H 0.45321 0.44171 0.69253 0.0
C2488 C 0.27601 0.35731 0.68745 0.0
C2489 C 0.25533 0.32364 0.68291 0.0
C2490 C 0.31468 0.37868 0.68648 0.0
C2491 C 0.33397 0.36699 0.68096 0.0
C2492 C 0.31302 0.33351 0.67629 0.0
C2493 C 0.27425 0.3122 0.67724 0.0
C2494 C 0.43232 0.41126 0.67154 0.0
C2495 C 0.45473 0.42968 0.67882 0.0
C2496 C 0.39345 0.39147 0.6722 0.0
C2497 C 0.37562 0.38926 0.68018 0.0
C2498 C 0.3981 0.40818 0.68744 0.0
C2499 C 0.43701 0.42814 0.68676 0.0
H2500 H 0.71781 0.95691 0.67028 0.0
H2501 H 0.67282 0.92113 0.69608 0.0
H2502 H 0.67957 0.9856 0.66838 0.0
H2503 H 0.63674 0.95207 0.69457 0.0
H2504 H 0.55469 0.99001 0.68821 0.0
H2505 H 0.58793 0.95566 0.68921 0.0
H2506 H 0.67139 0.03403 0.6715 0.0
H2507 H 0.63669 0.06624 0.67009 0.0
C2508 C 0.69986 0.9554 0.67557 0.0
C2509 C 0.69833 0.93663 0.68331 0.0
C2510 C 0.67807 0.97229 0.67455 0.0
C2511 C 0.65477 0.9718 0.68134 0.0
C2512 C 0.65341 0.95277 0.68908 0.0
C2513 C 0.67449 0.93514 0.69 0.0
C2514 C 0.58 0.9996 0.68449 0.0
C2515 C 0.59279 0.03076 0.67903 0.0
C2516 C 0.59945 0.98007 0.68511 0.0
C2517 C 0.63286 0.99168 0.68045 0.0
C2518 C 0.64554 0.02317 0.67504 0.0
C2519 C 0.62565 0.04204 0.67428 0.0
H2520 H 0.25291 0.95587 0.17108 0.0
H2521 H 0.26211 0.91956 0.19682 0.0
H2522 H 0.31987 0.98499 0.16922 0.0
H2523 H 0.32927 0.95095 0.19534 0.0
H2524 H 0.45003 0.9902 0.18879 0.0
H2525 H 0.3824 0.95577 0.19002 0.0
H2526 H 0.3762 0.03351 0.17233 0.0
H2527 H 0.44298 0.06573 0.17069 0.0
C2528 C 0.26937 0.95436 0.17638 0.0
C2529 C 0.25208 0.93531 0.18408 0.0
C2530 C 0.30809 0.97152 0.17537 0.0
C2531 C 0.33098 0.97108 0.18215 0.0
C2532 C 0.31327 0.95171 0.18986 0.0
C2533 C 0.27448 0.93381 0.19076 0.0
C2534 C 0.43404 0.99965 0.18513 0.0
C2535 C 0.45206 0.03055 0.17958 0.0
C2536 C 0.39503 0.98005 0.18588 0.0
C2537 C 0.37287 0.99133 0.18126 0.0
C2538 C 0.39139 0.02277 0.17582 0.0
C2539 C 0.43012 0.04168 0.17493 0.0
H2540 H 0.99373 0.41924 0.16591 0.0
H2541 H 0.98733 0.42433 0.19393 0.0
H2542 H 0.02664 0.38478 0.16739 0.0
H2543 H 0.01795 0.38802 0.19548 0.0
H2544 H 0.09699 0.34533 0.19737 0.0
H2545 H 0.07059 0.38501 0.19502 0.0
H2546 H 0.02484 0.3298 0.17041 0.0
H2547 H 0.05397 0.2918 0.17261 0.0
C2548 C 0.99927 0.4129 0.1724 0.0
C2549 C 0.98806 0.42492 0.1798 0.0
C2550 C 0.01793 0.39269 0.17327 0.0
C2551 C 0.0254 0.38319 0.18157 0.0
C2552 C 0.01393 0.39528 0.18895 0.0
C2553 C 0.99599 0.4161 0.18808 0.0
C2554 C 0.08165 0.34199 0.1914 0.0
C2555 C 0.0776 0.31539 0.18518 0.0
C2556 C 0.06593 0.36454 0.19008 0.0
C2557 C 0.04458 0.36062 0.18258 0.0
C2558 C 0.04123 0.33432 0.17624 0.0
C2559 C 0.05782 0.31226 0.17749 0.0
H2560 H 0.59747 0.57862 0.16639 0.0
H2561 H 0.59467 0.56738 0.1944 0.0
H2562 H 0.63207 0.64595 0.16783 0.0
H2563 H 0.63117 0.63448 0.1959 0.0
H2564 H 0.67455 0.75678 0.19764 0.0
H2565 H 0.63472 0.69051 0.1955 0.0
H2566 H 0.6875 0.69887 0.17061 0.0
H2567 H 0.7257 0.76614 0.17262 0.0
C2568 C 0.60434 0.59055 0.17288 0.0
C2569 C 0.59297 0.56738 0.18028 0.0
C2570 C 0.62466 0.62943 0.17372 0.0
C2571 C 0.63495 0.64654 0.18199 0.0
C2572 C 0.62337 0.62308 0.18939 0.0
C2573 C 0.60243 0.58424 0.18855 0.0
C2574 C 0.67733 0.7445 0.19166 0.0
C2575 C 0.70329 0.76679 0.1853 0.0
C2576 C 0.65469 0.70613 0.19046 0.0
C2577 C 0.65782 0.68835 0.18293 0.0
C2578 C 0.68354 0.71102 0.17647 0.0
C2579 C 0.70572 0.74976 0.17761 0.0
H2580 H 0.31446 0.92208 0.01773 0.0
H2581 H 0.23651 0.92455 0.99958 0.0
H2582 H 0.34496 0.98957 0.01929 0.0
H2583 H 0.26606 0.99169 1.0013 0.0
H2584 H 0.35283 0.11537 0.99862 0.0
H2585 H 0.32021 0.04782 0.99751 0.0
H2586 H 0.34046 0.04031 0.02489 0.0
H2587 H 0.3739 0.10774 0.02592 0.0
C2588 C 0.30357 0.93701 0.01415 0.0
C2589 C 0.27316 0.91793 1.0085 0.0
C2590 C 0.32095 0.97579 0.01507 0.0
C2591 C 0.30828 0.99653 1.01038 0.0
C2592 C 0.27724 0.97708 1.00489 0.0
C2593 C 0.26002 0.93841 1.00395 0.0
C2594 C 0.35013 0.09934 1.00442 0.0
C2595 C 0.36619 0.11727 0.01236 0.0
C2596 C 0.33122 0.06041 1.0038 0.0
C2597 C 0.32761 0.03817 1.0111 0.0
C2598 C 0.34311 0.05621 0.01907 0.0
C2599 C 0.36213 0.09508 0.01968 0.0
H2600 H 0.09686 0.31838 0.99888 0.0
H2601 H 0.09875 0.3965 0.01768 0.0
H2602 H 0.02964 0.28033 1.00052 0.0
H2603 H 0.03136 0.35918 0.01916 0.0
H2604 H 0.91368 0.26958 0.02562 0.0
H2605 H 0.98106 0.30347 0.02455 0.0
H2606 H 0.97302 0.27798 0.99702 0.0
H2607 H 0.90546 0.24309 0.99817 0.0
C2608 C 0.08287 0.32743 1.00338 0.0
C2609 C 0.10321 0.36053 1.00814 0.0
C2610 C 0.04417 0.30572 1.00427 0.0
C2611 C 0.02458 0.31653 1.00994 0.0
C2612 C 0.0452 0.34948 0.0148 0.0
C2613 C 0.08395 0.3711 0.01393 0.0
C2614 C 0.9262 0.27093 0.01934 0.0
C2615 C 0.90385 0.25349 1.01198 0.0
C2616 C 0.96505 0.29073 0.0187 0.0
C2617 C 0.98295 0.29395 1.01068 0.0
C2618 C 0.96056 0.2759 1.00334 0.0
C2619 C 0.92162 0.25591 1.00399 0.0
H2620 H 0.74985 0.64829 0.02556 0.0
H2621 H 0.7776 0.66754 0.99819 0.0
H2622 H 0.71607 0.68186 0.02444 0.0
H2623 H 0.74281 0.70025 0.99699 0.0
H2624 H 0.70232 0.78363 0.99881 0.0
H2625 H 0.74022 0.75433 1.00049 0.0
H2626 H 0.66077 0.67687 0.01896 0.0
H2627 H 0.62364 0.70709 0.01745 0.0
C2628 C 0.74879 0.65968 0.01928 0.0
C2629 C 0.76656 0.65504 1.01196 0.0
C2630 C 0.72905 0.67878 0.01862 0.0
C2631 C 0.72622 0.69376 1.0106 0.0
C2632 C 0.74458 0.68964 1.00331 0.0
C2633 C 0.76451 0.67066 1.00398 0.0
C2634 C 0.69312 0.76049 1.00328 0.0
C2635 C 0.6599 0.74769 1.00798 0.0
C2636 C 0.71473 0.74341 1.00419 0.0
C2637 C 0.70372 0.7129 1.00983 0.0
C2638 C 0.67065 0.70052 0.01464 0.0
C2639 C 0.64913 0.71773 0.01375 0.0
H2640 H 0.76302 0.11473 0.83205 0.0
H2641 H 0.76516 0.03772 0.85054 0.0
H2642 H 0.69569 0.08478 0.83357 0.0
H2643 H 0.6977 1.00683 0.85188 0.0
H2644 H 0.57976 0.97725 0.85844 0.0
H2645 H 0.64708 0.01087 0.85734 0.0
H2646 H 0.63895 0.03104 0.82999 0.0
H2647 H 0.57134 0.99824 0.83118 0.0
C2648 C 0.74906 0.09133 0.83645 0.0
C2649 C 0.76955 0.07865 0.84117 0.0
C2650 C 0.71027 0.07387 0.83727 0.0
C2651 C 0.69071 0.04304 0.84282 0.0
C2652 C 0.71147 0.03071 0.84763 0.0
C2653 C 0.75029 0.04832 0.84683 0.0
C2654 C 0.59223 0.98899 0.85218 0.0
C2655 C 0.56981 0.98484 0.84489 0.0
C2656 C 0.63108 1.00814 0.85153 0.0
C2657 C 0.64899 0.02367 0.84356 0.0
C2658 C 0.62652 0.01999 0.83629 0.0
C2659 C 0.58755 1.00096 0.83695 0.0
H2660 H 0.9823 0.73031 0.8504 0.0
H2661 H 0.90532 0.65101 0.8319 0.0
H2662 H 1.01265 0.69333 0.85193 0.0
H2663 H 0.93468 0.61319 0.83361 0.0
H2664 H 0.02073 0.57496 0.83137 0.0
H2665 H 0.98817 0.60988 0.83012 0.0
H2666 H 1.00844 0.63867 0.85746 0.0
H2667 H 0.04193 0.60483 0.85861 0.0
C2668 C 0.97158 0.70471 0.84673 0.0
C2669 C 0.94145 0.69373 0.84101 0.0
C2670 C 0.98887 0.68326 0.84763 0.0
C2671 C 0.9764 0.65001 0.84288 0.0
C2672 C 0.94572 0.63881 0.83727 0.0
C2673 C 0.92858 0.66038 0.83634 0.0
C2674 C 0.01807 0.58855 0.83713 0.0
C2675 C 0.03419 0.58703 0.84508 0.0
C2676 C 0.99916 0.60856 0.83643 0.0
C2677 C 0.99557 0.62752 0.84367 0.0
C2678 C 1.01109 0.62525 0.85167 0.0
C2679 C 0.03015 0.60546 0.85235 0.0
H2680 H 0.30752 0.25094 0.85397 0.0
H2681 H 0.35231 0.26025 0.82813 0.0
H2682 H 0.34575 0.31792 0.85588 0.0
H2683 H 0.38842 0.32731 0.82967 0.0
H2684 H 0.47068 0.44733 0.83612 0.0
H2685 H 0.43733 0.37972 0.83506 0.0
H2686 H 0.3539 0.37456 0.85279 0.0
H2687 H 0.3887 0.44149 0.85425 0.0
C2688 C 0.32541 0.26742 0.84867 0.0
C2689 C 0.32689 0.2502 0.84092 0.0
C2690 C 0.3472 0.30612 0.8497 0.0
C2691 C 0.37047 0.32896 0.84292 0.0
C2692 C 0.37178 0.31131 0.83516 0.0
C2693 C 0.35068 0.27258 0.83423 0.0
C2694 C 0.44535 0.43159 0.83983 0.0
C2695 C 0.43261 0.44995 0.84531 0.0
C2696 C 0.42584 0.3926 0.83918 0.0
C2697 C 0.39241 0.37078 0.84383 0.0
C2698 C 0.37977 0.38957 0.84925 0.0
C2699 C 0.39971 0.42835 0.85005 0.0
H2700 H 0.67096 0.90187 0.02608 0.0
H2701 H 0.64645 0.90906 0.999 0.0
H2702 H 0.70386 0.96949 0.02712 0.0
H2703 H 0.68016 0.97646 0.99995 0.0
H2704 H 0.70847 0.09529 1.00701 0.0
H2705 H 0.67718 0.02772 1.00561 0.0
H2706 H 0.75748 0.02545 0.02311 0.0
H2707 H 0.7878 0.09269 0.02468 0.0
C2708 C 0.67292 0.91782 0.02031 0.0
C2709 C 0.65585 0.89974 0.01247 0.0
C2710 C 0.69201 0.95679 0.02089 0.0
C2711 C 0.69479 0.97891 0.01363 0.0
C2712 C 0.67819 0.9607 1.00575 0.0
C2713 C 0.65899 0.92181 1.00519 0.0
C2714 C 0.71951 0.08031 1.01051 0.0
C2715 C 0.75055 0.09942 0.01599 0.0
C2716 C 0.70166 0.04146 1.00969 0.0
C2717 C 0.71449 0.02063 0.01428 0.0
C2718 C 0.74614 0.0401 0.0196 0.0
C2719 C 0.76382 0.07884 0.02045 0.0
H2720 H 0.92534 0.6193 1.00685 0.0
H2721 H 0.92784 0.70059 0.02475 0.0
H2722 H 0.99286 0.6561 1.00536 0.0
H2723 H 0.99499 0.73798 0.02309 0.0
H2724 H 0.11857 0.77496 0.02596 0.0
H2725 H 0.051 0.74007 0.02702 0.0
H2726 H 0.04379 0.71105 0.99972 0.0
H2727 H 0.11122 0.74499 0.99875 0.0
C2728 C 0.94028 0.64527 1.01038 0.0
C2729 C 0.92119 0.65689 0.01595 0.0
C2730 C 0.97908 0.66656 1.00951 0.0
C2731 C 0.99984 0.70016 0.01414 0.0
C2732 C 0.98038 0.71204 0.01954 0.0
C2733 C 0.94169 0.6907 0.02044 0.0
C2734 C 0.10259 0.76135 0.02017 0.0
C2735 C 0.1206 0.76286 0.01228 0.0
C2736 C 0.06365 0.74135 0.02076 0.0
C2737 C 0.04149 0.72239 0.01346 0.0
C2738 C 0.05962 0.72456 1.00554 0.0
C2739 C 0.0985 0.74439 1.00496 0.0
H2740 H 0.24612 0.34962 0.02612 0.0
H2741 H 0.27765 0.37381 0.99904 0.0
H2742 H 0.28083 0.31678 0.02718 0.0
H2743 H 0.31134 0.3401 0.99999 0.0
H2744 H 0.32022 0.23305 0.02483 0.0
H2745 H 0.28313 0.26314 0.0232 0.0
H2746 H 0.36565 0.34327 1.00566 0.0
H2747 H 0.40207 0.3122 1.00712 0.0
C2748 C 0.26006 0.34759 0.02036 0.0
C2749 C 0.25902 0.36456 0.0125 0.0
C2750 C 0.27993 0.32853 0.02094 0.0
C2751 C 0.29923 0.32566 0.01368 0.0
C2752 C 0.29757 0.34215 1.00579 0.0
C2753 C 0.27789 0.36133 1.00522 0.0
C2754 C 0.33029 0.25694 0.02057 0.0
C2755 C 0.36416 0.27023 0.01612 0.0
C2756 C 0.30914 0.27448 0.01969 0.0
C2757 C 0.32127 0.30603 0.01435 0.0
C2758 C 0.35496 0.31887 1.00976 0.0
C2759 C 0.37604 0.30115 1.01061 0.0
H2760 H 0.11311 0.37325 0.49924 0.0
H2761 H 0.12103 0.3513 0.52645 0.0
H2762 H 0.04573 0.33977 0.50029 0.0
H2763 H 0.05348 0.3187 0.5276 0.0
H2764 H 0.92951 0.23573 0.52554 0.0
H2765 H 0.99677 0.2652 0.52394 0.0
H2766 H 0.9952 0.34396 0.50582 0.0
H2767 H 0.92778 0.31352 0.50724 0.0
C2768 C 0.10052 0.3613 0.50547 0.0
C2769 C 0.1228 0.36514 0.51276 0.0
C2770 C 0.06165 0.34225 0.50609 0.0
C2771 C 0.04364 0.32652 0.51405 0.0
C2772 C 0.06598 0.32989 0.52132 0.0
C2773 C 0.10493 0.34881 0.52068 0.0
C2774 C 0.94355 0.25919 0.52117 0.0
C2775 C 0.92321 0.27226 0.51653 0.0
C2776 C 0.98229 0.27638 0.5203 0.0
C2777 C 1.00195 0.30731 0.51478 0.0
C2778 C 0.98133 0.31999 0.51004 0.0
C2779 C 0.94255 0.30265 0.51089 0.0
H2780 H 0.67288 0.77697 0.52573 0.0
H2781 H 0.65327 0.74884 0.49837 0.0
H2782 H 0.70523 0.74181 0.52695 0.0
H2783 H 0.68644 0.71467 0.49952 0.0
H2784 H 0.71115 0.62186 0.50655 0.0
H2785 H 0.68117 0.65924 0.50503 0.0
H2786 H 0.75908 0.7388 0.52344 0.0
H2787 H 0.78814 0.7007 0.52513 0.0
C2788 C 0.67585 0.76373 0.51994 0.0
C2789 C 0.66023 0.7658 0.51196 0.0
C2790 C 0.69462 0.74357 0.52063 0.0
C2791 C 0.6985 0.72497 0.51334 0.0
C2792 C 0.68353 0.72782 0.50533 0.0
C2793 C 0.66467 0.7478 0.50465 0.0
C2794 C 0.72194 0.64742 0.51024 0.0
C2795 C 0.75197 0.65818 0.51598 0.0
C2796 C 0.70486 0.66908 0.50934 0.0
C2797 C 0.71744 0.70227 0.51413 0.0
C2798 C 0.748 0.71323 0.51976 0.0
C2799 C 0.76495 0.6915 0.52067 0.0
H2800 H 0.27747 0.9104 0.4991 0.0
H2801 H 0.24739 0.90176 0.52631 0.0
H2802 H 0.31117 0.97775 0.50025 0.0
H2803 H 0.28218 0.96932 0.52756 0.0
H2804 H 0.32312 0.09346 0.52569 0.0
H2805 H 0.28549 0.02616 0.52405 0.0
H2806 H 0.36569 0.02832 0.50579 0.0
H2807 H 0.40247 0.09572 0.50724 0.0
C2808 C 0.27804 0.92282 0.50535 0.0
C2809 C 0.25959 0.90034 0.51261 0.0
C2810 C 0.29774 0.96169 0.50604 0.0
C2811 C 0.29992 0.97953 0.51402 0.0
C2812 C 0.28094 0.95697 0.52126 0.0
C2813 C 0.26101 0.91802 0.52056 0.0
C2814 C 0.33255 0.07954 0.52128 0.0
C2815 C 0.36585 0.10004 0.51661 0.0
C2816 C 0.31109 0.04077 0.52039 0.0
C2817 C 0.32234 0.02124 0.51481 0.0
C2818 C 0.35556 0.04204 0.51005 0.0
C2819 C 0.3769 0.08083 0.51092 0.0
H2820 H 0.03703 0.45094 0.33063 0.0
H2821 H 0.03242 0.44015 0.35866 0.0
H2822 H 1.00655 0.384 0.32914 0.0
H2823 H 0.99958 0.3727 0.35725 0.0
H2824 H 0.97198 0.2522 0.35202 0.0
H2825 H 1.00103 0.31939 0.35419 0.0
H2826 H 0.9542 0.32826 0.32971 0.0
H2827 H 0.92793 0.26215 0.32738 0.0
C2828 C 0.02878 0.43419 0.3365 0.0
C2829 C 0.03718 0.45116 0.34476 0.0
C2830 C 1.0109 0.3954 0.33566 0.0
C2831 C 0.99992 0.372 0.34307 0.0
C2832 C 1.00788 0.38919 0.35135 0.0
C2833 C 0.02651 0.4281 0.35218 0.0
C2834 C 0.96788 0.26869 0.34716 0.0
C2835 C 0.94785 0.25188 0.33951 0.0
C2836 C 0.98443 0.30738 0.3484 0.0
C2837 C 0.98076 0.33019 0.34208 0.0
C2838 C 0.95913 0.31257 0.33463 0.0
C2839 C 0.94347 0.27428 0.33332 0.0
H2840 H 0.7719 0.71666 0.35361 0.0
H2841 H 0.76081 0.67024 0.32789 0.0
H2842 H 0.70502 0.67854 0.35576 0.0
H2843 H 0.69393 0.6343 0.32966 0.0
H2844 H 0.57456 0.55233 0.3364 0.0
H2845 H 0.64207 0.58569 0.33522 0.0
H2846 H 0.64788 0.6696 0.3529 0.0
H2847 H 0.58098 0.63474 0.3545 0.0
C2848 C 0.75506 0.69844 0.34839 0.0
C2849 C 0.77176 0.69645 0.3406 0.0
C2850 C 0.71642 0.6767 0.34956 0.0
C2851 C 0.69312 0.65297 0.34288 0.0
C2852 C 0.71027 0.65125 0.33508 0.0
C2853 C 0.74891 0.67227 0.33401 0.0
C2854 C 0.59041 0.57776 0.34008 0.0
C2855 C 0.57222 0.59063 0.34558 0.0
C2856 C 0.62936 0.5973 0.33935 0.0
C2857 C 0.65135 0.63091 0.34393 0.0
C2858 C 0.63275 0.64364 0.3494 0.0
C2859 C 0.59399 0.62364 0.35028 0.0
H2860 H 0.30757 0.0608 0.35391 0.0
H2861 H 0.35304 0.09762 0.32819 0.0
H2862 H 0.34544 0.03161 0.35569 0.0
H2863 H 0.38878 0.06629 0.32958 0.0
H2864 H 0.47066 0.0279 0.3358 0.0
H2865 H 0.43739 0.06221 0.33487 0.0
H2866 H 0.35383 0.98335 0.35249 0.0
H2867 H 0.38856 0.95111 0.35382 0.0
C2868 C 0.32553 0.06242 0.34861 0.0
C2869 C 0.3273 0.08164 0.34093 0.0
C2870 C 0.34712 0.04526 0.34956 0.0
C2871 C 0.37051 0.04596 0.34276 0.0
C2872 C 0.37207 0.06541 0.33508 0.0
C2873 C 0.35117 0.08327 0.33423 0.0
C2874 C 0.4453 0.01816 0.33951 0.0
C2875 C 0.43253 0.98685 0.34492 0.0
C2876 C 0.42582 0.03769 0.33894 0.0
C2877 C 0.39239 0.02596 0.34359 0.0
C2878 C 0.37969 0.99431 0.34894 0.0
C2879 C 0.3996 0.97541 0.34967 0.0
H2880 H 0.15332 0.30507 0.07106 0.0
H2881 H 0.19839 0.42114 0.07715 0.0
H2882 H 0.14639 0.29046 0.08663 0.0
H2883 H 0.19254 0.4067 0.09269 0.0
H2884 H 0.13487 0.36174 0.11914 0.0
H2885 H 0.14489 0.37716 0.10369 0.0
H2886 H 0.18059 0.29691 0.10003 0.0
H2887 H 0.17096 0.28168 0.11554 0.0
C2888 C 0.16191 0.32753 0.0757 0.0
C2889 C 0.17643 0.36433 0.07278 0.0
C2890 C 0.15827 0.31918 0.08466 0.0
C2891 C 0.1688 0.34734 0.09098 0.0
C2892 C 0.1837 0.38417 0.08805 0.0
C2893 C 0.18751 0.39253 0.07911 0.0
C2894 C 0.14546 0.34773 0.11511 0.0
C2895 C 0.15214 0.32043 0.11869 0.0
C2896 C 0.15114 0.35657 0.10619 0.0
C2897 C 0.16357 0.33834 0.10055 0.0
C2898 C 0.17048 0.3112 0.10412 0.0
C2899 C 0.16493 0.30244 0.11306 0.0
H2900 H 0.67975 0.77616 0.07298 0.0
H2901 H 0.6422 0.85577 0.07457 0.0
H2902 H 0.69403 0.78394 0.08849 0.0
H2903 H 0.65528 0.86254 0.09023 0.0
H2904 H 0.71751 0.89148 0.11672 0.0
H2905 H 0.70491 0.88647 0.10104 0.0
H2906 H 0.6629 0.76837 0.10233 0.0
H2907 H 0.67666 0.77355 0.11786 0.0
C2908 C 0.67476 0.79558 0.07661 0.0
C2909 C 0.65987 0.8154 0.07244 0.0
C2910 C 0.6825 0.79966 0.08558 0.0
C2911 C 0.67562 0.82369 0.0907 0.0
C2912 C 0.66122 0.84396 0.08652 0.0
C2913 C 0.65335 0.83978 0.07753 0.0
C2914 C 0.70577 0.86446 0.11365 0.0
C2915 C 0.69812 0.83294 0.11863 0.0
C2916 C 0.69819 0.86152 0.10465 0.0
C2917 C 0.68296 0.82702 0.10035 0.0
C2918 C 0.67507 0.79552 0.10535 0.0
C2919 C 0.68252 0.79842 0.11432 0.0
H2920 H 0.24414 0.90552 0.11837 0.0
H2921 H 0.1268 0.82626 0.11694 0.0
H2922 H 0.25029 0.89719 0.10287 0.0
H2923 H 0.13275 0.81893 0.10129 0.0
H2924 H 0.16498 0.78834 0.0749 0.0
H2925 H 0.1577 0.7943 0.09055 0.0
H2926 H 0.23503 0.91206 0.08894 0.0
H2927 H 0.24332 0.90591 0.07343 0.0
C2928 C 0.2196 0.88607 0.11478 0.0
C2929 C 0.18496 0.86649 0.119 0.0
C2930 C 0.22306 0.88167 0.10581 0.0
C2931 C 0.19201 0.85753 0.10074 0.0
C2932 C 0.15739 0.83758 0.10496 0.0
C2933 C 0.1539 0.84208 0.11395 0.0
C2934 C 0.18061 0.81549 0.07788 0.0
C2935 C 0.20475 0.84661 0.07282 0.0
C2936 C 0.17613 0.81899 0.08687 0.0
C2937 C 0.19585 0.85367 0.09109 0.0
C2938 C 0.21971 0.88478 0.086 0.0
C2939 C 0.22408 0.88131 0.07703 0.0
H2940 H 0.3836 0.22787 0.45019 0.0
H2941 H 0.34677 0.11074 0.45125 0.0
H2942 H 0.37093 0.22263 0.43451 0.0
H2943 H 0.33283 0.10527 0.43573 0.0
H2944 H 0.34979 0.1139 0.40638 0.0
H2945 H 0.36381 0.12175 0.42191 0.0
H2946 H 0.32167 0.1976 0.42368 0.0
H2947 H 0.30892 0.19084 0.40801 0.0
C2948 C 0.3727 0.20097 0.44711 0.0
C2949 C 0.36624 0.16975 0.45206 0.0
C2950 C 0.36507 0.19788 0.43811 0.0
C2951 C 0.35095 0.16353 0.43378 0.0
C2952 C 0.34416 0.13231 0.43876 0.0
C2953 C 0.35169 0.13536 0.44773 0.0
C2954 C 0.344 0.13275 0.41002 0.0
C2955 C 0.32828 0.15181 0.40586 0.0
C2956 C 0.35158 0.13685 0.41899 0.0
C2957 C 0.34368 0.16013 0.42413 0.0
C2958 C 0.32841 0.17962 0.41996 0.0
C2959 C 0.32073 0.17544 0.41096 0.0
H2960 H 0.83226 0.19501 0.40444 0.0
H2961 H 0.91557 0.1654 0.41041 0.0
H2962 H 0.82384 0.20101 0.42002 0.0
H2963 H 0.90634 0.17029 0.42596 0.0
H2964 H 0.91239 0.22665 0.45228 0.0
H2965 H 0.91886 0.21729 0.43684 0.0
H2966 H 0.80025 0.16619 0.43354 0.0
H2967 H 0.79363 0.17516 0.44904 0.0
C2968 C 0.84871 0.18963 0.40906 0.0
C2969 C 0.87465 0.17972 0.4061 0.0
C2970 C 0.8436 0.19272 0.41802 0.0
C2971 C 0.86443 0.18623 0.42431 0.0
C2972 C 0.89005 0.17593 0.42134 0.0
C2973 C 0.89502 0.17266 0.41239 0.0
C2974 C 0.88751 0.21281 0.44833 0.0
C2975 C 0.85243 0.20163 0.45201 0.0
C2976 C 0.89127 0.20751 0.43942 0.0
C2977 C 0.86011 0.19097 0.43388 0.0
C2978 C 0.82498 0.17952 0.43755 0.0
C2979 C 0.82119 0.1847 0.44647 0.0
H2980 H 0.78097 0.67357 0.40584 0.0
H2981 H 0.89885 0.7147 0.40751 0.0
H2982 H 0.77469 0.65937 0.42135 0.0
H2983 H 0.89273 0.70174 0.42317 0.0
H2984 H 0.86094 0.63936 0.44961 0.0
H2985 H 0.86847 0.6523 0.43395 0.0
H2986 H 0.78896 0.69002 0.43523 0.0
H2987 H 0.78041 0.67583 0.45074 0.0
C2988 C 0.8056 0.67939 0.40949 0.0
C2989 C 0.84044 0.69523 0.40533 0.0
C2990 C 0.80206 0.6717 0.41846 0.0
C2991 C 0.83321 0.67959 0.4236 0.0
C2992 C 0.86802 0.695 0.41944 0.0
C2993 C 0.8716 0.7028 0.41045 0.0
C2994 C 0.8449 0.65023 0.44655 0.0
C2995 C 0.82006 0.65651 0.45151 0.0
C2996 C 0.84951 0.65802 0.43756 0.0
C2997 C 0.82925 0.67213 0.43325 0.0
C2998 C 0.80471 0.67872 0.43824 0.0
C2999 C 0.80019 0.67104 0.44721 0.0
H3000 H 0.83089 0.71062 0.9074 0.0
H3001 H 0.91232 0.67528 0.90646 0.0
H3002 H 0.82284 0.69738 0.92304 0.0
H3003 H 0.90327 0.6608 0.92195 0.0
H3004 H 0.90973 0.67625 0.95136 0.0
H3005 H 0.91663 0.69098 0.93587 0.0
H3006 H 0.79853 0.64775 0.93376 0.0
H3007 H 0.79177 0.63425 0.9494 0.0
C3008 C 0.84703 0.69994 0.9105 0.0
C3009 C 0.87226 0.69405 0.90559 0.0
C3010 C 0.84212 0.69197 0.91948 0.0
C3011 C 0.86247 0.67809 0.92384 0.0
C3012 C 0.88743 0.67192 0.9189 0.0
C3013 C 0.89225 0.67976 0.90994 0.0
C3014 C 0.88521 0.67036 0.94766 0.0
C3015 C 0.85017 0.65409 0.95172 0.0
C3016 C 0.88912 0.67835 0.9387 0.0
C3017 C 0.85814 0.67037 0.93348 0.0
C3018 C 0.82312 0.65457 0.93755 0.0
C3019 C 0.81918 0.64646 0.94652 0.0
H3020 H 0.38159 0.19542 0.90426 0.0
H3021 H 0.26668 0.15671 0.91042 0.0
H3022 H 0.39635 0.20157 0.91982 0.0
H3023 H 0.28121 0.1618 0.92595 0.0
H3024 H 0.32915 0.21842 0.9524 0.0
H3025 H 0.31319 0.20903 0.93697 0.0
H3026 H 0.38784 0.16644 0.93319 0.0
H3027 H 0.40356 0.17542 0.94868 0.0
C3028 C 0.35941 0.18808 0.90892 0.0
C3029 C 0.32289 0.17555 0.90602 0.0
C3030 C 0.36782 0.19126 0.91787 0.0
C3031 C 0.34003 0.18226 0.9242 0.0
C3032 C 0.30348 0.16939 0.9213 0.0
C3033 C 0.29503 0.16602 0.91236 0.0
C3034 C 0.34176 0.20644 0.94835 0.0
C3035 C 0.36769 0.19766 0.95189 0.0
C3036 C 0.33263 0.20113 0.93945 0.0
C3037 C 0.3492 0.18699 0.93377 0.0
C3038 C 0.37489 0.17791 0.9373 0.0
C3039 C 0.38393 0.18309 0.94622 0.0
H3040 H 0.79811 0.16478 0.9044 0.0
H3041 H 0.88534 0.13991 0.90966 0.0
H3042 H 0.793 0.17353 0.91993 0.0
H3043 H 0.88166 0.15072 0.92515 0.0
H3044 H 0.83615 0.12976 0.95312 0.0
H3045 H 0.84408 0.1238 0.93759 0.0
H3046 H 0.82052 0.21186 0.93223 0.0
H3047 H 0.81053 0.21637 0.94773 0.0
C3048 C 0.8164 0.16133 0.90884 0.0
C3049 C 0.84202 0.15137 0.90567 0.0
C3050 C 0.81379 0.16688 0.9178 0.0
C3051 C 0.83683 0.16282 0.92391 0.0
C3052 C 0.86299 0.15361 0.92072 0.0
C3053 C 0.86551 0.14794 0.91177 0.0
C3054 C 0.83237 0.14773 0.94865 0.0
C3055 C 0.82244 0.17344 0.95179 0.0
C3056 C 0.83744 0.14464 0.93969 0.0
C3057 C 0.83292 0.16726 0.93354 0.0
C3058 C 0.82375 0.1935 0.93669 0.0
C3059 C 0.81855 0.1965 0.94565 0.0
H3060 H 0.63948 0.78973 0.57422 0.0
H3061 H 0.6793 0.90742 0.57283 0.0
H3062 H 0.65257 0.79545 0.58987 0.0
H3063 H 0.69361 0.91332 0.58834 0.0
H3064 H 0.67747 0.90648 0.61773 0.0
H3065 H 0.66312 0.89829 0.60223 0.0
H3066 H 0.7021 0.81984 0.60064 0.0
H3067 H 0.71523 0.827 0.6163 0.0
C3068 C 0.65111 0.81685 0.57722 0.0
C3069 C 0.65829 0.84808 0.57218 0.0
C3070 C 0.65899 0.82021 0.58621 0.0
C3071 C 0.67407 0.85485 0.59045 0.0
C3072 C 0.68155 0.88607 0.58538 0.0
C3073 C 0.6738 0.88275 0.57641 0.0
C3074 C 0.68251 0.887 0.61414 0.0
C3075 C 0.69745 0.86733 0.61836 0.0
C3076 C 0.67473 0.88269 0.60517 0.0
C3077 C 0.68163 0.85856 0.60009 0.0
C3078 C 0.69614 0.83849 0.60432 0.0
C3079 C 0.70404 0.84289 0.61331 0.0
H3080 H 0.11359 0.77684 0.57313 0.0
H3081 H 0.23109 0.85546 0.57464 0.0
H3082 H 0.10735 0.78513 0.58863 0.0
H3083 H 0.22504 0.8627 0.59029 0.0
H3084 H 0.19295 0.89328 0.61669 0.0
H3085 H 0.20033 0.88747 0.60104 0.0
H3086 H 0.12223 0.76987 0.60254 0.0
H3087 H 0.11383 0.77588 0.61804 0.0
C3088 C 0.13815 0.79614 0.57673 0.0
C3089 C 0.17286 0.81555 0.57254 0.0
C3090 C 0.13463 0.80051 0.5857 0.0
C3091 C 0.1657 0.82442 0.5908 0.0
C3092 C 0.20039 0.84423 0.5866 0.0
C3093 C 0.20393 0.83977 0.57761 0.0
C3094 C 0.17718 0.8662 0.61368 0.0
C3095 C 0.15278 0.83508 0.61871 0.0
C3096 C 0.1817 0.86279 0.60469 0.0
C3097 C 0.1618 0.82819 0.60045 0.0
C3098 C 0.1377 0.79708 0.6055 0.0
C3099 C 0.13326 0.80046 0.61447 0.0
H3100 H 0.22614 0.32552 0.57241 0.0
H3101 H 0.17726 0.39514 0.57562 0.0
H3102 H 0.21604 0.30942 0.58782 0.0
H3103 H 0.1676 0.37929 0.5911 0.0
H3104 H 0.19528 0.3745 0.62024 0.0
H3105 H 0.20218 0.38944 0.60469 0.0
H3106 H 0.16801 0.27545 0.59856 0.0
H3107 H 0.16215 0.26078 0.61408 0.0
C3108 C 0.21273 0.33703 0.57635 0.0
C3109 C 0.20248 0.36165 0.57267 0.0
C3110 C 0.20701 0.32782 0.58524 0.0
C3111 C 0.19099 0.34301 0.59077 0.0
C3112 C 0.18051 0.36744 0.5871 0.0
C3113 C 0.18608 0.37654 0.57819 0.0
C3114 C 0.18932 0.35262 0.61559 0.0
C3115 C 0.17813 0.31639 0.61848 0.0
C3116 C 0.19294 0.36112 0.60664 0.0
C3117 C 0.18575 0.33371 0.60031 0.0
C3118 C 0.17421 0.29743 0.60321 0.0
C3119 C 0.17039 0.28889 0.61214 0.0
H3120 H 0.05138 0.50026 0.73807 0.0
H3121 H 0.9391 0.47558 0.74302 0.0
H3122 H 0.06431 0.50808 0.75365 0.0
H3123 H 0.95265 0.48544 0.75856 0.0
H3124 H 0.97525 0.4617 0.78647 0.0
H3125 H 0.96236 0.45714 0.77089 0.0
H3126 H 0.07432 0.54581 0.76607 0.0
H3127 H 0.08782 0.54895 0.78161 0.0
C3128 C 0.02943 0.49669 0.74246 0.0
C3129 C 0.99405 0.48703 0.73919 0.0
C3130 C 0.03703 0.50169 0.75144 0.0
C3131 C 1.00957 0.49735 0.75747 0.0
C3132 C 0.97445 0.48851 0.75419 0.0
C3133 C 0.9668 0.48339 0.74521 0.0
C3134 C 0.99728 0.48012 0.7821 0.0
C3135 C 0.03271 0.50556 0.78539 0.0
C3136 C 0.9897 0.47783 0.77313 0.0
C3137 C 0.01725 0.50102 0.76712 0.0
C3138 C 0.05245 0.52704 0.77043 0.0
C3139 C 0.06006 0.52924 0.7794 0.0
H3140 H 0.49731 0.52625 0.73749 0.0
H3141 H 0.57487 0.48935 0.74371 0.0
H3142 H 0.489 0.53296 0.75304 0.0
H3143 H 0.5657 0.49495 0.75923 0.0
H3144 H 0.57432 0.55205 0.78557 0.0
H3145 H 0.58065 0.54235 0.77015 0.0
H3146 H 0.46311 0.49853 0.7665 0.0
H3147 H 0.45661 0.50787 0.78199 0.0
C3148 C 0.51252 0.51942 0.74216 0.0
C3149 C 0.53679 0.50723 0.73928 0.0
C3150 C 0.50745 0.52293 0.7511 0.0
C3151 C 0.5267 0.51459 0.75745 0.0
C3152 C 0.55068 0.50205 0.75457 0.0
C3153 C 0.55559 0.49837 0.74563 0.0
C3154 C 0.54961 0.53974 0.78155 0.0
C3155 C 0.51489 0.53071 0.78513 0.0
C3156 C 0.55329 0.53425 0.77265 0.0
C3157 C 0.52243 0.51964 0.76701 0.0
C3158 C 0.48765 0.51036 0.77059 0.0
C3159 C 0.48392 0.51573 0.7795 0.0
H3160 H 0.5345 0.99736 0.73822 0.0
H3161 H 0.49107 0.07018 0.74366 0.0
H3162 H 0.52867 0.9805 0.75366 0.0
H3163 H 0.48437 0.05285 0.75897 0.0
H3164 H 0.50382 0.04037 0.78737 0.0
H3165 H 0.51575 0.05896 0.77213 0.0
H3166 H 0.48631 0.94713 0.7649 0.0
H3167 H 0.47667 0.92916 0.78019 0.0
C3168 C 0.52348 0.00961 0.7427 0.0
C3169 C 0.51354 0.03537 0.73967 0.0
C3170 C 0.52002 0.99987 0.75157 0.0
C3171 C 0.50617 0.01535 0.75768 0.0
C3172 C 0.496 0.04091 0.75459 0.0
C3173 C 0.49974 0.05083 0.74575 0.0
C3174 C 0.5006 0.01984 0.78257 0.0
C3175 C 0.48905 0.98311 0.78511 0.0
C3176 C 0.50689 0.0304 0.77376 0.0
C3177 C 0.50163 1.00456 0.76716 0.0
C3178 C 0.49098 0.96805 0.76972 0.0
C3179 C 0.48492 0.95755 0.77854 0.0
H3180 H 0.49984 0.05009 0.24093 0.0
H3181 H 0.57743 0.01002 0.2393 0.0
H3182 H 0.49273 0.03681 0.25657 0.0
H3183 H 0.56917 0.9954 0.25479 0.0
H3184 H 0.57911 0.0111 0.28419 0.0
H3185 H 0.585 0.0255 0.26869 0.0
H3186 H 0.46771 0.98755 0.26731 0.0
H3187 H 0.46206 0.97448 0.28296 0.0
C3188 C 0.51531 0.03834 0.24388 0.0
C3189 C 0.53924 0.0312 0.23878 0.0
C3190 C 0.51092 0.03034 0.25286 0.0
C3191 C 0.53047 0.01512 0.25702 0.0
C3192 C 0.55402 1.00759 0.25189 0.0
C3193 C 0.55835 0.01551 0.24293 0.0
C3194 C 0.55458 1.00632 0.28065 0.0
C3195 C 0.52009 0.99169 0.28492 0.0
C3196 C 0.55788 0.01411 0.27168 0.0
C3197 C 0.52681 1.0075 0.26666 0.0
C3198 C 0.49236 0.99329 0.27094 0.0
C3199 C 0.48903 0.98541 0.27992 0.0
H3200 H 0.97485 0.51638 0.28662 0.0
H3201 H 0.08754 0.54334 0.28126 0.0
H3202 H 0.96083 0.5075 0.2711 0.0
H3203 H 0.07291 0.53237 0.26578 0.0
H3204 H 0.04741 0.55302 0.23787 0.0
H3205 H 0.06153 0.55889 0.25339 0.0
H3206 H 0.9505 0.46954 0.25877 0.0
H3207 H 0.93572 0.46512 0.24329 0.0
C3208 C 0.99668 0.52025 0.28216 0.0
C3209 C 0.03248 0.53087 0.28529 0.0
C3210 C 0.98845 0.51462 0.27321 0.0
C3211 C 0.01567 0.51923 0.26707 0.0
C3212 C 0.05125 0.52905 0.27023 0.0
C3213 C 0.05953 0.53482 0.27918 0.0
C3214 C 0.02583 0.53474 0.24235 0.0
C3215 C 0.99026 0.50872 0.23923 0.0
C3216 C 0.03413 0.53778 0.2513 0.0
C3217 C 1.00722 0.51479 0.25745 0.0
C3218 C 0.9719 0.48819 0.25431 0.0
C3219 C 0.96355 0.48525 0.24536 0.0
H3220 H 0.56442 0.52195 0.24126 0.0
H3221 H 0.44707 0.44246 0.24007 0.0
H3222 H 0.5589 0.53007 0.25688 0.0
H3223 H 0.44134 0.45161 0.25554 0.0
H3224 H 0.44925 0.44419 0.28497 0.0
H3225 H 0.45717 0.43737 0.26948 0.0
H3226 H 0.5341 0.55513 0.26756 0.0
H3227 H 0.52722 0.56178 0.2832 0.0
C3228 C 0.53741 0.50626 0.2443 0.0
C3229 C 0.50622 0.48153 0.23932 0.0
C3230 C 0.53416 0.51122 0.25327 0.0
C3231 C 0.49967 0.49142 0.25755 0.0
C3232 C 0.46848 0.467 0.25255 0.0
C3233 C 0.4717 0.46214 0.2436 0.0
C3234 C 0.46833 0.46864 0.28131 0.0
C3235 C 0.48768 0.50355 0.28542 0.0
C3236 C 0.47248 0.46479 0.27235 0.0
C3237 C 0.49611 0.49571 0.26718 0.0
C3238 C 0.51584 0.5306 0.2713 0.0
C3239 C 0.5116 0.53448 0.28028 0.0
H3240 H 0.95463 0.09318 0.28046 0.0
H3241 H 0.99542 0.20989 0.28484 0.0
H3242 H 0.98164 0.10702 0.2659 0.0
H3243 H 0.02223 0.22367 0.2702 0.0
H3244 H 0.03363 0.22977 0.24013 0.0
H3245 H 1.00678 0.21694 0.25476 0.0
H3246 H 0.04059 0.13527 0.25846 0.0
H3247 H 0.06765 0.14824 0.24391 0.0
C3248 C 0.96967 0.12189 0.27838 0.0
C3249 C 0.97285 0.15035 0.28394 0.0
C3250 C 0.98519 0.12985 0.26998 0.0
C3251 C 1.00436 0.16654 0.26682 0.0
C3252 C 1.00731 0.19502 0.27233 0.0
C3253 C 0.99185 0.18707 0.28076 0.0
C3254 C 0.0357 0.20931 0.24408 0.0
C3255 C 0.05282 0.19 0.24074 0.0
C3256 C 0.02022 0.20191 0.2525 0.0
C3257 C 0.02126 0.17491 0.25785 0.0
C3258 C 0.03853 0.15575 0.25452 0.0
C3259 C 0.05408 0.1632 0.24612 0.0
H3260 H 0.91579 0.86799 0.28139 0.0
H3261 H 0.80095 0.78245 0.28407 0.0
H3262 H 0.90307 0.88187 0.2668 0.0
H3263 H 0.78856 0.79525 0.26929 0.0
H3264 H 0.77116 0.85425 0.24583 0.0
H3265 H 0.7826 0.83967 0.26052 0.0
H3266 H 0.88982 0.85816 0.25229 0.0
H3267 H 0.87846 0.87298 0.23764 0.0
C3268 C 0.88773 0.85217 0.2789 0.0
C3269 C 0.85942 0.82414 0.28401 0.0
C3270 C 0.88052 0.85981 0.27044 0.0
C3271 C 0.84476 0.83964 0.26677 0.0
C3272 C 0.81638 0.81168 0.27188 0.0
C3273 C 0.82361 0.80402 0.28036 0.0
C3274 C 0.79704 0.85485 0.24712 0.0
C3275 C 0.8239 0.86498 0.2405 0.0
C3276 C 0.80363 0.84645 0.25558 0.0
C3277 C 0.83727 0.84782 0.25768 0.0
C3278 C 0.8639 0.85749 0.25102 0.0
C3279 C 0.85735 0.86598 0.24258 0.0
H3280 H 0.1482 0.99725 0.28732 0.0
H3281 H 0.25649 0.08461 0.27929 0.0
H3282 H 0.13601 0.97235 0.27252 0.0
H3283 H 0.24428 0.05977 0.26448 0.0
H3284 H 0.22335 0.98591 0.24041 0.0
H3285 H 0.23652 0.00942 0.25535 0.0
H3286 H 0.12326 0.98515 0.25814 0.0
H3287 H 0.10973 0.96026 0.24337 0.0
C3288 C 0.16939 0.01134 0.2824 0.0
C3289 C 0.20335 0.0431 0.28457 0.0
C3290 C 0.16236 0.99704 0.27387 0.0
C3291 C 0.18903 0.01403 0.26722 0.0
C3292 C 0.22319 0.04552 0.26941 0.0
C3293 C 0.23023 0.05981 0.27795 0.0
C3294 C 0.20112 0.98526 0.24423 0.0
C3295 C 0.16542 0.97109 0.2406 0.0
C3296 C 0.20881 0.99918 0.2528 0.0
C3297 C 0.18101 0.99928 0.25803 0.0
C3298 C 0.14535 0.98518 0.2544 0.0
C3299 C 0.13769 0.97133 0.24584 0.0
H3300 H 0.9261 0.8165 0.77799 0.0
H3301 H 0.02421 0.81662 0.78718 0.0
H3302 H 0.95023 0.82743 0.76317 0.0
H3303 H 0.04873 0.82803 0.7723 0.0
H3304 H 0.06871 0.8178 0.74322 0.0
H3305 H 0.04263 0.80287 0.75791 0.0
H3306 H 0.99596 0.87414 0.75419 0.0
H3307 H 0.02044 0.8876 0.73941 0.0
C3308 C 0.95305 0.81922 0.77687 0.0
C3309 C 0.97327 0.81599 0.78385 0.0
C3310 C 0.96698 0.82555 0.76833 0.0
C3311 C 1.00172 0.82901 0.76646 0.0
C3312 C 0.02172 0.82515 0.77342 0.0
C3313 C 1.00766 0.81865 0.78198 0.0
C3314 C 0.05242 0.82988 0.74548 0.0
C3315 C 0.04684 0.85401 0.74005 0.0
C3316 C 0.03783 0.82168 0.75398 0.0
C3317 C 0.01711 0.83728 0.75733 0.0
C3318 C 1.01131 0.86114 0.75187 0.0
C3319 C 0.02584 0.86929 0.74338 0.0
H3320 H 0.22877 0.24181 0.74018 0.0
H3321 H 0.11311 0.15941 0.74342 0.0
H3322 H 0.24119 0.2307 0.75511 0.0
H3323 H 0.1258 0.14722 0.75818 0.0
H3324 H 0.152 0.16033 0.78731 0.0
H3325 H 0.14062 0.17358 0.7725 0.0
H3326 H 0.24564 0.18628 0.76428 0.0
H3327 H 0.25706 0.17316 0.77911 0.0
C3328 C 0.20594 0.22129 0.74405 0.0
C3329 C 0.16988 0.20155 0.74051 0.0
C3330 C 0.21317 0.2146 0.75262 0.0
C3331 C 0.18455 0.18803 0.75793 0.0
C3332 C 0.14854 0.16823 0.75437 0.0
C3333 C 0.14133 0.17488 0.74582 0.0
C3334 C 0.17263 0.16575 0.78235 0.0
C3335 C 0.20546 0.16555 0.78447 0.0
C3336 C 0.16606 0.17332 0.77381 0.0
C3337 C 0.19208 0.18089 0.76711 0.0
C3338 C 0.22512 0.18113 0.76925 0.0
C3339 C 0.23171 0.17359 0.77779 0.0
H3340 H 0.83997 0.98913 0.78763 0.0
H3341 H 0.86656 0.097 0.77786 0.0
H3342 H 0.828 0.96485 0.77276 0.0
H3343 H 0.85325 0.07239 0.76304 0.0
H3344 H 0.8658 0.02678 0.73672 0.0
H3345 H 0.87756 0.05103 0.75159 0.0
H3346 H 0.78506 0.94811 0.76078 0.0
H3347 H 0.77417 0.92338 0.74597 0.0
C3348 C 0.84325 1.00773 0.78233 0.0
C3349 C 0.8543 0.04514 0.78402 0.0
C3350 C 0.83595 0.99365 0.77377 0.0
C3351 C 0.83959 0.01655 0.76663 0.0
C3352 C 0.8505 0.05391 0.76833 0.0
C3353 C 0.8577 0.06796 0.77688 0.0
C3354 C 0.84808 0.00917 0.74191 0.0
C3355 C 0.819 0.97301 0.74007 0.0
C3356 C 0.85459 0.02327 0.75046 0.0
C3357 C 0.8323 1.00164 0.75746 0.0
C3358 C 0.80313 0.96554 0.75562 0.0
C3359 C 0.79655 0.95148 0.74707 0.0
H3360 H 0.66372 0.55879 0.61751 0.0
H3361 H 0.62891 0.4428 0.61418 0.0
H3362 H 0.68804 0.57122 0.60264 0.0
H3363 H 0.65314 0.45519 0.59936 0.0
H3364 H 0.73385 0.49576 0.57638 0.0
H3365 H 0.70976 0.48424 0.59121 0.0
H3366 H 0.67021 0.56143 0.58744 0.0
H3367 H 0.69439 0.57299 0.57255 0.0
C3368 C 0.66101 0.53585 0.61361 0.0
C3369 C 0.64442 0.49977 0.61713 0.0
C3370 C 0.67496 0.54299 0.60504 0.0
C3371 C 0.67276 0.51428 0.59973 0.0
C3372 C 0.65607 0.47822 0.60326 0.0
C3373 C 0.64215 0.47109 0.61181 0.0
C3374 C 0.71963 0.51001 0.57865 0.0
C3375 C 0.71599 0.53521 0.57318 0.0
C3376 C 0.70579 0.5034 0.5872 0.0
C3377 C 0.68782 0.52176 0.59059 0.0
C3378 C 0.68429 0.5471 0.58514 0.0
C3379 C 0.69817 0.55372 0.57657 0.0
H3380 H 0.46184 0.10997 0.61807 0.0
H3381 H 0.57836 0.18792 0.61417 0.0
H3382 H 0.44902 0.12046 0.60311 0.0
H3383 H 0.56537 0.1995 0.59938 0.0
H3384 H 0.53664 0.18457 0.5704 0.0
H3385 H 0.54813 0.17154 0.58522 0.0
H3386 H 0.44648 0.16571 0.59379 0.0
H3387 H 0.43496 0.17867 0.57896 0.0
C3388 C 0.48477 0.12937 0.61404 0.0
C3389 C 0.52118 0.14809 0.6174 0.0
C3390 C 0.47734 0.1357 0.60547 0.0
C3391 C 0.50612 0.16085 0.59997 0.0
C3392 C 0.54249 0.17959 0.60333 0.0
C3393 C 0.54989 0.17331 0.6119 0.0
C3394 C 0.51679 0.18071 0.57544 0.0
C3395 C 0.48488 0.18282 0.57342 0.0
C3396 C 0.52342 0.17325 0.58398 0.0
C3397 C 0.49838 0.1677 0.59078 0.0
C3398 C 0.4662 0.1693 0.58874 0.0
C3399 C 0.45956 0.17674 0.5802 0.0
H3400 H 0.83014 0.39323 0.61463 0.0
H3401 H 0.9129 0.36067 0.6181 0.0
H3402 H 0.81899 0.36896 0.59981 0.0
H3403 H 0.90282 0.33774 0.60311 0.0
H3404 H 0.8467 0.2648 0.5789 0.0
H3405 H 0.85908 0.28897 0.59377 0.0
H3406 H 0.84609 0.38112 0.58557 0.0
H3407 H 0.83363 0.3569 0.57071 0.0
C3408 C 0.84592 0.38076 0.61227 0.0
C3409 C 0.87236 0.37888 0.61766 0.0
C3410 C 0.83987 0.36726 0.60368 0.0
C3411 C 0.86006 0.35141 0.60017 0.0
C3412 C 0.88643 0.34939 0.60556 0.0
C3413 C 0.89253 0.36296 0.61416 0.0
C3414 C 0.84693 0.29048 0.58022 0.0
C3415 C 0.83902 0.30874 0.57354 0.0
C3416 C 0.85403 0.30439 0.58879 0.0
C3417 C 0.85348 0.33702 0.59096 0.0
C3418 C 0.84607 0.35554 0.58424 0.0
C3419 C 0.83894 0.34163 0.57568 0.0
H3420 H 0.76289 0.23298 0.07981 0.0
H3421 H 0.66588 0.1348 0.07021 0.0
H3422 H 0.73788 0.21886 0.09454 0.0
H3423 H 0.64049 0.12075 0.085 0.0
H3424 H 0.61921 0.08893 0.11398 0.0
H3425 H 0.64615 0.10113 0.09936 0.0
H3426 H 0.69131 0.21874 0.10342 0.0
H3427 H 0.66599 0.20669 0.11812 0.0
C3428 C 0.73598 0.20852 0.08081 0.0
C3429 C 0.71634 0.18527 0.07374 0.0
C3430 C 0.72155 0.20038 0.08931 0.0
C3431 C 0.68688 0.16875 0.09104 0.0
C3432 C 0.66744 0.14513 0.08399 0.0
C3433 C 0.68199 0.15323 0.07547 0.0
C3434 C 0.63535 0.11745 0.11181 0.0
C3435 C 0.64025 0.14676 0.11731 0.0
C3436 C 0.65043 0.12445 0.10335 0.0
C3437 C 0.67098 0.16098 0.10012 0.0
C3438 C 0.67612 0.19025 0.10565 0.0
C3439 C 0.66109 0.18327 0.11409 0.0
H3440 H 0.91697 0.49077 0.11128 0.0
H3441 H 0.83179 0.51153 0.12114 0.0
H3442 H 0.90582 0.50497 0.09655 0.0
H3443 H 0.81967 0.52435 0.10634 0.0
H3444 H 0.83181 0.5809 0.07998 0.0
H3445 H 0.84531 0.56897 0.09471 0.0
H3446 H 0.86117 0.48059 0.08488 0.0
H3447 H 0.84904 0.49348 0.07008 0.0
C3448 C 0.89595 0.49853 0.11034 0.0
C3449 C 0.87541 0.50004 0.11748 0.0
C3450 C 0.8892 0.50622 0.10183 0.0
C3451 C 0.86173 0.51577 0.10018 0.0
C3452 C 0.84132 0.5175 0.10732 0.0
C3453 C 0.848 0.5097 0.11583 0.0
C3454 C 0.83865 0.55922 0.08092 0.0
C3455 C 0.83939 0.53829 0.07376 0.0
C3456 C 0.84594 0.55203 0.08942 0.0
C3457 C 0.85428 0.52369 0.09106 0.0
C3458 C 0.85525 0.50289 0.0839 0.0
C3459 C 0.84786 0.51003 0.0754 0.0
H3460 H 0.57949 0.39557 0.11483 0.0
H3461 H 0.4637 0.36143 0.11818 0.0
H3462 H 0.56681 0.37103 0.10003 0.0
H3463 H 0.45097 0.33679 0.10333 0.0
H3464 H 0.44875 0.32983 0.07327 0.0
H3465 H 0.46071 0.35439 0.08813 0.0
H3466 H 0.53737 0.31421 0.09193 0.0
H3467 H 0.52546 0.28974 0.07712 0.0
C3468 C 0.55118 0.38242 0.11246 0.0
C3469 C 0.52264 0.38043 0.11779 0.0
C3470 C 0.54389 0.36831 0.10393 0.0
C3471 C 0.50779 0.35173 0.10042 0.0
C3472 C 0.47922 0.3498 0.10573 0.0
C3473 C 0.48653 0.36394 0.11428 0.0
C3474 C 0.46799 0.326 0.07729 0.0
C3475 C 0.48624 0.30787 0.07391 0.0
C3476 C 0.47484 0.34009 0.08584 0.0
C3477 C 0.50014 0.33648 0.09129 0.0
C3478 C 0.51825 0.31824 0.08792 0.0
C3479 C 0.51142 0.30418 0.07938 0.0
H3480 H 0.43401 0.91381 0.913 0.0
H3481 H 0.32766 0.82861 0.90331 0.0
H3482 H 0.40908 0.90295 0.92778 0.0
H3483 H 0.30312 0.81676 0.91815 0.0
H3484 H 0.25962 0.82917 0.94461 0.0
H3485 H 0.28465 0.8427 0.92983 0.0
H3486 H 0.38907 0.85825 0.93944 0.0
H3487 H 0.36447 0.84609 0.95427 0.0
C3488 C 0.40523 0.89286 0.914 0.0
C3489 C 0.38293 0.8722 0.90689 0.0
C3490 C 0.39103 0.88628 0.92252 0.0
C3491 C 0.35402 0.85886 0.92423 0.0
C3492 C 0.33162 0.83837 0.91712 0.0
C3493 C 0.34586 0.84489 0.90859 0.0
C3494 C 0.2881 0.83596 0.94361 0.0
C3495 C 0.30996 0.83658 0.9507 0.0
C3496 C 0.30235 0.84327 0.93508 0.0
C3497 C 0.33895 0.85151 0.93337 0.0
C3498 C 0.3609 0.8524 0.94047 0.0
C3499 C 0.34662 0.84499 0.949 0.0
H3500 H 0.18369 0.43229 0.94541 0.0
H3501 H 0.18796 0.53312 0.95408 0.0
H3502 H 0.17135 0.44413 0.93056 0.0
H3503 H 0.17551 0.54493 0.93923 0.0
H3504 H 0.19213 0.57594 0.91032 0.0
H3505 H 0.20343 0.5629 0.92513 0.0
H3506 H 0.1265 0.44619 0.92109 0.0
H3507 H 0.11638 0.45908 0.90612 0.0
C3508 C 0.18153 0.45677 0.9442 0.0
C3509 C 0.18693 0.48172 0.95102 0.0
C3510 C 0.17444 0.4636 0.93564 0.0
C3511 C 0.17251 0.49562 0.93361 0.0
C3512 C 0.17748 0.52034 0.94046 0.0
C3513 C 0.1846 0.51352 0.94901 0.0
C3514 C 0.17793 0.54739 0.91253 0.0
C3515 C 0.15341 0.51861 0.90693 0.0
C3516 C 0.18404 0.53994 0.92111 0.0
C3517 C 0.16583 0.50345 0.92441 0.0
C3518 C 0.14137 0.47462 0.91881 0.0
C3519 C 0.13522 0.48208 0.91022 0.0
H3520 H 0.52136 0.69381 0.90347 0.0
H3521 H 0.49509 0.58624 0.91339 0.0
H3522 H 0.53327 0.71841 0.91831 0.0
H3523 H 0.50836 0.61118 0.92818 0.0
H3524 H 0.49499 0.65724 0.95434 0.0
H3525 H 0.48355 0.63267 0.93951 0.0
H3526 H 0.57631 0.73537 0.93029 0.0
H3527 H 0.58687 0.76042 0.94507 0.0
C3528 C 0.51815 0.67536 0.9088 0.0
C3529 C 0.5072 0.63794 0.90716 0.0
C3530 C 0.52542 0.68962 0.91733 0.0
C3531 C 0.52183 0.66688 0.9245 0.0
C3532 C 0.51105 0.62951 0.92286 0.0
C3533 C 0.50389 0.61529 0.91433 0.0
C3534 C 0.51283 0.67473 0.94915 0.0
C3535 C 0.54187 0.71092 0.95096 0.0
C3536 C 0.50651 0.66044 0.94063 0.0
C3537 C 0.52897 0.68194 0.93364 0.0
C3538 C 0.55813 0.71806 0.93546 0.0
C3539 C 0.56451 0.7323 0.94398 0.0
H3540 H 0.29145 0.52196 0.44758 0.0
H3541 H 0.33523 0.44885 0.45232 0.0
H3542 H 0.31616 0.5329 0.4328 0.0
H3543 H 0.35863 0.45858 0.43738 0.0
H3544 H 0.42987 0.51609 0.41307 0.0
H3545 H 0.40526 0.50388 0.42789 0.0
H3546 H 0.30703 0.50396 0.41883 0.0
H3547 H 0.33168 0.51625 0.40402 0.0
C3548 C 0.30647 0.50827 0.4455 0.0
C3549 C 0.31138 0.4846 0.45123 0.0
C3550 C 0.32024 0.51416 0.43694 0.0
C3551 C 0.33938 0.49657 0.43381 0.0
C3552 C 0.34439 0.47294 0.43954 0.0
C3553 C 0.33056 0.46701 0.44811 0.0
C3554 C 0.40279 0.51304 0.4142 0.0
C3555 C 0.3829 0.51728 0.40728 0.0
C3556 C 0.38863 0.50603 0.42274 0.0
C3557 C 0.35411 0.50303 0.42464 0.0
C3558 C 0.33401 0.50678 0.4177 0.0
C3559 C 0.34818 0.51382 0.40916 0.0
H3560 H 0.54017 0.92563 0.40934 0.0
H3561 H 0.46953 0.80761 0.40551 0.0
H3562 H 0.55487 0.9143 0.42404 0.0
H3563 H 0.48274 0.79642 0.42029 0.0
H3564 H 0.53989 0.78362 0.44411 0.0
H3565 H 0.5291 0.79692 0.42929 0.0
H3566 H 0.52967 0.89545 0.43842 0.0
H3567 H 0.54097 0.88226 0.45329 0.0
C3568 C 0.52786 0.89723 0.4116 0.0
C3569 C 0.50356 0.86759 0.40616 0.0
C3570 C 0.53592 0.89074 0.42011 0.0
C3571 C 0.52001 0.85439 0.42345 0.0
C3572 C 0.49598 0.82479 0.41798 0.0
C3573 C 0.48797 0.83127 0.40949 0.0
C3574 C 0.53745 0.80801 0.443 0.0
C3575 C 0.541 0.83163 0.44997 0.0
C3576 C 0.5312 0.81567 0.43445 0.0
C3577 C 0.52813 0.84716 0.43258 0.0
C3578 C 0.53226 0.87116 0.43954 0.0
C3579 C 0.53869 0.86355 0.4481 0.0
H3580 H 0.13216 0.69829 0.45062 0.0
H3581 H 0.24499 0.72076 0.4483 0.0
H3582 H 0.11981 0.67508 0.43565 0.0
H3583 H 0.23223 0.6962 0.4335 0.0
H3584 H 0.21003 0.68581 0.40418 0.0
H3585 H 0.22142 0.71014 0.41903 0.0
H3586 H 0.11146 0.62444 0.42653 0.0
H3587 H 0.10005 0.60014 0.41167 0.0
C3588 C 0.15438 0.69829 0.44694 0.0
C3589 C 0.18963 0.71151 0.45075 0.0
C3590 C 0.14716 0.68455 0.43835 0.0
C3591 C 0.17498 0.68369 0.43328 0.0
C3592 C 0.21015 0.69678 0.43711 0.0
C3593 C 0.21735 0.71044 0.44569 0.0
C3594 C 0.18829 0.67195 0.40899 0.0
C3595 C 0.15411 0.64083 0.40666 0.0
C3596 C 0.19486 0.68593 0.41755 0.0
C3597 C 0.16749 0.66926 0.42407 0.0
C3598 C 0.13311 0.63843 0.4217 0.0
C3599 C 0.12653 0.62446 0.41314 0.0
loop_
_geom_bond_atom_site_label_1
_geom_bond_atom_site_label_2
_geom_bond_distance
_geom_bond_site_symmetry_2
_ccdc_geom_bond_type
Ho0 C3 2.811 . S
Ho0 O20 2.322 . S
Ho0 O22 2.378 . S
Ho0 O23 2.524 . S
Ho0 O24 2.381 . S
Ho0 O25 2.669 . S
Ho0 O27 2.346 . S
Ho0 O31 2.305 . S
Ho1 C12 2.811 . S
Ho1 O21 2.346 . S
Ho1 O25 2.305 . S
Ho1 O26 2.322 . S
Ho1 O28 2.378 . S
Ho1 O29 2.524 . S
Ho1 O30 2.381 . S
Ho1 O31 2.669 . S
C2 O20 1.259 . S
C2 O21 1.268 . S
C3 Ho0 2.811 . S
C3 C4 1.488 . S
C3 O22 1.215 . S
C3 O23 1.289 . S
C4 C3 1.488 . S
C4 C5 1.348 . S
C4 C9 1.413 . S
C5 C4 1.348 . S
C5 C6 1.442 . S
C5 H32 0.930 . S
C6 C5 1.442 . S
C6 C7 1.381 . S
C6 H33 0.931 . S
C7 C6 1.381 . S
C7 C8 1.321 . S
C8 C7 1.321 . S
C8 C9 1.403 . S
C8 H34 0.934 . S
C9 C4 1.413 . S
C9 C8 1.403 . S
C9 H35 0.930 . S
C10 O24 1.275 . S
C10 O25 1.256 . S
C11 O26 1.259 . S
C11 O27 1.268 . S
C12 Ho1 2.811 . S
C12 C13 1.488 . S
C12 O28 1.215 . S
C12 O29 1.289 . S
C13 C12 1.488 . S
C13 C14 1.348 . S
C13 C18 1.413 . S
C14 C13 1.348 . S
C14 C15 1.442 . S
C14 H36 0.930 . S
C15 C14 1.442 . S
C15 C16 1.381 . S
C15 H37 0.931 . S
C16 C15 1.381 . S
C16 C17 1.321 . S
C17 C16 1.321 . S
C17 C18 1.403 . S
C17 H38 0.934 . S
C18 C13 1.413 . S
C18 C17 1.403 . S
C18 H39 0.930 . S
C19 O30 1.275 . S
C19 O31 1.256 . S
O20 Ho0 2.322 . S
O20 C2 1.259 . S
O21 Ho1 2.346 . S
O21 C2 1.268 . S
O22 Ho0 2.378 . S
O22 C3 1.215 . S
O23 Ho0 2.524 . S
O23 C3 1.289 . S
O24 Ho0 2.381 . S
O24 C10 1.275 . S
O25 Ho0 2.669 . S
O25 Ho1 2.305 . S
O25 C10 1.256 . S
O26 Ho1 2.322 . S
O26 C11 1.259 . S
O27 Ho0 2.346 . S
O27 C11 1.268 . S
O28 Ho1 2.378 . S
O28 C12 1.215 . S
O29 Ho1 2.524 . S
O29 C12 1.289 . S
O30 Ho1 2.381 . S
O30 C19 1.275 . S
O31 Ho0 2.305 . S
O31 Ho1 2.669 . S
O31 C19 1.256 . S
H32 C5 0.930 . S
H33 C6 0.931 . S
H34 C8 0.934 . S
H35 C9 0.930 . S
H36 C14 0.930 . S
H37 C15 0.931 . S
H38 C17 0.934 . S
H39 C18 0.930 . S
Ho40 C43 2.811 . S
Ho40 O60 2.322 . S
Ho40 O62 2.378 . S
Ho40 O63 2.524 . S
Ho40 O64 2.381 . S
Ho40 O65 2.669 . S
Ho40 O67 2.346 . S
Ho40 O71 2.305 . S
Ho41 C52 2.811 . S
Ho41 O61 2.346 . S
Ho41 O65 2.305 . S
Ho41 O66 2.322 . S
Ho41 O68 2.378 . S
Ho41 O69 2.524 . S
Ho41 O70 2.381 . S
Ho41 O71 2.669 . S
C42 O60 1.259 . S
C42 O61 1.268 . S
C43 Ho40 2.811 . S
C43 C44 1.488 . S
C43 O62 1.215 . S
C43 O63 1.289 . S
C44 C43 1.488 . S
C44 C45 1.348 . S
C44 C49 1.413 . S
C45 C44 1.348 . S
C45 C46 1.442 . S
C45 H72 0.930 . S
C46 C45 1.442 . S
C46 C47 1.381 . S
C46 H73 0.931 . S
C47 C46 1.381 . S
C47 C48 1.321 . S
C48 C47 1.321 . S
C48 C49 1.403 . S
C48 H74 0.934 . S
C49 C44 1.413 . S
C49 C48 1.403 . S
C49 H75 0.930 . S
C50 O64 1.275 . S
C50 O65 1.256 . S
C51 O66 1.259 . S
C51 O67 1.268 . S
C52 Ho41 2.811 . S
C52 C53 1.488 . S
C52 O68 1.215 . S
C52 O69 1.289 . S
C53 C52 1.488 . S
C53 C54 1.348 . S
C53 C58 1.413 . S
C54 C53 1.348 . S
C54 C55 1.442 . S
C54 H76 0.930 . S
C55 C54 1.442 . S
C55 C56 1.381 . S
C55 H77 0.931 . S
C56 C55 1.381 . S
C56 C57 1.321 . S
C57 C56 1.321 . S
C57 C58 1.403 . S
C57 H78 0.934 . S
C58 C53 1.413 . S
C58 C57 1.403 . S
C58 H79 0.930 . S
C59 O70 1.275 . S
C59 O71 1.256 . S
O60 Ho40 2.322 . S
O60 C42 1.259 . S
O61 Ho41 2.346 . S
O61 C42 1.268 . S
O62 Ho40 2.378 . S
O62 C43 1.215 . S
O63 Ho40 2.524 . S
O63 C43 1.289 . S
O64 Ho40 2.381 . S
O64 C50 1.275 . S
O65 Ho40 2.669 . S
O65 Ho41 2.305 . S
O65 C50 1.256 . S
O66 Ho41 2.322 . S
O66 C51 1.259 . S
O67 Ho40 2.346 . S
O67 C51 1.268 . S
O68 Ho41 2.378 . S
O68 C52 1.215 . S
O69 Ho41 2.524 . S
O69 C52 1.289 . S
O70 Ho41 2.381 . S
O70 C59 1.275 . S
O71 Ho40 2.305 . S
O71 Ho41 2.669 . S
O71 C59 1.256 . S
H72 C45 0.930 . S
H73 C46 0.931 . S
H74 C48 0.934 . S
H75 C49 0.930 . S
H76 C54 0.930 . S
H77 C55 0.931 . S
H78 C57 0.934 . S
H79 C58 0.930 . S
Ho80 C83 2.811 . S
Ho80 O100 2.322 . S
Ho80 O102 2.378 . S
Ho80 O103 2.524 . S
Ho80 O104 2.381 . S
Ho80 O105 2.669 . S
Ho80 O107 2.346 . S
Ho80 O111 2.305 . S
Ho81 C92 2.811 . S
Ho81 O101 2.346 . S
Ho81 O105 2.305 . S
Ho81 O106 2.322 . S
Ho81 O108 2.378 . S
Ho81 O109 2.524 . S
Ho81 O110 2.381 . S
Ho81 O111 2.669 . S
C82 O100 1.259 . S
C82 O101 1.268 . S
C83 Ho80 2.811 . S
C83 C84 1.488 . S
C83 O102 1.215 . S
C83 O103 1.289 . S
C84 C83 1.488 . S
C84 C85 1.348 . S
C84 C89 1.413 . S
C85 C84 1.348 . S
C85 C86 1.442 . S
C85 H112 0.930 . S
C86 C85 1.442 . S
C86 C87 1.381 . S
C86 H113 0.931 . S
C87 C86 1.381 . S
C87 C88 1.321 . S
C88 C87 1.321 . S
C88 C89 1.403 . S
C88 H114 0.934 . S
C89 C84 1.413 . S
C89 C88 1.403 . S
C89 H115 0.930 . S
C90 O104 1.275 . S
C90 O105 1.256 . S
C91 O106 1.259 . S
C91 O107 1.268 . S
C92 Ho81 2.811 . S
C92 C93 1.488 . S
C92 O108 1.215 . S
C92 O109 1.289 . S
C93 C92 1.488 . S
C93 C94 1.348 . S
C93 C98 1.413 . S
C94 C93 1.348 . S
C94 C95 1.442 . S
C94 H116 0.930 . S
C95 C94 1.442 . S
C95 C96 1.381 . S
C95 H117 0.931 . S
C96 C95 1.381 . S
C96 C97 1.321 . S
C97 C96 1.321 . S
C97 C98 1.403 . S
C97 H118 0.934 . S
C98 C93 1.413 . S
C98 C97 1.403 . S
C98 H119 0.930 . S
C99 O110 1.275 . S
C99 O111 1.256 . S
O100 Ho80 2.322 . S
O100 C82 1.259 . S
O101 Ho81 2.346 . S
O101 C82 1.268 . S
O102 Ho80 2.378 . S
O102 C83 1.215 . S
O103 Ho80 2.524 . S
O103 C83 1.289 . S
O104 Ho80 2.381 . S
O104 C90 1.275 . S
O105 Ho80 2.669 . S
O105 Ho81 2.305 . S
O105 C90 1.256 . S
O106 Ho81 2.322 . S
O106 C91 1.259 . S
O107 Ho80 2.346 . S
O107 C91 1.268 . S
O108 Ho81 2.378 . S
O108 C92 1.215 . S
O109 Ho81 2.524 . S
O109 C92 1.289 . S
O110 Ho81 2.381 . S
O110 C99 1.275 . S
O111 Ho80 2.305 . S
O111 Ho81 2.669 . S
O111 C99 1.256 . S
H112 C85 0.930 . S
H113 C86 0.931 . S
H114 C88 0.934 . S
H115 C89 0.930 . S
H116 C94 0.930 . S
H117 C95 0.931 . S
H118 C97 0.934 . S
H119 C98 0.930 . S
Ho120 C123 2.811 . S
Ho120 O140 2.322 . S
Ho120 O142 2.378 . S
Ho120 O143 2.524 . S
Ho120 O144 2.381 . S
Ho120 O145 2.669 . S
Ho120 O147 2.346 . S
Ho120 O151 2.305 . S
Ho121 C132 2.811 . S
Ho121 O141 2.346 . S
Ho121 O145 2.305 . S
Ho121 O146 2.322 . S
Ho121 O148 2.378 . S
Ho121 O149 2.524 . S
Ho121 O150 2.381 . S
Ho121 O151 2.669 . S
C122 O140 1.259 . S
C122 O141 1.268 . S
C123 Ho120 2.811 . S
C123 C124 1.488 . S
C123 O142 1.215 . S
C123 O143 1.289 . S
C124 C123 1.488 . S
C124 C125 1.348 . S
C124 C129 1.413 . S
C125 C124 1.348 . S
C125 C126 1.442 . S
C125 H152 0.930 . S
C126 C125 1.442 . S
C126 C127 1.381 . S
C126 H153 0.931 . S
C127 C126 1.381 . S
C127 C128 1.321 . S
C128 C127 1.321 . S
C128 C129 1.403 . S
C128 H154 0.934 . S
C129 C124 1.413 . S
C129 C128 1.403 . S
C129 H155 0.930 . S
C130 O144 1.275 . S
C130 O145 1.256 . S
C131 O146 1.259 . S
C131 O147 1.268 . S
C132 Ho121 2.811 . S
C132 C133 1.488 . S
C132 O148 1.215 . S
C132 O149 1.289 . S
C133 C132 1.488 . S
C133 C134 1.348 . S
C133 C138 1.413 . S
C134 C133 1.348 . S
C134 C135 1.442 . S
C134 H156 0.930 . S
C135 C134 1.442 . S
C135 C136 1.381 . S
C135 H157 0.931 . S
C136 C135 1.381 . S
C136 C137 1.321 . S
C137 C136 1.321 . S
C137 C138 1.403 . S
C137 H158 0.934 . S
C138 C133 1.413 . S
C138 C137 1.403 . S
C138 H159 0.930 . S
C139 O150 1.275 . S
C139 O151 1.256 . S
O140 Ho120 2.322 . S
O140 C122 1.259 . S
O141 Ho121 2.346 . S
O141 C122 1.268 . S
O142 Ho120 2.378 . S
O142 C123 1.215 . S
O143 Ho120 2.524 . S
O143 C123 1.289 . S
O144 Ho120 2.381 . S
O144 C130 1.275 . S
O145 Ho120 2.669 . S
O145 Ho121 2.305 . S
O145 C130 1.256 . S
O146 Ho121 2.322 . S
O146 C131 1.259 . S
O147 Ho120 2.346 . S
O147 C131 1.268 . S
O148 Ho121 2.378 . S
O148 C132 1.215 . S
O149 Ho121 2.524 . S
O149 C132 1.289 . S
O150 Ho121 2.381 . S
O150 C139 1.275 . S
O151 Ho120 2.305 . S
O151 Ho121 2.669 . S
O151 C139 1.256 . S
H152 C125 0.930 . S
H153 C126 0.931 . S
H154 C128 0.934 . S
H155 C129 0.930 . S
H156 C134 0.930 . S
H157 C135 0.931 . S
H158 C137 0.934 . S
H159 C138 0.930 . S
Ho160 C163 2.811 . S
Ho160 O180 2.322 . S
Ho160 O182 2.378 . S
Ho160 O183 2.524 . S
Ho160 O184 2.381 . S
Ho160 O185 2.669 . S
Ho160 O187 2.346 . S
Ho160 O191 2.305 . S
Ho161 C172 2.811 . S
Ho161 O181 2.346 . S
Ho161 O185 2.305 . S
Ho161 O186 2.322 . S
Ho161 O188 2.378 . S
Ho161 O189 2.524 . S
Ho161 O190 2.381 . S
Ho161 O191 2.669 . S
C162 O180 1.259 . S
C162 O181 1.268 . S
C163 Ho160 2.811 . S
C163 C164 1.488 . S
C163 O182 1.215 . S
C163 O183 1.289 . S
C164 C163 1.488 . S
C164 C165 1.348 . S
C164 C169 1.413 . S
C165 C164 1.348 . S
C165 C166 1.442 . S
C165 H192 0.930 . S
C166 C165 1.442 . S
C166 C167 1.381 . S
C166 H193 0.931 . S
C167 C166 1.381 . S
C167 C168 1.321 . S
C168 C167 1.321 . S
C168 C169 1.403 . S
C168 H194 0.934 . S
C169 C164 1.413 . S
C169 C168 1.403 . S
C169 H195 0.930 . S
C170 O184 1.275 . S
C170 O185 1.256 . S
C171 O186 1.259 . S
C171 O187 1.268 . S
C172 Ho161 2.811 . S
C172 C173 1.488 . S
C172 O188 1.215 . S
C172 O189 1.289 . S
C173 C172 1.488 . S
C173 C174 1.348 . S
C173 C178 1.413 . S
C174 C173 1.348 . S
C174 C175 1.442 . S
C174 H196 0.930 . S
C175 C174 1.442 . S
C175 C176 1.381 . S
C175 H197 0.931 . S
C176 C175 1.381 . S
C176 C177 1.321 . S
C177 C176 1.321 . S
C177 C178 1.403 . S
C177 H198 0.934 . S
C178 C173 1.413 . S
C178 C177 1.403 . S
C178 H199 0.930 . S
C179 O190 1.275 . S
C179 O191 1.256 . S
O180 Ho160 2.322 . S
O180 C162 1.259 . S
O181 Ho161 2.346 . S
O181 C162 1.268 . S
O182 Ho160 2.378 . S
O182 C163 1.215 . S
O183 Ho160 2.524 . S
O183 C163 1.289 . S
O184 Ho160 2.381 . S
O184 C170 1.275 . S
O185 Ho160 2.669 . S
O185 Ho161 2.305 . S
O185 C170 1.256 . S
O186 Ho161 2.322 . S
O186 C171 1.259 . S
O187 Ho160 2.346 . S
O187 C171 1.268 . S
O188 Ho161 2.378 . S
O188 C172 1.215 . S
O189 Ho161 2.524 . S
O189 C172 1.289 . S
O190 Ho161 2.381 . S
O190 C179 1.275 . S
O191 Ho160 2.305 . S
O191 Ho161 2.669 . S
O191 C179 1.256 . S
H192 C165 0.930 . S
H193 C166 0.931 . S
H194 C168 0.934 . S
H195 C169 0.930 . S
H196 C174 0.930 . S
H197 C175 0.931 . S
H198 C177 0.934 . S
H199 C178 0.930 . S
Ho200 C203 2.811 . S
Ho200 O220 2.322 . S
Ho200 O222 2.378 . S
Ho200 O223 2.524 . S
Ho200 O224 2.381 . S
Ho200 O225 2.669 . S
Ho200 O227 2.346 . S
Ho200 O231 2.305 . S
Ho201 C212 2.811 . S
Ho201 O221 2.346 . S
Ho201 O225 2.305 . S
Ho201 O226 2.322 . S
Ho201 O228 2.378 . S
Ho201 O229 2.524 . S
Ho201 O230 2.381 . S
Ho201 O231 2.669 . S
C202 O220 1.259 . S
C202 O221 1.268 . S
C203 Ho200 2.811 . S
C203 C204 1.488 . S
C203 O222 1.215 . S
C203 O223 1.289 . S
C204 C203 1.488 . S
C204 C205 1.348 . S
C204 C209 1.413 . S
C205 C204 1.348 . S
C205 C206 1.442 . S
C205 H232 0.930 . S
C206 C205 1.442 . S
C206 C207 1.381 . S
C206 H233 0.931 . S
C207 C206 1.381 . S
C207 C208 1.321 . S
C208 C207 1.321 . S
C208 C209 1.403 . S
C208 H234 0.934 . S
C209 C204 1.413 . S
C209 C208 1.403 . S
C209 H235 0.930 . S
C210 O224 1.275 . S
C210 O225 1.256 . S
C211 O226 1.259 . S
C211 O227 1.268 . S
C212 Ho201 2.811 . S
C212 C213 1.488 . S
C212 O228 1.215 . S
C212 O229 1.289 . S
C213 C212 1.488 . S
C213 C214 1.348 . S
C213 C218 1.413 . S
C214 C213 1.348 . S
C214 C215 1.442 . S
C214 H236 0.930 . S
C215 C214 1.442 . S
C215 C216 1.381 . S
C215 H237 0.931 . S
C216 C215 1.381 . S
C216 C217 1.321 . S
C217 C216 1.321 . S
C217 C218 1.403 . S
C217 H238 0.934 . S
C218 C213 1.413 . S
C218 C217 1.403 . S
C218 H239 0.930 . S
C219 O230 1.275 . S
C219 O231 1.256 . S
O220 Ho200 2.322 . S
O220 C202 1.259 . S
O221 Ho201 2.346 . S
O221 C202 1.268 . S
O222 Ho200 2.378 . S
O222 C203 1.215 . S
O223 Ho200 2.524 . S
O223 C203 1.289 . S
O224 Ho200 2.381 . S
O224 C210 1.275 . S
O225 Ho200 2.669 . S
O225 Ho201 2.305 . S
O225 C210 1.256 . S
O226 Ho201 2.322 . S
O226 C211 1.259 . S
O227 Ho200 2.346 . S
O227 C211 1.268 . S
O228 Ho201 2.378 . S
O228 C212 1.215 . S
O229 Ho201 2.524 . S
O229 C212 1.289 . S
O230 Ho201 2.381 . S
O230 C219 1.275 . S
O231 Ho200 2.305 . S
O231 Ho201 2.669 . S
O231 C219 1.256 . S
H232 C205 0.930 . S
H233 C206 0.931 . S
H234 C208 0.934 . S
H235 C209 0.930 . S
H236 C214 0.930 . S
H237 C215 0.931 . S
H238 C217 0.934 . S
H239 C218 0.930 . S
Ho240 C243 2.811 . S
Ho240 O260 2.322 . S
Ho240 O262 2.378 . S
Ho240 O263 2.524 . S
Ho240 O264 2.381 . S
Ho240 O265 2.669 . S
Ho240 O267 2.346 . S
Ho240 O271 2.305 . S
Ho241 C252 2.811 . S
Ho241 O261 2.346 . S
Ho241 O265 2.305 . S
Ho241 O266 2.322 . S
Ho241 O268 2.378 . S
Ho241 O269 2.524 . S
Ho241 O270 2.381 . S
Ho241 O271 2.669 . S
C242 O260 1.259 . S
C242 O261 1.268 . S
C243 Ho240 2.811 . S
C243 C244 1.488 . S
C243 O262 1.215 . S
C243 O263 1.289 . S
C244 C243 1.488 . S
C244 C245 1.348 . S
C244 C249 1.413 . S
C245 C244 1.348 . S
C245 C246 1.442 . S
C245 H272 0.930 . S
C246 C245 1.442 . S
C246 C247 1.381 . S
C246 H273 0.931 . S
C247 C246 1.381 . S
C247 C248 1.321 . S
C248 C247 1.321 . S
C248 C249 1.403 . S
C248 H274 0.934 . S
C249 C244 1.413 . S
C249 C248 1.403 . S
C249 H275 0.930 . S
C250 O264 1.275 . S
C250 O265 1.256 . S
C251 O266 1.259 . S
C251 O267 1.268 . S
C252 Ho241 2.811 . S
C252 C253 1.488 . S
C252 O268 1.215 . S
C252 O269 1.289 . S
C253 C252 1.488 . S
C253 C254 1.348 . S
C253 C258 1.413 . S
C254 C253 1.348 . S
C254 C255 1.442 . S
C254 H276 0.930 . S
C255 C254 1.442 . S
C255 C256 1.381 . S
C255 H277 0.931 . S
C256 C255 1.381 . S
C256 C257 1.321 . S
C257 C256 1.321 . S
C257 C258 1.403 . S
C257 H278 0.934 . S
C258 C253 1.413 . S
C258 C257 1.403 . S
C258 H279 0.930 . S
C259 O270 1.275 . S
C259 O271 1.256 . S
O260 Ho240 2.322 . S
O260 C242 1.259 . S
O261 Ho241 2.346 . S
O261 C242 1.268 . S
O262 Ho240 2.378 . S
O262 C243 1.215 . S
O263 Ho240 2.524 . S
O263 C243 1.289 . S
O264 Ho240 2.381 . S
O264 C250 1.275 . S
O265 Ho240 2.669 . S
O265 Ho241 2.305 . S
O265 C250 1.256 . S
O266 Ho241 2.322 . S
O266 C251 1.259 . S
O267 Ho240 2.346 . S
O267 C251 1.268 . S
O268 Ho241 2.378 . S
O268 C252 1.215 . S
O269 Ho241 2.524 . S
O269 C252 1.289 . S
O270 Ho241 2.381 . S
O270 C259 1.275 . S
O271 Ho240 2.305 . S
O271 Ho241 2.669 . S
O271 C259 1.256 . S
H272 C245 0.930 . S
H273 C246 0.931 . S
H274 C248 0.934 . S
H275 C249 0.930 . S
H276 C254 0.930 . S
H277 C255 0.931 . S
H278 C257 0.934 . S
H279 C258 0.930 . S
Ho280 C283 2.811 . S
Ho280 O300 2.322 . S
Ho280 O302 2.378 . S
Ho280 O303 2.524 . S
Ho280 O304 2.381 . S
Ho280 O305 2.669 . S
Ho280 O307 2.346 . S
Ho280 O311 2.305 . S
Ho281 C292 2.811 . S
Ho281 O301 2.346 . S
Ho281 O305 2.305 . S
Ho281 O306 2.322 . S
Ho281 O308 2.378 . S
Ho281 O309 2.524 . S
Ho281 O310 2.381 . S
Ho281 O311 2.669 . S
C282 O300 1.259 . S
C282 O301 1.268 . S
C283 Ho280 2.811 . S
C283 C284 1.488 . S
C283 O302 1.215 . S
C283 O303 1.289 . S
C284 C283 1.488 . S
C284 C285 1.348 . S
C284 C289 1.413 . S
C285 C284 1.348 . S
C285 C286 1.442 . S
C285 H312 0.930 . S
C286 C285 1.442 . S
C286 C287 1.381 . S
C286 H313 0.931 . S
C287 C286 1.381 . S
C287 C288 1.321 . S
C288 C287 1.321 . S
C288 C289 1.403 . S
C288 H314 0.934 . S
C289 C284 1.413 . S
C289 C288 1.403 . S
C289 H315 0.930 . S
C290 O304 1.275 . S
C290 O305 1.256 . S
C291 O306 1.259 . S
C291 O307 1.268 . S
C292 Ho281 2.811 . S
C292 C293 1.488 . S
C292 O308 1.215 . S
C292 O309 1.289 . S
C293 C292 1.488 . S
C293 C294 1.348 . S
C293 C298 1.413 . S
C294 C293 1.348 . S
C294 C295 1.442 . S
C294 H316 0.930 . S
C295 C294 1.442 . S
C295 C296 1.381 . S
C295 H317 0.931 . S
C296 C295 1.381 . S
C296 C297 1.321 . S
C297 C296 1.321 . S
C297 C298 1.403 . S
C297 H318 0.934 . S
C298 C293 1.413 . S
C298 C297 1.403 . S
C298 H319 0.930 . S
C299 O310 1.275 . S
C299 O311 1.256 . S
O300 Ho280 2.322 . S
O300 C282 1.259 . S
O301 Ho281 2.346 . S
O301 C282 1.268 . S
O302 Ho280 2.378 . S
O302 C283 1.215 . S
O303 Ho280 2.524 . S
O303 C283 1.289 . S
O304 Ho280 2.381 . S
O304 C290 1.275 . S
O305 Ho280 2.669 . S
O305 Ho281 2.305 . S
O305 C290 1.256 . S
O306 Ho281 2.322 . S
O306 C291 1.259 . S
O307 Ho280 2.346 . S
O307 C291 1.268 . S
O308 Ho281 2.378 . S
O308 C292 1.215 . S
O309 Ho281 2.524 . S
O309 C292 1.289 . S
O310 Ho281 2.381 . S
O310 C299 1.275 . S
O311 Ho280 2.305 . S
O311 Ho281 2.669 . S
O311 C299 1.256 . S
H312 C285 0.930 . S
H313 C286 0.931 . S
H314 C288 0.934 . S
H315 C289 0.930 . S
H316 C294 0.930 . S
H317 C295 0.931 . S
H318 C297 0.934 . S
H319 C298 0.930 . S
Ho320 C323 2.811 . S
Ho320 O340 2.322 . S
Ho320 O342 2.378 . S
Ho320 O343 2.524 . S
Ho320 O344 2.381 . S
Ho320 O345 2.669 . S
Ho320 O347 2.346 . S
Ho320 O351 2.305 . S
Ho321 C332 2.811 . S
Ho321 O341 2.346 . S
Ho321 O345 2.305 . S
Ho321 O346 2.322 . S
Ho321 O348 2.378 . S
Ho321 O349 2.524 . S
Ho321 O350 2.381 . S
Ho321 O351 2.669 . S
C322 O340 1.259 . S
C322 O341 1.268 . S
C323 Ho320 2.811 . S
C323 C324 1.488 . S
C323 O342 1.215 . S
C323 O343 1.289 . S
C324 C323 1.488 . S
C324 C325 1.348 . S
C324 C329 1.413 . S
C325 C324 1.348 . S
C325 C326 1.442 . S
C325 H352 0.930 . S
C326 C325 1.442 . S
C326 C327 1.381 . S
C326 H353 0.931 . S
C327 C326 1.381 . S
C327 C328 1.321 . S
C328 C327 1.321 . S
C328 C329 1.403 . S
C328 H354 0.934 . S
C329 C324 1.413 . S
C329 C328 1.403 . S
C329 H355 0.930 . S
C330 O344 1.275 . S
C330 O345 1.256 . S
C331 O346 1.259 . S
C331 O347 1.268 . S
C332 Ho321 2.811 . S
C332 C333 1.488 . S
C332 O348 1.215 . S
C332 O349 1.289 . S
C333 C332 1.488 . S
C333 C334 1.348 . S
C333 C338 1.413 . S
C334 C333 1.348 . S
C334 C335 1.442 . S
C334 H356 0.930 . S
C335 C334 1.442 . S
C335 C336 1.381 . S
C335 H357 0.931 . S
C336 C335 1.381 . S
C336 C337 1.321 . S
C337 C336 1.321 . S
C337 C338 1.403 . S
C337 H358 0.934 . S
C338 C333 1.413 . S
C338 C337 1.403 . S
C338 H359 0.930 . S
C339 O350 1.275 . S
C339 O351 1.256 . S
O340 Ho320 2.322 . S
O340 C322 1.259 . S
O341 Ho321 2.346 . S
O341 C322 1.268 . S
O342 Ho320 2.378 . S
O342 C323 1.215 . S
O343 Ho320 2.524 . S
O343 C323 1.289 . S
O344 Ho320 2.381 . S
O344 C330 1.275 . S
O345 Ho320 2.669 . S
O345 Ho321 2.305 . S
O345 C330 1.256 . S
O346 Ho321 2.322 . S
O346 C331 1.259 . S
O347 Ho320 2.346 . S
O347 C331 1.268 . S
O348 Ho321 2.378 . S
O348 C332 1.215 . S
O349 Ho321 2.524 . S
O349 C332 1.289 . S
O350 Ho321 2.381 . S
O350 C339 1.275 . S
O351 Ho320 2.305 . S
O351 Ho321 2.669 . S
O351 C339 1.256 . S
H352 C325 0.930 . S
H353 C326 0.931 . S
H354 C328 0.934 . S
H355 C329 0.930 . S
H356 C334 0.930 . S
H357 C335 0.931 . S
H358 C337 0.934 . S
H359 C338 0.930 . S
Ho360 C363 2.811 . S
Ho360 O380 2.322 . S
Ho360 O382 2.378 . S
Ho360 O383 2.524 . S
Ho360 O384 2.381 . S
Ho360 O385 2.669 . S
Ho360 O387 2.346 . S
Ho360 O391 2.305 . S
Ho361 C372 2.811 . S
Ho361 O381 2.346 . S
Ho361 O385 2.305 . S
Ho361 O386 2.322 . S
Ho361 O388 2.378 . S
Ho361 O389 2.524 . S
Ho361 O390 2.381 . S
Ho361 O391 2.669 . S
C362 O380 1.259 . S
C362 O381 1.268 . S
C363 Ho360 2.811 . S
C363 C364 1.488 . S
C363 O382 1.215 . S
C363 O383 1.289 . S
C364 C363 1.488 . S
C364 C365 1.348 . S
C364 C369 1.413 . S
C365 C364 1.348 . S
C365 C366 1.442 . S
C365 H392 0.930 . S
C366 C365 1.442 . S
C366 C367 1.381 . S
C366 H393 0.931 . S
C367 C366 1.381 . S
C367 C368 1.321 . S
C368 C367 1.321 . S
C368 C369 1.403 . S
C368 H394 0.934 . S
C369 C364 1.413 . S
C369 C368 1.403 . S
C369 H395 0.930 . S
C370 O384 1.275 . S
C370 O385 1.256 . S
C371 O386 1.259 . S
C371 O387 1.268 . S
C372 Ho361 2.811 . S
C372 C373 1.488 . S
C372 O388 1.215 . S
C372 O389 1.289 . S
C373 C372 1.488 . S
C373 C374 1.348 . S
C373 C378 1.413 . S
C374 C373 1.348 . S
C374 C375 1.442 . S
C374 H396 0.930 . S
C375 C374 1.442 . S
C375 C376 1.381 . S
C375 H397 0.931 . S
C376 C375 1.381 . S
C376 C377 1.321 . S
C377 C376 1.321 . S
C377 C378 1.403 . S
C377 H398 0.934 . S
C378 C373 1.413 . S
C378 C377 1.403 . S
C378 H399 0.930 . S
C379 O390 1.275 . S
C379 O391 1.256 . S
O380 Ho360 2.322 . S
O380 C362 1.259 . S
O381 Ho361 2.346 . S
O381 C362 1.268 . S
O382 Ho360 2.378 . S
O382 C363 1.215 . S
O383 Ho360 2.524 . S
O383 C363 1.289 . S
O384 Ho360 2.381 . S
O384 C370 1.275 . S
O385 Ho360 2.669 . S
O385 Ho361 2.305 . S
O385 C370 1.256 . S
O386 Ho361 2.322 . S
O386 C371 1.259 . S
O387 Ho360 2.346 . S
O387 C371 1.268 . S
O388 Ho361 2.378 . S
O388 C372 1.215 . S
O389 Ho361 2.524 . S
O389 C372 1.289 . S
O390 Ho361 2.381 . S
O390 C379 1.275 . S
O391 Ho360 2.305 . S
O391 Ho361 2.669 . S
O391 C379 1.256 . S
H392 C365 0.930 . S
H393 C366 0.931 . S
H394 C368 0.934 . S
H395 C369 0.930 . S
H396 C374 0.930 . S
H397 C375 0.931 . S
H398 C377 0.934 . S
H399 C378 0.930 . S
Ho400 C403 2.811 . S
Ho400 O420 2.322 . S
Ho400 O422 2.378 . S
Ho400 O423 2.524 . S
Ho400 O424 2.381 . S
Ho400 O425 2.669 . S
Ho400 O427 2.346 . S
Ho400 O431 2.305 . S
Ho401 C412 2.811 . S
Ho401 O421 2.346 . S
Ho401 O425 2.305 . S
Ho401 O426 2.322 . S
Ho401 O428 2.378 . S
Ho401 O429 2.524 . S
Ho401 O430 2.381 . S
Ho401 O431 2.669 . S
C402 O420 1.259 . S
C402 O421 1.268 . S
C403 Ho400 2.811 . S
C403 C404 1.488 . S
C403 O422 1.215 . S
C403 O423 1.289 . S
C404 C403 1.488 . S
C404 C405 1.348 . S
C404 C409 1.413 . S
C405 C404 1.348 . S
C405 C406 1.442 . S
C405 H432 0.930 . S
C406 C405 1.442 . S
C406 C407 1.381 . S
C406 H433 0.931 . S
C407 C406 1.381 . S
C407 C408 1.321 . S
C408 C407 1.321 . S
C408 C409 1.403 . S
C408 H434 0.934 . S
C409 C404 1.413 . S
C409 C408 1.403 . S
C409 H435 0.930 . S
C410 O424 1.275 . S
C410 O425 1.256 . S
C411 O426 1.259 . S
C411 O427 1.268 . S
C412 Ho401 2.811 . S
C412 C413 1.488 . S
C412 O428 1.215 . S
C412 O429 1.289 . S
C413 C412 1.488 . S
C413 C414 1.348 . S
C413 C418 1.413 . S
C414 C413 1.348 . S
C414 C415 1.442 . S
C414 H436 0.930 . S
C415 C414 1.442 . S
C415 C416 1.381 . S
C415 H437 0.931 . S
C416 C415 1.381 . S
C416 C417 1.321 . S
C417 C416 1.321 . S
C417 C418 1.403 . S
C417 H438 0.934 . S
C418 C413 1.413 . S
C418 C417 1.403 . S
C418 H439 0.930 . S
C419 O430 1.275 . S
C419 O431 1.256 . S
O420 Ho400 2.322 . S
O420 C402 1.259 . S
O421 Ho401 2.346 . S
O421 C402 1.268 . S
O422 Ho400 2.378 . S
O422 C403 1.215 . S
O423 Ho400 2.524 . S
O423 C403 1.289 . S
O424 Ho400 2.381 . S
O424 C410 1.275 . S
O425 Ho400 2.669 . S
O425 Ho401 2.305 . S
O425 C410 1.256 . S
O426 Ho401 2.322 . S
O426 C411 1.259 . S
O427 Ho400 2.346 . S
O427 C411 1.268 . S
O428 Ho401 2.378 . S
O428 C412 1.215 . S
O429 Ho401 2.524 . S
O429 C412 1.289 . S
O430 Ho401 2.381 . S
O430 C419 1.275 . S
O431 Ho400 2.305 . S
O431 Ho401 2.669 . S
O431 C419 1.256 . S
H432 C405 0.930 . S
H433 C406 0.931 . S
H434 C408 0.934 . S
H435 C409 0.930 . S
H436 C414 0.930 . S
H437 C415 0.931 . S
H438 C417 0.934 . S
H439 C418 0.930 . S
Ho440 C443 2.811 . S
Ho440 O460 2.322 . S
Ho440 O462 2.378 . S
Ho440 O463 2.524 . S
Ho440 O464 2.381 . S
Ho440 O465 2.669 . S
Ho440 O467 2.346 . S
Ho440 O471 2.305 . S
Ho441 C452 2.811 . S
Ho441 O461 2.346 . S
Ho441 O465 2.305 . S
Ho441 O466 2.322 . S
Ho441 O468 2.378 . S
Ho441 O469 2.524 . S
Ho441 O470 2.381 . S
Ho441 O471 2.669 . S
C442 O460 1.259 . S
C442 O461 1.268 . S
C443 Ho440 2.811 . S
C443 C444 1.488 . S
C443 O462 1.215 . S
C443 O463 1.289 . S
C444 C443 1.488 . S
C444 C445 1.348 . S
C444 C449 1.413 . S
C445 C444 1.348 . S
C445 C446 1.442 . S
C445 H472 0.930 . S
C446 C445 1.442 . S
C446 C447 1.381 . S
C446 H473 0.931 . S
C447 C446 1.381 . S
C447 C448 1.321 . S
C448 C447 1.321 . S
C448 C449 1.403 . S
C448 H474 0.934 . S
C449 C444 1.413 . S
C449 C448 1.403 . S
C449 H475 0.930 . S
C450 O464 1.275 . S
C450 O465 1.256 . S
C451 O466 1.259 . S
C451 O467 1.268 . S
C452 Ho441 2.811 . S
C452 C453 1.488 . S
C452 O468 1.215 . S
C452 O469 1.289 . S
C453 C452 1.488 . S
C453 C454 1.348 . S
C453 C458 1.413 . S
C454 C453 1.348 . S
C454 C455 1.442 . S
C454 H476 0.930 . S
C455 C454 1.442 . S
C455 C456 1.381 . S
C455 H477 0.931 . S
C456 C455 1.381 . S
C456 C457 1.321 . S
C457 C456 1.321 . S
C457 C458 1.403 . S
C457 H478 0.934 . S
C458 C453 1.413 . S
C458 C457 1.403 . S
C458 H479 0.930 . S
C459 O470 1.275 . S
C459 O471 1.256 . S
O460 Ho440 2.322 . S
O460 C442 1.259 . S
O461 Ho441 2.346 . S
O461 C442 1.268 . S
O462 Ho440 2.378 . S
O462 C443 1.215 . S
O463 Ho440 2.524 . S
O463 C443 1.289 . S
O464 Ho440 2.381 . S
O464 C450 1.275 . S
O465 Ho440 2.669 . S
O465 Ho441 2.305 . S
O465 C450 1.256 . S
O466 Ho441 2.322 . S
O466 C451 1.259 . S
O467 Ho440 2.346 . S
O467 C451 1.268 . S
O468 Ho441 2.378 . S
O468 C452 1.215 . S
O469 Ho441 2.524 . S
O469 C452 1.289 . S
O470 Ho441 2.381 . S
O470 C459 1.275 . S
O471 Ho440 2.305 . S
O471 Ho441 2.669 . S
O471 C459 1.256 . S
H472 C445 0.930 . S
H473 C446 0.931 . S
H474 C448 0.934 . S
H475 C449 0.930 . S
H476 C454 0.930 . S
H477 C455 0.931 . S
H478 C457 0.934 . S
H479 C458 0.930 . S
Ho480 C483 2.811 . S
Ho480 O500 2.322 . S
Ho480 O502 2.378 . S
Ho480 O503 2.524 . S
Ho480 O504 2.381 . S
Ho480 O505 2.669 . S
Ho480 O507 2.346 . S
Ho480 O511 2.305 . S
Ho481 C492 2.811 . S
Ho481 O501 2.346 . S
Ho481 O505 2.305 . S
Ho481 O506 2.322 . S
Ho481 O508 2.378 . S
Ho481 O509 2.524 . S
Ho481 O510 2.381 . S
Ho481 O511 2.669 . S
C482 O500 1.259 . S
C482 O501 1.268 . S
C483 Ho480 2.811 . S
C483 C484 1.488 . S
C483 O502 1.215 . S
C483 O503 1.289 . S
C484 C483 1.488 . S
C484 C485 1.348 . S
C484 C489 1.413 . S
C485 C484 1.348 . S
C485 C486 1.442 . S
C485 H512 0.930 . S
C486 C485 1.442 . S
C486 C487 1.381 . S
C486 H513 0.931 . S
C487 C486 1.381 . S
C487 C488 1.321 . S
C488 C487 1.321 . S
C488 C489 1.403 . S
C488 H514 0.934 . S
C489 C484 1.413 . S
C489 C488 1.403 . S
C489 H515 0.930 . S
C490 O504 1.275 . S
C490 O505 1.256 . S
C491 O506 1.259 . S
C491 O507 1.268 . S
C492 Ho481 2.811 . S
C492 C493 1.488 . S
C492 O508 1.215 . S
C492 O509 1.289 . S
C493 C492 1.488 . S
C493 C494 1.348 . S
C493 C498 1.413 . S
C494 C493 1.348 . S
C494 C495 1.442 . S
C494 H516 0.930 . S
C495 C494 1.442 . S
C495 C496 1.381 . S
C495 H517 0.931 . S
C496 C495 1.381 . S
C496 C497 1.321 . S
C497 C496 1.321 . S
C497 C498 1.403 . S
C497 H518 0.934 . S
C498 C493 1.413 . S
C498 C497 1.403 . S
C498 H519 0.930 . S
C499 O510 1.275 . S
C499 O511 1.256 . S
O500 Ho480 2.322 . S
O500 C482 1.259 . S
O501 Ho481 2.346 . S
O501 C482 1.268 . S
O502 Ho480 2.378 . S
O502 C483 1.215 . S
O503 Ho480 2.524 . S
O503 C483 1.289 . S
O504 Ho480 2.381 . S
O504 C490 1.275 . S
O505 Ho480 2.669 . S
O505 Ho481 2.305 . S
O505 C490 1.256 . S
O506 Ho481 2.322 . S
O506 C491 1.259 . S
O507 Ho480 2.346 . S
O507 C491 1.268 . S
O508 Ho481 2.378 . S
O508 C492 1.215 . S
O509 Ho481 2.524 . S
O509 C492 1.289 . S
O510 Ho481 2.381 . S
O510 C499 1.275 . S
O511 Ho480 2.305 . S
O511 Ho481 2.669 . S
O511 C499 1.256 . S
H512 C485 0.930 . S
H513 C486 0.931 . S
H514 C488 0.934 . S
H515 C489 0.930 . S
H516 C494 0.930 . S
H517 C495 0.931 . S
H518 C497 0.934 . S
H519 C498 0.930 . S
Ho520 C523 2.811 . S
Ho520 O540 2.322 . S
Ho520 O542 2.378 . S
Ho520 O543 2.524 . S
Ho520 O544 2.381 . S
Ho520 O545 2.669 . S
Ho520 O547 2.346 . S
Ho520 O551 2.305 . S
Ho521 C532 2.811 . S
Ho521 O541 2.346 . S
Ho521 O545 2.305 . S
Ho521 O546 2.322 . S
Ho521 O548 2.378 . S
Ho521 O549 2.524 . S
Ho521 O550 2.381 . S
Ho521 O551 2.669 . S
C522 O540 1.259 . S
C522 O541 1.268 . S
C523 Ho520 2.811 . S
C523 C524 1.488 . S
C523 O542 1.215 . S
C523 O543 1.289 . S
C524 C523 1.488 . S
C524 C525 1.348 . S
C524 C529 1.413 . S
C525 C524 1.348 . S
C525 C526 1.442 . S
C525 H552 0.930 . S
C526 C525 1.442 . S
C526 C527 1.381 . S
C526 H553 0.931 . S
C527 C526 1.381 . S
C527 C528 1.321 . S
C528 C527 1.321 . S
C528 C529 1.403 . S
C528 H554 0.934 . S
C529 C524 1.413 . S
C529 C528 1.403 . S
C529 H555 0.930 . S
C530 O544 1.275 . S
C530 O545 1.256 . S
C531 O546 1.259 . S
C531 O547 1.268 . S
C532 Ho521 2.811 . S
C532 C533 1.488 . S
C532 O548 1.215 . S
C532 O549 1.289 . S
C533 C532 1.488 . S
C533 C534 1.348 . S
C533 C538 1.413 . S
C534 C533 1.348 . S
C534 C535 1.442 . S
C534 H556 0.930 . S
C535 C534 1.442 . S
C535 C536 1.381 . S
C535 H557 0.931 . S
C536 C535 1.381 . S
C536 C537 1.321 . S
C537 C536 1.321 . S
C537 C538 1.403 . S
C537 H558 0.934 . S
C538 C533 1.413 . S
C538 C537 1.403 . S
C538 H559 0.930 . S
C539 O550 1.275 . S
C539 O551 1.256 . S
O540 Ho520 2.322 . S
O540 C522 1.259 . S
O541 Ho521 2.346 . S
O541 C522 1.268 . S
O542 Ho520 2.378 . S
O542 C523 1.215 . S
O543 Ho520 2.524 . S
O543 C523 1.289 . S
O544 Ho520 2.381 . S
O544 C530 1.275 . S
O545 Ho520 2.669 . S
O545 Ho521 2.305 . S
O545 C530 1.256 . S
O546 Ho521 2.322 . S
O546 C531 1.259 . S
O547 Ho520 2.346 . S
O547 C531 1.268 . S
O548 Ho521 2.378 . S
O548 C532 1.215 . S
O549 Ho521 2.524 . S
O549 C532 1.289 . S
O550 Ho521 2.381 . S
O550 C539 1.275 . S
O551 Ho520 2.305 . S
O551 Ho521 2.669 . S
O551 C539 1.256 . S
H552 C525 0.930 . S
H553 C526 0.931 . S
H554 C528 0.934 . S
H555 C529 0.930 . S
H556 C534 0.930 . S
H557 C535 0.931 . S
H558 C537 0.934 . S
H559 C538 0.930 . S
Ho560 C563 2.811 . S
Ho560 O580 2.322 . S
Ho560 O582 2.378 . S
Ho560 O583 2.524 . S
Ho560 O584 2.381 . S
Ho560 O585 2.669 . S
Ho560 O587 2.346 . S
Ho560 O591 2.305 . S
Ho561 C572 2.811 . S
Ho561 O581 2.346 . S
Ho561 O585 2.305 . S
Ho561 O586 2.322 . S
Ho561 O588 2.378 . S
Ho561 O589 2.524 . S
Ho561 O590 2.381 . S
Ho561 O591 2.669 . S
C562 O580 1.259 . S
C562 O581 1.268 . S
C563 Ho560 2.811 . S
C563 C564 1.488 . S
C563 O582 1.215 . S
C563 O583 1.289 . S
C564 C563 1.488 . S
C564 C565 1.348 . S
C564 C569 1.413 . S
C565 C564 1.348 . S
C565 C566 1.442 . S
C565 H592 0.930 . S
C566 C565 1.442 . S
C566 C567 1.381 . S
C566 H593 0.931 . S
C567 C566 1.381 . S
C567 C568 1.321 . S
C568 C567 1.321 . S
C568 C569 1.403 . S
C568 H594 0.934 . S
C569 C564 1.413 . S
C569 C568 1.403 . S
C569 H595 0.930 . S
C570 O584 1.275 . S
C570 O585 1.256 . S
C571 O586 1.259 . S
C571 O587 1.268 . S
C572 Ho561 2.811 . S
C572 C573 1.488 . S
C572 O588 1.215 . S
C572 O589 1.289 . S
C573 C572 1.488 . S
C573 C574 1.348 . S
C573 C578 1.413 . S
C574 C573 1.348 . S
C574 C575 1.442 . S
C574 H596 0.930 . S
C575 C574 1.442 . S
C575 C576 1.381 . S
C575 H597 0.931 . S
C576 C575 1.381 . S
C576 C577 1.321 . S
C577 C576 1.321 . S
C577 C578 1.403 . S
C577 H598 0.934 . S
C578 C573 1.413 . S
C578 C577 1.403 . S
C578 H599 0.930 . S
C579 O590 1.275 . S
C579 O591 1.256 . S
O580 Ho560 2.322 . S
O580 C562 1.259 . S
O581 Ho561 2.346 . S
O581 C562 1.268 . S
O582 Ho560 2.378 . S
O582 C563 1.215 . S
O583 Ho560 2.524 . S
O583 C563 1.289 . S
O584 Ho560 2.381 . S
O584 C570 1.275 . S
O585 Ho560 2.669 . S
O585 Ho561 2.305 . S
O585 C570 1.256 . S
O586 Ho561 2.322 . S
O586 C571 1.259 . S
O587 Ho560 2.346 . S
O587 C571 1.268 . S
O588 Ho561 2.378 . S
O588 C572 1.215 . S
O589 Ho561 2.524 . S
O589 C572 1.289 . S
O590 Ho561 2.381 . S
O590 C579 1.275 . S
O591 Ho560 2.305 . S
O591 Ho561 2.669 . S
O591 C579 1.256 . S
H592 C565 0.930 . S
H593 C566 0.931 . S
H594 C568 0.934 . S
H595 C569 0.930 . S
H596 C574 0.930 . S
H597 C575 0.931 . S
H598 C577 0.934 . S
H599 C578 0.930 . S
Ho600 C603 2.811 . S
Ho600 O620 2.322 . S
Ho600 O622 2.378 . S
Ho600 O623 2.524 . S
Ho600 O624 2.381 . S
Ho600 O625 2.669 . S
Ho600 O627 2.346 . S
Ho600 O631 2.305 . S
Ho601 C612 2.811 . S
Ho601 O621 2.346 . S
Ho601 O625 2.305 . S
Ho601 O626 2.322 . S
Ho601 O628 2.378 . S
Ho601 O629 2.524 . S
Ho601 O630 2.381 . S
Ho601 O631 2.669 . S
C602 O620 1.259 . S
C602 O621 1.268 . S
C603 Ho600 2.811 . S
C603 C604 1.488 . S
C603 O622 1.215 . S
C603 O623 1.289 . S
C604 C603 1.488 . S
C604 C605 1.348 . S
C604 C609 1.413 . S
C605 C604 1.348 . S
C605 C606 1.442 1_655 S
C605 H632 0.930 1_655 S
C606 C605 1.442 1_455 S
C606 C607 1.381 1_455 S
C606 H633 0.931 . S
C607 C606 1.381 1_655 S
C607 C608 1.321 . S
C608 C607 1.321 . S
C608 C609 1.403 . S
C608 H634 0.934 . S
C609 C604 1.413 . S
C609 C608 1.403 . S
C609 H635 0.930 . S
C610 O624 1.275 . S
C610 O625 1.256 . S
C611 O626 1.259 . S
C611 O627 1.268 . S
C612 Ho601 2.811 . S
C612 C613 1.488 . S
C612 O628 1.215 . S
C612 O629 1.289 . S
C613 C612 1.488 . S
C613 C614 1.348 . S
C613 C618 1.413 . S
C614 C613 1.348 . S
C614 C615 1.442 . S
C614 H636 0.930 . S
C615 C614 1.442 . S
C615 C616 1.381 . S
C615 H637 0.931 . S
C616 C615 1.381 . S
C616 C617 1.321 . S
C617 C616 1.321 . S
C617 C618 1.403 . S
C617 H638 0.934 . S
C618 C613 1.413 . S
C618 C617 1.403 . S
C618 H639 0.930 . S
C619 O630 1.275 . S
C619 O631 1.256 . S
O620 Ho600 2.322 . S
O620 C602 1.259 . S
O621 Ho601 2.346 . S
O621 C602 1.268 . S
O622 Ho600 2.378 . S
O622 C603 1.215 . S
O623 Ho600 2.524 . S
O623 C603 1.289 . S
O624 Ho600 2.381 . S
O624 C610 1.275 . S
O625 Ho600 2.669 . S
O625 Ho601 2.305 . S
O625 C610 1.256 . S
O626 Ho601 2.322 . S
O626 C611 1.259 . S
O627 Ho600 2.346 . S
O627 C611 1.268 . S
O628 Ho601 2.378 . S
O628 C612 1.215 . S
O629 Ho601 2.524 . S
O629 C612 1.289 . S
O630 Ho601 2.381 . S
O630 C619 1.275 . S
O631 Ho600 2.305 . S
O631 Ho601 2.669 . S
O631 C619 1.256 . S
H632 C605 0.930 1_455 S
H633 C606 0.931 . S
H634 C608 0.934 . S
H635 C609 0.930 . S
H636 C614 0.930 . S
H637 C615 0.931 . S
H638 C617 0.934 . S
H639 C618 0.930 . S
Ho640 C643 2.811 . S
Ho640 O660 2.322 . S
Ho640 O662 2.378 . S
Ho640 O663 2.524 . S
Ho640 O664 2.381 . S
Ho640 O665 2.669 . S
Ho640 O667 2.346 . S
Ho640 O671 2.305 . S
Ho641 C652 2.811 . S
Ho641 O661 2.346 . S
Ho641 O665 2.305 . S
Ho641 O666 2.322 . S
Ho641 O668 2.378 . S
Ho641 O669 2.524 . S
Ho641 O670 2.381 . S
Ho641 O671 2.669 . S
C642 O660 1.259 . S
C642 O661 1.268 . S
C643 Ho640 2.811 . S
C643 C644 1.488 . S
C643 O662 1.215 . S
C643 O663 1.289 . S
C644 C643 1.488 . S
C644 C645 1.348 . S
C644 C649 1.413 . S
C645 C644 1.348 . S
C645 C646 1.442 . S
C645 H672 0.930 . S
C646 C645 1.442 . S
C646 C647 1.381 . S
C646 H673 0.931 . S
C647 C646 1.381 . S
C647 C648 1.321 . S
C648 C647 1.321 . S
C648 C649 1.403 . S
C648 H674 0.934 . S
C649 C644 1.413 . S
C649 C648 1.403 . S
C649 H675 0.930 . S
C650 O664 1.275 . S
C650 O665 1.256 . S
C651 O666 1.259 . S
C651 O667 1.268 . S
C652 Ho641 2.811 . S
C652 C653 1.488 . S
C652 O668 1.215 . S
C652 O669 1.289 . S
C653 C652 1.488 . S
C653 C654 1.348 . S
C653 C658 1.413 . S
C654 C653 1.348 . S
C654 C655 1.442 . S
C654 H676 0.930 . S
C655 C654 1.442 . S
C655 C656 1.381 . S
C655 H677 0.931 . S
C656 C655 1.381 . S
C656 C657 1.321 . S
C657 C656 1.321 . S
C657 C658 1.403 . S
C657 H678 0.934 . S
C658 C653 1.413 . S
C658 C657 1.403 . S
C658 H679 0.930 . S
C659 O670 1.275 . S
C659 O671 1.256 . S
O660 Ho640 2.322 . S
O660 C642 1.259 . S
O661 Ho641 2.346 . S
O661 C642 1.268 . S
O662 Ho640 2.378 . S
O662 C643 1.215 . S
O663 Ho640 2.524 . S
O663 C643 1.289 . S
O664 Ho640 2.381 . S
O664 C650 1.275 . S
O665 Ho640 2.669 . S
O665 Ho641 2.305 . S
O665 C650 1.256 . S
O666 Ho641 2.322 . S
O666 C651 1.259 . S
O667 Ho640 2.346 . S
O667 C651 1.268 . S
O668 Ho641 2.378 . S
O668 C652 1.215 . S
O669 Ho641 2.524 . S
O669 C652 1.289 . S
O670 Ho641 2.381 . S
O670 C659 1.275 . S
O671 Ho640 2.305 . S
O671 Ho641 2.669 . S
O671 C659 1.256 . S
H672 C645 0.930 . S
H673 C646 0.931 . S
H674 C648 0.934 . S
H675 C649 0.930 . S
H676 C654 0.930 . S
H677 C655 0.931 . S
H678 C657 0.934 . S
H679 C658 0.930 . S
Ho680 C683 2.811 . S
Ho680 O700 2.322 . S
Ho680 O702 2.378 . S
Ho680 O703 2.524 . S
Ho680 O704 2.381 . S
Ho680 O705 2.669 . S
Ho680 O707 2.346 . S
Ho680 O711 2.305 . S
Ho681 C692 2.811 . S
Ho681 O701 2.346 . S
Ho681 O705 2.305 . S
Ho681 O706 2.322 . S
Ho681 O708 2.378 . S
Ho681 O709 2.524 . S
Ho681 O710 2.381 . S
Ho681 O711 2.669 . S
C682 O700 1.259 . S
C682 O701 1.268 . S
C683 Ho680 2.811 . S
C683 C684 1.488 . S
C683 O702 1.215 . S
C683 O703 1.289 . S
C684 C683 1.488 . S
C684 C685 1.348 . S
C684 C689 1.413 . S
C685 C684 1.348 . S
C685 C686 1.442 1_545 S
C685 H712 0.930 1_545 S
C686 C685 1.442 1_565 S
C686 C687 1.381 1_565 S
C686 H713 0.931 . S
C687 C686 1.381 1_545 S
C687 C688 1.321 . S
C688 C687 1.321 . S
C688 C689 1.403 . S
C688 H714 0.934 . S
C689 C684 1.413 . S
C689 C688 1.403 . S
C689 H715 0.930 . S
C690 O704 1.275 . S
C690 O705 1.256 . S
C691 O706 1.259 . S
C691 O707 1.268 . S
C692 Ho681 2.811 . S
C692 C693 1.488 . S
C692 O708 1.215 . S
C692 O709 1.289 . S
C693 C692 1.488 . S
C693 C694 1.348 . S
C693 C698 1.413 . S
C694 C693 1.348 . S
C694 C695 1.442 . S
C694 H716 0.930 . S
C695 C694 1.442 . S
C695 C696 1.381 . S
C695 H717 0.931 . S
C696 C695 1.381 . S
C696 C697 1.321 . S
C697 C696 1.321 . S
C697 C698 1.403 . S
C697 H718 0.934 . S
C698 C693 1.413 . S
C698 C697 1.403 . S
C698 H719 0.930 . S
C699 O710 1.275 . S
C699 O711 1.256 . S
O700 Ho680 2.322 . S
O700 C682 1.259 . S
O701 Ho681 2.346 . S
O701 C682 1.268 . S
O702 Ho680 2.378 . S
O702 C683 1.215 . S
O703 Ho680 2.524 . S
O703 C683 1.289 . S
O704 Ho680 2.381 . S
O704 C690 1.275 . S
O705 Ho680 2.669 . S
O705 Ho681 2.305 . S
O705 C690 1.256 . S
O706 Ho681 2.322 . S
O706 C691 1.259 . S
O707 Ho680 2.346 . S
O707 C691 1.268 . S
O708 Ho681 2.378 . S
O708 C692 1.215 . S
O709 Ho681 2.524 . S
O709 C692 1.289 . S
O710 Ho681 2.381 . S
O710 C699 1.275 . S
O711 Ho680 2.305 . S
O711 Ho681 2.669 . S
O711 C699 1.256 . S
H712 C685 0.930 1_565 S
H713 C686 0.931 . S
H714 C688 0.934 . S
H715 C689 0.930 . S
H716 C694 0.930 . S
H717 C695 0.931 . S
H718 C697 0.934 . S
H719 C698 0.930 . S
Ho720 C723 2.811 . S
Ho720 O740 2.322 . S
Ho720 O742 2.378 . S
Ho720 O743 2.524 . S
Ho720 O744 2.381 . S
Ho720 O745 2.669 . S
Ho720 O747 2.346 . S
Ho720 O751 2.305 . S
Ho721 C732 2.811 . S
Ho721 O741 2.346 . S
Ho721 O745 2.305 . S
Ho721 O746 2.322 . S
Ho721 O748 2.378 . S
Ho721 O749 2.524 . S
Ho721 O750 2.381 . S
Ho721 O751 2.669 . S
C722 O740 1.259 . S
C722 O741 1.268 . S
C723 Ho720 2.811 . S
C723 C724 1.488 . S
C723 O742 1.215 . S
C723 O743 1.289 . S
C724 C723 1.488 . S
C724 C725 1.348 . S
C724 C729 1.413 . S
C725 C724 1.348 . S
C725 C726 1.442 . S
C725 H752 0.930 . S
C726 C725 1.442 . S
C726 C727 1.381 . S
C726 H753 0.931 . S
C727 C726 1.381 . S
C727 C728 1.321 . S
C728 C727 1.321 . S
C728 C729 1.403 . S
C728 H754 0.934 . S
C729 C724 1.413 . S
C729 C728 1.403 . S
C729 H755 0.930 . S
C730 O744 1.275 . S
C730 O745 1.256 . S
C731 O746 1.259 . S
C731 O747 1.268 . S
C732 Ho721 2.811 . S
C732 C733 1.488 . S
C732 O748 1.215 . S
C732 O749 1.289 . S
C733 C732 1.488 . S
C733 C734 1.348 . S
C733 C738 1.413 . S
C734 C733 1.348 . S
C734 C735 1.442 1_545 S
C734 H756 0.930 1_545 S
C735 C734 1.442 1_565 S
C735 C736 1.381 1_565 S
C735 H757 0.931 . S
C736 C735 1.381 1_545 S
C736 C737 1.321 . S
C737 C736 1.321 . S
C737 C738 1.403 . S
C737 H758 0.934 . S
C738 C733 1.413 . S
C738 C737 1.403 . S
C738 H759 0.930 . S
C739 O750 1.275 . S
C739 O751 1.256 . S
O740 Ho720 2.322 . S
O740 C722 1.259 . S
O741 Ho721 2.346 . S
O741 C722 1.268 . S
O742 Ho720 2.378 . S
O742 C723 1.215 . S
O743 Ho720 2.524 . S
O743 C723 1.289 . S
O744 Ho720 2.381 . S
O744 C730 1.275 . S
O745 Ho720 2.669 . S
O745 Ho721 2.305 . S
O745 C730 1.256 . S
O746 Ho721 2.322 . S
O746 C731 1.259 . S
O747 Ho720 2.346 . S
O747 C731 1.268 . S
O748 Ho721 2.378 . S
O748 C732 1.215 . S
O749 Ho721 2.524 . S
O749 C732 1.289 . S
O750 Ho721 2.381 . S
O750 C739 1.275 . S
O751 Ho720 2.305 . S
O751 Ho721 2.669 . S
O751 C739 1.256 . S
H752 C725 0.930 . S
H753 C726 0.931 . S
H754 C728 0.934 . S
H755 C729 0.930 . S
H756 C734 0.930 1_565 S
H757 C735 0.931 . S
H758 C737 0.934 . S
H759 C738 0.930 . S
Ho760 C763 2.811 . S
Ho760 O780 2.322 . S
Ho760 O782 2.378 . S
Ho760 O783 2.524 . S
Ho760 O784 2.381 . S
Ho760 O785 2.669 . S
Ho760 O787 2.346 . S
Ho760 O791 2.305 . S
Ho761 C772 2.811 . S
Ho761 O781 2.346 . S
Ho761 O785 2.305 . S
Ho761 O786 2.322 . S
Ho761 O788 2.378 . S
Ho761 O789 2.524 . S
Ho761 O790 2.381 . S
Ho761 O791 2.669 . S
C762 O780 1.259 . S
C762 O781 1.268 . S
C763 Ho760 2.811 . S
C763 C764 1.488 . S
C763 O782 1.215 . S
C763 O783 1.289 . S
C764 C763 1.488 . S
C764 C765 1.348 . S
C764 C769 1.413 . S
C765 C764 1.348 . S
C765 C766 1.442 . S
C765 H792 0.930 . S
C766 C765 1.442 . S
C766 C767 1.381 . S
C766 H793 0.931 . S
C767 C766 1.381 . S
C767 C768 1.321 . S
C768 C767 1.321 . S
C768 C769 1.403 . S
C768 H794 0.934 . S
C769 C764 1.413 . S
C769 C768 1.403 . S
C769 H795 0.930 . S
C770 O784 1.275 . S
C770 O785 1.256 . S
C771 O786 1.259 . S
C771 O787 1.268 . S
C772 Ho761 2.811 . S
C772 C773 1.488 . S
C772 O788 1.215 . S
C772 O789 1.289 . S
C773 C772 1.488 . S
C773 C774 1.348 . S
C773 C778 1.413 . S
C774 C773 1.348 . S
C774 C775 1.442 1_655 S
C774 H796 0.930 1_655 S
C775 C774 1.442 1_455 S
C775 C776 1.381 1_455 S
C775 H797 0.931 . S
C776 C775 1.381 1_655 S
C776 C777 1.321 . S
C777 C776 1.321 . S
C777 C778 1.403 . S
C777 H798 0.934 . S
C778 C773 1.413 . S
C778 C777 1.403 . S
C778 H799 0.930 . S
C779 O790 1.275 . S
C779 O791 1.256 . S
O780 Ho760 2.322 . S
O780 C762 1.259 . S
O781 Ho761 2.346 . S
O781 C762 1.268 . S
O782 Ho760 2.378 . S
O782 C763 1.215 . S
O783 Ho760 2.524 . S
O783 C763 1.289 . S
O784 Ho760 2.381 . S
O784 C770 1.275 . S
O785 Ho760 2.669 . S
O785 Ho761 2.305 . S
O785 C770 1.256 . S
O786 Ho761 2.322 . S
O786 C771 1.259 . S
O787 Ho760 2.346 . S
O787 C771 1.268 . S
O788 Ho761 2.378 . S
O788 C772 1.215 . S
O789 Ho761 2.524 . S
O789 C772 1.289 . S
O790 Ho761 2.381 . S
O790 C779 1.275 . S
O791 Ho760 2.305 . S
O791 Ho761 2.669 . S
O791 C779 1.256 . S
H792 C765 0.930 . S
H793 C766 0.931 . S
H794 C768 0.934 . S
H795 C769 0.930 . S
H796 C774 0.930 1_455 S
H797 C775 0.931 . S
H798 C777 0.934 . S
H799 C778 0.930 . S
Ho800 C803 2.811 . S
Ho800 O820 2.322 . S
Ho800 O822 2.378 . S
Ho800 O823 2.524 . S
Ho800 O824 2.381 . S
Ho800 O825 2.669 . S
Ho800 O827 2.346 . S
Ho800 O831 2.305 . S
Ho801 C812 2.811 . S
Ho801 O821 2.346 . S
Ho801 O825 2.305 . S
Ho801 O826 2.322 . S
Ho801 O828 2.378 . S
Ho801 O829 2.524 . S
Ho801 O830 2.381 . S
Ho801 O831 2.669 . S
C802 O820 1.259 . S
C802 O821 1.268 . S
C803 Ho800 2.811 . S
C803 C804 1.488 . S
C803 O822 1.215 . S
C803 O823 1.289 . S
C804 C803 1.488 . S
C804 C805 1.348 . S
C804 C809 1.413 . S
C805 C804 1.348 . S
C805 C806 1.442 . S
C805 H832 0.930 . S
C806 C805 1.442 . S
C806 C807 1.381 . S
C806 H833 0.931 . S
C807 C806 1.381 . S
C807 C808 1.321 . S
C808 C807 1.321 . S
C808 C809 1.403 . S
C808 H834 0.934 . S
C809 C804 1.413 . S
C809 C808 1.403 . S
C809 H835 0.930 . S
C810 O824 1.275 . S
C810 O825 1.256 . S
C811 O826 1.259 . S
C811 O827 1.268 . S
C812 Ho801 2.811 . S
C812 C813 1.488 . S
C812 O828 1.215 . S
C812 O829 1.289 . S
C813 C812 1.488 . S
C813 C814 1.348 . S
C813 C818 1.413 . S
C814 C813 1.348 . S
C814 C815 1.442 . S
C814 H836 0.930 . S
C815 C814 1.442 . S
C815 C816 1.381 . S
C815 H837 0.931 . S
C816 C815 1.381 . S
C816 C817 1.321 . S
C817 C816 1.321 . S
C817 C818 1.403 . S
C817 H838 0.934 . S
C818 C813 1.413 . S
C818 C817 1.403 . S
C818 H839 0.930 . S
C819 O830 1.275 . S
C819 O831 1.256 . S
O820 Ho800 2.322 . S
O820 C802 1.259 . S
O821 Ho801 2.346 . S
O821 C802 1.268 . S
O822 Ho800 2.378 . S
O822 C803 1.215 . S
O823 Ho800 2.524 . S
O823 C803 1.289 . S
O824 Ho800 2.381 . S
O824 C810 1.275 . S
O825 Ho800 2.669 . S
O825 Ho801 2.305 . S
O825 C810 1.256 . S
O826 Ho801 2.322 . S
O826 C811 1.259 . S
O827 Ho800 2.346 . S
O827 C811 1.268 . S
O828 Ho801 2.378 . S
O828 C812 1.215 . S
O829 Ho801 2.524 . S
O829 C812 1.289 . S
O830 Ho801 2.381 . S
O830 C819 1.275 . S
O831 Ho800 2.305 . S
O831 Ho801 2.669 . S
O831 C819 1.256 . S
H832 C805 0.930 . S
H833 C806 0.931 . S
H834 C808 0.934 . S
H835 C809 0.930 . S
H836 C814 0.930 . S
H837 C815 0.931 . S
H838 C817 0.934 . S
H839 C818 0.930 . S
Ho840 C843 2.811 . S
Ho840 O860 2.322 . S
Ho840 O862 2.378 . S
Ho840 O863 2.524 . S
Ho840 O864 2.381 . S
Ho840 O865 2.669 1_554 S
Ho840 O867 2.346 . S
Ho840 O871 2.305 . S
Ho841 C852 2.811 . S
Ho841 O861 2.346 . S
Ho841 O865 2.305 . S
Ho841 O866 2.322 . S
Ho841 O868 2.378 . S
Ho841 O869 2.524 . S
Ho841 O870 2.381 . S
Ho841 O871 2.669 1_556 S
C842 O860 1.259 . S
C842 O861 1.268 1_554 S
C843 Ho840 2.811 . S
C843 C844 1.488 . S
C843 O862 1.215 . S
C843 O863 1.289 . S
C844 C843 1.488 . S
C844 C845 1.348 . S
C844 C849 1.413 . S
C845 C844 1.348 . S
C845 C846 1.442 . S
C845 H872 0.930 . S
C846 C845 1.442 . S
C846 C847 1.381 . S
C846 H873 0.931 . S
C847 C846 1.381 . S
C847 C848 1.321 . S
C848 C847 1.321 . S
C848 C849 1.403 . S
C848 H874 0.934 . S
C849 C844 1.413 . S
C849 C848 1.403 . S
C849 H875 0.930 . S
C850 O864 1.275 . S
C850 O865 1.256 1_554 S
C851 O866 1.259 . S
C851 O867 1.268 1_556 S
C852 Ho841 2.811 . S
C852 C853 1.488 . S
C852 O868 1.215 . S
C852 O869 1.289 . S
C853 C852 1.488 . S
C853 C854 1.348 . S
C853 C858 1.413 . S
C854 C853 1.348 . S
C854 C855 1.442 . S
C854 H876 0.930 . S
C855 C854 1.442 . S
C855 C856 1.381 . S
C855 H877 0.931 . S
C856 C855 1.381 . S
C856 C857 1.321 . S
C857 C856 1.321 . S
C857 C858 1.403 . S
C857 H878 0.934 . S
C858 C853 1.413 . S
C858 C857 1.403 . S
C858 H879 0.930 . S
C859 O870 1.275 . S
C859 O871 1.256 1_556 S
O860 Ho840 2.322 . S
O860 C842 1.259 . S
O861 Ho841 2.346 . S
O861 C842 1.268 1_556 S
O862 Ho840 2.378 . S
O862 C843 1.215 . S
O863 Ho840 2.524 . S
O863 C843 1.289 . S
O864 Ho840 2.381 . S
O864 C850 1.275 . S
O865 Ho840 2.669 1_556 S
O865 Ho841 2.305 . S
O865 C850 1.256 1_556 S
O866 Ho841 2.322 . S
O866 C851 1.259 . S
O867 Ho840 2.346 . S
O867 C851 1.268 1_554 S
O868 Ho841 2.378 . S
O868 C852 1.215 . S
O869 Ho841 2.524 . S
O869 C852 1.289 . S
O870 Ho841 2.381 . S
O870 C859 1.275 . S
O871 Ho840 2.305 . S
O871 Ho841 2.669 1_554 S
O871 C859 1.256 1_554 S
H872 C845 0.930 . S
H873 C846 0.931 . S
H874 C848 0.934 . S
H875 C849 0.930 . S
H876 C854 0.930 . S
H877 C855 0.931 . S
H878 C857 0.934 . S
H879 C858 0.930 . S
Ho880 C883 2.811 . S
Ho880 O900 2.322 . S
Ho880 O902 2.378 . S
Ho880 O903 2.524 . S
Ho880 O904 2.381 . S
Ho880 O905 2.669 1_554 S
Ho880 O907 2.346 . S
Ho880 O911 2.305 . S
Ho881 C892 2.811 . S
Ho881 O901 2.346 . S
Ho881 O905 2.305 . S
Ho881 O906 2.322 . S
Ho881 O908 2.378 . S
Ho881 O909 2.524 . S
Ho881 O910 2.381 . S
Ho881 O911 2.669 1_556 S
C882 O900 1.259 . S
C882 O901 1.268 1_554 S
C883 Ho880 2.811 . S
C883 C884 1.488 . S
C883 O902 1.215 . S
C883 O903 1.289 . S
C884 C883 1.488 . S
C884 C885 1.348 . S
C884 C889 1.413 . S
C885 C884 1.348 . S
C885 C886 1.442 . S
C885 H912 0.930 . S
C886 C885 1.442 . S
C886 C887 1.381 . S
C886 H913 0.931 . S
C887 C886 1.381 . S
C887 C888 1.321 . S
C888 C887 1.321 . S
C888 C889 1.403 . S
C888 H914 0.934 . S
C889 C884 1.413 . S
C889 C888 1.403 . S
C889 H915 0.930 . S
C890 O904 1.275 . S
C890 O905 1.256 1_554 S
C891 O906 1.259 . S
C891 O907 1.268 1_556 S
C892 Ho881 2.811 . S
C892 C893 1.488 . S
C892 O908 1.215 . S
C892 O909 1.289 . S
C893 C892 1.488 . S
C893 C894 1.348 . S
C893 C898 1.413 . S
C894 C893 1.348 . S
C894 C895 1.442 . S
C894 H916 0.930 . S
C895 C894 1.442 . S
C895 C896 1.381 . S
C895 H917 0.931 . S
C896 C895 1.381 . S
C896 C897 1.321 . S
C897 C896 1.321 . S
C897 C898 1.403 . S
C897 H918 0.934 . S
C898 C893 1.413 . S
C898 C897 1.403 . S
C898 H919 0.930 . S
C899 O910 1.275 . S
C899 O911 1.256 1_556 S
O900 Ho880 2.322 . S
O900 C882 1.259 . S
O901 Ho881 2.346 . S
O901 C882 1.268 1_556 S
O902 Ho880 2.378 . S
O902 C883 1.215 . S
O903 Ho880 2.524 . S
O903 C883 1.289 . S
O904 Ho880 2.381 . S
O904 C890 1.275 . S
O905 Ho880 2.669 1_556 S
O905 Ho881 2.305 . S
O905 C890 1.256 1_556 S
O906 Ho881 2.322 . S
O906 C891 1.259 . S
O907 Ho880 2.346 . S
O907 C891 1.268 1_554 S
O908 Ho881 2.378 . S
O908 C892 1.215 . S
O909 Ho881 2.524 . S
O909 C892 1.289 . S
O910 Ho881 2.381 . S
O910 C899 1.275 . S
O911 Ho880 2.305 . S
O911 Ho881 2.669 1_554 S
O911 C899 1.256 1_554 S
H912 C885 0.930 . S
H913 C886 0.931 . S
H914 C888 0.934 . S
H915 C889 0.930 . S
H916 C894 0.930 . S
H917 C895 0.931 . S
H918 C897 0.934 . S
H919 C898 0.930 . S
Ho920 C923 2.811 . S
Ho920 O940 2.322 . S
Ho920 O942 2.378 . S
Ho920 O943 2.524 . S
Ho920 O944 2.381 . S
Ho920 O945 2.669 1_554 S
Ho920 O947 2.346 . S
Ho920 O951 2.305 . S
Ho921 C932 2.811 . S
Ho921 O941 2.346 . S
Ho921 O945 2.305 . S
Ho921 O946 2.322 . S
Ho921 O948 2.378 . S
Ho921 O949 2.524 . S
Ho921 O950 2.381 . S
Ho921 O951 2.669 1_556 S
C922 O940 1.259 . S
C922 O941 1.268 1_554 S
C923 Ho920 2.811 . S
C923 C924 1.488 . S
C923 O942 1.215 . S
C923 O943 1.289 . S
C924 C923 1.488 . S
C924 C925 1.348 . S
C924 C929 1.413 . S
C925 C924 1.348 . S
C925 C926 1.442 . S
C925 H952 0.930 . S
C926 C925 1.442 . S
C926 C927 1.381 . S
C926 H953 0.931 . S
C927 C926 1.381 . S
C927 C928 1.321 . S
C928 C927 1.321 . S
C928 C929 1.403 . S
C928 H954 0.934 . S
C929 C924 1.413 . S
C929 C928 1.403 . S
C929 H955 0.930 . S
C930 O944 1.275 . S
C930 O945 1.256 1_554 S
C931 O946 1.259 . S
C931 O947 1.268 1_556 S
C932 Ho921 2.811 . S
C932 C933 1.488 . S
C932 O948 1.215 . S
C932 O949 1.289 . S
C933 C932 1.488 . S
C933 C934 1.348 . S
C933 C938 1.413 . S
C934 C933 1.348 . S
C934 C935 1.442 . S
C934 H956 0.930 . S
C935 C934 1.442 . S
C935 C936 1.381 . S
C935 H957 0.931 . S
C936 C935 1.381 . S
C936 C937 1.321 . S
C937 C936 1.321 . S
C937 C938 1.403 . S
C937 H958 0.934 . S
C938 C933 1.413 . S
C938 C937 1.403 . S
C938 H959 0.930 . S
C939 O950 1.275 . S
C939 O951 1.256 1_556 S
O940 Ho920 2.322 . S
O940 C922 1.259 . S
O941 Ho921 2.346 . S
O941 C922 1.268 1_556 S
O942 Ho920 2.378 . S
O942 C923 1.215 . S
O943 Ho920 2.524 . S
O943 C923 1.289 . S
O944 Ho920 2.381 . S
O944 C930 1.275 . S
O945 Ho920 2.669 1_556 S
O945 Ho921 2.305 . S
O945 C930 1.256 1_556 S
O946 Ho921 2.322 . S
O946 C931 1.259 . S
O947 Ho920 2.346 . S
O947 C931 1.268 1_554 S
O948 Ho921 2.378 . S
O948 C932 1.215 . S
O949 Ho921 2.524 . S
O949 C932 1.289 . S
O950 Ho921 2.381 . S
O950 C939 1.275 . S
O951 Ho920 2.305 . S
O951 Ho921 2.669 1_554 S
O951 C939 1.256 1_554 S
H952 C925 0.930 . S
H953 C926 0.931 . S
H954 C928 0.934 . S
H955 C929 0.930 . S
H956 C934 0.930 . S
H957 C935 0.931 . S
H958 C937 0.934 . S
H959 C938 0.930 . S
Ho960 C963 2.811 . S
Ho960 O980 2.322 . S
Ho960 O982 2.378 . S
Ho960 O983 2.524 . S
Ho960 O984 2.381 . S
Ho960 O985 2.669 . S
Ho960 O987 2.346 . S
Ho960 O991 2.305 . S
Ho961 C972 2.811 . S
Ho961 O981 2.346 . S
Ho961 O985 2.305 . S
Ho961 O986 2.322 . S
Ho961 O988 2.378 . S
Ho961 O989 2.524 . S
Ho961 O990 2.381 . S
Ho961 O991 2.669 . S
C962 O980 1.259 . S
C962 O981 1.268 . S
C963 Ho960 2.811 . S
C963 C964 1.488 . S
C963 O982 1.215 . S
C963 O983 1.289 . S
C964 C963 1.488 . S
C964 C965 1.348 . S
C964 C969 1.413 . S
C965 C964 1.348 . S
C965 C966 1.442 1_565 S
C965 H992 0.930 1_565 S
C966 C965 1.442 1_545 S
C966 C967 1.381 1_545 S
C966 H993 0.931 . S
C967 C966 1.381 1_565 S
C967 C968 1.321 . S
C968 C967 1.321 . S
C968 C969 1.403 . S
C968 H994 0.934 . S
C969 C964 1.413 . S
C969 C968 1.403 . S
C969 H995 0.930 . S
C970 O984 1.275 . S
C970 O985 1.256 . S
C971 O986 1.259 . S
C971 O987 1.268 . S
C972 Ho961 2.811 . S
C972 C973 1.488 . S
C972 O988 1.215 . S
C972 O989 1.289 . S
C973 C972 1.488 . S
C973 C974 1.348 . S
C973 C978 1.413 . S
C974 C973 1.348 . S
C974 C975 1.442 . S
C974 H996 0.930 . S
C975 C974 1.442 . S
C975 C976 1.381 . S
C975 H997 0.931 . S
C976 C975 1.381 . S
C976 C977 1.321 . S
C977 C976 1.321 . S
C977 C978 1.403 . S
C977 H998 0.934 . S
C978 C973 1.413 . S
C978 C977 1.403 . S
C978 H999 0.930 . S
C979 O990 1.275 . S
C979 O991 1.256 . S
O980 Ho960 2.322 . S
O980 C962 1.259 . S
O981 Ho961 2.346 . S
O981 C962 1.268 . S
O982 Ho960 2.378 . S
O982 C963 1.215 . S
O983 Ho960 2.524 . S
O983 C963 1.289 . S
O984 Ho960 2.381 . S
O984 C970 1.275 . S
O985 Ho960 2.669 . S
O985 Ho961 2.305 . S
O985 C970 1.256 . S
O986 Ho961 2.322 . S
O986 C971 1.259 . S
O987 Ho960 2.346 . S
O987 C971 1.268 . S
O988 Ho961 2.378 . S
O988 C972 1.215 . S
O989 Ho961 2.524 . S
O989 C972 1.289 . S
O990 Ho961 2.381 . S
O990 C979 1.275 . S
O991 Ho960 2.305 . S
O991 Ho961 2.669 . S
O991 C979 1.256 . S
H992 C965 0.930 1_545 S
H993 C966 0.931 . S
H994 C968 0.934 . S
H995 C969 0.930 . S
H996 C974 0.930 . S
H997 C975 0.931 . S
H998 C977 0.934 . S
H999 C978 0.930 . S
Ho1000 C1003 2.811 . S
Ho1000 O1020 2.322 . S
Ho1000 O1022 2.378 . S
Ho1000 O1023 2.524 . S
Ho1000 O1024 2.381 . S
Ho1000 O1025 2.669 . S
Ho1000 O1027 2.346 . S
Ho1000 O1031 2.305 . S
Ho1001 C1012 2.811 . S
Ho1001 O1021 2.346 . S
Ho1001 O1025 2.305 . S
Ho1001 O1026 2.322 . S
Ho1001 O1028 2.378 . S
Ho1001 O1029 2.524 . S
Ho1001 O1030 2.381 . S
Ho1001 O1031 2.669 . S
C1002 O1020 1.259 . S
C1002 O1021 1.268 . S
C1003 Ho1000 2.811 . S
C1003 C1004 1.488 . S
C1003 O1022 1.215 . S
C1003 O1023 1.289 . S
C1004 C1003 1.488 . S
C1004 C1005 1.348 . S
C1004 C1009 1.413 . S
C1005 C1004 1.348 . S
C1005 C1006 1.442 1_455 S
C1005 H1032 0.930 1_455 S
C1006 C1005 1.442 1_655 S
C1006 C1007 1.381 1_655 S
C1006 H1033 0.931 . S
C1007 C1006 1.381 1_455 S
C1007 C1008 1.321 . S
C1008 C1007 1.321 . S
C1008 C1009 1.403 . S
C1008 H1034 0.934 . S
C1009 C1004 1.413 . S
C1009 C1008 1.403 . S
C1009 H1035 0.930 . S
C1010 O1024 1.275 . S
C1010 O1025 1.256 . S
C1011 O1026 1.259 . S
C1011 O1027 1.268 . S
C1012 Ho1001 2.811 . S
C1012 C1013 1.488 . S
C1012 O1028 1.215 . S
C1012 O1029 1.289 . S
C1013 C1012 1.488 . S
C1013 C1014 1.348 . S
C1013 C1018 1.413 . S
C1014 C1013 1.348 . S
C1014 C1015 1.442 . S
C1014 H1036 0.930 . S
C1015 C1014 1.442 . S
C1015 C1016 1.381 . S
C1015 H1037 0.931 . S
C1016 C1015 1.381 . S
C1016 C1017 1.321 . S
C1017 C1016 1.321 . S
C1017 C1018 1.403 . S
C1017 H1038 0.934 . S
C1018 C1013 1.413 . S
C1018 C1017 1.403 . S
C1018 H1039 0.930 . S
C1019 O1030 1.275 . S
C1019 O1031 1.256 . S
O1020 Ho1000 2.322 . S
O1020 C1002 1.259 . S
O1021 Ho1001 2.346 . S
O1021 C1002 1.268 . S
O1022 Ho1000 2.378 . S
O1022 C1003 1.215 . S
O1023 Ho1000 2.524 . S
O1023 C1003 1.289 . S
O1024 Ho1000 2.381 . S
O1024 C1010 1.275 . S
O1025 Ho1000 2.669 . S
O1025 Ho1001 2.305 . S
O1025 C1010 1.256 . S
O1026 Ho1001 2.322 . S
O1026 C1011 1.259 . S
O1027 Ho1000 2.346 . S
O1027 C1011 1.268 . S
O1028 Ho1001 2.378 . S
O1028 C1012 1.215 . S
O1029 Ho1001 2.524 . S
O1029 C1012 1.289 . S
O1030 Ho1001 2.381 . S
O1030 C1019 1.275 . S
O1031 Ho1000 2.305 . S
O1031 Ho1001 2.669 . S
O1031 C1019 1.256 . S
H1032 C1005 0.930 1_655 S
H1033 C1006 0.931 . S
H1034 C1008 0.934 . S
H1035 C1009 0.930 . S
H1036 C1014 0.930 . S
H1037 C1015 0.931 . S
H1038 C1017 0.934 . S
H1039 C1018 0.930 . S
Ho1040 C1043 2.811 . S
Ho1040 O1060 2.322 . S
Ho1040 O1062 2.378 . S
Ho1040 O1063 2.524 . S
Ho1040 O1064 2.381 . S
Ho1040 O1065 2.669 . S
Ho1040 O1067 2.346 . S
Ho1040 O1071 2.305 . S
Ho1041 C1052 2.811 . S
Ho1041 O1061 2.346 . S
Ho1041 O1065 2.305 . S
Ho1041 O1066 2.322 . S
Ho1041 O1068 2.378 . S
Ho1041 O1069 2.524 . S
Ho1041 O1070 2.381 . S
Ho1041 O1071 2.669 . S
C1042 O1060 1.259 . S
C1042 O1061 1.268 . S
C1043 Ho1040 2.811 . S
C1043 C1044 1.488 . S
C1043 O1062 1.215 . S
C1043 O1063 1.289 . S
C1044 C1043 1.488 . S
C1044 C1045 1.348 . S
C1044 C1049 1.413 . S
C1045 C1044 1.348 . S
C1045 C1046 1.442 . S
C1045 H1072 0.930 . S
C1046 C1045 1.442 . S
C1046 C1047 1.381 . S
C1046 H1073 0.931 . S
C1047 C1046 1.381 . S
C1047 C1048 1.321 . S
C1048 C1047 1.321 . S
C1048 C1049 1.403 . S
C1048 H1074 0.934 . S
C1049 C1044 1.413 . S
C1049 C1048 1.403 . S
C1049 H1075 0.930 . S
C1050 O1064 1.275 . S
C1050 O1065 1.256 . S
C1051 O1066 1.259 . S
C1051 O1067 1.268 . S
C1052 Ho1041 2.811 . S
C1052 C1053 1.488 . S
C1052 O1068 1.215 . S
C1052 O1069 1.289 . S
C1053 C1052 1.488 . S
C1053 C1054 1.348 . S
C1053 C1058 1.413 . S
C1054 C1053 1.348 . S
C1054 C1055 1.442 . S
C1054 H1076 0.930 . S
C1055 C1054 1.442 . S
C1055 C1056 1.381 . S
C1055 H1077 0.931 . S
C1056 C1055 1.381 . S
C1056 C1057 1.321 . S
C1057 C1056 1.321 . S
C1057 C1058 1.403 . S
C1057 H1078 0.934 . S
C1058 C1053 1.413 . S
C1058 C1057 1.403 . S
C1058 H1079 0.930 . S
C1059 O1070 1.275 . S
C1059 O1071 1.256 . S
O1060 Ho1040 2.322 . S
O1060 C1042 1.259 . S
O1061 Ho1041 2.346 . S
O1061 C1042 1.268 . S
O1062 Ho1040 2.378 . S
O1062 C1043 1.215 . S
O1063 Ho1040 2.524 . S
O1063 C1043 1.289 . S
O1064 Ho1040 2.381 . S
O1064 C1050 1.275 . S
O1065 Ho1040 2.669 . S
O1065 Ho1041 2.305 . S
O1065 C1050 1.256 . S
O1066 Ho1041 2.322 . S
O1066 C1051 1.259 . S
O1067 Ho1040 2.346 . S
O1067 C1051 1.268 . S
O1068 Ho1041 2.378 . S
O1068 C1052 1.215 . S
O1069 Ho1041 2.524 . S
O1069 C1052 1.289 . S
O1070 Ho1041 2.381 . S
O1070 C1059 1.275 . S
O1071 Ho1040 2.305 . S
O1071 Ho1041 2.669 . S
O1071 C1059 1.256 . S
H1072 C1045 0.930 . S
H1073 C1046 0.931 . S
H1074 C1048 0.934 . S
H1075 C1049 0.930 . S
H1076 C1054 0.930 . S
H1077 C1055 0.931 . S
H1078 C1057 0.934 . S
H1079 C1058 0.930 . S
Ho1080 C1083 2.811 . S
Ho1080 O1100 2.322 . S
Ho1080 O1102 2.378 . S
Ho1080 O1103 2.524 . S
Ho1080 O1104 2.381 . S
Ho1080 O1105 2.669 1_554 S
Ho1080 O1107 2.346 . S
Ho1080 O1111 2.305 . S
Ho1081 C1092 2.811 . S
Ho1081 O1101 2.346 . S
Ho1081 O1105 2.305 . S
Ho1081 O1106 2.322 . S
Ho1081 O1108 2.378 . S
Ho1081 O1109 2.524 . S
Ho1081 O1110 2.381 . S
Ho1081 O1111 2.669 1_556 S
C1082 O1100 1.259 . S
C1082 O1101 1.268 1_554 S
C1083 Ho1080 2.811 . S
C1083 C1084 1.488 . S
C1083 O1102 1.215 . S
C1083 O1103 1.289 . S
C1084 C1083 1.488 . S
C1084 C1085 1.348 . S
C1084 C1089 1.413 . S
C1085 C1084 1.348 . S
C1085 C1086 1.442 . S
C1085 H1112 0.930 . S
C1086 C1085 1.442 . S
C1086 C1087 1.381 . S
C1086 H1113 0.931 . S
C1087 C1086 1.381 . S
C1087 C1088 1.321 . S
C1088 C1087 1.321 . S
C1088 C1089 1.403 . S
C1088 H1114 0.934 . S
C1089 C1084 1.413 . S
C1089 C1088 1.403 . S
C1089 H1115 0.930 . S
C1090 O1104 1.275 . S
C1090 O1105 1.256 1_554 S
C1091 O1106 1.259 . S
C1091 O1107 1.268 1_556 S
C1092 Ho1081 2.811 . S
C1092 C1093 1.488 . S
C1092 O1108 1.215 . S
C1092 O1109 1.289 . S
C1093 C1092 1.488 . S
C1093 C1094 1.348 . S
C1093 C1098 1.413 . S
C1094 C1093 1.348 . S
C1094 C1095 1.442 . S
C1094 H1116 0.930 . S
C1095 C1094 1.442 . S
C1095 C1096 1.381 . S
C1095 H1117 0.931 . S
C1096 C1095 1.381 . S
C1096 C1097 1.321 . S
C1097 C1096 1.321 . S
C1097 C1098 1.403 . S
C1097 H1118 0.934 . S
C1098 C1093 1.413 . S
C1098 C1097 1.403 . S
C1098 H1119 0.930 . S
C1099 O1110 1.275 . S
C1099 O1111 1.256 1_556 S
O1100 Ho1080 2.322 . S
O1100 C1082 1.259 . S
O1101 Ho1081 2.346 . S
O1101 C1082 1.268 1_556 S
O1102 Ho1080 2.378 . S
O1102 C1083 1.215 . S
O1103 Ho1080 2.524 . S
O1103 C1083 1.289 . S
O1104 Ho1080 2.381 . S
O1104 C1090 1.275 . S
O1105 Ho1080 2.669 1_556 S
O1105 Ho1081 2.305 . S
O1105 C1090 1.256 1_556 S
O1106 Ho1081 2.322 . S
O1106 C1091 1.259 . S
O1107 Ho1080 2.346 . S
O1107 C1091 1.268 1_554 S
O1108 Ho1081 2.378 . S
O1108 C1092 1.215 . S
O1109 Ho1081 2.524 . S
O1109 C1092 1.289 . S
O1110 Ho1081 2.381 . S
O1110 C1099 1.275 . S
O1111 Ho1080 2.305 . S
O1111 Ho1081 2.669 1_554 S
O1111 C1099 1.256 1_554 S
H1112 C1085 0.930 . S
H1113 C1086 0.931 . S
H1114 C1088 0.934 . S
H1115 C1089 0.930 . S
H1116 C1094 0.930 . S
H1117 C1095 0.931 . S
H1118 C1097 0.934 . S
H1119 C1098 0.930 . S
Ho1120 C1123 2.811 . S
Ho1120 O1140 2.322 . S
Ho1120 O1142 2.378 . S
Ho1120 O1143 2.524 . S
Ho1120 O1144 2.381 . S
Ho1120 O1145 2.669 1_554 S
Ho1120 O1147 2.346 . S
Ho1120 O1151 2.305 . S
Ho1121 C1132 2.811 . S
Ho1121 O1141 2.346 . S
Ho1121 O1145 2.305 . S
Ho1121 O1146 2.322 . S
Ho1121 O1148 2.378 . S
Ho1121 O1149 2.524 . S
Ho1121 O1150 2.381 . S
Ho1121 O1151 2.669 1_556 S
C1122 O1140 1.259 . S
C1122 O1141 1.268 1_554 S
C1123 Ho1120 2.811 . S
C1123 C1124 1.488 . S
C1123 O1142 1.215 . S
C1123 O1143 1.289 . S
C1124 C1123 1.488 . S
C1124 C1125 1.348 . S
C1124 C1129 1.413 . S
C1125 C1124 1.348 . S
C1125 C1126 1.442 . S
C1125 H1152 0.930 . S
C1126 C1125 1.442 . S
C1126 C1127 1.381 . S
C1126 H1153 0.931 . S
C1127 C1126 1.381 . S
C1127 C1128 1.321 . S
C1128 C1127 1.321 . S
C1128 C1129 1.403 . S
C1128 H1154 0.934 . S
C1129 C1124 1.413 . S
C1129 C1128 1.403 . S
C1129 H1155 0.930 . S
C1130 O1144 1.275 . S
C1130 O1145 1.256 1_554 S
C1131 O1146 1.259 . S
C1131 O1147 1.268 1_556 S
C1132 Ho1121 2.811 . S
C1132 C1133 1.488 . S
C1132 O1148 1.215 . S
C1132 O1149 1.289 . S
C1133 C1132 1.488 . S
C1133 C1134 1.348 . S
C1133 C1138 1.413 . S
C1134 C1133 1.348 . S
C1134 C1135 1.442 . S
C1134 H1156 0.930 . S
C1135 C1134 1.442 . S
C1135 C1136 1.381 . S
C1135 H1157 0.931 . S
C1136 C1135 1.381 . S
C1136 C1137 1.321 . S
C1137 C1136 1.321 . S
C1137 C1138 1.403 . S
C1137 H1158 0.934 . S
C1138 C1133 1.413 . S
C1138 C1137 1.403 . S
C1138 H1159 0.930 . S
C1139 O1150 1.275 . S
C1139 O1151 1.256 1_556 S
O1140 Ho1120 2.322 . S
O1140 C1122 1.259 . S
O1141 Ho1121 2.346 . S
O1141 C1122 1.268 1_556 S
O1142 Ho1120 2.378 . S
O1142 C1123 1.215 . S
O1143 Ho1120 2.524 . S
O1143 C1123 1.289 . S
O1144 Ho1120 2.381 . S
O1144 C1130 1.275 . S
O1145 Ho1120 2.669 1_556 S
O1145 Ho1121 2.305 . S
O1145 C1130 1.256 1_556 S
O1146 Ho1121 2.322 . S
O1146 C1131 1.259 . S
O1147 Ho1120 2.346 . S
O1147 C1131 1.268 1_554 S
O1148 Ho1121 2.378 . S
O1148 C1132 1.215 . S
O1149 Ho1121 2.524 . S
O1149 C1132 1.289 . S
O1150 Ho1121 2.381 . S
O1150 C1139 1.275 . S
O1151 Ho1120 2.305 . S
O1151 Ho1121 2.669 1_554 S
O1151 C1139 1.256 1_554 S
H1152 C1125 0.930 . S
H1153 C1126 0.931 . S
H1154 C1128 0.934 . S
H1155 C1129 0.930 . S
H1156 C1134 0.930 . S
H1157 C1135 0.931 . S
H1158 C1137 0.934 . S
H1159 C1138 0.930 . S
Ho1160 C1163 2.811 . S
Ho1160 O1180 2.322 . S
Ho1160 O1182 2.378 . S
Ho1160 O1183 2.524 . S
Ho1160 O1184 2.381 . S
Ho1160 O1185 2.669 1_554 S
Ho1160 O1187 2.346 . S
Ho1160 O1191 2.305 . S
Ho1161 C1172 2.811 . S
Ho1161 O1181 2.346 . S
Ho1161 O1185 2.305 . S
Ho1161 O1186 2.322 . S
Ho1161 O1188 2.378 . S
Ho1161 O1189 2.524 . S
Ho1161 O1190 2.381 . S
Ho1161 O1191 2.669 1_556 S
C1162 O1180 1.259 . S
C1162 O1181 1.268 1_554 S
C1163 Ho1160 2.811 . S
C1163 C1164 1.488 . S
C1163 O1182 1.215 . S
C1163 O1183 1.289 . S
C1164 C1163 1.488 . S
C1164 C1165 1.348 . S
C1164 C1169 1.413 . S
C1165 C1164 1.348 . S
C1165 C1166 1.442 . S
C1165 H1192 0.930 . S
C1166 C1165 1.442 . S
C1166 C1167 1.381 . S
C1166 H1193 0.931 . S
C1167 C1166 1.381 . S
C1167 C1168 1.321 . S
C1168 C1167 1.321 . S
C1168 C1169 1.403 . S
C1168 H1194 0.934 . S
C1169 C1164 1.413 . S
C1169 C1168 1.403 . S
C1169 H1195 0.930 . S
C1170 O1184 1.275 . S
C1170 O1185 1.256 1_554 S
C1171 O1186 1.259 . S
C1171 O1187 1.268 1_556 S
C1172 Ho1161 2.811 . S
C1172 C1173 1.488 . S
C1172 O1188 1.215 . S
C1172 O1189 1.289 . S
C1173 C1172 1.488 . S
C1173 C1174 1.348 . S
C1173 C1178 1.413 . S
C1174 C1173 1.348 . S
C1174 C1175 1.442 . S
C1174 H1196 0.930 . S
C1175 C1174 1.442 . S
C1175 C1176 1.381 . S
C1175 H1197 0.931 . S
C1176 C1175 1.381 . S
C1176 C1177 1.321 . S
C1177 C1176 1.321 . S
C1177 C1178 1.403 . S
C1177 H1198 0.934 . S
C1178 C1173 1.413 . S
C1178 C1177 1.403 . S
C1178 H1199 0.930 . S
C1179 O1190 1.275 . S
C1179 O1191 1.256 1_556 S
O1180 Ho1160 2.322 . S
O1180 C1162 1.259 . S
O1181 Ho1161 2.346 . S
O1181 C1162 1.268 1_556 S
O1182 Ho1160 2.378 . S
O1182 C1163 1.215 . S
O1183 Ho1160 2.524 . S
O1183 C1163 1.289 . S
O1184 Ho1160 2.381 . S
O1184 C1170 1.275 . S
O1185 Ho1160 2.669 1_556 S
O1185 Ho1161 2.305 . S
O1185 C1170 1.256 1_556 S
O1186 Ho1161 2.322 . S
O1186 C1171 1.259 . S
O1187 Ho1160 2.346 . S
O1187 C1171 1.268 1_554 S
O1188 Ho1161 2.378 . S
O1188 C1172 1.215 . S
O1189 Ho1161 2.524 . S
O1189 C1172 1.289 . S
O1190 Ho1161 2.381 . S
O1190 C1179 1.275 . S
O1191 Ho1160 2.305 . S
O1191 Ho1161 2.669 1_554 S
O1191 C1179 1.256 1_554 S
H1192 C1165 0.930 . S
H1193 C1166 0.931 . S
H1194 C1168 0.934 . S
H1195 C1169 0.930 . S
H1196 C1174 0.930 . S
H1197 C1175 0.931 . S
H1198 C1177 0.934 . S
H1199 C1178 0.930 . S
Ho1200 C1203 2.811 . S
Ho1200 O1220 2.322 . S
Ho1200 O1222 2.378 . S
Ho1200 O1223 2.524 . S
Ho1200 O1224 2.381 . S
Ho1200 O1225 2.669 . S
Ho1200 O1227 2.346 . S
Ho1200 O1231 2.305 . S
Ho1201 C1212 2.811 . S
Ho1201 O1221 2.346 . S
Ho1201 O1225 2.305 . S
Ho1201 O1226 2.322 . S
Ho1201 O1228 2.378 . S
Ho1201 O1229 2.524 . S
Ho1201 O1230 2.381 . S
Ho1201 O1231 2.669 . S
C1202 O1220 1.259 . S
C1202 O1221 1.268 . S
C1203 Ho1200 2.811 . S
C1203 C1204 1.488 . S
C1203 O1222 1.215 . S
C1203 O1223 1.289 . S
C1204 C1203 1.488 . S
C1204 C1205 1.348 . S
C1204 C1209 1.413 . S
C1205 C1204 1.348 . S
C1205 C1206 1.442 . S
C1205 H1232 0.930 . S
C1206 C1205 1.442 . S
C1206 C1207 1.381 . S
C1206 H1233 0.931 . S
C1207 C1206 1.381 . S
C1207 C1208 1.321 . S
C1208 C1207 1.321 . S
C1208 C1209 1.403 . S
C1208 H1234 0.934 . S
C1209 C1204 1.413 . S
C1209 C1208 1.403 . S
C1209 H1235 0.930 . S
C1210 O1224 1.275 . S
C1210 O1225 1.256 . S
C1211 O1226 1.259 . S
C1211 O1227 1.268 . S
C1212 Ho1201 2.811 . S
C1212 C1213 1.488 . S
C1212 O1228 1.215 . S
C1212 O1229 1.289 . S
C1213 C1212 1.488 . S
C1213 C1214 1.348 . S
C1213 C1218 1.413 . S
C1214 C1213 1.348 . S
C1214 C1215 1.442 . S
C1214 H1236 0.930 . S
C1215 C1214 1.442 . S
C1215 C1216 1.381 . S
C1215 H1237 0.931 . S
C1216 C1215 1.381 . S
C1216 C1217 1.321 . S
C1217 C1216 1.321 . S
C1217 C1218 1.403 . S
C1217 H1238 0.934 . S
C1218 C1213 1.413 . S
C1218 C1217 1.403 . S
C1218 H1239 0.930 . S
C1219 O1230 1.275 . S
C1219 O1231 1.256 . S
O1220 Ho1200 2.322 . S
O1220 C1202 1.259 . S
O1221 Ho1201 2.346 . S
O1221 C1202 1.268 . S
O1222 Ho1200 2.378 . S
O1222 C1203 1.215 . S
O1223 Ho1200 2.524 . S
O1223 C1203 1.289 . S
O1224 Ho1200 2.381 . S
O1224 C1210 1.275 . S
O1225 Ho1200 2.669 . S
O1225 Ho1201 2.305 . S
O1225 C1210 1.256 . S
O1226 Ho1201 2.322 . S
O1226 C1211 1.259 . S
O1227 Ho1200 2.346 . S
O1227 C1211 1.268 . S
O1228 Ho1201 2.378 . S
O1228 C1212 1.215 . S
O1229 Ho1201 2.524 . S
O1229 C1212 1.289 . S
O1230 Ho1201 2.381 . S
O1230 C1219 1.275 . S
O1231 Ho1200 2.305 . S
O1231 Ho1201 2.669 . S
O1231 C1219 1.256 . S
H1232 C1205 0.930 . S
H1233 C1206 0.931 . S
H1234 C1208 0.934 . S
H1235 C1209 0.930 . S
H1236 C1214 0.930 . S
H1237 C1215 0.931 . S
H1238 C1217 0.934 . S
H1239 C1218 0.930 . S
Ho1240 C1243 2.811 . S
Ho1240 O1260 2.322 . S
Ho1240 O1262 2.378 . S
Ho1240 O1263 2.524 . S
Ho1240 O1264 2.381 . S
Ho1240 O1265 2.669 . S
Ho1240 O1267 2.346 . S
Ho1240 O1271 2.305 . S
Ho1241 C1252 2.811 . S
Ho1241 O1261 2.346 . S
Ho1241 O1265 2.305 . S
Ho1241 O1266 2.322 . S
Ho1241 O1268 2.378 . S
Ho1241 O1269 2.524 . S
Ho1241 O1270 2.381 . S
Ho1241 O1271 2.669 . S
C1242 O1260 1.259 . S
C1242 O1261 1.268 . S
C1243 Ho1240 2.811 . S
C1243 C1244 1.488 . S
C1243 O1262 1.215 . S
C1243 O1263 1.289 . S
C1244 C1243 1.488 . S
C1244 C1245 1.348 . S
C1244 C1249 1.413 . S
C1245 C1244 1.348 . S
C1245 C1246 1.442 . S
C1245 H1272 0.930 . S
C1246 C1245 1.442 . S
C1246 C1247 1.381 . S
C1246 H1273 0.931 . S
C1247 C1246 1.381 . S
C1247 C1248 1.321 . S
C1248 C1247 1.321 . S
C1248 C1249 1.403 . S
C1248 H1274 0.934 . S
C1249 C1244 1.413 . S
C1249 C1248 1.403 . S
C1249 H1275 0.930 . S
C1250 O1264 1.275 . S
C1250 O1265 1.256 . S
C1251 O1266 1.259 . S
C1251 O1267 1.268 . S
C1252 Ho1241 2.811 . S
C1252 C1253 1.488 . S
C1252 O1268 1.215 . S
C1252 O1269 1.289 . S
C1253 C1252 1.488 . S
C1253 C1254 1.348 . S
C1253 C1258 1.413 . S
C1254 C1253 1.348 . S
C1254 C1255 1.442 . S
C1254 H1276 0.930 . S
C1255 C1254 1.442 . S
C1255 C1256 1.381 . S
C1255 H1277 0.931 . S
C1256 C1255 1.381 . S
C1256 C1257 1.321 . S
C1257 C1256 1.321 . S
C1257 C1258 1.403 . S
C1257 H1278 0.934 . S
C1258 C1253 1.413 . S
C1258 C1257 1.403 . S
C1258 H1279 0.930 . S
C1259 O1270 1.275 . S
C1259 O1271 1.256 . S
O1260 Ho1240 2.322 . S
O1260 C1242 1.259 . S
O1261 Ho1241 2.346 . S
O1261 C1242 1.268 . S
O1262 Ho1240 2.378 . S
O1262 C1243 1.215 . S
O1263 Ho1240 2.524 . S
O1263 C1243 1.289 . S
O1264 Ho1240 2.381 . S
O1264 C1250 1.275 . S
O1265 Ho1240 2.669 . S
O1265 Ho1241 2.305 . S
O1265 C1250 1.256 . S
O1266 Ho1241 2.322 . S
O1266 C1251 1.259 . S
O1267 Ho1240 2.346 . S
O1267 C1251 1.268 . S
O1268 Ho1241 2.378 . S
O1268 C1252 1.215 . S
O1269 Ho1241 2.524 . S
O1269 C1252 1.289 . S
O1270 Ho1241 2.381 . S
O1270 C1259 1.275 . S
O1271 Ho1240 2.305 . S
O1271 Ho1241 2.669 . S
O1271 C1259 1.256 . S
H1272 C1245 0.930 . S
H1273 C1246 0.931 . S
H1274 C1248 0.934 . S
H1275 C1249 0.930 . S
H1276 C1254 0.930 . S
H1277 C1255 0.931 . S
H1278 C1257 0.934 . S
H1279 C1258 0.930 . S
Ho1280 C1283 2.811 . S
Ho1280 O1300 2.322 . S
Ho1280 O1302 2.378 . S
Ho1280 O1303 2.524 . S
Ho1280 O1304 2.381 . S
Ho1280 O1305 2.669 . S
Ho1280 O1307 2.346 . S
Ho1280 O1311 2.305 . S
Ho1281 C1292 2.811 . S
Ho1281 O1301 2.346 . S
Ho1281 O1305 2.305 . S
Ho1281 O1306 2.322 . S
Ho1281 O1308 2.378 . S
Ho1281 O1309 2.524 . S
Ho1281 O1310 2.381 . S
Ho1281 O1311 2.669 . S
C1282 O1300 1.259 . S
C1282 O1301 1.268 . S
C1283 Ho1280 2.811 . S
C1283 C1284 1.488 . S
C1283 O1302 1.215 . S
C1283 O1303 1.289 . S
C1284 C1283 1.488 . S
C1284 C1285 1.348 . S
C1284 C1289 1.413 . S
C1285 C1284 1.348 . S
C1285 C1286 1.442 . S
C1285 H1312 0.930 . S
C1286 C1285 1.442 . S
C1286 C1287 1.381 . S
C1286 H1313 0.931 . S
C1287 C1286 1.381 . S
C1287 C1288 1.321 . S
C1288 C1287 1.321 . S
C1288 C1289 1.403 . S
C1288 H1314 0.934 . S
C1289 C1284 1.413 . S
C1289 C1288 1.403 . S
C1289 H1315 0.930 . S
C1290 O1304 1.275 . S
C1290 O1305 1.256 . S
C1291 O1306 1.259 . S
C1291 O1307 1.268 . S
C1292 Ho1281 2.811 . S
C1292 C1293 1.488 . S
C1292 O1308 1.215 . S
C1292 O1309 1.289 . S
C1293 C1292 1.488 . S
C1293 C1294 1.348 . S
C1293 C1298 1.413 . S
C1294 C1293 1.348 . S
C1294 C1295 1.442 . S
C1294 H1316 0.930 . S
C1295 C1294 1.442 . S
C1295 C1296 1.381 . S
C1295 H1317 0.931 . S
C1296 C1295 1.381 . S
C1296 C1297 1.321 . S
C1297 C1296 1.321 . S
C1297 C1298 1.403 . S
C1297 H1318 0.934 . S
C1298 C1293 1.413 . S
C1298 C1297 1.403 . S
C1298 H1319 0.930 . S
C1299 O1310 1.275 . S
C1299 O1311 1.256 . S
O1300 Ho1280 2.322 . S
O1300 C1282 1.259 . S
O1301 Ho1281 2.346 . S
O1301 C1282 1.268 . S
O1302 Ho1280 2.378 . S
O1302 C1283 1.215 . S
O1303 Ho1280 2.524 . S
O1303 C1283 1.289 . S
O1304 Ho1280 2.381 . S
O1304 C1290 1.275 . S
O1305 Ho1280 2.669 . S
O1305 Ho1281 2.305 . S
O1305 C1290 1.256 . S
O1306 Ho1281 2.322 . S
O1306 C1291 1.259 . S
O1307 Ho1280 2.346 . S
O1307 C1291 1.268 . S
O1308 Ho1281 2.378 . S
O1308 C1292 1.215 . S
O1309 Ho1281 2.524 . S
O1309 C1292 1.289 . S
O1310 Ho1281 2.381 . S
O1310 C1299 1.275 . S
O1311 Ho1280 2.305 . S
O1311 Ho1281 2.669 . S
O1311 C1299 1.256 . S
H1312 C1285 0.930 . S
H1313 C1286 0.931 . S
H1314 C1288 0.934 . S
H1315 C1289 0.930 . S
H1316 C1294 0.930 . S
H1317 C1295 0.931 . S
H1318 C1297 0.934 . S
H1319 C1298 0.930 . S
Ho1320 C1323 2.811 . S
Ho1320 O1340 2.322 . S
Ho1320 O1342 2.378 . S
Ho1320 O1343 2.524 . S
Ho1320 O1344 2.381 . S
Ho1320 O1345 2.669 . S
Ho1320 O1347 2.346 . S
Ho1320 O1351 2.305 . S
Ho1321 C1332 2.811 . S
Ho1321 O1341 2.346 . S
Ho1321 O1345 2.305 . S
Ho1321 O1346 2.322 . S
Ho1321 O1348 2.378 . S
Ho1321 O1349 2.524 . S
Ho1321 O1350 2.381 . S
Ho1321 O1351 2.669 . S
C1322 O1340 1.259 . S
C1322 O1341 1.268 . S
C1323 Ho1320 2.811 . S
C1323 C1324 1.488 . S
C1323 O1342 1.215 . S
C1323 O1343 1.289 . S
C1324 C1323 1.488 . S
C1324 C1325 1.348 . S
C1324 C1329 1.413 . S
C1325 C1324 1.348 . S
C1325 C1326 1.442 . S
C1325 H1352 0.930 . S
C1326 C1325 1.442 . S
C1326 C1327 1.381 . S
C1326 H1353 0.931 . S
C1327 C1326 1.381 . S
C1327 C1328 1.321 . S
C1328 C1327 1.321 . S
C1328 C1329 1.403 . S
C1328 H1354 0.934 . S
C1329 C1324 1.413 . S
C1329 C1328 1.403 . S
C1329 H1355 0.930 . S
C1330 O1344 1.275 . S
C1330 O1345 1.256 . S
C1331 O1346 1.259 . S
C1331 O1347 1.268 . S
C1332 Ho1321 2.811 . S
C1332 C1333 1.488 . S
C1332 O1348 1.215 . S
C1332 O1349 1.289 . S
C1333 C1332 1.488 . S
C1333 C1334 1.348 . S
C1333 C1338 1.413 . S
C1334 C1333 1.348 . S
C1334 C1335 1.442 1_455 S
C1334 H1356 0.930 1_455 S
C1335 C1334 1.442 1_655 S
C1335 C1336 1.381 1_655 S
C1335 H1357 0.931 . S
C1336 C1335 1.381 1_455 S
C1336 C1337 1.321 . S
C1337 C1336 1.321 . S
C1337 C1338 1.403 . S
C1337 H1358 0.934 . S
C1338 C1333 1.413 . S
C1338 C1337 1.403 . S
C1338 H1359 0.930 . S
C1339 O1350 1.275 . S
C1339 O1351 1.256 . S
O1340 Ho1320 2.322 . S
O1340 C1322 1.259 . S
O1341 Ho1321 2.346 . S
O1341 C1322 1.268 . S
O1342 Ho1320 2.378 . S
O1342 C1323 1.215 . S
O1343 Ho1320 2.524 . S
O1343 C1323 1.289 . S
O1344 Ho1320 2.381 . S
O1344 C1330 1.275 . S
O1345 Ho1320 2.669 . S
O1345 Ho1321 2.305 . S
O1345 C1330 1.256 . S
O1346 Ho1321 2.322 . S
O1346 C1331 1.259 . S
O1347 Ho1320 2.346 . S
O1347 C1331 1.268 . S
O1348 Ho1321 2.378 . S
O1348 C1332 1.215 . S
O1349 Ho1321 2.524 . S
O1349 C1332 1.289 . S
O1350 Ho1321 2.381 . S
O1350 C1339 1.275 . S
O1351 Ho1320 2.305 . S
O1351 Ho1321 2.669 . S
O1351 C1339 1.256 . S
H1352 C1325 0.930 . S
H1353 C1326 0.931 . S
H1354 C1328 0.934 . S
H1355 C1329 0.930 . S
H1356 C1334 0.930 1_655 S
H1357 C1335 0.931 . S
H1358 C1337 0.934 . S
H1359 C1338 0.930 . S
Ho1360 C1363 2.811 . S
Ho1360 O1380 2.322 . S
Ho1360 O1382 2.378 . S
Ho1360 O1383 2.524 . S
Ho1360 O1384 2.381 . S
Ho1360 O1385 2.669 . S
Ho1360 O1387 2.346 . S
Ho1360 O1391 2.305 . S
Ho1361 C1372 2.811 . S
Ho1361 O1381 2.346 . S
Ho1361 O1385 2.305 . S
Ho1361 O1386 2.322 . S
Ho1361 O1388 2.378 . S
Ho1361 O1389 2.524 . S
Ho1361 O1390 2.381 . S
Ho1361 O1391 2.669 . S
C1362 O1380 1.259 . S
C1362 O1381 1.268 . S
C1363 Ho1360 2.811 . S
C1363 C1364 1.488 . S
C1363 O1382 1.215 . S
C1363 O1383 1.289 . S
C1364 C1363 1.488 . S
C1364 C1365 1.348 . S
C1364 C1369 1.413 . S
C1365 C1364 1.348 . S
C1365 C1366 1.442 . S
C1365 H1392 0.930 . S
C1366 C1365 1.442 . S
C1366 C1367 1.381 . S
C1366 H1393 0.931 . S
C1367 C1366 1.381 . S
C1367 C1368 1.321 . S
C1368 C1367 1.321 . S
C1368 C1369 1.403 . S
C1368 H1394 0.934 . S
C1369 C1364 1.413 . S
C1369 C1368 1.403 . S
C1369 H1395 0.930 . S
C1370 O1384 1.275 . S
C1370 O1385 1.256 . S
C1371 O1386 1.259 . S
C1371 O1387 1.268 . S
C1372 Ho1361 2.811 . S
C1372 C1373 1.488 . S
C1372 O1388 1.215 . S
C1372 O1389 1.289 . S
C1373 C1372 1.488 . S
C1373 C1374 1.348 . S
C1373 C1378 1.413 . S
C1374 C1373 1.348 . S
C1374 C1375 1.442 . S
C1374 H1396 0.930 . S
C1375 C1374 1.442 . S
C1375 C1376 1.381 . S
C1375 H1397 0.931 . S
C1376 C1375 1.381 . S
C1376 C1377 1.321 . S
C1377 C1376 1.321 . S
C1377 C1378 1.403 . S
C1377 H1398 0.934 . S
C1378 C1373 1.413 . S
C1378 C1377 1.403 . S
C1378 H1399 0.930 . S
C1379 O1390 1.275 . S
C1379 O1391 1.256 . S
O1380 Ho1360 2.322 . S
O1380 C1362 1.259 . S
O1381 Ho1361 2.346 . S
O1381 C1362 1.268 . S
O1382 Ho1360 2.378 . S
O1382 C1363 1.215 . S
O1383 Ho1360 2.524 . S
O1383 C1363 1.289 . S
O1384 Ho1360 2.381 . S
O1384 C1370 1.275 . S
O1385 Ho1360 2.669 . S
O1385 Ho1361 2.305 . S
O1385 C1370 1.256 . S
O1386 Ho1361 2.322 . S
O1386 C1371 1.259 . S
O1387 Ho1360 2.346 . S
O1387 C1371 1.268 . S
O1388 Ho1361 2.378 . S
O1388 C1372 1.215 . S
O1389 Ho1361 2.524 . S
O1389 C1372 1.289 . S
O1390 Ho1361 2.381 . S
O1390 C1379 1.275 . S
O1391 Ho1360 2.305 . S
O1391 Ho1361 2.669 . S
O1391 C1379 1.256 . S
H1392 C1365 0.930 . S
H1393 C1366 0.931 . S
H1394 C1368 0.934 . S
H1395 C1369 0.930 . S
H1396 C1374 0.930 . S
H1397 C1375 0.931 . S
H1398 C1377 0.934 . S
H1399 C1378 0.930 . S
Ho1400 C1403 2.811 . S
Ho1400 O1420 2.322 . S
Ho1400 O1422 2.378 . S
Ho1400 O1423 2.524 . S
Ho1400 O1424 2.381 . S
Ho1400 O1425 2.669 . S
Ho1400 O1427 2.346 . S
Ho1400 O1431 2.305 . S
Ho1401 C1412 2.811 . S
Ho1401 O1421 2.346 . S
Ho1401 O1425 2.305 . S
Ho1401 O1426 2.322 . S
Ho1401 O1428 2.378 . S
Ho1401 O1429 2.524 . S
Ho1401 O1430 2.381 . S
Ho1401 O1431 2.669 . S
C1402 O1420 1.259 . S
C1402 O1421 1.268 . S
C1403 Ho1400 2.811 . S
C1403 C1404 1.488 . S
C1403 O1422 1.215 . S
C1403 O1423 1.289 . S
C1404 C1403 1.488 . S
C1404 C1405 1.348 . S
C1404 C1409 1.413 . S
C1405 C1404 1.348 . S
C1405 C1406 1.442 . S
C1405 H1432 0.930 . S
C1406 C1405 1.442 . S
C1406 C1407 1.381 . S
C1406 H1433 0.931 . S
C1407 C1406 1.381 . S
C1407 C1408 1.321 . S
C1408 C1407 1.321 . S
C1408 C1409 1.403 . S
C1408 H1434 0.934 . S
C1409 C1404 1.413 . S
C1409 C1408 1.403 . S
C1409 H1435 0.930 . S
C1410 O1424 1.275 . S
C1410 O1425 1.256 . S
C1411 O1426 1.259 . S
C1411 O1427 1.268 . S
C1412 Ho1401 2.811 . S
C1412 C1413 1.488 . S
C1412 O1428 1.215 . S
C1412 O1429 1.289 . S
C1413 C1412 1.488 . S
C1413 C1414 1.348 . S
C1413 C1418 1.413 . S
C1414 C1413 1.348 . S
C1414 C1415 1.442 1_565 S
C1414 H1436 0.930 1_565 S
C1415 C1414 1.442 1_545 S
C1415 C1416 1.381 1_545 S
C1415 H1437 0.931 . S
C1416 C1415 1.381 1_565 S
C1416 C1417 1.321 . S
C1417 C1416 1.321 . S
C1417 C1418 1.403 . S
C1417 H1438 0.934 . S
C1418 C1413 1.413 . S
C1418 C1417 1.403 . S
C1418 H1439 0.930 . S
C1419 O1430 1.275 . S
C1419 O1431 1.256 . S
O1420 Ho1400 2.322 . S
O1420 C1402 1.259 . S
O1421 Ho1401 2.346 . S
O1421 C1402 1.268 . S
O1422 Ho1400 2.378 . S
O1422 C1403 1.215 . S
O1423 Ho1400 2.524 . S
O1423 C1403 1.289 . S
O1424 Ho1400 2.381 . S
O1424 C1410 1.275 . S
O1425 Ho1400 2.669 . S
O1425 Ho1401 2.305 . S
O1425 C1410 1.256 . S
O1426 Ho1401 2.322 . S
O1426 C1411 1.259 . S
O1427 Ho1400 2.346 . S
O1427 C1411 1.268 . S
O1428 Ho1401 2.378 . S
O1428 C1412 1.215 . S
O1429 Ho1401 2.524 . S
O1429 C1412 1.289 . S
O1430 Ho1401 2.381 . S
O1430 C1419 1.275 . S
O1431 Ho1400 2.305 . S
O1431 Ho1401 2.669 . S
O1431 C1419 1.256 . S
H1432 C1405 0.930 . S
H1433 C1406 0.931 . S
H1434 C1408 0.934 . S
H1435 C1409 0.930 . S
H1436 C1414 0.930 1_545 S
H1437 C1415 0.931 . S
H1438 C1417 0.934 . S
H1439 C1418 0.930 . S
H1440 C1448 0.950 . S
H1441 C1453 0.950 . S
H1442 C1450 0.950 . S
H1443 C1452 0.950 . S
H1444 C1454 0.950 . S
H1445 C1456 0.950 . S
H1446 C1458 0.950 . S
H1447 C1459 0.966 . S
C1448 H1440 0.950 . S
C1448 C1449 1.386 . S
C1448 C1450 1.391 . S
C1449 C1448 1.386 . S
C1449 C1453 1.393 . S
C1450 H1442 0.950 . S
C1450 C1448 1.391 . S
C1450 C1451 1.400 . S
C1451 C1450 1.400 . S
C1451 C1452 1.398 . S
C1451 C1457 1.491 . S
C1452 H1443 0.950 . S
C1452 C1451 1.398 . S
C1452 C1453 1.391 . S
C1453 H1441 0.950 . S
C1453 C1449 1.393 . S
C1453 C1452 1.391 . S
C1454 H1444 0.950 . S
C1454 C1455 1.386 . S
C1454 C1456 1.391 1_565 S
C1455 C1454 1.386 . S
C1455 C1459 1.407 . S
C1456 H1445 0.950 . S
C1456 C1454 1.391 1_545 S
C1456 C1457 1.400 . S
C1457 C1451 1.491 . S
C1457 C1456 1.400 . S
C1457 C1458 1.398 . S
C1458 H1446 0.950 . S
C1458 C1457 1.398 . S
C1458 C1459 1.360 1_545 S
C1459 H1447 0.966 . S
C1459 C1455 1.407 . S
C1459 C1458 1.360 1_565 S
H1460 C1468 0.950 1_455 S
H1461 C1473 0.950 . S
H1462 C1470 0.950 . S
H1463 C1472 0.950 . S
H1464 C1474 0.950 . S
H1465 C1476 0.950 . S
H1466 C1478 0.950 . S
H1467 C1479 0.950 . S
C1468 H1460 0.950 1_655 S
C1468 C1469 1.386 1_655 S
C1468 C1470 1.391 . S
C1469 C1468 1.386 1_455 S
C1469 C1473 1.393 . S
C1470 H1462 0.950 . S
C1470 C1468 1.391 . S
C1470 C1471 1.400 . S
C1471 C1470 1.400 . S
C1471 C1472 1.398 . S
C1471 C1477 1.491 . S
C1472 H1463 0.950 . S
C1472 C1471 1.398 . S
C1472 C1473 1.391 1_655 S
C1473 H1461 0.950 . S
C1473 C1469 1.393 . S
C1473 C1472 1.391 1_455 S
C1474 H1464 0.950 . S
C1474 C1475 1.386 1_565 S
C1474 C1476 1.391 1_565 S
C1475 C1474 1.386 1_545 S
C1475 C1479 1.393 . S
C1476 H1465 0.950 . S
C1476 C1474 1.391 1_545 S
C1476 C1477 1.400 . S
C1477 C1471 1.491 . S
C1477 C1476 1.400 . S
C1477 C1478 1.398 . S
C1478 H1466 0.950 . S
C1478 C1477 1.398 . S
C1478 C1479 1.391 . S
C1479 H1467 0.950 . S
C1479 C1475 1.393 . S
C1479 C1478 1.391 . S
H1480 C1488 0.950 . S
H1481 C1493 0.950 . S
H1482 C1490 0.950 . S
H1483 C1492 0.950 . S
H1484 C1494 0.950 . S
H1485 C1496 0.950 . S
H1486 C1498 0.950 . S
H1487 C1499 0.950 . S
C1488 H1480 0.950 . S
C1488 C1489 1.386 . S
C1488 C1490 1.391 . S
C1489 C1488 1.386 . S
C1489 C1493 1.393 1_655 S
C1490 H1482 0.950 . S
C1490 C1488 1.391 . S
C1490 C1491 1.400 . S
C1491 C1490 1.400 . S
C1491 C1492 1.398 . S
C1491 C1497 1.491 . S
C1492 H1483 0.950 . S
C1492 C1491 1.398 . S
C1492 C1493 1.391 1_655 S
C1493 H1481 0.950 . S
C1493 C1489 1.393 1_455 S
C1493 C1492 1.391 1_455 S
C1494 H1484 0.950 . S
C1494 C1495 1.386 . S
C1494 C1496 1.391 . S
C1495 C1494 1.386 . S
C1495 C1499 1.393 . S
C1496 H1485 0.950 . S
C1496 C1494 1.391 . S
C1496 C1497 1.400 . S
C1497 C1491 1.491 . S
C1497 C1496 1.400 . S
C1497 C1498 1.398 . S
C1498 H1486 0.950 . S
C1498 C1497 1.398 . S
C1498 C1499 1.391 . S
C1499 H1487 0.950 . S
C1499 C1495 1.393 . S
C1499 C1498 1.391 . S
H1500 C1508 0.950 . S
H1501 C1513 0.950 . S
H1502 C1510 0.950 . S
H1503 C1512 0.950 . S
H1504 C1514 0.950 1_655 S
H1505 C1516 0.950 . S
H1506 C1518 0.950 . S
H1507 C1519 0.950 . S
C1508 H1500 0.950 . S
C1508 C1509 1.386 . S
C1508 C1510 1.391 . S
C1509 C1508 1.386 . S
C1509 C1513 1.393 . S
C1510 H1502 0.950 . S
C1510 C1508 1.391 . S
C1510 C1511 1.400 . S
C1511 C1510 1.400 . S
C1511 C1512 1.398 . S
C1511 C1517 1.491 . S
C1512 H1503 0.950 . S
C1512 C1511 1.398 . S
C1512 C1513 1.391 . S
C1513 H1501 0.950 . S
C1513 C1509 1.393 . S
C1513 C1512 1.391 . S
C1514 H1504 0.950 1_455 S
C1514 C1515 1.386 1_455 S
C1514 C1516 1.391 . S
C1515 C1514 1.386 1_655 S
C1515 C1519 1.393 . S
C1516 H1505 0.950 . S
C1516 C1514 1.391 . S
C1516 C1517 1.400 . S
C1517 C1511 1.491 . S
C1517 C1516 1.400 . S
C1517 C1518 1.398 . S
C1518 H1506 0.950 . S
C1518 C1517 1.398 . S
C1518 C1519 1.391 1_455 S
C1519 H1507 0.950 . S
C1519 C1515 1.393 . S
C1519 C1518 1.391 1_655 S
H1520 C1528 0.950 . S
H1521 C1533 0.950 . S
H1522 C1530 0.950 . S
H1523 C1532 0.950 . S
H1524 C1534 0.950 . S
H1525 C1536 0.950 . S
H1526 C1538 0.950 . S
H1527 C1539 0.970 . S
C1528 H1520 0.950 . S
C1528 C1529 1.386 . S
C1528 C1530 1.391 . S
C1529 C1528 1.386 . S
C1529 C1533 1.393 . S
C1530 H1522 0.950 . S
C1530 C1528 1.391 . S
C1530 C1531 1.400 . S
C1531 C1530 1.400 . S
C1531 C1532 1.398 . S
C1531 C1537 1.491 . S
C1532 H1523 0.950 . S
C1532 C1531 1.398 . S
C1532 C1533 1.391 . S
C1533 H1521 0.950 . S
C1533 C1529 1.393 . S
C1533 C1532 1.391 . S
C1534 H1524 0.950 . S
C1534 C1535 1.386 . S
C1534 C1536 1.391 . S
C1535 C1534 1.386 . S
C1535 C1539 1.405 1_565 S
C1536 H1525 0.950 . S
C1536 C1534 1.391 . S
C1536 C1537 1.400 . S
C1537 C1531 1.491 . S
C1537 C1536 1.400 . S
C1537 C1538 1.398 . S
C1538 H1526 0.950 . S
C1538 C1537 1.398 . S
C1538 C1539 1.359 1_565 S
C1539 H1527 0.970 . S
C1539 C1535 1.405 1_545 S
C1539 C1538 1.359 1_545 S
H1540 C1548 0.950 1_655 S
H1541 C1553 0.950 . S
H1542 C1550 0.950 . S
H1543 C1552 0.950 . S
H1544 C1554 0.948 . S
H1545 C1556 0.950 . S
H1546 C1558 0.950 . S
H1547 C1559 0.950 . S
C1548 H1540 0.950 1_455 S
C1548 C1549 1.386 . S
C1548 C1550 1.391 . S
C1549 C1548 1.386 . S
C1549 C1553 1.393 . S
C1550 H1542 0.950 . S
C1550 C1548 1.391 . S
C1550 C1551 1.400 . S
C1551 C1550 1.400 . S
C1551 C1552 1.398 . S
C1551 C1557 1.491 . S
C1552 H1543 0.950 . S
C1552 C1551 1.398 . S
C1552 C1553 1.391 . S
C1553 H1541 0.950 . S
C1553 C1549 1.393 . S
C1553 C1552 1.391 . S
C1554 H1544 0.948 . S
C1554 C1555 1.392 . S
C1554 C1556 1.386 1_545 S
C1555 C1554 1.392 . S
C1555 C1559 1.393 . S
C1556 H1545 0.950 . S
C1556 C1554 1.386 1_565 S
C1556 C1557 1.400 . S
C1557 C1551 1.491 . S
C1557 C1556 1.400 . S
C1557 C1558 1.398 . S
C1558 H1546 0.950 . S
C1558 C1557 1.398 . S
C1558 C1559 1.391 1_565 S
C1559 H1547 0.950 . S
C1559 C1555 1.393 . S
C1559 C1558 1.391 1_545 S
H1560 C1568 0.950 . S
H1561 C1573 0.950 . S
H1562 C1570 0.950 . S
H1563 C1572 0.950 . S
H1564 C1574 0.950 . S
H1565 C1576 0.950 . S
H1566 C1578 0.950 . S
H1567 C1579 0.952 1_545 S
C1568 H1560 0.950 . S
C1568 C1569 1.386 . S
C1568 C1570 1.391 . S
C1569 C1568 1.386 . S
C1569 C1573 1.393 . S
C1570 H1562 0.950 . S
C1570 C1568 1.391 . S
C1570 C1571 1.400 . S
C1571 C1570 1.400 . S
C1571 C1572 1.398 . S
C1571 C1577 1.491 . S
C1572 H1563 0.950 . S
C1572 C1571 1.398 . S
C1572 C1573 1.391 . S
C1573 H1561 0.950 . S
C1573 C1569 1.393 . S
C1573 C1572 1.391 . S
C1574 H1564 0.950 . S
C1574 C1575 1.386 . S
C1574 C1576 1.391 1_545 S
C1575 C1574 1.386 . S
C1575 C1579 1.394 1_545 S
C1576 H1565 0.950 . S
C1576 C1574 1.391 1_565 S
C1576 C1577 1.400 . S
C1577 C1571 1.491 . S
C1577 C1576 1.400 . S
C1577 C1578 1.398 . S
C1578 H1566 0.950 . S
C1578 C1577 1.398 . S
C1578 C1579 1.387 . S
C1579 H1567 0.952 1_565 S
C1579 C1575 1.394 1_565 S
C1579 C1578 1.387 . S
H1580 C1588 0.950 . S
H1581 C1593 0.950 . S
H1582 C1590 0.950 . S
H1583 C1592 0.950 . S
H1584 C1594 0.950 . S
H1585 C1596 0.950 . S
H1586 C1598 0.950 . S
H1587 C1599 0.950 . S
C1588 H1580 0.950 . S
C1588 C1589 1.386 . S
C1588 C1590 1.391 . S
C1589 C1588 1.386 . S
C1589 C1593 1.393 . S
C1590 H1582 0.950 . S
C1590 C1588 1.391 . S
C1590 C1591 1.400 . S
C1591 C1590 1.400 . S
C1591 C1592 1.398 . S
C1591 C1597 1.491 . S
C1592 H1583 0.950 . S
C1592 C1591 1.398 . S
C1592 C1593 1.391 . S
C1593 H1581 0.950 . S
C1593 C1589 1.393 . S
C1593 C1592 1.391 . S
C1594 H1584 0.950 . S
C1594 C1595 1.386 . S
C1594 C1596 1.391 1_655 S
C1595 C1594 1.386 . S
C1595 C1599 1.393 . S
C1596 H1585 0.950 . S
C1596 C1594 1.391 1_455 S
C1596 C1597 1.400 . S
C1597 C1591 1.491 . S
C1597 C1596 1.400 . S
C1597 C1598 1.398 . S
C1598 H1586 0.950 . S
C1598 C1597 1.398 . S
C1598 C1599 1.391 1_455 S
C1599 H1587 0.950 . S
C1599 C1595 1.393 . S
C1599 C1598 1.391 1_655 S
H1600 C1608 0.950 . S
H1601 C1613 0.950 1_655 S
H1602 C1610 0.950 . S
H1603 C1612 0.950 . S
H1604 C1614 0.950 . S
H1605 C1616 0.950 . S
H1606 C1618 0.950 . S
H1607 C1619 0.950 . S
C1608 H1600 0.950 . S
C1608 C1609 1.386 . S
C1608 C1610 1.391 . S
C1609 C1608 1.386 . S
C1609 C1613 1.393 . S
C1610 H1602 0.950 . S
C1610 C1608 1.391 . S
C1610 C1611 1.400 . S
C1611 C1610 1.400 . S
C1611 C1612 1.398 . S
C1611 C1617 1.491 . S
C1612 H1603 0.950 . S
C1612 C1611 1.398 . S
C1612 C1613 1.391 . S
C1613 H1601 0.950 1_455 S
C1613 C1609 1.393 . S
C1613 C1612 1.391 . S
C1614 H1604 0.950 . S
C1614 C1615 1.386 . S
C1614 C1616 1.391 . S
C1615 C1614 1.386 . S
C1615 C1619 1.393 . S
C1616 H1605 0.950 . S
C1616 C1614 1.391 . S
C1616 C1617 1.400 . S
C1617 C1611 1.491 . S
C1617 C1616 1.400 . S
C1617 C1618 1.398 . S
C1618 H1606 0.950 . S
C1618 C1617 1.398 . S
C1618 C1619 1.391 . S
C1619 H1607 0.950 . S
C1619 C1615 1.393 . S
C1619 C1618 1.391 . S
H1620 C1628 0.950 . S
H1621 C1633 0.950 . S
H1622 C1630 0.950 . S
H1623 C1632 0.950 . S
H1624 C1634 0.950 . S
H1625 C1636 0.950 . S
H1626 C1638 0.950 . S
H1627 C1639 0.950 1_455 S
C1628 H1620 0.950 . S
C1628 C1629 1.386 . S
C1628 C1630 1.391 . S
C1629 C1628 1.386 . S
C1629 C1633 1.393 . S
C1630 H1622 0.950 . S
C1630 C1628 1.391 . S
C1630 C1631 1.400 . S
C1631 C1630 1.400 . S
C1631 C1632 1.398 . S
C1631 C1637 1.491 . S
C1632 H1623 0.950 . S
C1632 C1631 1.398 . S
C1632 C1633 1.391 . S
C1633 H1621 0.950 . S
C1633 C1629 1.393 . S
C1633 C1632 1.391 . S
C1634 H1624 0.950 . S
C1634 C1635 1.386 . S
C1634 C1636 1.391 1_455 S
C1635 C1634 1.386 . S
C1635 C1639 1.393 1_455 S
C1636 H1625 0.950 . S
C1636 C1634 1.391 1_655 S
C1636 C1637 1.400 . S
C1637 C1631 1.491 . S
C1637 C1636 1.400 . S
C1637 C1638 1.398 . S
C1638 H1626 0.950 . S
C1638 C1637 1.398 . S
C1638 C1639 1.391 . S
C1639 H1627 0.950 1_655 S
C1639 C1635 1.393 1_655 S
C1639 C1638 1.391 . S
H1640 C1648 0.950 . S
H1641 C1653 0.950 . S
H1642 C1650 0.950 . S
H1643 C1652 0.950 . S
H1644 C1654 0.950 . S
H1645 C1656 0.950 . S
H1646 C1658 0.950 . S
H1647 C1659 0.950 1_565 S
C1648 H1640 0.950 . S
C1648 C1649 1.386 . S
C1648 C1650 1.391 . S
C1649 C1648 1.386 . S
C1649 C1653 1.393 . S
C1650 H1642 0.950 . S
C1650 C1648 1.391 . S
C1650 C1651 1.400 . S
C1651 C1650 1.400 . S
C1651 C1652 1.398 . S
C1651 C1657 1.491 . S
C1652 H1643 0.950 . S
C1652 C1651 1.398 . S
C1652 C1653 1.391 . S
C1653 H1641 0.950 . S
C1653 C1649 1.393 . S
C1653 C1652 1.391 . S
C1654 H1644 0.950 . S
C1654 C1655 1.386 . S
C1654 C1656 1.391 . S
C1655 C1654 1.386 . S
C1655 C1659 1.393 . S
C1656 H1645 0.950 . S
C1656 C1654 1.391 . S
C1656 C1657 1.400 . S
C1657 C1651 1.491 . S
C1657 C1656 1.400 . S
C1657 C1658 1.398 . S
C1658 H1646 0.950 . S
C1658 C1657 1.398 . S
C1658 C1659 1.391 . S
C1659 H1647 0.950 1_545 S
C1659 C1655 1.393 . S
C1659 C1658 1.391 . S
H1660 C1668 0.950 . S
H1661 C1673 0.950 . S
H1662 C1670 0.950 . S
H1663 C1672 0.950 . S
H1664 C1674 0.950 1_455 S
H1665 C1676 0.950 . S
H1666 C1678 0.950 . S
H1667 C1679 0.950 . S
C1668 H1660 0.950 . S
C1668 C1669 1.386 . S
C1668 C1670 1.391 1_565 S
C1669 C1668 1.386 . S
C1669 C1673 1.393 . S
C1670 H1662 0.950 . S
C1670 C1668 1.391 1_545 S
C1670 C1671 1.400 . S
C1671 C1670 1.400 . S
C1671 C1672 1.398 . S
C1671 C1677 1.491 . S
C1672 H1663 0.950 . S
C1672 C1671 1.398 . S
C1672 C1673 1.391 1_545 S
C1673 H1661 0.950 . S
C1673 C1669 1.393 . S
C1673 C1672 1.391 1_565 S
C1674 H1664 0.950 1_655 S
C1674 C1675 1.386 . S
C1674 C1676 1.391 . S
C1675 C1674 1.386 . S
C1675 C1679 1.393 . S
C1676 H1665 0.950 . S
C1676 C1674 1.391 . S
C1676 C1677 1.400 . S
C1677 C1671 1.491 . S
C1677 C1676 1.400 . S
C1677 C1678 1.398 . S
C1678 H1666 0.950 . S
C1678 C1677 1.398 . S
C1678 C1679 1.391 . S
C1679 H1667 0.950 . S
C1679 C1675 1.393 . S
C1679 C1678 1.391 . S
H1680 C1688 0.950 . S
H1681 C1693 0.950 . S
H1682 C1690 0.950 . S
H1683 C1692 0.950 . S
H1684 C1694 0.950 . S
H1685 C1696 0.950 . S
H1686 C1698 0.950 . S
H1687 C1699 0.950 . S
C1688 H1680 0.950 . S
C1688 C1689 1.386 . S
C1688 C1690 1.391 . S
C1689 C1688 1.386 . S
C1689 C1693 1.393 . S
C1690 H1682 0.950 . S
C1690 C1688 1.391 . S
C1690 C1691 1.400 . S
C1691 C1690 1.400 . S
C1691 C1692 1.398 . S
C1691 C1697 1.491 . S
C1692 H1683 0.950 . S
C1692 C1691 1.398 . S
C1692 C1693 1.391 . S
C1693 H1681 0.950 . S
C1693 C1689 1.393 . S
C1693 C1692 1.391 . S
C1694 H1684 0.950 . S
C1694 C1695 1.386 . S
C1694 C1696 1.391 . S
C1695 C1694 1.386 . S
C1695 C1699 1.393 . S
C1696 H1685 0.950 . S
C1696 C1694 1.391 . S
C1696 C1697 1.400 . S
C1697 C1691 1.491 . S
C1697 C1696 1.400 . S
C1697 C1698 1.398 . S
C1698 H1686 0.950 . S
C1698 C1697 1.398 . S
C1698 C1699 1.391 . S
C1699 H1687 0.950 . S
C1699 C1695 1.393 . S
C1699 C1698 1.391 . S
H1700 C1708 0.950 . S
H1701 C1713 0.950 . S
H1702 C1710 0.950 . S
H1703 C1712 0.950 . S
H1704 C1714 0.950 . S
H1705 C1716 0.950 . S
H1706 C1718 0.950 . S
H1707 C1719 0.950 . S
C1708 H1700 0.950 . S
C1708 C1709 1.386 . S
C1708 C1710 1.391 . S
C1709 C1708 1.386 . S
C1709 C1713 1.393 . S
C1710 H1702 0.950 . S
C1710 C1708 1.391 . S
C1710 C1711 1.400 . S
C1711 C1710 1.400 . S
C1711 C1712 1.398 . S
C1711 C1717 1.491 . S
C1712 H1703 0.950 . S
C1712 C1711 1.398 . S
C1712 C1713 1.391 . S
C1713 H1701 0.950 . S
C1713 C1709 1.393 . S
C1713 C1712 1.391 . S
C1714 H1704 0.950 . S
C1714 C1715 1.386 . S
C1714 C1716 1.391 . S
C1715 C1714 1.386 . S
C1715 C1719 1.393 . S
C1716 H1705 0.950 . S
C1716 C1714 1.391 . S
C1716 C1717 1.400 . S
C1717 C1711 1.491 . S
C1717 C1716 1.400 . S
C1717 C1718 1.398 . S
C1718 H1706 0.950 . S
C1718 C1717 1.398 . S
C1718 C1719 1.391 . S
C1719 H1707 0.950 . S
C1719 C1715 1.393 . S
C1719 C1718 1.391 . S
H1720 C1728 0.950 . S
H1721 C1733 0.950 . S
H1722 C1730 0.950 . S
H1723 C1732 0.950 . S
H1724 C1734 0.950 . S
H1725 C1736 0.950 . S
H1726 C1738 0.950 . S
H1727 C1739 0.950 . S
C1728 H1720 0.950 . S
C1728 C1729 1.386 . S
C1728 C1730 1.391 . S
C1729 C1728 1.386 . S
C1729 C1733 1.393 . S
C1730 H1722 0.950 . S
C1730 C1728 1.391 . S
C1730 C1731 1.400 . S
C1731 C1730 1.400 . S
C1731 C1732 1.398 . S
C1731 C1737 1.491 . S
C1732 H1723 0.950 . S
C1732 C1731 1.398 . S
C1732 C1733 1.391 . S
C1733 H1721 0.950 . S
C1733 C1729 1.393 . S
C1733 C1732 1.391 . S
C1734 H1724 0.950 . S
C1734 C1735 1.386 . S
C1734 C1736 1.391 . S
C1735 C1734 1.386 . S
C1735 C1739 1.393 . S
C1736 H1725 0.950 . S
C1736 C1734 1.391 . S
C1736 C1737 1.400 . S
C1737 C1731 1.491 . S
C1737 C1736 1.400 . S
C1737 C1738 1.398 . S
C1738 H1726 0.950 . S
C1738 C1737 1.398 . S
C1738 C1739 1.391 . S
C1739 H1727 0.950 . S
C1739 C1735 1.393 . S
C1739 C1738 1.391 . S
H1740 C1748 0.950 . S
H1741 C1753 0.950 . S
H1742 C1750 0.950 . S
H1743 C1752 0.950 . S
H1744 C1754 0.950 . S
H1745 C1756 0.950 . S
H1746 C1758 0.950 . S
H1747 C1759 0.950 . S
C1748 H1740 0.950 . S
C1748 C1749 1.386 . S
C1748 C1750 1.391 . S
C1749 C1748 1.386 . S
C1749 C1753 1.393 . S
C1750 H1742 0.950 . S
C1750 C1748 1.391 . S
C1750 C1751 1.400 . S
C1751 C1750 1.400 . S
C1751 C1752 1.398 . S
C1751 C1757 1.491 . S
C1752 H1743 0.950 . S
C1752 C1751 1.398 . S
C1752 C1753 1.391 . S
C1753 H1741 0.950 . S
C1753 C1749 1.393 . S
C1753 C1752 1.391 . S
C1754 H1744 0.950 . S
C1754 C1755 1.386 . S
C1754 C1756 1.391 . S
C1755 C1754 1.386 . S
C1755 C1759 1.393 . S
C1756 H1745 0.950 . S
C1756 C1754 1.391 . S
C1756 C1757 1.400 . S
C1757 C1751 1.491 . S
C1757 C1756 1.400 . S
C1757 C1758 1.398 . S
C1758 H1746 0.950 . S
C1758 C1757 1.398 . S
C1758 C1759 1.391 . S
C1759 H1747 0.950 . S
C1759 C1755 1.393 . S
C1759 C1758 1.391 . S
H1760 C1768 0.950 . S
H1761 C1773 0.950 . S
H1762 C1770 0.950 . S
H1763 C1772 0.950 . S
H1764 C1774 0.950 . S
H1765 C1776 0.950 . S
H1766 C1778 0.950 . S
H1767 C1779 0.950 . S
C1768 H1760 0.950 . S
C1768 C1769 1.386 . S
C1768 C1770 1.391 . S
C1769 C1768 1.386 . S
C1769 C1773 1.393 . S
C1770 H1762 0.950 . S
C1770 C1768 1.391 . S
C1770 C1771 1.400 . S
C1771 C1770 1.400 . S
C1771 C1772 1.398 . S
C1771 C1777 1.491 . S
C1772 H1763 0.950 . S
C1772 C1771 1.398 . S
C1772 C1773 1.391 . S
C1773 H1761 0.950 . S
C1773 C1769 1.393 . S
C1773 C1772 1.391 . S
C1774 H1764 0.950 . S
C1774 C1775 1.386 . S
C1774 C1776 1.391 . S
C1775 C1774 1.386 . S
C1775 C1779 1.393 . S
C1776 H1765 0.950 . S
C1776 C1774 1.391 . S
C1776 C1777 1.400 . S
C1777 C1771 1.491 . S
C1777 C1776 1.400 . S
C1777 C1778 1.398 . S
C1778 H1766 0.950 . S
C1778 C1777 1.398 . S
C1778 C1779 1.391 . S
C1779 H1767 0.950 . S
C1779 C1775 1.393 . S
C1779 C1778 1.391 . S
H1780 C1788 0.950 . S
H1781 C1793 0.950 . S
H1782 C1790 0.950 . S
H1783 C1792 0.950 . S
H1784 C1794 0.950 . S
H1785 C1796 0.950 . S
H1786 C1798 0.950 . S
H1787 C1799 0.950 . S
C1788 H1780 0.950 . S
C1788 C1789 1.386 . S
C1788 C1790 1.391 . S
C1789 C1788 1.386 . S
C1789 C1793 1.393 . S
C1790 H1782 0.950 . S
C1790 C1788 1.391 . S
C1790 C1791 1.400 . S
C1791 C1790 1.400 . S
C1791 C1792 1.398 . S
C1791 C1797 1.491 . S
C1792 H1783 0.950 . S
C1792 C1791 1.398 . S
C1792 C1793 1.391 . S
C1793 H1781 0.950 . S
C1793 C1789 1.393 . S
C1793 C1792 1.391 . S
C1794 H1784 0.950 . S
C1794 C1795 1.386 . S
C1794 C1796 1.391 . S
C1795 C1794 1.386 . S
C1795 C1799 1.393 . S
C1796 H1785 0.950 . S
C1796 C1794 1.391 . S
C1796 C1797 1.400 . S
C1797 C1791 1.491 . S
C1797 C1796 1.400 . S
C1797 C1798 1.398 . S
C1798 H1786 0.950 . S
C1798 C1797 1.398 . S
C1798 C1799 1.391 . S
C1799 H1787 0.950 . S
C1799 C1795 1.393 . S
C1799 C1798 1.391 . S
H1800 C1808 0.950 . S
H1801 C1813 0.950 . S
H1802 C1810 0.950 . S
H1803 C1812 0.950 . S
H1804 C1814 0.950 . S
H1805 C1816 0.950 . S
H1806 C1818 0.950 . S
H1807 C1819 0.950 . S
C1808 H1800 0.950 . S
C1808 C1809 1.386 . S
C1808 C1810 1.391 . S
C1809 C1808 1.386 . S
C1809 C1813 1.393 . S
C1810 H1802 0.950 . S
C1810 C1808 1.391 . S
C1810 C1811 1.400 . S
C1811 C1810 1.400 . S
C1811 C1812 1.398 . S
C1811 C1817 1.491 . S
C1812 H1803 0.950 . S
C1812 C1811 1.398 . S
C1812 C1813 1.391 . S
C1813 H1801 0.950 . S
C1813 C1809 1.393 . S
C1813 C1812 1.391 . S
C1814 H1804 0.950 . S
C1814 C1815 1.386 . S
C1814 C1816 1.391 . S
C1815 C1814 1.386 . S
C1815 C1819 1.393 . S
C1816 H1805 0.950 . S
C1816 C1814 1.391 . S
C1816 C1817 1.400 . S
C1817 C1811 1.491 . S
C1817 C1816 1.400 . S
C1817 C1818 1.398 . S
C1818 H1806 0.950 . S
C1818 C1817 1.398 . S
C1818 C1819 1.391 . S
C1819 H1807 0.950 . S
C1819 C1815 1.393 . S
C1819 C1818 1.391 . S
H1820 C1828 0.950 . S
H1821 C1833 0.950 . S
H1822 C1830 0.950 . S
H1823 C1832 0.950 . S
H1824 C1834 0.950 . S
H1825 C1836 0.950 . S
H1826 C1838 0.950 . S
H1827 C1839 0.950 . S
C1828 H1820 0.950 . S
C1828 C1829 1.386 . S
C1828 C1830 1.391 . S
C1829 C1828 1.386 . S
C1829 C1833 1.393 . S
C1830 H1822 0.950 . S
C1830 C1828 1.391 . S
C1830 C1831 1.400 . S
C1831 C1830 1.400 . S
C1831 C1832 1.398 . S
C1831 C1837 1.491 . S
C1832 H1823 0.950 . S
C1832 C1831 1.398 . S
C1832 C1833 1.391 . S
C1833 H1821 0.950 . S
C1833 C1829 1.393 . S
C1833 C1832 1.391 . S
C1834 H1824 0.950 . S
C1834 C1835 1.386 . S
C1834 C1836 1.391 . S
C1835 C1834 1.386 . S
C1835 C1839 1.393 . S
C1836 H1825 0.950 . S
C1836 C1834 1.391 . S
C1836 C1837 1.400 . S
C1837 C1831 1.491 . S
C1837 C1836 1.400 . S
C1837 C1838 1.398 . S
C1838 H1826 0.950 . S
C1838 C1837 1.398 . S
C1838 C1839 1.391 . S
C1839 H1827 0.950 . S
C1839 C1835 1.393 . S
C1839 C1838 1.391 . S
H1840 C1848 0.950 . S
H1841 C1853 0.950 . S
H1842 C1850 0.950 . S
H1843 C1852 0.950 . S
H1844 C1854 0.950 . S
H1845 C1856 0.950 . S
H1846 C1858 0.950 . S
H1847 C1859 0.950 . S
C1848 H1840 0.950 . S
C1848 C1849 1.386 . S
C1848 C1850 1.391 . S
C1849 C1848 1.386 . S
C1849 C1853 1.393 . S
C1850 H1842 0.950 . S
C1850 C1848 1.391 . S
C1850 C1851 1.400 . S
C1851 C1850 1.400 . S
C1851 C1852 1.398 . S
C1851 C1857 1.491 . S
C1852 H1843 0.950 . S
C1852 C1851 1.398 . S
C1852 C1853 1.391 . S
C1853 H1841 0.950 . S
C1853 C1849 1.393 . S
C1853 C1852 1.391 . S
C1854 H1844 0.950 . S
C1854 C1855 1.386 . S
C1854 C1856 1.391 . S
C1855 C1854 1.386 . S
C1855 C1859 1.393 . S
C1856 H1845 0.950 . S
C1856 C1854 1.391 . S
C1856 C1857 1.400 . S
C1857 C1851 1.491 . S
C1857 C1856 1.400 . S
C1857 C1858 1.398 . S
C1858 H1846 0.950 . S
C1858 C1857 1.398 . S
C1858 C1859 1.391 . S
C1859 H1847 0.950 . S
C1859 C1855 1.393 . S
C1859 C1858 1.391 . S
H1860 C1868 0.950 . S
H1861 C1873 0.950 . S
H1862 C1870 0.950 . S
H1863 C1872 0.950 . S
H1864 C1874 0.950 . S
H1865 C1876 0.950 . S
H1866 C1878 0.950 . S
H1867 C1879 0.950 . S
C1868 H1860 0.950 . S
C1868 C1869 1.386 1_556 S
C1868 C1870 1.391 . S
C1869 C1868 1.386 1_554 S
C1869 C1873 1.393 . S
C1870 H1862 0.950 . S
C1870 C1868 1.391 . S
C1870 C1871 1.400 1_556 S
C1871 C1870 1.400 1_554 S
C1871 C1872 1.398 . S
C1871 C1877 1.491 . S
C1872 H1863 0.950 . S
C1872 C1871 1.398 . S
C1872 C1873 1.391 . S
C1873 H1861 0.950 . S
C1873 C1869 1.393 . S
C1873 C1872 1.391 . S
C1874 H1864 0.950 . S
C1874 C1875 1.491 . S
C1874 C1876 1.391 . S
C1875 C1874 1.491 . S
C1875 C1879 1.298 1_554 S
C1876 H1865 0.950 . S
C1876 C1874 1.391 . S
C1876 C1877 1.400 . S
C1877 C1871 1.491 . S
C1877 C1876 1.400 . S
C1877 C1878 1.398 1_554 S
C1878 H1866 0.950 . S
C1878 C1877 1.398 1_556 S
C1878 C1879 1.391 . S
C1879 H1867 0.950 . S
C1879 C1875 1.298 1_556 S
C1879 C1878 1.391 . S
H1880 C1888 0.950 . S
H1881 C1893 0.950 . S
H1882 C1890 0.950 . S
H1883 C1892 0.950 . S
H1884 C1894 0.950 . S
H1885 C1896 0.950 . S
H1886 C1898 0.950 . S
H1887 C1899 0.950 . S
C1888 H1880 0.950 . S
C1888 C1889 1.308 1_556 S
C1888 C1890 1.391 . S
C1889 C1888 1.308 1_554 S
C1889 C1893 1.478 . S
C1890 H1882 0.950 . S
C1890 C1888 1.391 . S
C1890 C1891 1.400 1_556 S
C1891 C1890 1.400 1_554 S
C1891 C1892 1.398 . S
C1891 C1897 1.491 . S
C1892 H1883 0.950 . S
C1892 C1891 1.398 . S
C1892 C1893 1.391 . S
C1893 H1881 0.950 . S
C1893 C1889 1.478 . S
C1893 C1892 1.391 . S
C1894 H1884 0.950 . S
C1894 C1895 1.386 . S
C1894 C1896 1.391 . S
C1895 C1894 1.386 . S
C1895 C1899 1.393 1_554 S
C1896 H1885 0.950 . S
C1896 C1894 1.391 . S
C1896 C1897 1.400 . S
C1897 C1891 1.491 . S
C1897 C1896 1.400 . S
C1897 C1898 1.398 1_554 S
C1898 H1886 0.950 . S
C1898 C1897 1.398 1_556 S
C1898 C1899 1.391 . S
C1899 H1887 0.950 . S
C1899 C1895 1.393 1_556 S
C1899 C1898 1.391 . S
H1900 C1908 0.950 . S
H1901 C1913 0.950 . S
H1902 C1910 0.950 . S
H1903 C1912 0.950 . S
H1904 C1914 0.950 . S
H1905 C1916 0.950 . S
H1906 C1918 0.950 . S
H1907 C1919 0.950 . S
C1908 H1900 0.950 . S
C1908 C1909 1.386 1_556 S
C1908 C1910 1.391 . S
C1909 C1908 1.386 1_554 S
C1909 C1913 1.393 . S
C1910 H1902 0.950 . S
C1910 C1908 1.391 . S
C1910 C1911 1.400 1_556 S
C1911 C1910 1.400 1_554 S
C1911 C1912 1.398 . S
C1911 C1917 1.491 . S
C1912 H1903 0.950 . S
C1912 C1911 1.398 . S
C1912 C1913 1.391 . S
C1913 H1901 0.950 . S
C1913 C1909 1.393 . S
C1913 C1912 1.391 . S
C1914 H1904 0.950 . S
C1914 C1915 1.481 . S
C1914 C1916 1.391 . S
C1915 C1914 1.481 . S
C1915 C1919 1.306 1_554 S
C1916 H1905 0.950 . S
C1916 C1914 1.391 . S
C1916 C1917 1.400 . S
C1917 C1911 1.491 . S
C1917 C1916 1.400 . S
C1917 C1918 1.398 1_554 S
C1918 H1906 0.950 . S
C1918 C1917 1.398 1_556 S
C1918 C1919 1.391 . S
C1919 H1907 0.950 . S
C1919 C1915 1.306 1_556 S
C1919 C1918 1.391 . S
H1920 C1928 0.950 . S
H1921 C1933 0.950 . S
H1922 C1930 0.950 . S
H1923 C1932 0.950 . S
H1924 C1934 0.950 . S
H1925 C1936 0.950 . S
H1926 C1938 0.950 . S
H1927 C1939 0.950 . S
C1928 H1920 0.950 . S
C1928 C1929 1.386 . S
C1928 C1930 1.391 . S
C1929 C1928 1.386 . S
C1929 C1933 1.393 . S
C1930 H1922 0.950 . S
C1930 C1928 1.391 . S
C1930 C1931 1.400 . S
C1931 C1930 1.400 . S
C1931 C1932 1.398 . S
C1931 C1937 1.491 . S
C1932 H1923 0.950 . S
C1932 C1931 1.398 . S
C1932 C1933 1.391 . S
C1933 H1921 0.950 . S
C1933 C1929 1.393 . S
C1933 C1932 1.391 . S
C1934 H1924 0.950 . S
C1934 C1935 1.386 . S
C1934 C1936 1.391 . S
C1935 C1934 1.386 . S
C1935 C1939 1.393 . S
C1936 H1925 0.950 . S
C1936 C1934 1.391 . S
C1936 C1937 1.400 . S
C1937 C1931 1.491 . S
C1937 C1936 1.400 . S
C1937 C1938 1.398 . S
C1938 H1926 0.950 . S
C1938 C1937 1.398 . S
C1938 C1939 1.391 . S
C1939 H1927 0.950 . S
C1939 C1935 1.393 . S
C1939 C1938 1.391 . S
H1940 C1948 0.950 . S
H1941 C1953 0.950 . S
H1942 C1950 0.950 . S
H1943 C1952 0.950 . S
H1944 C1954 0.950 . S
H1945 C1956 0.950 . S
H1946 C1958 0.950 . S
H1947 C1959 0.950 . S
C1948 H1940 0.950 . S
C1948 C1949 1.386 . S
C1948 C1950 1.391 . S
C1949 C1948 1.386 . S
C1949 C1953 1.393 . S
C1950 H1942 0.950 . S
C1950 C1948 1.391 . S
C1950 C1951 1.400 . S
C1951 C1950 1.400 . S
C1951 C1952 1.398 . S
C1951 C1957 1.491 . S
C1952 H1943 0.950 . S
C1952 C1951 1.398 . S
C1952 C1953 1.391 . S
C1953 H1941 0.950 . S
C1953 C1949 1.393 . S
C1953 C1952 1.391 . S
C1954 H1944 0.950 . S
C1954 C1955 1.386 . S
C1954 C1956 1.391 . S
C1955 C1954 1.386 . S
C1955 C1959 1.393 . S
C1956 H1945 0.950 . S
C1956 C1954 1.391 . S
C1956 C1957 1.400 . S
C1957 C1951 1.491 . S
C1957 C1956 1.400 . S
C1957 C1958 1.398 . S
C1958 H1946 0.950 . S
C1958 C1957 1.398 . S
C1958 C1959 1.391 . S
C1959 H1947 0.950 . S
C1959 C1955 1.393 . S
C1959 C1958 1.391 . S
H1960 C1968 0.950 . S
H1961 C1973 0.950 . S
H1962 C1970 0.950 . S
H1963 C1972 0.950 . S
H1964 C1974 0.950 . S
H1965 C1976 0.950 . S
H1966 C1978 0.950 . S
H1967 C1979 0.950 . S
C1968 H1960 0.950 . S
C1968 C1969 1.386 . S
C1968 C1970 1.391 . S
C1969 C1968 1.386 . S
C1969 C1973 1.393 . S
C1970 H1962 0.950 . S
C1970 C1968 1.391 . S
C1970 C1971 1.400 . S
C1971 C1970 1.400 . S
C1971 C1972 1.398 . S
C1971 C1977 1.491 . S
C1972 H1963 0.950 . S
C1972 C1971 1.398 . S
C1972 C1973 1.391 . S
C1973 H1961 0.950 . S
C1973 C1969 1.393 . S
C1973 C1972 1.391 . S
C1974 H1964 0.950 . S
C1974 C1975 1.386 . S
C1974 C1976 1.391 . S
C1975 C1974 1.386 . S
C1975 C1979 1.393 . S
C1976 H1965 0.950 . S
C1976 C1974 1.391 . S
C1976 C1977 1.400 . S
C1977 C1971 1.491 . S
C1977 C1976 1.400 . S
C1977 C1978 1.398 . S
C1978 H1966 0.950 . S
C1978 C1977 1.398 . S
C1978 C1979 1.391 . S
C1979 H1967 0.950 . S
C1979 C1975 1.393 . S
C1979 C1978 1.391 . S
H1980 C1988 0.961 . S
H1981 C1993 0.950 . S
H1982 C1990 0.950 . S
H1983 C1992 0.950 . S
H1984 C1994 0.950 . S
H1985 C1996 0.950 . S
H1986 C1998 0.950 . S
H1987 C1999 0.950 . S
C1988 H1980 0.961 . S
C1988 C1989 1.386 . S
C1988 C1990 1.391 . S
C1989 C1988 1.386 . S
C1989 C1993 1.393 . S
C1990 H1982 0.950 . S
C1990 C1988 1.391 . S
C1990 C1991 1.400 . S
C1991 C1990 1.400 . S
C1991 C1992 1.398 . S
C1991 C1997 1.491 . S
C1992 H1983 0.950 . S
C1992 C1991 1.398 . S
C1992 C1993 1.391 . S
C1993 H1981 0.950 . S
C1993 C1989 1.393 . S
C1993 C1992 1.391 . S
C1994 H1984 0.950 . S
C1994 C1995 1.386 . S
C1994 C1996 1.391 . S
C1995 C1994 1.386 . S
C1995 C1999 1.393 . S
C1996 H1985 0.950 . S
C1996 C1994 1.391 . S
C1996 C1997 1.400 . S
C1997 C1991 1.491 . S
C1997 C1996 1.400 . S
C1997 C1998 1.398 . S
C1998 H1986 0.950 . S
C1998 C1997 1.398 . S
C1998 C1999 1.391 . S
C1999 H1987 0.950 . S
C1999 C1995 1.393 . S
C1999 C1998 1.391 . S
H2000 C2008 0.950 . S
H2001 C2013 0.950 . S
H2002 C2010 0.950 . S
H2003 C2012 0.950 . S
H2004 C2014 0.950 . S
H2005 C2016 0.950 . S
H2006 C2018 0.950 . S
H2007 C2019 0.950 . S
C2008 H2000 0.950 . S
C2008 C2009 1.386 1_554 S
C2008 C2010 1.391 . S
C2009 C2008 1.386 1_556 S
C2009 C2013 1.393 . S
C2010 H2002 0.950 . S
C2010 C2008 1.391 . S
C2010 C2011 1.400 1_554 S
C2011 C2010 1.400 1_556 S
C2011 C2012 1.398 . S
C2011 C2017 1.491 . S
C2012 H2003 0.950 . S
C2012 C2011 1.398 . S
C2012 C2013 1.391 . S
C2013 H2001 0.950 . S
C2013 C2009 1.393 . S
C2013 C2012 1.391 . S
C2014 H2004 0.950 . S
C2014 C2015 1.386 . S
C2014 C2016 1.391 . S
C2015 C2014 1.386 . S
C2015 C2019 1.393 1_556 S
C2016 H2005 0.950 . S
C2016 C2014 1.391 . S
C2016 C2017 1.400 . S
C2017 C2011 1.491 . S
C2017 C2016 1.400 . S
C2017 C2018 1.398 1_556 S
C2018 H2006 0.950 . S
C2018 C2017 1.398 1_554 S
C2018 C2019 1.391 . S
C2019 H2007 0.950 . S
C2019 C2015 1.393 1_554 S
C2019 C2018 1.391 . S
H2020 C2028 0.950 . S
H2021 C2033 0.950 . S
H2022 C2030 0.950 . S
H2023 C2032 0.950 . S
H2024 C2034 0.950 . S
H2025 C2036 0.950 . S
H2026 C2038 0.950 . S
H2027 C2039 0.950 . S
C2028 H2020 0.950 . S
C2028 C2029 1.336 1_554 S
C2028 C2030 1.391 . S
C2029 C2028 1.336 1_556 S
C2029 C2033 1.450 . S
C2030 H2022 0.950 . S
C2030 C2028 1.391 . S
C2030 C2031 1.400 1_554 S
C2031 C2030 1.400 1_556 S
C2031 C2032 1.398 . S
C2031 C2037 1.491 . S
C2032 H2023 0.950 . S
C2032 C2031 1.398 . S
C2032 C2033 1.391 . S
C2033 H2021 0.950 . S
C2033 C2029 1.450 . S
C2033 C2032 1.391 . S
C2034 H2024 0.950 . S
C2034 C2035 1.386 . S
C2034 C2036 1.391 . S
C2035 C2034 1.386 . S
C2035 C2039 1.393 1_556 S
C2036 H2025 0.950 . S
C2036 C2034 1.391 . S
C2036 C2037 1.400 . S
C2037 C2031 1.491 . S
C2037 C2036 1.400 . S
C2037 C2038 1.398 1_556 S
C2038 H2026 0.950 . S
C2038 C2037 1.398 1_554 S
C2038 C2039 1.391 . S
C2039 H2027 0.950 . S
C2039 C2035 1.393 1_554 S
C2039 C2038 1.391 . S
H2040 C2048 0.950 . S
H2041 C2053 0.950 . S
H2042 C2050 0.950 . S
H2043 C2052 0.950 . S
H2044 C2054 0.950 . S
H2045 C2056 0.950 . S
H2046 C2058 0.950 . S
H2047 C2059 0.950 . S
C2048 H2040 0.950 . S
C2048 C2049 1.386 . S
C2048 C2050 1.391 . S
C2049 C2048 1.386 . S
C2049 C2053 1.393 . S
C2050 H2042 0.950 . S
C2050 C2048 1.391 . S
C2050 C2051 1.400 . S
C2051 C2050 1.400 . S
C2051 C2052 1.398 . S
C2051 C2057 1.491 . S
C2052 H2043 0.950 . S
C2052 C2051 1.398 . S
C2052 C2053 1.391 . S
C2053 H2041 0.950 . S
C2053 C2049 1.393 . S
C2053 C2052 1.391 . S
C2054 H2044 0.950 . S
C2054 C2055 1.386 . S
C2054 C2056 1.391 . S
C2055 C2054 1.386 . S
C2055 C2059 1.393 . S
C2056 H2045 0.950 . S
C2056 C2054 1.391 . S
C2056 C2057 1.400 . S
C2057 C2051 1.491 . S
C2057 C2056 1.400 . S
C2057 C2058 1.398 . S
C2058 H2046 0.950 . S
C2058 C2057 1.398 . S
C2058 C2059 1.391 . S
C2059 H2047 0.950 . S
C2059 C2055 1.393 . S
C2059 C2058 1.391 . S
H2060 C2068 0.950 . S
H2061 C2073 0.950 . S
H2062 C2070 0.950 . S
H2063 C2072 0.950 . S
H2064 C2074 0.950 . S
H2065 C2076 0.950 . S
H2066 C2078 0.950 . S
H2067 C2079 0.950 . S
C2068 H2060 0.950 . S
C2068 C2069 1.386 . S
C2068 C2070 1.391 . S
C2069 C2068 1.386 . S
C2069 C2073 1.393 . S
C2070 H2062 0.950 . S
C2070 C2068 1.391 . S
C2070 C2071 1.400 . S
C2071 C2070 1.400 . S
C2071 C2072 1.398 . S
C2071 C2077 1.491 . S
C2072 H2063 0.950 . S
C2072 C2071 1.398 . S
C2072 C2073 1.391 . S
C2073 H2061 0.950 . S
C2073 C2069 1.393 . S
C2073 C2072 1.391 . S
C2074 H2064 0.950 . S
C2074 C2075 1.386 . S
C2074 C2076 1.391 . S
C2075 C2074 1.386 . S
C2075 C2079 1.393 . S
C2076 H2065 0.950 . S
C2076 C2074 1.391 . S
C2076 C2077 1.400 . S
C2077 C2071 1.491 . S
C2077 C2076 1.400 . S
C2077 C2078 1.398 . S
C2078 H2066 0.950 . S
C2078 C2077 1.398 . S
C2078 C2079 1.391 . S
C2079 H2067 0.950 . S
C2079 C2075 1.393 . S
C2079 C2078 1.391 . S
H2080 C2088 0.950 . S
H2081 C2093 0.950 . S
H2082 C2090 0.950 . S
H2083 C2092 0.950 . S
H2084 C2094 0.950 . S
H2085 C2096 0.950 . S
H2086 C2098 0.950 . S
H2087 C2099 0.950 . S
C2088 H2080 0.950 . S
C2088 C2089 1.386 . S
C2088 C2090 1.391 . S
C2089 C2088 1.386 . S
C2089 C2093 1.393 . S
C2090 H2082 0.950 . S
C2090 C2088 1.391 . S
C2090 C2091 1.400 . S
C2091 C2090 1.400 . S
C2091 C2092 1.398 . S
C2091 C2097 1.491 . S
C2092 H2083 0.950 . S
C2092 C2091 1.398 . S
C2092 C2093 1.391 . S
C2093 H2081 0.950 . S
C2093 C2089 1.393 . S
C2093 C2092 1.391 . S
C2094 H2084 0.950 . S
C2094 C2095 1.386 . S
C2094 C2096 1.391 . S
C2095 C2094 1.386 . S
C2095 C2099 1.393 . S
C2096 H2085 0.950 . S
C2096 C2094 1.391 . S
C2096 C2097 1.400 . S
C2097 C2091 1.491 . S
C2097 C2096 1.400 . S
C2097 C2098 1.398 . S
C2098 H2086 0.950 . S
C2098 C2097 1.398 . S
C2098 C2099 1.391 . S
C2099 H2087 0.950 . S
C2099 C2095 1.393 . S
C2099 C2098 1.391 . S
H2100 C2108 0.950 . S
H2101 C2113 0.950 . S
H2102 C2110 0.950 . S
H2103 C2112 0.950 . S
H2104 C2114 0.950 . S
H2105 C2116 0.950 . S
H2106 C2118 0.950 . S
H2107 C2119 0.950 . S
C2108 H2100 0.950 . S
C2108 C2109 1.386 . S
C2108 C2110 1.391 . S
C2109 C2108 1.386 . S
C2109 C2113 1.393 . S
C2110 H2102 0.950 . S
C2110 C2108 1.391 . S
C2110 C2111 1.400 . S
C2111 C2110 1.400 . S
C2111 C2112 1.398 . S
C2111 C2117 1.491 . S
C2112 H2103 0.950 . S
C2112 C2111 1.398 . S
C2112 C2113 1.391 . S
C2113 H2101 0.950 . S
C2113 C2109 1.393 . S
C2113 C2112 1.391 . S
C2114 H2104 0.950 . S
C2114 C2115 1.386 . S
C2114 C2116 1.391 . S
C2115 C2114 1.386 . S
C2115 C2119 1.393 . S
C2116 H2105 0.950 . S
C2116 C2114 1.391 . S
C2116 C2117 1.400 . S
C2117 C2111 1.491 . S
C2117 C2116 1.400 . S
C2117 C2118 1.398 . S
C2118 H2106 0.950 . S
C2118 C2117 1.398 . S
C2118 C2119 1.391 . S
C2119 H2107 0.950 . S
C2119 C2115 1.393 . S
C2119 C2118 1.391 . S
H2120 C2128 0.950 . S
H2121 C2133 0.950 . S
H2122 C2130 0.950 . S
H2123 C2132 0.950 . S
H2124 C2134 0.950 . S
H2125 C2136 0.950 . S
H2126 C2138 0.950 . S
H2127 C2139 0.950 . S
C2128 H2120 0.950 . S
C2128 C2129 1.386 . S
C2128 C2130 1.391 . S
C2129 C2128 1.386 . S
C2129 C2133 1.393 . S
C2130 H2122 0.950 . S
C2130 C2128 1.391 . S
C2130 C2131 1.400 . S
C2131 C2130 1.400 . S
C2131 C2132 1.398 . S
C2131 C2137 1.491 . S
C2132 H2123 0.950 . S
C2132 C2131 1.398 . S
C2132 C2133 1.391 . S
C2133 H2121 0.950 . S
C2133 C2129 1.393 . S
C2133 C2132 1.391 . S
C2134 H2124 0.950 . S
C2134 C2135 1.386 . S
C2134 C2136 1.391 . S
C2135 C2134 1.386 . S
C2135 C2139 1.393 . S
C2136 H2125 0.950 . S
C2136 C2134 1.391 . S
C2136 C2137 1.400 . S
C2137 C2131 1.491 . S
C2137 C2136 1.400 . S
C2137 C2138 1.398 . S
C2138 H2126 0.950 . S
C2138 C2137 1.398 . S
C2138 C2139 1.391 . S
C2139 H2127 0.950 . S
C2139 C2135 1.393 . S
C2139 C2138 1.391 . S
H2140 C2148 0.950 . S
H2141 C2153 0.950 . S
H2142 C2150 0.950 . S
H2143 C2152 0.950 . S
H2144 C2154 0.950 . S
H2145 C2156 0.950 . S
H2146 C2158 0.950 . S
H2147 C2159 0.950 . S
C2148 H2140 0.950 . S
C2148 C2149 1.386 . S
C2148 C2150 1.391 . S
C2149 C2148 1.386 . S
C2149 C2153 1.393 . S
C2150 H2142 0.950 . S
C2150 C2148 1.391 . S
C2150 C2151 1.400 . S
C2151 C2150 1.400 . S
C2151 C2152 1.398 . S
C2151 C2157 1.491 . S
C2152 H2143 0.950 . S
C2152 C2151 1.398 . S
C2152 C2153 1.391 . S
C2153 H2141 0.950 . S
C2153 C2149 1.393 . S
C2153 C2152 1.391 . S
C2154 H2144 0.950 . S
C2154 C2155 1.386 . S
C2154 C2156 1.391 . S
C2155 C2154 1.386 . S
C2155 C2159 1.393 . S
C2156 H2145 0.950 . S
C2156 C2154 1.391 . S
C2156 C2157 1.400 . S
C2157 C2151 1.491 . S
C2157 C2156 1.400 . S
C2157 C2158 1.398 . S
C2158 H2146 0.950 . S
C2158 C2157 1.398 . S
C2158 C2159 1.391 . S
C2159 H2147 0.950 . S
C2159 C2155 1.393 . S
C2159 C2158 1.391 . S
H2160 C2168 0.950 . S
H2161 C2173 0.950 . S
H2162 C2170 0.950 . S
H2163 C2172 0.950 . S
H2164 C2174 0.950 . S
H2165 C2176 0.950 . S
H2166 C2178 0.950 . S
H2167 C2179 0.950 . S
C2168 H2160 0.950 . S
C2168 C2169 1.386 . S
C2168 C2170 1.391 . S
C2169 C2168 1.386 . S
C2169 C2173 1.393 . S
C2170 H2162 0.950 . S
C2170 C2168 1.391 . S
C2170 C2171 1.400 . S
C2171 C2170 1.400 . S
C2171 C2172 1.398 . S
C2171 C2177 1.491 . S
C2172 H2163 0.950 . S
C2172 C2171 1.398 . S
C2172 C2173 1.391 . S
C2173 H2161 0.950 . S
C2173 C2169 1.393 . S
C2173 C2172 1.391 . S
C2174 H2164 0.950 . S
C2174 C2175 1.386 . S
C2174 C2176 1.391 . S
C2175 C2174 1.386 . S
C2175 C2179 1.393 . S
C2176 H2165 0.950 . S
C2176 C2174 1.391 . S
C2176 C2177 1.400 . S
C2177 C2171 1.491 . S
C2177 C2176 1.400 . S
C2177 C2178 1.398 . S
C2178 H2166 0.950 . S
C2178 C2177 1.398 . S
C2178 C2179 1.391 . S
C2179 H2167 0.950 . S
C2179 C2175 1.393 . S
C2179 C2178 1.391 . S
H2180 C2188 0.950 . S
H2181 C2193 0.950 . S
H2182 C2190 0.950 . S
H2183 C2192 0.950 . S
H2184 C2194 0.950 . S
H2185 C2196 0.950 . S
H2186 C2198 0.950 . S
H2187 C2199 0.950 . S
C2188 H2180 0.950 . S
C2188 C2189 1.386 1_565 S
C2188 C2190 1.391 . S
C2189 C2188 1.386 1_545 S
C2189 C2193 1.393 . S
C2190 H2182 0.950 . S
C2190 C2188 1.391 . S
C2190 C2191 1.400 . S
C2191 C2190 1.400 . S
C2191 C2192 1.398 1_565 S
C2191 C2197 1.491 . S
C2192 H2183 0.950 . S
C2192 C2191 1.398 1_545 S
C2192 C2193 1.391 . S
C2193 H2181 0.950 . S
C2193 C2189 1.393 . S
C2193 C2192 1.391 . S
C2194 H2184 0.950 . S
C2194 C2195 1.386 . S
C2194 C2196 1.391 . S
C2195 C2194 1.386 . S
C2195 C2199 1.393 . S
C2196 H2185 0.950 . S
C2196 C2194 1.391 . S
C2196 C2197 1.400 . S
C2197 C2191 1.491 . S
C2197 C2196 1.400 . S
C2197 C2198 1.398 . S
C2198 H2186 0.950 . S
C2198 C2197 1.398 . S
C2198 C2199 1.391 . S
C2199 H2187 0.950 . S
C2199 C2195 1.393 . S
C2199 C2198 1.391 . S
H2200 C2208 0.950 . S
H2201 C2213 0.950 . S
H2202 C2210 0.950 . S
H2203 C2212 0.950 . S
H2204 C2214 0.950 . S
H2205 C2216 0.950 . S
H2206 C2218 0.950 . S
H2207 C2219 0.950 . S
C2208 H2200 0.950 . S
C2208 C2209 1.386 . S
C2208 C2210 1.391 . S
C2209 C2208 1.386 . S
C2209 C2213 1.393 . S
C2210 H2202 0.950 . S
C2210 C2208 1.391 . S
C2210 C2211 1.400 . S
C2211 C2210 1.400 . S
C2211 C2212 1.398 . S
C2211 C2217 1.491 . S
C2212 H2203 0.950 . S
C2212 C2211 1.398 . S
C2212 C2213 1.391 . S
C2213 H2201 0.950 . S
C2213 C2209 1.393 . S
C2213 C2212 1.391 . S
C2214 H2204 0.950 . S
C2214 C2215 1.386 . S
C2214 C2216 1.391 . S
C2215 C2214 1.386 . S
C2215 C2219 1.393 1_655 S
C2216 H2205 0.950 . S
C2216 C2214 1.391 . S
C2216 C2217 1.400 1_655 S
C2217 C2211 1.491 . S
C2217 C2216 1.400 1_455 S
C2217 C2218 1.398 . S
C2218 H2206 0.950 . S
C2218 C2217 1.398 . S
C2218 C2219 1.391 . S
C2219 H2207 0.950 . S
C2219 C2215 1.393 1_455 S
C2219 C2218 1.391 . S
H2220 C2228 0.950 . S
H2221 C2233 0.950 . S
H2222 C2230 0.950 . S
H2223 C2232 0.950 . S
H2224 C2234 0.950 . S
H2225 C2236 0.950 . S
H2226 C2238 0.950 . S
H2227 C2239 0.950 . S
C2228 H2220 0.950 . S
C2228 C2229 1.386 . S
C2228 C2230 1.391 . S
C2229 C2228 1.386 . S
C2229 C2233 1.393 . S
C2230 H2222 0.950 . S
C2230 C2228 1.391 . S
C2230 C2231 1.400 . S
C2231 C2230 1.400 . S
C2231 C2232 1.398 . S
C2231 C2237 1.491 . S
C2232 H2223 0.950 . S
C2232 C2231 1.398 . S
C2232 C2233 1.391 . S
C2233 H2221 0.950 . S
C2233 C2229 1.393 . S
C2233 C2232 1.391 . S
C2234 H2224 0.950 . S
C2234 C2235 1.386 . S
C2234 C2236 1.391 . S
C2235 C2234 1.386 . S
C2235 C2239 1.393 . S
C2236 H2225 0.950 . S
C2236 C2234 1.391 . S
C2236 C2237 1.400 . S
C2237 C2231 1.491 . S
C2237 C2236 1.400 . S
C2237 C2238 1.398 . S
C2238 H2226 0.950 . S
C2238 C2237 1.398 . S
C2238 C2239 1.391 . S
C2239 H2227 0.950 . S
C2239 C2235 1.393 . S
C2239 C2238 1.391 . S
H2240 C2248 0.950 . S
H2241 C2253 0.950 . S
H2242 C2250 0.950 . S
H2243 C2252 0.950 . S
H2244 C2254 0.950 . S
H2245 C2256 0.950 . S
H2246 C2258 0.950 . S
H2247 C2259 0.950 . S
C2248 H2240 0.950 . S
C2248 C2249 1.386 . S
C2248 C2250 1.391 . S
C2249 C2248 1.386 . S
C2249 C2253 1.393 1_565 S
C2250 H2242 0.950 . S
C2250 C2248 1.391 . S
C2250 C2251 1.400 1_565 S
C2251 C2250 1.400 1_545 S
C2251 C2252 1.398 . S
C2251 C2257 1.491 . S
C2252 H2243 0.950 . S
C2252 C2251 1.398 . S
C2252 C2253 1.391 . S
C2253 H2241 0.950 . S
C2253 C2249 1.393 1_545 S
C2253 C2252 1.391 . S
C2254 H2244 0.950 . S
C2254 C2255 1.386 . S
C2254 C2256 1.391 . S
C2255 C2254 1.386 . S
C2255 C2259 1.393 . S
C2256 H2245 0.950 . S
C2256 C2254 1.391 . S
C2256 C2257 1.400 . S
C2257 C2251 1.491 . S
C2257 C2256 1.400 . S
C2257 C2258 1.398 . S
C2258 H2246 0.950 . S
C2258 C2257 1.398 . S
C2258 C2259 1.391 . S
C2259 H2247 0.950 . S
C2259 C2255 1.393 . S
C2259 C2258 1.391 . S
H2260 C2268 0.950 . S
H2261 C2273 0.950 . S
H2262 C2270 0.950 . S
H2263 C2272 0.950 . S
H2264 C2274 0.950 . S
H2265 C2276 0.950 . S
H2266 C2278 0.950 . S
H2267 C2279 0.950 . S
C2268 H2260 0.950 . S
C2268 C2269 1.386 . S
C2268 C2270 1.391 . S
C2269 C2268 1.386 . S
C2269 C2273 1.393 . S
C2270 H2262 0.950 . S
C2270 C2268 1.391 . S
C2270 C2271 1.400 . S
C2271 C2270 1.400 . S
C2271 C2272 1.398 . S
C2271 C2277 1.491 . S
C2272 H2263 0.950 . S
C2272 C2271 1.398 . S
C2272 C2273 1.391 . S
C2273 H2261 0.950 . S
C2273 C2269 1.393 . S
C2273 C2272 1.391 . S
C2274 H2264 0.950 . S
C2274 C2275 1.386 . S
C2274 C2276 1.391 . S
C2275 C2274 1.386 . S
C2275 C2279 1.393 1_455 S
C2276 H2265 0.950 . S
C2276 C2274 1.391 . S
C2276 C2277 1.400 1_455 S
C2277 C2271 1.491 . S
C2277 C2276 1.400 1_655 S
C2277 C2278 1.398 . S
C2278 H2266 0.950 . S
C2278 C2277 1.398 . S
C2278 C2279 1.391 . S
C2279 H2267 0.950 . S
C2279 C2275 1.393 1_655 S
C2279 C2278 1.391 . S
H2280 C2288 0.950 . S
H2281 C2293 0.950 . S
H2282 C2290 0.950 . S
H2283 C2292 0.950 . S
H2284 C2294 0.950 . S
H2285 C2296 0.950 . S
H2286 C2298 0.950 . S
H2287 C2299 0.950 . S
C2288 H2280 0.950 . S
C2288 C2289 1.386 . S
C2288 C2290 1.391 . S
C2289 C2288 1.386 . S
C2289 C2293 1.393 . S
C2290 H2282 0.950 . S
C2290 C2288 1.391 . S
C2290 C2291 1.400 . S
C2291 C2290 1.400 . S
C2291 C2292 1.398 . S
C2291 C2297 1.491 . S
C2292 H2283 0.950 . S
C2292 C2291 1.398 . S
C2292 C2293 1.391 . S
C2293 H2281 0.950 . S
C2293 C2289 1.393 . S
C2293 C2292 1.391 . S
C2294 H2284 0.950 . S
C2294 C2295 1.386 . S
C2294 C2296 1.391 . S
C2295 C2294 1.386 . S
C2295 C2299 1.393 . S
C2296 H2285 0.950 . S
C2296 C2294 1.391 . S
C2296 C2297 1.400 . S
C2297 C2291 1.491 . S
C2297 C2296 1.400 . S
C2297 C2298 1.398 . S
C2298 H2286 0.950 . S
C2298 C2297 1.398 . S
C2298 C2299 1.391 . S
C2299 H2287 0.950 . S
C2299 C2295 1.393 . S
C2299 C2298 1.391 . S
H2300 C2308 0.950 . S
H2301 C2313 0.950 . S
H2302 C2310 0.950 1_565 S
H2303 C2312 0.950 . S
H2304 C2314 0.950 . S
H2305 C2316 0.950 . S
H2306 C2318 0.950 . S
H2307 C2319 0.950 . S
C2308 H2300 0.950 . S
C2308 C2309 1.386 . S
C2308 C2310 1.391 . S
C2309 C2308 1.386 . S
C2309 C2313 1.393 . S
C2310 H2302 0.950 1_545 S
C2310 C2308 1.391 . S
C2310 C2311 1.400 . S
C2311 C2310 1.400 . S
C2311 C2312 1.398 . S
C2311 C2317 1.491 . S
C2312 H2303 0.950 . S
C2312 C2311 1.398 . S
C2312 C2313 1.391 . S
C2313 H2301 0.950 . S
C2313 C2309 1.393 . S
C2313 C2312 1.391 . S
C2314 H2304 0.950 . S
C2314 C2315 1.386 1_545 S
C2314 C2316 1.391 . S
C2315 C2314 1.386 1_565 S
C2315 C2319 1.393 . S
C2316 H2305 0.950 . S
C2316 C2314 1.391 . S
C2316 C2317 1.400 . S
C2317 C2311 1.491 . S
C2317 C2316 1.400 . S
C2317 C2318 1.398 1_545 S
C2318 H2306 0.950 . S
C2318 C2317 1.398 1_565 S
C2318 C2319 1.391 . S
C2319 H2307 0.950 . S
C2319 C2315 1.393 . S
C2319 C2318 1.391 . S
H2320 C2328 0.950 . S
H2321 C2333 0.950 . S
H2322 C2330 0.950 . S
H2323 C2332 0.950 . S
H2324 C2334 0.950 . S
H2325 C2336 0.950 . S
H2326 C2338 0.950 . S
H2327 C2339 0.950 . S
C2328 H2320 0.950 . S
C2328 C2329 1.386 . S
C2328 C2330 1.391 . S
C2329 C2328 1.386 . S
C2329 C2333 1.393 . S
C2330 H2322 0.950 . S
C2330 C2328 1.391 . S
C2330 C2331 1.400 . S
C2331 C2330 1.400 . S
C2331 C2332 1.398 . S
C2331 C2337 1.491 . S
C2332 H2323 0.950 . S
C2332 C2331 1.398 . S
C2332 C2333 1.391 . S
C2333 H2321 0.950 . S
C2333 C2329 1.393 . S
C2333 C2332 1.391 . S
C2334 H2324 0.950 . S
C2334 C2335 1.386 1_655 S
C2334 C2336 1.391 . S
C2335 C2334 1.386 1_455 S
C2335 C2339 1.393 . S
C2336 H2325 0.950 . S
C2336 C2334 1.391 . S
C2336 C2337 1.400 . S
C2337 C2331 1.491 . S
C2337 C2336 1.400 . S
C2337 C2338 1.398 1_655 S
C2338 H2326 0.950 . S
C2338 C2337 1.398 1_455 S
C2338 C2339 1.391 . S
C2339 H2327 0.950 . S
C2339 C2335 1.393 . S
C2339 C2338 1.391 . S
H2340 C2348 0.950 . S
H2341 C2353 0.950 . S
H2342 C2350 0.950 . S
H2343 C2352 0.950 . S
H2344 C2354 0.950 . S
H2345 C2356 0.950 . S
H2346 C2358 0.950 . S
H2347 C2359 0.950 . S
C2348 H2340 0.950 . S
C2348 C2349 1.386 . S
C2348 C2350 1.391 . S
C2349 C2348 1.386 . S
C2349 C2353 1.393 . S
C2350 H2342 0.950 . S
C2350 C2348 1.391 . S
C2350 C2351 1.400 . S
C2351 C2350 1.400 . S
C2351 C2352 1.398 . S
C2351 C2357 1.491 . S
C2352 H2343 0.950 . S
C2352 C2351 1.398 . S
C2352 C2353 1.391 . S
C2353 H2341 0.950 . S
C2353 C2349 1.393 . S
C2353 C2352 1.391 . S
C2354 H2344 0.950 . S
C2354 C2355 1.386 . S
C2354 C2356 1.391 . S
C2355 C2354 1.386 . S
C2355 C2359 1.393 . S
C2356 H2345 0.950 . S
C2356 C2354 1.391 . S
C2356 C2357 1.400 . S
C2357 C2351 1.491 . S
C2357 C2356 1.400 . S
C2357 C2358 1.398 . S
C2358 H2346 0.950 . S
C2358 C2357 1.398 . S
C2358 C2359 1.391 . S
C2359 H2347 0.950 . S
C2359 C2355 1.393 . S
C2359 C2358 1.391 . S
H2360 C2368 0.950 . S
H2361 C2373 0.950 . S
H2362 C2370 0.950 . S
H2363 C2372 0.950 . S
H2364 C2374 0.950 . S
H2365 C2376 0.950 . S
H2366 C2378 0.950 . S
H2367 C2379 0.950 . S
C2368 H2360 0.950 . S
C2368 C2369 1.386 . S
C2368 C2370 1.391 . S
C2369 C2368 1.386 . S
C2369 C2373 1.393 1_545 S
C2370 H2362 0.950 . S
C2370 C2368 1.391 . S
C2370 C2371 1.400 1_545 S
C2371 C2370 1.400 1_565 S
C2371 C2372 1.398 . S
C2371 C2377 1.491 . S
C2372 H2363 0.950 . S
C2372 C2371 1.398 . S
C2372 C2373 1.391 . S
C2373 H2361 0.950 . S
C2373 C2369 1.393 1_565 S
C2373 C2372 1.391 . S
C2374 H2364 0.950 . S
C2374 C2375 1.386 . S
C2374 C2376 1.391 . S
C2375 C2374 1.386 . S
C2375 C2379 1.393 . S
C2376 H2365 0.950 . S
C2376 C2374 1.391 . S
C2376 C2377 1.400 . S
C2377 C2371 1.491 . S
C2377 C2376 1.400 . S
C2377 C2378 1.398 . S
C2378 H2366 0.950 . S
C2378 C2377 1.398 . S
C2378 C2379 1.391 . S
C2379 H2367 0.950 . S
C2379 C2375 1.393 . S
C2379 C2378 1.391 . S
H2380 C2388 0.950 . S
H2381 C2393 0.950 . S
H2382 C2390 0.950 . S
H2383 C2392 0.950 . S
H2384 C2394 0.950 . S
H2385 C2396 0.950 . S
H2386 C2398 0.950 . S
H2387 C2399 0.950 . S
C2388 H2380 0.950 . S
C2388 C2389 1.386 1_455 S
C2388 C2390 1.391 . S
C2389 C2388 1.386 1_655 S
C2389 C2393 1.393 . S
C2390 H2382 0.950 . S
C2390 C2388 1.391 . S
C2390 C2391 1.400 . S
C2391 C2390 1.400 . S
C2391 C2392 1.398 . S
C2391 C2397 1.491 . S
C2392 H2383 0.950 . S
C2392 C2391 1.398 . S
C2392 C2393 1.391 1_455 S
C2393 H2381 0.950 . S
C2393 C2389 1.393 . S
C2393 C2392 1.391 1_655 S
C2394 H2384 0.950 . S
C2394 C2395 1.386 . S
C2394 C2396 1.391 . S
C2395 C2394 1.386 . S
C2395 C2399 1.393 . S
C2396 H2385 0.950 . S
C2396 C2394 1.391 . S
C2396 C2397 1.400 . S
C2397 C2391 1.491 . S
C2397 C2396 1.400 . S
C2397 C2398 1.398 . S
C2398 H2386 0.950 . S
C2398 C2397 1.398 . S
C2398 C2399 1.391 . S
C2399 H2387 0.950 . S
C2399 C2395 1.393 . S
C2399 C2398 1.391 . S
H2400 C2408 0.950 . S
H2401 C2413 0.950 . S
H2402 C2410 0.950 . S
H2403 C2412 0.950 . S
H2404 C2414 0.950 . S
H2405 C2416 0.950 . S
H2406 C2418 0.950 . S
H2407 C2419 0.950 . S
C2408 H2400 0.950 . S
C2408 C2409 1.386 . S
C2408 C2410 1.391 . S
C2409 C2408 1.386 . S
C2409 C2413 1.393 . S
C2410 H2402 0.950 . S
C2410 C2408 1.391 . S
C2410 C2411 1.400 1_655 S
C2411 C2410 1.400 1_455 S
C2411 C2412 1.398 1_455 S
C2411 C2417 1.491 . S
C2412 H2403 0.950 . S
C2412 C2411 1.398 1_655 S
C2412 C2413 1.391 . S
C2413 H2401 0.950 . S
C2413 C2409 1.393 . S
C2413 C2412 1.391 . S
C2414 H2404 0.950 . S
C2414 C2415 1.386 . S
C2414 C2416 1.391 . S
C2415 C2414 1.386 . S
C2415 C2419 1.393 . S
C2416 H2405 0.950 . S
C2416 C2414 1.391 . S
C2416 C2417 1.400 . S
C2417 C2411 1.491 . S
C2417 C2416 1.400 . S
C2417 C2418 1.398 . S
C2418 H2406 0.950 . S
C2418 C2417 1.398 . S
C2418 C2419 1.391 . S
C2419 H2407 0.950 . S
C2419 C2415 1.393 . S
C2419 C2418 1.391 . S
H2420 C2428 0.950 . S
H2421 C2433 0.950 . S
H2422 C2430 0.950 . S
H2423 C2432 0.950 . S
H2424 C2434 0.950 . S
H2425 C2436 0.950 . S
H2426 C2438 0.950 . S
H2427 C2439 0.950 . S
C2428 H2420 0.950 . S
C2428 C2429 1.386 . S
C2428 C2430 1.391 . S
C2429 C2428 1.386 . S
C2429 C2433 1.393 . S
C2430 H2422 0.950 . S
C2430 C2428 1.391 . S
C2430 C2431 1.400 . S
C2431 C2430 1.400 . S
C2431 C2432 1.398 . S
C2431 C2437 1.491 . S
C2432 H2423 0.950 . S
C2432 C2431 1.398 . S
C2432 C2433 1.391 . S
C2433 H2421 0.950 . S
C2433 C2429 1.393 . S
C2433 C2432 1.391 . S
C2434 H2424 0.950 . S
C2434 C2435 1.386 . S
C2434 C2436 1.391 . S
C2435 C2434 1.386 . S
C2435 C2439 1.393 . S
C2436 H2425 0.950 . S
C2436 C2434 1.391 . S
C2436 C2437 1.400 . S
C2437 C2431 1.491 . S
C2437 C2436 1.400 . S
C2437 C2438 1.398 . S
C2438 H2426 0.950 . S
C2438 C2437 1.398 . S
C2438 C2439 1.391 . S
C2439 H2427 0.950 . S
C2439 C2435 1.393 . S
C2439 C2438 1.391 . S
H2440 C2448 0.950 . S
H2441 C2453 0.950 . S
H2442 C2450 0.950 . S
H2443 C2452 0.950 . S
H2444 C2454 0.950 . S
H2445 C2456 0.950 . S
H2446 C2458 0.950 . S
H2447 C2459 0.950 . S
C2448 H2440 0.950 . S
C2448 C2449 1.386 . S
C2448 C2450 1.391 . S
C2449 C2448 1.386 . S
C2449 C2453 1.393 . S
C2450 H2442 0.950 . S
C2450 C2448 1.391 . S
C2450 C2451 1.400 . S
C2451 C2450 1.400 . S
C2451 C2452 1.398 . S
C2451 C2457 1.491 . S
C2452 H2443 0.950 . S
C2452 C2451 1.398 . S
C2452 C2453 1.391 . S
C2453 H2441 0.950 . S
C2453 C2449 1.393 . S
C2453 C2452 1.391 . S
C2454 H2444 0.950 . S
C2454 C2455 1.386 . S
C2454 C2456 1.391 . S
C2455 C2454 1.386 . S
C2455 C2459 1.393 . S
C2456 H2445 0.950 . S
C2456 C2454 1.391 . S
C2456 C2457 1.400 1_545 S
C2457 C2451 1.491 . S
C2457 C2456 1.400 1_565 S
C2457 C2458 1.398 1_565 S
C2458 H2446 0.950 . S
C2458 C2457 1.398 1_545 S
C2458 C2459 1.391 . S
C2459 H2447 0.950 . S
C2459 C2455 1.393 . S
C2459 C2458 1.391 . S
H2460 C2468 0.950 . S
H2461 C2473 0.950 . S
H2462 C2470 0.950 . S
H2463 C2472 0.950 . S
H2464 C2474 0.950 . S
H2465 C2476 0.950 . S
H2466 C2478 0.950 . S
H2467 C2479 0.950 . S
C2468 H2460 0.950 . S
C2468 C2469 1.386 . S
C2468 C2470 1.391 . S
C2469 C2468 1.386 . S
C2469 C2473 1.393 . S
C2470 H2462 0.950 . S
C2470 C2468 1.391 . S
C2470 C2471 1.400 . S
C2471 C2470 1.400 . S
C2471 C2472 1.398 . S
C2471 C2477 1.491 . S
C2472 H2463 0.950 . S
C2472 C2471 1.398 . S
C2472 C2473 1.391 . S
C2473 H2461 0.950 . S
C2473 C2469 1.393 . S
C2473 C2472 1.391 . S
C2474 H2464 0.950 . S
C2474 C2475 1.386 . S
C2474 C2476 1.391 1_655 S
C2475 C2474 1.386 . S
C2475 C2479 1.393 1_655 S
C2476 H2465 0.950 . S
C2476 C2474 1.391 1_455 S
C2476 C2477 1.400 . S
C2477 C2471 1.491 . S
C2477 C2476 1.400 . S
C2477 C2478 1.398 . S
C2478 H2466 0.950 . S
C2478 C2477 1.398 . S
C2478 C2479 1.391 . S
C2479 H2467 0.950 . S
C2479 C2475 1.393 1_455 S
C2479 C2478 1.391 . S
H2480 C2488 0.950 . S
H2481 C2493 0.950 . S
H2482 C2490 0.950 . S
H2483 C2492 0.950 . S
H2484 C2494 0.950 . S
H2485 C2496 0.950 . S
H2486 C2498 0.950 . S
H2487 C2499 0.950 . S
C2488 H2480 0.950 . S
C2488 C2489 1.386 . S
C2488 C2490 1.391 . S
C2489 C2488 1.386 . S
C2489 C2493 1.393 . S
C2490 H2482 0.950 . S
C2490 C2488 1.391 . S
C2490 C2491 1.400 . S
C2491 C2490 1.400 . S
C2491 C2492 1.398 . S
C2491 C2497 1.491 . S
C2492 H2483 0.950 . S
C2492 C2491 1.398 . S
C2492 C2493 1.391 . S
C2493 H2481 0.950 . S
C2493 C2489 1.393 . S
C2493 C2492 1.391 . S
C2494 H2484 0.950 . S
C2494 C2495 1.386 . S
C2494 C2496 1.391 . S
C2495 C2494 1.386 . S
C2495 C2499 1.393 . S
C2496 H2485 0.950 . S
C2496 C2494 1.391 . S
C2496 C2497 1.400 . S
C2497 C2491 1.491 . S
C2497 C2496 1.400 . S
C2497 C2498 1.398 . S
C2498 H2486 0.950 . S
C2498 C2497 1.398 . S
C2498 C2499 1.391 . S
C2499 H2487 0.950 . S
C2499 C2495 1.393 . S
C2499 C2498 1.391 . S
H2500 C2508 0.950 . S
H2501 C2513 0.950 . S
H2502 C2510 0.950 . S
H2503 C2512 0.950 . S
H2504 C2514 0.950 . S
H2505 C2516 0.950 . S
H2506 C2518 0.950 1_545 S
H2507 C2519 0.950 . S
C2508 H2500 0.950 . S
C2508 C2509 1.386 . S
C2508 C2510 1.391 . S
C2509 C2508 1.386 . S
C2509 C2513 1.393 . S
C2510 H2502 0.950 . S
C2510 C2508 1.391 . S
C2510 C2511 1.400 . S
C2511 C2510 1.400 . S
C2511 C2512 1.398 . S
C2511 C2517 1.491 . S
C2512 H2503 0.950 . S
C2512 C2511 1.398 . S
C2512 C2513 1.391 . S
C2513 H2501 0.950 . S
C2513 C2509 1.393 . S
C2513 C2512 1.391 . S
C2514 H2504 0.950 . S
C2514 C2515 1.386 1_565 S
C2514 C2516 1.391 . S
C2515 C2514 1.386 1_545 S
C2515 C2519 1.393 . S
C2516 H2505 0.950 . S
C2516 C2514 1.391 . S
C2516 C2517 1.400 . S
C2517 C2511 1.491 . S
C2517 C2516 1.400 . S
C2517 C2518 1.398 . S
C2518 H2506 0.950 1_565 S
C2518 C2517 1.398 . S
C2518 C2519 1.391 1_565 S
C2519 H2507 0.950 . S
C2519 C2515 1.393 . S
C2519 C2518 1.391 1_545 S
H2520 C2528 0.950 . S
H2521 C2533 0.950 . S
H2522 C2530 0.950 . S
H2523 C2532 0.950 . S
H2524 C2534 0.950 . S
H2525 C2536 0.950 . S
H2526 C2538 0.950 . S
H2527 C2539 0.950 . S
C2528 H2520 0.950 . S
C2528 C2529 1.386 . S
C2528 C2530 1.391 . S
C2529 C2528 1.386 . S
C2529 C2533 1.393 . S
C2530 H2522 0.950 . S
C2530 C2528 1.391 . S
C2530 C2531 1.400 . S
C2531 C2530 1.400 . S
C2531 C2532 1.398 . S
C2531 C2537 1.491 . S
C2532 H2523 0.950 . S
C2532 C2531 1.398 . S
C2532 C2533 1.391 . S
C2533 H2521 0.950 . S
C2533 C2529 1.393 . S
C2533 C2532 1.391 . S
C2534 H2524 0.950 . S
C2534 C2535 1.386 . S
C2534 C2536 1.391 1_545 S
C2535 C2534 1.386 . S
C2535 C2539 1.393 1_545 S
C2536 H2525 0.950 . S
C2536 C2534 1.391 1_565 S
C2536 C2537 1.400 . S
C2537 C2531 1.491 . S
C2537 C2536 1.400 . S
C2537 C2538 1.398 . S
C2538 H2526 0.950 . S
C2538 C2537 1.398 . S
C2538 C2539 1.391 . S
C2539 H2527 0.950 . S
C2539 C2535 1.393 1_565 S
C2539 C2538 1.391 . S
H2540 C2548 0.950 1_655 S
H2541 C2553 0.950 . S
H2542 C2550 0.950 . S
H2543 C2552 0.950 . S
H2544 C2554 0.950 . S
H2545 C2556 0.950 . S
H2546 C2558 0.950 . S
H2547 C2559 0.950 . S
C2548 H2540 0.950 1_455 S
C2548 C2549 1.386 1_455 S
C2548 C2550 1.391 . S
C2549 C2548 1.386 1_655 S
C2549 C2553 1.393 1_655 S
C2550 H2542 0.950 . S
C2550 C2548 1.391 . S
C2550 C2551 1.400 . S
C2551 C2550 1.400 . S
C2551 C2552 1.398 . S
C2551 C2557 1.491 . S
C2552 H2543 0.950 . S
C2552 C2551 1.398 . S
C2552 C2553 1.391 . S
C2553 H2541 0.950 . S
C2553 C2549 1.393 1_455 S
C2553 C2552 1.391 . S
C2554 H2544 0.950 . S
C2554 C2555 1.386 . S
C2554 C2556 1.391 . S
C2555 C2554 1.386 . S
C2555 C2559 1.393 . S
C2556 H2545 0.950 . S
C2556 C2554 1.391 . S
C2556 C2557 1.400 . S
C2557 C2551 1.491 . S
C2557 C2556 1.400 . S
C2557 C2558 1.398 . S
C2558 H2546 0.950 . S
C2558 C2557 1.398 . S
C2558 C2559 1.391 . S
C2559 H2547 0.950 . S
C2559 C2555 1.393 . S
C2559 C2558 1.391 . S
H2560 C2568 0.950 . S
H2561 C2573 0.950 . S
H2562 C2570 0.950 . S
H2563 C2572 0.950 . S
H2564 C2574 0.950 . S
H2565 C2576 0.950 . S
H2566 C2578 0.950 . S
H2567 C2579 0.950 . S
C2568 H2560 0.950 . S
C2568 C2569 1.386 . S
C2568 C2570 1.391 . S
C2569 C2568 1.386 . S
C2569 C2573 1.393 . S
C2570 H2562 0.950 . S
C2570 C2568 1.391 . S
C2570 C2571 1.400 . S
C2571 C2570 1.400 . S
C2571 C2572 1.398 . S
C2571 C2577 1.491 . S
C2572 H2563 0.950 . S
C2572 C2571 1.398 . S
C2572 C2573 1.391 . S
C2573 H2561 0.950 . S
C2573 C2569 1.393 . S
C2573 C2572 1.391 . S
C2574 H2564 0.950 . S
C2574 C2575 1.386 . S
C2574 C2576 1.391 . S
C2575 C2574 1.386 . S
C2575 C2579 1.393 . S
C2576 H2565 0.950 . S
C2576 C2574 1.391 . S
C2576 C2577 1.400 . S
C2577 C2571 1.491 . S
C2577 C2576 1.400 . S
C2577 C2578 1.398 . S
C2578 H2566 0.950 . S
C2578 C2577 1.398 . S
C2578 C2579 1.391 . S
C2579 H2567 0.950 . S
C2579 C2575 1.393 . S
C2579 C2578 1.391 . S
H2580 C2588 0.950 . S
H2581 C2593 0.950 . S
H2582 C2590 0.950 . S
H2583 C2592 0.950 . S
H2584 C2594 0.950 . S
H2585 C2596 0.950 . S
H2586 C2598 0.950 . S
H2587 C2599 0.950 . S
C2588 H2580 0.950 . S
C2588 C2589 1.397 . S
C2588 C2590 1.391 . S
C2589 C2588 1.397 . S
C2589 C2593 1.381 1_554 S
C2590 H2582 0.950 . S
C2590 C2588 1.391 . S
C2590 C2591 1.400 1_554 S
C2591 C2590 1.400 1_556 S
C2591 C2592 1.398 . S
C2591 C2597 1.491 1_565 S
C2592 H2583 0.950 . S
C2592 C2591 1.398 . S
C2592 C2593 1.391 . S
C2593 H2581 0.950 . S
C2593 C2589 1.381 1_556 S
C2593 C2592 1.391 . S
C2594 H2584 0.950 . S
C2594 C2595 1.386 . S
C2594 C2596 1.391 . S
C2595 C2594 1.386 . S
C2595 C2599 1.393 1_556 S
C2596 H2585 0.950 . S
C2596 C2594 1.391 . S
C2596 C2597 1.400 . S
C2597 C2591 1.491 1_545 S
C2597 C2596 1.400 . S
C2597 C2598 1.398 1_556 S
C2598 H2586 0.950 . S
C2598 C2597 1.398 1_554 S
C2598 C2599 1.391 . S
C2599 H2587 0.950 . S
C2599 C2595 1.393 1_554 S
C2599 C2598 1.391 . S
H2600 C2608 0.950 . S
H2601 C2613 0.950 . S
H2602 C2610 0.950 . S
H2603 C2612 0.950 . S
H2604 C2614 0.950 . S
H2605 C2616 0.950 . S
H2606 C2618 0.950 . S
H2607 C2619 0.950 . S
C2608 H2600 0.950 . S
C2608 C2609 1.370 1_556 S
C2608 C2610 1.391 . S
C2609 C2608 1.370 1_554 S
C2609 C2613 1.407 . S
C2610 H2602 0.950 . S
C2610 C2608 1.391 . S
C2610 C2611 1.400 . S
C2611 C2610 1.400 . S
C2611 C2612 1.398 1_556 S
C2611 C2617 1.491 1_455 S
C2612 H2603 0.950 . S
C2612 C2611 1.398 1_554 S
C2612 C2613 1.391 . S
C2613 H2601 0.950 . S
C2613 C2609 1.407 . S
C2613 C2612 1.391 . S
C2614 H2604 0.950 . S
C2614 C2615 1.386 1_554 S
C2614 C2616 1.391 . S
C2615 C2614 1.386 1_556 S
C2615 C2619 1.393 . S
C2616 H2605 0.950 . S
C2616 C2614 1.391 . S
C2616 C2617 1.400 1_554 S
C2617 C2611 1.491 1_655 S
C2617 C2616 1.400 1_556 S
C2617 C2618 1.398 . S
C2618 H2606 0.950 . S
C2618 C2617 1.398 . S
C2618 C2619 1.391 . S
C2619 H2607 0.950 . S
C2619 C2615 1.393 . S
C2619 C2618 1.391 . S
H2620 C2628 0.950 . S
H2621 C2633 0.950 . S
H2622 C2630 0.950 . S
H2623 C2632 0.950 . S
H2624 C2634 0.950 . S
H2625 C2636 0.950 . S
H2626 C2638 0.950 . S
H2627 C2639 0.950 . S
C2628 H2620 0.950 . S
C2628 C2629 1.386 1_554 S
C2628 C2630 1.391 . S
C2629 C2628 1.386 1_556 S
C2629 C2633 1.393 . S
C2630 H2622 0.950 . S
C2630 C2628 1.391 . S
C2630 C2631 1.400 1_554 S
C2631 C2630 1.400 1_556 S
C2631 C2632 1.398 . S
C2631 C2637 1.491 . S
C2632 H2623 0.950 . S
C2632 C2631 1.398 . S
C2632 C2633 1.391 . S
C2633 H2621 0.950 . S
C2633 C2629 1.393 . S
C2633 C2632 1.391 . S
C2634 H2624 0.950 . S
C2634 C2635 1.401 . S
C2634 C2636 1.391 . S
C2635 C2634 1.401 . S
C2635 C2639 1.380 1_556 S
C2636 H2625 0.950 . S
C2636 C2634 1.391 . S
C2636 C2637 1.400 . S
C2637 C2631 1.491 . S
C2637 C2636 1.400 . S
C2637 C2638 1.398 1_556 S
C2638 H2626 0.950 . S
C2638 C2637 1.398 1_554 S
C2638 C2639 1.391 . S
C2639 H2627 0.950 . S
C2639 C2635 1.380 1_554 S
C2639 C2638 1.391 . S
H2640 C2648 0.950 . S
H2641 C2653 0.950 . S
H2642 C2650 0.950 . S
H2643 C2652 0.950 . S
H2644 C2654 0.950 . S
H2645 C2656 0.950 . S
H2646 C2658 0.950 . S
H2647 C2659 0.950 . S
C2648 H2640 0.950 . S
C2648 C2649 1.386 . S
C2648 C2650 1.391 . S
C2649 C2648 1.386 . S
C2649 C2653 1.393 . S
C2650 H2642 0.950 . S
C2650 C2648 1.391 . S
C2650 C2651 1.400 . S
C2651 C2650 1.400 . S
C2651 C2652 1.398 . S
C2651 C2657 1.491 . S
C2652 H2643 0.950 . S
C2652 C2651 1.398 . S
C2652 C2653 1.391 . S
C2653 H2641 0.950 . S
C2653 C2649 1.393 . S
C2653 C2652 1.391 . S
C2654 H2644 0.950 . S
C2654 C2655 1.386 . S
C2654 C2656 1.391 1_565 S
C2655 C2654 1.386 . S
C2655 C2659 1.393 1_565 S
C2656 H2645 0.950 . S
C2656 C2654 1.391 1_545 S
C2656 C2657 1.400 . S
C2657 C2651 1.491 . S
C2657 C2656 1.400 . S
C2657 C2658 1.398 . S
C2658 H2646 0.950 . S
C2658 C2657 1.398 . S
C2658 C2659 1.391 . S
C2659 H2647 0.950 . S
C2659 C2655 1.393 1_545 S
C2659 C2658 1.391 . S
H2660 C2668 0.950 . S
H2661 C2673 0.950 . S
H2662 C2670 0.950 . S
H2663 C2672 0.950 . S
H2664 C2674 0.950 . S
H2665 C2676 0.950 . S
H2666 C2678 0.950 . S
H2667 C2679 0.950 . S
C2668 H2660 0.950 . S
C2668 C2669 1.386 . S
C2668 C2670 1.391 . S
C2669 C2668 1.386 . S
C2669 C2673 1.393 . S
C2670 H2662 0.950 . S
C2670 C2668 1.391 . S
C2670 C2671 1.400 . S
C2671 C2670 1.400 . S
C2671 C2672 1.398 . S
C2671 C2677 1.491 . S
C2672 H2663 0.950 . S
C2672 C2671 1.398 . S
C2672 C2673 1.391 . S
C2673 H2661 0.950 . S
C2673 C2669 1.393 . S
C2673 C2672 1.391 . S
C2674 H2664 0.950 . S
C2674 C2675 1.386 1_655 S
C2674 C2676 1.391 . S
C2675 C2674 1.386 1_455 S
C2675 C2679 1.393 . S
C2676 H2665 0.950 . S
C2676 C2674 1.391 . S
C2676 C2677 1.400 . S
C2677 C2671 1.491 . S
C2677 C2676 1.400 . S
C2677 C2678 1.398 . S
C2678 H2666 0.950 . S
C2678 C2677 1.398 . S
C2678 C2679 1.391 1_655 S
C2679 H2667 0.950 . S
C2679 C2675 1.393 . S
C2679 C2678 1.391 1_455 S
H2680 C2688 0.950 . S
H2681 C2693 0.950 . S
H2682 C2690 0.950 . S
H2683 C2692 0.950 . S
H2684 C2694 0.950 . S
H2685 C2696 0.950 . S
H2686 C2698 0.950 . S
H2687 C2699 0.950 . S
C2688 H2680 0.950 . S
C2688 C2689 1.386 . S
C2688 C2690 1.391 . S
C2689 C2688 1.386 . S
C2689 C2693 1.393 . S
C2690 H2682 0.950 . S
C2690 C2688 1.391 . S
C2690 C2691 1.400 . S
C2691 C2690 1.400 . S
C2691 C2692 1.398 . S
C2691 C2697 1.491 . S
C2692 H2683 0.950 . S
C2692 C2691 1.398 . S
C2692 C2693 1.391 . S
C2693 H2681 0.950 . S
C2693 C2689 1.393 . S
C2693 C2692 1.391 . S
C2694 H2684 0.950 . S
C2694 C2695 1.386 . S
C2694 C2696 1.391 . S
C2695 C2694 1.386 . S
C2695 C2699 1.393 . S
C2696 H2685 0.950 . S
C2696 C2694 1.391 . S
C2696 C2697 1.400 . S
C2697 C2691 1.491 . S
C2697 C2696 1.400 . S
C2697 C2698 1.398 . S
C2698 H2686 0.950 . S
C2698 C2697 1.398 . S
C2698 C2699 1.391 . S
C2699 H2687 0.950 . S
C2699 C2695 1.393 . S
C2699 C2698 1.391 . S
H2700 C2708 0.950 . S
H2701 C2713 0.950 . S
H2702 C2710 0.950 . S
H2703 C2712 0.950 . S
H2704 C2714 0.950 . S
H2705 C2716 0.950 . S
H2706 C2718 0.950 . S
H2707 C2719 0.950 . S
C2708 H2700 0.950 . S
C2708 C2709 1.386 . S
C2708 C2710 1.391 . S
C2709 C2708 1.386 . S
C2709 C2713 1.393 1_554 S
C2710 H2702 0.950 . S
C2710 C2708 1.391 . S
C2710 C2711 1.400 . S
C2711 C2710 1.400 . S
C2711 C2712 1.398 1_554 S
C2711 C2717 1.491 1_565 S
C2712 H2703 0.950 . S
C2712 C2711 1.398 1_556 S
C2712 C2713 1.391 . S
C2713 H2701 0.950 . S
C2713 C2709 1.393 1_556 S
C2713 C2712 1.391 . S
C2714 H2704 0.950 . S
C2714 C2715 1.392 1_556 S
C2714 C2716 1.391 . S
C2715 C2714 1.392 1_554 S
C2715 C2719 1.386 . S
C2716 H2705 0.950 . S
C2716 C2714 1.391 . S
C2716 C2717 1.400 1_556 S
C2717 C2711 1.491 1_545 S
C2717 C2716 1.400 1_554 S
C2717 C2718 1.398 . S
C2718 H2706 0.950 . S
C2718 C2717 1.398 . S
C2718 C2719 1.391 . S
C2719 H2707 0.950 . S
C2719 C2715 1.386 . S
C2719 C2718 1.391 . S
H2720 C2728 0.950 . S
H2721 C2733 0.950 . S
H2722 C2730 0.950 . S
H2723 C2732 0.950 . S
H2724 C2734 0.950 . S
H2725 C2736 0.950 . S
H2726 C2738 0.950 . S
H2727 C2739 0.950 . S
C2728 H2720 0.950 . S
C2728 C2729 1.407 . S
C2728 C2730 1.391 . S
C2729 C2728 1.407 . S
C2729 C2733 1.370 1_556 S
C2730 H2722 0.950 . S
C2730 C2728 1.391 . S
C2730 C2731 1.400 1_556 S
C2731 C2730 1.400 1_554 S
C2731 C2732 1.398 . S
C2731 C2737 1.491 1_655 S
C2732 H2723 0.950 . S
C2732 C2731 1.398 . S
C2732 C2733 1.391 . S
C2733 H2721 0.950 . S
C2733 C2729 1.370 1_554 S
C2733 C2732 1.391 . S
C2734 H2724 0.950 . S
C2734 C2735 1.386 . S
C2734 C2736 1.391 . S
C2735 C2734 1.386 . S
C2735 C2739 1.393 1_554 S
C2736 H2725 0.950 . S
C2736 C2734 1.391 . S
C2736 C2737 1.400 . S
C2737 C2731 1.491 1_455 S
C2737 C2736 1.400 . S
C2737 C2738 1.398 1_554 S
C2738 H2726 0.950 . S
C2738 C2737 1.398 1_556 S
C2738 C2739 1.391 . S
C2739 H2727 0.950 . S
C2739 C2735 1.393 1_556 S
C2739 C2738 1.391 . S
H2740 C2748 0.950 . S
H2741 C2753 0.930 1_556 S
H2742 C2750 0.950 . S
H2743 C2752 0.946 . S
H2744 C2754 0.950 . S
H2745 C2756 0.950 . S
H2746 C2758 0.950 . S
H2747 C2759 0.950 . S
C2748 H2740 0.950 . S
C2748 C2749 1.386 . S
C2748 C2750 1.391 . S
C2749 C2748 1.386 . S
C2749 C2753 1.422 . S
C2750 H2742 0.950 . S
C2750 C2748 1.391 . S
C2750 C2751 1.400 . S
C2751 C2750 1.400 . S
C2751 C2752 1.402 1_554 S
C2751 C2757 1.491 . S
C2752 H2743 0.946 . S
C2752 C2751 1.402 1_556 S
C2752 C2753 1.388 1_556 S
C2753 H2741 0.930 1_554 S
C2753 C2749 1.422 . S
C2753 C2752 1.388 1_554 S
C2754 H2744 0.950 . S
C2754 C2755 1.391 . S
C2754 C2756 1.391 . S
C2755 C2754 1.391 . S
C2755 C2759 1.386 1_556 S
C2756 H2745 0.950 . S
C2756 C2754 1.391 . S
C2756 C2757 1.400 1_556 S
C2757 C2751 1.491 . S
C2757 C2756 1.400 1_554 S
C2757 C2758 1.398 . S
C2758 H2746 0.950 . S
C2758 C2757 1.398 . S
C2758 C2759 1.391 . S
C2759 H2747 0.950 . S
C2759 C2755 1.386 1_554 S
C2759 C2758 1.391 . S
H2760 C2768 0.950 . S
H2761 C2773 0.950 . S
H2762 C2770 0.950 1_655 S
H2763 C2772 0.950 . S
H2764 C2774 0.950 . S
H2765 C2776 0.950 . S
H2766 C2778 0.950 . S
H2767 C2779 0.950 . S
C2768 H2760 0.950 . S
C2768 C2769 1.386 . S
C2768 C2770 1.391 . S
C2769 C2768 1.386 . S
C2769 C2773 1.393 . S
C2770 H2762 0.950 1_455 S
C2770 C2768 1.391 . S
C2770 C2771 1.400 1_455 S
C2771 C2770 1.400 1_655 S
C2771 C2772 1.398 1_655 S
C2771 C2777 1.491 . S
C2772 H2763 0.950 . S
C2772 C2771 1.398 1_455 S
C2772 C2773 1.391 . S
C2773 H2761 0.950 . S
C2773 C2769 1.393 . S
C2773 C2772 1.391 . S
C2774 H2764 0.950 . S
C2774 C2775 1.386 . S
C2774 C2776 1.391 . S
C2775 C2774 1.386 . S
C2775 C2779 1.393 . S
C2776 H2765 0.950 . S
C2776 C2774 1.391 . S
C2776 C2777 1.400 . S
C2777 C2771 1.491 . S
C2777 C2776 1.400 . S
C2777 C2778 1.398 . S
C2778 H2766 0.950 . S
C2778 C2777 1.398 . S
C2778 C2779 1.391 . S
C2779 H2767 0.950 . S
C2779 C2775 1.393 . S
C2779 C2778 1.391 . S
H2780 C2788 0.950 . S
H2781 C2793 0.950 . S
H2782 C2790 0.950 . S
H2783 C2792 0.950 . S
H2784 C2794 0.950 . S
H2785 C2796 0.950 . S
H2786 C2798 0.950 . S
H2787 C2799 0.950 . S
C2788 H2780 0.950 . S
C2788 C2789 1.386 . S
C2788 C2790 1.391 . S
C2789 C2788 1.386 . S
C2789 C2793 1.393 . S
C2790 H2782 0.950 . S
C2790 C2788 1.391 . S
C2790 C2791 1.400 . S
C2791 C2790 1.400 . S
C2791 C2792 1.398 . S
C2791 C2797 1.491 . S
C2792 H2783 0.950 . S
C2792 C2791 1.398 . S
C2792 C2793 1.391 . S
C2793 H2781 0.950 . S
C2793 C2789 1.393 . S
C2793 C2792 1.391 . S
C2794 H2784 0.950 . S
C2794 C2795 1.386 . S
C2794 C2796 1.391 . S
C2795 C2794 1.386 . S
C2795 C2799 1.393 . S
C2796 H2785 0.950 . S
C2796 C2794 1.391 . S
C2796 C2797 1.400 . S
C2797 C2791 1.491 . S
C2797 C2796 1.400 . S
C2797 C2798 1.398 . S
C2798 H2786 0.950 . S
C2798 C2797 1.398 . S
C2798 C2799 1.391 . S
C2799 H2787 0.950 . S
C2799 C2795 1.393 . S
C2799 C2798 1.391 . S
H2800 C2808 0.950 . S
H2801 C2813 0.950 . S
H2802 C2810 0.966 . S
H2803 C2812 0.950 . S
H2804 C2814 0.950 . S
H2805 C2816 0.950 . S
H2806 C2818 0.950 . S
H2807 C2819 0.950 . S
C2808 H2800 0.950 . S
C2808 C2809 1.386 . S
C2808 C2810 1.391 . S
C2809 C2808 1.386 . S
C2809 C2813 1.393 . S
C2810 H2802 0.966 . S
C2810 C2808 1.391 . S
C2810 C2811 1.400 1_565 S
C2811 C2810 1.400 1_545 S
C2811 C2812 1.398 1_545 S
C2811 C2817 1.491 . S
C2812 H2803 0.950 . S
C2812 C2811 1.398 1_565 S
C2812 C2813 1.391 . S
C2813 H2801 0.950 . S
C2813 C2809 1.393 . S
C2813 C2812 1.391 . S
C2814 H2804 0.950 . S
C2814 C2815 1.386 . S
C2814 C2816 1.391 . S
C2815 C2814 1.386 . S
C2815 C2819 1.393 . S
C2816 H2805 0.950 . S
C2816 C2814 1.391 . S
C2816 C2817 1.400 . S
C2817 C2811 1.491 . S
C2817 C2816 1.400 . S
C2817 C2818 1.398 . S
C2818 H2806 0.950 . S
C2818 C2817 1.398 . S
C2818 C2819 1.391 . S
C2819 H2807 0.950 . S
C2819 C2815 1.393 . S
C2819 C2818 1.391 . S
H2820 C2828 0.950 . S
H2821 C2833 0.962 . S
H2822 C2830 0.950 . S
H2823 C2832 0.950 . S
H2824 C2834 0.950 . S
H2825 C2836 0.950 . S
H2826 C2838 0.950 . S
H2827 C2839 0.950 . S
C2828 H2820 0.950 . S
C2828 C2829 1.386 1_655 S
C2828 C2830 1.391 . S
C2829 C2828 1.386 1_455 S
C2829 C2833 1.385 . S
C2830 H2822 0.950 . S
C2830 C2828 1.391 . S
C2830 C2831 1.400 . S
C2831 C2830 1.400 . S
C2831 C2832 1.398 . S
C2831 C2837 1.491 . S
C2832 H2823 0.950 . S
C2832 C2831 1.398 . S
C2832 C2833 1.388 1_655 S
C2833 H2821 0.962 . S
C2833 C2829 1.385 . S
C2833 C2832 1.388 1_455 S
C2834 H2824 0.950 . S
C2834 C2835 1.386 . S
C2834 C2836 1.391 . S
C2835 C2834 1.386 . S
C2835 C2839 1.393 . S
C2836 H2825 0.950 . S
C2836 C2834 1.391 . S
C2836 C2837 1.400 . S
C2837 C2831 1.491 . S
C2837 C2836 1.400 . S
C2837 C2838 1.398 . S
C2838 H2826 0.950 . S
C2838 C2837 1.398 . S
C2838 C2839 1.391 . S
C2839 H2827 0.950 . S
C2839 C2835 1.393 . S
C2839 C2838 1.391 . S
H2840 C2848 0.950 . S
H2841 C2853 0.950 . S
H2842 C2850 0.950 . S
H2843 C2852 0.950 . S
H2844 C2854 0.950 . S
H2845 C2856 0.950 . S
H2846 C2858 0.950 . S
H2847 C2859 0.950 . S
C2848 H2840 0.950 . S
C2848 C2849 1.386 . S
C2848 C2850 1.391 . S
C2849 C2848 1.386 . S
C2849 C2853 1.393 . S
C2850 H2842 0.950 . S
C2850 C2848 1.391 . S
C2850 C2851 1.400 . S
C2851 C2850 1.400 . S
C2851 C2852 1.398 . S
C2851 C2857 1.491 . S
C2852 H2843 0.950 . S
C2852 C2851 1.398 . S
C2852 C2853 1.391 . S
C2853 H2841 0.950 . S
C2853 C2849 1.393 . S
C2853 C2852 1.391 . S
C2854 H2844 0.950 . S
C2854 C2855 1.386 . S
C2854 C2856 1.391 . S
C2855 C2854 1.386 . S
C2855 C2859 1.393 . S
C2856 H2845 0.950 . S
C2856 C2854 1.391 . S
C2856 C2857 1.400 . S
C2857 C2851 1.491 . S
C2857 C2856 1.400 . S
C2857 C2858 1.398 . S
C2858 H2846 0.950 . S
C2858 C2857 1.398 . S
C2858 C2859 1.391 . S
C2859 H2847 0.950 . S
C2859 C2855 1.393 . S
C2859 C2858 1.391 . S
H2860 C2868 0.950 . S
H2861 C2873 0.950 . S
H2862 C2870 0.950 . S
H2863 C2872 0.950 . S
H2864 C2874 0.950 . S
H2865 C2876 0.950 . S
H2866 C2878 0.950 . S
H2867 C2879 0.950 . S
C2868 H2860 0.950 . S
C2868 C2869 1.386 . S
C2868 C2870 1.391 . S
C2869 C2868 1.386 . S
C2869 C2873 1.393 . S
C2870 H2862 0.950 . S
C2870 C2868 1.391 . S
C2870 C2871 1.400 . S
C2871 C2870 1.400 . S
C2871 C2872 1.398 . S
C2871 C2877 1.491 . S
C2872 H2863 0.950 . S
C2872 C2871 1.398 . S
C2872 C2873 1.391 . S
C2873 H2861 0.950 . S
C2873 C2869 1.393 . S
C2873 C2872 1.391 . S
C2874 H2864 0.950 . S
C2874 C2875 1.386 . S
C2874 C2876 1.391 1_565 S
C2875 C2874 1.386 . S
C2875 C2879 1.393 1_565 S
C2876 H2865 0.950 . S
C2876 C2874 1.391 1_545 S
C2876 C2877 1.400 . S
C2877 C2871 1.491 . S
C2877 C2876 1.400 . S
C2877 C2878 1.398 . S
C2878 H2866 0.950 . S
C2878 C2877 1.398 . S
C2878 C2879 1.391 . S
C2879 H2867 0.950 . S
C2879 C2875 1.393 1_545 S
C2879 C2878 1.391 . S
H2880 C2888 0.950 . S
H2881 C2893 0.950 . S
H2882 C2890 0.950 . S
H2883 C2892 0.950 . S
H2884 C2894 0.950 . S
H2885 C2896 0.950 . S
H2886 C2898 0.950 . S
H2887 C2899 0.950 . S
C2888 H2880 0.950 . S
C2888 C2889 1.386 . S
C2888 C2890 1.391 . S
C2889 C2888 1.386 . S
C2889 C2893 1.393 . S
C2890 H2882 0.950 . S
C2890 C2888 1.391 . S
C2890 C2891 1.400 . S
C2891 C2890 1.400 . S
C2891 C2892 1.398 . S
C2891 C2897 1.491 . S
C2892 H2883 0.950 . S
C2892 C2891 1.398 . S
C2892 C2893 1.391 . S
C2893 H2881 0.950 . S
C2893 C2889 1.393 . S
C2893 C2892 1.391 . S
C2894 H2884 0.950 . S
C2894 C2895 1.386 . S
C2894 C2896 1.391 . S
C2895 C2894 1.386 . S
C2895 C2899 1.393 . S
C2896 H2885 0.950 . S
C2896 C2894 1.391 . S
C2896 C2897 1.400 . S
C2897 C2891 1.491 . S
C2897 C2896 1.400 . S
C2897 C2898 1.398 . S
C2898 H2886 0.950 . S
C2898 C2897 1.398 . S
C2898 C2899 1.391 . S
C2899 H2887 0.950 . S
C2899 C2895 1.393 . S
C2899 C2898 1.391 . S
H2900 C2908 0.950 . S
H2901 C2913 0.950 . S
H2902 C2910 0.950 . S
H2903 C2912 0.950 . S
H2904 C2914 0.950 . S
H2905 C2916 0.950 . S
H2906 C2918 0.950 . S
H2907 C2919 0.950 . S
C2908 H2900 0.950 . S
C2908 C2909 1.386 . S
C2908 C2910 1.391 . S
C2909 C2908 1.386 . S
C2909 C2913 1.393 . S
C2910 H2902 0.950 . S
C2910 C2908 1.391 . S
C2910 C2911 1.400 . S
C2911 C2910 1.400 . S
C2911 C2912 1.398 . S
C2911 C2917 1.491 . S
C2912 H2903 0.950 . S
C2912 C2911 1.398 . S
C2912 C2913 1.391 . S
C2913 H2901 0.950 . S
C2913 C2909 1.393 . S
C2913 C2912 1.391 . S
C2914 H2904 0.950 . S
C2914 C2915 1.386 . S
C2914 C2916 1.391 . S
C2915 C2914 1.386 . S
C2915 C2919 1.393 . S
C2916 H2905 0.950 . S
C2916 C2914 1.391 . S
C2916 C2917 1.400 . S
C2917 C2911 1.491 . S
C2917 C2916 1.400 . S
C2917 C2918 1.398 . S
C2918 H2906 0.950 . S
C2918 C2917 1.398 . S
C2918 C2919 1.391 . S
C2919 H2907 0.950 . S
C2919 C2915 1.393 . S
C2919 C2918 1.391 . S
H2920 C2928 0.950 . S
H2921 C2933 0.950 . S
H2922 C2930 0.950 . S
H2923 C2932 0.950 . S
H2924 C2934 0.950 . S
H2925 C2936 0.950 . S
H2926 C2938 0.950 . S
H2927 C2939 0.950 . S
C2928 H2920 0.950 . S
C2928 C2929 1.386 . S
C2928 C2930 1.391 . S
C2929 C2928 1.386 . S
C2929 C2933 1.393 . S
C2930 H2922 0.950 . S
C2930 C2928 1.391 . S
C2930 C2931 1.400 . S
C2931 C2930 1.400 . S
C2931 C2932 1.398 . S
C2931 C2937 1.491 . S
C2932 H2923 0.950 . S
C2932 C2931 1.398 . S
C2932 C2933 1.391 . S
C2933 H2921 0.950 . S
C2933 C2929 1.393 . S
C2933 C2932 1.391 . S
C2934 H2924 0.950 . S
C2934 C2935 1.386 . S
C2934 C2936 1.391 . S
C2935 C2934 1.386 . S
C2935 C2939 1.393 . S
C2936 H2925 0.950 . S
C2936 C2934 1.391 . S
C2936 C2937 1.400 . S
C2937 C2931 1.491 . S
C2937 C2936 1.400 . S
C2937 C2938 1.398 . S
C2938 H2926 0.950 . S
C2938 C2937 1.398 . S
C2938 C2939 1.391 . S
C2939 H2927 0.950 . S
C2939 C2935 1.393 . S
C2939 C2938 1.391 . S
H2940 C2948 0.950 . S
H2941 C2953 0.950 . S
H2942 C2950 0.950 . S
H2943 C2952 0.950 . S
H2944 C2954 0.950 . S
H2945 C2956 0.950 . S
H2946 C2958 0.950 . S
H2947 C2959 0.950 . S
C2948 H2940 0.950 . S
C2948 C2949 1.386 . S
C2948 C2950 1.391 . S
C2949 C2948 1.386 . S
C2949 C2953 1.393 . S
C2950 H2942 0.950 . S
C2950 C2948 1.391 . S
C2950 C2951 1.400 . S
C2951 C2950 1.400 . S
C2951 C2952 1.398 . S
C2951 C2957 1.491 . S
C2952 H2943 0.950 . S
C2952 C2951 1.398 . S
C2952 C2953 1.391 . S
C2953 H2941 0.950 . S
C2953 C2949 1.393 . S
C2953 C2952 1.391 . S
C2954 H2944 0.950 . S
C2954 C2955 1.386 . S
C2954 C2956 1.391 . S
C2955 C2954 1.386 . S
C2955 C2959 1.393 . S
C2956 H2945 0.950 . S
C2956 C2954 1.391 . S
C2956 C2957 1.400 . S
C2957 C2951 1.491 . S
C2957 C2956 1.400 . S
C2957 C2958 1.398 . S
C2958 H2946 0.950 . S
C2958 C2957 1.398 . S
C2958 C2959 1.391 . S
C2959 H2947 0.950 . S
C2959 C2955 1.393 . S
C2959 C2958 1.391 . S
H2960 C2968 0.950 . S
H2961 C2973 0.950 . S
H2962 C2970 0.950 . S
H2963 C2972 0.950 . S
H2964 C2974 0.950 . S
H2965 C2976 0.950 . S
H2966 C2978 0.950 . S
H2967 C2979 0.950 . S
C2968 H2960 0.950 . S
C2968 C2969 1.386 . S
C2968 C2970 1.391 . S
C2969 C2968 1.386 . S
C2969 C2973 1.393 . S
C2970 H2962 0.950 . S
C2970 C2968 1.391 . S
C2970 C2971 1.400 . S
C2971 C2970 1.400 . S
C2971 C2972 1.398 . S
C2971 C2977 1.491 . S
C2972 H2963 0.950 . S
C2972 C2971 1.398 . S
C2972 C2973 1.391 . S
C2973 H2961 0.950 . S
C2973 C2969 1.393 . S
C2973 C2972 1.391 . S
C2974 H2964 0.950 . S
C2974 C2975 1.386 . S
C2974 C2976 1.391 . S
C2975 C2974 1.386 . S
C2975 C2979 1.393 . S
C2976 H2965 0.950 . S
C2976 C2974 1.391 . S
C2976 C2977 1.400 . S
C2977 C2971 1.491 . S
C2977 C2976 1.400 . S
C2977 C2978 1.398 . S
C2978 H2966 0.950 . S
C2978 C2977 1.398 . S
C2978 C2979 1.391 . S
C2979 H2967 0.950 . S
C2979 C2975 1.393 . S
C2979 C2978 1.391 . S
H2980 C2988 0.950 . S
H2981 C2993 0.950 . S
H2982 C2990 0.950 . S
H2983 C2992 0.950 . S
H2984 C2994 0.950 . S
H2985 C2996 0.950 . S
H2986 C2998 0.950 . S
H2987 C2999 0.950 . S
C2988 H2980 0.950 . S
C2988 C2989 1.386 . S
C2988 C2990 1.391 . S
C2989 C2988 1.386 . S
C2989 C2993 1.393 . S
C2990 H2982 0.950 . S
C2990 C2988 1.391 . S
C2990 C2991 1.400 . S
C2991 C2990 1.400 . S
C2991 C2992 1.398 . S
C2991 C2997 1.491 . S
C2992 H2983 0.950 . S
C2992 C2991 1.398 . S
C2992 C2993 1.391 . S
C2993 H2981 0.950 . S
C2993 C2989 1.393 . S
C2993 C2992 1.391 . S
C2994 H2984 0.950 . S
C2994 C2995 1.386 . S
C2994 C2996 1.391 . S
C2995 C2994 1.386 . S
C2995 C2999 1.393 . S
C2996 H2985 0.950 . S
C2996 C2994 1.391 . S
C2996 C2997 1.400 . S
C2997 C2991 1.491 . S
C2997 C2996 1.400 . S
C2997 C2998 1.398 . S
C2998 H2986 0.950 . S
C2998 C2997 1.398 . S
C2998 C2999 1.391 . S
C2999 H2987 0.950 . S
C2999 C2995 1.393 . S
C2999 C2998 1.391 . S
H3000 C3008 0.950 . S
H3001 C3013 0.950 . S
H3002 C3010 0.950 . S
H3003 C3012 0.950 . S
H3004 C3014 0.950 . S
H3005 C3016 0.950 . S
H3006 C3018 0.950 . S
H3007 C3019 0.950 . S
C3008 H3000 0.950 . S
C3008 C3009 1.386 . S
C3008 C3010 1.391 . S
C3009 C3008 1.386 . S
C3009 C3013 1.393 . S
C3010 H3002 0.950 . S
C3010 C3008 1.391 . S
C3010 C3011 1.400 . S
C3011 C3010 1.400 . S
C3011 C3012 1.398 . S
C3011 C3017 1.491 . S
C3012 H3003 0.950 . S
C3012 C3011 1.398 . S
C3012 C3013 1.391 . S
C3013 H3001 0.950 . S
C3013 C3009 1.393 . S
C3013 C3012 1.391 . S
C3014 H3004 0.950 . S
C3014 C3015 1.386 . S
C3014 C3016 1.391 . S
C3015 C3014 1.386 . S
C3015 C3019 1.393 . S
C3016 H3005 0.950 . S
C3016 C3014 1.391 . S
C3016 C3017 1.400 . S
C3017 C3011 1.491 . S
C3017 C3016 1.400 . S
C3017 C3018 1.398 . S
C3018 H3006 0.950 . S
C3018 C3017 1.398 . S
C3018 C3019 1.391 . S
C3019 H3007 0.950 . S
C3019 C3015 1.393 . S
C3019 C3018 1.391 . S
H3020 C3028 0.950 . S
H3021 C3033 0.950 . S
H3022 C3030 0.950 . S
H3023 C3032 0.950 . S
H3024 C3034 0.950 . S
H3025 C3036 0.950 . S
H3026 C3038 0.950 . S
H3027 C3039 0.950 . S
C3028 H3020 0.950 . S
C3028 C3029 1.386 . S
C3028 C3030 1.391 . S
C3029 C3028 1.386 . S
C3029 C3033 1.393 . S
C3030 H3022 0.950 . S
C3030 C3028 1.391 . S
C3030 C3031 1.400 . S
C3031 C3030 1.400 . S
C3031 C3032 1.398 . S
C3031 C3037 1.491 . S
C3032 H3023 0.950 . S
C3032 C3031 1.398 . S
C3032 C3033 1.391 . S
C3033 H3021 0.950 . S
C3033 C3029 1.393 . S
C3033 C3032 1.391 . S
C3034 H3024 0.950 . S
C3034 C3035 1.386 . S
C3034 C3036 1.391 . S
C3035 C3034 1.386 . S
C3035 C3039 1.393 . S
C3036 H3025 0.950 . S
C3036 C3034 1.391 . S
C3036 C3037 1.400 . S
C3037 C3031 1.491 . S
C3037 C3036 1.400 . S
C3037 C3038 1.398 . S
C3038 H3026 0.950 . S
C3038 C3037 1.398 . S
C3038 C3039 1.391 . S
C3039 H3027 0.950 . S
C3039 C3035 1.393 . S
C3039 C3038 1.391 . S
H3040 C3048 0.950 . S
H3041 C3053 0.950 . S
H3042 C3050 0.950 . S
H3043 C3052 0.950 . S
H3044 C3054 0.950 . S
H3045 C3056 0.950 . S
H3046 C3058 0.950 . S
H3047 C3059 0.950 . S
C3048 H3040 0.950 . S
C3048 C3049 1.386 . S
C3048 C3050 1.391 . S
C3049 C3048 1.386 . S
C3049 C3053 1.393 . S
C3050 H3042 0.950 . S
C3050 C3048 1.391 . S
C3050 C3051 1.400 . S
C3051 C3050 1.400 . S
C3051 C3052 1.398 . S
C3051 C3057 1.491 . S
C3052 H3043 0.950 . S
C3052 C3051 1.398 . S
C3052 C3053 1.391 . S
C3053 H3041 0.950 . S
C3053 C3049 1.393 . S
C3053 C3052 1.391 . S
C3054 H3044 0.950 . S
C3054 C3055 1.386 . S
C3054 C3056 1.391 . S
C3055 C3054 1.386 . S
C3055 C3059 1.393 . S
C3056 H3045 0.950 . S
C3056 C3054 1.391 . S
C3056 C3057 1.400 . S
C3057 C3051 1.491 . S
C3057 C3056 1.400 . S
C3057 C3058 1.398 . S
C3058 H3046 0.950 . S
C3058 C3057 1.398 . S
C3058 C3059 1.391 . S
C3059 H3047 0.950 . S
C3059 C3055 1.393 . S
C3059 C3058 1.391 . S
H3060 C3068 0.950 . S
H3061 C3073 0.950 . S
H3062 C3070 0.950 . S
H3063 C3072 0.950 . S
H3064 C3074 0.950 . S
H3065 C3076 0.950 . S
H3066 C3078 0.950 . S
H3067 C3079 0.950 . S
C3068 H3060 0.950 . S
C3068 C3069 1.386 . S
C3068 C3070 1.391 . S
C3069 C3068 1.386 . S
C3069 C3073 1.393 . S
C3070 H3062 0.950 . S
C3070 C3068 1.391 . S
C3070 C3071 1.400 . S
C3071 C3070 1.400 . S
C3071 C3072 1.398 . S
C3071 C3077 1.491 . S
C3072 H3063 0.950 . S
C3072 C3071 1.398 . S
C3072 C3073 1.391 . S
C3073 H3061 0.950 . S
C3073 C3069 1.393 . S
C3073 C3072 1.391 . S
C3074 H3064 0.950 . S
C3074 C3075 1.386 . S
C3074 C3076 1.391 . S
C3075 C3074 1.386 . S
C3075 C3079 1.393 . S
C3076 H3065 0.950 . S
C3076 C3074 1.391 . S
C3076 C3077 1.400 . S
C3077 C3071 1.491 . S
C3077 C3076 1.400 . S
C3077 C3078 1.398 . S
C3078 H3066 0.950 . S
C3078 C3077 1.398 . S
C3078 C3079 1.391 . S
C3079 H3067 0.950 . S
C3079 C3075 1.393 . S
C3079 C3078 1.391 . S
H3080 C3088 0.950 . S
H3081 C3093 0.950 . S
H3082 C3090 0.950 . S
H3083 C3092 0.950 . S
H3084 C3094 0.950 . S
H3085 C3096 0.950 . S
H3086 C3098 0.950 . S
H3087 C3099 0.950 . S
C3088 H3080 0.950 . S
C3088 C3089 1.386 . S
C3088 C3090 1.391 . S
C3089 C3088 1.386 . S
C3089 C3093 1.393 . S
C3090 H3082 0.950 . S
C3090 C3088 1.391 . S
C3090 C3091 1.400 . S
C3091 C3090 1.400 . S
C3091 C3092 1.398 . S
C3091 C3097 1.491 . S
C3092 H3083 0.950 . S
C3092 C3091 1.398 . S
C3092 C3093 1.391 . S
C3093 H3081 0.950 . S
C3093 C3089 1.393 . S
C3093 C3092 1.391 . S
C3094 H3084 0.950 . S
C3094 C3095 1.386 . S
C3094 C3096 1.391 . S
C3095 C3094 1.386 . S
C3095 C3099 1.393 . S
C3096 H3085 0.950 . S
C3096 C3094 1.391 . S
C3096 C3097 1.400 . S
C3097 C3091 1.491 . S
C3097 C3096 1.400 . S
C3097 C3098 1.398 . S
C3098 H3086 0.950 . S
C3098 C3097 1.398 . S
C3098 C3099 1.391 . S
C3099 H3087 0.950 . S
C3099 C3095 1.393 . S
C3099 C3098 1.391 . S
H3100 C3108 0.950 . S
H3101 C3113 0.950 . S
H3102 C3110 0.950 . S
H3103 C3112 0.950 . S
H3104 C3114 0.950 . S
H3105 C3116 0.950 . S
H3106 C3118 0.950 . S
H3107 C3119 0.950 . S
C3108 H3100 0.950 . S
C3108 C3109 1.386 . S
C3108 C3110 1.391 . S
C3109 C3108 1.386 . S
C3109 C3113 1.393 . S
C3110 H3102 0.950 . S
C3110 C3108 1.391 . S
C3110 C3111 1.400 . S
C3111 C3110 1.400 . S
C3111 C3112 1.398 . S
C3111 C3117 1.491 . S
C3112 H3103 0.950 . S
C3112 C3111 1.398 . S
C3112 C3113 1.391 . S
C3113 H3101 0.950 . S
C3113 C3109 1.393 . S
C3113 C3112 1.391 . S
C3114 H3104 0.950 . S
C3114 C3115 1.386 . S
C3114 C3116 1.391 . S
C3115 C3114 1.386 . S
C3115 C3119 1.393 . S
C3116 H3105 0.950 . S
C3116 C3114 1.391 . S
C3116 C3117 1.400 . S
C3117 C3111 1.491 . S
C3117 C3116 1.400 . S
C3117 C3118 1.398 . S
C3118 H3106 0.950 . S
C3118 C3117 1.398 . S
C3118 C3119 1.391 . S
C3119 H3107 0.950 . S
C3119 C3115 1.393 . S
C3119 C3118 1.391 . S
H3120 C3128 0.950 . S
H3121 C3133 0.950 . S
H3122 C3130 0.950 . S
H3123 C3132 0.950 . S
H3124 C3134 0.950 . S
H3125 C3136 0.950 . S
H3126 C3138 0.950 . S
H3127 C3139 0.950 . S
C3128 H3120 0.950 . S
C3128 C3129 1.386 1_455 S
C3128 C3130 1.391 . S
C3129 C3128 1.386 1_655 S
C3129 C3133 1.393 . S
C3130 H3122 0.950 . S
C3130 C3128 1.391 . S
C3130 C3131 1.400 . S
C3131 C3130 1.400 . S
C3131 C3132 1.398 1_455 S
C3131 C3137 1.491 . S
C3132 H3123 0.950 . S
C3132 C3131 1.398 1_655 S
C3132 C3133 1.391 . S
C3133 H3121 0.950 . S
C3133 C3129 1.393 . S
C3133 C3132 1.391 . S
C3134 H3124 0.950 . S
C3134 C3135 1.386 1_655 S
C3134 C3136 1.391 . S
C3135 C3134 1.386 1_455 S
C3135 C3139 1.393 . S
C3136 H3125 0.950 . S
C3136 C3134 1.391 . S
C3136 C3137 1.400 1_655 S
C3137 C3131 1.491 . S
C3137 C3136 1.400 1_455 S
C3137 C3138 1.398 . S
C3138 H3126 0.950 . S
C3138 C3137 1.398 . S
C3138 C3139 1.391 . S
C3139 H3127 0.950 . S
C3139 C3135 1.393 . S
C3139 C3138 1.391 . S
H3140 C3148 0.950 . S
H3141 C3153 0.950 . S
H3142 C3150 0.950 . S
H3143 C3152 0.950 . S
H3144 C3154 0.950 . S
H3145 C3156 0.950 . S
H3146 C3158 0.950 . S
H3147 C3159 0.950 . S
C3148 H3140 0.950 . S
C3148 C3149 1.386 . S
C3148 C3150 1.391 . S
C3149 C3148 1.386 . S
C3149 C3153 1.393 . S
C3150 H3142 0.950 . S
C3150 C3148 1.391 . S
C3150 C3151 1.400 . S
C3151 C3150 1.400 . S
C3151 C3152 1.398 . S
C3151 C3157 1.491 . S
C3152 H3143 0.950 . S
C3152 C3151 1.398 . S
C3152 C3153 1.391 . S
C3153 H3141 0.950 . S
C3153 C3149 1.393 . S
C3153 C3152 1.391 . S
C3154 H3144 0.950 . S
C3154 C3155 1.386 . S
C3154 C3156 1.391 . S
C3155 C3154 1.386 . S
C3155 C3159 1.393 . S
C3156 H3145 0.950 . S
C3156 C3154 1.391 . S
C3156 C3157 1.400 . S
C3157 C3151 1.491 . S
C3157 C3156 1.400 . S
C3157 C3158 1.398 . S
C3158 H3146 0.950 . S
C3158 C3157 1.398 . S
C3158 C3159 1.391 . S
C3159 H3147 0.950 . S
C3159 C3155 1.393 . S
C3159 C3158 1.391 . S
H3160 C3168 0.950 . S
H3161 C3173 0.950 . S
H3162 C3170 0.950 . S
H3163 C3172 0.950 . S
H3164 C3174 0.950 . S
H3165 C3176 0.950 . S
H3166 C3178 0.950 . S
H3167 C3179 0.950 . S
C3168 H3160 0.950 . S
C3168 C3169 1.386 1_565 S
C3168 C3170 1.391 . S
C3169 C3168 1.386 1_545 S
C3169 C3173 1.393 . S
C3170 H3162 0.950 . S
C3170 C3168 1.391 . S
C3170 C3171 1.400 . S
C3171 C3170 1.400 . S
C3171 C3172 1.398 1_565 S
C3171 C3177 1.491 . S
C3172 H3163 0.950 . S
C3172 C3171 1.398 1_545 S
C3172 C3173 1.391 . S
C3173 H3161 0.950 . S
C3173 C3169 1.393 . S
C3173 C3172 1.391 . S
C3174 H3164 0.950 . S
C3174 C3175 1.386 1_545 S
C3174 C3176 1.391 . S
C3175 C3174 1.386 1_565 S
C3175 C3179 1.393 . S
C3176 H3165 0.950 . S
C3176 C3174 1.391 . S
C3176 C3177 1.400 1_545 S
C3177 C3171 1.491 . S
C3177 C3176 1.400 1_565 S
C3177 C3178 1.398 . S
C3178 H3166 0.950 . S
C3178 C3177 1.398 . S
C3178 C3179 1.391 . S
C3179 H3167 0.950 . S
C3179 C3175 1.393 . S
C3179 C3178 1.391 . S
H3180 C3188 0.950 . S
H3181 C3193 0.950 . S
H3182 C3190 0.950 . S
H3183 C3192 0.950 . S
H3184 C3194 0.950 . S
H3185 C3196 0.950 . S
H3186 C3198 0.950 . S
H3187 C3199 0.942 . S
C3188 H3180 0.950 . S
C3188 C3189 1.386 . S
C3188 C3190 1.391 . S
C3189 C3188 1.386 . S
C3189 C3193 1.393 . S
C3190 H3182 0.950 . S
C3190 C3188 1.391 . S
C3190 C3191 1.400 . S
C3191 C3190 1.400 . S
C3191 C3192 1.398 . S
C3191 C3197 1.491 . S
C3192 H3183 0.950 . S
C3192 C3191 1.398 . S
C3192 C3193 1.391 . S
C3193 H3181 0.950 . S
C3193 C3189 1.393 . S
C3193 C3192 1.391 . S
C3194 H3184 0.950 . S
C3194 C3195 1.395 1_545 S
C3194 C3196 1.391 . S
C3195 C3194 1.395 1_565 S
C3195 C3199 1.392 . S
C3196 H3185 0.950 . S
C3196 C3194 1.391 . S
C3196 C3197 1.400 . S
C3197 C3191 1.491 . S
C3197 C3196 1.400 . S
C3197 C3198 1.398 . S
C3198 H3186 0.950 . S
C3198 C3197 1.398 . S
C3198 C3199 1.390 1_545 S
C3199 H3187 0.942 . S
C3199 C3195 1.392 . S
C3199 C3198 1.390 1_565 S
H3200 C3208 0.950 . S
H3201 C3213 0.950 . S
H3202 C3210 0.950 . S
H3203 C3212 0.950 . S
H3204 C3214 0.950 . S
H3205 C3216 0.950 . S
H3206 C3218 0.950 . S
H3207 C3219 0.950 . S
C3208 H3200 0.950 . S
C3208 C3209 1.386 1_655 S
C3208 C3210 1.391 . S
C3209 C3208 1.386 1_455 S
C3209 C3213 1.393 . S
C3210 H3202 0.950 . S
C3210 C3208 1.391 . S
C3210 C3211 1.400 . S
C3211 C3210 1.400 . S
C3211 C3212 1.398 1_655 S
C3211 C3217 1.491 . S
C3212 H3203 0.950 . S
C3212 C3211 1.398 1_455 S
C3212 C3213 1.391 . S
C3213 H3201 0.950 . S
C3213 C3209 1.393 . S
C3213 C3212 1.391 . S
C3214 H3204 0.950 . S
C3214 C3215 1.386 1_455 S
C3214 C3216 1.391 . S
C3215 C3214 1.386 1_655 S
C3215 C3219 1.393 . S
C3216 H3205 0.950 . S
C3216 C3214 1.391 . S
C3216 C3217 1.400 1_455 S
C3217 C3211 1.491 . S
C3217 C3216 1.400 1_655 S
C3217 C3218 1.398 . S
C3218 H3206 0.950 . S
C3218 C3217 1.398 . S
C3218 C3219 1.391 . S
C3219 H3207 0.950 . S
C3219 C3215 1.393 . S
C3219 C3218 1.391 . S
H3220 C3228 0.950 . S
H3221 C3233 0.950 . S
H3222 C3230 0.950 . S
H3223 C3232 0.950 . S
H3224 C3234 0.950 . S
H3225 C3236 0.950 . S
H3226 C3238 0.950 . S
H3227 C3239 0.950 . S
C3228 H3220 0.950 . S
C3228 C3229 1.386 . S
C3228 C3230 1.391 . S
C3229 C3228 1.386 . S
C3229 C3233 1.393 . S
C3230 H3222 0.950 . S
C3230 C3228 1.391 . S
C3230 C3231 1.400 . S
C3231 C3230 1.400 . S
C3231 C3232 1.398 . S
C3231 C3237 1.491 . S
C3232 H3223 0.950 . S
C3232 C3231 1.398 . S
C3232 C3233 1.391 . S
C3233 H3221 0.950 . S
C3233 C3229 1.393 . S
C3233 C3232 1.391 . S
C3234 H3224 0.950 . S
C3234 C3235 1.386 . S
C3234 C3236 1.391 . S
C3235 C3234 1.386 . S
C3235 C3239 1.393 . S
C3236 H3225 0.950 . S
C3236 C3234 1.391 . S
C3236 C3237 1.400 . S
C3237 C3231 1.491 . S
C3237 C3236 1.400 . S
C3237 C3238 1.398 . S
C3238 H3226 0.950 . S
C3238 C3237 1.398 . S
C3238 C3239 1.391 . S
C3239 H3227 0.950 . S
C3239 C3235 1.393 . S
C3239 C3238 1.391 . S
H3240 C3248 0.950 . S
H3241 C3253 0.950 . S
H3242 C3250 0.950 . S
H3243 C3252 0.950 . S
H3244 C3254 0.950 . S
H3245 C3256 0.950 . S
H3246 C3258 0.950 . S
H3247 C3259 0.950 . S
C3248 H3240 0.950 . S
C3248 C3249 1.386 . S
C3248 C3250 1.391 . S
C3249 C3248 1.386 . S
C3249 C3253 1.393 . S
C3250 H3242 0.950 . S
C3250 C3248 1.391 . S
C3250 C3251 1.400 . S
C3251 C3250 1.400 . S
C3251 C3252 1.398 . S
C3251 C3257 1.491 1_655 S
C3252 H3243 0.950 . S
C3252 C3251 1.398 . S
C3252 C3253 1.391 . S
C3253 H3241 0.950 . S
C3253 C3249 1.393 . S
C3253 C3252 1.391 . S
C3254 H3244 0.950 . S
C3254 C3255 1.386 . S
C3254 C3256 1.391 . S
C3255 C3254 1.386 . S
C3255 C3259 1.393 . S
C3256 H3245 0.950 . S
C3256 C3254 1.391 . S
C3256 C3257 1.400 . S
C3257 C3251 1.491 1_455 S
C3257 C3256 1.400 . S
C3257 C3258 1.398 . S
C3258 H3246 0.950 . S
C3258 C3257 1.398 . S
C3258 C3259 1.391 . S
C3259 H3247 0.950 . S
C3259 C3255 1.393 . S
C3259 C3258 1.391 . S
H3260 C3268 0.950 . S
H3261 C3273 0.950 . S
H3262 C3270 0.950 . S
H3263 C3272 0.950 . S
H3264 C3274 0.950 . S
H3265 C3276 0.950 . S
H3266 C3278 0.950 . S
H3267 C3279 0.950 . S
C3268 H3260 0.950 . S
C3268 C3269 1.386 . S
C3268 C3270 1.391 . S
C3269 C3268 1.386 . S
C3269 C3273 1.393 . S
C3270 H3262 0.950 . S
C3270 C3268 1.391 . S
C3270 C3271 1.400 . S
C3271 C3270 1.400 . S
C3271 C3272 1.398 . S
C3271 C3277 1.491 . S
C3272 H3263 0.950 . S
C3272 C3271 1.398 . S
C3272 C3273 1.391 . S
C3273 H3261 0.950 . S
C3273 C3269 1.393 . S
C3273 C3272 1.391 . S
C3274 H3264 0.950 . S
C3274 C3275 1.386 . S
C3274 C3276 1.391 . S
C3275 C3274 1.386 . S
C3275 C3279 1.393 . S
C3276 H3265 0.950 . S
C3276 C3274 1.391 . S
C3276 C3277 1.400 . S
C3277 C3271 1.491 . S
C3277 C3276 1.400 . S
C3277 C3278 1.398 . S
C3278 H3266 0.950 . S
C3278 C3277 1.398 . S
C3278 C3279 1.391 . S
C3279 H3267 0.950 . S
C3279 C3275 1.393 . S
C3279 C3278 1.391 . S
H3280 C3288 0.950 . S
H3281 C3293 0.950 . S
H3282 C3290 0.950 1_565 S
H3283 C3292 0.950 . S
H3284 C3294 0.950 . S
H3285 C3296 0.950 1_545 S
H3286 C3298 0.950 . S
H3287 C3299 0.950 . S
C3288 H3280 0.950 . S
C3288 C3289 1.386 . S
C3288 C3290 1.391 . S
C3289 C3288 1.386 . S
C3289 C3293 1.393 . S
C3290 H3282 0.950 1_545 S
C3290 C3288 1.391 . S
C3290 C3291 1.400 . S
C3291 C3290 1.400 . S
C3291 C3292 1.398 . S
C3291 C3297 1.491 1_545 S
C3292 H3283 0.950 . S
C3292 C3291 1.398 . S
C3292 C3293 1.391 . S
C3293 H3281 0.950 . S
C3293 C3289 1.393 . S
C3293 C3292 1.391 . S
C3294 H3284 0.950 . S
C3294 C3295 1.386 . S
C3294 C3296 1.391 . S
C3295 C3294 1.386 . S
C3295 C3299 1.393 . S
C3296 H3285 0.950 1_565 S
C3296 C3294 1.391 . S
C3296 C3297 1.400 . S
C3297 C3291 1.491 1_565 S
C3297 C3296 1.400 . S
C3297 C3298 1.398 . S
C3298 H3286 0.950 . S
C3298 C3297 1.398 . S
C3298 C3299 1.391 . S
C3299 H3287 0.950 . S
C3299 C3295 1.393 . S
C3299 C3298 1.391 . S
H3300 C3308 0.950 . S
H3301 C3313 0.950 1_455 S
H3302 C3310 0.950 . S
H3303 C3312 0.950 . S
H3304 C3314 0.950 . S
H3305 C3316 0.950 . S
H3306 C3318 0.950 . S
H3307 C3319 0.950 1_655 S
C3308 H3300 0.950 . S
C3308 C3309 1.386 . S
C3308 C3310 1.391 . S
C3309 C3308 1.386 . S
C3309 C3313 1.393 . S
C3310 H3302 0.950 . S
C3310 C3308 1.391 . S
C3310 C3311 1.400 . S
C3311 C3310 1.400 . S
C3311 C3312 1.398 1_655 S
C3311 C3317 1.491 1_655 S
C3312 H3303 0.950 . S
C3312 C3311 1.398 1_455 S
C3312 C3313 1.391 1_455 S
C3313 H3301 0.950 1_655 S
C3313 C3309 1.393 . S
C3313 C3312 1.391 1_655 S
C3314 H3304 0.950 . S
C3314 C3315 1.386 . S
C3314 C3316 1.391 . S
C3315 C3314 1.386 . S
C3315 C3319 1.393 . S
C3316 H3305 0.950 . S
C3316 C3314 1.391 . S
C3316 C3317 1.400 . S
C3317 C3311 1.491 1_455 S
C3317 C3316 1.400 . S
C3317 C3318 1.398 1_455 S
C3318 H3306 0.950 . S
C3318 C3317 1.398 1_655 S
C3318 C3319 1.391 1_655 S
C3319 H3307 0.950 1_455 S
C3319 C3315 1.393 . S
C3319 C3318 1.391 1_455 S
H3320 C3328 0.950 . S
H3321 C3333 0.950 . S
H3322 C3330 0.950 . S
H3323 C3332 0.950 . S
H3324 C3334 0.950 . S
H3325 C3336 0.950 . S
H3326 C3338 0.950 . S
H3327 C3339 0.950 . S
C3328 H3320 0.950 . S
C3328 C3329 1.386 . S
C3328 C3330 1.391 . S
C3329 C3328 1.386 . S
C3329 C3333 1.393 . S
C3330 H3322 0.950 . S
C3330 C3328 1.391 . S
C3330 C3331 1.400 . S
C3331 C3330 1.400 . S
C3331 C3332 1.398 . S
C3331 C3337 1.491 . S
C3332 H3323 0.950 . S
C3332 C3331 1.398 . S
C3332 C3333 1.391 . S
C3333 H3321 0.950 . S
C3333 C3329 1.393 . S
C3333 C3332 1.391 . S
C3334 H3324 0.950 . S
C3334 C3335 1.386 . S
C3334 C3336 1.391 . S
C3335 C3334 1.386 . S
C3335 C3339 1.393 . S
C3336 H3325 0.950 . S
C3336 C3334 1.391 . S
C3336 C3337 1.400 . S
C3337 C3331 1.491 . S
C3337 C3336 1.400 . S
C3337 C3338 1.398 . S
C3338 H3326 0.950 . S
C3338 C3337 1.398 . S
C3338 C3339 1.391 . S
C3339 H3327 0.950 . S
C3339 C3335 1.393 . S
C3339 C3338 1.391 . S
H3340 C3348 0.950 1_565 S
H3341 C3353 0.950 . S
H3342 C3350 0.950 . S
H3343 C3352 0.950 . S
H3344 C3354 0.950 1_545 S
H3345 C3356 0.950 . S
H3346 C3358 0.950 . S
H3347 C3359 0.950 . S
C3348 H3340 0.950 1_545 S
C3348 C3349 1.386 . S
C3348 C3350 1.391 1_545 S
C3349 C3348 1.386 . S
C3349 C3353 1.393 . S
C3350 H3342 0.950 . S
C3350 C3348 1.391 1_565 S
C3350 C3351 1.400 1_565 S
C3351 C3350 1.400 1_545 S
C3351 C3352 1.398 . S
C3351 C3357 1.491 1_545 S
C3352 H3343 0.950 . S
C3352 C3351 1.398 . S
C3352 C3353 1.391 . S
C3353 H3341 0.950 . S
C3353 C3349 1.393 . S
C3353 C3352 1.391 . S
C3354 H3344 0.950 1_565 S
C3354 C3355 1.386 . S
C3354 C3356 1.391 1_565 S
C3355 C3354 1.386 . S
C3355 C3359 1.393 . S
C3356 H3345 0.950 . S
C3356 C3354 1.391 1_545 S
C3356 C3357 1.400 1_545 S
C3357 C3351 1.491 1_565 S
C3357 C3356 1.400 1_565 S
C3357 C3358 1.398 . S
C3358 H3346 0.950 . S
C3358 C3357 1.398 . S
C3358 C3359 1.391 . S
C3359 H3347 0.950 . S
C3359 C3355 1.393 . S
C3359 C3358 1.391 . S
H3360 C3368 0.950 . S
H3361 C3373 0.950 . S
H3362 C3370 0.950 . S
H3363 C3372 0.950 . S
H3364 C3374 0.950 . S
H3365 C3376 0.950 . S
H3366 C3378 0.950 . S
H3367 C3379 0.950 . S
C3368 H3360 0.950 . S
C3368 C3369 1.386 . S
C3368 C3370 1.391 . S
C3369 C3368 1.386 . S
C3369 C3373 1.393 . S
C3370 H3362 0.950 . S
C3370 C3368 1.391 . S
C3370 C3371 1.400 . S
C3371 C3370 1.400 . S
C3371 C3372 1.398 . S
C3371 C3377 1.491 . S
C3372 H3363 0.950 . S
C3372 C3371 1.398 . S
C3372 C3373 1.391 . S
C3373 H3361 0.950 . S
C3373 C3369 1.393 . S
C3373 C3372 1.391 . S
C3374 H3364 0.950 . S
C3374 C3375 1.386 . S
C3374 C3376 1.391 . S
C3375 C3374 1.386 . S
C3375 C3379 1.393 . S
C3376 H3365 0.950 . S
C3376 C3374 1.391 . S
C3376 C3377 1.400 . S
C3377 C3371 1.491 . S
C3377 C3376 1.400 . S
C3377 C3378 1.398 . S
C3378 H3366 0.950 . S
C3378 C3377 1.398 . S
C3378 C3379 1.391 . S
C3379 H3367 0.950 . S
C3379 C3375 1.393 . S
C3379 C3378 1.391 . S
H3380 C3388 0.950 . S
H3381 C3393 0.950 . S
H3382 C3390 0.950 . S
H3383 C3392 0.950 . S
H3384 C3394 0.950 . S
H3385 C3396 0.950 . S
H3386 C3398 0.950 . S
H3387 C3399 0.950 . S
C3388 H3380 0.950 . S
C3388 C3389 1.386 . S
C3388 C3390 1.391 . S
C3389 C3388 1.386 . S
C3389 C3393 1.393 . S
C3390 H3382 0.950 . S
C3390 C3388 1.391 . S
C3390 C3391 1.400 . S
C3391 C3390 1.400 . S
C3391 C3392 1.398 . S
C3391 C3397 1.491 . S
C3392 H3383 0.950 . S
C3392 C3391 1.398 . S
C3392 C3393 1.391 . S
C3393 H3381 0.950 . S
C3393 C3389 1.393 . S
C3393 C3392 1.391 . S
C3394 H3384 0.950 . S
C3394 C3395 1.386 . S
C3394 C3396 1.391 . S
C3395 C3394 1.386 . S
C3395 C3399 1.393 . S
C3396 H3385 0.950 . S
C3396 C3394 1.391 . S
C3396 C3397 1.400 . S
C3397 C3391 1.491 . S
C3397 C3396 1.400 . S
C3397 C3398 1.398 . S
C3398 H3386 0.950 . S
C3398 C3397 1.398 . S
C3398 C3399 1.391 . S
C3399 H3387 0.950 . S
C3399 C3395 1.393 . S
C3399 C3398 1.391 . S
H3400 C3408 0.950 . S
H3401 C3413 0.950 . S
H3402 C3410 0.950 . S
H3403 C3412 0.950 . S
H3404 C3414 0.950 . S
H3405 C3416 0.950 . S
H3406 C3418 0.950 . S
H3407 C3419 0.950 . S
C3408 H3400 0.950 . S
C3408 C3409 1.386 . S
C3408 C3410 1.391 . S
C3409 C3408 1.386 . S
C3409 C3413 1.393 . S
C3410 H3402 0.950 . S
C3410 C3408 1.391 . S
C3410 C3411 1.400 . S
C3411 C3410 1.400 . S
C3411 C3412 1.398 . S
C3411 C3417 1.491 . S
C3412 H3403 0.950 . S
C3412 C3411 1.398 . S
C3412 C3413 1.391 . S
C3413 H3401 0.950 . S
C3413 C3409 1.393 . S
C3413 C3412 1.391 . S
C3414 H3404 0.950 . S
C3414 C3415 1.386 . S
C3414 C3416 1.391 . S
C3415 C3414 1.386 . S
C3415 C3419 1.393 . S
C3416 H3405 0.950 . S
C3416 C3414 1.391 . S
C3416 C3417 1.400 . S
C3417 C3411 1.491 . S
C3417 C3416 1.400 . S
C3417 C3418 1.398 . S
C3418 H3406 0.950 . S
C3418 C3417 1.398 . S
C3418 C3419 1.391 . S
C3419 H3407 0.950 . S
C3419 C3415 1.393 . S
C3419 C3418 1.391 . S
H3420 C3428 0.950 . S
H3421 C3433 0.950 . S
H3422 C3430 0.950 . S
H3423 C3432 0.950 . S
H3424 C3434 0.950 . S
H3425 C3436 0.950 . S
H3426 C3438 0.950 . S
H3427 C3439 0.950 . S
C3428 H3420 0.950 . S
C3428 C3429 1.386 . S
C3428 C3430 1.391 . S
C3429 C3428 1.386 . S
C3429 C3433 1.393 . S
C3430 H3422 0.950 . S
C3430 C3428 1.391 . S
C3430 C3431 1.400 . S
C3431 C3430 1.400 . S
C3431 C3432 1.398 . S
C3431 C3437 1.491 . S
C3432 H3423 0.950 . S
C3432 C3431 1.398 . S
C3432 C3433 1.391 . S
C3433 H3421 0.950 . S
C3433 C3429 1.393 . S
C3433 C3432 1.391 . S
C3434 H3424 0.950 . S
C3434 C3435 1.386 . S
C3434 C3436 1.391 . S
C3435 C3434 1.386 . S
C3435 C3439 1.393 . S
C3436 H3425 0.950 . S
C3436 C3434 1.391 . S
C3436 C3437 1.400 . S
C3437 C3431 1.491 . S
C3437 C3436 1.400 . S
C3437 C3438 1.398 . S
C3438 H3426 0.950 . S
C3438 C3437 1.398 . S
C3438 C3439 1.391 . S
C3439 H3427 0.950 . S
C3439 C3435 1.393 . S
C3439 C3438 1.391 . S
H3440 C3448 0.950 . S
H3441 C3453 0.950 . S
H3442 C3450 0.950 . S
H3443 C3452 0.950 . S
H3444 C3454 0.950 . S
H3445 C3456 0.950 . S
H3446 C3458 0.950 . S
H3447 C3459 0.950 . S
C3448 H3440 0.950 . S
C3448 C3449 1.386 . S
C3448 C3450 1.391 . S
C3449 C3448 1.386 . S
C3449 C3453 1.393 . S
C3450 H3442 0.950 . S
C3450 C3448 1.391 . S
C3450 C3451 1.400 . S
C3451 C3450 1.400 . S
C3451 C3452 1.398 . S
C3451 C3457 1.491 . S
C3452 H3443 0.950 . S
C3452 C3451 1.398 . S
C3452 C3453 1.391 . S
C3453 H3441 0.950 . S
C3453 C3449 1.393 . S
C3453 C3452 1.391 . S
C3454 H3444 0.950 . S
C3454 C3455 1.386 . S
C3454 C3456 1.391 . S
C3455 C3454 1.386 . S
C3455 C3459 1.393 . S
C3456 H3445 0.950 . S
C3456 C3454 1.391 . S
C3456 C3457 1.400 . S
C3457 C3451 1.491 . S
C3457 C3456 1.400 . S
C3457 C3458 1.398 . S
C3458 H3446 0.950 . S
C3458 C3457 1.398 . S
C3458 C3459 1.391 . S
C3459 H3447 0.950 . S
C3459 C3455 1.393 . S
C3459 C3458 1.391 . S
H3460 C3468 0.950 . S
H3461 C3473 0.950 . S
H3462 C3470 0.950 . S
H3463 C3472 0.950 . S
H3464 C3474 0.950 . S
H3465 C3476 0.950 . S
H3466 C3478 0.950 . S
H3467 C3479 0.950 . S
C3468 H3460 0.950 . S
C3468 C3469 1.386 . S
C3468 C3470 1.391 . S
C3469 C3468 1.386 . S
C3469 C3473 1.393 . S
C3470 H3462 0.950 . S
C3470 C3468 1.391 . S
C3470 C3471 1.400 . S
C3471 C3470 1.400 . S
C3471 C3472 1.398 . S
C3471 C3477 1.491 . S
C3472 H3463 0.950 . S
C3472 C3471 1.398 . S
C3472 C3473 1.391 . S
C3473 H3461 0.950 . S
C3473 C3469 1.393 . S
C3473 C3472 1.391 . S
C3474 H3464 0.950 . S
C3474 C3475 1.386 . S
C3474 C3476 1.391 . S
C3475 C3474 1.386 . S
C3475 C3479 1.393 . S
C3476 H3465 0.950 . S
C3476 C3474 1.391 . S
C3476 C3477 1.400 . S
C3477 C3471 1.491 . S
C3477 C3476 1.400 . S
C3477 C3478 1.398 . S
C3478 H3466 0.950 . S
C3478 C3477 1.398 . S
C3478 C3479 1.391 . S
C3479 H3467 0.950 . S
C3479 C3475 1.393 . S
C3479 C3478 1.391 . S
H3480 C3488 0.950 . S
H3481 C3493 0.950 . S
H3482 C3490 0.950 . S
H3483 C3492 0.950 . S
H3484 C3494 0.950 . S
H3485 C3496 0.950 . S
H3486 C3498 0.950 . S
H3487 C3499 0.950 . S
C3488 H3480 0.950 . S
C3488 C3489 1.386 . S
C3488 C3490 1.391 . S
C3489 C3488 1.386 . S
C3489 C3493 1.393 . S
C3490 H3482 0.950 . S
C3490 C3488 1.391 . S
C3490 C3491 1.400 . S
C3491 C3490 1.400 . S
C3491 C3492 1.398 . S
C3491 C3497 1.491 . S
C3492 H3483 0.950 . S
C3492 C3491 1.398 . S
C3492 C3493 1.391 . S
C3493 H3481 0.950 . S
C3493 C3489 1.393 . S
C3493 C3492 1.391 . S
C3494 H3484 0.950 . S
C3494 C3495 1.386 . S
C3494 C3496 1.391 . S
C3495 C3494 1.386 . S
C3495 C3499 1.393 . S
C3496 H3485 0.950 . S
C3496 C3494 1.391 . S
C3496 C3497 1.400 . S
C3497 C3491 1.491 . S
C3497 C3496 1.400 . S
C3497 C3498 1.398 . S
C3498 H3486 0.950 . S
C3498 C3497 1.398 . S
C3498 C3499 1.391 . S
C3499 H3487 0.950 . S
C3499 C3495 1.393 . S
C3499 C3498 1.391 . S
H3500 C3508 0.950 . S
H3501 C3513 0.950 . S
H3502 C3510 0.950 . S
H3503 C3512 0.950 . S
H3504 C3514 0.950 . S
H3505 C3516 0.950 . S
H3506 C3518 0.950 . S
H3507 C3519 0.950 . S
C3508 H3500 0.950 . S
C3508 C3509 1.386 . S
C3508 C3510 1.391 . S
C3509 C3508 1.386 . S
C3509 C3513 1.393 . S
C3510 H3502 0.950 . S
C3510 C3508 1.391 . S
C3510 C3511 1.400 . S
C3511 C3510 1.400 . S
C3511 C3512 1.398 . S
C3511 C3517 1.491 . S
C3512 H3503 0.950 . S
C3512 C3511 1.398 . S
C3512 C3513 1.391 . S
C3513 H3501 0.950 . S
C3513 C3509 1.393 . S
C3513 C3512 1.391 . S
C3514 H3504 0.950 . S
C3514 C3515 1.386 . S
C3514 C3516 1.391 . S
C3515 C3514 1.386 . S
C3515 C3519 1.393 . S
C3516 H3505 0.950 . S
C3516 C3514 1.391 . S
C3516 C3517 1.400 . S
C3517 C3511 1.491 . S
C3517 C3516 1.400 . S
C3517 C3518 1.398 . S
C3518 H3506 0.950 . S
C3518 C3517 1.398 . S
C3518 C3519 1.391 . S
C3519 H3507 0.950 . S
C3519 C3515 1.393 . S
C3519 C3518 1.391 . S
H3520 C3528 0.950 . S
H3521 C3533 0.950 . S
H3522 C3530 0.950 . S
H3523 C3532 0.950 . S
H3524 C3534 0.950 . S
H3525 C3536 0.950 . S
H3526 C3538 0.950 . S
H3527 C3539 0.950 . S
C3528 H3520 0.950 . S
C3528 C3529 1.386 . S
C3528 C3530 1.391 . S
C3529 C3528 1.386 . S
C3529 C3533 1.393 . S
C3530 H3522 0.950 . S
C3530 C3528 1.391 . S
C3530 C3531 1.400 . S
C3531 C3530 1.400 . S
C3531 C3532 1.398 . S
C3531 C3537 1.491 . S
C3532 H3523 0.950 . S
C3532 C3531 1.398 . S
C3532 C3533 1.391 . S
C3533 H3521 0.950 . S
C3533 C3529 1.393 . S
C3533 C3532 1.391 . S
C3534 H3524 0.950 . S
C3534 C3535 1.386 . S
C3534 C3536 1.391 . S
C3535 C3534 1.386 . S
C3535 C3539 1.393 . S
C3536 H3525 0.950 . S
C3536 C3534 1.391 . S
C3536 C3537 1.400 . S
C3537 C3531 1.491 . S
C3537 C3536 1.400 . S
C3537 C3538 1.398 . S
C3538 H3526 0.950 . S
C3538 C3537 1.398 . S
C3538 C3539 1.391 . S
C3539 H3527 0.950 . S
C3539 C3535 1.393 . S
C3539 C3538 1.391 . S
H3540 C3548 0.950 . S
H3541 C3553 0.950 . S
H3542 C3550 0.950 . S
H3543 C3552 0.950 . S
H3544 C3554 0.950 . S
H3545 C3556 0.950 . S
H3546 C3558 0.950 . S
H3547 C3559 0.950 . S
C3548 H3540 0.950 . S
C3548 C3549 1.386 . S
C3548 C3550 1.391 . S
C3549 C3548 1.386 . S
C3549 C3553 1.393 . S
C3550 H3542 0.950 . S
C3550 C3548 1.391 . S
C3550 C3551 1.400 . S
C3551 C3550 1.400 . S
C3551 C3552 1.398 . S
C3551 C3557 1.491 . S
C3552 H3543 0.950 . S
C3552 C3551 1.398 . S
C3552 C3553 1.391 . S
C3553 H3541 0.950 . S
C3553 C3549 1.393 . S
C3553 C3552 1.391 . S
C3554 H3544 0.950 . S
C3554 C3555 1.386 . S
C3554 C3556 1.391 . S
C3555 C3554 1.386 . S
C3555 C3559 1.393 . S
C3556 H3545 0.950 . S
C3556 C3554 1.391 . S
C3556 C3557 1.400 . S
C3557 C3551 1.491 . S
C3557 C3556 1.400 . S
C3557 C3558 1.398 . S
C3558 H3546 0.950 . S
C3558 C3557 1.398 . S
C3558 C3559 1.391 . S
C3559 H3547 0.950 . S
C3559 C3555 1.393 . S
C3559 C3558 1.391 . S
H3560 C3568 0.950 . S
H3561 C3573 0.950 . S
H3562 C3570 0.950 . S
H3563 C3572 0.950 . S
H3564 C3574 0.950 . S
H3565 C3576 0.950 . S
H3566 C3578 0.950 . S
H3567 C3579 0.950 . S
C3568 H3560 0.950 . S
C3568 C3569 1.386 . S
C3568 C3570 1.391 . S
C3569 C3568 1.386 . S
C3569 C3573 1.393 . S
C3570 H3562 0.950 . S
C3570 C3568 1.391 . S
C3570 C3571 1.400 . S
C3571 C3570 1.400 . S
C3571 C3572 1.398 . S
C3571 C3577 1.491 . S
C3572 H3563 0.950 . S
C3572 C3571 1.398 . S
C3572 C3573 1.391 . S
C3573 H3561 0.950 . S
C3573 C3569 1.393 . S
C3573 C3572 1.391 . S
C3574 H3564 0.950 . S
C3574 C3575 1.386 . S
C3574 C3576 1.391 . S
C3575 C3574 1.386 . S
C3575 C3579 1.393 . S
C3576 H3565 0.950 . S
C3576 C3574 1.391 . S
C3576 C3577 1.400 . S
C3577 C3571 1.491 . S
C3577 C3576 1.400 . S
C3577 C3578 1.398 . S
C3578 H3566 0.950 . S
C3578 C3577 1.398 . S
C3578 C3579 1.391 . S
C3579 H3567 0.950 . S
C3579 C3575 1.393 . S
C3579 C3578 1.391 . S
H3580 C3588 0.950 . S
H3581 C3593 0.950 . S
H3582 C3590 0.950 . S
H3583 C3592 0.950 . S
H3584 C3594 0.950 . S
H3585 C3596 0.950 . S
H3586 C3598 0.950 . S
H3587 C3599 0.950 . S
C3588 H3580 0.950 . S
C3588 C3589 1.386 . S
C3588 C3590 1.391 . S
C3589 C3588 1.386 . S
C3589 C3593 1.393 . S
C3590 H3582 0.950 . S
C3590 C3588 1.391 . S
C3590 C3591 1.400 . S
C3591 C3590 1.400 . S
C3591 C3592 1.398 . S
C3591 C3597 1.491 . S
C3592 H3583 0.950 . S
C3592 C3591 1.398 . S
C3592 C3593 1.391 . S
C3593 H3581 0.950 . S
C3593 C3589 1.393 . S
C3593 C3592 1.391 . S
C3594 H3584 0.950 . S
C3594 C3595 1.386 . S
C3594 C3596 1.391 . S
C3595 C3594 1.386 . S
C3595 C3599 1.393 . S
C3596 H3585 0.950 . S
C3596 C3594 1.391 . S
C3596 C3597 1.400 . S
C3597 C3591 1.491 . S
C3597 C3596 1.400 . S
C3597 C3598 1.398 . S
C3598 H3586 0.950 . S
C3598 C3597 1.398 . S
C3598 C3599 1.391 . S
C3599 H3587 0.950 . S
C3599 C3595 1.393 . S
C3599 C3598 1.391 . S
C1449 C10 1.734 . S
C1455 C91 1.788 . S
C1469 C11 1.788 . S
C1475 C50 1.749 1_545 S
C1489 C90 1.746 1_655 S
C1495 C51 1.787 . S
C1509 C130 1.806 . S
C1515 C171 1.878 . S
C1529 C211 1.877 . S
C1535 C170 1.804 1_565 S
C1549 C210 1.803 1_455 S
C1555 C131 1.877 . S
C1569 C259 1.724 . S
C1575 C322 1.799 . S
C1589 C299 1.733 1_565 S
C1595 C242 1.790 . S
C1609 C339 1.736 1_455 S
C1615 C282 1.802 . S
C1629 C379 1.805 . S
C1635 C402 1.878 . S
C1649 C442 1.865 . S
C1655 C419 1.816 1_545 S
C1669 C362 1.875 . S
C1675 C459 1.803 1_655 S
C1689 C571 1.853 . S
C1695 C490 1.811 . S
C1709 C530 1.815 . S
C1715 C491 1.856 . S
C1729 C531 1.868 . S
C1735 C570 1.794 . S
C1749 C610 1.839 . S
C1755 C651 1.884 . S
C1769 C691 1.893 . S
C1775 C650 1.823 . S
C1789 C611 1.889 . S
C1795 C690 1.846 . S
C1809 C739 1.784 . S
C1815 C802 1.825 . S
C1829 C779 1.784 . S
C1835 C722 1.823 . S
C1849 C762 1.836 . S
C1855 C819 1.770 . S
C1869 C882 1.715 . S
C1875 C859 1.638 1_554 S
C1889 C899 1.639 1_554 S
C1895 C922 1.717 . S
C1909 C842 1.717 . S
C1915 C939 1.639 1_554 S
C1929 C970 1.760 . S
C1935 C1051 1.835 . S
C1949 C1010 1.774 . S
C1955 C971 1.822 . S
C1969 C1050 1.759 . S
C1975 C1011 1.832 . S
C1989 C1090 1.679 1_556 S
C1995 C1131 1.710 . S
C2009 C1130 1.683 1_556 S
C2015 C1171 1.712 . S
C2029 C1170 1.654 1_556 S
C2035 C1091 1.723 . S
C2049 C1219 1.801 . S
C2055 C1282 1.854 . S
C2069 C1259 1.797 . S
C2075 C1202 1.858 . S
C2089 C1242 1.855 . S
C2095 C1299 1.802 . S
C2109 C1339 1.845 . S
C2115 C1362 1.886 . S
C2129 C1379 1.830 . S
C2135 C1402 1.887 . S
C2149 C1322 1.898 . S
C2155 C1419 1.828 . S
C2169 C2 1.804 . S
C2175 C810 1.785 . S
C2189 C730 1.790 . S
C2195 C42 1.794 . S
C2209 C82 1.794 . S
C2215 C770 1.793 . S
C2229 C122 1.697 . S
C2235 C1370 1.695 . S
C2249 C1410 1.694 . S
C2255 C162 1.694 . S
C2269 C202 1.689 . S
C2275 C1330 1.682 . S
C2289 C1059 1.800 . S
C2295 C251 1.810 . S
C2309 C291 1.796 . S
C2315 C979 1.787 . S
C2329 C331 1.806 . S
C2335 C1019 1.785 . S
C2349 C659 1.677 . S
C2355 C371 1.706 . S
C2369 C699 1.673 . S
C2375 C411 1.701 . S
C2389 C619 1.680 . S
C2395 C451 1.707 . S
C2409 C482 1.758 . S
C2415 C1290 1.745 . S
C2429 C522 1.760 . S
C2435 C1210 1.737 . S
C2449 C1250 1.732 . S
C2455 C562 1.744 . S
C2469 C410 1.726 . S
C2475 C602 1.730 . S
C2489 C450 1.717 . S
C2495 C642 1.744 . S
C2509 C370 1.737 . S
C2515 C682 1.742 . S
C2529 C99 1.790 . S
C2535 C731 1.806 . S
C2549 C771 1.804 . S
C2555 C19 1.784 . S
C2569 C811 1.803 . S
C2575 C59 1.783 . S
C2589 C1139 1.741 1_554 S
C2595 C851 1.775 . S
C2609 C1179 1.752 1_554 S
C2615 C891 1.758 . S
C2629 C931 1.769 . S
C2635 C1099 1.734 . S
C2649 C330 1.782 . S
C2655 C962 1.802 . S
C2669 C250 1.799 . S
C2675 C1002 1.793 . S
C2689 C290 1.798 . S
C2695 C1042 1.801 . S
C2709 C1082 1.776 . S
C2715 C890 1.736 . S
C2729 C930 1.752 1_556 S
C2735 C1122 1.764 . S
C2749 C1162 1.777 . S
C2755 C850 1.745 1_556 S
C2769 C1211 1.753 . S
C2775 C579 1.729 . S
C2789 C1251 1.749 . S
C2795 C499 1.750 . S
C2809 C1291 1.759 . S
C2815 C539 1.736 . S
C2829 C1331 1.732 . S
C2835 C179 1.734 . S
C2849 C219 1.724 . S
C2855 C1371 1.748 . S
C2869 C139 1.726 . S
C2875 C1411 1.749 . S
C2889 C1167 2.311 . S
C2895 C7 2.293 . S
C2909 C1087 2.318 . S
C2915 C47 2.302 . S
C2929 C87 2.322 . S
C2935 C1127 2.298 . S
C2949 C527 2.554 . S
C2955 C127 2.551 . S
C2969 C167 2.555 . S
C2975 C567 2.552 . S
C2989 C207 2.561 . S
C2995 C487 2.562 . S
C3009 C256 2.317 . S
C3015 C936 2.303 . S
C3029 C296 2.312 . S
C3035 C856 2.302 . S
C3049 C336 2.309 . S
C3055 C896 2.299 . S
C3069 C1256 2.560 . S
C3075 C376 2.562 . S
C3089 C1296 2.553 . S
C3095 C416 2.552 . S
C3109 C1216 2.551 . S
C3115 C456 2.555 . S
C3129 C607 2.614 . S
C3135 C1007 2.610 . S
C3149 C647 2.610 . S
C3155 C1047 2.609 . S
C3169 C687 2.609 . S
C3175 C967 2.609 . S
C3189 C736 2.619 . S
C3195 C1416 2.621 . S
C3209 C1336 2.610 . S
C3215 C776 2.620 . S
C3229 C816 2.620 . S
C3235 C1376 2.616 . S
C3249 C176 1.133 . S
C3255 C16 1.136 . S
C3269 C216 1.128 . S
C3275 C56 1.140 . S
C3289 C136 1.136 . S
C3295 C96 1.134 . S
C3309 C247 1.141 . S
C3315 C407 1.129 . S
C3329 C447 1.130 . S
C3335 C287 1.138 . S
C3349 C327 1.130 . S
C3355 C367 1.141 . S
C3369 C656 1.224 . S
C3375 C496 1.225 . S
C3389 C696 1.229 . S
C3395 C536 1.219 . S
C3409 C616 1.218 . S
C3415 C576 1.228 . S
C3429 C887 1.500 . S
C3435 C727 1.517 . S
C3449 C767 1.508 . S
C3455 C927 1.502 . S
C3469 C807 1.506 . S
C3475 C847 1.511 . S
C3489 C976 1.502 . S
C3495 C1136 1.514 . S
C3509 C1176 1.489 . S
C3515 C1016 1.522 . S
C3529 C1056 1.507 . S
C3535 C1096 1.501 . S
C3549 C1207 1.228 . S
C3555 C1367 1.219 . S
C3569 C1407 1.228 . S
C3575 C1247 1.218 . S
C3589 C1287 1.222 . S
C3595 C1327 1.223 . S
