# Generated by pormake.
# Topology wll, (5)-cn, num edge types: 1
# Building blocks:
#     Node 0, Type 0, BuildingBlock: BEQFEK_clean_sbu_0, # of connection points: 5
#     Node 1, Type 0, BuildingBlock: BEQFEK_clean_sbu_0, # of connection points: 5
#     Node 2, Type 0, BuildingBlock: BEQFEK_clean_sbu_0, # of connection points: 5
#     Node 3, Type 0, BuildingBlock: BEQFEK_clean_sbu_0, # of connection points: 5
#     Node 4, Type 0, BuildingBlock: BEQFEK_clean_sbu_0, # of connection points: 5
#     Node 5, Type 0, BuildingBlock: BEQFEK_clean_sbu_0, # of connection points: 5
#     Node 6, Type 0, BuildingBlock: BEQFEK_clean_sbu_0, # of connection points: 5
#     Node 7, Type 0, BuildingBlock: BEQFEK_clean_sbu_0, # of connection points: 5
#     Node 8, Type 0, BuildingBlock: BEQFEK_clean_sbu_0, # of connection points: 5
#     Node 9, Type 0, BuildingBlock: BEQFEK_clean_sbu_0, # of connection points: 5
#     Node 10, Type 0, BuildingBlock: BEQFEK_clean_sbu_0, # of connection points: 5
#     Node 11, Type 0, BuildingBlock: BEQFEK_clean_sbu_0, # of connection points: 5
#     Node 12, Type 0, BuildingBlock: BEQFEK_clean_sbu_0, # of connection points: 5
#     Node 13, Type 0, BuildingBlock: BEQFEK_clean_sbu_0, # of connection points: 5
#     Node 14, Type 0, BuildingBlock: BEQFEK_clean_sbu_0, # of connection points: 5
#     Node 15, Type 0, BuildingBlock: BEQFEK_clean_sbu_0, # of connection points: 5
#     Node 16, Type 0, BuildingBlock: BEQFEK_clean_sbu_0, # of connection points: 5
#     Node 17, Type 0, BuildingBlock: BEQFEK_clean_sbu_0, # of connection points: 5
#     Edge 18, Type (0, 0), BuildingBlock: XIVTED_clean_linker_0, # of connection points: 2
#     Edge 19, Type (0, 0), BuildingBlock: XIVTED_clean_linker_0, # of connection points: 2
#     Edge 20, Type (0, 0), BuildingBlock: XIVTED_clean_linker_0, # of connection points: 2
#     Edge 21, Type (0, 0), BuildingBlock: XIVTED_clean_linker_0, # of connection points: 2
#     Edge 22, Type (0, 0), BuildingBlock: XIVTED_clean_linker_0, # of connection points: 2
#     Edge 23, Type (0, 0), BuildingBlock: XIVTED_clean_linker_0, # of connection points: 2
#     Edge 24, Type (0, 0), BuildingBlock: XIVTED_clean_linker_0, # of connection points: 2
#     Edge 25, Type (0, 0), BuildingBlock: XIVTED_clean_linker_0, # of connection points: 2
#     Edge 26, Type (0, 0), BuildingBlock: XIVTED_clean_linker_0, # of connection points: 2
#     Edge 27, Type (0, 0), BuildingBlock: XIVTED_clean_linker_0, # of connection points: 2
#     Edge 28, Type (0, 0), BuildingBlock: XIVTED_clean_linker_0, # of connection points: 2
#     Edge 29, Type (0, 0), BuildingBlock: XIVTED_clean_linker_0, # of connection points: 2
#     Edge 30, Type (0, 0), BuildingBlock: XIVTED_clean_linker_0, # of connection points: 2
#     Edge 31, Type (0, 0), BuildingBlock: XIVTED_clean_linker_0, # of connection points: 2
#     Edge 32, Type (0, 0), BuildingBlock: XIVTED_clean_linker_0, # of connection points: 2
#     Edge 33, Type (0, 0), BuildingBlock: XIVTED_clean_linker_0, # of connection points: 2
#     Edge 34, Type (0, 0), BuildingBlock: XIVTED_clean_linker_0, # of connection points: 2
#     Edge 35, Type (0, 0), BuildingBlock: XIVTED_clean_linker_0, # of connection points: 2
#     Edge 36, Type (0, 0), BuildingBlock: XIVTED_clean_linker_0, # of connection points: 2
#     Edge 37, Type (0, 0), BuildingBlock: XIVTED_clean_linker_0, # of connection points: 2
#     Edge 38, Type (0, 0), BuildingBlock: XIVTED_clean_linker_0, # of connection points: 2
#     Edge 39, Type (0, 0), BuildingBlock: XIVTED_clean_linker_0, # of connection points: 2
#     Edge 40, Type (0, 0), BuildingBlock: XIVTED_clean_linker_0, # of connection points: 2
#     Edge 41, Type (0, 0), BuildingBlock: XIVTED_clean_linker_0, # of connection points: 2
#     Edge 42, Type (0, 0), BuildingBlock: XIVTED_clean_linker_0, # of connection points: 2
#     Edge 43, Type (0, 0), BuildingBlock: XIVTED_clean_linker_0, # of connection points: 2
#     Edge 44, Type (0, 0), BuildingBlock: XIVTED_clean_linker_0, # of connection points: 2
#     Edge 45, Type (0, 0), BuildingBlock: XIVTED_clean_linker_0, # of connection points: 2
#     Edge 46, Type (0, 0), BuildingBlock: XIVTED_clean_linker_0, # of connection points: 2
#     Edge 47, Type (0, 0), BuildingBlock: XIVTED_clean_linker_0, # of connection points: 2
#     Edge 48, Type (0, 0), BuildingBlock: XIVTED_clean_linker_0, # of connection points: 2
#     Edge 49, Type (0, 0), BuildingBlock: XIVTED_clean_linker_0, # of connection points: 2
#     Edge 50, Type (0, 0), BuildingBlock: XIVTED_clean_linker_0, # of connection points: 2
#     Edge 51, Type (0, 0), BuildingBlock: XIVTED_clean_linker_0, # of connection points: 2
#     Edge 52, Type (0, 0), BuildingBlock: XIVTED_clean_linker_0, # of connection points: 2
#     Edge 53, Type (0, 0), BuildingBlock: XIVTED_clean_linker_0, # of connection points: 2
#     Edge 54, Type (0, 0), BuildingBlock: XIVTED_clean_linker_0, # of connection points: 2
#     Edge 55, Type (0, 0), BuildingBlock: XIVTED_clean_linker_0, # of connection points: 2
#     Edge 56, Type (0, 0), BuildingBlock: XIVTED_clean_linker_0, # of connection points: 2
#     Edge 57, Type (0, 0), BuildingBlock: XIVTED_clean_linker_0, # of connection points: 2
#     Edge 58, Type (0, 0), BuildingBlock: XIVTED_clean_linker_0, # of connection points: 2
#     Edge 59, Type (0, 0), BuildingBlock: XIVTED_clean_linker_0, # of connection points: 2
#     Edge 60, Type (0, 0), BuildingBlock: XIVTED_clean_linker_0, # of connection points: 2
#     Edge 61, Type (0, 0), BuildingBlock: XIVTED_clean_linker_0, # of connection points: 2
#     Edge 62, Type (0, 0), BuildingBlock: XIVTED_clean_linker_0, # of connection points: 2
# Relax obj value: 0.195
# Max RMSD: 0.163
# Mean RMSD: 0.161
data_MOF--net-wll--node1-BEQFEK_clean_sbu_0--edge1-XIVTED_clean_linker_0
_symmetry_space_group_name_H-M    P1
_symmetry_Int_Tables_number       1
_symmetry_cell_setting            triclinic
loop_
_symmetry_equiv_pos_as_xyz
'x, y, z'
_cell_length_a     40.092953
_cell_length_b     40.048764
_cell_length_c     67.271454
_cell_angle_alpha  89.934867
_cell_angle_beta   90.009299
_cell_angle_gamma 119.91857
loop_
_atom_site_label
_atom_site_type_symbol
_atom_site_fract_x
_atom_site_fract_y
_atom_site_fract_z
_atom_type_partial_charge
Co0 Co 0.29426 0.3198 0.11821 0.0
Co1 Co 0.33981 0.30575 0.08452 0.0
C2 C 0.31314 0.2569 0.12146 0.0
O3 O 0.2971 0.27507 0.12818 0.0
O4 O 0.3305 0.26572 0.10478 0.0
C5 C 0.2575 0.32004 0.15458 0.0
O6 O 0.27646 0.30397 0.16195 0.0
C7 C 0.34736 0.25933 0.05364 0.0
C8 C 0.39087 0.30272 0.03345 0.0
C9 C 0.36651 0.26346 0.03588 0.0
N10 N 0.35981 0.29446 0.0614 0.0
N11 N 0.3862 0.32031 0.04941 0.0
C12 C 0.31478 0.22314 0.0621 0.0
H13 H 0.29538 0.2298 0.07087 0.0
H14 H 0.29818 0.20239 0.05013 0.0
H15 H 0.3266 0.20957 0.07213 0.0
C16 C 0.24603 0.31571 0.08435 0.0
N17 N 0.27497 0.31214 0.09217 0.0
N18 N 0.29383 0.30639 0.07781 0.0
C19 C 0.27716 0.30594 0.06029 0.0
C20 C 0.2464 0.31188 0.0639 0.0
C21 C 0.21978 0.32445 0.09625 0.0
H22 H 0.23666 0.35368 0.10277 0.0
H23 H 0.20727 0.30355 0.10867 0.0
H24 H 0.19615 0.323 0.08702 0.0
O25 O 0.34568 0.36552 0.11904 0.0
O26 O 0.37923 0.35659 0.0954 0.0
H27 H 0.32368 0.32678 0.03953 0.0
H28 H 0.27709 0.3086 0.02808 0.0
C29 C 0.29292 0.30424 0.0404 0.0
H30 H 0.29086 0.27577 0.03858 0.0
H31 H 0.40005 0.34999 0.05179 0.0
O32 O 0.26112 0.3291 0.13628 0.0
C33 C 0.37679 0.37673 0.1094 0.0
Co34 Co 0.67205 0.97747 0.12145 0.0
Co35 Co 0.68633 0.03548 0.08656 0.0
C36 C 0.74046 0.05548 0.12153 0.0
O37 O 0.72194 0.02175 0.12882 0.0
O38 O 0.72938 0.06427 0.10562 0.0
C39 C 0.67323 0.94133 0.15801 0.0
O40 O 0.69329 0.97688 0.16454 0.0
C41 C 0.73144 0.08816 0.05435 0.0
C42 C 0.68639 0.08513 0.03429 0.0
C43 C 0.72585 0.1008 0.03607 0.0
N44 N 0.69686 0.06526 0.06269 0.0
N45 N 0.67007 0.06396 0.05074 0.0
C46 C 0.76881 0.09852 0.06429 0.0
H47 H 0.76949 0.11068 0.07913 0.0
H48 H 0.77091 0.07214 0.06641 0.0
H49 H 0.79406 0.12042 0.0559 0.0
C50 C 0.66345 0.92689 0.08765 0.0
N51 N 0.67176 0.96139 0.09509 0.0
N52 N 0.67939 0.9859 0.08042 0.0
C53 C 0.67708 0.96791 0.0631 0.0
C54 C 0.66661 0.92979 0.06707 0.0
C55 C 0.6491 0.89123 0.10004 0.0
H56 H 0.62744 0.88966 0.11082 0.0
H57 H 0.67348 0.89269 0.10858 0.0
H58 H 0.63573 0.86473 0.09086 0.0
O59 O 0.63308 0.99287 0.12514 0.0
O60 O 0.63895 0.03022 0.09924 0.0
H61 H 0.6628 0.99327 0.03897 0.0
H62 H 0.689 0.96937 0.03154 0.0
C63 C 0.68603 0.98725 0.0432 0.0
H64 H 0.71344 0.01493 0.04405 0.0
H65 H 0.64059 0.04781 0.05357 0.0
O66 O 0.66116 0.93526 0.14018 0.0
C67 C 0.62237 0.01304 0.11531 0.0
Co68 Co 0.01149 0.69196 0.11885 0.0
Co69 Co 0.95156 0.64149 0.08615 0.0
C70 C 0.92898 0.66988 0.12227 0.0
O71 O 0.96335 0.68734 0.12864 0.0
O72 O 0.92031 0.65105 0.10605 0.0
C73 C 0.0496 0.75049 0.14827 0.0
O74 O 0.0172 0.75117 0.14824 0.0
C75 C 0.89632 0.63093 0.05553 0.0
C76 C 0.89724 0.58763 0.03558 0.0
C77 C 0.8815 0.61134 0.03787 0.0
N78 N 0.91968 0.61937 0.06338 0.0
N79 N 0.91972 0.59304 0.05156 0.0
C80 C 0.89238 0.66362 0.0636 0.0
H81 H 0.91865 0.68384 0.07195 0.0
H82 H 0.88732 0.67938 0.05147 0.0
H83 H 0.8675 0.65198 0.07393 0.0
C84 C 0.05305 0.73816 0.08393 0.0
N85 N 0.02142 0.70917 0.09239 0.0
N86 N -0.00291 0.68777 0.07847 0.0
C87 C 0.01284 0.70242 0.06057 0.0
C88 C 0.04872 0.7348 0.06346 0.0
C89 C 0.08845 0.76532 0.09527 0.0
H90 H 0.0987 0.74856 0.1039 0.0
H91 H 0.08117 0.78173 0.106 0.0
H92 H 0.11187 0.78573 0.08533 0.0
O93 O 0.00789 0.6413 0.1208 0.0
O94 O 0.96558 0.60437 0.09786 0.0
H95 H 0.98951 0.65472 0.04048 0.0
H96 H 0.01332 0.70123 0.02832 0.0
C97 C -0.00513 0.68467 0.04105 0.0
H98 H 0.96694 0.68381 0.03962 0.0
H99 H 0.93628 0.57994 0.05398 0.0
O100 O 0.05355 0.72775 0.1366 0.0
C101 C 0.98894 0.60911 0.11191 0.0
Co102 Co 0.68772 0.66963 0.8842 0.0
Co103 Co 0.64375 0.68521 0.91825 0.0
C104 C 0.67001 0.73415 0.88181 0.0
O105 O 0.68425 0.71449 0.87488 0.0
O106 O 0.65367 0.72647 0.89874 0.0
C107 C 0.74577 0.68994 0.85475 0.0
O108 O 0.74984 0.72437 0.85688 0.0
C109 C 0.63259 0.72918 0.94948 0.0
C110 C 0.59343 0.68384 0.97033 0.0
C111 C 0.61419 0.7234 0.96765 0.0
N112 N 0.62315 0.69465 0.94176 0.0
N113 N 0.5993 0.66761 0.95415 0.0
C114 C 0.66243 0.76672 0.94073 0.0
H115 H 0.68383 0.76269 0.93218 0.0
H116 H 0.67743 0.78864 0.95248 0.0
H117 H 0.64822 0.77742 0.93043 0.0
C118 C 0.7341 0.66938 0.91802 0.0
N119 N 0.70681 0.67575 0.91027 0.0
N120 N 0.68939 0.68336 0.92464 0.0
C121 C 0.70593 0.68315 0.94208 0.0
C122 C 0.7346 0.6739 0.93852 0.0
C123 C 0.75519 0.65408 0.90617 0.0
H124 H 0.73519 0.63214 0.89548 0.0
H125 H 0.77843 0.67801 0.89754 0.0
H126 H 0.76787 0.64074 0.91574 0.0
O127 O 0.6364 0.6242 0.88312 0.0
O128 O 0.60384 0.63505 0.90658 0.0
H129 H 0.66613 0.66706 0.96622 0.0
H130 H 0.71597 0.69656 0.97349 0.0
C131 C 0.69447 0.69158 0.9618 0.0
H132 H 0.69186 0.71774 0.9606 0.0
H133 H 0.58816 0.63815 0.9519 0.0
O134 O 0.72111 0.66219 0.86526 0.0
C135 C 0.60545 0.61421 0.89269 0.0
Co136 Co 0.31567 0.01558 0.88145 0.0
Co137 Co 0.29829 0.95465 0.91483 0.0
C138 C 0.25101 0.93424 0.87791 0.0
O139 O 0.27089 0.9684 0.87139 0.0
O140 O 0.25816 0.92476 0.89474 0.0
C141 C 0.2923 0.05974 0.86052 0.0
O142 O 0.26155 0.03854 0.87135 0.0
C143 C 0.25079 0.902 0.9457 0.0
C144 C 0.29208 0.89449 0.96425 0.0
C145 C 0.25364 0.88413 0.96273 0.0
N146 N 0.28598 0.92252 0.93767 0.0
N147 N 0.31056 0.91766 0.94868 0.0
C148 C 0.21525 0.89892 0.93661 0.0
H149 H 0.22172 0.92716 0.93031 0.0
H150 H 0.19125 0.88873 0.9474 0.0
H151 H 0.20587 0.87797 0.92418 0.0
C152 C 0.31563 0.06134 0.91592 0.0
N153 N 0.309 0.02792 0.9077 0.0
N154 N 0.30046 0.00206 0.92179 0.0
C155 C 0.30041 0.01806 0.93945 0.0
C156 C 0.31015 0.05623 0.93632 0.0
C157 C 0.33237 0.09876 0.90486 0.0
H158 H 0.35118 0.09926 0.89266 0.0
H159 H 0.30866 0.10197 0.89839 0.0
H160 H 0.34949 0.12359 0.91483 0.0
O161 O 0.36096 0.00924 0.88053 0.0
O162 O 0.34904 0.96524 0.90392 0.0
H163 H 0.31291 0.98816 0.96203 0.0
H164 H 0.29075 0.01491 0.97139 0.0
C165 C 0.29138 -0.00283 0.95893 0.0
H166 H 0.26263 0.97108 0.95807 0.0
H167 H 0.34 0.93068 0.94576 0.0
O168 O 0.32162 0.05579 0.86258 0.0
C169 C 0.3705 0.98799 0.89027 0.0
Co170 Co 0.9717 0.29668 0.87949 0.0
Co171 Co 0.0292 0.34443 0.91345 0.0
C172 C 0.0505 0.31118 0.87805 0.0
O173 O 0.0163 0.29258 0.8715 0.0
O174 O 0.05863 0.33225 0.89349 0.0
C175 C 0.93453 0.25863 0.8435 0.0
O176 O 0.96987 0.27373 0.83673 0.0
C177 C 0.07527 0.34413 0.94676 0.0
C178 C 0.09325 0.39976 0.96154 0.0
C179 C 0.096 0.36662 0.96289 0.0
N180 N 0.06066 0.36287 0.93664 0.0
N181 N 0.07153 0.39615 0.94551 0.0
C182 C 0.0705 0.30616 0.94037 0.0
H183 H 0.06163 0.30021 0.92461 0.0
H184 H 0.04757 0.28275 0.94936 0.0
H185 H 0.09769 0.30567 0.94257 0.0
C186 C 0.92418 0.25277 0.91373 0.0
N187 N 0.95725 0.28086 0.90591 0.0
N188 N 0.98082 0.30111 0.92033 0.0
C189 C 0.96312 0.2868 0.9379 0.0
C190 C 0.92679 0.25558 0.93427 0.0
C191 C 0.8909 0.22398 0.90164 0.0
H192 H 0.90149 0.21268 0.88962 0.0
H193 H 0.86977 0.19964 0.9109 0.0
H194 H 0.87644 0.23845 0.89459 0.0
O195 O 0.98552 0.35086 0.87573 0.0
O196 O 0.02169 0.3854 0.90125 0.0
H197 H -0.00494 0.33692 0.95613 0.0
H198 H 0.95526 0.29703 0.96865 0.0
C199 C 0.97873 0.30514 0.95766 0.0
H200 H -0.00166 0.29533 0.96338 0.0
H201 H 0.06411 0.41635 0.94064 0.0
O202 O 0.9289 0.26506 0.86133 0.0
C203 C 0.00422 0.38269 0.88497 0.0
Co204 Co 0.96224 0.65238 0.45261 0.0
Co205 Co 0.00803 0.63863 0.41886 0.0
C206 C 0.98277 0.59082 0.45624 0.0
O207 O 0.96658 0.60886 0.46284 0.0
O208 O -0.00033 0.59928 0.43946 0.0
C209 C 0.90626 0.63484 0.48298 0.0
O210 O 0.90412 0.60105 0.48259 0.0
C211 C 0.00869 0.59185 0.38611 0.0
C212 C 0.06489 0.62891 0.37172 0.0
C213 C 0.03182 0.59313 0.37046 0.0
N214 N 0.02693 0.62544 0.39595 0.0
N215 N 0.06056 0.64752 0.38732 0.0
C216 C 0.97095 0.55842 0.3925 0.0
H217 H 0.94762 0.55639 0.38284 0.0
H218 H 0.97158 0.53112 0.39108 0.0
H219 H 0.96413 0.56212 0.40801 0.0
C220 C 0.91365 0.64773 0.41879 0.0
N221 N 0.94246 0.64389 0.42659 0.0
N222 N 0.9622 0.63964 0.41217 0.0
C223 C 0.94678 0.64133 0.3946 0.0
C224 C 0.91537 0.64618 0.39826 0.0
C225 C 0.8865 0.65495 0.43082 0.0
H226 H 0.90255 0.684 0.43763 0.0
H227 H 0.87428 0.63349 0.44301 0.0
H228 H 0.86266 0.65307 0.42161 0.0
O229 O 0.01377 0.69856 0.45289 0.0
O230 O 0.04744 0.68989 0.42918 0.0
H231 H -0.00306 0.66061 0.3762 0.0
H232 H 0.95649 0.65958 0.36383 0.0
C233 C 0.96518 0.64458 0.37477 0.0
H234 H 0.95599 0.61536 0.36899 0.0
H235 H 0.0806 0.67516 0.39213 0.0
O236 O 0.929 0.66113 0.47112 0.0
C237 C 0.04487 0.71006 0.44313 0.0
Co238 Co 0.33865 0.30788 0.45278 0.0
Co239 Co 0.35302 0.36747 0.41898 0.0
C240 C 0.40202 0.39013 0.45532 0.0
O241 O 0.38316 0.35611 0.46216 0.0
O242 O 0.39381 0.39867 0.43852 0.0
C243 C 0.36474 0.26591 0.47381 0.0
O244 O 0.39511 0.2879 0.4629 0.0
C245 C 0.39862 0.41927 0.38739 0.0
C246 C 0.35615 0.42528 0.3691 0.0
C247 C 0.39478 0.43618 0.37023 0.0
N248 N 0.36383 0.39875 0.39586 0.0
N249 N 0.33854 0.40273 0.38499 0.0
C250 C 0.43473 0.42318 0.3962 0.0
H251 H 0.44364 0.44358 0.40886 0.0
H252 H 0.42911 0.39497 0.40215 0.0
H253 H 0.45872 0.43441 0.38537 0.0
C254 C 0.33735 0.26136 0.41844 0.0
N255 N 0.34426 0.29501 0.42648 0.0
N256 N 0.35141 0.32022 0.41222 0.0
C257 C 0.35023 0.30356 0.39458 0.0
C258 C 0.34108 0.26561 0.39793 0.0
C259 C 0.32178 0.22446 0.42989 0.0
H260 H 0.30333 0.22409 0.44225 0.0
H261 H 0.34611 0.22216 0.43621 0.0
H262 H 0.30457 0.19908 0.42026 0.0
O263 O 0.2927 0.3131 0.45423 0.0
O264 O 0.30262 0.35634 0.43069 0.0
H265 H 0.33507 0.3318 0.37226 0.0
H266 H 0.35729 0.30541 0.36247 0.0
C267 C 0.35729 0.32351 0.37491 0.0
H268 H 0.38582 0.34997 0.37511 0.0
H269 H 0.30919 0.38948 0.38822 0.0
O270 O 0.33463 0.26853 0.47179 0.0
C271 C 0.28215 0.33373 0.44465 0.0
Co272 Co 0.68096 0.02811 0.45262 0.0
Co273 Co 0.62117 0.97998 0.41943 0.0
C274 C 0.59906 0.0046 0.45749 0.0
O275 O 0.6336 0.02358 0.46351 0.0
O276 O 0.59074 0.98654 0.44103 0.0
C277 C 0.71908 0.06822 0.48831 0.0
O278 O 0.68424 0.05086 0.49587 0.0
C279 C 0.57147 0.97925 0.38783 0.0
C280 C 0.55699 0.9264 0.37103 0.0
C281 C 0.55166 0.95809 0.37121 0.0
N282 N 0.58827 0.96137 0.39674 0.0
N283 N 0.57933 0.92964 0.38672 0.0
C284 C 0.57385 0.01543 0.3956 0.0
H285 H 0.58052 0.01885 0.41168 0.0
H286 H 0.59739 0.04069 0.38789 0.0
H287 H 0.54644 0.01526 0.39295 0.0
C288 C 0.72244 0.07683 0.4184 0.0
N289 N 0.69057 0.04756 0.42654 0.0
N290 N 0.66679 0.0265 0.41236 0.0
C291 C 0.68343 0.04117 0.39462 0.0
C292 C 0.71901 0.07374 0.39789 0.0
C293 C 0.75752 0.10366 0.43004 0.0
H294 H 0.76978 0.087 0.43698 0.0
H295 H 0.74935 0.11698 0.44215 0.0
H296 H 0.77977 0.1266 0.42053 0.0
O297 O 0.67645 0.97671 0.45285 0.0
O298 O 0.6352 0.94168 0.42903 0.0
H299 H 0.65545 0.99081 0.37624 0.0
H300 H 0.68922 0.03404 0.36305 0.0
C301 C 0.66728 0.02235 0.37501 0.0
H302 H 0.64364 0.02763 0.37072 0.0
H303 H 0.58884 0.91046 0.39045 0.0
O304 O 0.72398 0.06222 0.47027 0.0
C305 C 0.65813 0.94536 0.44311 0.0
Co306 Co 0.35726 0.00909 0.21463 0.0
Co307 Co 0.31015 0.02035 0.24852 0.0
C308 C 0.33561 0.0706 0.21247 0.0
O309 O 0.35187 0.05283 0.20555 0.0
O310 O 0.31852 0.0614 0.22918 0.0
C311 C 0.42435 0.03724 0.19231 0.0
O312 O 0.43152 0.06856 0.20204 0.0
C313 C 0.29994 0.06381 0.28001 0.0
C314 C 0.25711 0.0188 0.29981 0.0
C315 C 0.28044 0.05832 0.29778 0.0
N316 N 0.28869 0.02923 0.27184 0.0
N317 N 0.26265 0.00239 0.28359 0.0
C318 C 0.33197 0.10086 0.27198 0.0
H319 H 0.35232 0.09543 0.26329 0.0
H320 H 0.3477 0.12145 0.28416 0.0
H321 H 0.31972 0.11402 0.26196 0.0
C322 C 0.4039 0.01029 0.24894 0.0
N323 N 0.37584 0.01517 0.24092 0.0
N324 N 0.35666 0.02062 0.25523 0.0
C325 C 0.37254 0.02006 0.27285 0.0
C326 C 0.40292 0.01352 0.2694 0.0
C327 C 0.42952 0.00028 0.23729 0.0
H328 H 0.41227 0.97765 0.22622 0.0
H329 H 0.45112 0.02624 0.22918 0.0
H330 H 0.44512 0.99027 0.24701 0.0
O331 O 0.30687 0.96208 0.21292 0.0
O332 O 0.27237 0.96978 0.23656 0.0
H333 H 0.32582 -0.00245 0.29352 0.0
H334 H 0.37251 0.01761 0.30507 0.0
C335 C 0.35619 0.02105 0.29269 0.0
H336 H 0.35693 0.04892 0.29445 0.0
H337 H 0.24972 0.97285 0.28089 0.0
O338 O 0.39313 0.00614 0.19564 0.0
C339 C 0.27545 0.95024 0.22241 0.0
Co340 Co 0.98146 0.34669 0.21675 0.0
Co341 Co 0.97277 0.28768 0.24979 0.0
C342 C 0.92417 0.26432 0.21238 0.0
O343 O 0.93905 0.29878 0.20619 0.0
O344 O 0.93479 0.25648 0.22872 0.0
C345 C 0.97919 0.38419 0.18092 0.0
O346 O 0.96405 0.34949 0.17328 0.0
C347 C 0.92624 0.23908 0.28209 0.0
C348 C 0.96378 0.2209 0.29688 0.0
C349 C 0.92774 0.2177 0.29791 0.0
N350 N 0.95997 0.25479 0.27237 0.0
N351 N 0.98232 0.24372 0.2812 0.0
C352 C 0.89265 0.24309 0.2756 0.0
H353 H 0.89581 0.2524 0.25987 0.0
H354 H 0.89103 0.26521 0.28477 0.0
H355 H 0.8654 0.2154 0.27761 0.0
C356 C 0.97359 0.38736 0.25116 0.0
N357 N 0.97213 0.35603 0.24296 0.0
N358 N 0.97114 0.33286 0.25711 0.0
C359 C 0.97341 0.34954 0.27487 0.0
C360 C 0.97447 0.38432 0.27165 0.0
C361 C 0.97952 0.42176 0.2395 0.0
H362 H 0.00834 0.43545 0.23241 0.0
H363 H 0.95768 0.4124 0.22751 0.0
H364 H 0.97755 0.44328 0.24905 0.0
O365 O 0.02907 0.34359 0.21597 0.0
O366 O 0.0248 0.30265 0.2396 0.0
H367 H -0.00326 0.3212 0.29244 0.0
H368 H 0.99126 0.35738 0.30576 0.0
C369 C 0.97836 0.33441 0.29437 0.0
H370 H 0.94986 0.3121 0.29995 0.0
H371 H 0.0102 0.25183 0.27658 0.0
O372 O 0.98879 0.38932 0.19916 0.0
C373 C 0.04314 0.32587 0.22544 0.0
Co374 Co 0.63785 0.63194 0.21485 0.0
Co375 Co 0.69779 0.6794 0.24819 0.0
C376 C 0.72028 0.65536 0.21032 0.0
O377 O 0.68586 0.63797 0.20409 0.0
O378 O 0.72886 0.67262 0.227 0.0
C379 C 0.59995 0.57405 0.18546 0.0
O380 O 0.63128 0.57151 0.18683 0.0
C381 C 0.74778 0.68146 0.28014 0.0
C382 C 0.75912 0.73299 0.29733 0.0
C383 C 0.76624 0.70245 0.29708 0.0
N384 N 0.73001 0.69832 0.27115 0.0
N385 N 0.73711 0.72929 0.28141 0.0
C386 C 0.74739 0.64629 0.27223 0.0
H387 H 0.7413 0.64302 0.25611 0.0
H388 H 0.72425 0.62032 0.27967 0.0
H389 H 0.77536 0.64775 0.27507 0.0
C390 C 0.5962 0.58263 0.24888 0.0
N391 N 0.62816 0.61192 0.24082 0.0
N392 N 0.65204 0.63263 0.25506 0.0
C393 C 0.6354 0.6176 0.27275 0.0
C394 C 0.59971 0.58525 0.26939 0.0
C395 C 0.561 0.55624 0.2372 0.0
H396 H 0.55036 0.57349 0.22935 0.0
H397 H 0.5686 0.54116 0.22579 0.0
H398 H 0.53777 0.53464 0.24683 0.0
O399 O 0.64113 0.68271 0.21497 0.0
O400 O 0.68356 0.71761 0.2384 0.0
H401 H 0.66256 0.66732 0.29159 0.0
H402 H 0.63 0.62325 0.30453 0.0
C403 C 0.65163 0.63589 0.29246 0.0
H404 H 0.67592 0.63134 0.29631 0.0
H405 H 0.72649 0.74757 0.27771 0.0
O406 O 0.59617 0.59772 0.19649 0.0
C407 C 0.65991 0.71399 0.22471 0.0
Co408 Co 0.62892 0.98309 0.78772 0.0
Co409 Co 0.67427 0.9706 0.75334 0.0
C410 C 0.65256 0.9234 0.79074 0.0
O411 O 0.63613 0.94106 0.79759 0.0
O412 O 0.66843 0.93156 0.77366 0.0
C413 C 0.57374 0.96428 0.81886 0.0
O414 O 0.57258 0.93093 0.81871 0.0
C415 C 0.68161 0.92548 0.7217 0.0
C416 C 0.72364 0.96977 0.70131 0.0
C417 C 0.69987 0.93037 0.70357 0.0
N418 N 0.69393 0.96032 0.7298 0.0
N419 N 0.71949 0.98671 0.7177 0.0
C420 C 0.64977 0.88886 0.73022 0.0
H421 H 0.6311 0.89498 0.73994 0.0
H422 H 0.63223 0.86871 0.71823 0.0
H423 H 0.66241 0.87481 0.73932 0.0
C424 C 0.57778 0.97579 0.75472 0.0
N425 N 0.60766 0.97331 0.76209 0.0
N426 N 0.62653 0.96846 0.74742 0.0
C427 C 0.60899 0.96762 0.73014 0.0
C428 C 0.57757 0.97228 0.73423 0.0
C429 C 0.55151 0.98382 0.76705 0.0
H430 H 0.56825 0.01286 0.7738 0.0
H431 H 0.53939 0.96248 0.7793 0.0
H432 H 0.52755 0.98233 0.75811 0.0
O433 O 0.67885 0.03071 0.78737 0.0
O434 O 0.71237 0.02286 0.76333 0.0
H435 H 0.6554 0.99074 0.70925 0.0
H436 H 0.60867 0.97225 0.69798 0.0
C437 C 0.62487 0.96762 0.71 0.0
H438 H 0.62349 0.9396 0.70754 0.0
H439 H 0.73299 0.01632 0.72027 0.0
O440 O 0.59556 0.9904 0.80669 0.0
C441 C 0.70951 0.04305 0.77717 0.0
Co442 Co 0.0017 0.64495 0.78415 0.0
Co443 Co 0.01397 0.70439 0.75065 0.0
C444 C 0.06363 0.7276 0.78687 0.0
O445 O 0.04544 0.69339 0.79351 0.0
O446 O 0.05488 0.7363 0.77022 0.0
C447 C 0.02809 0.60392 0.80632 0.0
O448 O 0.05955 0.6267 0.79632 0.0
C449 C 0.05745 0.75949 0.71955 0.0
C450 C 0.01225 0.7556 0.69931 0.0
C451 C 0.05178 0.77306 0.70165 0.0
N452 N 0.02292 0.73516 0.72746 0.0
N453 N -0.00404 0.73336 0.71546 0.0
C454 C 0.09473 0.76556 0.72783 0.0
H455 H 0.09 0.73976 0.7363 0.0
H456 H 0.116 0.77164 0.71582 0.0
H457 H 0.10665 0.79052 0.73811 0.0
C458 C 0.00437 0.60053 0.74971 0.0
N459 N 0.00847 0.63308 0.75787 0.0
N460 N 0.01377 0.65793 0.74368 0.0
C461 C 0.01342 0.64187 0.72598 0.0
C462 C 0.00751 0.60506 0.72925 0.0
C463 C 0.99262 0.56411 0.76104 0.0
H464 H 0.97192 0.56054 0.77291 0.0
H465 H 0.01846 0.56577 0.76805 0.0
H466 H 0.97924 0.53852 0.75118 0.0
O467 O 0.95494 0.64883 0.78573 0.0
O468 O 0.96343 0.69194 0.76245 0.0
H469 H 0.99267 0.66567 0.70403 0.0
H470 H 0.01825 0.64307 0.69384 0.0
C471 C 0.0173 0.66078 0.70625 0.0
H472 H 0.0442 0.68901 0.706 0.0
H473 H 0.96648 0.71582 0.71792 0.0
O474 O -0.0022 0.60572 0.80315 0.0
C475 C 0.9435 0.66893 0.77637 0.0
Co476 Co 0.34308 0.36438 0.78567 0.0
Co477 Co 0.28609 0.31438 0.75172 0.0
C478 C 0.2612 0.34469 0.78618 0.0
O479 O 0.29517 0.3631 0.79307 0.0
O480 O 0.25373 0.32459 0.77044 0.0
C481 C 0.3798 0.42191 0.81598 0.0
O482 O 0.34789 0.4235 0.81542 0.0
C483 C 0.23133 0.30118 0.72018 0.0
C484 C 0.23795 0.26143 0.69997 0.0
C485 C 0.21911 0.2823 0.70215 0.0
N486 N 0.25621 0.29191 0.72836 0.0
N487 N 0.25962 0.26764 0.71637 0.0
C488 C 0.22369 0.33153 0.7283 0.0
H489 H 0.24954 0.35392 0.73616 0.0
H490 H 0.21565 0.34525 0.71632 0.0
H491 H 0.19965 0.31806 0.73912 0.0
C492 C 0.39079 0.40668 0.75119 0.0
N493 N 0.35729 0.37958 0.75912 0.0
N494 N 0.33309 0.35988 0.7448 0.0
C495 C 0.35023 0.37462 0.72717 0.0
C496 C 0.38752 0.40455 0.7306 0.0
C497 C 0.42635 0.43057 0.76322 0.0
H498 H 0.42928 0.41232 0.77471 0.0
H499 H 0.42363 0.45359 0.77093 0.0
H500 H 0.45268 0.4438 0.75392 0.0
O501 O 0.33433 0.31228 0.78991 0.0
O502 O 0.29697 0.27626 0.76508 0.0
H503 H 0.32809 0.33193 0.70429 0.0
H504 H 0.34776 0.38073 0.69525 0.0
C505 C 0.33117 0.36052 0.70741 0.0
H506 H 0.30219 0.35747 0.70774 0.0
H507 H 0.27797 0.25664 0.71899 0.0
O508 O 0.38385 0.3992 0.80433 0.0
C509 C 0.31607 0.28014 0.78093 0.0
Co510 Co 0.0263 0.34128 0.54908 0.0
Co511 Co 0.97884 0.35346 0.58245 0.0
C512 C 0.00591 0.40311 0.54587 0.0
O513 O 0.02245 0.38539 0.53931 0.0
O514 O 0.98809 0.39383 0.56238 0.0
C515 C 0.08552 0.36218 0.52022 0.0
O516 O 0.08906 0.39642 0.52215 0.0
C517 C 0.97456 0.39949 0.61445 0.0
C518 C 0.91996 0.36009 0.62963 0.0
C519 C 0.95123 0.39716 0.63016 0.0
N520 N 0.95828 0.36527 0.60519 0.0
N521 N 0.92552 0.3418 0.61426 0.0
C522 C 0.01078 0.43429 0.6076 0.0
H523 H 0.02446 0.42679 0.59539 0.0
H524 H 0.03147 0.44695 0.62004 0.0
H525 H 0.0039 0.45644 0.60234 0.0
C526 C 0.07171 0.34176 0.58342 0.0
N527 N 0.04433 0.34763 0.57538 0.0
N528 N 0.02461 0.35244 0.58961 0.0
C529 C 0.03913 0.34996 0.60732 0.0
C530 C 0.06946 0.34305 0.60399 0.0
C531 C 0.09524 0.32932 0.57157 0.0
H532 H 0.07609 0.30538 0.56154 0.0
H533 H 0.1159 0.3537 0.56217 0.0
H534 H 0.11123 0.3195 0.5811 0.0
O535 O 0.97517 0.29522 0.54771 0.0
O536 O 0.94015 0.30234 0.57123 0.0
H537 H 0.99202 0.33215 0.62762 0.0
H538 H 0.03794 0.34787 0.63968 0.0
C539 C 0.02337 0.35293 0.62701 0.0
H540 H 0.02777 0.38232 0.62869 0.0
H541 H 0.90697 0.31336 0.60994 0.0
O542 O 0.06075 0.33432 0.53064 0.0
C543 C 0.94358 0.28299 0.55709 0.0
Co544 Co 0.64825 0.68341 0.54894 0.0
Co545 Co 0.63377 0.62303 0.58237 0.0
C546 C 0.58514 0.60124 0.54571 0.0
O547 O 0.60342 0.63559 0.53915 0.0
O548 O 0.59372 0.59228 0.56234 0.0
C549 C 0.64603 0.72057 0.51282 0.0
O550 O 0.629 0.68561 0.50538 0.0
C551 C 0.58991 0.56702 0.61328 0.0
C552 C 0.63532 0.57339 0.63414 0.0
C553 C 0.59579 0.5546 0.6315 0.0
N554 N 0.62436 0.59208 0.60552 0.0
N555 N 0.65144 0.59527 0.61787 0.0
C556 C 0.55238 0.55946 0.60462 0.0
H557 H 0.55645 0.58469 0.59583 0.0
H558 H 0.53069 0.55308 0.61643 0.0
H559 H 0.54139 0.53423 0.59455 0.0
C560 C 0.64724 0.7282 0.58335 0.0
N561 N 0.64163 0.6951 0.57522 0.0
N562 N 0.63419 0.66954 0.58931 0.0
C563 C 0.63373 0.68536 0.60695 0.0
C564 C 0.64237 0.72321 0.60381 0.0
C565 C 0.6623 0.76506 0.57191 0.0
H566 H 0.68562 0.76841 0.56179 0.0
H567 H 0.63879 0.76384 0.56267 0.0
H568 H 0.67383 0.79057 0.58177 0.0
O569 O 0.69399 0.67788 0.54755 0.0
O570 O 0.68461 0.63502 0.5711 0.0
H571 H 0.64988 0.66073 0.63067 0.0
H572 H 0.62023 0.68069 0.6384 0.0
C573 C 0.62534 0.66471 0.62646 0.0
H574 H 0.59926 0.63604 0.62507 0.0
H575 H 0.68084 0.6137 0.61562 0.0
O576 O 0.65633 0.72573 0.53094 0.0
C577 C 0.70493 0.65764 0.55714 0.0
Co578 Co 0.30841 0.96097 0.54777 0.0
Co579 Co 0.36575 0.00623 0.58248 0.0
C580 C 0.38673 0.97182 0.54795 0.0
O581 O 0.35293 0.95551 0.54079 0.0
O582 O 0.39516 0.99244 0.56355 0.0
C583 C 0.27232 0.91943 0.51204 0.0
O584 O 0.30772 0.93111 0.50621 0.0
C585 C 0.417 0.0119 0.61472 0.0
C586 C 0.41671 0.05575 0.6345 0.0
C587 C 0.43034 0.03013 0.6329 0.0
N588 N 0.39564 0.02533 0.60624 0.0
N589 N 0.39598 0.05191 0.618 0.0
C590 C 0.4251 0.98301 0.60501 0.0
H591 H 0.43962 0.99475 0.5906 0.0
H592 H 0.39756 0.95622 0.60194 0.0
H593 H 0.44424 0.97646 0.61401 0.0
C594 C 0.25766 0.91993 0.58163 0.0
N595 N 0.29219 0.94582 0.57415 0.0
N596 N 0.31639 0.96343 0.5888 0.0
C597 C 0.29814 0.94858 0.60618 0.0
C598 C 0.26019 0.92067 0.60224 0.0
C599 C 0.22225 0.89819 0.56918 0.0
H600 H 0.22054 0.91801 0.55823 0.0
H601 H 0.22416 0.87534 0.56081 0.0
H602 H 0.19563 0.88498 0.57826 0.0
O603 O 0.32339 0.0152 0.54369 0.0
O604 O 0.35988 0.0479 0.56955 0.0
H605 H 0.32383 0.99016 0.62942 0.0
H606 H 0.29853 0.9408 0.63812 0.0
C607 C 0.31699 0.96027 0.62614 0.0
H608 H 0.34416 0.95944 0.62597 0.0
H609 H 0.38115 0.06664 0.61504 0.0
O610 O 0.26643 0.92919 0.52908 0.0
C611 C 0.34289 0.04648 0.55327 0.0
H612 H 0.36298 0.19463 0.04294 0.0
H613 H 0.28592 0.10889 0.93567 0.0
H614 H 0.3548 0.26366 0.99606 0.0
H615 H 0.35272 0.07282 0.97051 0.0
H616 H 0.30101 0.16045 0.95979 0.0
H617 H 0.34932 0.14361 0.01866 0.0
C618 C 0.35822 0.19891 0.02753 0.0
C619 C 0.3598 0.23313 0.0214 0.0
C620 C 0.31218 0.14108 0.96215 0.0
C621 C 0.34383 0.17514 0.99379 0.0
C622 C 0.30358 0.11173 0.94846 0.0
C623 C 0.31768 0.08631 0.95127 0.0
C624 C 0.33453 0.1446 0.97892 0.0
C625 C 0.34039 0.09115 0.96808 0.0
C626 C 0.35063 0.16999 0.01372 0.0
C627 C 0.35389 0.23764 0.00128 0.0
N628 N 0.34789 0.11958 0.98138 0.0
N629 N 0.34572 0.20874 0.98817 0.0
H630 H 0.72776 0.15643 0.01184 0.0
H631 H 0.93312 0.21632 0.96565 0.0
H632 H 0.78775 0.09439 0.0241 0.0
H633 H 0.85323 0.24243 0.93638 0.0
H634 H 0.88338 0.17778 0.99024 0.0
H635 H 0.77619 0.19399 0.98644 0.0
C636 C 0.7513 0.15097 0.0093 0.0
C637 C 0.75467 0.12339 0.02063 0.0
C638 C 0.87667 0.19182 0.97839 0.0
C639 C 0.80983 0.16593 0.99172 0.0
C640 C 0.90502 0.21383 0.96446 0.0
C641 C 0.89693 0.23217 0.94902 0.0
C642 C 0.84028 0.18875 0.97701 0.0
C643 C 0.86024 0.22829 0.94803 0.0
C644 C 0.77881 0.17231 0.99483 0.0
C645 C 0.78518 0.11678 0.01646 0.0
N646 N 0.83322 0.20713 0.96193 0.0
N647 N 0.81182 0.13818 0.00249 0.0
H648 H 0.81546 0.61343 0.04444 0.0
H649 H 0.81134 0.69715 0.93811 0.0
H650 H 0.89473 0.62459 0.99816 0.0
H651 H 0.70773 0.63012 0.97224 0.0
H652 H 0.84662 0.67993 0.962 0.0
H653 H 0.77913 0.62843 0.02012 0.0
C654 C 0.82508 0.61899 0.02913 0.0
C655 C 0.85804 0.61792 0.02321 0.0
C656 C 0.81617 0.66911 0.96423 0.0
C657 C 0.81724 0.63555 0.99554 0.0
C658 C 0.79609 0.67891 0.95066 0.0
C659 C 0.75666 0.6652 0.95329 0.0
C660 C 0.79677 0.64604 0.98072 0.0
C661 C 0.73828 0.64194 0.96988 0.0
C662 C 0.80437 0.62741 0.0153 0.0
C663 C 0.8693 0.62501 0.00322 0.0
N664 N 0.75854 0.63328 0.98306 0.0
N665 N 0.84917 0.634 0.99009 0.0
H666 H 0.69114 0.87724 0.06807 0.0
H667 H 0.61117 0.78923 0.96136 0.0
H668 H 0.62272 0.91151 0.0334 0.0
H669 H 0.62847 0.72414 0.00723 0.0
H670 H 0.62291 0.83931 0.98587 0.0
H671 H 0.67607 0.82531 0.04423 0.0
C672 C 0.67287 0.87373 0.05546 0.0
C673 C 0.65822 0.89868 0.05263 0.0
C674 C 0.62397 0.81397 0.99056 0.0
C675 C 0.64156 0.84009 0.0252 0.0
C676 C 0.61747 0.78558 0.97661 0.0
C677 C 0.61915 0.75281 0.98235 0.0
C678 C 0.63284 0.80975 0.01027 0.0
C679 C 0.62689 0.74905 0.00229 0.0
C680 C 0.66435 0.84421 0.04188 0.0
C681 C 0.63511 0.89327 0.03592 0.0
N682 N 0.63391 0.77743 0.01553 0.0
N683 N 0.62769 0.8647 0.02274 0.0
H684 H 0.20957 0.90748 0.9823 0.0
H685 H 0.0818 0.70677 0.03822 0.0
H686 H 0.23078 0.81241 0.97738 0.0
H687 H 0.08337 0.81135 0.05491 0.0
H688 H 0.1324 0.74315 0.01363 0.0
H689 H 0.15924 0.87102 0.00689 0.0
C690 C 0.20324 0.87869 0.98631 0.0
C691 C 0.22356 0.86242 0.97761 0.0
C692 C 0.12171 0.75817 0.02266 0.0
C693 C 0.16663 0.82083 0.00581 0.0
C694 C 0.09279 0.73743 0.03656 0.0
C695 C 0.07853 0.75628 0.04838 0.0
C696 C 0.13614 0.79795 0.02052 0.0
C697 C 0.09375 0.79597 0.04595 0.0
C698 C 0.1748 0.85805 1.00043 0.0
C699 C 0.21532 0.82563 0.98368 0.0
N700 N 0.12169 0.81554 0.03221 0.0
N701 N 0.18718 0.80585 0.99732 0.0
H702 H 0.19708 0.26237 0.0362 0.0
H703 H 0.16024 0.41881 0.98283 0.0
H704 H 0.24479 0.37826 0.05823 0.0
H705 H 0.08021 0.29669 0.97909 0.0
H706 H 0.19688 0.40582 0.00775 0.0
H707 H 0.15954 0.27555 0.01172 0.0
C708 C 0.19951 0.29055 0.03581 0.0
C709 C 0.22365 0.31926 0.04916 0.0
C710 C 0.1714 0.38191 0.00131 0.0
C711 C 0.18156 0.33471 0.02131 0.0
C712 C 0.15047 0.38926 0.98711 0.0
C713 C 0.11776 0.35873 0.97826 0.0
C714 C 0.15961 0.34372 0.00667 0.0
C715 C 0.10622 0.32106 0.9846 0.0
C716 C 0.17813 0.29804 0.02196 0.0
C717 C 0.22616 0.35539 0.04818 0.0
N718 N 0.1273 0.31461 0.99827 0.0
N719 N 0.2055 0.36222 0.03439 0.0
H720 H 0.08201 0.57228 0.35563 0.0
H721 H 0.92742 0.41185 0.28241 0.0
H722 H 0.96433 0.54665 0.35082 0.0
H723 H 0.03962 0.42611 0.29339 0.0
H724 H 0.94144 0.46357 0.30626 0.0
H725 H 0.06845 0.52149 0.33135 0.0
C726 C 0.05329 0.55585 0.3495 0.0
C727 C 0.02399 0.56297 0.3556 0.0
C728 C 0.96297 0.45532 0.30354 0.0
C729 C 0.00829 0.50516 0.32777 0.0
C730 C 0.95493 0.42589 0.28998 0.0
C731 C 0.98227 0.4147 0.28627 0.0
C732 C -0.00121 0.47382 0.31325 0.0
C733 C 0.01768 0.43379 0.29617 0.0
C734 C 0.04552 0.52681 0.33571 0.0
C735 C 0.98738 0.54117 0.34709 0.0
N736 N 0.02498 0.46249 0.30923 0.0
N737 N 0.98055 0.51323 0.33362 0.0
H738 H 0.56191 0.61185 0.29217 0.0
H739 H 0.43953 0.41326 0.35094 0.0
H740 H 0.56781 0.5096 0.27933 0.0
H741 H 0.41536 0.50656 0.35436 0.0
H742 H 0.48914 0.44936 0.32599 0.0
H743 H 0.51065 0.57523 0.31642 0.0
C744 C 0.55236 0.58164 0.2946 0.0
C745 C 0.56906 0.56357 0.28405 0.0
C746 C 0.47307 0.46203 0.33218 0.0
C747 C 0.51067 0.52158 0.31149 0.0
C748 C 0.44503 0.44159 0.34651 0.0
C749 C 0.42416 0.45752 0.35495 0.0
C750 C 0.48027 0.49868 0.32627 0.0
C751 C 0.4313 0.49364 0.3483 0.0
C752 C 0.52309 0.56075 0.30831 0.0
C753 C 0.55563 0.52441 0.28737 0.0
N754 N 0.45906 0.51324 0.33444 0.0
N755 N 0.5273 0.50469 0.30091 0.0
H756 H 0.56752 0.02895 0.35671 0.0
H757 H 0.39865 0.94465 0.27647 0.0
H758 H 0.48799 0.90722 0.35037 0.0
H759 H 0.45538 0.06266 0.29611 0.0
H760 H 0.43482 0.93062 0.30135 0.0
H761 H 0.5305 0.04226 0.33253 0.0
C762 C 0.54177 0.00499 0.35064 0.0
C763 C 0.53003 0.96691 0.35621 0.0
C764 C 0.43937 0.95958 0.30024 0.0
C765 C 0.48843 0.98199 0.32767 0.0
C766 C 0.4189 0.96756 0.28605 0.0
C767 C 0.42449 0.00485 0.2843 0.0
C768 C 0.46577 0.98927 0.31262 0.0
C769 C 0.4506 0.0336 0.29705 0.0
C770 C 0.52088 0.01264 0.33658 0.0
C771 C 0.49777 0.93703 0.34671 0.0
N772 N 0.4705 0.02527 0.31064 0.0
N773 N 0.47804 0.94519 0.33292 0.0
H774 H 0.36537 0.21295 0.3977 0.0
H775 H 0.28073 0.12579 0.29173 0.0
H776 H 0.29506 0.24756 0.365 0.0
H777 H 0.29401 0.05772 0.33739 0.0
H778 H 0.29463 0.17627 0.31638 0.0
H779 H 0.34828 0.16073 0.3737 0.0
C780 C 0.34649 0.20963 0.38541 0.0
C781 C 0.33205 0.23488 0.38313 0.0
C782 C 0.2943 0.15018 0.32099 0.0
C783 C 0.31287 0.17583 0.35563 0.0
C784 C 0.28653 0.12156 0.30697 0.0
C785 C 0.2864 0.08781 0.31263 0.0
C786 C 0.30276 0.14525 0.34066 0.0
C787 C 0.29374 0.08338 0.33255 0.0
C788 C 0.33674 0.17989 0.37179 0.0
C789 C 0.3077 0.22939 0.36697 0.0
N790 N 0.30212 0.11204 0.34585 0.0
N791 N 0.29912 0.20064 0.35371 0.0
H792 H 0.90554 0.14661 0.31333 0.0
H793 H 0.75069 0.14923 0.38778 0.0
H794 H 0.88342 0.24124 0.31761 0.0
H795 H 0.75727 0.04719 0.3754 0.0
H796 H 0.80271 0.18509 0.36377 0.0
H797 H 0.85489 0.11121 0.33805 0.0
C798 C 0.88992 0.15984 0.31945 0.0
C799 C 0.89791 0.19642 0.31309 0.0
C800 C 0.79271 0.15482 0.36623 0.0
C801 C 0.84042 0.15651 0.34139 0.0
C802 C 0.76313 0.13449 0.37988 0.0
C803 C 0.74969 0.09535 0.38324 0.0
C804 C 0.80913 0.13583 0.35608 0.0
C805 C 0.76674 0.07735 0.37292 0.0
C806 C 0.86098 0.13964 0.33348 0.0
C807 C 0.87722 0.21254 0.32158 0.0
N808 N 0.79566 0.09774 0.35978 0.0
N809 N 0.84941 0.19248 0.33529 0.0
H810 H 0.87274 0.60036 0.36773 0.0
H811 H 0.82653 0.75459 0.31951 0.0
H812 H 0.90805 0.71012 0.39523 0.0
H813 H 0.75456 0.63218 0.3105 0.0
H814 H 0.86303 0.74141 0.3445 0.0
H815 H 0.83592 0.61409 0.34309 0.0
C816 C 0.87256 0.62729 0.36853 0.0
C817 C 0.89288 0.65401 0.38352 0.0
C818 C 0.8394 0.71753 0.33687 0.0
C819 C 0.85168 0.67019 0.35543 0.0
C820 C 0.81859 0.72499 0.32262 0.0
C821 C 0.78826 0.69454 0.31228 0.0
C822 C 0.82988 0.67934 0.34076 0.0
C823 C 0.77888 0.65673 0.31717 0.0
C824 C 0.85159 0.63509 0.35457 0.0
C825 C 0.89221 0.68866 0.38397 0.0
N826 N 0.79981 0.65023 0.33091 0.0
N827 N 0.87205 0.69591 0.37004 0.0
H828 H 0.68632 0.73925 0.63731 0.0
H829 H 0.68633 0.93196 0.66405 0.0
H830 H 0.61774 0.77578 0.60441 0.0
H831 H 0.69715 0.86156 0.70925 0.0
H832 H 0.67163 0.88095 0.63958 0.0
H833 H 0.70028 0.78957 0.66192 0.0
C834 C 0.67385 0.7576 0.63539 0.0
C835 C 0.65047 0.75313 0.61895 0.0
C836 C 0.67719 0.87674 0.65486 0.0
C837 C 0.66752 0.81149 0.64656 0.0
C838 C 0.68581 0.90582 0.66875 0.0
C839 C 0.69261 0.90062 0.68863 0.0
C840 C 0.67637 0.84277 0.66088 0.0
C841 C 0.69157 0.86632 0.69407 0.0
C842 C 0.68204 0.78641 0.64935 0.0
C843 C 0.63603 0.77844 0.61686 0.0
N844 N 0.68381 0.8387 0.68022 0.0
N845 N 0.64501 0.80679 0.63045 0.0
H846 H 0.20778 0.84366 0.60235 0.0
H847 H 0.11819 0.84109 0.70765 0.0
H848 H 0.24093 0.9485 0.63473 0.0
H849 H 0.0521 0.75866 0.66215 0.0
H850 H 0.1687 0.87802 0.68307 0.0
H851 H 0.15512 0.80847 0.62609 0.0
C852 C 0.20389 0.85923 0.61445 0.0
C853 C 0.22874 0.89895 0.61667 0.0
C854 C 0.14303 0.85197 0.67847 0.0
C855 C 0.16936 0.85895 0.64398 0.0
C856 C 0.11439 0.83091 0.69245 0.0
C857 C 0.08121 0.79687 0.68683 0.0
C858 C 0.13867 0.83837 0.65888 0.0
C859 C 0.07731 0.78491 0.66698 0.0
C860 C 0.17395 0.83919 0.62795 0.0
C861 C 0.2228 0.91774 0.63271 0.0
N862 N 0.10598 0.80541 0.65372 0.0
N863 N 0.19388 0.89752 0.64588 0.0
H864 H 0.03963 0.28948 0.63378 0.0
H865 H 0.23722 0.30206 0.66332 0.0
H866 H 0.14707 0.37291 0.60704 0.0
H867 H 0.14845 0.27553 0.70681 0.0
H868 H 0.20027 0.31635 0.63899 0.0
H869 H 0.07534 0.27305 0.65775 0.0
C870 C 0.07077 0.30466 0.63314 0.0
C871 C 0.09059 0.33315 0.61872 0.0
C872 C 0.18889 0.30724 0.65384 0.0
C873 C 0.13125 0.3133 0.64538 0.0
C874 C 0.20971 0.29882 0.66761 0.0
C875 C 0.19574 0.28781 0.687 0.0
C876 C 0.15352 0.30367 0.65943 0.0
C877 C 0.16014 0.28421 0.69198 0.0
C878 C 0.09103 0.29506 0.64668 0.0
C879 C 0.13083 0.35091 0.61802 0.0
N880 N 0.14008 0.29196 0.67823 0.0
N881 N 0.1499 0.34055 0.63111 0.0
H882 H 0.90424 0.42538 0.64038 0.0
H883 H 0.04468 0.56427 0.72526 0.0
H884 H 0.01402 0.43565 0.65394 0.0
H885 H 0.95299 0.5773 0.70011 0.0
H886 H 0.03055 0.51272 0.70129 0.0
H887 H 0.9178 0.47653 0.6646 0.0
C888 C 0.9312 0.43853 0.64847 0.0
C889 C 0.95847 0.42711 0.64495 0.0
C890 C 0.01365 0.52699 0.70093 0.0
C891 C 0.97401 0.48494 0.67266 0.0
C892 C 0.02171 0.55629 0.71457 0.0
C893 C 0.00022 0.5751 0.71439 0.0
C894 C 0.98348 0.51614 0.68723 0.0
C895 C 0.97052 0.56371 0.70045 0.0
C896 C 0.93901 0.46773 0.66218 0.0
C897 C 0.99281 0.44458 0.65585 0.0
N898 N 0.96289 0.53481 0.68744 0.0
N899 N -0.00039 0.47262 0.66925 0.0
H900 H 0.40734 0.3755 0.69885 0.0
H901 H 0.59543 0.57142 0.67061 0.0
H902 H 0.43806 0.48204 0.72895 0.0
H903 H 0.52998 0.48546 0.62641 0.0
H904 H 0.54466 0.53455 0.69507 0.0
H905 H 0.45848 0.41144 0.67453 0.0
C906 C 0.42464 0.40651 0.70022 0.0
C907 C 0.41826 0.42596 0.71578 0.0
C908 C 0.54151 0.5238 0.68002 0.0
C909 C 0.47749 0.46685 0.68853 0.0
C910 C 0.57048 0.54458 0.66615 0.0
C911 C 0.56655 0.53142 0.64653 0.0
C912 C 0.50893 0.48923 0.67428 0.0
C913 C 0.53373 0.49664 0.64139 0.0
C914 C 0.45389 0.42689 0.68644 0.0
C915 C 0.44222 0.46599 0.71722 0.0
N916 N 0.50615 0.47656 0.65524 0.0
N917 N 0.47099 0.48516 0.70382 0.0
H918 H 0.52983 0.92421 0.70561 0.0
H919 H 0.4892 0.08185 0.65618 0.0
H920 H 0.57362 0.03779 0.73017 0.0
H921 H 0.41738 0.95992 0.64599 0.0
H922 H 0.52445 0.06783 0.68162 0.0
H923 H 0.49264 0.93812 0.68129 0.0
C924 C 0.53139 0.952 0.70585 0.0
C925 C 0.55439 0.97985 0.71984 0.0
C926 C 0.5011 0.04418 0.67371 0.0
C927 C 0.51263 -0.00382 0.69217 0.0
C928 C 0.48108 0.05218 0.65922 0.0
C929 C 0.4514 0.02207 0.64846 0.0
C930 C 0.49121 0.00579 0.67745 0.0
C931 C 0.44136 0.98407 0.65324 0.0
C932 C 0.51021 0.95993 0.69207 0.0
C933 C 0.55582 0.01554 0.71963 0.0
N934 N 0.46147 0.97702 0.66724 0.0
N935 N 0.53535 0.02282 0.70593 0.0
H936 H 0.37935 0.43524 0.13115 0.0
H937 H 0.60084 0.5241 0.15804 0.0
H938 H 0.45266 0.39855 0.10326 0.0
H939 H 0.52918 0.56762 0.18084 0.0
H940 H 0.54858 0.48129 0.13591 0.0
H941 H 0.43556 0.48793 0.14697 0.0
C942 C 0.40741 0.43859 0.12816 0.0
C943 C 0.41131 0.41219 0.11608 0.0
C944 C 0.54441 0.50043 0.14564 0.0
C945 C 0.47582 0.47221 0.1344 0.0
C946 C 0.57416 0.52476 0.15834 0.0
C947 C 0.5692 0.5492 0.17144 0.0
C948 C 0.50937 0.50036 0.14613 0.0
C949 C 0.53418 0.54909 0.17107 0.0
C950 C 0.43952 0.46869 0.13721 0.0
C951 C 0.44838 0.41818 0.11253 0.0
N952 N 0.50551 0.52482 0.15874 0.0
N953 N 0.47921 0.44727 0.12192 0.0
H954 H 0.55682 0.00627 0.09841 0.0
H955 H 0.50165 0.08622 0.19326 0.0
H956 H 0.62235 0.03594 0.1528 0.0
H957 H 0.41337 0.98912 0.16105 0.0
H958 H 0.55046 0.08392 0.17236 0.0
H959 H 0.50723 0.01507 0.11564 0.0
C960 C 0.56084 0.01501 0.11386 0.0
C961 C 0.59325 0.02016 0.12436 0.0
C962 C 0.52033 0.06342 0.16979 0.0
C963 C 0.53807 0.03109 0.14368 0.0
C964 C 0.49254 0.06473 0.18163 0.0
C965 C 0.45356 0.03757 0.17895 0.0
C966 C 0.50896 0.03533 0.15492 0.0
C967 C 0.44325 0.01027 0.16369 0.0
C968 C 0.5327 0.01985 0.12363 0.0
C969 C 0.59745 0.0314 0.14433 0.0
N970 N 0.47088 0.00983 0.15215 0.0
N971 N 0.57027 0.03675 0.15333 0.0
H972 H 0.95025 0.3823 0.14372 0.0
H973 H 0.03884 0.61053 0.13989 0.0
H974 H 0.01907 0.4606 0.19029 0.0
H975 H 0.94748 0.53277 0.1008 0.0
H976 H 0.04001 0.55586 0.1548 0.0
H977 H 0.95638 0.4372 0.12455 0.0
C978 C 0.96685 0.41102 0.14985 0.0
C979 C 0.984 0.4169 0.16868 0.0
C980 C 0.01982 0.55071 0.14289 0.0
C981 C 0.99126 0.47955 0.14682 0.0
C982 C 0.01915 0.58196 0.13431 0.0
C983 C 0.99261 0.57624 0.11922 0.0
C984 C -0.0062 0.5133 0.1364 0.0
C985 C 0.96821 0.5385 0.11248 0.0
C986 C 0.97026 0.44226 0.13892 0.0
C987 C 0.00516 0.45468 0.1759 0.0
N988 N 0.96917 0.50834 0.12125 0.0
N989 N 0.00814 0.48452 0.16497 0.0
H990 H 0.38001 0.47206 0.84371 0.0
H991 H 0.60054 0.55416 0.8714 0.0
H992 H 0.45012 0.42726 0.82025 0.0
H993 H 0.53028 0.59566 0.89823 0.0
H994 H 0.54359 0.50296 0.85534 0.0
H995 H 0.43267 0.51379 0.86596 0.0
C996 C 0.40641 0.47088 0.84328 0.0
C997 C 0.4108 0.44638 0.82997 0.0
C998 C 0.54043 0.52293 0.86491 0.0
C999 C 0.47105 0.49392 0.85543 0.0
C1000 C 0.57297 0.55218 0.87412 0.0
C1001 C 0.57019 0.5795 0.88596 0.0
C1002 C 0.50483 0.52119 0.86734 0.0
C1003 C 0.53369 0.57526 0.88915 0.0
C1004 C 0.43639 0.49462 0.85605 0.0
C1005 C 0.44552 0.44586 0.83017 0.0
N1006 N 0.50244 0.54697 0.87963 0.0
N1007 N 0.47437 0.46946 0.8426 0.0
H1008 H 0.56813 0.02925 0.82236 0.0
H1009 H 0.39157 0.93381 0.89845 0.0
H1010 H 0.52257 0.91455 0.84634 0.0
H1011 H 0.43002 0.04226 0.86833 0.0
H1012 H 0.44601 0.93058 0.88401 0.0
H1013 H 0.52395 0.03842 0.84342 0.0
C1014 C 0.54897 0.00604 0.83214 0.0
C1015 C 0.54873 0.97091 0.83243 0.0
C1016 C 0.44269 0.95526 0.88077 0.0
C1017 C 0.49795 0.98121 0.85658 0.0
C1018 C 0.41177 0.95721 0.88907 0.0
C1019 C 0.40596 0.98806 0.88433 0.0
C1020 C 0.46792 0.98446 0.86776 0.0
C1021 C 0.43303 0.01762 0.87214 0.0
C1022 C 0.52374 0.01131 0.84418 0.0
C1023 C 0.52346 0.94198 0.84551 0.0
N1024 N 0.46261 0.01492 0.86415 0.0
N1025 N 0.49883 0.94766 0.85698 0.0
H1026 H 0.98131 0.57103 0.83854 0.0
H1027 H 0.0182 0.39875 0.84604 0.0
H1028 H 0.07278 0.57059 0.80494 0.0
H1029 H 0.00307 0.44558 0.90082 0.0
H1030 H 0.02736 0.45605 0.82843 0.0
H1031 H 0.97848 0.51975 0.85993 0.0
C1032 C 0.00085 0.56024 0.83575 0.0
C1033 C 0.02721 0.57478 0.81995 0.0
C1034 C 0.02214 0.45381 0.84431 0.0
C1035 C 0.02367 0.51639 0.84395 0.0
C1036 C 0.01663 0.42113 0.85433 0.0
C1037 C 0.00972 0.41758 0.87485 0.0
C1038 C 0.01968 0.48268 0.85477 0.0
C1039 C 0.00839 0.44748 0.88497 0.0
C1040 C -0.00061 0.53136 0.848 0.0
C1041 C 0.05209 0.56015 0.81699 0.0
N1042 N 0.01276 0.4788 0.87472 0.0
N1043 N 0.04927 0.53123 0.82868 0.0
H1044 H 0.19685 0.89832 0.5172 0.0
H1045 H 0.12044 0.73824 0.43224 0.0
H1046 H 0.27273 0.88139 0.47825 0.0
H1047 H 0.04752 0.76422 0.4686 0.0
H1048 H 0.17696 0.7938 0.44667 0.0
H1049 H 0.14213 0.85222 0.49761 0.0
C1050 C 0.20202 0.88502 0.50445 0.0
C1051 C 0.23938 0.89349 0.49943 0.0
C1052 C 0.14854 0.78753 0.4513 0.0
C1053 C 0.1767 0.84036 0.47695 0.0
C1054 C 0.11628 0.75589 0.44302 0.0
C1055 C 0.07919 0.74624 0.44942 0.0
C1056 C 0.14357 0.8095 0.46604 0.0
C1057 C 0.07553 0.77019 0.46341 0.0
C1058 C 0.17074 0.85872 0.49322 0.0
C1059 C 0.24437 0.87559 0.48266 0.0
N1060 N 0.10727 0.80043 0.47136 0.0
N1061 N 0.21331 0.84954 0.47211 0.0
H1062 H 0.13754 0.4138 0.49373 0.0
H1063 H 0.22271 0.27803 0.46603 0.0
H1064 H 0.09008 0.29691 0.51481 0.0
H1065 H 0.26199 0.38918 0.43882 0.0
H1066 H 0.17035 0.28248 0.48171 0.0
H1067 H 0.1804 0.40403 0.47173 0.0
C1068 C 0.13602 0.38603 0.49368 0.0
C1069 C 0.11046 0.35623 0.50626 0.0
C1070 C 0.19009 0.30574 0.47213 0.0
C1071 C 0.15933 0.34486 0.48111 0.0
C1072 C 0.22002 0.30321 0.46316 0.0
C1073 C 0.24702 0.33353 0.45132 0.0
C1074 C 0.18738 0.33907 0.46947 0.0
C1075 C 0.24187 0.36523 0.44792 0.0
C1076 C 0.16038 0.38043 0.48104 0.0
C1077 C 0.10949 0.32076 0.50545 0.0
N1078 N 0.21293 0.36746 0.45722 0.0
N1079 N 0.1338 0.31618 0.49321 0.0
H1080 H 0.61576 0.86968 0.43109 0.0
H1081 H 0.69085 0.79682 0.52147 0.0
H1082 H 0.70822 0.94486 0.47035 0.0
H1083 H 0.61554 0.7198 0.47618 0.0
H1084 H 0.69851 0.85139 0.50195 0.0
H1085 H 0.61667 0.81426 0.44601 0.0
C1086 C 0.63659 0.87461 0.44262 0.0
C1087 C 0.66157 0.91195 0.44967 0.0
C1088 C 0.68052 0.8226 0.49616 0.0
C1089 C 0.66248 0.84884 0.46686 0.0
C1090 C 0.67602 0.79139 0.50736 0.0
C1091 C 0.65231 0.75371 0.5005 0.0
C1092 C 0.6608 0.81618 0.47805 0.0
C1093 C 0.63402 0.74842 0.48203 0.0
C1094 C 0.63703 0.84297 0.45114 0.0
C1095 C 0.68802 0.91662 0.4646 0.0
N1096 N 0.63834 0.77936 0.47151 0.0
N1097 N 0.68748 0.88545 0.47281 0.0
H1098 H 0.04912 0.79886 0.17683 0.0
H1099 H 0.27352 0.89417 0.19866 0.0
H1100 H 0.12213 0.76036 0.15026 0.0
H1101 H 0.19942 0.92597 0.22989 0.0
H1102 H 0.21722 0.8414 0.18293 0.0
H1103 H 0.10264 0.84266 0.19804 0.0
C1104 C 0.07637 0.79952 0.1755 0.0
C1105 C 0.08127 0.77615 0.16164 0.0
C1106 C 0.21315 0.85961 0.19338 0.0
C1107 C 0.14256 0.82613 0.18589 0.0
C1108 C 0.24532 0.88977 0.20239 0.0
C1109 C 0.24119 0.91481 0.21542 0.0
C1110 C 0.17655 0.85464 0.19724 0.0
C1111 C 0.20393 0.90745 0.21987 0.0
C1112 C 0.10686 0.82443 0.18767 0.0
C1113 C 0.1171 0.778 0.16066 0.0
N1114 N 0.17302 0.8783 0.21056 0.0
N1115 N 0.14644 0.80276 0.17253 0.0
H1116 H 0.07932 0.28615 0.23749 0.0
H1117 H 0.22392 0.36301 0.14591 0.0
H1118 H 0.0915 0.37611 0.19754 0.0
H1119 H 0.23027 0.29077 0.19171 0.0
H1120 H 0.17668 0.36953 0.16569 0.0
H1121 H 0.13634 0.28914 0.22234 0.0
C1122 C 0.09422 0.30685 0.22574 0.0
C1123 C 0.08025 0.3305 0.21858 0.0
C1124 C 0.18859 0.35249 0.17154 0.0
C1125 C 0.1451 0.33383 0.20115 0.0
C1126 C 0.2155 0.34866 0.1602 0.0
C1127 C 0.23081 0.32608 0.16712 0.0
C1128 C 0.17645 0.33321 0.18984 0.0
C1129 C 0.21906 0.30837 0.18581 0.0
C1130 C 0.12672 0.30851 0.2171 0.0
C1131 C 0.10082 0.35689 0.20338 0.0
N1132 N 0.1922 0.31196 0.19646 0.0
N1133 N 0.13189 0.35752 0.19505 0.0
H1134 H 0.60627 0.71393 0.19977 0.0
H1135 H 0.70649 0.94329 0.19397 0.0
H1136 H 0.70428 0.79002 0.23577 0.0
H1137 H 0.62501 0.86481 0.1511 0.0
H1138 H 0.6986 0.88798 0.2134 0.0
H1139 H 0.60489 0.76951 0.18623 0.0
C1140 C 0.62736 0.74234 0.20499 0.0
C1141 C 0.65587 0.74733 0.21871 0.0
C1142 C 0.68226 0.88298 0.19983 0.0
C1143 C 0.65452 0.8113 0.20308 0.0
C1144 C 0.68667 0.91447 0.18875 0.0
C1145 C 0.66664 0.90861 0.1708 0.0
C1146 C 0.65742 0.84548 0.19294 0.0
C1147 C 0.64131 0.87069 0.16475 0.0
C1148 C 0.62656 0.77411 0.1972 0.0
C1149 C 0.682 0.78486 0.2251 0.0
N1150 N 0.63756 0.84061 0.17575 0.0
N1151 N 0.68098 0.81553 0.21705 0.0
H1152 H 0.7849 0.07443 0.76505 0.0
H1153 H 0.85852 0.23241 0.85054 0.0
H1154 H 0.71043 0.09688 0.80222 0.0
H1155 H 0.93544 0.2251 0.80812 0.0
H1156 H 0.80394 0.1852 0.83129 0.0
H1157 H 0.84053 0.13221 0.77856 0.0
C1158 C 0.78018 0.09176 0.77581 0.0
C1159 C 0.74301 0.08044 0.78276 0.0
C1160 C 0.83271 0.19411 0.82604 0.0
C1161 C 0.80631 0.14617 0.79831 0.0
C1162 C 0.86392 0.22102 0.83708 0.0
C1163 C 0.90155 0.23243 0.83101 0.0
C1164 C 0.83907 0.17801 0.80892 0.0
C1165 C 0.90684 0.21695 0.81336 0.0
C1166 C 0.81193 0.12467 0.78354 0.0
C1167 C 0.73857 0.10406 0.79665 0.0
N1168 N 0.87589 0.19013 0.80303 0.0
N1169 N 0.76983 0.1355 0.8041 0.0
H1170 H 0.74959 0.62433 0.84902 0.0
H1171 H 0.92001 0.72158 0.76941 0.0
H1172 H 0.79688 0.74114 0.82782 0.0
H1173 H 0.88659 0.61402 0.79942 0.0
H1174 H 0.86672 0.72403 0.78577 0.0
H1175 H 0.79202 0.61552 0.8263 0.0
C1176 C 0.76875 0.64807 0.83952 0.0
C1177 C 0.77002 0.68367 0.84047 0.0
C1178 C 0.87085 0.6997 0.78856 0.0
C1179 C 0.81856 0.67374 0.81441 0.0
C1180 C 0.90108 0.69816 0.77915 0.0
C1181 C 0.90806 0.66784 0.7833 0.0
C1182 C 0.84741 0.6706 0.80209 0.0
C1183 C 0.88262 0.63825 0.79603 0.0
C1184 C 0.79295 0.64301 0.82654 0.0
C1185 C 0.79526 0.71334 0.82772 0.0
N1186 N 0.85363 0.64054 0.8051 0.0
N1187 N 0.81871 0.70778 0.81528 0.0
H1188 H 0.31009 0.21444 0.76422 0.0
H1189 H 0.25298 0.09822 0.86465 0.0
H1190 H 0.3143 0.2683 0.82043 0.0
H1191 H 0.33451 0.08894 0.8265 0.0
H1192 H 0.25784 0.1504 0.84361 0.0
H1193 H 0.30321 0.15769 0.78249 0.0
C1194 C 0.30961 0.21429 0.78032 0.0
C1195 C 0.3131 0.24605 0.79089 0.0
C1196 C 0.27434 0.13659 0.8398 0.0
C1197 C 0.30409 0.18172 0.81149 0.0
C1198 C 0.27155 0.1069 0.85171 0.0
C1199 C 0.29363 0.08964 0.84732 0.0
C1200 C 0.29862 0.14837 0.82316 0.0
C1201 C 0.31736 0.10196 0.83042 0.0
C1202 C 0.30579 0.18218 0.79065 0.0
C1203 C 0.31219 0.24459 0.81173 0.0
N1204 N 0.31918 0.13065 0.81881 0.0
N1205 N 0.30732 0.21277 0.82135 0.0
H1206 H 0.86766 0.25064 0.56866 0.0
H1207 H 0.79528 0.10052 0.47924 0.0
H1208 H 0.94291 0.23258 0.52973 0.0
H1209 H 0.71836 0.09893 0.52463 0.0
H1210 H 0.84968 0.14872 0.49825 0.0
H1211 H 0.81232 0.19437 0.55377 0.0
C1212 C 0.87261 0.23465 0.55719 0.0
C1213 C 0.90997 0.24669 0.55026 0.0
C1214 C 0.82095 0.13768 0.50417 0.0
C1215 C 0.847 0.18273 0.53313 0.0
C1216 C 0.78985 0.1102 0.49327 0.0
C1217 C 0.75223 0.09583 0.50031 0.0
C1218 C 0.81448 0.15132 0.52216 0.0
C1219 C 0.74693 0.10931 0.51865 0.0
C1220 C 0.84104 0.2026 0.54868 0.0
C1221 C 0.91467 0.22479 0.53539 0.0
N1222 N 0.77774 0.13662 0.52888 0.0
N1223 N 0.88359 0.19419 0.52723 0.0
H1224 H 0.72882 0.60571 0.56553 0.0
H1225 H 0.89945 0.69933 0.48584 0.0
H1226 H 0.76175 0.71129 0.53358 0.0
H1227 H 0.85688 0.58613 0.51126 0.0
H1228 H 0.85583 0.70872 0.50736 0.0
H1229 H 0.78283 0.60309 0.55016 0.0
C1230 C 0.74774 0.62864 0.55555 0.0
C1231 C 0.74046 0.65846 0.5506 0.0
C1232 C 0.85619 0.6819 0.50832 0.0
C1233 C 0.80195 0.65551 0.53293 0.0
C1234 C 0.88109 0.67652 0.49603 0.0
C1235 C 0.8815 0.64173 0.49661 0.0
C1236 C 0.83151 0.65228 0.52128 0.0
C1237 C 0.85723 0.61327 0.51018 0.0
C1238 C 0.77842 0.62703 0.54671 0.0
C1239 C 0.76593 0.68744 0.5376 0.0
N1240 N 0.83302 0.61908 0.5219 0.0
N1241 N 0.79532 0.68506 0.52909 0.0
H1242 H 0.33764 0.10674 0.56957 0.0
H1243 H 0.41108 0.23447 0.47178 0.0
H1244 H 0.36278 0.0667 0.51518 0.0
H1245 H 0.31914 0.23186 0.50638 0.0
H1246 H 0.40911 0.184 0.4931 0.0
H1247 H 0.34549 0.16411 0.55153 0.0
C1248 C 0.34517 0.11031 0.55394 0.0
C1249 C 0.34933 0.08215 0.5437 0.0
C1250 C 0.38963 0.19479 0.49608 0.0
C1251 C 0.35915 0.14711 0.52344 0.0
C1252 C 0.39076 0.22355 0.48399 0.0
C1253 C 0.36497 0.23699 0.48725 0.0
C1254 C 0.3631 0.17998 0.51176 0.0
C1255 C 0.33919 0.22185 0.50328 0.0
C1256 C 0.34945 0.14271 0.54372 0.0
C1257 C 0.35899 0.08773 0.52349 0.0
N1258 N 0.33891 0.19405 0.51504 0.0
N1259 N 0.36383 0.11971 0.51403 0.0
H1260 H 0.29919 0.11186 0.22038 0.0
H1261 H 0.34813 0.21439 0.11358 0.0
H1262 H 0.36799 0.09645 0.17586 0.0
H1263 H 0.28133 0.23217 0.15836 0.0
H1264 H 0.35449 0.16995 0.13603 0.0
H1265 H 0.2925 0.15632 0.19799 0.0
C1266 C 0.31313 0.11802 0.20598 0.0
C1267 C 0.33407 0.10025 0.19999 0.0
C1268 C 0.33834 0.1835 0.14092 0.0
C1269 C 0.3262 0.15079 0.17422 0.0
C1270 C 0.33455 0.20877 0.12806 0.0
C1271 C 0.31428 0.22721 0.13409 0.0
C1272 C 0.32177 0.17658 0.15997 0.0
C1273 C 0.29732 0.21874 0.15306 0.0
C1274 C 0.30916 0.14328 0.19316 0.0
C1275 C 0.35147 0.10934 0.18113 0.0
N1276 N 0.30156 0.19417 0.16534 0.0
N1277 N 0.34702 0.13383 0.16891 0.0
H1278 H 0.78095 0.13305 0.11381 0.0
H1279 H 0.88929 0.18626 0.2188 0.0
H1280 H 0.77179 0.04791 0.1563 0.0
H1281 H 0.89638 0.27043 0.17623 0.0
H1282 H 0.84758 0.13501 0.19583 0.0
H1283 H 0.82648 0.18366 0.13575 0.0
C1284 C 0.78893 0.1249 0.12759 0.0
C1285 C 0.77233 0.08607 0.1332 0.0
C1286 C 0.85825 0.16471 0.19155 0.0
C1287 C 0.82399 0.14408 0.15865 0.0
C1288 C 0.88191 0.194 0.2047 0.0
C1289 C 0.89641 0.23276 0.19946 0.0
C1290 C 0.84905 0.17426 0.17303 0.0
C1291 C 0.88594 0.241 0.18095 0.0
C1292 C 0.81474 0.15389 0.14022 0.0
C1293 C 0.78368 0.07742 0.15136 0.0
N1294 N 0.86299 0.21203 0.16842 0.0
N1295 N 0.80858 0.1062 0.1635 0.0
H1296 H 0.93739 0.70592 0.15794 0.0
H1297 H 0.71193 0.62194 0.17386 0.0
H1298 H 0.85114 0.63365 0.11512 0.0
H1299 H 0.7982 0.69201 0.21718 0.0
H1300 H 0.76249 0.62651 0.15204 0.0
H1301 H 0.88688 0.70252 0.17935 0.0
C1302 C 0.90783 0.68948 0.15295 0.0
C1303 C 0.89854 0.66993 0.13467 0.0
C1304 C 0.77039 0.64085 0.16632 0.0
C1305 C 0.84039 0.66575 0.15931 0.0
C1306 C 0.7415 0.6382 0.17885 0.0
C1307 C 0.75079 0.65667 0.19742 0.0
C1308 C 0.80895 0.66215 0.17234 0.0
C1309 C 0.78966 0.67732 0.20301 0.0
C1310 C 0.87896 0.68748 0.16526 0.0
C1311 C 0.85967 0.64912 0.12908 0.0
N1312 N 0.81732 0.67955 0.19049 0.0
N1313 N 0.83201 0.64749 0.14139 0.0
H1314 H 0.63908 0.7802 0.89014 0.0
H1315 H 0.68713 0.88032 0.78266 0.0
H1316 H 0.70063 0.75696 0.84455 0.0
H1317 H 0.6236 0.90095 0.8282 0.0
H1318 H 0.69321 0.83553 0.80515 0.0
H1319 H 0.63504 0.82623 0.86786 0.0
C1320 C 0.652 0.78495 0.87552 0.0
C1321 C 0.6701 0.76453 0.86922 0.0
C1322 C 0.6779 0.84986 0.81017 0.0
C1323 C 0.6653 0.817 0.84354 0.0
C1324 C 0.67432 0.87534 0.79732 0.0
C1325 C 0.65485 0.89449 0.80352 0.0
C1326 C 0.66193 0.84354 0.82936 0.0
C1327 C 0.63887 0.8869 0.82272 0.0
C1328 C 0.64956 0.81115 0.86276 0.0
C1329 C 0.68631 0.77194 0.85007 0.0
N1330 N 0.64283 0.86213 0.83493 0.0
N1331 N 0.68339 0.79743 0.8379 0.0
H1332 H 0.08983 0.71863 0.82284 0.0
H1333 H 0.22739 0.94424 0.84128 0.0
H1334 H 0.10467 0.80581 0.78023 0.0
H1335 H 0.20737 0.85647 0.88462 0.0
H1336 H 0.18277 0.89426 0.81869 0.0
H1337 H 0.13425 0.76895 0.84518 0.0
C1338 C 0.1026 0.74837 0.8181 0.0
C1339 C 0.09331 0.75797 0.79962 0.0
C1340 C 0.18802 0.88595 0.83317 0.0
C1341 C 0.14418 0.81591 0.82533 0.0
C1342 C 0.21342 0.91448 0.84613 0.0
C1343 C 0.22129 0.90456 0.86489 0.0
C1344 C 0.17038 0.84714 0.83895 0.0
C1345 C 0.20224 0.86551 0.87032 0.0
C1346 C 0.1279 0.77713 0.83094 0.0
C1347 C 0.11094 0.79705 0.79433 0.0
N1348 N 0.17782 0.83824 0.85737 0.0
N1349 N 0.13544 0.82462 0.80717 0.0
H1350 H 0.12822 0.35327 0.88481 0.0
H1351 H 0.18343 0.30104 0.77949 0.0
H1352 H 0.04445 0.27324 0.84321 0.0
H1353 H 0.26643 0.38259 0.82086 0.0
H1354 H 0.1319 0.29096 0.80239 0.0
H1355 H 0.17941 0.36276 0.86189 0.0
C1356 C 0.12057 0.33729 0.87099 0.0
C1357 C 0.08191 0.31258 0.8659 0.0
C1358 C 0.1614 0.31122 0.80638 0.0
C1359 C 0.14039 0.32381 0.83944 0.0
C1360 C 0.19083 0.31721 0.79324 0.0
C1361 C 0.22939 0.34257 0.79827 0.0
C1362 C 0.1706 0.33067 0.82469 0.0
C1363 C 0.23719 0.36264 0.81635 0.0
C1364 C 0.14982 0.34296 0.85783 0.0
C1365 C 0.07381 0.2927 0.84775 0.0
N1366 N 0.2081 0.35608 0.82894 0.0
N1367 N 0.10278 0.29894 0.83512 0.0
H1368 H 0.94987 0.56577 0.49285 0.0
H1369 H 0.04007 0.42934 0.50961 0.0
H1370 H 0.01929 0.5494 0.44911 0.0
H1371 H 0.9692 0.44435 0.553 0.0
H1372 H 0.03382 0.47421 0.48759 0.0
H1373 H 0.95649 0.52127 0.51498 0.0
C1374 C 0.96633 0.55265 0.48781 0.0
C1375 C 0.98414 0.56147 0.46906 0.0
C1376 C 0.01972 0.46781 0.50194 0.0
C1377 C 0.99208 0.51059 0.49452 0.0
C1378 C 0.02339 0.44226 0.5146 0.0
C1379 C 0.00501 0.4329 0.53321 0.0
C1380 C -0.0025 0.4842 0.50787 0.0
C1381 C 0.98382 0.45064 0.5388 0.0
C1382 C 0.97019 0.5273 0.50053 0.0
C1383 C 0.00508 0.5435 0.46342 0.0
N1384 N 0.98054 0.47532 0.52615 0.0
N1385 N 0.00857 0.51901 0.47613 0.0
H1386 H 0.56024 0.6092 0.50901 0.0
H1387 H 0.42715 0.38236 0.49195 0.0
H1388 H 0.54383 0.52344 0.55287 0.0
H1389 H 0.44345 0.46792 0.44798 0.0
H1390 H 0.4706 0.43368 0.51422 0.0
H1391 H 0.51694 0.55795 0.48664 0.0
C1392 C 0.54733 0.57962 0.51403 0.0
C1393 C 0.55587 0.57067 0.53287 0.0
C1394 C 0.46481 0.44125 0.49968 0.0
C1395 C 0.50644 0.51174 0.50716 0.0
C1396 C 0.44009 0.41192 0.48688 0.0
C1397 C 0.43147 0.42079 0.46805 0.0
C1398 C 0.48107 0.47982 0.49365 0.0
C1399 C 0.44921 0.45968 0.46235 0.0
C1400 C 0.5227 0.55033 0.50118 0.0
C1401 C 0.53816 0.53176 0.5385 0.0
N1402 N 0.47303 0.48776 0.47514 0.0
N1403 N 0.51443 0.50374 0.52567 0.0
H1404 H 0.60609 0.03973 0.49336 0.0
H1405 H 0.37964 0.93011 0.51439 0.0
H1406 H 0.52101 0.96009 0.45214 0.0
H1407 H 0.46457 0.01299 0.55457 0.0
H1408 H 0.43129 0.9375 0.49245 0.0
H1409 H 0.55473 0.02865 0.51644 0.0
C1410 C 0.57659 0.02007 0.48908 0.0
C1411 C 0.56791 0.00077 0.47075 0.0
C1412 C 0.43864 0.95385 0.50614 0.0
C1413 C 0.50888 0.98767 0.49729 0.0
C1414 C 0.40915 0.9495 0.51876 0.0
C1415 C 0.41771 0.97117 0.53633 0.0
C1416 C 0.47702 0.98011 0.51107 0.0
C1417 C 0.45654 0.9957 0.5412 0.0
C1418 C 0.54726 0.01364 0.50234 0.0
C1419 C 0.5291 0.97566 0.46607 0.0
N1420 N 0.48473 -0.00027 0.52855 0.0
N1421 N 0.50103 0.96976 0.47929 0.0
loop_
_geom_bond_atom_site_label_1
_geom_bond_atom_site_label_2
_geom_bond_distance
_geom_bond_site_symmetry_2
_ccdc_geom_bond_type
Co0 O3 1.970 . S
Co0 N17 1.989 . S
Co0 O25 1.967 . S
Co0 O32 1.920 . S
Co1 O4 1.966 . S
Co1 N10 2.022 . S
Co1 N18 1.993 . S
Co1 O26 1.941 . S
C2 O3 1.258 . S
C2 O4 1.263 . S
O3 Co0 1.970 . S
O3 C2 1.258 . S
O4 Co1 1.966 . S
O4 C2 1.263 . S
C5 O6 1.235 . S
C5 O32 1.289 . S
O6 C5 1.235 . S
C7 C9 1.400 . S
C7 N10 1.351 . S
C7 C12 1.501 . S
C8 C9 1.387 . S
C8 N11 1.341 . S
C9 C7 1.400 . S
C9 C8 1.387 . S
N10 Co1 2.022 . S
N10 C7 1.351 . S
N10 N11 1.365 . S
N11 C8 1.341 . S
N11 N10 1.365 . S
N11 H31 0.862 . S
C12 C7 1.501 . S
C12 H13 0.961 . S
C12 H14 0.961 . S
C12 H15 0.960 . S
H13 C12 0.961 . S
H14 C12 0.961 . S
H15 C12 0.960 . S
C16 N17 1.342 . S
C16 C20 1.401 . S
C16 C21 1.499 . S
N17 Co0 1.989 . S
N17 C16 1.342 . S
N17 N18 1.388 . S
N18 Co1 1.993 . S
N18 N17 1.388 . S
N18 C19 1.346 . S
C19 N18 1.346 . S
C19 C20 1.396 . S
C19 C29 1.510 . S
C20 C16 1.401 . S
C20 C19 1.396 . S
C21 C16 1.499 . S
C21 H22 0.959 . S
C21 H23 0.960 . S
C21 H24 0.961 . S
H22 C21 0.959 . S
H23 C21 0.960 . S
H24 C21 0.961 . S
O25 Co0 1.967 . S
O25 C33 1.258 . S
O26 Co1 1.941 . S
O26 C33 1.266 . S
H27 C29 0.959 . S
H28 C29 0.961 . S
C29 C19 1.510 . S
C29 H27 0.959 . S
C29 H28 0.961 . S
C29 H30 0.960 . S
H30 C29 0.960 . S
H31 N11 0.862 . S
O32 Co0 1.920 . S
O32 C5 1.289 . S
C33 O25 1.258 . S
C33 O26 1.266 . S
Co34 O37 1.970 1_565 S
Co34 N51 1.989 . S
Co34 O59 1.967 . S
Co34 O66 1.920 . S
Co35 O38 1.966 . S
Co35 N44 2.022 . S
Co35 N52 1.993 1_545 S
Co35 O60 1.941 . S
C36 O37 1.258 . S
C36 O38 1.263 . S
O37 Co34 1.970 1_545 S
O37 C36 1.258 . S
O38 Co35 1.966 . S
O38 C36 1.263 . S
C39 O40 1.235 . S
C39 O66 1.289 . S
O40 C39 1.235 . S
C41 C43 1.400 . S
C41 N44 1.351 . S
C41 C46 1.501 . S
C42 C43 1.387 . S
C42 N45 1.341 . S
C43 C41 1.400 . S
C43 C42 1.387 . S
N44 Co35 2.022 . S
N44 C41 1.351 . S
N44 N45 1.365 . S
N45 C42 1.341 . S
N45 N44 1.365 . S
N45 H65 0.862 . S
C46 C41 1.501 . S
C46 H47 0.961 . S
C46 H48 0.961 . S
C46 H49 0.960 . S
H47 C46 0.961 . S
H48 C46 0.961 . S
H49 C46 0.960 . S
C50 N51 1.342 . S
C50 C54 1.401 . S
C50 C55 1.499 . S
N51 Co34 1.989 . S
N51 C50 1.342 . S
N51 N52 1.388 . S
N52 Co35 1.993 1_565 S
N52 N51 1.388 . S
N52 C53 1.346 . S
C53 N52 1.346 . S
C53 C54 1.396 . S
C53 C63 1.510 . S
C54 C50 1.401 . S
C54 C53 1.396 . S
C55 C50 1.499 . S
C55 H56 0.959 . S
C55 H57 0.960 . S
C55 H58 0.961 . S
H56 C55 0.959 . S
H57 C55 0.960 . S
H58 C55 0.961 . S
O59 Co34 1.967 . S
O59 C67 1.258 1_565 S
O60 Co35 1.941 . S
O60 C67 1.266 . S
H61 C63 0.959 . S
H62 C63 0.961 . S
C63 C53 1.510 . S
C63 H61 0.959 . S
C63 H62 0.961 . S
C63 H64 0.960 1_565 S
H64 C63 0.960 1_545 S
H65 N45 0.862 . S
O66 Co34 1.920 . S
O66 C39 1.289 . S
C67 O59 1.258 1_545 S
C67 O60 1.266 . S
Co68 O71 1.970 1_455 S
Co68 N85 1.989 . S
Co68 O93 1.967 . S
Co68 O100 1.920 . S
Co69 O72 1.966 . S
Co69 N78 2.022 . S
Co69 N86 1.993 1_655 S
Co69 O94 1.941 . S
C70 O71 1.258 . S
C70 O72 1.263 . S
O71 Co68 1.970 1_655 S
O71 C70 1.258 . S
O72 Co69 1.966 . S
O72 C70 1.263 . S
C73 O74 1.235 . S
C73 O100 1.289 . S
O74 C73 1.235 . S
C75 C77 1.400 . S
C75 N78 1.351 . S
C75 C80 1.501 . S
C76 C77 1.387 . S
C76 N79 1.341 . S
C77 C75 1.400 . S
C77 C76 1.387 . S
N78 Co69 2.022 . S
N78 C75 1.351 . S
N78 N79 1.365 . S
N79 C76 1.341 . S
N79 N78 1.365 . S
N79 H99 0.862 . S
C80 C75 1.501 . S
C80 H81 0.961 . S
C80 H82 0.961 . S
C80 H83 0.960 . S
H81 C80 0.961 . S
H82 C80 0.961 . S
H83 C80 0.960 . S
C84 N85 1.342 . S
C84 C88 1.401 . S
C84 C89 1.499 . S
N85 Co68 1.989 . S
N85 C84 1.342 . S
N85 N86 1.388 . S
N86 Co69 1.993 1_455 S
N86 N85 1.388 . S
N86 C87 1.346 . S
C87 N86 1.346 . S
C87 C88 1.396 . S
C87 C97 1.510 . S
C88 C84 1.401 . S
C88 C87 1.396 . S
C89 C84 1.499 . S
C89 H90 0.959 . S
C89 H91 0.960 . S
C89 H92 0.961 . S
H90 C89 0.959 . S
H91 C89 0.960 . S
H92 C89 0.961 . S
O93 Co68 1.967 . S
O93 C101 1.258 1_455 S
O94 Co69 1.941 . S
O94 C101 1.266 . S
H95 C97 0.959 . S
H96 C97 0.961 . S
C97 C87 1.510 . S
C97 H95 0.959 . S
C97 H96 0.961 . S
C97 H98 0.960 1_455 S
H98 C97 0.960 1_655 S
H99 N79 0.862 . S
O100 Co68 1.920 . S
O100 C73 1.289 . S
C101 O93 1.258 1_655 S
C101 O94 1.266 . S
Co102 O105 1.970 . S
Co102 N119 1.989 . S
Co102 O127 1.967 . S
Co102 O134 1.920 . S
Co103 O106 1.966 . S
Co103 N112 2.022 . S
Co103 N120 1.993 . S
Co103 O128 1.941 . S
C104 O105 1.258 . S
C104 O106 1.263 . S
O105 Co102 1.970 . S
O105 C104 1.258 . S
O106 Co103 1.966 . S
O106 C104 1.263 . S
C107 O108 1.235 . S
C107 O134 1.289 . S
O108 C107 1.235 . S
C109 C111 1.400 . S
C109 N112 1.351 . S
C109 C114 1.501 . S
C110 C111 1.387 . S
C110 N113 1.341 . S
C111 C109 1.400 . S
C111 C110 1.387 . S
N112 Co103 2.022 . S
N112 C109 1.351 . S
N112 N113 1.365 . S
N113 C110 1.341 . S
N113 N112 1.365 . S
N113 H133 0.862 . S
C114 C109 1.501 . S
C114 H115 0.961 . S
C114 H116 0.961 . S
C114 H117 0.960 . S
H115 C114 0.961 . S
H116 C114 0.961 . S
H117 C114 0.960 . S
C118 N119 1.342 . S
C118 C122 1.401 . S
C118 C123 1.499 . S
N119 Co102 1.989 . S
N119 C118 1.342 . S
N119 N120 1.388 . S
N120 Co103 1.993 . S
N120 N119 1.388 . S
N120 C121 1.346 . S
C121 N120 1.346 . S
C121 C122 1.396 . S
C121 C131 1.510 . S
C122 C118 1.401 . S
C122 C121 1.396 . S
C123 C118 1.499 . S
C123 H124 0.959 . S
C123 H125 0.960 . S
C123 H126 0.961 . S
H124 C123 0.959 . S
H125 C123 0.960 . S
H126 C123 0.961 . S
O127 Co102 1.967 . S
O127 C135 1.258 . S
O128 Co103 1.941 . S
O128 C135 1.266 . S
H129 C131 0.959 . S
H130 C131 0.961 . S
C131 C121 1.510 . S
C131 H129 0.959 . S
C131 H130 0.961 . S
C131 H132 0.960 . S
H132 C131 0.960 . S
H133 N113 0.862 . S
O134 Co102 1.920 . S
O134 C107 1.289 . S
C135 O127 1.258 . S
C135 O128 1.266 . S
Co136 O139 1.970 1_545 S
Co136 N153 1.989 . S
Co136 O161 1.967 . S
Co136 O168 1.920 . S
Co137 O140 1.966 . S
Co137 N146 2.022 . S
Co137 N154 1.993 1_565 S
Co137 O162 1.941 . S
C138 O139 1.258 . S
C138 O140 1.263 . S
O139 Co136 1.970 1_565 S
O139 C138 1.258 . S
O140 Co137 1.966 . S
O140 C138 1.263 . S
C141 O142 1.235 . S
C141 O168 1.289 . S
O142 C141 1.235 . S
C143 C145 1.400 . S
C143 N146 1.351 . S
C143 C148 1.501 . S
C144 C145 1.387 . S
C144 N147 1.341 . S
C145 C143 1.400 . S
C145 C144 1.387 . S
N146 Co137 2.022 . S
N146 C143 1.351 . S
N146 N147 1.365 . S
N147 C144 1.341 . S
N147 N146 1.365 . S
N147 H167 0.862 . S
C148 C143 1.501 . S
C148 H149 0.961 . S
C148 H150 0.961 . S
C148 H151 0.960 . S
H149 C148 0.961 . S
H150 C148 0.961 . S
H151 C148 0.960 . S
C152 N153 1.342 . S
C152 C156 1.401 . S
C152 C157 1.499 . S
N153 Co136 1.989 . S
N153 C152 1.342 . S
N153 N154 1.388 . S
N154 Co137 1.993 1_545 S
N154 N153 1.388 . S
N154 C155 1.346 . S
C155 N154 1.346 . S
C155 C156 1.396 . S
C155 C165 1.510 . S
C156 C152 1.401 . S
C156 C155 1.396 . S
C157 C152 1.499 . S
C157 H158 0.959 . S
C157 H159 0.960 . S
C157 H160 0.961 . S
H158 C157 0.959 . S
H159 C157 0.960 . S
H160 C157 0.961 . S
O161 Co136 1.967 . S
O161 C169 1.258 1_545 S
O162 Co137 1.941 . S
O162 C169 1.266 . S
H163 C165 0.959 . S
H164 C165 0.961 . S
C165 C155 1.510 . S
C165 H163 0.959 . S
C165 H164 0.961 . S
C165 H166 0.960 1_545 S
H166 C165 0.960 1_565 S
H167 N147 0.862 . S
O168 Co136 1.920 . S
O168 C141 1.289 . S
C169 O161 1.258 1_565 S
C169 O162 1.266 . S
Co170 O173 1.970 1_655 S
Co170 N187 1.989 . S
Co170 O195 1.967 . S
Co170 O202 1.920 . S
Co171 O174 1.966 . S
Co171 N180 2.022 . S
Co171 N188 1.993 1_455 S
Co171 O196 1.941 . S
C172 O173 1.258 . S
C172 O174 1.263 . S
O173 Co170 1.970 1_455 S
O173 C172 1.258 . S
O174 Co171 1.966 . S
O174 C172 1.263 . S
C175 O176 1.235 . S
C175 O202 1.289 . S
O176 C175 1.235 . S
C177 C179 1.400 . S
C177 N180 1.351 . S
C177 C182 1.501 . S
C178 C179 1.387 . S
C178 N181 1.341 . S
C179 C177 1.400 . S
C179 C178 1.387 . S
N180 Co171 2.022 . S
N180 C177 1.351 . S
N180 N181 1.365 . S
N181 C178 1.341 . S
N181 N180 1.365 . S
N181 H201 0.862 . S
C182 C177 1.501 . S
C182 H183 0.961 . S
C182 H184 0.961 . S
C182 H185 0.960 . S
H183 C182 0.961 . S
H184 C182 0.961 . S
H185 C182 0.960 . S
C186 N187 1.342 . S
C186 C190 1.401 . S
C186 C191 1.499 . S
N187 Co170 1.989 . S
N187 C186 1.342 . S
N187 N188 1.388 . S
N188 Co171 1.993 1_655 S
N188 N187 1.388 . S
N188 C189 1.346 . S
C189 N188 1.346 . S
C189 C190 1.396 . S
C189 C199 1.510 . S
C190 C186 1.401 . S
C190 C189 1.396 . S
C191 C186 1.499 . S
C191 H192 0.959 . S
C191 H193 0.960 . S
C191 H194 0.961 . S
H192 C191 0.959 . S
H193 C191 0.960 . S
H194 C191 0.961 . S
O195 Co170 1.967 . S
O195 C203 1.258 1_655 S
O196 Co171 1.941 . S
O196 C203 1.266 . S
H197 C199 0.959 . S
H198 C199 0.961 . S
C199 C189 1.510 . S
C199 H197 0.959 . S
C199 H198 0.961 . S
C199 H200 0.960 1_655 S
H200 C199 0.960 1_455 S
H201 N181 0.862 . S
O202 Co170 1.920 . S
O202 C175 1.289 . S
C203 O195 1.258 1_455 S
C203 O196 1.266 . S
Co204 O207 1.970 . S
Co204 N221 1.989 . S
Co204 O229 1.967 1_655 S
Co204 O236 1.920 . S
Co205 O208 1.966 . S
Co205 N214 2.022 . S
Co205 N222 1.993 1_455 S
Co205 O230 1.941 . S
C206 O207 1.258 . S
C206 O208 1.263 1_655 S
O207 Co204 1.970 . S
O207 C206 1.258 . S
O208 Co205 1.966 . S
O208 C206 1.263 1_455 S
C209 O210 1.235 . S
C209 O236 1.289 . S
O210 C209 1.235 . S
C211 C213 1.400 . S
C211 N214 1.351 . S
C211 C216 1.501 . S
C212 C213 1.387 . S
C212 N215 1.341 . S
C213 C211 1.400 . S
C213 C212 1.387 . S
N214 Co205 2.022 . S
N214 C211 1.351 . S
N214 N215 1.365 . S
N215 C212 1.341 . S
N215 N214 1.365 . S
N215 H235 0.862 . S
C216 C211 1.501 . S
C216 H217 0.961 . S
C216 H218 0.961 1_455 S
C216 H219 0.960 . S
H217 C216 0.961 . S
H218 C216 0.961 1_655 S
H219 C216 0.960 . S
C220 N221 1.342 . S
C220 C224 1.401 . S
C220 C225 1.499 . S
N221 Co204 1.989 . S
N221 C220 1.342 . S
N221 N222 1.388 . S
N222 Co205 1.993 1_655 S
N222 N221 1.388 . S
N222 C223 1.346 . S
C223 N222 1.346 . S
C223 C224 1.396 . S
C223 C233 1.510 . S
C224 C220 1.401 . S
C224 C223 1.396 . S
C225 C220 1.499 . S
C225 H226 0.959 . S
C225 H227 0.960 . S
C225 H228 0.961 . S
H226 C225 0.959 . S
H227 C225 0.960 . S
H228 C225 0.961 . S
O229 Co204 1.967 1_455 S
O229 C237 1.258 . S
O230 Co205 1.941 . S
O230 C237 1.266 . S
H231 C233 0.959 . S
H232 C233 0.961 . S
C233 C223 1.510 . S
C233 H231 0.959 . S
C233 H232 0.961 . S
C233 H234 0.960 . S
H234 C233 0.960 . S
H235 N215 0.862 . S
O236 Co204 1.920 . S
O236 C209 1.289 . S
C237 O229 1.258 . S
C237 O230 1.266 . S
Co238 O241 1.970 . S
Co238 N255 1.989 . S
Co238 O263 1.967 . S
Co238 O270 1.920 . S
Co239 O242 1.966 . S
Co239 N248 2.022 . S
Co239 N256 1.993 . S
Co239 O264 1.941 . S
C240 O241 1.258 . S
C240 O242 1.263 . S
O241 Co238 1.970 . S
O241 C240 1.258 . S
O242 Co239 1.966 . S
O242 C240 1.263 . S
C243 O244 1.235 . S
C243 O270 1.289 . S
O244 C243 1.235 . S
C245 C247 1.400 . S
C245 N248 1.351 . S
C245 C250 1.501 . S
C246 C247 1.387 . S
C246 N249 1.341 . S
C247 C245 1.400 . S
C247 C246 1.387 . S
N248 Co239 2.022 . S
N248 C245 1.351 . S
N248 N249 1.365 . S
N249 C246 1.341 . S
N249 N248 1.365 . S
N249 H269 0.862 . S
C250 C245 1.501 . S
C250 H251 0.961 . S
C250 H252 0.961 . S
C250 H253 0.960 . S
H251 C250 0.961 . S
H252 C250 0.961 . S
H253 C250 0.960 . S
C254 N255 1.342 . S
C254 C258 1.401 . S
C254 C259 1.499 . S
N255 Co238 1.989 . S
N255 C254 1.342 . S
N255 N256 1.388 . S
N256 Co239 1.993 . S
N256 N255 1.388 . S
N256 C257 1.346 . S
C257 N256 1.346 . S
C257 C258 1.396 . S
C257 C267 1.510 . S
C258 C254 1.401 . S
C258 C257 1.396 . S
C259 C254 1.499 . S
C259 H260 0.959 . S
C259 H261 0.960 . S
C259 H262 0.961 . S
H260 C259 0.959 . S
H261 C259 0.960 . S
H262 C259 0.961 . S
O263 Co238 1.967 . S
O263 C271 1.258 . S
O264 Co239 1.941 . S
O264 C271 1.266 . S
H265 C267 0.959 . S
H266 C267 0.961 . S
C267 C257 1.510 . S
C267 H265 0.959 . S
C267 H266 0.961 . S
C267 H268 0.960 . S
H268 C267 0.960 . S
H269 N249 0.862 . S
O270 Co238 1.920 . S
O270 C243 1.289 . S
C271 O263 1.258 . S
C271 O264 1.266 . S
Co272 O275 1.970 . S
Co272 N289 1.989 . S
Co272 O297 1.967 1_545 S
Co272 O304 1.920 . S
Co273 O276 1.966 . S
Co273 N282 2.022 . S
Co273 N290 1.993 1_565 S
Co273 O298 1.941 . S
C274 O275 1.258 . S
C274 O276 1.263 1_545 S
O275 Co272 1.970 . S
O275 C274 1.258 . S
O276 Co273 1.966 . S
O276 C274 1.263 1_565 S
C277 O278 1.235 . S
C277 O304 1.289 . S
O278 C277 1.235 . S
C279 C281 1.400 . S
C279 N282 1.351 . S
C279 C284 1.501 . S
C280 C281 1.387 . S
C280 N283 1.341 . S
C281 C279 1.400 . S
C281 C280 1.387 . S
N282 Co273 2.022 . S
N282 C279 1.351 . S
N282 N283 1.365 . S
N283 C280 1.341 . S
N283 N282 1.365 . S
N283 H303 0.862 . S
C284 C279 1.501 . S
C284 H285 0.961 . S
C284 H286 0.961 1_565 S
C284 H287 0.960 . S
H285 C284 0.961 . S
H286 C284 0.961 1_545 S
H287 C284 0.960 . S
C288 N289 1.342 . S
C288 C292 1.401 . S
C288 C293 1.499 . S
N289 Co272 1.989 . S
N289 C288 1.342 . S
N289 N290 1.388 . S
N290 Co273 1.993 1_545 S
N290 N289 1.388 . S
N290 C291 1.346 . S
C291 N290 1.346 . S
C291 C292 1.396 . S
C291 C301 1.510 . S
C292 C288 1.401 . S
C292 C291 1.396 . S
C293 C288 1.499 . S
C293 H294 0.959 . S
C293 H295 0.960 . S
C293 H296 0.961 . S
H294 C293 0.959 . S
H295 C293 0.960 . S
H296 C293 0.961 . S
O297 Co272 1.967 1_565 S
O297 C305 1.258 . S
O298 Co273 1.941 . S
O298 C305 1.266 . S
H299 C301 0.959 . S
H300 C301 0.961 . S
C301 C291 1.510 . S
C301 H299 0.959 . S
C301 H300 0.961 . S
C301 H302 0.960 . S
H302 C301 0.960 . S
H303 N283 0.862 . S
O304 Co272 1.920 . S
O304 C277 1.289 . S
C305 O297 1.258 . S
C305 O298 1.266 . S
Co306 O309 1.970 1_565 S
Co306 N323 1.992 1_565 S
Co306 O331 1.967 . S
Co306 O338 1.920 . S
Co307 O310 1.966 . S
Co307 N316 2.022 . S
Co307 N324 1.993 . S
Co307 O332 1.941 1_545 S
C308 O309 1.258 . S
C308 O310 1.263 . S
O309 Co306 1.970 1_545 S
O309 C308 1.258 . S
O310 Co307 1.966 . S
O310 C308 1.263 . S
C311 O312 1.250 . S
C311 O338 1.286 1_545 S
O312 C311 1.250 . S
C313 C315 1.400 . S
C313 N316 1.351 . S
C313 C318 1.501 . S
C314 C315 1.387 . S
C314 N317 1.341 . S
C315 C313 1.400 . S
C315 C314 1.387 . S
N316 Co307 2.022 . S
N316 C313 1.351 . S
N316 N317 1.365 . S
N317 C314 1.341 . S
N317 N316 1.365 . S
N317 H337 0.862 1_545 S
C318 C313 1.501 . S
C318 H319 0.961 . S
C318 H320 0.961 . S
C318 H321 0.960 . S
H319 C318 0.961 . S
H320 C318 0.961 . S
H321 C318 0.960 . S
C322 N323 1.326 1_565 S
C322 C326 1.401 . S
C322 C327 1.499 . S
N323 Co306 1.992 1_545 S
N323 C322 1.326 1_545 S
N323 N324 1.403 . S
N324 Co307 1.993 . S
N324 N323 1.403 . S
N324 C325 1.346 . S
C325 N324 1.346 . S
C325 C326 1.398 1_545 S
C325 C335 1.510 . S
C326 C322 1.401 . S
C326 C325 1.398 1_565 S
C327 C322 1.499 . S
C327 H328 0.959 . S
C327 H329 0.960 . S
C327 H330 0.961 . S
H328 C327 0.959 . S
H329 C327 0.960 . S
H330 C327 0.961 . S
O331 Co306 1.967 . S
O331 C339 1.258 . S
O332 Co307 1.941 1_565 S
O332 C339 1.266 . S
H333 C335 0.959 . S
H334 C335 0.961 . S
C335 C325 1.510 . S
C335 H333 0.959 . S
C335 H334 0.961 . S
C335 H336 0.960 . S
H336 C335 0.960 . S
H337 N317 0.862 1_565 S
O338 Co306 1.920 . S
O338 C311 1.286 1_565 S
C339 O331 1.258 . S
C339 O332 1.266 . S
Co340 O343 1.970 1_455 S
Co340 N357 1.989 1_455 S
Co340 O365 1.967 . S
Co340 O372 1.920 . S
Co341 O344 1.966 . S
Co341 N350 2.022 . S
Co341 N358 1.993 . S
Co341 O366 1.941 1_655 S
C342 O343 1.258 . S
C342 O344 1.263 . S
O343 Co340 1.970 1_655 S
O343 C342 1.258 . S
O344 Co341 1.966 . S
O344 C342 1.263 . S
C345 O346 1.235 . S
C345 O372 1.289 1_655 S
O346 C345 1.235 . S
C347 C349 1.400 . S
C347 N350 1.351 . S
C347 C352 1.501 . S
C348 C349 1.387 . S
C348 N351 1.341 . S
C349 C347 1.400 . S
C349 C348 1.387 . S
N350 Co341 2.022 . S
N350 C347 1.351 . S
N350 N351 1.365 . S
N351 C348 1.341 . S
N351 N350 1.365 . S
N351 H371 0.862 1_655 S
C352 C347 1.501 . S
C352 H353 0.961 . S
C352 H354 0.961 . S
C352 H355 0.960 . S
H353 C352 0.961 . S
H354 C352 0.961 . S
H355 C352 0.960 . S
C356 N357 1.342 1_455 S
C356 C360 1.401 1_455 S
C356 C361 1.499 . S
N357 Co340 1.989 1_655 S
N357 C356 1.342 1_655 S
N357 N358 1.388 . S
N358 Co341 1.993 . S
N358 N357 1.388 . S
N358 C359 1.346 . S
C359 N358 1.346 . S
C359 C360 1.394 . S
C359 C369 1.510 . S
C360 C356 1.401 1_655 S
C360 C359 1.394 . S
C361 C356 1.499 . S
C361 H362 0.959 . S
C361 H363 0.960 . S
C361 H364 0.961 . S
H362 C361 0.959 . S
H363 C361 0.960 . S
H364 C361 0.961 . S
O365 Co340 1.967 . S
O365 C373 1.258 . S
O366 Co341 1.941 1_455 S
O366 C373 1.266 . S
H367 C369 0.959 . S
H368 C369 0.961 . S
C369 C359 1.510 . S
C369 H367 0.959 . S
C369 H368 0.961 . S
C369 H370 0.960 . S
H370 C369 0.960 . S
H371 N351 0.862 1_455 S
O372 Co340 1.920 . S
O372 C345 1.289 1_455 S
C373 O365 1.258 . S
C373 O366 1.266 . S
Co374 O377 1.970 . S
Co374 N391 1.989 . S
Co374 O399 1.967 . S
Co374 O406 1.920 . S
Co375 O378 1.966 . S
Co375 N384 2.022 . S
Co375 N392 1.993 . S
Co375 O400 1.941 . S
C376 O377 1.258 . S
C376 O378 1.263 . S
O377 Co374 1.970 . S
O377 C376 1.258 . S
O378 Co375 1.966 . S
O378 C376 1.263 . S
C379 O380 1.235 . S
C379 O406 1.289 . S
O380 C379 1.235 . S
C381 C383 1.400 . S
C381 N384 1.351 . S
C381 C386 1.501 . S
C382 C383 1.387 . S
C382 N385 1.341 . S
C383 C381 1.400 . S
C383 C382 1.387 . S
N384 Co375 2.022 . S
N384 C381 1.351 . S
N384 N385 1.365 . S
N385 C382 1.341 . S
N385 N384 1.365 . S
N385 H405 0.862 . S
C386 C381 1.501 . S
C386 H387 0.961 . S
C386 H388 0.961 . S
C386 H389 0.960 . S
H387 C386 0.961 . S
H388 C386 0.961 . S
H389 C386 0.960 . S
C390 N391 1.342 . S
C390 C394 1.401 . S
C390 C395 1.499 . S
N391 Co374 1.989 . S
N391 C390 1.342 . S
N391 N392 1.388 . S
N392 Co375 1.993 . S
N392 N391 1.388 . S
N392 C393 1.346 . S
C393 N392 1.346 . S
C393 C394 1.396 . S
C393 C403 1.510 . S
C394 C390 1.401 . S
C394 C393 1.396 . S
C395 C390 1.499 . S
C395 H396 0.959 . S
C395 H397 0.960 . S
C395 H398 0.961 . S
H396 C395 0.959 . S
H397 C395 0.960 . S
H398 C395 0.961 . S
O399 Co374 1.967 . S
O399 C407 1.258 . S
O400 Co375 1.941 . S
O400 C407 1.266 . S
H401 C403 0.959 . S
H402 C403 0.961 . S
C403 C393 1.510 . S
C403 H401 0.959 . S
C403 H402 0.961 . S
C403 H404 0.960 . S
H404 C403 0.960 . S
H405 N385 0.862 . S
O406 Co374 1.920 . S
O406 C379 1.289 . S
C407 O399 1.258 . S
C407 O400 1.266 . S
Co408 O411 1.970 1_545 S
Co408 N425 1.992 1_545 S
Co408 O433 1.967 . S
Co408 O440 1.920 . S
Co409 O412 1.966 . S
Co409 N418 2.022 . S
Co409 N426 1.993 . S
Co409 O434 1.941 1_565 S
C410 O411 1.258 . S
C410 O412 1.263 . S
O411 Co408 1.970 1_565 S
O411 C410 1.258 . S
O412 Co409 1.966 . S
O412 C410 1.263 . S
C413 O414 1.250 . S
C413 O440 1.286 1_565 S
O414 C413 1.250 . S
C415 C417 1.400 . S
C415 N418 1.351 . S
C415 C420 1.501 . S
C416 C417 1.387 . S
C416 N419 1.341 . S
C417 C415 1.400 . S
C417 C416 1.387 . S
N418 Co409 2.022 . S
N418 C415 1.351 . S
N418 N419 1.365 . S
N419 C416 1.341 . S
N419 N418 1.365 . S
N419 H439 0.862 1_565 S
C420 C415 1.501 . S
C420 H421 0.961 . S
C420 H422 0.961 . S
C420 H423 0.960 . S
H421 C420 0.961 . S
H422 C420 0.961 . S
H423 C420 0.960 . S
C424 N425 1.326 1_545 S
C424 C428 1.401 . S
C424 C429 1.499 . S
N425 Co408 1.992 1_565 S
N425 C424 1.326 1_565 S
N425 N426 1.403 . S
N426 Co409 1.993 . S
N426 N425 1.403 . S
N426 C427 1.346 . S
C427 N426 1.346 . S
C427 C428 1.398 1_565 S
C427 C437 1.510 . S
C428 C424 1.401 . S
C428 C427 1.398 1_545 S
C429 C424 1.499 . S
C429 H430 0.959 . S
C429 H431 0.960 . S
C429 H432 0.961 . S
H430 C429 0.959 . S
H431 C429 0.960 . S
H432 C429 0.961 . S
O433 Co408 1.967 . S
O433 C441 1.258 . S
O434 Co409 1.941 1_545 S
O434 C441 1.266 . S
H435 C437 0.959 . S
H436 C437 0.961 . S
C437 C427 1.510 . S
C437 H435 0.959 . S
C437 H436 0.961 . S
C437 H438 0.960 . S
H438 C437 0.960 . S
H439 N419 0.862 1_545 S
O440 Co408 1.920 . S
O440 C413 1.286 1_545 S
C441 O433 1.258 . S
C441 O434 1.266 . S
Co442 O445 1.970 1_655 S
Co442 N459 1.989 1_655 S
Co442 O467 1.967 . S
Co442 O474 1.920 . S
Co443 O446 1.966 . S
Co443 N452 2.022 . S
Co443 N460 1.993 . S
Co443 O468 1.941 1_455 S
C444 O445 1.258 . S
C444 O446 1.263 . S
O445 Co442 1.970 1_455 S
O445 C444 1.258 . S
O446 Co443 1.966 . S
O446 C444 1.263 . S
C447 O448 1.235 . S
C447 O474 1.289 1_455 S
O448 C447 1.235 . S
C449 C451 1.400 . S
C449 N452 1.351 . S
C449 C454 1.501 . S
C450 C451 1.387 . S
C450 N453 1.341 . S
C451 C449 1.400 . S
C451 C450 1.387 . S
N452 Co443 2.022 . S
N452 C449 1.351 . S
N452 N453 1.365 . S
N453 C450 1.341 . S
N453 N452 1.365 . S
N453 H473 0.862 1_455 S
C454 C449 1.501 . S
C454 H455 0.961 . S
C454 H456 0.961 . S
C454 H457 0.960 . S
H455 C454 0.961 . S
H456 C454 0.961 . S
H457 C454 0.960 . S
C458 N459 1.342 1_655 S
C458 C462 1.401 1_655 S
C458 C463 1.499 . S
N459 Co442 1.989 1_455 S
N459 C458 1.342 1_455 S
N459 N460 1.388 . S
N460 Co443 1.993 . S
N460 N459 1.388 . S
N460 C461 1.346 . S
C461 N460 1.346 . S
C461 C462 1.394 . S
C461 C471 1.510 . S
C462 C458 1.401 1_455 S
C462 C461 1.394 . S
C463 C458 1.499 . S
C463 H464 0.959 . S
C463 H465 0.960 . S
C463 H466 0.961 . S
H464 C463 0.959 . S
H465 C463 0.960 . S
H466 C463 0.961 . S
O467 Co442 1.967 . S
O467 C475 1.258 . S
O468 Co443 1.941 1_655 S
O468 C475 1.266 . S
H469 C471 0.959 . S
H470 C471 0.961 . S
C471 C461 1.510 . S
C471 H469 0.959 . S
C471 H470 0.961 . S
C471 H472 0.960 . S
H472 C471 0.960 . S
H473 N453 0.862 1_655 S
O474 Co442 1.920 . S
O474 C447 1.289 1_655 S
C475 O467 1.258 . S
C475 O468 1.266 . S
Co476 O479 1.970 . S
Co476 N493 1.989 . S
Co476 O501 1.967 . S
Co476 O508 1.920 . S
Co477 O480 1.966 . S
Co477 N486 2.022 . S
Co477 N494 1.993 . S
Co477 O502 1.941 . S
C478 O479 1.258 . S
C478 O480 1.263 . S
O479 Co476 1.970 . S
O479 C478 1.258 . S
O480 Co477 1.966 . S
O480 C478 1.263 . S
C481 O482 1.235 . S
C481 O508 1.289 . S
O482 C481 1.235 . S
C483 C485 1.400 . S
C483 N486 1.351 . S
C483 C488 1.501 . S
C484 C485 1.387 . S
C484 N487 1.341 . S
C485 C483 1.400 . S
C485 C484 1.387 . S
N486 Co477 2.022 . S
N486 C483 1.351 . S
N486 N487 1.365 . S
N487 C484 1.341 . S
N487 N486 1.365 . S
N487 H507 0.862 . S
C488 C483 1.501 . S
C488 H489 0.961 . S
C488 H490 0.961 . S
C488 H491 0.960 . S
H489 C488 0.961 . S
H490 C488 0.961 . S
H491 C488 0.960 . S
C492 N493 1.342 . S
C492 C496 1.401 . S
C492 C497 1.499 . S
N493 Co476 1.989 . S
N493 C492 1.342 . S
N493 N494 1.388 . S
N494 Co477 1.993 . S
N494 N493 1.388 . S
N494 C495 1.346 . S
C495 N494 1.346 . S
C495 C496 1.396 . S
C495 C505 1.510 . S
C496 C492 1.401 . S
C496 C495 1.396 . S
C497 C492 1.499 . S
C497 H498 0.959 . S
C497 H499 0.960 . S
C497 H500 0.961 . S
H498 C497 0.959 . S
H499 C497 0.960 . S
H500 C497 0.961 . S
O501 Co476 1.967 . S
O501 C509 1.258 . S
O502 Co477 1.941 . S
O502 C509 1.266 . S
H503 C505 0.959 . S
H504 C505 0.961 . S
C505 C495 1.510 . S
C505 H503 0.959 . S
C505 H504 0.961 . S
C505 H506 0.960 . S
H506 C505 0.960 . S
H507 N487 0.862 . S
O508 Co476 1.920 . S
O508 C481 1.289 . S
C509 O501 1.258 . S
C509 O502 1.266 . S
Co510 O513 1.970 . S
Co510 N527 1.989 . S
Co510 O535 1.967 1_455 S
Co510 O542 1.920 . S
Co511 O514 1.966 . S
Co511 N520 2.022 . S
Co511 N528 1.993 1_655 S
Co511 O536 1.941 . S
C512 O513 1.258 . S
C512 O514 1.263 1_455 S
O513 Co510 1.970 . S
O513 C512 1.258 . S
O514 Co511 1.966 . S
O514 C512 1.263 1_655 S
C515 O516 1.235 . S
C515 O542 1.289 . S
O516 C515 1.235 . S
C517 C519 1.400 . S
C517 N520 1.351 . S
C517 C522 1.501 . S
C518 C519 1.387 . S
C518 N521 1.341 . S
C519 C517 1.400 . S
C519 C518 1.387 . S
N520 Co511 2.022 . S
N520 C517 1.351 . S
N520 N521 1.365 . S
N521 C518 1.341 . S
N521 N520 1.365 . S
N521 H541 0.862 . S
C522 C517 1.501 . S
C522 H523 0.961 . S
C522 H524 0.961 1_655 S
C522 H525 0.960 . S
H523 C522 0.961 . S
H524 C522 0.961 1_455 S
H525 C522 0.960 . S
C526 N527 1.342 . S
C526 C530 1.401 . S
C526 C531 1.499 . S
N527 Co510 1.989 . S
N527 C526 1.342 . S
N527 N528 1.388 . S
N528 Co511 1.993 1_455 S
N528 N527 1.388 . S
N528 C529 1.346 . S
C529 N528 1.346 . S
C529 C530 1.396 . S
C529 C539 1.510 . S
C530 C526 1.401 . S
C530 C529 1.396 . S
C531 C526 1.499 . S
C531 H532 0.959 . S
C531 H533 0.960 . S
C531 H534 0.961 . S
H532 C531 0.959 . S
H533 C531 0.960 . S
H534 C531 0.961 . S
O535 Co510 1.967 1_655 S
O535 C543 1.258 . S
O536 Co511 1.941 . S
O536 C543 1.266 . S
H537 C539 0.959 . S
H538 C539 0.961 . S
C539 C529 1.510 . S
C539 H537 0.959 . S
C539 H538 0.961 . S
C539 H540 0.960 . S
H540 C539 0.960 . S
H541 N521 0.862 . S
O542 Co510 1.920 . S
O542 C515 1.289 . S
C543 O535 1.258 . S
C543 O536 1.266 . S
Co544 O547 1.970 . S
Co544 N561 1.989 . S
Co544 O569 1.967 . S
Co544 O576 1.920 . S
Co545 O548 1.966 . S
Co545 N554 2.022 . S
Co545 N562 1.993 . S
Co545 O570 1.941 . S
C546 O547 1.258 . S
C546 O548 1.263 . S
O547 Co544 1.970 . S
O547 C546 1.258 . S
O548 Co545 1.966 . S
O548 C546 1.263 . S
C549 O550 1.235 . S
C549 O576 1.289 . S
O550 C549 1.235 . S
C551 C553 1.400 . S
C551 N554 1.351 . S
C551 C556 1.501 . S
C552 C553 1.387 . S
C552 N555 1.341 . S
C553 C551 1.400 . S
C553 C552 1.387 . S
N554 Co545 2.022 . S
N554 C551 1.351 . S
N554 N555 1.365 . S
N555 C552 1.341 . S
N555 N554 1.365 . S
N555 H575 0.862 . S
C556 C551 1.501 . S
C556 H557 0.961 . S
C556 H558 0.961 . S
C556 H559 0.960 . S
H557 C556 0.961 . S
H558 C556 0.961 . S
H559 C556 0.960 . S
C560 N561 1.342 . S
C560 C564 1.401 . S
C560 C565 1.499 . S
N561 Co544 1.989 . S
N561 C560 1.342 . S
N561 N562 1.388 . S
N562 Co545 1.993 . S
N562 N561 1.388 . S
N562 C563 1.346 . S
C563 N562 1.346 . S
C563 C564 1.396 . S
C563 C573 1.510 . S
C564 C560 1.401 . S
C564 C563 1.396 . S
C565 C560 1.499 . S
C565 H566 0.959 . S
C565 H567 0.960 . S
C565 H568 0.961 . S
H566 C565 0.959 . S
H567 C565 0.960 . S
H568 C565 0.961 . S
O569 Co544 1.967 . S
O569 C577 1.258 . S
O570 Co545 1.941 . S
O570 C577 1.266 . S
H571 C573 0.959 . S
H572 C573 0.961 . S
C573 C563 1.510 . S
C573 H571 0.959 . S
C573 H572 0.961 . S
C573 H574 0.960 . S
H574 C573 0.960 . S
H575 N555 0.862 . S
O576 Co544 1.920 . S
O576 C549 1.289 . S
C577 O569 1.258 . S
C577 O570 1.266 . S
Co578 O581 1.970 . S
Co578 N595 1.989 . S
Co578 O603 1.967 1_565 S
Co578 O610 1.920 . S
Co579 O582 1.966 . S
Co579 N588 2.022 . S
Co579 N596 1.993 1_545 S
Co579 O604 1.941 . S
C580 O581 1.258 . S
C580 O582 1.263 1_565 S
O581 Co578 1.970 . S
O581 C580 1.258 . S
O582 Co579 1.966 . S
O582 C580 1.263 1_545 S
C583 O584 1.235 . S
C583 O610 1.289 . S
O584 C583 1.235 . S
C585 C587 1.400 . S
C585 N588 1.351 . S
C585 C590 1.501 . S
C586 C587 1.387 . S
C586 N589 1.341 . S
C587 C585 1.400 . S
C587 C586 1.387 . S
N588 Co579 2.022 . S
N588 C585 1.351 . S
N588 N589 1.365 . S
N589 C586 1.341 . S
N589 N588 1.365 . S
N589 H609 0.862 . S
C590 C585 1.501 . S
C590 H591 0.961 . S
C590 H592 0.961 1_545 S
C590 H593 0.960 . S
H591 C590 0.961 . S
H592 C590 0.961 1_565 S
H593 C590 0.960 . S
C594 N595 1.342 . S
C594 C598 1.401 . S
C594 C599 1.499 . S
N595 Co578 1.989 . S
N595 C594 1.342 . S
N595 N596 1.388 . S
N596 Co579 1.993 1_565 S
N596 N595 1.388 . S
N596 C597 1.346 . S
C597 N596 1.346 . S
C597 C598 1.396 . S
C597 C607 1.510 . S
C598 C594 1.401 . S
C598 C597 1.396 . S
C599 C594 1.499 . S
C599 H600 0.959 . S
C599 H601 0.960 . S
C599 H602 0.961 . S
H600 C599 0.959 . S
H601 C599 0.960 . S
H602 C599 0.961 . S
O603 Co578 1.967 1_545 S
O603 C611 1.258 . S
O604 Co579 1.941 . S
O604 C611 1.266 . S
H605 C607 0.959 . S
H606 C607 0.961 . S
C607 C597 1.510 . S
C607 H605 0.959 . S
C607 H606 0.961 . S
C607 H608 0.960 . S
H608 C607 0.960 . S
H609 N589 0.862 . S
O610 Co578 1.920 . S
O610 C583 1.289 . S
C611 O603 1.258 . S
C611 O604 1.266 . S
H612 C618 0.930 . S
H613 C622 0.930 . S
H614 C627 0.929 1_556 S
H615 C625 0.929 . S
H616 C620 0.929 . S
H617 C626 0.929 . S
C618 H612 0.930 . S
C618 C619 1.367 . S
C618 C626 1.378 . S
C619 C618 1.367 . S
C619 C627 1.433 . S
C620 H616 0.929 . S
C620 C622 1.378 . S
C620 C624 1.350 . S
C621 C624 1.463 . S
C621 C626 1.350 1_556 S
C621 N629 1.427 . S
C622 H613 0.930 . S
C622 C620 1.378 . S
C622 C623 1.367 . S
C623 C622 1.367 . S
C623 C625 1.433 . S
C624 C620 1.350 . S
C624 C621 1.463 . S
C624 N628 1.427 . S
C625 H615 0.929 . S
C625 C623 1.433 . S
C625 N628 1.384 . S
C626 H617 0.929 . S
C626 C618 1.378 . S
C626 C621 1.350 1_554 S
C627 H614 0.929 1_554 S
C627 C619 1.433 . S
C627 N629 1.384 1_554 S
N628 C624 1.427 . S
N628 C625 1.384 . S
N629 C621 1.427 . S
N629 C627 1.384 1_556 S
H630 C636 0.930 . S
H631 C640 0.930 . S
H632 C645 0.929 . S
H633 C643 0.929 . S
H634 C638 0.929 . S
H635 C644 0.929 . S
C636 H630 0.930 . S
C636 C637 1.367 . S
C636 C644 1.378 1_554 S
C637 C636 1.367 . S
C637 C645 1.433 . S
C638 H634 0.929 . S
C638 C640 1.378 . S
C638 C642 1.350 . S
C639 C642 1.463 . S
C639 C644 1.350 . S
C639 N647 1.427 1_556 S
C640 H631 0.930 . S
C640 C638 1.378 . S
C640 C641 1.367 . S
C641 C640 1.367 . S
C641 C643 1.433 . S
C642 C638 1.350 . S
C642 C639 1.463 . S
C642 N646 1.427 . S
C643 H633 0.929 . S
C643 C641 1.433 . S
C643 N646 1.384 . S
C644 H635 0.929 . S
C644 C636 1.378 1_556 S
C644 C639 1.350 . S
C645 H632 0.929 . S
C645 C637 1.433 . S
C645 N647 1.384 . S
N646 C642 1.427 . S
N646 C643 1.384 . S
N647 C639 1.427 1_554 S
N647 C645 1.384 . S
H648 C654 0.930 . S
H649 C658 0.930 . S
H650 C663 0.929 . S
H651 C661 0.929 . S
H652 C656 0.929 . S
H653 C662 0.929 . S
C654 H648 0.930 . S
C654 C655 1.367 . S
C654 C662 1.378 . S
C655 C654 1.367 . S
C655 C663 1.433 . S
C656 H652 0.929 . S
C656 C658 1.378 . S
C656 C660 1.350 . S
C657 C660 1.463 . S
C657 C662 1.350 1_556 S
C657 N665 1.427 . S
C658 H649 0.930 . S
C658 C656 1.378 . S
C658 C659 1.367 . S
C659 C658 1.367 . S
C659 C661 1.433 . S
C660 C656 1.350 . S
C660 C657 1.463 . S
C660 N664 1.427 . S
C661 H651 0.929 . S
C661 C659 1.433 . S
C661 N664 1.384 . S
C662 H653 0.929 . S
C662 C654 1.378 . S
C662 C657 1.350 1_554 S
C663 H650 0.929 . S
C663 C655 1.433 . S
C663 N665 1.384 1_554 S
N664 C660 1.427 . S
N664 C661 1.384 . S
N665 C657 1.427 . S
N665 C663 1.384 1_556 S
H666 C672 0.930 . S
H667 C676 0.930 . S
H668 C681 0.929 . S
H669 C679 0.929 . S
H670 C674 0.929 . S
H671 C680 0.929 . S
C672 H666 0.930 . S
C672 C673 1.367 . S
C672 C680 1.378 . S
C673 C672 1.367 . S
C673 C681 1.433 . S
C674 H670 0.929 . S
C674 C676 1.378 . S
C674 C678 1.350 1_556 S
C675 C678 1.463 . S
C675 C680 1.350 . S
C675 N683 1.427 . S
C676 H667 0.930 . S
C676 C674 1.378 . S
C676 C677 1.367 . S
C677 C676 1.367 . S
C677 C679 1.433 . S
C678 C674 1.350 1_554 S
C678 C675 1.463 . S
C678 N682 1.427 . S
C679 H669 0.929 . S
C679 C677 1.433 . S
C679 N682 1.384 1_556 S
C680 H671 0.929 . S
C680 C672 1.378 . S
C680 C675 1.350 . S
C681 H668 0.929 . S
C681 C673 1.433 . S
C681 N683 1.384 . S
N682 C678 1.427 . S
N682 C679 1.384 1_554 S
N683 C675 1.427 . S
N683 C681 1.384 . S
H684 C690 0.930 . S
H685 C694 0.930 . S
H686 C699 0.929 . S
H687 C697 0.929 . S
H688 C692 0.929 . S
H689 C698 0.929 1_554 S
C690 H684 0.930 . S
C690 C691 1.367 . S
C690 C698 1.378 . S
C691 C690 1.367 . S
C691 C699 1.433 . S
C692 H688 0.929 . S
C692 C694 1.378 . S
C692 C696 1.350 . S
C693 C696 1.463 . S
C693 C698 1.350 1_554 S
C693 N701 1.427 1_554 S
C694 H685 0.930 . S
C694 C692 1.378 . S
C694 C695 1.367 . S
C695 C694 1.367 . S
C695 C697 1.433 . S
C696 C692 1.350 . S
C696 C693 1.463 . S
C696 N700 1.427 . S
C697 H687 0.929 . S
C697 C695 1.433 . S
C697 N700 1.384 . S
C698 H689 0.929 1_556 S
C698 C690 1.378 . S
C698 C693 1.350 1_556 S
C699 H686 0.929 . S
C699 C691 1.433 . S
C699 N701 1.384 . S
N700 C696 1.427 . S
N700 C697 1.384 . S
N701 C693 1.427 1_556 S
N701 C699 1.384 . S
H702 C708 0.930 . S
H703 C712 0.930 . S
H704 C717 0.929 . S
H705 C715 0.929 . S
H706 C710 0.929 . S
H707 C716 0.929 . S
C708 H702 0.930 . S
C708 C709 1.367 . S
C708 C716 1.378 . S
C709 C708 1.367 . S
C709 C717 1.433 . S
C710 H706 0.929 . S
C710 C712 1.378 1_554 S
C710 C714 1.350 . S
C711 C714 1.463 . S
C711 C716 1.350 . S
C711 N719 1.427 . S
C712 H703 0.930 . S
C712 C710 1.378 1_556 S
C712 C713 1.367 . S
C713 C712 1.367 . S
C713 C715 1.433 . S
C714 C710 1.350 . S
C714 C711 1.463 . S
C714 N718 1.427 1_554 S
C715 H705 0.929 . S
C715 C713 1.433 . S
C715 N718 1.384 . S
C716 H707 0.929 . S
C716 C708 1.378 . S
C716 C711 1.350 . S
C717 H704 0.929 . S
C717 C709 1.433 . S
C717 N719 1.384 . S
N718 C714 1.427 1_556 S
N718 C715 1.384 . S
N719 C711 1.427 . S
N719 C717 1.384 . S
H720 C726 0.930 . S
H721 C730 0.930 . S
H722 C735 0.929 1_655 S
H723 C733 0.929 . S
H724 C728 0.929 . S
H725 C734 0.929 . S
C726 H720 0.930 . S
C726 C727 1.367 . S
C726 C734 1.378 . S
C727 C726 1.367 . S
C727 C735 1.433 . S
C728 H724 0.929 . S
C728 C730 1.378 . S
C728 C732 1.350 1_655 S
C729 C732 1.463 . S
C729 C734 1.350 . S
C729 N737 1.427 1_455 S
C730 H721 0.930 . S
C730 C728 1.378 . S
C730 C731 1.367 1_655 S
C731 C730 1.367 1_455 S
C731 C733 1.433 . S
C732 C728 1.350 1_455 S
C732 C729 1.463 . S
C732 N736 1.427 . S
C733 H723 0.929 . S
C733 C731 1.433 . S
C733 N736 1.384 . S
C734 H725 0.929 . S
C734 C726 1.378 . S
C734 C729 1.350 . S
C735 H722 0.929 1_455 S
C735 C727 1.433 . S
C735 N737 1.384 1_455 S
N736 C732 1.427 . S
N736 C733 1.384 . S
N737 C729 1.427 1_655 S
N737 C735 1.384 1_655 S
H738 C744 0.930 . S
H739 C748 0.930 . S
H740 C753 0.929 . S
H741 C751 0.929 . S
H742 C746 0.929 . S
H743 C752 0.929 . S
C744 H738 0.930 . S
C744 C745 1.367 . S
C744 C752 1.378 . S
C745 C744 1.367 . S
C745 C753 1.433 . S
C746 H742 0.929 . S
C746 C748 1.378 . S
C746 C750 1.350 . S
C747 C750 1.463 . S
C747 C752 1.350 . S
C747 N755 1.427 . S
C748 H739 0.930 . S
C748 C746 1.378 . S
C748 C749 1.367 . S
C749 C748 1.367 . S
C749 C751 1.433 . S
C750 C746 1.350 . S
C750 C747 1.463 . S
C750 N754 1.427 . S
C751 H741 0.929 . S
C751 C749 1.433 . S
C751 N754 1.384 . S
C752 H743 0.929 . S
C752 C744 1.378 . S
C752 C747 1.350 . S
C753 H740 0.929 . S
C753 C745 1.433 . S
C753 N755 1.384 . S
N754 C750 1.427 . S
N754 C751 1.384 . S
N755 C747 1.427 . S
N755 C753 1.384 . S
H756 C762 0.930 1_545 S
H757 C766 0.930 . S
H758 C771 0.929 . S
H759 C769 0.929 . S
H760 C764 0.929 . S
H761 C770 0.929 . S
C762 H756 0.930 1_565 S
C762 C763 1.367 . S
C762 C770 1.378 1_565 S
C763 C762 1.367 . S
C763 C771 1.433 . S
C764 H760 0.929 . S
C764 C766 1.378 . S
C764 C768 1.350 . S
C765 C768 1.463 . S
C765 C770 1.350 1_565 S
C765 N773 1.427 . S
C766 H757 0.930 . S
C766 C764 1.378 . S
C766 C767 1.367 . S
C767 C766 1.367 . S
C767 C769 1.433 1_565 S
C768 C764 1.350 . S
C768 C765 1.463 . S
C768 N772 1.427 1_565 S
C769 H759 0.929 . S
C769 C767 1.433 1_545 S
C769 N772 1.384 . S
C770 H761 0.929 . S
C770 C762 1.378 1_545 S
C770 C765 1.350 1_545 S
C771 H758 0.929 . S
C771 C763 1.433 . S
C771 N773 1.384 . S
N772 C768 1.427 1_545 S
N772 C769 1.384 . S
N773 C765 1.427 . S
N773 C771 1.384 . S
H774 C780 0.930 . S
H775 C784 0.930 . S
H776 C789 0.929 . S
H777 C787 0.929 . S
H778 C782 0.929 . S
H779 C788 0.929 . S
C780 H774 0.930 . S
C780 C781 1.367 . S
C780 C788 1.378 . S
C781 C780 1.367 . S
C781 C789 1.433 . S
C782 H778 0.929 . S
C782 C784 1.378 . S
C782 C786 1.350 . S
C783 C786 1.463 . S
C783 C788 1.350 . S
C783 N791 1.427 . S
C784 H775 0.930 . S
C784 C782 1.378 . S
C784 C785 1.367 . S
C785 C784 1.367 . S
C785 C787 1.433 . S
C786 C782 1.350 . S
C786 C783 1.463 . S
C786 N790 1.427 . S
C787 H777 0.929 . S
C787 C785 1.433 . S
C787 N790 1.384 . S
C788 H779 0.929 . S
C788 C780 1.378 . S
C788 C783 1.350 . S
C789 H776 0.929 . S
C789 C781 1.433 . S
C789 N791 1.384 . S
N790 C786 1.427 . S
N790 C787 1.384 . S
N791 C783 1.427 . S
N791 C789 1.384 . S
H792 C798 0.930 . S
H793 C802 0.930 . S
H794 C807 0.929 . S
H795 C805 0.929 . S
H796 C800 0.929 . S
H797 C806 0.929 . S
C798 H792 0.930 . S
C798 C799 1.367 . S
C798 C806 1.378 . S
C799 C798 1.367 . S
C799 C807 1.433 . S
C800 H796 0.929 . S
C800 C802 1.378 . S
C800 C804 1.350 . S
C801 C804 1.463 . S
C801 C806 1.350 . S
C801 N809 1.427 . S
C802 H793 0.930 . S
C802 C800 1.378 . S
C802 C803 1.367 . S
C803 C802 1.367 . S
C803 C805 1.433 . S
C804 C800 1.350 . S
C804 C801 1.463 . S
C804 N808 1.427 . S
C805 H795 0.929 . S
C805 C803 1.433 . S
C805 N808 1.384 . S
C806 H797 0.929 . S
C806 C798 1.378 . S
C806 C801 1.350 . S
C807 H794 0.929 . S
C807 C799 1.433 . S
C807 N809 1.384 . S
N808 C804 1.427 . S
N808 C805 1.384 . S
N809 C801 1.427 . S
N809 C807 1.384 . S
H810 C816 0.930 . S
H811 C820 0.930 . S
H812 C825 0.929 . S
H813 C823 0.929 . S
H814 C818 0.929 . S
H815 C824 0.929 . S
C816 H810 0.930 . S
C816 C817 1.367 . S
C816 C824 1.378 . S
C817 C816 1.367 . S
C817 C825 1.433 . S
C818 H814 0.929 . S
C818 C820 1.378 . S
C818 C822 1.350 . S
C819 C822 1.463 . S
C819 C824 1.350 . S
C819 N827 1.427 . S
C820 H811 0.930 . S
C820 C818 1.378 . S
C820 C821 1.367 . S
C821 C820 1.367 . S
C821 C823 1.433 . S
C822 C818 1.350 . S
C822 C819 1.463 . S
C822 N826 1.427 . S
C823 H813 0.929 . S
C823 C821 1.433 . S
C823 N826 1.384 . S
C824 H815 0.929 . S
C824 C816 1.378 . S
C824 C819 1.350 . S
C825 H812 0.929 . S
C825 C817 1.433 . S
C825 N827 1.384 . S
N826 C822 1.427 . S
N826 C823 1.384 . S
N827 C819 1.427 . S
N827 C825 1.384 . S
H828 C834 0.930 . S
H829 C838 0.930 . S
H830 C843 0.929 . S
H831 C841 0.929 . S
H832 C836 0.929 . S
H833 C842 0.929 . S
C834 H828 0.930 . S
C834 C835 1.367 . S
C834 C842 1.378 . S
C835 C834 1.367 . S
C835 C843 1.433 . S
C836 H832 0.929 . S
C836 C838 1.378 . S
C836 C840 1.350 . S
C837 C840 1.463 . S
C837 C842 1.350 . S
C837 N845 1.427 . S
C838 H829 0.930 . S
C838 C836 1.378 . S
C838 C839 1.367 . S
C839 C838 1.367 . S
C839 C841 1.433 . S
C840 C836 1.350 . S
C840 C837 1.463 . S
C840 N844 1.427 . S
C841 H831 0.929 . S
C841 C839 1.433 . S
C841 N844 1.384 . S
C842 H833 0.929 . S
C842 C834 1.378 . S
C842 C837 1.350 . S
C843 H830 0.929 . S
C843 C835 1.433 . S
C843 N845 1.384 . S
N844 C840 1.427 . S
N844 C841 1.384 . S
N845 C837 1.427 . S
N845 C843 1.384 . S
H846 C852 0.930 . S
H847 C856 0.930 . S
H848 C861 0.929 . S
H849 C859 0.929 . S
H850 C854 0.929 . S
H851 C860 0.929 . S
C852 H846 0.930 . S
C852 C853 1.367 . S
C852 C860 1.378 . S
C853 C852 1.367 . S
C853 C861 1.433 . S
C854 H850 0.929 . S
C854 C856 1.378 . S
C854 C858 1.350 . S
C855 C858 1.463 . S
C855 C860 1.350 . S
C855 N863 1.427 . S
C856 H847 0.930 . S
C856 C854 1.378 . S
C856 C857 1.367 . S
C857 C856 1.367 . S
C857 C859 1.433 . S
C858 C854 1.350 . S
C858 C855 1.463 . S
C858 N862 1.427 . S
C859 H849 0.929 . S
C859 C857 1.433 . S
C859 N862 1.384 . S
C860 H851 0.929 . S
C860 C852 1.378 . S
C860 C855 1.350 . S
C861 H848 0.929 . S
C861 C853 1.433 . S
C861 N863 1.384 . S
N862 C858 1.427 . S
N862 C859 1.384 . S
N863 C855 1.427 . S
N863 C861 1.384 . S
H864 C870 0.930 . S
H865 C874 0.930 . S
H866 C879 0.929 . S
H867 C877 0.929 . S
H868 C872 0.929 . S
H869 C878 0.929 . S
C870 H864 0.930 . S
C870 C871 1.367 . S
C870 C878 1.378 . S
C871 C870 1.367 . S
C871 C879 1.433 . S
C872 H868 0.929 . S
C872 C874 1.378 . S
C872 C876 1.350 . S
C873 C876 1.463 . S
C873 C878 1.350 . S
C873 N881 1.427 . S
C874 H865 0.930 . S
C874 C872 1.378 . S
C874 C875 1.367 . S
C875 C874 1.367 . S
C875 C877 1.433 . S
C876 C872 1.350 . S
C876 C873 1.463 . S
C876 N880 1.427 . S
C877 H867 0.929 . S
C877 C875 1.433 . S
C877 N880 1.384 . S
C878 H869 0.929 . S
C878 C870 1.378 . S
C878 C873 1.350 . S
C879 H866 0.929 . S
C879 C871 1.433 . S
C879 N881 1.384 . S
N880 C876 1.427 . S
N880 C877 1.384 . S
N881 C873 1.427 . S
N881 C879 1.384 . S
H882 C888 0.930 . S
H883 C892 0.930 . S
H884 C897 0.929 1_455 S
H885 C895 0.929 . S
H886 C890 0.929 . S
H887 C896 0.929 . S
C888 H882 0.930 . S
C888 C889 1.367 . S
C888 C896 1.378 . S
C889 C888 1.367 . S
C889 C897 1.433 . S
C890 H886 0.929 . S
C890 C892 1.378 . S
C890 C894 1.350 1_455 S
C891 C894 1.463 . S
C891 C896 1.350 . S
C891 N899 1.429 . S
C892 H883 0.930 . S
C892 C890 1.378 . S
C892 C893 1.367 1_455 S
C893 C892 1.367 1_655 S
C893 C895 1.433 . S
C894 C890 1.350 1_655 S
C894 C891 1.463 . S
C894 N898 1.427 . S
C895 H885 0.929 . S
C895 C893 1.433 . S
C895 N898 1.384 . S
C896 H887 0.929 . S
C896 C888 1.378 . S
C896 C891 1.350 . S
C897 H884 0.929 1_655 S
C897 C889 1.433 . S
C897 N899 1.383 . S
N898 C894 1.427 . S
N898 C895 1.384 . S
N899 C891 1.429 . S
N899 C897 1.383 . S
H900 C906 0.930 . S
H901 C910 0.930 . S
H902 C915 0.929 . S
H903 C913 0.929 . S
H904 C908 0.929 . S
H905 C914 0.929 . S
C906 H900 0.930 . S
C906 C907 1.367 . S
C906 C914 1.378 . S
C907 C906 1.367 . S
C907 C915 1.433 . S
C908 H904 0.929 . S
C908 C910 1.378 . S
C908 C912 1.350 . S
C909 C912 1.463 . S
C909 C914 1.350 . S
C909 N917 1.427 . S
C910 H901 0.930 . S
C910 C908 1.378 . S
C910 C911 1.367 . S
C911 C910 1.367 . S
C911 C913 1.433 . S
C912 C908 1.350 . S
C912 C909 1.463 . S
C912 N916 1.427 . S
C913 H903 0.929 . S
C913 C911 1.433 . S
C913 N916 1.384 . S
C914 H905 0.929 . S
C914 C906 1.378 . S
C914 C909 1.350 . S
C915 H902 0.929 . S
C915 C907 1.433 . S
C915 N917 1.384 . S
N916 C912 1.427 . S
N916 C913 1.384 . S
N917 C909 1.427 . S
N917 C915 1.384 . S
H918 C924 0.930 . S
H919 C928 0.930 . S
H920 C933 0.929 . S
H921 C931 0.929 1_565 S
H922 C926 0.929 . S
H923 C932 0.929 . S
C924 H918 0.930 . S
C924 C925 1.367 1_565 S
C924 C932 1.378 . S
C925 C924 1.367 1_545 S
C925 C933 1.433 . S
C926 H922 0.929 . S
C926 C928 1.378 . S
C926 C930 1.350 . S
C927 C930 1.463 . S
C927 C932 1.350 1_545 S
C927 N935 1.427 . S
C928 H919 0.930 . S
C928 C926 1.378 . S
C928 C929 1.367 . S
C929 C928 1.367 . S
C929 C931 1.433 . S
C930 C926 1.350 . S
C930 C927 1.463 . S
C930 N934 1.427 1_545 S
C931 H921 0.929 1_545 S
C931 C929 1.433 . S
C931 N934 1.384 1_545 S
C932 H923 0.929 . S
C932 C924 1.378 . S
C932 C927 1.350 1_565 S
C933 H920 0.929 . S
C933 C925 1.433 . S
C933 N935 1.384 . S
N934 C930 1.427 1_565 S
N934 C931 1.384 1_565 S
N935 C927 1.427 . S
N935 C933 1.384 . S
H936 C942 0.930 . S
H937 C946 0.930 . S
H938 C951 0.929 . S
H939 C949 0.929 . S
H940 C944 0.929 . S
H941 C950 0.929 . S
C942 H936 0.930 . S
C942 C943 1.367 . S
C942 C950 1.378 . S
C943 C942 1.367 . S
C943 C951 1.433 . S
C944 H940 0.929 . S
C944 C946 1.378 . S
C944 C948 1.350 . S
C945 C948 1.463 . S
C945 C950 1.350 . S
C945 N953 1.427 . S
C946 H937 0.930 . S
C946 C944 1.378 . S
C946 C947 1.367 . S
C947 C946 1.367 . S
C947 C949 1.433 . S
C948 C944 1.350 . S
C948 C945 1.463 . S
C948 N952 1.427 . S
C949 H939 0.929 . S
C949 C947 1.433 . S
C949 N952 1.384 . S
C950 H941 0.929 . S
C950 C942 1.378 . S
C950 C945 1.350 . S
C951 H938 0.929 . S
C951 C943 1.433 . S
C951 N953 1.384 . S
N952 C948 1.427 . S
N952 C949 1.384 . S
N953 C945 1.427 . S
N953 C951 1.384 . S
H954 C960 0.930 . S
H955 C964 0.930 . S
H956 C969 0.929 . S
H957 C967 0.929 . S
H958 C962 0.929 . S
H959 C968 0.929 . S
C960 H954 0.930 . S
C960 C961 1.367 1_565 S
C960 C968 1.378 . S
C961 C960 1.367 1_545 S
C961 C969 1.433 . S
C962 H958 0.929 . S
C962 C964 1.378 . S
C962 C966 1.350 1_545 S
C963 C966 1.463 . S
C963 C968 1.350 . S
C963 N971 1.427 1_565 S
C964 H955 0.930 . S
C964 C962 1.378 . S
C964 C965 1.367 1_545 S
C965 C964 1.367 1_565 S
C965 C967 1.433 . S
C966 C962 1.350 1_565 S
C966 C963 1.463 . S
C966 N970 1.427 . S
C967 H957 0.929 . S
C967 C965 1.433 . S
C967 N970 1.384 . S
C968 H959 0.929 . S
C968 C960 1.378 . S
C968 C963 1.350 . S
C969 H956 0.929 . S
C969 C961 1.433 . S
C969 N971 1.384 . S
N970 C966 1.427 . S
N970 C967 1.384 . S
N971 C963 1.427 1_545 S
N971 C969 1.384 . S
H972 C978 0.930 . S
H973 C982 0.930 . S
H974 C987 0.929 . S
H975 C985 0.929 . S
H976 C980 0.929 . S
H977 C986 0.929 . S
C978 H972 0.930 . S
C978 C979 1.367 1_655 S
C978 C986 1.378 . S
C979 C978 1.367 1_455 S
C979 C987 1.433 . S
C980 H976 0.929 . S
C980 C982 1.378 . S
C980 C984 1.350 . S
C981 C984 1.463 . S
C981 C986 1.350 1_455 S
C981 N989 1.427 . S
C982 H973 0.930 . S
C982 C980 1.378 . S
C982 C983 1.367 1_455 S
C983 C982 1.367 1_655 S
C983 C985 1.433 . S
C984 C980 1.350 . S
C984 C981 1.463 . S
C984 N988 1.427 1_455 S
C985 H975 0.929 . S
C985 C983 1.433 . S
C985 N988 1.384 . S
C986 H977 0.929 . S
C986 C978 1.378 . S
C986 C981 1.350 1_655 S
C987 H974 0.929 . S
C987 C979 1.433 . S
C987 N989 1.384 . S
N988 C984 1.427 1_655 S
N988 C985 1.384 . S
N989 C981 1.427 . S
N989 C987 1.384 . S
H990 C996 0.930 . S
H991 C1000 0.930 . S
H992 C1005 0.929 . S
H993 C1003 0.929 . S
H994 C998 0.929 . S
H995 C1004 0.929 . S
C996 H990 0.930 . S
C996 C997 1.367 . S
C996 C1004 1.378 . S
C997 C996 1.367 . S
C997 C1005 1.433 . S
C998 H994 0.929 . S
C998 C1000 1.378 . S
C998 C1002 1.350 . S
C999 C1002 1.463 . S
C999 C1004 1.350 . S
C999 N1007 1.427 . S
C1000 H991 0.930 . S
C1000 C998 1.378 . S
C1000 C1001 1.367 . S
C1001 C1000 1.367 . S
C1001 C1003 1.433 . S
C1002 C998 1.350 . S
C1002 C999 1.463 . S
C1002 N1006 1.427 . S
C1003 H993 0.929 . S
C1003 C1001 1.433 . S
C1003 N1006 1.384 . S
C1004 H995 0.929 . S
C1004 C996 1.378 . S
C1004 C999 1.350 . S
C1005 H992 0.929 . S
C1005 C997 1.433 . S
C1005 N1007 1.384 . S
N1006 C1002 1.427 . S
N1006 C1003 1.384 . S
N1007 C999 1.427 . S
N1007 C1005 1.384 . S
H1008 C1014 0.930 . S
H1009 C1018 0.930 . S
H1010 C1023 0.929 . S
H1011 C1021 0.929 . S
H1012 C1016 0.929 . S
H1013 C1022 0.929 . S
C1014 H1008 0.930 . S
C1014 C1015 1.367 . S
C1014 C1022 1.378 . S
C1015 C1014 1.367 . S
C1015 C1023 1.433 1_545 S
C1016 H1012 0.929 . S
C1016 C1018 1.378 . S
C1016 C1020 1.347 1_565 S
C1017 C1020 1.461 . S
C1017 C1022 1.350 . S
C1017 N1025 1.427 1_545 S
C1018 H1009 0.930 . S
C1018 C1016 1.378 . S
C1018 C1019 1.367 . S
C1019 C1018 1.367 . S
C1019 C1021 1.433 1_565 S
C1020 C1016 1.347 1_545 S
C1020 C1017 1.461 . S
C1020 N1024 1.432 . S
C1021 H1011 0.929 . S
C1021 C1019 1.433 1_545 S
C1021 N1024 1.384 . S
C1022 H1013 0.929 . S
C1022 C1014 1.378 . S
C1022 C1017 1.350 . S
C1023 H1010 0.929 . S
C1023 C1015 1.433 1_565 S
C1023 N1025 1.384 . S
N1024 C1020 1.432 . S
N1024 C1021 1.384 . S
N1025 C1017 1.427 1_565 S
N1025 C1023 1.384 . S
H1026 C1032 0.930 . S
H1027 C1036 0.930 . S
H1028 C1041 0.933 . S
H1029 C1039 0.929 . S
H1030 C1034 0.929 . S
H1031 C1040 0.929 . S
C1032 H1026 0.930 . S
C1032 C1033 1.367 . S
C1032 C1040 1.378 . S
C1033 C1032 1.367 . S
C1033 C1041 1.433 . S
C1034 H1030 0.929 . S
C1034 C1036 1.378 . S
C1034 C1038 1.350 1_455 S
C1035 C1038 1.463 . S
C1035 C1040 1.350 . S
C1035 N1043 1.430 . S
C1036 H1027 0.930 . S
C1036 C1034 1.378 . S
C1036 C1037 1.367 . S
C1037 C1036 1.367 . S
C1037 C1039 1.433 1_455 S
C1038 C1034 1.350 1_655 S
C1038 C1035 1.463 . S
C1038 N1042 1.427 . S
C1039 H1029 0.929 . S
C1039 C1037 1.433 1_655 S
C1039 N1042 1.384 . S
C1040 H1031 0.929 . S
C1040 C1032 1.378 . S
C1040 C1035 1.350 . S
C1041 H1028 0.933 . S
C1041 C1033 1.433 . S
C1041 N1043 1.392 . S
N1042 C1038 1.427 . S
N1042 C1039 1.384 . S
N1043 C1035 1.430 . S
N1043 C1041 1.392 . S
H1044 C1050 0.930 . S
H1045 C1054 0.930 . S
H1046 C1059 0.929 . S
H1047 C1057 0.929 . S
H1048 C1052 0.929 . S
H1049 C1058 0.929 . S
C1050 H1044 0.930 . S
C1050 C1051 1.367 . S
C1050 C1058 1.378 . S
C1051 C1050 1.367 . S
C1051 C1059 1.433 . S
C1052 H1048 0.929 . S
C1052 C1054 1.378 . S
C1052 C1056 1.350 . S
C1053 C1056 1.463 . S
C1053 C1058 1.350 . S
C1053 N1061 1.427 . S
C1054 H1045 0.930 . S
C1054 C1052 1.378 . S
C1054 C1055 1.367 . S
C1055 C1054 1.367 . S
C1055 C1057 1.433 . S
C1056 C1052 1.350 . S
C1056 C1053 1.463 . S
C1056 N1060 1.427 . S
C1057 H1047 0.929 . S
C1057 C1055 1.433 . S
C1057 N1060 1.384 . S
C1058 H1049 0.929 . S
C1058 C1050 1.378 . S
C1058 C1053 1.350 . S
C1059 H1046 0.929 . S
C1059 C1051 1.433 . S
C1059 N1061 1.384 . S
N1060 C1056 1.427 . S
N1060 C1057 1.384 . S
N1061 C1053 1.427 . S
N1061 C1059 1.384 . S
H1062 C1068 0.930 . S
H1063 C1072 0.930 . S
H1064 C1077 0.929 . S
H1065 C1075 0.929 . S
H1066 C1070 0.929 . S
H1067 C1076 0.929 . S
C1068 H1062 0.930 . S
C1068 C1069 1.367 . S
C1068 C1076 1.378 . S
C1069 C1068 1.367 . S
C1069 C1077 1.433 . S
C1070 H1066 0.929 . S
C1070 C1072 1.378 . S
C1070 C1074 1.350 . S
C1071 C1074 1.463 . S
C1071 C1076 1.350 . S
C1071 N1079 1.427 . S
C1072 H1063 0.930 . S
C1072 C1070 1.378 . S
C1072 C1073 1.367 . S
C1073 C1072 1.367 . S
C1073 C1075 1.433 . S
C1074 C1070 1.350 . S
C1074 C1071 1.463 . S
C1074 N1078 1.427 . S
C1075 H1065 0.929 . S
C1075 C1073 1.433 . S
C1075 N1078 1.384 . S
C1076 H1067 0.929 . S
C1076 C1068 1.378 . S
C1076 C1071 1.350 . S
C1077 H1064 0.929 . S
C1077 C1069 1.433 . S
C1077 N1079 1.384 . S
N1078 C1074 1.427 . S
N1078 C1075 1.384 . S
N1079 C1071 1.427 . S
N1079 C1077 1.384 . S
H1080 C1086 0.930 . S
H1081 C1090 0.930 . S
H1082 C1095 0.929 . S
H1083 C1093 0.929 . S
H1084 C1088 0.929 . S
H1085 C1094 0.929 . S
C1086 H1080 0.930 . S
C1086 C1087 1.367 . S
C1086 C1094 1.378 . S
C1087 C1086 1.367 . S
C1087 C1095 1.433 . S
C1088 H1084 0.929 . S
C1088 C1090 1.378 . S
C1088 C1092 1.350 . S
C1089 C1092 1.463 . S
C1089 C1094 1.350 . S
C1089 N1097 1.427 . S
C1090 H1081 0.930 . S
C1090 C1088 1.378 . S
C1090 C1091 1.367 . S
C1091 C1090 1.367 . S
C1091 C1093 1.433 . S
C1092 C1088 1.350 . S
C1092 C1089 1.463 . S
C1092 N1096 1.427 . S
C1093 H1083 0.929 . S
C1093 C1091 1.433 . S
C1093 N1096 1.384 . S
C1094 H1085 0.929 . S
C1094 C1086 1.378 . S
C1094 C1089 1.350 . S
C1095 H1082 0.929 . S
C1095 C1087 1.433 . S
C1095 N1097 1.384 . S
N1096 C1092 1.427 . S
N1096 C1093 1.384 . S
N1097 C1089 1.427 . S
N1097 C1095 1.384 . S
H1098 C1104 0.930 . S
H1099 C1108 0.930 . S
H1100 C1113 0.929 . S
H1101 C1111 0.929 . S
H1102 C1106 0.929 . S
H1103 C1112 0.929 . S
C1104 H1098 0.930 . S
C1104 C1105 1.367 . S
C1104 C1112 1.378 . S
C1105 C1104 1.367 . S
C1105 C1113 1.433 . S
C1106 H1102 0.929 . S
C1106 C1108 1.378 . S
C1106 C1110 1.350 . S
C1107 C1110 1.463 . S
C1107 C1112 1.350 . S
C1107 N1115 1.427 . S
C1108 H1099 0.930 . S
C1108 C1106 1.378 . S
C1108 C1109 1.367 . S
C1109 C1108 1.367 . S
C1109 C1111 1.433 . S
C1110 C1106 1.350 . S
C1110 C1107 1.463 . S
C1110 N1114 1.427 . S
C1111 H1101 0.929 . S
C1111 C1109 1.433 . S
C1111 N1114 1.384 . S
C1112 H1103 0.929 . S
C1112 C1104 1.378 . S
C1112 C1107 1.350 . S
C1113 H1100 0.929 . S
C1113 C1105 1.433 . S
C1113 N1115 1.384 . S
N1114 C1110 1.427 . S
N1114 C1111 1.384 . S
N1115 C1107 1.427 . S
N1115 C1113 1.384 . S
H1116 C1122 0.930 . S
H1117 C1126 0.930 . S
H1118 C1131 0.929 . S
H1119 C1129 0.929 . S
H1120 C1124 0.929 . S
H1121 C1130 0.929 . S
C1122 H1116 0.930 . S
C1122 C1123 1.367 . S
C1122 C1130 1.378 . S
C1123 C1122 1.367 . S
C1123 C1131 1.433 . S
C1124 H1120 0.929 . S
C1124 C1126 1.378 . S
C1124 C1128 1.350 . S
C1125 C1128 1.463 . S
C1125 C1130 1.350 . S
C1125 N1133 1.427 . S
C1126 H1117 0.930 . S
C1126 C1124 1.378 . S
C1126 C1127 1.367 . S
C1127 C1126 1.367 . S
C1127 C1129 1.433 . S
C1128 C1124 1.350 . S
C1128 C1125 1.463 . S
C1128 N1132 1.427 . S
C1129 H1119 0.929 . S
C1129 C1127 1.433 . S
C1129 N1132 1.384 . S
C1130 H1121 0.929 . S
C1130 C1122 1.378 . S
C1130 C1125 1.350 . S
C1131 H1118 0.929 . S
C1131 C1123 1.433 . S
C1131 N1133 1.384 . S
N1132 C1128 1.427 . S
N1132 C1129 1.384 . S
N1133 C1125 1.427 . S
N1133 C1131 1.384 . S
H1134 C1140 0.930 . S
H1135 C1144 0.930 . S
H1136 C1149 0.929 . S
H1137 C1147 0.929 . S
H1138 C1142 0.929 . S
H1139 C1148 0.929 . S
C1140 H1134 0.930 . S
C1140 C1141 1.367 . S
C1140 C1148 1.378 . S
C1141 C1140 1.367 . S
C1141 C1149 1.433 . S
C1142 H1138 0.929 . S
C1142 C1144 1.378 . S
C1142 C1146 1.350 . S
C1143 C1146 1.463 . S
C1143 C1148 1.350 . S
C1143 N1151 1.427 . S
C1144 H1135 0.930 . S
C1144 C1142 1.378 . S
C1144 C1145 1.367 . S
C1145 C1144 1.367 . S
C1145 C1147 1.433 . S
C1146 C1142 1.350 . S
C1146 C1143 1.463 . S
C1146 N1150 1.427 . S
C1147 H1137 0.929 . S
C1147 C1145 1.433 . S
C1147 N1150 1.384 . S
C1148 H1139 0.929 . S
C1148 C1140 1.378 . S
C1148 C1143 1.350 . S
C1149 H1136 0.929 . S
C1149 C1141 1.433 . S
C1149 N1151 1.384 . S
N1150 C1146 1.427 . S
N1150 C1147 1.384 . S
N1151 C1143 1.427 . S
N1151 C1149 1.384 . S
H1152 C1158 0.930 . S
H1153 C1162 0.930 . S
H1154 C1167 0.929 . S
H1155 C1165 0.929 . S
H1156 C1160 0.929 . S
H1157 C1166 0.929 . S
C1158 H1152 0.930 . S
C1158 C1159 1.367 . S
C1158 C1166 1.378 . S
C1159 C1158 1.367 . S
C1159 C1167 1.433 . S
C1160 H1156 0.929 . S
C1160 C1162 1.378 . S
C1160 C1164 1.350 . S
C1161 C1164 1.463 . S
C1161 C1166 1.350 . S
C1161 N1169 1.427 . S
C1162 H1153 0.930 . S
C1162 C1160 1.378 . S
C1162 C1163 1.367 . S
C1163 C1162 1.367 . S
C1163 C1165 1.433 . S
C1164 C1160 1.350 . S
C1164 C1161 1.463 . S
C1164 N1168 1.427 . S
C1165 H1155 0.929 . S
C1165 C1163 1.433 . S
C1165 N1168 1.384 . S
C1166 H1157 0.929 . S
C1166 C1158 1.378 . S
C1166 C1161 1.350 . S
C1167 H1154 0.929 . S
C1167 C1159 1.433 . S
C1167 N1169 1.384 . S
N1168 C1164 1.427 . S
N1168 C1165 1.384 . S
N1169 C1161 1.427 . S
N1169 C1167 1.384 . S
H1170 C1176 0.930 . S
H1171 C1180 0.930 . S
H1172 C1185 0.929 . S
H1173 C1183 0.929 . S
H1174 C1178 0.929 . S
H1175 C1184 0.929 . S
C1176 H1170 0.930 . S
C1176 C1177 1.367 . S
C1176 C1184 1.378 . S
C1177 C1176 1.367 . S
C1177 C1185 1.433 . S
C1178 H1174 0.929 . S
C1178 C1180 1.378 . S
C1178 C1182 1.350 . S
C1179 C1182 1.463 . S
C1179 C1184 1.350 . S
C1179 N1187 1.427 . S
C1180 H1171 0.930 . S
C1180 C1178 1.378 . S
C1180 C1181 1.367 . S
C1181 C1180 1.367 . S
C1181 C1183 1.433 . S
C1182 C1178 1.350 . S
C1182 C1179 1.463 . S
C1182 N1186 1.427 . S
C1183 H1173 0.929 . S
C1183 C1181 1.433 . S
C1183 N1186 1.384 . S
C1184 H1175 0.929 . S
C1184 C1176 1.378 . S
C1184 C1179 1.350 . S
C1185 H1172 0.929 . S
C1185 C1177 1.433 . S
C1185 N1187 1.384 . S
N1186 C1182 1.427 . S
N1186 C1183 1.384 . S
N1187 C1179 1.427 . S
N1187 C1185 1.384 . S
H1188 C1194 0.930 . S
H1189 C1198 0.930 . S
H1190 C1203 0.929 . S
H1191 C1201 0.929 . S
H1192 C1196 0.929 . S
H1193 C1202 0.929 . S
C1194 H1188 0.930 . S
C1194 C1195 1.367 . S
C1194 C1202 1.378 . S
C1195 C1194 1.367 . S
C1195 C1203 1.433 . S
C1196 H1192 0.929 . S
C1196 C1198 1.378 . S
C1196 C1200 1.350 . S
C1197 C1200 1.463 . S
C1197 C1202 1.350 . S
C1197 N1205 1.427 . S
C1198 H1189 0.930 . S
C1198 C1196 1.378 . S
C1198 C1199 1.367 . S
C1199 C1198 1.367 . S
C1199 C1201 1.433 . S
C1200 C1196 1.350 . S
C1200 C1197 1.463 . S
C1200 N1204 1.427 . S
C1201 H1191 0.929 . S
C1201 C1199 1.433 . S
C1201 N1204 1.384 . S
C1202 H1193 0.929 . S
C1202 C1194 1.378 . S
C1202 C1197 1.350 . S
C1203 H1190 0.929 . S
C1203 C1195 1.433 . S
C1203 N1205 1.384 . S
N1204 C1200 1.427 . S
N1204 C1201 1.384 . S
N1205 C1197 1.427 . S
N1205 C1203 1.384 . S
H1206 C1212 0.930 . S
H1207 C1216 0.930 . S
H1208 C1221 0.929 . S
H1209 C1219 0.929 . S
H1210 C1214 0.929 . S
H1211 C1220 0.929 . S
C1212 H1206 0.930 . S
C1212 C1213 1.367 . S
C1212 C1220 1.378 . S
C1213 C1212 1.367 . S
C1213 C1221 1.433 . S
C1214 H1210 0.929 . S
C1214 C1216 1.378 . S
C1214 C1218 1.350 . S
C1215 C1218 1.463 . S
C1215 C1220 1.350 . S
C1215 N1223 1.427 . S
C1216 H1207 0.930 . S
C1216 C1214 1.378 . S
C1216 C1217 1.367 . S
C1217 C1216 1.367 . S
C1217 C1219 1.433 . S
C1218 C1214 1.350 . S
C1218 C1215 1.463 . S
C1218 N1222 1.427 . S
C1219 H1209 0.929 . S
C1219 C1217 1.433 . S
C1219 N1222 1.384 . S
C1220 H1211 0.929 . S
C1220 C1212 1.378 . S
C1220 C1215 1.350 . S
C1221 H1208 0.929 . S
C1221 C1213 1.433 . S
C1221 N1223 1.384 . S
N1222 C1218 1.427 . S
N1222 C1219 1.384 . S
N1223 C1215 1.427 . S
N1223 C1221 1.384 . S
H1224 C1230 0.930 . S
H1225 C1234 0.930 . S
H1226 C1239 0.929 . S
H1227 C1237 0.929 . S
H1228 C1232 0.929 . S
H1229 C1238 0.929 . S
C1230 H1224 0.930 . S
C1230 C1231 1.367 . S
C1230 C1238 1.378 . S
C1231 C1230 1.367 . S
C1231 C1239 1.433 . S
C1232 H1228 0.929 . S
C1232 C1234 1.378 . S
C1232 C1236 1.350 . S
C1233 C1236 1.463 . S
C1233 C1238 1.350 . S
C1233 N1241 1.427 . S
C1234 H1225 0.930 . S
C1234 C1232 1.378 . S
C1234 C1235 1.367 . S
C1235 C1234 1.367 . S
C1235 C1237 1.433 . S
C1236 C1232 1.350 . S
C1236 C1233 1.463 . S
C1236 N1240 1.427 . S
C1237 H1227 0.929 . S
C1237 C1235 1.433 . S
C1237 N1240 1.384 . S
C1238 H1229 0.929 . S
C1238 C1230 1.378 . S
C1238 C1233 1.350 . S
C1239 H1226 0.929 . S
C1239 C1231 1.433 . S
C1239 N1241 1.384 . S
N1240 C1236 1.427 . S
N1240 C1237 1.384 . S
N1241 C1233 1.427 . S
N1241 C1239 1.384 . S
H1242 C1248 0.930 . S
H1243 C1252 0.930 . S
H1244 C1257 0.929 . S
H1245 C1255 0.929 . S
H1246 C1250 0.929 . S
H1247 C1256 0.929 . S
C1248 H1242 0.930 . S
C1248 C1249 1.367 . S
C1248 C1256 1.378 . S
C1249 C1248 1.367 . S
C1249 C1257 1.433 . S
C1250 H1246 0.929 . S
C1250 C1252 1.378 . S
C1250 C1254 1.350 . S
C1251 C1254 1.463 . S
C1251 C1256 1.350 . S
C1251 N1259 1.427 . S
C1252 H1243 0.930 . S
C1252 C1250 1.378 . S
C1252 C1253 1.367 . S
C1253 C1252 1.367 . S
C1253 C1255 1.433 . S
C1254 C1250 1.350 . S
C1254 C1251 1.463 . S
C1254 N1258 1.427 . S
C1255 H1245 0.929 . S
C1255 C1253 1.433 . S
C1255 N1258 1.384 . S
C1256 H1247 0.929 . S
C1256 C1248 1.378 . S
C1256 C1251 1.350 . S
C1257 H1244 0.929 . S
C1257 C1249 1.433 . S
C1257 N1259 1.384 . S
N1258 C1254 1.427 . S
N1258 C1255 1.384 . S
N1259 C1251 1.427 . S
N1259 C1257 1.384 . S
H1260 C1266 0.930 . S
H1261 C1270 0.930 . S
H1262 C1275 0.929 . S
H1263 C1273 0.929 . S
H1264 C1268 0.929 . S
H1265 C1274 0.929 . S
C1266 H1260 0.930 . S
C1266 C1267 1.367 . S
C1266 C1274 1.378 . S
C1267 C1266 1.367 . S
C1267 C1275 1.433 . S
C1268 H1264 0.929 . S
C1268 C1270 1.378 . S
C1268 C1272 1.350 . S
C1269 C1272 1.463 . S
C1269 C1274 1.350 . S
C1269 N1277 1.427 . S
C1270 H1261 0.930 . S
C1270 C1268 1.378 . S
C1270 C1271 1.367 . S
C1271 C1270 1.367 . S
C1271 C1273 1.433 . S
C1272 C1268 1.350 . S
C1272 C1269 1.463 . S
C1272 N1276 1.427 . S
C1273 H1263 0.929 . S
C1273 C1271 1.433 . S
C1273 N1276 1.384 . S
C1274 H1265 0.929 . S
C1274 C1266 1.378 . S
C1274 C1269 1.350 . S
C1275 H1262 0.929 . S
C1275 C1267 1.433 . S
C1275 N1277 1.384 . S
N1276 C1272 1.427 . S
N1276 C1273 1.384 . S
N1277 C1269 1.427 . S
N1277 C1275 1.384 . S
H1278 C1284 0.930 . S
H1279 C1288 0.930 . S
H1280 C1293 0.929 . S
H1281 C1291 0.929 . S
H1282 C1286 0.929 . S
H1283 C1292 0.929 . S
C1284 H1278 0.930 . S
C1284 C1285 1.367 . S
C1284 C1292 1.378 . S
C1285 C1284 1.367 . S
C1285 C1293 1.433 . S
C1286 H1282 0.929 . S
C1286 C1288 1.378 . S
C1286 C1290 1.350 . S
C1287 C1290 1.463 . S
C1287 C1292 1.350 . S
C1287 N1295 1.427 . S
C1288 H1279 0.930 . S
C1288 C1286 1.378 . S
C1288 C1289 1.367 . S
C1289 C1288 1.367 . S
C1289 C1291 1.433 . S
C1290 C1286 1.350 . S
C1290 C1287 1.463 . S
C1290 N1294 1.427 . S
C1291 H1281 0.929 . S
C1291 C1289 1.433 . S
C1291 N1294 1.384 . S
C1292 H1283 0.929 . S
C1292 C1284 1.378 . S
C1292 C1287 1.350 . S
C1293 H1280 0.929 . S
C1293 C1285 1.433 . S
C1293 N1295 1.384 . S
N1294 C1290 1.427 . S
N1294 C1291 1.384 . S
N1295 C1287 1.427 . S
N1295 C1293 1.384 . S
H1296 C1302 0.930 . S
H1297 C1306 0.930 . S
H1298 C1311 0.929 . S
H1299 C1309 0.929 . S
H1300 C1304 0.929 . S
H1301 C1310 0.929 . S
C1302 H1296 0.930 . S
C1302 C1303 1.367 . S
C1302 C1310 1.378 . S
C1303 C1302 1.367 . S
C1303 C1311 1.433 . S
C1304 H1300 0.929 . S
C1304 C1306 1.378 . S
C1304 C1308 1.350 . S
C1305 C1308 1.463 . S
C1305 C1310 1.350 . S
C1305 N1313 1.427 . S
C1306 H1297 0.930 . S
C1306 C1304 1.378 . S
C1306 C1307 1.367 . S
C1307 C1306 1.367 . S
C1307 C1309 1.433 . S
C1308 C1304 1.350 . S
C1308 C1305 1.463 . S
C1308 N1312 1.427 . S
C1309 H1299 0.929 . S
C1309 C1307 1.433 . S
C1309 N1312 1.384 . S
C1310 H1301 0.929 . S
C1310 C1302 1.378 . S
C1310 C1305 1.350 . S
C1311 H1298 0.929 . S
C1311 C1303 1.433 . S
C1311 N1313 1.384 . S
N1312 C1308 1.427 . S
N1312 C1309 1.384 . S
N1313 C1305 1.427 . S
N1313 C1311 1.384 . S
H1314 C1320 0.930 . S
H1315 C1324 0.930 . S
H1316 C1329 0.929 . S
H1317 C1327 0.929 . S
H1318 C1322 0.929 . S
H1319 C1328 0.929 . S
C1320 H1314 0.930 . S
C1320 C1321 1.367 . S
C1320 C1328 1.378 . S
C1321 C1320 1.367 . S
C1321 C1329 1.433 . S
C1322 H1318 0.929 . S
C1322 C1324 1.378 . S
C1322 C1326 1.350 . S
C1323 C1326 1.463 . S
C1323 C1328 1.350 . S
C1323 N1331 1.427 . S
C1324 H1315 0.930 . S
C1324 C1322 1.378 . S
C1324 C1325 1.367 . S
C1325 C1324 1.367 . S
C1325 C1327 1.433 . S
C1326 C1322 1.350 . S
C1326 C1323 1.463 . S
C1326 N1330 1.427 . S
C1327 H1317 0.929 . S
C1327 C1325 1.433 . S
C1327 N1330 1.384 . S
C1328 H1319 0.929 . S
C1328 C1320 1.378 . S
C1328 C1323 1.350 . S
C1329 H1316 0.929 . S
C1329 C1321 1.433 . S
C1329 N1331 1.384 . S
N1330 C1326 1.427 . S
N1330 C1327 1.384 . S
N1331 C1323 1.427 . S
N1331 C1329 1.384 . S
H1332 C1338 0.930 . S
H1333 C1342 0.930 . S
H1334 C1347 0.929 . S
H1335 C1345 0.929 . S
H1336 C1340 0.929 . S
H1337 C1346 0.929 . S
C1338 H1332 0.930 . S
C1338 C1339 1.367 . S
C1338 C1346 1.378 . S
C1339 C1338 1.367 . S
C1339 C1347 1.433 . S
C1340 H1336 0.929 . S
C1340 C1342 1.378 . S
C1340 C1344 1.350 . S
C1341 C1344 1.463 . S
C1341 C1346 1.350 . S
C1341 N1349 1.427 . S
C1342 H1333 0.930 . S
C1342 C1340 1.378 . S
C1342 C1343 1.367 . S
C1343 C1342 1.367 . S
C1343 C1345 1.433 . S
C1344 C1340 1.350 . S
C1344 C1341 1.463 . S
C1344 N1348 1.427 . S
C1345 H1335 0.929 . S
C1345 C1343 1.433 . S
C1345 N1348 1.384 . S
C1346 H1337 0.929 . S
C1346 C1338 1.378 . S
C1346 C1341 1.350 . S
C1347 H1334 0.929 . S
C1347 C1339 1.433 . S
C1347 N1349 1.384 . S
N1348 C1344 1.427 . S
N1348 C1345 1.384 . S
N1349 C1341 1.427 . S
N1349 C1347 1.384 . S
H1350 C1356 0.930 . S
H1351 C1360 0.930 . S
H1352 C1365 0.929 . S
H1353 C1363 0.929 . S
H1354 C1358 0.929 . S
H1355 C1364 0.929 . S
C1356 H1350 0.930 . S
C1356 C1357 1.367 . S
C1356 C1364 1.378 . S
C1357 C1356 1.367 . S
C1357 C1365 1.433 . S
C1358 H1354 0.929 . S
C1358 C1360 1.378 . S
C1358 C1362 1.350 . S
C1359 C1362 1.463 . S
C1359 C1364 1.350 . S
C1359 N1367 1.427 . S
C1360 H1351 0.930 . S
C1360 C1358 1.378 . S
C1360 C1361 1.367 . S
C1361 C1360 1.367 . S
C1361 C1363 1.433 . S
C1362 C1358 1.350 . S
C1362 C1359 1.463 . S
C1362 N1366 1.427 . S
C1363 H1353 0.929 . S
C1363 C1361 1.433 . S
C1363 N1366 1.384 . S
C1364 H1355 0.929 . S
C1364 C1356 1.378 . S
C1364 C1359 1.350 . S
C1365 H1352 0.929 . S
C1365 C1357 1.433 . S
C1365 N1367 1.384 . S
N1366 C1362 1.427 . S
N1366 C1363 1.384 . S
N1367 C1359 1.427 . S
N1367 C1365 1.384 . S
H1368 C1374 0.930 . S
H1369 C1378 0.930 . S
H1370 C1383 0.929 . S
H1371 C1381 0.929 . S
H1372 C1376 0.929 . S
H1373 C1382 0.929 . S
C1374 H1368 0.930 . S
C1374 C1375 1.367 . S
C1374 C1382 1.378 . S
C1375 C1374 1.367 . S
C1375 C1383 1.433 1_655 S
C1376 H1372 0.929 . S
C1376 C1378 1.378 . S
C1376 C1380 1.350 . S
C1377 C1380 1.463 1_655 S
C1377 C1382 1.350 . S
C1377 N1385 1.427 1_655 S
C1378 H1369 0.930 . S
C1378 C1376 1.378 . S
C1378 C1379 1.367 . S
C1379 C1378 1.367 . S
C1379 C1381 1.433 1_455 S
C1380 C1376 1.350 . S
C1380 C1377 1.463 1_455 S
C1380 N1384 1.427 1_455 S
C1381 H1371 0.929 . S
C1381 C1379 1.433 1_655 S
C1381 N1384 1.384 . S
C1382 H1373 0.929 . S
C1382 C1374 1.378 . S
C1382 C1377 1.350 . S
C1383 H1370 0.929 . S
C1383 C1375 1.433 1_455 S
C1383 N1385 1.384 . S
N1384 C1380 1.427 1_655 S
N1384 C1381 1.384 . S
N1385 C1377 1.427 1_455 S
N1385 C1383 1.384 . S
H1386 C1392 0.930 . S
H1387 C1396 0.930 . S
H1388 C1401 0.929 . S
H1389 C1399 0.929 . S
H1390 C1394 0.929 . S
H1391 C1400 0.929 . S
C1392 H1386 0.930 . S
C1392 C1393 1.367 . S
C1392 C1400 1.378 . S
C1393 C1392 1.367 . S
C1393 C1401 1.433 . S
C1394 H1390 0.929 . S
C1394 C1396 1.378 . S
C1394 C1398 1.350 . S
C1395 C1398 1.463 . S
C1395 C1400 1.350 . S
C1395 N1403 1.427 . S
C1396 H1387 0.930 . S
C1396 C1394 1.378 . S
C1396 C1397 1.367 . S
C1397 C1396 1.367 . S
C1397 C1399 1.433 . S
C1398 C1394 1.350 . S
C1398 C1395 1.463 . S
C1398 N1402 1.427 . S
C1399 H1389 0.929 . S
C1399 C1397 1.433 . S
C1399 N1402 1.384 . S
C1400 H1391 0.929 . S
C1400 C1392 1.378 . S
C1400 C1395 1.350 . S
C1401 H1388 0.929 . S
C1401 C1393 1.433 . S
C1401 N1403 1.384 . S
N1402 C1398 1.427 . S
N1402 C1399 1.384 . S
N1403 C1395 1.427 . S
N1403 C1401 1.384 . S
H1404 C1410 0.930 . S
H1405 C1414 0.930 . S
H1406 C1419 0.929 . S
H1407 C1417 0.929 . S
H1408 C1412 0.929 . S
H1409 C1418 0.929 . S
C1410 H1404 0.930 . S
C1410 C1411 1.367 . S
C1410 C1418 1.378 . S
C1411 C1410 1.367 . S
C1411 C1419 1.433 1_545 S
C1412 H1408 0.929 . S
C1412 C1414 1.378 . S
C1412 C1416 1.350 . S
C1413 C1416 1.463 1_545 S
C1413 C1418 1.350 . S
C1413 N1421 1.427 1_545 S
C1414 H1405 0.930 . S
C1414 C1412 1.378 . S
C1414 C1415 1.367 . S
C1415 C1414 1.367 . S
C1415 C1417 1.433 1_565 S
C1416 C1412 1.350 . S
C1416 C1413 1.463 1_565 S
C1416 N1420 1.427 1_565 S
C1417 H1407 0.929 . S
C1417 C1415 1.433 1_545 S
C1417 N1420 1.384 . S
C1418 H1409 0.929 . S
C1418 C1410 1.378 . S
C1418 C1413 1.350 . S
C1419 H1406 0.929 . S
C1419 C1411 1.433 1_565 S
C1419 N1421 1.384 . S
N1420 C1416 1.427 1_545 S
N1420 C1417 1.384 . S
N1421 C1413 1.427 1_565 S
N1421 C1419 1.384 . S
C619 C9 1.325 . S
C623 C156 1.320 . S
C637 C43 1.349 . S
C641 C190 1.352 . S
C655 C77 1.381 . S
C659 C122 1.381 . S
C673 C54 1.323 . S
C677 C111 1.322 . S
C691 C145 1.349 . S
C695 C88 1.351 . S
C709 C20 1.381 . S
C713 C179 1.382 . S
C727 C213 1.364 . S
C731 C360 1.365 1_455 S
C745 C394 1.359 . S
C749 C247 1.356 . S
C763 C281 1.350 . S
C767 C326 1.350 . S
C781 C258 1.353 . S
C785 C315 1.356 . S
C799 C349 1.351 . S
C803 C292 1.349 . S
C817 C224 1.348 . S
C821 C383 1.346 . S
C835 C564 1.358 . S
C839 C417 1.351 . S
C853 C598 1.348 . S
C857 C451 1.351 . S
C871 C530 1.349 . S
C875 C485 1.343 . S
C889 C519 1.364 . S
C893 C462 1.365 1_655 S
C907 C496 1.361 . S
C911 C553 1.354 . S
C925 C428 1.351 . S
C929 C587 1.352 . S
C943 C33 1.369 . S
C947 C379 1.334 . S
C961 C67 1.358 . S
C965 C311 1.315 1_565 S
C979 C345 1.354 1_455 S
C983 C101 1.373 . S
C997 C481 1.334 . S
C1001 C135 1.370 . S
C1015 C413 1.323 1_545 S
C1019 C169 1.356 . S
C1033 C447 1.358 1_655 S
C1037 C203 1.373 . S
C1051 C583 1.345 . S
C1055 C237 1.373 . S
C1069 C515 1.337 . S
C1073 C271 1.370 . S
C1087 C305 1.372 . S
C1091 C549 1.340 . S
C1105 C73 1.301 . S
C1109 C339 1.335 . S
C1123 C373 1.357 . S
C1127 C5 1.325 . S
C1141 C407 1.335 . S
C1145 C39 1.307 . S
C1159 C441 1.333 . S
C1163 C175 1.313 . S
C1177 C107 1.333 . S
C1181 C475 1.350 . S
C1195 C509 1.344 . S
C1199 C141 1.307 . S
C1213 C543 1.373 . S
C1217 C277 1.344 . S
C1231 C577 1.368 . S
C1235 C209 1.351 . S
C1249 C611 1.372 . S
C1253 C243 1.339 . S
C1267 C308 2.000 . S
C1271 C2 2.001 . S
C1285 C36 2.025 . S
C1289 C342 2.027 . S
C1303 C70 2.015 . S
C1307 C376 2.018 . S
C1321 C104 2.001 . S
C1325 C410 2.001 . S
C1339 C444 2.025 . S
C1343 C138 2.027 . S
C1357 C172 2.015 . S
C1361 C478 2.018 . S
C1375 C206 1.979 . S
C1379 C512 1.979 . S
C1393 C546 1.984 . S
C1397 C240 1.984 . S
C1411 C274 1.981 . S
C1415 C580 1.981 . S
