# Generated by pormake.
# Topology npo, (4)-cn, num edge types: 1
# Building blocks:
#     Node 0, Type 0, BuildingBlock: AZAVOO_clean_sbu_0, # of connection points: 4
#     Node 1, Type 0, BuildingBlock: AZAVOO_clean_sbu_0, # of connection points: 4
#     Node 2, Type 0, BuildingBlock: AZAVOO_clean_sbu_0, # of connection points: 4
#     Node 3, Type 0, BuildingBlock: AZAVOO_clean_sbu_0, # of connection points: 4
#     Node 4, Type 0, BuildingBlock: AZAVOO_clean_sbu_0, # of connection points: 4
#     Node 5, Type 0, BuildingBlock: AZAVOO_clean_sbu_0, # of connection points: 4
#     Edge 6, Type (0, 0), BuildingBlock: EZIPEK_clean_linker_0, # of connection points: 2
#     Edge 7, Type (0, 0), BuildingBlock: EZIPEK_clean_linker_0, # of connection points: 2
#     Edge 8, Type (0, 0), BuildingBlock: EZIPEK_clean_linker_0, # of connection points: 2
#     Edge 9, Type (0, 0), BuildingBlock: EZIPEK_clean_linker_0, # of connection points: 2
#     Edge 10, Type (0, 0), BuildingBlock: EZIPEK_clean_linker_0, # of connection points: 2
#     Edge 11, Type (0, 0), BuildingBlock: EZIPEK_clean_linker_0, # of connection points: 2
#     Edge 12, Type (0, 0), BuildingBlock: EZIPEK_clean_linker_0, # of connection points: 2
#     Edge 13, Type (0, 0), BuildingBlock: EZIPEK_clean_linker_0, # of connection points: 2
#     Edge 14, Type (0, 0), BuildingBlock: EZIPEK_clean_linker_0, # of connection points: 2
#     Edge 15, Type (0, 0), BuildingBlock: EZIPEK_clean_linker_0, # of connection points: 2
#     Edge 16, Type (0, 0), BuildingBlock: EZIPEK_clean_linker_0, # of connection points: 2
#     Edge 17, Type (0, 0), BuildingBlock: EZIPEK_clean_linker_0, # of connection points: 2
# Relax obj value: 0.260
# Max RMSD: 0.258
# Mean RMSD: 0.232
data_MOF--net-npo--node1-AZAVOO_clean_sbu_0--edge1-EZIPEK_clean_linker_0
_symmetry_space_group_name_H-M    P1
_symmetry_Int_Tables_number       1
_symmetry_cell_setting            triclinic
loop_
_symmetry_equiv_pos_as_xyz
'x, y, z'
_cell_length_a     31.623105
_cell_length_b     28.534967
_cell_length_c     19.336761
_cell_angle_alpha  89.970886
_cell_angle_beta   89.975549
_cell_angle_gamma 129.60833
loop_
_atom_site_label
_atom_site_type_symbol
_atom_site_fract_x
_atom_site_fract_y
_atom_site_fract_z
_atom_type_partial_charge
Mg0 Mg 0.51173 0.08319 0.20012 0.0
O1 O 0.60521 0.16122 0.20569 0.0
O2 O 0.64162 0.12204 0.25249 0.0
Mg3 Mg 0.57359 0.0208 0.27451 0.0
C4 C 0.64634 0.16651 0.2271 0.0
C5 C 0.50389 0.18112 0.10674 0.0
O6 O 0.48546 0.18084 0.04569 0.0
O7 O 0.52475 0.04314 0.10926 0.0
O8 O 0.5609 0.00402 0.15684 0.0
O9 O 0.49987 0.10102 0.30935 0.0
O10 O 0.51569 0.03856 0.28093 0.0
C11 C 0.54348 0.01472 0.10457 0.0
C12 C 0.508 0.06381 0.32836 0.0
O13 O 0.49951 0.13501 0.12338 0.0
Mg14 Mg 0.42927 0.46365 0.74154 0.0
O15 O 0.45567 0.55961 0.73311 0.0
O16 O 0.54332 0.62503 0.76737 0.0
Mg17 Mg 0.56769 0.57058 0.81281 0.0
C18 C 0.50051 0.61388 0.74156 0.0
C19 C 0.31518 0.41426 0.65884 0.0
O20 O 0.28588 0.38967 0.60219 0.0
O21 O 0.48722 0.48731 0.65276 0.0
O22 O 0.57105 0.54541 0.70027 0.0
O23 O 0.39451 0.44871 0.84836 0.0
O24 O 0.48043 0.49017 0.82525 0.0
C25 C 0.53887 0.51704 0.64871 0.0
C26 C 0.44322 0.47277 0.87052 0.0
O27 O 0.36068 0.42479 0.66242 0.0
Mg28 Mg 0.95834 0.53632 0.26375 0.0
O29 O 0.88421 0.43794 0.24138 0.0
O30 O 0.91038 0.38296 0.22045 0.0
Mg31 Mg 1.00454 0.4503 0.21673 0.0
C32 C 0.87295 0.38729 0.22862 0.0
C33 C 0.89087 0.5785 0.26994 0.0
O34 O 0.92598 0.61151 0.21986 0.0
O35 O 0.97236 0.51009 0.36773 0.0
O36 O 1.00613 0.46454 0.33286 0.0
O37 O 0.96496 0.55844 0.15143 0.0
O38 O 1.00715 0.52851 0.20142 0.0
C39 C 0.99331 0.48465 0.38025 0.0
C40 C 0.99552 0.54312 0.14621 0.0
O41 O 0.89675 0.54604 0.30652 0.0
Mg42 Mg 0.545 0.92245 0.70029 0.0
O43 O 0.45121 0.84572 0.70667 0.0
O44 O 0.41639 0.88655 0.75382 0.0
Mg45 Mg 0.48566 0.98757 0.77503 0.0
C46 C 0.41067 0.84148 0.72846 0.0
C47 C 0.55195 0.82384 0.6062 0.0
O48 O 0.5696 0.8244 0.5444 0.0
O49 O 0.53251 0.96301 0.60945 0.0
O50 O 0.49783 0.0037 0.65719 0.0
O51 O 0.55687 0.90444 0.80944 0.0
O52 O 0.54218 0.96789 0.78101 0.0
C53 C 0.51454 0.99221 0.60482 0.0
C54 C 0.54949 0.94227 0.82845 0.0
O55 O 0.55591 0.86953 0.62357 0.0
Mg56 Mg 0.62648 0.54159 0.24158 0.0
O57 O 0.60164 0.44627 0.23246 0.0
O58 O 0.5143 0.37944 0.26775 0.0
Mg59 Mg 0.48782 0.43187 0.31223 0.0
C60 C 0.55741 0.39161 0.24146 0.0
C61 C 0.74188 0.59407 0.15941 0.0
O62 O 0.77147 0.61987 0.10309 0.0
O63 O 0.56872 0.51804 0.15271 0.0
O64 O 0.48451 0.45642 0.19932 0.0
O65 O 0.66087 0.55649 0.34845 0.0
O66 O 0.57457 0.51327 0.32492 0.0
C67 C 0.51683 0.48651 0.14828 0.0
C68 C 0.61169 0.53081 0.37028 0.0
O69 O 0.69591 0.58251 0.16303 0.0
Mg70 Mg 0.09946 0.47235 0.76374 0.0
O71 O 0.17282 0.57097 0.74162 0.0
O72 O 0.14539 0.62494 0.72241 0.0
Mg73 Mg 0.05105 0.55614 0.71756 0.0
C74 C 0.18337 0.62139 0.72991 0.0
C75 C 0.16707 0.43046 0.77051 0.0
O76 O 0.13143 0.39666 0.72127 0.0
O77 O 0.08567 0.49859 0.86781 0.0
O78 O 0.04889 0.54112 0.83363 0.0
O79 O 0.09361 0.45097 0.65135 0.0
O80 O 0.04992 0.47904 0.70143 0.0
C81 C 0.06317 0.52226 0.88062 0.0
C82 C 0.06234 0.46536 0.64613 0.0
O83 O 0.16159 0.46355 0.80637 0.0
C84 C 0.56573 0.2932 0.11856 0.0
C85 C 0.5296 0.23574 0.15125 0.0
C86 C 0.52813 0.28629 0.25273 0.0
C87 C 0.55341 0.34027 0.21323 0.0
N88 N 0.58439 0.38813 0.10016 0.0
N89 N 0.47137 0.17658 0.24894 0.0
C90 C 0.56989 0.34244 0.14411 0.0
C91 C 0.51002 0.23189 0.21886 0.0
N92 N 0.59514 0.30033 0.0619 0.0
N93 N 0.52155 0.28695 0.3224 0.0
H94 H 0.4561 0.13566 0.2255 0.0
H95 H 0.45146 0.17125 0.29488 0.0
H96 H 0.53555 0.32636 0.34885 0.0
H97 H 0.50762 0.25025 0.35447 0.0
H98 H 0.6252 0.34267 0.03936 0.0
H99 H 0.59365 0.26506 0.04286 0.0
H100 H 0.5916 0.38779 0.04762 0.0
H101 H 0.58321 0.42262 0.11362 0.0
C102 C 0.30356 0.48518 0.71125 0.0
C103 C 0.29418 0.42965 0.71495 0.0
C104 C 0.21195 0.38429 0.78492 0.0
C105 C 0.21748 0.43703 0.77363 0.0
N106 N 0.27769 0.54477 0.74986 0.0
N107 N 0.25188 0.33468 0.77241 0.0
C108 C 0.2669 0.49026 0.74564 0.0
C109 C 0.25272 0.38219 0.75853 0.0
N110 N 0.34499 0.5311 0.67045 0.0
N111 N 0.16619 0.33545 0.81771 0.0
H112 H 0.28195 0.33331 0.75319 0.0
H113 H 0.22474 0.29977 0.80691 0.0
H114 H 0.13746 0.33765 0.8402 0.0
H115 H 0.15612 0.29299 0.82154 0.0
H116 H 0.35058 0.57031 0.65856 0.0
H117 H 0.37262 0.5283 0.64581 0.0
H118 H 0.31477 0.58598 0.73481 0.0
H119 H 0.25173 0.54984 0.77504 0.0
C120 C 0.74049 0.23229 0.1742 0.0
C121 C 0.70236 0.22582 0.22079 0.0
C122 C 0.77652 0.32208 0.27564 0.0
C123 C 0.81418 0.33161 0.22528 0.0
N124 N 0.82772 0.30202 0.11557 0.0
N125 N 0.68185 0.27305 0.30206 0.0
C126 C 0.79503 0.28848 0.17129 0.0
C127 C 0.71958 0.27365 0.26673 0.0
N128 N 0.72485 0.18477 0.13288 0.0
N129 N 0.79502 0.3564 0.33454 0.0
H130 H 0.63973 0.23909 0.29552 0.0
H131 H 0.69245 0.30976 0.33149 0.0
H132 H 0.83649 0.38925 0.34646 0.0
H133 H 0.76924 0.34722 0.37545 0.0
H134 H 0.75254 0.18458 0.10394 0.0
H135 H 0.6847 0.14384 0.13103 0.0
H136 H 0.81368 0.2747 0.07166 0.0
H137 H 0.86708 0.34347 0.10968 0.0
C138 C 0.4918 0.71185 0.61845 0.0
C139 C 0.52765 0.76946 0.65076 0.0
C140 C 0.53078 0.71984 0.75205 0.0
C141 C 0.50533 0.66567 0.71295 0.0
N142 N 0.47407 0.61741 0.60029 0.0
N143 N 0.58656 0.82944 0.74753 0.0
C144 C 0.48843 0.66312 0.64401 0.0
C145 C 0.54805 0.77389 0.71797 0.0
N146 N 0.46167 0.70396 0.56232 0.0
N147 N 0.53811 0.71965 0.82157 0.0
H148 H 0.60116 0.87013 0.72401 0.0
H149 H 0.60706 0.83526 0.79305 0.0
H150 H 0.52471 0.68053 0.84823 0.0
H151 H 0.55209 0.75642 0.85345 0.0
H152 H 0.43178 0.66142 0.5402 0.0
H153 H 0.46235 0.73872 0.54339 0.0
H154 H 0.46649 0.61743 0.54782 0.0
H155 H 0.47574 0.58328 0.61384 0.0
C156 C 0.75423 0.52338 0.21076 0.0
C157 C 0.76316 0.57862 0.21508 0.0
C158 C 0.84549 0.62412 0.28477 0.0
C159 C 0.84031 0.57166 0.27306 0.0
N160 N 0.78077 0.46417 0.24834 0.0
N161 N 0.80495 0.67313 0.27319 0.0
C162 C 0.79112 0.51847 0.24478 0.0
C163 C 0.80448 0.62597 0.25878 0.0
N164 N 0.71307 0.47762 0.16969 0.0
N165 N 0.89114 0.67297 0.31758 0.0
H166 H 0.77472 0.67433 0.25428 0.0
H167 H 0.83194 0.70788 0.30784 0.0
H168 H 0.92006 0.67095 0.33976 0.0
H169 H 0.90095 0.71527 0.32169 0.0
H170 H 0.70782 0.43869 0.15738 0.0
H171 H 0.68532 0.48031 0.14521 0.0
H172 H 0.74386 0.42292 0.23312 0.0
H173 H 0.80701 0.45931 0.27309 0.0
C174 C 0.33658 0.7345 0.76826 0.0
C175 C 0.35418 0.78273 0.72267 0.0
C176 C 0.26132 0.72145 0.67402 0.0
C177 C 0.24201 0.67757 0.72728 0.0
N178 N 0.26087 0.65148 0.83576 0.0
N179 N 0.33222 0.82524 0.63607 0.0
C180 C 0.27955 0.68637 0.77722 0.0
C181 C 0.31615 0.77722 0.67685 0.0
N182 N 0.37402 0.73438 0.80318 0.0
N183 N 0.22853 0.709 0.61893 0.0
H184 H 0.3726 0.86578 0.63386 0.0
H185 H 0.30474 0.82626 0.6079 0.0
H186 H 0.18881 0.6681 0.61319 0.0
H187 H 0.24265 0.73671 0.5753 0.0
H188 H 0.36312 0.69728 0.83214 0.0
H189 H 0.41619 0.76817 0.79685 0.0
H190 H 0.28654 0.66011 0.87649 0.0
H191 H 0.21936 0.61866 0.84766 0.0
C192 C 0.59036 0.02032 0.9215 0.0
C193 C 0.55125 0.95836 0.90185 0.0
C194 C 0.51185 0.93211 0.0187 0.0
C195 C 0.54673 0.99502 0.03538 0.0
N196 N 0.61572 0.09999 0.00108 0.0
N197 N 0.47158 0.85547 0.92873 0.0
C198 C 0.58497 0.03943 -0.01373 0.0
C199 C 0.51149 0.91407 0.94988 0.0
N200 N 0.63406 0.0605 0.87916 0.0
N201 N 0.47872 0.88963 0.06843 0.0
H202 H 0.4707 0.84061 0.87924 0.0
H203 H 0.43739 0.82254 0.95835 0.0
H204 H 0.47505 0.90093 0.11809 0.0
H205 H 0.4573 0.84324 0.06197 0.0
H206 H 0.6671 0.10481 0.89354 0.0
H207 H 0.64022 0.0478 0.83205 0.0
H208 H 0.63925 0.13428 0.96441 0.0
H209 H 0.61495 0.11623 0.0489 0.0
C210 C 0.61112 0.58138 0.47519 0.0
C211 C 0.59965 0.5291 0.44463 0.0
C212 C 0.55081 0.46948 0.54934 0.0
C213 C 0.56261 0.5219 0.58022 0.0
N214 N 0.60874 0.62938 0.57698 0.0
N215 N 0.56658 0.42668 0.45372 0.0
C216 C 0.59466 0.5785 0.54463 0.0
C217 C 0.57181 0.47403 0.48215 0.0
N218 N 0.63528 0.63289 0.43634 0.0
N219 N 0.51892 0.41526 0.5841 0.0
H220 H 0.58181 0.42921 0.40476 0.0
H221 H 0.55089 0.38666 0.4798 0.0
H222 H 0.50578 0.41112 0.63489 0.0
H223 H 0.50346 0.37379 0.56221 0.0
H224 H 0.63864 0.67005 0.45183 0.0
H225 H 0.64962 0.6376 0.38614 0.0
H226 H 0.63753 0.67329 0.55774 0.0
H227 H 0.5938 0.62858 0.62541 0.0
C228 C 0.08724 0.5723 -0.00372 0.0
C229 C 0.04806 0.5237 0.95201 0.0
C230 C 0.97394 0.49031 0.03279 0.0
C231 C 1.01333 0.53745 0.07858 0.0
N232 N 0.10788 0.6188 0.10947 0.0
N233 N 0.95681 0.42975 0.93212 0.0
C234 C 0.07022 0.57687 0.06217 0.0
C235 C 0.99213 0.48069 0.97152 0.0
N236 N 0.1401 0.61544 0.97396 0.0
N237 N 0.91915 0.45518 0.0474 0.0
H238 H 0.969 0.42123 0.88697 0.0
H239 H 0.91687 0.39337 0.94702 0.0
H240 H 0.90402 0.45831 0.09348 0.0
H241 H 0.88831 0.42523 0.01219 0.0
H242 H 0.16929 0.65598 1e-05 0.0
H243 H 0.15413 0.61234 0.92675 0.0
H244 H 0.15001 0.64371 0.10414 0.0
H245 H 0.09699 0.62667 0.15632 0.0
C246 C 0.46704 0.98617 0.42205 0.0
C247 C 0.50653 0.04794 0.40177 0.0
C248 C 0.54659 0.07454 0.51814 0.0
C249 C 0.51115 0.01172 0.53555 0.0
N250 N 0.44088 0.90669 0.50268 0.0
N251 N 0.587 0.15062 0.42732 0.0
C252 C 0.47232 0.96721 0.48705 0.0
C253 C 0.5468 0.09229 0.4492 0.0
N254 N 0.42313 0.94605 0.38006 0.0
N255 N 0.58036 0.11717 0.56732 0.0
H256 H 0.58777 0.1652 0.37766 0.0
H257 H 0.62146 0.18353 0.45646 0.0
H258 H 0.58408 0.10601 0.61704 0.0
H259 H 0.60231 0.16363 0.56036 0.0
H260 H 0.38984 0.90196 0.39486 0.0
H261 H 0.41716 0.95862 0.33272 0.0
H262 H 0.41686 0.87216 0.4665 0.0
H263 H 0.44146 0.89062 0.55078 0.0
C264 C 0.48898 0.53201 0.97993 0.0
C265 C 0.45523 0.47529 0.94513 0.0
C266 C 0.46088 0.42567 0.04414 0.0
C267 C 0.4931 0.48197 0.08002 0.0
N268 N 0.52981 0.5861 0.08827 0.0
N269 N 0.40033 0.36611 0.94791 0.0
C270 C 0.50486 0.53448 0.04965 0.0
C271 C 0.43809 0.42142 0.97875 0.0
N272 N 0.5064 0.58355 0.94582 0.0
N273 N 0.45495 0.37724 0.07048 0.0
H274 H 0.38423 0.36106 0.89886 0.0
H275 H 0.38156 0.32484 0.97308 0.0
H276 H 0.47146 0.37847 0.11778 0.0
H277 H 0.43772 0.33737 0.043 0.0
H278 H 0.53639 0.62732 0.96471 0.0
H279 H 0.49239 0.58249 0.89658 0.0
H280 H 0.53488 0.62413 0.07173 0.0
H281 H 0.54161 0.58921 0.13955 0.0
C282 C 0.98784 0.43416 0.56337 0.0
C283 C 0.04481 0.47129 0.57837 0.0
C284 C 0.06743 0.5209 0.46546 0.0
C285 C 1.0104 0.48472 0.45117 0.0
N286 N 0.91625 0.41425 0.48866 0.0
N287 N 0.13881 0.55595 0.54976 0.0
C288 C 0.97054 0.44385 0.50107 0.0
C289 C 0.08469 0.51622 0.53098 0.0
N290 N 0.95052 0.38753 0.60706 0.0
N291 N 0.10503 0.55952 0.41587 0.0
H292 H 0.1532 0.55405 0.59725 0.0
H293 H 0.1694 0.59366 0.52067 0.0
H294 H 0.09438 0.56882 0.36989 0.0
H295 H 0.14659 0.58075 0.41865 0.0
H296 H 0.90895 0.35474 0.59586 0.0
H297 H 0.96166 0.37833 0.65266 0.0
H298 H 0.88552 0.38878 0.52567 0.0
H299 H 0.90213 0.41876 0.4425 0.0
loop_
_geom_bond_atom_site_label_1
_geom_bond_atom_site_label_2
_geom_bond_distance
_geom_bond_site_symmetry_2
_ccdc_geom_bond_type
Mg0 O1 2.028 . S
Mg0 O7 1.986 . S
Mg0 O9 2.114 . S
Mg0 O10 2.251 . S
Mg0 O13 2.010 . S
O1 Mg0 2.028 . S
O1 C4 1.250 . S
O2 Mg3 2.028 . S
O2 C4 1.248 . S
Mg3 O2 2.028 . S
Mg3 O8 2.032 . S
Mg3 O10 2.079 . S
C4 O1 1.250 . S
C4 O2 1.248 . S
C5 O6 1.264 . S
C5 O13 1.249 . S
O6 C5 1.264 . S
O7 Mg0 1.986 . S
O7 C11 1.246 . S
O8 Mg3 2.032 . S
O8 C11 1.259 . S
O9 Mg0 2.114 . S
O9 C12 1.252 . S
O10 Mg0 2.251 . S
O10 Mg3 2.079 . S
O10 C12 1.273 . S
C11 O7 1.246 . S
C11 O8 1.259 . S
C12 O9 1.252 . S
C12 O10 1.273 . S
O13 Mg0 2.010 . S
O13 C5 1.249 . S
Mg14 O15 2.028 . S
Mg14 O21 1.986 . S
Mg14 O23 2.114 . S
Mg14 O24 2.251 . S
Mg14 O27 2.010 . S
O15 Mg14 2.028 . S
O15 C18 1.250 . S
O16 Mg17 2.028 . S
O16 C18 1.248 . S
Mg17 O16 2.028 . S
Mg17 O22 2.032 . S
Mg17 O24 2.079 . S
C18 O15 1.250 . S
C18 O16 1.248 . S
C19 O20 1.264 . S
C19 O27 1.249 . S
O20 C19 1.264 . S
O21 Mg14 1.986 . S
O21 C25 1.246 . S
O22 Mg17 2.032 . S
O22 C25 1.259 . S
O23 Mg14 2.114 . S
O23 C26 1.252 . S
O24 Mg14 2.251 . S
O24 Mg17 2.079 . S
O24 C26 1.273 . S
C25 O21 1.246 . S
C25 O22 1.259 . S
C26 O23 1.252 . S
C26 O24 1.273 . S
O27 Mg14 2.010 . S
O27 C19 1.249 . S
Mg28 O29 2.028 . S
Mg28 O35 1.986 . S
Mg28 O37 2.114 . S
Mg28 O38 2.251 . S
Mg28 O41 2.010 . S
O29 Mg28 2.028 . S
O29 C32 1.250 . S
O30 Mg31 2.028 . S
O30 C32 1.248 . S
Mg31 O30 2.028 . S
Mg31 O36 2.032 . S
Mg31 O38 2.079 . S
C32 O29 1.250 . S
C32 O30 1.248 . S
C33 O34 1.264 . S
C33 O41 1.249 . S
O34 C33 1.264 . S
O35 Mg28 1.986 . S
O35 C39 1.246 . S
O36 Mg31 2.032 . S
O36 C39 1.259 . S
O37 Mg28 2.114 . S
O37 C40 1.252 . S
O38 Mg28 2.251 . S
O38 Mg31 2.079 . S
O38 C40 1.273 . S
C39 O35 1.246 . S
C39 O36 1.259 . S
C40 O37 1.252 . S
C40 O38 1.273 . S
O41 Mg28 2.010 . S
O41 C33 1.249 . S
Mg42 O43 2.028 . S
Mg42 O49 1.986 . S
Mg42 O51 2.114 . S
Mg42 O52 2.251 . S
Mg42 O55 2.010 . S
O43 Mg42 2.028 . S
O43 C46 1.250 . S
O44 Mg45 2.028 . S
O44 C46 1.248 . S
Mg45 O44 2.028 . S
Mg45 O50 2.032 . S
Mg45 O52 2.079 . S
C46 O43 1.250 . S
C46 O44 1.248 . S
C47 O48 1.264 . S
C47 O55 1.249 . S
O48 C47 1.264 . S
O49 Mg42 1.986 . S
O49 C53 1.246 . S
O50 Mg45 2.032 . S
O50 C53 1.259 . S
O51 Mg42 2.114 . S
O51 C54 1.252 . S
O52 Mg42 2.251 . S
O52 Mg45 2.079 . S
O52 C54 1.273 . S
C53 O49 1.246 . S
C53 O50 1.259 . S
C54 O51 1.252 . S
C54 O52 1.273 . S
O55 Mg42 2.010 . S
O55 C47 1.249 . S
Mg56 O57 2.028 . S
Mg56 O63 1.986 . S
Mg56 O65 2.114 . S
Mg56 O66 2.251 . S
Mg56 O69 2.010 . S
O57 Mg56 2.028 . S
O57 C60 1.250 . S
O58 Mg59 2.028 . S
O58 C60 1.248 . S
Mg59 O58 2.028 . S
Mg59 O64 2.032 . S
Mg59 O66 2.079 . S
C60 O57 1.250 . S
C60 O58 1.248 . S
C61 O62 1.264 . S
C61 O69 1.249 . S
O62 C61 1.264 . S
O63 Mg56 1.986 . S
O63 C67 1.246 . S
O64 Mg59 2.032 . S
O64 C67 1.259 . S
O65 Mg56 2.114 . S
O65 C68 1.252 . S
O66 Mg56 2.251 . S
O66 Mg59 2.079 . S
O66 C68 1.273 . S
C67 O63 1.246 . S
C67 O64 1.259 . S
C68 O65 1.252 . S
C68 O66 1.273 . S
O69 Mg56 2.010 . S
O69 C61 1.249 . S
Mg70 O71 2.028 . S
Mg70 O77 1.986 . S
Mg70 O79 2.114 . S
Mg70 O80 2.251 . S
Mg70 O83 2.010 . S
O71 Mg70 2.028 . S
O71 C74 1.250 . S
O72 Mg73 2.028 . S
O72 C74 1.248 . S
Mg73 O72 2.028 . S
Mg73 O78 2.032 . S
Mg73 O80 2.079 . S
C74 O71 1.250 . S
C74 O72 1.248 . S
C75 O76 1.264 . S
C75 O83 1.249 . S
O76 C75 1.264 . S
O77 Mg70 1.986 . S
O77 C81 1.246 . S
O78 Mg73 2.032 . S
O78 C81 1.259 . S
O79 Mg70 2.114 . S
O79 C82 1.252 . S
O80 Mg70 2.251 . S
O80 Mg73 2.079 . S
O80 C82 1.273 . S
C81 O77 1.246 . S
C81 O78 1.259 . S
C82 O79 1.252 . S
C82 O80 1.273 . S
O83 Mg70 2.010 . S
O83 C75 1.249 . S
C84 C85 1.363 . S
C84 C90 1.379 . S
C84 N92 1.356 . S
C85 C84 1.363 . S
C85 C91 1.363 . S
C86 C87 1.363 . S
C86 C91 1.379 . S
C86 N93 1.356 . S
C87 C86 1.363 . S
C87 C90 1.363 . S
N88 C90 1.356 . S
N88 H100 0.984 . S
N88 H101 0.985 . S
N89 C91 1.356 . S
N89 H94 0.984 . S
N89 H95 0.985 . S
C90 C84 1.379 . S
C90 C87 1.363 . S
C90 N88 1.356 . S
C91 C85 1.363 . S
C91 C86 1.379 . S
C91 N89 1.356 . S
N92 C84 1.356 . S
N92 H98 0.984 . S
N92 H99 0.984 . S
N93 C86 1.356 . S
N93 H96 0.984 . S
N93 H97 0.985 . S
H94 N89 0.984 . S
H95 N89 0.985 . S
H96 N93 0.984 . S
H97 N93 0.985 . S
H98 N92 0.984 . S
H99 N92 0.984 . S
H100 N88 0.984 . S
H101 N88 0.985 . S
C102 C103 1.363 . S
C102 C108 1.379 . S
C102 N110 1.356 . S
C103 C102 1.363 . S
C103 C109 1.363 . S
C104 C105 1.363 . S
C104 C109 1.379 . S
C104 N111 1.356 . S
C105 C104 1.363 . S
C105 C108 1.363 . S
N106 C108 1.356 . S
N106 H118 0.984 . S
N106 H119 0.985 . S
N107 C109 1.356 . S
N107 H112 0.984 . S
N107 H113 0.985 . S
C108 C102 1.379 . S
C108 C105 1.363 . S
C108 N106 1.356 . S
C109 C103 1.363 . S
C109 C104 1.379 . S
C109 N107 1.356 . S
N110 C102 1.356 . S
N110 H116 0.984 . S
N110 H117 0.984 . S
N111 C104 1.356 . S
N111 H114 0.984 . S
N111 H115 0.985 . S
H112 N107 0.984 . S
H113 N107 0.985 . S
H114 N111 0.984 . S
H115 N111 0.985 . S
H116 N110 0.984 . S
H117 N110 0.984 . S
H118 N106 0.984 . S
H119 N106 0.985 . S
C120 C121 1.363 . S
C120 C126 1.379 . S
C120 N128 1.356 . S
C121 C120 1.363 . S
C121 C127 1.363 . S
C122 C123 1.363 . S
C122 C127 1.379 . S
C122 N129 1.356 . S
C123 C122 1.363 . S
C123 C126 1.363 . S
N124 C126 1.356 . S
N124 H136 0.984 . S
N124 H137 0.985 . S
N125 C127 1.356 . S
N125 H130 0.984 . S
N125 H131 0.985 . S
C126 C120 1.379 . S
C126 C123 1.363 . S
C126 N124 1.356 . S
C127 C121 1.363 . S
C127 C122 1.379 . S
C127 N125 1.356 . S
N128 C120 1.356 . S
N128 H134 0.984 . S
N128 H135 0.984 . S
N129 C122 1.356 . S
N129 H132 0.984 . S
N129 H133 0.985 . S
H130 N125 0.984 . S
H131 N125 0.985 . S
H132 N129 0.984 . S
H133 N129 0.985 . S
H134 N128 0.984 . S
H135 N128 0.984 . S
H136 N124 0.984 . S
H137 N124 0.985 . S
C138 C139 1.363 . S
C138 C144 1.379 . S
C138 N146 1.356 . S
C139 C138 1.363 . S
C139 C145 1.363 . S
C140 C141 1.363 . S
C140 C145 1.379 . S
C140 N147 1.356 . S
C141 C140 1.363 . S
C141 C144 1.363 . S
N142 C144 1.356 . S
N142 H154 0.984 . S
N142 H155 0.985 . S
N143 C145 1.356 . S
N143 H148 0.984 . S
N143 H149 0.985 . S
C144 C138 1.379 . S
C144 C141 1.363 . S
C144 N142 1.356 . S
C145 C139 1.363 . S
C145 C140 1.379 . S
C145 N143 1.356 . S
N146 C138 1.356 . S
N146 H152 0.984 . S
N146 H153 0.984 . S
N147 C140 1.356 . S
N147 H150 0.984 . S
N147 H151 0.985 . S
H148 N143 0.984 . S
H149 N143 0.985 . S
H150 N147 0.984 . S
H151 N147 0.985 . S
H152 N146 0.984 . S
H153 N146 0.984 . S
H154 N142 0.984 . S
H155 N142 0.985 . S
C156 C157 1.363 . S
C156 C162 1.379 . S
C156 N164 1.356 . S
C157 C156 1.363 . S
C157 C163 1.363 . S
C158 C159 1.363 . S
C158 C163 1.379 . S
C158 N165 1.356 . S
C159 C158 1.363 . S
C159 C162 1.363 . S
N160 C162 1.356 . S
N160 H172 0.984 . S
N160 H173 0.985 . S
N161 C163 1.356 . S
N161 H166 0.984 . S
N161 H167 0.985 . S
C162 C156 1.379 . S
C162 C159 1.363 . S
C162 N160 1.356 . S
C163 C157 1.363 . S
C163 C158 1.379 . S
C163 N161 1.356 . S
N164 C156 1.356 . S
N164 H170 0.984 . S
N164 H171 0.984 . S
N165 C158 1.356 . S
N165 H168 0.984 . S
N165 H169 0.985 . S
H166 N161 0.984 . S
H167 N161 0.985 . S
H168 N165 0.984 . S
H169 N165 0.985 . S
H170 N164 0.984 . S
H171 N164 0.984 . S
H172 N160 0.984 . S
H173 N160 0.985 . S
C174 C175 1.363 . S
C174 C180 1.379 . S
C174 N182 1.356 . S
C175 C174 1.363 . S
C175 C181 1.363 . S
C176 C177 1.363 . S
C176 C181 1.379 . S
C176 N183 1.356 . S
C177 C176 1.363 . S
C177 C180 1.363 . S
N178 C180 1.356 . S
N178 H190 0.984 . S
N178 H191 0.985 . S
N179 C181 1.356 . S
N179 H184 0.984 . S
N179 H185 0.985 . S
C180 C174 1.379 . S
C180 C177 1.363 . S
C180 N178 1.356 . S
C181 C175 1.363 . S
C181 C176 1.379 . S
C181 N179 1.356 . S
N182 C174 1.356 . S
N182 H188 0.984 . S
N182 H189 0.984 . S
N183 C176 1.356 . S
N183 H186 0.984 . S
N183 H187 0.985 . S
H184 N179 0.984 . S
H185 N179 0.985 . S
H186 N183 0.984 . S
H187 N183 0.985 . S
H188 N182 0.984 . S
H189 N182 0.984 . S
H190 N178 0.984 . S
H191 N178 0.985 . S
C192 C193 1.363 1_545 S
C192 C198 1.379 1_556 S
C192 N200 1.356 . S
C193 C192 1.363 1_565 S
C193 C199 1.363 . S
C194 C195 1.363 1_565 S
C194 C199 1.379 1_554 S
C194 N201 1.356 . S
C195 C194 1.363 1_545 S
C195 C198 1.363 . S
N196 C198 1.356 . S
N196 H208 0.984 . S
N196 H209 0.985 . S
N197 C199 1.356 . S
N197 H202 0.984 . S
N197 H203 0.985 . S
C198 C192 1.379 1_554 S
C198 C195 1.363 . S
C198 N196 1.356 . S
C199 C193 1.363 . S
C199 C194 1.379 1_556 S
C199 N197 1.356 . S
N200 C192 1.356 . S
N200 H206 0.984 . S
N200 H207 0.984 . S
N201 C194 1.356 . S
N201 H204 0.984 . S
N201 H205 0.985 . S
H202 N197 0.984 . S
H203 N197 0.985 . S
H204 N201 0.984 . S
H205 N201 0.985 . S
H206 N200 0.984 . S
H207 N200 0.984 . S
H208 N196 0.984 . S
H209 N196 0.985 . S
C210 C211 1.363 . S
C210 C216 1.379 . S
C210 N218 1.356 . S
C211 C210 1.363 . S
C211 C217 1.363 . S
C212 C213 1.363 . S
C212 C217 1.379 . S
C212 N219 1.356 . S
C213 C212 1.363 . S
C213 C216 1.363 . S
N214 C216 1.356 . S
N214 H226 0.984 . S
N214 H227 0.985 . S
N215 C217 1.356 . S
N215 H220 0.984 . S
N215 H221 0.985 . S
C216 C210 1.379 . S
C216 C213 1.363 . S
C216 N214 1.356 . S
C217 C211 1.363 . S
C217 C212 1.379 . S
C217 N215 1.356 . S
N218 C210 1.356 . S
N218 H224 0.984 . S
N218 H225 0.984 . S
N219 C212 1.356 . S
N219 H222 0.984 . S
N219 H223 0.985 . S
H220 N215 0.984 . S
H221 N215 0.985 . S
H222 N219 0.984 . S
H223 N219 0.985 . S
H224 N218 0.984 . S
H225 N218 0.984 . S
H226 N214 0.984 . S
H227 N214 0.985 . S
C228 C229 1.363 . S
C228 C234 1.379 1_556 S
C228 N236 1.356 . S
C229 C228 1.363 . S
C229 C235 1.363 1_455 S
C230 C231 1.363 . S
C230 C235 1.379 1_554 S
C230 N237 1.356 . S
C231 C230 1.363 . S
C231 C234 1.363 1_655 S
N232 C234 1.356 . S
N232 H244 0.984 . S
N232 H245 0.985 . S
N233 C235 1.356 . S
N233 H238 0.984 . S
N233 H239 0.985 . S
C234 C228 1.379 1_554 S
C234 C231 1.363 1_455 S
C234 N232 1.356 . S
C235 C229 1.363 1_655 S
C235 C230 1.379 1_556 S
C235 N233 1.356 . S
N236 C228 1.356 . S
N236 H242 0.984 . S
N236 H243 0.984 . S
N237 C230 1.356 . S
N237 H240 0.984 . S
N237 H241 0.985 . S
H238 N233 0.984 . S
H239 N233 0.985 . S
H240 N237 0.984 . S
H241 N237 0.985 . S
H242 N236 0.984 . S
H243 N236 0.984 . S
H244 N232 0.984 . S
H245 N232 0.985 . S
C246 C247 1.363 1_565 S
C246 C252 1.379 . S
C246 N254 1.356 . S
C247 C246 1.363 1_545 S
C247 C253 1.363 . S
C248 C249 1.363 1_545 S
C248 C253 1.379 . S
C248 N255 1.356 . S
C249 C248 1.363 1_565 S
C249 C252 1.363 . S
N250 C252 1.356 . S
N250 H262 0.984 . S
N250 H263 0.985 . S
N251 C253 1.356 . S
N251 H256 0.984 . S
N251 H257 0.985 . S
C252 C246 1.379 . S
C252 C249 1.363 . S
C252 N250 1.356 . S
C253 C247 1.363 . S
C253 C248 1.379 . S
C253 N251 1.356 . S
N254 C246 1.356 . S
N254 H260 0.984 . S
N254 H261 0.984 1_565 S
N255 C248 1.356 . S
N255 H258 0.984 . S
N255 H259 0.985 . S
H256 N251 0.984 . S
H257 N251 0.985 . S
H258 N255 0.984 . S
H259 N255 0.985 . S
H260 N254 0.984 . S
H261 N254 0.984 1_545 S
H262 N250 0.984 . S
H263 N250 0.985 . S
C264 C265 1.363 . S
C264 C270 1.379 1_556 S
C264 N272 1.356 . S
C265 C264 1.363 . S
C265 C271 1.363 . S
C266 C267 1.363 1_556 S
C266 C271 1.379 . S
C266 N273 1.356 1_556 S
C267 C266 1.363 1_554 S
C267 C270 1.363 . S
N268 C270 1.356 . S
N268 H280 0.984 . S
N268 H281 0.985 . S
N269 C271 1.356 . S
N269 H274 0.984 . S
N269 H275 0.985 . S
C270 C264 1.379 1_554 S
C270 C267 1.363 . S
C270 N268 1.356 . S
C271 C265 1.363 . S
C271 C266 1.379 . S
C271 N269 1.356 . S
N272 C264 1.356 . S
N272 H278 0.984 1_556 S
N272 H279 0.984 . S
N273 C266 1.356 1_554 S
N273 H276 0.984 . S
N273 H277 0.985 1_554 S
H274 N269 0.984 . S
H275 N269 0.985 . S
H276 N273 0.984 . S
H277 N273 0.985 1_556 S
H278 N272 0.984 1_554 S
H279 N272 0.984 . S
H280 N268 0.984 . S
H281 N268 0.985 . S
C282 C283 1.363 1_655 S
C282 C288 1.379 . S
C282 N290 1.356 . S
C283 C282 1.363 1_455 S
C283 C289 1.363 . S
C284 C285 1.363 1_455 S
C284 C289 1.379 . S
C284 N291 1.356 . S
C285 C284 1.363 1_655 S
C285 C288 1.363 . S
N286 C288 1.356 . S
N286 H298 0.984 . S
N286 H299 0.985 . S
N287 C289 1.356 . S
N287 H292 0.984 . S
N287 H293 0.985 . S
C288 C282 1.379 . S
C288 C285 1.363 . S
C288 N286 1.356 . S
C289 C283 1.363 . S
C289 C284 1.379 . S
C289 N287 1.356 . S
N290 C282 1.356 . S
N290 H296 0.984 . S
N290 H297 0.984 . S
N291 C284 1.356 . S
N291 H294 0.984 . S
N291 H295 0.985 . S
H292 N287 0.984 . S
H293 N287 0.985 . S
H294 N291 0.984 . S
H295 N291 0.985 . S
H296 N290 0.984 . S
H297 N290 0.984 . S
H298 N286 0.984 . S
H299 N286 0.985 . S
C85 C5 1.187 . S
C87 C60 1.216 . S
C103 C19 1.266 . S
C105 C75 1.237 . S
C121 C4 1.228 . S
C123 C32 1.232 . S
C139 C47 1.187 . S
C141 C18 1.216 . S
C157 C61 1.266 . S
C159 C33 1.237 . S
C175 C46 1.228 . S
C177 C74 1.232 . S
C193 C54 1.453 . S
C195 C11 1.411 . S
C211 C68 1.490 . S
C213 C25 1.430 . S
C229 C81 1.422 . S
C231 C40 1.474 . S
C247 C12 1.453 . S
C249 C53 1.411 . S
C265 C26 1.490 . S
C267 C67 1.430 . S
C283 C82 1.474 . S
C285 C39 1.422 . S
