# Generated by pormake.
# Topology lvt, (4)-cn, num edge types: 1
# Building blocks:
#     Node 0, Type 0, BuildingBlock: KOZSID_clean_sbu_0, # of connection points: 4
#     Node 1, Type 0, BuildingBlock: KOZSID_clean_sbu_0, # of connection points: 4
#     Node 2, Type 0, BuildingBlock: KOZSID_clean_sbu_0, # of connection points: 4
#     Node 3, Type 0, BuildingBlock: KOZSID_clean_sbu_0, # of connection points: 4
#     Node 4, Type 0, BuildingBlock: KOZSID_clean_sbu_0, # of connection points: 4
#     Node 5, Type 0, BuildingBlock: KOZSID_clean_sbu_0, # of connection points: 4
#     Node 6, Type 0, BuildingBlock: KOZSID_clean_sbu_0, # of connection points: 4
#     Node 7, Type 0, BuildingBlock: KOZSID_clean_sbu_0, # of connection points: 4
#     Edge 8, Type (0, 0), BuildingBlock: UVAHIK_clean_linker_0, # of connection points: 2
#     Edge 9, Type (0, 0), BuildingBlock: UVAHIK_clean_linker_0, # of connection points: 2
#     Edge 10, Type (0, 0), BuildingBlock: UVAHIK_clean_linker_0, # of connection points: 2
#     Edge 11, Type (0, 0), BuildingBlock: UVAHIK_clean_linker_0, # of connection points: 2
#     Edge 12, Type (0, 0), BuildingBlock: UVAHIK_clean_linker_0, # of connection points: 2
#     Edge 13, Type (0, 0), BuildingBlock: UVAHIK_clean_linker_0, # of connection points: 2
#     Edge 14, Type (0, 0), BuildingBlock: UVAHIK_clean_linker_0, # of connection points: 2
#     Edge 15, Type (0, 0), BuildingBlock: UVAHIK_clean_linker_0, # of connection points: 2
#     Edge 16, Type (0, 0), BuildingBlock: UVAHIK_clean_linker_0, # of connection points: 2
#     Edge 17, Type (0, 0), BuildingBlock: UVAHIK_clean_linker_0, # of connection points: 2
#     Edge 18, Type (0, 0), BuildingBlock: UVAHIK_clean_linker_0, # of connection points: 2
#     Edge 19, Type (0, 0), BuildingBlock: UVAHIK_clean_linker_0, # of connection points: 2
#     Edge 20, Type (0, 0), BuildingBlock: UVAHIK_clean_linker_0, # of connection points: 2
#     Edge 21, Type (0, 0), BuildingBlock: UVAHIK_clean_linker_0, # of connection points: 2
#     Edge 22, Type (0, 0), BuildingBlock: UVAHIK_clean_linker_0, # of connection points: 2
#     Edge 23, Type (0, 0), BuildingBlock: UVAHIK_clean_linker_0, # of connection points: 2
# Relax obj value: 0.002
# Max RMSD: 0.024
# Mean RMSD: 0.016
data_MOF--net-lvt--node1-KOZSID_clean_sbu_0--edge1-UVAHIK_clean_linker_0
_symmetry_space_group_name_H-M    P1
_symmetry_Int_Tables_number       1
_symmetry_cell_setting            triclinic
loop_
_symmetry_equiv_pos_as_xyz
'x, y, z'
_cell_length_a     53.842499
_cell_length_b     53.868907
_cell_length_c     49.27858
_cell_angle_alpha  84.774195
_cell_angle_beta   92.511339
_cell_angle_gamma 87.429677
loop_
_atom_site_label
_atom_site_type_symbol
_atom_site_fract_x
_atom_site_fract_y
_atom_site_fract_z
_atom_type_partial_charge
C0 C 0.03842 0.95697 0.51183 0.0
C1 C 0.04736 0.936 0.50022 0.0
C2 C 0.03373 0.935 0.47641 0.0
C3 C 0.01745 0.95543 0.47472 0.0
N4 N 0.01999 0.96958 0.4959 0.0
Co5 Co 0.00054 0.00126 0.50128 0.0
N6 N 0.9792 0.99868 0.46731 0.0
C7 C 0.98013 0.98013 0.45056 0.0
C8 C 0.963 0.98342 0.42899 0.0
C9 C 0.95044 0.00547 0.432 0.0
C10 C 0.96078 0.01442 0.45527 0.0
N11 N 0.98143 0.03325 0.50632 0.0
C12 C 0.96313 0.04594 0.49025 0.0
C13 C 0.95557 0.06801 0.50068 0.0
C14 C 0.96963 0.06936 0.52413 0.0
C15 C 0.98497 0.04822 0.52662 0.0
N16 N 0.02152 0.0035 0.53562 0.0
C17 C 0.01982 0.0215 0.553 0.0
C18 C 0.03564 0.01733 0.57563 0.0
C19 C 0.04805 0.99519 0.57277 0.0
C20 C 0.0392 0.9872 0.54828 0.0
N21 N 0.02471 0.02061 0.47965 0.0
C22 C 0.05834 0.0486 0.44847 0.0
C23 C 0.0523 0.05481 0.47439 0.0
C24 C 0.03559 0.04073 0.48946 0.0
C25 C 0.0473 0.02805 0.43852 0.0
C26 C 0.03076 0.01443 0.45431 0.0
N27 N 0.97641 0.98191 0.52289 0.0
C28 C 0.95101 0.97659 0.56211 0.0
C29 C 0.94321 0.95374 0.5544 0.0
C30 C 0.95218 0.94537 0.53048 0.0
C31 C 0.96858 0.95962 0.51517 0.0
C32 C 0.96744 0.99023 0.54621 0.0
H33 H 0.97473 0.95215 0.49722 0.0
H34 H 0.97276 0.00737 0.55335 0.0
H35 H 0.03177 0.04655 0.50897 0.0
H36 H 0.023 0.99909 0.44542 0.0
C37 C 0.99844 0.9608 0.45457 0.0
C38 C 0.04748 0.96361 0.53842 0.0
C39 C 0.95294 0.0383 0.4646 0.0
C40 C 0.00281 0.04187 0.54779 0.0
H41 H 0.06196 0.92255 0.50837 0.0
H42 H 0.03512 0.92076 0.46233 0.0
H43 H 0.96035 0.97149 0.41267 0.0
H44 H 0.9356 0.0142 0.41837 0.0
H45 H 0.94152 0.08184 0.49207 0.0
H46 H 0.96892 0.08412 0.53764 0.0
H47 H 0.03757 0.02878 0.59248 0.0
H48 H 0.06176 0.98585 0.58737 0.0
H49 H 0.0606 0.07035 0.48324 0.0
H50 H 0.05103 0.02263 0.41841 0.0
H51 H 0.94484 0.98377 0.58064 0.0
H52 H 0.94642 0.92797 0.52339 0.0
C53 C 0.2023 0.77914 0.73686 0.0
C54 C 0.1818 0.78825 0.7497 0.0
C55 C 0.18053 0.77371 0.7737 0.0
C56 C 0.20034 0.75677 0.77424 0.0
N57 N 0.21431 0.75967 0.75212 0.0
Co58 Co 0.24535 0.7397 0.74517 0.0
N59 N 0.24226 0.71702 0.77941 0.0
C60 C 0.22369 0.71765 0.79702 0.0
C61 C 0.22677 0.7 0.81887 0.0
C62 C 0.24868 0.68738 0.81514 0.0
C63 C 0.25773 0.69807 0.79104 0.0
N64 N 0.27687 0.72029 0.73871 0.0
C65 C 0.28933 0.70142 0.7545 0.0
C66 C 0.31095 0.69356 0.74275 0.0
C67 C 0.3125 0.70834 0.71898 0.0
C68 C 0.29181 0.72424 0.71753 0.0
N69 N 0.24791 0.76179 0.71038 0.0
C70 C 0.26557 0.76009 0.69183 0.0
C71 C 0.26167 0.77671 0.66917 0.0
C72 C 0.24007 0.78969 0.67328 0.0
C73 C 0.23212 0.78034 0.69848 0.0
N74 N 0.26531 0.76263 0.76569 0.0
C75 C 0.29432 0.79416 0.79528 0.0
C76 C 0.29908 0.79065 0.76826 0.0
C77 C 0.28462 0.77473 0.75403 0.0
C78 C 0.27474 0.78184 0.80722 0.0
C79 C 0.26043 0.7665 0.7921 0.0
N80 N 0.22539 0.71678 0.72467 0.0
C81 C 0.21971 0.69226 0.6863 0.0
C82 C 0.19648 0.68514 0.69494 0.0
C83 C 0.18808 0.69402 0.71885 0.0
C84 C 0.20268 0.70966 0.73326 0.0
C85 C 0.23372 0.70791 0.70133 0.0
H86 H 0.19516 0.71579 0.75126 0.0
H87 H 0.25115 0.71271 0.69351 0.0
H88 H 0.28957 0.7724 0.73371 0.0
H89 H 0.24557 0.75796 0.80232 0.0
C90 C 0.20513 0.73675 0.79408 0.0
C91 C 0.20912 0.78918 0.70986 0.0
C92 C 0.28177 0.69067 0.78092 0.0
C93 C 0.28565 0.74271 0.69631 0.0
H94 H 0.16886 0.80357 0.74229 0.0
H95 H 0.1665 0.77496 0.78865 0.0
H96 H 0.215 0.69729 0.83604 0.0
H97 H 0.25732 0.67252 0.82911 0.0
H98 H 0.32431 0.67877 0.75066 0.0
H99 H 0.32702 0.70763 0.70451 0.0
H100 H 0.27302 0.77892 0.65159 0.0
H101 H 0.23108 0.80417 0.65907 0.0
H102 H 0.31424 0.79974 0.7583 0.0
H103 H 0.27027 0.78426 0.82807 0.0
H104 H 0.22695 0.68615 0.66772 0.0
H105 H 0.17036 0.68878 0.72665 0.0
C106 C 0.45937 0.0407 0.00611 0.0
C107 C 0.4478 0.06198 0.99226 0.0
C108 C 0.4593 0.06592 0.96822 0.0
C109 C 0.47708 0.04683 0.96873 0.0
N110 N 0.4775 0.03081 0.99156 0.0
Co111 Co 0.50027 0.00042 0.00069 0.0
N112 N 0.5193 0.00802 0.96703 0.0
C113 C 0.51572 0.02818 0.94855 0.0
C114 C 0.53159 0.02825 0.92756 0.0
C115 C 0.54609 0.00679 0.93281 0.0
C116 C 0.53815 0.9948 0.95681 0.0
N117 N 0.52238 0.96948 0.00925 0.0
C118 C 0.54026 0.95946 0.99446 0.0
C119 C 0.55041 0.93701 0.00719 0.0
C120 C 0.5382 0.93245 0.03067 0.0
C121 C 0.52139 0.95228 0.03092 0.0
N122 N 0.48194 0.99344 0.03497 0.0
C123 C 0.48649 0.97413 0.05436 0.0
C124 C 0.47182 0.97504 0.07631 0.0
C125 C 0.45728 0.99645 0.07088 0.0
C126 C 0.46391 0.00732 0.04576 0.0
N127 N 0.47683 0.98063 0.98015 0.0
C128 C 0.44553 0.95131 0.9503 0.0
C129 C 0.45129 0.94492 0.978 0.0
C130 C 0.46703 0.95959 0.99237 0.0
C131 C 0.4553 0.97278 0.93785 0.0
C132 C 0.47053 0.98721 0.95309 0.0
N133 N 0.52367 0.02019 0.02117 0.0
C134 C 0.5515 0.02424 0.06025 0.0
C135 C 0.55551 0.04902 0.05115 0.0
C136 C 0.54348 0.05898 0.0266 0.0
C137 C 0.52786 0.04437 0.01206 0.0
C138 C 0.53566 0.0103 0.04509 0.0
H139 H 0.51919 0.05317 0.99361 0.0
H140 H 0.53332 0.99159 0.05322 0.0
H141 H 0.47119 0.95333 0.01325 0.0
H142 H 0.47708 0.00351 0.94242 0.0
C143 C 0.49551 0.04516 0.94982 0.0
C144 C 0.45325 0.03128 0.03353 0.0
C145 C 0.5479 0.97015 0.96807 0.0
C146 C 0.50467 0.95543 0.05132 0.0
H147 H 0.43301 0.07379 0.99916 0.0
H148 H 0.45579 0.08139 0.95272 0.0
H149 H 0.53191 0.04179 0.90995 0.0
H150 H 0.56035 0.00032 0.91996 0.0
H151 H 0.56498 0.92507 1.00009 0.0
H152 H 0.5411 0.91649 0.04566 0.0
H153 H 0.47194 0.96189 0.09429 0.0
H154 H 0.44361 0.00347 0.0841 0.0
H155 H 0.44418 0.92831 0.98839 0.0
H156 H 0.45103 0.97856 0.91645 0.0
H157 H 0.56068 0.01549 0.07893 0.0
H158 H 0.54567 0.07817 0.0188 0.0
C159 C 0.26428 0.27914 0.19801 0.0
C160 C 0.25349 0.28968 0.17327 0.0
C161 C 0.2316 0.2784 0.16946 0.0
C162 C 0.23028 0.26164 0.19193 0.0
N163 N 0.24994 0.26163 0.21002 0.0
Co164 Co 0.2558 0.2398 0.24518 0.0
N165 N 0.22436 0.22209 0.23861 0.0
C166 C 0.20832 0.2258 0.21654 0.0
C167 C 0.18818 0.21115 0.21806 0.0
C168 C 0.19138 0.19739 0.2427 0.0
C169 C 0.21337 0.20452 0.25482 0.0
N170 N 0.26143 0.21828 0.28057 0.0
C171 C 0.24668 0.20136 0.29293 0.0
C172 C 0.25708 0.19119 0.31798 0.0
C173 C 0.27907 0.20231 0.32178 0.0
C174 C 0.28081 0.21856 0.29895 0.0
N175 N 0.28746 0.25721 0.25154 0.0
C176 C 0.30391 0.2529 0.27322 0.0
C177 C 0.32418 0.26735 0.2716 0.0
C178 C 0.32068 0.28157 0.24728 0.0
C179 C 0.2984 0.27487 0.23539 0.0
N180 N 0.23699 0.26483 0.2645 0.0
C181 C 0.20912 0.29822 0.29345 0.0
C182 C 0.23317 0.28978 0.30266 0.0
C183 C 0.24662 0.27312 0.28807 0.0
C184 C 0.19945 0.29014 0.26922 0.0
C185 C 0.21366 0.27376 0.25507 0.0
N186 N 0.27464 0.21478 0.22583 0.0
C187 C 0.3112 0.18762 0.22254 0.0
C188 C 0.30294 0.18176 0.19674 0.0
C189 C 0.27998 0.19222 0.18605 0.0
C190 C 0.26628 0.20853 0.20079 0.0
C191 C 0.29683 0.20391 0.23666 0.0
H192 H 0.24917 0.21613 0.19128 0.0
H193 H 0.3042 0.2076 0.25618 0.0
H194 H 0.26461 0.26698 0.29649 0.0
H195 H 0.20527 0.26843 0.23668 0.0
C196 C 0.21171 0.24454 0.19571 0.0
C197 C 0.28868 0.28553 0.20856 0.0
C198 C 0.22239 0.19494 0.28223 0.0
C199 C 0.29996 0.23489 0.29461 0.0
H200 H 0.2609 0.30369 0.15912 0.0
H201 H 0.21853 0.28155 0.15203 0.0
H202 H 0.17265 0.21103 0.20337 0.0
H203 H 0.17867 0.18403 0.2511 0.0
H204 H 0.24935 0.17744 0.33221 0.0
H205 H 0.292 0.19927 0.33934 0.0
H206 H 0.33978 0.26735 0.28622 0.0
H207 H 0.33323 0.29518 0.23908 0.0
H208 H 0.24135 0.29547 0.32146 0.0
H209 H 0.18099 0.29651 0.26113 0.0
H210 H 0.3287 0.17963 0.23188 0.0
H211 H 0.27286 0.18838 0.16604 0.0
C212 C 0.76572 0.21958 0.30327 0.0
C213 C 0.75579 0.20925 0.32701 0.0
C214 C 0.7342 0.22269 0.33012 0.0
C215 C 0.73214 0.2403 0.30814 0.0
N216 N 0.75104 0.23885 0.29104 0.0
Co217 Co 0.7554 0.2607 0.25652 0.0
N218 N 0.7245 0.28147 0.2621 0.0
C219 C 0.70971 0.27916 0.2836 0.0
C220 C 0.69003 0.29636 0.28189 0.0
C221 C 0.69221 0.31036 0.2577 0.0
C222 C 0.71308 0.30071 0.24594 0.0
N223 N 0.75943 0.28223 0.22168 0.0
C224 C 0.74422 0.30087 0.20893 0.0
C225 C 0.75325 0.30994 0.18415 0.0
C226 C 0.77491 0.2966 0.18114 0.0
C227 C 0.77779 0.2801 0.20401 0.0
N228 N 0.78661 0.24021 0.25127 0.0
C229 C 0.80218 0.2434 0.23054 0.0
C230 C 0.82254 0.22702 0.23295 0.0
C231 C 0.82002 0.21265 0.25682 0.0
C232 C 0.79811 0.22109 0.26755 0.0
N233 N 0.7354 0.23794 0.23585 0.0
C234 C 0.70665 0.20623 0.20601 0.0
C235 C 0.73002 0.21317 0.19764 0.0
C236 C 0.74392 0.22891 0.21268 0.0
C237 C 0.69799 0.21541 0.22967 0.0
C238 C 0.71253 0.23105 0.24415 0.0
N239 N 0.77543 0.28343 0.27724 0.0
C240 C 0.81125 0.30862 0.28159 0.0
C241 C 0.80464 0.31446 0.30745 0.0
C242 C 0.783 0.3047 0.31777 0.0
C243 C 0.7688 0.28942 0.30247 0.0
C244 C 0.79653 0.29322 0.26699 0.0
H245 H 0.7526 0.28262 0.31158 0.0
H246 H 0.80275 0.28933 0.24756 0.0
H247 H 0.7615 0.23351 0.20511 0.0
H248 H 0.70479 0.23744 0.26191 0.0
C249 C 0.71372 0.25953 0.30408 0.0
C250 C 0.7895 0.21091 0.29369 0.0
C251 C 0.72064 0.30981 0.21892 0.0
C252 C 0.79719 0.26198 0.20912 0.0
H253 H 0.76359 0.19386 0.34088 0.0
H254 H 0.72179 0.22031 0.34676 0.0
H255 H 0.67549 0.29809 0.29617 0.0
H256 H 0.67958 0.32563 0.24938 0.0
H257 H 0.74489 0.32438 0.16945 0.0
H258 H 0.78686 0.29838 0.16404 0.0
H259 H 0.83755 0.22586 0.21915 0.0
H260 H 0.833 0.19782 0.2655 0.0
H261 H 0.73777 0.2063 0.17967 0.0
H262 H 0.67985 0.21091 0.23685 0.0
H263 H 0.828 0.31551 0.2728 0.0
H264 H 0.77685 0.30898 0.33753 0.0
C265 C 0.7012 0.72693 0.76204 0.0
C266 C 0.67948 0.7204 0.74883 0.0
C267 C 0.67679 0.73527 0.72486 0.0
C268 C 0.697 0.74985 0.72472 0.0
N269 N 0.71255 0.74512 0.74709 0.0
Co270 Co 0.74433 0.76176 0.755 0.0
N271 N 0.73916 0.78519 0.7209 0.0
C272 C 0.71932 0.7868 0.70287 0.0
C273 C 0.72115 0.80441 0.68126 0.0
C274 C 0.74357 0.81455 0.68559 0.0
C275 C 0.75417 0.80249 0.70972 0.0
N276 N 0.77654 0.77782 0.76241 0.0
C277 C 0.78837 0.79521 0.74682 0.0
C278 C 0.81105 0.80045 0.75899 0.0
C279 C 0.81389 0.78551 0.78289 0.0
C280 C 0.79288 0.77209 0.78396 0.0
N281 N 0.74906 0.73894 0.78961 0.0
C282 C 0.76805 0.73852 0.8086 0.0
C283 C 0.76561 0.72182 0.83088 0.0
C284 C 0.74358 0.71111 0.82606 0.0
C285 C 0.73389 0.72184 0.8009 0.0
N286 N 0.76263 0.7372 0.73459 0.0
C287 C 0.79015 0.70438 0.70465 0.0
C288 C 0.79669 0.70677 0.73196 0.0
C289 C 0.7829 0.72331 0.74638 0.0
C290 C 0.76935 0.71823 0.69271 0.0
C291 C 0.7558 0.73418 0.708 0.0
N292 N 0.72602 0.78633 0.77542 0.0
C293 C 0.72264 0.80987 0.81476 0.0
C294 C 0.69857 0.81874 0.80604 0.0
C295 C 0.68876 0.81164 0.78137 0.0
C296 C 0.70269 0.79565 0.7665 0.0
C297 C 0.73593 0.79385 0.79926 0.0
H298 H 0.69404 0.7909 0.74798 0.0
H299 H 0.75404 0.78752 0.8072 0.0
H300 H 0.78922 0.72475 0.76693 0.0
H301 H 0.74001 0.744 0.69775 0.0
C302 C 0.70067 0.76963 0.70519 0.0
C303 C 0.70985 0.71579 0.78907 0.0
C304 C 0.77917 0.80692 0.72023 0.0
C305 C 0.78798 0.75396 0.80484 0.0
H306 H 0.66668 0.70662 0.75602 0.0
H307 H 0.66155 0.73587 0.7097 0.0
H308 H 0.70819 0.80864 0.66386 0.0
H309 H 0.75153 0.82867 0.67203 0.0
H310 H 0.82428 0.81355 0.75122 0.0
H311 H 0.82954 0.78435 0.79758 0.0
H312 H 0.77821 0.71809 0.84866 0.0
H313 H 0.73544 0.69721 0.83974 0.0
H314 H 0.81279 0.69641 0.74196 0.0
H315 H 0.76346 0.71666 0.67165 0.0
H316 H 0.73103 0.81472 0.83383 0.0
H317 H 0.67036 0.81842 0.77347 0.0
C318 C 0.46367 0.50839 0.95093 0.0
C319 C 0.45714 0.49859 0.92664 0.0
C320 C 0.47234 0.47786 0.92531 0.0
C321 C 0.48732 0.47624 0.94863 0.0
N322 N 0.48252 0.49458 0.96499 0.0
Co323 Co 0.50082 0.50005 1.00019 0.0
N324 N 0.52417 0.47042 0.99725 0.0
C325 C 0.52445 0.45518 0.97688 0.0
C326 C 0.54268 0.43646 0.98046 0.0
C327 C 0.55464 0.43971 0.00474 0.0
C328 C 0.54283 0.46024 0.01467 0.0
N329 N 0.51916 0.50556 0.03537 0.0
C330 C 0.53817 0.49189 0.0493 0.0
C331 C 0.54482 0.50179 0.07349 0.0
C332 C 0.52954 0.52245 0.07489 0.0
C333 C 0.51439 0.52393 0.05169 0.0
N334 N 0.47744 0.52966 0.00317 0.0
C335 C 0.47705 0.54478 0.02363 0.0
C336 C 0.45878 0.56347 0.02008 0.0
C337 C 0.44692 0.56031 0.99572 0.0
C338 C 0.45884 0.53988 0.9857 0.0
N339 N 0.47792 0.47814 0.02067 0.0
C340 C 0.44594 0.44673 0.05013 0.0
C341 C 0.45195 0.46972 0.05898 0.0
C342 C 0.46783 0.48496 0.0441 0.0
C343 C 0.4562 0.43976 0.02623 0.0
C344 C 0.47197 0.4556 0.01195 0.0
N345 N 0.52369 0.52198 0.9797 0.0
C346 C 0.54473 0.56073 0.97359 0.0
C347 C 0.55503 0.5537 0.94973 0.0
C348 C 0.5495 0.53043 0.94128 0.0
C349 C 0.53395 0.51503 0.95641 0.0
C350 C 0.52929 0.54471 0.98814 0.0
H351 H 0.53035 0.4977 0.94868 0.0
H352 H 0.52204 0.5512 0.0061 0.0
H353 H 0.47176 0.5021 0.05212 0.0
H354 H 0.47913 0.44917 0.99393 0.0
C355 C 0.50694 0.45856 0.95497 0.0
C356 C 0.45222 0.53143 0.95916 0.0
C357 C 0.54966 0.46888 0.04107 0.0
C358 C 0.49465 0.5415 0.04546 0.0
H359 H 0.44323 0.5059 0.91112 0.0
H360 H 0.47286 0.46579 0.90892 0.0
H361 H 0.54662 0.422 0.96716 0.0
H362 H 0.57014 0.4281 0.01422 0.0
H363 H 0.55889 0.49459 0.08889 0.0
H364 H 0.52908 0.53457 0.09124 0.0
H365 H 0.4548 0.57789 0.03342 0.0
H366 H 0.43145 0.57194 0.98621 0.0
H367 H 0.44477 0.47584 0.07759 0.0
H368 H 0.45189 0.42225 0.01834 0.0
H369 H 0.54871 0.57843 0.98121 0.0
H370 H 0.55675 0.52424 0.92274 0.0
C371 C 0.03964 0.50667 0.54638 0.0
C372 C 0.05004 0.49479 0.5707 0.0
C373 C 0.03832 0.47298 0.57529 0.0
C374 C 0.02152 0.47275 0.55362 0.0
N375 N 0.02189 0.49305 0.53534 0.0
Co376 Co 0.00055 0.50019 0.50083 0.0
N377 N 0.98163 0.46938 0.50907 0.0
C378 C 0.98396 0.45348 0.53202 0.0
C379 C 0.9682 0.4342 0.53203 0.0
C380 C 0.95513 0.43788 0.50753 0.0
C381 C 0.96386 0.45919 0.49388 0.0
N382 N 0.98007 0.50665 0.46564 0.0
C383 C 0.96321 0.49236 0.45404 0.0
C384 C 0.95472 0.50286 0.42833 0.0
C385 C 0.96668 0.52448 0.42346 0.0
C386 C 0.98186 0.52586 0.44625 0.0
N387 N 0.01865 0.53165 0.49325 0.0
C388 C 0.0147 0.54883 0.47153 0.0
C389 C 0.02903 0.56913 0.47256 0.0
C390 C 0.0427 0.56491 0.49663 0.0
C391 C 0.03586 0.54217 0.5089 0.0
N392 N 0.02538 0.48097 0.48143 0.0
C393 C 0.05804 0.45252 0.45199 0.0
C394 C 0.05231 0.47767 0.44374 0.0
C395 C 0.03597 0.49143 0.45857 0.0
C396 C 0.04774 0.44202 0.47561 0.0
C397 C 0.03179 0.45651 0.49003 0.0
N398 N 0.97569 0.51942 0.52024 0.0
C399 C 0.94614 0.5545 0.52111 0.0
C400 C 0.94225 0.5482 0.54871 0.0
C401 C 0.9551 0.52691 0.56159 0.0
C402 C 0.97136 0.51282 0.54708 0.0
C403 C 0.96288 0.54009 0.50746 0.0
H404 H 0.98043 0.49683 0.55818 0.0
H405 H 0.96523 0.5462 0.48661 0.0
H406 H 0.03192 0.51037 0.45089 0.0
H407 H 0.02468 0.4474 0.50794 0.0
C408 C 0.00314 0.45544 0.55159 0.0
C409 C 0.04602 0.53155 0.53557 0.0
C410 C 0.95542 0.46839 0.46612 0.0
C411 C 0.99781 0.54506 0.4502 0.0
H412 H 0.06407 0.50154 0.5842 0.0
H413 H 0.04098 0.45943 0.59291 0.0
H414 H 0.96703 0.41877 0.54754 0.0
H415 H 0.94119 0.42589 0.50024 0.0
H416 H 0.94152 0.4955 0.41432 0.0
H417 H 0.96477 0.53747 0.40532 0.0
H418 H 0.02942 0.58514 0.45764 0.0
H419 H 0.0561 0.57723 0.50437 0.0
H420 H 0.05984 0.48655 0.42548 0.0
H421 H 0.05203 0.42267 0.483 0.0
H422 H 0.93632 0.57048 0.50991 0.0
H423 H 0.95311 0.52127 0.58301 0.0
C424 C 0.07554 0.08963 0.43181 0.0
C425 C 0.07586 0.0635 0.43187 0.0
C426 C 0.09183 0.10363 0.41602 0.0
C427 C 0.1301 0.10126 0.35598 0.0
H428 H 0.16336 0.15583 0.38581 0.0
C429 C 0.20655 0.15366 0.29903 0.0
C430 C 0.20621 0.1796 0.29983 0.0
C431 C 0.19103 0.13928 0.31545 0.0
C432 C 0.15401 0.14084 0.37705 0.0
H433 H 0.09401 0.03162 0.41565 0.0
H434 H 0.12222 0.05607 0.38795 0.0
H435 H 0.13547 0.13121 0.41384 0.0
H436 H 0.18984 0.21111 0.31795 0.0
H437 H 0.16237 0.18613 0.34653 0.0
H438 H 0.14843 0.11098 0.31911 0.0
C439 C 0.10914 0.06574 0.3999 0.0
C440 C 0.13804 0.12672 0.39314 0.0
C441 C 0.09293 0.05173 0.41576 0.0
C442 C 0.19032 0.19106 0.31722 0.0
C443 C 0.17477 0.17672 0.33362 0.0
C444 C 0.14601 0.11543 0.33986 0.0
C445 C 0.10877 0.09186 0.39982 0.0
C446 C 0.12589 0.10677 0.38278 0.0
C447 C 0.1749 0.15064 0.33292 0.0
C448 C 0.15815 0.13541 0.35018 0.0
H449 H 0.06238 0.09937 0.44359 0.0
H450 H 0.09082 0.12375 0.41612 0.0
H451 H 0.12074 0.08626 0.34726 0.0
H452 H 0.2188 0.14458 0.2857 0.0
H453 H 0.19185 0.11924 0.31465 0.0
C454 C 0.05535 0.92286 0.56667 0.0
C455 C 0.06421 0.94564 0.55603 0.0
C456 C 0.07095 0.9059 0.58336 0.0
C457 C 0.12602 0.90208 0.62977 0.0
H458 H 0.1305 0.83229 0.61619 0.0
C459 C 0.19886 0.83213 0.68709 0.0
C460 C 0.19196 0.80756 0.69335 0.0
C461 C 0.18303 0.84912 0.67069 0.0
C462 C 0.12919 0.85162 0.62058 0.0
H463 H 0.09611 0.96863 0.55379 0.0
H464 H 0.12346 0.9391 0.58354 0.0
H465 H 0.10324 0.86159 0.58671 0.0
H466 H 0.16312 0.78145 0.68846 0.0
H467 H 0.13491 0.81129 0.66056 0.0
H468 H 0.15149 0.89219 0.66395 0.0
C469 C 0.10445 0.93441 0.57908 0.0
C470 C 0.11366 0.8684 0.60359 0.0
C471 C 0.08892 0.95121 0.56209 0.0
C472 C 0.16878 0.80034 0.68364 0.0
C473 C 0.15281 0.81737 0.6675 0.0
C474 C 0.14134 0.88526 0.64698 0.0
C475 C 0.0956 0.91159 0.58987 0.0
C476 C 0.112 0.8938 0.60796 0.0
C477 C 0.15983 0.84192 0.66057 0.0
C478 C 0.1432 0.85981 0.64255 0.0
H479 H 0.03631 0.91828 0.56214 0.0
H480 H 0.06364 0.88851 0.59155 0.0
H481 H 0.12483 0.92153 0.63379 0.0
H482 H 0.21668 0.83802 0.69454 0.0
H483 H 0.18922 0.86773 0.66553 0.0
C484 C 0.40663 0.9283 0.94366 0.0
C485 C 0.42973 0.9355 0.93437 0.0
C486 C 0.3917 0.91348 0.92849 0.0
C487 C 0.38398 0.89091 0.85917 0.0
H488 H 0.34246 0.84347 0.89697 0.0
C489 C 0.31417 0.83478 0.80025 0.0
C490 C 0.30975 0.81045 0.81102 0.0
C491 C 0.32842 0.85027 0.81531 0.0
C492 C 0.35417 0.85635 0.886 0.0
H493 H 0.45567 0.93252 0.90235 0.0
H494 H 0.43026 0.90581 0.87642 0.0
H495 H 0.36861 0.86905 0.92306 0.0
H496 H 0.31712 0.78295 0.84559 0.0
H497 H 0.34288 0.80942 0.87146 0.0
H498 H 0.37063 0.8772 0.8222 0.0
C499 C 0.42308 0.91225 0.89485 0.0
C500 C 0.36891 0.87143 0.90103 0.0
C501 C 0.43777 0.92744 0.90978 0.0
C502 C 0.32005 0.80176 0.83698 0.0
C503 C 0.33468 0.81705 0.85185 0.0
C504 C 0.36958 0.87551 0.84417 0.0
C505 C 0.39975 0.90512 0.9039 0.0
C506 C 0.38399 0.889 0.88785 0.0
C507 C 0.33898 0.8416 0.84132 0.0
C508 C 0.3544 0.85803 0.85734 0.0
H509 H 0.39994 0.93448 0.96246 0.0
H510 H 0.37369 0.90889 0.93593 0.0
H511 H 0.39497 0.90444 0.84814 0.0
H512 H 0.3062 0.84199 0.78037 0.0
H513 H 0.33081 0.86916 0.80666 0.0
C514 C 0.30749 0.14728 0.16598 0.0
C515 C 0.31841 0.16543 0.18076 0.0
C516 C 0.32198 0.13247 0.15027 0.0
C517 C 0.38094 0.13143 0.11522 0.0
H518 H 0.3716 0.06044 0.11576 0.0
C519 C 0.4479 0.0659 0.06338 0.0
C520 C 0.43743 0.0469 0.04975 0.0
C521 C 0.43322 0.08038 0.07922 0.0
C522 C 0.37423 0.08029 0.1151 0.0
H523 H 0.35311 0.18229 0.19059 0.0
H524 H 0.37844 0.15628 0.16339 0.0
H525 H 0.34631 0.08547 0.14399 0.0
H526 H 0.40378 0.02799 0.04135 0.0
H527 H 0.37777 0.05355 0.06873 0.0
H528 H 0.40871 0.12637 0.08621 0.0
C529 C 0.35864 0.1536 0.16383 0.0
C530 C 0.35976 0.09462 0.13132 0.0
C531 C 0.34418 0.16831 0.17965 0.0
C532 C 0.4121 0.04259 0.05187 0.0
C533 C 0.39736 0.05709 0.06766 0.0
C534 C 0.39534 0.11714 0.09892 0.0
C535 C 0.34769 0.13559 0.14887 0.0
C536 C 0.363 0.12033 0.13161 0.0
C537 C 0.40777 0.07612 0.08161 0.0
C538 C 0.39221 0.09138 0.09871 0.0
H539 H 0.28772 0.14447 0.16662 0.0
H540 H 0.31297 0.11887 0.13883 0.0
H541 H 0.38361 0.15128 0.11467 0.0
H542 H 0.4675 0.06935 0.06197 0.0
H543 H 0.44192 0.09462 0.08996 0.0
C544 C 0.90606 0.9503 0.5835 0.0
C545 C 0.92606 0.93869 0.57128 0.0
C546 C 0.8901 0.93616 0.59957 0.0
C547 C 0.88642 0.87487 0.63927 0.0
H548 H 0.81537 0.89109 0.6337 0.0
C549 C 0.81567 0.81067 0.69081 0.0
C550 C 0.79587 0.82223 0.70319 0.0
C551 C 0.83155 0.82496 0.6748 0.0
C552 C 0.8352 0.88649 0.63572 0.0
H553 H 0.94503 0.90305 0.56665 0.0
H554 H 0.91689 0.87836 0.59419 0.0
H555 H 0.84302 0.91581 0.60547 0.0
H556 H 0.77704 0.85746 0.70917 0.0
H557 H 0.80487 0.88269 0.68124 0.0
H558 H 0.8786 0.84551 0.66948 0.0
C559 C 0.9137 0.89845 0.59157 0.0
C560 C 0.85105 0.90066 0.61954 0.0
C561 C 0.92966 0.91258 0.57549 0.0
C562 C 0.79217 0.84826 0.69956 0.0
C563 C 0.808 0.86259 0.6835 0.0
C564 C 0.87057 0.86068 0.65543 0.0
C565 C 0.89375 0.91006 0.60385 0.0
C566 C 0.87686 0.89502 0.6211 0.0
C567 C 0.82789 0.85111 0.67093 0.0
C568 C 0.84476 0.8663 0.65384 0.0
H569 H 0.90259 0.97034 0.58045 0.0
H570 H 0.87507 0.94574 0.60893 0.0
H571 H 0.90624 0.87026 0.64132 0.0
H572 H 0.81875 0.79056 0.69344 0.0
H573 H 0.84649 0.81551 0.66516 0.0
C574 C 0.91063 0.05852 0.45303 0.0
C575 C 0.93571 0.05564 0.44698 0.0
C576 C 0.89449 0.07506 0.43643 0.0
C577 C 0.89413 0.13052 0.38685 0.0
H578 H 0.82763 0.11165 0.36665 0.0
C579 C 0.81992 0.201 0.3332 0.0
C580 C 0.80578 0.19282 0.31151 0.0
C581 C 0.83556 0.18409 0.34991 0.0
C582 C 0.8462 0.11712 0.372 0.0
H583 H 0.96388 0.06716 0.4192 0.0
H584 H 0.93569 0.09611 0.38993 0.0
H585 H 0.85559 0.08214 0.3952 0.0
H586 H 0.79635 0.16105 0.29002 0.0
H587 H 0.82383 0.13123 0.31922 0.0
H588 H 0.88487 0.16538 0.3634 0.0
C589 C 0.92846 0.08589 0.40758 0.0
C590 C 0.86211 0.10033 0.38856 0.0
C591 C 0.94454 0.0693 0.42414 0.0
C592 C 0.8072 0.16757 0.30676 0.0
C593 C 0.82277 0.1506 0.32351 0.0
C594 C 0.87819 0.14734 0.3704 0.0
C595 C 0.90326 0.089 0.41357 0.0
C596 C 0.88627 0.10683 0.39612 0.0
C597 C 0.8372 0.15871 0.34521 0.0
C598 C 0.85406 0.14082 0.36277 0.0
H599 H 0.9036 0.04805 0.47066 0.0
H600 H 0.87525 0.07723 0.44173 0.0
H601 H 0.91255 0.13617 0.39254 0.0
H602 H 0.8189 0.22048 0.33712 0.0
H603 H 0.84619 0.19084 0.36666 0.0
C604 C 0.67733 0.17132 0.20349 0.0
C605 C 0.69139 0.18969 0.19012 0.0
C606 C 0.66291 0.15589 0.18855 0.0
C607 C 0.63359 0.15171 0.11975 0.0
H608 H 0.62999 0.08169 0.14496 0.0
C609 C 0.58741 0.08154 0.05401 0.0
C610 C 0.57185 0.06446 0.06722 0.0
C611 C 0.60225 0.09651 0.06904 0.0
C612 C 0.63063 0.10126 0.13779 0.0
H613 H 0.70108 0.20629 0.15044 0.0
H614 H 0.67655 0.17895 0.12445 0.0
H615 H 0.65541 0.10838 0.17102 0.0
H616 H 0.5597 0.04992 0.10672 0.0
H617 H 0.5858 0.07589 0.13292 0.0
H618 H 0.60893 0.14451 0.08641 0.0
C619 C 0.67637 0.17669 0.14651 0.0
C620 C 0.64516 0.11658 0.15275 0.0
C621 C 0.69072 0.19217 0.16144 0.0
C622 C 0.57173 0.06257 0.09588 0.0
C623 C 0.58666 0.07749 0.11091 0.0
C624 C 0.61914 0.13637 0.10474 0.0
C625 C 0.66224 0.15837 0.15986 0.0
C626 C 0.64682 0.14201 0.14393 0.0
C627 C 0.60199 0.09473 0.09766 0.0
C628 C 0.61748 0.11097 0.11359 0.0
H629 H 0.67761 0.16868 0.22555 0.0
H630 H 0.65206 0.14218 0.19952 0.0
H631 H 0.63407 0.17129 0.11259 0.0
H632 H 0.58831 0.08319 0.03201 0.0
H633 H 0.61416 0.10933 0.05824 0.0
C634 C 0.55395 0.93534 0.93858 0.0
C635 C 0.56395 0.95494 0.95162 0.0
C636 C 0.56897 0.92077 0.92318 0.0
C637 C 0.62767 0.9209 0.88706 0.0
H638 H 0.62041 0.84937 0.89142 0.0
C639 C 0.69446 0.85389 0.83609 0.0
C640 C 0.68355 0.83478 0.82281 0.0
C641 C 0.68027 0.86875 0.85207 0.0
C642 C 0.62249 0.86935 0.88976 0.0
H643 H 0.59713 0.97484 0.95932 0.0
H644 H 0.62368 0.94922 0.9325 0.0
H645 H 0.59497 0.87489 0.91892 0.0
H646 H 0.64922 0.81613 0.81617 0.0
H647 H 0.62443 0.84226 0.84362 0.0
H648 H 0.65521 0.9153 0.85785 0.0
C649 C 0.6042 0.94526 0.93379 0.0
C650 C 0.6079 0.88398 0.90552 0.0
C651 C 0.58914 0.95982 0.9492 0.0
C652 C 0.65814 0.83087 0.82587 0.0
C653 C 0.64399 0.84566 0.84188 0.0
C654 C 0.64229 0.90624 0.8713 0.0
C655 C 0.59429 0.92553 0.92062 0.0
C656 C 0.61022 0.90995 0.90425 0.0
C657 C 0.65489 0.86474 0.85521 0.0
C658 C 0.63977 0.88031 0.87237 0.0
H659 H 0.53449 0.93139 0.94026 0.0
H660 H 0.56066 0.90596 0.91301 0.0
H661 H 0.62969 0.94089 0.88533 0.0
H662 H 0.71394 0.85752 0.83397 0.0
H663 H 0.68927 0.88316 0.86226 0.0
C664 C 0.5654 0.59637 0.92964 0.0
C665 C 0.57123 0.57054 0.93364 0.0
C666 C 0.58038 0.61212 0.91409 0.0
C667 C 0.64346 0.61584 0.88757 0.0
H668 H 0.61236 0.66853 0.83678 0.0
C669 C 0.69953 0.67329 0.80903 0.0
C670 C 0.69365 0.69901 0.80507 0.0
C671 C 0.6845 0.6576 0.82457 0.0
C672 C 0.62135 0.65408 0.85108 0.0
H673 H 0.59765 0.54113 0.92475 0.0
H674 H 0.62351 0.56853 0.89724 0.0
H675 H 0.58646 0.6413 0.86448 0.0
H676 H 0.66769 0.72872 0.81371 0.0
H677 H 0.64134 0.70138 0.84113 0.0
H678 H 0.67835 0.62861 0.87418 0.0
C679 C 0.60747 0.57664 0.90632 0.0
C680 C 0.6065 0.63848 0.86698 0.0
C681 C 0.59248 0.56089 0.92184 0.0
C682 C 0.67243 0.70887 0.81656 0.0
C683 C 0.65736 0.6932 0.83209 0.0
C684 C 0.65831 0.63144 0.87169 0.0
C685 C 0.60157 0.60244 0.90219 0.0
C686 C 0.61738 0.61915 0.88541 0.0
C687 C 0.66327 0.66738 0.83638 0.0
C688 C 0.64744 0.65074 0.85323 0.0
H689 H 0.54904 0.60439 0.9382 0.0
H690 H 0.57545 0.63194 0.91155 0.0
H691 H 0.65246 0.60138 0.90187 0.0
H692 H 0.7158 0.6654 0.80015 0.0
H693 H 0.68937 0.63777 0.82714 0.0
C694 C 0.70904 0.35155 0.19373 0.0
C695 C 0.70331 0.32675 0.20085 0.0
C696 C 0.69264 0.36734 0.17656 0.0
C697 C 0.63938 0.36583 0.12631 0.0
H698 H 0.62971 0.43565 0.13848 0.0
C699 C 0.56052 0.42992 0.07149 0.0
C700 C 0.56733 0.45331 0.06016 0.0
C701 C 0.57731 0.41477 0.08878 0.0
C702 C 0.63239 0.41623 0.13474 0.0
H703 H 0.67603 0.29895 0.19656 0.0
H704 H 0.6469 0.3266 0.16723 0.0
H705 H 0.6585 0.40857 0.16878 0.0
H706 H 0.59669 0.47942 0.05767 0.0
H707 H 0.62614 0.45305 0.08845 0.0
H708 H 0.61286 0.37347 0.09259 0.0
C709 C 0.6643 0.33381 0.17412 0.0
C710 C 0.64893 0.40071 0.15202 0.0
C711 C 0.68081 0.31802 0.19105 0.0
C712 C 0.59109 0.46148 0.06646 0.0
C713 C 0.60781 0.44646 0.08403 0.0
C714 C 0.62268 0.38128 0.10923 0.0
C715 C 0.67006 0.35864 0.16649 0.0
C716 C 0.65261 0.37529 0.14804 0.0
C717 C 0.60113 0.42288 0.09521 0.0
C718 C 0.619 0.40662 0.11329 0.0
H719 H 0.72629 0.35862 0.20129 0.0
H720 H 0.69783 0.38623 0.17089 0.0
H721 H 0.64211 0.3465 0.12225 0.0
H722 H 0.54223 0.42334 0.0668 0.0
H723 H 0.5716 0.39679 0.09732 0.0
C724 C 0.83091 0.35158 0.31103 0.0
C725 C 0.82026 0.33041 0.32364 0.0
C726 C 0.84556 0.36656 0.32632 0.0
C727 C 0.88273 0.36568 0.39129 0.0
H728 H 0.87574 0.43774 0.37741 0.0
C729 C 0.95031 0.43088 0.44044 0.0
C730 C 0.93986 0.45267 0.44971 0.0
C731 C 0.93576 0.41598 0.425 0.0
C732 C 0.8778 0.41765 0.38167 0.0
H733 H 0.81696 0.30821 0.36219 0.0
H734 H 0.84211 0.33455 0.38891 0.0
H735 H 0.85002 0.41172 0.35081 0.0
H736 H 0.90627 0.47604 0.45073 0.0
H737 H 0.88059 0.44994 0.42377 0.0
H738 H 0.91018 0.37161 0.42248 0.0
C739 C 0.83932 0.33948 0.36715 0.0
C740 C 0.86326 0.40273 0.36621 0.0
C741 C 0.82465 0.32454 0.35189 0.0
C742 C 0.91465 0.45934 0.44353 0.0
C743 C 0.90007 0.44448 0.42803 0.0
C744 C 0.8973 0.3806 0.40671 0.0
C745 C 0.84994 0.36067 0.35456 0.0
C746 C 0.86553 0.37656 0.37086 0.0
C747 C 0.91047 0.42261 0.41857 0.0
C748 C 0.89499 0.40676 0.40211 0.0
H749 H 0.82772 0.35676 0.28936 0.0
H750 H 0.85366 0.38261 0.31594 0.0
H751 H 0.88513 0.34559 0.39521 0.0
H752 H 0.96978 0.4255 0.44506 0.0
H753 H 0.94441 0.39943 0.41778 0.0
C754 C 0.81147 0.6631 0.69855 0.0
C755 C 0.80515 0.68791 0.68854 0.0
C756 C 0.82554 0.64757 0.68319 0.0
C757 C 0.84686 0.64271 0.61266 0.0
H758 H 0.89422 0.59314 0.64958 0.0
C759 C 0.92339 0.59002 0.5582 0.0
C760 C 0.92534 0.5639 0.56407 0.0
C761 C 0.90797 0.60479 0.57298 0.0
C762 C 0.88093 0.6068 0.63905 0.0
H763 H 0.80897 0.71618 0.65506 0.0
H764 H 0.83432 0.68953 0.62867 0.0
H765 H 0.8693 0.61988 0.67634 0.0
H766 H 0.91192 0.53297 0.58993 0.0
H767 H 0.88578 0.55895 0.61631 0.0
H768 H 0.85934 0.63004 0.57533 0.0
C769 C 0.82776 0.68164 0.64789 0.0
C770 C 0.86652 0.62207 0.65435 0.0
C771 C 0.81334 0.697 0.66305 0.0
C772 C 0.91137 0.55301 0.58513 0.0
C773 C 0.89627 0.56784 0.60019 0.0
C774 C 0.86158 0.62771 0.59738 0.0
C775 C 0.83397 0.65665 0.65767 0.0
C776 C 0.84925 0.64024 0.64138 0.0
C777 C 0.89444 0.59385 0.59425 0.0
C778 C 0.8787 0.6096 0.61044 0.0
H779 H 0.80517 0.6556 0.71808 0.0
H780 H 0.8295 0.62836 0.69123 0.0
H781 H 0.83344 0.65607 0.6019 0.0
H782 H 0.93418 0.59919 0.54255 0.0
H783 H 0.90706 0.62485 0.5682 0.0
C784 C 0.40809 0.44012 0.07752 0.0
C785 C 0.42923 0.43013 0.06581 0.0
C786 C 0.39254 0.42456 0.09252 0.0
C787 C 0.3753 0.35883 0.10382 0.0
H788 H 0.34962 0.37987 0.17082 0.0
C789 C 0.32506 0.2923 0.17945 0.0
C790 C 0.3042 0.30221 0.19154 0.0
C791 C 0.34001 0.30796 0.16377 0.0
C792 C 0.35638 0.37384 0.15199 0.0
H793 H 0.45072 0.39591 0.06099 0.0
H794 H 0.4236 0.36878 0.08717 0.0
H795 H 0.37626 0.40706 0.14408 0.0
H796 H 0.28238 0.33587 0.19708 0.0
H797 H 0.3083 0.36344 0.16931 0.0
H798 H 0.35546 0.32558 0.11178 0.0
C799 C 0.41883 0.38862 0.08439 0.0
C800 C 0.37166 0.38943 0.13665 0.0
C801 C 0.43438 0.40418 0.06938 0.0
C802 C 0.29842 0.32795 0.18781 0.0
C803 C 0.31334 0.34365 0.17212 0.0
C804 C 0.36001 0.34324 0.11916 0.0
C805 C 0.39775 0.39863 0.09619 0.0
C806 C 0.38134 0.3821 0.1124 0.0
C807 C 0.33435 0.33384 0.15993 0.0
C808 C 0.3504 0.35054 0.14345 0.0
H809 H 0.40335 0.45997 0.0748 0.0
H810 H 0.37623 0.43284 0.10096 0.0
H811 H 0.38211 0.35278 0.08502 0.0
H812 H 0.32983 0.27245 0.18229 0.0
H813 H 0.35622 0.29984 0.15501 0.0
C814 C 0.29467 0.64847 0.80426 0.0
C815 C 0.29951 0.6737 0.79845 0.0
C816 C 0.31125 0.63274 0.82124 0.0
C817 C 0.36304 0.6346 0.87331 0.0
H818 H 0.3748 0.56536 0.85972 0.0
C819 C 0.4417 0.57069 0.9291 0.0
C820 C 0.43479 0.54717 0.93995 0.0
C821 C 0.42518 0.58592 0.91157 0.0
C822 C 0.37154 0.58462 0.86382 0.0
H823 H 0.32549 0.70231 0.80477 0.0
H824 H 0.35503 0.67476 0.83366 0.0
H825 H 0.34634 0.59243 0.82902 0.0
H826 H 0.40547 0.52098 0.94144 0.0
H827 H 0.37655 0.54748 0.91016 0.0
H828 H 0.38874 0.6268 0.90778 0.0
C829 C 0.33813 0.66715 0.82596 0.0
C830 C 0.35517 0.60013 0.84633 0.0
C831 C 0.32139 0.6829 0.80926 0.0
C832 C 0.41117 0.539 0.933 0.0
C833 C 0.39474 0.55409 0.91516 0.0
C834 C 0.37962 0.61917 0.89058 0.0
C835 C 0.33317 0.6419 0.83239 0.0
C836 C 0.35068 0.62533 0.85087 0.0
C837 C 0.40156 0.57775 0.90441 0.0
C838 C 0.38399 0.59404 0.88602 0.0
H839 H 0.2779 0.64106 0.79591 0.0
H840 H 0.30665 0.61352 0.82598 0.0
H841 H 0.35968 0.65372 0.87783 0.0
H842 H 0.45987 0.57727 0.9343 0.0
H843 H 0.43094 0.604 0.90341 0.0
C844 C 0.19221 0.64864 0.66696 0.0
C845 C 0.18109 0.66876 0.67903 0.0
C846 C 0.17777 0.63342 0.65178 0.0
C847 C 0.11321 0.61446 0.64077 0.0
H848 H 0.13718 0.59368 0.57289 0.0
C849 C 0.05081 0.56658 0.56496 0.0
C850 C 0.06172 0.54677 0.55239 0.0
C851 C 0.0655 0.58114 0.58068 0.0
C852 C 0.13035 0.59906 0.59196 0.0
H853 H 0.14603 0.68881 0.68425 0.0
H854 H 0.12085 0.66224 0.65785 0.0
H855 H 0.16257 0.61962 0.5999 0.0
H856 H 0.09616 0.52648 0.54592 0.0
H857 H 0.12204 0.55175 0.5737 0.0
H858 H 0.08098 0.59394 0.63281 0.0
C859 C 0.14072 0.658 0.66046 0.0
C860 C 0.1449 0.61394 0.60744 0.0
C861 C 0.15516 0.67324 0.67562 0.0
C862 C 0.08749 0.54171 0.55557 0.0
C863 C 0.10222 0.55626 0.57128 0.0
C864 C 0.09866 0.59957 0.62529 0.0
C865 C 0.15185 0.63793 0.64832 0.0
C866 C 0.13649 0.62187 0.632 0.0
C867 C 0.09139 0.57616 0.58403 0.0
C868 C 0.10702 0.59174 0.60066 0.0
H869 H 0.21208 0.64442 0.66953 0.0
H870 H 0.18688 0.61789 0.64304 0.0
H871 H 0.10635 0.61991 0.6598 0.0
H872 H 0.03092 0.57078 0.56255 0.0
H873 H 0.05662 0.59652 0.58987 0.0
C874 C 0.16926 0.30947 0.31467 0.0
C875 C 0.19398 0.31481 0.30935 0.0
C876 C 0.1551 0.32466 0.33026 0.0
C877 C 0.14896 0.38766 0.35182 0.0
H878 H 0.11271 0.35657 0.41105 0.0
C879 C 0.09674 0.44584 0.42646 0.0
C880 C 0.07415 0.43712 0.43578 0.0
C881 C 0.11191 0.43112 0.41131 0.0
C882 C 0.12239 0.36559 0.39435 0.0
H883 H 0.22314 0.34041 0.31572 0.0
H884 H 0.19819 0.36723 0.34277 0.0
H885 H 0.13779 0.33066 0.38363 0.0
H886 H 0.04937 0.40652 0.43601 0.0
H887 H 0.07536 0.38114 0.40899 0.0
H888 H 0.13311 0.42255 0.36195 0.0
C889 C 0.18988 0.35121 0.33495 0.0
C890 C 0.13685 0.35071 0.37873 0.0
C891 C 0.20417 0.33581 0.31966 0.0
C892 C 0.06689 0.41354 0.42943 0.0
C893 C 0.08187 0.39896 0.41403 0.0
C894 C 0.13424 0.40256 0.36723 0.0
C895 C 0.16527 0.34567 0.34055 0.0
C896 C 0.15023 0.36158 0.35729 0.0
C897 C 0.10466 0.40747 0.40487 0.0
C898 C 0.1207 0.39172 0.38867 0.0
H899 H 0.16101 0.29329 0.30716 0.0
H900 H 0.13611 0.32007 0.33412 0.0
H901 H 0.15892 0.39649 0.33523 0.0
H902 H 0.10287 0.46388 0.43128 0.0
H903 H 0.12949 0.43815 0.40501 0.0
loop_
_geom_bond_atom_site_label_1
_geom_bond_atom_site_label_2
_geom_bond_distance
_geom_bond_site_symmetry_2
_ccdc_geom_bond_type
C0 C1 1.443 . S
C0 N4 1.376 . S
C0 C38 1.389 . S
C1 C0 1.443 . S
C1 C2 1.340 . S
C1 H41 0.951 . S
C2 C1 1.340 . S
C2 C3 1.439 . S
C2 H42 0.950 . S
C3 C2 1.439 . S
C3 N4 1.374 . S
C3 C37 1.395 1_455 S
N4 C0 1.376 . S
N4 C3 1.374 . S
N4 Co5 2.007 1_565 S
Co5 N4 2.007 1_545 S
Co5 N6 1.989 1_445 S
Co5 N11 2.010 1_455 S
Co5 N16 1.995 . S
Co5 N21 2.283 . S
Co5 N27 2.282 1_445 S
N6 Co5 1.989 1_665 S
N6 C7 1.412 . S
N6 C10 1.352 1_565 S
C7 N6 1.412 . S
C7 C8 1.446 . S
C7 C37 1.391 . S
C8 C7 1.446 . S
C8 C9 1.339 1_565 S
C8 H43 0.949 . S
C9 C8 1.339 1_545 S
C9 C10 1.439 . S
C9 H44 0.950 . S
C10 N6 1.352 1_545 S
C10 C9 1.439 . S
C10 C39 1.392 . S
N11 Co5 2.010 1_655 S
N11 C12 1.376 . S
N11 C15 1.374 . S
C12 N11 1.376 . S
C12 C13 1.443 . S
C12 C39 1.389 . S
C13 C12 1.443 . S
C13 C14 1.340 . S
C13 H45 0.951 . S
C14 C13 1.340 . S
C14 C15 1.439 . S
C14 H46 0.950 . S
C15 N11 1.374 . S
C15 C14 1.439 . S
C15 C40 1.395 1_655 S
N16 Co5 1.995 . S
N16 C17 1.376 . S
N16 C20 1.383 1_545 S
C17 N16 1.376 . S
C17 C18 1.446 . S
C17 C40 1.391 . S
C18 C17 1.446 . S
C18 C19 1.339 1_545 S
C18 H47 0.949 . S
C19 C18 1.339 1_565 S
C19 C20 1.439 . S
C19 H48 0.950 . S
C20 N16 1.383 1_565 S
C20 C19 1.439 . S
C20 C38 1.392 . S
N21 Co5 2.283 . S
N21 C24 1.332 . S
N21 C26 1.332 . S
C22 C23 1.386 . S
C22 C25 1.388 . S
C23 C22 1.386 . S
C23 C24 1.382 . S
C23 H49 0.950 . S
C24 N21 1.332 . S
C24 C23 1.382 . S
C24 H35 0.952 . S
C25 C22 1.388 . S
C25 C26 1.382 . S
C25 H50 0.950 . S
C26 N21 1.332 . S
C26 C25 1.382 . S
C26 H36 0.948 . S
N27 Co5 2.282 1_665 S
N27 C31 1.332 . S
N27 C32 1.332 . S
C28 C29 1.388 . S
C28 C32 1.382 . S
C28 H51 0.950 . S
C29 C28 1.388 . S
C29 C30 1.386 . S
C30 C29 1.386 . S
C30 C31 1.382 . S
C30 H52 0.950 . S
C31 N27 1.332 . S
C31 C30 1.382 . S
C31 H33 0.952 . S
C32 N27 1.332 . S
C32 C28 1.382 . S
C32 H34 0.948 . S
H33 C31 0.952 . S
H34 C32 0.948 . S
H35 C24 0.952 . S
H36 C26 0.948 . S
C37 C3 1.395 1_655 S
C37 C7 1.391 . S
C38 C0 1.389 . S
C38 C20 1.392 . S
C39 C10 1.392 . S
C39 C12 1.389 . S
C40 C15 1.395 1_455 S
C40 C17 1.391 . S
H41 C1 0.951 . S
H42 C2 0.950 . S
H43 C8 0.949 . S
H44 C9 0.950 . S
H45 C13 0.951 . S
H46 C14 0.950 . S
H47 C18 0.949 . S
H48 C19 0.950 . S
H49 C23 0.950 . S
H50 C25 0.950 . S
H51 C28 0.950 . S
H52 C30 0.950 . S
C53 C54 1.443 . S
C53 N57 1.376 . S
C53 C91 1.389 . S
C54 C53 1.443 . S
C54 C55 1.340 . S
C54 H94 0.951 . S
C55 C54 1.340 . S
C55 C56 1.439 . S
C55 H95 0.950 . S
C56 C55 1.439 . S
C56 N57 1.374 . S
C56 C90 1.395 . S
N57 C53 1.376 . S
N57 C56 1.374 . S
N57 Co58 2.008 . S
Co58 N57 2.008 . S
Co58 N59 1.995 . S
Co58 N64 2.008 . S
Co58 N69 1.995 . S
Co58 N74 2.282 . S
Co58 N80 2.282 . S
N59 Co58 1.995 . S
N59 C60 1.376 . S
N59 C63 1.383 . S
C60 N59 1.376 . S
C60 C61 1.446 . S
C60 C90 1.391 . S
C61 C60 1.446 . S
C61 C62 1.339 . S
C61 H96 0.949 . S
C62 C61 1.339 . S
C62 C63 1.439 . S
C62 H97 0.950 . S
C63 N59 1.383 . S
C63 C62 1.439 . S
C63 C92 1.392 . S
N64 Co58 2.008 . S
N64 C65 1.376 . S
N64 C68 1.374 . S
C65 N64 1.376 . S
C65 C66 1.443 . S
C65 C92 1.389 . S
C66 C65 1.443 . S
C66 C67 1.340 . S
C66 H98 0.951 . S
C67 C66 1.340 . S
C67 C68 1.439 . S
C67 H99 0.950 . S
C68 N64 1.374 . S
C68 C67 1.439 . S
C68 C93 1.395 . S
N69 Co58 1.995 . S
N69 C70 1.376 . S
N69 C73 1.383 . S
C70 N69 1.376 . S
C70 C71 1.446 . S
C70 C93 1.391 . S
C71 C70 1.446 . S
C71 C72 1.339 . S
C71 H100 0.949 . S
C72 C71 1.339 . S
C72 C73 1.439 . S
C72 H101 0.950 . S
C73 N69 1.383 . S
C73 C72 1.439 . S
C73 C91 1.392 . S
N74 Co58 2.282 . S
N74 C77 1.332 . S
N74 C79 1.332 . S
C75 C76 1.386 . S
C75 C78 1.388 . S
C76 C75 1.386 . S
C76 C77 1.382 . S
C76 H102 0.950 . S
C77 N74 1.332 . S
C77 C76 1.382 . S
C77 H88 0.952 . S
C78 C75 1.388 . S
C78 C79 1.382 . S
C78 H103 0.950 . S
C79 N74 1.332 . S
C79 C78 1.382 . S
C79 H89 0.948 . S
N80 Co58 2.282 . S
N80 C84 1.332 . S
N80 C85 1.332 . S
C81 C82 1.388 . S
C81 C85 1.382 . S
C81 H104 0.950 . S
C82 C81 1.388 . S
C82 C83 1.386 . S
C83 C82 1.386 . S
C83 C84 1.382 . S
C83 H105 0.950 . S
C84 N80 1.332 . S
C84 C83 1.382 . S
C84 H86 0.952 . S
C85 N80 1.332 . S
C85 C81 1.382 . S
C85 H87 0.948 . S
H86 C84 0.952 . S
H87 C85 0.948 . S
H88 C77 0.952 . S
H89 C79 0.948 . S
C90 C56 1.395 . S
C90 C60 1.391 . S
C91 C53 1.389 . S
C91 C73 1.392 . S
C92 C63 1.392 . S
C92 C65 1.389 . S
C93 C68 1.395 . S
C93 C70 1.391 . S
H94 C54 0.951 . S
H95 C55 0.950 . S
H96 C61 0.949 . S
H97 C62 0.950 . S
H98 C66 0.951 . S
H99 C67 0.950 . S
H100 C71 0.949 . S
H101 C72 0.950 . S
H102 C76 0.950 . S
H103 C78 0.950 . S
H104 C81 0.950 . S
H105 C83 0.950 . S
C106 C107 1.442 1_554 S
C106 N110 1.376 1_554 S
C106 C144 1.389 . S
C107 C106 1.442 1_556 S
C107 C108 1.344 . S
C107 H147 0.949 1_556 S
C108 C107 1.344 . S
C108 C109 1.439 . S
C108 H148 0.950 . S
C109 C108 1.439 . S
C109 N110 1.374 . S
C109 C143 1.395 . S
N110 C106 1.376 1_556 S
N110 C109 1.374 . S
N110 Co111 2.012 1_556 S
Co111 N110 2.012 1_554 S
Co111 N112 1.992 1_554 S
Co111 N117 2.004 1_545 S
Co111 N122 1.998 1_545 S
Co111 N127 2.277 1_544 S
Co111 N133 2.287 . S
N112 Co111 1.992 1_556 S
N112 C113 1.376 . S
N112 C116 1.383 1_545 S
C113 N112 1.376 . S
C113 C114 1.446 . S
C113 C143 1.391 . S
C114 C113 1.446 . S
C114 C115 1.315 1_545 S
C114 H149 0.949 . S
C115 C114 1.315 1_565 S
C115 C116 1.447 . S
C115 H150 0.963 . S
C116 N112 1.383 1_565 S
C116 C115 1.447 . S
C116 C145 1.392 . S
N117 Co111 2.004 1_565 S
N117 C118 1.376 1_554 S
N117 C121 1.374 . S
C118 N117 1.376 1_556 S
C118 C119 1.438 1_556 S
C118 C145 1.389 . S
C119 C118 1.438 1_554 S
C119 C120 1.360 . S
C119 H151 0.940 1_554 S
C120 C119 1.360 . S
C120 C121 1.439 . S
C120 H152 0.950 . S
C121 N117 1.374 . S
C121 C120 1.439 . S
C121 C146 1.395 . S
N122 Co111 1.998 1_565 S
N122 C123 1.376 . S
N122 C126 1.383 1_565 S
C123 N122 1.376 . S
C123 C124 1.446 . S
C123 C146 1.391 . S
C124 C123 1.446 . S
C124 C125 1.296 1_565 S
C124 H153 0.949 . S
C125 C124 1.296 1_545 S
C125 C126 1.454 . S
C125 H154 0.974 . S
C126 N122 1.383 1_545 S
C126 C125 1.454 . S
C126 C144 1.392 . S
N127 Co111 2.277 1_566 S
N127 C130 1.332 . S
N127 C132 1.332 . S
C128 C129 1.386 . S
C128 C131 1.388 . S
C129 C128 1.386 . S
C129 C130 1.382 . S
C129 H155 0.950 . S
C130 N127 1.332 . S
C130 C129 1.382 . S
C130 H141 0.952 1_556 S
C131 C128 1.388 . S
C131 C132 1.382 . S
C131 H156 0.950 . S
C132 N127 1.332 . S
C132 C131 1.382 . S
C132 H142 0.948 . S
N133 Co111 2.287 . S
N133 C137 1.332 . S
N133 C138 1.332 . S
C134 C135 1.388 . S
C134 C138 1.382 . S
C134 H157 0.950 . S
C135 C134 1.388 . S
C135 C136 1.386 . S
C136 C135 1.386 . S
C136 C137 1.382 . S
C136 H158 0.950 . S
C137 N133 1.332 . S
C137 C136 1.382 . S
C137 H139 0.952 1_554 S
C138 N133 1.332 . S
C138 C134 1.382 . S
C138 H140 0.948 . S
H139 C137 0.952 1_556 S
H140 C138 0.948 . S
H141 C130 0.952 1_554 S
H142 C132 0.948 . S
C143 C109 1.395 . S
C143 C113 1.391 . S
C144 C106 1.389 . S
C144 C126 1.392 . S
C145 C116 1.392 . S
C145 C118 1.389 . S
C146 C121 1.395 . S
C146 C123 1.391 . S
H147 C107 0.949 1_554 S
H148 C108 0.950 . S
H149 C114 0.949 . S
H150 C115 0.963 . S
H151 C119 0.940 1_556 S
H152 C120 0.950 . S
H153 C124 0.949 . S
H154 C125 0.974 . S
H155 C129 0.950 . S
H156 C131 0.950 . S
H157 C134 0.950 . S
H158 C136 0.950 . S
C159 C160 1.443 . S
C159 N163 1.376 . S
C159 C197 1.389 . S
C160 C159 1.443 . S
C160 C161 1.340 . S
C160 H200 0.951 . S
C161 C160 1.340 . S
C161 C162 1.439 . S
C161 H201 0.950 . S
C162 C161 1.439 . S
C162 N163 1.374 . S
C162 C196 1.395 . S
N163 C159 1.376 . S
N163 C162 1.374 . S
N163 Co164 2.008 . S
Co164 N163 2.008 . S
Co164 N165 1.995 . S
Co164 N170 2.008 . S
Co164 N175 1.995 . S
Co164 N180 2.282 . S
Co164 N186 2.282 . S
N165 Co164 1.995 . S
N165 C166 1.376 . S
N165 C169 1.383 . S
C166 N165 1.376 . S
C166 C167 1.446 . S
C166 C196 1.391 . S
C167 C166 1.446 . S
C167 C168 1.339 . S
C167 H202 0.949 . S
C168 C167 1.339 . S
C168 C169 1.439 . S
C168 H203 0.950 . S
C169 N165 1.383 . S
C169 C168 1.439 . S
C169 C198 1.392 . S
N170 Co164 2.008 . S
N170 C171 1.376 . S
N170 C174 1.374 . S
C171 N170 1.376 . S
C171 C172 1.443 . S
C171 C198 1.389 . S
C172 C171 1.443 . S
C172 C173 1.340 . S
C172 H204 0.951 . S
C173 C172 1.340 . S
C173 C174 1.439 . S
C173 H205 0.950 . S
C174 N170 1.374 . S
C174 C173 1.439 . S
C174 C199 1.395 . S
N175 Co164 1.995 . S
N175 C176 1.376 . S
N175 C179 1.383 . S
C176 N175 1.376 . S
C176 C177 1.446 . S
C176 C199 1.391 . S
C177 C176 1.446 . S
C177 C178 1.339 . S
C177 H206 0.949 . S
C178 C177 1.339 . S
C178 C179 1.439 . S
C178 H207 0.950 . S
C179 N175 1.383 . S
C179 C178 1.439 . S
C179 C197 1.392 . S
N180 Co164 2.282 . S
N180 C183 1.332 . S
N180 C185 1.332 . S
C181 C182 1.386 . S
C181 C184 1.388 . S
C182 C181 1.386 . S
C182 C183 1.382 . S
C182 H208 0.950 . S
C183 N180 1.332 . S
C183 C182 1.382 . S
C183 H194 0.952 . S
C184 C181 1.388 . S
C184 C185 1.382 . S
C184 H209 0.950 . S
C185 N180 1.332 . S
C185 C184 1.382 . S
C185 H195 0.948 . S
N186 Co164 2.282 . S
N186 C190 1.332 . S
N186 C191 1.332 . S
C187 C188 1.388 . S
C187 C191 1.382 . S
C187 H210 0.950 . S
C188 C187 1.388 . S
C188 C189 1.386 . S
C189 C188 1.386 . S
C189 C190 1.382 . S
C189 H211 0.950 . S
C190 N186 1.332 . S
C190 C189 1.382 . S
C190 H192 0.952 . S
C191 N186 1.332 . S
C191 C187 1.382 . S
C191 H193 0.948 . S
H192 C190 0.952 . S
H193 C191 0.948 . S
H194 C183 0.952 . S
H195 C185 0.948 . S
C196 C162 1.395 . S
C196 C166 1.391 . S
C197 C159 1.389 . S
C197 C179 1.392 . S
C198 C169 1.392 . S
C198 C171 1.389 . S
C199 C174 1.395 . S
C199 C176 1.391 . S
H200 C160 0.951 . S
H201 C161 0.950 . S
H202 C167 0.949 . S
H203 C168 0.950 . S
H204 C172 0.951 . S
H205 C173 0.950 . S
H206 C177 0.949 . S
H207 C178 0.950 . S
H208 C182 0.950 . S
H209 C184 0.950 . S
H210 C187 0.950 . S
H211 C189 0.950 . S
C212 C213 1.443 . S
C212 N216 1.376 . S
C212 C250 1.389 . S
C213 C212 1.443 . S
C213 C214 1.340 . S
C213 H253 0.951 . S
C214 C213 1.340 . S
C214 C215 1.439 . S
C214 H254 0.950 . S
C215 C214 1.439 . S
C215 N216 1.374 . S
C215 C249 1.395 . S
N216 C212 1.376 . S
N216 C215 1.374 . S
N216 Co217 2.008 . S
Co217 N216 2.008 . S
Co217 N218 1.995 . S
Co217 N223 2.008 . S
Co217 N228 1.995 . S
Co217 N233 2.282 . S
Co217 N239 2.282 . S
N218 Co217 1.995 . S
N218 C219 1.376 . S
N218 C222 1.383 . S
C219 N218 1.376 . S
C219 C220 1.446 . S
C219 C249 1.391 . S
C220 C219 1.446 . S
C220 C221 1.339 . S
C220 H255 0.949 . S
C221 C220 1.339 . S
C221 C222 1.439 . S
C221 H256 0.950 . S
C222 N218 1.383 . S
C222 C221 1.439 . S
C222 C251 1.392 . S
N223 Co217 2.008 . S
N223 C224 1.376 . S
N223 C227 1.374 . S
C224 N223 1.376 . S
C224 C225 1.443 . S
C224 C251 1.389 . S
C225 C224 1.443 . S
C225 C226 1.340 . S
C225 H257 0.951 . S
C226 C225 1.340 . S
C226 C227 1.439 . S
C226 H258 0.950 . S
C227 N223 1.374 . S
C227 C226 1.439 . S
C227 C252 1.395 . S
N228 Co217 1.995 . S
N228 C229 1.376 . S
N228 C232 1.383 . S
C229 N228 1.376 . S
C229 C230 1.446 . S
C229 C252 1.391 . S
C230 C229 1.446 . S
C230 C231 1.339 . S
C230 H259 0.949 . S
C231 C230 1.339 . S
C231 C232 1.439 . S
C231 H260 0.950 . S
C232 N228 1.383 . S
C232 C231 1.439 . S
C232 C250 1.392 . S
N233 Co217 2.282 . S
N233 C236 1.332 . S
N233 C238 1.332 . S
C234 C235 1.386 . S
C234 C237 1.388 . S
C235 C234 1.386 . S
C235 C236 1.382 . S
C235 H261 0.950 . S
C236 N233 1.332 . S
C236 C235 1.382 . S
C236 H247 0.952 . S
C237 C234 1.388 . S
C237 C238 1.382 . S
C237 H262 0.950 . S
C238 N233 1.332 . S
C238 C237 1.382 . S
C238 H248 0.948 . S
N239 Co217 2.282 . S
N239 C243 1.332 . S
N239 C244 1.332 . S
C240 C241 1.388 . S
C240 C244 1.382 . S
C240 H263 0.950 . S
C241 C240 1.388 . S
C241 C242 1.386 . S
C242 C241 1.386 . S
C242 C243 1.382 . S
C242 H264 0.950 . S
C243 N239 1.332 . S
C243 C242 1.382 . S
C243 H245 0.952 . S
C244 N239 1.332 . S
C244 C240 1.382 . S
C244 H246 0.948 . S
H245 C243 0.952 . S
H246 C244 0.948 . S
H247 C236 0.952 . S
H248 C238 0.948 . S
C249 C215 1.395 . S
C249 C219 1.391 . S
C250 C212 1.389 . S
C250 C232 1.392 . S
C251 C222 1.392 . S
C251 C224 1.389 . S
C252 C227 1.395 . S
C252 C229 1.391 . S
H253 C213 0.951 . S
H254 C214 0.950 . S
H255 C220 0.949 . S
H256 C221 0.950 . S
H257 C225 0.951 . S
H258 C226 0.950 . S
H259 C230 0.949 . S
H260 C231 0.950 . S
H261 C235 0.950 . S
H262 C237 0.950 . S
H263 C240 0.950 . S
H264 C242 0.950 . S
C265 C266 1.443 . S
C265 N269 1.376 . S
C265 C303 1.389 . S
C266 C265 1.443 . S
C266 C267 1.340 . S
C266 H306 0.951 . S
C267 C266 1.340 . S
C267 C268 1.439 . S
C267 H307 0.950 . S
C268 C267 1.439 . S
C268 N269 1.374 . S
C268 C302 1.395 . S
N269 C265 1.376 . S
N269 C268 1.374 . S
N269 Co270 2.008 . S
Co270 N269 2.008 . S
Co270 N271 1.995 . S
Co270 N276 2.008 . S
Co270 N281 1.995 . S
Co270 N286 2.282 . S
Co270 N292 2.282 . S
N271 Co270 1.995 . S
N271 C272 1.376 . S
N271 C275 1.383 . S
C272 N271 1.376 . S
C272 C273 1.446 . S
C272 C302 1.391 . S
C273 C272 1.446 . S
C273 C274 1.339 . S
C273 H308 0.949 . S
C274 C273 1.339 . S
C274 C275 1.439 . S
C274 H309 0.950 . S
C275 N271 1.383 . S
C275 C274 1.439 . S
C275 C304 1.392 . S
N276 Co270 2.008 . S
N276 C277 1.376 . S
N276 C280 1.374 . S
C277 N276 1.376 . S
C277 C278 1.443 . S
C277 C304 1.389 . S
C278 C277 1.443 . S
C278 C279 1.340 . S
C278 H310 0.951 . S
C279 C278 1.340 . S
C279 C280 1.439 . S
C279 H311 0.950 . S
C280 N276 1.374 . S
C280 C279 1.439 . S
C280 C305 1.395 . S
N281 Co270 1.995 . S
N281 C282 1.376 . S
N281 C285 1.383 . S
C282 N281 1.376 . S
C282 C283 1.446 . S
C282 C305 1.391 . S
C283 C282 1.446 . S
C283 C284 1.339 . S
C283 H312 0.949 . S
C284 C283 1.339 . S
C284 C285 1.439 . S
C284 H313 0.950 . S
C285 N281 1.383 . S
C285 C284 1.439 . S
C285 C303 1.392 . S
N286 Co270 2.282 . S
N286 C289 1.332 . S
N286 C291 1.332 . S
C287 C288 1.386 . S
C287 C290 1.388 . S
C288 C287 1.386 . S
C288 C289 1.382 . S
C288 H314 0.950 . S
C289 N286 1.332 . S
C289 C288 1.382 . S
C289 H300 0.952 . S
C290 C287 1.388 . S
C290 C291 1.382 . S
C290 H315 0.950 . S
C291 N286 1.332 . S
C291 C290 1.382 . S
C291 H301 0.948 . S
N292 Co270 2.282 . S
N292 C296 1.332 . S
N292 C297 1.332 . S
C293 C294 1.388 . S
C293 C297 1.382 . S
C293 H316 0.950 . S
C294 C293 1.388 . S
C294 C295 1.386 . S
C295 C294 1.386 . S
C295 C296 1.382 . S
C295 H317 0.950 . S
C296 N292 1.332 . S
C296 C295 1.382 . S
C296 H298 0.952 . S
C297 N292 1.332 . S
C297 C293 1.382 . S
C297 H299 0.948 . S
H298 C296 0.952 . S
H299 C297 0.948 . S
H300 C289 0.952 . S
H301 C291 0.948 . S
C302 C268 1.395 . S
C302 C272 1.391 . S
C303 C265 1.389 . S
C303 C285 1.392 . S
C304 C275 1.392 . S
C304 C277 1.389 . S
C305 C280 1.395 . S
C305 C282 1.391 . S
H306 C266 0.951 . S
H307 C267 0.950 . S
H308 C273 0.949 . S
H309 C274 0.950 . S
H310 C278 0.951 . S
H311 C279 0.950 . S
H312 C283 0.949 . S
H313 C284 0.950 . S
H314 C288 0.950 . S
H315 C290 0.950 . S
H316 C293 0.950 . S
H317 C295 0.950 . S
C318 C319 1.443 . S
C318 N322 1.376 . S
C318 C356 1.389 . S
C319 C318 1.443 . S
C319 C320 1.340 . S
C319 H359 0.951 . S
C320 C319 1.340 . S
C320 C321 1.439 . S
C320 H360 0.950 . S
C321 C320 1.439 . S
C321 N322 1.374 . S
C321 C355 1.395 . S
N322 C318 1.376 . S
N322 C321 1.374 . S
N322 Co323 2.001 1_556 S
Co323 N322 2.001 1_554 S
Co323 N324 1.993 1_554 S
Co323 N329 2.015 . S
Co323 N334 1.996 . S
Co323 N339 2.286 . S
Co323 N345 2.279 1_554 S
N324 Co323 1.993 1_556 S
N324 C325 1.376 . S
N324 C328 1.383 1_556 S
C325 N324 1.376 . S
C325 C326 1.446 . S
C325 C355 1.391 . S
C326 C325 1.446 . S
C326 C327 1.339 1_556 S
C326 H361 0.949 . S
C327 C326 1.339 1_554 S
C327 C328 1.439 . S
C327 H362 0.950 . S
C328 N324 1.383 1_554 S
C328 C327 1.439 . S
C328 C357 1.392 . S
N329 Co323 2.015 . S
N329 C330 1.376 . S
N329 C333 1.374 . S
C330 N329 1.376 . S
C330 C331 1.443 . S
C330 C357 1.389 . S
C331 C330 1.443 . S
C331 C332 1.340 . S
C331 H363 0.951 . S
C332 C331 1.340 . S
C332 C333 1.439 . S
C332 H364 0.950 . S
C333 N329 1.374 . S
C333 C332 1.439 . S
C333 C358 1.395 . S
N334 Co323 1.996 . S
N334 C335 1.376 . S
N334 C338 1.383 1_554 S
C335 N334 1.376 . S
C335 C336 1.446 . S
C335 C358 1.391 . S
C336 C335 1.446 . S
C336 C337 1.339 1_554 S
C336 H365 0.949 . S
C337 C336 1.339 1_556 S
C337 C338 1.439 . S
C337 H366 0.950 . S
C338 N334 1.383 1_556 S
C338 C337 1.439 . S
C338 C356 1.392 . S
N339 Co323 2.286 . S
N339 C342 1.332 . S
N339 C344 1.332 . S
C340 C341 1.386 . S
C340 C343 1.388 . S
C341 C340 1.386 . S
C341 C342 1.382 . S
C341 H367 0.950 . S
C342 N339 1.332 . S
C342 C341 1.382 . S
C342 H353 0.952 . S
C343 C340 1.388 . S
C343 C344 1.382 . S
C343 H368 0.950 . S
C344 N339 1.332 . S
C344 C343 1.382 . S
C344 H354 0.948 . S
N345 Co323 2.279 1_556 S
N345 C349 1.332 . S
N345 C350 1.332 . S
C346 C347 1.388 . S
C346 C350 1.382 . S
C346 H369 0.950 . S
C347 C346 1.388 . S
C347 C348 1.386 . S
C348 C347 1.386 . S
C348 C349 1.382 . S
C348 H370 0.950 . S
C349 N345 1.332 . S
C349 C348 1.382 . S
C349 H351 0.952 . S
C350 N345 1.332 . S
C350 C346 1.382 . S
C350 H352 0.948 . S
H351 C349 0.952 . S
H352 C350 0.948 . S
H353 C342 0.952 . S
H354 C344 0.948 . S
C355 C321 1.395 . S
C355 C325 1.391 . S
C356 C318 1.389 . S
C356 C338 1.392 . S
C357 C328 1.392 . S
C357 C330 1.389 . S
C358 C333 1.395 . S
C358 C335 1.391 . S
H359 C319 0.951 . S
H360 C320 0.950 . S
H361 C326 0.949 . S
H362 C327 0.950 . S
H363 C331 0.951 . S
H364 C332 0.950 . S
H365 C336 0.949 . S
H366 C337 0.950 . S
H367 C341 0.950 . S
H368 C343 0.950 . S
H369 C346 0.950 . S
H370 C348 0.950 . S
C371 C372 1.443 . S
C371 N375 1.376 . S
C371 C409 1.389 . S
C372 C371 1.443 . S
C372 C373 1.340 . S
C372 H412 0.951 . S
C373 C372 1.340 . S
C373 C374 1.439 . S
C373 H413 0.950 . S
C374 C373 1.439 . S
C374 N375 1.374 . S
C374 C408 1.367 1_455 S
N375 C371 1.376 . S
N375 C374 1.374 . S
N375 Co376 2.008 . S
Co376 N375 2.008 . S
Co376 N377 1.995 1_455 S
Co376 N382 2.008 1_455 S
Co376 N387 1.995 . S
Co376 N392 2.282 . S
Co376 N398 2.282 1_455 S
N377 Co376 1.995 1_655 S
N377 C378 1.376 . S
N377 C381 1.383 . S
C378 N377 1.376 . S
C378 C379 1.446 . S
C378 C408 1.417 . S
C379 C378 1.446 . S
C379 C380 1.339 . S
C379 H414 0.949 . S
C380 C379 1.339 . S
C380 C381 1.439 . S
C380 H415 0.950 . S
C381 N377 1.383 . S
C381 C380 1.439 . S
C381 C410 1.392 . S
N382 Co376 2.008 1_655 S
N382 C383 1.376 . S
N382 C386 1.374 . S
C383 N382 1.376 . S
C383 C384 1.443 . S
C383 C410 1.389 . S
C384 C383 1.443 . S
C384 C385 1.340 . S
C384 H416 0.951 . S
C385 C384 1.340 . S
C385 C386 1.439 . S
C385 H417 0.950 . S
C386 N382 1.374 . S
C386 C385 1.439 . S
C386 C411 1.395 1_655 S
N387 Co376 1.995 . S
N387 C388 1.376 . S
N387 C391 1.383 . S
C388 N387 1.376 . S
C388 C389 1.446 . S
C388 C411 1.391 . S
C389 C388 1.446 . S
C389 C390 1.339 . S
C389 H418 0.949 . S
C390 C389 1.339 . S
C390 C391 1.439 . S
C390 H419 0.950 . S
C391 N387 1.383 . S
C391 C390 1.439 . S
C391 C409 1.392 . S
N392 Co376 2.282 . S
N392 C395 1.332 . S
N392 C397 1.332 . S
C393 C394 1.386 . S
C393 C396 1.388 . S
C394 C393 1.386 . S
C394 C395 1.382 . S
C394 H420 0.950 . S
C395 N392 1.332 . S
C395 C394 1.382 . S
C395 H406 0.952 . S
C396 C393 1.388 . S
C396 C397 1.382 . S
C396 H421 0.950 . S
C397 N392 1.332 . S
C397 C396 1.382 . S
C397 H407 0.948 . S
N398 Co376 2.282 1_655 S
N398 C402 1.332 . S
N398 C403 1.332 . S
C399 C400 1.388 . S
C399 C403 1.382 . S
C399 H422 0.950 . S
C400 C399 1.388 . S
C400 C401 1.386 . S
C401 C400 1.386 . S
C401 C402 1.382 . S
C401 H423 0.950 . S
C402 N398 1.332 . S
C402 C401 1.382 . S
C402 H404 0.952 . S
C403 N398 1.332 . S
C403 C399 1.382 . S
C403 H405 0.948 . S
H404 C402 0.952 . S
H405 C403 0.948 . S
H406 C395 0.952 . S
H407 C397 0.948 . S
C408 C374 1.367 1_655 S
C408 C378 1.417 . S
C409 C371 1.389 . S
C409 C391 1.392 . S
C410 C381 1.392 . S
C410 C383 1.389 . S
C411 C386 1.395 1_455 S
C411 C388 1.391 . S
H412 C372 0.951 . S
H413 C373 0.950 . S
H414 C379 0.949 . S
H415 C380 0.950 . S
H416 C384 0.951 . S
H417 C385 0.950 . S
H418 C389 0.949 . S
H419 C390 0.950 . S
H420 C394 0.950 . S
H421 C396 0.950 . S
H422 C399 0.950 . S
H423 C401 0.950 . S
C424 C425 1.349 . S
C424 C426 1.327 . S
C424 H449 0.950 . S
C425 C424 1.349 . S
C425 C441 1.349 . S
C426 C424 1.327 . S
C426 C445 1.429 . S
C426 H450 0.950 . S
C427 C444 1.574 . S
C427 C446 1.368 . S
C427 H451 0.949 . S
H428 C432 0.949 . S
C429 C430 1.349 . S
C429 C431 1.327 . S
C429 H452 0.950 . S
C430 C429 1.349 . S
C430 C442 1.349 . S
C431 C429 1.327 . S
C431 C447 1.429 . S
C431 H453 0.950 . S
C432 H428 0.949 . S
C432 C440 1.574 . S
C432 C448 1.368 . S
H433 C441 0.950 . S
H434 C439 0.950 . S
H435 C440 0.949 . S
H436 C442 0.950 . S
H437 C443 0.950 . S
H438 C444 0.949 . S
C439 H434 0.950 . S
C439 C441 1.327 . S
C439 C445 1.429 . S
C440 C432 1.574 . S
C440 H435 0.949 . S
C440 C446 1.368 . S
C441 C425 1.349 . S
C441 H433 0.950 . S
C441 C439 1.327 . S
C442 C430 1.349 . S
C442 H436 0.950 . S
C442 C443 1.327 . S
C443 H437 0.950 . S
C443 C442 1.327 . S
C443 C447 1.429 . S
C444 C427 1.574 . S
C444 H438 0.949 . S
C444 C448 1.368 . S
C445 C426 1.429 . S
C445 C439 1.429 . S
C445 C446 1.523 . S
C446 C427 1.368 . S
C446 C440 1.368 . S
C446 C445 1.523 . S
C447 C431 1.429 . S
C447 C443 1.429 . S
C447 C448 1.523 . S
C448 C432 1.368 . S
C448 C444 1.368 . S
C448 C447 1.523 . S
H449 C424 0.950 . S
H450 C426 0.950 . S
H451 C427 0.949 . S
H452 C429 0.950 . S
H453 C431 0.950 . S
C454 C455 1.349 . S
C454 C456 1.327 . S
C454 H479 0.950 . S
C455 C454 1.349 . S
C455 C471 1.349 . S
C456 C454 1.327 . S
C456 C475 1.429 . S
C456 H480 0.950 . S
C457 C474 1.574 . S
C457 C476 1.368 . S
C457 H481 0.949 . S
H458 C462 0.949 . S
C459 C460 1.349 . S
C459 C461 1.327 . S
C459 H482 0.950 . S
C460 C459 1.349 . S
C460 C472 1.349 . S
C461 C459 1.327 . S
C461 C477 1.429 . S
C461 H483 0.950 . S
C462 H458 0.949 . S
C462 C470 1.574 . S
C462 C478 1.368 . S
H463 C471 0.950 . S
H464 C469 0.950 . S
H465 C470 0.949 . S
H466 C472 0.950 . S
H467 C473 0.950 . S
H468 C474 0.949 . S
C469 H464 0.950 . S
C469 C471 1.327 . S
C469 C475 1.429 . S
C470 C462 1.574 . S
C470 H465 0.949 . S
C470 C476 1.368 . S
C471 C455 1.349 . S
C471 H463 0.950 . S
C471 C469 1.327 . S
C472 C460 1.349 . S
C472 H466 0.950 . S
C472 C473 1.327 . S
C473 H467 0.950 . S
C473 C472 1.327 . S
C473 C477 1.429 . S
C474 C457 1.574 . S
C474 H468 0.949 . S
C474 C478 1.368 . S
C475 C456 1.429 . S
C475 C469 1.429 . S
C475 C476 1.523 . S
C476 C457 1.368 . S
C476 C470 1.368 . S
C476 C475 1.523 . S
C477 C461 1.429 . S
C477 C473 1.429 . S
C477 C478 1.523 . S
C478 C462 1.368 . S
C478 C474 1.368 . S
C478 C477 1.523 . S
H479 C454 0.950 . S
H480 C456 0.950 . S
H481 C457 0.949 . S
H482 C459 0.950 . S
H483 C461 0.950 . S
C484 C485 1.349 . S
C484 C486 1.327 . S
C484 H509 0.950 . S
C485 C484 1.349 . S
C485 C501 1.349 . S
C486 C484 1.327 . S
C486 C505 1.429 . S
C486 H510 0.950 . S
C487 C504 1.574 . S
C487 C506 1.368 . S
C487 H511 0.949 . S
H488 C492 0.949 . S
C489 C490 1.349 . S
C489 C491 1.327 . S
C489 H512 0.950 . S
C490 C489 1.349 . S
C490 C502 1.349 . S
C491 C489 1.327 . S
C491 C507 1.429 . S
C491 H513 0.950 . S
C492 H488 0.949 . S
C492 C500 1.574 . S
C492 C508 1.368 . S
H493 C501 0.950 . S
H494 C499 0.950 . S
H495 C500 0.949 . S
H496 C502 0.950 . S
H497 C503 0.950 . S
H498 C504 0.949 . S
C499 H494 0.950 . S
C499 C501 1.327 . S
C499 C505 1.429 . S
C500 C492 1.574 . S
C500 H495 0.949 . S
C500 C506 1.368 . S
C501 C485 1.349 . S
C501 H493 0.950 . S
C501 C499 1.327 . S
C502 C490 1.349 . S
C502 H496 0.950 . S
C502 C503 1.327 . S
C503 H497 0.950 . S
C503 C502 1.327 . S
C503 C507 1.429 . S
C504 C487 1.574 . S
C504 H498 0.949 . S
C504 C508 1.368 . S
C505 C486 1.429 . S
C505 C499 1.429 . S
C505 C506 1.523 . S
C506 C487 1.368 . S
C506 C500 1.368 . S
C506 C505 1.523 . S
C507 C491 1.429 . S
C507 C503 1.429 . S
C507 C508 1.523 . S
C508 C492 1.368 . S
C508 C504 1.368 . S
C508 C507 1.523 . S
H509 C484 0.950 . S
H510 C486 0.950 . S
H511 C487 0.949 . S
H512 C489 0.950 . S
H513 C491 0.950 . S
C514 C515 1.349 . S
C514 C516 1.327 . S
C514 H539 0.950 . S
C515 C514 1.349 . S
C515 C531 1.349 . S
C516 C514 1.327 . S
C516 C535 1.429 . S
C516 H540 0.950 . S
C517 C534 1.574 . S
C517 C536 1.368 . S
C517 H541 0.949 . S
H518 C522 0.949 . S
C519 C520 1.349 . S
C519 C521 1.327 . S
C519 H542 0.950 . S
C520 C519 1.349 . S
C520 C532 1.349 . S
C521 C519 1.327 . S
C521 C537 1.429 . S
C521 H543 0.950 . S
C522 H518 0.949 . S
C522 C530 1.574 . S
C522 C538 1.368 . S
H523 C531 0.950 . S
H524 C529 0.950 . S
H525 C530 0.949 . S
H526 C532 0.950 . S
H527 C533 0.950 . S
H528 C534 0.949 . S
C529 H524 0.950 . S
C529 C531 1.327 . S
C529 C535 1.429 . S
C530 C522 1.574 . S
C530 H525 0.949 . S
C530 C536 1.368 . S
C531 C515 1.349 . S
C531 H523 0.950 . S
C531 C529 1.327 . S
C532 C520 1.349 . S
C532 H526 0.950 . S
C532 C533 1.327 . S
C533 H527 0.950 . S
C533 C532 1.327 . S
C533 C537 1.429 . S
C534 C517 1.574 . S
C534 H528 0.949 . S
C534 C538 1.368 . S
C535 C516 1.429 . S
C535 C529 1.429 . S
C535 C536 1.523 . S
C536 C517 1.368 . S
C536 C530 1.368 . S
C536 C535 1.523 . S
C537 C521 1.429 . S
C537 C533 1.429 . S
C537 C538 1.523 . S
C538 C522 1.368 . S
C538 C534 1.368 . S
C538 C537 1.523 . S
H539 C514 0.950 . S
H540 C516 0.950 . S
H541 C517 0.949 . S
H542 C519 0.950 . S
H543 C521 0.950 . S
C544 C545 1.349 . S
C544 C546 1.327 . S
C544 H569 0.950 . S
C545 C544 1.349 . S
C545 C561 1.349 . S
C546 C544 1.327 . S
C546 C565 1.429 . S
C546 H570 0.950 . S
C547 C564 1.574 . S
C547 C566 1.368 . S
C547 H571 0.949 . S
H548 C552 0.949 . S
C549 C550 1.349 . S
C549 C551 1.327 . S
C549 H572 0.950 . S
C550 C549 1.349 . S
C550 C562 1.349 . S
C551 C549 1.327 . S
C551 C567 1.429 . S
C551 H573 0.950 . S
C552 H548 0.949 . S
C552 C560 1.574 . S
C552 C568 1.368 . S
H553 C561 0.950 . S
H554 C559 0.950 . S
H555 C560 0.949 . S
H556 C562 0.950 . S
H557 C563 0.950 . S
H558 C564 0.949 . S
C559 H554 0.950 . S
C559 C561 1.327 . S
C559 C565 1.429 . S
C560 C552 1.574 . S
C560 H555 0.949 . S
C560 C566 1.368 . S
C561 C545 1.349 . S
C561 H553 0.950 . S
C561 C559 1.327 . S
C562 C550 1.349 . S
C562 H556 0.950 . S
C562 C563 1.327 . S
C563 H557 0.950 . S
C563 C562 1.327 . S
C563 C567 1.429 . S
C564 C547 1.574 . S
C564 H558 0.949 . S
C564 C568 1.368 . S
C565 C546 1.429 . S
C565 C559 1.429 . S
C565 C566 1.523 . S
C566 C547 1.368 . S
C566 C560 1.368 . S
C566 C565 1.523 . S
C567 C551 1.429 . S
C567 C563 1.429 . S
C567 C568 1.523 . S
C568 C552 1.368 . S
C568 C564 1.368 . S
C568 C567 1.523 . S
H569 C544 0.950 . S
H570 C546 0.950 . S
H571 C547 0.949 . S
H572 C549 0.950 . S
H573 C551 0.950 . S
C574 C575 1.349 . S
C574 C576 1.327 . S
C574 H599 0.950 . S
C575 C574 1.349 . S
C575 C591 1.349 . S
C576 C574 1.327 . S
C576 C595 1.429 . S
C576 H600 0.950 . S
C577 C594 1.574 . S
C577 C596 1.368 . S
C577 H601 0.949 . S
H578 C582 0.949 . S
C579 C580 1.349 . S
C579 C581 1.327 . S
C579 H602 0.950 . S
C580 C579 1.349 . S
C580 C592 1.349 . S
C581 C579 1.327 . S
C581 C597 1.429 . S
C581 H603 0.950 . S
C582 H578 0.949 . S
C582 C590 1.574 . S
C582 C598 1.368 . S
H583 C591 0.950 . S
H584 C589 0.950 . S
H585 C590 0.949 . S
H586 C592 0.950 . S
H587 C593 0.950 . S
H588 C594 0.949 . S
C589 H584 0.950 . S
C589 C591 1.327 . S
C589 C595 1.429 . S
C590 C582 1.574 . S
C590 H585 0.949 . S
C590 C596 1.368 . S
C591 C575 1.349 . S
C591 H583 0.950 . S
C591 C589 1.327 . S
C592 C580 1.349 . S
C592 H586 0.950 . S
C592 C593 1.327 . S
C593 H587 0.950 . S
C593 C592 1.327 . S
C593 C597 1.429 . S
C594 C577 1.574 . S
C594 H588 0.949 . S
C594 C598 1.368 . S
C595 C576 1.429 . S
C595 C589 1.429 . S
C595 C596 1.523 . S
C596 C577 1.368 . S
C596 C590 1.368 . S
C596 C595 1.523 . S
C597 C581 1.429 . S
C597 C593 1.429 . S
C597 C598 1.523 . S
C598 C582 1.368 . S
C598 C594 1.368 . S
C598 C597 1.523 . S
H599 C574 0.950 . S
H600 C576 0.950 . S
H601 C577 0.949 . S
H602 C579 0.950 . S
H603 C581 0.950 . S
C604 C605 1.349 . S
C604 C606 1.327 . S
C604 H629 0.950 . S
C605 C604 1.349 . S
C605 C621 1.349 . S
C606 C604 1.327 . S
C606 C625 1.429 . S
C606 H630 0.950 . S
C607 C624 1.574 . S
C607 C626 1.368 . S
C607 H631 0.949 . S
H608 C612 0.949 . S
C609 C610 1.349 . S
C609 C611 1.327 . S
C609 H632 0.950 . S
C610 C609 1.349 . S
C610 C622 1.349 . S
C611 C609 1.327 . S
C611 C627 1.429 . S
C611 H633 0.950 . S
C612 H608 0.949 . S
C612 C620 1.574 . S
C612 C628 1.368 . S
H613 C621 0.950 . S
H614 C619 0.950 . S
H615 C620 0.949 . S
H616 C622 0.950 . S
H617 C623 0.950 . S
H618 C624 0.949 . S
C619 H614 0.950 . S
C619 C621 1.327 . S
C619 C625 1.429 . S
C620 C612 1.574 . S
C620 H615 0.949 . S
C620 C626 1.368 . S
C621 C605 1.349 . S
C621 H613 0.950 . S
C621 C619 1.327 . S
C622 C610 1.349 . S
C622 H616 0.950 . S
C622 C623 1.327 . S
C623 H617 0.950 . S
C623 C622 1.327 . S
C623 C627 1.429 . S
C624 C607 1.574 . S
C624 H618 0.949 . S
C624 C628 1.368 . S
C625 C606 1.429 . S
C625 C619 1.429 . S
C625 C626 1.523 . S
C626 C607 1.368 . S
C626 C620 1.368 . S
C626 C625 1.523 . S
C627 C611 1.429 . S
C627 C623 1.429 . S
C627 C628 1.523 . S
C628 C612 1.368 . S
C628 C624 1.368 . S
C628 C627 1.523 . S
H629 C604 0.950 . S
H630 C606 0.950 . S
H631 C607 0.949 . S
H632 C609 0.950 . S
H633 C611 0.950 . S
C634 C635 1.349 . S
C634 C636 1.327 . S
C634 H659 0.950 . S
C635 C634 1.349 . S
C635 C651 1.349 . S
C636 C634 1.327 . S
C636 C655 1.429 . S
C636 H660 0.950 . S
C637 C654 1.574 . S
C637 C656 1.368 . S
C637 H661 0.949 . S
H638 C642 0.949 . S
C639 C640 1.349 . S
C639 C641 1.327 . S
C639 H662 0.950 . S
C640 C639 1.349 . S
C640 C652 1.349 . S
C641 C639 1.327 . S
C641 C657 1.429 . S
C641 H663 0.950 . S
C642 H638 0.949 . S
C642 C650 1.574 . S
C642 C658 1.368 . S
H643 C651 0.950 . S
H644 C649 0.950 . S
H645 C650 0.949 . S
H646 C652 0.950 . S
H647 C653 0.950 . S
H648 C654 0.949 . S
C649 H644 0.950 . S
C649 C651 1.327 . S
C649 C655 1.429 . S
C650 C642 1.574 . S
C650 H645 0.949 . S
C650 C656 1.368 . S
C651 C635 1.349 . S
C651 H643 0.950 . S
C651 C649 1.327 . S
C652 C640 1.349 . S
C652 H646 0.950 . S
C652 C653 1.327 . S
C653 H647 0.950 . S
C653 C652 1.327 . S
C653 C657 1.429 . S
C654 C637 1.574 . S
C654 H648 0.949 . S
C654 C658 1.368 . S
C655 C636 1.429 . S
C655 C649 1.429 . S
C655 C656 1.523 . S
C656 C637 1.368 . S
C656 C650 1.368 . S
C656 C655 1.523 . S
C657 C641 1.429 . S
C657 C653 1.429 . S
C657 C658 1.523 . S
C658 C642 1.368 . S
C658 C654 1.368 . S
C658 C657 1.523 . S
H659 C634 0.950 . S
H660 C636 0.950 . S
H661 C637 0.949 . S
H662 C639 0.950 . S
H663 C641 0.950 . S
C664 C665 1.349 . S
C664 C666 1.327 . S
C664 H689 0.950 . S
C665 C664 1.349 . S
C665 C681 1.349 . S
C666 C664 1.327 . S
C666 C685 1.429 . S
C666 H690 0.950 . S
C667 C684 1.574 . S
C667 C686 1.368 . S
C667 H691 0.949 . S
H668 C672 0.949 . S
C669 C670 1.349 . S
C669 C671 1.327 . S
C669 H692 0.950 . S
C670 C669 1.349 . S
C670 C682 1.349 . S
C671 C669 1.327 . S
C671 C687 1.429 . S
C671 H693 0.950 . S
C672 H668 0.949 . S
C672 C680 1.574 . S
C672 C688 1.368 . S
H673 C681 0.950 . S
H674 C679 0.950 . S
H675 C680 0.949 . S
H676 C682 0.950 . S
H677 C683 0.950 . S
H678 C684 0.949 . S
C679 H674 0.950 . S
C679 C681 1.327 . S
C679 C685 1.429 . S
C680 C672 1.574 . S
C680 H675 0.949 . S
C680 C686 1.368 . S
C681 C665 1.349 . S
C681 H673 0.950 . S
C681 C679 1.327 . S
C682 C670 1.349 . S
C682 H676 0.950 . S
C682 C683 1.327 . S
C683 H677 0.950 . S
C683 C682 1.327 . S
C683 C687 1.429 . S
C684 C667 1.574 . S
C684 H678 0.949 . S
C684 C688 1.368 . S
C685 C666 1.429 . S
C685 C679 1.429 . S
C685 C686 1.523 . S
C686 C667 1.368 . S
C686 C680 1.368 . S
C686 C685 1.523 . S
C687 C671 1.429 . S
C687 C683 1.429 . S
C687 C688 1.523 . S
C688 C672 1.368 . S
C688 C684 1.368 . S
C688 C687 1.523 . S
H689 C664 0.950 . S
H690 C666 0.950 . S
H691 C667 0.949 . S
H692 C669 0.950 . S
H693 C671 0.950 . S
C694 C695 1.349 . S
C694 C696 1.327 . S
C694 H719 0.950 . S
C695 C694 1.349 . S
C695 C711 1.349 . S
C696 C694 1.327 . S
C696 C715 1.429 . S
C696 H720 0.950 . S
C697 C714 1.574 . S
C697 C716 1.368 . S
C697 H721 0.949 . S
H698 C702 0.949 . S
C699 C700 1.349 . S
C699 C701 1.327 . S
C699 H722 0.950 . S
C700 C699 1.349 . S
C700 C712 1.349 . S
C701 C699 1.327 . S
C701 C717 1.429 . S
C701 H723 0.950 . S
C702 H698 0.949 . S
C702 C710 1.574 . S
C702 C718 1.368 . S
H703 C711 0.950 . S
H704 C709 0.950 . S
H705 C710 0.949 . S
H706 C712 0.950 . S
H707 C713 0.950 . S
H708 C714 0.949 . S
C709 H704 0.950 . S
C709 C711 1.327 . S
C709 C715 1.429 . S
C710 C702 1.574 . S
C710 H705 0.949 . S
C710 C716 1.368 . S
C711 C695 1.349 . S
C711 H703 0.950 . S
C711 C709 1.327 . S
C712 C700 1.349 . S
C712 H706 0.950 . S
C712 C713 1.327 . S
C713 H707 0.950 . S
C713 C712 1.327 . S
C713 C717 1.429 . S
C714 C697 1.574 . S
C714 H708 0.949 . S
C714 C718 1.368 . S
C715 C696 1.429 . S
C715 C709 1.429 . S
C715 C716 1.523 . S
C716 C697 1.368 . S
C716 C710 1.368 . S
C716 C715 1.523 . S
C717 C701 1.429 . S
C717 C713 1.429 . S
C717 C718 1.523 . S
C718 C702 1.368 . S
C718 C714 1.368 . S
C718 C717 1.523 . S
H719 C694 0.950 . S
H720 C696 0.950 . S
H721 C697 0.949 . S
H722 C699 0.950 . S
H723 C701 0.950 . S
C724 C725 1.349 . S
C724 C726 1.327 . S
C724 H749 0.950 . S
C725 C724 1.349 . S
C725 C741 1.349 . S
C726 C724 1.327 . S
C726 C745 1.429 . S
C726 H750 0.950 . S
C727 C744 1.574 . S
C727 C746 1.368 . S
C727 H751 0.949 . S
H728 C732 0.949 . S
C729 C730 1.349 . S
C729 C731 1.327 . S
C729 H752 0.950 . S
C730 C729 1.349 . S
C730 C742 1.349 . S
C731 C729 1.327 . S
C731 C747 1.429 . S
C731 H753 0.950 . S
C732 H728 0.949 . S
C732 C740 1.574 . S
C732 C748 1.368 . S
H733 C741 0.950 . S
H734 C739 0.950 . S
H735 C740 0.949 . S
H736 C742 0.950 . S
H737 C743 0.950 . S
H738 C744 0.949 . S
C739 H734 0.950 . S
C739 C741 1.327 . S
C739 C745 1.429 . S
C740 C732 1.574 . S
C740 H735 0.949 . S
C740 C746 1.368 . S
C741 C725 1.349 . S
C741 H733 0.950 . S
C741 C739 1.327 . S
C742 C730 1.349 . S
C742 H736 0.950 . S
C742 C743 1.327 . S
C743 H737 0.950 . S
C743 C742 1.327 . S
C743 C747 1.429 . S
C744 C727 1.574 . S
C744 H738 0.949 . S
C744 C748 1.368 . S
C745 C726 1.429 . S
C745 C739 1.429 . S
C745 C746 1.523 . S
C746 C727 1.368 . S
C746 C740 1.368 . S
C746 C745 1.523 . S
C747 C731 1.429 . S
C747 C743 1.429 . S
C747 C748 1.523 . S
C748 C732 1.368 . S
C748 C744 1.368 . S
C748 C747 1.523 . S
H749 C724 0.950 . S
H750 C726 0.950 . S
H751 C727 0.949 . S
H752 C729 0.950 . S
H753 C731 0.950 . S
C754 C755 1.349 . S
C754 C756 1.327 . S
C754 H779 0.950 . S
C755 C754 1.349 . S
C755 C771 1.349 . S
C756 C754 1.327 . S
C756 C775 1.429 . S
C756 H780 0.950 . S
C757 C774 1.574 . S
C757 C776 1.368 . S
C757 H781 0.949 . S
H758 C762 0.949 . S
C759 C760 1.349 . S
C759 C761 1.327 . S
C759 H782 0.950 . S
C760 C759 1.349 . S
C760 C772 1.349 . S
C761 C759 1.327 . S
C761 C777 1.429 . S
C761 H783 0.950 . S
C762 H758 0.949 . S
C762 C770 1.574 . S
C762 C778 1.368 . S
H763 C771 0.950 . S
H764 C769 0.950 . S
H765 C770 0.949 . S
H766 C772 0.950 . S
H767 C773 0.950 . S
H768 C774 0.949 . S
C769 H764 0.950 . S
C769 C771 1.327 . S
C769 C775 1.429 . S
C770 C762 1.574 . S
C770 H765 0.949 . S
C770 C776 1.368 . S
C771 C755 1.349 . S
C771 H763 0.950 . S
C771 C769 1.327 . S
C772 C760 1.349 . S
C772 H766 0.950 . S
C772 C773 1.327 . S
C773 H767 0.950 . S
C773 C772 1.327 . S
C773 C777 1.429 . S
C774 C757 1.574 . S
C774 H768 0.949 . S
C774 C778 1.368 . S
C775 C756 1.429 . S
C775 C769 1.429 . S
C775 C776 1.523 . S
C776 C757 1.368 . S
C776 C770 1.368 . S
C776 C775 1.523 . S
C777 C761 1.429 . S
C777 C773 1.429 . S
C777 C778 1.523 . S
C778 C762 1.368 . S
C778 C774 1.368 . S
C778 C777 1.523 . S
H779 C754 0.950 . S
H780 C756 0.950 . S
H781 C757 0.949 . S
H782 C759 0.950 . S
H783 C761 0.950 . S
C784 C785 1.349 . S
C784 C786 1.327 . S
C784 H809 0.950 . S
C785 C784 1.349 . S
C785 C801 1.349 . S
C786 C784 1.327 . S
C786 C805 1.429 . S
C786 H810 0.950 . S
C787 C804 1.574 . S
C787 C806 1.368 . S
C787 H811 0.949 . S
H788 C792 0.949 . S
C789 C790 1.349 . S
C789 C791 1.327 . S
C789 H812 0.950 . S
C790 C789 1.349 . S
C790 C802 1.349 . S
C791 C789 1.327 . S
C791 C807 1.429 . S
C791 H813 0.950 . S
C792 H788 0.949 . S
C792 C800 1.574 . S
C792 C808 1.368 . S
H793 C801 0.950 . S
H794 C799 0.950 . S
H795 C800 0.949 . S
H796 C802 0.950 . S
H797 C803 0.950 . S
H798 C804 0.949 . S
C799 H794 0.950 . S
C799 C801 1.327 . S
C799 C805 1.429 . S
C800 C792 1.574 . S
C800 H795 0.949 . S
C800 C806 1.368 . S
C801 C785 1.349 . S
C801 H793 0.950 . S
C801 C799 1.327 . S
C802 C790 1.349 . S
C802 H796 0.950 . S
C802 C803 1.327 . S
C803 H797 0.950 . S
C803 C802 1.327 . S
C803 C807 1.429 . S
C804 C787 1.574 . S
C804 H798 0.949 . S
C804 C808 1.368 . S
C805 C786 1.429 . S
C805 C799 1.429 . S
C805 C806 1.523 . S
C806 C787 1.368 . S
C806 C800 1.368 . S
C806 C805 1.523 . S
C807 C791 1.429 . S
C807 C803 1.429 . S
C807 C808 1.523 . S
C808 C792 1.368 . S
C808 C804 1.368 . S
C808 C807 1.523 . S
H809 C784 0.950 . S
H810 C786 0.950 . S
H811 C787 0.949 . S
H812 C789 0.950 . S
H813 C791 0.950 . S
C814 C815 1.349 . S
C814 C816 1.327 . S
C814 H839 0.950 . S
C815 C814 1.349 . S
C815 C831 1.349 . S
C816 C814 1.327 . S
C816 C835 1.429 . S
C816 H840 0.950 . S
C817 C834 1.574 . S
C817 C836 1.368 . S
C817 H841 0.949 . S
H818 C822 0.949 . S
C819 C820 1.349 . S
C819 C821 1.327 . S
C819 H842 0.950 . S
C820 C819 1.349 . S
C820 C832 1.349 . S
C821 C819 1.327 . S
C821 C837 1.429 . S
C821 H843 0.950 . S
C822 H818 0.949 . S
C822 C830 1.574 . S
C822 C838 1.368 . S
H823 C831 0.950 . S
H824 C829 0.950 . S
H825 C830 0.949 . S
H826 C832 0.950 . S
H827 C833 0.950 . S
H828 C834 0.949 . S
C829 H824 0.950 . S
C829 C831 1.327 . S
C829 C835 1.429 . S
C830 C822 1.574 . S
C830 H825 0.949 . S
C830 C836 1.368 . S
C831 C815 1.349 . S
C831 H823 0.950 . S
C831 C829 1.327 . S
C832 C820 1.349 . S
C832 H826 0.950 . S
C832 C833 1.327 . S
C833 H827 0.950 . S
C833 C832 1.327 . S
C833 C837 1.429 . S
C834 C817 1.574 . S
C834 H828 0.949 . S
C834 C838 1.368 . S
C835 C816 1.429 . S
C835 C829 1.429 . S
C835 C836 1.523 . S
C836 C817 1.368 . S
C836 C830 1.368 . S
C836 C835 1.523 . S
C837 C821 1.429 . S
C837 C833 1.429 . S
C837 C838 1.523 . S
C838 C822 1.368 . S
C838 C834 1.368 . S
C838 C837 1.523 . S
H839 C814 0.950 . S
H840 C816 0.950 . S
H841 C817 0.949 . S
H842 C819 0.950 . S
H843 C821 0.950 . S
C844 C845 1.349 . S
C844 C846 1.327 . S
C844 H869 0.950 . S
C845 C844 1.349 . S
C845 C861 1.349 . S
C846 C844 1.327 . S
C846 C865 1.429 . S
C846 H870 0.950 . S
C847 C864 1.574 . S
C847 C866 1.368 . S
C847 H871 0.949 . S
H848 C852 0.949 . S
C849 C850 1.349 . S
C849 C851 1.327 . S
C849 H872 0.950 . S
C850 C849 1.349 . S
C850 C862 1.349 . S
C851 C849 1.327 . S
C851 C867 1.429 . S
C851 H873 0.950 . S
C852 H848 0.949 . S
C852 C860 1.574 . S
C852 C868 1.368 . S
H853 C861 0.950 . S
H854 C859 0.950 . S
H855 C860 0.949 . S
H856 C862 0.950 . S
H857 C863 0.950 . S
H858 C864 0.949 . S
C859 H854 0.950 . S
C859 C861 1.327 . S
C859 C865 1.429 . S
C860 C852 1.574 . S
C860 H855 0.949 . S
C860 C866 1.368 . S
C861 C845 1.349 . S
C861 H853 0.950 . S
C861 C859 1.327 . S
C862 C850 1.349 . S
C862 H856 0.950 . S
C862 C863 1.327 . S
C863 H857 0.950 . S
C863 C862 1.327 . S
C863 C867 1.429 . S
C864 C847 1.574 . S
C864 H858 0.949 . S
C864 C868 1.368 . S
C865 C846 1.429 . S
C865 C859 1.429 . S
C865 C866 1.523 . S
C866 C847 1.368 . S
C866 C860 1.368 . S
C866 C865 1.523 . S
C867 C851 1.429 . S
C867 C863 1.429 . S
C867 C868 1.523 . S
C868 C852 1.368 . S
C868 C864 1.368 . S
C868 C867 1.523 . S
H869 C844 0.950 . S
H870 C846 0.950 . S
H871 C847 0.949 . S
H872 C849 0.950 . S
H873 C851 0.950 . S
C874 C875 1.349 . S
C874 C876 1.327 . S
C874 H899 0.950 . S
C875 C874 1.349 . S
C875 C891 1.349 . S
C876 C874 1.327 . S
C876 C895 1.429 . S
C876 H900 0.950 . S
C877 C894 1.574 . S
C877 C896 1.368 . S
C877 H901 0.949 . S
H878 C882 0.949 . S
C879 C880 1.349 . S
C879 C881 1.327 . S
C879 H902 0.950 . S
C880 C879 1.349 . S
C880 C892 1.349 . S
C881 C879 1.327 . S
C881 C897 1.429 . S
C881 H903 0.950 . S
C882 H878 0.949 . S
C882 C890 1.574 . S
C882 C898 1.368 . S
H883 C891 0.950 . S
H884 C889 0.950 . S
H885 C890 0.949 . S
H886 C892 0.950 . S
H887 C893 0.950 . S
H888 C894 0.949 . S
C889 H884 0.950 . S
C889 C891 1.327 . S
C889 C895 1.429 . S
C890 C882 1.574 . S
C890 H885 0.949 . S
C890 C896 1.368 . S
C891 C875 1.349 . S
C891 H883 0.950 . S
C891 C889 1.327 . S
C892 C880 1.349 . S
C892 H886 0.950 . S
C892 C893 1.327 . S
C893 H887 0.950 . S
C893 C892 1.327 . S
C893 C897 1.429 . S
C894 C877 1.574 . S
C894 H888 0.949 . S
C894 C898 1.368 . S
C895 C876 1.429 . S
C895 C889 1.429 . S
C895 C896 1.523 . S
C896 C877 1.368 . S
C896 C890 1.368 . S
C896 C895 1.523 . S
C897 C881 1.429 . S
C897 C893 1.429 . S
C897 C898 1.523 . S
C898 C882 1.368 . S
C898 C894 1.368 . S
C898 C897 1.523 . S
H899 C874 0.950 . S
H900 C876 0.950 . S
H901 C877 0.949 . S
H902 C879 0.950 . S
H903 C881 0.950 . S
C425 C22 1.564 . S
C430 C198 1.564 . S
C455 C38 1.598 . S
C460 C91 1.596 . S
C485 C128 1.396 . S
C490 C75 1.395 . S
C515 C188 1.464 . S
C520 C144 1.464 . S
C545 C29 1.563 . S
C550 C304 1.566 . S
C575 C39 1.598 . S
C580 C250 1.598 . S
C605 C234 1.395 . S
C610 C135 1.396 . S
C635 C145 1.464 . S
C640 C294 1.464 . S
C665 C347 1.521 . S
C670 C303 1.521 . S
C695 C251 1.639 . S
C700 C357 1.637 . S
C725 C241 1.534 . S
C730 C410 1.535 . S
C755 C287 1.333 . S
C760 C400 1.335 . S
C785 C340 1.521 . S
C790 C197 1.521 . S
C815 C92 1.639 . S
C820 C356 1.637 . S
C845 C82 1.534 . S
C850 C409 1.533 . S
C875 C181 1.334 . S
C880 C393 1.333 . S
