# Generated by pormake.
# Topology pcb, (4)-cn, num edge types: 1
# Building blocks:
#     Node 0, Type 0, BuildingBlock: CEKHIL_clean_sbu_0, # of connection points: 4
#     Node 1, Type 0, BuildingBlock: CEKHIL_clean_sbu_0, # of connection points: 4
#     Node 2, Type 0, BuildingBlock: CEKHIL_clean_sbu_0, # of connection points: 4
#     Node 3, Type 0, BuildingBlock: CEKHIL_clean_sbu_0, # of connection points: 4
#     Node 4, Type 0, BuildingBlock: CEKHIL_clean_sbu_0, # of connection points: 4
#     Node 5, Type 0, BuildingBlock: CEKHIL_clean_sbu_0, # of connection points: 4
#     Node 6, Type 0, BuildingBlock: CEKHIL_clean_sbu_0, # of connection points: 4
#     Node 7, Type 0, BuildingBlock: CEKHIL_clean_sbu_0, # of connection points: 4
#     Node 8, Type 0, BuildingBlock: CEKHIL_clean_sbu_0, # of connection points: 4
#     Node 9, Type 0, BuildingBlock: CEKHIL_clean_sbu_0, # of connection points: 4
#     Node 10, Type 0, BuildingBlock: CEKHIL_clean_sbu_0, # of connection points: 4
#     Node 11, Type 0, BuildingBlock: CEKHIL_clean_sbu_0, # of connection points: 4
#     Node 12, Type 0, BuildingBlock: CEKHIL_clean_sbu_0, # of connection points: 4
#     Node 13, Type 0, BuildingBlock: CEKHIL_clean_sbu_0, # of connection points: 4
#     Node 14, Type 0, BuildingBlock: CEKHIL_clean_sbu_0, # of connection points: 4
#     Node 15, Type 0, BuildingBlock: CEKHIL_clean_sbu_0, # of connection points: 4
#     Edge 16, Type (0, 0), BuildingBlock: UVAHIK_clean_linker_0, # of connection points: 2
#     Edge 17, Type (0, 0), BuildingBlock: UVAHIK_clean_linker_0, # of connection points: 2
#     Edge 18, Type (0, 0), BuildingBlock: UVAHIK_clean_linker_0, # of connection points: 2
#     Edge 19, Type (0, 0), BuildingBlock: UVAHIK_clean_linker_0, # of connection points: 2
#     Edge 20, Type (0, 0), BuildingBlock: UVAHIK_clean_linker_0, # of connection points: 2
#     Edge 21, Type (0, 0), BuildingBlock: UVAHIK_clean_linker_0, # of connection points: 2
#     Edge 22, Type (0, 0), BuildingBlock: UVAHIK_clean_linker_0, # of connection points: 2
#     Edge 23, Type (0, 0), BuildingBlock: UVAHIK_clean_linker_0, # of connection points: 2
#     Edge 24, Type (0, 0), BuildingBlock: UVAHIK_clean_linker_0, # of connection points: 2
#     Edge 25, Type (0, 0), BuildingBlock: UVAHIK_clean_linker_0, # of connection points: 2
#     Edge 26, Type (0, 0), BuildingBlock: UVAHIK_clean_linker_0, # of connection points: 2
#     Edge 27, Type (0, 0), BuildingBlock: UVAHIK_clean_linker_0, # of connection points: 2
#     Edge 28, Type (0, 0), BuildingBlock: UVAHIK_clean_linker_0, # of connection points: 2
#     Edge 29, Type (0, 0), BuildingBlock: UVAHIK_clean_linker_0, # of connection points: 2
#     Edge 30, Type (0, 0), BuildingBlock: UVAHIK_clean_linker_0, # of connection points: 2
#     Edge 31, Type (0, 0), BuildingBlock: UVAHIK_clean_linker_0, # of connection points: 2
#     Edge 32, Type (0, 0), BuildingBlock: UVAHIK_clean_linker_0, # of connection points: 2
#     Edge 33, Type (0, 0), BuildingBlock: UVAHIK_clean_linker_0, # of connection points: 2
#     Edge 34, Type (0, 0), BuildingBlock: UVAHIK_clean_linker_0, # of connection points: 2
#     Edge 35, Type (0, 0), BuildingBlock: UVAHIK_clean_linker_0, # of connection points: 2
#     Edge 36, Type (0, 0), BuildingBlock: UVAHIK_clean_linker_0, # of connection points: 2
#     Edge 37, Type (0, 0), BuildingBlock: UVAHIK_clean_linker_0, # of connection points: 2
#     Edge 38, Type (0, 0), BuildingBlock: UVAHIK_clean_linker_0, # of connection points: 2
#     Edge 39, Type (0, 0), BuildingBlock: UVAHIK_clean_linker_0, # of connection points: 2
#     Edge 40, Type (0, 0), BuildingBlock: UVAHIK_clean_linker_0, # of connection points: 2
#     Edge 41, Type (0, 0), BuildingBlock: UVAHIK_clean_linker_0, # of connection points: 2
#     Edge 42, Type (0, 0), BuildingBlock: UVAHIK_clean_linker_0, # of connection points: 2
#     Edge 43, Type (0, 0), BuildingBlock: UVAHIK_clean_linker_0, # of connection points: 2
#     Edge 44, Type (0, 0), BuildingBlock: UVAHIK_clean_linker_0, # of connection points: 2
#     Edge 45, Type (0, 0), BuildingBlock: UVAHIK_clean_linker_0, # of connection points: 2
#     Edge 46, Type (0, 0), BuildingBlock: UVAHIK_clean_linker_0, # of connection points: 2
#     Edge 47, Type (0, 0), BuildingBlock: UVAHIK_clean_linker_0, # of connection points: 2
# Relax obj value: 0.237
# Max RMSD: 0.082
# Mean RMSD: 0.082
data_MOF--net-pcb--node1-CEKHIL_clean_sbu_0--edge1-UVAHIK_clean_linker_0
_symmetry_space_group_name_H-M    P1
_symmetry_Int_Tables_number       1
_symmetry_cell_setting            triclinic
loop_
_symmetry_equiv_pos_as_xyz
'x, y, z'
_cell_length_a     73.039886
_cell_length_b     47.487806
_cell_length_c     47.491634
_cell_angle_alpha  90.003104
_cell_angle_beta   90.011914
_cell_angle_gamma 89.987028
loop_
_atom_site_label
_atom_site_type_symbol
_atom_site_fract_x
_atom_site_fract_y
_atom_site_fract_z
_atom_type_partial_charge
Co0 Co 0.13448 0.19691 0.19539 0.0
O1 O 0.16027 0.19583 0.18744 0.0
O2 O 0.14647 0.22973 0.21134 0.0
C3 C 0.13269 0.1514 0.20906 0.0
O4 O 0.10813 0.20473 0.20823 0.0
Co5 Co 0.10683 0.15845 0.16374 0.0
O6 O 0.09076 0.16763 0.196 0.0
C7 C 0.12097 0.21029 0.13641 0.0
C8 C 0.16158 0.21934 0.20118 0.0
C9 C 0.09311 0.19049 0.20954 0.0
O10 O 0.13001 0.21723 0.15863 0.0
O11 O 0.11167 0.18757 0.13407 0.0
O12 O 0.13793 0.17058 0.22684 0.0
O13 O 0.1298 0.16005 0.18372 0.0
Co14 Co 0.86832 0.19441 0.19333 0.0
O15 O 0.84242 0.18713 0.19239 0.0
O16 O 0.8569 0.20766 0.22777 0.0
C17 C 0.86929 0.21199 0.14911 0.0
O18 O 0.8948 0.20612 0.20153 0.0
Co19 Co 0.89524 0.16643 0.15121 0.0
O20 O 0.91207 0.19672 0.1635 0.0
C21 C 0.88113 0.13406 0.20029 0.0
C22 C 0.84153 0.19898 0.21695 0.0
C23 C 0.90979 0.2083 0.1874 0.0
O24 O 0.87282 0.15591 0.21007 0.0
O25 O 0.88977 0.1339 0.1768 0.0
O26 O 0.86477 0.22817 0.17005 0.0
O27 O 0.87227 0.18598 0.15536 0.0
Co28 Co 0.86894 0.80686 0.19688 0.0
O29 O 0.84324 0.80938 0.18823 0.0
O30 O 0.85669 0.77213 0.20709 0.0
C31 C 0.87075 0.84952 0.21765 0.0
O32 O 0.89501 0.79688 0.20951 0.0
Co33 Co 0.89704 0.84926 0.17191 0.0
O34 O 0.91303 0.83461 0.20224 0.0
C35 C 0.88261 0.8028 0.1365 0.0
C36 C 0.84171 0.7841 0.19829 0.0
C37 C 0.91018 0.81038 0.21281 0.0
O38 O 0.87406 0.79221 0.15773 0.0
O39 O 0.89152 0.82601 0.13766 0.0
O40 O 0.86488 0.82796 0.23185 0.0
O41 O 0.87401 0.84506 0.19134 0.0
Co42 Co 0.13348 0.79976 0.1938 0.0
O43 O 0.15921 0.80824 0.19132 0.0
O44 O 0.146 0.78725 0.2276 0.0
C45 C 0.1313 0.78169 0.14994 0.0
O46 O 0.10739 0.7869 0.20356 0.0
Co47 Co 0.10496 0.82706 0.15355 0.0
O48 O 0.08931 0.79554 0.16625 0.0
C49 C 0.11936 0.85941 0.20218 0.0
C50 C 0.16091 0.79663 0.21591 0.0
C51 C 0.09215 0.78409 0.19007 0.0
O52 O 0.12875 0.83812 0.21077 0.0
O53 O 0.10973 0.85942 0.17965 0.0
O54 O 0.13719 0.7661 0.17051 0.0
O55 O 0.12813 0.80769 0.15609 0.0
Co56 Co 0.13455 0.80827 0.80116 0.0
O57 O 0.16032 0.8106 0.80923 0.0
O58 O 0.14658 0.77324 0.79112 0.0
C59 C 0.1328 0.85063 0.77971 0.0
O60 O 0.10828 0.79848 0.78934 0.0
Co61 Co 0.10703 0.85172 0.82606 0.0
O62 O 0.09048 0.83642 0.79681 0.0
C63 C 0.1215 0.80561 0.86195 0.0
C64 C 0.16168 0.7852 0.79942 0.0
C65 C 0.09303 0.81196 0.78656 0.0
O66 O 0.12973 0.79438 0.84073 0.0
O67 O 0.11282 0.82903 0.86054 0.0
O68 O 0.1384 0.82875 0.76574 0.0
O69 O 0.12979 0.84664 0.80616 0.0
Co70 Co 0.13507 0.19452 0.80546 0.0
O71 O 0.16097 0.18715 0.80705 0.0
O72 O 0.14685 0.2079 0.77143 0.0
C73 C 0.13313 0.21196 0.84965 0.0
O74 O 0.1087 0.20645 0.79671 0.0
Co75 Co 0.10765 0.16579 0.84657 0.0
O76 O 0.09125 0.19676 0.83451 0.0
C77 C 0.12226 0.13417 0.79741 0.0
C78 C 0.16211 0.19911 0.78256 0.0
C79 C 0.09369 0.20871 0.81082 0.0
O80 O 0.1307 0.15616 0.78822 0.0
O81 O 0.11334 0.13365 0.82064 0.0
O82 O 0.13837 0.22812 0.82909 0.0
O83 O 0.13045 0.18594 0.84316 0.0
Co84 Co 0.86975 0.19231 0.80208 0.0
O85 O 0.84392 0.18982 0.80971 0.0
O86 O 0.85749 0.22633 0.78967 0.0
C87 C 0.87218 0.14873 0.7835 0.0
O88 O 0.89599 0.20206 0.79015 0.0
Co89 Co 0.89765 0.15172 0.83026 0.0
O90 O 0.91393 0.16477 0.79961 0.0
C91 C 0.8826 0.19986 0.86261 0.0
C92 C 0.84242 0.21458 0.79841 0.0
C93 C 0.91125 0.18856 0.78797 0.0
O94 O 0.87401 0.20889 0.84071 0.0
O95 O 0.89192 0.177 0.86295 0.0
O96 O 0.86647 0.16952 0.76803 0.0
O97 O 0.87492 0.15449 0.80971 0.0
Co98 Co 0.86955 0.80128 0.80802 0.0
O99 O 0.84381 0.80973 0.81042 0.0
O100 O 0.85732 0.79053 0.77342 0.0
C101 C 0.87144 0.78105 0.85096 0.0
O102 O 0.89567 0.78872 0.79819 0.0
Co103 Co 0.89765 0.82663 0.85033 0.0
O104 O 0.91362 0.79615 0.83598 0.0
C105 C 0.88316 0.86165 0.80355 0.0
C106 C 0.84229 0.79927 0.78529 0.0
C107 C 0.91082 0.78546 0.8118 0.0
O108 O 0.87458 0.84039 0.79301 0.0
O109 O 0.89203 0.86058 0.82681 0.0
O110 O 0.8656 0.76651 0.8296 0.0
O111 O 0.87462 0.8073 0.84612 0.0
Co112 Co 0.63401 0.69739 0.69631 0.0
O113 O 0.65975 0.69576 0.68795 0.0
O114 O 0.64624 0.73069 0.71073 0.0
C115 C 0.63216 0.6525 0.71188 0.0
O116 O 0.60779 0.70595 0.70936 0.0
Co117 Co 0.60589 0.65789 0.66698 0.0
O118 O 0.59029 0.6683 0.69941 0.0
C119 C 0.61996 0.70847 0.63715 0.0
C120 C 0.66126 0.71973 0.7008 0.0
C121 C 0.59286 0.69168 0.7119 0.0
O122 O 0.62929 0.71622 0.65882 0.0
O123 O 0.61052 0.68576 0.6361 0.0
O124 O 0.63764 0.67234 0.72874 0.0
O125 O 0.62908 0.66012 0.68626 0.0
Co126 Co 0.36832 0.69679 0.69241 0.0
O127 O 0.34244 0.68906 0.69083 0.0
O128 O 0.35672 0.70763 0.72748 0.0
C129 C 0.3698 0.71737 0.64958 0.0
O130 O 0.3947 0.70853 0.70153 0.0
Co131 Co 0.39553 0.67111 0.64898 0.0
O132 O 0.41229 0.70047 0.66351 0.0
C133 C 0.38141 0.63609 0.69603 0.0
C134 C 0.34143 0.69942 0.71606 0.0
C135 C 0.40987 0.71105 0.68786 0.0
O136 O 0.37313 0.65744 0.70695 0.0
O137 O 0.38998 0.63713 0.6725 0.0
O138 O 0.36444 0.73185 0.67127 0.0
O139 O 0.37276 0.69099 0.65406 0.0
Co140 Co 0.36953 0.30618 0.69601 0.0
O141 O 0.34378 0.30869 0.68778 0.0
O142 O 0.35721 0.2719 0.70757 0.0
C143 C 0.37165 0.34945 0.71549 0.0
O144 O 0.39568 0.29633 0.70834 0.0
Co145 Co 0.39755 0.34776 0.66942 0.0
O146 O 0.41378 0.33365 0.69968 0.0
C147 C 0.38275 0.30039 0.63555 0.0
C148 C 0.34222 0.28376 0.69868 0.0
C149 C 0.41099 0.30966 0.71084 0.0
O150 O 0.37426 0.29041 0.65713 0.0
O151 O 0.39174 0.32356 0.636 0.0
O152 O 0.36585 0.32835 0.73044 0.0
O153 O 0.37466 0.34417 0.68927 0.0
Co154 Co 0.63425 0.30394 0.69579 0.0
O155 O 0.65997 0.31232 0.69434 0.0
O156 O 0.64644 0.28934 0.72909 0.0
C157 C 0.63291 0.2887 0.65077 0.0
O158 O 0.60807 0.29075 0.70423 0.0
Co159 Co 0.60618 0.33306 0.65655 0.0
O160 O 0.59051 0.30063 0.66668 0.0
C161 C 0.62016 0.36296 0.70708 0.0
C162 C 0.66146 0.29932 0.71823 0.0
C163 C 0.59314 0.28811 0.69 0.0
O164 O 0.62951 0.3413 0.71475 0.0
O165 O 0.61067 0.36406 0.68443 0.0
O166 O 0.63795 0.27164 0.67072 0.0
O167 O 0.6296 0.31426 0.65841 0.0
Co168 Co 0.63345 0.30621 0.30033 0.0
O169 O 0.65919 0.30951 0.30831 0.0
O170 O 0.64614 0.2721 0.28914 0.0
C171 C 0.63078 0.34911 0.28032 0.0
O172 O 0.60736 0.29557 0.2883 0.0
Co173 Co 0.60508 0.34714 0.32687 0.0
O174 O 0.58913 0.33287 0.29636 0.0
C175 C 0.62043 0.30047 0.36097 0.0
C176 C 0.66102 0.28447 0.29779 0.0
C177 C 0.59202 0.30879 0.28547 0.0
O178 O 0.62912 0.29082 0.33944 0.0
O179 O 0.61092 0.32314 0.36047 0.0
O180 O 0.63674 0.32795 0.26561 0.0
O181 O 0.62792 0.34416 0.30666 0.0
Co182 Co 0.63544 0.69406 0.30314 0.0
O183 O 0.66112 0.6854 0.30245 0.0
O184 O 0.64635 0.70755 0.26833 0.0
C185 C 0.63598 0.71055 0.34778 0.0
O186 O 0.60897 0.7071 0.29683 0.0
Co187 Co 0.60916 0.66643 0.34663 0.0
O188 O 0.59246 0.69734 0.33555 0.0
C189 C 0.62147 0.63438 0.29615 0.0
C190 C 0.66173 0.6977 0.27811 0.0
C191 C 0.59425 0.70924 0.31169 0.0
O192 O 0.62975 0.65609 0.28597 0.0
O193 O 0.6136 0.63419 0.32027 0.0
O194 O 0.64026 0.72713 0.32703 0.0
O195 O 0.63231 0.68493 0.34099 0.0
Co196 Co 0.36898 0.69263 0.30377 0.0
O197 O 0.3431 0.69028 0.31115 0.0
O198 O 0.35689 0.72698 0.29187 0.0
C199 C 0.3713 0.64934 0.28437 0.0
O200 O 0.3953 0.70237 0.29216 0.0
Co201 Co 0.39668 0.65095 0.33109 0.0
O202 O 0.41325 0.66492 0.3012 0.0
C203 C 0.38156 0.69837 0.36456 0.0
C204 C 0.34174 0.71521 0.3002 0.0
C205 C 0.41055 0.68886 0.2899 0.0
O206 O 0.37327 0.70838 0.34279 0.0
O207 O 0.39055 0.6752 0.36432 0.0
O208 O 0.3657 0.67043 0.26923 0.0
O209 O 0.374 0.65463 0.31066 0.0
Co210 Co 0.36952 0.30238 0.30789 0.0
O211 O 0.34384 0.3112 0.31049 0.0
O212 O 0.35718 0.29215 0.27326 0.0
C213 C 0.37133 0.28169 0.35061 0.0
O214 O 0.39551 0.28946 0.29782 0.0
Co215 Co 0.39788 0.32693 0.35018 0.0
O216 O 0.41361 0.29628 0.33554 0.0
C217 C 0.38346 0.36261 0.30387 0.0
C218 C 0.34223 0.30098 0.28528 0.0
C219 C 0.41065 0.2858 0.31131 0.0
O220 O 0.37477 0.34153 0.29321 0.0
O221 O 0.3924 0.36124 0.32704 0.0
O222 O 0.36537 0.26748 0.32911 0.0
O223 O 0.3747 0.30795 0.34605 0.0
C224 C 0.30836 0.30878 0.28535 0.0
C225 C 0.324 0.2979 0.27196 0.0
C226 C 0.29089 0.3036 0.27449 0.0
C227 C 0.26628 0.2516 0.23184 0.0
H228 H 0.22704 0.30663 0.23281 0.0
C229 C 0.19486 0.22343 0.19008 0.0
C230 C 0.17967 0.23268 0.20569 0.0
C231 C 0.21233 0.23399 0.19559 0.0
C232 C 0.2378 0.29095 0.23264 0.0
H233 H 0.33362 0.27395 0.23604 0.0
H234 H 0.30307 0.26491 0.217 0.0
H235 H 0.25798 0.32067 0.24654 0.0
H236 H 0.17079 0.26093 0.23879 0.0
H237 H 0.20145 0.279 0.24899 0.0
H238 H 0.2462 0.22167 0.21874 0.0
C239 C 0.30434 0.27724 0.23609 0.0
C240 C 0.25554 0.29902 0.24042 0.0
C241 C 0.32184 0.28255 0.24689 0.0
C242 C 0.18224 0.25344 0.22638 0.0
C243 C 0.19981 0.26386 0.23212 0.0
C244 C 0.24858 0.2435 0.22422 0.0
C245 C 0.28864 0.2873 0.25004 0.0
C246 C 0.26998 0.27939 0.24022 0.0
C247 C 0.21514 0.25387 0.21711 0.0
C248 C 0.23407 0.26302 0.22458 0.0
H249 H 0.30954 0.32073 0.30469 0.0
H250 H 0.27911 0.31145 0.2859 0.0
H251 H 0.27698 0.23581 0.23199 0.0
H252 H 0.19331 0.20769 0.17373 0.0
H253 H 0.22369 0.22631 0.18312 0.0
C254 C 0.69453 0.28384 0.30825 0.0
C255 C 0.67938 0.27164 0.29468 0.0
C256 C 0.71219 0.27357 0.30361 0.0
C257 C 0.73839 0.21313 0.27381 0.0
H258 H 0.77653 0.26933 0.26543 0.0
C259 C 0.80775 0.19117 0.21957 0.0
C260 C 0.82361 0.20364 0.23078 0.0
C261 C 0.79051 0.19737 0.2307 0.0
C262 C 0.76613 0.25332 0.26814 0.0
H263 H 0.67083 0.23857 0.26614 0.0
H264 H 0.70176 0.22095 0.25745 0.0
H265 H 0.74571 0.28393 0.27817 0.0
H266 H 0.83387 0.23181 0.26303 0.0
H267 H 0.80365 0.24277 0.2825 0.0
H268 H 0.75884 0.18263 0.26288 0.0
C269 C 0.69997 0.2382 0.27211 0.0
C270 C 0.74841 0.26167 0.27548 0.0
C271 C 0.68223 0.24835 0.27698 0.0
C272 C 0.8219 0.22186 0.25394 0.0
C273 C 0.8046 0.22826 0.26496 0.0
C274 C 0.75612 0.2048 0.26629 0.0
C275 C 0.71522 0.25099 0.28502 0.0
C276 C 0.73425 0.24173 0.27827 0.0
C277 C 0.78868 0.21636 0.2532 0.0
C278 C 0.77016 0.22482 0.26317 0.0
H279 H 0.69278 0.30165 0.32225 0.0
H280 H 0.7235 0.28355 0.31445 0.0
H281 H 0.72795 0.19713 0.27619 0.0
H282 H 0.80858 0.17701 0.20173 0.0
H283 H 0.77854 0.18806 0.22096 0.0
C284 C 0.80788 0.78387 0.18999 0.0
C285 C 0.82353 0.77055 0.20099 0.0
C286 C 0.79045 0.77265 0.19462 0.0
C287 C 0.76573 0.72863 0.24533 0.0
H288 H 0.72689 0.73004 0.18962 0.0
C289 C 0.69466 0.68548 0.27205 0.0
C290 C 0.67946 0.7015 0.26355 0.0
C291 C 0.71204 0.69103 0.26123 0.0
C292 C 0.73755 0.72971 0.20547 0.0
H293 H 0.8332 0.73442 0.22457 0.0
H294 H 0.80271 0.71474 0.23263 0.0
H295 H 0.75785 0.74458 0.17642 0.0
H296 H 0.67042 0.73517 0.23611 0.0
H297 H 0.70097 0.74541 0.21753 0.0
H298 H 0.74554 0.71456 0.27459 0.0
C299 C 0.80394 0.73405 0.22065 0.0
C300 C 0.7553 0.73797 0.19789 0.0
C301 C 0.82141 0.74523 0.2159 0.0
C302 C 0.68188 0.72244 0.24299 0.0
C303 C 0.69939 0.72823 0.23231 0.0
C304 C 0.74804 0.72051 0.25292 0.0
C305 C 0.78823 0.7479 0.21046 0.0
C306 C 0.76958 0.73762 0.21779 0.0
C307 C 0.71476 0.71302 0.24186 0.0
C308 C 0.73368 0.72098 0.23314 0.0
H309 H 0.80904 0.8034 0.17835 0.0
H310 H 0.77866 0.78399 0.18669 0.0
H311 H 0.7763 0.72868 0.26134 0.0
H312 H 0.6932 0.66894 0.2876 0.0
H313 H 0.72343 0.67838 0.26851 0.0
C314 C 0.32165 0.75266 0.27913 0.0
C315 C 0.3236 0.72855 0.29602 0.0
C316 C 0.30423 0.76345 0.2731 0.0
C317 C 0.2556 0.76208 0.29569 0.0
H318 H 0.24572 0.77832 0.21718 0.0
C319 C 0.18195 0.77432 0.25137 0.0
C320 C 0.1792 0.79313 0.22895 0.0
C321 C 0.19963 0.76915 0.26164 0.0
C322 C 0.24825 0.77441 0.2393 0.0
H323 H 0.30885 0.69755 0.32073 0.0
H324 H 0.27858 0.71641 0.31032 0.0
H325 H 0.27651 0.76532 0.23162 0.0
H326 H 0.19267 0.82238 0.20068 0.0
H327 H 0.22328 0.81408 0.21902 0.0
H328 H 0.22729 0.77108 0.30336 0.0
C329 C 0.29046 0.72704 0.30176 0.0
C330 C 0.26596 0.7669 0.24756 0.0
C331 C 0.30783 0.71613 0.3076 0.0
C332 C 0.19435 0.80751 0.21778 0.0
C333 C 0.21196 0.80258 0.22819 0.0
C334 C 0.23788 0.76979 0.28746 0.0
C335 C 0.28842 0.75052 0.28404 0.0
C336 C 0.26983 0.7604 0.2758 0.0
C337 C 0.21492 0.78288 0.24984 0.0
C338 C 0.23392 0.77585 0.25909 0.0
H339 H 0.33353 0.76272 0.26992 0.0
H340 H 0.30312 0.78177 0.25961 0.0
H341 H 0.25818 0.75746 0.31767 0.0
H342 H 0.17054 0.76285 0.26035 0.0
H343 H 0.20136 0.75364 0.27814 0.0
C344 C 0.32179 0.7204 0.75405 0.0
C345 C 0.32348 0.7033 0.73005 0.0
C346 C 0.30449 0.72643 0.76529 0.0
C347 C 0.25591 0.7038 0.76566 0.0
H348 H 0.24612 0.78271 0.78003 0.0
C349 C 0.18236 0.74846 0.77843 0.0
C350 C 0.17983 0.77162 0.79642 0.0
C351 C 0.19998 0.73791 0.77331 0.0
C352 C 0.24863 0.76049 0.77668 0.0
H353 H 0.30844 0.67814 0.69975 0.0
H354 H 0.27836 0.68849 0.71944 0.0
H355 H 0.27677 0.76798 0.76666 0.0
H356 H 0.1936 0.80084 0.82437 0.0
H357 H 0.22409 0.78197 0.81623 0.0
H358 H 0.22772 0.6963 0.77562 0.0
C359 C 0.29035 0.69724 0.72961 0.0
C360 C 0.26626 0.75206 0.76895 0.0
C361 C 0.3076 0.69144 0.71824 0.0
C362 C 0.19512 0.78316 0.81014 0.0
C363 C 0.21265 0.77245 0.80529 0.0
C364 C 0.23826 0.71219 0.77364 0.0
C365 C 0.28856 0.71526 0.75292 0.0
C366 C 0.27008 0.72368 0.7631 0.0
C367 C 0.21541 0.75013 0.78628 0.0
C368 C 0.23435 0.74071 0.77904 0.0
H369 H 0.33376 0.72985 0.76364 0.0
H370 H 0.30357 0.74016 0.78345 0.0
H371 H 0.25847 0.68171 0.76152 0.0
H372 H 0.17084 0.7392 0.76747 0.0
H373 H 0.20154 0.72088 0.75834 0.0
C374 C 0.19601 0.19195 0.78093 0.0
C375 C 0.18012 0.20367 0.76899 0.0
C376 C 0.21326 0.19792 0.76973 0.0
C377 C 0.23745 0.25232 0.72967 0.0
H378 H 0.27592 0.19626 0.72435 0.0
C379 C 0.30877 0.28186 0.68795 0.0
C380 C 0.32399 0.27059 0.70212 0.0
C381 C 0.29119 0.27147 0.69303 0.0
C382 C 0.26539 0.21223 0.72595 0.0
H383 H 0.16986 0.23023 0.7354 0.0
H384 H 0.20008 0.24074 0.7158 0.0
H385 H 0.24513 0.18209 0.73853 0.0
H386 H 0.33279 0.23903 0.73214 0.0
H387 H 0.30201 0.22127 0.74162 0.0
H388 H 0.25767 0.28262 0.71799 0.0
C389 C 0.19915 0.22705 0.73398 0.0
C390 C 0.24772 0.20408 0.73399 0.0
C391 C 0.18184 0.22091 0.74509 0.0
C392 C 0.32133 0.24806 0.72082 0.0
C393 C 0.30367 0.23782 0.72615 0.0
C394 C 0.2551 0.2605 0.72183 0.0
C395 C 0.21508 0.21589 0.7464 0.0
C396 C 0.23357 0.22408 0.73611 0.0
C397 C 0.28832 0.24975 0.71268 0.0
C398 C 0.26936 0.24061 0.71999 0.0
H399 H 0.19517 0.17856 0.79935 0.0
H400 H 0.22524 0.18921 0.77998 0.0
H401 H 0.22696 0.26833 0.73159 0.0
H402 H 0.3104 0.29905 0.67318 0.0
H403 H 0.27981 0.28074 0.68174 0.0
C404 C 0.82215 0.25219 0.77808 0.0
C405 C 0.82423 0.22781 0.79453 0.0
C406 C 0.80468 0.26306 0.77255 0.0
C407 C 0.7562 0.26095 0.79604 0.0
H408 H 0.74585 0.27989 0.71828 0.0
C409 C 0.68237 0.27509 0.75265 0.0
C410 C 0.67967 0.2951 0.73128 0.0
C411 C 0.70005 0.26932 0.76264 0.0
C412 C 0.74852 0.27518 0.74021 0.0
H413 H 0.80969 0.19634 0.81894 0.0
H414 H 0.77934 0.21525 0.80932 0.0
H415 H 0.77671 0.26628 0.73178 0.0
H416 H 0.6932 0.32584 0.7047 0.0
H417 H 0.72378 0.3164 0.72252 0.0
H418 H 0.72793 0.26968 0.8044 0.0
C419 C 0.79115 0.22608 0.80076 0.0
C420 C 0.76627 0.26735 0.74794 0.0
C421 C 0.80856 0.21513 0.80613 0.0
C422 C 0.69485 0.31005 0.72097 0.0
C423 C 0.71243 0.30449 0.73106 0.0
C424 C 0.73843 0.26893 0.78833 0.0
C425 C 0.78896 0.24989 0.78354 0.0
C426 C 0.77031 0.25994 0.77589 0.0
C427 C 0.71535 0.28361 0.75156 0.0
C428 C 0.73434 0.276 0.76026 0.0
H429 H 0.83396 0.26246 0.76888 0.0
H430 H 0.80347 0.28164 0.75946 0.0
H431 H 0.75892 0.25562 0.81782 0.0
H432 H 0.67094 0.26317 0.76095 0.0
H433 H 0.70177 0.25296 0.77829 0.0
C434 C 0.80843 0.80724 0.7849 0.0
C435 C 0.8241 0.796 0.77187 0.0
C436 C 0.791 0.80213 0.77388 0.0
C437 C 0.7662 0.75009 0.73149 0.0
H438 H 0.72755 0.80611 0.73098 0.0
C439 C 0.69458 0.72285 0.68961 0.0
C440 C 0.67946 0.73286 0.70489 0.0
C441 C 0.71216 0.73309 0.695 0.0
C442 C 0.73813 0.79015 0.73122 0.0
H443 H 0.83379 0.77136 0.73647 0.0
H444 H 0.80329 0.7624 0.71716 0.0
H445 H 0.75852 0.81957 0.74502 0.0
H446 H 0.67081 0.76213 0.73725 0.0
H447 H 0.70162 0.77963 0.74722 0.0
H448 H 0.74588 0.72047 0.71852 0.0
C449 C 0.80451 0.77499 0.73608 0.0
C450 C 0.7559 0.7979 0.73919 0.0
C451 C 0.82199 0.78026 0.74703 0.0
C452 C 0.6822 0.75406 0.72508 0.0
C453 C 0.69987 0.76415 0.7307 0.0
C454 C 0.74845 0.74232 0.7237 0.0
C455 C 0.78879 0.78552 0.74962 0.0
C456 C 0.77013 0.77791 0.73955 0.0
C457 C 0.71513 0.7534 0.71607 0.0
C458 C 0.73414 0.76219 0.72354 0.0
H459 H 0.80957 0.81949 0.80406 0.0
H460 H 0.77919 0.81033 0.78499 0.0
H461 H 0.77673 0.73405 0.73205 0.0
H462 H 0.6929 0.70674 0.67367 0.0
H463 H 0.72347 0.7248 0.68281 0.0
C464 C 0.13425 0.24979 0.88686 0.0
C465 C 0.12978 0.22221 0.87858 0.0
C466 C 0.13171 0.25836 0.91489 0.0
C467 C 0.10693 0.23826 0.98001 0.0
H468 H 0.14737 0.27285 0.01994 0.0
C469 C 0.13839 0.23155 0.09683 0.0
C470 C 0.12183 0.22834 0.11136 0.0
C471 C 0.1384 0.24145 0.06907 0.0
C472 C 0.13592 0.26326 0.00911 0.0
H473 H 0.11899 0.18215 0.89302 0.0
H474 H 0.11467 0.19689 0.94129 0.0
H475 H 0.14864 0.2683 0.96869 0.0
H476 H 0.09262 0.23553 0.10996 0.0
H477 H 0.09266 0.25462 0.0623 0.0
H478 H 0.09475 0.231 0.01998 0.0
C479 C 0.11988 0.21213 0.92634 0.0
C480 C 0.13656 0.26097 0.9797 0.0
C481 C 0.12249 0.2036 0.89861 0.0
C482 C 0.10554 0.23778 0.09897 0.0
C483 C 0.10559 0.24837 0.07156 0.0
C484 C 0.10634 0.2403 0.00925 0.0
C485 C 0.12449 0.23954 0.9349 0.0
C486 C 0.12237 0.2474 0.965 0.0
C487 C 0.12184 0.24869 0.05561 0.0
C488 C 0.1211 0.25193 0.02436 0.0
H489 H 0.13993 0.26456 0.87185 0.0
H490 H 0.13538 0.27963 0.9209 0.0
H491 H 0.09562 0.22817 0.96923 0.0
H492 H 0.15108 0.22409 0.106 0.0
H493 H 0.15119 0.24119 0.05758 0.0
C494 C 0.86559 0.23173 0.89574 0.0
C495 C 0.88127 0.21584 0.88926 0.0
C496 C 0.86331 0.2431 0.92274 0.0
C497 C 0.85691 0.23664 0.98605 0.0
H498 H 0.89651 0.26454 0.03288 0.0
C499 C 0.87026 0.20137 0.09799 0.0
C500 C 0.86994 0.22161 0.11955 0.0
C501 C 0.86999 0.20954 0.06986 0.0
C502 C 0.88519 0.25742 0.01997 0.0
H503 H 0.9075 0.2014 0.90507 0.0
H504 H 0.90361 0.22134 0.95184 0.0
H505 H 0.89972 0.26494 0.98144 0.0
H506 H 0.86949 0.26635 0.12859 0.0
H507 H 0.86968 0.28076 0.07864 0.0
H508 H 0.84305 0.22697 0.02462 0.0
C509 C 0.89304 0.225 0.93627 0.0
C510 C 0.88704 0.25746 0.99063 0.0
C511 C 0.89518 0.2133 0.90954 0.0
C512 C 0.86971 0.25034 0.11235 0.0
C513 C 0.8698 0.25857 0.08394 0.0
C514 C 0.85517 0.23628 0.01531 0.0
C515 C 0.87684 0.23921 0.94347 0.0
C516 C 0.87321 0.246 0.97346 0.0
C517 C 0.86968 0.23812 0.06259 0.0
C518 C 0.86956 0.24568 0.03247 0.0
H519 H 0.85466 0.23405 0.88049 0.0
H520 H 0.8507 0.25402 0.92773 0.0
H521 H 0.8461 0.22742 0.97344 0.0
H522 H 0.87042 0.17907 0.10278 0.0
H523 H 0.87013 0.19344 0.05368 0.0
C524 C 0.88756 0.78094 0.89694 0.0
C525 C 0.87433 0.76898 0.8792 0.0
C526 C 0.88905 0.7724 0.92488 0.0
C527 C 0.86103 0.75097 0.98242 0.0
H528 H 0.90781 0.74409 0.02044 0.0
C529 C 0.86856 0.76791 0.10282 0.0
C530 C 0.88223 0.78779 0.10916 0.0
C531 C 0.86765 0.75568 0.07596 0.0
C532 C 0.89461 0.74574 0.01017 0.0
H533 H 0.85255 0.73816 0.8764 0.0
H534 H 0.85471 0.7238 0.92613 0.0
H535 H 0.90631 0.73963 0.96929 0.0
H536 H 0.90616 0.80935 0.09273 0.0
H537 H 0.90455 0.78829 0.04637 0.0
H538 H 0.84952 0.75922 0.02308 0.0
C539 C 0.86414 0.73943 0.91803 0.0
C540 C 0.89376 0.74305 0.98094 0.0
C541 C 0.86295 0.74754 0.88967 0.0
C542 C 0.89536 0.79429 0.08854 0.0
C543 C 0.89456 0.78192 0.06198 0.0
C544 C 0.86189 0.75383 0.01173 0.0
C545 C 0.87707 0.7521 0.93593 0.0
C546 C 0.87711 0.74697 0.96669 0.0
C547 C 0.88057 0.76279 0.05519 0.0
C548 C 0.87885 0.75264 0.02572 0.0
H549 H 0.89651 0.79749 0.88946 0.0
H550 H 0.89897 0.78282 0.93827 0.0
H551 H 0.84803 0.75424 0.97192 0.0
H552 H 0.85824 0.76247 0.11827 0.0
H553 H 0.85672 0.74098 0.07133 0.0
C554 C 0.13984 0.74966 0.11004 0.0
C555 C 0.12866 0.77108 0.12106 0.0
C556 C 0.13885 0.74263 0.08139 0.0
C557 C 0.10966 0.74847 0.01841 0.0
H558 H 0.15423 0.76339 0.97662 0.0
C559 C 0.10875 0.79821 0.91005 0.0
C560 C 0.12186 0.79115 0.88959 0.0
C561 C 0.10946 0.7864 0.93686 0.0
C562 C 0.14176 0.75837 0.98788 0.0
H563 H 0.10706 0.80082 0.11135 0.0
H564 H 0.10492 0.78801 0.06189 0.0
H565 H 0.15546 0.75844 0.02784 0.0
H566 H 0.14576 0.76542 0.88105 0.0
H567 H 0.14713 0.74485 0.92845 0.0
H568 H 0.09579 0.74963 0.97877 0.0
C569 C 0.11455 0.7768 0.07514 0.0
C570 C 0.14247 0.75555 0.01721 0.0
C571 C 0.11585 0.78425 0.10343 0.0
C572 C 0.13546 0.77128 0.89637 0.0
C573 C 0.13628 0.75959 0.92349 0.0
C574 C 0.10896 0.75106 0.98916 0.0
C575 C 0.1263 0.7564 0.06366 0.0
C576 C 0.1263 0.7519 0.0328 0.0
C577 C 0.12334 0.76724 0.94408 0.0
C578 C 0.12485 0.75746 0.97372 0.0
H579 H 0.14992 0.73934 0.12322 0.0
H580 H 0.14808 0.72689 0.07297 0.0
H581 H 0.09703 0.74531 0.02994 0.0
H582 H 0.09801 0.81328 0.90554 0.0
H583 H 0.09947 0.79319 0.95229 0.0
C584 C 0.07214 0.23122 0.21753 0.0
C585 C 0.07665 0.20292 0.22264 0.0
C586 C 0.05426 0.24085 0.22221 0.0
C587 C 0.0137 0.23836 0.20506 0.0
H588 H 0.9815 0.22398 0.26825 0.0
C589 C 0.93364 0.20686 0.2246 0.0
C590 C 0.92622 0.22018 0.20087 0.0
C591 C 0.95162 0.21262 0.23306 0.0
C592 C 0.99021 0.22793 0.25026 0.0
H593 H 0.06668 0.16331 0.2392 0.0
H594 H 0.03569 0.18039 0.24835 0.0
H595 H 0.01457 0.21887 0.27401 0.0
H596 H 0.93092 0.25155 0.16873 0.0
H597 H 0.96164 0.26359 0.18482 0.0
H598 H 0.9898 0.24475 0.18037 0.0
C599 C 0.04583 0.19503 0.24044 0.0
C600 C 0.0092 0.2253 0.25374 0.0
C601 C 0.06355 0.18525 0.23516 0.0
C602 C 0.93641 0.24105 0.18715 0.0
C603 C 0.95416 0.24753 0.19616 0.0
C604 C 0.99478 0.24029 0.20135 0.0
C605 C 0.04078 0.2225 0.2327 0.0
C606 C 0.02108 0.22999 0.231 0.0
C607 C 0.96244 0.23233 0.2183 0.0
C608 C 0.98264 0.23446 0.22369 0.0
H609 H 0.08191 0.2452 0.20759 0.0
H610 H 0.05068 0.26212 0.21608 0.0
H611 H 0.02253 0.24162 0.18702 0.0
H612 H 0.9261 0.19031 0.2352 0.0
H613 H 0.95731 0.2001 0.24996 0.0
C614 C 0.86157 0.88743 0.25156 0.0
C615 C 0.87321 0.87768 0.23011 0.0
C616 C 0.86239 0.91561 0.26031 0.0
C617 C 0.89144 0.97879 0.26017 0.0
H618 H 0.84768 0.0212 0.24167 0.0
C619 C 0.89452 0.08725 0.21165 0.0
C620 C 0.88077 0.10737 0.21636 0.0
C621 C 0.89354 0.06076 0.22407 0.0
C622 C 0.85989 0.00977 0.24779 0.0
H623 H 0.89545 0.88903 0.20216 0.0
H624 H 0.89733 0.93765 0.21806 0.0
H625 H 0.84622 0.9699 0.24488 0.0
H626 H 0.85556 0.11592 0.2389 0.0
H627 H 0.85373 0.06904 0.26061 0.0
H628 H 0.90534 0.01838 0.26183 0.0
C629 C 0.88746 0.92378 0.22793 0.0
C630 C 0.85903 0.98038 0.24959 0.0
C631 C 0.88631 0.89599 0.21871 0.0
C632 C 0.86636 0.1008 0.23488 0.0
C633 C 0.86528 0.07398 0.24718 0.0
C634 C 0.89226 0.00812 0.25867 0.0
C635 C 0.87525 0.93406 0.24831 0.0
C636 C 0.87501 0.96462 0.25438 0.0
C637 C 0.87874 0.05352 0.24152 0.0
C638 C 0.87672 0.02382 0.25091 0.0
H639 H 0.85125 0.8737 0.26051 0.0
H640 H 0.85278 0.92314 0.27597 0.0
H641 H 0.9039 0.96707 0.26419 0.0
H642 H 0.90589 0.0917 0.1977 0.0
H643 H 0.904 0.04546 0.21881 0.0
C644 C 0.93653 0.8097 0.24598 0.0
C645 C 0.92619 0.79613 0.22515 0.0
C646 C 0.95421 0.8004 0.25244 0.0
C647 C 0.98989 0.7458 0.2331 0.0
H648 H 0.02248 0.80924 0.2442 0.0
C649 C 0.06268 0.75778 0.18799 0.0
C650 C 0.076 0.77175 0.20416 0.0
C651 C 0.04514 0.75315 0.19877 0.0
C652 C 0.0136 0.79114 0.2417 0.0
H653 H 0.92573 0.76161 0.19551 0.0
H654 H 0.95683 0.7462 0.20541 0.0
H655 H 0.9898 0.81609 0.24812 0.0
H656 H 0.08183 0.79003 0.24496 0.0
H657 H 0.05093 0.7825 0.26365 0.0
H658 H 0.01409 0.72165 0.22413 0.0
C659 C 0.95128 0.76329 0.21782 0.0
C660 C 0.99471 0.79498 0.24407 0.0
C661 C 0.93336 0.7721 0.21203 0.0
C662 C 0.07189 0.77896 0.23214 0.0
C663 C 0.05419 0.77485 0.24275 0.0
C664 C 0.00884 0.74213 0.23012 0.0
C665 C 0.96227 0.77804 0.23731 0.0
C666 C 0.98247 0.77256 0.23913 0.0
C667 C 0.04045 0.76291 0.22574 0.0
C668 C 0.02085 0.76493 0.23382 0.0
H669 H 0.93125 0.82835 0.25632 0.0
H670 H 0.96185 0.81174 0.26833 0.0
H671 H 0.98107 0.72779 0.22979 0.0
H672 H 0.06549 0.75211 0.16631 0.0
H673 H 0.03483 0.74408 0.1851 0.0
C674 C 0.13333 0.11149 0.24407 0.0
C675 C 0.12986 0.12156 0.21674 0.0
C676 C 0.131 0.08283 0.25038 0.0
C677 C 0.10776 0.01894 0.2234 0.0
H678 H 0.1454 0.97719 0.26301 0.0
C679 C 0.13674 0.89961 0.22279 0.0
C680 C 0.12001 0.88593 0.2181 0.0
C681 C 0.137 0.92785 0.23134 0.0
C682 C 0.13475 0.98853 0.25193 0.0
H683 H 0.12134 0.10952 0.17464 0.0
H684 H 0.1175 0.06011 0.18545 0.0
H685 H 0.14748 0.02852 0.25979 0.0
H686 H 0.09058 0.88953 0.22134 0.0
H687 H 0.09094 0.93803 0.23804 0.0
H688 H 0.09563 0.97946 0.21365 0.0
C689 C 0.12167 0.07416 0.20223 0.0
C690 C 0.13585 0.01798 0.25037 0.0
C691 C 0.124 0.10256 0.19597 0.0
C692 C 0.10364 0.89985 0.22461 0.0
C693 C 0.10389 0.92773 0.23388 0.0
C694 C 0.10674 0.98969 0.22473 0.0
C695 C 0.12506 0.0639 0.22948 0.0
C696 C 0.12264 0.03338 0.23529 0.0
C697 C 0.12051 0.94262 0.23581 0.0
C698 C 0.12044 0.97395 0.2384 0.0
H699 H 0.13792 0.12568 0.26047 0.0
H700 H 0.13369 0.07553 0.27158 0.0
H701 H 0.09718 0.03021 0.21206 0.0
H702 H 0.14953 0.88924 0.21767 0.0
H703 H 0.15007 0.93852 0.23243 0.0
C704 C 0.9341 0.78626 0.7737 0.0
C705 C 0.92689 0.77315 0.79769 0.0
C706 C 0.95212 0.78075 0.76521 0.0
C707 C 0.99552 0.75578 0.79794 0.0
H708 H 0.0153 0.77567 0.72487 0.0
C709 C 0.0728 0.76964 0.78289 0.0
C710 C 0.07671 0.79754 0.77512 0.0
C711 C 0.05517 0.75865 0.77898 0.0
C712 C 0.00995 0.76971 0.74529 0.0
H713 H 0.93196 0.74218 0.83011 0.0
H714 H 0.96276 0.73066 0.81406 0.0
H715 H 0.98231 0.76914 0.73035 0.0
H716 H 0.06591 0.83485 0.75483 0.0
H717 H 0.03538 0.8154 0.74719 0.0
H718 H 0.02316 0.75658 0.8128 0.0
C719 C 0.95507 0.74634 0.80251 0.0
C720 C 0.991 0.76622 0.74857 0.0
C721 C 0.93727 0.75251 0.81148 0.0
C722 C 0.06325 0.81326 0.76097 0.0
C723 C 0.04578 0.80209 0.75654 0.0
C724 C 0.01442 0.75868 0.79449 0.0
C725 C 0.96316 0.76155 0.78025 0.0
C726 C 0.98342 0.7602 0.77521 0.0
C727 C 0.04132 0.77517 0.76667 0.0
C728 C 0.02179 0.76657 0.76839 0.0
H729 H 0.92643 0.80263 0.76304 0.0
H730 H 0.95769 0.79319 0.74817 0.0
H731 H 0.99047 0.75174 0.81896 0.0
H732 H 0.08286 0.75715 0.79409 0.0
H733 H 0.05208 0.7378 0.78692 0.0
C734 C 0.11719 0.89704 0.77792 0.0
C735 C 0.13035 0.87861 0.76686 0.0
C736 C 0.11611 0.92475 0.76845 0.0
C737 C 0.14474 0.98106 0.74732 0.0
H738 H 0.09865 0.01924 0.73368 0.0
C739 C 0.13743 0.1013 0.76285 0.0
C740 C 0.12275 0.10776 0.7809 0.0
C741 C 0.13861 0.07463 0.75022 0.0
C742 C 0.11168 0.00893 0.73723 0.0
H743 H 0.15247 0.87432 0.73679 0.0
H744 H 0.15107 0.92365 0.72092 0.0
H745 H 0.10006 0.96793 0.7313 0.0
H746 H 0.09725 0.09212 0.79831 0.0
H747 H 0.09932 0.04614 0.77669 0.0
H748 H 0.15603 0.02181 0.75573 0.0
C749 C 0.14136 0.91625 0.73648 0.0
C750 C 0.11248 0.97961 0.73571 0.0
C751 C 0.14211 0.88814 0.74547 0.0
C752 C 0.10883 0.08773 0.78476 0.0
C753 C 0.10992 0.0614 0.77202 0.0
C754 C 0.1439 0.01045 0.74917 0.0
C755 C 0.12845 0.93484 0.74817 0.0
C756 C 0.12881 0.96537 0.742 0.0
C757 C 0.125 0.05422 0.75511 0.0
C758 C 0.12712 0.02457 0.74556 0.0
H759 H 0.10797 0.89024 0.79442 0.0
H760 H 0.10619 0.93873 0.77807 0.0
H761 H 0.15747 0.97053 0.75242 0.0
H762 H 0.14835 0.11635 0.75947 0.0
H763 H 0.15037 0.06976 0.73721 0.0
C764 C 0.07 0.20928 0.77333 0.0
C765 C 0.07743 0.22143 0.79767 0.0
C766 C 0.05204 0.21554 0.76513 0.0
C767 C 0.00898 0.24122 0.79852 0.0
H768 H 0.989 0.22354 0.725 0.0
C769 C 0.93165 0.23046 0.78305 0.0
C770 C 0.9275 0.2025 0.77583 0.0
C771 C 0.94936 0.24102 0.77886 0.0
C772 C 0.99442 0.22893 0.74553 0.0
H773 H 0.0728 0.25138 0.83117 0.0
H774 H 0.0421 0.26429 0.81568 0.0
H775 H 0.02207 0.22889 0.73068 0.0
H776 H 0.93791 0.16461 0.75615 0.0
H777 H 0.96858 0.18336 0.74792 0.0
H778 H 0.98131 0.24113 0.81325 0.0
C779 C 0.04957 0.24875 0.80359 0.0
C780 C 0.0134 0.2317 0.74895 0.0
C781 C 0.0673 0.24178 0.81228 0.0
C782 C 0.94077 0.18627 0.76183 0.0
C783 C 0.9583 0.19702 0.75707 0.0
C784 C 0.99006 0.23911 0.79494 0.0
C785 C 0.04126 0.23458 0.78082 0.0
C786 C 0.02104 0.23684 0.77575 0.0
C787 C 0.96302 0.22399 0.76678 0.0
C788 C 0.98262 0.23202 0.76866 0.0
H789 H 0.0775 0.19316 0.76202 0.0
H790 H 0.04631 0.20383 0.7477 0.0
H791 H 0.01405 0.24459 0.81966 0.0
H792 H 0.92174 0.24331 0.79415 0.0
H793 H 0.95267 0.2619 0.78652 0.0
C794 C 0.86909 0.89585 0.7691 0.0
C795 C 0.8829 0.88901 0.78859 0.0
C796 C 0.86824 0.92294 0.75734 0.0
C797 C 0.86267 0.98715 0.75657 0.0
H798 H 0.90714 0.03009 0.74427 0.0
C799 C 0.88756 0.10213 0.78579 0.0
C800 C 0.87498 0.12005 0.77248 0.0
C801 C 0.88905 0.07403 0.77766 0.0
C802 C 0.89458 0.0183 0.74718 0.0
H803 H 0.90719 0.90472 0.80976 0.0
H804 H 0.90564 0.9514 0.78967 0.0
H805 H 0.90866 0.97883 0.74719 0.0
H806 H 0.85433 0.12296 0.73986 0.0
H807 H 0.85647 0.07304 0.72625 0.0
H808 H 0.84876 0.02694 0.75767 0.0
C809 C 0.89551 0.93607 0.78319 0.0
C810 C 0.89543 0.989 0.749 0.0
C811 C 0.89626 0.9093 0.79503 0.0
C812 C 0.86422 0.10954 0.7503 0.0
C813 C 0.86539 0.08109 0.7426 0.0
C814 C 0.86179 0.01653 0.75444 0.0
C815 C 0.88135 0.94345 0.76457 0.0
C816 C 0.87965 0.97322 0.75521 0.0
C817 C 0.87772 0.06308 0.75643 0.0
C818 C 0.87788 0.03238 0.75109 0.0
H819 H 0.85861 0.88065 0.76371 0.0
H820 H 0.8572 0.92798 0.74299 0.0
H821 H 0.85027 0.97566 0.76147 0.0
H822 H 0.89602 0.10966 0.80293 0.0
H823 H 0.89851 0.06051 0.7889 0.0
C824 C 0.63493 0.6986 0.39843 0.0
C825 C 0.63519 0.71948 0.37752 0.0
C826 C 0.6331 0.70579 0.42663 0.0
C827 C 0.63816 0.75955 0.48016 0.0
H828 H 0.60166 0.71359 0.51759 0.0
C829 C 0.60438 0.72966 0.59596 0.0
C830 C 0.62057 0.72544 0.61125 0.0
C831 C 0.60505 0.73911 0.5682 0.0
C832 C 0.61163 0.72719 0.50759 0.0
H833 H 0.63459 0.76445 0.36982 0.0
H834 H 0.6311 0.77718 0.41993 0.0
H835 H 0.60529 0.71027 0.46714 0.0
H836 H 0.65004 0.72996 0.61064 0.0
H837 H 0.65138 0.74536 0.56148 0.0
H838 H 0.64478 0.7759 0.52113 0.0
C839 C 0.63239 0.75522 0.41411 0.0
C840 C 0.61383 0.72499 0.47861 0.0
C841 C 0.63432 0.74796 0.38556 0.0
C842 C 0.63737 0.73316 0.5992 0.0
C843 C 0.6381 0.74205 0.57107 0.0
C844 C 0.63596 0.76177 0.50946 0.0
C845 C 0.63134 0.73405 0.43476 0.0
C846 C 0.62746 0.74045 0.46469 0.0
C847 C 0.62198 0.74367 0.55484 0.0
C848 C 0.6229 0.74512 0.52356 0.0
H849 H 0.63595 0.67649 0.39301 0.0
H850 H 0.63277 0.68907 0.44216 0.0
H851 H 0.64878 0.77169 0.46986 0.0
H852 H 0.59123 0.72411 0.60498 0.0
H853 H 0.59234 0.74095 0.55659 0.0
C854 C 0.38546 0.71806 0.60322 0.0
C855 C 0.37232 0.72966 0.62136 0.0
C856 C 0.38667 0.72699 0.57536 0.0
C857 C 0.35843 0.74811 0.51833 0.0
H858 H 0.40493 0.75938 0.4806 0.0
C859 C 0.36646 0.73261 0.39789 0.0
C860 C 0.38083 0.71393 0.39156 0.0
C861 C 0.36517 0.74484 0.42473 0.0
C862 C 0.39179 0.75649 0.49078 0.0
H863 H 0.35037 0.76012 0.62494 0.0
H864 H 0.352 0.77508 0.57533 0.0
H865 H 0.40329 0.76255 0.53183 0.0
H866 H 0.40564 0.69475 0.40783 0.0
H867 H 0.40339 0.71574 0.4541 0.0
H868 H 0.34721 0.73971 0.4775 0.0
C869 C 0.36159 0.75949 0.58307 0.0
C870 C 0.39086 0.75846 0.52006 0.0
C871 C 0.36071 0.75103 0.61135 0.0
C872 C 0.3943 0.70883 0.41205 0.0
C873 C 0.39312 0.72118 0.43857 0.0
C874 C 0.35939 0.74587 0.48897 0.0
C875 C 0.37449 0.74728 0.5648 0.0
C876 C 0.37436 0.753 0.53417 0.0
C877 C 0.3784 0.73893 0.44546 0.0
C878 C 0.37629 0.74865 0.47505 0.0
H879 H 0.39457 0.70156 0.61036 0.0
H880 H 0.39657 0.71695 0.56164 0.0
H881 H 0.34556 0.74365 0.52875 0.0
H882 H 0.35587 0.73695 0.3825 0.0
H883 H 0.35368 0.75848 0.42942 0.0
C884 C 0.38726 0.28064 0.39677 0.0
C885 C 0.37396 0.26927 0.37875 0.0
C886 C 0.38855 0.27162 0.42461 0.0
C887 C 0.36023 0.25048 0.48169 0.0
H888 H 0.40676 0.23972 0.51955 0.0
C889 C 0.36796 0.26598 0.6021 0.0
C890 C 0.38221 0.28483 0.60854 0.0
C891 C 0.36681 0.25374 0.57526 0.0
C892 C 0.39362 0.24246 0.50933 0.0
H893 H 0.35185 0.23908 0.37533 0.0
H894 H 0.35365 0.22397 0.42486 0.0
H895 H 0.40518 0.23653 0.46831 0.0
H896 H 0.40698 0.30428 0.59247 0.0
H897 H 0.40498 0.28326 0.54618 0.0
H898 H 0.34894 0.25871 0.52249 0.0
C899 C 0.36328 0.23945 0.41706 0.0
C900 C 0.39272 0.24049 0.48004 0.0
C901 C 0.3623 0.24801 0.38883 0.0
C902 C 0.39572 0.29007 0.58816 0.0
C903 C 0.39469 0.2777 0.56164 0.0
C904 C 0.36116 0.2527 0.51105 0.0
C905 C 0.37631 0.25147 0.43524 0.0
C906 C 0.3762 0.24577 0.46589 0.0
C907 C 0.38008 0.2598 0.55463 0.0
C908 C 0.37806 0.25012 0.52502 0.0
H909 H 0.39642 0.29704 0.38958 0.0
H910 H 0.39855 0.28152 0.43824 0.0
H911 H 0.34735 0.2548 0.47125 0.0
H912 H 0.35734 0.26153 0.61739 0.0
H913 H 0.35541 0.23997 0.57048 0.0
C914 C 0.60774 0.28793 0.40806 0.0
C915 C 0.6219 0.28556 0.38819 0.0
C916 C 0.60995 0.27743 0.43528 0.0
C917 C 0.61651 0.2465 0.49064 0.0
H918 H 0.65893 0.28145 0.52514 0.0
C919 C 0.63219 0.25219 0.61231 0.0
C920 C 0.63242 0.28056 0.62078 0.0
C921 C 0.63224 0.24522 0.58359 0.0
C922 C 0.64723 0.27106 0.51571 0.0
H923 H 0.64912 0.26898 0.38073 0.0
H924 H 0.65321 0.25121 0.42883 0.0
H925 H 0.6562 0.2805 0.4739 0.0
H926 H 0.633 0.3238 0.60599 0.0
H927 H 0.63358 0.31161 0.55625 0.0
H928 H 0.60718 0.23842 0.53277 0.0
C929 C 0.64033 0.261 0.42312 0.0
C930 C 0.6457 0.27037 0.48642 0.0
C931 C 0.63798 0.27109 0.39563 0.0
C932 C 0.63276 0.30174 0.60016 0.0
C933 C 0.63322 0.29481 0.57169 0.0
C934 C 0.61819 0.24682 0.52 0.0
C935 C 0.62649 0.26469 0.44337 0.0
C936 C 0.62997 0.25913 0.47362 0.0
C937 C 0.63301 0.26656 0.56313 0.0
C938 C 0.63322 0.26013 0.53271 0.0
H939 H 0.59513 0.29877 0.40284 0.0
H940 H 0.59912 0.28087 0.45048 0.0
H941 H 0.60428 0.23762 0.48127 0.0
H942 H 0.63189 0.23547 0.62782 0.0
H943 H 0.63197 0.22329 0.57734 0.0
C944 C 0.56903 0.72891 0.71309 0.0
C945 C 0.57661 0.70454 0.72497 0.0
C946 C 0.55088 0.73643 0.71889 0.0
C947 C 0.50794 0.70096 0.74214 0.0
H948 H 0.48706 0.77405 0.72506 0.0
C949 C 0.43036 0.71476 0.72986 0.0
C950 C 0.42627 0.72254 0.70202 0.0
C951 C 0.44802 0.71885 0.74067 0.0
C952 C 0.49273 0.75361 0.73025 0.0
H953 H 0.57199 0.67032 0.75411 0.0
H954 H 0.54094 0.68465 0.7663 0.0
H955 H 0.52012 0.76949 0.73158 0.0
H956 H 0.43679 0.74294 0.66459 0.0
H957 H 0.46738 0.751 0.6838 0.0
H958 H 0.4805 0.68522 0.74075 0.0
C959 C 0.54846 0.69728 0.75129 0.0
C960 C 0.51171 0.75086 0.7337 0.0
C961 C 0.5664 0.68929 0.74476 0.0
C962 C 0.43959 0.73681 0.68615 0.0
C963 C 0.45707 0.74148 0.69716 0.0
C964 C 0.48899 0.70388 0.73936 0.0
C965 C 0.54004 0.72 0.7372 0.0
C966 C 0.5197 0.72426 0.73869 0.0
C967 C 0.4617 0.7314 0.72404 0.0
C968 C 0.48124 0.73001 0.73249 0.0
H969 H 0.57656 0.74069 0.69734 0.0
H970 H 0.54507 0.75388 0.7073 0.0
H971 H 0.51329 0.67996 0.74534 0.0
H972 H 0.42041 0.70344 0.74244 0.0
H973 H 0.45126 0.71089 0.76146 0.0
C974 C 0.36763 0.60189 0.73075 0.0
C975 C 0.38125 0.6087 0.71094 0.0
C976 C 0.36692 0.57484 0.74261 0.0
C977 C 0.36154 0.51052 0.74356 0.0
H978 H 0.40624 0.46813 0.75586 0.0
C979 C 0.38719 0.39593 0.71436 0.0
C980 C 0.37442 0.37792 0.72707 0.0
C981 C 0.38859 0.42394 0.72279 0.0
C982 C 0.39362 0.47975 0.75296 0.0
H983 H 0.40534 0.59295 0.68927 0.0
H984 H 0.40405 0.54633 0.70959 0.0
H985 H 0.40751 0.51938 0.75264 0.0
H986 H 0.35335 0.37475 0.75901 0.0
H987 H 0.35535 0.42454 0.77316 0.0
H988 H 0.34783 0.47059 0.74263 0.0
C989 C 0.39395 0.56167 0.71621 0.0
C990 C 0.39433 0.50905 0.75097 0.0
C991 C 0.39456 0.5884 0.70425 0.0
C992 C 0.36339 0.38823 0.74903 0.0
C993 C 0.36448 0.41662 0.75703 0.0
C994 C 0.36081 0.48114 0.7458 0.0
C995 C 0.37999 0.55435 0.73519 0.0
C996 C 0.37845 0.52463 0.74475 0.0
C997 C 0.37699 0.43476 0.74372 0.0
C998 C 0.37698 0.46546 0.74913 0.0
H999 H 0.3572 0.61711 0.73634 0.0
H1000 H 0.35602 0.56982 0.75722 0.0
H1001 H 0.34908 0.52187 0.73867 0.0
H1002 H 0.39587 0.38856 0.69742 0.0
H1003 H 0.39818 0.43753 0.71191 0.0
C1004 C 0.56691 0.25475 0.68788 0.0
C1005 C 0.57699 0.27482 0.70295 0.0
C1006 C 0.54914 0.24765 0.69627 0.0
C1007 C 0.51268 0.26419 0.75066 0.0
H1008 H 0.48097 0.25622 0.68569 0.0
C1009 C 0.44048 0.3112 0.73715 0.0
C1010 C 0.42715 0.29534 0.72288 0.0
C1011 C 0.45792 0.30008 0.74198 0.0
C1012 C 0.48961 0.25784 0.70417 0.0
H1013 H 0.57694 0.30237 0.73916 0.0
H1014 H 0.54572 0.29148 0.75299 0.0
H1015 H 0.51373 0.25227 0.67979 0.0
H1016 H 0.42119 0.25483 0.70406 0.0
H1017 H 0.45195 0.23562 0.7118 0.0
H1018 H 0.48816 0.27248 0.7743 0.0
C1019 C 0.5515 0.28008 0.73539 0.0
C1020 C 0.50854 0.25544 0.70089 0.0
C1021 C 0.56949 0.28645 0.72749 0.0
C1022 C 0.43114 0.26739 0.71538 0.0
C1023 C 0.44876 0.25647 0.71963 0.0
C1024 C 0.4937 0.26727 0.75378 0.0
C1025 C 0.54075 0.26143 0.7192 0.0
C1026 C 0.52048 0.25931 0.72392 0.0
C1027 C 0.46249 0.27312 0.73205 0.0
C1028 C 0.48203 0.26473 0.73042 0.0
H1029 H 0.57245 0.24556 0.66881 0.0
H1030 H 0.5417 0.23239 0.6838 0.0
H1031 H 0.52122 0.26658 0.76912 0.0
H1032 H 0.43776 0.33284 0.74305 0.0
H1033 H 0.46826 0.31346 0.75139 0.0
C1034 C 0.62232 0.60356 0.70135 0.0
C1035 C 0.62917 0.62306 0.72088 0.0
C1036 C 0.61995 0.57545 0.70876 0.0
C1037 C 0.63608 0.52061 0.75671 0.0
H1038 H 0.59468 0.48114 0.72438 0.0
C1039 C 0.60452 0.40177 0.73236 0.0
C1040 C 0.62088 0.38876 0.7241 0.0
C1041 C 0.60464 0.42938 0.74244 0.0
C1042 C 0.60615 0.49162 0.7343 0.0
H1043 H 0.6389 0.62843 0.76367 0.0
H1044 H 0.63469 0.57876 0.7768 0.0
H1045 H 0.59577 0.5319 0.72235 0.0
H1046 H 0.65027 0.3933 0.72135 0.0
H1047 H 0.65052 0.44209 0.73745 0.0
H1048 H 0.64649 0.4801 0.76857 0.0
C1049 C 0.63121 0.58545 0.75567 0.0
C1050 C 0.60688 0.52088 0.7327 0.0
C1051 C 0.63354 0.61384 0.74821 0.0
C1052 C 0.63751 0.40297 0.72786 0.0
C1053 C 0.63761 0.43093 0.7372 0.0
C1054 C 0.63528 0.49116 0.75857 0.0
C1055 C 0.62434 0.56599 0.73597 0.0
C1056 C 0.62218 0.53564 0.74281 0.0
C1057 C 0.62105 0.44492 0.74339 0.0
C1058 C 0.62059 0.4762 0.74649 0.0
H1059 H 0.61893 0.60987 0.68006 0.0
H1060 H 0.61504 0.56096 0.69285 0.0
H1061 H 0.64804 0.5314 0.76477 0.0
H1062 H 0.59155 0.39103 0.72975 0.0
H1063 H 0.59169 0.43904 0.74792 0.0
C1064 C 0.43377 0.28606 0.27295 0.0
C1065 C 0.42653 0.27312 0.29703 0.0
C1066 C 0.45162 0.27993 0.26413 0.0
C1067 C 0.49485 0.25335 0.29606 0.0
H1068 H 0.51441 0.2731 0.22281 0.0
C1069 C 0.57201 0.26635 0.28084 0.0
C1070 C 0.57593 0.29433 0.27338 0.0
C1071 C 0.5544 0.25538 0.27663 0.0
C1072 C 0.50911 0.26715 0.24327 0.0
H1073 H 0.43136 0.24187 0.32926 0.0
H1074 H 0.46185 0.2293 0.31264 0.0
H1075 H 0.48138 0.26738 0.22873 0.0
H1076 H 0.56524 0.33178 0.25321 0.0
H1077 H 0.53476 0.31238 0.24507 0.0
H1078 H 0.52257 0.25339 0.31055 0.0
C1079 C 0.45432 0.24529 0.30128 0.0
C1080 C 0.49016 0.26413 0.2468 0.0
C1081 C 0.4367 0.25209 0.31059 0.0
C1082 C 0.56256 0.31013 0.25911 0.0
C1083 C 0.54513 0.29899 0.25439 0.0
C1084 C 0.51375 0.25577 0.29236 0.0
C1085 C 0.46248 0.26027 0.27892 0.0
C1086 C 0.48267 0.25823 0.27354 0.0
C1087 C 0.5406 0.27203 0.26435 0.0
C1088 C 0.52105 0.26363 0.2662 0.0
H1089 H 0.42626 0.30271 0.26245 0.0
H1090 H 0.45726 0.29221 0.24702 0.0
H1091 H 0.48988 0.24937 0.31714 0.0
H1092 H 0.58201 0.25382 0.29211 0.0
H1093 H 0.55128 0.2345 0.28443 0.0
C1094 C 0.63879 0.3872 0.24595 0.0
C1095 C 0.62795 0.3774 0.26835 0.0
C1096 C 0.63764 0.41539 0.23733 0.0
C1097 C 0.60858 0.47842 0.23963 0.0
H1098 H 0.65294 0.52108 0.25348 0.0
C1099 C 0.60719 0.58805 0.28567 0.0
C1100 C 0.62102 0.60778 0.27995 0.0
C1101 C 0.60764 0.56137 0.2736 0.0
C1102 C 0.64053 0.50958 0.24864 0.0
H1103 H 0.60677 0.38871 0.29822 0.0
H1104 H 0.60432 0.43741 0.2826 0.0
H1105 H 0.65429 0.46975 0.25111 0.0
H1106 H 0.64569 0.61552 0.25582 0.0
H1107 H 0.64655 0.56837 0.23458 0.0
H1108 H 0.59464 0.51799 0.23825 0.0
C1109 C 0.61382 0.42353 0.27189 0.0
C1110 C 0.64132 0.48016 0.24735 0.0
C1111 C 0.6153 0.39571 0.28094 0.0
C1112 C 0.63485 0.60071 0.26063 0.0
C1113 C 0.63539 0.57371 0.24861 0.0
C1114 C 0.60782 0.50778 0.24056 0.0
C1115 C 0.62525 0.43382 0.25046 0.0
C1116 C 0.6252 0.46435 0.24422 0.0
C1117 C 0.62196 0.55357 0.25545 0.0
C1118 C 0.62361 0.52362 0.24662 0.0
H1119 H 0.64874 0.37349 0.23604 0.0
H1120 H 0.64663 0.42292 0.22084 0.0
H1121 H 0.596 0.46665 0.23688 0.0
H1122 H 0.59623 0.59289 0.30026 0.0
H1123 H 0.59722 0.54637 0.27977 0.0
C1124 C 0.57304 0.71615 0.27093 0.0
C1125 C 0.57753 0.7216 0.29919 0.0
C1126 C 0.55519 0.7208 0.26115 0.0
C1127 C 0.51037 0.7536 0.27608 0.0
H1128 H 0.49022 0.68123 0.25479 0.0
C1129 C 0.43432 0.72611 0.29217 0.0
C1130 C 0.42679 0.7029 0.2781 0.0
C1131 C 0.45241 0.73435 0.28691 0.0
C1132 C 0.49544 0.70195 0.25979 0.0
H1133 H 0.56745 0.7386 0.33857 0.0
H1134 H 0.5365 0.74763 0.32121 0.0
H1135 H 0.52301 0.68671 0.25905 0.0
H1136 H 0.43144 0.67156 0.2459 0.0
H1137 H 0.46238 0.6873 0.23481 0.0
H1138 H 0.48284 0.76898 0.27686 0.0
C1139 C 0.54666 0.73947 0.30673 0.0
C1140 C 0.51439 0.70498 0.26237 0.0
C1141 C 0.56436 0.73424 0.31668 0.0
C1142 C 0.43699 0.68963 0.25693 0.0
C1143 C 0.45487 0.6984 0.25101 0.0
C1144 C 0.49137 0.75078 0.27285 0.0
C1145 C 0.54168 0.73161 0.27927 0.0
C1146 C 0.52202 0.73055 0.27139 0.0
C1147 C 0.46324 0.71985 0.26703 0.0
C1148 C 0.48354 0.7246 0.26561 0.0
H1149 H 0.58286 0.70616 0.25706 0.0
H1150 H 0.55169 0.7146 0.23987 0.0
H1151 H 0.51593 0.7736 0.28295 0.0
H1152 H 0.42679 0.7363 0.30899 0.0
H1153 H 0.45818 0.75074 0.30001 0.0
C1154 C 0.39632 0.4106 0.296 0.0
C1155 C 0.38319 0.39011 0.28911 0.0
C1156 C 0.39556 0.43738 0.28415 0.0
C1157 C 0.39565 0.49016 0.24958 0.0
H1158 H 0.34874 0.52768 0.25702 0.0
C1159 C 0.36361 0.61036 0.25071 0.0
C1160 C 0.37438 0.62091 0.27285 0.0
C1161 C 0.36501 0.58198 0.24276 0.0
C1162 C 0.36185 0.51739 0.25409 0.0
H1163 H 0.35926 0.38146 0.26348 0.0
H1164 H 0.35783 0.42877 0.24278 0.0
H1165 H 0.35043 0.47644 0.26114 0.0
H1166 H 0.3957 0.61071 0.3029 0.0
H1167 H 0.39856 0.5618 0.28851 0.0
H1168 H 0.40722 0.53132 0.24475 0.0
C1169 C 0.36871 0.42388 0.25747 0.0
C1170 C 0.36283 0.48804 0.25644 0.0
C1171 C 0.36958 0.3968 0.26924 0.0
C1172 C 0.38722 0.60316 0.28581 0.0
C1173 C 0.38893 0.57518 0.27744 0.0
C1174 C 0.39468 0.51944 0.24748 0.0
C1175 C 0.38161 0.44455 0.26508 0.0
C1176 C 0.37988 0.47427 0.25557 0.0
C1177 C 0.37757 0.56411 0.25632 0.0
C1178 C 0.37789 0.53339 0.25097 0.0
H1179 H 0.40709 0.40616 0.31106 0.0
H1180 H 0.40552 0.45285 0.29092 0.0
H1181 H 0.40893 0.48011 0.24814 0.0
H1182 H 0.35353 0.62363 0.24053 0.0
H1183 H 0.35606 0.57385 0.22649 0.0
loop_
_geom_bond_atom_site_label_1
_geom_bond_atom_site_label_2
_geom_bond_distance
_geom_bond_site_symmetry_2
_ccdc_geom_bond_type
Co0 O1 2.216 . S
Co0 O2 2.091 . S
Co0 O4 2.004 . S
Co0 O10 2.021 . S
Co0 O12 2.137 . S
Co0 O13 2.244 . S
O1 Co0 2.216 . S
O1 C8 1.247 . S
O2 Co0 2.091 . S
O2 C8 1.261 . S
C3 O12 1.247 . S
C3 O13 1.272 . S
O4 Co0 2.004 . S
O4 C9 1.259 . S
Co5 O6 2.061 . S
Co5 O11 2.052 . S
Co5 O13 2.135 . S
O6 Co5 2.061 . S
O6 C9 1.235 . S
C7 O10 1.238 . S
C7 O11 1.241 . S
C8 O1 1.247 . S
C8 O2 1.261 . S
C9 O4 1.259 . S
C9 O6 1.235 . S
O10 Co0 2.021 . S
O10 C7 1.238 . S
O11 Co5 2.052 . S
O11 C7 1.241 . S
O12 Co0 2.137 . S
O12 C3 1.247 . S
O13 Co0 2.244 . S
O13 C3 1.272 . S
O13 Co5 2.135 . S
Co14 O15 2.216 . S
Co14 O16 2.091 . S
Co14 O18 2.004 . S
Co14 O24 2.021 . S
Co14 O26 2.137 . S
Co14 O27 2.244 . S
O15 Co14 2.216 . S
O15 C22 1.247 . S
O16 Co14 2.091 . S
O16 C22 1.261 . S
C17 O26 1.247 . S
C17 O27 1.272 . S
O18 Co14 2.004 . S
O18 C23 1.259 . S
Co19 O20 2.061 . S
Co19 O25 2.052 . S
Co19 O27 2.135 . S
O20 Co19 2.061 . S
O20 C23 1.235 . S
C21 O24 1.238 . S
C21 O25 1.241 . S
C22 O15 1.247 . S
C22 O16 1.261 . S
C23 O18 1.259 . S
C23 O20 1.235 . S
O24 Co14 2.021 . S
O24 C21 1.238 . S
O25 Co19 2.052 . S
O25 C21 1.241 . S
O26 Co14 2.137 . S
O26 C17 1.247 . S
O27 Co14 2.244 . S
O27 C17 1.272 . S
O27 Co19 2.135 . S
Co28 O29 2.216 . S
Co28 O30 2.091 . S
Co28 O32 2.004 . S
Co28 O38 2.021 . S
Co28 O40 2.137 . S
Co28 O41 2.244 . S
O29 Co28 2.216 . S
O29 C36 1.247 . S
O30 Co28 2.091 . S
O30 C36 1.261 . S
C31 O40 1.247 . S
C31 O41 1.272 . S
O32 Co28 2.004 . S
O32 C37 1.259 . S
Co33 O34 2.061 . S
Co33 O39 2.052 . S
Co33 O41 2.135 . S
O34 Co33 2.061 . S
O34 C37 1.235 . S
C35 O38 1.238 . S
C35 O39 1.241 . S
C36 O29 1.247 . S
C36 O30 1.261 . S
C37 O32 1.259 . S
C37 O34 1.235 . S
O38 Co28 2.021 . S
O38 C35 1.238 . S
O39 Co33 2.052 . S
O39 C35 1.241 . S
O40 Co28 2.137 . S
O40 C31 1.247 . S
O41 Co28 2.244 . S
O41 C31 1.272 . S
O41 Co33 2.135 . S
Co42 O43 2.216 . S
Co42 O44 2.091 . S
Co42 O46 2.004 . S
Co42 O52 2.021 . S
Co42 O54 2.137 . S
Co42 O55 2.244 . S
O43 Co42 2.216 . S
O43 C50 1.247 . S
O44 Co42 2.091 . S
O44 C50 1.261 . S
C45 O54 1.247 . S
C45 O55 1.272 . S
O46 Co42 2.004 . S
O46 C51 1.259 . S
Co47 O48 2.061 . S
Co47 O53 2.052 . S
Co47 O55 2.135 . S
O48 Co47 2.061 . S
O48 C51 1.235 . S
C49 O52 1.238 . S
C49 O53 1.241 . S
C50 O43 1.247 . S
C50 O44 1.261 . S
C51 O46 1.259 . S
C51 O48 1.235 . S
O52 Co42 2.021 . S
O52 C49 1.238 . S
O53 Co47 2.052 . S
O53 C49 1.241 . S
O54 Co42 2.137 . S
O54 C45 1.247 . S
O55 Co42 2.244 . S
O55 C45 1.272 . S
O55 Co47 2.135 . S
Co56 O57 2.216 . S
Co56 O58 2.091 . S
Co56 O60 2.004 . S
Co56 O66 2.021 . S
Co56 O68 2.137 . S
Co56 O69 2.244 . S
O57 Co56 2.216 . S
O57 C64 1.247 . S
O58 Co56 2.091 . S
O58 C64 1.261 . S
C59 O68 1.247 . S
C59 O69 1.272 . S
O60 Co56 2.004 . S
O60 C65 1.259 . S
Co61 O62 2.061 . S
Co61 O67 2.052 . S
Co61 O69 2.135 . S
O62 Co61 2.061 . S
O62 C65 1.235 . S
C63 O66 1.238 . S
C63 O67 1.241 . S
C64 O57 1.247 . S
C64 O58 1.261 . S
C65 O60 1.259 . S
C65 O62 1.235 . S
O66 Co56 2.021 . S
O66 C63 1.238 . S
O67 Co61 2.052 . S
O67 C63 1.241 . S
O68 Co56 2.137 . S
O68 C59 1.247 . S
O69 Co56 2.244 . S
O69 C59 1.272 . S
O69 Co61 2.135 . S
Co70 O71 2.216 . S
Co70 O72 2.091 . S
Co70 O74 2.004 . S
Co70 O80 2.021 . S
Co70 O82 2.137 . S
Co70 O83 2.244 . S
O71 Co70 2.216 . S
O71 C78 1.247 . S
O72 Co70 2.091 . S
O72 C78 1.261 . S
C73 O82 1.247 . S
C73 O83 1.272 . S
O74 Co70 2.004 . S
O74 C79 1.259 . S
Co75 O76 2.061 . S
Co75 O81 2.052 . S
Co75 O83 2.135 . S
O76 Co75 2.061 . S
O76 C79 1.235 . S
C77 O80 1.238 . S
C77 O81 1.241 . S
C78 O71 1.247 . S
C78 O72 1.261 . S
C79 O74 1.259 . S
C79 O76 1.235 . S
O80 Co70 2.021 . S
O80 C77 1.238 . S
O81 Co75 2.052 . S
O81 C77 1.241 . S
O82 Co70 2.137 . S
O82 C73 1.247 . S
O83 Co70 2.244 . S
O83 C73 1.272 . S
O83 Co75 2.135 . S
Co84 O85 2.216 . S
Co84 O86 2.091 . S
Co84 O88 2.004 . S
Co84 O94 2.021 . S
Co84 O96 2.137 . S
Co84 O97 2.244 . S
O85 Co84 2.216 . S
O85 C92 1.247 . S
O86 Co84 2.091 . S
O86 C92 1.261 . S
C87 O96 1.247 . S
C87 O97 1.272 . S
O88 Co84 2.004 . S
O88 C93 1.259 . S
Co89 O90 2.061 . S
Co89 O95 2.052 . S
Co89 O97 2.135 . S
O90 Co89 2.061 . S
O90 C93 1.235 . S
C91 O94 1.238 . S
C91 O95 1.241 . S
C92 O85 1.247 . S
C92 O86 1.261 . S
C93 O88 1.259 . S
C93 O90 1.235 . S
O94 Co84 2.021 . S
O94 C91 1.238 . S
O95 Co89 2.052 . S
O95 C91 1.241 . S
O96 Co84 2.137 . S
O96 C87 1.247 . S
O97 Co84 2.244 . S
O97 C87 1.272 . S
O97 Co89 2.135 . S
Co98 O99 2.216 . S
Co98 O100 2.091 . S
Co98 O102 2.004 . S
Co98 O108 2.021 . S
Co98 O110 2.137 . S
Co98 O111 2.244 . S
O99 Co98 2.216 . S
O99 C106 1.247 . S
O100 Co98 2.091 . S
O100 C106 1.261 . S
C101 O110 1.247 . S
C101 O111 1.272 . S
O102 Co98 2.004 . S
O102 C107 1.259 . S
Co103 O104 2.061 . S
Co103 O109 2.052 . S
Co103 O111 2.135 . S
O104 Co103 2.061 . S
O104 C107 1.235 . S
C105 O108 1.238 . S
C105 O109 1.241 . S
C106 O99 1.247 . S
C106 O100 1.261 . S
C107 O102 1.259 . S
C107 O104 1.235 . S
O108 Co98 2.021 . S
O108 C105 1.238 . S
O109 Co103 2.052 . S
O109 C105 1.241 . S
O110 Co98 2.137 . S
O110 C101 1.247 . S
O111 Co98 2.244 . S
O111 C101 1.272 . S
O111 Co103 2.135 . S
Co112 O113 2.216 . S
Co112 O114 2.091 . S
Co112 O116 2.004 . S
Co112 O122 2.021 . S
Co112 O124 2.137 . S
Co112 O125 2.244 . S
O113 Co112 2.216 . S
O113 C120 1.247 . S
O114 Co112 2.091 . S
O114 C120 1.261 . S
C115 O124 1.247 . S
C115 O125 1.272 . S
O116 Co112 2.004 . S
O116 C121 1.259 . S
Co117 O118 2.061 . S
Co117 O123 2.052 . S
Co117 O125 2.135 . S
O118 Co117 2.061 . S
O118 C121 1.235 . S
C119 O122 1.238 . S
C119 O123 1.241 . S
C120 O113 1.247 . S
C120 O114 1.261 . S
C121 O116 1.259 . S
C121 O118 1.235 . S
O122 Co112 2.021 . S
O122 C119 1.238 . S
O123 Co117 2.052 . S
O123 C119 1.241 . S
O124 Co112 2.137 . S
O124 C115 1.247 . S
O125 Co112 2.244 . S
O125 C115 1.272 . S
O125 Co117 2.135 . S
Co126 O127 2.216 . S
Co126 O128 2.091 . S
Co126 O130 2.004 . S
Co126 O136 2.021 . S
Co126 O138 2.137 . S
Co126 O139 2.244 . S
O127 Co126 2.216 . S
O127 C134 1.247 . S
O128 Co126 2.091 . S
O128 C134 1.261 . S
C129 O138 1.247 . S
C129 O139 1.272 . S
O130 Co126 2.004 . S
O130 C135 1.259 . S
Co131 O132 2.061 . S
Co131 O137 2.052 . S
Co131 O139 2.135 . S
O132 Co131 2.061 . S
O132 C135 1.235 . S
C133 O136 1.238 . S
C133 O137 1.241 . S
C134 O127 1.247 . S
C134 O128 1.261 . S
C135 O130 1.259 . S
C135 O132 1.235 . S
O136 Co126 2.021 . S
O136 C133 1.238 . S
O137 Co131 2.052 . S
O137 C133 1.241 . S
O138 Co126 2.137 . S
O138 C129 1.247 . S
O139 Co126 2.244 . S
O139 C129 1.272 . S
O139 Co131 2.135 . S
Co140 O141 2.216 . S
Co140 O142 2.091 . S
Co140 O144 2.004 . S
Co140 O150 2.021 . S
Co140 O152 2.137 . S
Co140 O153 2.244 . S
O141 Co140 2.216 . S
O141 C148 1.247 . S
O142 Co140 2.091 . S
O142 C148 1.261 . S
C143 O152 1.247 . S
C143 O153 1.272 . S
O144 Co140 2.004 . S
O144 C149 1.259 . S
Co145 O146 2.061 . S
Co145 O151 2.052 . S
Co145 O153 2.135 . S
O146 Co145 2.061 . S
O146 C149 1.235 . S
C147 O150 1.238 . S
C147 O151 1.241 . S
C148 O141 1.247 . S
C148 O142 1.261 . S
C149 O144 1.259 . S
C149 O146 1.235 . S
O150 Co140 2.021 . S
O150 C147 1.238 . S
O151 Co145 2.052 . S
O151 C147 1.241 . S
O152 Co140 2.137 . S
O152 C143 1.247 . S
O153 Co140 2.244 . S
O153 C143 1.272 . S
O153 Co145 2.135 . S
Co154 O155 2.216 . S
Co154 O156 2.091 . S
Co154 O158 2.004 . S
Co154 O164 2.021 . S
Co154 O166 2.137 . S
Co154 O167 2.244 . S
O155 Co154 2.216 . S
O155 C162 1.247 . S
O156 Co154 2.091 . S
O156 C162 1.261 . S
C157 O166 1.247 . S
C157 O167 1.272 . S
O158 Co154 2.004 . S
O158 C163 1.259 . S
Co159 O160 2.061 . S
Co159 O165 2.052 . S
Co159 O167 2.135 . S
O160 Co159 2.061 . S
O160 C163 1.235 . S
C161 O164 1.238 . S
C161 O165 1.241 . S
C162 O155 1.247 . S
C162 O156 1.261 . S
C163 O158 1.259 . S
C163 O160 1.235 . S
O164 Co154 2.021 . S
O164 C161 1.238 . S
O165 Co159 2.052 . S
O165 C161 1.241 . S
O166 Co154 2.137 . S
O166 C157 1.247 . S
O167 Co154 2.244 . S
O167 C157 1.272 . S
O167 Co159 2.135 . S
Co168 O169 2.216 . S
Co168 O170 2.091 . S
Co168 O172 2.004 . S
Co168 O178 2.021 . S
Co168 O180 2.137 . S
Co168 O181 2.244 . S
O169 Co168 2.216 . S
O169 C176 1.247 . S
O170 Co168 2.091 . S
O170 C176 1.261 . S
C171 O180 1.247 . S
C171 O181 1.272 . S
O172 Co168 2.004 . S
O172 C177 1.259 . S
Co173 O174 2.061 . S
Co173 O179 2.052 . S
Co173 O181 2.135 . S
O174 Co173 2.061 . S
O174 C177 1.235 . S
C175 O178 1.238 . S
C175 O179 1.241 . S
C176 O169 1.247 . S
C176 O170 1.261 . S
C177 O172 1.259 . S
C177 O174 1.235 . S
O178 Co168 2.021 . S
O178 C175 1.238 . S
O179 Co173 2.052 . S
O179 C175 1.241 . S
O180 Co168 2.137 . S
O180 C171 1.247 . S
O181 Co168 2.244 . S
O181 C171 1.272 . S
O181 Co173 2.135 . S
Co182 O183 2.216 . S
Co182 O184 2.091 . S
Co182 O186 2.004 . S
Co182 O192 2.021 . S
Co182 O194 2.137 . S
Co182 O195 2.244 . S
O183 Co182 2.216 . S
O183 C190 1.247 . S
O184 Co182 2.091 . S
O184 C190 1.261 . S
C185 O194 1.247 . S
C185 O195 1.272 . S
O186 Co182 2.004 . S
O186 C191 1.259 . S
Co187 O188 2.061 . S
Co187 O193 2.052 . S
Co187 O195 2.135 . S
O188 Co187 2.061 . S
O188 C191 1.235 . S
C189 O192 1.238 . S
C189 O193 1.241 . S
C190 O183 1.247 . S
C190 O184 1.261 . S
C191 O186 1.259 . S
C191 O188 1.235 . S
O192 Co182 2.021 . S
O192 C189 1.238 . S
O193 Co187 2.052 . S
O193 C189 1.241 . S
O194 Co182 2.137 . S
O194 C185 1.247 . S
O195 Co182 2.244 . S
O195 C185 1.272 . S
O195 Co187 2.135 . S
Co196 O197 2.216 . S
Co196 O198 2.091 . S
Co196 O200 2.004 . S
Co196 O206 2.021 . S
Co196 O208 2.137 . S
Co196 O209 2.244 . S
O197 Co196 2.216 . S
O197 C204 1.247 . S
O198 Co196 2.091 . S
O198 C204 1.261 . S
C199 O208 1.247 . S
C199 O209 1.272 . S
O200 Co196 2.004 . S
O200 C205 1.259 . S
Co201 O202 2.061 . S
Co201 O207 2.052 . S
Co201 O209 2.135 . S
O202 Co201 2.061 . S
O202 C205 1.235 . S
C203 O206 1.238 . S
C203 O207 1.241 . S
C204 O197 1.247 . S
C204 O198 1.261 . S
C205 O200 1.259 . S
C205 O202 1.235 . S
O206 Co196 2.021 . S
O206 C203 1.238 . S
O207 Co201 2.052 . S
O207 C203 1.241 . S
O208 Co196 2.137 . S
O208 C199 1.247 . S
O209 Co196 2.244 . S
O209 C199 1.272 . S
O209 Co201 2.135 . S
Co210 O211 2.216 . S
Co210 O212 2.091 . S
Co210 O214 2.004 . S
Co210 O220 2.021 . S
Co210 O222 2.137 . S
Co210 O223 2.244 . S
O211 Co210 2.216 . S
O211 C218 1.247 . S
O212 Co210 2.091 . S
O212 C218 1.261 . S
C213 O222 1.247 . S
C213 O223 1.272 . S
O214 Co210 2.004 . S
O214 C219 1.259 . S
Co215 O216 2.061 . S
Co215 O221 2.052 . S
Co215 O223 2.135 . S
O216 Co215 2.061 . S
O216 C219 1.235 . S
C217 O220 1.238 . S
C217 O221 1.241 . S
C218 O211 1.247 . S
C218 O212 1.261 . S
C219 O214 1.259 . S
C219 O216 1.235 . S
O220 Co210 2.021 . S
O220 C217 1.238 . S
O221 Co215 2.052 . S
O221 C217 1.241 . S
O222 Co210 2.137 . S
O222 C213 1.247 . S
O223 Co210 2.244 . S
O223 C213 1.272 . S
O223 Co215 2.135 . S
C224 C225 1.349 . S
C224 C226 1.327 . S
C224 H249 0.950 . S
C225 C224 1.349 . S
C225 C241 1.349 . S
C226 C224 1.327 . S
C226 C245 1.429 . S
C226 H250 0.950 . S
C227 C244 1.574 . S
C227 C246 1.368 . S
C227 H251 0.949 . S
H228 C232 0.949 . S
C229 C230 1.349 . S
C229 C231 1.327 . S
C229 H252 0.950 . S
C230 C229 1.349 . S
C230 C242 1.349 . S
C231 C229 1.327 . S
C231 C247 1.429 . S
C231 H253 0.950 . S
C232 H228 0.949 . S
C232 C240 1.574 . S
C232 C248 1.368 . S
H233 C241 0.950 . S
H234 C239 0.950 . S
H235 C240 0.949 . S
H236 C242 0.950 . S
H237 C243 0.950 . S
H238 C244 0.949 . S
C239 H234 0.950 . S
C239 C241 1.327 . S
C239 C245 1.429 . S
C240 C232 1.574 . S
C240 H235 0.949 . S
C240 C246 1.368 . S
C241 C225 1.349 . S
C241 H233 0.950 . S
C241 C239 1.327 . S
C242 C230 1.349 . S
C242 H236 0.950 . S
C242 C243 1.327 . S
C243 H237 0.950 . S
C243 C242 1.327 . S
C243 C247 1.429 . S
C244 C227 1.574 . S
C244 H238 0.949 . S
C244 C248 1.368 . S
C245 C226 1.429 . S
C245 C239 1.429 . S
C245 C246 1.523 . S
C246 C227 1.368 . S
C246 C240 1.368 . S
C246 C245 1.523 . S
C247 C231 1.429 . S
C247 C243 1.429 . S
C247 C248 1.523 . S
C248 C232 1.368 . S
C248 C244 1.368 . S
C248 C247 1.523 . S
H249 C224 0.950 . S
H250 C226 0.950 . S
H251 C227 0.949 . S
H252 C229 0.950 . S
H253 C231 0.950 . S
C254 C255 1.349 . S
C254 C256 1.327 . S
C254 H279 0.950 . S
C255 C254 1.349 . S
C255 C271 1.349 . S
C256 C254 1.327 . S
C256 C275 1.429 . S
C256 H280 0.950 . S
C257 C274 1.574 . S
C257 C276 1.368 . S
C257 H281 0.949 . S
H258 C262 0.949 . S
C259 C260 1.349 . S
C259 C261 1.327 . S
C259 H282 0.950 . S
C260 C259 1.349 . S
C260 C272 1.349 . S
C261 C259 1.327 . S
C261 C277 1.429 . S
C261 H283 0.950 . S
C262 H258 0.949 . S
C262 C270 1.574 . S
C262 C278 1.368 . S
H263 C271 0.950 . S
H264 C269 0.950 . S
H265 C270 0.949 . S
H266 C272 0.950 . S
H267 C273 0.950 . S
H268 C274 0.949 . S
C269 H264 0.950 . S
C269 C271 1.327 . S
C269 C275 1.429 . S
C270 C262 1.574 . S
C270 H265 0.949 . S
C270 C276 1.368 . S
C271 C255 1.349 . S
C271 H263 0.950 . S
C271 C269 1.327 . S
C272 C260 1.349 . S
C272 H266 0.950 . S
C272 C273 1.327 . S
C273 H267 0.950 . S
C273 C272 1.327 . S
C273 C277 1.429 . S
C274 C257 1.574 . S
C274 H268 0.949 . S
C274 C278 1.368 . S
C275 C256 1.429 . S
C275 C269 1.429 . S
C275 C276 1.523 . S
C276 C257 1.368 . S
C276 C270 1.368 . S
C276 C275 1.523 . S
C277 C261 1.429 . S
C277 C273 1.429 . S
C277 C278 1.523 . S
C278 C262 1.368 . S
C278 C274 1.368 . S
C278 C277 1.523 . S
H279 C254 0.950 . S
H280 C256 0.950 . S
H281 C257 0.949 . S
H282 C259 0.950 . S
H283 C261 0.950 . S
C284 C285 1.349 . S
C284 C286 1.327 . S
C284 H309 0.950 . S
C285 C284 1.349 . S
C285 C301 1.349 . S
C286 C284 1.327 . S
C286 C305 1.429 . S
C286 H310 0.950 . S
C287 C304 1.574 . S
C287 C306 1.368 . S
C287 H311 0.949 . S
H288 C292 0.949 . S
C289 C290 1.349 . S
C289 C291 1.327 . S
C289 H312 0.950 . S
C290 C289 1.349 . S
C290 C302 1.349 . S
C291 C289 1.327 . S
C291 C307 1.429 . S
C291 H313 0.950 . S
C292 H288 0.949 . S
C292 C300 1.574 . S
C292 C308 1.368 . S
H293 C301 0.950 . S
H294 C299 0.950 . S
H295 C300 0.949 . S
H296 C302 0.950 . S
H297 C303 0.950 . S
H298 C304 0.949 . S
C299 H294 0.950 . S
C299 C301 1.327 . S
C299 C305 1.429 . S
C300 C292 1.574 . S
C300 H295 0.949 . S
C300 C306 1.368 . S
C301 C285 1.349 . S
C301 H293 0.950 . S
C301 C299 1.327 . S
C302 C290 1.349 . S
C302 H296 0.950 . S
C302 C303 1.327 . S
C303 H297 0.950 . S
C303 C302 1.327 . S
C303 C307 1.429 . S
C304 C287 1.574 . S
C304 H298 0.949 . S
C304 C308 1.368 . S
C305 C286 1.429 . S
C305 C299 1.429 . S
C305 C306 1.523 . S
C306 C287 1.368 . S
C306 C300 1.368 . S
C306 C305 1.523 . S
C307 C291 1.429 . S
C307 C303 1.429 . S
C307 C308 1.523 . S
C308 C292 1.368 . S
C308 C304 1.368 . S
C308 C307 1.523 . S
H309 C284 0.950 . S
H310 C286 0.950 . S
H311 C287 0.949 . S
H312 C289 0.950 . S
H313 C291 0.950 . S
C314 C315 1.349 . S
C314 C316 1.327 . S
C314 H339 0.950 . S
C315 C314 1.349 . S
C315 C331 1.349 . S
C316 C314 1.327 . S
C316 C335 1.429 . S
C316 H340 0.950 . S
C317 C334 1.574 . S
C317 C336 1.368 . S
C317 H341 0.949 . S
H318 C322 0.949 . S
C319 C320 1.349 . S
C319 C321 1.327 . S
C319 H342 0.950 . S
C320 C319 1.349 . S
C320 C332 1.349 . S
C321 C319 1.327 . S
C321 C337 1.429 . S
C321 H343 0.950 . S
C322 H318 0.949 . S
C322 C330 1.574 . S
C322 C338 1.368 . S
H323 C331 0.950 . S
H324 C329 0.950 . S
H325 C330 0.949 . S
H326 C332 0.950 . S
H327 C333 0.950 . S
H328 C334 0.949 . S
C329 H324 0.950 . S
C329 C331 1.327 . S
C329 C335 1.429 . S
C330 C322 1.574 . S
C330 H325 0.949 . S
C330 C336 1.368 . S
C331 C315 1.349 . S
C331 H323 0.950 . S
C331 C329 1.327 . S
C332 C320 1.349 . S
C332 H326 0.950 . S
C332 C333 1.327 . S
C333 H327 0.950 . S
C333 C332 1.327 . S
C333 C337 1.429 . S
C334 C317 1.574 . S
C334 H328 0.949 . S
C334 C338 1.368 . S
C335 C316 1.429 . S
C335 C329 1.429 . S
C335 C336 1.523 . S
C336 C317 1.368 . S
C336 C330 1.368 . S
C336 C335 1.523 . S
C337 C321 1.429 . S
C337 C333 1.429 . S
C337 C338 1.523 . S
C338 C322 1.368 . S
C338 C334 1.368 . S
C338 C337 1.523 . S
H339 C314 0.950 . S
H340 C316 0.950 . S
H341 C317 0.949 . S
H342 C319 0.950 . S
H343 C321 0.950 . S
C344 C345 1.349 . S
C344 C346 1.327 . S
C344 H369 0.950 . S
C345 C344 1.349 . S
C345 C361 1.349 . S
C346 C344 1.327 . S
C346 C365 1.429 . S
C346 H370 0.950 . S
C347 C364 1.574 . S
C347 C366 1.368 . S
C347 H371 0.949 . S
H348 C352 0.949 . S
C349 C350 1.349 . S
C349 C351 1.327 . S
C349 H372 0.950 . S
C350 C349 1.349 . S
C350 C362 1.349 . S
C351 C349 1.327 . S
C351 C367 1.429 . S
C351 H373 0.950 . S
C352 H348 0.949 . S
C352 C360 1.574 . S
C352 C368 1.368 . S
H353 C361 0.950 . S
H354 C359 0.950 . S
H355 C360 0.949 . S
H356 C362 0.950 . S
H357 C363 0.950 . S
H358 C364 0.949 . S
C359 H354 0.950 . S
C359 C361 1.327 . S
C359 C365 1.429 . S
C360 C352 1.574 . S
C360 H355 0.949 . S
C360 C366 1.368 . S
C361 C345 1.349 . S
C361 H353 0.950 . S
C361 C359 1.327 . S
C362 C350 1.349 . S
C362 H356 0.950 . S
C362 C363 1.327 . S
C363 H357 0.950 . S
C363 C362 1.327 . S
C363 C367 1.429 . S
C364 C347 1.574 . S
C364 H358 0.949 . S
C364 C368 1.368 . S
C365 C346 1.429 . S
C365 C359 1.429 . S
C365 C366 1.523 . S
C366 C347 1.368 . S
C366 C360 1.368 . S
C366 C365 1.523 . S
C367 C351 1.429 . S
C367 C363 1.429 . S
C367 C368 1.523 . S
C368 C352 1.368 . S
C368 C364 1.368 . S
C368 C367 1.523 . S
H369 C344 0.950 . S
H370 C346 0.950 . S
H371 C347 0.949 . S
H372 C349 0.950 . S
H373 C351 0.950 . S
C374 C375 1.349 . S
C374 C376 1.327 . S
C374 H399 0.950 . S
C375 C374 1.349 . S
C375 C391 1.349 . S
C376 C374 1.327 . S
C376 C395 1.429 . S
C376 H400 0.950 . S
C377 C394 1.574 . S
C377 C396 1.368 . S
C377 H401 0.949 . S
H378 C382 0.949 . S
C379 C380 1.349 . S
C379 C381 1.327 . S
C379 H402 0.950 . S
C380 C379 1.349 . S
C380 C392 1.349 . S
C381 C379 1.327 . S
C381 C397 1.429 . S
C381 H403 0.950 . S
C382 H378 0.949 . S
C382 C390 1.574 . S
C382 C398 1.368 . S
H383 C391 0.950 . S
H384 C389 0.950 . S
H385 C390 0.949 . S
H386 C392 0.950 . S
H387 C393 0.950 . S
H388 C394 0.949 . S
C389 H384 0.950 . S
C389 C391 1.327 . S
C389 C395 1.429 . S
C390 C382 1.574 . S
C390 H385 0.949 . S
C390 C396 1.368 . S
C391 C375 1.349 . S
C391 H383 0.950 . S
C391 C389 1.327 . S
C392 C380 1.349 . S
C392 H386 0.950 . S
C392 C393 1.327 . S
C393 H387 0.950 . S
C393 C392 1.327 . S
C393 C397 1.429 . S
C394 C377 1.574 . S
C394 H388 0.949 . S
C394 C398 1.368 . S
C395 C376 1.429 . S
C395 C389 1.429 . S
C395 C396 1.523 . S
C396 C377 1.368 . S
C396 C390 1.368 . S
C396 C395 1.523 . S
C397 C381 1.429 . S
C397 C393 1.429 . S
C397 C398 1.523 . S
C398 C382 1.368 . S
C398 C394 1.368 . S
C398 C397 1.523 . S
H399 C374 0.950 . S
H400 C376 0.950 . S
H401 C377 0.949 . S
H402 C379 0.950 . S
H403 C381 0.950 . S
C404 C405 1.349 . S
C404 C406 1.327 . S
C404 H429 0.950 . S
C405 C404 1.349 . S
C405 C421 1.349 . S
C406 C404 1.327 . S
C406 C425 1.429 . S
C406 H430 0.950 . S
C407 C424 1.574 . S
C407 C426 1.368 . S
C407 H431 0.949 . S
H408 C412 0.949 . S
C409 C410 1.349 . S
C409 C411 1.327 . S
C409 H432 0.950 . S
C410 C409 1.349 . S
C410 C422 1.349 . S
C411 C409 1.327 . S
C411 C427 1.429 . S
C411 H433 0.950 . S
C412 H408 0.949 . S
C412 C420 1.574 . S
C412 C428 1.368 . S
H413 C421 0.950 . S
H414 C419 0.950 . S
H415 C420 0.949 . S
H416 C422 0.950 . S
H417 C423 0.950 . S
H418 C424 0.949 . S
C419 H414 0.950 . S
C419 C421 1.327 . S
C419 C425 1.429 . S
C420 C412 1.574 . S
C420 H415 0.949 . S
C420 C426 1.368 . S
C421 C405 1.349 . S
C421 H413 0.950 . S
C421 C419 1.327 . S
C422 C410 1.349 . S
C422 H416 0.950 . S
C422 C423 1.327 . S
C423 H417 0.950 . S
C423 C422 1.327 . S
C423 C427 1.429 . S
C424 C407 1.574 . S
C424 H418 0.949 . S
C424 C428 1.368 . S
C425 C406 1.429 . S
C425 C419 1.429 . S
C425 C426 1.523 . S
C426 C407 1.368 . S
C426 C420 1.368 . S
C426 C425 1.523 . S
C427 C411 1.429 . S
C427 C423 1.429 . S
C427 C428 1.523 . S
C428 C412 1.368 . S
C428 C424 1.368 . S
C428 C427 1.523 . S
H429 C404 0.950 . S
H430 C406 0.950 . S
H431 C407 0.949 . S
H432 C409 0.950 . S
H433 C411 0.950 . S
C434 C435 1.349 . S
C434 C436 1.327 . S
C434 H459 0.950 . S
C435 C434 1.349 . S
C435 C451 1.349 . S
C436 C434 1.327 . S
C436 C455 1.429 . S
C436 H460 0.950 . S
C437 C454 1.574 . S
C437 C456 1.368 . S
C437 H461 0.949 . S
H438 C442 0.949 . S
C439 C440 1.349 . S
C439 C441 1.327 . S
C439 H462 0.950 . S
C440 C439 1.349 . S
C440 C452 1.349 . S
C441 C439 1.327 . S
C441 C457 1.429 . S
C441 H463 0.950 . S
C442 H438 0.949 . S
C442 C450 1.574 . S
C442 C458 1.368 . S
H443 C451 0.950 . S
H444 C449 0.950 . S
H445 C450 0.949 . S
H446 C452 0.950 . S
H447 C453 0.950 . S
H448 C454 0.949 . S
C449 H444 0.950 . S
C449 C451 1.327 . S
C449 C455 1.429 . S
C450 C442 1.574 . S
C450 H445 0.949 . S
C450 C456 1.368 . S
C451 C435 1.349 . S
C451 H443 0.950 . S
C451 C449 1.327 . S
C452 C440 1.349 . S
C452 H446 0.950 . S
C452 C453 1.327 . S
C453 H447 0.950 . S
C453 C452 1.327 . S
C453 C457 1.429 . S
C454 C437 1.574 . S
C454 H448 0.949 . S
C454 C458 1.368 . S
C455 C436 1.429 . S
C455 C449 1.429 . S
C455 C456 1.523 . S
C456 C437 1.368 . S
C456 C450 1.368 . S
C456 C455 1.523 . S
C457 C441 1.429 . S
C457 C453 1.429 . S
C457 C458 1.523 . S
C458 C442 1.368 . S
C458 C454 1.368 . S
C458 C457 1.523 . S
H459 C434 0.950 . S
H460 C436 0.950 . S
H461 C437 0.949 . S
H462 C439 0.950 . S
H463 C441 0.950 . S
C464 C465 1.349 . S
C464 C466 1.327 . S
C464 H489 0.950 . S
C465 C464 1.349 . S
C465 C481 1.349 . S
C466 C464 1.327 . S
C466 C485 1.429 . S
C466 H490 0.950 . S
C467 C484 1.574 1_556 S
C467 C486 1.368 . S
C467 H491 0.949 . S
H468 C472 0.949 . S
C469 C470 1.349 . S
C469 C471 1.327 . S
C469 H492 0.950 . S
C470 C469 1.349 . S
C470 C482 1.349 . S
C471 C469 1.327 . S
C471 C487 1.429 . S
C471 H493 0.950 . S
C472 H468 0.949 . S
C472 C480 1.574 1_554 S
C472 C488 1.368 . S
H473 C481 0.950 . S
H474 C479 0.950 . S
H475 C480 0.949 . S
H476 C482 0.950 . S
H477 C483 0.950 . S
H478 C484 0.949 . S
C479 H474 0.950 . S
C479 C481 1.327 . S
C479 C485 1.429 . S
C480 C472 1.574 1_556 S
C480 H475 0.949 . S
C480 C486 1.368 . S
C481 C465 1.349 . S
C481 H473 0.950 . S
C481 C479 1.327 . S
C482 C470 1.349 . S
C482 H476 0.950 . S
C482 C483 1.327 . S
C483 H477 0.950 . S
C483 C482 1.327 . S
C483 C487 1.429 . S
C484 C467 1.574 1_554 S
C484 H478 0.949 . S
C484 C488 1.368 . S
C485 C466 1.429 . S
C485 C479 1.429 . S
C485 C486 1.523 . S
C486 C467 1.368 . S
C486 C480 1.368 . S
C486 C485 1.523 . S
C487 C471 1.429 . S
C487 C483 1.429 . S
C487 C488 1.523 . S
C488 C472 1.368 . S
C488 C484 1.368 . S
C488 C487 1.523 . S
H489 C464 0.950 . S
H490 C466 0.950 . S
H491 C467 0.949 . S
H492 C469 0.950 . S
H493 C471 0.950 . S
C494 C495 1.349 . S
C494 C496 1.327 . S
C494 H519 0.950 . S
C495 C494 1.349 . S
C495 C511 1.349 . S
C496 C494 1.327 . S
C496 C515 1.429 . S
C496 H520 0.950 . S
C497 C514 1.574 1_556 S
C497 C516 1.368 . S
C497 H521 0.949 . S
H498 C502 0.949 . S
C499 C500 1.349 . S
C499 C501 1.327 . S
C499 H522 0.950 . S
C500 C499 1.349 . S
C500 C512 1.349 . S
C501 C499 1.327 . S
C501 C517 1.429 . S
C501 H523 0.950 . S
C502 H498 0.949 . S
C502 C510 1.574 1_554 S
C502 C518 1.368 . S
H503 C511 0.950 . S
H504 C509 0.950 . S
H505 C510 0.949 . S
H506 C512 0.950 . S
H507 C513 0.950 . S
H508 C514 0.949 . S
C509 H504 0.950 . S
C509 C511 1.327 . S
C509 C515 1.429 . S
C510 C502 1.574 1_556 S
C510 H505 0.949 . S
C510 C516 1.368 . S
C511 C495 1.349 . S
C511 H503 0.950 . S
C511 C509 1.327 . S
C512 C500 1.349 . S
C512 H506 0.950 . S
C512 C513 1.327 . S
C513 H507 0.950 . S
C513 C512 1.327 . S
C513 C517 1.429 . S
C514 C497 1.574 1_554 S
C514 H508 0.949 . S
C514 C518 1.368 . S
C515 C496 1.429 . S
C515 C509 1.429 . S
C515 C516 1.523 . S
C516 C497 1.368 . S
C516 C510 1.368 . S
C516 C515 1.523 . S
C517 C501 1.429 . S
C517 C513 1.429 . S
C517 C518 1.523 . S
C518 C502 1.368 . S
C518 C514 1.368 . S
C518 C517 1.523 . S
H519 C494 0.950 . S
H520 C496 0.950 . S
H521 C497 0.949 . S
H522 C499 0.950 . S
H523 C501 0.950 . S
C524 C525 1.349 . S
C524 C526 1.327 . S
C524 H549 0.950 . S
C525 C524 1.349 . S
C525 C541 1.349 . S
C526 C524 1.327 . S
C526 C545 1.429 . S
C526 H550 0.950 . S
C527 C544 1.574 1_556 S
C527 C546 1.368 . S
C527 H551 0.949 . S
H528 C532 0.949 . S
C529 C530 1.349 . S
C529 C531 1.327 . S
C529 H552 0.950 . S
C530 C529 1.349 . S
C530 C542 1.349 . S
C531 C529 1.327 . S
C531 C547 1.429 . S
C531 H553 0.950 . S
C532 H528 0.949 . S
C532 C540 1.574 1_554 S
C532 C548 1.368 . S
H533 C541 0.950 . S
H534 C539 0.950 . S
H535 C540 0.949 . S
H536 C542 0.950 . S
H537 C543 0.950 . S
H538 C544 0.949 . S
C539 H534 0.950 . S
C539 C541 1.327 . S
C539 C545 1.429 . S
C540 C532 1.574 1_556 S
C540 H535 0.949 . S
C540 C546 1.368 . S
C541 C525 1.349 . S
C541 H533 0.950 . S
C541 C539 1.327 . S
C542 C530 1.349 . S
C542 H536 0.950 . S
C542 C543 1.327 . S
C543 H537 0.950 . S
C543 C542 1.327 . S
C543 C547 1.429 . S
C544 C527 1.574 1_554 S
C544 H538 0.949 . S
C544 C548 1.368 . S
C545 C526 1.429 . S
C545 C539 1.429 . S
C545 C546 1.523 . S
C546 C527 1.368 . S
C546 C540 1.368 . S
C546 C545 1.523 . S
C547 C531 1.429 . S
C547 C543 1.429 . S
C547 C548 1.523 . S
C548 C532 1.368 . S
C548 C544 1.368 . S
C548 C547 1.523 . S
H549 C524 0.950 . S
H550 C526 0.950 . S
H551 C527 0.949 . S
H552 C529 0.950 . S
H553 C531 0.950 . S
C554 C555 1.349 . S
C554 C556 1.327 . S
C554 H579 0.950 . S
C555 C554 1.349 . S
C555 C571 1.349 . S
C556 C554 1.327 . S
C556 C575 1.429 . S
C556 H580 0.950 . S
C557 C574 1.574 1_554 S
C557 C576 1.368 . S
C557 H581 0.949 . S
H558 C562 0.949 . S
C559 C560 1.349 . S
C559 C561 1.327 . S
C559 H582 0.950 . S
C560 C559 1.349 . S
C560 C572 1.349 . S
C561 C559 1.327 . S
C561 C577 1.429 . S
C561 H583 0.950 . S
C562 H558 0.949 . S
C562 C570 1.574 1_556 S
C562 C578 1.368 . S
H563 C571 0.950 . S
H564 C569 0.950 . S
H565 C570 0.949 . S
H566 C572 0.950 . S
H567 C573 0.950 . S
H568 C574 0.949 . S
C569 H564 0.950 . S
C569 C571 1.327 . S
C569 C575 1.429 . S
C570 C562 1.574 1_554 S
C570 H565 0.949 . S
C570 C576 1.368 . S
C571 C555 1.349 . S
C571 H563 0.950 . S
C571 C569 1.327 . S
C572 C560 1.349 . S
C572 H566 0.950 . S
C572 C573 1.327 . S
C573 H567 0.950 . S
C573 C572 1.327 . S
C573 C577 1.429 . S
C574 C557 1.574 1_556 S
C574 H568 0.949 . S
C574 C578 1.368 . S
C575 C556 1.429 . S
C575 C569 1.429 . S
C575 C576 1.523 . S
C576 C557 1.368 . S
C576 C570 1.368 . S
C576 C575 1.523 . S
C577 C561 1.429 . S
C577 C573 1.429 . S
C577 C578 1.523 . S
C578 C562 1.368 . S
C578 C574 1.368 . S
C578 C577 1.523 . S
H579 C554 0.950 . S
H580 C556 0.950 . S
H581 C557 0.949 . S
H582 C559 0.950 . S
H583 C561 0.950 . S
C584 C585 1.349 . S
C584 C586 1.327 . S
C584 H609 0.950 . S
C585 C584 1.349 . S
C585 C601 1.349 . S
C586 C584 1.327 . S
C586 C605 1.429 . S
C586 H610 0.950 . S
C587 C604 1.574 1_455 S
C587 C606 1.368 . S
C587 H611 0.949 . S
H588 C592 0.949 . S
C589 C590 1.349 . S
C589 C591 1.327 . S
C589 H612 0.950 . S
C590 C589 1.349 . S
C590 C602 1.349 . S
C591 C589 1.327 . S
C591 C607 1.429 . S
C591 H613 0.950 . S
C592 H588 0.949 . S
C592 C600 1.574 1_655 S
C592 C608 1.368 . S
H593 C601 0.950 . S
H594 C599 0.950 . S
H595 C600 0.949 . S
H596 C602 0.950 . S
H597 C603 0.950 . S
H598 C604 0.949 . S
C599 H594 0.950 . S
C599 C601 1.327 . S
C599 C605 1.429 . S
C600 C592 1.574 1_455 S
C600 H595 0.949 . S
C600 C606 1.368 . S
C601 C585 1.349 . S
C601 H593 0.950 . S
C601 C599 1.327 . S
C602 C590 1.349 . S
C602 H596 0.950 . S
C602 C603 1.327 . S
C603 H597 0.950 . S
C603 C602 1.327 . S
C603 C607 1.429 . S
C604 C587 1.574 1_655 S
C604 H598 0.949 . S
C604 C608 1.368 . S
C605 C586 1.429 . S
C605 C599 1.429 . S
C605 C606 1.523 . S
C606 C587 1.368 . S
C606 C600 1.368 . S
C606 C605 1.523 . S
C607 C591 1.429 . S
C607 C603 1.429 . S
C607 C608 1.523 . S
C608 C592 1.368 . S
C608 C604 1.368 . S
C608 C607 1.523 . S
H609 C584 0.950 . S
H610 C586 0.950 . S
H611 C587 0.949 . S
H612 C589 0.950 . S
H613 C591 0.950 . S
C614 C615 1.349 . S
C614 C616 1.327 . S
C614 H639 0.950 . S
C615 C614 1.349 . S
C615 C631 1.349 . S
C616 C614 1.327 . S
C616 C635 1.429 . S
C616 H640 0.950 . S
C617 C634 1.574 1_565 S
C617 C636 1.368 . S
C617 H641 0.949 . S
H618 C622 0.949 . S
C619 C620 1.349 . S
C619 C621 1.327 . S
C619 H642 0.950 . S
C620 C619 1.349 . S
C620 C632 1.349 . S
C621 C619 1.327 . S
C621 C637 1.429 . S
C621 H643 0.950 . S
C622 H618 0.949 . S
C622 C630 1.574 1_545 S
C622 C638 1.368 . S
H623 C631 0.950 . S
H624 C629 0.950 . S
H625 C630 0.949 . S
H626 C632 0.950 . S
H627 C633 0.950 . S
H628 C634 0.949 . S
C629 H624 0.950 . S
C629 C631 1.327 . S
C629 C635 1.429 . S
C630 C622 1.574 1_565 S
C630 H625 0.949 . S
C630 C636 1.368 . S
C631 C615 1.349 . S
C631 H623 0.950 . S
C631 C629 1.327 . S
C632 C620 1.349 . S
C632 H626 0.950 . S
C632 C633 1.327 . S
C633 H627 0.950 . S
C633 C632 1.327 . S
C633 C637 1.429 . S
C634 C617 1.574 1_545 S
C634 H628 0.949 . S
C634 C638 1.368 . S
C635 C616 1.429 . S
C635 C629 1.429 . S
C635 C636 1.523 . S
C636 C617 1.368 . S
C636 C630 1.368 . S
C636 C635 1.523 . S
C637 C621 1.429 . S
C637 C633 1.429 . S
C637 C638 1.523 . S
C638 C622 1.368 . S
C638 C634 1.368 . S
C638 C637 1.523 . S
H639 C614 0.950 . S
H640 C616 0.950 . S
H641 C617 0.949 . S
H642 C619 0.950 . S
H643 C621 0.950 . S
C644 C645 1.349 . S
C644 C646 1.327 . S
C644 H669 0.950 . S
C645 C644 1.349 . S
C645 C661 1.349 . S
C646 C644 1.327 . S
C646 C665 1.429 . S
C646 H670 0.950 . S
C647 C664 1.574 1_655 S
C647 C666 1.368 . S
C647 H671 0.949 . S
H648 C652 0.949 . S
C649 C650 1.349 . S
C649 C651 1.327 . S
C649 H672 0.950 . S
C650 C649 1.349 . S
C650 C662 1.349 . S
C651 C649 1.327 . S
C651 C667 1.429 . S
C651 H673 0.950 . S
C652 H648 0.949 . S
C652 C660 1.574 1_455 S
C652 C668 1.368 . S
H653 C661 0.950 . S
H654 C659 0.950 . S
H655 C660 0.949 . S
H656 C662 0.950 . S
H657 C663 0.950 . S
H658 C664 0.949 . S
C659 H654 0.950 . S
C659 C661 1.327 . S
C659 C665 1.429 . S
C660 C652 1.574 1_655 S
C660 H655 0.949 . S
C660 C666 1.368 . S
C661 C645 1.349 . S
C661 H653 0.950 . S
C661 C659 1.327 . S
C662 C650 1.349 . S
C662 H656 0.950 . S
C662 C663 1.327 . S
C663 H657 0.950 . S
C663 C662 1.327 . S
C663 C667 1.429 . S
C664 C647 1.574 1_455 S
C664 H658 0.949 . S
C664 C668 1.368 . S
C665 C646 1.429 . S
C665 C659 1.429 . S
C665 C666 1.523 . S
C666 C647 1.368 . S
C666 C660 1.368 . S
C666 C665 1.523 . S
C667 C651 1.429 . S
C667 C663 1.429 . S
C667 C668 1.523 . S
C668 C652 1.368 . S
C668 C664 1.368 . S
C668 C667 1.523 . S
H669 C644 0.950 . S
H670 C646 0.950 . S
H671 C647 0.949 . S
H672 C649 0.950 . S
H673 C651 0.950 . S
C674 C675 1.349 . S
C674 C676 1.327 . S
C674 H699 0.950 . S
C675 C674 1.349 . S
C675 C691 1.349 . S
C676 C674 1.327 . S
C676 C695 1.429 . S
C676 H700 0.950 . S
C677 C694 1.574 1_545 S
C677 C696 1.368 . S
C677 H701 0.949 . S
H678 C682 0.949 . S
C679 C680 1.349 . S
C679 C681 1.327 . S
C679 H702 0.950 . S
C680 C679 1.349 . S
C680 C692 1.349 . S
C681 C679 1.327 . S
C681 C697 1.429 . S
C681 H703 0.950 . S
C682 H678 0.949 . S
C682 C690 1.574 1_565 S
C682 C698 1.368 . S
H683 C691 0.950 . S
H684 C689 0.950 . S
H685 C690 0.949 . S
H686 C692 0.950 . S
H687 C693 0.950 . S
H688 C694 0.949 . S
C689 H684 0.950 . S
C689 C691 1.327 . S
C689 C695 1.429 . S
C690 C682 1.574 1_545 S
C690 H685 0.949 . S
C690 C696 1.368 . S
C691 C675 1.349 . S
C691 H683 0.950 . S
C691 C689 1.327 . S
C692 C680 1.349 . S
C692 H686 0.950 . S
C692 C693 1.327 . S
C693 H687 0.950 . S
C693 C692 1.327 . S
C693 C697 1.429 . S
C694 C677 1.574 1_565 S
C694 H688 0.949 . S
C694 C698 1.368 . S
C695 C676 1.429 . S
C695 C689 1.429 . S
C695 C696 1.523 . S
C696 C677 1.368 . S
C696 C690 1.368 . S
C696 C695 1.523 . S
C697 C681 1.429 . S
C697 C693 1.429 . S
C697 C698 1.523 . S
C698 C682 1.368 . S
C698 C694 1.368 . S
C698 C697 1.523 . S
H699 C674 0.950 . S
H700 C676 0.950 . S
H701 C677 0.949 . S
H702 C679 0.950 . S
H703 C681 0.950 . S
C704 C705 1.349 . S
C704 C706 1.327 . S
C704 H729 0.950 . S
C705 C704 1.349 . S
C705 C721 1.349 . S
C706 C704 1.327 . S
C706 C725 1.429 . S
C706 H730 0.950 . S
C707 C724 1.574 1_655 S
C707 C726 1.368 . S
C707 H731 0.949 . S
H708 C712 0.949 . S
C709 C710 1.349 . S
C709 C711 1.327 . S
C709 H732 0.950 . S
C710 C709 1.349 . S
C710 C722 1.349 . S
C711 C709 1.327 . S
C711 C727 1.429 . S
C711 H733 0.950 . S
C712 H708 0.949 . S
C712 C720 1.574 1_455 S
C712 C728 1.368 . S
H713 C721 0.950 . S
H714 C719 0.950 . S
H715 C720 0.949 . S
H716 C722 0.950 . S
H717 C723 0.950 . S
H718 C724 0.949 . S
C719 H714 0.950 . S
C719 C721 1.327 . S
C719 C725 1.429 . S
C720 C712 1.574 1_655 S
C720 H715 0.949 . S
C720 C726 1.368 . S
C721 C705 1.349 . S
C721 H713 0.950 . S
C721 C719 1.327 . S
C722 C710 1.349 . S
C722 H716 0.950 . S
C722 C723 1.327 . S
C723 H717 0.950 . S
C723 C722 1.327 . S
C723 C727 1.429 . S
C724 C707 1.574 1_455 S
C724 H718 0.949 . S
C724 C728 1.368 . S
C725 C706 1.429 . S
C725 C719 1.429 . S
C725 C726 1.523 . S
C726 C707 1.368 . S
C726 C720 1.368 . S
C726 C725 1.523 . S
C727 C711 1.429 . S
C727 C723 1.429 . S
C727 C728 1.523 . S
C728 C712 1.368 . S
C728 C724 1.368 . S
C728 C727 1.523 . S
H729 C704 0.950 . S
H730 C706 0.950 . S
H731 C707 0.949 . S
H732 C709 0.950 . S
H733 C711 0.950 . S
C734 C735 1.349 . S
C734 C736 1.327 . S
C734 H759 0.950 . S
C735 C734 1.349 . S
C735 C751 1.349 . S
C736 C734 1.327 . S
C736 C755 1.429 . S
C736 H760 0.950 . S
C737 C754 1.574 1_565 S
C737 C756 1.368 . S
C737 H761 0.949 . S
H738 C742 0.949 . S
C739 C740 1.349 . S
C739 C741 1.327 . S
C739 H762 0.950 . S
C740 C739 1.349 . S
C740 C752 1.349 . S
C741 C739 1.327 . S
C741 C757 1.429 . S
C741 H763 0.950 . S
C742 H738 0.949 . S
C742 C750 1.574 1_545 S
C742 C758 1.368 . S
H743 C751 0.950 . S
H744 C749 0.950 . S
H745 C750 0.949 . S
H746 C752 0.950 . S
H747 C753 0.950 . S
H748 C754 0.949 . S
C749 H744 0.950 . S
C749 C751 1.327 . S
C749 C755 1.429 . S
C750 C742 1.574 1_565 S
C750 H745 0.949 . S
C750 C756 1.368 . S
C751 C735 1.349 . S
C751 H743 0.950 . S
C751 C749 1.327 . S
C752 C740 1.349 . S
C752 H746 0.950 . S
C752 C753 1.327 . S
C753 H747 0.950 . S
C753 C752 1.327 . S
C753 C757 1.429 . S
C754 C737 1.574 1_545 S
C754 H748 0.949 . S
C754 C758 1.368 . S
C755 C736 1.429 . S
C755 C749 1.429 . S
C755 C756 1.523 . S
C756 C737 1.368 . S
C756 C750 1.368 . S
C756 C755 1.523 . S
C757 C741 1.429 . S
C757 C753 1.429 . S
C757 C758 1.523 . S
C758 C742 1.368 . S
C758 C754 1.368 . S
C758 C757 1.523 . S
H759 C734 0.950 . S
H760 C736 0.950 . S
H761 C737 0.949 . S
H762 C739 0.950 . S
H763 C741 0.950 . S
C764 C765 1.349 . S
C764 C766 1.327 . S
C764 H789 0.950 . S
C765 C764 1.349 . S
C765 C781 1.349 . S
C766 C764 1.327 . S
C766 C785 1.429 . S
C766 H790 0.950 . S
C767 C784 1.574 1_455 S
C767 C786 1.368 . S
C767 H791 0.949 . S
H768 C772 0.949 . S
C769 C770 1.349 . S
C769 C771 1.327 . S
C769 H792 0.950 . S
C770 C769 1.349 . S
C770 C782 1.349 . S
C771 C769 1.327 . S
C771 C787 1.429 . S
C771 H793 0.950 . S
C772 H768 0.949 . S
C772 C780 1.574 1_655 S
C772 C788 1.368 . S
H773 C781 0.950 . S
H774 C779 0.950 . S
H775 C780 0.949 . S
H776 C782 0.950 . S
H777 C783 0.950 . S
H778 C784 0.949 . S
C779 H774 0.950 . S
C779 C781 1.327 . S
C779 C785 1.429 . S
C780 C772 1.574 1_455 S
C780 H775 0.949 . S
C780 C786 1.368 . S
C781 C765 1.349 . S
C781 H773 0.950 . S
C781 C779 1.327 . S
C782 C770 1.349 . S
C782 H776 0.950 . S
C782 C783 1.327 . S
C783 H777 0.950 . S
C783 C782 1.327 . S
C783 C787 1.429 . S
C784 C767 1.574 1_655 S
C784 H778 0.949 . S
C784 C788 1.368 . S
C785 C766 1.429 . S
C785 C779 1.429 . S
C785 C786 1.523 . S
C786 C767 1.368 . S
C786 C780 1.368 . S
C786 C785 1.523 . S
C787 C771 1.429 . S
C787 C783 1.429 . S
C787 C788 1.523 . S
C788 C772 1.368 . S
C788 C784 1.368 . S
C788 C787 1.523 . S
H789 C764 0.950 . S
H790 C766 0.950 . S
H791 C767 0.949 . S
H792 C769 0.950 . S
H793 C771 0.950 . S
C794 C795 1.349 . S
C794 C796 1.327 . S
C794 H819 0.950 . S
C795 C794 1.349 . S
C795 C811 1.349 . S
C796 C794 1.327 . S
C796 C815 1.429 . S
C796 H820 0.950 . S
C797 C814 1.574 1_565 S
C797 C816 1.368 . S
C797 H821 0.949 . S
H798 C802 0.949 . S
C799 C800 1.349 . S
C799 C801 1.327 . S
C799 H822 0.950 . S
C800 C799 1.349 . S
C800 C812 1.349 . S
C801 C799 1.327 . S
C801 C817 1.429 . S
C801 H823 0.950 . S
C802 H798 0.949 . S
C802 C810 1.574 1_545 S
C802 C818 1.368 . S
H803 C811 0.950 . S
H804 C809 0.950 . S
H805 C810 0.949 . S
H806 C812 0.950 . S
H807 C813 0.950 . S
H808 C814 0.949 . S
C809 H804 0.950 . S
C809 C811 1.327 . S
C809 C815 1.429 . S
C810 C802 1.574 1_565 S
C810 H805 0.949 . S
C810 C816 1.368 . S
C811 C795 1.349 . S
C811 H803 0.950 . S
C811 C809 1.327 . S
C812 C800 1.349 . S
C812 H806 0.950 . S
C812 C813 1.327 . S
C813 H807 0.950 . S
C813 C812 1.327 . S
C813 C817 1.429 . S
C814 C797 1.574 1_545 S
C814 H808 0.949 . S
C814 C818 1.368 . S
C815 C796 1.429 . S
C815 C809 1.429 . S
C815 C816 1.523 . S
C816 C797 1.368 . S
C816 C810 1.368 . S
C816 C815 1.523 . S
C817 C801 1.429 . S
C817 C813 1.429 . S
C817 C818 1.523 . S
C818 C802 1.368 . S
C818 C814 1.368 . S
C818 C817 1.523 . S
H819 C794 0.950 . S
H820 C796 0.950 . S
H821 C797 0.949 . S
H822 C799 0.950 . S
H823 C801 0.950 . S
C824 C825 1.349 . S
C824 C826 1.327 . S
C824 H849 0.950 . S
C825 C824 1.349 . S
C825 C841 1.349 . S
C826 C824 1.327 . S
C826 C845 1.429 . S
C826 H850 0.950 . S
C827 C844 1.574 . S
C827 C846 1.368 . S
C827 H851 0.949 . S
H828 C832 0.949 . S
C829 C830 1.349 . S
C829 C831 1.327 . S
C829 H852 0.950 . S
C830 C829 1.349 . S
C830 C842 1.349 . S
C831 C829 1.327 . S
C831 C847 1.429 . S
C831 H853 0.950 . S
C832 H828 0.949 . S
C832 C840 1.574 . S
C832 C848 1.368 . S
H833 C841 0.950 . S
H834 C839 0.950 . S
H835 C840 0.949 . S
H836 C842 0.950 . S
H837 C843 0.950 . S
H838 C844 0.949 . S
C839 H834 0.950 . S
C839 C841 1.327 . S
C839 C845 1.429 . S
C840 C832 1.574 . S
C840 H835 0.949 . S
C840 C846 1.368 . S
C841 C825 1.349 . S
C841 H833 0.950 . S
C841 C839 1.327 . S
C842 C830 1.349 . S
C842 H836 0.950 . S
C842 C843 1.327 . S
C843 H837 0.950 . S
C843 C842 1.327 . S
C843 C847 1.429 . S
C844 C827 1.574 . S
C844 H838 0.949 . S
C844 C848 1.368 . S
C845 C826 1.429 . S
C845 C839 1.429 . S
C845 C846 1.523 . S
C846 C827 1.368 . S
C846 C840 1.368 . S
C846 C845 1.523 . S
C847 C831 1.429 . S
C847 C843 1.429 . S
C847 C848 1.523 . S
C848 C832 1.368 . S
C848 C844 1.368 . S
C848 C847 1.523 . S
H849 C824 0.950 . S
H850 C826 0.950 . S
H851 C827 0.949 . S
H852 C829 0.950 . S
H853 C831 0.950 . S
C854 C855 1.349 . S
C854 C856 1.327 . S
C854 H879 0.950 . S
C855 C854 1.349 . S
C855 C871 1.349 . S
C856 C854 1.327 . S
C856 C875 1.429 . S
C856 H880 0.950 . S
C857 C874 1.574 . S
C857 C876 1.368 . S
C857 H881 0.949 . S
H858 C862 0.949 . S
C859 C860 1.349 . S
C859 C861 1.327 . S
C859 H882 0.950 . S
C860 C859 1.349 . S
C860 C872 1.349 . S
C861 C859 1.327 . S
C861 C877 1.429 . S
C861 H883 0.950 . S
C862 H858 0.949 . S
C862 C870 1.574 . S
C862 C878 1.368 . S
H863 C871 0.950 . S
H864 C869 0.950 . S
H865 C870 0.949 . S
H866 C872 0.950 . S
H867 C873 0.950 . S
H868 C874 0.949 . S
C869 H864 0.950 . S
C869 C871 1.327 . S
C869 C875 1.429 . S
C870 C862 1.574 . S
C870 H865 0.949 . S
C870 C876 1.368 . S
C871 C855 1.349 . S
C871 H863 0.950 . S
C871 C869 1.327 . S
C872 C860 1.349 . S
C872 H866 0.950 . S
C872 C873 1.327 . S
C873 H867 0.950 . S
C873 C872 1.327 . S
C873 C877 1.429 . S
C874 C857 1.574 . S
C874 H868 0.949 . S
C874 C878 1.368 . S
C875 C856 1.429 . S
C875 C869 1.429 . S
C875 C876 1.523 . S
C876 C857 1.368 . S
C876 C870 1.368 . S
C876 C875 1.523 . S
C877 C861 1.429 . S
C877 C873 1.429 . S
C877 C878 1.523 . S
C878 C862 1.368 . S
C878 C874 1.368 . S
C878 C877 1.523 . S
H879 C854 0.950 . S
H880 C856 0.950 . S
H881 C857 0.949 . S
H882 C859 0.950 . S
H883 C861 0.950 . S
C884 C885 1.349 . S
C884 C886 1.327 . S
C884 H909 0.950 . S
C885 C884 1.349 . S
C885 C901 1.349 . S
C886 C884 1.327 . S
C886 C905 1.429 . S
C886 H910 0.950 . S
C887 C904 1.574 . S
C887 C906 1.368 . S
C887 H911 0.949 . S
H888 C892 0.949 . S
C889 C890 1.349 . S
C889 C891 1.327 . S
C889 H912 0.950 . S
C890 C889 1.349 . S
C890 C902 1.349 . S
C891 C889 1.327 . S
C891 C907 1.429 . S
C891 H913 0.950 . S
C892 H888 0.949 . S
C892 C900 1.574 . S
C892 C908 1.368 . S
H893 C901 0.950 . S
H894 C899 0.950 . S
H895 C900 0.949 . S
H896 C902 0.950 . S
H897 C903 0.950 . S
H898 C904 0.949 . S
C899 H894 0.950 . S
C899 C901 1.327 . S
C899 C905 1.429 . S
C900 C892 1.574 . S
C900 H895 0.949 . S
C900 C906 1.368 . S
C901 C885 1.349 . S
C901 H893 0.950 . S
C901 C899 1.327 . S
C902 C890 1.349 . S
C902 H896 0.950 . S
C902 C903 1.327 . S
C903 H897 0.950 . S
C903 C902 1.327 . S
C903 C907 1.429 . S
C904 C887 1.574 . S
C904 H898 0.949 . S
C904 C908 1.368 . S
C905 C886 1.429 . S
C905 C899 1.429 . S
C905 C906 1.523 . S
C906 C887 1.368 . S
C906 C900 1.368 . S
C906 C905 1.523 . S
C907 C891 1.429 . S
C907 C903 1.429 . S
C907 C908 1.523 . S
C908 C892 1.368 . S
C908 C904 1.368 . S
C908 C907 1.523 . S
H909 C884 0.950 . S
H910 C886 0.950 . S
H911 C887 0.949 . S
H912 C889 0.950 . S
H913 C891 0.950 . S
C914 C915 1.349 . S
C914 C916 1.327 . S
C914 H939 0.950 . S
C915 C914 1.349 . S
C915 C931 1.349 . S
C916 C914 1.327 . S
C916 C935 1.429 . S
C916 H940 0.950 . S
C917 C934 1.574 . S
C917 C936 1.368 . S
C917 H941 0.949 . S
H918 C922 0.949 . S
C919 C920 1.349 . S
C919 C921 1.327 . S
C919 H942 0.950 . S
C920 C919 1.349 . S
C920 C932 1.349 . S
C921 C919 1.327 . S
C921 C937 1.429 . S
C921 H943 0.950 . S
C922 H918 0.949 . S
C922 C930 1.574 . S
C922 C938 1.368 . S
H923 C931 0.950 . S
H924 C929 0.950 . S
H925 C930 0.949 . S
H926 C932 0.950 . S
H927 C933 0.950 . S
H928 C934 0.949 . S
C929 H924 0.950 . S
C929 C931 1.327 . S
C929 C935 1.429 . S
C930 C922 1.574 . S
C930 H925 0.949 . S
C930 C936 1.368 . S
C931 C915 1.349 . S
C931 H923 0.950 . S
C931 C929 1.327 . S
C932 C920 1.349 . S
C932 H926 0.950 . S
C932 C933 1.327 . S
C933 H927 0.950 . S
C933 C932 1.327 . S
C933 C937 1.429 . S
C934 C917 1.574 . S
C934 H928 0.949 . S
C934 C938 1.368 . S
C935 C916 1.429 . S
C935 C929 1.429 . S
C935 C936 1.523 . S
C936 C917 1.368 . S
C936 C930 1.368 . S
C936 C935 1.523 . S
C937 C921 1.429 . S
C937 C933 1.429 . S
C937 C938 1.523 . S
C938 C922 1.368 . S
C938 C934 1.368 . S
C938 C937 1.523 . S
H939 C914 0.950 . S
H940 C916 0.950 . S
H941 C917 0.949 . S
H942 C919 0.950 . S
H943 C921 0.950 . S
C944 C945 1.349 . S
C944 C946 1.327 . S
C944 H969 0.950 . S
C945 C944 1.349 . S
C945 C961 1.349 . S
C946 C944 1.327 . S
C946 C965 1.429 . S
C946 H970 0.950 . S
C947 C964 1.574 . S
C947 C966 1.368 . S
C947 H971 0.949 . S
H948 C952 0.949 . S
C949 C950 1.349 . S
C949 C951 1.327 . S
C949 H972 0.950 . S
C950 C949 1.349 . S
C950 C962 1.349 . S
C951 C949 1.327 . S
C951 C967 1.429 . S
C951 H973 0.950 . S
C952 H948 0.949 . S
C952 C960 1.574 . S
C952 C968 1.368 . S
H953 C961 0.950 . S
H954 C959 0.950 . S
H955 C960 0.949 . S
H956 C962 0.950 . S
H957 C963 0.950 . S
H958 C964 0.949 . S
C959 H954 0.950 . S
C959 C961 1.327 . S
C959 C965 1.429 . S
C960 C952 1.574 . S
C960 H955 0.949 . S
C960 C966 1.368 . S
C961 C945 1.349 . S
C961 H953 0.950 . S
C961 C959 1.327 . S
C962 C950 1.349 . S
C962 H956 0.950 . S
C962 C963 1.327 . S
C963 H957 0.950 . S
C963 C962 1.327 . S
C963 C967 1.429 . S
C964 C947 1.574 . S
C964 H958 0.949 . S
C964 C968 1.368 . S
C965 C946 1.429 . S
C965 C959 1.429 . S
C965 C966 1.523 . S
C966 C947 1.368 . S
C966 C960 1.368 . S
C966 C965 1.523 . S
C967 C951 1.429 . S
C967 C963 1.429 . S
C967 C968 1.523 . S
C968 C952 1.368 . S
C968 C964 1.368 . S
C968 C967 1.523 . S
H969 C944 0.950 . S
H970 C946 0.950 . S
H971 C947 0.949 . S
H972 C949 0.950 . S
H973 C951 0.950 . S
C974 C975 1.349 . S
C974 C976 1.327 . S
C974 H999 0.950 . S
C975 C974 1.349 . S
C975 C991 1.349 . S
C976 C974 1.327 . S
C976 C995 1.429 . S
C976 H1000 0.950 . S
C977 C994 1.574 . S
C977 C996 1.368 . S
C977 H1001 0.949 . S
H978 C982 0.949 . S
C979 C980 1.349 . S
C979 C981 1.327 . S
C979 H1002 0.950 . S
C980 C979 1.349 . S
C980 C992 1.349 . S
C981 C979 1.327 . S
C981 C997 1.429 . S
C981 H1003 0.950 . S
C982 H978 0.949 . S
C982 C990 1.574 . S
C982 C998 1.368 . S
H983 C991 0.950 . S
H984 C989 0.950 . S
H985 C990 0.949 . S
H986 C992 0.950 . S
H987 C993 0.950 . S
H988 C994 0.949 . S
C989 H984 0.950 . S
C989 C991 1.327 . S
C989 C995 1.429 . S
C990 C982 1.574 . S
C990 H985 0.949 . S
C990 C996 1.368 . S
C991 C975 1.349 . S
C991 H983 0.950 . S
C991 C989 1.327 . S
C992 C980 1.349 . S
C992 H986 0.950 . S
C992 C993 1.327 . S
C993 H987 0.950 . S
C993 C992 1.327 . S
C993 C997 1.429 . S
C994 C977 1.574 . S
C994 H988 0.949 . S
C994 C998 1.368 . S
C995 C976 1.429 . S
C995 C989 1.429 . S
C995 C996 1.523 . S
C996 C977 1.368 . S
C996 C990 1.368 . S
C996 C995 1.523 . S
C997 C981 1.429 . S
C997 C993 1.429 . S
C997 C998 1.523 . S
C998 C982 1.368 . S
C998 C994 1.368 . S
C998 C997 1.523 . S
H999 C974 0.950 . S
H1000 C976 0.950 . S
H1001 C977 0.949 . S
H1002 C979 0.950 . S
H1003 C981 0.950 . S
C1004 C1005 1.349 . S
C1004 C1006 1.327 . S
C1004 H1029 0.950 . S
C1005 C1004 1.349 . S
C1005 C1021 1.349 . S
C1006 C1004 1.327 . S
C1006 C1025 1.429 . S
C1006 H1030 0.950 . S
C1007 C1024 1.574 . S
C1007 C1026 1.368 . S
C1007 H1031 0.949 . S
H1008 C1012 0.949 . S
C1009 C1010 1.349 . S
C1009 C1011 1.327 . S
C1009 H1032 0.950 . S
C1010 C1009 1.349 . S
C1010 C1022 1.349 . S
C1011 C1009 1.327 . S
C1011 C1027 1.429 . S
C1011 H1033 0.950 . S
C1012 H1008 0.949 . S
C1012 C1020 1.574 . S
C1012 C1028 1.368 . S
H1013 C1021 0.950 . S
H1014 C1019 0.950 . S
H1015 C1020 0.949 . S
H1016 C1022 0.950 . S
H1017 C1023 0.950 . S
H1018 C1024 0.949 . S
C1019 H1014 0.950 . S
C1019 C1021 1.327 . S
C1019 C1025 1.429 . S
C1020 C1012 1.574 . S
C1020 H1015 0.949 . S
C1020 C1026 1.368 . S
C1021 C1005 1.349 . S
C1021 H1013 0.950 . S
C1021 C1019 1.327 . S
C1022 C1010 1.349 . S
C1022 H1016 0.950 . S
C1022 C1023 1.327 . S
C1023 H1017 0.950 . S
C1023 C1022 1.327 . S
C1023 C1027 1.429 . S
C1024 C1007 1.574 . S
C1024 H1018 0.949 . S
C1024 C1028 1.368 . S
C1025 C1006 1.429 . S
C1025 C1019 1.429 . S
C1025 C1026 1.523 . S
C1026 C1007 1.368 . S
C1026 C1020 1.368 . S
C1026 C1025 1.523 . S
C1027 C1011 1.429 . S
C1027 C1023 1.429 . S
C1027 C1028 1.523 . S
C1028 C1012 1.368 . S
C1028 C1024 1.368 . S
C1028 C1027 1.523 . S
H1029 C1004 0.950 . S
H1030 C1006 0.950 . S
H1031 C1007 0.949 . S
H1032 C1009 0.950 . S
H1033 C1011 0.950 . S
C1034 C1035 1.349 . S
C1034 C1036 1.327 . S
C1034 H1059 0.950 . S
C1035 C1034 1.349 . S
C1035 C1051 1.349 . S
C1036 C1034 1.327 . S
C1036 C1055 1.429 . S
C1036 H1060 0.950 . S
C1037 C1054 1.574 . S
C1037 C1056 1.368 . S
C1037 H1061 0.949 . S
H1038 C1042 0.949 . S
C1039 C1040 1.349 . S
C1039 C1041 1.327 . S
C1039 H1062 0.950 . S
C1040 C1039 1.349 . S
C1040 C1052 1.349 . S
C1041 C1039 1.327 . S
C1041 C1057 1.429 . S
C1041 H1063 0.950 . S
C1042 H1038 0.949 . S
C1042 C1050 1.574 . S
C1042 C1058 1.368 . S
H1043 C1051 0.950 . S
H1044 C1049 0.950 . S
H1045 C1050 0.949 . S
H1046 C1052 0.950 . S
H1047 C1053 0.950 . S
H1048 C1054 0.949 . S
C1049 H1044 0.950 . S
C1049 C1051 1.327 . S
C1049 C1055 1.429 . S
C1050 C1042 1.574 . S
C1050 H1045 0.949 . S
C1050 C1056 1.368 . S
C1051 C1035 1.349 . S
C1051 H1043 0.950 . S
C1051 C1049 1.327 . S
C1052 C1040 1.349 . S
C1052 H1046 0.950 . S
C1052 C1053 1.327 . S
C1053 H1047 0.950 . S
C1053 C1052 1.327 . S
C1053 C1057 1.429 . S
C1054 C1037 1.574 . S
C1054 H1048 0.949 . S
C1054 C1058 1.368 . S
C1055 C1036 1.429 . S
C1055 C1049 1.429 . S
C1055 C1056 1.523 . S
C1056 C1037 1.368 . S
C1056 C1050 1.368 . S
C1056 C1055 1.523 . S
C1057 C1041 1.429 . S
C1057 C1053 1.429 . S
C1057 C1058 1.523 . S
C1058 C1042 1.368 . S
C1058 C1054 1.368 . S
C1058 C1057 1.523 . S
H1059 C1034 0.950 . S
H1060 C1036 0.950 . S
H1061 C1037 0.949 . S
H1062 C1039 0.950 . S
H1063 C1041 0.950 . S
C1064 C1065 1.349 . S
C1064 C1066 1.327 . S
C1064 H1089 0.950 . S
C1065 C1064 1.349 . S
C1065 C1081 1.349 . S
C1066 C1064 1.327 . S
C1066 C1085 1.429 . S
C1066 H1090 0.950 . S
C1067 C1084 1.574 . S
C1067 C1086 1.368 . S
C1067 H1091 0.949 . S
H1068 C1072 0.949 . S
C1069 C1070 1.349 . S
C1069 C1071 1.327 . S
C1069 H1092 0.950 . S
C1070 C1069 1.349 . S
C1070 C1082 1.349 . S
C1071 C1069 1.327 . S
C1071 C1087 1.429 . S
C1071 H1093 0.950 . S
C1072 H1068 0.949 . S
C1072 C1080 1.574 . S
C1072 C1088 1.368 . S
H1073 C1081 0.950 . S
H1074 C1079 0.950 . S
H1075 C1080 0.949 . S
H1076 C1082 0.950 . S
H1077 C1083 0.950 . S
H1078 C1084 0.949 . S
C1079 H1074 0.950 . S
C1079 C1081 1.327 . S
C1079 C1085 1.429 . S
C1080 C1072 1.574 . S
C1080 H1075 0.949 . S
C1080 C1086 1.368 . S
C1081 C1065 1.349 . S
C1081 H1073 0.950 . S
C1081 C1079 1.327 . S
C1082 C1070 1.349 . S
C1082 H1076 0.950 . S
C1082 C1083 1.327 . S
C1083 H1077 0.950 . S
C1083 C1082 1.327 . S
C1083 C1087 1.429 . S
C1084 C1067 1.574 . S
C1084 H1078 0.949 . S
C1084 C1088 1.368 . S
C1085 C1066 1.429 . S
C1085 C1079 1.429 . S
C1085 C1086 1.523 . S
C1086 C1067 1.368 . S
C1086 C1080 1.368 . S
C1086 C1085 1.523 . S
C1087 C1071 1.429 . S
C1087 C1083 1.429 . S
C1087 C1088 1.523 . S
C1088 C1072 1.368 . S
C1088 C1084 1.368 . S
C1088 C1087 1.523 . S
H1089 C1064 0.950 . S
H1090 C1066 0.950 . S
H1091 C1067 0.949 . S
H1092 C1069 0.950 . S
H1093 C1071 0.950 . S
C1094 C1095 1.349 . S
C1094 C1096 1.327 . S
C1094 H1119 0.950 . S
C1095 C1094 1.349 . S
C1095 C1111 1.349 . S
C1096 C1094 1.327 . S
C1096 C1115 1.429 . S
C1096 H1120 0.950 . S
C1097 C1114 1.574 . S
C1097 C1116 1.368 . S
C1097 H1121 0.949 . S
H1098 C1102 0.949 . S
C1099 C1100 1.349 . S
C1099 C1101 1.327 . S
C1099 H1122 0.950 . S
C1100 C1099 1.349 . S
C1100 C1112 1.349 . S
C1101 C1099 1.327 . S
C1101 C1117 1.429 . S
C1101 H1123 0.950 . S
C1102 H1098 0.949 . S
C1102 C1110 1.574 . S
C1102 C1118 1.368 . S
H1103 C1111 0.950 . S
H1104 C1109 0.950 . S
H1105 C1110 0.949 . S
H1106 C1112 0.950 . S
H1107 C1113 0.950 . S
H1108 C1114 0.949 . S
C1109 H1104 0.950 . S
C1109 C1111 1.327 . S
C1109 C1115 1.429 . S
C1110 C1102 1.574 . S
C1110 H1105 0.949 . S
C1110 C1116 1.368 . S
C1111 C1095 1.349 . S
C1111 H1103 0.950 . S
C1111 C1109 1.327 . S
C1112 C1100 1.349 . S
C1112 H1106 0.950 . S
C1112 C1113 1.327 . S
C1113 H1107 0.950 . S
C1113 C1112 1.327 . S
C1113 C1117 1.429 . S
C1114 C1097 1.574 . S
C1114 H1108 0.949 . S
C1114 C1118 1.368 . S
C1115 C1096 1.429 . S
C1115 C1109 1.429 . S
C1115 C1116 1.523 . S
C1116 C1097 1.368 . S
C1116 C1110 1.368 . S
C1116 C1115 1.523 . S
C1117 C1101 1.429 . S
C1117 C1113 1.429 . S
C1117 C1118 1.523 . S
C1118 C1102 1.368 . S
C1118 C1114 1.368 . S
C1118 C1117 1.523 . S
H1119 C1094 0.950 . S
H1120 C1096 0.950 . S
H1121 C1097 0.949 . S
H1122 C1099 0.950 . S
H1123 C1101 0.950 . S
C1124 C1125 1.349 . S
C1124 C1126 1.327 . S
C1124 H1149 0.950 . S
C1125 C1124 1.349 . S
C1125 C1141 1.349 . S
C1126 C1124 1.327 . S
C1126 C1145 1.429 . S
C1126 H1150 0.950 . S
C1127 C1144 1.574 . S
C1127 C1146 1.368 . S
C1127 H1151 0.949 . S
H1128 C1132 0.949 . S
C1129 C1130 1.349 . S
C1129 C1131 1.327 . S
C1129 H1152 0.950 . S
C1130 C1129 1.349 . S
C1130 C1142 1.349 . S
C1131 C1129 1.327 . S
C1131 C1147 1.429 . S
C1131 H1153 0.950 . S
C1132 H1128 0.949 . S
C1132 C1140 1.574 . S
C1132 C1148 1.368 . S
H1133 C1141 0.950 . S
H1134 C1139 0.950 . S
H1135 C1140 0.949 . S
H1136 C1142 0.950 . S
H1137 C1143 0.950 . S
H1138 C1144 0.949 . S
C1139 H1134 0.950 . S
C1139 C1141 1.327 . S
C1139 C1145 1.429 . S
C1140 C1132 1.574 . S
C1140 H1135 0.949 . S
C1140 C1146 1.368 . S
C1141 C1125 1.349 . S
C1141 H1133 0.950 . S
C1141 C1139 1.327 . S
C1142 C1130 1.349 . S
C1142 H1136 0.950 . S
C1142 C1143 1.327 . S
C1143 H1137 0.950 . S
C1143 C1142 1.327 . S
C1143 C1147 1.429 . S
C1144 C1127 1.574 . S
C1144 H1138 0.949 . S
C1144 C1148 1.368 . S
C1145 C1126 1.429 . S
C1145 C1139 1.429 . S
C1145 C1146 1.523 . S
C1146 C1127 1.368 . S
C1146 C1140 1.368 . S
C1146 C1145 1.523 . S
C1147 C1131 1.429 . S
C1147 C1143 1.429 . S
C1147 C1148 1.523 . S
C1148 C1132 1.368 . S
C1148 C1144 1.368 . S
C1148 C1147 1.523 . S
H1149 C1124 0.950 . S
H1150 C1126 0.950 . S
H1151 C1127 0.949 . S
H1152 C1129 0.950 . S
H1153 C1131 0.950 . S
C1154 C1155 1.349 . S
C1154 C1156 1.327 . S
C1154 H1179 0.950 . S
C1155 C1154 1.349 . S
C1155 C1171 1.349 . S
C1156 C1154 1.327 . S
C1156 C1175 1.429 . S
C1156 H1180 0.950 . S
C1157 C1174 1.574 . S
C1157 C1176 1.368 . S
C1157 H1181 0.949 . S
H1158 C1162 0.949 . S
C1159 C1160 1.349 . S
C1159 C1161 1.327 . S
C1159 H1182 0.950 . S
C1160 C1159 1.349 . S
C1160 C1172 1.349 . S
C1161 C1159 1.327 . S
C1161 C1177 1.429 . S
C1161 H1183 0.950 . S
C1162 H1158 0.949 . S
C1162 C1170 1.574 . S
C1162 C1178 1.368 . S
H1163 C1171 0.950 . S
H1164 C1169 0.950 . S
H1165 C1170 0.949 . S
H1166 C1172 0.950 . S
H1167 C1173 0.950 . S
H1168 C1174 0.949 . S
C1169 H1164 0.950 . S
C1169 C1171 1.327 . S
C1169 C1175 1.429 . S
C1170 C1162 1.574 . S
C1170 H1165 0.949 . S
C1170 C1176 1.368 . S
C1171 C1155 1.349 . S
C1171 H1163 0.950 . S
C1171 C1169 1.327 . S
C1172 C1160 1.349 . S
C1172 H1166 0.950 . S
C1172 C1173 1.327 . S
C1173 H1167 0.950 . S
C1173 C1172 1.327 . S
C1173 C1177 1.429 . S
C1174 C1157 1.574 . S
C1174 H1168 0.949 . S
C1174 C1178 1.368 . S
C1175 C1156 1.429 . S
C1175 C1169 1.429 . S
C1175 C1176 1.523 . S
C1176 C1157 1.368 . S
C1176 C1170 1.368 . S
C1176 C1175 1.523 . S
C1177 C1161 1.429 . S
C1177 C1173 1.429 . S
C1177 C1178 1.523 . S
C1178 C1162 1.368 . S
C1178 C1174 1.368 . S
C1178 C1177 1.523 . S
H1179 C1154 0.950 . S
H1180 C1156 0.950 . S
H1181 C1157 0.949 . S
H1182 C1159 0.950 . S
H1183 C1161 0.950 . S
C225 C218 1.139 . S
C230 C8 1.139 . S
C255 C176 1.139 . S
C260 C22 1.139 . S
C285 C36 1.139 . S
C290 C190 1.139 . S
C315 C204 1.139 . S
C320 C50 1.139 . S
C345 C134 1.139 . S
C350 C64 1.139 . S
C375 C78 1.139 . S
C380 C148 1.139 . S
C405 C92 1.139 . S
C410 C162 1.139 . S
C435 C106 1.139 . S
C440 C120 1.139 . S
C465 C73 1.653 . S
C470 C7 1.564 . S
C495 C91 1.564 . S
C500 C17 1.653 . S
C525 C101 1.653 . S
C530 C35 1.564 . S
C555 C45 1.653 . S
C560 C63 1.564 . S
C585 C9 1.169 . S
C590 C23 1.169 . S
C615 C31 1.653 . S
C620 C21 1.564 . S
C645 C37 1.169 . S
C650 C51 1.169 . S
C675 C3 1.653 . S
C680 C49 1.564 . S
C705 C107 1.169 . S
C710 C65 1.169 . S
C735 C59 1.653 . S
C740 C77 1.564 . S
C765 C79 1.169 . S
C770 C93 1.169 . S
C795 C105 1.564 . S
C800 C87 1.653 . S
C825 C185 1.653 . S
C830 C119 1.564 . S
C855 C129 1.653 . S
C860 C203 1.564 . S
C885 C213 1.653 . S
C890 C147 1.564 . S
C915 C175 1.564 . S
C920 C157 1.653 . S
C945 C121 1.169 . S
C950 C135 1.169 . S
C975 C133 1.564 . S
C980 C143 1.653 . S
C1005 C163 1.169 . S
C1010 C149 1.169 . S
C1035 C115 1.653 . S
C1040 C161 1.564 . S
C1065 C219 1.169 . S
C1070 C177 1.169 . S
C1095 C171 1.653 . S
C1100 C189 1.564 . S
C1125 C191 1.169 . S
C1130 C205 1.169 . S
C1155 C217 1.564 . S
C1160 C199 1.653 . S
