# Generated by pormake.
# Topology why, (6)-cn, num edge types: 1
# Building blocks:
#     Node 0, Type 0, BuildingBlock: BETFEN_clean_sbu_0, # of connection points: 6
#     Node 1, Type 0, BuildingBlock: BETFEN_clean_sbu_0, # of connection points: 6
#     Node 2, Type 0, BuildingBlock: BETFEN_clean_sbu_0, # of connection points: 6
#     Node 3, Type 0, BuildingBlock: BETFEN_clean_sbu_0, # of connection points: 6
#     Node 4, Type 0, BuildingBlock: BETFEN_clean_sbu_0, # of connection points: 6
#     Node 5, Type 0, BuildingBlock: BETFEN_clean_sbu_0, # of connection points: 6
#     Node 6, Type 0, BuildingBlock: BETFEN_clean_sbu_0, # of connection points: 6
#     Node 7, Type 0, BuildingBlock: BETFEN_clean_sbu_0, # of connection points: 6
#     Node 8, Type 0, BuildingBlock: BETFEN_clean_sbu_0, # of connection points: 6
#     Node 9, Type 0, BuildingBlock: BETFEN_clean_sbu_0, # of connection points: 6
#     Node 10, Type 0, BuildingBlock: BETFEN_clean_sbu_0, # of connection points: 6
#     Node 11, Type 0, BuildingBlock: BETFEN_clean_sbu_0, # of connection points: 6
#     Node 12, Type 0, BuildingBlock: BETFEN_clean_sbu_0, # of connection points: 6
#     Node 13, Type 0, BuildingBlock: BETFEN_clean_sbu_0, # of connection points: 6
#     Node 14, Type 0, BuildingBlock: BETFEN_clean_sbu_0, # of connection points: 6
#     Node 15, Type 0, BuildingBlock: BETFEN_clean_sbu_0, # of connection points: 6
#     Edge 16, Type (0, 0), BuildingBlock: XUDNAN_clean_linker_2, # of connection points: 2
#     Edge 17, Type (0, 0), BuildingBlock: XUDNAN_clean_linker_2, # of connection points: 2
#     Edge 18, Type (0, 0), BuildingBlock: XUDNAN_clean_linker_2, # of connection points: 2
#     Edge 19, Type (0, 0), BuildingBlock: XUDNAN_clean_linker_2, # of connection points: 2
#     Edge 20, Type (0, 0), BuildingBlock: XUDNAN_clean_linker_2, # of connection points: 2
#     Edge 21, Type (0, 0), BuildingBlock: XUDNAN_clean_linker_2, # of connection points: 2
#     Edge 22, Type (0, 0), BuildingBlock: XUDNAN_clean_linker_2, # of connection points: 2
#     Edge 23, Type (0, 0), BuildingBlock: XUDNAN_clean_linker_2, # of connection points: 2
#     Edge 24, Type (0, 0), BuildingBlock: XUDNAN_clean_linker_2, # of connection points: 2
#     Edge 25, Type (0, 0), BuildingBlock: XUDNAN_clean_linker_2, # of connection points: 2
#     Edge 26, Type (0, 0), BuildingBlock: XUDNAN_clean_linker_2, # of connection points: 2
#     Edge 27, Type (0, 0), BuildingBlock: XUDNAN_clean_linker_2, # of connection points: 2
#     Edge 28, Type (0, 0), BuildingBlock: XUDNAN_clean_linker_2, # of connection points: 2
#     Edge 29, Type (0, 0), BuildingBlock: XUDNAN_clean_linker_2, # of connection points: 2
#     Edge 30, Type (0, 0), BuildingBlock: XUDNAN_clean_linker_2, # of connection points: 2
#     Edge 31, Type (0, 0), BuildingBlock: XUDNAN_clean_linker_2, # of connection points: 2
#     Edge 32, Type (0, 0), BuildingBlock: XUDNAN_clean_linker_2, # of connection points: 2
#     Edge 33, Type (0, 0), BuildingBlock: XUDNAN_clean_linker_2, # of connection points: 2
#     Edge 34, Type (0, 0), BuildingBlock: XUDNAN_clean_linker_2, # of connection points: 2
#     Edge 35, Type (0, 0), BuildingBlock: XUDNAN_clean_linker_2, # of connection points: 2
#     Edge 36, Type (0, 0), BuildingBlock: XUDNAN_clean_linker_2, # of connection points: 2
#     Edge 37, Type (0, 0), BuildingBlock: XUDNAN_clean_linker_2, # of connection points: 2
#     Edge 38, Type (0, 0), BuildingBlock: XUDNAN_clean_linker_2, # of connection points: 2
#     Edge 39, Type (0, 0), BuildingBlock: XUDNAN_clean_linker_2, # of connection points: 2
#     Edge 40, Type (0, 0), BuildingBlock: XUDNAN_clean_linker_2, # of connection points: 2
#     Edge 41, Type (0, 0), BuildingBlock: XUDNAN_clean_linker_2, # of connection points: 2
#     Edge 42, Type (0, 0), BuildingBlock: XUDNAN_clean_linker_2, # of connection points: 2
#     Edge 43, Type (0, 0), BuildingBlock: XUDNAN_clean_linker_2, # of connection points: 2
#     Edge 44, Type (0, 0), BuildingBlock: XUDNAN_clean_linker_2, # of connection points: 2
#     Edge 45, Type (0, 0), BuildingBlock: XUDNAN_clean_linker_2, # of connection points: 2
#     Edge 46, Type (0, 0), BuildingBlock: XUDNAN_clean_linker_2, # of connection points: 2
#     Edge 47, Type (0, 0), BuildingBlock: XUDNAN_clean_linker_2, # of connection points: 2
#     Edge 48, Type (0, 0), BuildingBlock: XUDNAN_clean_linker_2, # of connection points: 2
#     Edge 49, Type (0, 0), BuildingBlock: XUDNAN_clean_linker_2, # of connection points: 2
#     Edge 50, Type (0, 0), BuildingBlock: XUDNAN_clean_linker_2, # of connection points: 2
#     Edge 51, Type (0, 0), BuildingBlock: XUDNAN_clean_linker_2, # of connection points: 2
#     Edge 52, Type (0, 0), BuildingBlock: XUDNAN_clean_linker_2, # of connection points: 2
#     Edge 53, Type (0, 0), BuildingBlock: XUDNAN_clean_linker_2, # of connection points: 2
#     Edge 54, Type (0, 0), BuildingBlock: XUDNAN_clean_linker_2, # of connection points: 2
#     Edge 55, Type (0, 0), BuildingBlock: XUDNAN_clean_linker_2, # of connection points: 2
#     Edge 56, Type (0, 0), BuildingBlock: XUDNAN_clean_linker_2, # of connection points: 2
#     Edge 57, Type (0, 0), BuildingBlock: XUDNAN_clean_linker_2, # of connection points: 2
#     Edge 58, Type (0, 0), BuildingBlock: XUDNAN_clean_linker_2, # of connection points: 2
#     Edge 59, Type (0, 0), BuildingBlock: XUDNAN_clean_linker_2, # of connection points: 2
#     Edge 60, Type (0, 0), BuildingBlock: XUDNAN_clean_linker_2, # of connection points: 2
#     Edge 61, Type (0, 0), BuildingBlock: XUDNAN_clean_linker_2, # of connection points: 2
#     Edge 62, Type (0, 0), BuildingBlock: XUDNAN_clean_linker_2, # of connection points: 2
#     Edge 63, Type (0, 0), BuildingBlock: XUDNAN_clean_linker_2, # of connection points: 2
# Relax obj value: 0.424
# Max RMSD: 0.230
# Mean RMSD: 0.230
data_MOF--net-why--node1-BETFEN_clean_sbu_0--edge1-XUDNAN_clean_linker_2
_symmetry_space_group_name_H-M    P1
_symmetry_Int_Tables_number       1
_symmetry_cell_setting            triclinic
loop_
_symmetry_equiv_pos_as_xyz
'x, y, z'
_cell_length_a     51.79422
_cell_length_b     52.397374
_cell_length_c     38.464932
_cell_angle_alpha  90.04579
_cell_angle_beta   90.004477
_cell_angle_gamma 90.10175
loop_
_atom_site_label
_atom_site_type_symbol
_atom_site_fract_x
_atom_site_fract_y
_atom_site_fract_z
_atom_type_partial_charge
Pr0 Pr 0.46142 0.19293 0.05952 0.0
Pr1 Pr 0.43891 0.22007 0.09948 0.0
C2 C 0.49347 0.16758 0.01668 0.0
C3 C 0.50731 0.17054 0.98353 0.0
C4 C 0.49947 0.1559 0.9549 0.0
C5 C 0.51364 0.15637 0.9242 0.0
C6 C 0.53615 0.17123 0.92166 0.0
C7 C 0.5434 0.18684 0.94971 0.0
C8 C 0.52909 0.18647 0.98051 0.0
C9 C 0.45081 0.15817 0.11917 0.0
C10 C 0.49912 0.24582 0.0861 0.0
C11 C 0.41306 0.23562 0.15638 0.0
C12 C 0.4171 0.25575 0.18259 0.0
C13 C 0.41503 0.28169 0.17387 0.0
C14 C 0.41848 0.30042 0.19923 0.0
C15 C 0.4242 0.29363 0.23376 0.0
C16 C 0.42734 0.26771 0.24206 0.0
C17 C 0.42367 0.24896 0.21676 0.0
C18 C 0.44776 0.2528 0.04496 0.0
C19 C 0.39899 0.20004 0.03198 0.0
O20 O 0.46837 0.16567 0.01503 0.0
O21 O 0.50151 0.18088 0.04331 0.0
O22 O 0.45957 0.18143 0.11997 0.0
O23 O 0.44447 0.15432 0.08696 0.0
O24 O 0.47922 0.24649 0.10845 0.0
O25 O 0.49626 0.2269 0.06274 0.0
O26 O 0.40676 0.24261 0.12497 0.0
O27 O 0.42976 0.21707 0.15675 0.0
O28 O 0.44118 0.22962 0.04067 0.0
O29 O 0.44989 0.25944 0.07742 0.0
O30 O 0.42248 0.19227 0.02232 0.0
O31 O 0.3988 0.20977 0.06434 0.0
H32 H 0.48274 0.14351 0.95656 0.0
H33 H 0.50738 0.14449 0.90272 0.0
H34 H 0.56074 0.19838 0.94842 0.0
H35 H 0.53555 0.19805 0.00218 0.0
H36 H 0.41023 0.28755 0.14767 0.0
H37 H 0.41537 0.32016 0.19204 0.0
H38 H 0.43187 0.26189 0.26837 0.0
H39 H 0.42562 0.22908 0.22403 0.0
Pr40 Pr 0.69879 0.70898 0.30633 0.0
Pr41 Pr 0.67403 0.69121 0.34923 0.0
C42 C 0.72362 0.73884 0.26009 0.0
C43 C 0.71709 0.75239 0.22794 0.0
C44 C 0.69391 0.76606 0.22497 0.0
C45 C 0.68795 0.77874 0.19418 0.0
C46 C 0.70489 0.77775 0.16566 0.0
C47 C 0.72791 0.76371 0.16861 0.0
C48 C 0.73397 0.7512 0.19956 0.0
C49 C 0.73607 0.69996 0.36454 0.0
C50 C 0.64739 0.7487 0.33342 0.0
C51 C 0.66656 0.66082 0.40481 0.0
C52 C 0.66307 0.6333 0.41021 0.0
C53 C 0.64474 0.61932 0.39123 0.0
C54 C 0.64233 0.59305 0.39624 0.0
C55 C 0.65844 0.58025 0.41999 0.0
C56 C 0.67742 0.59425 0.43791 0.0
C57 C 0.67959 0.62054 0.4332 0.0
C58 C 0.63779 0.69385 0.29683 0.0
C59 C 0.69043 0.64734 0.28333 0.0
O60 O 0.72359 0.71401 0.25827 0.0
O61 O 0.71335 0.74749 0.28875 0.0
O62 O 0.71405 0.71178 0.36584 0.0
O63 O 0.73614 0.68971 0.33373 0.0
O64 O 0.64966 0.73198 0.35956 0.0
O65 O 0.66381 0.74288 0.3075 0.0
O66 O 0.68929 0.66741 0.39351 0.0
O67 O 0.6479 0.67349 0.39 0.0
O68 O 0.66124 0.68803 0.29137 0.0
O69 O 0.63258 0.69828 0.32934 0.0
O70 O 0.69951 0.66926 0.27079 0.0
O71 O 0.68047 0.65025 0.31541 0.0
H72 H 0.68044 0.76709 0.24646 0.0
H73 H 0.67025 0.78969 0.19299 0.0
H74 H 0.74118 0.76223 0.14694 0.0
H75 H 0.75182 0.74051 0.20132 0.0
H76 H 0.63209 0.62868 0.37279 0.0
H77 H 0.6272 0.58299 0.38243 0.0
H78 H 0.69034 0.58494 0.45604 0.0
H79 H 0.69422 0.63096 0.44756 0.0
Pr80 Pr 0.18199 0.95131 0.55396 0.0
Pr81 Pr 0.20259 0.92252 0.59633 0.0
C82 C 0.15116 0.97532 0.50796 0.0
C83 C 0.13628 0.96701 0.47756 0.0
C84 C 0.12986 0.98453 0.4515 0.0
C85 C 0.11528 0.97671 0.42281 0.0
C86 C 0.1069 0.95124 0.41995 0.0
C87 C 0.11396 0.93362 0.44573 0.0
C88 C 0.12855 0.94144 0.47426 0.0
C89 C 0.19466 0.98688 0.61185 0.0
C90 C 0.1431 0.89778 0.58067 0.0
C91 C 0.22719 0.90249 0.65165 0.0
C92 C 0.22738 0.87678 0.66644 0.0
C93 C 0.21419 0.85685 0.64965 0.0
C94 C 0.21411 0.83234 0.66385 0.0
C95 C 0.22707 0.82749 0.69519 0.0
C96 C 0.23998 0.84768 0.71212 0.0
C97 C 0.24009 0.87215 0.69783 0.0
C98 C 0.19488 0.89323 0.53653 0.0
C99 C 0.24588 0.94234 0.53234 0.0
O100 O 0.17619 0.97438 0.50473 0.0
O101 O 0.1431 0.96683 0.53797 0.0
O102 O 0.18486 0.96397 0.61474 0.0
O103 O 0.20063 0.98897 0.57921 0.0
O104 O 0.1626 0.89632 0.60324 0.0
O105 O 0.14653 0.91717 0.5579 0.0
O106 O 0.23802 0.90502 0.62124 0.0
O107 O 0.20519 0.91441 0.65392 0.0
O108 O 0.2029 0.91582 0.53696 0.0
O109 O 0.19186 0.88404 0.56756 0.0
O110 O 0.22341 0.95125 0.52001 0.0
O111 O 0.2436 0.93219 0.56432 0.0
H112 H 0.13583 1.00431 0.45358 0.0
H113 H 0.10989 0.99072 0.40344 0.0
H114 H 0.10803 0.91382 0.44394 0.0
H115 H 0.13358 0.92753 0.49387 0.0
H116 H 0.20403 0.86022 0.62552 0.0
H117 H 0.20402 0.81718 0.6503 0.0
H118 H 0.25062 0.84442 0.73595 0.0
H119 H 0.25026 0.88739 0.71114 0.0
Pr120 Pr 0.94147 0.42807 0.80436 0.0
Pr121 Pr 0.96892 0.45257 0.84449 0.0
C122 C 0.91676 0.39541 0.76125 0.0
C123 C 0.92061 0.38191 0.72815 0.0
C124 C 0.89933 0.37837 0.70625 0.0
C125 C 0.90239 0.36691 0.67381 0.0
C126 C 0.92688 0.35883 0.66248 0.0
C127 C 0.94817 0.36184 0.68484 0.0
C128 C 0.94506 0.37336 0.71747 0.0
C129 C 0.90517 0.44178 0.86156 0.0
C130 C 0.99585 0.39316 0.8344 0.0
C131 C 0.98711 0.47844 0.89966 0.0
C132 C 1.01024 0.47529 0.92163 0.0
C133 C 1.03454 0.48372 0.91021 0.0
C134 C 1.05629 0.48041 0.93106 0.0
C135 C 1.05423 0.46858 0.96376 0.0
C136 C 1.03004 0.45949 0.97473 0.0
C137 C 1.00824 0.46294 0.95395 0.0
C138 C 0.99979 0.44269 0.78692 0.0
C139 C 0.94776 0.49114 0.77777 0.0
O140 O 0.91447 0.42013 0.75933 0.0
O141 O 0.93037 0.38798 0.78795 0.0
O142 O 0.92862 0.43307 0.8648 0.0
O143 O 0.90267 0.44603 0.82854 0.0
O144 O 0.99557 0.41365 0.85528 0.0
O145 O 0.97674 0.3941 0.81065 0.0
O146 O 0.99059 0.48609 0.86771 0.0
O147 O 0.96978 0.46045 0.90216 0.0
O148 O 0.97654 0.4495 0.78534 0.0
O149 O 1.00849 0.44174 0.81857 0.0
O150 O 0.94104 0.46745 0.76765 0.0
O151 O 0.95715 0.49175 0.81027 0.0
H152 H 0.88031 0.38475 0.71413 0.0
H153 H 0.88552 0.3644 0.65752 0.0
H154 H 0.96727 0.35588 0.67677 0.0
H155 H 0.96175 0.37586 0.7341 0.0
H156 H 1.03677 0.49325 0.88541 0.0
H157 H 1.07449 0.48824 0.92219 0.0
H158 H 1.02785 0.45033 0.99979 0.0
H159 H 0.98976 0.45612 0.96336 0.0
Pr160 Pr 0.70162 0.91876 0.9037 0.0
Pr161 Pr 0.67568 0.94621 0.93804 0.0
C162 C 0.71641 0.90116 0.84122 0.0
C163 C 0.73213 0.91011 0.81209 0.0
C164 C 0.7293 0.89853 0.77955 0.0
C165 C 0.74668 0.90409 0.75291 0.0
C166 C 0.76722 0.92119 0.75864 0.0
C167 C 0.76864 0.93436 0.79043 0.0
C168 C 0.75112 0.9289 0.81701 0.0
C169 C 0.69763 0.89122 0.9643 0.0
C170 C 0.74049 0.93831 0.96682 0.0
C171 C 0.65222 0.97459 0.98748 0.0
C172 C 0.64014 0.97075 0.022 0.0
C173 C 0.65532 0.97022 0.0523 0.0
C174 C 0.64377 0.96772 0.08494 0.0
C175 C 0.6168 0.9658 0.08807 0.0
C176 C 0.60165 0.96582 0.05777 0.0
C177 C 0.61319 0.9684 0.02508 0.0
C178 C 0.68564 0.97847 0.87579 0.0
C179 C 0.64009 0.89202 0.91328 0.0
O180 O 0.69454 0.91304 0.84617 0.0
O181 O 0.72887 0.89621 0.87 0.0
O182 O 0.67913 0.90378 0.95131 0.0
O183 O 0.71877 0.89231 0.94608 0.0
O184 O 0.71648 0.9466 0.97444 0.0
O185 O 0.74195 0.9274 0.93561 0.0
O186 O 0.6772 0.97182 0.98537 0.0
O187 O 0.64014 0.96531 0.96052 0.0
O188 O 0.7019 0.96488 0.89364 0.0
O189 O 0.6631 0.9719 0.88768 0.0
O190 O 0.66359 0.88818 0.89962 0.0
O191 O 0.63886 0.91484 0.92935 0.0
H192 H 0.71455 0.88417 0.77533 0.0
H193 H 0.74529 0.89337 0.72889 0.0
H194 H 0.78427 0.94763 0.79545 0.0
H195 H 0.75325 0.93831 0.84195 0.0
H196 H 0.67613 0.97204 0.05094 0.0
H197 H 0.65598 0.96753 0.1078 0.0
H198 H 0.5808 0.96471 0.05938 0.0
H199 H 0.60095 0.96895 0.00226 0.0
Pr200 Pr 0.46918 0.44825 0.65154 0.0
Pr201 Pr 0.44172 0.42834 0.69507 0.0
C202 C 0.48504 0.47184 0.59311 0.0
C203 C 0.50803 0.46982 0.57123 0.0
C204 C 0.5312 0.46018 0.58479 0.0
C205 C 0.55311 0.45861 0.56379 0.0
C206 C 0.55202 0.46639 0.52888 0.0
C207 C 0.52843 0.47494 0.51507 0.0
C208 C 0.50659 0.47665 0.53615 0.0
C209 C 0.50273 0.44179 0.70655 0.0
C210 C 0.45 0.49116 0.71618 0.0
C211 C 0.41752 0.39809 0.74153 0.0
C212 C 0.42375 0.38506 0.77455 0.0
C213 C 0.43239 0.35964 0.77441 0.0
C214 C 0.43854 0.34735 0.80552 0.0
C215 C 0.43604 0.36018 0.83742 0.0
C216 C 0.42712 0.3855 0.83758 0.0
C217 C 0.42098 0.39779 0.80649 0.0
C218 C 0.4062 0.43773 0.63518 0.0
C219 C 0.49473 0.38943 0.66809 0.0
O220 O 0.4883 0.48149 0.62408 0.0
O221 O 0.4701 0.45183 0.593 0.0
O222 O 0.47945 0.44864 0.71046 0.0
O223 O 0.50922 0.43848 0.67424 0.0
O224 O 0.44266 0.46877 0.7296 0.0
O225 O 0.45836 0.48895 0.68315 0.0
O226 O 0.41608 0.42296 0.74213 0.0
O227 O 0.42874 0.38943 0.71351 0.0
O228 O 0.42926 0.42815 0.63473 0.0
O229 O 0.40273 0.44502 0.66712 0.0
O230 O 0.49547 0.40829 0.64463 0.0
O231 O 0.47588 0.3933 0.69178 0.0
H232 H 0.53246 0.45432 0.61173 0.0
H233 H 0.57106 0.45198 0.57502 0.0
H234 H 0.52715 0.48152 0.48843 0.0
H235 H 0.4887 0.48377 0.52524 0.0
H236 H 0.43454 0.34923 0.75024 0.0
H237 H 0.44553 0.32789 0.80454 0.0
H238 H 0.42453 0.39574 0.8618 0.0
H239 H 0.41406 0.41727 0.80756 0.0
Pr240 Pr 0.93802 0.21365 0.40539 0.0
Pr241 Pr 0.96304 0.191 0.44271 0.0
C242 C 0.92602 0.22729 0.34005 0.0
C243 C 0.92986 0.25001 0.31872 0.0
C244 C 0.93767 0.27307 0.33399 0.0
C245 C 0.93886 0.29527 0.31406 0.0
C246 C 0.93215 0.29464 0.27866 0.0
C247 C 0.92613 0.27108 0.26304 0.0
C248 C 0.92498 0.2489 0.283 0.0
C249 C 0.93648 0.24763 0.45944 0.0
C250 C 0.89854 0.19717 0.46999 0.0
C251 C 0.98801 0.16475 0.49289 0.0
C252 C 1.00118 0.17126 0.52546 0.0
C253 C 1.01742 0.1534 0.54132 0.0
C254 C 1.03022 0.15954 0.5722 0.0
C255 C 1.02691 0.18364 0.58771 0.0
C256 C 1.01063 0.20154 0.57156 0.0
C257 C 0.99793 0.19541 0.5406 0.0
C258 C 0.95449 0.15519 0.38258 0.0
C259 C 0.99759 0.24425 0.41531 0.0
O260 O 0.91002 0.22969 0.36614 0.0
O261 O 0.94699 0.21474 0.34796 0.0
O262 O 0.95639 0.23405 0.45345 0.0
O263 O 0.91748 0.24396 0.43791 0.0
O264 O 0.92241 0.18945 0.47878 0.0
O265 O 0.89748 0.20661 0.43788 0.0
O266 O 0.96305 0.16804 0.4925 0.0
O267 O 0.99918 0.17268 0.4645 0.0
O268 O 0.93793 0.16786 0.40079 0.0
O269 O 0.97664 0.16465 0.39238 0.0
O270 O 0.97596 0.24329 0.39623 0.0
O271 O 0.9981 0.22489 0.43807 0.0
H272 H 0.94177 0.27412 0.36158 0.0
H273 H 0.94359 0.31316 0.32669 0.0
H274 H 0.92047 0.27005 0.23596 0.0
H275 H 0.91918 0.23112 0.27087 0.0
H276 H 1.02015 0.1347 0.52987 0.0
H277 H 1.04238 0.14525 0.58424 0.0
H278 H 1.00791 0.22035 0.58266 0.0
H279 H 0.9856 0.20949 0.52844 0.0
Pr280 Pr 0.17057 0.68638 0.15447 0.0
Pr281 Pr 0.1976 0.70903 0.19762 0.0
C282 C 0.15738 0.66161 0.09604 0.0
C283 C 0.15262 0.63455 0.0894 0.0
C284 C 0.14759 0.61796 0.11722 0.0
C285 C 0.14657 0.59167 0.11175 0.0
C286 C 0.15074 0.58159 0.0784 0.0
C287 C 0.15581 0.59832 0.0506 0.0
C288 C 0.15682 0.62462 0.05612 0.0
C289 C 0.14398 0.67922 0.21572 0.0
C290 C 0.19254 0.64648 0.22112 0.0
C291 C 0.22153 0.74026 0.24311 0.0
C292 C 0.21355 0.75675 0.27205 0.0
C293 C 0.23016 0.76022 0.30041 0.0
C294 C 0.22265 0.77544 0.32848 0.0
C295 C 0.19842 0.78749 0.32846 0.0
C296 C 0.18165 0.78363 0.30022 0.0
C297 C 0.1891 0.76826 0.27232 0.0
C298 C 0.23303 0.69802 0.13799 0.0
C299 C 0.1423 0.74435 0.16998 0.0
O300 O 0.18124 0.66662 0.10459 0.0
O301 O 0.14047 0.67369 0.11524 0.0
O302 O 0.15454 0.70027 0.20766 0.0
O303 O 0.14691 0.66168 0.19224 0.0
O304 O 0.19861 0.66972 0.2326 0.0
O305 O 0.18384 0.64664 0.18806 0.0
O306 O 0.21867 0.71581 0.24831 0.0
O307 O 0.21472 0.7474 0.21186 0.0
O308 O 0.20995 0.70759 0.13737 0.0
O309 O 0.2364 0.69126 0.17013 0.0
O310 O 0.14128 0.72433 0.14827 0.0
O311 O 0.16251 0.74275 0.19211 0.0
H312 H 0.14491 0.62528 0.14328 0.0
H313 H 0.14262 0.57922 0.13359 0.0
H314 H 0.15853 0.59112 0.02446 0.0
H315 H 0.16125 0.63718 0.03455 0.0
H316 H 0.24899 0.75125 0.30077 0.0
H317 H 0.23604 0.77831 0.34976 0.0
H318 H 0.16278 0.79252 0.29972 0.0
H319 H 0.17579 0.76546 0.25097 0.0
Pr320 Pr 0.96228 0.6938 0.55889 0.0
Pr321 Pr 0.94149 0.71879 0.59895 0.0
C322 C 0.99326 0.6661 0.51726 0.0
C323 C 1.01155 0.66731 0.4882 0.0
C324 C 1.00934 0.64893 0.46197 0.0
C325 C 1.02676 0.64856 0.43447 0.0
C326 C 1.04694 0.66648 0.43273 0.0
C327 C 1.04876 0.68544 0.45854 0.0
C328 C 1.03115 0.68584 0.48621 0.0
C329 C 0.94771 0.65665 0.61497 0.0
C330 C 0.99959 0.74783 0.58221 0.0
C331 C 0.9233 0.7414 0.65669 0.0
C332 C 0.9126 0.76705 0.66096 0.0
C333 C 0.91616 0.78525 0.63457 0.0
C334 C 0.90552 0.80955 0.63771 0.0
C335 C 0.89139 0.81612 0.66747 0.0
C336 C 0.88821 0.79796 0.69414 0.0
C337 C 0.89872 0.77353 0.69084 0.0
C338 C 0.93568 0.74923 0.54102 0.0
C339 C 0.90046 0.70009 0.53248 0.0
O340 O 0.96914 0.67091 0.51001 0.0
O341 O 1.00062 0.67487 0.54753 0.0
O342 O 0.95928 0.67845 0.61843 0.0
O343 O 0.93966 0.65707 0.58296 0.0
O344 O 0.97882 0.74946 0.60262 0.0
O345 O 0.99816 0.72705 0.56161 0.0
O346 O 0.90947 0.72557 0.63817 0.0
O347 O 0.94773 0.74083 0.64865 0.0
O348 O 0.95609 0.73666 0.54698 0.0
O349 O 0.91779 0.74546 0.56386 0.0
O350 O 0.92409 0.69476 0.52114 0.0
O351 O 0.90049 0.7072 0.56615 0.0
H352 H 0.9942 0.63464 0.46293 0.0
H353 H 1.02445 0.63411 0.41455 0.0
H354 H 1.0641 0.6995 0.45779 0.0
H355 H 1.03303 0.70035 0.50613 0.0
H356 H 0.92712 0.78064 0.61146 0.0
H357 H 0.90835 0.8232 0.6169 0.0
H358 H 0.87702 0.80242 0.71714 0.0
H359 H 0.89581 0.75969 0.71138 0.0
Pr360 Pr 0.19751 0.2127 0.8053 0.0
Pr361 Pr 0.17291 0.18967 0.84665 0.0
C362 C 0.22128 0.2443 0.75996 0.0
C363 C 0.21625 0.25642 0.72595 0.0
C364 C 0.22832 0.24674 0.69604 0.0
C365 C 0.22376 0.25771 0.6636 0.0
C366 C 0.20724 0.27879 0.66039 0.0
C367 C 0.1954 0.28876 0.69032 0.0
C368 C 0.19981 0.27764 0.72283 0.0
C369 C 0.23558 0.20096 0.86185 0.0
C370 C 0.14461 0.24857 0.83569 0.0
C371 C 0.1593 0.16327 0.90393 0.0
C372 C 0.13855 0.16561 0.9295 0.0
C373 C 0.11525 0.17768 0.92086 0.0
C374 C 0.0956 0.17976 0.94553 0.0
C375 C 0.09915 0.17007 0.97924 0.0
C376 C 0.12294 0.15893 0.98809 0.0
C377 C 0.14249 0.15671 0.96336 0.0
C378 C 0.13749 0.19719 0.79388 0.0
C379 C 0.19198 0.15059 0.77854 0.0
O380 O 0.22418 0.21958 0.7598 0.0
O381 O 0.20831 0.25243 0.7869 0.0
O382 O 0.21255 0.21041 0.86512 0.0
O383 O 0.2368 0.19467 0.82925 0.0
O384 O 0.14616 0.2288 0.85779 0.0
O385 O 0.16258 0.24682 0.8106 0.0
O386 O 0.15268 0.15639 0.8726 0.0
O387 O 0.17611 0.18176 0.90425 0.0
O388 O 0.16085 0.19122 0.78847 0.0
O389 O 0.13191 0.19948 0.82668 0.0
O390 O 0.19766 0.17422 0.76784 0.0
O391 O 0.184 0.15017 0.81176 0.0
H392 H 0.24135 0.23063 0.69772 0.0
H393 H 0.2335 0.24991 0.64105 0.0
H394 H 0.1825 0.30496 0.68853 0.0
H395 H 0.19029 0.28564 0.74541 0.0
H396 H 0.11213 0.18515 0.89495 0.0
H397 H 0.07743 0.18839 0.93809 0.0
H398 H 0.12604 0.15086 0.01367 0.0
H399 H 0.16054 0.14769 0.9705 0.0
Pr400 Pr 0.67902 0.44941 0.05627 0.0
Pr401 Pr 0.70136 0.42384 0.09786 0.0
C402 C 0.64742 0.47411 0.01189 0.0
C403 C 0.63251 0.4687 0.98003 0.0
C404 C 0.64079 0.47941 0.94851 0.0
C405 C 0.62824 0.47344 0.91752 0.0
C406 C 0.6069 0.45692 0.91748 0.0
C407 C 0.59792 0.44688 0.94909 0.0
C408 C 0.61074 0.45259 0.98019 0.0
C409 C 0.68897 0.48484 0.1161 0.0
C410 C 0.64339 0.39488 0.08271 0.0
C411 C 0.72585 0.41116 0.1568 0.0
C412 C 0.75246 0.40419 0.1656 0.0
C413 C 0.76636 0.38667 0.14536 0.0
C414 C 0.79245 0.38229 0.15217 0.0
C415 C 0.80515 0.39563 0.17896 0.0
C416 C 0.79113 0.41336 0.19887 0.0
C417 C 0.765 0.41747 0.19235 0.0
C418 C 0.70975 0.39602 0.038 0.0
C419 C 0.74162 0.44469 0.03094 0.0
O420 O 0.67248 0.47346 0.00854 0.0
O421 O 0.63942 0.46424 0.04119 0.0
O422 O 0.67934 0.462 0.11643 0.0
O423 O 0.69688 0.48781 0.08433 0.0
O424 O 0.66353 0.39429 0.10449 0.0
O425 O 0.64492 0.41471 0.06045 0.0
O426 O 0.72318 0.43468 0.14621 0.0
O427 O 0.71205 0.39475 0.139 0.0
O428 O 0.68828 0.4068 0.04452 0.0
O429 O 0.72699 0.39977 0.06194 0.0
O430 O 0.71798 0.45022 0.01976 0.0
O431 O 0.74168 0.4367 0.06423 0.0
H432 H 0.65733 0.4921 0.94773 0.0
H433 H 0.63528 0.48169 0.8935 0.0
H434 H 0.58147 0.43407 0.94958 0.0
H435 H 0.60385 0.4441 0.00412 0.0
H436 H 0.75718 0.37654 0.12412 0.0
H437 H 0.80251 0.36814 0.13677 0.0
H438 H 0.80038 0.42418 0.2194 0.0
H439 H 0.75468 0.43145 0.20775 0.0
Pr440 Pr 0.44621 0.9307 0.30422 0.0
Pr441 Pr 0.46923 0.95192 0.34574 0.0
C442 C 0.4203 0.90852 0.25107 0.0
C443 C 0.42782 0.89397 0.21995 0.0
C444 C 0.45219 0.88234 0.21817 0.0
C445 C 0.45823 0.86603 0.19062 0.0
C446 C 0.44016 0.86137 0.16411 0.0
C447 C 0.41633 0.87419 0.1649 0.0
C448 C 0.41016 0.89028 0.19278 0.0
C449 C 0.41047 0.93426 0.36578 0.0
C450 C 0.49847 0.89319 0.32932 0.0
C451 C 0.48593 0.96146 0.41052 0.0
C452 C 0.51137 0.9596 0.42711 0.0
C453 C 0.53371 0.96626 0.4086 0.0
C454 C 0.5576 0.96663 0.42516 0.0
C455 C 0.55974 0.95993 0.46048 0.0
C456 C 0.53755 0.95124 0.47808 0.0
C457 C 0.5135 0.95128 0.46156 0.0
C458 C 0.50341 0.95692 0.29157 0.0
C459 C 0.45277 0.99513 0.28459 0.0
O460 O 0.42627 0.93271 0.25155 0.0
O461 O 0.42484 0.89731 0.28068 0.0
O462 O 0.42287 0.95224 0.35018 0.0
O463 O 0.4206 0.91357 0.35285 0.0
O464 O 0.4985 0.91313 0.35116 0.0
O465 O 0.47933 0.89548 0.30608 0.0
O466 O 0.48347 0.97918 0.38687 0.0
O467 O 0.47515 0.93983 0.40176 0.0
O468 O 0.49015 0.93674 0.29626 0.0
O469 O 0.49933 0.97452 0.31468 0.0
O470 O 0.44567 0.97244 0.27169 0.0
O471 O 0.46114 0.99348 0.31738 0.0
H472 H 0.46622 0.88518 0.23868 0.0
H473 H 0.47681 0.85656 0.19044 0.0
H474 H 0.40202 0.87079 0.14488 0.0
H475 H 0.3913 0.89918 0.19368 0.0
H476 H 0.53258 0.97217 0.38165 0.0
H477 H 0.57403 0.97375 0.4107 0.0
H478 H 0.53855 0.94544 0.50506 0.0
H479 H 0.4965 0.94549 0.47597 0.0
Pr480 Pr 0.20029 0.42164 0.39995 0.0
Pr481 Pr 0.18004 0.44431 0.44369 0.0
C482 C 0.23311 0.41491 0.34646 0.0
C483 C 0.26052 0.40835 0.34528 0.0
C484 C 0.27238 0.39687 0.37409 0.0
C485 C 0.29888 0.39223 0.37395 0.0
C486 C 0.3139 0.39885 0.3449 0.0
C487 C 0.30195 0.41077 0.31634 0.0
C488 C 0.27545 0.41557 0.31663 0.0
C489 C 0.19731 0.38478 0.45113 0.0
C490 C 0.24264 0.43784 0.46765 0.0
C491 C 0.14864 0.4657 0.49141 0.0
C492 C 0.13575 0.45682 0.52312 0.0
C493 C 0.12898 0.47441 0.54896 0.0
C494 C 0.11592 0.46625 0.57873 0.0
C495 C 0.1093 0.4404 0.58285 0.0
C496 C 0.11682 0.42269 0.55738 0.0
C497 C 0.13014 0.43082 0.52784 0.0
C498 C 0.18948 0.48287 0.38716 0.0
C499 C 0.14243 0.39314 0.41191 0.0
O500 O 0.22827 0.43712 0.36017 0.0
O501 O 0.21733 0.39714 0.35713 0.0
O502 O 0.20244 0.40797 0.45745 0.0
O503 O 0.19402 0.37998 0.4183 0.0
O504 O 0.21992 0.44552 0.48008 0.0
O505 O 0.24061 0.42875 0.43515 0.0
O506 O 0.17372 0.46725 0.49292 0.0
O507 O 0.14035 0.45593 0.46223 0.0
O508 O 0.17856 0.46063 0.38434 0.0
O509 O 0.19831 0.48295 0.41882 0.0
O510 O 0.1598 0.3976 0.38681 0.0
O511 O 0.14672 0.40836 0.43947 0.0
H512 H 0.26115 0.39149 0.39668 0.0
H513 H 0.30755 0.38312 0.39635 0.0
H514 H 0.31288 0.41562 0.29327 0.0
H515 H 0.26659 0.42479 0.29443 0.0
H516 H 0.1334 0.4945 0.54583 0.0
H517 H 0.11011 0.48029 0.59787 0.0
H518 H 0.11208 0.40265 0.56014 0.0
H519 H 0.13567 0.41688 0.50843 0.0
Pr520 Pr 0.96688 0.94737 0.15633 0.0
Pr521 Pr 0.93908 0.92621 0.19554 0.0
C522 C 0.97749 0.98064 0.10502 0.0
C523 C 0.98309 1.00812 0.10261 0.0
C524 C 1.00477 1.01897 0.11882 0.0
C525 C 1.00953 1.04512 0.116 0.0
C526 C 0.99259 1.0609 0.09718 0.0
C527 C 0.97039 1.05008 0.08216 0.0
C528 C 0.9658 1.02393 0.08466 0.0
C529 C 0.99759 0.94111 0.21459 0.0
C530 C 0.94707 0.98842 0.22292 0.0
C531 C 0.91465 0.89424 0.23945 0.0
C532 C 0.9202 0.8831 0.27375 0.0
C533 C 0.92655 0.89868 0.3023 0.0
C534 C 0.93064 0.88791 0.33498 0.0
C535 C 0.9288 0.86141 0.33957 0.0
C536 C 0.92344 0.84576 0.3108 0.0
C537 C 0.91904 0.85656 0.27815 0.0
C538 C 0.90382 0.93736 0.13663 0.0
C539 C 0.99301 0.88905 0.16809 0.0
O540 O 0.9541 0.97498 0.11492 0.0
O541 O 0.99498 0.96573 0.11859 0.0
O542 O 0.9741 0.9473 0.2158 0.0
O543 O 1.00658 0.93923 0.18314 0.0
O544 O 0.93615 0.96601 0.23119 0.0
O545 O 0.96044 0.98705 0.19307 0.0
O546 O 0.91043 0.91875 0.2385 0.0
O547 O 0.92871 0.88622 0.21354 0.0
O548 O 0.92691 0.92733 0.13486 0.0
O549 O 0.90161 0.94447 0.16877 0.0
O550 O 0.99248 0.90769 0.14427 0.0
O551 O 0.97469 0.89272 0.19248 0.0
H552 H 1.01826 1.00726 0.13322 0.0
H553 H 1.02706 1.05273 0.12736 0.0
H554 H 0.95685 1.06174 0.06779 0.0
H555 H 0.94877 1.01599 0.07233 0.0
H556 H 0.928 0.9192 0.29957 0.0
H557 H 0.93495 0.90031 0.35678 0.0
H558 H 0.92171 0.82527 0.31382 0.0
H559 H 0.91433 0.84421 0.25643 0.0
Pr560 Pr 0.4368 0.7165 0.90426 0.0
Pr561 Pr 0.46082 0.68773 0.94453 0.0
C562 C 0.40569 0.73091 0.85162 0.0
C563 C 0.37856 0.72769 0.841 0.0
C564 C 0.36236 0.74904 0.84098 0.0
C565 C 0.33702 0.747 0.82931 0.0
C566 C 0.32729 0.72353 0.8172 0.0
C567 C 0.34331 0.70195 0.8179 0.0
C568 C 0.36875 0.70397 0.82984 0.0
C569 C 0.44529 0.74484 0.96453 0.0
C570 C 0.39631 0.69483 0.96901 0.0
C571 C 0.49324 0.66409 0.98914 0.0
C572 C 0.50541 0.66857 0.02347 0.0
C573 C 0.49345 0.65979 0.05401 0.0
C574 C 0.50501 0.66375 0.08638 0.0
C575 C 0.52889 0.6764 0.08896 0.0
C576 C 0.54101 0.68492 0.0584 0.0
C577 C 0.52942 0.68102 0.026 0.0
C578 C 0.45016 0.65406 0.88369 0.0
C579 C 0.49624 0.74255 0.91431 0.0
O580 O 0.42068 0.71097 0.85009 0.0
O581 O 0.40991 0.74495 0.87899 0.0
O582 O 0.4384 0.72175 0.96407 0.0
O583 O 0.44718 0.75454 0.93354 0.0
O584 O 0.41971 0.68742 0.98053 0.0
O585 O 0.39723 0.70443 0.93681 0.0
O586 O 0.46836 0.66007 0.98857 0.0
O587 O 0.50111 0.67814 0.96319 0.0
O588 O 0.45807 0.67778 0.88337 0.0
O589 O 0.44549 0.64907 0.91611 0.0
O590 O 0.47534 0.74322 0.89398 0.0
O591 O 0.49533 0.72294 0.93725 0.0
H592 H 0.3695 0.76755 0.84918 0.0
H593 H 0.32546 0.76419 0.82822 0.0
H594 H 0.33634 0.68369 0.80853 0.0
H595 H 0.38083 0.68712 0.82964 0.0
H596 H 0.47516 0.64977 0.05295 0.0
H597 H 0.4954 0.65657 0.10939 0.0
H598 H 0.55932 0.69491 0.05954 0.0
H599 H 0.53929 0.6878 0.00295 0.0
Pr600 Pr 0.67201 0.18574 0.65324 0.0
Pr601 Pr 0.69768 0.20973 0.69449 0.0
C602 C 0.65815 0.16484 0.59205 0.0
C603 C 0.65986 0.13825 0.58041 0.0
C604 C 0.66109 0.11863 0.60517 0.0
C605 C 0.66156 0.09321 0.59471 0.0
C606 C 0.66091 0.08695 0.55927 0.0
C607 C 0.66094 0.10663 0.53439 0.0
C608 C 0.6604 0.13219 0.54495 0.0
C609 C 0.6433 0.18029 0.71207 0.0
C610 C 0.6926 0.14548 0.71767 0.0
C611 C 0.72477 0.23383 0.7448 0.0
C612 C 0.72139 0.24827 0.77748 0.0
C613 C 0.73666 0.24192 0.80624 0.0
C614 C 0.73617 0.25697 0.8362 0.0
C615 C 0.72052 0.27887 0.83797 0.0
C616 C 0.70416 0.28446 0.80981 0.0
C617 C 0.7046 0.26929 0.77978 0.0
C618 C 0.73179 0.20294 0.63205 0.0
C619 C 0.64418 0.24525 0.66857 0.0
O620 O 0.68017 0.17646 0.59663 0.0
O621 O 0.64189 0.16905 0.61726 0.0
O622 O 0.65422 0.20141 0.70437 0.0
O623 O 0.64701 0.16218 0.68948 0.0
O624 O 0.70135 0.16855 0.72727 0.0
O625 O 0.68113 0.14562 0.68642 0.0
O626 O 0.72 0.20936 0.74542 0.0
O627 O 0.71739 0.2448 0.71602 0.0
O628 O 0.71839 0.18623 0.64889 0.0
O629 O 0.72412 0.22464 0.64494 0.0
O630 O 0.64522 0.22604 0.64541 0.0
O631 O 0.66264 0.24283 0.69277 0.0
H632 H 0.66095 0.12293 0.63267 0.0
H633 H 0.66157 0.07839 0.61434 0.0
H634 H 0.66009 0.10225 0.50689 0.0
H635 H 0.65973 0.14715 0.52554 0.0
H636 H 0.74962 0.22572 0.80515 0.0
H637 H 0.7486 0.25182 0.85771 0.0
H638 H 0.69193 0.3012 0.81032 0.0
H639 H 0.69243 0.27451 0.75802 0.0
H640 H 0.53135 0.27787 0.13622 0.0
H641 H 0.51952 0.26764 0.02571 0.0
H642 H 0.55112 0.30195 0.01417 0.0
H643 H 0.5432 0.34814 0.13554 0.0
H644 H 0.56888 0.34781 0.16716 0.0
H645 H 0.54451 0.32317 0.1677 0.0
H646 H 0.57979 0.28884 0.16348 0.0
H647 H 0.60426 0.3134 0.163 0.0
H648 H 0.60289 0.29016 0.12846 0.0
H649 H 0.58553 0.3424 0.01356 0.0
H650 H 0.61809 0.37612 0.0236 0.0
H651 H 0.61517 0.36037 0.13397 0.0
C652 C 0.53517 0.28261 0.10935 0.0
C653 C 0.52114 0.26841 0.08199 0.0
C654 C 0.5286 0.2767 0.04787 0.0
C655 C 0.54708 0.29688 0.04089 0.0
C656 C 0.56021 0.31006 0.06786 0.0
C657 C 0.55478 0.30275 0.1017 0.0
C658 C 0.57287 0.31938 0.1258 0.0
C659 C 0.55639 0.33558 0.15055 0.0
C660 C 0.59102 0.30191 0.14645 0.0
C661 C 0.58899 0.3372 0.1008 0.0
C662 C 0.58082 0.33159 0.06736 0.0
C663 C 0.59176 0.34612 0.03993 0.0
C664 C 0.61082 0.36594 0.04605 0.0
C665 C 0.62105 0.3725 0.07958 0.0
C666 C 0.60919 0.35697 0.10742 0.0
H667 H 0.61702 0.78273 0.38353 0.0
H668 H 0.62365 0.7673 0.27333 0.0
H669 H 0.58926 0.79873 0.26186 0.0
H670 H 0.54603 0.79533 0.38573 0.0
H671 H 0.54761 0.82165 0.41584 0.0
H672 H 0.57219 0.7973 0.41653 0.0
H673 H 0.60726 0.83161 0.40865 0.0
H674 H 0.58276 0.85605 0.40799 0.0
H675 H 0.60527 0.85335 0.37245 0.0
H676 H 0.54922 0.83348 0.26125 0.0
H677 H 0.51593 0.86637 0.27098 0.0
H678 H 0.53443 0.86645 0.38073 0.0
C679 C 0.61147 0.7857 0.35674 0.0
C680 C 0.62473 0.77069 0.32948 0.0
C681 C 0.61537 0.77711 0.29545 0.0
C682 C 0.59513 0.7955 0.28849 0.0
C683 C 0.58286 0.80956 0.31534 0.0
C684 C 0.59115 0.80513 0.34905 0.0
C685 C 0.57524 0.82397 0.37291 0.0
C686 C 0.55934 0.80866 0.39936 0.0
C687 C 0.59373 0.84233 0.39165 0.0
C688 C 0.55672 0.83936 0.34795 0.0
C689 C 0.56141 0.83022 0.31474 0.0
C690 C 0.54621 0.84044 0.28743 0.0
C691 C 0.52664 0.85972 0.29338 0.0
C692 C 0.5209 0.87087 0.32661 0.0
C693 C 0.53714 0.85975 0.35438 0.0
H694 H 0.11358 0.86401 0.63098 0.0
H695 H 0.11908 0.87845 0.52049 0.0
H696 H 0.08701 0.84429 0.50983 0.0
H697 H 0.10226 0.79394 0.6267 0.0
H698 H 0.07852 0.79286 0.66093 0.0
H699 H 0.10263 0.81775 0.66055 0.0
H700 H 1.06692 0.85176 0.6624 0.0
H701 H 1.04272 0.82696 0.66288 0.0
H702 H 1.04184 0.85136 0.62991 0.0
H703 H 1.05287 0.80305 0.51017 0.0
H704 H 1.02132 0.76858 0.52157 0.0
H705 H 1.03049 0.78104 0.63209 0.0
C706 C 0.10819 0.8603 0.60429 0.0
C707 C 0.12057 0.87564 0.57666 0.0
C708 C 0.11126 0.86854 0.54284 0.0
C709 C 0.09251 0.84844 0.53638 0.0
C710 C 0.08103 0.83411 0.56366 0.0
C711 C 0.08832 0.84028 0.5973 0.0
C712 C 1.07185 0.82264 0.62209 0.0
C713 C 0.08988 0.80581 0.6439 0.0
C714 C 1.05483 0.83916 0.64576 0.0
C715 C 1.05447 0.8055 0.59773 0.0
C716 C 1.06062 0.81231 0.56391 0.0
C717 C 1.04825 0.79844 0.53687 0.0
C718 C 1.0298 0.77816 0.54376 0.0
C719 C 1.0216 0.77045 0.57784 0.0
C720 C 1.03488 0.78531 0.60523 0.0
H721 H 1.02678 0.3603 0.78387 0.0
H722 H 1.01858 0.37305 0.89447 0.0
H723 H 1.05193 0.34041 0.9055 0.0
H724 H 1.04152 0.29016 0.78745 0.0
H725 H 1.06593 0.29068 0.75409 0.0
H726 H 1.04047 0.31415 0.75391 0.0
H727 H 1.07423 0.35018 0.75377 0.0
H728 H 0.09979 0.32682 0.75386 0.0
H729 H 0.09865 0.35102 0.78714 0.0
H730 H 0.08808 0.30168 0.90588 0.0
H731 H 0.12154 0.26901 0.8955 0.0
H732 H 0.11358 0.28078 0.78469 0.0
C733 C 1.03156 0.35625 0.81068 0.0
C734 C 1.01786 0.37053 0.83827 0.0
C735 C 1.02699 0.36356 0.87219 0.0
C736 C 1.04658 0.34443 0.87887 0.0
C737 C 1.05925 0.33104 0.85172 0.0
C738 C 1.05222 0.33708 0.81796 0.0
C739 C 1.07016 0.32054 0.79354 0.0
C740 C 1.05353 0.30284 0.77086 0.0
C741 C 0.08668 0.33819 0.77068 0.0
C742 C 0.08801 0.30423 0.81831 0.0
C743 C 0.08088 0.31055 0.85194 0.0
C744 C 0.0935 0.29742 0.87934 0.0
C745 C 0.11314 0.27826 0.87304 0.0
C746 C 0.12237 0.27101 0.83926 0.0
C747 C 0.1087 0.28503 0.81141 0.0
H748 H 0.63635 0.83421 0.91289 0.0
H749 H 0.58652 0.9004 0.91453 0.0
H750 H 0.54844 0.87191 0.91446 0.0
H751 H 0.59422 0.79168 0.85908 0.0
H752 H 0.60038 0.76301 0.88355 0.0
H753 H 0.62421 0.78816 0.88236 0.0
H754 H 0.62422 0.79007 0.94916 0.0
H755 H 0.60041 0.7649 0.95053 0.0
H756 H 0.59423 0.79487 0.972 0.0
H757 H 0.51205 0.8336 0.91145 0.0
H758 H 0.48556 0.79445 0.91144 0.0
H759 H 0.55513 0.74904 0.91781 0.0
C760 C 0.6175 0.84307 0.91296 0.0
C761 C 0.61611 0.87126 0.91302 0.0
C762 C 0.5899 0.88002 0.91406 0.0
C763 C 0.56746 0.86342 0.91403 0.0
C764 C 0.56958 0.83642 0.91381 0.0
C765 C 0.59423 0.82625 0.91386 0.0
C766 C 0.59078 0.79631 0.91538 0.0
C767 C 0.60316 0.78405 0.88319 0.0
C768 C 0.60317 0.7859 0.94873 0.0
C769 C 0.56075 0.79109 0.91566 0.0
C770 C 0.54905 0.81485 0.91431 0.0
C771 C 0.52172 0.81534 0.91288 0.0
C772 C 0.50632 0.79225 0.91286 0.0
C773 C 0.51656 0.76685 0.91507 0.0
C774 C 0.5451 0.7671 0.91663 0.0
H775 H 0.5296 0.36068 0.61767 0.0
H776 H 0.51285 0.36435 0.72777 0.0
H777 H 0.54636 0.3318 0.73851 0.0
H778 H 0.5411 0.28954 0.61655 0.0
H779 H 0.56663 0.29058 0.58475 0.0
H780 H 0.54206 0.31494 0.58499 0.0
H781 H 0.57711 0.34956 0.5897 0.0
H782 H 0.60178 0.32529 0.58953 0.0
H783 H 0.60032 0.34811 0.62456 0.0
H784 H 0.58672 0.29717 0.73873 0.0
H785 H 0.62115 0.26563 0.72806 0.0
H786 H 0.61238 0.27715 0.61728 0.0
C787 C 0.53269 0.35482 0.6443 0.0
C788 C 0.51685 0.36687 0.6718 0.0
C789 C 0.52315 0.35689 0.7055 0.0
C790 C 0.54288 0.33783 0.71203 0.0
C791 C 0.55767 0.32668 0.68491 0.0
C792 C 0.5524 0.33468 0.65134 0.0
C793 C 0.57057 0.31851 0.62676 0.0
C794 C 0.55412 0.30245 0.60174 0.0
C795 C 0.5885 0.33643 0.60639 0.0
C796 C 0.58694 0.30053 0.65122 0.0
C797 C 0.57922 0.30608 0.68488 0.0
C798 C 0.59209 0.29304 0.71213 0.0
C799 C 0.61235 0.27456 0.70563 0.0
C800 C 0.62113 0.26697 0.67174 0.0
C801 C 0.60725 0.28095 0.64404 0.0
H802 H 1.03586 0.27069 0.46372 0.0
H803 H 1.01095 0.27287 0.35637 0.0
H804 H 1.04249 0.30728 0.34496 0.0
H805 H 1.04505 0.34166 0.47144 0.0
H806 H 1.07291 0.34002 0.49943 0.0
H807 H 1.0494 0.31456 0.49967 0.0
H808 H 0.08522 0.2821 0.48632 0.0
H809 H 0.10882 0.30748 0.48598 0.0
H810 H 0.10557 0.28674 0.44882 0.0
H811 H 0.08142 0.34356 0.3433 0.0
H812 H 0.11543 0.37593 0.35299 0.0
H813 H 0.11558 0.35726 0.46255 0.0
C814 C 1.03692 0.27804 0.4375 0.0
C815 C 1.01957 0.26693 0.41089 0.0
C816 C 1.02287 0.27922 0.37784 0.0
C817 C 1.04134 0.29945 0.37093 0.0
C818 C 1.05775 0.30956 0.39712 0.0
C819 C 1.05536 0.29935 0.43019 0.0
C820 C 0.07467 0.31487 0.45402 0.0
C821 C 1.05962 0.32858 0.48289 0.0
C822 C 0.09475 0.29672 0.46976 0.0
C823 C 0.08838 0.335 0.42965 0.0
C824 C 0.07836 0.33113 0.39666 0.0
C825 C 0.0886 0.34637 0.36944 0.0
C826 C 0.10857 0.36536 0.37533 0.0
C827 C 0.11954 0.37125 0.40867 0.0
C828 C 0.10843 0.35495 0.4363 0.0
H829 H 0.10619 0.77163 0.11923 0.0
H830 H 0.12519 0.77111 0.2288 0.0
H831 H 0.09189 0.80393 0.23912 0.0
H832 H 0.09483 0.84276 0.11525 0.0
H833 H 1.06873 0.841 0.08434 0.0
H834 H 0.09324 0.81657 0.08491 0.0
H835 H 1.05817 0.78222 0.09232 0.0
H836 H 1.03358 0.80656 0.09184 0.0
H837 H 1.0356 0.78466 0.12783 0.0
H838 H 1.05133 0.83857 0.23911 0.0
H839 H 1.0168 0.86997 0.22803 0.0
H840 H 1.02369 0.85548 0.11764 0.0
C841 C 0.10361 0.77818 0.14567 0.0
C842 C 0.11999 0.76686 0.17318 0.0
C843 C 0.11439 0.77788 0.20655 0.0
C844 C 0.09479 0.79713 0.21284 0.0
C845 C 0.07943 0.80751 0.18576 0.0
C846 C 0.08405 0.79858 0.15243 0.0
C847 C 1.06548 0.81418 0.12772 0.0
C848 C 0.08152 0.82953 0.10146 0.0
C849 C 1.04713 0.79581 0.10876 0.0
C850 C 1.04958 0.83286 0.15185 0.0
C851 C 1.05789 0.82818 0.18549 0.0
C852 C 1.0455 0.84199 0.21251 0.0
C853 C 1.02516 0.86038 0.20579 0.0
C854 C 1.01582 0.8671 0.17184 0.0
C855 C 1.02921 0.85233 0.14441 0.0
H856 H 0.24907 0.21887 0.93592 0.0
H857 H 0.28281 0.18031 0.84715 0.0
H858 H 0.32372 0.17641 0.87868 0.0
H859 H 0.30954 0.25389 0.96174 0.0
H860 H 0.30503 0.25057 0.00798 0.0
H861 H 0.27743 0.2508 0.97936 0.0
H862 H 0.26264 0.20762 0.00422 0.0
H863 H 0.29021 0.20727 0.03289 0.0
H864 H 0.28453 0.18091 0.00372 0.0
H865 H 0.36442 0.17605 0.92056 0.0
H866 H 0.39773 0.17928 0.96585 0.0
H867 H 0.3431 0.2179 0.03302 0.0
C868 C 0.2649 0.2095 0.92279 0.0
C869 C 0.26087 0.19991 0.88717 0.0
C870 C 0.28356 0.18807 0.87322 0.0
C871 C 0.30765 0.18567 0.89145 0.0
C872 C 0.31087 0.19508 0.92548 0.0
C873 C 0.29001 0.20686 0.94126 0.0
C874 C 0.29955 0.21524 0.97848 0.0
C875 C 0.29776 0.24436 0.98213 0.0
C876 C 0.28325 0.20199 0.00651 0.0
C877 C 0.32856 0.20639 0.98106 0.0
C878 C 0.33435 0.1948 0.94971 0.0
C879 C 0.35952 0.18512 0.94496 0.0
C880 C 0.37888 0.18708 0.97166 0.0
C881 C 0.37476 0.19868 0.00494 0.0
C882 C 0.34831 0.20856 0.00893 0.0
H883 H 0.70352 0.53957 0.11647 0.0
H884 H 0.67118 0.48279 0.18559 0.0
H885 H 0.66846 0.51547 0.23209 0.0
H886 H 0.74178 0.57455 0.18279 0.0
H887 H 0.73571 0.60585 0.1652 0.0
H888 H 0.73519 0.5783 0.13706 0.0
H889 H 0.68922 0.58992 0.1171 0.0
H890 H 0.68966 0.61751 0.14517 0.0
H891 H 0.66417 0.59425 0.1491 0.0
H892 H 0.66909 0.55754 0.27508 0.0
H893 H 0.67276 0.59924 0.30477 0.0
H894 H 0.70465 0.63201 0.21081 0.0
C895 C 0.69581 0.53369 0.14134 0.0
C896 C 0.6876 0.50703 0.14567 0.0
C897 C 0.67775 0.50194 0.17974 0.0
C898 C 0.67612 0.52093 0.207 0.0
C899 C 0.68425 0.54651 0.20179 0.0
C900 C 0.69392 0.55289 0.16939 0.0
C901 C 0.70124 0.58195 0.1706 0.0
C902 C 0.7302 0.58538 0.16346 0.0
C903 C 0.68513 0.59679 0.14388 0.0
C904 C 0.69451 0.59102 0.20836 0.0
C905 C 0.68462 0.57006 0.22584 0.0
C906 C 0.67692 0.57358 0.26083 0.0
C907 C 0.67915 0.59803 0.27802 0.0
C908 C 0.6892 0.62058 0.26182 0.0
C909 C 0.69695 0.61617 0.22559 0.0
H910 H 0.36202 0.96568 0.37515 0.0
H911 H 0.40325 0.90303 0.42285 0.0
H912 H 0.3691 0.89956 0.46734 0.0
H913 H 0.33434 0.99371 0.45667 0.0
H914 H 0.30314 1.00087 0.4384 0.0
H915 H 0.33126 0.9999 0.41076 0.0
H916 H 0.30892 0.96675 0.37154 0.0
H917 H 0.28073 0.96764 0.39906 0.0
H918 H 0.29657 0.9377 0.3904 0.0
H919 H 0.32861 0.90313 0.51136 0.0
H920 H 0.28801 0.91048 0.54328 0.0
H921 H 0.26675 0.96828 0.46816 0.0
C922 C 0.36429 0.95134 0.39512 0.0
C923 C 0.38728 0.93493 0.39429 0.0
C924 C 0.38729 0.91631 0.4215 0.0
C925 C 0.3674 0.91413 0.44755 0.0
C926 C 0.34556 0.93024 0.44759 0.0
C927 C 0.34366 0.9484 0.42158 0.0
C928 C 0.31712 0.96236 0.42706 0.0
C929 C 0.32173 0.99092 0.43358 0.0
C930 C 0.2998 0.9584 0.3951 0.0
C931 C 0.3046 0.9496 0.45998 0.0
C932 C 0.32181 0.93126 0.47146 0.0
C933 C 0.31534 0.91742 0.50177 0.0
C934 C 0.29159 0.92189 0.52033 0.0
C935 C 0.27243 0.94001 0.50988 0.0
C936 C 0.27982 0.95402 0.47829 0.0
H937 H 0.96736 0.64082 0.68713 0.0
H938 H 0.925 0.61078 0.5989 0.0
H939 H 0.92091 0.56954 0.62858 0.0
H940 H 1.00185 0.57994 0.70849 0.0
H941 H 0.99972 0.58333 0.75503 0.0
H942 H 0.99989 0.61128 0.72767 0.0
H943 H 0.95718 0.62607 0.75516 0.0
H944 H 0.9569 0.59815 0.7826 0.0
H945 H 0.92967 0.60493 0.75495 0.0
H946 H 0.92107 0.52787 0.66865 0.0
H947 H 0.925 0.4938 0.7124 0.0
H948 H 0.96648 0.54589 0.7799 0.0
C949 C 0.9571 0.62575 0.67372 0.0
C950 C 0.94653 0.63092 0.63888 0.0
C951 C 0.93355 0.60914 0.62448 0.0
C952 C 0.93104 0.58488 0.64163 0.0
C953 C 0.94143 0.58056 0.67498 0.0
C954 C 0.95425 0.60054 0.69112 0.0
C955 C 0.96341 0.59008 0.72746 0.0
C956 C 0.99298 0.59125 0.72983 0.0
C957 C 0.95108 0.60576 0.7568 0.0
C958 C 0.95387 0.56154 0.72916 0.0
C959 C 0.94125 0.55673 0.69814 0.0
C960 C 0.93094 0.53205 0.6928 0.0
C961 C 0.93331 0.51223 0.71856 0.0
C962 C 0.94589 0.51546 0.75144 0.0
C963 C 0.95636 0.54139 0.75606 0.0
H964 H 0.79478 0.91794 0.96786 0.0
H965 H 0.74245 0.96242 0.03141 0.0
H966 H 0.77629 0.9663 0.07621 0.0
H967 H 0.8264 0.88382 0.04198 0.0
H968 H 0.85845 0.88403 0.02371 0.0
H969 H 0.83063 0.88455 0.99548 0.0
H970 H 0.84766 0.92541 0.96633 0.0
H971 H 0.87555 0.92502 0.99445 0.0
H972 H 0.85522 0.95287 0.99273 0.0
H973 H 0.81748 0.96614 0.11741 0.0
H974 H 0.85824 0.96164 0.14881 0.0
H975 H 0.88915 0.91649 0.06395 0.0
C976 C 0.79021 0.92869 0.99106 0.0
C977 C 0.76434 0.94007 0.99427 0.0
C978 C 0.76088 0.95345 0.02636 0.0
C979 C 0.78055 0.95578 0.05268 0.0
C980 C 0.8052 0.94463 0.04864 0.0
C981 C 0.81018 0.93118 0.01847 0.0
C982 C 0.83865 0.92086 0.02159 0.0
C983 C 0.83854 0.89157 0.0206 0.0
C984 C 0.85526 0.93166 0.99199 0.0
C985 C 0.84894 0.93061 0.05776 0.0
C986 C 0.82887 0.94432 0.07253 0.0
C987 C 0.83289 0.95533 0.10545 0.0
C988 C 0.85693 0.95254 0.12361 0.0
C989 C 0.87885 0.93867 0.11077 0.0
C990 C 0.87402 0.92749 0.07622 0.0
H991 H 0.43999 0.59862 0.88417 0.0
H992 H 0.46318 0.65751 0.8118 0.0
H993 H 0.46524 0.62495 0.76496 0.0
H994 H 0.48087 0.54684 0.84687 0.0
H995 H 0.45751 0.52183 0.85377 0.0
H996 H 0.45777 0.54948 0.88174 0.0
H997 H 0.40996 0.55776 0.86739 0.0
H998 H 0.40958 0.53013 0.8394 0.0
H999 H 0.40011 0.56084 0.82264 0.0
H1000 H 0.46496 0.58245 0.72197 0.0
H1001 H 0.46248 0.54045 0.69287 0.0
H1002 H 0.43936 0.50597 0.79024 0.0
C1003 C 0.44556 0.60502 0.85851 0.0
C1004 C 0.4514 0.63224 0.85345 0.0
C1005 C 0.4585 0.63795 0.81832 0.0
C1006 C 0.45973 0.619 0.79085 0.0
C1007 C 0.45393 0.59286 0.79686 0.0
C1008 C 0.44696 0.58591 0.83028 0.0
C1009 C 0.44174 0.55638 0.82989 0.0
C1010 C 0.46057 0.54282 0.85456 0.0
C1011 C 0.41368 0.55095 0.84049 0.0
C1012 C 0.44657 0.54761 0.79145 0.0
C1013 C 0.45368 0.56917 0.77289 0.0
C1014 C 0.4593 0.56597 0.73711 0.0
C1015 C 0.45777 0.54131 0.72026 0.0
C1016 C 0.4505 0.51814 0.73753 0.0
C1017 C 0.44485 0.52222 0.77456 0.0
H1018 H 0.75931 0.23425 0.57912 0.0
H1019 H 0.76513 0.1607 0.62957 0.0
H1020 H 0.80546 0.15224 0.59702 0.0
H1021 H 0.78344 0.21138 0.49279 0.0
H1022 H 0.8007 0.24031 0.48256 0.0
H1023 H 0.77282 0.24141 0.51061 0.0
H1024 H 0.79998 0.2634 0.55804 0.0
H1025 H 0.82795 0.26231 0.53014 0.0
H1026 H 0.82929 0.2485 0.57299 0.0
H1027 H 0.85019 0.15239 0.55865 0.0
H1028 H 0.88669 0.1588 0.51806 0.0
H1029 H 0.85256 0.2299 0.48426 0.0
C1030 C 0.76888 0.21622 0.58359 0.0
C1031 C 0.75751 0.19833 0.60867 0.0
C1032 C 0.77195 0.17517 0.61171 0.0
C1033 C 0.79555 0.17014 0.59286 0.0
C1034 C 0.80598 0.18792 0.56893 0.0
C1035 C 0.79263 0.21048 0.56378 0.0
C1036 C 0.80755 0.22587 0.53513 0.0
C1037 C 0.79008 0.23001 0.50339 0.0
C1038 C 0.81672 0.25156 0.54995 0.0
C1039 C 0.83131 0.20888 0.5251 0.0
C1040 C 0.83012 0.18718 0.54559 0.0
C1041 C 0.85046 0.1693 0.54253 0.0
C1042 C 0.87172 0.17318 0.51879 0.0
C1043 C 0.87388 0.19462 0.4959 0.0
C1044 C 0.85252 0.21275 0.49989 0.0
H1045 H 0.17003 0.49776 0.31424 0.0
H1046 H 0.21219 0.52873 0.4021 0.0
H1047 H 0.21697 0.56937 0.37134 0.0
H1048 H 0.20828 0.53212 0.24571 0.0
H1049 H 0.1813 0.5391 0.21771 0.0
H1050 H 0.18034 0.51156 0.24582 0.0
H1051 H 0.13784 0.52761 0.2727 0.0
H1052 H 0.13872 0.55516 0.24459 0.0
H1053 H 0.1365 0.55928 0.291 0.0
H1054 H 0.21781 0.61008 0.33058 0.0
H1055 H 0.21487 0.64367 0.28625 0.0
H1056 H 0.17284 0.59176 0.21905 0.0
C1057 C 0.18033 0.51293 0.32736 0.0
C1058 C 0.19065 0.50819 0.36248 0.0
C1059 C 0.20378 0.53004 0.37641 0.0
C1060 C 0.20671 0.55397 0.35862 0.0
C1061 C 0.19661 0.55787 0.32506 0.0
C1062 C 0.18358 0.53786 0.3093 0.0
C1063 C 0.17477 0.54802 0.2726 0.0
C1064 C 0.18687 0.53171 0.24373 0.0
C1065 C 0.14519 0.54746 0.27005 0.0
C1066 C 0.18489 0.57635 0.27025 0.0
C1067 C 0.19736 0.58132 0.30134 0.0
C1068 C 0.20808 0.60582 0.30636 0.0
C1069 C 0.20629 0.62534 0.28022 0.0
C1070 C 0.19394 0.62202 0.2472 0.0
C1071 C 0.18297 0.59625 0.24288 0.0
H1072 H 0.75031 0.71975 0.43749 0.0
H1073 H 0.78289 0.67844 0.3502 0.0
H1074 H 0.82386 0.67458 0.38149 0.0
H1075 H 0.81158 0.75404 0.46197 0.0
H1076 H 0.80717 0.75156 0.50832 0.0
H1077 H 0.77948 0.75189 0.47985 0.0
H1078 H 0.76388 0.70943 0.50608 0.0
H1079 H 0.79154 0.70898 0.53461 0.0
H1080 H 0.78522 0.68228 0.50627 0.0
H1081 H 0.8647 0.6747 0.42257 0.0
H1082 H 0.89836 0.67825 0.46729 0.0
H1083 H 0.84472 0.71856 0.53408 0.0
C1084 C 0.76593 0.70986 0.42459 0.0
C1085 C 0.76155 0.6995 0.38946 0.0
C1086 C 0.78391 0.68685 0.37588 0.0
C1087 C 0.80803 0.68446 0.39396 0.0
C1088 C 0.81158 0.69459 0.42753 0.0
C1089 C 0.79104 0.70709 0.44301 0.0
C1090 C 0.80086 0.71588 0.47992 0.0
C1091 C 0.79968 0.74509 0.4827 0.0
C1092 C 0.78438 0.70342 0.50843 0.0
C1093 C 0.82969 0.70649 0.4826 0.0
C1094 C 0.83512 0.6943 0.45155 0.0
C1095 C 0.86009 0.68421 0.44677 0.0
C1096 C 0.87965 0.68637 0.47313 0.0
C1097 C 0.87588 0.69847 0.50614 0.0
C1098 C 0.8496 0.70874 0.51024 0.0
H1099 H 0.17635 0.09462 0.78159 0.0
H1100 H 0.2115 0.14936 0.71159 0.0
H1101 H 0.21532 0.11591 0.66707 0.0
H1102 H 0.21541 1.03809 0.75245 0.0
H1103 H 0.18933 1.01532 0.75459 0.0
H1104 H 0.1891 1.04309 0.78236 0.0
H1105 H 0.14439 1.05548 0.75875 0.0
H1106 H 0.14449 1.02775 0.73091 0.0
H1107 H 0.13985 1.05905 0.71255 0.0
H1108 H 0.21624 0.07507 0.62653 0.0
H1109 H 0.21352 1.03418 0.5961 0.0
H1110 H 0.17706 1.0003 0.68653 0.0
C1111 C 0.18504 0.09983 0.75703 0.0
C1112 C 0.19378 0.12635 0.75199 0.0
C1113 C 0.20457 0.13047 0.71816 0.0
C1114 C 0.20687 0.11102 0.69192 0.0
C1115 C 0.19831 0.08578 0.69768 0.0
C1116 C 0.18746 0.08 0.72956 0.0
C1117 C 0.17963 1.05091 0.72794 0.0
C1118 C 0.19422 1.03595 0.75603 0.0
C1119 C 0.15034 1.04812 0.73286 0.0
C1120 C 0.18774 1.04132 0.69065 0.0
C1121 C 0.19854 1.06223 0.67407 0.0
C1122 C 0.20769 1.05898 0.6399 0.0
C1123 C 0.20597 1.03485 0.62232 0.0
C1124 C 0.19504 1.01208 0.63698 0.0
C1125 C 0.18572 1.01614 0.67278 0.0
H1126 H 0.79737 0.42644 0.03283 0.0
H1127 H 0.74354 0.46567 0.96521 0.0
H1128 H 0.77713 0.46863 0.92032 0.0
H1129 H 0.85652 0.46267 0.00431 0.0
H1130 H 0.87802 0.43566 0.00495 0.0
H1131 H 0.85023 0.43632 0.03323 0.0
H1132 H 0.83486 0.39343 0.00806 0.0
H1133 H 0.86258 0.39262 0.97968 0.0
H1134 H 0.83051 0.39016 0.96178 0.0
H1135 H 0.81775 0.4679 0.87897 0.0
H1136 H 0.85852 0.46344 0.84747 0.0
H1137 H 0.89176 0.42427 0.93608 0.0
C1138 C 0.79244 0.43593 0.00877 0.0
C1139 C 0.76614 0.44609 0.00449 0.0
C1140 C 0.76229 0.4577 0.9712 0.0
C1141 C 0.7818 0.4595 0.94474 0.0
C1142 C 0.80682 0.44957 0.94973 0.0
C1143 C 0.81235 0.43789 0.98108 0.0
C1144 C 0.84124 0.42862 0.97859 0.0
C1145 C 0.85747 0.44157 0.00699 0.0
C1146 C 0.84238 0.39947 0.98228 0.0
C1147 C 0.85101 0.43694 0.94147 0.0
C1148 C 0.83034 0.44901 0.92568 0.0
C1149 C 0.83369 0.45842 0.89173 0.0
C1150 C 0.85771 0.45568 0.87352 0.0
C1151 C 0.88024 0.4435 0.88741 0.0
C1152 C 0.8761 0.43396 0.92301 0.0
H1153 H 0.43945 1.01002 0.21134 0.0
H1154 H 0.46722 1.04381 0.30707 0.0
H1155 H 0.46964 0.08574 0.27805 0.0
H1156 H 0.47938 1.04982 0.1519 0.0
H1157 H 0.45489 1.05319 0.11893 0.0
H1158 H 0.45499 1.02552 0.1468 0.0
H1159 H 0.40818 1.03507 0.16507 0.0
H1160 H 0.40795 1.06275 0.13723 0.0
H1161 H 0.40029 1.06596 0.18273 0.0
H1162 H 0.46957 0.12793 0.23582 0.0
H1163 H 0.46662 0.16077 0.1896 0.0
H1164 H 0.43871 0.10306 0.11829 0.0
C1165 C 0.44598 1.02611 0.22663 0.0
C1166 C 0.45299 1.02191 0.26315 0.0
C1167 C 0.46146 1.04483 0.28006 0.0
C1168 C 0.46298 0.06943 0.26328 0.0
C1169 C 0.45605 0.07277 0.22801 0.0
C1170 C 0.44762 1.05147 0.20982 0.0
C1171 C 0.44137 1.06052 0.17192 0.0
C1172 C 0.45867 1.04641 0.14582 0.0
C1173 C 0.41274 1.05578 0.16373 0.0
C1174 C 0.44744 0.08986 0.17146 0.0
C1175 C 0.45597 0.09645 0.20435 0.0
C1176 C 0.46282 0.12232 0.2103 0.0
C1177 C 0.46107 0.1414 0.18323 0.0
C1178 C 0.45238 0.13605 0.14866 0.0
C1179 C 0.44548 0.10911 0.1436 0.0
H1180 H 0.25742 0.45134 0.54071 0.0
H1181 H 0.29153 0.42189 0.44611 0.0
H1182 H 0.33362 0.41871 0.47589 0.0
H1183 H 0.3147 0.48894 0.56953 0.0
H1184 H 0.31087 0.48193 0.61511 0.0
H1185 H 0.2831 0.48203 0.5868 0.0
H1186 H 0.27204 0.43618 0.60574 0.0
H1187 H 0.29978 0.43594 0.6341 0.0
H1188 H 0.296 0.41148 0.6015 0.0
H1189 H 0.37584 0.41821 0.51881 0.0
H1190 H 0.40877 0.42095 0.56544 0.0
H1191 H 0.35073 0.45102 0.63519 0.0
C1192 C 0.27363 0.44427 0.52584 0.0
C1193 C 0.2695 0.43702 0.48942 0.0
C1194 C 0.29253 0.42783 0.47303 0.0
C1195 C 0.3172 0.42589 0.49025 0.0
C1196 C 0.32047 0.43309 0.52542 0.0
C1197 C 0.29905 0.44219 0.54309 0.0
C1198 C 0.30803 0.44858 0.58101 0.0
C1199 C 0.30391 0.47707 0.58858 0.0
C1200 C 0.29306 0.43208 0.60716 0.0
C1201 C 0.33751 0.44191 0.58206 0.0
C1202 C 0.3442 0.43288 0.54947 0.0
C1203 C 0.37017 0.42537 0.54407 0.0
C1204 C 0.38929 0.427 0.57138 0.0
C1205 C 0.38388 0.43624 0.60563 0.0
C1206 C 0.35682 0.4438 0.61015 0.0
H1207 H 0.98607 0.12742 0.32974 0.0
H1208 H 0.91171 0.12211 0.38057 0.0
H1209 H 0.90285 0.08214 0.34835 0.0
H1210 H 0.96296 0.10273 0.24362 0.0
H1211 H 0.99208 0.0854 0.23376 0.0
H1212 H 0.9934 0.11323 0.26134 0.0
H1213 H 1.01529 0.08674 0.3093 0.0
H1214 H 1.014 1.05883 0.28186 0.0
H1215 H 0.99992 1.05799 0.32469 0.0
H1216 H 0.90229 1.03809 0.30994 0.0
H1217 H 0.90831 1.00166 0.26996 0.0
H1218 H 0.98113 1.03396 0.23642 0.0
C1219 C 0.96776 0.11805 0.33436 0.0
C1220 C 0.94977 0.12952 0.35945 0.0
C1221 C 0.9263 0.11525 0.36272 0.0
C1222 C 0.92101 0.09186 0.34403 0.0
C1223 C 0.93888 0.08135 0.32009 0.0
C1224 C 0.96181 0.0944 0.31482 0.0
C1225 C 0.97731 0.07923 0.28642 0.0
C1226 C 0.98172 0.09616 0.25438 0.0
C1227 C 1.00318 0.07018 0.30145 0.0
C1228 C 0.95993 1.05571 0.27667 0.0
C1229 C 0.93792 1.05732 0.29702 0.0
C1230 C 0.9195 1.03746 0.29401 0.0
C1231 C 0.92316 1.01621 0.27058 0.0
C1232 C 0.94497 1.01343 0.24798 0.0
C1233 C 0.96367 1.03438 0.25185 0.0
H1234 H 0.28845 0.68406 0.13811 0.0
H1235 H 0.23061 0.7137 0.06776 0.0
H1236 H 0.2635 0.71539 0.02101 0.0
H1237 H 0.34345 0.72239 0.1036 0.0
H1238 H 0.36716 0.6975 0.10836 0.0
H1239 H 0.33935 0.69829 0.13657 0.0
H1240 H 0.32775 0.65237 0.11849 0.0
H1241 H 0.35552 0.65147 0.09022 0.0
H1242 H 0.32383 0.64482 0.07306 0.0
H1243 H 0.30546 0.71385 0.97808 0.0
H1244 H 0.34732 0.71014 0.9481 0.0
H1245 H 0.38184 0.68175 0.04303 0.0
C1246 C 0.28239 0.69097 0.11291 0.0
C1247 C 0.25537 0.69876 0.1083 0.0
C1248 C 0.25003 0.70752 0.07382 0.0
C1249 C 0.26913 0.70854 0.04643 0.0
C1250 C 0.29505 0.70084 0.05193 0.0
C1251 C 0.3017 0.69221 0.0847 0.0
C1252 C 0.33116 0.68521 0.0836 0.0
C1253 C 0.34618 0.70182 0.1096 0.0
C1254 C 0.33479 0.65678 0.09186 0.0
C1255 C 0.34017 0.69107 0.0455 0.0
C1256 C 0.31873 0.70008 0.0278 0.0
C1257 C 0.3219 0.70677 0.99248 0.0
C1258 C 0.34649 0.70449 0.97514 0.0
C1259 C 0.36963 0.69545 0.99145 0.0
C1260 C 0.36559 0.68865 0.0281 0.0
H1261 H 0.65934 0.09968 0.73083 0.0
H1262 H 0.73193 0.13246 0.76434 0.0
H1263 H 0.73846 0.09573 0.80374 0.0
H1264 H 0.6412 0.07617 0.81928 0.0
H1265 H 0.62535 1.04765 0.80395 0.0
H1266 H 0.62683 0.07557 0.77662 0.0
H1267 H 0.64802 1.049 0.72812 0.0
H1268 H 0.64667 1.021 0.75532 0.0
H1269 H 0.67706 1.03133 0.7373 0.0
H1270 H 0.73841 1.05082 0.84118 0.0
H1271 H 0.72945 1.01068 0.87308 0.0
H1272 H 0.65447 1.00661 0.82373 0.0
C1273 C 0.6768 0.09937 0.74621 0.0
C1274 C 0.69532 0.12045 0.74245 0.0
C1275 C 0.71723 0.11776 0.76487 0.0
C1276 C 0.72118 0.09635 0.78796 0.0
C1277 C 0.70288 0.07636 0.79089 0.0
C1278 C 0.68072 0.07804 0.77084 0.0
C1279 C 0.66328 1.05464 0.78068 0.0
C1280 C 0.63763 1.06406 0.79602 0.0
C1281 C 0.65845 1.03801 0.74843 0.0
C1282 C 0.67896 1.03934 0.80866 0.0
C1283 C 0.70204 1.05218 0.81369 0.0
C1284 C 0.7201 1.04131 0.83709 0.0
C1285 C 0.71479 1.01781 0.85555 0.0
C1286 C 0.69108 1.00388 0.85258 0.0
C1287 C 0.67297 1.01571 0.82803 0.0
H1288 H 0.56061 0.20912 0.884 0.0
H1289 H 0.55022 0.12696 0.89071 0.0
H1290 H 0.57725 0.12126 0.83885 0.0
H1291 H 0.55857 0.2135 0.79149 0.0
H1292 H 0.58338 0.23753 0.78795 0.0
H1293 H 0.56385 0.23571 0.82662 0.0
H1294 H 0.60507 0.23168 0.86435 0.0
H1295 H 0.62474 0.23359 0.82578 0.0
H1296 H 0.62808 0.20685 0.85487 0.0
H1297 H 0.60271 0.12381 0.78629 0.0
H1298 H 0.62765 0.13428 0.7343 0.0
H1299 H 0.62424 0.21493 0.76043 0.0
C1300 C 0.56427 0.18998 0.87462 0.0
C1301 C 0.55305 0.16848 0.891 0.0
C1302 C 0.55815 0.1437 0.87806 0.0
C1303 C 0.57363 0.14024 0.84883 0.0
C1304 C 0.58404 0.16174 0.83299 0.0
C1305 C 0.57982 0.18613 0.8453 0.0
C1306 C 0.59321 0.2058 0.82253 0.0
C1307 C 0.57358 0.22422 0.80618 0.0
C1308 C 0.61402 0.22034 0.84312 0.0
C1309 C 0.6052 0.18852 0.79533 0.0
C1310 C 0.59956 0.16322 0.8022 0.0
C1311 C 0.60748 0.1435 0.78067 0.0
C1312 C 0.6216 0.14971 0.75113 0.0
C1313 C 0.62792 0.17541 0.74343 0.0
C1314 C 0.61974 0.19514 0.76588 0.0
H1315 H 0.73842 0.80453 0.1242 0.0
H1316 H 0.65768 0.78311 0.13415 0.0
H1317 H 0.64724 0.80921 0.08272 0.0
H1318 H 0.72889 0.86808 0.09839 0.0
H1319 H 0.75505 0.86864 0.0675 0.0
H1320 H 0.75646 0.84758 0.10439 0.0
H1321 H 0.76284 0.80882 0.06334 0.0
H1322 H 0.76166 0.82983 0.02632 0.0
H1323 H 0.73986 0.80305 0.02901 0.0
H1324 H 0.64512 0.83985 0.03318 0.0
H1325 H 0.65192 0.87099 0.98592 0.0
H1326 H 0.73438 0.87013 0.00592 0.0
C1327 C 0.71861 0.80486 0.11521 0.0
C1328 C 0.69884 0.79188 0.13334 0.0
C1329 C 0.67309 0.79326 0.12104 0.0
C1330 C 0.66698 0.80787 0.09173 0.0
C1331 C 0.6869 0.8207 0.07483 0.0
C1332 C 0.71223 0.81912 0.08583 0.0
C1333 C 0.72995 0.83505 0.06329 0.0
C1334 C 0.74337 0.85608 0.08468 0.0
C1335 C 0.74974 0.81817 0.04436 0.0
C1336 C 0.71053 0.84617 0.03822 0.0
C1337 C 0.6858 0.83771 0.04542 0.0
C1338 C 0.66442 0.84636 0.02697 0.0
C1339 C 0.66846 0.86409 1.00033 0.0
C1340 C 0.69369 0.87265 0.99227 0.0
C1341 C 0.71496 0.86351 0.01134 0.0
H1342 H 1.04767 0.955 0.22849 0.0
H1343 H 0.9804 0.91747 0.27203 0.0
H1344 H 1.00333 0.91166 0.32766 0.0
H1345 H 0.09771 0.91834 0.27663 0.0
H1346 H 0.11763 0.94615 0.28336 0.0
H1347 H 0.09759 0.94382 0.24516 0.0
H1348 H 0.07612 0.98697 0.26079 0.0
H1349 H 0.09597 0.9894 0.29904 0.0
H1350 H 1.06132 0.99089 0.30288 0.0
H1351 H 1.03164 0.91278 0.37924 0.0
H1352 H 1.06281 0.92324 0.42556 0.0
H1353 H 0.11128 0.96223 0.35034 0.0
C1354 C 1.03816 0.94505 0.24959 0.0
C1355 C 1.01251 0.93643 0.24624 0.0
C1356 C 1.00015 0.92413 0.2744 0.0
C1357 C 1.01304 0.92061 0.30593 0.0
C1358 C 1.03816 0.92979 0.30887 0.0
C1359 C 1.0506 0.94192 0.28163 0.0
C1360 C 0.0765 0.95248 0.29306 0.0
C1361 C 0.09867 0.93941 0.27338 0.0
C1362 C 0.07752 0.98166 0.28869 0.0
C1363 C 0.07632 0.94492 0.33107 0.0
C1364 C 1.05425 0.93138 0.33937 0.0
C1365 C 1.04916 0.9231 0.37306 0.0
C1366 C 1.06699 0.92906 0.39914 0.0
C1367 C 0.08945 0.94343 0.39144 0.0
C1368 C 0.09424 0.95123 0.35689 0.0
H1369 H 0.96144 0.2514 0.52221 0.0
H1370 H 0.91041 0.29201 0.45212 0.0
H1371 H 0.90691 0.32719 0.49438 0.0
H1372 H 0.92664 0.26559 0.59748 0.0
H1373 H 0.95419 0.26915 0.62573 0.0
H1374 H 0.95625 0.24888 0.58806 0.0
H1375 H 0.99594 0.27423 0.56632 0.0
H1376 H 0.99413 0.29465 0.60398 0.0
H1377 H 0.99372 0.30834 0.561 0.0
H1378 H 0.90598 0.35609 0.54475 0.0
H1379 H 0.90533 0.37633 0.60249 0.0
H1380 H 0.9549 0.31643 0.64259 0.0
C1381 C 0.95009 0.26803 0.51558 0.0
C1382 C 0.9364 0.26924 0.48388 0.0
C1383 C 0.92109 0.29084 0.47628 0.0
C1384 C 0.91911 0.31096 0.50001 0.0
C1385 C 0.9324 0.30908 0.53134 0.0
C1386 C 0.9475 0.28816 0.53938 0.0
C1387 C 0.95747 0.28985 0.57643 0.0
C1388 C 0.94806 0.26701 0.5982 0.0
C1389 C 0.98708 0.2919 0.57695 0.0
C1390 C 0.94497 0.3146 0.58814 0.0
C1391 C 0.93105 0.32554 0.56138 0.0
C1392 C 0.91689 0.34782 0.56592 0.0
C1393 C 0.91648 0.35906 0.59888 0.0
C1394 C 0.92986 0.34785 0.62711 0.0
C1395 C 0.94472 0.32558 0.62142 0.0
H1396 H 0.57627 0.93587 0.1108 0.0
H1397 H 0.6291 0.9956 0.14374 0.0
H1398 H 0.6076 0.99725 0.20079 0.0
H1399 H 0.52043 0.96123 0.15061 0.0
H1400 H 0.50719 0.93088 0.1637 0.0
H1401 H 0.5279 0.93279 0.12621 0.0
H1402 H 0.55814 0.89879 0.15322 0.0
H1403 H 0.53746 0.89684 0.19083 0.0
H1404 H 0.5713 0.90397 0.19605 0.0
H1405 H 0.57855 0.99552 0.25161 0.0
H1406 H 0.54413 0.98934 0.29496 0.0
H1407 H 0.51021 0.9298 0.23098 0.0
C1408 C 0.5834 0.94913 0.13016 0.0
C1409 C 0.6045 0.96549 0.12291 0.0
C1410 C 0.61329 0.98259 0.1489 0.0
C1411 C 0.60114 0.98374 0.18134 0.0
C1412 C 0.58033 0.96754 0.18755 0.0
C1413 C 0.57158 0.9504 0.16289 0.0
C1414 C 0.5482 0.93579 0.17607 0.0
C1415 C 0.52453 0.94047 0.15276 0.0
C1416 C 0.55414 0.90715 0.17923 0.0
C1417 C 0.54483 0.94794 0.21156 0.0
C1418 C 0.56368 0.96614 0.21757 0.0
C1419 C 0.5639 0.98107 0.24748 0.0
C1420 C 0.54422 0.97748 0.27188 0.0
C1421 C 0.52471 0.95897 0.26636 0.0
C1422 C 0.52519 0.94378 0.23602 0.0
H1423 H 0.4243 0.31101 0.8564 0.0
H1424 H 0.46201 0.38 0.89323 0.0
H1425 H 0.47069 0.35912 0.9495 0.0
H1426 H 0.39354 0.29464 0.93483 0.0
H1427 H 0.39825 0.26071 0.93037 0.0
H1428 H 0.39619 0.28049 0.89224 0.0
H1429 H 0.44059 0.26366 0.87127 0.0
H1430 H 0.44271 0.24373 0.90933 0.0
H1431 H 0.4682 0.26608 0.89963 0.0
H1432 H 0.47304 0.33196 0.00244 0.0
H1433 H 0.46956 0.29975 0.04893 0.0
H1434 H 0.43162 0.24775 0.97732 0.0
C1435 C 0.43479 0.32157 0.87607 0.0
C1436 C 0.44242 0.34716 0.8705 0.0
C1437 C 0.45568 0.3605 0.89713 0.0
C1438 C 0.46087 0.34875 0.92905 0.0
C1439 C 0.45283 0.32363 0.9338 0.0
C1440 C 0.44021 0.31011 0.90803 0.0
C1441 C 0.43293 0.28357 0.92028 0.0
C1442 C 0.40348 0.27964 0.91938 0.0
C1443 C 0.44695 0.26305 0.89885 0.0
C1444 C 0.44296 0.28451 0.95721 0.0
C1445 C 0.45447 0.30776 0.96437 0.0
C1446 C 0.46426 0.31361 0.9971 0.0
C1447 C 0.46209 0.29526 0.02333 0.0
C1448 C 0.4503 0.27137 0.01658 0.0
C1449 C 0.44087 0.26583 0.98302 0.0
H1450 H 0.14164 0.18105 0.72638 0.0
H1451 H 0.08922 0.21711 0.79934 0.0
H1452 H 1.05581 0.21951 0.75359 0.0
H1453 H 0.12156 0.21679 0.6498 0.0
H1454 H 0.12455 0.1897 0.62117 0.0
H1455 H 0.14479 0.19214 0.65913 0.0
H1456 H 0.12888 0.14778 0.67986 0.0
H1457 H 0.10857 0.14519 0.64204 0.0
H1458 H 0.09474 0.14211 0.68483 0.0
H1459 H 1.02775 0.21673 0.7006 0.0
H1460 H 1.00644 0.20788 0.64441 0.0
H1461 H 0.07702 0.17324 0.60613 0.0
C1462 C 0.12318 0.18958 0.73259 0.0
C1463 C 0.11788 0.19883 0.7663 0.0
C1464 C 0.09351 0.20975 0.77365 0.0
C1465 C 1.07449 0.2113 0.74784 0.0
C1466 C 0.08018 0.20176 0.71491 0.0
C1467 C 0.1039 0.19108 0.70721 0.0
C1468 C 0.10473 0.18137 0.67016 0.0
C1469 C 0.12512 0.19587 0.64881 0.0
C1470 C 0.1095 0.15239 0.66919 0.0
C1471 C 0.07763 0.1879 0.65839 0.0
C1472 C 1.06389 0.1999 0.68447 0.0
C1473 C 1.03835 0.20748 0.6799 0.0
C1474 C 1.02645 0.20247 0.64786 0.0
C1475 C 1.04006 0.18987 0.62092 0.0
C1476 C 1.06605 0.18269 0.62634 0.0
H1477 H 0.19973 0.84189 0.52237 0.0
H1478 H 0.17914 0.91474 0.47687 0.0
H1479 H 0.17198 0.89399 0.42024 0.0
H1480 H 0.23734 0.82233 0.45196 0.0
H1481 H 0.22888 0.78899 0.45418 0.0
H1482 H 0.22775 0.80835 0.4928 0.0
H1483 H 0.17989 0.79566 0.5023 0.0
H1484 H 0.18087 0.77617 0.46367 0.0
H1485 H 0.1568 0.80077 0.46795 0.0
H1486 H 0.17062 0.8668 0.36799 0.0
H1487 H 0.17854 0.83524 0.32163 0.0
H1488 H 0.20317 0.78012 0.39893 0.0
C1489 C 0.19313 0.8532 0.50057 0.0
C1490 C 0.18951 0.87975 0.50387 0.0
C1491 C 0.18168 0.89428 0.47476 0.0
C1492 C 0.17748 0.88267 0.44256 0.0
C1493 C 0.18167 0.85654 0.43977 0.0
C1494 C 0.18956 0.84196 0.46781 0.0
C1495 C 0.19576 0.81492 0.45653 0.0
C1496 C 0.22411 0.80827 0.46433 0.0
C1497 C 0.17722 0.79575 0.47363 0.0
C1498 C 0.19088 0.81692 0.41776 0.0
C1499 C 0.18213 0.84093 0.40888 0.0
C1500 C 0.17718 0.84781 0.37457 0.0
C1501 C 0.18166 0.82976 0.34845 0.0
C1502 C 0.19137 0.80528 0.35677 0.0
C1503 C 0.19573 0.79872 0.39192 0.0
H1504 H 1.06723 0.70533 0.39256 0.0
H1505 H 1.06974 0.62332 0.40849 0.0
H1506 H 0.09693 0.61864 0.35654 0.0
H1507 H 1.06232 0.70461 0.30277 0.0
H1508 H 0.0833 0.73139 0.29437 0.0
H1509 H 1.0663 0.72926 0.33507 0.0
H1510 H 0.1095 0.73266 0.3687 0.0
H1511 H 0.12665 0.73512 0.32804 0.0
H1512 H 0.13527 0.71072 0.3589 0.0
H1513 H 0.11782 0.62157 0.29983 0.0
H1514 H 0.13636 0.63252 0.24308 0.0
H1515 H 0.12433 0.71307 0.26414 0.0
C1516 C 1.07411 0.68651 0.38557 0.0
C1517 C 1.0661 0.66463 0.40426 0.0
C1518 C 0.07521 0.64027 0.39414 0.0
C1519 C 0.09082 0.63742 0.36484 0.0
C1520 C 0.09756 0.65917 0.34625 0.0
C1521 C 0.09002 0.68333 0.35641 0.0
C1522 C 0.09927 0.70328 0.33058 0.0
C1523 C 0.07643 0.71799 0.31477 0.0
C1524 C 0.11884 0.72152 0.34757 0.0
C1525 C 0.11219 0.68633 0.30375 0.0
C1526 C 0.11093 0.66098 0.31357 0.0
C1527 C 0.1195 0.64137 0.29216 0.0
C1528 C 0.12985 0.6478 0.25988 0.0
C1529 C 0.132 0.67363 0.2495 0.0
C1530 C 0.1232 0.6932 0.27177 0.0
H1531 H 0.20795 0.32961 0.64351 0.0
H1532 H 0.19681 0.25415 0.59935 0.0
H1533 H 0.1919 0.27323 0.54101 0.0
H1534 H 0.16213 0.36285 0.58666 0.0
H1535 H 0.18199 0.39103 0.58366 0.0
H1536 H 0.18304 0.37156 0.62223 0.0
H1537 H 0.23263 0.36687 0.61521 0.0
H1538 H 0.23169 0.38616 0.57654 0.0
H1539 H 0.24554 0.35465 0.57499 0.0
H1540 H 0.18957 0.30025 0.48744 0.0
H1541 H 0.1903 0.33359 0.442 0.0
H1542 H 0.20354 0.39129 0.52106 0.0
C1543 C 0.20404 0.31717 0.62163 0.0
C1544 C 0.20274 0.29042 0.62585 0.0
C1545 C 0.19808 0.27468 0.59655 0.0
C1546 C 0.19514 0.28533 0.5634 0.0
C1547 C 0.19691 0.31174 0.56004 0.0
C1548 C 0.20118 0.32748 0.58833 0.0
C1549 C 0.20321 0.35517 0.5774 0.0
C1550 C 0.18129 0.37108 0.59344 0.0
C1551 C 0.22985 0.36636 0.58658 0.0
C1552 C 0.19985 0.35245 0.53851 0.0
C1553 C 0.196 0.32728 0.52905 0.0
C1554 C 0.19256 0.32003 0.4945 0.0
C1555 C 0.19308 0.33905 0.46891 0.0
C1556 C 0.1972 0.36489 0.47808 0.0
C1557 C 0.20054 0.37163 0.51333 0.0
H1558 H 0.49468 0.45226 0.77561 0.0
H1559 H 0.55307 0.42788 0.7018 0.0
H1560 H 0.58526 0.4262 0.74896 0.0
H1561 H 0.53469 0.49288 0.82522 0.0
H1562 H 0.52052 0.48479 0.86657 0.0
H1563 H 0.50155 0.48245 0.8275 0.0
H1564 H 0.49148 0.43505 0.8413 0.0
H1565 H 0.51045 0.43723 0.88048 0.0
H1566 H 0.51768 0.4131 0.84852 0.0
H1567 H 0.61163 0.42999 0.80239 0.0
H1568 H 0.63091 0.43873 0.85989 0.0
H1569 H 0.55562 0.45981 0.89997 0.0
C1570 C 0.51421 0.44641 0.76951 0.0
C1571 C 0.52152 0.44037 0.73512 0.0
C1572 C 0.54718 0.43276 0.72799 0.0
C1573 C 0.56555 0.43163 0.7546 0.0
C1574 C 0.55784 0.43795 0.78817 0.0
C1575 C 0.5328 0.44508 0.79583 0.0
C1576 C 0.52991 0.45176 0.83397 0.0
C1577 C 0.52116 0.47962 0.83857 0.0
C1578 C 0.51128 0.43318 0.85213 0.0
C1579 C 0.55743 0.44794 0.84628 0.0
C1580 C 0.57313 0.43978 0.81942 0.0
C1581 C 0.59954 0.43612 0.82376 0.0
C1582 C 0.61032 0.44122 0.85637 0.0
C1583 C 0.59469 0.44984 0.88416 0.0
C1584 C 0.56786 0.45286 0.87919 0.0
H1585 H 0.43977 0.79657 0.9752 0.0
H1586 H 0.45705 0.72529 0.02752 0.0
H1587 H 0.46073 0.74814 0.08339 0.0
H1588 H 0.4812 0.838 0.02878 0.0
H1589 H 0.45826 0.86382 0.02928 0.0
H1590 H 0.45951 0.84239 0.99264 0.0
H1591 H 0.41084 0.83233 1.00036 0.0
H1592 H 0.40945 0.85367 0.03702 0.0
H1593 H 0.39929 0.82093 0.04176 0.0
H1594 H 0.46141 0.778 0.13353 0.0
H1595 H 0.45576 0.81277 0.17616 0.0
H1596 H 0.43524 0.86467 0.09285 0.0
C1597 C 0.44465 0.78593 0.99841 0.0
C1598 C 0.44826 0.75924 0.99719 0.0
C1599 C 0.45419 0.74577 0.02804 0.0
C1600 C 0.45645 0.75858 0.05983 0.0
C1601 C 0.45245 0.78485 0.06039 0.0
C1602 C 0.44647 0.7984 0.03063 0.0
C1603 C 0.44127 0.82622 0.03906 0.0
C1604 C 0.46125 0.84364 0.02139 0.0
C1605 C 0.41356 0.83372 0.02895 0.0
C1606 C 0.44481 0.82601 0.07822 0.0
C1607 C 0.45177 0.80203 0.08979 0.0
C1608 C 0.45606 0.7969 0.12482 0.0
C1609 C 0.45291 0.81676 0.1488 0.0
C1610 C 0.44517 0.84135 0.13774 0.0
C1611 C 0.44115 0.84602 0.10195 0.0
H1612 H 0.11535 0.45115 0.6522 0.0
H1613 H 1.06502 0.41278 0.57866 0.0
H1614 H 1.03343 0.40482 0.62543 0.0
H1615 H 0.09843 0.40899 0.7288 0.0
H1616 H 0.10039 0.43546 0.75864 0.0
H1617 H 0.12072 0.43477 0.7206 0.0
H1618 H 0.10313 0.47907 0.70233 0.0
H1619 H 0.08258 0.47975 0.73998 0.0
H1620 H 1.0688 0.48337 0.69724 0.0
H1621 H 1.00433 0.40852 0.67601 0.0
H1622 H 0.98111 0.41914 0.7301 0.0
H1623 H 1.05107 0.45159 0.77346 0.0
C1624 C 0.09794 0.44051 0.64629 0.0
C1625 C 0.09255 0.43247 0.61199 0.0
C1626 C 1.06959 0.41877 0.60492 0.0
C1627 C 1.05154 0.41422 0.63127 0.0
C1628 C 1.05705 0.42303 0.66462 0.0
C1629 C 0.07992 0.43538 0.67248 0.0
C1630 C 0.08032 0.4442 0.71003 0.0
C1631 C 0.10121 0.43 0.73074 0.0
C1632 C 0.08391 0.47332 0.71251 0.0
C1633 C 1.05352 0.43617 0.72143 0.0
C1634 C 1.04051 0.42389 0.69478 0.0
C1635 C 1.01453 0.41736 0.69744 0.0
C1636 C 1.00149 0.42357 0.7281 0.0
C1637 C 1.01454 0.43569 0.75585 0.0
C1638 C 1.04096 0.44171 0.75279 0.0
H1639 H 0.95783 0.82059 0.361 0.0
H1640 H 0.90249 0.87682 0.39682 0.0
H1641 H 0.90112 0.85594 0.45426 0.0
H1642 H 0.93062 0.76775 0.40119 0.0
H1643 H 0.96055 0.75273 0.41341 0.0
H1644 H 0.95953 0.77355 0.37628 0.0
H1645 H 0.99605 0.80129 0.40285 0.0
H1646 H 0.99729 0.78041 0.44005 0.0
H1647 H 0.99226 0.81415 0.44603 0.0
H1648 H 0.90112 0.82623 0.50405 0.0
H1649 H 0.90522 0.79103 0.54608 0.0
H1650 H 0.9625 0.75489 0.48015 0.0
C1651 C 0.9458 0.82867 0.38122 0.0
C1652 C 0.93032 0.85031 0.37474 0.0
C1653 C 0.91472 0.86044 0.40157 0.0
C1654 C 0.91378 0.84869 0.43417 0.0
C1655 C 0.9289 0.82712 0.4396 0.0
C1656 C 0.94497 0.81741 0.41416 0.0
C1657 C 0.95841 0.79339 0.42648 0.0
C1658 C 0.95187 0.77051 0.40294 0.0
C1659 C 0.98774 0.79757 0.429 0.0
C1660 C 0.94646 0.79052 0.46219 0.0
C1661 C 0.92959 0.8103 0.4692 0.0
C1662 C 0.91465 0.81092 0.49924 0.0
C1663 C 0.91699 0.79077 0.5228 0.0
C1664 C 0.9343 0.77046 0.51628 0.0
C1665 C 0.94945 0.77047 0.48584 0.0
H1666 H 0.58001 0.67085 0.10689 0.0
H1667 H 0.50519 0.6918 0.14895 0.0
H1668 H 0.52502 0.69845 0.20661 0.0
H1669 H 0.60286 0.63691 0.18153 0.0
H1670 H 0.63567 0.64806 0.17757 0.0
H1671 H 0.61573 0.64509 0.13943 0.0
H1672 H 0.62418 0.69262 0.12442 0.0
H1673 H 0.64421 0.69568 0.1625 0.0
H1674 H 0.61722 0.71687 0.15632 0.0
H1675 H 0.55274 0.70293 0.25945 0.0
H1676 H 0.58669 0.70457 0.30446 0.0
H1677 H 0.64359 0.68088 0.22818 0.0
C1678 C 0.56784 0.67705 0.12815 0.0
C1679 C 0.54101 0.68074 0.12344 0.0
C1680 C 0.5257 0.68854 0.15206 0.0
C1681 C 0.53681 0.6925 0.18484 0.0
C1682 C 0.56325 0.6886 0.1886 0.0
C1683 C 0.5786 0.68106 0.16108 0.0
C1684 C 0.60651 0.67807 0.17224 0.0
C1685 C 0.61572 0.65039 0.16741 0.0
C1686 C 0.62406 0.69694 0.15271 0.0
C1687 C 0.60437 0.68498 0.21036 0.0
C1688 C 0.57926 0.69107 0.2192 0.0
C1689 C 0.57246 0.69815 0.25288 0.0
C1690 C 0.59185 0.69898 0.27825 0.0
C1691 C 0.61767 0.69269 0.2698 0.0
C1692 C 0.62397 0.68568 0.23538 0.0
H1693 H 0.67535 0.37424 0.9909 0.0
H1694 H 0.75677 0.38101 0.01651 0.0
H1695 H 0.76779 0.3529 0.96769 0.0
H1696 H 0.6772 0.30802 0.96731 0.0
H1697 H 0.65484 0.3108 0.93161 0.0
H1698 H 0.65287 0.33258 0.96777 0.0
H1699 H 0.65696 0.37089 0.92567 0.0
H1700 H 0.6589 0.34924 0.88933 0.0
H1701 H 0.68403 0.37253 0.89629 0.0
H1702 H 0.77059 0.32356 0.91827 0.0
H1703 H 0.76511 0.29419 0.86901 0.0
H1704 H 0.68198 0.30465 0.8739 0.0
C1705 C 0.69545 0.36987 0.98596 0.0
C1706 C 0.71521 0.37967 0.00761 0.0
C1707 C 0.7413 0.37352 1.00049 0.0
C1708 C 0.7478 0.35763 0.97273 0.0
C1709 C 0.72801 0.34794 0.95218 0.0
C1710 C 0.70237 0.35376 0.9582 0.0
C1711 C 0.68507 0.34007 0.93223 0.0
C1712 C 0.66639 0.32178 0.95085 0.0
C1713 C 0.67037 0.35934 0.90953 0.0
C1714 C 0.70507 0.32555 0.9111 0.0
C1715 C 0.72966 0.33056 0.92318 0.0
C1716 C 0.75144 0.31939 0.90854 0.0
C1717 C 0.74808 0.30253 0.88073 0.0
C1718 C 0.72312 0.29681 0.86779 0.0
C1719 C 0.70132 0.30868 0.88313 0.0
H1720 H 0.4006 0.28866 0.29616 0.0
H1721 H 0.44251 0.343 0.23281 0.0
H1722 H 0.42715 0.37798 0.27024 0.0
H1723 H 0.34802 0.31744 0.29917 0.0
H1724 H 0.33817 0.31111 0.3433 0.0
H1725 H 0.36033 0.29011 0.32233 0.0
H1726 H 0.39363 0.29697 0.37166 0.0
H1727 H 0.37121 0.31796 0.39333 0.0
H1728 H 0.40341 0.32886 0.38343 0.0
H1729 H 0.39667 0.40649 0.29941 0.0
H1730 H 0.35535 0.42525 0.31824 0.0
H1731 H 0.33306 0.35281 0.36338 0.0
C1732 C 0.40791 0.30771 0.29153 0.0
C1733 C 0.42262 0.31315 0.26159 0.0
C1734 C 0.43106 0.33845 0.25554 0.0
C1735 C 0.42262 0.35842 0.27692 0.0
C1736 C 0.40616 0.35269 0.30457 0.0
C1737 C 0.39943 0.32776 0.3125 0.0
C1738 C 0.37746 0.32678 0.3384 0.0
C1739 C 0.35468 0.31045 0.32493 0.0
C1740 C 0.38701 0.31708 0.37381 0.0
C1741 C 0.37069 0.35479 0.34026 0.0
C1742 C 0.38817 0.3696 0.32192 0.0
C1743 C 0.38339 0.39528 0.31487 0.0
C1744 C 0.35975 0.40573 0.32534 0.0
C1745 C 0.34109 0.39041 0.34228 0.0
C1746 C 0.34729 0.36512 0.35138 0.0
H1747 H 0.65919 0.55925 0.48447 0.0
H1748 H 0.64433 0.54083 0.37645 0.0
H1749 H 0.62464 0.50007 0.39439 0.0
H1750 H 0.66702 0.48863 0.51643 0.0
H1751 H 0.65118 0.49718 0.55649 0.0
H1752 H 0.67196 0.51987 0.53498 0.0
H1753 H 0.63468 0.55275 0.53472 0.0
H1754 H 0.6139 0.53033 0.55574 0.0
H1755 H 0.6043 0.54423 0.51487 0.0
H1756 H 0.59549 0.46984 0.4235 0.0
H1757 H 0.56082 0.45283 0.46096 0.0
H1758 H 0.59586 0.48932 0.55027 0.0
C1759 C 0.65322 0.546 0.46444 0.0
C1760 C 0.65321 0.55325 0.42913 0.0
C1761 C 0.64429 0.53576 0.40374 0.0
C1762 C 0.63335 0.5124 0.41368 0.0
C1763 C 0.632 0.50659 0.44903 0.0
C1764 C 0.64229 0.52268 0.47402 0.0
C1765 C 0.63426 0.51474 0.51025 0.0
C1766 C 0.65749 0.50448 0.53074 0.0
C1767 C 0.62098 0.5368 0.52996 0.0
C1768 C 0.61557 0.4935 0.50152 0.0
C1769 C 0.61522 0.48839 0.46619 0.0
C1770 C 0.59624 0.47291 0.4513 0.0
C1771 C 0.57653 0.46345 0.47268 0.0
C1772 C 0.57595 0.46962 0.50846 0.0
C1773 C 0.59643 0.48364 0.52321 0.0
H1774 H 0.22243 0.81234 0.76255 0.0
H1775 H 0.23788 0.78395 0.65894 0.0
H1776 H 0.25274 0.74327 0.68352 0.0
H1777 H 0.27574 0.79692 0.79626 0.0
H1778 H 0.26529 0.78713 0.83895 0.0
H1779 H 0.24577 0.80849 0.8142 0.0
H1780 H 0.20692 0.77752 0.81952 0.0
H1781 H 0.22657 0.75586 0.84455 0.0
H1782 H 0.21026 0.74475 0.80599 0.0
H1783 H 0.27944 0.71428 0.71702 0.0
H1784 H 0.31525 0.70144 0.75495 0.0
H1785 H 0.28294 0.74616 0.83891 0.0
C1786 C 0.2279 0.79703 0.74515 0.0
C1787 C 0.22912 0.80122 0.70901 0.0
C1788 C 0.23646 0.78102 0.68674 0.0
C1789 C 0.24488 0.75775 0.70055 0.0
C1790 C 0.24547 0.75486 0.73661 0.0
C1791 C 0.23659 0.77383 0.75868 0.0
C1792 C 0.24429 0.76865 0.79597 0.0
C1793 C 0.25864 0.79163 0.81221 0.0
C1794 C 0.2206 0.76124 0.81779 0.0
C1795 C 0.26187 0.74593 0.79073 0.0
C1796 C 0.26124 0.7374 0.75664 0.0
C1797 C 0.27942 0.72006 0.74403 0.0
C1798 C 0.29976 0.71277 0.76585 0.0
C1799 C 0.30182 0.72301 0.79975 0.0
C1800 C 0.28157 0.73808 0.81306 0.0
H1801 H 0.11181 0.5518 0.10162 0.0
H1802 H 0.18074 0.55017 0.03817 0.0
H1803 H 0.16778 0.50833 0.01467 0.0
H1804 H 0.10337 0.47653 0.10902 0.0
H1805 H 1.06892 0.48083 0.1061 0.0
H1806 H 0.08846 0.50394 0.12893 0.0
H1807 H 1.06958 0.53984 0.09037 0.0
H1808 H 1.05028 0.51708 0.06766 0.0
H1809 H 1.07219 0.53728 0.04371 0.0
H1810 H 0.14187 0.47654 0.98458 0.0
H1811 H 0.10556 0.45993 0.94998 0.0
H1812 H 1.05254 0.48167 0.03174 0.0
C1813 C 0.12487 0.54183 0.08437 0.0
C1814 C 0.14718 0.55404 0.07167 0.0
C1815 C 0.16347 0.54105 0.04811 0.0
C1816 C 0.15639 0.51713 0.03497 0.0
C1817 C 0.13309 0.50637 0.0459 0.0
C1818 C 0.11775 0.51814 0.0707 0.0
C1819 C 0.09118 0.50616 0.07226 0.0
C1820 C 0.0878 0.49095 0.10608 0.0
C1821 C 1.0696 0.52628 0.06817 0.0
C1822 C 0.09276 0.48844 0.04128 0.0
C1823 C 0.11751 0.48767 0.02768 0.0
C1824 C 0.12264 0.47632 0.99559 0.0
C1825 C 0.10187 0.4671 0.97592 0.0
C1826 C 0.07627 0.46971 0.98822 0.0
C1827 C 1.07197 0.47888 0.02217 0.0
H1828 H 0.81673 0.91411 0.77729 0.0
H1829 H 0.7676 0.92373 0.68728 0.0
H1830 H 0.80227 0.90701 0.64969 0.0
H1831 H 0.88328 0.92129 0.7293 0.0
H1832 H 0.89626 0.89657 0.75674 0.0
H1833 H 0.87279 0.91866 0.77384 0.0
H1834 H 0.8443 0.88048 0.79266 0.0
H1835 H 0.86704 0.85837 0.77497 0.0
H1836 H 0.83396 0.85761 0.76043 0.0
H1837 H 0.83502 0.87794 0.6258 0.0
H1838 H 0.86278 0.84021 0.61772 0.0
H1839 H 0.89047 0.84791 0.72348 0.0
C1840 C 0.81397 0.91432 0.74939 0.0
C1841 C 0.78972 0.92044 0.73504 0.0
C1842 C 0.78622 0.91935 0.69862 0.0
C1843 C 0.80586 0.90994 0.67712 0.0
C1844 C 0.82887 0.90189 0.69248 0.0
C1845 C 0.8332 0.90447 0.72785 0.0
C1846 C 0.85669 0.8895 0.73931 0.0
C1847 C 0.87856 0.90759 0.75044 0.0
C1848 C 0.85006 0.87037 0.76851 0.0
C1849 C 0.86329 0.87606 0.70574 0.0
C1850 C 0.84776 0.88423 0.67866 0.0
C1851 C 0.84789 0.87202 0.64643 0.0
C1852 C 0.86366 0.85056 0.64209 0.0
C1853 C 0.87871 0.84129 0.67005 0.0
C1854 C 0.87919 0.85479 0.70172 0.0
H1855 H 0.82601 0.39157 0.24361 0.0
H1856 H 0.84534 0.38506 0.13428 0.0
H1857 H 0.88784 0.36735 0.15006 0.0
H1858 H 0.89531 0.40437 0.27618 0.0
H1859 H 0.88885 0.38566 0.31453 0.0
H1860 H 0.86343 0.40428 0.29501 0.0
H1861 H 0.83489 0.3637 0.29049 0.0
H1862 H 0.86 0.34515 0.30988 0.0
H1863 H 0.84724 0.33606 0.26805 0.0
H1864 H 0.92207 0.34076 0.17657 0.0
H1865 H 0.94424 0.30777 0.21133 0.0
H1866 H 0.90394 0.33377 0.30338 0.0
C1867 C 0.83965 0.38768 0.22297 0.0
C1868 C 0.83235 0.38969 0.18777 0.0
C1869 C 0.85042 0.38342 0.1615 0.0
C1870 C 0.87476 0.37368 0.17022 0.0
C1871 C 0.88091 0.37084 0.20529 0.0
C1872 C 0.86397 0.37809 0.23128 0.0
C1873 C 0.87309 0.36937 0.26662 0.0
C1874 C 0.88063 0.39229 0.28942 0.0
C1875 C 0.85261 0.35257 0.28475 0.0
C1876 C 0.89661 0.35418 0.25618 0.0
C1877 C 0.90132 0.35583 0.22084 0.0
C1878 C 0.91922 0.34 0.20442 0.0
C1879 C 0.93165 0.32125 0.22428 0.0
C1880 C 0.92599 0.31852 0.26006 0.0
C1881 C 0.90933 0.33607 0.27636 0.0
H1882 H 1.05157 0.15227 0.96418 0.0
H1883 H 0.09825 0.18083 0.04905 0.0
H1884 H 1.066 0.16497 0.09105 0.0
H1885 H 0.98444 0.15739 0.01099 0.0
H1886 H 0.97484 0.12781 0.99077 0.0
H1887 H 0.99542 0.14986 0.96771 0.0
H1888 H 1.02886 0.11379 0.95848 0.0
H1889 H 1.00873 0.09189 0.9816 0.0
H1890 H 1.0415 0.09712 0.9958 0.0
H1891 H 1.03721 0.13581 0.12274 0.0
H1892 H 1.01523 0.09619 0.14076 0.0
H1893 H 0.988 0.08524 0.03525 0.0
C1894 C 1.05413 0.15656 0.9915 0.0
C1895 C 0.07714 0.1679 0.00348 0.0
C1896 C 0.08058 0.17226 0.03946 0.0
C1897 C 1.06226 0.16347 0.06344 0.0
C1898 C 1.04057 0.15055 0.05095 0.0
C1899 C 1.03622 0.14748 0.01564 0.0
C1900 C 1.01489 0.12837 0.00878 0.0
C1901 C 0.99098 0.14166 0.99368 0.0
C1902 C 1.02408 0.10652 0.98482 0.0
C1903 C 1.00985 0.1192 0.04539 0.0
C1904 C 1.02398 0.13295 0.06953 0.0
C1905 C 1.02547 0.1254 0.10425 0.0
C1906 C 1.01315 0.10271 0.1142 0.0
C1907 C 0.99991 0.08765 0.08936 0.0
C1908 C 0.99731 0.09672 0.05503 0.0
H1909 H 0.62413 1.05558 0.58422 0.0
H1910 H 0.68587 1.05937 0.50858 0.0
H1911 H 0.67222 1.01757 0.48473 0.0
H1912 H 0.62009 0.98248 0.59248 0.0
H1913 H 0.58538 0.98435 0.59474 0.0
H1914 H 0.60494 1.00951 0.61304 0.0
H1915 H 0.58062 1.04279 0.57545 0.0
H1916 H 0.56107 1.01791 0.55743 0.0
H1917 H 0.57931 1.03848 0.52896 0.0
H1918 H 0.64697 0.98078 0.46203 0.0
H1919 H 0.61029 0.9566 0.43787 0.0
H1920 H 0.56342 0.97925 0.52607 0.0
C1921 C 0.63555 1.04693 0.56379 0.0
C1922 C 0.6563 1.06027 0.54861 0.0
C1923 C 0.67008 1.04916 0.52075 0.0
C1924 C 0.6626 1.02535 0.50734 0.0
C1925 C 0.6413 1.01304 0.52208 0.0
C1926 C 0.62797 1.02356 0.54978 0.0
C1927 C 0.60273 1.00984 0.55623 0.0
C1928 C 0.60334 0.9957 0.5912 0.0
C1929 C 0.57961 1.02835 0.55434 0.0
C1930 C 0.60291 0.99126 0.52617 0.0
C1931 C 0.62581 0.99253 0.50774 0.0
C1932 C 0.62914 0.97935 0.47658 0.0
C1933 C 0.60809 0.96583 0.46288 0.0
C1934 C 0.58377 0.96632 0.47979 0.0
C1935 C 0.58177 0.97796 0.51278 0.0
loop_
_geom_bond_atom_site_label_1
_geom_bond_atom_site_label_2
_geom_bond_distance
_geom_bond_site_symmetry_2
_ccdc_geom_bond_type
Pr0 C2 2.880 . S
Pr0 O20 2.562 . S
Pr0 O21 2.490 . S
Pr0 O22 2.695 1_556 S
Pr0 O23 2.512 1_556 S
Pr0 O25 2.437 1_556 S
Pr0 O28 2.436 1_556 S
Pr0 O30 2.438 . S
Pr1 C11 2.880 . S
Pr1 O22 2.436 . S
Pr1 O24 2.438 . S
Pr1 O26 2.562 . S
Pr1 O27 2.490 . S
Pr1 O28 2.695 . S
Pr1 O29 2.512 . S
Pr1 O31 2.437 . S
C2 Pr0 2.880 . S
C2 C3 1.491 . S
C2 O20 1.254 . S
C2 O21 1.225 . S
C3 C2 1.491 . S
C3 C4 1.392 . S
C3 C8 1.356 . S
C4 C3 1.392 . S
C4 C5 1.368 . S
C4 H32 0.929 . S
C5 C4 1.368 . S
C5 C6 1.386 . S
C5 H33 0.929 . S
C6 C5 1.386 . S
C6 C7 1.373 . S
C7 C6 1.373 . S
C7 C8 1.409 . S
C7 H34 0.931 . S
C8 C3 1.356 . S
C8 C7 1.409 . S
C8 H35 0.930 . S
C9 O22 1.270 . S
C9 O23 1.248 . S
C10 O24 1.267 . S
C10 O25 1.278 . S
C11 Pr1 2.880 . S
C11 C12 1.491 . S
C11 O26 1.254 . S
C11 O27 1.225 . S
C12 C11 1.491 . S
C12 C13 1.392 . S
C12 C17 1.356 . S
C13 C12 1.392 . S
C13 C14 1.368 . S
C13 H36 0.929 . S
C14 C13 1.368 . S
C14 C15 1.386 . S
C14 H37 0.929 . S
C15 C14 1.386 . S
C15 C16 1.373 . S
C16 C15 1.373 . S
C16 C17 1.409 . S
C16 H38 0.931 . S
C17 C12 1.356 . S
C17 C16 1.409 . S
C17 H39 0.930 . S
C18 O28 1.270 1_556 S
C18 O29 1.248 1_556 S
C19 O30 1.267 1_554 S
C19 O31 1.278 . S
O20 Pr0 2.562 . S
O20 C2 1.254 . S
O21 Pr0 2.490 . S
O21 C2 1.225 . S
O22 Pr0 2.695 1_554 S
O22 Pr1 2.436 . S
O22 C9 1.270 . S
O23 Pr0 2.512 1_554 S
O23 C9 1.248 . S
O24 Pr1 2.438 . S
O24 C10 1.267 . S
O25 Pr0 2.437 1_554 S
O25 C10 1.278 . S
O26 Pr1 2.562 . S
O26 C11 1.254 . S
O27 Pr1 2.490 . S
O27 C11 1.225 . S
O28 Pr0 2.436 1_554 S
O28 Pr1 2.695 . S
O28 C18 1.270 1_554 S
O29 Pr1 2.512 . S
O29 C18 1.248 1_554 S
O30 Pr0 2.438 . S
O30 C19 1.267 1_556 S
O31 Pr1 2.437 . S
O31 C19 1.278 . S
H32 C4 0.929 . S
H33 C5 0.929 . S
H34 C7 0.931 . S
H35 C8 0.930 . S
H36 C13 0.929 . S
H37 C14 0.929 . S
H38 C16 0.931 . S
H39 C17 0.930 . S
Pr40 C42 2.880 . S
Pr40 O60 2.562 . S
Pr40 O61 2.490 . S
Pr40 O62 2.695 . S
Pr40 O63 2.512 . S
Pr40 O65 2.437 . S
Pr40 O68 2.436 . S
Pr40 O70 2.438 . S
Pr41 C51 2.880 . S
Pr41 O62 2.436 . S
Pr41 O64 2.438 . S
Pr41 O66 2.562 . S
Pr41 O67 2.490 . S
Pr41 O68 2.695 . S
Pr41 O69 2.512 . S
Pr41 O71 2.437 . S
C42 Pr40 2.880 . S
C42 C43 1.491 . S
C42 O60 1.254 . S
C42 O61 1.225 . S
C43 C42 1.491 . S
C43 C44 1.392 . S
C43 C48 1.356 . S
C44 C43 1.392 . S
C44 C45 1.368 . S
C44 H72 0.929 . S
C45 C44 1.368 . S
C45 C46 1.386 . S
C45 H73 0.929 . S
C46 C45 1.386 . S
C46 C47 1.373 . S
C47 C46 1.373 . S
C47 C48 1.409 . S
C47 H74 0.931 . S
C48 C43 1.356 . S
C48 C47 1.409 . S
C48 H75 0.930 . S
C49 O62 1.270 . S
C49 O63 1.248 . S
C50 O64 1.267 . S
C50 O65 1.278 . S
C51 Pr41 2.880 . S
C51 C52 1.491 . S
C51 O66 1.254 . S
C51 O67 1.225 . S
C52 C51 1.491 . S
C52 C53 1.392 . S
C52 C57 1.356 . S
C53 C52 1.392 . S
C53 C54 1.368 . S
C53 H76 0.929 . S
C54 C53 1.368 . S
C54 C55 1.386 . S
C54 H77 0.929 . S
C55 C54 1.386 . S
C55 C56 1.373 . S
C56 C55 1.373 . S
C56 C57 1.409 . S
C56 H78 0.931 . S
C57 C52 1.356 . S
C57 C56 1.409 . S
C57 H79 0.930 . S
C58 O68 1.270 . S
C58 O69 1.248 . S
C59 O70 1.267 . S
C59 O71 1.278 . S
O60 Pr40 2.562 . S
O60 C42 1.254 . S
O61 Pr40 2.490 . S
O61 C42 1.225 . S
O62 Pr40 2.695 . S
O62 Pr41 2.436 . S
O62 C49 1.270 . S
O63 Pr40 2.512 . S
O63 C49 1.248 . S
O64 Pr41 2.438 . S
O64 C50 1.267 . S
O65 Pr40 2.437 . S
O65 C50 1.278 . S
O66 Pr41 2.562 . S
O66 C51 1.254 . S
O67 Pr41 2.490 . S
O67 C51 1.225 . S
O68 Pr40 2.436 . S
O68 Pr41 2.695 . S
O68 C58 1.270 . S
O69 Pr41 2.512 . S
O69 C58 1.248 . S
O70 Pr40 2.438 . S
O70 C59 1.267 . S
O71 Pr41 2.437 . S
O71 C59 1.278 . S
H72 C44 0.929 . S
H73 C45 0.929 . S
H74 C47 0.931 . S
H75 C48 0.930 . S
H76 C53 0.929 . S
H77 C54 0.929 . S
H78 C56 0.931 . S
H79 C57 0.930 . S
Pr80 C82 2.880 . S
Pr80 O100 2.562 . S
Pr80 O101 2.490 . S
Pr80 O102 2.695 . S
Pr80 O103 2.512 . S
Pr80 O105 2.437 . S
Pr80 O108 2.436 . S
Pr80 O110 2.438 . S
Pr81 C91 2.880 . S
Pr81 O102 2.436 . S
Pr81 O104 2.438 . S
Pr81 O106 2.562 . S
Pr81 O107 2.490 . S
Pr81 O108 2.695 . S
Pr81 O109 2.512 . S
Pr81 O111 2.437 . S
C82 Pr80 2.880 . S
C82 C83 1.491 . S
C82 O100 1.254 . S
C82 O101 1.225 . S
C83 C82 1.491 . S
C83 C84 1.392 . S
C83 C88 1.356 . S
C84 C83 1.392 . S
C84 C85 1.368 . S
C84 H112 0.929 . S
C85 C84 1.368 . S
C85 C86 1.386 . S
C85 H113 0.929 . S
C86 C85 1.386 . S
C86 C87 1.373 . S
C87 C86 1.373 . S
C87 C88 1.409 . S
C87 H114 0.931 . S
C88 C83 1.356 . S
C88 C87 1.409 . S
C88 H115 0.930 . S
C89 O102 1.270 . S
C89 O103 1.248 . S
C90 O104 1.267 . S
C90 O105 1.278 . S
C91 Pr81 2.880 . S
C91 C92 1.491 . S
C91 O106 1.254 . S
C91 O107 1.225 . S
C92 C91 1.491 . S
C92 C93 1.392 . S
C92 C97 1.356 . S
C93 C92 1.392 . S
C93 C94 1.368 . S
C93 H116 0.929 . S
C94 C93 1.368 . S
C94 C95 1.386 . S
C94 H117 0.929 . S
C95 C94 1.386 . S
C95 C96 1.373 . S
C96 C95 1.373 . S
C96 C97 1.409 . S
C96 H118 0.931 . S
C97 C92 1.356 . S
C97 C96 1.409 . S
C97 H119 0.930 . S
C98 O108 1.270 . S
C98 O109 1.248 . S
C99 O110 1.267 . S
C99 O111 1.278 . S
O100 Pr80 2.562 . S
O100 C82 1.254 . S
O101 Pr80 2.490 . S
O101 C82 1.225 . S
O102 Pr80 2.695 . S
O102 Pr81 2.436 . S
O102 C89 1.270 . S
O103 Pr80 2.512 . S
O103 C89 1.248 . S
O104 Pr81 2.438 . S
O104 C90 1.267 . S
O105 Pr80 2.437 . S
O105 C90 1.278 . S
O106 Pr81 2.562 . S
O106 C91 1.254 . S
O107 Pr81 2.490 . S
O107 C91 1.225 . S
O108 Pr80 2.436 . S
O108 Pr81 2.695 . S
O108 C98 1.270 . S
O109 Pr81 2.512 . S
O109 C98 1.248 . S
O110 Pr80 2.438 . S
O110 C99 1.267 . S
O111 Pr81 2.437 . S
O111 C99 1.278 . S
H112 C84 0.929 . S
H113 C85 0.929 . S
H114 C87 0.931 . S
H115 C88 0.930 . S
H116 C93 0.929 . S
H117 C94 0.929 . S
H118 C96 0.931 . S
H119 C97 0.930 . S
Pr120 C122 2.880 . S
Pr120 O140 2.562 . S
Pr120 O141 2.490 . S
Pr120 O142 2.695 . S
Pr120 O143 2.512 . S
Pr120 O145 2.437 . S
Pr120 O148 2.436 . S
Pr120 O150 2.438 . S
Pr121 C131 2.880 . S
Pr121 O142 2.436 . S
Pr121 O144 2.438 . S
Pr121 O146 2.562 . S
Pr121 O147 2.490 . S
Pr121 O148 2.695 . S
Pr121 O149 2.512 . S
Pr121 O151 2.437 . S
C122 Pr120 2.880 . S
C122 C123 1.491 . S
C122 O140 1.254 . S
C122 O141 1.225 . S
C123 C122 1.491 . S
C123 C124 1.392 . S
C123 C128 1.356 . S
C124 C123 1.392 . S
C124 C125 1.368 . S
C124 H152 0.929 . S
C125 C124 1.368 . S
C125 C126 1.386 . S
C125 H153 0.929 . S
C126 C125 1.386 . S
C126 C127 1.373 . S
C127 C126 1.373 . S
C127 C128 1.409 . S
C127 H154 0.931 . S
C128 C123 1.356 . S
C128 C127 1.409 . S
C128 H155 0.930 . S
C129 O142 1.270 . S
C129 O143 1.248 . S
C130 O144 1.267 . S
C130 O145 1.278 . S
C131 Pr121 2.880 . S
C131 C132 1.491 . S
C131 O146 1.254 . S
C131 O147 1.225 . S
C132 C131 1.491 . S
C132 C133 1.392 . S
C132 C137 1.356 . S
C133 C132 1.392 . S
C133 C134 1.368 . S
C133 H156 0.929 . S
C134 C133 1.368 . S
C134 C135 1.386 . S
C134 H157 0.929 . S
C135 C134 1.386 . S
C135 C136 1.373 . S
C136 C135 1.373 . S
C136 C137 1.409 . S
C136 H158 0.931 . S
C137 C132 1.356 . S
C137 C136 1.409 . S
C137 H159 0.930 . S
C138 O148 1.270 . S
C138 O149 1.248 . S
C139 O150 1.267 . S
C139 O151 1.278 . S
O140 Pr120 2.562 . S
O140 C122 1.254 . S
O141 Pr120 2.490 . S
O141 C122 1.225 . S
O142 Pr120 2.695 . S
O142 Pr121 2.436 . S
O142 C129 1.270 . S
O143 Pr120 2.512 . S
O143 C129 1.248 . S
O144 Pr121 2.438 . S
O144 C130 1.267 . S
O145 Pr120 2.437 . S
O145 C130 1.278 . S
O146 Pr121 2.562 . S
O146 C131 1.254 . S
O147 Pr121 2.490 . S
O147 C131 1.225 . S
O148 Pr120 2.436 . S
O148 Pr121 2.695 . S
O148 C138 1.270 . S
O149 Pr121 2.512 . S
O149 C138 1.248 . S
O150 Pr120 2.438 . S
O150 C139 1.267 . S
O151 Pr121 2.437 . S
O151 C139 1.278 . S
H152 C124 0.929 . S
H153 C125 0.929 . S
H154 C127 0.931 . S
H155 C128 0.930 . S
H156 C133 0.929 . S
H157 C134 0.929 . S
H158 C136 0.931 . S
H159 C137 0.930 . S
Pr160 C162 2.880 . S
Pr160 O180 2.562 . S
Pr160 O181 2.490 . S
Pr160 O182 2.695 . S
Pr160 O183 2.512 . S
Pr160 O185 2.437 . S
Pr160 O188 2.436 . S
Pr160 O190 2.438 . S
Pr161 C171 2.880 . S
Pr161 O182 2.436 1_554 S
Pr161 O184 2.438 . S
Pr161 O186 2.562 . S
Pr161 O187 2.490 . S
Pr161 O188 2.695 1_554 S
Pr161 O189 2.512 1_554 S
Pr161 O191 2.437 1_554 S
C162 Pr160 2.880 . S
C162 C163 1.491 . S
C162 O180 1.254 . S
C162 O181 1.225 . S
C163 C162 1.491 . S
C163 C164 1.392 . S
C163 C168 1.356 . S
C164 C163 1.392 . S
C164 C165 1.368 . S
C164 H192 0.929 . S
C165 C164 1.368 . S
C165 C166 1.386 . S
C165 H193 0.929 . S
C166 C165 1.386 . S
C166 C167 1.373 . S
C167 C166 1.373 . S
C167 C168 1.409 . S
C167 H194 0.931 . S
C168 C163 1.356 . S
C168 C167 1.409 . S
C168 H195 0.930 . S
C169 O182 1.270 1_554 S
C169 O183 1.248 1_554 S
C170 O184 1.267 1_556 S
C170 O185 1.278 . S
C171 Pr161 2.880 . S
C171 C172 1.491 . S
C171 O186 1.254 . S
C171 O187 1.225 . S
C172 C171 1.491 . S
C172 C173 1.392 . S
C172 C177 1.356 . S
C173 C172 1.392 . S
C173 C174 1.368 . S
C173 H196 0.929 . S
C174 C173 1.368 . S
C174 C175 1.386 . S
C174 H197 0.929 . S
C175 C174 1.386 . S
C175 C176 1.373 . S
C176 C175 1.373 . S
C176 C177 1.409 . S
C176 H198 0.931 . S
C177 C172 1.356 . S
C177 C176 1.409 . S
C177 H199 0.930 . S
C178 O188 1.270 . S
C178 O189 1.248 . S
C179 O190 1.267 . S
C179 O191 1.278 . S
O180 Pr160 2.562 . S
O180 C162 1.254 . S
O181 Pr160 2.490 . S
O181 C162 1.225 . S
O182 Pr160 2.695 . S
O182 Pr161 2.436 1_556 S
O182 C169 1.270 1_556 S
O183 Pr160 2.512 . S
O183 C169 1.248 1_556 S
O184 Pr161 2.438 . S
O184 C170 1.267 1_554 S
O185 Pr160 2.437 . S
O185 C170 1.278 . S
O186 Pr161 2.562 . S
O186 C171 1.254 . S
O187 Pr161 2.490 . S
O187 C171 1.225 . S
O188 Pr160 2.436 . S
O188 Pr161 2.695 1_556 S
O188 C178 1.270 . S
O189 Pr161 2.512 1_556 S
O189 C178 1.248 . S
O190 Pr160 2.438 . S
O190 C179 1.267 . S
O191 Pr161 2.437 1_556 S
O191 C179 1.278 . S
H192 C164 0.929 . S
H193 C165 0.929 . S
H194 C167 0.931 . S
H195 C168 0.930 . S
H196 C173 0.929 . S
H197 C174 0.929 . S
H198 C176 0.931 . S
H199 C177 0.930 . S
Pr200 C202 2.880 . S
Pr200 O220 2.562 . S
Pr200 O221 2.490 . S
Pr200 O222 2.695 . S
Pr200 O223 2.512 . S
Pr200 O225 2.437 . S
Pr200 O228 2.436 . S
Pr200 O230 2.438 . S
Pr201 C211 2.880 . S
Pr201 O222 2.436 . S
Pr201 O224 2.438 . S
Pr201 O226 2.562 . S
Pr201 O227 2.490 . S
Pr201 O228 2.695 . S
Pr201 O229 2.512 . S
Pr201 O231 2.437 . S
C202 Pr200 2.880 . S
C202 C203 1.491 . S
C202 O220 1.254 . S
C202 O221 1.225 . S
C203 C202 1.491 . S
C203 C204 1.392 . S
C203 C208 1.356 . S
C204 C203 1.392 . S
C204 C205 1.368 . S
C204 H232 0.929 . S
C205 C204 1.368 . S
C205 C206 1.386 . S
C205 H233 0.929 . S
C206 C205 1.386 . S
C206 C207 1.373 . S
C207 C206 1.373 . S
C207 C208 1.409 . S
C207 H234 0.931 . S
C208 C203 1.356 . S
C208 C207 1.409 . S
C208 H235 0.930 . S
C209 O222 1.270 . S
C209 O223 1.248 . S
C210 O224 1.267 . S
C210 O225 1.278 . S
C211 Pr201 2.880 . S
C211 C212 1.491 . S
C211 O226 1.254 . S
C211 O227 1.225 . S
C212 C211 1.491 . S
C212 C213 1.392 . S
C212 C217 1.356 . S
C213 C212 1.392 . S
C213 C214 1.368 . S
C213 H236 0.929 . S
C214 C213 1.368 . S
C214 C215 1.386 . S
C214 H237 0.929 . S
C215 C214 1.386 . S
C215 C216 1.373 . S
C216 C215 1.373 . S
C216 C217 1.409 . S
C216 H238 0.931 . S
C217 C212 1.356 . S
C217 C216 1.409 . S
C217 H239 0.930 . S
C218 O228 1.270 . S
C218 O229 1.248 . S
C219 O230 1.267 . S
C219 O231 1.278 . S
O220 Pr200 2.562 . S
O220 C202 1.254 . S
O221 Pr200 2.490 . S
O221 C202 1.225 . S
O222 Pr200 2.695 . S
O222 Pr201 2.436 . S
O222 C209 1.270 . S
O223 Pr200 2.512 . S
O223 C209 1.248 . S
O224 Pr201 2.438 . S
O224 C210 1.267 . S
O225 Pr200 2.437 . S
O225 C210 1.278 . S
O226 Pr201 2.562 . S
O226 C211 1.254 . S
O227 Pr201 2.490 . S
O227 C211 1.225 . S
O228 Pr200 2.436 . S
O228 Pr201 2.695 . S
O228 C218 1.270 . S
O229 Pr201 2.512 . S
O229 C218 1.248 . S
O230 Pr200 2.438 . S
O230 C219 1.267 . S
O231 Pr201 2.437 . S
O231 C219 1.278 . S
H232 C204 0.929 . S
H233 C205 0.929 . S
H234 C207 0.931 . S
H235 C208 0.930 . S
H236 C213 0.929 . S
H237 C214 0.929 . S
H238 C216 0.931 . S
H239 C217 0.930 . S
Pr240 C242 2.880 . S
Pr240 O260 2.562 . S
Pr240 O261 2.490 . S
Pr240 O262 2.695 . S
Pr240 O263 2.512 . S
Pr240 O265 2.437 . S
Pr240 O268 2.436 . S
Pr240 O270 2.438 . S
Pr241 C251 2.880 . S
Pr241 O262 2.436 . S
Pr241 O264 2.438 . S
Pr241 O266 2.562 . S
Pr241 O267 2.490 . S
Pr241 O268 2.695 . S
Pr241 O269 2.512 . S
Pr241 O271 2.437 . S
C242 Pr240 2.880 . S
C242 C243 1.491 . S
C242 O260 1.254 . S
C242 O261 1.225 . S
C243 C242 1.491 . S
C243 C244 1.392 . S
C243 C248 1.356 . S
C244 C243 1.392 . S
C244 C245 1.368 . S
C244 H272 0.929 . S
C245 C244 1.368 . S
C245 C246 1.386 . S
C245 H273 0.929 . S
C246 C245 1.386 . S
C246 C247 1.373 . S
C247 C246 1.373 . S
C247 C248 1.409 . S
C247 H274 0.931 . S
C248 C243 1.356 . S
C248 C247 1.409 . S
C248 H275 0.930 . S
C249 O262 1.270 . S
C249 O263 1.248 . S
C250 O264 1.267 . S
C250 O265 1.278 . S
C251 Pr241 2.880 . S
C251 C252 1.491 . S
C251 O266 1.254 . S
C251 O267 1.225 . S
C252 C251 1.491 . S
C252 C253 1.392 . S
C252 C257 1.356 . S
C253 C252 1.392 . S
C253 C254 1.368 . S
C253 H276 0.929 . S
C254 C253 1.368 . S
C254 C255 1.386 . S
C254 H277 0.929 . S
C255 C254 1.386 . S
C255 C256 1.373 . S
C256 C255 1.373 . S
C256 C257 1.409 . S
C256 H278 0.931 . S
C257 C252 1.356 . S
C257 C256 1.409 . S
C257 H279 0.930 . S
C258 O268 1.270 . S
C258 O269 1.248 . S
C259 O270 1.267 . S
C259 O271 1.278 . S
O260 Pr240 2.562 . S
O260 C242 1.254 . S
O261 Pr240 2.490 . S
O261 C242 1.225 . S
O262 Pr240 2.695 . S
O262 Pr241 2.436 . S
O262 C249 1.270 . S
O263 Pr240 2.512 . S
O263 C249 1.248 . S
O264 Pr241 2.438 . S
O264 C250 1.267 . S
O265 Pr240 2.437 . S
O265 C250 1.278 . S
O266 Pr241 2.562 . S
O266 C251 1.254 . S
O267 Pr241 2.490 . S
O267 C251 1.225 . S
O268 Pr240 2.436 . S
O268 Pr241 2.695 . S
O268 C258 1.270 . S
O269 Pr241 2.512 . S
O269 C258 1.248 . S
O270 Pr240 2.438 . S
O270 C259 1.267 . S
O271 Pr241 2.437 . S
O271 C259 1.278 . S
H272 C244 0.929 . S
H273 C245 0.929 . S
H274 C247 0.931 . S
H275 C248 0.930 . S
H276 C253 0.929 . S
H277 C254 0.929 . S
H278 C256 0.931 . S
H279 C257 0.930 . S
Pr280 C282 2.880 . S
Pr280 O300 2.562 . S
Pr280 O301 2.490 . S
Pr280 O302 2.695 . S
Pr280 O303 2.512 . S
Pr280 O305 2.437 . S
Pr280 O308 2.436 . S
Pr280 O310 2.438 . S
Pr281 C291 2.880 . S
Pr281 O302 2.436 . S
Pr281 O304 2.438 . S
Pr281 O306 2.562 . S
Pr281 O307 2.490 . S
Pr281 O308 2.695 . S
Pr281 O309 2.512 . S
Pr281 O311 2.437 . S
C282 Pr280 2.880 . S
C282 C283 1.491 . S
C282 O300 1.254 . S
C282 O301 1.225 . S
C283 C282 1.491 . S
C283 C284 1.392 . S
C283 C288 1.356 . S
C284 C283 1.392 . S
C284 C285 1.368 . S
C284 H312 0.929 . S
C285 C284 1.368 . S
C285 C286 1.386 . S
C285 H313 0.929 . S
C286 C285 1.386 . S
C286 C287 1.373 . S
C287 C286 1.373 . S
C287 C288 1.409 . S
C287 H314 0.931 . S
C288 C283 1.356 . S
C288 C287 1.409 . S
C288 H315 0.930 . S
C289 O302 1.270 . S
C289 O303 1.248 . S
C290 O304 1.267 . S
C290 O305 1.278 . S
C291 Pr281 2.880 . S
C291 C292 1.491 . S
C291 O306 1.254 . S
C291 O307 1.225 . S
C292 C291 1.491 . S
C292 C293 1.392 . S
C292 C297 1.356 . S
C293 C292 1.392 . S
C293 C294 1.368 . S
C293 H316 0.929 . S
C294 C293 1.368 . S
C294 C295 1.386 . S
C294 H317 0.929 . S
C295 C294 1.386 . S
C295 C296 1.373 . S
C296 C295 1.373 . S
C296 C297 1.409 . S
C296 H318 0.931 . S
C297 C292 1.356 . S
C297 C296 1.409 . S
C297 H319 0.930 . S
C298 O308 1.270 . S
C298 O309 1.248 . S
C299 O310 1.267 . S
C299 O311 1.278 . S
O300 Pr280 2.562 . S
O300 C282 1.254 . S
O301 Pr280 2.490 . S
O301 C282 1.225 . S
O302 Pr280 2.695 . S
O302 Pr281 2.436 . S
O302 C289 1.270 . S
O303 Pr280 2.512 . S
O303 C289 1.248 . S
O304 Pr281 2.438 . S
O304 C290 1.267 . S
O305 Pr280 2.437 . S
O305 C290 1.278 . S
O306 Pr281 2.562 . S
O306 C291 1.254 . S
O307 Pr281 2.490 . S
O307 C291 1.225 . S
O308 Pr280 2.436 . S
O308 Pr281 2.695 . S
O308 C298 1.270 . S
O309 Pr281 2.512 . S
O309 C298 1.248 . S
O310 Pr280 2.438 . S
O310 C299 1.267 . S
O311 Pr281 2.437 . S
O311 C299 1.278 . S
H312 C284 0.929 . S
H313 C285 0.929 . S
H314 C287 0.931 . S
H315 C288 0.930 . S
H316 C293 0.929 . S
H317 C294 0.929 . S
H318 C296 0.931 . S
H319 C297 0.930 . S
Pr320 C322 2.880 . S
Pr320 O340 2.562 . S
Pr320 O341 2.490 . S
Pr320 O342 2.695 . S
Pr320 O343 2.512 . S
Pr320 O345 2.437 . S
Pr320 O348 2.436 . S
Pr320 O350 2.438 . S
Pr321 C331 2.880 . S
Pr321 O342 2.436 . S
Pr321 O344 2.438 . S
Pr321 O346 2.562 . S
Pr321 O347 2.490 . S
Pr321 O348 2.695 . S
Pr321 O349 2.512 . S
Pr321 O351 2.437 . S
C322 Pr320 2.880 . S
C322 C323 1.491 . S
C322 O340 1.254 . S
C322 O341 1.225 . S
C323 C322 1.491 . S
C323 C324 1.392 . S
C323 C328 1.356 . S
C324 C323 1.392 . S
C324 C325 1.368 . S
C324 H352 0.929 . S
C325 C324 1.368 . S
C325 C326 1.386 . S
C325 H353 0.929 . S
C326 C325 1.386 . S
C326 C327 1.373 . S
C327 C326 1.373 . S
C327 C328 1.409 . S
C327 H354 0.931 . S
C328 C323 1.356 . S
C328 C327 1.409 . S
C328 H355 0.930 . S
C329 O342 1.270 . S
C329 O343 1.248 . S
C330 O344 1.267 . S
C330 O345 1.278 . S
C331 Pr321 2.880 . S
C331 C332 1.491 . S
C331 O346 1.254 . S
C331 O347 1.225 . S
C332 C331 1.491 . S
C332 C333 1.392 . S
C332 C337 1.356 . S
C333 C332 1.392 . S
C333 C334 1.368 . S
C333 H356 0.929 . S
C334 C333 1.368 . S
C334 C335 1.386 . S
C334 H357 0.929 . S
C335 C334 1.386 . S
C335 C336 1.373 . S
C336 C335 1.373 . S
C336 C337 1.409 . S
C336 H358 0.931 . S
C337 C332 1.356 . S
C337 C336 1.409 . S
C337 H359 0.930 . S
C338 O348 1.270 . S
C338 O349 1.248 . S
C339 O350 1.267 . S
C339 O351 1.278 . S
O340 Pr320 2.562 . S
O340 C322 1.254 . S
O341 Pr320 2.490 . S
O341 C322 1.225 . S
O342 Pr320 2.695 . S
O342 Pr321 2.436 . S
O342 C329 1.270 . S
O343 Pr320 2.512 . S
O343 C329 1.248 . S
O344 Pr321 2.438 . S
O344 C330 1.267 . S
O345 Pr320 2.437 . S
O345 C330 1.278 . S
O346 Pr321 2.562 . S
O346 C331 1.254 . S
O347 Pr321 2.490 . S
O347 C331 1.225 . S
O348 Pr320 2.436 . S
O348 Pr321 2.695 . S
O348 C338 1.270 . S
O349 Pr321 2.512 . S
O349 C338 1.248 . S
O350 Pr320 2.438 . S
O350 C339 1.267 . S
O351 Pr321 2.437 . S
O351 C339 1.278 . S
H352 C324 0.929 . S
H353 C325 0.929 . S
H354 C327 0.931 . S
H355 C328 0.930 . S
H356 C333 0.929 . S
H357 C334 0.929 . S
H358 C336 0.931 . S
H359 C337 0.930 . S
Pr360 C362 2.880 . S
Pr360 O380 2.562 . S
Pr360 O381 2.490 . S
Pr360 O382 2.695 . S
Pr360 O383 2.512 . S
Pr360 O385 2.437 . S
Pr360 O388 2.436 . S
Pr360 O390 2.438 . S
Pr361 C371 2.880 . S
Pr361 O382 2.436 . S
Pr361 O384 2.438 . S
Pr361 O386 2.562 . S
Pr361 O387 2.490 . S
Pr361 O388 2.695 . S
Pr361 O389 2.512 . S
Pr361 O391 2.437 . S
C362 Pr360 2.880 . S
C362 C363 1.491 . S
C362 O380 1.254 . S
C362 O381 1.225 . S
C363 C362 1.491 . S
C363 C364 1.392 . S
C363 C368 1.356 . S
C364 C363 1.392 . S
C364 C365 1.368 . S
C364 H392 0.929 . S
C365 C364 1.368 . S
C365 C366 1.386 . S
C365 H393 0.929 . S
C366 C365 1.386 . S
C366 C367 1.373 . S
C367 C366 1.373 . S
C367 C368 1.409 . S
C367 H394 0.931 . S
C368 C363 1.356 . S
C368 C367 1.409 . S
C368 H395 0.930 . S
C369 O382 1.270 . S
C369 O383 1.248 . S
C370 O384 1.267 . S
C370 O385 1.278 . S
C371 Pr361 2.880 . S
C371 C372 1.491 . S
C371 O386 1.254 . S
C371 O387 1.225 . S
C372 C371 1.491 . S
C372 C373 1.392 . S
C372 C377 1.356 . S
C373 C372 1.392 . S
C373 C374 1.368 . S
C373 H396 0.929 . S
C374 C373 1.368 . S
C374 C375 1.386 . S
C374 H397 0.929 . S
C375 C374 1.386 . S
C375 C376 1.373 . S
C376 C375 1.373 . S
C376 C377 1.409 . S
C376 H398 0.931 . S
C377 C372 1.356 . S
C377 C376 1.409 . S
C377 H399 0.930 . S
C378 O388 1.270 . S
C378 O389 1.248 . S
C379 O390 1.267 . S
C379 O391 1.278 . S
O380 Pr360 2.562 . S
O380 C362 1.254 . S
O381 Pr360 2.490 . S
O381 C362 1.225 . S
O382 Pr360 2.695 . S
O382 Pr361 2.436 . S
O382 C369 1.270 . S
O383 Pr360 2.512 . S
O383 C369 1.248 . S
O384 Pr361 2.438 . S
O384 C370 1.267 . S
O385 Pr360 2.437 . S
O385 C370 1.278 . S
O386 Pr361 2.562 . S
O386 C371 1.254 . S
O387 Pr361 2.490 . S
O387 C371 1.225 . S
O388 Pr360 2.436 . S
O388 Pr361 2.695 . S
O388 C378 1.270 . S
O389 Pr361 2.512 . S
O389 C378 1.248 . S
O390 Pr360 2.438 . S
O390 C379 1.267 . S
O391 Pr361 2.437 . S
O391 C379 1.278 . S
H392 C364 0.929 . S
H393 C365 0.929 . S
H394 C367 0.931 . S
H395 C368 0.930 . S
H396 C373 0.929 . S
H397 C374 0.929 . S
H398 C376 0.931 . S
H399 C377 0.930 . S
Pr400 C402 2.880 . S
Pr400 O420 2.562 . S
Pr400 O421 2.490 . S
Pr400 O422 2.695 1_556 S
Pr400 O423 2.512 1_556 S
Pr400 O425 2.437 1_556 S
Pr400 O428 2.436 1_556 S
Pr400 O430 2.438 . S
Pr401 C411 2.880 . S
Pr401 O422 2.436 . S
Pr401 O424 2.438 . S
Pr401 O426 2.562 . S
Pr401 O427 2.490 . S
Pr401 O428 2.695 . S
Pr401 O429 2.512 . S
Pr401 O431 2.437 . S
C402 Pr400 2.880 . S
C402 C403 1.491 . S
C402 O420 1.254 . S
C402 O421 1.225 . S
C403 C402 1.491 . S
C403 C404 1.392 . S
C403 C408 1.356 . S
C404 C403 1.392 . S
C404 C405 1.368 . S
C404 H432 0.929 . S
C405 C404 1.368 . S
C405 C406 1.386 . S
C405 H433 0.929 . S
C406 C405 1.386 . S
C406 C407 1.373 . S
C407 C406 1.373 . S
C407 C408 1.409 . S
C407 H434 0.931 . S
C408 C403 1.356 . S
C408 C407 1.409 . S
C408 H435 0.930 . S
C409 O422 1.270 . S
C409 O423 1.248 . S
C410 O424 1.267 . S
C410 O425 1.278 . S
C411 Pr401 2.880 . S
C411 C412 1.491 . S
C411 O426 1.254 . S
C411 O427 1.225 . S
C412 C411 1.491 . S
C412 C413 1.392 . S
C412 C417 1.356 . S
C413 C412 1.392 . S
C413 C414 1.368 . S
C413 H436 0.929 . S
C414 C413 1.368 . S
C414 C415 1.386 . S
C414 H437 0.929 . S
C415 C414 1.386 . S
C415 C416 1.373 . S
C416 C415 1.373 . S
C416 C417 1.409 . S
C416 H438 0.931 . S
C417 C412 1.356 . S
C417 C416 1.409 . S
C417 H439 0.930 . S
C418 O428 1.270 1_556 S
C418 O429 1.248 1_556 S
C419 O430 1.267 1_554 S
C419 O431 1.278 . S
O420 Pr400 2.562 . S
O420 C402 1.254 . S
O421 Pr400 2.490 . S
O421 C402 1.225 . S
O422 Pr400 2.695 1_554 S
O422 Pr401 2.436 . S
O422 C409 1.270 . S
O423 Pr400 2.512 1_554 S
O423 C409 1.248 . S
O424 Pr401 2.438 . S
O424 C410 1.267 . S
O425 Pr400 2.437 1_554 S
O425 C410 1.278 . S
O426 Pr401 2.562 . S
O426 C411 1.254 . S
O427 Pr401 2.490 . S
O427 C411 1.225 . S
O428 Pr400 2.436 1_554 S
O428 Pr401 2.695 . S
O428 C418 1.270 1_554 S
O429 Pr401 2.512 . S
O429 C418 1.248 1_554 S
O430 Pr400 2.438 . S
O430 C419 1.267 1_556 S
O431 Pr401 2.437 . S
O431 C419 1.278 . S
H432 C404 0.929 . S
H433 C405 0.929 . S
H434 C407 0.931 . S
H435 C408 0.930 . S
H436 C413 0.929 . S
H437 C414 0.929 . S
H438 C416 0.931 . S
H439 C417 0.930 . S
Pr440 C442 2.880 . S
Pr440 O460 2.562 . S
Pr440 O461 2.490 . S
Pr440 O462 2.695 . S
Pr440 O463 2.512 . S
Pr440 O465 2.437 . S
Pr440 O468 2.436 . S
Pr440 O470 2.438 . S
Pr441 C451 2.880 . S
Pr441 O462 2.436 . S
Pr441 O464 2.438 . S
Pr441 O466 2.562 . S
Pr441 O467 2.490 . S
Pr441 O468 2.695 . S
Pr441 O469 2.512 . S
Pr441 O471 2.437 . S
C442 Pr440 2.880 . S
C442 C443 1.491 . S
C442 O460 1.254 . S
C442 O461 1.225 . S
C443 C442 1.491 . S
C443 C444 1.392 . S
C443 C448 1.356 . S
C444 C443 1.392 . S
C444 C445 1.368 . S
C444 H472 0.929 . S
C445 C444 1.368 . S
C445 C446 1.386 . S
C445 H473 0.929 . S
C446 C445 1.386 . S
C446 C447 1.373 . S
C447 C446 1.373 . S
C447 C448 1.409 . S
C447 H474 0.931 . S
C448 C443 1.356 . S
C448 C447 1.409 . S
C448 H475 0.930 . S
C449 O462 1.270 . S
C449 O463 1.248 . S
C450 O464 1.267 . S
C450 O465 1.278 . S
C451 Pr441 2.880 . S
C451 C452 1.491 . S
C451 O466 1.254 . S
C451 O467 1.225 . S
C452 C451 1.491 . S
C452 C453 1.392 . S
C452 C457 1.356 . S
C453 C452 1.392 . S
C453 C454 1.368 . S
C453 H476 0.929 . S
C454 C453 1.368 . S
C454 C455 1.386 . S
C454 H477 0.929 . S
C455 C454 1.386 . S
C455 C456 1.373 . S
C456 C455 1.373 . S
C456 C457 1.409 . S
C456 H478 0.931 . S
C457 C452 1.356 . S
C457 C456 1.409 . S
C457 H479 0.930 . S
C458 O468 1.270 . S
C458 O469 1.248 . S
C459 O470 1.267 . S
C459 O471 1.278 . S
O460 Pr440 2.562 . S
O460 C442 1.254 . S
O461 Pr440 2.490 . S
O461 C442 1.225 . S
O462 Pr440 2.695 . S
O462 Pr441 2.436 . S
O462 C449 1.270 . S
O463 Pr440 2.512 . S
O463 C449 1.248 . S
O464 Pr441 2.438 . S
O464 C450 1.267 . S
O465 Pr440 2.437 . S
O465 C450 1.278 . S
O466 Pr441 2.562 . S
O466 C451 1.254 . S
O467 Pr441 2.490 . S
O467 C451 1.225 . S
O468 Pr440 2.436 . S
O468 Pr441 2.695 . S
O468 C458 1.270 . S
O469 Pr441 2.512 . S
O469 C458 1.248 . S
O470 Pr440 2.438 . S
O470 C459 1.267 . S
O471 Pr441 2.437 . S
O471 C459 1.278 . S
H472 C444 0.929 . S
H473 C445 0.929 . S
H474 C447 0.931 . S
H475 C448 0.930 . S
H476 C453 0.929 . S
H477 C454 0.929 . S
H478 C456 0.931 . S
H479 C457 0.930 . S
Pr480 C482 2.880 . S
Pr480 O500 2.562 . S
Pr480 O501 2.490 . S
Pr480 O502 2.695 . S
Pr480 O503 2.512 . S
Pr480 O505 2.437 . S
Pr480 O508 2.436 . S
Pr480 O510 2.438 . S
Pr481 C491 2.880 . S
Pr481 O502 2.436 . S
Pr481 O504 2.438 . S
Pr481 O506 2.562 . S
Pr481 O507 2.490 . S
Pr481 O508 2.695 . S
Pr481 O509 2.512 . S
Pr481 O511 2.437 . S
C482 Pr480 2.880 . S
C482 C483 1.491 . S
C482 O500 1.254 . S
C482 O501 1.225 . S
C483 C482 1.491 . S
C483 C484 1.392 . S
C483 C488 1.356 . S
C484 C483 1.392 . S
C484 C485 1.368 . S
C484 H512 0.929 . S
C485 C484 1.368 . S
C485 C486 1.386 . S
C485 H513 0.929 . S
C486 C485 1.386 . S
C486 C487 1.373 . S
C487 C486 1.373 . S
C487 C488 1.409 . S
C487 H514 0.931 . S
C488 C483 1.356 . S
C488 C487 1.409 . S
C488 H515 0.930 . S
C489 O502 1.270 . S
C489 O503 1.248 . S
C490 O504 1.267 . S
C490 O505 1.278 . S
C491 Pr481 2.880 . S
C491 C492 1.491 . S
C491 O506 1.254 . S
C491 O507 1.225 . S
C492 C491 1.491 . S
C492 C493 1.392 . S
C492 C497 1.356 . S
C493 C492 1.392 . S
C493 C494 1.368 . S
C493 H516 0.929 . S
C494 C493 1.368 . S
C494 C495 1.386 . S
C494 H517 0.929 . S
C495 C494 1.386 . S
C495 C496 1.373 . S
C496 C495 1.373 . S
C496 C497 1.409 . S
C496 H518 0.931 . S
C497 C492 1.356 . S
C497 C496 1.409 . S
C497 H519 0.930 . S
C498 O508 1.270 . S
C498 O509 1.248 . S
C499 O510 1.267 . S
C499 O511 1.278 . S
O500 Pr480 2.562 . S
O500 C482 1.254 . S
O501 Pr480 2.490 . S
O501 C482 1.225 . S
O502 Pr480 2.695 . S
O502 Pr481 2.436 . S
O502 C489 1.270 . S
O503 Pr480 2.512 . S
O503 C489 1.248 . S
O504 Pr481 2.438 . S
O504 C490 1.267 . S
O505 Pr480 2.437 . S
O505 C490 1.278 . S
O506 Pr481 2.562 . S
O506 C491 1.254 . S
O507 Pr481 2.490 . S
O507 C491 1.225 . S
O508 Pr480 2.436 . S
O508 Pr481 2.695 . S
O508 C498 1.270 . S
O509 Pr481 2.512 . S
O509 C498 1.248 . S
O510 Pr480 2.438 . S
O510 C499 1.267 . S
O511 Pr481 2.437 . S
O511 C499 1.278 . S
H512 C484 0.929 . S
H513 C485 0.929 . S
H514 C487 0.931 . S
H515 C488 0.930 . S
H516 C493 0.929 . S
H517 C494 0.929 . S
H518 C496 0.931 . S
H519 C497 0.930 . S
Pr520 C522 2.880 . S
Pr520 O540 2.562 . S
Pr520 O541 2.490 . S
Pr520 O542 2.695 . S
Pr520 O543 2.512 . S
Pr520 O545 2.437 . S
Pr520 O548 2.436 . S
Pr520 O550 2.438 . S
Pr521 C531 2.880 . S
Pr521 O542 2.436 . S
Pr521 O544 2.438 . S
Pr521 O546 2.562 . S
Pr521 O547 2.490 . S
Pr521 O548 2.695 . S
Pr521 O549 2.512 . S
Pr521 O551 2.437 . S
C522 Pr520 2.880 . S
C522 C523 1.491 . S
C522 O540 1.254 . S
C522 O541 1.225 . S
C523 C522 1.491 . S
C523 C524 1.392 . S
C523 C528 1.356 . S
C524 C523 1.392 . S
C524 C525 1.368 . S
C524 H552 0.929 . S
C525 C524 1.368 . S
C525 C526 1.386 . S
C525 H553 0.929 . S
C526 C525 1.386 . S
C526 C527 1.373 . S
C527 C526 1.373 . S
C527 C528 1.409 . S
C527 H554 0.931 . S
C528 C523 1.356 . S
C528 C527 1.409 . S
C528 H555 0.930 . S
C529 O542 1.270 . S
C529 O543 1.248 . S
C530 O544 1.267 . S
C530 O545 1.278 . S
C531 Pr521 2.880 . S
C531 C532 1.491 . S
C531 O546 1.254 . S
C531 O547 1.225 . S
C532 C531 1.491 . S
C532 C533 1.392 . S
C532 C537 1.356 . S
C533 C532 1.392 . S
C533 C534 1.368 . S
C533 H556 0.929 . S
C534 C533 1.368 . S
C534 C535 1.386 . S
C534 H557 0.929 . S
C535 C534 1.386 . S
C535 C536 1.373 . S
C536 C535 1.373 . S
C536 C537 1.409 . S
C536 H558 0.931 . S
C537 C532 1.356 . S
C537 C536 1.409 . S
C537 H559 0.930 . S
C538 O548 1.270 . S
C538 O549 1.248 . S
C539 O550 1.267 . S
C539 O551 1.278 . S
O540 Pr520 2.562 . S
O540 C522 1.254 . S
O541 Pr520 2.490 . S
O541 C522 1.225 . S
O542 Pr520 2.695 . S
O542 Pr521 2.436 . S
O542 C529 1.270 . S
O543 Pr520 2.512 . S
O543 C529 1.248 . S
O544 Pr521 2.438 . S
O544 C530 1.267 . S
O545 Pr520 2.437 . S
O545 C530 1.278 . S
O546 Pr521 2.562 . S
O546 C531 1.254 . S
O547 Pr521 2.490 . S
O547 C531 1.225 . S
O548 Pr520 2.436 . S
O548 Pr521 2.695 . S
O548 C538 1.270 . S
O549 Pr521 2.512 . S
O549 C538 1.248 . S
O550 Pr520 2.438 . S
O550 C539 1.267 . S
O551 Pr521 2.437 . S
O551 C539 1.278 . S
H552 C524 0.929 . S
H553 C525 0.929 . S
H554 C527 0.931 . S
H555 C528 0.930 . S
H556 C533 0.929 . S
H557 C534 0.929 . S
H558 C536 0.931 . S
H559 C537 0.930 . S
Pr560 C562 2.880 . S
Pr560 O580 2.562 . S
Pr560 O581 2.490 . S
Pr560 O582 2.695 . S
Pr560 O583 2.512 . S
Pr560 O585 2.437 . S
Pr560 O588 2.436 . S
Pr560 O590 2.438 . S
Pr561 C571 2.880 . S
Pr561 O582 2.436 1_554 S
Pr561 O584 2.438 . S
Pr561 O586 2.562 . S
Pr561 O587 2.490 . S
Pr561 O588 2.695 1_554 S
Pr561 O589 2.512 1_554 S
Pr561 O591 2.437 1_554 S
C562 Pr560 2.880 . S
C562 C563 1.491 . S
C562 O580 1.254 . S
C562 O581 1.225 . S
C563 C562 1.491 . S
C563 C564 1.392 . S
C563 C568 1.356 . S
C564 C563 1.392 . S
C564 C565 1.368 . S
C564 H592 0.929 . S
C565 C564 1.368 . S
C565 C566 1.386 . S
C565 H593 0.929 . S
C566 C565 1.386 . S
C566 C567 1.373 . S
C567 C566 1.373 . S
C567 C568 1.409 . S
C567 H594 0.931 . S
C568 C563 1.356 . S
C568 C567 1.409 . S
C568 H595 0.930 . S
C569 O582 1.270 1_554 S
C569 O583 1.248 1_554 S
C570 O584 1.267 1_556 S
C570 O585 1.278 . S
C571 Pr561 2.880 . S
C571 C572 1.491 . S
C571 O586 1.254 . S
C571 O587 1.225 . S
C572 C571 1.491 . S
C572 C573 1.392 . S
C572 C577 1.356 . S
C573 C572 1.392 . S
C573 C574 1.368 . S
C573 H596 0.929 . S
C574 C573 1.368 . S
C574 C575 1.386 . S
C574 H597 0.929 . S
C575 C574 1.386 . S
C575 C576 1.373 . S
C576 C575 1.373 . S
C576 C577 1.409 . S
C576 H598 0.931 . S
C577 C572 1.356 . S
C577 C576 1.409 . S
C577 H599 0.930 . S
C578 O588 1.270 . S
C578 O589 1.248 . S
C579 O590 1.267 . S
C579 O591 1.278 . S
O580 Pr560 2.562 . S
O580 C562 1.254 . S
O581 Pr560 2.490 . S
O581 C562 1.225 . S
O582 Pr560 2.695 . S
O582 Pr561 2.436 1_556 S
O582 C569 1.270 1_556 S
O583 Pr560 2.512 . S
O583 C569 1.248 1_556 S
O584 Pr561 2.438 . S
O584 C570 1.267 1_554 S
O585 Pr560 2.437 . S
O585 C570 1.278 . S
O586 Pr561 2.562 . S
O586 C571 1.254 . S
O587 Pr561 2.490 . S
O587 C571 1.225 . S
O588 Pr560 2.436 . S
O588 Pr561 2.695 1_556 S
O588 C578 1.270 . S
O589 Pr561 2.512 1_556 S
O589 C578 1.248 . S
O590 Pr560 2.438 . S
O590 C579 1.267 . S
O591 Pr561 2.437 1_556 S
O591 C579 1.278 . S
H592 C564 0.929 . S
H593 C565 0.929 . S
H594 C567 0.931 . S
H595 C568 0.930 . S
H596 C573 0.929 . S
H597 C574 0.929 . S
H598 C576 0.931 . S
H599 C577 0.930 . S
Pr600 C602 2.880 . S
Pr600 O620 2.562 . S
Pr600 O621 2.490 . S
Pr600 O622 2.695 . S
Pr600 O623 2.512 . S
Pr600 O625 2.437 . S
Pr600 O628 2.436 . S
Pr600 O630 2.438 . S
Pr601 C611 2.880 . S
Pr601 O622 2.436 . S
Pr601 O624 2.438 . S
Pr601 O626 2.562 . S
Pr601 O627 2.490 . S
Pr601 O628 2.695 . S
Pr601 O629 2.512 . S
Pr601 O631 2.437 . S
C602 Pr600 2.880 . S
C602 C603 1.491 . S
C602 O620 1.254 . S
C602 O621 1.225 . S
C603 C602 1.491 . S
C603 C604 1.392 . S
C603 C608 1.356 . S
C604 C603 1.392 . S
C604 C605 1.368 . S
C604 H632 0.929 . S
C605 C604 1.368 . S
C605 C606 1.386 . S
C605 H633 0.929 . S
C606 C605 1.386 . S
C606 C607 1.373 . S
C607 C606 1.373 . S
C607 C608 1.409 . S
C607 H634 0.931 . S
C608 C603 1.356 . S
C608 C607 1.409 . S
C608 H635 0.930 . S
C609 O622 1.270 . S
C609 O623 1.248 . S
C610 O624 1.267 . S
C610 O625 1.278 . S
C611 Pr601 2.880 . S
C611 C612 1.491 . S
C611 O626 1.254 . S
C611 O627 1.225 . S
C612 C611 1.491 . S
C612 C613 1.392 . S
C612 C617 1.356 . S
C613 C612 1.392 . S
C613 C614 1.368 . S
C613 H636 0.929 . S
C614 C613 1.368 . S
C614 C615 1.386 . S
C614 H637 0.929 . S
C615 C614 1.386 . S
C615 C616 1.373 . S
C616 C615 1.373 . S
C616 C617 1.409 . S
C616 H638 0.931 . S
C617 C612 1.356 . S
C617 C616 1.409 . S
C617 H639 0.930 . S
C618 O628 1.270 . S
C618 O629 1.248 . S
C619 O630 1.267 . S
C619 O631 1.278 . S
O620 Pr600 2.562 . S
O620 C602 1.254 . S
O621 Pr600 2.490 . S
O621 C602 1.225 . S
O622 Pr600 2.695 . S
O622 Pr601 2.436 . S
O622 C609 1.270 . S
O623 Pr600 2.512 . S
O623 C609 1.248 . S
O624 Pr601 2.438 . S
O624 C610 1.267 . S
O625 Pr600 2.437 . S
O625 C610 1.278 . S
O626 Pr601 2.562 . S
O626 C611 1.254 . S
O627 Pr601 2.490 . S
O627 C611 1.225 . S
O628 Pr600 2.436 . S
O628 Pr601 2.695 . S
O628 C618 1.270 . S
O629 Pr601 2.512 . S
O629 C618 1.248 . S
O630 Pr600 2.438 . S
O630 C619 1.267 . S
O631 Pr601 2.437 . S
O631 C619 1.278 . S
H632 C604 0.929 . S
H633 C605 0.929 . S
H634 C607 0.931 . S
H635 C608 0.930 . S
H636 C613 0.929 . S
H637 C614 0.929 . S
H638 C616 0.931 . S
H639 C617 0.930 . S
H640 C652 0.930 . S
H641 C654 0.930 1_556 S
H642 C655 0.930 1_556 S
H643 C659 0.959 . S
H644 C659 0.959 . S
H645 C659 0.961 . S
H646 C660 0.960 . S
H647 C660 0.961 . S
H648 C660 0.959 . S
H649 C663 0.929 1_556 S
H650 C664 0.931 1_556 S
H651 C666 0.930 . S
C652 H640 0.930 . S
C652 C653 1.399 . S
C652 C657 1.399 . S
C653 C652 1.399 . S
C653 C654 1.376 . S
C654 H641 0.930 1_554 S
C654 C653 1.376 . S
C654 C655 1.388 . S
C655 H642 0.930 1_554 S
C655 C654 1.388 . S
C655 C656 1.390 . S
C656 C655 1.390 . S
C656 C657 1.394 . S
C656 C662 1.465 . S
C657 C652 1.399 . S
C657 C656 1.394 . S
C657 C658 1.516 . S
C658 C657 1.516 . S
C658 C659 1.502 . S
C658 C660 1.561 . S
C658 C661 1.526 . S
C659 H643 0.959 . S
C659 H644 0.959 . S
C659 H645 0.961 . S
C659 C658 1.502 . S
C660 H646 0.960 . S
C660 H647 0.961 . S
C660 H648 0.959 . S
C660 C658 1.561 . S
C661 C658 1.526 . S
C661 C662 1.396 . S
C661 C666 1.390 . S
C662 C656 1.465 . S
C662 C661 1.396 . S
C662 C663 1.399 . S
C663 H649 0.929 1_554 S
C663 C662 1.399 . S
C663 C664 1.385 . S
C664 H650 0.931 1_554 S
C664 C663 1.385 . S
C664 C665 1.389 . S
C665 C664 1.389 . S
C665 C666 1.387 . S
C666 H651 0.930 . S
C666 C661 1.390 . S
C666 C665 1.387 . S
H667 C679 0.930 . S
H668 C681 0.930 . S
H669 C682 0.930 . S
H670 C686 0.959 . S
H671 C686 0.959 . S
H672 C686 0.961 . S
H673 C687 0.960 . S
H674 C687 0.961 . S
H675 C687 0.959 . S
H676 C690 0.929 . S
H677 C691 0.931 . S
H678 C693 0.930 . S
C679 H667 0.930 . S
C679 C680 1.399 . S
C679 C684 1.399 . S
C680 C679 1.399 . S
C680 C681 1.376 . S
C681 H668 0.930 . S
C681 C680 1.376 . S
C681 C682 1.388 . S
C682 H669 0.930 . S
C682 C681 1.388 . S
C682 C683 1.390 . S
C683 C682 1.390 . S
C683 C684 1.394 . S
C683 C689 1.465 . S
C684 C679 1.399 . S
C684 C683 1.394 . S
C684 C685 1.516 . S
C685 C684 1.516 . S
C685 C686 1.502 . S
C685 C687 1.561 . S
C685 C688 1.526 . S
C686 H670 0.959 . S
C686 H671 0.959 . S
C686 H672 0.961 . S
C686 C685 1.502 . S
C687 H673 0.960 . S
C687 H674 0.961 . S
C687 H675 0.959 . S
C687 C685 1.561 . S
C688 C685 1.526 . S
C688 C689 1.396 . S
C688 C693 1.390 . S
C689 C683 1.465 . S
C689 C688 1.396 . S
C689 C690 1.399 . S
C690 H676 0.929 . S
C690 C689 1.399 . S
C690 C691 1.385 . S
C691 H677 0.931 . S
C691 C690 1.385 . S
C691 C692 1.389 . S
C692 C691 1.389 . S
C692 C693 1.387 . S
C693 H678 0.930 . S
C693 C688 1.390 . S
C693 C692 1.387 . S
H694 C706 0.930 . S
H695 C708 0.930 . S
H696 C709 0.930 1_655 S
H697 C713 0.959 . S
H698 C713 0.959 . S
H699 C713 0.961 . S
H700 C714 0.960 1_455 S
H701 C714 0.961 . S
H702 C714 0.959 . S
H703 C717 0.929 . S
H704 C718 0.931 . S
H705 C720 0.930 . S
C706 H694 0.930 . S
C706 C707 1.399 . S
C706 C711 1.399 . S
C707 C706 1.399 . S
C707 C708 1.376 . S
C708 H695 0.930 . S
C708 C707 1.376 . S
C708 C709 1.388 . S
C709 H696 0.930 1_455 S
C709 C708 1.388 . S
C709 C710 1.390 . S
C710 C709 1.390 . S
C710 C711 1.394 . S
C710 C716 1.465 1_455 S
C711 C706 1.399 . S
C711 C710 1.394 . S
C711 C712 1.516 . S
C712 C711 1.516 . S
C712 C713 1.502 . S
C712 C714 1.561 1_455 S
C712 C715 1.526 1_455 S
C713 H697 0.959 . S
C713 H698 0.959 . S
C713 H699 0.961 . S
C713 C712 1.502 . S
C714 H700 0.960 1_655 S
C714 H701 0.961 . S
C714 H702 0.959 . S
C714 C712 1.561 1_655 S
C715 C712 1.526 1_655 S
C715 C716 1.396 . S
C715 C720 1.390 . S
C716 C710 1.465 1_655 S
C716 C715 1.396 . S
C716 C717 1.399 . S
C717 H703 0.929 . S
C717 C716 1.399 . S
C717 C718 1.385 . S
C718 H704 0.931 . S
C718 C717 1.385 . S
C718 C719 1.389 . S
C719 C718 1.389 . S
C719 C720 1.387 . S
C720 H705 0.930 . S
C720 C715 1.390 . S
C720 C719 1.387 . S
H721 C733 0.930 . S
H722 C735 0.930 . S
H723 C736 0.930 . S
H724 C740 0.959 . S
H725 C740 0.959 . S
H726 C740 0.961 . S
H727 C741 0.960 1_655 S
H728 C741 0.961 . S
H729 C741 0.959 . S
H730 C744 0.929 . S
H731 C745 0.931 . S
H732 C747 0.930 . S
C733 H721 0.930 . S
C733 C734 1.399 . S
C733 C738 1.399 . S
C734 C733 1.399 . S
C734 C735 1.376 . S
C735 H722 0.930 . S
C735 C734 1.376 . S
C735 C736 1.388 . S
C736 H723 0.930 . S
C736 C735 1.388 . S
C736 C737 1.390 . S
C737 C736 1.390 . S
C737 C738 1.394 . S
C737 C743 1.465 1_655 S
C738 C733 1.399 . S
C738 C737 1.394 . S
C738 C739 1.516 . S
C739 C738 1.516 . S
C739 C740 1.502 . S
C739 C741 1.561 1_655 S
C739 C742 1.526 1_655 S
C740 H724 0.959 . S
C740 H725 0.959 . S
C740 H726 0.961 . S
C740 C739 1.502 . S
C741 H727 0.960 1_455 S
C741 H728 0.961 . S
C741 H729 0.959 . S
C741 C739 1.561 1_455 S
C742 C739 1.526 1_455 S
C742 C743 1.396 . S
C742 C747 1.390 . S
C743 C737 1.465 1_455 S
C743 C742 1.396 . S
C743 C744 1.399 . S
C744 H730 0.929 . S
C744 C743 1.399 . S
C744 C745 1.385 . S
C745 H731 0.931 . S
C745 C744 1.385 . S
C745 C746 1.389 . S
C746 C745 1.389 . S
C746 C747 1.387 . S
C747 H732 0.930 . S
C747 C742 1.390 . S
C747 C746 1.387 . S
H748 C760 0.930 . S
H749 C762 0.930 . S
H750 C763 0.930 . S
H751 C767 0.959 . S
H752 C767 0.959 . S
H753 C767 0.961 . S
H754 C768 0.960 . S
H755 C768 0.961 . S
H756 C768 0.959 . S
H757 C771 0.929 . S
H758 C772 0.931 . S
H759 C774 0.930 . S
C760 H748 0.930 . S
C760 C761 1.399 . S
C760 C765 1.399 . S
C761 C760 1.399 . S
C761 C762 1.376 . S
C762 H749 0.930 . S
C762 C761 1.376 . S
C762 C763 1.388 . S
C763 H750 0.930 . S
C763 C762 1.388 . S
C763 C764 1.390 . S
C764 C763 1.390 . S
C764 C765 1.394 . S
C764 C770 1.465 . S
C765 C760 1.399 . S
C765 C764 1.394 . S
C765 C766 1.516 . S
C766 C765 1.516 . S
C766 C767 1.502 . S
C766 C768 1.561 1_556 S
C766 C769 1.526 . S
C767 H751 0.959 . S
C767 H752 0.959 . S
C767 H753 0.961 . S
C767 C766 1.502 . S
C768 H754 0.960 . S
C768 H755 0.961 . S
C768 H756 0.959 . S
C768 C766 1.561 1_554 S
C769 C766 1.526 . S
C769 C770 1.396 . S
C769 C774 1.390 . S
C770 C764 1.465 . S
C770 C769 1.396 . S
C770 C771 1.399 . S
C771 H757 0.929 . S
C771 C770 1.399 . S
C771 C772 1.385 . S
C772 H758 0.931 . S
C772 C771 1.385 . S
C772 C773 1.389 . S
C773 C772 1.389 . S
C773 C774 1.387 . S
C774 H759 0.930 . S
C774 C769 1.390 . S
C774 C773 1.387 . S
H775 C787 0.930 . S
H776 C789 0.930 . S
H777 C790 0.930 . S
H778 C794 0.959 . S
H779 C794 0.959 . S
H780 C794 0.961 . S
H781 C795 0.960 . S
H782 C795 0.961 . S
H783 C795 0.959 . S
H784 C798 0.929 . S
H785 C799 0.931 . S
H786 C801 0.930 . S
C787 H775 0.930 . S
C787 C788 1.399 . S
C787 C792 1.399 . S
C788 C787 1.399 . S
C788 C789 1.376 . S
C789 H776 0.930 . S
C789 C788 1.376 . S
C789 C790 1.388 . S
C790 H777 0.930 . S
C790 C789 1.388 . S
C790 C791 1.390 . S
C791 C790 1.390 . S
C791 C792 1.394 . S
C791 C797 1.465 . S
C792 C787 1.399 . S
C792 C791 1.394 . S
C792 C793 1.516 . S
C793 C792 1.516 . S
C793 C794 1.502 . S
C793 C795 1.561 . S
C793 C796 1.526 . S
C794 H778 0.959 . S
C794 H779 0.959 . S
C794 H780 0.961 . S
C794 C793 1.502 . S
C795 H781 0.960 . S
C795 H782 0.961 . S
C795 H783 0.959 . S
C795 C793 1.561 . S
C796 C793 1.526 . S
C796 C797 1.396 . S
C796 C801 1.390 . S
C797 C791 1.465 . S
C797 C796 1.396 . S
C797 C798 1.399 . S
C798 H784 0.929 . S
C798 C797 1.399 . S
C798 C799 1.385 . S
C799 H785 0.931 . S
C799 C798 1.385 . S
C799 C800 1.389 . S
C800 C799 1.389 . S
C800 C801 1.387 . S
C801 H786 0.930 . S
C801 C796 1.390 . S
C801 C800 1.387 . S
H802 C814 0.930 . S
H803 C816 0.930 . S
H804 C817 0.930 . S
H805 C821 0.959 . S
H806 C821 0.959 1_455 S
H807 C821 0.961 . S
H808 C822 0.960 . S
H809 C822 0.961 . S
H810 C822 0.959 . S
H811 C825 0.929 . S
H812 C826 0.931 . S
H813 C828 0.930 . S
C814 H802 0.930 . S
C814 C815 1.399 . S
C814 C819 1.399 . S
C815 C814 1.399 . S
C815 C816 1.376 . S
C816 H803 0.930 . S
C816 C815 1.376 . S
C816 C817 1.388 . S
C817 H804 0.930 . S
C817 C816 1.388 . S
C817 C818 1.390 . S
C818 C817 1.390 . S
C818 C819 1.394 . S
C818 C824 1.465 1_655 S
C819 C814 1.399 . S
C819 C818 1.394 . S
C819 C820 1.516 1_655 S
C820 C819 1.516 1_455 S
C820 C821 1.502 1_455 S
C820 C822 1.561 . S
C820 C823 1.526 . S
C821 H805 0.959 . S
C821 H806 0.959 1_655 S
C821 H807 0.961 . S
C821 C820 1.502 1_655 S
C822 H808 0.960 . S
C822 H809 0.961 . S
C822 H810 0.959 . S
C822 C820 1.561 . S
C823 C820 1.526 . S
C823 C824 1.396 . S
C823 C828 1.390 . S
C824 C818 1.465 1_455 S
C824 C823 1.396 . S
C824 C825 1.399 . S
C825 H811 0.929 . S
C825 C824 1.399 . S
C825 C826 1.385 . S
C826 H812 0.931 . S
C826 C825 1.385 . S
C826 C827 1.389 . S
C827 C826 1.389 . S
C827 C828 1.387 . S
C828 H813 0.930 . S
C828 C823 1.390 . S
C828 C827 1.387 . S
H829 C841 0.930 . S
H830 C843 0.930 . S
H831 C844 0.930 . S
H832 C848 0.959 . S
H833 C848 0.928 1_655 S
H834 C848 0.961 . S
H835 C849 0.960 . S
H836 C849 0.961 . S
H837 C849 0.959 . S
H838 C852 0.929 . S
H839 C853 0.931 . S
H840 C855 0.930 . S
C841 H829 0.930 . S
C841 C842 1.399 . S
C841 C846 1.399 . S
C842 C841 1.399 . S
C842 C843 1.376 . S
C843 H830 0.930 . S
C843 C842 1.376 . S
C843 C844 1.388 . S
C844 H831 0.930 . S
C844 C843 1.388 . S
C844 C845 1.390 . S
C845 C844 1.390 . S
C845 C846 1.394 . S
C845 C851 1.465 1_455 S
C846 C841 1.399 . S
C846 C845 1.394 . S
C846 C847 1.516 1_455 S
C847 C846 1.516 1_655 S
C847 C848 1.502 1_655 S
C847 C849 1.561 . S
C847 C850 1.526 . S
C848 H832 0.959 . S
C848 H833 0.928 1_455 S
C848 H834 0.961 . S
C848 C847 1.502 1_455 S
C849 H835 0.960 . S
C849 H836 0.961 . S
C849 H837 0.959 . S
C849 C847 1.561 . S
C850 C847 1.526 . S
C850 C851 1.396 . S
C850 C855 1.390 . S
C851 C845 1.465 1_655 S
C851 C850 1.396 . S
C851 C852 1.399 . S
C852 H838 0.929 . S
C852 C851 1.399 . S
C852 C853 1.385 . S
C853 H839 0.931 . S
C853 C852 1.385 . S
C853 C854 1.389 . S
C854 C853 1.389 . S
C854 C855 1.387 . S
C855 H840 0.930 . S
C855 C850 1.390 . S
C855 C854 1.387 . S
H856 C868 0.930 . S
H857 C870 0.930 . S
H858 C871 0.930 . S
H859 C875 0.959 . S
H860 C875 0.959 . S
H861 C875 0.961 . S
H862 C876 0.960 . S
H863 C876 0.961 . S
H864 C876 0.959 . S
H865 C879 0.929 . S
H866 C880 0.931 . S
H867 C882 0.930 . S
C868 H856 0.930 . S
C868 C869 1.399 . S
C868 C873 1.399 . S
C869 C868 1.399 . S
C869 C870 1.376 . S
C870 H857 0.930 . S
C870 C869 1.376 . S
C870 C871 1.388 . S
C871 H858 0.930 . S
C871 C870 1.388 . S
C871 C872 1.390 . S
C872 C871 1.390 . S
C872 C873 1.394 . S
C872 C878 1.465 . S
C873 C868 1.399 . S
C873 C872 1.394 . S
C873 C874 1.516 . S
C874 C873 1.516 . S
C874 C875 1.502 . S
C874 C876 1.561 . S
C874 C877 1.526 . S
C875 H859 0.959 . S
C875 H860 0.959 . S
C875 H861 0.961 . S
C875 C874 1.502 . S
C876 H862 0.960 . S
C876 H863 0.961 . S
C876 H864 0.959 . S
C876 C874 1.561 . S
C877 C874 1.526 . S
C877 C878 1.396 . S
C877 C882 1.390 . S
C878 C872 1.465 . S
C878 C877 1.396 . S
C878 C879 1.399 . S
C879 H865 0.929 . S
C879 C878 1.399 . S
C879 C880 1.385 . S
C880 H866 0.931 . S
C880 C879 1.385 . S
C880 C881 1.389 . S
C881 C880 1.389 . S
C881 C882 1.387 . S
C882 H867 0.930 . S
C882 C877 1.390 . S
C882 C881 1.387 . S
H883 C895 0.930 . S
H884 C897 0.930 . S
H885 C898 0.930 . S
H886 C902 0.959 . S
H887 C902 0.959 . S
H888 C902 0.961 . S
H889 C903 0.960 . S
H890 C903 0.961 . S
H891 C903 0.959 . S
H892 C906 0.929 . S
H893 C907 0.931 . S
H894 C909 0.930 . S
C895 H883 0.930 . S
C895 C896 1.399 . S
C895 C900 1.399 . S
C896 C895 1.399 . S
C896 C897 1.376 . S
C897 H884 0.930 . S
C897 C896 1.376 . S
C897 C898 1.388 . S
C898 H885 0.930 . S
C898 C897 1.388 . S
C898 C899 1.390 . S
C899 C898 1.390 . S
C899 C900 1.394 . S
C899 C905 1.465 . S
C900 C895 1.399 . S
C900 C899 1.394 . S
C900 C901 1.516 . S
C901 C900 1.516 . S
C901 C902 1.502 . S
C901 C903 1.561 . S
C901 C904 1.526 . S
C902 H886 0.959 . S
C902 H887 0.959 . S
C902 H888 0.961 . S
C902 C901 1.502 . S
C903 H889 0.960 . S
C903 H890 0.961 . S
C903 H891 0.959 . S
C903 C901 1.561 . S
C904 C901 1.526 . S
C904 C905 1.396 . S
C904 C909 1.390 . S
C905 C899 1.465 . S
C905 C904 1.396 . S
C905 C906 1.399 . S
C906 H892 0.929 . S
C906 C905 1.399 . S
C906 C907 1.385 . S
C907 H893 0.931 . S
C907 C906 1.385 . S
C907 C908 1.389 . S
C908 C907 1.389 . S
C908 C909 1.387 . S
C909 H894 0.930 . S
C909 C904 1.390 . S
C909 C908 1.387 . S
H910 C922 0.930 . S
H911 C924 0.930 . S
H912 C925 0.930 . S
H913 C929 0.959 . S
H914 C929 0.959 . S
H915 C929 0.961 . S
H916 C930 0.960 . S
H917 C930 0.961 . S
H918 C930 0.959 . S
H919 C933 0.929 . S
H920 C934 0.931 . S
H921 C936 0.930 . S
C922 H910 0.930 . S
C922 C923 1.399 . S
C922 C927 1.399 . S
C923 C922 1.399 . S
C923 C924 1.376 . S
C924 H911 0.930 . S
C924 C923 1.376 . S
C924 C925 1.388 . S
C925 H912 0.930 . S
C925 C924 1.388 . S
C925 C926 1.390 . S
C926 C925 1.390 . S
C926 C927 1.394 . S
C926 C932 1.465 . S
C927 C922 1.399 . S
C927 C926 1.394 . S
C927 C928 1.516 . S
C928 C927 1.516 . S
C928 C929 1.502 . S
C928 C930 1.561 . S
C928 C931 1.526 . S
C929 H913 0.959 . S
C929 H914 0.959 . S
C929 H915 0.961 . S
C929 C928 1.502 . S
C930 H916 0.960 . S
C930 H917 0.961 . S
C930 H918 0.959 . S
C930 C928 1.561 . S
C931 C928 1.526 . S
C931 C932 1.396 . S
C931 C936 1.390 . S
C932 C926 1.465 . S
C932 C931 1.396 . S
C932 C933 1.399 . S
C933 H919 0.929 . S
C933 C932 1.399 . S
C933 C934 1.385 . S
C934 H920 0.931 . S
C934 C933 1.385 . S
C934 C935 1.389 . S
C935 C934 1.389 . S
C935 C936 1.387 . S
C936 H921 0.930 . S
C936 C931 1.390 . S
C936 C935 1.387 . S
H937 C949 0.930 . S
H938 C951 0.930 . S
H939 C952 0.930 . S
H940 C956 0.959 . S
H941 C956 0.959 . S
H942 C956 0.961 . S
H943 C957 0.960 . S
H944 C957 0.961 . S
H945 C957 0.959 . S
H946 C960 0.929 . S
H947 C961 0.931 . S
H948 C963 0.930 . S
C949 H937 0.930 . S
C949 C950 1.399 . S
C949 C954 1.399 . S
C950 C949 1.399 . S
C950 C951 1.376 . S
C951 H938 0.930 . S
C951 C950 1.376 . S
C951 C952 1.388 . S
C952 H939 0.930 . S
C952 C951 1.388 . S
C952 C953 1.390 . S
C953 C952 1.390 . S
C953 C954 1.394 . S
C953 C959 1.465 . S
C954 C949 1.399 . S
C954 C953 1.394 . S
C954 C955 1.516 . S
C955 C954 1.516 . S
C955 C956 1.502 . S
C955 C957 1.561 . S
C955 C958 1.526 . S
C956 H940 0.959 . S
C956 H941 0.959 . S
C956 H942 0.961 . S
C956 C955 1.502 . S
C957 H943 0.960 . S
C957 H944 0.961 . S
C957 H945 0.959 . S
C957 C955 1.561 . S
C958 C955 1.526 . S
C958 C959 1.396 . S
C958 C963 1.390 . S
C959 C953 1.465 . S
C959 C958 1.396 . S
C959 C960 1.399 . S
C960 H946 0.929 . S
C960 C959 1.399 . S
C960 C961 1.385 . S
C961 H947 0.931 . S
C961 C960 1.385 . S
C961 C962 1.389 . S
C962 C961 1.389 . S
C962 C963 1.387 . S
C963 H948 0.930 . S
C963 C958 1.390 . S
C963 C962 1.387 . S
H964 C976 0.930 . S
H965 C978 0.930 . S
H966 C979 0.930 . S
H967 C983 0.959 . S
H968 C983 0.959 . S
H969 C983 0.961 . S
H970 C984 0.960 . S
H971 C984 0.961 . S
H972 C984 0.959 . S
H973 C987 0.929 . S
H974 C988 0.931 . S
H975 C990 0.930 . S
C976 H964 0.930 . S
C976 C977 1.399 . S
C976 C981 1.399 . S
C977 C976 1.399 . S
C977 C978 1.376 . S
C978 H965 0.930 . S
C978 C977 1.376 . S
C978 C979 1.388 . S
C979 H966 0.930 . S
C979 C978 1.388 . S
C979 C980 1.390 . S
C980 C979 1.390 . S
C980 C981 1.394 . S
C980 C986 1.465 . S
C981 C976 1.399 . S
C981 C980 1.394 . S
C981 C982 1.516 . S
C982 C981 1.516 . S
C982 C983 1.502 . S
C982 C984 1.561 . S
C982 C985 1.526 . S
C983 H967 0.959 . S
C983 H968 0.959 . S
C983 H969 0.961 . S
C983 C982 1.502 . S
C984 H970 0.960 . S
C984 H971 0.961 . S
C984 H972 0.959 . S
C984 C982 1.561 . S
C985 C982 1.526 . S
C985 C986 1.396 . S
C985 C990 1.390 . S
C986 C980 1.465 . S
C986 C985 1.396 . S
C986 C987 1.399 . S
C987 H973 0.929 . S
C987 C986 1.399 . S
C987 C988 1.385 . S
C988 H974 0.931 . S
C988 C987 1.385 . S
C988 C989 1.389 . S
C989 C988 1.389 . S
C989 C990 1.387 . S
C990 H975 0.930 . S
C990 C985 1.390 . S
C990 C989 1.387 . S
H991 C1003 0.930 . S
H992 C1005 0.930 . S
H993 C1006 0.930 . S
H994 C1010 0.959 . S
H995 C1010 0.959 . S
H996 C1010 0.961 . S
H997 C1011 0.960 . S
H998 C1011 0.961 . S
H999 C1011 0.959 . S
H1000 C1014 0.929 . S
H1001 C1015 0.931 . S
H1002 C1017 0.930 . S
C1003 H991 0.930 . S
C1003 C1004 1.399 . S
C1003 C1008 1.399 . S
C1004 C1003 1.399 . S
C1004 C1005 1.376 . S
C1005 H992 0.930 . S
C1005 C1004 1.376 . S
C1005 C1006 1.388 . S
C1006 H993 0.930 . S
C1006 C1005 1.388 . S
C1006 C1007 1.390 . S
C1007 C1006 1.390 . S
C1007 C1008 1.394 . S
C1007 C1013 1.465 . S
C1008 C1003 1.399 . S
C1008 C1007 1.394 . S
C1008 C1009 1.516 . S
C1009 C1008 1.516 . S
C1009 C1010 1.502 . S
C1009 C1011 1.561 . S
C1009 C1012 1.526 . S
C1010 H994 0.959 . S
C1010 H995 0.959 . S
C1010 H996 0.961 . S
C1010 C1009 1.502 . S
C1011 H997 0.960 . S
C1011 H998 0.961 . S
C1011 H999 0.959 . S
C1011 C1009 1.561 . S
C1012 C1009 1.526 . S
C1012 C1013 1.396 . S
C1012 C1017 1.390 . S
C1013 C1007 1.465 . S
C1013 C1012 1.396 . S
C1013 C1014 1.399 . S
C1014 H1000 0.929 . S
C1014 C1013 1.399 . S
C1014 C1015 1.385 . S
C1015 H1001 0.931 . S
C1015 C1014 1.385 . S
C1015 C1016 1.389 . S
C1016 C1015 1.389 . S
C1016 C1017 1.387 . S
C1017 H1002 0.930 . S
C1017 C1012 1.390 . S
C1017 C1016 1.387 . S
H1018 C1030 0.930 . S
H1019 C1032 0.930 . S
H1020 C1033 0.930 . S
H1021 C1037 0.959 . S
H1022 C1037 0.959 . S
H1023 C1037 0.961 . S
H1024 C1038 0.960 . S
H1025 C1038 0.961 . S
H1026 C1038 0.959 . S
H1027 C1041 0.929 . S
H1028 C1042 0.931 . S
H1029 C1044 0.930 . S
C1030 H1018 0.930 . S
C1030 C1031 1.399 . S
C1030 C1035 1.399 . S
C1031 C1030 1.399 . S
C1031 C1032 1.376 . S
C1032 H1019 0.930 . S
C1032 C1031 1.376 . S
C1032 C1033 1.388 . S
C1033 H1020 0.930 . S
C1033 C1032 1.388 . S
C1033 C1034 1.390 . S
C1034 C1033 1.390 . S
C1034 C1035 1.394 . S
C1034 C1040 1.465 . S
C1035 C1030 1.399 . S
C1035 C1034 1.394 . S
C1035 C1036 1.516 . S
C1036 C1035 1.516 . S
C1036 C1037 1.502 . S
C1036 C1038 1.561 . S
C1036 C1039 1.526 . S
C1037 H1021 0.959 . S
C1037 H1022 0.959 . S
C1037 H1023 0.961 . S
C1037 C1036 1.502 . S
C1038 H1024 0.960 . S
C1038 H1025 0.961 . S
C1038 H1026 0.959 . S
C1038 C1036 1.561 . S
C1039 C1036 1.526 . S
C1039 C1040 1.396 . S
C1039 C1044 1.390 . S
C1040 C1034 1.465 . S
C1040 C1039 1.396 . S
C1040 C1041 1.399 . S
C1041 H1027 0.929 . S
C1041 C1040 1.399 . S
C1041 C1042 1.385 . S
C1042 H1028 0.931 . S
C1042 C1041 1.385 . S
C1042 C1043 1.389 . S
C1043 C1042 1.389 . S
C1043 C1044 1.387 . S
C1044 H1029 0.930 . S
C1044 C1039 1.390 . S
C1044 C1043 1.387 . S
H1045 C1057 0.930 . S
H1046 C1059 0.930 . S
H1047 C1060 0.930 . S
H1048 C1064 0.959 . S
H1049 C1064 0.959 . S
H1050 C1064 0.961 . S
H1051 C1065 0.960 . S
H1052 C1065 0.961 . S
H1053 C1065 0.959 . S
H1054 C1068 0.929 . S
H1055 C1069 0.931 . S
H1056 C1071 0.930 . S
C1057 H1045 0.930 . S
C1057 C1058 1.399 . S
C1057 C1062 1.399 . S
C1058 C1057 1.399 . S
C1058 C1059 1.376 . S
C1059 H1046 0.930 . S
C1059 C1058 1.376 . S
C1059 C1060 1.388 . S
C1060 H1047 0.930 . S
C1060 C1059 1.388 . S
C1060 C1061 1.390 . S
C1061 C1060 1.390 . S
C1061 C1062 1.394 . S
C1061 C1067 1.465 . S
C1062 C1057 1.399 . S
C1062 C1061 1.394 . S
C1062 C1063 1.516 . S
C1063 C1062 1.516 . S
C1063 C1064 1.502 . S
C1063 C1065 1.561 . S
C1063 C1066 1.526 . S
C1064 H1048 0.959 . S
C1064 H1049 0.959 . S
C1064 H1050 0.961 . S
C1064 C1063 1.502 . S
C1065 H1051 0.960 . S
C1065 H1052 0.961 . S
C1065 H1053 0.959 . S
C1065 C1063 1.561 . S
C1066 C1063 1.526 . S
C1066 C1067 1.396 . S
C1066 C1071 1.390 . S
C1067 C1061 1.465 . S
C1067 C1066 1.396 . S
C1067 C1068 1.399 . S
C1068 H1054 0.929 . S
C1068 C1067 1.399 . S
C1068 C1069 1.385 . S
C1069 H1055 0.931 . S
C1069 C1068 1.385 . S
C1069 C1070 1.389 . S
C1070 C1069 1.389 . S
C1070 C1071 1.387 . S
C1071 H1056 0.930 . S
C1071 C1066 1.390 . S
C1071 C1070 1.387 . S
H1072 C1084 0.930 . S
H1073 C1086 0.930 . S
H1074 C1087 0.930 . S
H1075 C1091 0.959 . S
H1076 C1091 0.959 . S
H1077 C1091 0.961 . S
H1078 C1092 0.960 . S
H1079 C1092 0.961 . S
H1080 C1092 0.959 . S
H1081 C1095 0.929 . S
H1082 C1096 0.931 . S
H1083 C1098 0.930 . S
C1084 H1072 0.930 . S
C1084 C1085 1.399 . S
C1084 C1089 1.399 . S
C1085 C1084 1.399 . S
C1085 C1086 1.376 . S
C1086 H1073 0.930 . S
C1086 C1085 1.376 . S
C1086 C1087 1.388 . S
C1087 H1074 0.930 . S
C1087 C1086 1.388 . S
C1087 C1088 1.390 . S
C1088 C1087 1.390 . S
C1088 C1089 1.394 . S
C1088 C1094 1.465 . S
C1089 C1084 1.399 . S
C1089 C1088 1.394 . S
C1089 C1090 1.516 . S
C1090 C1089 1.516 . S
C1090 C1091 1.502 . S
C1090 C1092 1.561 . S
C1090 C1093 1.526 . S
C1091 H1075 0.959 . S
C1091 H1076 0.959 . S
C1091 H1077 0.961 . S
C1091 C1090 1.502 . S
C1092 H1078 0.960 . S
C1092 H1079 0.961 . S
C1092 H1080 0.959 . S
C1092 C1090 1.561 . S
C1093 C1090 1.526 . S
C1093 C1094 1.396 . S
C1093 C1098 1.390 . S
C1094 C1088 1.465 . S
C1094 C1093 1.396 . S
C1094 C1095 1.399 . S
C1095 H1081 0.929 . S
C1095 C1094 1.399 . S
C1095 C1096 1.385 . S
C1096 H1082 0.931 . S
C1096 C1095 1.385 . S
C1096 C1097 1.389 . S
C1097 C1096 1.389 . S
C1097 C1098 1.387 . S
C1098 H1083 0.930 . S
C1098 C1093 1.390 . S
C1098 C1097 1.387 . S
H1099 C1111 0.930 . S
H1100 C1113 0.930 . S
H1101 C1114 0.930 . S
H1102 C1118 0.959 . S
H1103 C1118 0.959 . S
H1104 C1118 0.961 . S
H1105 C1119 0.960 . S
H1106 C1119 0.961 . S
H1107 C1119 0.959 . S
H1108 C1122 0.929 . S
H1109 C1123 0.931 . S
H1110 C1125 0.930 . S
C1111 H1099 0.930 . S
C1111 C1112 1.399 . S
C1111 C1116 1.399 1_545 S
C1112 C1111 1.399 . S
C1112 C1113 1.376 . S
C1113 H1100 0.930 . S
C1113 C1112 1.376 . S
C1113 C1114 1.388 . S
C1114 H1101 0.930 . S
C1114 C1113 1.388 . S
C1114 C1115 1.390 1_545 S
C1115 C1114 1.390 1_565 S
C1115 C1116 1.394 . S
C1115 C1121 1.465 . S
C1116 C1111 1.399 1_565 S
C1116 C1115 1.394 . S
C1116 C1117 1.516 . S
C1117 C1116 1.516 . S
C1117 C1118 1.502 . S
C1117 C1119 1.561 . S
C1117 C1120 1.526 . S
C1118 H1102 0.959 . S
C1118 H1103 0.959 . S
C1118 H1104 0.961 . S
C1118 C1117 1.502 . S
C1119 H1105 0.960 . S
C1119 H1106 0.961 . S
C1119 H1107 0.959 . S
C1119 C1117 1.561 . S
C1120 C1117 1.526 . S
C1120 C1121 1.396 . S
C1120 C1125 1.390 . S
C1121 C1115 1.465 . S
C1121 C1120 1.396 . S
C1121 C1122 1.399 . S
C1122 H1108 0.929 . S
C1122 C1121 1.399 . S
C1122 C1123 1.385 . S
C1123 H1109 0.931 . S
C1123 C1122 1.385 . S
C1123 C1124 1.389 . S
C1124 C1123 1.389 . S
C1124 C1125 1.387 . S
C1125 H1110 0.930 . S
C1125 C1120 1.390 . S
C1125 C1124 1.387 . S
H1126 C1138 0.930 . S
H1127 C1140 0.930 . S
H1128 C1141 0.930 . S
H1129 C1145 0.959 . S
H1130 C1145 0.959 . S
H1131 C1145 0.961 . S
H1132 C1146 0.960 . S
H1133 C1146 0.961 . S
H1134 C1146 0.959 . S
H1135 C1149 0.929 . S
H1136 C1150 0.931 . S
H1137 C1152 0.930 . S
C1138 H1126 0.930 . S
C1138 C1139 1.399 . S
C1138 C1143 1.399 . S
C1139 C1138 1.399 . S
C1139 C1140 1.376 . S
C1140 H1127 0.930 . S
C1140 C1139 1.376 . S
C1140 C1141 1.388 . S
C1141 H1128 0.930 . S
C1141 C1140 1.388 . S
C1141 C1142 1.390 . S
C1142 C1141 1.390 . S
C1142 C1143 1.394 . S
C1142 C1148 1.465 . S
C1143 C1138 1.399 . S
C1143 C1142 1.394 . S
C1143 C1144 1.516 . S
C1144 C1143 1.516 . S
C1144 C1145 1.502 . S
C1144 C1146 1.561 . S
C1144 C1147 1.526 . S
C1145 H1129 0.959 . S
C1145 H1130 0.959 . S
C1145 H1131 0.961 . S
C1145 C1144 1.502 . S
C1146 H1132 0.960 . S
C1146 H1133 0.961 . S
C1146 H1134 0.959 . S
C1146 C1144 1.561 . S
C1147 C1144 1.526 . S
C1147 C1148 1.396 . S
C1147 C1152 1.390 . S
C1148 C1142 1.465 . S
C1148 C1147 1.396 . S
C1148 C1149 1.399 . S
C1149 H1135 0.929 . S
C1149 C1148 1.399 . S
C1149 C1150 1.385 . S
C1150 H1136 0.931 . S
C1150 C1149 1.385 . S
C1150 C1151 1.389 . S
C1151 C1150 1.389 . S
C1151 C1152 1.387 . S
C1152 H1137 0.930 . S
C1152 C1147 1.390 . S
C1152 C1151 1.387 . S
H1153 C1165 0.930 . S
H1154 C1167 0.930 . S
H1155 C1168 0.930 . S
H1156 C1172 0.959 . S
H1157 C1172 0.959 . S
H1158 C1172 0.961 1_565 S
H1159 C1173 0.960 . S
H1160 C1173 0.969 . S
H1161 C1173 0.959 . S
H1162 C1176 0.929 . S
H1163 C1177 0.931 . S
H1164 C1179 0.930 . S
C1165 H1153 0.930 . S
C1165 C1166 1.399 . S
C1165 C1170 1.399 . S
C1166 C1165 1.399 . S
C1166 C1167 1.376 . S
C1167 H1154 0.930 . S
C1167 C1166 1.376 . S
C1167 C1168 1.388 1_565 S
C1168 H1155 0.930 . S
C1168 C1167 1.388 1_545 S
C1168 C1169 1.390 . S
C1169 C1168 1.390 . S
C1169 C1170 1.394 1_545 S
C1169 C1175 1.465 . S
C1170 C1165 1.399 . S
C1170 C1169 1.394 1_565 S
C1170 C1171 1.516 1_565 S
C1171 C1170 1.516 1_545 S
C1171 C1172 1.502 . S
C1171 C1173 1.561 1_545 S
C1171 C1174 1.526 . S
C1172 H1156 0.959 . S
C1172 H1157 0.959 . S
C1172 H1158 0.961 1_545 S
C1172 C1171 1.502 . S
C1173 H1159 0.960 . S
C1173 H1160 0.969 . S
C1173 H1161 0.959 . S
C1173 C1171 1.561 1_565 S
C1174 C1171 1.526 . S
C1174 C1175 1.396 . S
C1174 C1179 1.390 . S
C1175 C1169 1.465 . S
C1175 C1174 1.396 . S
C1175 C1176 1.399 . S
C1176 H1162 0.929 . S
C1176 C1175 1.399 . S
C1176 C1177 1.385 . S
C1177 H1163 0.931 . S
C1177 C1176 1.385 . S
C1177 C1178 1.389 . S
C1178 C1177 1.389 . S
C1178 C1179 1.387 . S
C1179 H1164 0.930 . S
C1179 C1174 1.390 . S
C1179 C1178 1.387 . S
H1180 C1192 0.930 . S
H1181 C1194 0.930 . S
H1182 C1195 0.930 . S
H1183 C1199 0.959 . S
H1184 C1199 0.959 . S
H1185 C1199 0.961 . S
H1186 C1200 0.960 . S
H1187 C1200 0.961 . S
H1188 C1200 0.959 . S
H1189 C1203 0.929 . S
H1190 C1204 0.931 . S
H1191 C1206 0.930 . S
C1192 H1180 0.930 . S
C1192 C1193 1.399 . S
C1192 C1197 1.399 . S
C1193 C1192 1.399 . S
C1193 C1194 1.376 . S
C1194 H1181 0.930 . S
C1194 C1193 1.376 . S
C1194 C1195 1.388 . S
C1195 H1182 0.930 . S
C1195 C1194 1.388 . S
C1195 C1196 1.390 . S
C1196 C1195 1.390 . S
C1196 C1197 1.394 . S
C1196 C1202 1.465 . S
C1197 C1192 1.399 . S
C1197 C1196 1.394 . S
C1197 C1198 1.516 . S
C1198 C1197 1.516 . S
C1198 C1199 1.502 . S
C1198 C1200 1.561 . S
C1198 C1201 1.526 . S
C1199 H1183 0.959 . S
C1199 H1184 0.959 . S
C1199 H1185 0.961 . S
C1199 C1198 1.502 . S
C1200 H1186 0.960 . S
C1200 H1187 0.961 . S
C1200 H1188 0.959 . S
C1200 C1198 1.561 . S
C1201 C1198 1.526 . S
C1201 C1202 1.396 . S
C1201 C1206 1.390 . S
C1202 C1196 1.465 . S
C1202 C1201 1.396 . S
C1202 C1203 1.399 . S
C1203 H1189 0.929 . S
C1203 C1202 1.399 . S
C1203 C1204 1.385 . S
C1204 H1190 0.931 . S
C1204 C1203 1.385 . S
C1204 C1205 1.389 . S
C1205 C1204 1.389 . S
C1205 C1206 1.387 . S
C1206 H1191 0.930 . S
C1206 C1201 1.390 . S
C1206 C1205 1.387 . S
H1207 C1219 0.930 . S
H1208 C1221 0.930 . S
H1209 C1222 0.930 . S
H1210 C1226 0.959 . S
H1211 C1226 0.959 . S
H1212 C1226 0.961 . S
H1213 C1227 0.960 . S
H1214 C1227 0.961 . S
H1215 C1227 0.959 . S
H1216 C1230 0.929 . S
H1217 C1231 0.931 . S
H1218 C1233 0.930 . S
C1219 H1207 0.930 . S
C1219 C1220 1.399 . S
C1219 C1224 1.399 . S
C1220 C1219 1.399 . S
C1220 C1221 1.376 . S
C1221 H1208 0.930 . S
C1221 C1220 1.376 . S
C1221 C1222 1.388 . S
C1222 H1209 0.930 . S
C1222 C1221 1.388 . S
C1222 C1223 1.390 . S
C1223 C1222 1.390 . S
C1223 C1224 1.394 . S
C1223 C1229 1.465 . S
C1224 C1219 1.399 . S
C1224 C1223 1.394 . S
C1224 C1225 1.516 . S
C1225 C1224 1.516 . S
C1225 C1226 1.502 . S
C1225 C1227 1.561 . S
C1225 C1228 1.526 . S
C1226 H1210 0.959 . S
C1226 H1211 0.959 . S
C1226 H1212 0.961 . S
C1226 C1225 1.502 . S
C1227 H1213 0.960 . S
C1227 H1214 0.961 . S
C1227 H1215 0.959 . S
C1227 C1225 1.561 . S
C1228 C1225 1.526 . S
C1228 C1229 1.396 . S
C1228 C1233 1.390 1_545 S
C1229 C1223 1.465 . S
C1229 C1228 1.396 . S
C1229 C1230 1.399 1_545 S
C1230 H1216 0.929 . S
C1230 C1229 1.399 1_565 S
C1230 C1231 1.385 . S
C1231 H1217 0.931 . S
C1231 C1230 1.385 . S
C1231 C1232 1.389 . S
C1232 C1231 1.389 . S
C1232 C1233 1.387 . S
C1233 H1218 0.930 . S
C1233 C1228 1.390 1_565 S
C1233 C1232 1.387 . S
H1234 C1246 0.930 . S
H1235 C1248 0.930 . S
H1236 C1249 0.930 . S
H1237 C1253 0.959 . S
H1238 C1253 0.959 . S
H1239 C1253 0.961 . S
H1240 C1254 0.960 . S
H1241 C1254 0.961 . S
H1242 C1254 0.959 . S
H1243 C1257 0.929 . S
H1244 C1258 0.934 . S
H1245 C1260 0.930 . S
C1246 H1234 0.930 . S
C1246 C1247 1.399 . S
C1246 C1251 1.399 . S
C1247 C1246 1.399 . S
C1247 C1248 1.376 . S
C1248 H1235 0.930 . S
C1248 C1247 1.376 . S
C1248 C1249 1.388 . S
C1249 H1236 0.930 . S
C1249 C1248 1.388 . S
C1249 C1250 1.390 . S
C1250 C1249 1.390 . S
C1250 C1251 1.394 . S
C1250 C1256 1.465 . S
C1251 C1246 1.399 . S
C1251 C1250 1.394 . S
C1251 C1252 1.516 . S
C1252 C1251 1.516 . S
C1252 C1253 1.502 . S
C1252 C1254 1.561 . S
C1252 C1255 1.526 . S
C1253 H1237 0.959 . S
C1253 H1238 0.959 . S
C1253 H1239 0.961 . S
C1253 C1252 1.502 . S
C1254 H1240 0.960 . S
C1254 H1241 0.961 . S
C1254 H1242 0.959 . S
C1254 C1252 1.561 . S
C1255 C1252 1.526 . S
C1255 C1256 1.396 . S
C1255 C1260 1.390 . S
C1256 C1250 1.465 . S
C1256 C1255 1.396 . S
C1256 C1257 1.399 . S
C1257 H1243 0.929 . S
C1257 C1256 1.399 . S
C1257 C1258 1.385 . S
C1258 H1244 0.934 . S
C1258 C1257 1.385 . S
C1258 C1259 1.389 . S
C1259 C1258 1.389 . S
C1259 C1260 1.387 . S
C1260 H1245 0.930 . S
C1260 C1255 1.390 . S
C1260 C1259 1.387 . S
H1261 C1273 0.930 . S
H1262 C1275 0.930 . S
H1263 C1276 0.930 . S
H1264 C1280 0.959 . S
H1265 C1280 0.959 . S
H1266 C1280 0.961 . S
H1267 C1281 0.960 . S
H1268 C1281 0.961 . S
H1269 C1281 0.959 . S
H1270 C1284 0.929 . S
H1271 C1285 0.931 . S
H1272 C1287 0.930 . S
C1273 H1261 0.930 . S
C1273 C1274 1.399 . S
C1273 C1278 1.399 1_545 S
C1274 C1273 1.399 . S
C1274 C1275 1.376 . S
C1275 H1262 0.930 . S
C1275 C1274 1.376 . S
C1275 C1276 1.388 . S
C1276 H1263 0.930 . S
C1276 C1275 1.388 . S
C1276 C1277 1.390 1_545 S
C1277 C1276 1.390 1_565 S
C1277 C1278 1.394 . S
C1277 C1283 1.465 . S
C1278 C1273 1.399 1_565 S
C1278 C1277 1.394 . S
C1278 C1279 1.516 . S
C1279 C1278 1.516 . S
C1279 C1280 1.502 . S
C1279 C1281 1.561 . S
C1279 C1282 1.526 . S
C1280 H1264 0.959 . S
C1280 H1265 0.959 . S
C1280 H1266 0.961 . S
C1280 C1279 1.502 . S
C1281 H1267 0.960 . S
C1281 H1268 0.961 . S
C1281 H1269 0.959 . S
C1281 C1279 1.561 . S
C1282 C1279 1.526 . S
C1282 C1283 1.396 . S
C1282 C1287 1.390 . S
C1283 C1277 1.465 . S
C1283 C1282 1.396 . S
C1283 C1284 1.399 . S
C1284 H1270 0.929 . S
C1284 C1283 1.399 . S
C1284 C1285 1.385 . S
C1285 H1271 0.931 . S
C1285 C1284 1.385 . S
C1285 C1286 1.389 . S
C1286 C1285 1.389 . S
C1286 C1287 1.387 . S
C1287 H1272 0.930 . S
C1287 C1282 1.390 . S
C1287 C1286 1.387 . S
H1288 C1300 0.930 . S
H1289 C1302 0.930 . S
H1290 C1303 0.930 . S
H1291 C1307 0.959 . S
H1292 C1307 0.959 . S
H1293 C1307 0.961 . S
H1294 C1308 0.960 . S
H1295 C1308 0.961 . S
H1296 C1308 0.959 . S
H1297 C1311 0.929 . S
H1298 C1312 0.931 . S
H1299 C1314 0.930 . S
C1300 H1288 0.930 . S
C1300 C1301 1.399 . S
C1300 C1305 1.399 . S
C1301 C1300 1.399 . S
C1301 C1302 1.376 . S
C1302 H1289 0.930 . S
C1302 C1301 1.376 . S
C1302 C1303 1.388 . S
C1303 H1290 0.930 . S
C1303 C1302 1.388 . S
C1303 C1304 1.390 . S
C1304 C1303 1.390 . S
C1304 C1305 1.394 . S
C1304 C1310 1.465 . S
C1305 C1300 1.399 . S
C1305 C1304 1.394 . S
C1305 C1306 1.516 . S
C1306 C1305 1.516 . S
C1306 C1307 1.502 . S
C1306 C1308 1.561 . S
C1306 C1309 1.526 . S
C1307 H1291 0.959 . S
C1307 H1292 0.959 . S
C1307 H1293 0.961 . S
C1307 C1306 1.502 . S
C1308 H1294 0.960 . S
C1308 H1295 0.961 . S
C1308 H1296 0.959 . S
C1308 C1306 1.561 . S
C1309 C1306 1.526 . S
C1309 C1310 1.396 . S
C1309 C1314 1.390 . S
C1310 C1304 1.465 . S
C1310 C1309 1.396 . S
C1310 C1311 1.399 . S
C1311 H1297 0.929 . S
C1311 C1310 1.399 . S
C1311 C1312 1.385 . S
C1312 H1298 0.931 . S
C1312 C1311 1.385 . S
C1312 C1313 1.389 . S
C1313 C1312 1.389 . S
C1313 C1314 1.387 . S
C1314 H1299 0.930 . S
C1314 C1309 1.390 . S
C1314 C1313 1.387 . S
H1315 C1327 0.930 . S
H1316 C1329 0.930 . S
H1317 C1330 0.930 . S
H1318 C1334 0.959 . S
H1319 C1334 0.959 . S
H1320 C1334 0.961 . S
H1321 C1335 0.960 . S
H1322 C1335 0.961 . S
H1323 C1335 0.959 . S
H1324 C1338 0.929 . S
H1325 C1339 0.931 . S
H1326 C1341 0.930 1_556 S
C1327 H1315 0.930 . S
C1327 C1328 1.399 . S
C1327 C1332 1.399 . S
C1328 C1327 1.399 . S
C1328 C1329 1.376 . S
C1329 H1316 0.930 . S
C1329 C1328 1.376 . S
C1329 C1330 1.388 . S
C1330 H1317 0.930 . S
C1330 C1329 1.388 . S
C1330 C1331 1.390 . S
C1331 C1330 1.390 . S
C1331 C1332 1.394 . S
C1331 C1337 1.465 . S
C1332 C1327 1.399 . S
C1332 C1331 1.394 . S
C1332 C1333 1.516 . S
C1333 C1332 1.516 . S
C1333 C1334 1.502 . S
C1333 C1335 1.561 . S
C1333 C1336 1.526 . S
C1334 H1318 0.959 . S
C1334 H1319 0.959 . S
C1334 H1320 0.961 . S
C1334 C1333 1.502 . S
C1335 H1321 0.960 . S
C1335 H1322 0.961 . S
C1335 H1323 0.959 . S
C1335 C1333 1.561 . S
C1336 C1333 1.526 . S
C1336 C1337 1.396 . S
C1336 C1341 1.390 . S
C1337 C1331 1.465 . S
C1337 C1336 1.396 . S
C1337 C1338 1.399 . S
C1338 H1324 0.929 . S
C1338 C1337 1.399 . S
C1338 C1339 1.385 . S
C1339 H1325 0.931 . S
C1339 C1338 1.385 . S
C1339 C1340 1.389 . S
C1340 C1339 1.389 . S
C1340 C1341 1.387 . S
C1341 H1326 0.930 1_554 S
C1341 C1336 1.390 . S
C1341 C1340 1.387 . S
H1342 C1354 0.930 . S
H1343 C1356 0.930 . S
H1344 C1357 0.930 . S
H1345 C1361 0.940 1_455 S
H1346 C1361 0.942 1_455 S
H1347 C1361 0.971 . S
H1348 C1362 0.960 . S
H1349 C1362 0.961 . S
H1350 C1362 0.959 . S
H1351 C1365 0.929 . S
H1352 C1366 0.931 . S
H1353 C1368 0.930 1_455 S
C1354 H1342 0.930 . S
C1354 C1355 1.399 . S
C1354 C1359 1.399 . S
C1355 C1354 1.399 . S
C1355 C1356 1.376 . S
C1356 H1343 0.930 . S
C1356 C1355 1.376 . S
C1356 C1357 1.388 . S
C1357 H1344 0.930 . S
C1357 C1356 1.388 . S
C1357 C1358 1.390 . S
C1358 C1357 1.390 . S
C1358 C1359 1.394 . S
C1358 C1364 1.465 . S
C1359 C1354 1.399 . S
C1359 C1358 1.394 . S
C1359 C1360 1.516 . S
C1360 C1359 1.516 . S
C1360 C1361 1.530 . S
C1360 C1362 1.561 . S
C1360 C1363 1.526 . S
C1361 H1345 0.940 1_655 S
C1361 H1346 0.942 1_655 S
C1361 H1347 0.971 . S
C1361 C1360 1.530 . S
C1362 H1348 0.960 . S
C1362 H1349 0.961 . S
C1362 H1350 0.959 . S
C1362 C1360 1.561 . S
C1363 C1360 1.526 . S
C1363 C1364 1.396 . S
C1363 C1368 1.390 . S
C1364 C1358 1.465 . S
C1364 C1363 1.396 . S
C1364 C1365 1.399 . S
C1365 H1351 0.929 . S
C1365 C1364 1.399 . S
C1365 C1366 1.385 . S
C1366 H1352 0.931 . S
C1366 C1365 1.385 . S
C1366 C1367 1.389 1_655 S
C1367 C1366 1.389 1_455 S
C1367 C1368 1.387 1_455 S
C1368 H1353 0.930 1_655 S
C1368 C1363 1.390 . S
C1368 C1367 1.387 1_655 S
H1369 C1381 0.930 . S
H1370 C1383 0.930 . S
H1371 C1384 0.930 . S
H1372 C1388 0.959 . S
H1373 C1388 0.959 . S
H1374 C1388 0.961 . S
H1375 C1389 0.960 . S
H1376 C1389 0.961 . S
H1377 C1389 0.959 . S
H1378 C1392 0.929 . S
H1379 C1393 0.931 . S
H1380 C1395 0.930 . S
C1381 H1369 0.930 . S
C1381 C1382 1.399 . S
C1381 C1386 1.399 . S
C1382 C1381 1.399 . S
C1382 C1383 1.376 . S
C1383 H1370 0.930 . S
C1383 C1382 1.376 . S
C1383 C1384 1.388 . S
C1384 H1371 0.930 . S
C1384 C1383 1.388 . S
C1384 C1385 1.390 . S
C1385 C1384 1.390 . S
C1385 C1386 1.394 . S
C1385 C1391 1.465 . S
C1386 C1381 1.399 . S
C1386 C1385 1.394 . S
C1386 C1387 1.516 . S
C1387 C1386 1.516 . S
C1387 C1388 1.502 . S
C1387 C1389 1.561 . S
C1387 C1390 1.526 . S
C1388 H1372 0.959 . S
C1388 H1373 0.959 . S
C1388 H1374 0.961 . S
C1388 C1387 1.502 . S
C1389 H1375 0.960 . S
C1389 H1376 0.961 . S
C1389 H1377 0.959 . S
C1389 C1387 1.561 . S
C1390 C1387 1.526 . S
C1390 C1391 1.396 . S
C1390 C1395 1.390 . S
C1391 C1385 1.465 . S
C1391 C1390 1.396 . S
C1391 C1392 1.399 . S
C1392 H1378 0.929 . S
C1392 C1391 1.399 . S
C1392 C1393 1.385 . S
C1393 H1379 0.931 . S
C1393 C1392 1.385 . S
C1393 C1394 1.389 . S
C1394 C1393 1.389 . S
C1394 C1395 1.387 . S
C1395 H1380 0.930 . S
C1395 C1390 1.390 . S
C1395 C1394 1.387 . S
H1396 C1408 0.930 . S
H1397 C1410 0.930 . S
H1398 C1411 0.930 . S
H1399 C1415 0.959 . S
H1400 C1415 0.959 . S
H1401 C1415 0.961 . S
H1402 C1416 0.960 . S
H1403 C1416 0.961 . S
H1404 C1416 0.959 . S
H1405 C1419 0.929 . S
H1406 C1420 0.931 . S
H1407 C1422 0.930 . S
C1408 H1396 0.930 . S
C1408 C1409 1.399 . S
C1408 C1413 1.399 . S
C1409 C1408 1.399 . S
C1409 C1410 1.376 . S
C1410 H1397 0.930 . S
C1410 C1409 1.376 . S
C1410 C1411 1.388 . S
C1411 H1398 0.930 . S
C1411 C1410 1.388 . S
C1411 C1412 1.390 . S
C1412 C1411 1.390 . S
C1412 C1413 1.394 . S
C1412 C1418 1.465 . S
C1413 C1408 1.399 . S
C1413 C1412 1.394 . S
C1413 C1414 1.516 . S
C1414 C1413 1.516 . S
C1414 C1415 1.502 . S
C1414 C1416 1.561 . S
C1414 C1417 1.526 . S
C1415 H1399 0.959 . S
C1415 H1400 0.959 . S
C1415 H1401 0.961 . S
C1415 C1414 1.502 . S
C1416 H1402 0.960 . S
C1416 H1403 0.961 . S
C1416 H1404 0.959 . S
C1416 C1414 1.561 . S
C1417 C1414 1.526 . S
C1417 C1418 1.396 . S
C1417 C1422 1.390 . S
C1418 C1412 1.465 . S
C1418 C1417 1.396 . S
C1418 C1419 1.399 . S
C1419 H1405 0.929 . S
C1419 C1418 1.399 . S
C1419 C1420 1.385 . S
C1420 H1406 0.931 . S
C1420 C1419 1.385 . S
C1420 C1421 1.389 . S
C1421 C1420 1.389 . S
C1421 C1422 1.387 . S
C1422 H1407 0.930 . S
C1422 C1417 1.390 . S
C1422 C1421 1.387 . S
H1423 C1435 0.930 . S
H1424 C1437 0.930 . S
H1425 C1438 0.930 . S
H1426 C1442 0.959 . S
H1427 C1442 0.959 . S
H1428 C1442 0.961 . S
H1429 C1443 0.960 . S
H1430 C1443 0.961 . S
H1431 C1443 0.959 . S
H1432 C1446 0.929 . S
H1433 C1447 0.931 . S
H1434 C1449 0.930 . S
C1435 H1423 0.930 . S
C1435 C1436 1.399 . S
C1435 C1440 1.399 . S
C1436 C1435 1.399 . S
C1436 C1437 1.376 . S
C1437 H1424 0.930 . S
C1437 C1436 1.376 . S
C1437 C1438 1.388 . S
C1438 H1425 0.930 . S
C1438 C1437 1.388 . S
C1438 C1439 1.390 . S
C1439 C1438 1.390 . S
C1439 C1440 1.394 . S
C1439 C1445 1.465 . S
C1440 C1435 1.399 . S
C1440 C1439 1.394 . S
C1440 C1441 1.516 . S
C1441 C1440 1.516 . S
C1441 C1442 1.502 . S
C1441 C1443 1.561 . S
C1441 C1444 1.526 . S
C1442 H1426 0.959 . S
C1442 H1427 0.959 . S
C1442 H1428 0.961 . S
C1442 C1441 1.502 . S
C1443 H1429 0.960 . S
C1443 H1430 0.961 . S
C1443 H1431 0.959 . S
C1443 C1441 1.561 . S
C1444 C1441 1.526 . S
C1444 C1445 1.396 . S
C1444 C1449 1.390 . S
C1445 C1439 1.465 . S
C1445 C1444 1.396 . S
C1445 C1446 1.399 . S
C1446 H1432 0.929 . S
C1446 C1445 1.399 . S
C1446 C1447 1.385 . S
C1447 H1433 0.931 . S
C1447 C1446 1.385 . S
C1447 C1448 1.389 . S
C1448 C1447 1.389 . S
C1448 C1449 1.387 . S
C1449 H1434 0.930 . S
C1449 C1444 1.390 . S
C1449 C1448 1.387 . S
H1450 C1462 0.930 . S
H1451 C1464 0.930 . S
H1452 C1465 0.930 . S
H1453 C1469 0.959 . S
H1454 C1469 0.959 . S
H1455 C1469 0.961 . S
H1456 C1470 0.960 . S
H1457 C1470 0.961 . S
H1458 C1470 0.959 . S
H1459 C1473 0.929 . S
H1460 C1474 0.931 . S
H1461 C1476 0.930 . S
C1462 H1450 0.930 . S
C1462 C1463 1.399 . S
C1462 C1467 1.399 . S
C1463 C1462 1.399 . S
C1463 C1464 1.376 . S
C1464 H1451 0.930 . S
C1464 C1463 1.376 . S
C1464 C1465 1.388 . S
C1465 H1452 0.930 . S
C1465 C1464 1.388 . S
C1465 C1466 1.390 . S
C1466 C1465 1.390 . S
C1466 C1467 1.394 . S
C1466 C1472 1.465 . S
C1467 C1462 1.399 . S
C1467 C1466 1.394 . S
C1467 C1468 1.516 . S
C1468 C1467 1.516 . S
C1468 C1469 1.502 . S
C1468 C1470 1.561 . S
C1468 C1471 1.526 . S
C1469 H1453 0.959 . S
C1469 H1454 0.959 . S
C1469 H1455 0.961 . S
C1469 C1468 1.502 . S
C1470 H1456 0.960 . S
C1470 H1457 0.961 . S
C1470 H1458 0.959 . S
C1470 C1468 1.561 . S
C1471 C1468 1.526 . S
C1471 C1472 1.396 . S
C1471 C1476 1.390 . S
C1472 C1466 1.465 . S
C1472 C1471 1.396 . S
C1472 C1473 1.399 1_455 S
C1473 H1459 0.929 . S
C1473 C1472 1.399 1_655 S
C1473 C1474 1.385 . S
C1474 H1460 0.931 . S
C1474 C1473 1.385 . S
C1474 C1475 1.389 . S
C1475 C1474 1.389 . S
C1475 C1476 1.387 1_655 S
C1476 H1461 0.930 . S
C1476 C1471 1.390 . S
C1476 C1475 1.387 1_455 S
H1477 C1489 0.930 . S
H1478 C1491 0.930 . S
H1479 C1492 0.930 . S
H1480 C1496 0.959 . S
H1481 C1496 0.959 . S
H1482 C1496 0.961 . S
H1483 C1497 0.960 . S
H1484 C1497 0.961 . S
H1485 C1497 0.959 . S
H1486 C1500 0.929 . S
H1487 C1501 0.931 . S
H1488 C1503 0.930 . S
C1489 H1477 0.930 . S
C1489 C1490 1.399 . S
C1489 C1494 1.399 . S
C1490 C1489 1.399 . S
C1490 C1491 1.376 . S
C1491 H1478 0.930 . S
C1491 C1490 1.376 . S
C1491 C1492 1.388 . S
C1492 H1479 0.930 . S
C1492 C1491 1.388 . S
C1492 C1493 1.390 . S
C1493 C1492 1.390 . S
C1493 C1494 1.394 . S
C1493 C1499 1.465 . S
C1494 C1489 1.399 . S
C1494 C1493 1.394 . S
C1494 C1495 1.516 . S
C1495 C1494 1.516 . S
C1495 C1496 1.502 . S
C1495 C1497 1.561 . S
C1495 C1498 1.526 . S
C1496 H1480 0.959 . S
C1496 H1481 0.959 . S
C1496 H1482 0.961 . S
C1496 C1495 1.502 . S
C1497 H1483 0.960 . S
C1497 H1484 0.961 . S
C1497 H1485 0.959 . S
C1497 C1495 1.561 . S
C1498 C1495 1.526 . S
C1498 C1499 1.396 . S
C1498 C1503 1.390 . S
C1499 C1493 1.465 . S
C1499 C1498 1.396 . S
C1499 C1500 1.399 . S
C1500 H1486 0.929 . S
C1500 C1499 1.399 . S
C1500 C1501 1.385 . S
C1501 H1487 0.931 . S
C1501 C1500 1.385 . S
C1501 C1502 1.389 . S
C1502 C1501 1.389 . S
C1502 C1503 1.387 . S
C1503 H1488 0.930 . S
C1503 C1498 1.390 . S
C1503 C1502 1.387 . S
H1504 C1516 0.944 . S
H1505 C1518 0.930 . S
H1506 C1519 0.930 . S
H1507 C1523 0.959 . S
H1508 C1523 0.952 1_455 S
H1509 C1523 0.961 . S
H1510 C1524 0.960 . S
H1511 C1524 0.961 . S
H1512 C1524 0.959 . S
H1513 C1527 0.929 . S
H1514 C1528 0.931 . S
H1515 C1530 0.930 . S
C1516 H1504 0.944 . S
C1516 C1517 1.399 . S
C1516 C1521 1.384 1_655 S
C1517 C1516 1.399 . S
C1517 C1518 1.362 1_655 S
C1518 H1505 0.930 . S
C1518 C1517 1.362 1_455 S
C1518 C1519 1.388 . S
C1519 H1506 0.930 . S
C1519 C1518 1.388 . S
C1519 C1520 1.390 . S
C1520 C1519 1.390 . S
C1520 C1521 1.394 . S
C1520 C1526 1.465 . S
C1521 C1516 1.384 1_455 S
C1521 C1520 1.394 . S
C1521 C1522 1.516 . S
C1522 C1521 1.516 . S
C1522 C1523 1.502 1_455 S
C1522 C1524 1.561 . S
C1522 C1525 1.526 . S
C1523 H1507 0.959 . S
C1523 H1508 0.952 1_655 S
C1523 H1509 0.961 . S
C1523 C1522 1.502 1_655 S
C1524 H1510 0.960 . S
C1524 H1511 0.961 . S
C1524 H1512 0.959 . S
C1524 C1522 1.561 . S
C1525 C1522 1.526 . S
C1525 C1526 1.396 . S
C1525 C1530 1.390 . S
C1526 C1520 1.465 . S
C1526 C1525 1.396 . S
C1526 C1527 1.399 . S
C1527 H1513 0.929 . S
C1527 C1526 1.399 . S
C1527 C1528 1.385 . S
C1528 H1514 0.931 . S
C1528 C1527 1.385 . S
C1528 C1529 1.389 . S
C1529 C1528 1.389 . S
C1529 C1530 1.387 . S
C1530 H1515 0.930 . S
C1530 C1525 1.390 . S
C1530 C1529 1.387 . S
H1531 C1543 0.930 . S
H1532 C1545 0.930 . S
H1533 C1546 0.930 . S
H1534 C1550 0.959 . S
H1535 C1550 0.959 . S
H1536 C1550 0.961 . S
H1537 C1551 0.960 . S
H1538 C1551 0.961 . S
H1539 C1551 0.959 . S
H1540 C1554 0.929 . S
H1541 C1555 0.931 . S
H1542 C1557 0.930 . S
C1543 H1531 0.930 . S
C1543 C1544 1.399 . S
C1543 C1548 1.399 . S
C1544 C1543 1.399 . S
C1544 C1545 1.376 . S
C1545 H1532 0.930 . S
C1545 C1544 1.376 . S
C1545 C1546 1.388 . S
C1546 H1533 0.930 . S
C1546 C1545 1.388 . S
C1546 C1547 1.390 . S
C1547 C1546 1.390 . S
C1547 C1548 1.394 . S
C1547 C1553 1.465 . S
C1548 C1543 1.399 . S
C1548 C1547 1.394 . S
C1548 C1549 1.516 . S
C1549 C1548 1.516 . S
C1549 C1550 1.502 . S
C1549 C1551 1.561 . S
C1549 C1552 1.526 . S
C1550 H1534 0.959 . S
C1550 H1535 0.959 . S
C1550 H1536 0.961 . S
C1550 C1549 1.502 . S
C1551 H1537 0.960 . S
C1551 H1538 0.961 . S
C1551 H1539 0.959 . S
C1551 C1549 1.561 . S
C1552 C1549 1.526 . S
C1552 C1553 1.396 . S
C1552 C1557 1.390 . S
C1553 C1547 1.465 . S
C1553 C1552 1.396 . S
C1553 C1554 1.399 . S
C1554 H1540 0.929 . S
C1554 C1553 1.399 . S
C1554 C1555 1.385 . S
C1555 H1541 0.931 . S
C1555 C1554 1.385 . S
C1555 C1556 1.389 . S
C1556 C1555 1.389 . S
C1556 C1557 1.387 . S
C1557 H1542 0.930 . S
C1557 C1552 1.390 . S
C1557 C1556 1.387 . S
H1558 C1570 0.930 . S
H1559 C1572 0.930 . S
H1560 C1573 0.930 . S
H1561 C1577 0.959 . S
H1562 C1577 0.959 . S
H1563 C1577 0.961 . S
H1564 C1578 0.960 . S
H1565 C1578 0.961 . S
H1566 C1578 0.959 . S
H1567 C1581 0.929 . S
H1568 C1582 0.931 . S
H1569 C1584 0.930 . S
C1570 H1558 0.930 . S
C1570 C1571 1.399 . S
C1570 C1575 1.399 . S
C1571 C1570 1.399 . S
C1571 C1572 1.376 . S
C1572 H1559 0.930 . S
C1572 C1571 1.376 . S
C1572 C1573 1.388 . S
C1573 H1560 0.930 . S
C1573 C1572 1.388 . S
C1573 C1574 1.390 . S
C1574 C1573 1.390 . S
C1574 C1575 1.394 . S
C1574 C1580 1.465 . S
C1575 C1570 1.399 . S
C1575 C1574 1.394 . S
C1575 C1576 1.516 . S
C1576 C1575 1.516 . S
C1576 C1577 1.502 . S
C1576 C1578 1.561 . S
C1576 C1579 1.526 . S
C1577 H1561 0.959 . S
C1577 H1562 0.959 . S
C1577 H1563 0.961 . S
C1577 C1576 1.502 . S
C1578 H1564 0.960 . S
C1578 H1565 0.961 . S
C1578 H1566 0.959 . S
C1578 C1576 1.561 . S
C1579 C1576 1.526 . S
C1579 C1580 1.396 . S
C1579 C1584 1.390 . S
C1580 C1574 1.465 . S
C1580 C1579 1.396 . S
C1580 C1581 1.399 . S
C1581 H1567 0.929 . S
C1581 C1580 1.399 . S
C1581 C1582 1.385 . S
C1582 H1568 0.931 . S
C1582 C1581 1.385 . S
C1582 C1583 1.389 . S
C1583 C1582 1.389 . S
C1583 C1584 1.387 . S
C1584 H1569 0.930 . S
C1584 C1579 1.390 . S
C1584 C1583 1.387 . S
H1585 C1597 0.930 . S
H1586 C1599 0.930 1_556 S
H1587 C1600 0.930 . S
H1588 C1604 0.959 . S
H1589 C1604 0.959 . S
H1590 C1604 0.961 . S
H1591 C1605 0.960 . S
H1592 C1605 0.961 . S
H1593 C1605 0.959 . S
H1594 C1608 0.929 . S
H1595 C1609 0.931 . S
H1596 C1611 0.930 . S
C1597 H1585 0.930 . S
C1597 C1598 1.399 . S
C1597 C1602 1.399 . S
C1598 C1597 1.399 . S
C1598 C1599 1.376 . S
C1599 H1586 0.930 1_554 S
C1599 C1598 1.376 . S
C1599 C1600 1.388 . S
C1600 H1587 0.930 . S
C1600 C1599 1.388 . S
C1600 C1601 1.390 . S
C1601 C1600 1.390 . S
C1601 C1602 1.394 . S
C1601 C1607 1.465 . S
C1602 C1597 1.399 . S
C1602 C1601 1.394 . S
C1602 C1603 1.516 . S
C1603 C1602 1.516 . S
C1603 C1604 1.502 . S
C1603 C1605 1.561 . S
C1603 C1606 1.526 . S
C1604 H1588 0.959 . S
C1604 H1589 0.959 . S
C1604 H1590 0.961 . S
C1604 C1603 1.502 . S
C1605 H1591 0.960 . S
C1605 H1592 0.961 . S
C1605 H1593 0.959 . S
C1605 C1603 1.561 . S
C1606 C1603 1.526 . S
C1606 C1607 1.396 . S
C1606 C1611 1.390 . S
C1607 C1601 1.465 . S
C1607 C1606 1.396 . S
C1607 C1608 1.399 . S
C1608 H1594 0.929 . S
C1608 C1607 1.399 . S
C1608 C1609 1.385 . S
C1609 H1595 0.931 . S
C1609 C1608 1.385 . S
C1609 C1610 1.389 . S
C1610 C1609 1.389 . S
C1610 C1611 1.387 . S
C1611 H1596 0.930 . S
C1611 C1606 1.390 . S
C1611 C1610 1.387 . S
H1612 C1624 0.930 1_455 S
H1613 C1626 0.930 . S
H1614 C1627 0.930 . S
H1615 C1631 0.959 1_455 S
H1616 C1631 0.959 . S
H1617 C1631 0.961 1_455 S
H1618 C1632 0.960 . S
H1619 C1632 0.961 . S
H1620 C1632 0.959 . S
H1621 C1635 0.929 . S
H1622 C1636 0.931 . S
H1623 C1638 0.930 . S
C1624 H1612 0.930 1_655 S
C1624 C1625 1.397 1_655 S
C1624 C1629 1.399 . S
C1625 C1624 1.397 1_455 S
C1625 C1626 1.359 1_455 S
C1626 H1613 0.930 . S
C1626 C1625 1.359 1_655 S
C1626 C1627 1.388 . S
C1627 H1614 0.930 . S
C1627 C1626 1.388 . S
C1627 C1628 1.390 . S
C1628 C1627 1.390 . S
C1628 C1629 1.394 . S
C1628 C1634 1.465 . S
C1629 C1624 1.399 . S
C1629 C1628 1.394 . S
C1629 C1630 1.516 . S
C1630 C1629 1.516 . S
C1630 C1631 1.502 . S
C1630 C1632 1.561 . S
C1630 C1633 1.526 . S
C1631 H1615 0.959 1_655 S
C1631 H1616 0.959 . S
C1631 H1617 0.961 1_655 S
C1631 C1630 1.502 . S
C1632 H1618 0.960 . S
C1632 H1619 0.961 . S
C1632 H1620 0.959 . S
C1632 C1630 1.561 . S
C1633 C1630 1.526 . S
C1633 C1634 1.396 . S
C1633 C1638 1.390 . S
C1634 C1628 1.465 . S
C1634 C1633 1.396 . S
C1634 C1635 1.399 . S
C1635 H1621 0.929 . S
C1635 C1634 1.399 . S
C1635 C1636 1.385 . S
C1636 H1622 0.931 . S
C1636 C1635 1.385 . S
C1636 C1637 1.389 . S
C1637 C1636 1.389 . S
C1637 C1638 1.387 . S
C1638 H1623 0.930 . S
C1638 C1633 1.390 . S
C1638 C1637 1.387 . S
H1639 C1651 0.930 . S
H1640 C1653 0.930 . S
H1641 C1654 0.930 . S
H1642 C1658 0.959 . S
H1643 C1658 0.959 . S
H1644 C1658 0.961 . S
H1645 C1659 0.960 . S
H1646 C1659 0.961 . S
H1647 C1659 0.959 . S
H1648 C1662 0.929 . S
H1649 C1663 0.931 . S
H1650 C1665 0.930 . S
C1651 H1639 0.930 . S
C1651 C1652 1.399 . S
C1651 C1656 1.399 . S
C1652 C1651 1.399 . S
C1652 C1653 1.376 . S
C1653 H1640 0.930 . S
C1653 C1652 1.376 . S
C1653 C1654 1.388 . S
C1654 H1641 0.930 . S
C1654 C1653 1.388 . S
C1654 C1655 1.390 . S
C1655 C1654 1.390 . S
C1655 C1656 1.394 . S
C1655 C1661 1.465 . S
C1656 C1651 1.399 . S
C1656 C1655 1.394 . S
C1656 C1657 1.516 . S
C1657 C1656 1.516 . S
C1657 C1658 1.502 . S
C1657 C1659 1.561 . S
C1657 C1660 1.526 . S
C1658 H1642 0.959 . S
C1658 H1643 0.959 . S
C1658 H1644 0.961 . S
C1658 C1657 1.502 . S
C1659 H1645 0.960 . S
C1659 H1646 0.961 . S
C1659 H1647 0.959 . S
C1659 C1657 1.561 . S
C1660 C1657 1.526 . S
C1660 C1661 1.396 . S
C1660 C1665 1.390 . S
C1661 C1655 1.465 . S
C1661 C1660 1.396 . S
C1661 C1662 1.399 . S
C1662 H1648 0.929 . S
C1662 C1661 1.399 . S
C1662 C1663 1.385 . S
C1663 H1649 0.931 . S
C1663 C1662 1.385 . S
C1663 C1664 1.389 . S
C1664 C1663 1.389 . S
C1664 C1665 1.387 . S
C1665 H1650 0.930 . S
C1665 C1660 1.390 . S
C1665 C1664 1.387 . S
H1666 C1678 0.930 . S
H1667 C1680 0.930 . S
H1668 C1681 0.930 . S
H1669 C1685 0.959 . S
H1670 C1685 0.959 . S
H1671 C1685 0.961 . S
H1672 C1686 0.960 . S
H1673 C1686 0.961 . S
H1674 C1686 0.959 . S
H1675 C1689 0.929 . S
H1676 C1690 0.931 . S
H1677 C1692 0.930 . S
C1678 H1666 0.930 . S
C1678 C1679 1.399 . S
C1678 C1683 1.399 . S
C1679 C1678 1.399 . S
C1679 C1680 1.376 . S
C1680 H1667 0.930 . S
C1680 C1679 1.376 . S
C1680 C1681 1.388 . S
C1681 H1668 0.930 . S
C1681 C1680 1.388 . S
C1681 C1682 1.390 . S
C1682 C1681 1.390 . S
C1682 C1683 1.394 . S
C1682 C1688 1.465 . S
C1683 C1678 1.399 . S
C1683 C1682 1.394 . S
C1683 C1684 1.516 . S
C1684 C1683 1.516 . S
C1684 C1685 1.502 . S
C1684 C1686 1.561 . S
C1684 C1687 1.526 . S
C1685 H1669 0.959 . S
C1685 H1670 0.959 . S
C1685 H1671 0.961 . S
C1685 C1684 1.502 . S
C1686 H1672 0.960 . S
C1686 H1673 0.961 . S
C1686 H1674 0.959 . S
C1686 C1684 1.561 . S
C1687 C1684 1.526 . S
C1687 C1688 1.396 . S
C1687 C1692 1.390 . S
C1688 C1682 1.465 . S
C1688 C1687 1.396 . S
C1688 C1689 1.399 . S
C1689 H1675 0.929 . S
C1689 C1688 1.399 . S
C1689 C1690 1.385 . S
C1690 H1676 0.931 . S
C1690 C1689 1.385 . S
C1690 C1691 1.389 . S
C1691 C1690 1.389 . S
C1691 C1692 1.387 . S
C1692 H1677 0.930 . S
C1692 C1687 1.390 . S
C1692 C1691 1.387 . S
H1693 C1705 0.930 1_554 S
H1694 C1707 0.930 . S
H1695 C1708 0.930 . S
H1696 C1712 0.959 . S
H1697 C1712 0.959 . S
H1698 C1712 0.961 . S
H1699 C1713 0.960 . S
H1700 C1713 0.961 . S
H1701 C1713 0.959 . S
H1702 C1716 0.929 . S
H1703 C1717 0.931 . S
H1704 C1719 0.930 . S
C1705 H1693 0.930 1_556 S
C1705 C1706 1.399 . S
C1705 C1710 1.399 . S
C1706 C1705 1.399 . S
C1706 C1707 1.376 . S
C1707 H1694 0.930 . S
C1707 C1706 1.376 . S
C1707 C1708 1.388 . S
C1708 H1695 0.930 . S
C1708 C1707 1.388 . S
C1708 C1709 1.390 . S
C1709 C1708 1.390 . S
C1709 C1710 1.394 . S
C1709 C1715 1.465 . S
C1710 C1705 1.399 . S
C1710 C1709 1.394 . S
C1710 C1711 1.516 . S
C1711 C1710 1.516 . S
C1711 C1712 1.502 . S
C1711 C1713 1.561 . S
C1711 C1714 1.526 . S
C1712 H1696 0.959 . S
C1712 H1697 0.959 . S
C1712 H1698 0.961 . S
C1712 C1711 1.502 . S
C1713 H1699 0.960 . S
C1713 H1700 0.961 . S
C1713 H1701 0.959 . S
C1713 C1711 1.561 . S
C1714 C1711 1.526 . S
C1714 C1715 1.396 . S
C1714 C1719 1.390 . S
C1715 C1709 1.465 . S
C1715 C1714 1.396 . S
C1715 C1716 1.399 . S
C1716 H1702 0.929 . S
C1716 C1715 1.399 . S
C1716 C1717 1.385 . S
C1717 H1703 0.931 . S
C1717 C1716 1.385 . S
C1717 C1718 1.389 . S
C1718 C1717 1.389 . S
C1718 C1719 1.387 . S
C1719 H1704 0.930 . S
C1719 C1714 1.390 . S
C1719 C1718 1.387 . S
H1720 C1732 0.930 . S
H1721 C1734 0.930 . S
H1722 C1735 0.930 . S
H1723 C1739 0.959 . S
H1724 C1739 0.959 . S
H1725 C1739 0.961 . S
H1726 C1740 0.960 . S
H1727 C1740 0.961 . S
H1728 C1740 0.959 . S
H1729 C1743 0.929 . S
H1730 C1744 0.931 . S
H1731 C1746 0.930 . S
C1732 H1720 0.930 . S
C1732 C1733 1.399 . S
C1732 C1737 1.399 . S
C1733 C1732 1.399 . S
C1733 C1734 1.376 . S
C1734 H1721 0.930 . S
C1734 C1733 1.376 . S
C1734 C1735 1.388 . S
C1735 H1722 0.930 . S
C1735 C1734 1.388 . S
C1735 C1736 1.390 . S
C1736 C1735 1.390 . S
C1736 C1737 1.394 . S
C1736 C1742 1.465 . S
C1737 C1732 1.399 . S
C1737 C1736 1.394 . S
C1737 C1738 1.516 . S
C1738 C1737 1.516 . S
C1738 C1739 1.502 . S
C1738 C1740 1.561 . S
C1738 C1741 1.526 . S
C1739 H1723 0.959 . S
C1739 H1724 0.959 . S
C1739 H1725 0.961 . S
C1739 C1738 1.502 . S
C1740 H1726 0.960 . S
C1740 H1727 0.961 . S
C1740 H1728 0.959 . S
C1740 C1738 1.561 . S
C1741 C1738 1.526 . S
C1741 C1742 1.396 . S
C1741 C1746 1.390 . S
C1742 C1736 1.465 . S
C1742 C1741 1.396 . S
C1742 C1743 1.399 . S
C1743 H1729 0.929 . S
C1743 C1742 1.399 . S
C1743 C1744 1.385 . S
C1744 H1730 0.931 . S
C1744 C1743 1.385 . S
C1744 C1745 1.389 . S
C1745 C1744 1.389 . S
C1745 C1746 1.387 . S
C1746 H1731 0.930 . S
C1746 C1741 1.390 . S
C1746 C1745 1.387 . S
H1747 C1759 0.930 . S
H1748 C1761 0.930 . S
H1749 C1762 0.930 . S
H1750 C1766 0.959 . S
H1751 C1766 0.959 . S
H1752 C1766 0.961 . S
H1753 C1767 0.960 . S
H1754 C1767 0.961 . S
H1755 C1767 0.959 . S
H1756 C1770 0.929 . S
H1757 C1771 0.931 . S
H1758 C1773 0.930 . S
C1759 H1747 0.930 . S
C1759 C1760 1.399 . S
C1759 C1764 1.399 . S
C1760 C1759 1.399 . S
C1760 C1761 1.376 . S
C1761 H1748 0.930 . S
C1761 C1760 1.376 . S
C1761 C1762 1.388 . S
C1762 H1749 0.930 . S
C1762 C1761 1.388 . S
C1762 C1763 1.390 . S
C1763 C1762 1.390 . S
C1763 C1764 1.394 . S
C1763 C1769 1.465 . S
C1764 C1759 1.399 . S
C1764 C1763 1.394 . S
C1764 C1765 1.516 . S
C1765 C1764 1.516 . S
C1765 C1766 1.502 . S
C1765 C1767 1.561 . S
C1765 C1768 1.526 . S
C1766 H1750 0.959 . S
C1766 H1751 0.959 . S
C1766 H1752 0.961 . S
C1766 C1765 1.502 . S
C1767 H1753 0.960 . S
C1767 H1754 0.961 . S
C1767 H1755 0.959 . S
C1767 C1765 1.561 . S
C1768 C1765 1.526 . S
C1768 C1769 1.396 . S
C1768 C1773 1.390 . S
C1769 C1763 1.465 . S
C1769 C1768 1.396 . S
C1769 C1770 1.399 . S
C1770 H1756 0.929 . S
C1770 C1769 1.399 . S
C1770 C1771 1.385 . S
C1771 H1757 0.931 . S
C1771 C1770 1.385 . S
C1771 C1772 1.389 . S
C1772 C1771 1.389 . S
C1772 C1773 1.387 . S
C1773 H1758 0.930 . S
C1773 C1768 1.390 . S
C1773 C1772 1.387 . S
H1774 C1786 0.930 . S
H1775 C1788 0.930 . S
H1776 C1789 0.930 . S
H1777 C1793 0.959 . S
H1778 C1793 0.959 . S
H1779 C1793 0.961 . S
H1780 C1794 0.960 . S
H1781 C1794 0.961 . S
H1782 C1794 0.959 . S
H1783 C1797 0.929 . S
H1784 C1798 0.931 . S
H1785 C1800 0.930 . S
C1786 H1774 0.930 . S
C1786 C1787 1.399 . S
C1786 C1791 1.399 . S
C1787 C1786 1.399 . S
C1787 C1788 1.376 . S
C1788 H1775 0.930 . S
C1788 C1787 1.376 . S
C1788 C1789 1.388 . S
C1789 H1776 0.930 . S
C1789 C1788 1.388 . S
C1789 C1790 1.390 . S
C1790 C1789 1.390 . S
C1790 C1791 1.394 . S
C1790 C1796 1.465 . S
C1791 C1786 1.399 . S
C1791 C1790 1.394 . S
C1791 C1792 1.516 . S
C1792 C1791 1.516 . S
C1792 C1793 1.502 . S
C1792 C1794 1.561 . S
C1792 C1795 1.526 . S
C1793 H1777 0.959 . S
C1793 H1778 0.959 . S
C1793 H1779 0.961 . S
C1793 C1792 1.502 . S
C1794 H1780 0.960 . S
C1794 H1781 0.961 . S
C1794 H1782 0.959 . S
C1794 C1792 1.561 . S
C1795 C1792 1.526 . S
C1795 C1796 1.396 . S
C1795 C1800 1.390 . S
C1796 C1790 1.465 . S
C1796 C1795 1.396 . S
C1796 C1797 1.399 . S
C1797 H1783 0.929 . S
C1797 C1796 1.399 . S
C1797 C1798 1.385 . S
C1798 H1784 0.931 . S
C1798 C1797 1.385 . S
C1798 C1799 1.389 . S
C1799 C1798 1.389 . S
C1799 C1800 1.387 . S
C1800 H1785 0.930 . S
C1800 C1795 1.390 . S
C1800 C1799 1.387 . S
H1801 C1813 0.930 . S
H1802 C1815 0.930 . S
H1803 C1816 0.930 . S
H1804 C1820 0.959 . S
H1805 C1820 0.959 . S
H1806 C1820 0.961 . S
H1807 C1821 0.960 . S
H1808 C1821 0.961 . S
H1809 C1821 0.959 . S
H1810 C1824 0.929 . S
H1811 C1825 0.931 . S
H1812 C1827 0.930 . S
C1813 H1801 0.930 . S
C1813 C1814 1.399 . S
C1813 C1818 1.399 . S
C1814 C1813 1.399 . S
C1814 C1815 1.376 . S
C1815 H1802 0.930 . S
C1815 C1814 1.376 . S
C1815 C1816 1.388 . S
C1816 H1803 0.930 . S
C1816 C1815 1.388 . S
C1816 C1817 1.390 . S
C1817 C1816 1.390 . S
C1817 C1818 1.394 . S
C1817 C1823 1.465 1_454 S
C1818 C1813 1.399 . S
C1818 C1817 1.394 . S
C1818 C1819 1.497 1_454 S
C1819 C1818 1.497 1_656 S
C1819 C1820 1.521 1_556 S
C1819 C1821 1.543 1_655 S
C1819 C1822 1.543 . S
C1820 H1804 0.959 . S
C1820 H1805 0.959 . S
C1820 H1806 0.961 . S
C1820 C1819 1.521 1_554 S
C1821 H1807 0.960 . S
C1821 H1808 0.961 . S
C1821 H1809 0.959 . S
C1821 C1819 1.543 1_455 S
C1822 C1819 1.543 . S
C1822 C1823 1.396 . S
C1822 C1827 1.390 . S
C1823 C1817 1.465 1_656 S
C1823 C1822 1.396 . S
C1823 C1824 1.399 . S
C1824 H1810 0.929 . S
C1824 C1823 1.399 . S
C1824 C1825 1.385 . S
C1825 H1811 0.931 . S
C1825 C1824 1.385 . S
C1825 C1826 1.389 . S
C1826 C1825 1.389 . S
C1826 C1827 1.387 . S
C1827 H1812 0.930 . S
C1827 C1822 1.390 . S
C1827 C1826 1.387 . S
H1828 C1840 0.930 . S
H1829 C1842 0.930 . S
H1830 C1843 0.930 . S
H1831 C1847 0.959 . S
H1832 C1847 0.959 . S
H1833 C1847 0.961 . S
H1834 C1848 0.960 . S
H1835 C1848 0.961 . S
H1836 C1848 0.959 . S
H1837 C1851 0.929 . S
H1838 C1852 0.931 . S
H1839 C1854 0.930 . S
C1840 H1828 0.930 . S
C1840 C1841 1.399 . S
C1840 C1845 1.399 . S
C1841 C1840 1.399 . S
C1841 C1842 1.376 . S
C1842 H1829 0.930 . S
C1842 C1841 1.376 . S
C1842 C1843 1.388 . S
C1843 H1830 0.930 . S
C1843 C1842 1.388 . S
C1843 C1844 1.390 . S
C1844 C1843 1.390 . S
C1844 C1845 1.394 . S
C1844 C1850 1.465 . S
C1845 C1840 1.399 . S
C1845 C1844 1.394 . S
C1845 C1846 1.516 . S
C1846 C1845 1.516 . S
C1846 C1847 1.502 . S
C1846 C1848 1.561 . S
C1846 C1849 1.526 . S
C1847 H1831 0.959 . S
C1847 H1832 0.959 . S
C1847 H1833 0.961 . S
C1847 C1846 1.502 . S
C1848 H1834 0.960 . S
C1848 H1835 0.961 . S
C1848 H1836 0.959 . S
C1848 C1846 1.561 . S
C1849 C1846 1.526 . S
C1849 C1850 1.396 . S
C1849 C1854 1.390 . S
C1850 C1844 1.465 . S
C1850 C1849 1.396 . S
C1850 C1851 1.399 . S
C1851 H1837 0.929 . S
C1851 C1850 1.399 . S
C1851 C1852 1.385 . S
C1852 H1838 0.931 . S
C1852 C1851 1.385 . S
C1852 C1853 1.389 . S
C1853 C1852 1.389 . S
C1853 C1854 1.387 . S
C1854 H1839 0.930 . S
C1854 C1849 1.390 . S
C1854 C1853 1.387 . S
H1855 C1867 0.930 . S
H1856 C1869 0.930 . S
H1857 C1870 0.930 . S
H1858 C1874 0.959 . S
H1859 C1874 0.959 . S
H1860 C1874 0.961 . S
H1861 C1875 0.960 . S
H1862 C1875 0.961 . S
H1863 C1875 0.959 . S
H1864 C1878 0.929 . S
H1865 C1879 0.931 . S
H1866 C1881 0.930 . S
C1867 H1855 0.930 . S
C1867 C1868 1.399 . S
C1867 C1872 1.399 . S
C1868 C1867 1.399 . S
C1868 C1869 1.376 . S
C1869 H1856 0.930 . S
C1869 C1868 1.376 . S
C1869 C1870 1.388 . S
C1870 H1857 0.930 . S
C1870 C1869 1.388 . S
C1870 C1871 1.390 . S
C1871 C1870 1.390 . S
C1871 C1872 1.394 . S
C1871 C1877 1.465 . S
C1872 C1867 1.399 . S
C1872 C1871 1.394 . S
C1872 C1873 1.516 . S
C1873 C1872 1.516 . S
C1873 C1874 1.502 . S
C1873 C1875 1.561 . S
C1873 C1876 1.526 . S
C1874 H1858 0.959 . S
C1874 H1859 0.959 . S
C1874 H1860 0.961 . S
C1874 C1873 1.502 . S
C1875 H1861 0.960 . S
C1875 H1862 0.961 . S
C1875 H1863 0.959 . S
C1875 C1873 1.561 . S
C1876 C1873 1.526 . S
C1876 C1877 1.396 . S
C1876 C1881 1.390 . S
C1877 C1871 1.465 . S
C1877 C1876 1.396 . S
C1877 C1878 1.399 . S
C1878 H1864 0.929 . S
C1878 C1877 1.399 . S
C1878 C1879 1.385 . S
C1879 H1865 0.931 . S
C1879 C1878 1.385 . S
C1879 C1880 1.389 . S
C1880 C1879 1.389 . S
C1880 C1881 1.387 . S
C1881 H1866 0.930 . S
C1881 C1876 1.390 . S
C1881 C1880 1.387 . S
H1882 C1894 0.930 . S
H1883 C1896 0.930 . S
H1884 C1897 0.931 1_554 S
H1885 C1901 0.959 . S
H1886 C1901 0.959 . S
H1887 C1901 0.961 . S
H1888 C1902 0.960 1_556 S
H1889 C1902 0.961 1_655 S
H1890 C1902 0.959 . S
H1891 C1905 0.929 . S
H1892 C1906 0.931 . S
H1893 C1908 0.930 . S
C1894 H1882 0.930 . S
C1894 C1895 1.399 1_565 S
C1894 C1899 1.399 . S
C1895 C1894 1.399 1_545 S
C1895 C1896 1.376 . S
C1896 H1883 0.930 . S
C1896 C1895 1.376 . S
C1896 C1897 1.388 . S
C1897 H1884 0.931 1_556 S
C1897 C1896 1.388 . S
C1897 C1898 1.390 . S
C1898 C1897 1.390 . S
C1898 C1899 1.394 1_545 S
C1898 C1904 1.465 1_456 S
C1899 C1894 1.399 . S
C1899 C1898 1.394 1_565 S
C1899 C1900 1.516 1_455 S
C1900 C1899 1.516 1_655 S
C1900 C1901 1.502 . S
C1900 C1902 1.561 1_656 S
C1900 C1903 1.526 1_556 S
C1901 H1885 0.959 . S
C1901 H1886 0.959 . S
C1901 H1887 0.961 . S
C1901 C1900 1.502 . S
C1902 H1888 0.960 1_554 S
C1902 H1889 0.961 1_455 S
C1902 H1890 0.959 . S
C1902 C1900 1.561 1_454 S
C1903 C1900 1.526 1_554 S
C1903 C1904 1.396 1_565 S
C1903 C1908 1.390 . S
C1904 C1898 1.465 1_654 S
C1904 C1903 1.396 1_545 S
C1904 C1905 1.399 . S
C1905 H1891 0.929 . S
C1905 C1904 1.399 . S
C1905 C1906 1.385 . S
C1906 H1892 0.931 . S
C1906 C1905 1.385 . S
C1906 C1907 1.389 1_545 S
C1907 C1906 1.389 1_565 S
C1907 C1908 1.387 . S
C1908 H1893 0.930 . S
C1908 C1903 1.390 . S
C1908 C1907 1.387 . S
H1909 C1921 0.930 . S
H1910 C1923 0.930 . S
H1911 C1924 0.930 . S
H1912 C1928 0.959 . S
H1913 C1928 0.959 . S
H1914 C1928 0.961 . S
H1915 C1929 0.960 . S
H1916 C1929 0.961 . S
H1917 C1929 0.959 . S
H1918 C1932 0.929 . S
H1919 C1933 0.931 . S
H1920 C1935 0.930 . S
C1921 H1909 0.930 . S
C1921 C1922 1.399 . S
C1921 C1926 1.399 . S
C1922 C1921 1.399 . S
C1922 C1923 1.376 1_545 S
C1923 H1910 0.930 . S
C1923 C1922 1.376 1_565 S
C1923 C1924 1.388 . S
C1924 H1911 0.930 . S
C1924 C1923 1.388 . S
C1924 C1925 1.390 . S
C1925 C1924 1.390 . S
C1925 C1926 1.394 1_565 S
C1925 C1931 1.465 . S
C1926 C1921 1.399 . S
C1926 C1925 1.394 1_545 S
C1926 C1927 1.516 . S
C1927 C1926 1.516 . S
C1927 C1928 1.502 . S
C1927 C1929 1.561 . S
C1927 C1930 1.526 . S
C1928 H1912 0.959 . S
C1928 H1913 0.959 . S
C1928 H1914 0.961 . S
C1928 C1927 1.502 . S
C1929 H1915 0.960 . S
C1929 H1916 0.961 . S
C1929 H1917 0.959 . S
C1929 C1927 1.561 . S
C1930 C1927 1.526 . S
C1930 C1931 1.396 1_545 S
C1930 C1935 1.390 . S
C1931 C1925 1.465 . S
C1931 C1930 1.396 1_565 S
C1931 C1932 1.399 . S
C1932 H1918 0.929 . S
C1932 C1931 1.399 . S
C1932 C1933 1.385 . S
C1933 H1919 0.931 . S
C1933 C1932 1.385 . S
C1933 C1934 1.389 . S
C1934 C1933 1.389 . S
C1934 C1935 1.387 1_565 S
C1935 H1920 0.930 . S
C1935 C1930 1.390 . S
C1935 C1934 1.387 1_545 S
C653 C10 3.322 . S
C665 C410 3.305 . S
C680 C50 3.321 . S
C692 C450 3.306 . S
C707 C90 3.324 . S
C719 C330 3.301 . S
C734 C130 3.296 . S
C746 C370 3.319 . S
C761 C179 3.326 . S
C773 C579 3.296 . S
C788 C219 3.301 . S
C800 C619 3.317 . S
C815 C259 3.314 . S
C827 C499 3.309 . S
C842 C299 3.304 . S
C854 C539 3.314 . S
C869 C369 3.746 . S
C881 C19 3.705 1_556 S
C896 C409 3.754 . S
C908 C59 3.715 . S
C923 C449 3.725 . S
C935 C99 3.681 . S
C950 C329 3.732 . S
C962 C139 3.689 . S
C977 C170 3.717 1_554 S
C989 C538 3.751 . S
C1004 C578 3.750 . S
C1016 C210 3.717 . S
C1031 C618 3.730 . S
C1043 C250 3.698 . S
C1058 C498 3.725 . S
C1070 C290 3.681 . S
C1085 C49 3.731 . S
C1097 C339 3.689 . S
C1112 C379 3.681 . S
C1124 C89 3.726 . S
C1139 C419 3.699 1_556 S
C1151 C129 3.741 . S
C1166 C459 3.716 . S
C1178 C9 3.755 . S
C1193 C490 3.680 . S
C1205 C218 3.729 . S
C1220 C258 3.727 . S
C1232 C530 3.681 . S
C1247 C298 3.752 . S
C1259 C570 3.702 1_554 S
C1274 C610 3.697 . S
C1286 C178 3.730 . S
C1301 C6 0.542 . S
C1313 C609 0.153 . S
C1328 C46 0.486 . S
C1340 C169 0.285 . S
C1355 C529 0.321 . S
C1367 C86 0.416 . S
C1382 C249 0.214 . S
C1394 C126 0.303 . S
C1409 C175 0.498 . S
C1421 C458 0.126 . S
C1436 C215 0.366 . S
C1448 C18 0.316 . S
C1463 C378 0.256 . S
C1475 C255 0.267 . S
C1490 C98 0.326 . S
C1502 C295 0.471 . S
C1517 C326 0.559 . S
C1529 C289 0.164 . S
C1544 C366 0.511 . S
C1556 C489 0.064 . S
C1571 C209 0.080 . S
C1583 C406 0.434 . S
C1598 C569 0.042 . S
C1610 C446 0.485 . S
C1625 C495 0.484 . S
C1637 C138 0.325 . S
C1652 C535 0.514 . S
C1664 C338 0.152 . S
C1679 C575 0.403 . S
C1691 C58 0.045 . S
C1706 C418 0.285 . S
C1718 C615 0.531 . S
C1733 C15 1.574 . S
C1745 C486 1.682 . S
C1760 C55 1.638 . S
C1772 C206 1.602 . S
C1787 C95 1.578 . S
C1799 C566 1.666 . S
C1814 C286 1.681 . S
C1826 C135 1.573 . S
C1841 C166 1.604 . S
C1853 C335 1.636 . S
C1868 C415 1.587 . S
C1880 C246 1.654 . S
C1895 C375 1.605 . S
C1907 C526 1.664 . S
C1922 C606 1.680 . S
C1934 C455 1.573 . S
