# Generated by pormake.
# Topology ukg, (4)-cn, num edge types: 1
# Building blocks:
#     Node 0, Type 0, BuildingBlock: KOZSID_clean_sbu_0, # of connection points: 4
#     Node 1, Type 0, BuildingBlock: KOZSID_clean_sbu_0, # of connection points: 4
#     Node 2, Type 0, BuildingBlock: KOZSID_clean_sbu_0, # of connection points: 4
#     Node 3, Type 0, BuildingBlock: KOZSID_clean_sbu_0, # of connection points: 4
#     Node 4, Type 0, BuildingBlock: KOZSID_clean_sbu_0, # of connection points: 4
#     Node 5, Type 0, BuildingBlock: KOZSID_clean_sbu_0, # of connection points: 4
#     Node 6, Type 0, BuildingBlock: KOZSID_clean_sbu_0, # of connection points: 4
#     Node 7, Type 0, BuildingBlock: KOZSID_clean_sbu_0, # of connection points: 4
#     Edge 8, Type (0, 0), BuildingBlock: CIFDUS_clean_linker_0, # of connection points: 2
#     Edge 9, Type (0, 0), BuildingBlock: CIFDUS_clean_linker_0, # of connection points: 2
#     Edge 10, Type (0, 0), BuildingBlock: CIFDUS_clean_linker_0, # of connection points: 2
#     Edge 11, Type (0, 0), BuildingBlock: CIFDUS_clean_linker_0, # of connection points: 2
#     Edge 12, Type (0, 0), BuildingBlock: CIFDUS_clean_linker_0, # of connection points: 2
#     Edge 13, Type (0, 0), BuildingBlock: CIFDUS_clean_linker_0, # of connection points: 2
#     Edge 14, Type (0, 0), BuildingBlock: CIFDUS_clean_linker_0, # of connection points: 2
#     Edge 15, Type (0, 0), BuildingBlock: CIFDUS_clean_linker_0, # of connection points: 2
#     Edge 16, Type (0, 0), BuildingBlock: CIFDUS_clean_linker_0, # of connection points: 2
#     Edge 17, Type (0, 0), BuildingBlock: CIFDUS_clean_linker_0, # of connection points: 2
#     Edge 18, Type (0, 0), BuildingBlock: CIFDUS_clean_linker_0, # of connection points: 2
#     Edge 19, Type (0, 0), BuildingBlock: CIFDUS_clean_linker_0, # of connection points: 2
#     Edge 20, Type (0, 0), BuildingBlock: CIFDUS_clean_linker_0, # of connection points: 2
#     Edge 21, Type (0, 0), BuildingBlock: CIFDUS_clean_linker_0, # of connection points: 2
#     Edge 22, Type (0, 0), BuildingBlock: CIFDUS_clean_linker_0, # of connection points: 2
#     Edge 23, Type (0, 0), BuildingBlock: CIFDUS_clean_linker_0, # of connection points: 2
# Relax obj value: 0.109
# Max RMSD: 0.261
# Mean RMSD: 0.246
data_MOF--net-ukg--node1-KOZSID_clean_sbu_0--edge1-CIFDUS_clean_linker_0
_symmetry_space_group_name_H-M    P1
_symmetry_Int_Tables_number       1
_symmetry_cell_setting            triclinic
loop_
_symmetry_equiv_pos_as_xyz
'x, y, z'
_cell_length_a     31.888919
_cell_length_b     32.118557
_cell_length_c     43.669977
_cell_angle_alpha  90.281536
_cell_angle_beta   89.548592
_cell_angle_gamma 90.001762
loop_
_atom_site_label
_atom_site_type_symbol
_atom_site_fract_x
_atom_site_fract_y
_atom_site_fract_z
_atom_type_partial_charge
C0 C 0.94955 0.62992 0.16016 0.0
C1 C 0.91541 0.64756 0.14559 0.0
C2 C 0.92922 0.68382 0.13265 0.0
C3 C 0.97092 0.68629 0.13991 0.0
N4 N 0.98464 0.65352 0.15616 0.0
Co5 Co 0.04253 0.64691 0.17261 0.0
N6 N 0.06542 0.69411 0.14755 0.0
C7 C 0.0422 0.72179 0.13196 0.0
C8 C 0.06588 0.74854 0.11462 0.0
C9 C 0.10666 0.73766 0.11994 0.0
C10 C 0.10582 0.70533 0.14094 0.0
N11 N 0.10013 0.64093 0.18967 0.0
C12 C 0.13685 0.66018 0.18221 0.0
C13 C 0.16754 0.65162 0.20379 0.0
C14 C 0.15007 0.62536 0.22473 0.0
C15 C 0.10962 0.61991 0.21533 0.0
N16 N 0.02043 0.59933 0.19749 0.0
C17 C 0.04049 0.58088 0.22082 0.0
C18 C 0.01861 0.54865 0.23366 0.0
C19 C 0.98183 0.54698 0.21794 0.0
C20 C 0.98323 0.57863 0.19632 0.0
N21 N 0.05534 0.60781 0.13884 0.0
C22 C 0.05147 0.54749 0.09203 0.0
C23 C 0.06491 0.53687 0.12152 0.0
C24 C 0.06756 0.56771 0.14441 0.0
C25 C 0.04335 0.58935 0.08597 0.0
C26 C 0.04513 0.61874 0.10955 0.0
N27 N 0.02765 0.68627 0.2058 0.0
C28 C 0.97303 0.71232 0.23924 0.0
C29 C 0.9931 0.75067 0.24131 0.0
C30 C 0.03268 0.75528 0.22763 0.0
C31 C 0.04981 0.72231 0.21035 0.0
C32 C 0.99083 0.68065 0.2216 0.0
H33 H 0.07975 0.72703 0.19929 0.0
H34 H 0.97293 0.65273 0.21934 0.0
H35 H 0.07729 0.55856 0.16698 0.0
H36 H 0.0355 0.64979 0.10416 0.0
C37 C 0.99874 0.7171 0.13002 0.0
C38 C 0.94575 0.59335 0.18021 0.0
C39 C 0.14357 0.6885 0.15608 0.0
C40 C 0.08085 0.5929 0.2287 0.0
H41 H 0.88357 0.6359 0.14514 0.0
H42 H 0.91103 0.70571 0.11947 0.0
H43 H 0.05481 0.77192 0.09885 0.0
H44 H 0.13368 0.75197 0.10926 0.0
H45 H 0.19914 0.66369 0.20492 0.0
H46 H 0.16513 0.61179 0.24444 0.0
H47 H 0.02811 0.52888 0.25238 0.0
H48 H 0.95614 0.52613 0.22305 0.0
H49 H 0.07222 0.50487 0.12705 0.0
H50 H 0.03284 0.59902 0.06356 0.0
H51 H 0.94242 0.70765 0.24964 0.0
H52 H 0.04922 0.78467 0.22901 0.0
C53 C 0.42318 0.51257 0.61507 0.0
C54 C 0.45767 0.53894 0.61485 0.0
C55 C 0.45326 0.56504 0.63968 0.0
C56 C 0.41636 0.55338 0.65362 0.0
N57 N 0.39752 0.5214 0.63921 0.0
Co58 Co 0.34303 0.49624 0.65121 0.0
N59 N 0.34579 0.52 0.69319 0.0
C60 C 0.37017 0.55203 0.70196 0.0
C61 C 0.36555 0.5615 0.73252 0.0
C62 C 0.33624 0.53387 0.74351 0.0
C63 C 0.32443 0.5091 0.71892 0.0
N64 N 0.28861 0.47086 0.66306 0.0
C65 C 0.27217 0.46382 0.69123 0.0
C66 C 0.23262 0.4459 0.6891 0.0
C67 C 0.22428 0.44163 0.65851 0.0
C68 C 0.25893 0.45723 0.64371 0.0
N69 N 0.33984 0.47273 0.60915 0.0
C70 C 0.30499 0.4579 0.59569 0.0
C71 C 0.31248 0.44179 0.56704 0.0
C72 C 0.35454 0.44718 0.56198 0.0
C73 C 0.37041 0.4671 0.58775 0.0
N74 N 0.37235 0.44645 0.66555 0.0
C75 C 0.40609 0.3771 0.69573 0.0
C76 C 0.37348 0.37249 0.67445 0.0
C77 C 0.35712 0.40749 0.65963 0.0
C78 C 0.42307 0.41698 0.69983 0.0
C79 C 0.40604 0.45096 0.68445 0.0
N80 N 0.31372 0.54682 0.63774 0.0
C81 C 0.31003 0.6076 0.60552 0.0
C82 C 0.27819 0.62458 0.62406 0.0
C83 C 0.26353 0.60112 0.64884 0.0
C84 C 0.28183 0.56272 0.65542 0.0
C85 C 0.32686 0.56837 0.61244 0.0
H86 H 0.27096 0.54663 0.67554 0.0
H87 H 0.35136 0.55608 0.59782 0.0
H88 H 0.33103 0.40327 0.64435 0.0
H89 H 0.41888 0.48129 0.68918 0.0
C90 C 0.40165 0.56717 0.68232 0.0
C91 C 0.41377 0.48244 0.59051 0.0
C92 C 0.29133 0.4772 0.72014 0.0
C93 C 0.26788 0.45281 0.61251 0.0
H94 H 0.48301 0.53969 0.59823 0.0
H95 H 0.47496 0.58889 0.64708 0.0
H96 H 0.38265 0.58456 0.74557 0.0
H97 H 0.3249 0.5322 0.76688 0.0
H98 H 0.21175 0.43718 0.70765 0.0
H99 H 0.1969 0.42741 0.64836 0.0
H100 H 0.29044 0.42613 0.55219 0.0
H101 H 0.3713 0.43721 0.54163 0.0
H102 H 0.35986 0.34226 0.66985 0.0
H103 H 0.44791 0.42259 0.71608 0.0
H104 H 0.32196 0.6246 0.58594 0.0
H105 H 0.23917 0.61316 0.66389 0.0
C106 C 0.56168 0.86243 0.172 0.0
C107 C 0.59763 0.84318 0.16076 0.0
C108 C 0.58538 0.80589 0.14847 0.0
C109 C 0.54275 0.80444 0.15278 0.0
N110 N 0.52705 0.83881 0.16649 0.0
Co111 Co 0.46707 0.84715 0.17868 0.0
N112 N 0.44743 0.79817 0.15392 0.0
C113 C 0.47249 0.76934 0.14073 0.0
C114 C 0.45105 0.74103 0.12323 0.0
C115 C 0.40973 0.7521 0.12591 0.0
C116 C 0.40798 0.78619 0.14555 0.0
N117 N 0.40739 0.85465 0.19186 0.0
C118 C 0.3718 0.83446 0.18324 0.0
C119 C 0.33843 0.84483 0.20257 0.0
C120 C 0.35305 0.87323 0.22315 0.0
C121 C 0.39453 0.87805 0.21586 0.0
N122 N 0.48591 0.89687 0.20282 0.0
C123 C 0.46267 0.9178 0.22367 0.0
C124 C 0.48293 0.95108 0.23648 0.0
C125 C 0.52191 0.95092 0.22339 0.0
C126 C 0.52333 0.91721 0.20329 0.0
N127 N 0.45919 0.8833 0.14275 0.0
C128 C 0.46469 0.93918 0.09343 0.0
C129 C 0.44385 0.95052 0.12066 0.0
C130 C 0.44146 0.92206 0.14513 0.0
C131 C 0.48002 0.89863 0.09076 0.0
C132 C 0.47656 0.87127 0.11534 0.0
N133 N 0.47691 0.81044 0.2141 0.0
C134 C 0.52676 0.78595 0.25127 0.0
C135 C 0.50705 0.74726 0.25217 0.0
C136 C 0.46954 0.74204 0.23614 0.0
C137 C 0.45442 0.77445 0.21782 0.0
C138 C 0.51124 0.81702 0.2322 0.0
H139 H 0.42608 0.76909 0.20515 0.0
H140 H 0.5292 0.84508 0.23065 0.0
H141 H 0.42691 0.932 0.1663 0.0
H142 H 0.49002 0.84094 0.11236 0.0
C143 C 0.5161 0.77325 0.1419 0.0
C144 C 0.56279 0.90101 0.19033 0.0
C145 C 0.36846 0.80382 0.15807 0.0
C146 C 0.42138 0.90651 0.22957 0.0
H147 H 0.62953 0.85456 0.16201 0.0
H148 H 0.60517 0.78274 0.13753 0.0
H149 H 0.46402 0.71612 0.10931 0.0
H150 H 0.38402 0.73656 0.11463 0.0
H151 H 0.30683 0.83266 0.20248 0.0
H152 H 0.33548 0.88857 0.24127 0.0
H153 H 0.47095 0.97264 0.25355 0.0
H154 H 0.547 0.97205 0.22929 0.0
H155 H 0.43133 0.98165 0.12355 0.0
H156 H 0.49587 0.88845 0.07 0.0
H157 H 0.55584 0.79114 0.26339 0.0
H158 H 0.45321 0.71247 0.23653 0.0
C159 C 0.07758 0.98024 0.61535 0.0
C160 C 0.04283 0.95423 0.6144 0.0
C161 C 0.04608 0.92761 0.63881 0.0
C162 C 0.08258 0.93862 0.65326 0.0
N163 N 0.10226 0.97062 0.63951 0.0
Co164 Co 0.15629 0.99531 0.65251 0.0
N165 N 0.15135 0.97142 0.69419 0.0
C166 C 0.12652 0.93938 0.70226 0.0
C167 C 0.12962 0.92976 0.73279 0.0
C168 C 0.15839 0.95734 0.74449 0.0
C169 C 0.1714 0.98223 0.72034 0.0
N170 N 0.21022 0.02032 0.66537 0.0
C171 C 0.22517 0.02736 0.69385 0.0
C172 C 0.26493 0.04503 0.69249 0.0
C173 C 0.27493 0.04911 0.66207 0.0
C174 C 0.24099 0.03365 0.64659 0.0
N175 N 0.16166 0.01893 0.61079 0.0
C176 C 0.19727 0.03343 0.59791 0.0
C177 C 0.19107 0.05032 0.56954 0.0
C178 C 0.14908 0.04584 0.5641 0.0
C179 C 0.13193 0.0256 0.58934 0.0
N180 N 0.12658 0.04516 0.66674 0.0
C181 C 0.09032 0.11504 0.69538 0.0
C182 C 0.12411 0.11934 0.67473 0.0
C183 C 0.14179 0.08406 0.66073 0.0
C184 C 0.07373 0.07508 0.69978 0.0
C185 C 0.092 0.04083 0.68514 0.0
N186 N 0.18594 0.9446 0.63902 0.0
C187 C 0.19091 0.88399 0.60622 0.0
C188 C 0.22185 0.86682 0.62499 0.0
C189 C 0.23541 0.89007 0.65022 0.0
C190 C 0.21693 0.92849 0.65695 0.0
C191 C 0.17388 0.92324 0.61333 0.0
H192 H 0.2269 0.94444 0.67738 0.0
H193 H 0.1501 0.93572 0.59853 0.0
H194 H 0.16869 0.08808 0.6459 0.0
H195 H 0.07918 1.01052 0.68989 0.0
C196 C 0.09591 0.92449 0.68199 0.0
C197 C 0.08818 1.01091 0.5915 0.0
C198 C 0.20435 0.01422 0.72234 0.0
C199 C 0.23364 0.03812 0.61528 0.0
H200 H 0.01804 0.95415 0.59763 0.0
H201 H 0.0238 0.90395 0.64569 0.0
H202 H 0.11184 0.90668 0.74536 0.0
H203 H 0.16857 0.9589 0.76804 0.0
H204 H 0.28481 0.05371 0.71145 0.0
H205 H 0.30292 0.06314 0.65246 0.0
H206 H 0.21386 0.06608 0.55521 0.0
H207 H 0.1332 0.05669 0.54387 0.0
H208 H 0.13755 0.14958 0.66994 0.0
H209 H 0.04809 0.06968 0.71566 0.0
H210 H 0.17985 0.86715 0.58631 0.0
H211 H 0.25904 0.87787 0.66544 0.0
C212 C 0.01975 0.36281 0.94629 0.0
C213 C 0.03966 0.34748 0.97214 0.0
C214 C 0.05254 0.30808 0.96525 0.0
C215 C 0.04023 0.30151 0.93568 0.0
N216 N 0.0198 0.33405 0.9233 0.0
Co217 Co 1.00066 0.3378 0.87985 0.0
N218 N 1.01071 0.27702 0.87251 0.0
C219 C 0.03077 0.25075 0.89137 0.0
C220 C 0.03237 0.21054 0.88081 0.0
C221 C 1.01262 0.21135 0.85321 0.0
C222 C 1.00022 0.25226 0.84846 0.0
N223 N 0.9825 0.34167 0.83617 0.0
C224 C 0.9768 0.3115 0.81466 0.0
C225 C 0.96602 0.3284 0.78662 0.0
C226 C 0.96553 0.37065 0.79048 0.0
C227 C 0.97602 0.37713 0.82052 0.0
N228 N 0.98992 0.3984 0.88748 0.0
C229 C 0.98115 0.42706 0.86601 0.0
C230 C 0.97388 0.46603 0.87781 0.0
C231 C 0.97914 0.46212 0.90868 0.0
C232 C 0.98999 0.42091 0.91397 0.0
N233 N 0.05858 0.3508 0.86654 0.0
C234 C 0.13572 0.37542 0.84041 0.0
C235 C 0.11925 0.39609 0.86621 0.0
C236 C 0.08101 0.3829 0.87919 0.0
C237 C 0.11363 0.34121 0.82896 0.0
C238 C 0.07551 0.32965 0.84218 0.0
N239 N 0.94237 0.32486 0.89229 0.0
C240 C 0.86812 0.33525 0.88476 0.0
C241 C 0.85818 0.3008 0.90306 0.0
C242 C 0.89165 0.27949 0.9167 0.0
C243 C 0.9333 0.29209 0.91117 0.0
C244 C 0.90994 0.34674 0.87984 0.0
H245 H 0.9581 0.27464 0.92168 0.0
H246 H 0.91578 0.37278 0.8651 0.0
H247 H 0.06927 0.39952 0.89891 0.0
H248 H 0.05918 0.3044 0.8317 0.0
C249 C 0.04478 0.2642 0.91976 0.0
C250 C 1.00506 0.40602 0.94376 0.0
C251 C 0.98547 0.26712 0.81876 0.0
C252 C 0.97642 0.41559 0.83541 0.0
H253 H 0.0455 0.36324 0.99361 0.0
H254 H 0.06896 0.28673 0.98005 0.0
H255 H 0.04618 0.18381 0.89188 0.0
H256 H 1.00923 0.18515 0.83774 0.0
H257 H 0.96005 0.31185 0.76545 0.0
H258 H 0.95809 0.39384 0.77346 0.0
H259 H 0.96534 0.4939 0.86549 0.0
H260 H 0.97649 0.4871 0.92531 0.0
H261 H 0.13554 0.42244 0.87611 0.0
H262 H 0.1247 0.32442 0.80889 0.0
H263 H 0.84384 0.35268 0.87331 0.0
H264 H 0.88585 0.25313 0.9315 0.0
C265 C 0.5968 0.52229 0.32865 0.0
C266 C 0.56148 0.5227 0.31015 0.0
C267 C 0.55581 0.48306 0.2999 0.0
C268 C 0.58729 0.46065 0.31307 0.0
N269 N 0.61256 0.48331 0.33146 0.0
Co270 Co 0.65918 0.46163 0.35761 0.0
N271 N 0.6504 0.4032 0.34246 0.0
C272 C 0.62291 0.39085 0.32082 0.0
C273 C 0.62725 0.35018 0.312 0.0
C274 C 0.65906 0.33526 0.32934 0.0
C275 C 0.67164 0.36755 0.34856 0.0
N276 N 0.70557 0.43928 0.38397 0.0
C277 C 0.71817 0.39933 0.38912 0.0
C278 C 0.74842 0.39783 0.41181 0.0
C279 C 0.75608 0.43794 0.4206 0.0
C280 C 0.72974 0.46175 0.40333 0.0
N281 N 0.66806 0.52032 0.37242 0.0
C282 C 0.69705 0.53317 0.39283 0.0
C283 C 0.69723 0.57541 0.39747 0.0
C284 C 0.66662 0.59052 0.37886 0.0
C285 C 0.64914 0.55648 0.364 0.0
N286 N 0.61821 0.45266 0.3919 0.0
C287 C 0.55739 0.45295 0.43961 0.0
C288 C 0.59871 0.46484 0.44501 0.0
C289 C 0.62813 0.46455 0.42118 0.0
C290 C 0.54753 0.43854 0.41016 0.0
C291 C 0.57842 0.43794 0.38694 0.0
N292 N 0.70023 0.47195 0.32356 0.0
C293 C 0.76566 0.50282 0.30643 0.0
C294 C 0.75629 0.49489 0.27583 0.0
C295 C 0.71889 0.47381 0.26947 0.0
C296 C 0.69129 0.463 0.29351 0.0
C297 C 0.73785 0.49083 0.3296 0.0
H298 H 0.66268 0.44803 0.28726 0.0
H299 H 0.74745 0.49781 0.35223 0.0
H300 H 0.6584 0.47538 0.42704 0.0
H301 H 0.56931 0.42626 0.36501 0.0
C302 C 0.59392 0.41831 0.30861 0.0
C303 C 0.61517 0.56003 0.34172 0.0
C304 C 0.70225 0.36208 0.37319 0.0
C305 C 0.72461 0.50492 0.40643 0.0
H306 H 0.54193 0.54898 0.30434 0.0
H307 H 0.53164 0.47191 0.28465 0.0
H308 H 0.60965 0.33348 0.29476 0.0
H309 H 0.67132 0.30392 0.32792 0.0
H310 H 0.76306 0.37067 0.42158 0.0
H311 H 0.77739 0.44838 0.43822 0.0
H312 H 0.71768 0.5932 0.41226 0.0
H313 H 0.65846 0.623 0.37631 0.0
H314 H 0.60807 0.47628 0.46732 0.0
H315 H 0.51606 0.4281 0.40498 0.0
H316 H 0.79469 0.51816 0.3126 0.0
H317 H 0.71044 0.46669 0.24605 0.0
C318 C 0.46902 0.13557 0.95105 0.0
C319 C 0.45227 0.15263 0.97776 0.0
C320 C 0.43877 0.19168 0.97066 0.0
C321 C 0.44827 0.19644 0.94022 0.0
N322 N 0.46746 0.16307 0.92754 0.0
Co323 Co 0.48622 0.15768 0.88388 0.0
N324 N 0.47695 0.21835 0.87611 0.0
C325 C 0.45726 0.24543 0.89499 0.0
C326 C 0.45599 0.2853 0.88401 0.0
C327 C 0.47555 0.28338 0.85612 0.0
C328 C 0.48757 0.24221 0.85163 0.0
N329 N 0.50413 0.15218 0.84004 0.0
C330 C 0.5103 0.18159 0.81816 0.0
C331 C 0.52048 0.16357 0.79013 0.0
C332 C 0.51998 0.12143 0.79437 0.0
C333 C 0.50959 0.11609 0.82463 0.0
N334 N 0.49603 0.09713 0.89202 0.0
C335 C 0.50277 0.06749 0.87059 0.0
C336 C 0.50734 0.02836 0.88253 0.0
C337 C 0.50263 0.03331 0.91349 0.0
C338 C 0.49544 0.07538 0.91872 0.0
N339 N 0.42809 0.14513 0.87138 0.0
C340 C 0.35174 0.11943 0.84529 0.0
C341 C 0.36754 0.09968 0.87138 0.0
C342 C 0.40535 0.11349 0.88439 0.0
C343 C 0.37388 0.1535 0.83368 0.0
C344 C 0.4116 0.16562 0.84687 0.0
N345 N 0.54471 0.17011 0.89541 0.0
C346 C 0.61879 0.1585 0.88695 0.0
C347 C 0.62925 0.19344 0.90476 0.0
C348 C 0.59611 0.21552 0.91871 0.0
C349 C 0.5543 0.20333 0.91385 0.0
C350 C 0.57677 0.14736 0.88276 0.0
H351 H 0.52982 0.22147 0.92451 0.0
H352 H 0.57041 0.12088 0.8684 0.0
H353 H 0.41666 0.0976 0.90433 0.0
H354 H 0.42808 0.19057 0.8361 0.0
C355 C 0.44376 0.23323 0.92393 0.0
C356 C 0.48304 0.09219 0.94878 0.0
C357 C 0.50241 0.22628 0.82196 0.0
C358 C 0.50772 0.07802 0.83983 0.0
H359 H 0.4496 0.13816 1.00002 0.0
H360 H 0.42452 0.21425 0.98602 0.0
H361 H 0.44264 0.31256 0.89502 0.0
H362 H 0.47918 0.30905 0.84036 0.0
H363 H 0.52656 0.17932 0.76869 0.0
H364 H 0.52654 0.09755 0.77742 0.0
H365 H 0.51349 0.99964 0.87022 0.0
H366 H 0.50318 1.00859 0.93023 0.0
H367 H 0.35112 0.07351 0.88142 0.0
H368 H 0.36329 0.16964 0.81343 0.0
H369 H 0.64278 0.14043 0.87531 0.0
H370 H 0.60226 0.24222 0.93321 0.0
C371 C 0.9029 0.97594 0.3158 0.0
C372 C 0.93615 0.97377 0.29497 0.0
C373 C 0.95065 1.01336 0.29116 0.0
C374 C 0.92595 0.03742 0.3099 0.0
N375 N 0.89643 0.01571 0.32523 0.0
Co376 Co 0.85635 0.03899 0.35613 0.0
N377 N 0.86702 0.09709 0.34222 0.0
C378 C 0.89787 0.10935 0.323 0.0
C379 C 0.89421 0.14985 0.31384 0.0
C380 C 0.8593 0.16447 0.32856 0.0
C381 C 0.84432 0.13234 0.3469 0.0
N382 N 0.81664 0.06294 0.38715 0.0
C383 C 0.80127 0.10232 0.39056 0.0
C384 C 0.77748 0.10573 0.41724 0.0
C385 C 0.77787 0.06742 0.43085 0.0
C386 C 0.80205 0.04278 0.41203 0.0
N387 N 0.84565 0.98082 0.36985 0.0
C388 C 0.82676 0.9698 0.39626 0.0
C389 C 0.82339 0.92748 0.39967 0.0
C390 C 0.84182 0.91073 0.37396 0.0
C391 C 0.85577 0.94391 0.35635 0.0
N392 N 0.90218 0.04285 0.38616 0.0
C393 C 0.95961 0.03863 0.43492 0.0
C394 C 0.93369 0.07365 0.43117 0.0
C395 C 0.90548 0.07532 0.40648 0.0
C396 C 0.95691 1.00676 0.41305 0.0
C397 C 0.92861 1.00958 0.38906 0.0
N398 N 0.81035 0.03318 0.32655 0.0
C399 C 0.74302 1.003 0.3148 0.0
C400 C 0.74919 1.00998 0.28346 0.0
C401 C 0.78574 0.0311 0.27433 0.0
C402 C 0.81595 0.0423 0.29619 0.0
C403 C 0.77357 0.0151 0.33583 0.0
H404 H 0.84446 0.05693 0.28835 0.0
H405 H 0.76796 1.00818 0.35958 0.0
H406 H 0.88562 0.10232 0.40436 0.0
H407 H 0.92714 0.98354 0.37362 0.0
C408 C 0.92537 0.08064 0.30998 0.0
C409 C 0.88183 0.93913 0.32856 0.0
C410 C 0.81185 0.13802 0.37082 0.0
C411 C 0.80837 0.99993 0.4153 0.0
H412 H 0.94948 0.94649 0.28405 0.0
H413 H 0.97558 0.02349 0.27596 0.0
H414 H 0.91346 0.16625 0.29731 0.0
H415 H 0.84673 0.19553 0.32611 0.0
H416 H 0.76221 0.1332 0.4264 0.0
H417 H 0.7621 0.05854 0.45187 0.0
H418 H 0.80851 0.91076 0.41827 0.0
H419 H 0.84521 0.87786 0.36901 0.0
H420 H 0.93503 0.09946 0.44718 0.0
H421 H 0.97555 0.97871 0.41491 0.0
H422 H 0.71486 0.98776 0.32308 0.0
H423 H 0.79177 0.03746 0.25037 0.0
H424 H 0.97888 0.40839 1.00364 0.0
H425 H 0.05931 0.47136 0.93906 0.0
H426 H 0.08111 0.52039 0.9789 0.0
H427 H 0.07769 0.54531 0.03242 0.0
H428 H 1.00267 0.47837 0.09828 0.0
H429 H 0.97947 0.43028 0.05813 0.0
C430 C 1.0011 0.43296 0.99839 0.0
C431 C 1.01677 0.43676 0.96828 0.0
C432 C 1.01506 0.45987 0.02182 0.0
C433 C 0.04603 0.46835 0.96186 0.0
C434 C 0.05884 0.49613 0.98471 0.0
C435 C 0.05657 0.51993 0.03798 0.0
C436 C 0.04201 0.51536 0.06832 0.0
C437 C 0.04368 0.49215 1.01481 0.0
C438 C 1.01477 0.48224 0.07522 0.0
C439 C 1.00116 0.45498 0.05219 0.0
H440 H 0.40898 0.5032 0.52991 0.0
H441 H 0.48986 0.44466 0.59544 0.0
H442 H 0.54127 0.42951 0.55476 0.0
H443 H 0.56264 0.43213 0.50023 0.0
H444 H 0.47937 0.48706 0.43438 0.0
H445 H 0.4287 0.50277 0.47515 0.0
C446 C 0.43761 0.48655 0.53516 0.0
C447 C 0.44529 0.47428 0.56555 0.0
C448 C 0.46628 0.4768 0.51148 0.0
C449 C 0.48311 0.454 0.57219 0.0
C450 C 0.51237 0.44522 0.54891 0.0
C451 C 0.5333 0.44737 0.49479 0.0
C452 C 0.52488 0.45833 0.46418 0.0
C453 C 0.50417 0.45622 0.51842 0.0
C454 C 0.48651 0.47776 0.45757 0.0
C455 C 0.45766 0.48713 0.48096 0.0
H456 H 0.40962 0.97954 0.0559 0.0
H457 H 0.5412 0.96544 0.07474 0.0
H458 H 0.55902 1.01076 0.03167 0.0
H459 H 0.53726 0.05397 0.98778 0.0
H460 H 0.40598 0.06603 0.96752 0.0
H461 H 0.38788 0.02202 1.01141 0.0
C462 C 0.44209 0.98687 0.05068 0.0
C463 C 0.47406 0.96955 0.06863 0.0
C464 C 0.45217 1.01231 0.02533 0.0
C465 C 0.51608 0.97865 0.06133 0.0
C466 C 0.52629 1.00442 0.03663 0.0
C467 C 0.50479 0.04668 0.993 0.0
C468 C 0.47296 0.0632 0.9746 0.0
C469 C 0.49467 0.02123 0.01828 0.0
C470 C 0.43093 0.05361 0.98148 0.0
C471 C 0.4206 0.02858 1.00661 0.0
H472 H 0.94763 0.06077 0.49562 0.0
H473 H 0.03856 1.00578 0.43375 0.0
H474 H 0.08379 0.98939 0.47654 0.0
H475 H 0.09749 0.98875 0.53162 0.0
H476 H 1.01158 0.04935 0.59389 0.0
H477 H 0.9641 0.0645 0.55124 0.0
C478 C 0.97762 0.04582 0.49144 0.0
C479 C 0.98907 0.03396 0.46131 0.0
C480 C 1.00423 0.03693 0.51636 0.0
C481 C 0.02816 0.01441 0.45658 0.0
C482 C 0.05428 1.00507 0.4811 0.0
C483 C 0.06862 1.00581 0.53577 0.0
C484 C 0.05843 0.0187 0.56573 0.0
C485 C 0.04248 0.01573 0.51107 0.0
C486 C 0.02028 0.03953 0.57094 0.0
C487 C 0.99329 0.04834 0.54653 0.0
H488 H 0.17347 0.76995 0.15112 0.0
H489 H 0.21447 0.64204 0.14711 0.0
H490 H 0.28758 0.66496 0.14797 0.0
H491 H 0.33941 0.72185 0.15563 0.0
H492 H 0.29901 0.84872 0.14292 0.0
H493 H 0.22594 0.82573 0.14204 0.0
C494 C 0.198 0.74684 0.1487 0.0
C495 C 0.18776 0.70398 0.14936 0.0
C496 C 0.24028 0.76021 0.14664 0.0
C497 C 0.22101 0.67514 0.14717 0.0
C498 C 0.263 0.68824 0.14766 0.0
C499 C 0.31513 0.74449 0.15103 0.0
C500 C 0.3253 0.78734 0.1498 0.0
C501 C 0.27308 0.73079 0.14812 0.0
C502 C 0.29242 0.8157 0.14452 0.0
C503 C 0.25046 0.80258 0.14406 0.0
H504 H 0.32201 0.69691 0.61825 0.0
H505 H 0.19628 0.64779 0.61931 0.0
H506 H 0.16764 0.71838 0.61659 0.0
H507 H 0.17826 0.79454 0.61804 0.0
H508 H 0.30392 0.84364 0.62081 0.0
H509 H 0.33268 0.77305 0.61766 0.0
C510 C 0.28838 0.70173 0.61732 0.0
C511 C 0.26129 0.66718 0.61885 0.0
C512 C 0.27212 0.74255 0.61667 0.0
C513 C 0.21774 0.67389 0.6182 0.0
C514 C 0.20136 0.71426 0.61668 0.0
C515 C 0.21192 0.78971 0.61739 0.0
C516 C 0.23894 0.82425 0.61952 0.0
C517 C 0.22821 0.7489 0.61649 0.0
C518 C 0.28251 0.81754 0.61922 0.0
C519 C 0.29895 0.77718 0.61747 0.0
H520 H 0.66089 0.27312 0.90782 0.0
H521 H 0.69978 0.14437 0.90861 0.0
H522 H 0.77309 0.16581 0.90896 0.0
H523 H 0.8268 0.22102 0.90658 0.0
H524 H 0.78775 0.34971 0.90838 0.0
H525 H 0.71449 0.32824 0.90974 0.0
C526 C 0.68524 0.24961 0.90861 0.0
C527 C 0.67423 0.20702 0.9078 0.0
C528 C 0.72772 0.26215 0.90908 0.0
C529 C 0.7068 0.17735 0.90848 0.0
C530 C 0.74898 0.18959 0.90889 0.0
C531 C 0.8024 0.24448 0.90779 0.0
C532 C 0.81333 0.28708 0.90695 0.0
C533 C 0.75991 0.23191 0.9088 0.0
C534 C 0.78075 0.31673 0.90826 0.0
C535 C 0.73861 0.30447 0.90922 0.0
H536 H 0.78309 0.33189 0.37687 0.0
H537 H 0.65402 0.29402 0.38691 0.0
H538 H 0.67543 0.22088 0.38702 0.0
H539 H 0.73115 0.16756 0.37827 0.0
H540 H 0.86028 0.20631 0.38378 0.0
H541 H 0.83874 0.27924 0.38457 0.0
C542 C 0.75964 0.30792 0.38036 0.0
C543 C 0.7168 0.31866 0.38089 0.0
C544 C 0.77228 0.26596 0.38271 0.0
C545 C 0.68715 0.28669 0.38551 0.0
C546 C 0.69935 0.24478 0.38561 0.0
C547 C 0.75452 0.1919 0.38038 0.0
C548 C 0.79743 0.18148 0.37888 0.0
C549 C 0.74185 0.23394 0.38322 0.0
C550 C 0.82711 0.21349 0.38304 0.0
C551 C 0.81485 0.25528 0.3837 0.0
H552 H 0.78979 0.57182 0.26825 0.0
H553 H 0.78994 0.44874 0.22864 0.0
H554 H 0.846 0.46928 0.19293 0.0
H555 H 0.90008 0.52081 0.17655 0.0
H556 H 0.89838 0.6437 0.21659 0.0
H557 H 0.83783 0.62504 0.24813 0.0
C558 C 0.80181 0.54963 0.25156 0.0
C559 C 0.78602 0.50867 0.25131 0.0
C560 C 0.83398 0.56168 0.2312 0.0
C561 C 0.80149 0.48044 0.22927 0.0
C562 C 0.83372 0.49215 0.20897 0.0
C563 C 0.88574 0.54363 0.19173 0.0
C564 C 0.90392 0.58349 0.19441 0.0
C565 C 0.8509 0.53246 0.21016 0.0
C566 C 0.88517 0.61282 0.21419 0.0
C567 C 0.85061 0.60208 0.23237 0.0
H568 H 0.48523 0.35993 0.7171 0.0
H569 H 0.35763 0.31471 0.71981 0.0
H570 H 0.37755 0.26149 0.75637 0.0
H571 H 0.4294 0.23163 0.79125 0.0
H572 H 0.55554 0.27925 0.79193 0.0
H573 H 0.53805 0.32792 0.75066 0.0
C574 C 0.46169 0.3385 0.72565 0.0
C575 C 0.41984 0.34172 0.71551 0.0
C576 C 0.47308 0.30851 0.74752 0.0
C577 C 0.39017 0.31289 0.72658 0.0
C578 C 0.40142 0.28257 0.74784 0.0
C579 C 0.45314 0.25229 0.78201 0.0
C580 C 0.49371 0.25195 0.79437 0.0
C581 C 0.44252 0.28061 0.7589 0.0
C582 C 0.52423 0.27896 0.78249 0.0
C583 C 0.51411 0.30682 0.75906 0.0
H584 H 0.6082 0.97337 0.18454 0.0
H585 H 0.60583 0.85623 0.23215 0.0
H586 H 0.66405 0.87879 0.26425 0.0
H587 H 0.71241 0.93354 0.28138 0.0
H588 H 0.71572 0.05116 0.23433 0.0
H589 H 0.66093 0.02686 0.19943 0.0
C590 C 0.62108 0.95266 0.20159 0.0
C591 C 0.60273 0.91317 0.20598 0.0
C592 C 0.65445 0.96614 0.22034 0.0
C593 C 0.61946 0.88665 0.22827 0.0
C594 C 0.6526 0.89966 0.24677 0.0
C595 C 0.70116 0.95389 0.26347 0.0
C596 C 0.71787 0.99436 0.26077 0.0
C597 C 0.66974 0.93965 0.24348 0.0
C598 C 0.7035 0.01991 0.23698 0.0
C599 C 0.67202 1.00604 0.21706 0.0
H600 H 0.05935 0.26329 0.78832 0.0
H601 H 0.93463 0.21207 0.7888 0.0
H602 H 0.95487 0.16281 0.748 0.0
H603 H 1.0098 0.13123 0.71526 0.0
H604 H 0.13614 0.17967 0.71893 0.0
H605 H 0.11326 0.2338 0.75439 0.0
C606 C 0.0365 0.24171 0.77918 0.0
C607 C 0.99559 0.24115 0.79134 0.0
C608 C 0.04873 0.21301 0.75648 0.0
C609 C 0.96621 0.21301 0.77951 0.0
C610 C 0.97789 0.18483 0.75637 0.0
C611 C 0.03244 0.15353 0.72379 0.0
C612 C 0.07482 0.15094 0.71428 0.0
C613 C 0.01937 0.18394 0.74516 0.0
C614 C 0.10326 0.18095 0.72523 0.0
C615 C 0.09031 0.21179 0.74587 0.0
H616 H 0.15623 0.4551 0.82451 0.0
H617 H 0.20092 0.32856 0.81853 0.0
H618 H 0.25673 0.35005 0.78342 0.0
H619 H 0.28748 0.40326 0.74945 0.0
H620 H 0.24156 0.52916 0.75394 0.0
H621 H 0.19233 0.50991 0.79485 0.0
C622 C 0.17885 0.43245 0.81615 0.0
C623 C 0.17406 0.39019 0.82393 0.0
C624 C 0.21062 0.44496 0.79551 0.0
C625 C 0.20348 0.36118 0.81259 0.0
C626 C 0.23545 0.37344 0.79249 0.0
C627 C 0.26748 0.42659 0.76012 0.0
C628 C 0.2685 0.46764 0.74918 0.0
C629 C 0.23855 0.41499 0.78305 0.0
C630 C 0.24186 0.49758 0.76253 0.0
C631 C 0.21343 0.48644 0.78567 0.0
H632 H 0.6159 0.58962 0.2839 0.0
H633 H 0.57662 0.62151 0.3756 0.0
H634 H 0.54067 0.68366 0.3564 0.0
H635 H 0.5162 0.72639 0.31252 0.0
H636 H 0.54928 0.68854 0.22069 0.0
H637 H 0.59087 0.63081 0.2406 0.0
C638 C 0.59991 0.61059 0.29967 0.0
C639 C 0.59926 0.60134 0.33112 0.0
C640 C 0.57729 0.6446 0.28826 0.0
C641 C 0.57812 0.6284 0.35136 0.0
C642 C 0.55711 0.66358 0.34031 0.0
C643 C 0.53237 0.70521 0.29704 0.0
C644 C 0.52946 0.71118 0.26522 0.0
C645 C 0.55567 0.67152 0.3087 0.0
C646 C 0.55072 0.68397 0.24524 0.0
C647 C 0.5747 0.65123 0.25661 0.0
H648 H 0.33324 0.0392 0.82916 0.0
H649 H 0.28658 0.16487 0.82291 0.0
H650 H 0.233 0.14218 0.78685 0.0
H651 H 0.20522 0.08832 0.75203 0.0
H652 H 0.25297 0.96322 0.75689 0.0
H653 H 0.29959 0.98353 0.79875 0.0
C654 C 0.3106 0.06137 0.82056 0.0
C655 C 0.31425 0.10377 0.82853 0.0
C656 C 0.28015 0.04817 0.79934 0.0
C657 C 0.28487 0.13216 0.81686 0.0
C658 C 0.2542 0.11922 0.7962 0.0
C659 C 0.225 0.06538 0.76298 0.0
C660 C 0.2253 0.02426 0.75186 0.0
C661 C 0.25239 0.07758 0.78651 0.0
C662 C 0.25166 0.99485 0.7656 0.0
C663 C 0.27861 1.00659 0.78929 0.0
H664 H 0.99208 0.78015 0.29997 0.0
H665 H 0.93994 0.79968 0.21053 0.0
H666 H 0.89569 0.85597 0.23066 0.0
H667 H 0.87392 0.90157 0.27334 0.0
H668 H 0.92985 0.88604 0.36195 0.0
H669 H 0.96932 0.82558 0.34312 0.0
C670 C 0.97123 0.79713 0.28501 0.0
C671 C 0.96956 0.78659 0.2538 0.0
C672 C 0.94591 0.8295 0.2968 0.0
C673 C 0.94204 0.80802 0.23455 0.0
C674 C 0.91655 0.83986 0.24609 0.0
C675 C 0.89398 0.88415 0.28861 0.0
C676 C 0.89835 0.89754 0.31908 0.0
C677 C 0.91826 0.85095 0.27715 0.0
C678 C 0.92522 0.87558 0.3386 0.0
C679 C 0.94831 0.84147 0.32769 0.0
loop_
_geom_bond_atom_site_label_1
_geom_bond_atom_site_label_2
_geom_bond_distance
_geom_bond_site_symmetry_2
_ccdc_geom_bond_type
C0 C1 1.443 . S
C0 N4 1.376 . S
C0 C38 1.389 . S
C1 C0 1.443 . S
C1 C2 1.340 . S
C1 H41 0.951 . S
C2 C1 1.340 . S
C2 C3 1.439 . S
C2 H42 0.950 . S
C3 C2 1.439 . S
C3 N4 1.374 . S
C3 C37 1.395 . S
N4 C0 1.376 . S
N4 C3 1.374 . S
N4 Co5 2.008 1_655 S
Co5 N4 2.008 1_455 S
Co5 N6 1.995 . S
Co5 N11 2.008 . S
Co5 N16 1.995 1_455 S
Co5 N21 2.282 . S
Co5 N27 2.282 1_455 S
N6 Co5 1.995 . S
N6 C7 1.376 1_455 S
N6 C10 1.383 . S
C7 N6 1.376 1_655 S
C7 C8 1.446 1_655 S
C7 C37 1.391 . S
C8 C7 1.446 1_455 S
C8 C9 1.339 . S
C8 H43 0.949 . S
C9 C8 1.339 . S
C9 C10 1.439 . S
C9 H44 0.950 . S
C10 N6 1.383 . S
C10 C9 1.439 . S
C10 C39 1.392 . S
N11 Co5 2.008 . S
N11 C12 1.376 . S
N11 C15 1.374 . S
C12 N11 1.376 . S
C12 C13 1.443 . S
C12 C39 1.389 . S
C13 C12 1.443 . S
C13 C14 1.340 . S
C13 H45 0.951 . S
C14 C13 1.340 . S
C14 C15 1.439 . S
C14 H46 0.950 . S
C15 N11 1.374 . S
C15 C14 1.439 . S
C15 C40 1.395 . S
N16 Co5 1.995 1_655 S
N16 C17 1.376 1_655 S
N16 C20 1.383 . S
C17 N16 1.376 1_455 S
C17 C18 1.446 1_455 S
C17 C40 1.391 . S
C18 C17 1.446 1_655 S
C18 C19 1.339 . S
C18 H47 0.949 . S
C19 C18 1.339 . S
C19 C20 1.439 . S
C19 H48 0.950 . S
C20 N16 1.383 . S
C20 C19 1.439 . S
C20 C38 1.392 . S
N21 Co5 2.282 . S
N21 C24 1.332 . S
N21 C26 1.332 . S
C22 C23 1.386 . S
C22 C25 1.388 . S
C23 C22 1.386 . S
C23 C24 1.382 . S
C23 H49 0.950 . S
C24 N21 1.332 . S
C24 C23 1.382 . S
C24 H35 0.952 . S
C25 C22 1.388 . S
C25 C26 1.382 . S
C25 H50 0.950 . S
C26 N21 1.332 . S
C26 C25 1.382 . S
C26 H36 0.948 1_455 S
N27 Co5 2.282 1_655 S
N27 C31 1.332 . S
N27 C32 1.332 . S
C28 C29 1.388 . S
C28 C32 1.382 . S
C28 H51 0.950 . S
C29 C28 1.388 . S
C29 C30 1.386 . S
C30 C29 1.386 . S
C30 C31 1.382 . S
C30 H52 0.950 . S
C31 N27 1.332 . S
C31 C30 1.382 . S
C31 H33 0.952 . S
C32 N27 1.332 . S
C32 C28 1.382 . S
C32 H34 0.948 1_655 S
H33 C31 0.952 . S
H34 C32 0.948 1_455 S
H35 C24 0.952 . S
H36 C26 0.948 1_655 S
C37 C3 1.395 . S
C37 C7 1.391 . S
C38 C0 1.389 . S
C38 C20 1.392 . S
C39 C10 1.392 . S
C39 C12 1.389 . S
C40 C15 1.395 . S
C40 C17 1.391 . S
H41 C1 0.951 . S
H42 C2 0.950 . S
H43 C8 0.949 . S
H44 C9 0.950 . S
H45 C13 0.951 . S
H46 C14 0.950 . S
H47 C18 0.949 . S
H48 C19 0.950 . S
H49 C23 0.950 . S
H50 C25 0.950 . S
H51 C28 0.950 . S
H52 C30 0.950 . S
C53 C54 1.443 . S
C53 N57 1.376 . S
C53 C91 1.389 . S
C54 C53 1.443 . S
C54 C55 1.340 . S
C54 H94 0.951 . S
C55 C54 1.340 . S
C55 C56 1.439 . S
C55 H95 0.950 . S
C56 C55 1.439 . S
C56 N57 1.374 . S
C56 C90 1.395 . S
N57 C53 1.376 . S
N57 C56 1.374 . S
N57 Co58 2.008 . S
Co58 N57 2.008 . S
Co58 N59 1.995 . S
Co58 N64 2.008 . S
Co58 N69 1.995 . S
Co58 N74 2.282 . S
Co58 N80 2.282 . S
N59 Co58 1.995 . S
N59 C60 1.376 . S
N59 C63 1.383 . S
C60 N59 1.376 . S
C60 C61 1.446 . S
C60 C90 1.391 . S
C61 C60 1.446 . S
C61 C62 1.339 . S
C61 H96 0.949 . S
C62 C61 1.339 . S
C62 C63 1.439 . S
C62 H97 0.950 . S
C63 N59 1.383 . S
C63 C62 1.439 . S
C63 C92 1.392 . S
N64 Co58 2.008 . S
N64 C65 1.376 . S
N64 C68 1.374 . S
C65 N64 1.376 . S
C65 C66 1.443 . S
C65 C92 1.389 . S
C66 C65 1.443 . S
C66 C67 1.340 . S
C66 H98 0.951 . S
C67 C66 1.340 . S
C67 C68 1.439 . S
C67 H99 0.950 . S
C68 N64 1.374 . S
C68 C67 1.439 . S
C68 C93 1.395 . S
N69 Co58 1.995 . S
N69 C70 1.376 . S
N69 C73 1.383 . S
C70 N69 1.376 . S
C70 C71 1.446 . S
C70 C93 1.391 . S
C71 C70 1.446 . S
C71 C72 1.339 . S
C71 H100 0.949 . S
C72 C71 1.339 . S
C72 C73 1.439 . S
C72 H101 0.950 . S
C73 N69 1.383 . S
C73 C72 1.439 . S
C73 C91 1.392 . S
N74 Co58 2.282 . S
N74 C77 1.332 . S
N74 C79 1.332 . S
C75 C76 1.386 . S
C75 C78 1.388 . S
C76 C75 1.386 . S
C76 C77 1.382 . S
C76 H102 0.950 . S
C77 N74 1.332 . S
C77 C76 1.382 . S
C77 H88 0.952 . S
C78 C75 1.388 . S
C78 C79 1.382 . S
C78 H103 0.950 . S
C79 N74 1.332 . S
C79 C78 1.382 . S
C79 H89 0.948 . S
N80 Co58 2.282 . S
N80 C84 1.332 . S
N80 C85 1.332 . S
C81 C82 1.388 . S
C81 C85 1.382 . S
C81 H104 0.950 . S
C82 C81 1.388 . S
C82 C83 1.386 . S
C83 C82 1.386 . S
C83 C84 1.382 . S
C83 H105 0.950 . S
C84 N80 1.332 . S
C84 C83 1.382 . S
C84 H86 0.952 . S
C85 N80 1.332 . S
C85 C81 1.382 . S
C85 H87 0.948 . S
H86 C84 0.952 . S
H87 C85 0.948 . S
H88 C77 0.952 . S
H89 C79 0.948 . S
C90 C56 1.395 . S
C90 C60 1.391 . S
C91 C53 1.389 . S
C91 C73 1.392 . S
C92 C63 1.392 . S
C92 C65 1.389 . S
C93 C68 1.395 . S
C93 C70 1.391 . S
H94 C54 0.951 . S
H95 C55 0.950 . S
H96 C61 0.949 . S
H97 C62 0.950 . S
H98 C66 0.951 . S
H99 C67 0.950 . S
H100 C71 0.949 . S
H101 C72 0.950 . S
H102 C76 0.950 . S
H103 C78 0.950 . S
H104 C81 0.950 . S
H105 C83 0.950 . S
C106 C107 1.443 . S
C106 N110 1.376 . S
C106 C144 1.389 . S
C107 C106 1.443 . S
C107 C108 1.340 . S
C107 H147 0.951 . S
C108 C107 1.340 . S
C108 C109 1.439 . S
C108 H148 0.950 . S
C109 C108 1.439 . S
C109 N110 1.374 . S
C109 C143 1.395 . S
N110 C106 1.376 . S
N110 C109 1.374 . S
N110 Co111 2.008 . S
Co111 N110 2.008 . S
Co111 N112 1.995 . S
Co111 N117 2.008 . S
Co111 N122 1.995 . S
Co111 N127 2.282 . S
Co111 N133 2.282 . S
N112 Co111 1.995 . S
N112 C113 1.376 . S
N112 C116 1.383 . S
C113 N112 1.376 . S
C113 C114 1.446 . S
C113 C143 1.391 . S
C114 C113 1.446 . S
C114 C115 1.339 . S
C114 H149 0.949 . S
C115 C114 1.339 . S
C115 C116 1.439 . S
C115 H150 0.950 . S
C116 N112 1.383 . S
C116 C115 1.439 . S
C116 C145 1.392 . S
N117 Co111 2.008 . S
N117 C118 1.376 . S
N117 C121 1.374 . S
C118 N117 1.376 . S
C118 C119 1.443 . S
C118 C145 1.389 . S
C119 C118 1.443 . S
C119 C120 1.340 . S
C119 H151 0.951 . S
C120 C119 1.340 . S
C120 C121 1.439 . S
C120 H152 0.950 . S
C121 N117 1.374 . S
C121 C120 1.439 . S
C121 C146 1.395 . S
N122 Co111 1.995 . S
N122 C123 1.376 . S
N122 C126 1.383 . S
C123 N122 1.376 . S
C123 C124 1.446 . S
C123 C146 1.391 . S
C124 C123 1.446 . S
C124 C125 1.339 . S
C124 H153 0.949 . S
C125 C124 1.339 . S
C125 C126 1.439 . S
C125 H154 0.950 . S
C126 N122 1.383 . S
C126 C125 1.439 . S
C126 C144 1.392 . S
N127 Co111 2.282 . S
N127 C130 1.332 . S
N127 C132 1.332 . S
C128 C129 1.386 . S
C128 C131 1.388 . S
C129 C128 1.386 . S
C129 C130 1.382 . S
C129 H155 0.950 . S
C130 N127 1.332 . S
C130 C129 1.382 . S
C130 H141 0.952 . S
C131 C128 1.388 . S
C131 C132 1.382 . S
C131 H156 0.950 . S
C132 N127 1.332 . S
C132 C131 1.382 . S
C132 H142 0.948 . S
N133 Co111 2.282 . S
N133 C137 1.332 . S
N133 C138 1.332 . S
C134 C135 1.388 . S
C134 C138 1.382 . S
C134 H157 0.950 . S
C135 C134 1.388 . S
C135 C136 1.386 . S
C136 C135 1.386 . S
C136 C137 1.382 . S
C136 H158 0.950 . S
C137 N133 1.332 . S
C137 C136 1.382 . S
C137 H139 0.952 . S
C138 N133 1.332 . S
C138 C134 1.382 . S
C138 H140 0.948 . S
H139 C137 0.952 . S
H140 C138 0.948 . S
H141 C130 0.952 . S
H142 C132 0.948 . S
C143 C109 1.395 . S
C143 C113 1.391 . S
C144 C106 1.389 . S
C144 C126 1.392 . S
C145 C116 1.392 . S
C145 C118 1.389 . S
C146 C121 1.395 . S
C146 C123 1.391 . S
H147 C107 0.951 . S
H148 C108 0.950 . S
H149 C114 0.949 . S
H150 C115 0.950 . S
H151 C119 0.951 . S
H152 C120 0.950 . S
H153 C124 0.949 . S
H154 C125 0.950 . S
H155 C129 0.950 . S
H156 C131 0.950 . S
H157 C134 0.950 . S
H158 C136 0.950 . S
C159 C160 1.443 . S
C159 N163 1.376 . S
C159 C197 1.389 . S
C160 C159 1.443 . S
C160 C161 1.340 . S
C160 H200 0.951 . S
C161 C160 1.340 . S
C161 C162 1.439 . S
C161 H201 0.950 . S
C162 C161 1.439 . S
C162 N163 1.374 . S
C162 C196 1.395 . S
N163 C159 1.376 . S
N163 C162 1.374 . S
N163 Co164 2.008 . S
Co164 N163 2.008 . S
Co164 N165 1.995 . S
Co164 N170 2.008 1_565 S
Co164 N175 1.995 1_565 S
Co164 N180 2.282 1_565 S
Co164 N186 2.282 . S
N165 Co164 1.995 . S
N165 C166 1.376 . S
N165 C169 1.383 . S
C166 N165 1.376 . S
C166 C167 1.446 . S
C166 C196 1.391 . S
C167 C166 1.446 . S
C167 C168 1.339 . S
C167 H202 0.949 . S
C168 C167 1.339 . S
C168 C169 1.439 . S
C168 H203 0.950 . S
C169 N165 1.383 . S
C169 C168 1.439 . S
C169 C198 1.392 1_565 S
N170 Co164 2.008 1_545 S
N170 C171 1.376 . S
N170 C174 1.374 . S
C171 N170 1.376 . S
C171 C172 1.443 . S
C171 C198 1.389 . S
C172 C171 1.443 . S
C172 C173 1.340 . S
C172 H204 0.951 . S
C173 C172 1.340 . S
C173 C174 1.439 . S
C173 H205 0.950 . S
C174 N170 1.374 . S
C174 C173 1.439 . S
C174 C199 1.395 . S
N175 Co164 1.995 1_545 S
N175 C176 1.376 . S
N175 C179 1.383 . S
C176 N175 1.376 . S
C176 C177 1.446 . S
C176 C199 1.391 . S
C177 C176 1.446 . S
C177 C178 1.339 . S
C177 H206 0.949 . S
C178 C177 1.339 . S
C178 C179 1.439 . S
C178 H207 0.950 . S
C179 N175 1.383 . S
C179 C178 1.439 . S
C179 C197 1.392 1_545 S
N180 Co164 2.282 1_545 S
N180 C183 1.332 . S
N180 C185 1.332 . S
C181 C182 1.386 . S
C181 C184 1.388 . S
C182 C181 1.386 . S
C182 C183 1.382 . S
C182 H208 0.950 . S
C183 N180 1.332 . S
C183 C182 1.382 . S
C183 H194 0.952 . S
C184 C181 1.388 . S
C184 C185 1.382 . S
C184 H209 0.950 . S
C185 N180 1.332 . S
C185 C184 1.382 . S
C185 H195 0.948 . S
N186 Co164 2.282 . S
N186 C190 1.332 . S
N186 C191 1.332 . S
C187 C188 1.388 . S
C187 C191 1.382 . S
C187 H210 0.950 . S
C188 C187 1.388 . S
C188 C189 1.386 . S
C189 C188 1.386 . S
C189 C190 1.382 . S
C189 H211 0.950 . S
C190 N186 1.332 . S
C190 C189 1.382 . S
C190 H192 0.952 . S
C191 N186 1.332 . S
C191 C187 1.382 . S
C191 H193 0.948 . S
H192 C190 0.952 . S
H193 C191 0.948 . S
H194 C183 0.952 . S
H195 C185 0.948 . S
C196 C162 1.395 . S
C196 C166 1.391 . S
C197 C159 1.389 . S
C197 C179 1.392 1_565 S
C198 C169 1.392 1_545 S
C198 C171 1.389 . S
C199 C174 1.395 . S
C199 C176 1.391 . S
H200 C160 0.951 . S
H201 C161 0.950 . S
H202 C167 0.949 . S
H203 C168 0.950 . S
H204 C172 0.951 . S
H205 C173 0.950 . S
H206 C177 0.949 . S
H207 C178 0.950 . S
H208 C182 0.950 . S
H209 C184 0.950 . S
H210 C187 0.950 . S
H211 C189 0.950 . S
C212 C213 1.439 1_655 S
C212 N216 1.371 1_655 S
C212 C250 1.398 . S
C213 C212 1.439 1_455 S
C213 C214 1.340 . S
C213 H253 0.951 . S
C214 C213 1.340 . S
C214 C215 1.439 . S
C214 H254 0.950 . S
C215 C214 1.439 . S
C215 N216 1.374 . S
C215 C249 1.395 . S
N216 C212 1.371 1_455 S
N216 C215 1.374 . S
N216 Co217 2.008 1_455 S
Co217 N216 2.008 1_655 S
Co217 N218 1.995 1_655 S
Co217 N223 2.008 . S
Co217 N228 1.995 . S
Co217 N233 2.282 1_655 S
Co217 N239 2.282 . S
N218 Co217 1.995 1_455 S
N218 C219 1.376 . S
N218 C222 1.383 . S
C219 N218 1.376 . S
C219 C220 1.446 . S
C219 C249 1.391 . S
C220 C219 1.446 . S
C220 C221 1.339 . S
C220 H255 0.949 . S
C221 C220 1.339 . S
C221 C222 1.439 . S
C221 H256 0.950 . S
C222 N218 1.383 . S
C222 C221 1.439 . S
C222 C251 1.392 . S
N223 Co217 2.008 . S
N223 C224 1.373 1_655 S
N223 C227 1.374 . S
C224 N223 1.373 1_455 S
C224 C225 1.441 1_455 S
C224 C251 1.395 . S
C225 C224 1.441 1_655 S
C225 C226 1.340 . S
C225 H257 0.951 . S
C226 C225 1.340 . S
C226 C227 1.439 . S
C226 H258 0.950 . S
C227 N223 1.374 . S
C227 C226 1.439 . S
C227 C252 1.395 . S
N228 Co217 1.995 . S
N228 C229 1.376 . S
N228 C232 1.383 . S
C229 N228 1.376 . S
C229 C230 1.446 . S
C229 C252 1.391 . S
C230 C229 1.446 . S
C230 C231 1.339 . S
C230 H259 0.949 . S
C231 C230 1.339 . S
C231 C232 1.439 . S
C231 H260 0.950 . S
C232 N228 1.383 . S
C232 C231 1.439 . S
C232 C250 1.392 . S
N233 Co217 2.282 1_455 S
N233 C236 1.332 . S
N233 C238 1.332 . S
C234 C235 1.386 . S
C234 C237 1.388 . S
C235 C234 1.386 . S
C235 C236 1.382 . S
C235 H261 0.950 . S
C236 N233 1.332 . S
C236 C235 1.382 . S
C236 H247 0.952 . S
C237 C234 1.388 . S
C237 C238 1.382 . S
C237 H262 0.950 . S
C238 N233 1.332 . S
C238 C237 1.382 . S
C238 H248 0.948 . S
N239 Co217 2.282 . S
N239 C243 1.332 . S
N239 C244 1.332 . S
C240 C241 1.388 . S
C240 C244 1.382 . S
C240 H263 0.950 . S
C241 C240 1.388 . S
C241 C242 1.386 . S
C242 C241 1.386 . S
C242 C243 1.382 . S
C242 H264 0.950 . S
C243 N239 1.332 . S
C243 C242 1.382 . S
C243 H245 0.952 . S
C244 N239 1.332 . S
C244 C240 1.382 . S
C244 H246 0.948 . S
H245 C243 0.952 . S
H246 C244 0.948 . S
H247 C236 0.952 . S
H248 C238 0.948 . S
C249 C215 1.395 . S
C249 C219 1.391 . S
C250 C212 1.398 . S
C250 C232 1.392 . S
C251 C222 1.392 . S
C251 C224 1.395 . S
C252 C227 1.395 . S
C252 C229 1.391 . S
H253 C213 0.951 . S
H254 C214 0.950 . S
H255 C220 0.949 . S
H256 C221 0.950 . S
H257 C225 0.951 . S
H258 C226 0.950 . S
H259 C230 0.949 . S
H260 C231 0.950 . S
H261 C235 0.950 . S
H262 C237 0.950 . S
H263 C240 0.950 . S
H264 C242 0.950 . S
C265 C266 1.443 . S
C265 N269 1.376 . S
C265 C303 1.389 . S
C266 C265 1.443 . S
C266 C267 1.340 . S
C266 H306 0.951 . S
C267 C266 1.340 . S
C267 C268 1.439 . S
C267 H307 0.950 . S
C268 C267 1.439 . S
C268 N269 1.374 . S
C268 C302 1.395 . S
N269 C265 1.376 . S
N269 C268 1.374 . S
N269 Co270 2.008 . S
Co270 N269 2.008 . S
Co270 N271 1.995 . S
Co270 N276 2.008 . S
Co270 N281 1.995 . S
Co270 N286 2.282 . S
Co270 N292 2.282 . S
N271 Co270 1.995 . S
N271 C272 1.376 . S
N271 C275 1.383 . S
C272 N271 1.376 . S
C272 C273 1.446 . S
C272 C302 1.391 . S
C273 C272 1.446 . S
C273 C274 1.339 . S
C273 H308 0.949 . S
C274 C273 1.339 . S
C274 C275 1.439 . S
C274 H309 0.950 . S
C275 N271 1.383 . S
C275 C274 1.439 . S
C275 C304 1.392 . S
N276 Co270 2.008 . S
N276 C277 1.376 . S
N276 C280 1.374 . S
C277 N276 1.376 . S
C277 C278 1.443 . S
C277 C304 1.389 . S
C278 C277 1.443 . S
C278 C279 1.340 . S
C278 H310 0.951 . S
C279 C278 1.340 . S
C279 C280 1.439 . S
C279 H311 0.950 . S
C280 N276 1.374 . S
C280 C279 1.439 . S
C280 C305 1.395 . S
N281 Co270 1.995 . S
N281 C282 1.376 . S
N281 C285 1.383 . S
C282 N281 1.376 . S
C282 C283 1.446 . S
C282 C305 1.391 . S
C283 C282 1.446 . S
C283 C284 1.339 . S
C283 H312 0.949 . S
C284 C283 1.339 . S
C284 C285 1.439 . S
C284 H313 0.950 . S
C285 N281 1.383 . S
C285 C284 1.439 . S
C285 C303 1.392 . S
N286 Co270 2.282 . S
N286 C289 1.332 . S
N286 C291 1.332 . S
C287 C288 1.386 . S
C287 C290 1.388 . S
C288 C287 1.386 . S
C288 C289 1.382 . S
C288 H314 0.950 . S
C289 N286 1.332 . S
C289 C288 1.382 . S
C289 H300 0.952 . S
C290 C287 1.388 . S
C290 C291 1.382 . S
C290 H315 0.950 . S
C291 N286 1.332 . S
C291 C290 1.382 . S
C291 H301 0.948 . S
N292 Co270 2.282 . S
N292 C296 1.332 . S
N292 C297 1.332 . S
C293 C294 1.388 . S
C293 C297 1.382 . S
C293 H316 0.950 . S
C294 C293 1.388 . S
C294 C295 1.386 . S
C295 C294 1.386 . S
C295 C296 1.382 . S
C295 H317 0.950 . S
C296 N292 1.332 . S
C296 C295 1.382 . S
C296 H298 0.952 . S
C297 N292 1.332 . S
C297 C293 1.382 . S
C297 H299 0.948 . S
H298 C296 0.952 . S
H299 C297 0.948 . S
H300 C289 0.952 . S
H301 C291 0.948 . S
C302 C268 1.395 . S
C302 C272 1.391 . S
C303 C265 1.389 . S
C303 C285 1.392 . S
C304 C275 1.392 . S
C304 C277 1.389 . S
C305 C280 1.395 . S
C305 C282 1.391 . S
H306 C266 0.951 . S
H307 C267 0.950 . S
H308 C273 0.949 . S
H309 C274 0.950 . S
H310 C278 0.951 . S
H311 C279 0.950 . S
H312 C283 0.949 . S
H313 C284 0.950 . S
H314 C288 0.950 . S
H315 C290 0.950 . S
H316 C293 0.950 . S
H317 C295 0.950 . S
C318 C319 1.443 . S
C318 N322 1.376 . S
C318 C356 1.389 . S
C319 C318 1.443 . S
C319 C320 1.340 . S
C319 H359 0.951 . S
C320 C319 1.340 . S
C320 C321 1.439 . S
C320 H360 0.950 . S
C321 C320 1.439 . S
C321 N322 1.374 . S
C321 C355 1.395 . S
N322 C318 1.376 . S
N322 C321 1.374 . S
N322 Co323 2.008 . S
Co323 N322 2.008 . S
Co323 N324 1.995 . S
Co323 N329 2.008 . S
Co323 N334 1.995 . S
Co323 N339 2.282 . S
Co323 N345 2.282 . S
N324 Co323 1.995 . S
N324 C325 1.376 . S
N324 C328 1.383 . S
C325 N324 1.376 . S
C325 C326 1.446 . S
C325 C355 1.391 . S
C326 C325 1.446 . S
C326 C327 1.339 . S
C326 H361 0.949 . S
C327 C326 1.339 . S
C327 C328 1.439 . S
C327 H362 0.950 . S
C328 N324 1.383 . S
C328 C327 1.439 . S
C328 C357 1.392 . S
N329 Co323 2.008 . S
N329 C330 1.376 . S
N329 C333 1.374 . S
C330 N329 1.376 . S
C330 C331 1.443 . S
C330 C357 1.389 . S
C331 C330 1.443 . S
C331 C332 1.340 . S
C331 H363 0.951 . S
C332 C331 1.340 . S
C332 C333 1.439 . S
C332 H364 0.950 . S
C333 N329 1.374 . S
C333 C332 1.439 . S
C333 C358 1.395 . S
N334 Co323 1.995 . S
N334 C335 1.376 . S
N334 C338 1.383 . S
C335 N334 1.376 . S
C335 C336 1.446 . S
C335 C358 1.391 . S
C336 C335 1.446 . S
C336 C337 1.339 . S
C336 H365 0.949 . S
C337 C336 1.339 . S
C337 C338 1.439 . S
C337 H366 0.950 . S
C338 N334 1.383 . S
C338 C337 1.439 . S
C338 C356 1.392 . S
N339 Co323 2.282 . S
N339 C342 1.332 . S
N339 C344 1.332 . S
C340 C341 1.386 . S
C340 C343 1.388 . S
C341 C340 1.386 . S
C341 C342 1.382 . S
C341 H367 0.950 . S
C342 N339 1.332 . S
C342 C341 1.382 . S
C342 H353 0.952 . S
C343 C340 1.388 . S
C343 C344 1.382 . S
C343 H368 0.950 . S
C344 N339 1.332 . S
C344 C343 1.382 . S
C344 H354 0.948 . S
N345 Co323 2.282 . S
N345 C349 1.332 . S
N345 C350 1.332 . S
C346 C347 1.388 . S
C346 C350 1.382 . S
C346 H369 0.950 . S
C347 C346 1.388 . S
C347 C348 1.386 . S
C348 C347 1.386 . S
C348 C349 1.382 . S
C348 H370 0.950 . S
C349 N345 1.332 . S
C349 C348 1.382 . S
C349 H351 0.952 . S
C350 N345 1.332 . S
C350 C346 1.382 . S
C350 H352 0.948 . S
H351 C349 0.952 . S
H352 C350 0.948 . S
H353 C342 0.952 . S
H354 C344 0.948 . S
C355 C321 1.395 . S
C355 C325 1.391 . S
C356 C318 1.389 . S
C356 C338 1.392 . S
C357 C328 1.392 . S
C357 C330 1.389 . S
C358 C333 1.395 . S
C358 C335 1.391 . S
H359 C319 0.951 . S
H360 C320 0.950 . S
H361 C326 0.949 . S
H362 C327 0.950 . S
H363 C331 0.951 . S
H364 C332 0.950 . S
H365 C336 0.949 . S
H366 C337 0.950 . S
H367 C341 0.950 . S
H368 C343 0.950 . S
H369 C346 0.950 . S
H370 C348 0.950 . S
C371 C372 1.443 . S
C371 N375 1.376 . S
C371 C409 1.389 . S
C372 C371 1.443 . S
C372 C373 1.340 . S
C372 H412 0.951 . S
C373 C372 1.340 . S
C373 C374 1.439 1_565 S
C373 H413 0.950 . S
C374 C373 1.439 1_545 S
C374 N375 1.374 1_545 S
C374 C408 1.395 . S
N375 C371 1.376 . S
N375 C374 1.374 1_565 S
N375 Co376 2.008 1_565 S
Co376 N375 2.008 1_545 S
Co376 N377 1.995 . S
Co376 N382 2.008 . S
Co376 N387 1.995 1_545 S
Co376 N392 2.282 . S
Co376 N398 2.282 1_545 S
N377 Co376 1.995 . S
N377 C378 1.376 . S
N377 C381 1.383 . S
C378 N377 1.376 . S
C378 C379 1.446 . S
C378 C408 1.391 . S
C379 C378 1.446 . S
C379 C380 1.339 . S
C379 H414 0.949 . S
C380 C379 1.339 . S
C380 C381 1.439 . S
C380 H415 0.950 . S
C381 N377 1.383 . S
C381 C380 1.439 . S
C381 C410 1.392 . S
N382 Co376 2.008 . S
N382 C383 1.376 . S
N382 C386 1.374 1_545 S
C383 N382 1.376 . S
C383 C384 1.443 . S
C383 C410 1.389 . S
C384 C383 1.443 . S
C384 C385 1.340 . S
C384 H416 0.951 . S
C385 C384 1.340 . S
C385 C386 1.439 1_545 S
C385 H417 0.950 . S
C386 N382 1.374 1_565 S
C386 C385 1.439 1_565 S
C386 C411 1.395 . S
N387 Co376 1.995 1_565 S
N387 C388 1.376 . S
N387 C391 1.383 . S
C388 N387 1.376 . S
C388 C389 1.446 . S
C388 C411 1.391 . S
C389 C388 1.446 . S
C389 C390 1.339 . S
C389 H418 0.949 . S
C390 C389 1.339 . S
C390 C391 1.439 . S
C390 H419 0.950 . S
C391 N387 1.383 . S
C391 C390 1.439 . S
C391 C409 1.392 . S
N392 Co376 2.282 . S
N392 C395 1.332 1_545 S
N392 C397 1.332 . S
C393 C394 1.386 . S
C393 C396 1.388 . S
C394 C393 1.386 . S
C394 C395 1.382 1_545 S
C394 H420 0.950 1_545 S
C395 N392 1.332 1_565 S
C395 C394 1.382 1_565 S
C395 H406 0.952 . S
C396 C393 1.388 . S
C396 C397 1.382 . S
C396 H421 0.950 . S
C397 N392 1.332 . S
C397 C396 1.382 . S
C397 H407 0.948 . S
N398 Co376 2.282 1_565 S
N398 C402 1.332 1_565 S
N398 C403 1.332 . S
C399 C400 1.388 . S
C399 C403 1.382 . S
C399 H422 0.950 . S
C400 C399 1.388 . S
C400 C401 1.386 . S
C401 C400 1.386 . S
C401 C402 1.382 1_565 S
C401 H423 0.950 1_565 S
C402 N398 1.332 1_545 S
C402 C401 1.382 1_545 S
C402 H404 0.952 . S
C403 N398 1.332 . S
C403 C399 1.382 . S
C403 H405 0.948 . S
H404 C402 0.952 . S
H405 C403 0.948 . S
H406 C395 0.952 . S
H407 C397 0.948 . S
C408 C374 1.395 . S
C408 C378 1.391 . S
C409 C371 1.389 . S
C409 C391 1.392 . S
C410 C381 1.392 . S
C410 C383 1.389 . S
C411 C386 1.395 . S
C411 C388 1.391 . S
H412 C372 0.951 . S
H413 C373 0.950 . S
H414 C379 0.949 . S
H415 C380 0.950 . S
H416 C384 0.951 . S
H417 C385 0.950 . S
H418 C389 0.949 . S
H419 C390 0.950 . S
H420 C394 0.950 1_565 S
H421 C396 0.950 . S
H422 C399 0.950 . S
H423 C401 0.950 1_545 S
H424 C430 0.930 . S
H425 C433 0.930 . S
H426 C434 0.930 . S
H427 C435 0.930 . S
H428 C438 0.930 . S
H429 C439 0.930 . S
C430 H424 0.930 . S
C430 C431 1.355 . S
C430 C432 1.415 . S
C431 C430 1.355 . S
C431 C433 1.419 1_655 S
C432 C430 1.415 . S
C432 C437 1.425 1_655 S
C432 C439 1.409 1_556 S
C433 H425 0.930 . S
C433 C431 1.419 1_455 S
C433 C434 1.362 . S
C434 H426 0.930 . S
C434 C433 1.362 . S
C434 C437 1.409 . S
C435 H427 0.930 . S
C435 C436 1.355 . S
C435 C437 1.415 1_554 S
C436 C435 1.355 . S
C436 C438 1.419 1_455 S
C437 C432 1.425 1_455 S
C437 C434 1.409 . S
C437 C435 1.415 1_556 S
C438 H428 0.930 . S
C438 C436 1.419 1_655 S
C438 C439 1.362 . S
C439 H429 0.930 . S
C439 C432 1.409 1_554 S
C439 C438 1.362 . S
H440 C446 0.930 . S
H441 C449 0.930 . S
H442 C450 0.930 . S
H443 C451 0.930 . S
H444 C454 0.930 . S
H445 C455 0.930 . S
C446 H440 0.930 . S
C446 C447 1.355 . S
C446 C448 1.415 . S
C447 C446 1.355 . S
C447 C449 1.419 . S
C448 C446 1.415 . S
C448 C453 1.425 . S
C448 C455 1.409 . S
C449 H441 0.930 . S
C449 C447 1.419 . S
C449 C450 1.362 . S
C450 H442 0.930 . S
C450 C449 1.362 . S
C450 C453 1.409 . S
C451 H443 0.930 . S
C451 C452 1.355 . S
C451 C453 1.415 . S
C452 C451 1.355 . S
C452 C454 1.419 . S
C453 C448 1.425 . S
C453 C450 1.409 . S
C453 C451 1.415 . S
C454 H444 0.930 . S
C454 C452 1.419 . S
C454 C455 1.362 . S
C455 H445 0.930 . S
C455 C448 1.409 . S
C455 C454 1.362 . S
H456 C462 0.930 . S
H457 C465 0.930 . S
H458 C466 0.926 1_556 S
H459 C467 0.930 . S
H460 C470 0.930 . S
H461 C471 0.930 . S
C462 H456 0.930 . S
C462 C463 1.355 . S
C462 C464 1.415 1_554 S
C463 C462 1.355 . S
C463 C465 1.419 . S
C464 C462 1.415 1_556 S
C464 C469 1.426 . S
C464 C471 1.409 1_565 S
C465 H457 0.930 . S
C465 C463 1.419 . S
C465 C466 1.374 . S
C466 H458 0.926 1_554 S
C466 C465 1.374 . S
C466 C469 1.410 1_554 S
C467 H459 0.930 . S
C467 C468 1.355 . S
C467 C469 1.406 1_545 S
C468 C467 1.355 . S
C468 C470 1.419 . S
C469 C464 1.426 . S
C469 C466 1.410 1_556 S
C469 C467 1.406 1_565 S
C470 H460 0.930 . S
C470 C468 1.419 . S
C470 C471 1.362 . S
C471 H461 0.930 . S
C471 C464 1.409 1_545 S
C471 C470 1.362 . S
H472 C478 0.930 . S
H473 C481 0.930 . S
H474 C482 0.930 . S
H475 C483 0.930 . S
H476 C486 0.930 . S
H477 C487 0.930 . S
C478 H472 0.930 . S
C478 C479 1.355 . S
C478 C480 1.415 . S
C479 C478 1.355 . S
C479 C481 1.419 . S
C480 C478 1.415 . S
C480 C485 1.425 1_655 S
C480 C487 1.409 1_545 S
C481 H473 0.930 . S
C481 C479 1.419 . S
C481 C482 1.362 1_655 S
C482 H474 0.930 . S
C482 C481 1.362 1_455 S
C482 C485 1.409 . S
C483 H475 0.930 . S
C483 C484 1.355 . S
C483 C485 1.415 1_565 S
C484 C483 1.355 . S
C484 C486 1.419 . S
C485 C480 1.425 1_455 S
C485 C482 1.409 . S
C485 C483 1.415 1_545 S
C486 H476 0.930 . S
C486 C484 1.419 . S
C486 C487 1.362 1_455 S
C487 H477 0.930 . S
C487 C480 1.409 1_565 S
C487 C486 1.362 1_655 S
H488 C494 0.930 . S
H489 C497 0.930 . S
H490 C498 0.930 . S
H491 C499 0.930 . S
H492 C502 0.930 . S
H493 C503 0.930 . S
C494 H488 0.930 . S
C494 C495 1.355 . S
C494 C496 1.415 . S
C495 C494 1.355 . S
C495 C497 1.419 . S
C496 C494 1.415 . S
C496 C501 1.425 . S
C496 C503 1.409 . S
C497 H489 0.930 . S
C497 C495 1.419 . S
C497 C498 1.362 . S
C498 H490 0.930 . S
C498 C497 1.362 . S
C498 C501 1.409 . S
C499 H491 0.930 . S
C499 C500 1.355 . S
C499 C501 1.415 . S
C500 C499 1.355 . S
C500 C502 1.419 . S
C501 C496 1.425 . S
C501 C498 1.409 . S
C501 C499 1.415 . S
C502 H492 0.930 . S
C502 C500 1.419 . S
C502 C503 1.362 . S
C503 H493 0.930 . S
C503 C496 1.409 . S
C503 C502 1.362 . S
H504 C510 0.930 . S
H505 C513 0.930 . S
H506 C514 0.930 . S
H507 C515 0.930 . S
H508 C518 0.930 . S
H509 C519 0.930 . S
C510 H504 0.930 . S
C510 C511 1.355 . S
C510 C512 1.415 . S
C511 C510 1.355 . S
C511 C513 1.419 . S
C512 C510 1.415 . S
C512 C517 1.425 . S
C512 C519 1.409 . S
C513 H505 0.930 . S
C513 C511 1.419 . S
C513 C514 1.362 . S
C514 H506 0.930 . S
C514 C513 1.362 . S
C514 C517 1.409 . S
C515 H507 0.930 . S
C515 C516 1.355 . S
C515 C517 1.415 . S
C516 C515 1.355 . S
C516 C518 1.419 . S
C517 C512 1.425 . S
C517 C514 1.409 . S
C517 C515 1.415 . S
C518 H508 0.930 . S
C518 C516 1.419 . S
C518 C519 1.362 . S
C519 H509 0.930 . S
C519 C512 1.409 . S
C519 C518 1.362 . S
H520 C526 0.930 . S
H521 C529 0.930 . S
H522 C530 0.930 . S
H523 C531 0.930 . S
H524 C534 0.930 . S
H525 C535 0.930 . S
C526 H520 0.930 . S
C526 C527 1.355 . S
C526 C528 1.415 . S
C527 C526 1.355 . S
C527 C529 1.419 . S
C528 C526 1.415 . S
C528 C533 1.425 . S
C528 C535 1.409 . S
C529 H521 0.930 . S
C529 C527 1.419 . S
C529 C530 1.362 . S
C530 H522 0.930 . S
C530 C529 1.362 . S
C530 C533 1.409 . S
C531 H523 0.930 . S
C531 C532 1.355 . S
C531 C533 1.415 . S
C532 C531 1.355 . S
C532 C534 1.419 . S
C533 C528 1.425 . S
C533 C530 1.409 . S
C533 C531 1.415 . S
C534 H524 0.930 . S
C534 C532 1.419 . S
C534 C535 1.362 . S
C535 H525 0.930 . S
C535 C528 1.409 . S
C535 C534 1.362 . S
H536 C542 0.930 . S
H537 C545 0.930 . S
H538 C546 0.930 . S
H539 C547 0.930 . S
H540 C550 0.930 . S
H541 C551 0.930 . S
C542 H536 0.930 . S
C542 C543 1.355 . S
C542 C544 1.415 . S
C543 C542 1.355 . S
C543 C545 1.419 . S
C544 C542 1.415 . S
C544 C549 1.425 . S
C544 C551 1.409 . S
C545 H537 0.930 . S
C545 C543 1.419 . S
C545 C546 1.362 . S
C546 H538 0.930 . S
C546 C545 1.362 . S
C546 C549 1.409 . S
C547 H539 0.930 . S
C547 C548 1.355 . S
C547 C549 1.415 . S
C548 C547 1.355 . S
C548 C550 1.419 . S
C549 C544 1.425 . S
C549 C546 1.409 . S
C549 C547 1.415 . S
C550 H540 0.930 . S
C550 C548 1.419 . S
C550 C551 1.362 . S
C551 H541 0.930 . S
C551 C544 1.409 . S
C551 C550 1.362 . S
H552 C558 0.930 . S
H553 C561 0.930 . S
H554 C562 0.930 . S
H555 C563 0.930 . S
H556 C566 0.930 . S
H557 C567 0.930 . S
C558 H552 0.930 . S
C558 C559 1.355 . S
C558 C560 1.415 . S
C559 C558 1.355 . S
C559 C561 1.419 . S
C560 C558 1.415 . S
C560 C565 1.425 . S
C560 C567 1.409 . S
C561 H553 0.930 . S
C561 C559 1.419 . S
C561 C562 1.362 . S
C562 H554 0.930 . S
C562 C561 1.362 . S
C562 C565 1.409 . S
C563 H555 0.930 . S
C563 C564 1.355 . S
C563 C565 1.415 . S
C564 C563 1.355 . S
C564 C566 1.419 . S
C565 C560 1.425 . S
C565 C562 1.409 . S
C565 C563 1.415 . S
C566 H556 0.930 . S
C566 C564 1.419 . S
C566 C567 1.362 . S
C567 H557 0.930 . S
C567 C560 1.409 . S
C567 C566 1.362 . S
H568 C574 0.930 . S
H569 C577 0.930 . S
H570 C578 0.930 . S
H571 C579 0.930 . S
H572 C582 0.930 . S
H573 C583 0.930 . S
C574 H568 0.930 . S
C574 C575 1.355 . S
C574 C576 1.415 . S
C575 C574 1.355 . S
C575 C577 1.419 . S
C576 C574 1.415 . S
C576 C581 1.425 . S
C576 C583 1.409 . S
C577 H569 0.930 . S
C577 C575 1.419 . S
C577 C578 1.362 . S
C578 H570 0.930 . S
C578 C577 1.362 . S
C578 C581 1.409 . S
C579 H571 0.930 . S
C579 C580 1.355 . S
C579 C581 1.415 . S
C580 C579 1.355 . S
C580 C582 1.419 . S
C581 C576 1.425 . S
C581 C578 1.409 . S
C581 C579 1.415 . S
C582 H572 0.930 . S
C582 C580 1.419 . S
C582 C583 1.362 . S
C583 H573 0.930 . S
C583 C576 1.409 . S
C583 C582 1.362 . S
H584 C590 0.930 . S
H585 C593 0.930 . S
H586 C594 0.930 . S
H587 C595 0.930 . S
H588 C598 0.930 . S
H589 C599 0.930 . S
C590 H584 0.930 . S
C590 C591 1.355 . S
C590 C592 1.415 . S
C591 C590 1.355 . S
C591 C593 1.419 . S
C592 C590 1.415 . S
C592 C597 1.425 . S
C592 C599 1.409 . S
C593 H585 0.930 . S
C593 C591 1.419 . S
C593 C594 1.362 . S
C594 H586 0.930 . S
C594 C593 1.362 . S
C594 C597 1.409 . S
C595 H587 0.930 . S
C595 C596 1.355 . S
C595 C597 1.415 . S
C596 C595 1.355 . S
C596 C598 1.419 . S
C597 C592 1.425 . S
C597 C594 1.409 . S
C597 C595 1.415 . S
C598 H588 0.930 . S
C598 C596 1.419 . S
C598 C599 1.362 . S
C599 H589 0.930 . S
C599 C592 1.409 . S
C599 C598 1.362 . S
H600 C606 0.930 . S
H601 C609 0.930 1_655 S
H602 C610 0.930 1_655 S
H603 C611 0.930 . S
H604 C614 0.930 . S
H605 C615 0.930 . S
C606 H600 0.930 . S
C606 C607 1.355 . S
C606 C608 1.415 . S
C607 C606 1.355 . S
C607 C609 1.419 . S
C608 C606 1.415 . S
C608 C613 1.425 . S
C608 C615 1.409 . S
C609 H601 0.930 1_455 S
C609 C607 1.419 . S
C609 C610 1.362 . S
C610 H602 0.930 1_455 S
C610 C609 1.362 . S
C610 C613 1.409 . S
C611 H603 0.930 . S
C611 C612 1.355 . S
C611 C613 1.415 . S
C612 C611 1.355 . S
C612 C614 1.419 . S
C613 C608 1.425 . S
C613 C610 1.409 . S
C613 C611 1.415 . S
C614 H604 0.930 . S
C614 C612 1.419 . S
C614 C615 1.362 . S
C615 H605 0.930 . S
C615 C608 1.409 . S
C615 C614 1.362 . S
H616 C622 0.930 . S
H617 C625 0.930 . S
H618 C626 0.930 . S
H619 C627 0.930 . S
H620 C630 0.930 . S
H621 C631 0.930 . S
C622 H616 0.930 . S
C622 C623 1.355 . S
C622 C624 1.415 . S
C623 C622 1.355 . S
C623 C625 1.419 . S
C624 C622 1.415 . S
C624 C629 1.425 . S
C624 C631 1.409 . S
C625 H617 0.930 . S
C625 C623 1.419 . S
C625 C626 1.362 . S
C626 H618 0.930 . S
C626 C625 1.362 . S
C626 C629 1.409 . S
C627 H619 0.930 . S
C627 C628 1.355 . S
C627 C629 1.415 . S
C628 C627 1.355 . S
C628 C630 1.419 . S
C629 C624 1.425 . S
C629 C626 1.409 . S
C629 C627 1.415 . S
C630 H620 0.930 . S
C630 C628 1.419 . S
C630 C631 1.362 . S
C631 H621 0.930 . S
C631 C624 1.409 . S
C631 C630 1.362 . S
H632 C638 0.930 . S
H633 C641 0.930 . S
H634 C642 0.930 . S
H635 C643 0.930 . S
H636 C646 0.930 . S
H637 C647 0.930 . S
C638 H632 0.930 . S
C638 C639 1.355 . S
C638 C640 1.415 . S
C639 C638 1.355 . S
C639 C641 1.419 . S
C640 C638 1.415 . S
C640 C645 1.425 . S
C640 C647 1.409 . S
C641 H633 0.930 . S
C641 C639 1.419 . S
C641 C642 1.362 . S
C642 H634 0.930 . S
C642 C641 1.362 . S
C642 C645 1.409 . S
C643 H635 0.930 . S
C643 C644 1.355 . S
C643 C645 1.415 . S
C644 C643 1.355 . S
C644 C646 1.419 . S
C645 C640 1.425 . S
C645 C642 1.409 . S
C645 C643 1.415 . S
C646 H636 0.930 . S
C646 C644 1.419 . S
C646 C647 1.362 . S
C647 H637 0.930 . S
C647 C640 1.409 . S
C647 C646 1.362 . S
H648 C654 0.930 . S
H649 C657 0.930 . S
H650 C658 0.930 . S
H651 C659 0.930 . S
H652 C662 0.930 . S
H653 C663 0.930 . S
C654 H648 0.930 . S
C654 C655 1.355 . S
C654 C656 1.415 . S
C655 C654 1.355 . S
C655 C657 1.419 . S
C656 C654 1.415 . S
C656 C661 1.425 . S
C656 C663 1.409 . S
C657 H649 0.930 . S
C657 C655 1.419 . S
C657 C658 1.362 . S
C658 H650 0.930 . S
C658 C657 1.362 . S
C658 C661 1.409 . S
C659 H651 0.930 . S
C659 C660 1.355 . S
C659 C661 1.415 . S
C660 C659 1.355 . S
C660 C662 1.419 . S
C661 C656 1.425 . S
C661 C658 1.409 . S
C661 C659 1.415 . S
C662 H652 0.930 . S
C662 C660 1.419 . S
C662 C663 1.362 . S
C663 H653 0.930 . S
C663 C656 1.409 . S
C663 C662 1.362 . S
H664 C670 0.930 . S
H665 C673 0.930 . S
H666 C674 0.930 . S
H667 C675 0.930 . S
H668 C678 0.930 . S
H669 C679 0.930 . S
C670 H664 0.930 . S
C670 C671 1.355 . S
C670 C672 1.415 . S
C671 C670 1.355 . S
C671 C673 1.419 . S
C672 C670 1.415 . S
C672 C677 1.425 . S
C672 C679 1.409 . S
C673 H665 0.930 . S
C673 C671 1.419 . S
C673 C674 1.362 . S
C674 H666 0.930 . S
C674 C673 1.362 . S
C674 C677 1.409 . S
C675 H667 0.930 . S
C675 C676 1.355 . S
C675 C677 1.415 . S
C676 C675 1.355 . S
C676 C678 1.419 . S
C677 C672 1.425 . S
C677 C674 1.409 . S
C677 C675 1.415 . S
C678 H668 0.930 . S
C678 C676 1.419 . S
C678 C679 1.362 . S
C679 H669 0.930 . S
C679 C672 1.409 . S
C679 C678 1.362 . S
C431 C250 2.027 . S
C436 C22 2.020 . S
C447 C91 1.948 . S
C452 C287 1.942 . S
C463 C128 1.835 . S
C468 C356 1.842 . S
C479 C393 1.973 . S
C484 C197 1.979 . S
C495 C39 2.732 . S
C500 C145 2.720 . S
C511 C82 2.353 . S
C516 C188 2.395 . S
C527 C347 2.348 . S
C532 C241 2.359 . S
C543 C304 2.748 . S
C548 C410 2.743 . S
C559 C294 1.633 . S
C564 C38 1.565 . S
C575 C75 1.675 . S
C580 C357 1.788 . S
C591 C144 1.693 . S
C596 C400 1.725 . S
C607 C251 1.599 . S
C612 C181 1.511 . S
C623 C234 1.609 . S
C628 C92 1.691 . S
C639 C303 1.672 . S
C644 C135 1.732 . S
C655 C340 1.666 . S
C660 C198 1.742 . S
C671 C29 1.616 . S
C676 C409 1.550 . S
