# Generated by pormake.
# Topology vbx, (6)-cn, num edge types: 1
# Building blocks:
#     Node 0, Type 0, BuildingBlock: IZENUY_clean_sbu_0, # of connection points: 6
#     Node 1, Type 0, BuildingBlock: IZENUY_clean_sbu_0, # of connection points: 6
#     Node 2, Type 0, BuildingBlock: IZENUY_clean_sbu_0, # of connection points: 6
#     Node 3, Type 0, BuildingBlock: IZENUY_clean_sbu_0, # of connection points: 6
#     Node 4, Type 0, BuildingBlock: IZENUY_clean_sbu_0, # of connection points: 6
#     Node 5, Type 0, BuildingBlock: IZENUY_clean_sbu_0, # of connection points: 6
#     Node 6, Type 0, BuildingBlock: IZENUY_clean_sbu_0, # of connection points: 6
#     Node 7, Type 0, BuildingBlock: IZENUY_clean_sbu_0, # of connection points: 6
#     Node 8, Type 0, BuildingBlock: IZENUY_clean_sbu_0, # of connection points: 6
#     Node 9, Type 0, BuildingBlock: IZENUY_clean_sbu_0, # of connection points: 6
#     Node 10, Type 0, BuildingBlock: IZENUY_clean_sbu_0, # of connection points: 6
#     Node 11, Type 0, BuildingBlock: IZENUY_clean_sbu_0, # of connection points: 6
#     Node 12, Type 0, BuildingBlock: IZENUY_clean_sbu_0, # of connection points: 6
#     Node 13, Type 0, BuildingBlock: IZENUY_clean_sbu_0, # of connection points: 6
#     Node 14, Type 0, BuildingBlock: IZENUY_clean_sbu_0, # of connection points: 6
#     Node 15, Type 0, BuildingBlock: IZENUY_clean_sbu_0, # of connection points: 6
#     Edge 16, Type (0, 0), BuildingBlock: XUDNAN_clean_linker_2, # of connection points: 2
#     Edge 17, Type (0, 0), BuildingBlock: XUDNAN_clean_linker_2, # of connection points: 2
#     Edge 18, Type (0, 0), BuildingBlock: XUDNAN_clean_linker_2, # of connection points: 2
#     Edge 19, Type (0, 0), BuildingBlock: XUDNAN_clean_linker_2, # of connection points: 2
#     Edge 20, Type (0, 0), BuildingBlock: XUDNAN_clean_linker_2, # of connection points: 2
#     Edge 21, Type (0, 0), BuildingBlock: XUDNAN_clean_linker_2, # of connection points: 2
#     Edge 22, Type (0, 0), BuildingBlock: XUDNAN_clean_linker_2, # of connection points: 2
#     Edge 23, Type (0, 0), BuildingBlock: XUDNAN_clean_linker_2, # of connection points: 2
#     Edge 24, Type (0, 0), BuildingBlock: XUDNAN_clean_linker_2, # of connection points: 2
#     Edge 25, Type (0, 0), BuildingBlock: XUDNAN_clean_linker_2, # of connection points: 2
#     Edge 26, Type (0, 0), BuildingBlock: XUDNAN_clean_linker_2, # of connection points: 2
#     Edge 27, Type (0, 0), BuildingBlock: XUDNAN_clean_linker_2, # of connection points: 2
#     Edge 28, Type (0, 0), BuildingBlock: XUDNAN_clean_linker_2, # of connection points: 2
#     Edge 29, Type (0, 0), BuildingBlock: XUDNAN_clean_linker_2, # of connection points: 2
#     Edge 30, Type (0, 0), BuildingBlock: XUDNAN_clean_linker_2, # of connection points: 2
#     Edge 31, Type (0, 0), BuildingBlock: XUDNAN_clean_linker_2, # of connection points: 2
#     Edge 32, Type (0, 0), BuildingBlock: XUDNAN_clean_linker_2, # of connection points: 2
#     Edge 33, Type (0, 0), BuildingBlock: XUDNAN_clean_linker_2, # of connection points: 2
#     Edge 34, Type (0, 0), BuildingBlock: XUDNAN_clean_linker_2, # of connection points: 2
#     Edge 35, Type (0, 0), BuildingBlock: XUDNAN_clean_linker_2, # of connection points: 2
#     Edge 36, Type (0, 0), BuildingBlock: XUDNAN_clean_linker_2, # of connection points: 2
#     Edge 37, Type (0, 0), BuildingBlock: XUDNAN_clean_linker_2, # of connection points: 2
#     Edge 38, Type (0, 0), BuildingBlock: XUDNAN_clean_linker_2, # of connection points: 2
#     Edge 39, Type (0, 0), BuildingBlock: XUDNAN_clean_linker_2, # of connection points: 2
#     Edge 40, Type (0, 0), BuildingBlock: XUDNAN_clean_linker_2, # of connection points: 2
#     Edge 41, Type (0, 0), BuildingBlock: XUDNAN_clean_linker_2, # of connection points: 2
#     Edge 42, Type (0, 0), BuildingBlock: XUDNAN_clean_linker_2, # of connection points: 2
#     Edge 43, Type (0, 0), BuildingBlock: XUDNAN_clean_linker_2, # of connection points: 2
#     Edge 44, Type (0, 0), BuildingBlock: XUDNAN_clean_linker_2, # of connection points: 2
#     Edge 45, Type (0, 0), BuildingBlock: XUDNAN_clean_linker_2, # of connection points: 2
#     Edge 46, Type (0, 0), BuildingBlock: XUDNAN_clean_linker_2, # of connection points: 2
#     Edge 47, Type (0, 0), BuildingBlock: XUDNAN_clean_linker_2, # of connection points: 2
#     Edge 48, Type (0, 0), BuildingBlock: XUDNAN_clean_linker_2, # of connection points: 2
#     Edge 49, Type (0, 0), BuildingBlock: XUDNAN_clean_linker_2, # of connection points: 2
#     Edge 50, Type (0, 0), BuildingBlock: XUDNAN_clean_linker_2, # of connection points: 2
#     Edge 51, Type (0, 0), BuildingBlock: XUDNAN_clean_linker_2, # of connection points: 2
#     Edge 52, Type (0, 0), BuildingBlock: XUDNAN_clean_linker_2, # of connection points: 2
#     Edge 53, Type (0, 0), BuildingBlock: XUDNAN_clean_linker_2, # of connection points: 2
#     Edge 54, Type (0, 0), BuildingBlock: XUDNAN_clean_linker_2, # of connection points: 2
#     Edge 55, Type (0, 0), BuildingBlock: XUDNAN_clean_linker_2, # of connection points: 2
#     Edge 56, Type (0, 0), BuildingBlock: XUDNAN_clean_linker_2, # of connection points: 2
#     Edge 57, Type (0, 0), BuildingBlock: XUDNAN_clean_linker_2, # of connection points: 2
#     Edge 58, Type (0, 0), BuildingBlock: XUDNAN_clean_linker_2, # of connection points: 2
#     Edge 59, Type (0, 0), BuildingBlock: XUDNAN_clean_linker_2, # of connection points: 2
#     Edge 60, Type (0, 0), BuildingBlock: XUDNAN_clean_linker_2, # of connection points: 2
#     Edge 61, Type (0, 0), BuildingBlock: XUDNAN_clean_linker_2, # of connection points: 2
#     Edge 62, Type (0, 0), BuildingBlock: XUDNAN_clean_linker_2, # of connection points: 2
#     Edge 63, Type (0, 0), BuildingBlock: XUDNAN_clean_linker_2, # of connection points: 2
# Relax obj value: 0.242
# Max RMSD: 0.243
# Mean RMSD: 0.243
data_MOF--net-vbx--node1-IZENUY_clean_sbu_0--edge1-XUDNAN_clean_linker_2
_symmetry_space_group_name_H-M    P1
_symmetry_Int_Tables_number       1
_symmetry_cell_setting            triclinic
loop_
_symmetry_equiv_pos_as_xyz
'x, y, z'
_cell_length_a     45.644594
_cell_length_b     27.672464
_cell_length_c     56.031598
_cell_angle_alpha  90.011927
_cell_angle_beta   89.860718
_cell_angle_gamma 90.074431
loop_
_atom_site_label
_atom_site_type_symbol
_atom_site_fract_x
_atom_site_fract_y
_atom_site_fract_z
_atom_type_partial_charge
Fe0 Fe 0.3651 0.42084 0.1202 0.0
Fe1 Fe 0.36383 0.32857 0.08982 0.0
O2 O 0.34691 0.36752 0.11075 0.0
Fe3 Fe 0.31197 0.35311 0.12224 0.0
O4 O 0.29653 0.40881 0.11119 0.0
O5 O 0.33128 0.45613 0.12485 0.0
O6 O 0.36577 0.44414 0.08975 0.0
C7 C 0.37704 0.42171 0.07234 0.0
C8 C 0.34302 0.3859 0.16231 0.0
O9 O 0.38332 0.37728 0.07416 0.0
C10 C 0.33453 0.26276 0.12091 0.0
O11 O 0.40217 0.3951 0.11726 0.0
O12 O 0.39446 0.31814 0.10975 0.0
O13 O 0.31897 0.37892 0.15169 0.0
O14 O 0.36544 0.40016 0.15108 0.0
C15 C 0.30791 0.3266 0.07339 0.0
O16 O 0.34685 0.27267 0.10124 0.0
O17 O 0.32487 0.29604 0.13404 0.0
C18 C 0.41095 0.35156 0.1172 0.0
O19 O 0.33427 0.33662 0.06866 0.0
O20 O 0.29897 0.32461 0.09477 0.0
C21 C 0.30562 0.45029 0.11664 0.0
Fe22 Fe 0.67758 0.61311 0.62442 0.0
Fe23 Fe 0.67273 0.69412 0.58771 0.0
O24 O 0.6934 0.66332 0.60954 0.0
Fe25 Fe 0.72961 0.68199 0.61638 0.0
O26 O 0.74434 0.62314 0.609 0.0
O27 O 0.71245 0.58072 0.62941 0.0
O28 O 0.67438 0.58014 0.59672 0.0
C29 C 0.66107 0.59591 0.57862 0.0
C30 C 0.70313 0.6623 0.66106 0.0
O31 O 0.65309 0.63974 0.57745 0.0
C32 C 0.70524 0.7707 0.60985 0.0
O33 O 0.63952 0.63538 0.6224 0.0
O34 O 0.64443 0.70955 0.60923 0.0
O35 O 0.72621 0.66729 0.64854 0.0
O36 O 0.68007 0.64429 0.65247 0.0
C37 C 0.72606 0.69045 0.56583 0.0
O38 O 0.68944 0.75394 0.59318 0.0
O39 O 0.71808 0.74258 0.62405 0.0
C40 C 0.62957 0.67791 0.62007 0.0
O41 O 0.69927 0.68009 0.56513 0.0
O42 O 0.73869 0.70032 0.58542 0.0
C43 C 0.7367 0.58383 0.61845 0.0
Fe44 Fe 0.30798 0.68001 0.88062 0.0
Fe45 Fe 0.36149 0.6121 0.87587 0.0
O46 O 0.34477 0.66509 0.88791 0.0
Fe47 Fe 0.36468 0.70355 0.9077 0.0
O48 O 0.3328 0.72283 0.92469 0.0
O49 O 0.29636 0.67826 0.9118 0.0
O50 O 0.29476 0.61792 0.87767 0.0
C51 C 0.30516 0.57742 0.88352 0.0
C52 C 0.3364 0.77199 0.88144 0.0
O53 O 0.33235 0.57206 0.88645 0.0
C54 C 0.40955 0.67256 0.87571 0.0
O55 O 0.31666 0.6834 0.84919 0.0
O56 O 0.34452 0.61845 0.8462 0.0
O57 O 0.36118 0.75585 0.88785 0.0
O58 O 0.31396 0.74511 0.88195 0.0
C59 C 0.37774 0.61284 0.9249 0.0
O60 O 0.39254 0.64579 0.86391 0.0
O61 O 0.40106 0.6914 0.89504 0.0
C62 C 0.32983 0.65228 0.83669 0.0
O63 O 0.38103 0.59735 0.90371 0.0
O64 O 0.36848 0.65495 0.92901 0.0
C65 C 0.30802 0.70383 0.92784 0.0
Fe66 Fe 0.66886 0.42597 0.37937 0.0
Fe67 Fe 0.67506 0.33061 0.40608 0.0
O68 O 0.68977 0.37357 0.38595 0.0
Fe69 Fe 0.72488 0.36496 0.37282 0.0
O70 O 0.73841 0.42295 0.38379 0.0
O71 O 0.70029 0.46562 0.37331 0.0
O72 O 0.67009 0.44548 0.41048 0.0
C73 C 0.66105 0.41933 0.42747 0.0
C74 C 0.68862 0.39993 0.33503 0.0
O75 O 0.65522 0.37521 0.42397 0.0
C76 C 0.70563 0.27095 0.37289 0.0
O77 O 0.63285 0.39658 0.38337 0.0
O78 O 0.64367 0.31986 0.38697 0.0
O79 O 0.71381 0.39065 0.34365 0.0
O80 O 0.66695 0.40898 0.3484 0.0
C81 C 0.73202 0.33384 0.42109 0.0
O82 O 0.69251 0.27807 0.39242 0.0
O83 O 0.71559 0.30576 0.3608 0.0
C84 C 0.62552 0.35248 0.38172 0.0
O85 O 0.70531 0.33848 0.42638 0.0
O86 O 0.74093 0.33737 0.39966 0.0
C87 C 0.72685 0.46321 0.37939 0.0
Fe88 Fe 0.66677 0.6947 0.90659 0.0
Fe89 Fe 0.6743 0.61334 0.87009 0.0
O90 O 0.68863 0.66456 0.88504 0.0
Fe91 Fe 0.72482 0.68452 0.87854 0.0
O92 O 0.73302 0.70419 0.90935 0.0
O93 O 0.69341 0.68368 0.92938 0.0
O94 O 0.64875 0.63898 0.91728 0.0
C95 C 0.65754 0.59549 0.91601 0.0
C96 C 0.69888 0.77225 0.88423 0.0
O97 O 0.67123 0.58041 0.89787 0.0
C98 C 0.69977 0.66315 0.83362 0.0
O99 O 0.63759 0.70715 0.88529 0.0
O100 O 0.63584 0.63289 0.8716 0.0
O101 O 0.71245 0.74414 0.87044 0.0
O102 O 0.68212 0.75568 0.90045 0.0
C103 C 0.73393 0.58718 0.87647 0.0
O104 O 0.67672 0.64453 0.84199 0.0
O105 O 0.72245 0.66902 0.84643 0.0
C106 C 0.62423 0.67412 0.87416 0.0
O107 O 0.7099 0.58312 0.86539 0.0
O108 O 0.74051 0.6265 0.88638 0.0
C109 C 0.71999 0.69538 0.92889 0.0
Fe110 Fe 0.36189 0.32627 0.41186 0.0
Fe111 Fe 0.36699 0.41407 0.37746 0.0
O112 O 0.34715 0.36372 0.38912 0.0
Fe113 Fe 0.31161 0.35063 0.37804 0.0
O114 O 0.29505 0.36263 0.40698 0.0
O115 O 0.32653 0.31673 0.42649 0.0
O116 O 0.36659 0.37712 0.43182 0.0
C117 C 0.37799 0.41773 0.42754 0.0
C118 C 0.33338 0.25658 0.38667 0.0
O119 O 0.383 0.43162 0.40633 0.0
C120 C 0.34224 0.36693 0.3369 0.0
O121 O 0.39977 0.33022 0.4014 0.0
O122 O 0.3988 0.37776 0.36984 0.0
O123 O 0.31269 0.28619 0.38424 0.0
O124 O 0.358 0.27116 0.39398 0.0
C125 C 0.31133 0.45185 0.37712 0.0
O126 O 0.35417 0.40379 0.3465 0.0
O127 O 0.32673 0.33798 0.349 0.0
C128 C 0.41178 0.34762 0.38296 0.0
O129 O 0.33734 0.45642 0.3842 0.0
O130 O 0.3025 0.41195 0.36923 0.0
C131 C 0.30302 0.34089 0.4257 0.0
Fe132 Fe 0.66894 0.42722 0.11471 0.0
Fe133 Fe 0.72354 0.36305 0.12108 0.0
O134 O 0.68856 0.37337 0.10847 0.0
Fe135 Fe 0.6726 0.32993 0.08917 0.0
O136 O 0.652 0.37432 0.07154 0.0
O137 O 0.66918 0.44427 0.08333 0.0
O138 O 0.70133 0.46633 0.11877 0.0
C139 C 0.72793 0.46088 0.113 0.0
C140 C 0.62486 0.35438 0.11515 0.0
O141 O 0.73818 0.41927 0.10956 0.0
C142 C 0.70397 0.27001 0.12168 0.0
O143 O 0.6678 0.41314 0.14599 0.0
O144 O 0.71388 0.39027 0.15027 0.0
O145 O 0.64222 0.32063 0.1096 0.0
O146 O 0.63257 0.39822 0.11247 0.0
C147 C 0.72859 0.33391 0.07251 0.0
O148 O 0.71251 0.30556 0.13381 0.0
O149 O 0.69093 0.27681 0.10211 0.0
C150 C 0.68927 0.40252 0.15912 0.0
O151 O 0.73848 0.33437 0.09372 0.0
O152 O 0.7017 0.33756 0.06803 0.0
C153 C 0.65857 0.41788 0.06712 0.0
Fe154 Fe 0.31644 0.66927 0.61529 0.0
Fe155 Fe 0.37528 0.69435 0.59188 0.0
O156 O 0.35379 0.65633 0.61033 0.0
Fe157 Fe 0.36991 0.60437 0.6234 0.0
O158 O 0.336 0.56796 0.62433 0.0
O159 O 0.305 0.61114 0.60363 0.0
O160 O 0.30982 0.69395 0.58505 0.0
C161 C 0.32481 0.68988 0.56603 0.0
C162 C 0.33821 0.64062 0.66075 0.0
O163 O 0.35201 0.68353 0.56674 0.0
C164 C 0.41594 0.67427 0.62537 0.0
O165 O 0.32481 0.72818 0.62739 0.0
O166 O 0.35566 0.75103 0.59947 0.0
O167 O 0.36321 0.62751 0.65332 0.0
O168 O 0.3171 0.64726 0.64632 0.0
C169 C 0.39057 0.60064 0.57757 0.0
O170 O 0.40045 0.70693 0.61607 0.0
O171 O 0.4072 0.63064 0.62501 0.0
C172 C 0.33834 0.76111 0.61649 0.0
O173 O 0.39801 0.64451 0.58027 0.0
O174 O 0.37661 0.57904 0.59391 0.0
C175 C 0.31278 0.57103 0.6121 0.0
Fe176 Fe 0.86979 0.92719 0.1162 0.0
Fe177 Fe 0.86281 0.83903 0.08417 0.0
O178 O 0.84859 0.87707 0.10675 0.0
Fe179 Fe 0.81362 0.86591 0.11962 0.0
O180 O 0.8003 0.92605 0.11177 0.0
O181 O 0.83868 0.96527 0.12482 0.0
O182 O 0.86833 0.95409 0.08651 0.0
C183 C 0.87787 0.93253 0.06818 0.0
C184 C 0.85049 0.89063 0.15873 0.0
O185 O 0.88273 0.88748 0.06868 0.0
C186 C 0.83234 0.77238 0.11427 0.0
O187 O 0.9055 0.89882 0.11018 0.0
O188 O 0.89441 0.82355 0.10225 0.0
O189 O 0.82501 0.88521 0.14989 0.0
O190 O 0.87207 0.90255 0.14586 0.0
C191 C 0.80578 0.84461 0.07013 0.0
O192 O 0.84522 0.78371 0.09507 0.0
O193 O 0.82295 0.80445 0.12837 0.0
C194 C 0.91256 0.85459 0.10952 0.0
O195 O 0.83226 0.85189 0.06476 0.0
O196 O 0.79732 0.84387 0.09172 0.0
C197 C 0.81212 0.96473 0.11867 0.0
Fe198 Fe 0.17649 0.10489 0.62454 0.0
Fe199 Fe 0.175 0.18717 0.58783 0.0
O200 O 0.19415 0.1536 0.60968 0.0
Fe201 Fe 0.23105 0.1676 0.61678 0.0
O202 O 0.24343 0.10716 0.60813 0.0
O203 O 0.21017 0.07005 0.62962 0.0
O204 O 0.17236 0.07251 0.59674 0.0
C205 C 0.16092 0.0896 0.57807 0.0
C206 C 0.20464 0.1485 0.66144 0.0
O207 O 0.1552 0.13432 0.57613 0.0
C208 C 0.20869 0.25909 0.61254 0.0
O209 O 0.13915 0.12944 0.6223 0.0
O210 O 0.1458 0.20265 0.60862 0.0
O211 O 0.22721 0.15043 0.64822 0.0
O212 O 0.18016 0.13534 0.6531 0.0
C213 C 0.22874 0.18727 0.56692 0.0
O214 O 0.19229 0.24523 0.59559 0.0
O215 O 0.22178 0.22887 0.62565 0.0
C216 C 0.12996 0.17204 0.61918 0.0
O217 O 0.20234 0.17486 0.56514 0.0
O218 O 0.24101 0.18915 0.58705 0.0
C219 C 0.23427 0.06942 0.6184 0.0
Fe220 Fe 0.86552 0.21133 0.90201 0.0
Fe221 Fe 0.80738 0.18547 0.87788 0.0
O222 O 0.84463 0.17123 0.88382 0.0
Fe223 Fe 0.86085 0.11746 0.87224 0.0
O224 O 0.88159 0.10493 0.89978 0.0
O225 O 0.8699 0.16465 0.92426 0.0
O226 O 0.83459 0.23311 0.91935 0.0
C227 C 0.81022 0.21422 0.92421 0.0
C228 C 0.90903 0.17708 0.86968 0.0
O229 O 0.79794 0.18615 0.90959 0.0
C230 C 0.82679 0.15457 0.83367 0.0
O231 O 0.86125 0.26135 0.88091 0.0
O232 O 0.81359 0.25076 0.87741 0.0
O233 O 0.89137 0.15009 0.85871 0.0
O234 O 0.90132 0.1974 0.88883 0.0
C235 C 0.80498 0.0832 0.88264 0.0
O236 O 0.81386 0.18605 0.84612 0.0
O237 O 0.84251 0.1219 0.84308 0.0
C238 C 0.83613 0.27715 0.87509 0.0
O239 O 0.79401 0.12328 0.87687 0.0
O240 O 0.83234 0.07808 0.88433 0.0
C241 C 0.87888 0.12211 0.92072 0.0
Fe242 Fe 0.17241 0.91457 0.38062 0.0
Fe243 Fe 0.17356 0.81786 0.40669 0.0
O244 O 0.19041 0.8593 0.3869 0.0
Fe245 Fe 0.2249 0.84591 0.37378 0.0
O246 O 0.24142 0.90039 0.38556 0.0
O247 O 0.20607 0.95011 0.37603 0.0
O248 O 0.17368 0.93259 0.41183 0.0
C249 C 0.16268 0.90766 0.42844 0.0
C250 C 0.19141 0.88743 0.33612 0.0
O251 O 0.15527 0.86423 0.42473 0.0
C252 C 0.20163 0.75551 0.37323 0.0
O253 O 0.13506 0.88943 0.38368 0.0
O254 O 0.14217 0.81133 0.3872 0.0
O255 O 0.21591 0.87453 0.34485 0.0
O256 O 0.17031 0.89959 0.34941 0.0
C257 C 0.23016 0.81358 0.42196 0.0
O258 O 0.18918 0.76354 0.39298 0.0
O259 O 0.21202 0.78966 0.36104 0.0
C260 C 0.12571 0.84632 0.3819 0.0
O261 O 0.20381 0.82213 0.42724 0.0
O262 O 0.23906 0.81481 0.40046 0.0
C263 C 0.23228 0.94269 0.38236 0.0
Fe264 Fe 0.16217 0.19334 0.90517 0.0
Fe265 Fe 0.17255 0.1064 0.87251 0.0
O266 O 0.18594 0.15947 0.88651 0.0
Fe267 Fe 0.22297 0.17706 0.88232 0.0
O268 O 0.228 0.19955 0.91295 0.0
O269 O 0.18569 0.18468 0.93044 0.0
O270 O 0.14186 0.13987 0.91589 0.0
C271 C 0.15088 0.09663 0.91765 0.0
C272 C 0.19816 0.26664 0.88336 0.0
O273 O 0.16649 0.07827 0.90137 0.0
C274 C 0.20281 0.14921 0.8363 0.0
O275 O 0.13615 0.20374 0.88115 0.0
O276 O 0.13431 0.12743 0.87057 0.0
O277 O 0.21293 0.23636 0.87169 0.0
O278 O 0.17918 0.25275 0.89851 0.0
C279 C 0.23096 0.07931 0.8835 0.0
O280 O 0.17853 0.13251 0.84341 0.0
O281 O 0.22356 0.1579 0.85082 0.0
C282 C 0.12322 0.16944 0.87064 0.0
O283 O 0.20792 0.07447 0.87125 0.0
O284 O 0.23685 0.11943 0.89287 0.0
C285 C 0.21259 0.19411 0.9316 0.0
Fe286 Fe 0.86095 0.83884 0.40921 0.0
Fe287 Fe 0.86675 0.92784 0.37709 0.0
O288 O 0.84686 0.87612 0.3863 0.0
Fe289 Fe 0.81306 0.86159 0.37265 0.0
O290 O 0.79668 0.83585 0.40005 0.0
O291 O 0.8295 0.85058 0.42774 0.0
O292 O 0.87915 0.88849 0.4254 0.0
C293 C 0.87409 0.93353 0.42517 0.0
C294 C 0.8342 0.77047 0.37761 0.0
O295 O 0.86486 0.95412 0.40659 0.0
C296 C 0.84905 0.8916 0.33412 0.0
O297 O 0.89357 0.82538 0.39185 0.0
O298 O 0.90302 0.9012 0.383 0.0
O299 O 0.82638 0.80295 0.36322 0.0
O300 O 0.84461 0.78191 0.39783 0.0
C301 C 0.80744 0.95978 0.37538 0.0
O302 O 0.87004 0.9044 0.34723 0.0
O303 O 0.82375 0.88418 0.34283 0.0
C304 C 0.91111 0.85743 0.38448 0.0
O305 O 0.83412 0.96416 0.36934 0.0
O306 O 0.79722 0.91904 0.38111 0.0
C307 C 0.80377 0.83958 0.42188 0.0
Fe308 Fe 0.22512 0.8585 0.12149 0.0
Fe309 Fe 0.1772 0.82566 0.08677 0.0
O310 O 0.19013 0.86746 0.10837 0.0
Fe311 Fe 0.16884 0.91844 0.11658 0.0
O312 O 0.19801 0.96072 0.10838 0.0
O313 O 0.23276 0.92215 0.12719 0.0
O314 O 0.24298 0.86493 0.09239 0.0
C315 C 0.23646 0.83861 0.07469 0.0
C316 C 0.19198 0.88313 0.16034 0.0
O317 O 0.21342 0.81333 0.07445 0.0
C318 C 0.12568 0.84923 0.1129 0.0
O319 O 0.22459 0.79278 0.11872 0.0
O320 O 0.17997 0.77505 0.10748 0.0
O321 O 0.18044 0.91638 0.14788 0.0
O322 O 0.20888 0.85203 0.15105 0.0
C323 C 0.16053 0.91219 0.06646 0.0
O324 O 0.13861 0.83086 0.09512 0.0
O325 O 0.13773 0.88148 0.1254 0.0
C326 C 0.20411 0.76238 0.11648 0.0
O327 O 0.17387 0.87256 0.06422 0.0
O328 O 0.15345 0.9283 0.08681 0.0
C329 C 0.22318 0.96003 0.11756 0.0
Fe330 Fe 0.81613 0.17932 0.61207 0.0
Fe331 Fe 0.87665 0.20181 0.59065 0.0
O332 O 0.8536 0.1649 0.6083 0.0
Fe333 Fe 0.8684 0.11211 0.62173 0.0
O334 O 0.83393 0.0773 0.62201 0.0
O335 O 0.80452 0.12124 0.60028 0.0
O336 O 0.81119 0.20364 0.58161 0.0
C337 C 0.82722 0.20082 0.56312 0.0
C338 C 0.83586 0.14969 0.65815 0.0
O339 O 0.85427 0.19307 0.56468 0.0
C340 C 0.91584 0.17928 0.62482 0.0
O341 O 0.82405 0.23883 0.62392 0.0
O342 O 0.85804 0.25902 0.59796 0.0
O343 O 0.86096 0.13576 0.65131 0.0
O344 O 0.8154 0.15788 0.64324 0.0
C345 C 0.89056 0.1075 0.5765 0.0
O346 O 0.90101 0.21276 0.61557 0.0
O347 O 0.90622 0.1362 0.62422 0.0
C348 C 0.839 0.2707 0.61343 0.0
O349 O 0.89874 0.1509 0.57955 0.0
O350 O 0.87567 0.08635 0.59243 0.0
C351 C 0.81136 0.08098 0.60908 0.0
H352 H 0.31237 0.20157 0.08742 0.0
H353 H 0.3283 0.21553 0.16337 0.0
H354 H 0.30169 0.13875 0.17045 0.0
H355 H 0.23998 0.16118 0.09305 0.0
H356 H 0.24092 0.11949 0.06832 0.0
H357 H 0.26453 0.17162 0.06832 0.0
H358 H 0.31021 0.11811 0.06306 0.0
H359 H 0.28701 0.06542 0.06225 0.0
H360 H 0.31655 0.0689 0.08348 0.0
H361 H 0.27255 0.06236 0.16931 0.0
H362 H 0.24203 0.99093 0.16039 0.0
H363 H 0.24117 0.02969 0.08542 0.0
C364 C 0.31108 0.18756 0.10544 0.0
C365 C 0.32304 0.21359 0.12486 0.0
C366 C 0.31976 0.19547 0.1483 0.0
C367 C 0.3046 0.15212 0.15245 0.0
C368 C 0.29244 0.12793 0.13298 0.0
C369 C 0.29546 0.14494 0.10993 0.0
C370 C 0.27851 0.11384 0.0924 0.0
C371 C 0.25455 0.1433 0.0798 0.0
C372 C 0.29932 0.09015 0.07423 0.0
C373 C 0.26539 0.07669 0.1092 0.0
C374 C 0.27403 0.08534 0.13249 0.0
C375 C 0.26556 0.05535 0.1512 0.0
C376 C 0.2482 1.01501 0.14597 0.0
C377 C 0.23908 1.00537 0.12231 0.0
C378 C 0.24747 0.0369 0.10371 0.0
H379 H 0.75163 0.81333 0.63288 0.0
H380 H 0.67975 0.84492 0.58478 0.0
H381 H 0.69851 0.92824 0.57984 0.0
H382 H 0.75631 0.93187 0.66129 0.0
H383 H 0.79576 0.93042 0.66254 0.0
H384 H 0.77517 0.87489 0.66371 0.0
H385 H 0.80465 0.84246 0.62752 0.0
H386 H 0.82507 0.89808 0.62603 0.0
H387 H 0.80545 0.87681 0.60019 0.0
H388 H 0.7268 1.00726 0.57864 0.0
H389 H 0.76129 0.07574 0.58207 0.0
H390 H 0.81535 0.9912 0.6301 0.0
C391 C 0.73936 0.83799 0.62173 0.0
C392 C 0.71393 0.82255 0.60944 0.0
C393 C 0.69909 0.85589 0.59456 0.0
C394 C 0.70965 0.90329 0.59158 0.0
C395 C 0.73518 0.91684 0.6035 0.0
C396 C 0.74976 0.88517 0.61835 0.0
C397 C 0.7775 0.90777 0.6282 0.0
C398 C 0.77609 0.91147 0.65556 0.0
C399 C 0.80477 0.8796 0.61999 0.0
C400 C 0.77626 0.95722 0.61663 0.0
C401 C 0.75168 0.96179 0.60246 0.0
C402 C 0.74603 1.00409 0.58978 0.0
C403 C 0.76582 0.04282 0.59183 0.0
C404 C 0.79109 0.03911 0.6064 0.0
C405 C 0.7963 0.99542 0.61881 0.0
H406 H 0.28986 0.81314 0.85951 0.0
H407 H 0.36871 0.84938 0.89868 0.0
H408 H 0.35155 0.93425 0.90197 0.0
H409 H 0.28016 0.92881 0.82788 0.0
H410 H 0.2409 0.92597 0.83116 0.0
H411 H 0.26188 0.87105 0.82896 0.0
H412 H 0.23904 0.84159 0.86879 0.0
H413 H 0.21849 0.89675 0.87145 0.0
H414 H 0.24265 0.87841 0.89516 0.0
H415 H 0.32202 1.01343 0.90488 0.0
H416 H 0.28551 0.07947 0.90458 0.0
H417 H 0.22582 0.98822 0.86457 0.0
C418 C 0.30404 0.83915 0.8682 0.0
C419 C 0.3308 0.8246 0.87868 0.0
C420 C 0.34841 0.85975 0.89015 0.0
C421 C 0.33865 0.90795 0.89229 0.0
C422 C 0.31135 0.92031 0.88277 0.0
C423 C 0.29455 0.88683 0.87066 0.0
C424 C 0.26513 0.90746 0.86357 0.0
C425 C 0.26184 0.90839 0.83627 0.0
C426 C 0.23985 0.87938 0.87545 0.0
C427 C 0.2677 0.95791 0.87369 0.0
C428 C 0.29447 0.96488 0.88468 0.0
C429 C 0.30118 1.00835 0.89606 0.0
C430 C 0.2802 0.04563 0.89589 0.0
C431 C 0.25273 0.03929 0.88447 0.0
C432 C 0.24658 0.99457 0.87335 0.0
H433 H 0.82068 0.05553 0.3656 0.0
H434 H 0.74788 0.9591 0.381 0.0
H435 H 0.7136 0.02727 0.37754 0.0
H436 H 0.79316 0.15554 0.39926 0.0
H437 H 0.80625 0.20077 0.3787 0.0
H438 H 0.82503 0.14382 0.3811 0.0
H439 H 0.81876 0.1305 0.3356 0.0
H440 H 0.79961 0.18721 0.33315 0.0
H441 H 0.7826 0.13231 0.32275 0.0
H442 H 0.68729 0.10598 0.37501 0.0
H443 H 0.67115 0.19122 0.37536 0.0
H444 H 0.76005 0.23755 0.36046 0.0
C445 C 0.79752 0.04867 0.36808 0.0
C446 C 0.78708 1.00165 0.37348 0.0
C447 C 0.75656 0.99455 0.37683 0.0
C448 C 0.73681 0.03308 0.37478 0.0
C449 C 0.74777 0.07877 0.36935 0.0
C450 C 0.7774 0.0869 0.36616 0.0
C451 C 0.78343 0.14015 0.36168 0.0
C452 C 0.80312 0.1613 0.38136 0.0
C453 C 0.7969 0.14799 0.33681 0.0
C454 C 0.75261 0.16061 0.36306 0.0
C455 C 0.73238 0.12442 0.3674 0.0
C456 C 0.70282 0.13454 0.3712 0.0
C457 C 0.69381 0.18298 0.37125 0.0
C458 C 0.71417 0.22073 0.36725 0.0
C459 C 0.74384 0.20926 0.3626 0.0
H460 H 0.81619 0.98649 0.87464 0.0
H461 H 0.7481 0.08526 0.89774 0.0
H462 H 0.71332 1.01706 0.90113 0.0
H463 H 0.77015 0.91417 0.83796 0.0
H464 H 0.78807 0.85796 0.84498 0.0
H465 H 0.8083 0.91381 0.84622 0.0
H466 H 0.82265 0.8961 0.89006 0.0
H467 H 0.80259 0.84004 0.88897 0.0
H468 H 0.79435 0.884 0.91175 0.0
H469 H 0.68568 0.93669 0.90227 0.0
H470 H 0.66759 0.85222 0.89905 0.0
H471 H 0.75261 0.80804 0.87217 0.0
C472 C 0.79409 0.99363 0.88076 0.0
C473 C 0.78497 0.04124 0.88612 0.0
C474 C 0.75563 0.04912 0.89357 0.0
C475 C 0.7357 1.01057 0.89559 0.0
C476 C 0.74521 0.96417 0.88981 0.0
C477 C 0.77371 0.95562 0.88243 0.0
C478 C 0.77801 0.90281 0.87615 0.0
C479 C 0.78664 0.89686 0.84976 0.0
C480 C 0.80074 0.87936 0.89272 0.0
C481 C 0.74751 0.88315 0.88092 0.0
C482 C 0.72895 0.91883 0.88915 0.0
C483 C 0.69998 0.90857 0.8956 0.0
C484 C 0.68982 0.86059 0.89367 0.0
C485 C 0.70837 0.8237 0.88485 0.0
C486 C 0.73755 0.83556 0.87836 0.0
H487 H 0.22061 0.03906 0.37619 0.0
H488 H 0.29125 0.93971 0.39261 0.0
H489 H 0.32592 1.00834 0.39461 0.0
H490 H 0.26166 0.11869 0.33883 0.0
H491 H 0.24347 0.17227 0.34955 0.0
H492 H 0.22451 0.1152 0.3497 0.0
H493 H 0.21429 0.12468 0.39494 0.0
H494 H 0.23339 0.18164 0.39519 0.0
H495 H 0.24444 0.13398 0.41513 0.0
H496 H 0.3531 0.09031 0.39498 0.0
H497 H 0.36892 0.17636 0.39434 0.0
H498 H 0.27995 0.21841 0.37666 0.0
C499 C 0.24335 0.03155 0.38021 0.0
C500 C 0.25312 0.98385 0.38416 0.0
C501 C 0.28314 0.97591 0.38948 0.0
C502 C 0.30306 1.01469 0.39062 0.0
C503 C 0.29267 0.06127 0.38644 0.0
C504 C 0.26344 0.06966 0.38141 0.0
C505 C 0.25752 0.12281 0.3778 0.0
C506 C 0.24613 0.13281 0.35246 0.0
C507 C 0.23616 0.1419 0.3969 0.0
C508 C 0.28798 0.14307 0.38129 0.0
C509 C 0.30809 0.10739 0.3864 0.0
C510 C 0.33749 0.11849 0.39088 0.0
C511 C 0.34634 0.16739 0.3904 0.0
C512 C 0.32583 0.20435 0.38533 0.0
C513 C 0.29643 0.19139 0.38046 0.0
H514 H 0.77164 1.01109 0.09011 0.0
H515 H 0.81229 1.01522 0.15992 0.0
H516 H 0.78423 0.08874 0.16994 0.0
H517 H 0.77586 0.13755 0.08089 0.0
H518 H 0.74163 0.14271 0.06522 0.0
H519 H 0.76183 0.08695 0.06413 0.0
H520 H 0.7166 0.04038 0.07998 0.0
H521 H 0.69604 0.09594 0.08082 0.0
H522 H 0.69929 0.05951 0.10735 0.0
H523 H 0.75442 0.16416 0.1717 0.0
H524 H 0.72783 0.24009 0.16395 0.0
H525 H 0.70743 0.19003 0.09244 0.0
C526 C 0.77409 0.02709 0.10763 0.0
C527 C 0.79383 1.00732 0.12438 0.0
C528 C 0.79719 0.02985 0.1469 0.0
C529 C 0.78123 0.07143 0.15279 0.0
C530 C 0.76217 0.0905 0.13588 0.0
C531 C 0.75869 0.06942 0.11366 0.0
C532 C 0.73897 0.1001 0.09801 0.0
C533 C 0.75559 0.11784 0.07575 0.0
C534 C 0.71106 0.07231 0.09114 0.0
C535 C 0.73207 0.14165 0.11485 0.0
C536 C 0.74543 0.13503 0.13668 0.0
C537 C 0.74362 0.16958 0.15474 0.0
C538 C 0.72841 0.21263 0.15018 0.0
C539 C 0.71526 0.22108 0.12768 0.0
C540 C 0.71666 0.18444 0.11001 0.0
H541 H 0.26809 0.01863 0.58562 0.0
H542 H 0.24452 0.02597 0.66056 0.0
H543 H 0.27414 0.95348 0.6686 0.0
H544 H 0.26225 0.89152 0.58113 0.0
H545 H 0.29262 0.88379 0.56087 0.0
H546 H 0.27266 0.93982 0.56124 0.0
H547 H 0.32109 0.9863 0.5688 0.0
H548 H 0.34105 0.93011 0.5686 0.0
H549 H 0.34363 0.97006 0.59392 0.0
H550 H 0.30177 0.87714 0.66845 0.0
H551 H 0.32448 0.79831 0.65974 0.0
H552 H 0.33083 0.83676 0.58486 0.0
C553 C 0.26982 1.00543 0.60375 0.0
C554 C 0.25427 0.02813 0.62255 0.0
C555 C 0.25632 1.00917 0.64595 0.0
C556 C 0.27321 0.96815 0.65072 0.0
C557 C 0.28789 0.94601 0.63187 0.0
C558 C 0.28637 0.96365 0.60881 0.0
C559 C 0.30227 0.93 0.59162 0.0
C560 C 0.28118 0.91012 0.5726 0.0
C561 C 0.32858 0.95566 0.58005 0.0
C562 C 0.31228 0.89037 0.60859 0.0
C563 C 0.304 0.90093 0.63176 0.0
C564 C 0.3088 0.86876 0.65046 0.0
C565 C 0.32174 0.82407 0.64535 0.0
C566 C 0.32989 0.81174 0.62174 0.0
C567 C 0.32565 0.84583 0.60319 0.0
H568 H 0.77911 0.73728 0.12938 0.0
H569 H 0.86467 0.69262 0.10398 0.0
H570 H 0.84751 0.60794 0.10203 0.0
H571 H 0.7615 0.6279 0.1646 0.0
H572 H 0.72357 0.62828 0.15572 0.0
H573 H 0.74361 0.68427 0.1578 0.0
H574 H 0.73 0.70387 0.114 0.0
H575 H 0.71033 0.64763 0.11162 0.0
H576 H 0.73927 0.66148 0.09076 0.0
H577 H 0.82037 0.52942 0.10015 0.0
H578 H 0.78564 0.4613 0.09966 0.0
H579 H 0.71653 0.55637 0.12494 0.0
C580 C 0.79447 0.70934 0.12423 0.0
C581 C 0.82348 0.72124 0.11739 0.0
C582 C 0.84256 0.68408 0.10969 0.0
C583 C 0.83296 0.63595 0.10843 0.0
C584 C 0.80404 0.62554 0.11464 0.0
C585 C 0.78505 0.66108 0.12248 0.0
C586 C 0.7545 0.6406 0.12641 0.0
C587 C 0.74526 0.64555 0.1527 0.0
C588 C 0.73222 0.66484 0.10971 0.0
C589 C 0.75932 0.58803 0.11964 0.0
C590 C 0.78808 0.58026 0.11293 0.0
C591 C 0.79784 0.535 0.10553 0.0
C592 C 0.77784 0.49647 0.10527 0.0
C593 C 0.74824 0.50314 0.11232 0.0
C594 C 0.73894 0.54986 0.11944 0.0
H595 H 0.32052 0.47881 0.62984 0.0
H596 H 0.2594 0.56736 0.58981 0.0
H597 H 0.225 0.49874 0.58779 0.0
H598 H 0.30671 0.36835 0.59738 0.0
H599 H 0.31026 0.33038 0.62333 0.0
H600 H 0.32995 0.38672 0.62173 0.0
H601 H 0.30632 0.41333 0.66176 0.0
H602 H 0.28628 0.35728 0.66329 0.0
H603 H 0.26697 0.414 0.66458 0.0
H604 H 0.19732 0.42018 0.58959 0.0
H605 H 0.17956 0.33619 0.5934 0.0
H606 H 0.25813 0.29875 0.63274 0.0
C607 C 0.29992 0.48384 0.62063 0.0
C608 C 0.29271 0.52877 0.61008 0.0
C609 C 0.26552 0.53351 0.5981 0.0
C610 C 0.24573 0.49471 0.5969 0.0
C611 C 0.25336 0.45122 0.60774 0.0
C612 C 0.27987 0.44543 0.61924 0.0
C613 C 0.28296 0.39449 0.62893 0.0
C614 C 0.30901 0.36846 0.61713 0.0
C615 C 0.28579 0.39482 0.65626 0.0
C616 C 0.25401 0.37265 0.62117 0.0
C617 C 0.23727 0.40601 0.60897 0.0
C618 C 0.21016 0.39383 0.59924 0.0
C619 C 0.2002 0.34604 0.60158 0.0
C620 C 0.21721 0.31089 0.61362 0.0
C621 C 0.24425 0.32486 0.62388 0.0
H622 H 0.72664 0.49549 0.85847 0.0
H623 H 0.79043 0.5875 0.89357 0.0
H624 H 0.82628 0.52066 0.89285 0.0
H625 H 0.7443 0.38898 0.89021 0.0
H626 H 0.73834 0.34943 0.86513 0.0
H627 H 0.71886 0.40575 0.86709 0.0
H628 H 0.73878 0.4299 0.82535 0.0
H629 H 0.75867 0.37382 0.82347 0.0
H630 H 0.77777 0.43048 0.82012 0.0
H631 H 0.85456 0.44084 0.8902 0.0
H632 H 0.87042 0.35517 0.88848 0.0
H633 H 0.78825 0.31742 0.85449 0.0
C634 C 0.74823 0.50187 0.8658 0.0
C635 C 0.75565 0.54702 0.87596 0.0
C636 C 0.78412 0.55337 0.88562 0.0
C637 C 0.80475 0.51563 0.8852 0.0
C638 C 0.7967 0.47161 0.875 0.0
C639 C 0.76903 0.46463 0.86557 0.0
C640 C 0.76509 0.41323 0.85693 0.0
C641 C 0.74018 0.38787 0.87066 0.0
C642 C 0.75977 0.4118 0.82985 0.0
C643 C 0.79469 0.39214 0.86321 0.0
C644 C 0.81283 0.42627 0.87344 0.0
C645 C 0.84063 0.41398 0.88195 0.0
C646 C 0.84961 0.36528 0.88071 0.0
C647 C 0.83073 0.32953 0.8712 0.0
C648 C 0.80338 0.34384 0.86168 0.0
H649 H 0.32353 0.5501 0.37433 0.0
H650 H 0.25218 0.44644 0.37819 0.0
H651 H 0.2164 0.5124 0.37478 0.0
H652 H 0.28744 0.64539 0.40817 0.0
H653 H 0.30242 0.693 0.38989 0.0
H654 H 0.32221 0.63725 0.39338 0.0
H655 H 0.32355 0.62829 0.34721 0.0
H656 H 0.30293 0.68336 0.34391 0.0
H657 H 0.28964 0.62807 0.33078 0.0
H658 H 0.18803 0.58903 0.37282 0.0
H659 H 0.16915 0.67295 0.37245 0.0
H660 H 0.25799 0.72718 0.36685 0.0
C661 C 0.30038 0.54147 0.37463 0.0
C662 C 0.29067 0.49308 0.37648 0.0
C663 C 0.26017 0.48319 0.37662 0.0
C664 C 0.23961 0.5204 0.37469 0.0
C665 C 0.24979 0.56752 0.37241 0.0
C666 C 0.2794 0.57835 0.37238 0.0
C667 C 0.28423 0.63231 0.36962 0.0
C668 C 0.29999 0.6532 0.39158 0.0
C669 C 0.30109 0.64366 0.3465 0.0
C670 C 0.25277 0.64983 0.36822 0.0
C671 C 0.23326 0.61182 0.37001 0.0
C672 C 0.20303 0.61911 0.37094 0.0
C673 C 0.19246 0.66669 0.37057 0.0
C674 C 0.21205 0.70607 0.36874 0.0
C675 C 0.24253 0.69745 0.36719 0.0
H676 H 0.31701 0.47988 0.87772 0.0
H677 H 0.24669 0.58029 0.8936 0.0
H678 H 0.2115 0.51254 0.89511 0.0
H679 H 0.27529 0.40415 0.83881 0.0
H680 H 0.29209 0.34861 0.84847 0.0
H681 H 0.31225 0.4045 0.85009 0.0
H682 H 0.3212 0.39082 0.89524 0.0
H683 H 0.30124 0.3347 0.89374 0.0
H684 H 0.29038 0.38059 0.91478 0.0
H685 H 0.18367 0.43282 0.89551 0.0
H686 H 0.16573 0.34825 0.89317 0.0
H687 H 0.25328 0.30093 0.87416 0.0
C688 C 0.29428 0.48752 0.88179 0.0
C689 C 0.28471 0.53555 0.88567 0.0
C690 C 0.25462 0.54393 0.89055 0.0
C691 C 0.23442 0.50561 0.89148 0.0
C692 C 0.24443 0.45885 0.88723 0.0
C693 C 0.27365 0.44966 0.8824 0.0
C694 C 0.27849 0.39626 0.87766 0.0
C695 C 0.29022 0.38791 0.85225 0.0
C696 C 0.29904 0.37431 0.89648 0.0
C697 C 0.24748 0.37703 0.88041 0.0
C698 C 0.22818 0.41354 0.88625 0.0
C699 C 0.19857 0.40402 0.89068 0.0
C700 C 0.18851 0.35594 0.88926 0.0
C701 C 0.20785 0.31805 0.88297 0.0
C702 C 0.23768 0.32915 0.87837 0.0
H703 H 0.82329 0.69758 0.41022 0.0
H704 H 0.82092 0.73038 0.33449 0.0
H705 H 0.7962 0.65268 0.32688 0.0
H706 H 0.83414 0.56416 0.40359 0.0
H707 H 0.81086 0.55076 0.42877 0.0
H708 H 0.83155 0.60628 0.42805 0.0
H709 H 0.78379 0.65444 0.43445 0.0
H710 H 0.76265 0.59952 0.43469 0.0
H711 H 0.75383 0.64694 0.41386 0.0
H712 H 0.76649 0.5773 0.32775 0.0
H713 H 0.73666 0.50494 0.33676 0.0
H714 H 0.75892 0.51748 0.41165 0.0
C715 C 0.81848 0.68766 0.39194 0.0
C716 C 0.82439 0.72005 0.37289 0.0
C717 C 0.81684 0.70622 0.34934 0.0
C718 C 0.80273 0.66211 0.34484 0.0
C719 C 0.79635 0.63183 0.36403 0.0
C720 C 0.80429 0.64356 0.3871 0.0
C721 C 0.79324 0.60558 0.40461 0.0
C722 C 0.81898 0.58018 0.41699 0.0
C723 C 0.77212 0.62796 0.42297 0.0
C724 C 0.7773 0.57136 0.38782 0.0
C725 C 0.77947 0.58736 0.36449 0.0
C726 C 0.7651 0.56392 0.34586 0.0
C727 C 0.74814 0.52301 0.35114 0.0
C728 C 0.74586 0.5055 0.37478 0.0
C729 C 0.7608 0.52975 0.39336 0.0
H730 H 0.31728 0.54585 0.12572 0.0
H731 H 0.24697 0.44809 0.10582 0.0
H732 H 0.21219 0.51633 0.10581 0.0
H733 H 0.27563 0.62129 0.16502 0.0
H734 H 0.29359 0.67624 0.15575 0.0
H735 H 0.31288 0.61959 0.15429 0.0
H736 H 0.32334 0.63326 0.10921 0.0
H737 H 0.30438 0.69018 0.11065 0.0
H738 H 0.29323 0.6451 0.0893 0.0
H739 H 0.18502 0.59676 0.10736 0.0
H740 H 0.16898 0.68231 0.10866 0.0
H741 H 0.25721 0.725 0.12854 0.0
C742 C 0.29458 0.53866 0.12141 0.0
C743 C 0.28491 0.4915 0.1159 0.0
C744 C 0.25498 0.48388 0.11014 0.0
C745 C 0.23499 0.5224 0.11015 0.0
C746 C 0.24522 0.56837 0.11591 0.0
C747 C 0.27437 0.57661 0.12128 0.0
C748 C 0.28006 0.62945 0.12623 0.0
C749 C 0.29119 0.63706 0.15185 0.0
C750 C 0.30151 0.65074 0.10775 0.0
C751 C 0.24954 0.6496 0.12307 0.0
C752 C 0.22967 0.61405 0.11703 0.0
C753 C 0.20038 0.62487 0.11223 0.0
C754 C 0.19141 0.6735 0.11312 0.0
C755 C 0.2117 0.7105 0.11883 0.0
C756 C 0.24094 0.69781 0.12433 0.0
H757 H 0.78788 0.30795 0.63207 0.0
H758 H 0.87048 0.35044 0.5997 0.0
H759 H 0.85407 0.43546 0.59935 0.0
H760 H 0.74374 0.38561 0.59786 0.0
H761 H 0.71831 0.39964 0.62152 0.0
H762 H 0.73747 0.34281 0.62159 0.0
H763 H 0.75763 0.36093 0.66383 0.0
H764 H 0.73829 0.41767 0.66402 0.0
H765 H 0.77726 0.41648 0.66911 0.0
H766 H 0.82743 0.51479 0.59977 0.0
H767 H 0.79311 0.58326 0.60176 0.0
H768 H 0.72719 0.48972 0.63347 0.0
C769 C 0.80284 0.33524 0.62544 0.0
C770 C 0.83068 0.32241 0.61613 0.0
C771 C 0.84919 0.35927 0.60707 0.0
C772 C 0.84003 0.40771 0.60677 0.0
C773 C 0.81223 0.41888 0.61555 0.0
C774 C 0.79394 0.38376 0.62482 0.0
C775 C 0.76447 0.40501 0.63184 0.0
C776 C 0.73953 0.38189 0.61733 0.0
C777 C 0.75911 0.39971 0.6588 0.0
C778 C 0.76899 0.45753 0.62492 0.0
C779 C 0.79673 0.46468 0.61562 0.0
C780 C 0.80575 0.50968 0.60723 0.0
C781 C 0.78599 0.5484 0.6084 0.0
C782 C 0.75738 0.54219 0.61789 0.0
C783 C 0.74893 0.49595 0.62632 0.0
H784 H 0.36046 0.51341 0.05808 0.0
H785 H 0.40877 0.38657 0.03486 0.0
H786 H 0.41702 0.42423 0.99568 0.0
H787 H 0.32387 0.53418 0.00397 0.0
H788 H 0.32601 0.59917 0.00508 0.0
H789 H 0.32588 0.56478 0.03233 0.0
H790 H 0.37432 0.60524 0.04511 0.0
H791 H 0.37513 0.63988 0.01788 0.0
H792 H 0.40583 0.6023 0.0257 0.0
H793 H 0.41665 0.47178 0.95795 0.0
H794 H 0.40854 0.5278 0.92432 0.0
H795 H 0.36139 0.62476 0.97172 0.0
C796 C 0.37324 0.49396 0.04491 0.0
C797 C 0.38404 0.44703 0.04967 0.0
C798 C 0.40027 0.42254 0.03176 0.0
C799 C 0.40515 0.44365 0.00939 0.0
C800 C 0.39382 0.48946 0.00513 0.0
C801 C 0.37835 0.51456 0.02238 0.0
C802 C 0.36748 0.56248 0.01269 0.0
C803 C 0.33382 0.56528 0.01357 0.0
C804 C 0.38153 0.60498 0.02615 0.0
C805 C 0.37865 0.55963 0.98719 0.0
C806 C 0.39393 0.51734 0.98327 0.0
C807 C 0.40506 0.50537 0.96084 0.0
C808 C 0.40029 0.53736 0.94183 0.0
C809 C 0.38459 0.58089 0.94537 0.0
C810 C 0.37393 0.5922 0.96847 0.0
H811 H 0.66037 0.51516 0.44205 0.0
H812 H 0.65195 0.36779 0.46802 0.0
H813 H 0.64686 0.39786 0.50899 0.0
H814 H 0.70283 0.56066 0.49008 0.0
H815 H 0.68466 0.61849 0.49062 0.0
H816 H 0.68642 0.58453 0.46332 0.0
H817 H 0.62959 0.59031 0.46073 0.0
H818 H 0.62842 0.62269 0.48863 0.0
H819 H 0.60755 0.56784 0.48507 0.0
H820 H 0.6475 0.4418 0.54726 0.0
H821 H 0.65227 0.49867 0.58098 0.0
H822 H 0.6577 0.61843 0.53116 0.0
C823 C 0.65709 0.48936 0.45634 0.0
C824 C 0.6564 0.43913 0.45173 0.0
C825 C 0.65226 0.40648 0.47097 0.0
C826 C 0.64935 0.42314 0.49438 0.0
C827 C 0.65026 0.47265 0.49837 0.0
C828 C 0.65378 0.50544 0.47996 0.0
C829 C 0.6548 0.55673 0.48948 0.0
C830 C 0.68394 0.58149 0.48299 0.0
C831 C 0.62852 0.58612 0.48044 0.0
C832 C 0.65243 0.54726 0.5161 0.0
C833 C 0.64965 0.49846 0.52075 0.0
C834 C 0.64914 0.48022 0.54392 0.0
C835 C 0.65192 0.51271 0.56293 0.0
C836 C 0.65488 0.56284 0.55864 0.0
C837 C 0.65468 0.58035 0.53493 0.0
H838 H 0.65737 0.51321 0.0524 0.0
H839 H 0.64896 0.3658 0.02669 0.0
H840 H 0.64403 0.39584 0.98557 0.0
H841 H 0.60456 0.56579 0.00967 0.0
H842 H 0.6254 0.62072 0.00621 0.0
H843 H 0.62652 0.58807 0.03403 0.0
H844 H 0.6834 0.5822 0.03133 0.0
H845 H 0.68167 0.61668 0.00424 0.0
H846 H 0.69986 0.55887 0.0044 0.0
H847 H 0.64517 0.44049 0.94702 0.0
H848 H 0.64965 0.49792 0.91346 0.0
H849 H 0.65421 0.61709 0.96365 0.0
C850 C 0.65411 0.48735 0.03814 0.0
C851 C 0.65346 0.43714 0.04282 0.0
C852 C 0.64927 0.40444 0.02364 0.0
C853 C 0.64648 0.42113 0.00017 0.0
C854 C 0.64748 0.47071 0.99612 0.0
C855 C 0.65084 0.50345 0.01455 0.0
C856 C 0.65183 0.55481 0.00514 0.0
C857 C 0.62551 0.58407 0.01431 0.0
C858 C 0.68095 0.57953 0.01165 0.0
C859 C 0.64955 0.54559 0.9785 0.0
C860 C 0.64698 0.49677 0.97374 0.0
C861 C 0.64662 0.47889 0.95049 0.0
C862 C 0.64922 0.51171 0.93155 0.0
C863 C 0.65179 0.56189 0.93597 0.0
C864 C 0.65153 0.579 0.95976 0.0
H865 H 0.36955 0.51281 0.56209 0.0
H866 H 0.42376 0.63408 0.54022 0.0
H867 H 0.42829 0.59876 0.49995 0.0
H868 H 0.40749 0.4197 0.52677 0.0
H869 H 0.37389 0.38863 0.51965 0.0
H870 H 0.37703 0.42144 0.54731 0.0
H871 H 0.33077 0.4707 0.53645 0.0
H872 H 0.32769 0.4386 0.50862 0.0
H873 H 0.32979 0.50363 0.5087 0.0
H874 H 0.42368 0.55352 0.461 0.0
H875 H 0.41194 0.49994 0.42701 0.0
H876 H 0.36116 0.40796 0.4744 0.0
C877 C 0.38299 0.53139 0.54903 0.0
C878 C 0.39656 0.57606 0.55448 0.0
C879 C 0.41335 0.59966 0.53662 0.0
C880 C 0.41601 0.57993 0.51363 0.0
C881 C 0.40182 0.53645 0.50871 0.0
C882 C 0.38582 0.51225 0.52596 0.0
C883 C 0.37158 0.46725 0.51576 0.0
C884 C 0.38321 0.42155 0.52811 0.0
C885 C 0.33797 0.47026 0.51749 0.0
C886 C 0.38188 0.47015 0.49005 0.0
C887 C 0.39928 0.51032 0.48633 0.0
C888 C 0.41033 0.52165 0.46377 0.0
C889 C 0.40348 0.49106 0.44454 0.0
C890 C 0.3858 0.44948 0.44797 0.0
C891 C 0.37503 0.43906 0.47114 0.0
H892 H 0.85564 0.1287 0.96552 0.0
H893 H 0.91689 0.04562 0.92272 0.0
H894 H 0.92623 0.99215 0.95726 0.0
H895 H 0.89268 0.11995 0.02281 0.0
H896 H 0.85892 0.11254 0.03919 0.0
H897 H 0.85931 0.14641 0.01173 0.0
H898 H 0.81871 0.08937 0.99393 0.0
H899 H 0.81811 0.05841 0.02222 0.0
H900 H 0.82436 0.02512 0.99502 0.0
H901 H 0.92666 0.94531 0.99536 0.0
H902 H 0.91716 0.90598 0.03405 0.0
H903 H 0.85493 0.01872 0.05223 0.0
C904 C 0.8715 0.09985 0.96357 0.0
C905 C 0.88594 0.09166 0.94158 0.0
C906 C 0.90578 0.05265 0.93947 0.0
C907 C 0.91126 0.02224 0.95899 0.0
C908 C 0.89649 0.03111 0.98037 0.0
C909 C 0.87685 0.06872 0.98274 0.0
C910 C 0.86205 0.06799 0.007 0.0
C911 C 0.86865 0.11449 0.02101 0.0
C912 C 0.82885 0.05976 0.0044 0.0
C913 C 0.87679 0.02448 0.01811 0.0
C914 C 0.89652 1.00373 0.00238 0.0
C915 C 0.9115 0.96147 0.00791 0.0
C916 C 0.90589 0.93937 0.02992 0.0
C917 C 0.88549 0.95954 0.04624 0.0
C918 C 0.87109 1.00307 0.04034 0.0
H919 H 0.16971 1.0026 0.44281 0.0
H920 H 0.14387 0.86041 0.46827 0.0
H921 H 0.13722 0.89318 0.50867 0.0
H922 H 0.21056 0.03646 0.49379 0.0
H923 H 0.19923 0.09883 0.49357 0.0
H924 H 0.20039 0.0651 0.46613 0.0
H925 H 0.14588 0.08577 0.45842 0.0
H926 H 0.14464 0.11953 0.48591 0.0
H927 H 0.11878 0.07135 0.48078 0.0
H928 H 0.13765 0.93848 0.54682 0.0
H929 H 0.14332 0.99559 0.58044 0.0
H930 H 0.16614 0.10959 0.5306 0.0
C931 C 0.1623 0.97853 0.45682 0.0
C932 C 0.15718 0.92895 0.45228 0.0
C933 C 0.14774 0.89858 0.47119 0.0
C934 C 0.14389 0.91681 0.49425 0.0
C935 C 0.14928 0.96562 0.49818 0.0
C936 C 0.15808 0.99625 0.48002 0.0
C937 C 0.16323 0.047 0.48937 0.0
C938 C 0.19525 0.06274 0.48549 0.0
C939 C 0.14184 0.08303 0.47794 0.0
C940 C 0.15645 0.03965 0.51564 0.0
C941 C 0.1485 0.99239 0.52029 0.0
C942 C 0.14332 0.97583 0.54341 0.0
C943 C 0.14661 1.00839 0.56236 0.0
C944 C 0.15459 0.05698 0.55799 0.0
C945 C 0.15918 0.07291 0.53431 0.0
H946 H 0.18466 0.9077 0.02143 0.0
H947 H 0.11761 0.98041 0.06311 0.0
H948 H 0.10483 0.03017 0.02816 0.0
H949 H 0.20905 1.01346 0.99121 0.0
H950 H 0.21669 0.98265 0.96354 0.0
H951 H 0.21861 0.95033 0.99136 0.0
H952 H 0.18159 0.88751 0.9748 0.0
H953 H 0.17918 0.92059 0.94717 0.0
H954 H 0.14644 0.90772 0.96409 0.0
H955 H 0.1015 0.0759 0.98992 0.0
H956 H 0.10887 0.11634 0.95114 0.0
H957 H 0.17826 1.01481 0.934 0.0
C958 C 0.16697 0.93354 0.02307 0.0
C959 C 0.152 0.93995 0.04497 0.0
C960 C 0.12938 0.97483 0.04653 0.0
C961 C 0.12186 1.00315 0.02674 0.0
C962 C 0.13724 0.99636 0.00551 0.0
C963 C 0.1594 0.96259 0.00353 0.0
C964 C 0.17391 0.96511 0.97918 0.0
C965 C 0.20649 0.97871 0.98146 0.0
C966 C 0.17003 0.91739 0.9655 0.0
C967 C 0.15646 1.00564 0.96784 0.0
C968 C 0.13535 0.02299 0.98333 0.0
C969 C 0.11771 0.06228 0.97751 0.0
C970 C 0.12206 0.08503 0.95543 0.0
C971 C 0.14389 0.06843 0.9394 0.0
C972 C 0.16095 0.02769 0.94562 0.0
H973 H 0.86371 0.91468 0.47243 0.0
H974 H 0.90225 0.02 0.42438 0.0
H975 H 0.91538 0.07148 0.45879 0.0
H976 H 0.83046 1.00171 0.51039 0.0
H977 H 0.83583 0.96789 0.53752 0.0
H978 H 0.83244 0.93666 0.50948 0.0
H979 H 0.88214 0.89448 0.51683 0.0
H980 H 0.88585 0.92582 0.54487 0.0
H981 H 0.91431 0.93049 0.52262 0.0
H982 H 0.92295 0.11244 0.49769 0.0
H983 H 0.91981 0.14551 0.53833 0.0
H984 H 0.87351 1.0165 0.56163 0.0
C985 C 0.87535 0.94824 0.4693 0.0
C986 C 0.88238 0.96331 0.44588 0.0
C987 C 0.89683 1.00794 0.44225 0.0
C988 C 0.9045 0.03719 0.46166 0.0
C989 C 0.89717 0.02157 0.48456 0.0
C990 C 0.88256 0.9785 0.4885 0.0
C991 C 0.87483 0.97256 0.51471 0.0
C992 C 0.84141 0.96955 0.51822 0.0
C993 C 0.89021 0.9282 0.52538 0.0
C994 C 0.88722 0.01921 0.52479 0.0
C995 C 0.90044 0.04641 0.5071 0.0
C996 C 0.91278 0.09143 0.51175 0.0
C997 C 0.91095 0.10984 0.53497 0.0
C998 C 0.89653 0.0836 0.5533 0.0
C999 C 0.88499 0.03723 0.54814 0.0
H1000 H 0.45545 0.41681 0.12371 0.0
H1001 H 0.43769 0.2628 0.12027 0.0
H1002 H 0.49072 0.24622 0.12358 0.0
H1003 H 0.51697 0.41519 0.08734 0.0
H1004 H 0.5368 0.46107 0.10348 0.0
H1005 H 0.49741 0.46055 0.10408 0.0
H1006 H 0.49809 0.45751 0.15031 0.0
H1007 H 0.53757 0.4582 0.14987 0.0
H1008 H 0.51832 0.41044 0.16518 0.0
H1009 H 0.54613 0.24692 0.12329 0.0
H1010 H 0.59893 0.26485 0.119 0.0
H1011 H 0.57995 0.41843 0.12239 0.0
C1012 C 0.46257 0.37951 0.1242 0.0
C1013 C 0.44232 0.34111 0.12182 0.0
C1014 C 0.45273 0.29287 0.12213 0.0
C1015 C 0.48282 0.28307 0.12406 0.0
C1016 C 0.50223 0.32187 0.12579 0.0
C1017 C 0.49247 0.36913 0.12599 0.0
C1018 C 0.51782 0.40446 0.12615 0.0
C1019 C 0.5172 0.43722 0.10394 0.0
C1020 C 0.51795 0.43441 0.14926 0.0
C1021 C 0.54341 0.36978 0.12535 0.0
C1022 C 0.53403 0.32228 0.12544 0.0
C1023 C 0.55372 0.28398 0.12349 0.0
C1024 C 0.58369 0.29454 0.12103 0.0
C1025 C 0.59369 0.34306 0.12036 0.0
C1026 C 0.57317 0.38094 0.12301 0.0
H1027 H 0.58577 0.61227 0.62915 0.0
H1028 H 0.60262 0.76624 0.62363 0.0
H1029 H 0.54986 0.78246 0.62957 0.0
H1030 H 0.52179 0.61267 0.59575 0.0
H1031 H 0.50319 0.56695 0.613 0.0
H1032 H 0.54256 0.56784 0.61176 0.0
H1033 H 0.54472 0.57172 0.65794 0.0
H1034 H 0.50526 0.57086 0.65931 0.0
H1035 H 0.52538 0.61899 0.6735 0.0
H1036 H 0.49471 0.78148 0.63206 0.0
H1037 H 0.44185 0.76344 0.62942 0.0
H1038 H 0.46091 0.60995 0.63285 0.0
C1039 C 0.57852 0.64949 0.62979 0.0
C1040 C 0.59845 0.68803 0.62611 0.0
C1041 C 0.58784 0.73613 0.6265 0.0
C1042 C 0.5579 0.7457 0.62995 0.0
C1043 C 0.53878 0.70682 0.63302 0.0
C1044 C 0.54869 0.65965 0.633 0.0
C1045 C 0.52339 0.62419 0.63448 0.0
C1046 C 0.5227 0.59098 0.61244 0.0
C1047 C 0.52478 0.5947 0.6577 0.0
C1048 C 0.49763 0.6587 0.63471 0.0
C1049 C 0.50697 0.70622 0.63419 0.0
C1050 C 0.48717 0.74442 0.63278 0.0
C1051 C 0.45713 0.73378 0.63128 0.0
C1052 C 0.44707 0.68527 0.63104 0.0
C1053 C 0.46771 0.64744 0.63337 0.0
H1054 H 0.58021 0.72091 0.8988 0.0
H1055 H 0.59745 0.63699 0.835 0.0
H1056 H 0.54444 0.63495 0.82614 0.0
H1057 H 0.51847 0.65533 0.91616 0.0
H1058 H 0.49823 0.70593 0.92794 0.0
H1059 H 0.53763 0.70759 0.92738 0.0
H1060 H 0.5363 0.78744 0.9033 0.0
H1061 H 0.49681 0.78616 0.9039 0.0
H1062 H 0.51596 0.79002 0.87579 0.0
H1063 H 0.48928 0.63515 0.82618 0.0
H1064 H 0.43642 0.63585 0.83563 0.0
H1065 H 0.45443 0.71743 0.90017 0.0
C1066 C 0.57285 0.70358 0.88255 0.0
C1067 C 0.593 0.67987 0.86731 0.0
C1068 C 0.58242 0.65585 0.84674 0.0
C1069 C 0.55234 0.65454 0.84156 0.0
C1070 C 0.53292 0.67711 0.85723 0.0
C1071 C 0.54272 0.70124 0.87732 0.0
C1072 C 0.51707 0.71835 0.89244 0.0
C1073 C 0.51791 0.69542 0.91745 0.0
C1074 C 0.51651 0.77379 0.89393 0.0
C1075 C 0.49142 0.69929 0.87797 0.0
C1076 C 0.50103 0.67615 0.85757 0.0
C1077 C 0.4815 0.65364 0.84198 0.0
C1078 C 0.45143 0.6542 0.84752 0.0
C1079 C 0.44101 0.67682 0.8686 0.0
C1080 C 0.46145 0.70024 0.88377 0.0
H1081 H 0.58043 0.41253 0.36845 0.0
H1082 H 0.59958 0.26355 0.38699 0.0
H1083 H 0.54686 0.24422 0.38519 0.0
H1084 H 0.51746 0.42437 0.40287 0.0
H1085 H 0.4976 0.46106 0.38184 0.0
H1086 H 0.537 0.46211 0.38196 0.0
H1087 H 0.53778 0.4387 0.33719 0.0
H1088 H 0.49829 0.4377 0.33691 0.0
H1089 H 0.51861 0.38526 0.32743 0.0
H1090 H 0.49191 0.24366 0.38692 0.0
H1091 H 0.43884 0.26101 0.38959 0.0
H1092 H 0.45509 0.40885 0.36764 0.0
C1093 C 0.57363 0.3756 0.37169 0.0
C1094 C 0.59425 0.33961 0.37791 0.0
C1095 C 0.58432 0.29179 0.38212 0.0
C1096 C 0.55436 0.28042 0.38113 0.0
C1097 C 0.53458 0.31701 0.37553 0.0
C1098 C 0.54382 0.3635 0.37054 0.0
C1099 C 0.51796 0.39671 0.36616 0.0
C1100 C 0.51749 0.43851 0.38429 0.0
C1101 C 0.51818 0.41571 0.34039 0.0
C1102 C 0.49271 0.36201 0.37026 0.0
C1103 C 0.50279 0.31617 0.37558 0.0
C1104 C 0.48373 0.27909 0.38223 0.0
C1105 C 0.45367 0.28926 0.38375 0.0
C1106 C 0.44289 0.33593 0.37836 0.0
C1107 C 0.46267 0.37246 0.37113 0.0
H1108 H 0.95714 0.91214 0.12586 0.0
H1109 H 0.93834 0.7662 0.10183 0.0
H1110 H 0.99092 0.74616 0.1047 0.0
H1111 H 0.02116 0.92791 0.09347 0.0
H1112 H 0.04022 0.96201 0.11604 0.0
H1113 H 1.00086 0.96308 0.11495 0.0
H1114 H 0.99839 0.93432 0.15893 0.0
H1115 H 0.03784 0.93321 0.16017 0.0
H1116 H 1.01712 0.87976 0.16757 0.0
H1117 H 0.04589 0.74536 0.10496 0.0
H1118 H 0.09897 0.76308 0.10391 0.0
H1119 H 0.08199 0.90841 0.12932 0.0
C1120 C 0.96395 0.87566 0.12162 0.0
C1121 C 0.94355 0.84077 0.11357 0.0
C1122 C 0.95348 0.79355 0.10808 0.0
C1123 C 0.98332 0.78179 0.1097 0.0
C1124 C 1.00291 0.81741 0.11716 0.0
C1125 C 0.99359 0.86325 0.12327 0.0
C1126 C 1.01924 0.89586 0.12927 0.0
C1127 C 0.02043 0.93978 0.11243 0.0
C1128 C 1.01807 0.91171 0.15555 0.0
C1129 C 0.04456 0.8617 0.12479 0.0
C1130 C 0.03465 0.81651 0.11796 0.0
C1131 C 0.0539 0.78024 0.11078 0.0
C1132 C 0.08398 0.79065 0.11018 0.0
C1133 C 0.09455 0.83683 0.11688 0.0
C1134 C 0.07457 0.87238 0.12476 0.0
H1135 H 0.95973 0.11265 0.63215 0.0
H1136 H 0.94353 0.267 0.62859 0.0
H1137 H 0.99672 0.28237 0.6306 0.0
H1138 H 0.02484 0.11909 0.67231 0.0
H1139 H 0.04297 0.07045 0.65682 0.0
H1140 H 1.00353 0.07195 0.65845 0.0
H1141 H 1.00083 0.06726 0.61233 0.0
H1142 H 0.04017 0.0662 0.61053 0.0
H1143 H 0.01988 0.11179 0.59464 0.0
H1144 H 0.05191 0.2806 0.6276 0.0
H1145 H 0.1044 0.26172 0.62183 0.0
H1146 H 0.08478 0.10875 0.62806 0.0
C1147 C 0.96725 0.14976 0.63253 0.0
C1148 C 0.94727 0.1886 0.63032 0.0
C1149 C 0.95826 0.23658 0.63037 0.0
C1150 C 0.98851 0.24571 0.6315 0.0
C1151 C 1.00764 0.20656 0.63279 0.0
C1152 C 0.99742 0.15953 0.63362 0.0
C1153 C 0.0226 0.12379 0.63329 0.0
C1154 C 0.02354 0.0946 0.65661 0.0
C1155 C 0.02075 0.09031 0.61139 0.0
C1156 C 0.04851 0.15797 0.63145 0.0
C1157 C 0.03945 0.20559 0.63133 0.0
C1158 C 0.05929 0.24347 0.6281 0.0
C1159 C 0.08907 0.23239 0.62476 0.0
C1160 C 0.09886 0.18381 0.6247 0.0
C1161 C 0.07819 0.14632 0.62844 0.0
H1162 H 0.07965 0.22353 0.89154 0.0
H1163 H 0.09665 0.12465 0.83317 0.0
H1164 H 0.04379 0.12335 0.82352 0.0
H1165 H 1.0167 0.16508 0.91141 0.0
H1166 H 0.99723 0.2189 0.92014 0.0
H1167 H 0.03663 0.21859 0.92 0.0
H1168 H 0.03711 0.2927 0.89176 0.0
H1169 H 0.99762 0.29339 0.89191 0.0
H1170 H 1.01726 0.29014 0.86401 0.0
H1171 H 0.98843 0.12656 0.82266 0.0
H1172 H 0.93548 0.13146 0.83161 0.0
H1173 H 0.95425 0.22588 0.89156 0.0
C1174 C 0.07233 0.203 0.87621 0.0
C1175 C 0.09234 0.17495 0.86276 0.0
C1176 C 0.08175 0.14688 0.84348 0.0
C1177 C 0.05175 0.14597 0.83787 0.0
C1178 C 0.03246 0.173 0.85184 0.0
C1179 C 0.04233 0.20101 0.87064 0.0
C1180 C 1.01681 0.22254 0.88442 0.0
C1181 C 1.01686 0.20523 0.91053 0.0
C1182 C 1.01723 0.27799 0.88292 0.0
C1183 C 0.99108 0.2016 0.87073 0.0
C1184 C 1.00055 0.17368 0.8518 0.0
C1185 C 0.98079 0.14877 0.8373 0.0
C1186 C 0.95068 0.15179 0.84253 0.0
C1187 C 0.94046 0.17917 0.86225 0.0
C1188 C 0.96112 0.205 0.8762 0.0
H1189 H 0.08204 0.91364 0.37648 0.0
H1190 H 0.09729 0.75888 0.37924 0.0
H1191 H 0.04396 0.74453 0.37721 0.0
H1192 H 0.02078 0.91473 0.4138 0.0
H1193 H 1.00144 0.96117 0.39773 0.0
H1194 H 0.04082 0.95922 0.39682 0.0
H1195 H 0.03957 0.95583 0.35061 0.0
H1196 H 1.00012 0.95806 0.35137 0.0
H1197 H 1.01843 0.90945 0.33599 0.0
H1198 H 0.98866 0.74735 0.37871 0.0
H1199 H 0.93606 0.76719 0.38251 0.0
H1200 H 0.95723 0.91998 0.37837 0.0
C1201 C 0.07427 0.87666 0.3762 0.0
C1202 C 0.09397 0.83741 0.37801 0.0
C1203 C 0.08272 0.78961 0.37784 0.0
C1204 C 0.05243 0.78106 0.37667 0.0
C1205 C 0.03362 0.82063 0.3755 0.0
C1206 C 0.04413 0.86748 0.37505 0.0
C1207 C 1.0193 0.90375 0.37503 0.0
C1208 C 0.02067 0.93663 0.39716 0.0
C1209 C 1.01936 0.93352 0.35186 0.0
C1210 C 0.99317 0.87004 0.3761 0.0
C1211 C 1.00184 0.82222 0.37621 0.0
C1212 C 0.98161 0.78466 0.37834 0.0
C1213 C 0.95177 0.7963 0.38057 0.0
C1214 C 0.94242 0.84513 0.38067 0.0
C1215 C 0.96353 0.88227 0.37811 0.0
H1216 H 0.31817 0.32446 0.02491 0.0
H1217 H 0.25482 0.28315 0.07934 0.0
H1218 H 0.22541 0.24164 0.04901 0.0
H1219 H 0.26446 0.34633 0.97811 0.0
H1220 H 0.28769 0.32279 0.9548 0.0
H1221 H 0.30375 0.35033 0.9808 0.0
H1222 H 0.33383 0.27241 0.98824 0.0
H1223 H 0.31747 0.24435 0.96249 0.0
H1224 H 0.31507 0.21535 0.99123 0.0
H1225 H 0.20419 0.20125 0.01409 0.0
H1226 H 0.18816 0.17294 0.97465 0.0
H1227 H 0.26406 0.24156 0.94201 0.0
C1228 C 0.29797 0.30709 0.03039 0.0
C1229 C 0.28889 0.30696 0.05452 0.0
C1230 C 0.26225 0.28395 0.06097 0.0
C1231 C 0.24542 0.25996 0.04391 0.0
C1232 C 0.25542 0.25954 0.02048 0.0
C1233 C 0.28071 0.28316 0.01352 0.0
C1234 C 0.28597 0.27777 0.98694 0.0
C1235 C 0.28542 0.32724 0.97443 0.0
C1236 C 0.3148 0.25086 0.98194 0.0
C1237 C 0.25968 0.24731 0.98019 0.0
C1238 C 0.24261 0.23688 -8e-05 0.0
C1239 C 0.21717 0.20943 -0.00158 0.0
C1240 C 0.20831 0.1935 0.97594 0.0
C1241 C 0.22476 0.2054 0.95526 0.0
C1242 C 0.25113 0.23174 0.95751 0.0
H1243 H 0.80495 0.85725 0.46983 0.0
H1244 H 0.76284 0.76873 0.41581 0.0
H1245 H 0.74136 0.71766 0.44741 0.0
H1246 H 0.8245 0.76404 0.50866 0.0
H1247 H 0.81669 0.79624 0.53591 0.0
H1248 H 0.82703 0.82907 0.50944 0.0
H1249 H 0.77963 0.88004 0.51178 0.0
H1250 H 0.76956 0.8486 0.53871 0.0
H1251 H 0.74464 0.84999 0.51382 0.0
H1252 H 0.72902 0.67162 0.48397 0.0
H1253 H 0.71648 0.6431 0.52447 0.0
H1254 H 0.76571 0.762 0.55511 0.0
C1255 C 0.7906 0.82782 0.4647 0.0
C1256 C 0.78542 0.81699 0.44041 0.0
C1257 C 0.76671 0.77809 0.43431 0.0
C1258 C 0.7548 0.74846 0.45211 0.0
C1259 C 0.76164 0.75857 0.4758 0.0
C1260 C 0.77834 0.7981 0.48222 0.0
C1261 C 0.78205 0.80114 0.50906 0.0
C1262 C 0.8145 0.79739 0.51617 0.0
C1263 C 0.76813 0.84769 0.51892 0.0
C1264 C 0.76506 0.75669 0.51669 0.0
C1265 C 0.75385 0.73244 0.49714 0.0
C1266 C 0.7373 0.69051 0.49946 0.0
C1267 C 0.73052 0.67444 0.52245 0.0
C1268 C 0.74017 0.70039 0.54276 0.0
C1269 C 0.75851 0.74106 0.53987 0.0
H1270 H 0.27253 0.76477 0.06308 0.0
H1271 H 0.23766 0.90081 0.03782 0.0
H1272 H 0.25013 0.87792 0.99634 0.0
H1273 H 0.33383 0.75654 0.01725 0.0
H1274 H 0.32982 0.69188 0.01534 0.0
H1275 H 0.3223 0.72247 0.04306 0.0
H1276 H 0.27089 0.68336 0.04376 0.0
H1277 H 0.27763 0.6541 0.0156 0.0
H1278 H 0.2463 0.69309 0.01909 0.0
H1279 H 0.25842 0.83484 0.95775 0.0
H1280 H 0.27417 0.78271 0.92425 0.0
H1281 H 0.30586 0.67591 0.97443 0.0
C1282 C 0.26925 0.79084 0.04891 0.0
C1283 C 0.25503 0.83513 0.05351 0.0
C1284 C 0.24953 0.86754 0.03458 0.0
C1285 C 0.25604 0.85444 0.01099 0.0
C1286 C 0.26838 0.80915 0.00685 0.0
C1287 C 0.27604 0.77858 0.02532 0.0
C1288 C 0.28828 0.7313 0.01592 0.0
C1289 C 0.32048 0.72522 0.02333 0.0
C1290 C 0.26964 0.68793 0.02409 0.0
C1291 C 0.28545 0.73955 0.9893 0.0
C1292 C 0.27354 0.78444 0.9845 0.0
C1293 C 0.26803 0.79983 0.96127 0.0
C1294 C 0.27648 0.76968 0.94239 0.0
C1295 C 0.29032 0.72494 0.94693 0.0
C1296 C 0.29442 0.70931 0.97063 0.0
H1297 H 0.77615 0.24905 0.55225 0.0
H1298 H 0.85255 0.18143 0.52016 0.0
H1299 H 0.83735 0.21083 0.48065 0.0
H1300 H 0.72613 0.22402 0.50278 0.0
H1301 H 0.70732 0.28092 0.50592 0.0
H1302 H 0.72364 0.25269 0.53161 0.0
H1303 H 0.75334 0.33088 0.53968 0.0
H1304 H 0.73749 0.35897 0.51376 0.0
H1305 H 0.77675 0.35491 0.51659 0.0
H1306 H 0.8157 0.25077 0.44504 0.0
H1307 H 0.78564 0.29159 0.4146 0.0
H1308 H 0.72306 0.33287 0.46948 0.0
C1309 C 0.78938 0.23973 0.53686 0.0
C1310 C 0.81559 0.21314 0.53932 0.0
C1311 C 0.83247 0.20205 0.51874 0.0
C1312 C 0.82408 0.21865 0.49621 0.0
C1313 C 0.79871 0.24614 0.49449 0.0
C1314 C 0.78134 0.25607 0.51414 0.0
C1315 C 0.75517 0.28659 0.50726 0.0
C1316 C 0.72636 0.25942 0.51218 0.0
C1317 C 0.75574 0.33575 0.52009 0.0
C1318 C 0.76068 0.29227 0.48074 0.0
C1319 C 0.78602 0.26893 0.47379 0.0
C1320 C 0.79574 0.26911 0.4502 0.0
C1321 C 0.77864 0.29273 0.43308 0.0
C1322 C 0.75204 0.31548 0.43965 0.0
C1323 C 0.7433 0.31582 0.46389 0.0
H1324 H 0.81028 0.8553 0.02155 0.0
H1325 H 0.75941 0.78424 0.07705 0.0
H1326 H 0.73457 0.73509 0.04661 0.0
H1327 H 0.75055 0.85792 0.97712 0.0
H1328 H 0.77515 0.84753 0.95245 0.0
H1329 H 0.78785 0.8792 0.97855 0.0
H1330 H 0.83006 0.81736 0.98281 0.0
H1331 H 0.81713 0.78484 0.95704 0.0
H1332 H 0.82159 0.75386 0.98509 0.0
H1333 H 0.71887 0.68858 0.01134 0.0
H1334 H 0.7052 0.65768 0.97169 0.0
H1335 H 0.76433 0.76044 0.93827 0.0
C1336 C 0.79341 0.8302 0.0272 0.0
C1337 C 0.78671 0.82368 0.05164 0.0
C1338 C 0.76463 0.79035 0.05842 0.0
C1339 C 0.75064 0.76182 0.04129 0.0
C1340 C 0.75866 0.76765 0.01748 0.0
C1341 C 0.77887 0.80187 0.01028 0.0
C1342 C 0.78306 0.80101 0.98341 0.0
C1343 C 0.77358 0.84928 0.97223 0.0
C1344 C 0.81485 0.78852 0.97671 0.0
C1345 C 0.76232 0.76044 0.97676 0.0
C1346 C 0.74884 0.74143 0.9968 0.0
C1347 C 0.72895 0.70351 0.99547 0.0
C1348 C 0.72146 0.68607 0.97292 0.0
C1349 C 0.73357 0.70687 0.952 0.0
C1350 C 0.75497 0.74355 0.95397 0.0
H1351 H 0.22363 0.17364 0.51836 0.0
H1352 H 0.26114 0.26843 0.57204 0.0
H1353 H 0.27576 0.3259 0.54082 0.0
H1354 H 0.28194 0.1918 0.47616 0.0
H1355 H 0.25851 0.18882 0.45037 0.0
H1356 H 0.24858 0.15687 0.47715 0.0
H1357 H 0.19866 0.20097 0.47763 0.0
H1358 H 0.20862 0.23388 0.45105 0.0
H1359 H 0.1977 0.26611 0.47758 0.0
H1360 H 0.28713 0.3725 0.50468 0.0
H1361 H 0.30444 0.39714 0.46469 0.0
H1362 H 0.26229 0.27182 0.43369 0.0
C1363 C 0.23513 0.20634 0.52339 0.0
C1364 C 0.24137 0.2165 0.54753 0.0
C1365 C 0.25652 0.25954 0.55359 0.0
C1366 C 0.26447 0.29288 0.53604 0.0
C1367 C 0.25746 0.28244 0.51247 0.0
C1368 C 0.24393 0.23967 0.50597 0.0
C1369 C 0.2419 0.23527 0.47907 0.0
C1370 C 0.25875 0.19056 0.47017 0.0
C1371 C 0.2098 0.234 0.47086 0.0
C1372 C 0.25681 0.28192 0.47159 0.0
C1373 C 0.26481 0.30917 0.49122 0.0
C1374 C 0.28065 0.35204 0.4891 0.0
C1375 C 0.29008 0.36609 0.46637 0.0
C1376 C 0.28371 0.33715 0.44632 0.0
C1377 C 0.26615 0.29549 0.44877 0.0
H1378 H 0.74943 0.24761 0.05671 0.0
H1379 H 0.74671 0.40093 0.04129 0.0
H1380 H 0.7655 0.38537 0.00061 0.0
H1381 H 0.8163 0.21972 0.02111 0.0
H1382 H 0.80176 0.16248 0.01145 0.0
H1383 H 0.79126 0.18672 0.04 0.0
H1384 H 0.73629 0.18 0.02751 0.0
H1385 H 0.74745 0.15589 -0.00093 0.0
H1386 H 0.72444 0.20874 0.00041 0.0
H1387 H 0.77879 0.35329 0.96106 0.0
H1388 H 0.79512 0.30741 0.92575 0.0
H1389 H 0.79037 0.17395 0.96615 0.0
C1390 C 0.75417 0.27786 0.04503 0.0
C1391 C 0.74774 0.32561 0.05209 0.0
C1392 C 0.75258 0.36439 0.03621 0.0
C1393 C 0.76281 0.35579 0.01306 0.0
C1394 C 0.76786 0.30815 0.00621 0.0
C1395 C 0.76436 0.26983 0.02178 0.0
C1396 C 0.77048 0.22207 0.00945 0.0
C1397 C 0.79651 0.19625 0.0212 0.0
C1398 C 0.74304 0.18977 0.0091 0.0
C1399 C 0.77797 0.23962 0.98455 0.0
C1400 C 0.77578 0.2894 0.9831 0.0
C1401 C 0.78084 0.31437 0.96197 0.0
C1402 C 0.78973 0.28803 0.942 0.0
C1403 C 0.79349 0.23736 0.94333 0.0
C1404 C 0.78697 0.21257 0.96467 0.0
H1405 H 0.22275 0.8201 0.47037 0.0
H1406 H 0.2801 0.7606 0.41583 0.0
H1407 H 0.3086 0.71891 0.44698 0.0
H1408 H 0.27941 0.84039 0.5148 0.0
H1409 H 0.2557 0.82446 0.53935 0.0
H1410 H 0.24047 0.85025 0.51262 0.0
H1411 H 0.20562 0.77651 0.50911 0.0
H1412 H 0.22137 0.75011 0.53551 0.0
H1413 H 0.22082 0.71644 0.50797 0.0
H1414 H 0.32963 0.68182 0.48341 0.0
H1415 H 0.34581 0.65812 0.52358 0.0
H1416 H 0.27534 0.74244 0.55496 0.0
C1417 C 0.24148 0.79866 0.465 0.0
C1418 C 0.24924 0.79352 0.44068 0.0
C1419 C 0.27392 0.76531 0.43436 0.0
C1420 C 0.29009 0.74121 0.4519 0.0
C1421 C 0.28141 0.74614 0.47563 0.0
C1422 C 0.25801 0.77471 0.48228 0.0
C1423 C 0.25361 0.77441 0.50911 0.0
C1424 C 0.25755 0.82541 0.51957 0.0
C1425 C 0.22357 0.75309 0.51581 0.0
C1426 C 0.27827 0.74114 0.51651 0.0
C1427 C 0.29381 0.72499 0.49684 0.0
C1428 C 0.31776 0.69436 0.49896 0.0
C1429 C 0.32672 0.6811 0.52185 0.0
C1430 C 0.31185 0.69861 0.54236 0.0
C1431 C 0.28689 0.72813 0.53961 0.0
H1432 H 0.36859 0.43725 0.19934 0.0
H1433 H 0.31983 0.30688 0.18267 0.0
H1434 H 0.31866 0.28509 0.22516 0.0
H1435 H 0.41093 0.38752 0.25025 0.0
H1436 H 0.40778 0.44206 0.26765 0.0
H1437 H 0.40824 0.44524 0.23551 0.0
H1438 H 0.35895 0.49151 0.23622 0.0
H1439 H 0.35831 0.48839 0.26831 0.0
H1440 H 0.32786 0.46525 0.25134 0.0
H1441 H 0.31979 0.27888 0.26859 0.0
H1442 H 0.32084 0.29028 0.31195 0.0
H1443 H 0.36677 0.42675 0.30247 0.0
C1444 C 0.35822 0.40376 0.20474 0.0
C1445 C 0.34449 0.37345 0.18781 0.0
C1446 C 0.33048 0.33047 0.19541 0.0
C1447 C 0.32982 0.31765 0.21948 0.0
C1448 C 0.34302 0.34847 0.23584 0.0
C1449 C 0.35682 0.39078 0.22898 0.0
C1450 C 0.36691 0.41913 0.2507 0.0
C1451 C 0.40046 0.42375 0.25104 0.0
C1452 C 0.35212 0.46902 0.25169 0.0
C1453 C 0.35606 0.38647 0.27066 0.0
C1454 C 0.34279 0.34563 0.26151 0.0
C1455 C 0.33024 0.31056 0.27606 0.0
C1456 C 0.33089 0.31754 0.30072 0.0
C1457 C 0.34376 0.35956 0.31073 0.0
C1458 C 0.35686 0.39419 0.29542 0.0
H1459 H 0.74196 0.64648 0.79927 0.0
H1460 H 0.65652 0.7105 0.81127 0.0
H1461 H 0.65223 0.7282 0.76837 0.0
H1462 H 0.76492 0.72687 0.74804 0.0
H1463 H 0.78194 0.67753 0.73226 0.0
H1464 H 0.78117 0.67773 0.76444 0.0
H1465 H 0.75614 0.59367 0.76422 0.0
H1466 H 0.75675 0.59327 0.73212 0.0
H1467 H 0.72255 0.58547 0.74782 0.0
H1468 H 0.65336 0.72877 0.725 0.0
H1469 H 0.65947 0.71099 0.68225 0.0
H1470 H 0.74408 0.64599 0.69637 0.0
C1471 C 0.72287 0.66559 0.79281 0.0
C1472 C 0.69968 0.67774 0.80842 0.0
C1473 C 0.67451 0.7012 0.79947 0.0
C1474 C 0.67197 0.71165 0.7752 0.0
C1475 C 0.69475 0.69817 0.76007 0.0
C1476 C 0.71977 0.67565 0.76838 0.0
C1477 C 0.73921 0.65989 0.74776 0.0
C1478 C 0.76855 0.68715 0.74815 0.0
C1479 C 0.74392 0.60482 0.748 0.0
C1480 C 0.72061 0.67541 0.72668 0.0
C1481 C 0.69532 0.69814 0.73436 0.0
C1482 C 0.67331 0.71195 0.71867 0.0
C1483 C 0.6769 0.70151 0.69448 0.0
C1484 C 0.70232 0.67763 0.68616 0.0
C1485 C 0.7248 0.66535 0.70233 0.0
H1486 H 0.36486 0.61072 0.80189 0.0
H1487 H 0.28726 0.69925 0.81185 0.0
H1488 H 0.28118 0.70464 0.76832 0.0
H1489 H 0.39218 0.67583 0.75062 0.0
H1490 H 0.40586 0.6228 0.73562 0.0
H1491 H 0.4039 0.62421 0.76773 0.0
H1492 H 0.37243 0.54626 0.76746 0.0
H1493 H 0.37431 0.54459 0.73535 0.0
H1494 H 0.3392 0.54453 0.75015 0.0
H1495 H 0.28272 0.7002 0.72417 0.0
H1496 H 0.29295 0.68897 0.68141 0.0
H1497 H 0.37072 0.60595 0.69886 0.0
C1498 C 0.3465 0.63095 0.79488 0.0
C1499 C 0.32645 0.65438 0.81036 0.0
C1500 C 0.30294 0.68104 0.80044 0.0
C1501 C 0.29924 0.68425 0.7757 0.0
C1502 C 0.31936 0.661 0.76098 0.0
C1503 C 0.34264 0.63509 0.77008 0.0
C1504 C 0.36149 0.61478 0.75007 0.0
C1505 C 0.39271 0.63566 0.75107 0.0
C1506 C 0.36187 0.55924 0.75081 0.0
C1507 C 0.34503 0.63321 0.72837 0.0
C1508 C 0.3207 0.65951 0.73519 0.0
C1509 C 0.30172 0.67974 0.71857 0.0
C1510 C 0.3077 0.67299 0.69429 0.0
C1511 C 0.3326 0.64649 0.6867 0.0
C1512 C 0.35157 0.62652 0.70406 0.0
H1513 H 0.72858 0.38064 0.19539 0.0
H1514 H 0.64032 0.43341 0.18234 0.0
H1515 H 0.63171 0.43896 0.22538 0.0
H1516 H 0.7102 0.30793 0.24651 0.0
H1517 H 0.74323 0.32173 0.26273 0.0
H1518 H 0.7434 0.32262 0.23058 0.0
H1519 H 0.7627 0.41069 0.23109 0.0
H1520 H 0.76262 0.41003 0.26325 0.0
H1521 H 0.74275 0.45619 0.24742 0.0
H1522 H 0.63129 0.43745 0.26899 0.0
H1523 H 0.63945 0.43015 0.31203 0.0
H1524 H 0.72806 0.37903 0.29868 0.0
C1525 C 0.70753 0.39362 0.20161 0.0
C1526 C 0.6852 0.40664 0.18532 0.0
C1527 C 0.65789 0.4232 0.19428 0.0
C1528 C 0.65269 0.42655 0.21878 0.0
C1529 C 0.67497 0.41329 0.23427 0.0
C1530 C 0.70188 0.39726 0.22622 0.0
C1531 C 0.72173 0.38489 0.24708 0.0
C1532 C 0.73013 0.33109 0.2467 0.0
C1533 C 0.74907 0.4174 0.24721 0.0
C1534 C 0.7016 0.39635 0.26796 0.0
C1535 C 0.67478 0.41264 0.25998 0.0
C1536 C 0.65224 0.42493 0.27554 0.0
C1537 C 0.65714 0.42055 0.30003 0.0
C1538 C 0.68446 0.4041 0.30888 0.0
C1539 C 0.70701 0.39191 0.29253 0.0
H1540 H 0.809 0.88687 0.19483 0.0
H1541 H 0.90288 0.88563 0.1816 0.0
H1542 H 0.91197 0.88258 0.22473 0.0
H1543 H 0.81145 0.96324 0.24594 0.0
H1544 H 0.78285 0.93213 0.26202 0.0
H1545 H 0.78315 0.93151 0.22988 0.0
H1546 H 0.78253 0.83789 0.23015 0.0
H1547 H 0.78216 0.83822 0.26231 0.0
H1548 H 0.8103 0.80561 0.24648 0.0
H1549 H 0.91164 0.88359 0.26858 0.0
H1550 H 0.90183 0.88754 0.31165 0.0
H1551 H 0.80818 0.88757 0.29776 0.0
C1552 C 0.83143 0.88545 0.20102 0.0
C1553 C 0.85521 0.88664 0.18477 0.0
C1554 C 0.88427 0.88509 0.19363 0.0
C1555 C 0.88972 0.88317 0.21813 0.0
C1556 C 0.86591 0.8827 0.23364 0.0
C1557 C 0.83734 0.88364 0.22557 0.0
C1558 C 0.81592 0.88433 0.24634 0.0
C1559 C 0.79724 0.93056 0.24602 0.0
C1560 C 0.79659 0.83879 0.24631 0.0
C1561 C 0.83702 0.8842 0.26723 0.0
C1562 C 0.86572 0.8831 0.25936 0.0
C1563 C 0.88928 0.88419 0.27503 0.0
C1564 C 0.88343 0.88664 0.29948 0.0
C1565 C 0.85423 0.88796 0.30812 0.0
C1566 C 0.83072 0.88632 0.29172 0.0
H1567 H 0.16534 0.12651 0.79972 0.0
H1568 H 0.25165 0.18591 0.81437 0.0
H1569 H 0.26024 0.19558 0.77119 0.0
H1570 H 0.18588 0.05848 0.74859 0.0
H1571 H 0.15233 0.06979 0.73265 0.0
H1572 H 0.15236 0.06951 0.76478 0.0
H1573 H 0.13022 0.15571 0.76512 0.0
H1574 H 0.13016 0.1563 0.73297 0.0
H1575 H 0.14859 0.20361 0.7492 0.0
H1576 H 0.26024 0.19639 0.72686 0.0
H1577 H 0.25215 0.18713 0.68372 0.0
H1578 H 0.16574 0.12717 0.69766 0.0
C1579 C 0.18602 0.14176 0.7939 0.0
C1580 C 0.20786 0.15537 0.81045 0.0
C1581 C 0.23462 0.17508 0.80204 0.0
C1582 C 0.23968 0.18088 0.77756 0.0
C1583 C 0.21774 0.16691 0.76177 0.0
C1584 C 0.19145 0.14776 0.76955 0.0
C1585 C 0.17189 0.13431 0.74878 0.0
C1586 C 0.16524 0.07979 0.7487 0.0
C1587 C 0.14354 0.16428 0.74904 0.0
C1588 C 0.19147 0.14839 0.72809 0.0
C1589 C 0.21773 0.16734 0.73604 0.0
C1590 C 0.23974 0.18177 0.72039 0.0
C1591 C 0.23493 0.17621 0.69592 0.0
C1592 C 0.20834 0.15627 0.68731 0.0
C1593 C 0.18622 0.14274 0.70367 0.0
H1594 H 0.86884 0.11657 0.69605 0.0
H1595 H 0.78805 0.1916 0.67884 0.0
H1596 H 0.77671 0.19891 0.72167 0.0
H1597 H 0.83964 0.04883 0.74612 0.0
H1598 H 0.87268 0.05359 0.76352 0.0
H1599 H 0.87468 0.0539 0.7314 0.0
H1600 H 0.90264 0.1354 0.73257 0.0
H1601 H 0.90078 0.1353 0.76468 0.0
H1602 H 0.88674 0.18605 0.74812 0.0
H1603 H 0.77473 0.20096 0.76599 0.0
H1604 H 0.7815 0.19563 0.8095 0.0
H1605 H 0.86265 0.11677 0.79866 0.0
C1606 C 0.84876 0.1345 0.70128 0.0
C1607 C 0.82931 0.15346 0.68401 0.0
C1608 C 0.80322 0.17654 0.69166 0.0
C1609 C 0.79659 0.18096 0.71598 0.0
C1610 C 0.81613 0.16184 0.73249 0.0
C1611 C 0.84162 0.13888 0.72554 0.0
C1612 C 0.85879 0.12153 0.74706 0.0
C1613 C 0.8616 0.06617 0.74702 0.0
C1614 C 0.88902 0.14604 0.74817 0.0
C1615 C 0.83903 0.13869 0.76715 0.0
C1616 C 0.81462 0.16199 0.75826 0.0
C1617 C 0.79363 0.18251 0.77318 0.0
C1618 C 0.79773 0.17937 0.79789 0.0
C1619 C 0.82251 0.15554 0.8075 0.0
C1620 C 0.84329 0.13462 0.79185 0.0
H1621 H 0.22809 0.8547 0.29998 0.0
H1622 H 0.14497 0.9269 0.3128 0.0
H1623 H 0.13619 0.93062 0.26969 0.0
H1624 H 0.24752 0.92204 0.24687 0.0
H1625 H 0.26346 0.87096 0.2317 0.0
H1626 H 0.26368 0.87359 0.26382 0.0
H1627 H 0.2375 0.79057 0.26564 0.0
H1628 H 0.23705 0.78783 0.23351 0.0
H1629 H 0.20332 0.78235 0.25009 0.0
H1630 H 0.13597 0.92826 0.22594 0.0
H1631 H 0.14471 0.92062 0.1828 0.0
H1632 H 0.22738 0.84845 0.19671 0.0
C1633 C 0.20813 0.87146 0.29369 0.0
C1634 C 0.18727 0.89056 0.30991 0.0
C1635 C 0.16133 0.91194 0.30089 0.0
C1636 C 0.15606 0.91423 0.27637 0.0
C1637 C 0.17684 0.89486 0.26094 0.0
C1638 C 0.20237 0.87391 0.26909 0.0
C1639 C 0.22094 0.85603 0.24834 0.0
C1640 C 0.25066 0.88223 0.24765 0.0
C1641 C 0.22493 0.80092 0.24947 0.0
C1642 C 0.20182 0.87053 0.22737 0.0
C1643 C 0.17652 0.89287 0.23522 0.0
C1644 C 0.15564 0.91074 0.21951 0.0
C1645 C 0.16087 0.9063 0.19504 0.0
C1646 C 0.1867 0.88396 0.18639 0.0
C1647 C 0.2073 0.86525 0.20281 0.0
loop_
_geom_bond_atom_site_label_1
_geom_bond_atom_site_label_2
_geom_bond_distance
_geom_bond_site_symmetry_2
_ccdc_geom_bond_type
Fe0 O2 1.918 . S
Fe0 O5 1.997 . S
Fe0 O6 2.002 . S
Fe0 O11 1.976 . S
Fe0 O14 1.996 . S
Fe1 O2 1.918 . S
Fe1 O9 1.997 . S
Fe1 O12 1.996 . S
Fe1 O16 1.976 . S
Fe1 O19 2.002 . S
O2 Fe0 1.918 . S
O2 Fe1 1.918 . S
O2 Fe3 1.918 . S
Fe3 O2 1.918 . S
Fe3 O4 2.002 . S
Fe3 O13 1.976 . S
Fe3 O17 1.996 . S
Fe3 O20 1.997 . S
O4 Fe3 2.002 . S
O4 C21 1.295 . S
O5 Fe0 1.997 . S
O5 C21 1.235 . S
O6 Fe0 2.002 . S
O6 C7 1.295 . S
C7 O6 1.295 . S
C7 O9 1.235 . S
C8 O13 1.287 . S
C8 O14 1.255 . S
O9 Fe1 1.997 . S
O9 C7 1.235 . S
C10 O16 1.287 . S
C10 O17 1.255 . S
O11 Fe0 1.976 . S
O11 C18 1.287 . S
O12 Fe1 1.996 . S
O12 C18 1.255 . S
O13 Fe3 1.976 . S
O13 C8 1.287 . S
O14 Fe0 1.996 . S
O14 C8 1.255 . S
C15 O19 1.295 . S
C15 O20 1.235 . S
O16 Fe1 1.976 . S
O16 C10 1.287 . S
O17 Fe3 1.996 . S
O17 C10 1.255 . S
C18 O11 1.287 . S
C18 O12 1.255 . S
O19 Fe1 2.002 . S
O19 C15 1.295 . S
O20 Fe3 1.997 . S
O20 C15 1.235 . S
C21 O4 1.295 . S
C21 O5 1.235 . S
Fe22 O24 1.918 . S
Fe22 O27 1.997 . S
Fe22 O28 2.002 . S
Fe22 O33 1.976 . S
Fe22 O36 1.996 . S
Fe23 O24 1.918 . S
Fe23 O31 1.997 . S
Fe23 O34 1.996 . S
Fe23 O38 1.976 . S
Fe23 O41 2.002 . S
O24 Fe22 1.918 . S
O24 Fe23 1.918 . S
O24 Fe25 1.918 . S
Fe25 O24 1.918 . S
Fe25 O26 2.002 . S
Fe25 O35 1.976 . S
Fe25 O39 1.996 . S
Fe25 O42 1.997 . S
O26 Fe25 2.002 . S
O26 C43 1.295 . S
O27 Fe22 1.997 . S
O27 C43 1.235 . S
O28 Fe22 2.002 . S
O28 C29 1.295 . S
C29 O28 1.295 . S
C29 O31 1.235 . S
C30 O35 1.287 . S
C30 O36 1.255 . S
O31 Fe23 1.997 . S
O31 C29 1.235 . S
C32 O38 1.287 . S
C32 O39 1.255 . S
O33 Fe22 1.976 . S
O33 C40 1.287 . S
O34 Fe23 1.996 . S
O34 C40 1.255 . S
O35 Fe25 1.976 . S
O35 C30 1.287 . S
O36 Fe22 1.996 . S
O36 C30 1.255 . S
C37 O41 1.295 . S
C37 O42 1.235 . S
O38 Fe23 1.976 . S
O38 C32 1.287 . S
O39 Fe25 1.996 . S
O39 C32 1.255 . S
C40 O33 1.287 . S
C40 O34 1.255 . S
O41 Fe23 2.002 . S
O41 C37 1.295 . S
O42 Fe25 1.997 . S
O42 C37 1.235 . S
C43 O26 1.295 . S
C43 O27 1.235 . S
Fe44 O46 1.918 . S
Fe44 O49 1.997 . S
Fe44 O50 2.002 . S
Fe44 O55 1.976 . S
Fe44 O58 1.996 . S
Fe45 O46 1.918 . S
Fe45 O53 1.997 . S
Fe45 O56 1.996 . S
Fe45 O60 1.976 . S
Fe45 O63 2.002 . S
O46 Fe44 1.918 . S
O46 Fe45 1.918 . S
O46 Fe47 1.918 . S
Fe47 O46 1.918 . S
Fe47 O48 2.002 . S
Fe47 O57 1.976 . S
Fe47 O61 1.996 . S
Fe47 O64 1.997 . S
O48 Fe47 2.002 . S
O48 C65 1.295 . S
O49 Fe44 1.997 . S
O49 C65 1.235 . S
O50 Fe44 2.002 . S
O50 C51 1.295 . S
C51 O50 1.295 . S
C51 O53 1.235 . S
C52 O57 1.287 . S
C52 O58 1.255 . S
O53 Fe45 1.997 . S
O53 C51 1.235 . S
C54 O60 1.287 . S
C54 O61 1.255 . S
O55 Fe44 1.976 . S
O55 C62 1.287 . S
O56 Fe45 1.996 . S
O56 C62 1.255 . S
O57 Fe47 1.976 . S
O57 C52 1.287 . S
O58 Fe44 1.996 . S
O58 C52 1.255 . S
C59 O63 1.295 . S
C59 O64 1.235 . S
O60 Fe45 1.976 . S
O60 C54 1.287 . S
O61 Fe47 1.996 . S
O61 C54 1.255 . S
C62 O55 1.287 . S
C62 O56 1.255 . S
O63 Fe45 2.002 . S
O63 C59 1.295 . S
O64 Fe47 1.997 . S
O64 C59 1.235 . S
C65 O48 1.295 . S
C65 O49 1.235 . S
Fe66 O68 1.918 . S
Fe66 O71 1.997 . S
Fe66 O72 2.002 . S
Fe66 O77 1.976 . S
Fe66 O80 1.996 . S
Fe67 O68 1.918 . S
Fe67 O75 1.997 . S
Fe67 O78 1.996 . S
Fe67 O82 1.976 . S
Fe67 O85 2.002 . S
O68 Fe66 1.918 . S
O68 Fe67 1.918 . S
O68 Fe69 1.918 . S
Fe69 O68 1.918 . S
Fe69 O70 2.002 . S
Fe69 O79 1.976 . S
Fe69 O83 1.996 . S
Fe69 O86 1.997 . S
O70 Fe69 2.002 . S
O70 C87 1.295 . S
O71 Fe66 1.997 . S
O71 C87 1.235 . S
O72 Fe66 2.002 . S
O72 C73 1.295 . S
C73 O72 1.295 . S
C73 O75 1.235 . S
C74 O79 1.287 . S
C74 O80 1.255 . S
O75 Fe67 1.997 . S
O75 C73 1.235 . S
C76 O82 1.287 . S
C76 O83 1.255 . S
O77 Fe66 1.976 . S
O77 C84 1.287 . S
O78 Fe67 1.996 . S
O78 C84 1.255 . S
O79 Fe69 1.976 . S
O79 C74 1.287 . S
O80 Fe66 1.996 . S
O80 C74 1.255 . S
C81 O85 1.295 . S
C81 O86 1.235 . S
O82 Fe67 1.976 . S
O82 C76 1.287 . S
O83 Fe69 1.996 . S
O83 C76 1.255 . S
C84 O77 1.287 . S
C84 O78 1.255 . S
O85 Fe67 2.002 . S
O85 C81 1.295 . S
O86 Fe69 1.997 . S
O86 C81 1.235 . S
C87 O70 1.295 . S
C87 O71 1.235 . S
Fe88 O90 1.918 . S
Fe88 O93 1.997 . S
Fe88 O94 2.002 . S
Fe88 O99 1.976 . S
Fe88 O102 1.996 . S
Fe89 O90 1.918 . S
Fe89 O97 1.997 . S
Fe89 O100 1.996 . S
Fe89 O104 1.976 . S
Fe89 O107 2.002 . S
O90 Fe88 1.918 . S
O90 Fe89 1.918 . S
O90 Fe91 1.918 . S
Fe91 O90 1.918 . S
Fe91 O92 2.002 . S
Fe91 O101 1.976 . S
Fe91 O105 1.996 . S
Fe91 O108 1.997 . S
O92 Fe91 2.002 . S
O92 C109 1.295 . S
O93 Fe88 1.997 . S
O93 C109 1.235 . S
O94 Fe88 2.002 . S
O94 C95 1.295 . S
C95 O94 1.295 . S
C95 O97 1.235 . S
C96 O101 1.287 . S
C96 O102 1.255 . S
O97 Fe89 1.997 . S
O97 C95 1.235 . S
C98 O104 1.287 . S
C98 O105 1.255 . S
O99 Fe88 1.976 . S
O99 C106 1.287 . S
O100 Fe89 1.996 . S
O100 C106 1.255 . S
O101 Fe91 1.976 . S
O101 C96 1.287 . S
O102 Fe88 1.996 . S
O102 C96 1.255 . S
C103 O107 1.295 . S
C103 O108 1.235 . S
O104 Fe89 1.976 . S
O104 C98 1.287 . S
O105 Fe91 1.996 . S
O105 C98 1.255 . S
C106 O99 1.287 . S
C106 O100 1.255 . S
O107 Fe89 2.002 . S
O107 C103 1.295 . S
O108 Fe91 1.997 . S
O108 C103 1.235 . S
C109 O92 1.295 . S
C109 O93 1.235 . S
Fe110 O112 1.918 . S
Fe110 O115 1.997 . S
Fe110 O116 2.002 . S
Fe110 O121 1.976 . S
Fe110 O124 1.996 . S
Fe111 O112 1.918 . S
Fe111 O119 1.997 . S
Fe111 O122 1.996 . S
Fe111 O126 1.976 . S
Fe111 O129 2.002 . S
O112 Fe110 1.918 . S
O112 Fe111 1.918 . S
O112 Fe113 1.918 . S
Fe113 O112 1.918 . S
Fe113 O114 2.002 . S
Fe113 O123 1.976 . S
Fe113 O127 1.996 . S
Fe113 O130 1.997 . S
O114 Fe113 2.002 . S
O114 C131 1.295 . S
O115 Fe110 1.997 . S
O115 C131 1.235 . S
O116 Fe110 2.002 . S
O116 C117 1.295 . S
C117 O116 1.295 . S
C117 O119 1.235 . S
C118 O123 1.287 . S
C118 O124 1.255 . S
O119 Fe111 1.997 . S
O119 C117 1.235 . S
C120 O126 1.287 . S
C120 O127 1.255 . S
O121 Fe110 1.976 . S
O121 C128 1.287 . S
O122 Fe111 1.996 . S
O122 C128 1.255 . S
O123 Fe113 1.976 . S
O123 C118 1.287 . S
O124 Fe110 1.996 . S
O124 C118 1.255 . S
C125 O129 1.295 . S
C125 O130 1.235 . S
O126 Fe111 1.976 . S
O126 C120 1.287 . S
O127 Fe113 1.996 . S
O127 C120 1.255 . S
C128 O121 1.287 . S
C128 O122 1.255 . S
O129 Fe111 2.002 . S
O129 C125 1.295 . S
O130 Fe113 1.997 . S
O130 C125 1.235 . S
C131 O114 1.295 . S
C131 O115 1.235 . S
Fe132 O134 1.918 . S
Fe132 O137 1.997 . S
Fe132 O138 2.002 . S
Fe132 O143 1.976 . S
Fe132 O146 1.996 . S
Fe133 O134 1.918 . S
Fe133 O141 1.997 . S
Fe133 O144 1.996 . S
Fe133 O148 1.976 . S
Fe133 O151 2.002 . S
O134 Fe132 1.918 . S
O134 Fe133 1.918 . S
O134 Fe135 1.918 . S
Fe135 O134 1.918 . S
Fe135 O136 2.002 . S
Fe135 O145 1.976 . S
Fe135 O149 1.996 . S
Fe135 O152 1.997 . S
O136 Fe135 2.002 . S
O136 C153 1.295 . S
O137 Fe132 1.997 . S
O137 C153 1.235 . S
O138 Fe132 2.002 . S
O138 C139 1.295 . S
C139 O138 1.295 . S
C139 O141 1.235 . S
C140 O145 1.287 . S
C140 O146 1.255 . S
O141 Fe133 1.997 . S
O141 C139 1.235 . S
C142 O148 1.287 . S
C142 O149 1.255 . S
O143 Fe132 1.976 . S
O143 C150 1.287 . S
O144 Fe133 1.996 . S
O144 C150 1.255 . S
O145 Fe135 1.976 . S
O145 C140 1.287 . S
O146 Fe132 1.996 . S
O146 C140 1.255 . S
C147 O151 1.295 . S
C147 O152 1.235 . S
O148 Fe133 1.976 . S
O148 C142 1.287 . S
O149 Fe135 1.996 . S
O149 C142 1.255 . S
C150 O143 1.287 . S
C150 O144 1.255 . S
O151 Fe133 2.002 . S
O151 C147 1.295 . S
O152 Fe135 1.997 . S
O152 C147 1.235 . S
C153 O136 1.295 . S
C153 O137 1.235 . S
Fe154 O156 1.918 . S
Fe154 O159 1.997 . S
Fe154 O160 2.002 . S
Fe154 O165 1.976 . S
Fe154 O168 1.996 . S
Fe155 O156 1.918 . S
Fe155 O163 1.997 . S
Fe155 O166 1.996 . S
Fe155 O170 1.976 . S
Fe155 O173 2.002 . S
O156 Fe154 1.918 . S
O156 Fe155 1.918 . S
O156 Fe157 1.918 . S
Fe157 O156 1.918 . S
Fe157 O158 2.002 . S
Fe157 O167 1.976 . S
Fe157 O171 1.996 . S
Fe157 O174 1.997 . S
O158 Fe157 2.002 . S
O158 C175 1.295 . S
O159 Fe154 1.997 . S
O159 C175 1.235 . S
O160 Fe154 2.002 . S
O160 C161 1.295 . S
C161 O160 1.295 . S
C161 O163 1.235 . S
C162 O167 1.287 . S
C162 O168 1.255 . S
O163 Fe155 1.997 . S
O163 C161 1.235 . S
C164 O170 1.287 . S
C164 O171 1.255 . S
O165 Fe154 1.976 . S
O165 C172 1.287 . S
O166 Fe155 1.996 . S
O166 C172 1.255 . S
O167 Fe157 1.976 . S
O167 C162 1.287 . S
O168 Fe154 1.996 . S
O168 C162 1.255 . S
C169 O173 1.295 . S
C169 O174 1.235 . S
O170 Fe155 1.976 . S
O170 C164 1.287 . S
O171 Fe157 1.996 . S
O171 C164 1.255 . S
C172 O165 1.287 . S
C172 O166 1.255 . S
O173 Fe155 2.002 . S
O173 C169 1.295 . S
O174 Fe157 1.997 . S
O174 C169 1.235 . S
C175 O158 1.295 . S
C175 O159 1.235 . S
Fe176 O178 1.918 . S
Fe176 O181 1.997 . S
Fe176 O182 2.002 . S
Fe176 O187 1.976 . S
Fe176 O190 1.996 . S
Fe177 O178 1.918 . S
Fe177 O185 1.997 . S
Fe177 O188 1.996 . S
Fe177 O192 1.976 . S
Fe177 O195 2.002 . S
O178 Fe176 1.918 . S
O178 Fe177 1.918 . S
O178 Fe179 1.918 . S
Fe179 O178 1.918 . S
Fe179 O180 2.002 . S
Fe179 O189 1.976 . S
Fe179 O193 1.996 . S
Fe179 O196 1.997 . S
O180 Fe179 2.002 . S
O180 C197 1.295 . S
O181 Fe176 1.997 . S
O181 C197 1.235 . S
O182 Fe176 2.002 . S
O182 C183 1.295 . S
C183 O182 1.295 . S
C183 O185 1.235 . S
C184 O189 1.287 . S
C184 O190 1.255 . S
O185 Fe177 1.997 . S
O185 C183 1.235 . S
C186 O192 1.287 . S
C186 O193 1.255 . S
O187 Fe176 1.976 . S
O187 C194 1.287 . S
O188 Fe177 1.996 . S
O188 C194 1.255 . S
O189 Fe179 1.976 . S
O189 C184 1.287 . S
O190 Fe176 1.996 . S
O190 C184 1.255 . S
C191 O195 1.295 . S
C191 O196 1.235 . S
O192 Fe177 1.976 . S
O192 C186 1.287 . S
O193 Fe179 1.996 . S
O193 C186 1.255 . S
C194 O187 1.287 . S
C194 O188 1.255 . S
O195 Fe177 2.002 . S
O195 C191 1.295 . S
O196 Fe179 1.997 . S
O196 C191 1.235 . S
C197 O180 1.295 . S
C197 O181 1.235 . S
Fe198 O200 1.918 . S
Fe198 O203 1.997 . S
Fe198 O204 2.002 . S
Fe198 O209 1.976 . S
Fe198 O212 1.996 . S
Fe199 O200 1.918 . S
Fe199 O207 1.997 . S
Fe199 O210 1.996 . S
Fe199 O214 1.976 . S
Fe199 O217 2.002 . S
O200 Fe198 1.918 . S
O200 Fe199 1.918 . S
O200 Fe201 1.918 . S
Fe201 O200 1.918 . S
Fe201 O202 2.002 . S
Fe201 O211 1.976 . S
Fe201 O215 1.996 . S
Fe201 O218 1.997 . S
O202 Fe201 2.002 . S
O202 C219 1.295 . S
O203 Fe198 1.997 . S
O203 C219 1.235 . S
O204 Fe198 2.002 . S
O204 C205 1.295 . S
C205 O204 1.295 . S
C205 O207 1.235 . S
C206 O211 1.287 . S
C206 O212 1.255 . S
O207 Fe199 1.997 . S
O207 C205 1.235 . S
C208 O214 1.287 . S
C208 O215 1.255 . S
O209 Fe198 1.976 . S
O209 C216 1.287 . S
O210 Fe199 1.996 . S
O210 C216 1.255 . S
O211 Fe201 1.976 . S
O211 C206 1.287 . S
O212 Fe198 1.996 . S
O212 C206 1.255 . S
C213 O217 1.295 . S
C213 O218 1.235 . S
O214 Fe199 1.976 . S
O214 C208 1.287 . S
O215 Fe201 1.996 . S
O215 C208 1.255 . S
C216 O209 1.287 . S
C216 O210 1.255 . S
O217 Fe199 2.002 . S
O217 C213 1.295 . S
O218 Fe201 1.997 . S
O218 C213 1.235 . S
C219 O202 1.295 . S
C219 O203 1.235 . S
Fe220 O222 1.918 . S
Fe220 O225 1.997 . S
Fe220 O226 2.002 . S
Fe220 O231 1.976 . S
Fe220 O234 1.996 . S
Fe221 O222 1.918 . S
Fe221 O229 1.997 . S
Fe221 O232 1.996 . S
Fe221 O236 1.976 . S
Fe221 O239 2.002 . S
O222 Fe220 1.918 . S
O222 Fe221 1.918 . S
O222 Fe223 1.918 . S
Fe223 O222 1.918 . S
Fe223 O224 2.002 . S
Fe223 O233 1.976 . S
Fe223 O237 1.996 . S
Fe223 O240 1.997 . S
O224 Fe223 2.002 . S
O224 C241 1.295 . S
O225 Fe220 1.997 . S
O225 C241 1.235 . S
O226 Fe220 2.002 . S
O226 C227 1.295 . S
C227 O226 1.295 . S
C227 O229 1.235 . S
C228 O233 1.287 . S
C228 O234 1.255 . S
O229 Fe221 1.997 . S
O229 C227 1.235 . S
C230 O236 1.287 . S
C230 O237 1.255 . S
O231 Fe220 1.976 . S
O231 C238 1.287 . S
O232 Fe221 1.996 . S
O232 C238 1.255 . S
O233 Fe223 1.976 . S
O233 C228 1.287 . S
O234 Fe220 1.996 . S
O234 C228 1.255 . S
C235 O239 1.295 . S
C235 O240 1.235 . S
O236 Fe221 1.976 . S
O236 C230 1.287 . S
O237 Fe223 1.996 . S
O237 C230 1.255 . S
C238 O231 1.287 . S
C238 O232 1.255 . S
O239 Fe221 2.002 . S
O239 C235 1.295 . S
O240 Fe223 1.997 . S
O240 C235 1.235 . S
C241 O224 1.295 . S
C241 O225 1.235 . S
Fe242 O244 1.918 . S
Fe242 O247 1.997 . S
Fe242 O248 2.002 . S
Fe242 O253 1.976 . S
Fe242 O256 1.996 . S
Fe243 O244 1.918 . S
Fe243 O251 1.997 . S
Fe243 O254 1.996 . S
Fe243 O258 1.976 . S
Fe243 O261 2.002 . S
O244 Fe242 1.918 . S
O244 Fe243 1.918 . S
O244 Fe245 1.918 . S
Fe245 O244 1.918 . S
Fe245 O246 2.002 . S
Fe245 O255 1.976 . S
Fe245 O259 1.996 . S
Fe245 O262 1.997 . S
O246 Fe245 2.002 . S
O246 C263 1.295 . S
O247 Fe242 1.997 . S
O247 C263 1.235 . S
O248 Fe242 2.002 . S
O248 C249 1.295 . S
C249 O248 1.295 . S
C249 O251 1.235 . S
C250 O255 1.287 . S
C250 O256 1.255 . S
O251 Fe243 1.997 . S
O251 C249 1.235 . S
C252 O258 1.287 . S
C252 O259 1.255 . S
O253 Fe242 1.976 . S
O253 C260 1.287 . S
O254 Fe243 1.996 . S
O254 C260 1.255 . S
O255 Fe245 1.976 . S
O255 C250 1.287 . S
O256 Fe242 1.996 . S
O256 C250 1.255 . S
C257 O261 1.295 . S
C257 O262 1.235 . S
O258 Fe243 1.976 . S
O258 C252 1.287 . S
O259 Fe245 1.996 . S
O259 C252 1.255 . S
C260 O253 1.287 . S
C260 O254 1.255 . S
O261 Fe243 2.002 . S
O261 C257 1.295 . S
O262 Fe245 1.997 . S
O262 C257 1.235 . S
C263 O246 1.295 . S
C263 O247 1.235 . S
Fe264 O266 1.918 . S
Fe264 O269 1.997 . S
Fe264 O270 2.002 . S
Fe264 O275 1.976 . S
Fe264 O278 1.996 . S
Fe265 O266 1.918 . S
Fe265 O273 1.997 . S
Fe265 O276 1.996 . S
Fe265 O280 1.976 . S
Fe265 O283 2.002 . S
O266 Fe264 1.918 . S
O266 Fe265 1.918 . S
O266 Fe267 1.918 . S
Fe267 O266 1.918 . S
Fe267 O268 2.002 . S
Fe267 O277 1.976 . S
Fe267 O281 1.996 . S
Fe267 O284 1.997 . S
O268 Fe267 2.002 . S
O268 C285 1.295 . S
O269 Fe264 1.997 . S
O269 C285 1.235 . S
O270 Fe264 2.002 . S
O270 C271 1.295 . S
C271 O270 1.295 . S
C271 O273 1.235 . S
C272 O277 1.287 . S
C272 O278 1.255 . S
O273 Fe265 1.997 . S
O273 C271 1.235 . S
C274 O280 1.287 . S
C274 O281 1.255 . S
O275 Fe264 1.976 . S
O275 C282 1.287 . S
O276 Fe265 1.996 . S
O276 C282 1.255 . S
O277 Fe267 1.976 . S
O277 C272 1.287 . S
O278 Fe264 1.996 . S
O278 C272 1.255 . S
C279 O283 1.295 . S
C279 O284 1.235 . S
O280 Fe265 1.976 . S
O280 C274 1.287 . S
O281 Fe267 1.996 . S
O281 C274 1.255 . S
C282 O275 1.287 . S
C282 O276 1.255 . S
O283 Fe265 2.002 . S
O283 C279 1.295 . S
O284 Fe267 1.997 . S
O284 C279 1.235 . S
C285 O268 1.295 . S
C285 O269 1.235 . S
Fe286 O288 1.918 . S
Fe286 O291 1.997 . S
Fe286 O292 2.002 . S
Fe286 O297 1.976 . S
Fe286 O300 1.996 . S
Fe287 O288 1.918 . S
Fe287 O295 1.997 . S
Fe287 O298 1.996 . S
Fe287 O302 1.976 . S
Fe287 O305 2.002 . S
O288 Fe286 1.918 . S
O288 Fe287 1.918 . S
O288 Fe289 1.918 . S
Fe289 O288 1.918 . S
Fe289 O290 2.002 . S
Fe289 O299 1.976 . S
Fe289 O303 1.996 . S
Fe289 O306 1.997 . S
O290 Fe289 2.002 . S
O290 C307 1.295 . S
O291 Fe286 1.997 . S
O291 C307 1.235 . S
O292 Fe286 2.002 . S
O292 C293 1.295 . S
C293 O292 1.295 . S
C293 O295 1.235 . S
C294 O299 1.287 . S
C294 O300 1.255 . S
O295 Fe287 1.997 . S
O295 C293 1.235 . S
C296 O302 1.287 . S
C296 O303 1.255 . S
O297 Fe286 1.976 . S
O297 C304 1.287 . S
O298 Fe287 1.996 . S
O298 C304 1.255 . S
O299 Fe289 1.976 . S
O299 C294 1.287 . S
O300 Fe286 1.996 . S
O300 C294 1.255 . S
C301 O305 1.295 . S
C301 O306 1.235 . S
O302 Fe287 1.976 . S
O302 C296 1.287 . S
O303 Fe289 1.996 . S
O303 C296 1.255 . S
C304 O297 1.287 . S
C304 O298 1.255 . S
O305 Fe287 2.002 . S
O305 C301 1.295 . S
O306 Fe289 1.997 . S
O306 C301 1.235 . S
C307 O290 1.295 . S
C307 O291 1.235 . S
Fe308 O310 1.918 . S
Fe308 O313 1.997 . S
Fe308 O314 2.002 . S
Fe308 O319 1.976 . S
Fe308 O322 1.996 . S
Fe309 O310 1.918 . S
Fe309 O317 1.997 . S
Fe309 O320 1.996 . S
Fe309 O324 1.976 . S
Fe309 O327 2.002 . S
O310 Fe308 1.918 . S
O310 Fe309 1.918 . S
O310 Fe311 1.918 . S
Fe311 O310 1.918 . S
Fe311 O312 2.002 . S
Fe311 O321 1.976 . S
Fe311 O325 1.996 . S
Fe311 O328 1.997 . S
O312 Fe311 2.002 . S
O312 C329 1.295 . S
O313 Fe308 1.997 . S
O313 C329 1.235 . S
O314 Fe308 2.002 . S
O314 C315 1.295 . S
C315 O314 1.295 . S
C315 O317 1.235 . S
C316 O321 1.287 . S
C316 O322 1.255 . S
O317 Fe309 1.997 . S
O317 C315 1.235 . S
C318 O324 1.287 . S
C318 O325 1.255 . S
O319 Fe308 1.976 . S
O319 C326 1.287 . S
O320 Fe309 1.996 . S
O320 C326 1.255 . S
O321 Fe311 1.976 . S
O321 C316 1.287 . S
O322 Fe308 1.996 . S
O322 C316 1.255 . S
C323 O327 1.295 . S
C323 O328 1.235 . S
O324 Fe309 1.976 . S
O324 C318 1.287 . S
O325 Fe311 1.996 . S
O325 C318 1.255 . S
C326 O319 1.287 . S
C326 O320 1.255 . S
O327 Fe309 2.002 . S
O327 C323 1.295 . S
O328 Fe311 1.997 . S
O328 C323 1.235 . S
C329 O312 1.295 . S
C329 O313 1.235 . S
Fe330 O332 1.918 . S
Fe330 O335 1.997 . S
Fe330 O336 2.002 . S
Fe330 O341 1.976 . S
Fe330 O344 1.996 . S
Fe331 O332 1.918 . S
Fe331 O339 1.997 . S
Fe331 O342 1.996 . S
Fe331 O346 1.976 . S
Fe331 O349 2.002 . S
O332 Fe330 1.918 . S
O332 Fe331 1.918 . S
O332 Fe333 1.918 . S
Fe333 O332 1.918 . S
Fe333 O334 2.002 . S
Fe333 O343 1.976 . S
Fe333 O347 1.996 . S
Fe333 O350 1.997 . S
O334 Fe333 2.002 . S
O334 C351 1.295 . S
O335 Fe330 1.997 . S
O335 C351 1.235 . S
O336 Fe330 2.002 . S
O336 C337 1.295 . S
C337 O336 1.295 . S
C337 O339 1.235 . S
C338 O343 1.287 . S
C338 O344 1.255 . S
O339 Fe331 1.997 . S
O339 C337 1.235 . S
C340 O346 1.287 . S
C340 O347 1.255 . S
O341 Fe330 1.976 . S
O341 C348 1.287 . S
O342 Fe331 1.996 . S
O342 C348 1.255 . S
O343 Fe333 1.976 . S
O343 C338 1.287 . S
O344 Fe330 1.996 . S
O344 C338 1.255 . S
C345 O349 1.295 . S
C345 O350 1.235 . S
O346 Fe331 1.976 . S
O346 C340 1.287 . S
O347 Fe333 1.996 . S
O347 C340 1.255 . S
C348 O341 1.287 . S
C348 O342 1.255 . S
O349 Fe331 2.002 . S
O349 C345 1.295 . S
O350 Fe333 1.997 . S
O350 C345 1.235 . S
C351 O334 1.295 . S
C351 O335 1.235 . S
H352 C364 0.930 . S
H353 C366 0.930 . S
H354 C367 0.930 . S
H355 C371 0.959 . S
H356 C371 0.959 . S
H357 C371 0.961 . S
H358 C372 0.960 . S
H359 C372 0.961 . S
H360 C372 0.959 . S
H361 C375 0.929 . S
H362 C376 0.931 . S
H363 C378 0.930 . S
C364 H352 0.930 . S
C364 C365 1.399 . S
C364 C369 1.399 . S
C365 C364 1.399 . S
C365 C366 1.376 . S
C366 H353 0.930 . S
C366 C365 1.376 . S
C366 C367 1.388 . S
C367 H354 0.930 . S
C367 C366 1.388 . S
C367 C368 1.390 . S
C368 C367 1.390 . S
C368 C369 1.394 . S
C368 C374 1.465 . S
C369 C364 1.399 . S
C369 C368 1.394 . S
C369 C370 1.516 . S
C370 C369 1.516 . S
C370 C371 1.502 . S
C370 C372 1.561 . S
C370 C373 1.526 . S
C371 H355 0.959 . S
C371 H356 0.959 . S
C371 H357 0.961 . S
C371 C370 1.502 . S
C372 H358 0.960 . S
C372 H359 0.961 . S
C372 H360 0.959 . S
C372 C370 1.561 . S
C373 C370 1.526 . S
C373 C374 1.396 . S
C373 C378 1.390 1_545 S
C374 C368 1.465 . S
C374 C373 1.396 . S
C374 C375 1.399 . S
C375 H361 0.929 . S
C375 C374 1.399 . S
C375 C376 1.385 1_545 S
C376 H362 0.931 . S
C376 C375 1.385 1_565 S
C376 C377 1.389 . S
C377 C376 1.389 . S
C377 C378 1.387 . S
C378 H363 0.930 . S
C378 C373 1.390 1_565 S
C378 C377 1.387 . S
H379 C391 0.930 . S
H380 C393 0.930 . S
H381 C394 0.930 . S
H382 C398 0.959 . S
H383 C398 0.959 . S
H384 C398 0.961 . S
H385 C399 0.960 . S
H386 C399 0.961 . S
H387 C399 0.959 . S
H388 C402 0.929 . S
H389 C403 0.931 . S
H390 C405 0.930 . S
C391 H379 0.930 . S
C391 C392 1.399 . S
C391 C396 1.399 . S
C392 C391 1.399 . S
C392 C393 1.376 . S
C393 H380 0.930 . S
C393 C392 1.376 . S
C393 C394 1.388 . S
C394 H381 0.930 . S
C394 C393 1.388 . S
C394 C395 1.390 . S
C395 C394 1.390 . S
C395 C396 1.394 . S
C395 C401 1.465 . S
C396 C391 1.399 . S
C396 C395 1.394 . S
C396 C397 1.516 . S
C397 C396 1.516 . S
C397 C398 1.502 . S
C397 C399 1.561 . S
C397 C400 1.526 . S
C398 H382 0.959 . S
C398 H383 0.959 . S
C398 H384 0.961 . S
C398 C397 1.502 . S
C399 H385 0.960 . S
C399 H386 0.961 . S
C399 H387 0.959 . S
C399 C397 1.561 . S
C400 C397 1.526 . S
C400 C401 1.396 . S
C400 C405 1.390 1_565 S
C401 C395 1.465 . S
C401 C400 1.396 . S
C401 C402 1.399 . S
C402 H388 0.929 . S
C402 C401 1.399 . S
C402 C403 1.385 1_565 S
C403 H389 0.931 . S
C403 C402 1.385 1_545 S
C403 C404 1.389 . S
C404 C403 1.389 . S
C404 C405 1.387 . S
C405 H390 0.930 . S
C405 C400 1.390 1_545 S
C405 C404 1.387 . S
H406 C418 0.930 . S
H407 C420 0.930 . S
H408 C421 0.930 . S
H409 C425 0.959 . S
H410 C425 0.959 . S
H411 C425 0.961 . S
H412 C426 0.960 . S
H413 C426 0.961 . S
H414 C426 0.959 . S
H415 C429 0.929 . S
H416 C430 0.931 . S
H417 C432 0.930 . S
C418 H406 0.930 . S
C418 C419 1.399 . S
C418 C423 1.399 . S
C419 C418 1.399 . S
C419 C420 1.376 . S
C420 H407 0.930 . S
C420 C419 1.376 . S
C420 C421 1.388 . S
C421 H408 0.930 . S
C421 C420 1.388 . S
C421 C422 1.390 . S
C422 C421 1.390 . S
C422 C423 1.394 . S
C422 C428 1.465 . S
C423 C418 1.399 . S
C423 C422 1.394 . S
C423 C424 1.516 . S
C424 C423 1.516 . S
C424 C425 1.502 . S
C424 C426 1.561 . S
C424 C427 1.526 . S
C425 H409 0.959 . S
C425 H410 0.959 . S
C425 H411 0.961 . S
C425 C424 1.502 . S
C426 H412 0.960 . S
C426 H413 0.961 . S
C426 H414 0.959 . S
C426 C424 1.561 . S
C427 C424 1.526 . S
C427 C428 1.396 . S
C427 C432 1.390 1_565 S
C428 C422 1.465 . S
C428 C427 1.396 . S
C428 C429 1.399 . S
C429 H415 0.929 . S
C429 C428 1.399 . S
C429 C430 1.385 1_565 S
C430 H416 0.931 . S
C430 C429 1.385 1_545 S
C430 C431 1.389 . S
C431 C430 1.389 . S
C431 C432 1.387 . S
C432 H417 0.930 . S
C432 C427 1.390 1_545 S
C432 C431 1.387 . S
H433 C445 0.930 . S
H434 C447 0.930 . S
H435 C448 0.930 . S
H436 C452 0.959 . S
H437 C452 0.959 . S
H438 C452 0.961 . S
H439 C453 0.960 . S
H440 C453 0.961 . S
H441 C453 0.959 . S
H442 C456 0.929 . S
H443 C457 0.931 . S
H444 C459 0.930 . S
C445 H433 0.930 . S
C445 C446 1.399 . S
C445 C450 1.399 1_565 S
C446 C445 1.399 . S
C446 C447 1.376 . S
C447 H434 0.930 . S
C447 C446 1.376 . S
C447 C448 1.388 1_565 S
C448 H435 0.930 . S
C448 C447 1.388 1_545 S
C448 C449 1.390 . S
C449 C448 1.390 . S
C449 C450 1.394 . S
C449 C455 1.465 . S
C450 C445 1.399 1_545 S
C450 C449 1.394 . S
C450 C451 1.516 . S
C451 C450 1.516 . S
C451 C452 1.502 . S
C451 C453 1.561 . S
C451 C454 1.526 . S
C452 H436 0.959 . S
C452 H437 0.959 . S
C452 H438 0.961 . S
C452 C451 1.502 . S
C453 H439 0.960 . S
C453 H440 0.961 . S
C453 H441 0.959 . S
C453 C451 1.561 . S
C454 C451 1.526 . S
C454 C455 1.396 . S
C454 C459 1.390 . S
C455 C449 1.465 . S
C455 C454 1.396 . S
C455 C456 1.399 . S
C456 H442 0.929 . S
C456 C455 1.399 . S
C456 C457 1.385 . S
C457 H443 0.931 . S
C457 C456 1.385 . S
C457 C458 1.389 . S
C458 C457 1.389 . S
C458 C459 1.387 . S
C459 H444 0.930 . S
C459 C454 1.390 . S
C459 C458 1.387 . S
H460 C472 0.930 . S
H461 C474 0.930 . S
H462 C475 0.930 . S
H463 C479 0.959 . S
H464 C479 0.959 . S
H465 C479 0.961 . S
H466 C480 0.960 . S
H467 C480 0.961 . S
H468 C480 0.959 . S
H469 C483 0.929 . S
H470 C484 0.931 . S
H471 C486 0.930 . S
C472 H460 0.930 . S
C472 C473 1.399 . S
C472 C477 1.399 1_545 S
C473 C472 1.399 . S
C473 C474 1.376 . S
C474 H461 0.930 . S
C474 C473 1.376 . S
C474 C475 1.388 1_545 S
C475 H462 0.930 . S
C475 C474 1.388 1_565 S
C475 C476 1.390 . S
C476 C475 1.390 . S
C476 C477 1.394 . S
C476 C482 1.465 . S
C477 C472 1.399 1_565 S
C477 C476 1.394 . S
C477 C478 1.516 . S
C478 C477 1.516 . S
C478 C479 1.502 . S
C478 C480 1.561 . S
C478 C481 1.526 . S
C479 H463 0.959 . S
C479 H464 0.959 . S
C479 H465 0.961 . S
C479 C478 1.502 . S
C480 H466 0.960 . S
C480 H467 0.961 . S
C480 H468 0.959 . S
C480 C478 1.561 . S
C481 C478 1.526 . S
C481 C482 1.396 . S
C481 C486 1.390 . S
C482 C476 1.465 . S
C482 C481 1.396 . S
C482 C483 1.399 . S
C483 H469 0.929 . S
C483 C482 1.399 . S
C483 C484 1.385 . S
C484 H470 0.931 . S
C484 C483 1.385 . S
C484 C485 1.389 . S
C485 C484 1.389 . S
C485 C486 1.387 . S
C486 H471 0.930 . S
C486 C481 1.390 . S
C486 C485 1.387 . S
H487 C499 0.930 . S
H488 C501 0.930 . S
H489 C502 0.930 . S
H490 C506 0.959 . S
H491 C506 0.959 . S
H492 C506 0.961 . S
H493 C507 0.960 . S
H494 C507 0.961 . S
H495 C507 0.959 . S
H496 C510 0.929 . S
H497 C511 0.931 . S
H498 C513 0.930 . S
C499 H487 0.930 . S
C499 C500 1.415 . S
C499 C504 1.383 1_565 S
C500 C499 1.415 . S
C500 C501 1.376 . S
C501 H488 0.930 . S
C501 C500 1.376 . S
C501 C502 1.388 . S
C502 H489 0.930 . S
C502 C501 1.388 . S
C502 C503 1.390 1_565 S
C503 C502 1.390 1_545 S
C503 C504 1.394 . S
C503 C509 1.465 . S
C504 C499 1.383 1_545 S
C504 C503 1.394 . S
C504 C505 1.516 . S
C505 C504 1.516 . S
C505 C506 1.502 . S
C505 C507 1.561 . S
C505 C508 1.526 . S
C506 H490 0.959 . S
C506 H491 0.959 . S
C506 H492 0.961 . S
C506 C505 1.502 . S
C507 H493 0.960 . S
C507 H494 0.961 . S
C507 H495 0.959 . S
C507 C505 1.561 . S
C508 C505 1.526 . S
C508 C509 1.396 . S
C508 C513 1.390 . S
C509 C503 1.465 . S
C509 C508 1.396 . S
C509 C510 1.399 . S
C510 H496 0.929 . S
C510 C509 1.399 . S
C510 C511 1.385 . S
C511 H497 0.931 . S
C511 C510 1.385 . S
C511 C512 1.389 . S
C512 C511 1.389 . S
C512 C513 1.387 . S
C513 H498 0.930 . S
C513 C508 1.390 . S
C513 C512 1.387 . S
H514 C526 0.930 . S
H515 C528 0.930 . S
H516 C529 0.930 . S
H517 C533 0.959 . S
H518 C533 0.959 . S
H519 C533 0.961 . S
H520 C534 0.960 . S
H521 C534 0.961 . S
H522 C534 0.959 . S
H523 C537 0.929 . S
H524 C538 0.931 . S
H525 C540 0.930 . S
C526 H514 0.930 . S
C526 C527 1.399 . S
C526 C531 1.399 1_565 S
C527 C526 1.399 . S
C527 C528 1.376 . S
C528 H515 0.930 . S
C528 C527 1.376 . S
C528 C529 1.388 1_565 S
C529 H516 0.930 . S
C529 C528 1.388 1_545 S
C529 C530 1.390 . S
C530 C529 1.390 . S
C530 C531 1.394 . S
C530 C536 1.465 . S
C531 C526 1.399 1_545 S
C531 C530 1.394 . S
C531 C532 1.516 . S
C532 C531 1.516 . S
C532 C533 1.502 . S
C532 C534 1.561 . S
C532 C535 1.526 . S
C533 H517 0.959 . S
C533 H518 0.959 . S
C533 H519 0.961 . S
C533 C532 1.502 . S
C534 H520 0.960 . S
C534 H521 0.961 . S
C534 H522 0.959 . S
C534 C532 1.561 . S
C535 C532 1.526 . S
C535 C536 1.396 . S
C535 C540 1.390 . S
C536 C530 1.465 . S
C536 C535 1.396 . S
C536 C537 1.399 . S
C537 H523 0.929 . S
C537 C536 1.399 . S
C537 C538 1.385 . S
C538 H524 0.931 . S
C538 C537 1.385 . S
C538 C539 1.389 . S
C539 C538 1.389 . S
C539 C540 1.387 . S
C540 H525 0.930 . S
C540 C535 1.390 . S
C540 C539 1.387 . S
H541 C553 0.930 . S
H542 C555 0.930 1_545 S
H543 C556 0.930 . S
H544 C560 0.959 . S
H545 C560 0.959 . S
H546 C560 0.961 1_545 S
H547 C561 0.960 1_545 S
H548 C561 0.961 . S
H549 C561 0.959 . S
H550 C564 0.929 . S
H551 C565 0.931 . S
H552 C567 0.930 . S
C553 H541 0.930 . S
C553 C554 1.399 . S
C553 C558 1.399 1_545 S
C554 C553 1.399 . S
C554 C555 1.376 1_545 S
C555 H542 0.930 1_565 S
C555 C554 1.376 1_565 S
C555 C556 1.388 . S
C556 H543 0.930 . S
C556 C555 1.388 . S
C556 C557 1.390 . S
C557 C556 1.390 . S
C557 C558 1.394 . S
C557 C563 1.465 . S
C558 C553 1.399 1_565 S
C558 C557 1.394 . S
C558 C559 1.516 . S
C559 C558 1.516 . S
C559 C560 1.502 . S
C559 C561 1.561 . S
C559 C562 1.526 . S
C560 H544 0.959 . S
C560 H545 0.959 . S
C560 H546 0.961 1_565 S
C560 C559 1.502 . S
C561 H547 0.960 1_565 S
C561 H548 0.961 . S
C561 H549 0.959 . S
C561 C559 1.561 . S
C562 C559 1.526 . S
C562 C563 1.396 . S
C562 C567 1.390 . S
C563 C557 1.465 . S
C563 C562 1.396 . S
C563 C564 1.399 . S
C564 H550 0.929 . S
C564 C563 1.399 . S
C564 C565 1.385 . S
C565 H551 0.931 . S
C565 C564 1.385 . S
C565 C566 1.389 . S
C566 C565 1.389 . S
C566 C567 1.387 . S
C567 H552 0.930 . S
C567 C562 1.390 . S
C567 C566 1.387 . S
H568 C580 0.930 . S
H569 C582 0.930 . S
H570 C583 0.930 . S
H571 C587 0.959 . S
H572 C587 0.959 . S
H573 C587 0.961 . S
H574 C588 0.960 . S
H575 C588 0.961 . S
H576 C588 0.959 . S
H577 C591 0.929 . S
H578 C592 0.931 . S
H579 C594 0.930 . S
C580 H568 0.930 . S
C580 C581 1.399 . S
C580 C585 1.399 . S
C581 C580 1.399 . S
C581 C582 1.376 . S
C582 H569 0.930 . S
C582 C581 1.376 . S
C582 C583 1.388 . S
C583 H570 0.930 . S
C583 C582 1.388 . S
C583 C584 1.390 . S
C584 C583 1.390 . S
C584 C585 1.394 . S
C584 C590 1.465 . S
C585 C580 1.399 . S
C585 C584 1.394 . S
C585 C586 1.516 . S
C586 C585 1.516 . S
C586 C587 1.502 . S
C586 C588 1.561 . S
C586 C589 1.526 . S
C587 H571 0.959 . S
C587 H572 0.959 . S
C587 H573 0.961 . S
C587 C586 1.502 . S
C588 H574 0.960 . S
C588 H575 0.961 . S
C588 H576 0.959 . S
C588 C586 1.561 . S
C589 C586 1.526 . S
C589 C590 1.396 . S
C589 C594 1.390 . S
C590 C584 1.465 . S
C590 C589 1.396 . S
C590 C591 1.399 . S
C591 H577 0.929 . S
C591 C590 1.399 . S
C591 C592 1.385 . S
C592 H578 0.931 . S
C592 C591 1.385 . S
C592 C593 1.389 . S
C593 C592 1.389 . S
C593 C594 1.387 . S
C594 H579 0.930 . S
C594 C589 1.390 . S
C594 C593 1.387 . S
H595 C607 0.930 . S
H596 C609 0.930 . S
H597 C610 0.930 . S
H598 C614 0.959 . S
H599 C614 0.959 . S
H600 C614 0.961 . S
H601 C615 0.960 . S
H602 C615 0.961 . S
H603 C615 0.959 . S
H604 C618 0.929 . S
H605 C619 0.931 . S
H606 C621 0.930 . S
C607 H595 0.930 . S
C607 C608 1.399 . S
C607 C612 1.399 . S
C608 C607 1.399 . S
C608 C609 1.376 . S
C609 H596 0.930 . S
C609 C608 1.376 . S
C609 C610 1.388 . S
C610 H597 0.930 . S
C610 C609 1.388 . S
C610 C611 1.390 . S
C611 C610 1.390 . S
C611 C612 1.394 . S
C611 C617 1.465 . S
C612 C607 1.399 . S
C612 C611 1.394 . S
C612 C613 1.516 . S
C613 C612 1.516 . S
C613 C614 1.502 . S
C613 C615 1.561 . S
C613 C616 1.526 . S
C614 H598 0.959 . S
C614 H599 0.959 . S
C614 H600 0.961 . S
C614 C613 1.502 . S
C615 H601 0.960 . S
C615 H602 0.961 . S
C615 H603 0.959 . S
C615 C613 1.561 . S
C616 C613 1.526 . S
C616 C617 1.396 . S
C616 C621 1.390 . S
C617 C611 1.465 . S
C617 C616 1.396 . S
C617 C618 1.399 . S
C618 H604 0.929 . S
C618 C617 1.399 . S
C618 C619 1.385 . S
C619 H605 0.931 . S
C619 C618 1.385 . S
C619 C620 1.389 . S
C620 C619 1.389 . S
C620 C621 1.387 . S
C621 H606 0.930 . S
C621 C616 1.390 . S
C621 C620 1.387 . S
H622 C634 0.930 . S
H623 C636 0.930 . S
H624 C637 0.930 . S
H625 C641 0.959 . S
H626 C641 0.959 . S
H627 C641 0.961 . S
H628 C642 0.960 . S
H629 C642 0.961 . S
H630 C642 0.959 . S
H631 C645 0.929 . S
H632 C646 0.931 . S
H633 C648 0.930 . S
C634 H622 0.930 . S
C634 C635 1.399 . S
C634 C639 1.399 . S
C635 C634 1.399 . S
C635 C636 1.376 . S
C636 H623 0.930 . S
C636 C635 1.376 . S
C636 C637 1.388 . S
C637 H624 0.930 . S
C637 C636 1.388 . S
C637 C638 1.390 . S
C638 C637 1.390 . S
C638 C639 1.394 . S
C638 C644 1.465 . S
C639 C634 1.399 . S
C639 C638 1.394 . S
C639 C640 1.516 . S
C640 C639 1.516 . S
C640 C641 1.502 . S
C640 C642 1.561 . S
C640 C643 1.526 . S
C641 H625 0.959 . S
C641 H626 0.959 . S
C641 H627 0.961 . S
C641 C640 1.502 . S
C642 H628 0.960 . S
C642 H629 0.961 . S
C642 H630 0.959 . S
C642 C640 1.561 . S
C643 C640 1.526 . S
C643 C644 1.396 . S
C643 C648 1.390 . S
C644 C638 1.465 . S
C644 C643 1.396 . S
C644 C645 1.399 . S
C645 H631 0.929 . S
C645 C644 1.399 . S
C645 C646 1.385 . S
C646 H632 0.931 . S
C646 C645 1.385 . S
C646 C647 1.389 . S
C647 C646 1.389 . S
C647 C648 1.387 . S
C648 H633 0.930 . S
C648 C643 1.390 . S
C648 C647 1.387 . S
H649 C661 0.930 . S
H650 C663 0.930 . S
H651 C664 0.930 . S
H652 C668 0.959 . S
H653 C668 0.959 . S
H654 C668 0.961 . S
H655 C669 0.960 . S
H656 C669 0.961 . S
H657 C669 0.959 . S
H658 C672 0.929 . S
H659 C673 0.931 . S
H660 C675 0.930 . S
C661 H649 0.930 . S
C661 C662 1.399 . S
C661 C666 1.399 . S
C662 C661 1.399 . S
C662 C663 1.376 . S
C663 H650 0.930 . S
C663 C662 1.376 . S
C663 C664 1.388 . S
C664 H651 0.930 . S
C664 C663 1.388 . S
C664 C665 1.390 . S
C665 C664 1.390 . S
C665 C666 1.394 . S
C665 C671 1.465 . S
C666 C661 1.399 . S
C666 C665 1.394 . S
C666 C667 1.516 . S
C667 C666 1.516 . S
C667 C668 1.502 . S
C667 C669 1.561 . S
C667 C670 1.526 . S
C668 H652 0.959 . S
C668 H653 0.959 . S
C668 H654 0.961 . S
C668 C667 1.502 . S
C669 H655 0.960 . S
C669 H656 0.961 . S
C669 H657 0.959 . S
C669 C667 1.561 . S
C670 C667 1.526 . S
C670 C671 1.396 . S
C670 C675 1.390 . S
C671 C665 1.465 . S
C671 C670 1.396 . S
C671 C672 1.399 . S
C672 H658 0.929 . S
C672 C671 1.399 . S
C672 C673 1.385 . S
C673 H659 0.931 . S
C673 C672 1.385 . S
C673 C674 1.389 . S
C674 C673 1.389 . S
C674 C675 1.387 . S
C675 H660 0.930 . S
C675 C670 1.390 . S
C675 C674 1.387 . S
H676 C688 0.930 . S
H677 C690 0.930 . S
H678 C691 0.930 . S
H679 C695 0.959 . S
H680 C695 0.959 . S
H681 C695 0.961 . S
H682 C696 0.960 . S
H683 C696 0.961 . S
H684 C696 0.959 . S
H685 C699 0.929 . S
H686 C700 0.931 . S
H687 C702 0.930 . S
C688 H676 0.930 . S
C688 C689 1.399 . S
C688 C693 1.399 . S
C689 C688 1.399 . S
C689 C690 1.376 . S
C690 H677 0.930 . S
C690 C689 1.376 . S
C690 C691 1.388 . S
C691 H678 0.930 . S
C691 C690 1.388 . S
C691 C692 1.390 . S
C692 C691 1.390 . S
C692 C693 1.394 . S
C692 C698 1.465 . S
C693 C688 1.399 . S
C693 C692 1.394 . S
C693 C694 1.516 . S
C694 C693 1.516 . S
C694 C695 1.502 . S
C694 C696 1.561 . S
C694 C697 1.526 . S
C695 H679 0.959 . S
C695 H680 0.959 . S
C695 H681 0.961 . S
C695 C694 1.502 . S
C696 H682 0.960 . S
C696 H683 0.961 . S
C696 H684 0.959 . S
C696 C694 1.561 . S
C697 C694 1.526 . S
C697 C698 1.396 . S
C697 C702 1.390 . S
C698 C692 1.465 . S
C698 C697 1.396 . S
C698 C699 1.399 . S
C699 H685 0.929 . S
C699 C698 1.399 . S
C699 C700 1.385 . S
C700 H686 0.931 . S
C700 C699 1.385 . S
C700 C701 1.389 . S
C701 C700 1.389 . S
C701 C702 1.387 . S
C702 H687 0.930 . S
C702 C697 1.390 . S
C702 C701 1.387 . S
H703 C715 0.930 . S
H704 C717 0.930 . S
H705 C718 0.930 . S
H706 C722 0.959 . S
H707 C722 0.959 . S
H708 C722 0.961 . S
H709 C723 0.960 . S
H710 C723 0.961 . S
H711 C723 0.959 . S
H712 C726 0.929 . S
H713 C727 0.931 . S
H714 C729 0.930 . S
C715 H703 0.930 . S
C715 C716 1.399 . S
C715 C720 1.399 . S
C716 C715 1.399 . S
C716 C717 1.376 . S
C717 H704 0.930 . S
C717 C716 1.376 . S
C717 C718 1.388 . S
C718 H705 0.930 . S
C718 C717 1.388 . S
C718 C719 1.390 . S
C719 C718 1.390 . S
C719 C720 1.394 . S
C719 C725 1.465 . S
C720 C715 1.399 . S
C720 C719 1.394 . S
C720 C721 1.516 . S
C721 C720 1.516 . S
C721 C722 1.502 . S
C721 C723 1.561 . S
C721 C724 1.526 . S
C722 H706 0.959 . S
C722 H707 0.959 . S
C722 H708 0.961 . S
C722 C721 1.502 . S
C723 H709 0.960 . S
C723 H710 0.961 . S
C723 H711 0.959 . S
C723 C721 1.561 . S
C724 C721 1.526 . S
C724 C725 1.396 . S
C724 C729 1.390 . S
C725 C719 1.465 . S
C725 C724 1.396 . S
C725 C726 1.399 . S
C726 H712 0.929 . S
C726 C725 1.399 . S
C726 C727 1.385 . S
C727 H713 0.931 . S
C727 C726 1.385 . S
C727 C728 1.389 . S
C728 C727 1.389 . S
C728 C729 1.387 . S
C729 H714 0.930 . S
C729 C724 1.390 . S
C729 C728 1.387 . S
H730 C742 0.930 . S
H731 C744 0.930 . S
H732 C745 0.930 . S
H733 C749 0.959 . S
H734 C749 0.959 . S
H735 C749 0.961 . S
H736 C750 0.960 . S
H737 C750 0.961 . S
H738 C750 0.959 . S
H739 C753 0.929 . S
H740 C754 0.931 . S
H741 C756 0.930 . S
C742 H730 0.930 . S
C742 C743 1.399 . S
C742 C747 1.399 . S
C743 C742 1.399 . S
C743 C744 1.376 . S
C744 H731 0.930 . S
C744 C743 1.376 . S
C744 C745 1.388 . S
C745 H732 0.930 . S
C745 C744 1.388 . S
C745 C746 1.390 . S
C746 C745 1.390 . S
C746 C747 1.394 . S
C746 C752 1.465 . S
C747 C742 1.399 . S
C747 C746 1.394 . S
C747 C748 1.516 . S
C748 C747 1.516 . S
C748 C749 1.502 . S
C748 C750 1.561 . S
C748 C751 1.526 . S
C749 H733 0.959 . S
C749 H734 0.959 . S
C749 H735 0.961 . S
C749 C748 1.502 . S
C750 H736 0.960 . S
C750 H737 0.961 . S
C750 H738 0.959 . S
C750 C748 1.561 . S
C751 C748 1.526 . S
C751 C752 1.396 . S
C751 C756 1.390 . S
C752 C746 1.465 . S
C752 C751 1.396 . S
C752 C753 1.399 . S
C753 H739 0.929 . S
C753 C752 1.399 . S
C753 C754 1.385 . S
C754 H740 0.931 . S
C754 C753 1.385 . S
C754 C755 1.389 . S
C755 C754 1.389 . S
C755 C756 1.387 . S
C756 H741 0.930 . S
C756 C751 1.390 . S
C756 C755 1.387 . S
H757 C769 0.930 . S
H758 C771 0.930 . S
H759 C772 0.930 . S
H760 C776 0.959 . S
H761 C776 0.959 . S
H762 C776 0.961 . S
H763 C777 0.960 . S
H764 C777 0.961 . S
H765 C777 0.959 . S
H766 C780 0.929 . S
H767 C781 0.931 . S
H768 C783 0.930 . S
C769 H757 0.930 . S
C769 C770 1.399 . S
C769 C774 1.399 . S
C770 C769 1.399 . S
C770 C771 1.376 . S
C771 H758 0.930 . S
C771 C770 1.376 . S
C771 C772 1.388 . S
C772 H759 0.930 . S
C772 C771 1.388 . S
C772 C773 1.390 . S
C773 C772 1.390 . S
C773 C774 1.394 . S
C773 C779 1.465 . S
C774 C769 1.399 . S
C774 C773 1.394 . S
C774 C775 1.516 . S
C775 C774 1.516 . S
C775 C776 1.502 . S
C775 C777 1.561 . S
C775 C778 1.526 . S
C776 H760 0.959 . S
C776 H761 0.959 . S
C776 H762 0.961 . S
C776 C775 1.502 . S
C777 H763 0.960 . S
C777 H764 0.961 . S
C777 H765 0.959 . S
C777 C775 1.561 . S
C778 C775 1.526 . S
C778 C779 1.396 . S
C778 C783 1.390 . S
C779 C773 1.465 . S
C779 C778 1.396 . S
C779 C780 1.399 . S
C780 H766 0.929 . S
C780 C779 1.399 . S
C780 C781 1.385 . S
C781 H767 0.931 . S
C781 C780 1.385 . S
C781 C782 1.389 . S
C782 C781 1.389 . S
C782 C783 1.387 . S
C783 H768 0.930 . S
C783 C778 1.390 . S
C783 C782 1.387 . S
H784 C796 0.930 . S
H785 C798 0.930 . S
H786 C799 0.930 1_556 S
H787 C803 0.959 . S
H788 C803 0.959 . S
H789 C803 0.961 . S
H790 C804 0.960 . S
H791 C804 0.961 . S
H792 C804 0.959 . S
H793 C807 0.929 . S
H794 C808 0.931 . S
H795 C810 0.930 . S
C796 H784 0.930 . S
C796 C797 1.399 . S
C796 C801 1.399 . S
C797 C796 1.399 . S
C797 C798 1.376 . S
C798 H785 0.930 . S
C798 C797 1.376 . S
C798 C799 1.388 . S
C799 H786 0.930 1_554 S
C799 C798 1.388 . S
C799 C800 1.390 . S
C800 C799 1.390 . S
C800 C801 1.394 . S
C800 C806 1.465 1_554 S
C801 C796 1.399 . S
C801 C800 1.394 . S
C801 C802 1.516 . S
C802 C801 1.516 . S
C802 C803 1.502 . S
C802 C804 1.561 . S
C802 C805 1.526 1_554 S
C803 H787 0.959 . S
C803 H788 0.959 . S
C803 H789 0.961 . S
C803 C802 1.502 . S
C804 H790 0.960 . S
C804 H791 0.961 . S
C804 H792 0.959 . S
C804 C802 1.561 . S
C805 C802 1.526 1_556 S
C805 C806 1.396 . S
C805 C810 1.390 . S
C806 C800 1.465 1_556 S
C806 C805 1.396 . S
C806 C807 1.399 . S
C807 H793 0.929 . S
C807 C806 1.399 . S
C807 C808 1.385 . S
C808 H794 0.931 . S
C808 C807 1.385 . S
C808 C809 1.389 . S
C809 C808 1.389 . S
C809 C810 1.387 . S
C810 H795 0.930 . S
C810 C805 1.390 . S
C810 C809 1.387 . S
H811 C823 0.930 . S
H812 C825 0.930 . S
H813 C826 0.930 . S
H814 C830 0.959 . S
H815 C830 0.959 . S
H816 C830 0.961 . S
H817 C831 0.960 . S
H818 C831 0.961 . S
H819 C831 0.959 . S
H820 C834 0.929 . S
H821 C835 0.931 . S
H822 C837 0.930 . S
C823 H811 0.930 . S
C823 C824 1.399 . S
C823 C828 1.399 . S
C824 C823 1.399 . S
C824 C825 1.376 . S
C825 H812 0.930 . S
C825 C824 1.376 . S
C825 C826 1.388 . S
C826 H813 0.930 . S
C826 C825 1.388 . S
C826 C827 1.390 . S
C827 C826 1.390 . S
C827 C828 1.394 . S
C827 C833 1.465 . S
C828 C823 1.399 . S
C828 C827 1.394 . S
C828 C829 1.516 . S
C829 C828 1.516 . S
C829 C830 1.502 . S
C829 C831 1.561 . S
C829 C832 1.526 . S
C830 H814 0.959 . S
C830 H815 0.959 . S
C830 H816 0.961 . S
C830 C829 1.502 . S
C831 H817 0.960 . S
C831 H818 0.961 . S
C831 H819 0.959 . S
C831 C829 1.561 . S
C832 C829 1.526 . S
C832 C833 1.396 . S
C832 C837 1.390 . S
C833 C827 1.465 . S
C833 C832 1.396 . S
C833 C834 1.399 . S
C834 H820 0.929 . S
C834 C833 1.399 . S
C834 C835 1.385 . S
C835 H821 0.931 . S
C835 C834 1.385 . S
C835 C836 1.389 . S
C836 C835 1.389 . S
C836 C837 1.387 . S
C837 H822 0.930 . S
C837 C832 1.390 . S
C837 C836 1.387 . S
H838 C850 0.930 . S
H839 C852 0.930 . S
H840 C853 0.930 1_556 S
H841 C857 0.959 . S
H842 C857 0.959 . S
H843 C857 0.961 . S
H844 C858 0.960 . S
H845 C858 0.961 . S
H846 C858 0.959 . S
H847 C861 0.929 . S
H848 C862 0.931 . S
H849 C864 0.930 . S
C850 H838 0.930 . S
C850 C851 1.399 . S
C850 C855 1.399 . S
C851 C850 1.399 . S
C851 C852 1.376 . S
C852 H839 0.930 . S
C852 C851 1.376 . S
C852 C853 1.388 . S
C853 H840 0.930 1_554 S
C853 C852 1.388 . S
C853 C854 1.390 . S
C854 C853 1.390 . S
C854 C855 1.394 . S
C854 C860 1.465 1_554 S
C855 C850 1.399 . S
C855 C854 1.394 . S
C855 C856 1.516 . S
C856 C855 1.516 . S
C856 C857 1.502 . S
C856 C858 1.561 . S
C856 C859 1.526 1_554 S
C857 H841 0.959 . S
C857 H842 0.959 . S
C857 H843 0.961 . S
C857 C856 1.502 . S
C858 H844 0.960 . S
C858 H845 0.961 . S
C858 H846 0.959 . S
C858 C856 1.561 . S
C859 C856 1.526 1_556 S
C859 C860 1.396 . S
C859 C864 1.390 . S
C860 C854 1.465 1_556 S
C860 C859 1.396 . S
C860 C861 1.399 . S
C861 H847 0.929 . S
C861 C860 1.399 . S
C861 C862 1.385 . S
C862 H848 0.931 . S
C862 C861 1.385 . S
C862 C863 1.389 . S
C863 C862 1.389 . S
C863 C864 1.387 . S
C864 H849 0.930 . S
C864 C859 1.390 . S
C864 C863 1.387 . S
H865 C877 0.930 . S
H866 C879 0.930 . S
H867 C880 0.930 . S
H868 C884 0.959 . S
H869 C884 0.959 . S
H870 C884 0.961 . S
H871 C885 0.960 . S
H872 C885 0.961 . S
H873 C885 0.959 . S
H874 C888 0.929 . S
H875 C889 0.931 . S
H876 C891 0.930 . S
C877 H865 0.930 . S
C877 C878 1.399 . S
C877 C882 1.399 . S
C878 C877 1.399 . S
C878 C879 1.376 . S
C879 H866 0.930 . S
C879 C878 1.376 . S
C879 C880 1.388 . S
C880 H867 0.930 . S
C880 C879 1.388 . S
C880 C881 1.390 . S
C881 C880 1.390 . S
C881 C882 1.394 . S
C881 C887 1.465 . S
C882 C877 1.399 . S
C882 C881 1.394 . S
C882 C883 1.516 . S
C883 C882 1.516 . S
C883 C884 1.502 . S
C883 C885 1.561 . S
C883 C886 1.526 . S
C884 H868 0.959 . S
C884 H869 0.959 . S
C884 H870 0.961 . S
C884 C883 1.502 . S
C885 H871 0.960 . S
C885 H872 0.961 . S
C885 H873 0.959 . S
C885 C883 1.561 . S
C886 C883 1.526 . S
C886 C887 1.396 . S
C886 C891 1.390 . S
C887 C881 1.465 . S
C887 C886 1.396 . S
C887 C888 1.399 . S
C888 H874 0.929 . S
C888 C887 1.399 . S
C888 C889 1.385 . S
C889 H875 0.931 . S
C889 C888 1.385 . S
C889 C890 1.389 . S
C890 C889 1.389 . S
C890 C891 1.387 . S
C891 H876 0.930 . S
C891 C886 1.390 . S
C891 C890 1.387 . S
H892 C904 0.930 . S
H893 C906 0.930 . S
H894 C907 0.930 1_565 S
H895 C911 0.959 . S
H896 C911 0.959 . S
H897 C911 0.961 . S
H898 C912 0.960 . S
H899 C912 0.961 . S
H900 C912 0.959 . S
H901 C915 0.929 1_556 S
H902 C916 0.931 . S
H903 C918 0.930 . S
C904 H892 0.930 . S
C904 C905 1.399 . S
C904 C909 1.399 . S
C905 C904 1.399 . S
C905 C906 1.376 . S
C906 H893 0.930 . S
C906 C905 1.376 . S
C906 C907 1.388 . S
C907 H894 0.930 1_545 S
C907 C906 1.388 . S
C907 C908 1.390 . S
C908 C907 1.390 . S
C908 C909 1.394 . S
C908 C914 1.465 1_546 S
C909 C904 1.399 . S
C909 C908 1.394 . S
C909 C910 1.516 1_556 S
C910 C909 1.516 1_554 S
C910 C911 1.502 . S
C910 C912 1.561 . S
C910 C913 1.526 1_545 S
C911 H895 0.959 . S
C911 H896 0.959 . S
C911 H897 0.961 . S
C911 C910 1.502 . S
C912 H898 0.960 . S
C912 H899 0.961 . S
C912 H900 0.959 . S
C912 C910 1.561 . S
C913 C910 1.526 1_565 S
C913 C914 1.396 . S
C913 C918 1.390 . S
C914 C908 1.465 1_564 S
C914 C913 1.396 . S
C914 C915 1.399 . S
C915 H901 0.929 1_554 S
C915 C914 1.399 . S
C915 C916 1.385 . S
C916 H902 0.931 . S
C916 C915 1.385 . S
C916 C917 1.389 . S
C917 C916 1.389 . S
C917 C918 1.387 . S
C918 H903 0.930 . S
C918 C913 1.390 . S
C918 C917 1.387 . S
H919 C931 0.930 . S
H920 C933 0.930 . S
H921 C934 0.930 . S
H922 C938 0.959 . S
H923 C938 0.959 . S
H924 C938 0.961 . S
H925 C939 0.960 . S
H926 C939 0.961 . S
H927 C939 0.959 . S
H928 C942 0.929 1_565 S
H929 C943 0.931 . S
H930 C945 0.930 . S
C931 H919 0.930 . S
C931 C932 1.399 . S
C931 C936 1.399 . S
C932 C931 1.399 . S
C932 C933 1.376 . S
C933 H920 0.930 . S
C933 C932 1.376 . S
C933 C934 1.388 . S
C934 H921 0.930 . S
C934 C933 1.388 . S
C934 C935 1.390 . S
C935 C934 1.390 . S
C935 C936 1.394 . S
C935 C941 1.465 1_565 S
C936 C931 1.399 . S
C936 C935 1.394 . S
C936 C937 1.516 1_565 S
C937 C936 1.516 1_545 S
C937 C938 1.502 . S
C937 C939 1.561 . S
C937 C940 1.526 . S
C938 H922 0.959 . S
C938 H923 0.959 . S
C938 H924 0.961 . S
C938 C937 1.502 . S
C939 H925 0.960 . S
C939 H926 0.961 . S
C939 H927 0.959 . S
C939 C937 1.561 . S
C940 C937 1.526 . S
C940 C941 1.396 . S
C940 C945 1.390 . S
C941 C935 1.465 1_545 S
C941 C940 1.396 . S
C941 C942 1.399 . S
C942 H928 0.929 1_545 S
C942 C941 1.399 . S
C942 C943 1.385 . S
C943 H929 0.931 . S
C943 C942 1.385 . S
C943 C944 1.389 . S
C944 C943 1.389 . S
C944 C945 1.387 . S
C945 H930 0.930 . S
C945 C940 1.390 . S
C945 C944 1.387 . S
H946 C958 0.930 . S
H947 C960 0.930 . S
H948 C961 0.930 . S
H949 C965 0.959 . S
H950 C965 0.959 . S
H951 C965 0.961 . S
H952 C966 0.960 . S
H953 C966 0.961 . S
H954 C966 0.959 . S
H955 C969 0.929 1_554 S
H956 C970 0.931 . S
H957 C972 0.930 . S
C958 H946 0.930 . S
C958 C959 1.399 . S
C958 C963 1.399 . S
C959 C958 1.399 . S
C959 C960 1.376 . S
C960 H947 0.930 . S
C960 C959 1.376 . S
C960 C961 1.388 1_565 S
C961 H948 0.930 . S
C961 C960 1.388 1_545 S
C961 C962 1.390 1_545 S
C962 C961 1.390 1_565 S
C962 C963 1.394 . S
C962 C968 1.465 1_564 S
C963 C958 1.399 . S
C963 C962 1.394 . S
C963 C964 1.516 1_554 S
C964 C963 1.516 1_556 S
C964 C965 1.502 . S
C964 C966 1.561 . S
C964 C967 1.526 1_565 S
C965 H949 0.959 . S
C965 H950 0.959 . S
C965 H951 0.961 . S
C965 C964 1.502 . S
C966 H952 0.960 . S
C966 H953 0.961 . S
C966 H954 0.959 . S
C966 C964 1.561 . S
C967 C964 1.526 1_545 S
C967 C968 1.396 . S
C967 C972 1.390 . S
C968 C962 1.465 1_546 S
C968 C967 1.396 . S
C968 C969 1.399 . S
C969 H955 0.929 1_556 S
C969 C968 1.399 . S
C969 C970 1.385 . S
C970 H956 0.931 . S
C970 C969 1.385 . S
C970 C971 1.389 . S
C971 C970 1.389 . S
C971 C972 1.387 . S
C972 H957 0.930 . S
C972 C967 1.390 . S
C972 C971 1.387 . S
H973 C985 0.930 . S
H974 C987 0.930 . S
H975 C988 0.930 . S
H976 C992 0.959 1_545 S
H977 C992 0.959 1_545 S
H978 C992 0.961 . S
H979 C993 0.960 . S
H980 C993 0.961 . S
H981 C993 0.959 . S
H982 C996 0.929 . S
H983 C997 0.931 . S
H984 C999 0.930 . S
C985 H973 0.930 . S
C985 C986 1.399 . S
C985 C990 1.399 . S
C986 C985 1.399 . S
C986 C987 1.376 . S
C987 H974 0.930 . S
C987 C986 1.376 . S
C987 C988 1.388 . S
C988 H975 0.930 . S
C988 C987 1.388 . S
C988 C989 1.390 . S
C989 C988 1.390 . S
C989 C990 1.394 . S
C989 C995 1.465 1_565 S
C990 C985 1.399 . S
C990 C989 1.394 . S
C990 C991 1.516 . S
C991 C990 1.516 . S
C991 C992 1.502 . S
C991 C993 1.561 . S
C991 C994 1.526 1_565 S
C992 H976 0.959 1_565 S
C992 H977 0.959 1_565 S
C992 H978 0.961 . S
C992 C991 1.502 . S
C993 H979 0.960 . S
C993 H980 0.961 . S
C993 H981 0.959 . S
C993 C991 1.561 . S
C994 C991 1.526 1_545 S
C994 C995 1.396 . S
C994 C999 1.390 . S
C995 C989 1.465 1_545 S
C995 C994 1.396 . S
C995 C996 1.399 . S
C996 H982 0.929 . S
C996 C995 1.399 . S
C996 C997 1.385 . S
C997 H983 0.931 . S
C997 C996 1.385 . S
C997 C998 1.389 . S
C998 C997 1.389 . S
C998 C999 1.387 . S
C999 H984 0.930 . S
C999 C994 1.390 . S
C999 C998 1.387 . S
H1000 C1012 0.930 . S
H1001 C1014 0.930 . S
H1002 C1015 0.930 . S
H1003 C1019 0.959 . S
H1004 C1019 0.959 . S
H1005 C1019 0.961 . S
H1006 C1020 0.960 . S
H1007 C1020 0.961 . S
H1008 C1020 0.959 . S
H1009 C1023 0.929 . S
H1010 C1024 0.931 . S
H1011 C1026 0.930 . S
C1012 H1000 0.930 . S
C1012 C1013 1.399 . S
C1012 C1017 1.399 . S
C1013 C1012 1.399 . S
C1013 C1014 1.376 . S
C1014 H1001 0.930 . S
C1014 C1013 1.376 . S
C1014 C1015 1.388 . S
C1015 H1002 0.930 . S
C1015 C1014 1.388 . S
C1015 C1016 1.390 . S
C1016 C1015 1.390 . S
C1016 C1017 1.394 . S
C1016 C1022 1.465 . S
C1017 C1012 1.399 . S
C1017 C1016 1.394 . S
C1017 C1018 1.516 . S
C1018 C1017 1.516 . S
C1018 C1019 1.502 . S
C1018 C1020 1.561 . S
C1018 C1021 1.526 . S
C1019 H1003 0.959 . S
C1019 H1004 0.959 . S
C1019 H1005 0.961 . S
C1019 C1018 1.502 . S
C1020 H1006 0.960 . S
C1020 H1007 0.961 . S
C1020 H1008 0.959 . S
C1020 C1018 1.561 . S
C1021 C1018 1.526 . S
C1021 C1022 1.396 . S
C1021 C1026 1.390 . S
C1022 C1016 1.465 . S
C1022 C1021 1.396 . S
C1022 C1023 1.399 . S
C1023 H1009 0.929 . S
C1023 C1022 1.399 . S
C1023 C1024 1.385 . S
C1024 H1010 0.931 . S
C1024 C1023 1.385 . S
C1024 C1025 1.389 . S
C1025 C1024 1.389 . S
C1025 C1026 1.387 . S
C1026 H1011 0.930 . S
C1026 C1021 1.390 . S
C1026 C1025 1.387 . S
H1027 C1039 0.930 . S
H1028 C1041 0.930 . S
H1029 C1042 0.930 . S
H1030 C1046 0.959 . S
H1031 C1046 0.959 . S
H1032 C1046 0.961 . S
H1033 C1047 0.960 . S
H1034 C1047 0.961 . S
H1035 C1047 0.959 . S
H1036 C1050 0.929 . S
H1037 C1051 0.931 . S
H1038 C1053 0.930 . S
C1039 H1027 0.930 . S
C1039 C1040 1.399 . S
C1039 C1044 1.399 . S
C1040 C1039 1.399 . S
C1040 C1041 1.376 . S
C1041 H1028 0.930 . S
C1041 C1040 1.376 . S
C1041 C1042 1.388 . S
C1042 H1029 0.930 . S
C1042 C1041 1.388 . S
C1042 C1043 1.390 . S
C1043 C1042 1.390 . S
C1043 C1044 1.394 . S
C1043 C1049 1.465 . S
C1044 C1039 1.399 . S
C1044 C1043 1.394 . S
C1044 C1045 1.516 . S
C1045 C1044 1.516 . S
C1045 C1046 1.502 . S
C1045 C1047 1.561 . S
C1045 C1048 1.526 . S
C1046 H1030 0.959 . S
C1046 H1031 0.959 . S
C1046 H1032 0.961 . S
C1046 C1045 1.502 . S
C1047 H1033 0.960 . S
C1047 H1034 0.961 . S
C1047 H1035 0.959 . S
C1047 C1045 1.561 . S
C1048 C1045 1.526 . S
C1048 C1049 1.396 . S
C1048 C1053 1.390 . S
C1049 C1043 1.465 . S
C1049 C1048 1.396 . S
C1049 C1050 1.399 . S
C1050 H1036 0.929 . S
C1050 C1049 1.399 . S
C1050 C1051 1.385 . S
C1051 H1037 0.931 . S
C1051 C1050 1.385 . S
C1051 C1052 1.389 . S
C1052 C1051 1.389 . S
C1052 C1053 1.387 . S
C1053 H1038 0.930 . S
C1053 C1048 1.390 . S
C1053 C1052 1.387 . S
H1054 C1066 0.930 . S
H1055 C1068 0.930 . S
H1056 C1069 0.930 . S
H1057 C1073 0.959 . S
H1058 C1073 0.959 . S
H1059 C1073 0.961 . S
H1060 C1074 0.960 . S
H1061 C1074 0.961 . S
H1062 C1074 0.959 . S
H1063 C1077 0.929 . S
H1064 C1078 0.931 . S
H1065 C1080 0.930 . S
C1066 H1054 0.930 . S
C1066 C1067 1.399 . S
C1066 C1071 1.399 . S
C1067 C1066 1.399 . S
C1067 C1068 1.376 . S
C1068 H1055 0.930 . S
C1068 C1067 1.376 . S
C1068 C1069 1.388 . S
C1069 H1056 0.930 . S
C1069 C1068 1.388 . S
C1069 C1070 1.390 . S
C1070 C1069 1.390 . S
C1070 C1071 1.394 . S
C1070 C1076 1.465 . S
C1071 C1066 1.399 . S
C1071 C1070 1.394 . S
C1071 C1072 1.516 . S
C1072 C1071 1.516 . S
C1072 C1073 1.502 . S
C1072 C1074 1.561 . S
C1072 C1075 1.526 . S
C1073 H1057 0.959 . S
C1073 H1058 0.959 . S
C1073 H1059 0.961 . S
C1073 C1072 1.502 . S
C1074 H1060 0.960 . S
C1074 H1061 0.961 . S
C1074 H1062 0.959 . S
C1074 C1072 1.561 . S
C1075 C1072 1.526 . S
C1075 C1076 1.396 . S
C1075 C1080 1.390 . S
C1076 C1070 1.465 . S
C1076 C1075 1.396 . S
C1076 C1077 1.399 . S
C1077 H1063 0.929 . S
C1077 C1076 1.399 . S
C1077 C1078 1.385 . S
C1078 H1064 0.931 . S
C1078 C1077 1.385 . S
C1078 C1079 1.389 . S
C1079 C1078 1.389 . S
C1079 C1080 1.387 . S
C1080 H1065 0.930 . S
C1080 C1075 1.390 . S
C1080 C1079 1.387 . S
H1081 C1093 0.930 . S
H1082 C1095 0.930 . S
H1083 C1096 0.930 . S
H1084 C1100 0.959 . S
H1085 C1100 0.959 . S
H1086 C1100 0.961 . S
H1087 C1101 0.960 . S
H1088 C1101 0.961 . S
H1089 C1101 0.959 . S
H1090 C1104 0.929 . S
H1091 C1105 0.931 . S
H1092 C1107 0.930 . S
C1093 H1081 0.930 . S
C1093 C1094 1.399 . S
C1093 C1098 1.399 . S
C1094 C1093 1.399 . S
C1094 C1095 1.376 . S
C1095 H1082 0.930 . S
C1095 C1094 1.376 . S
C1095 C1096 1.388 . S
C1096 H1083 0.930 . S
C1096 C1095 1.388 . S
C1096 C1097 1.390 . S
C1097 C1096 1.390 . S
C1097 C1098 1.394 . S
C1097 C1103 1.465 . S
C1098 C1093 1.399 . S
C1098 C1097 1.394 . S
C1098 C1099 1.516 . S
C1099 C1098 1.516 . S
C1099 C1100 1.502 . S
C1099 C1101 1.561 . S
C1099 C1102 1.526 . S
C1100 H1084 0.959 . S
C1100 H1085 0.959 . S
C1100 H1086 0.961 . S
C1100 C1099 1.502 . S
C1101 H1087 0.960 . S
C1101 H1088 0.961 . S
C1101 H1089 0.959 . S
C1101 C1099 1.561 . S
C1102 C1099 1.526 . S
C1102 C1103 1.396 . S
C1102 C1107 1.390 . S
C1103 C1097 1.465 . S
C1103 C1102 1.396 . S
C1103 C1104 1.399 . S
C1104 H1090 0.929 . S
C1104 C1103 1.399 . S
C1104 C1105 1.385 . S
C1105 H1091 0.931 . S
C1105 C1104 1.385 . S
C1105 C1106 1.389 . S
C1106 C1105 1.389 . S
C1106 C1107 1.387 . S
C1107 H1092 0.930 . S
C1107 C1102 1.390 . S
C1107 C1106 1.387 . S
H1108 C1120 0.930 . S
H1109 C1122 0.930 . S
H1110 C1123 0.930 . S
H1111 C1127 0.960 . S
H1112 C1127 0.965 . S
H1113 C1127 0.955 1_655 S
H1114 C1128 0.957 . S
H1115 C1128 0.963 1_455 S
H1116 C1128 0.959 1_455 S
H1117 C1131 0.929 . S
H1118 C1132 0.931 . S
H1119 C1134 0.930 . S
C1120 H1108 0.930 . S
C1120 C1121 1.399 . S
C1120 C1125 1.399 . S
C1121 C1120 1.399 . S
C1121 C1122 1.376 . S
C1122 H1109 0.930 . S
C1122 C1121 1.376 . S
C1122 C1123 1.388 . S
C1123 H1110 0.930 . S
C1123 C1122 1.388 . S
C1123 C1124 1.390 . S
C1124 C1123 1.390 . S
C1124 C1125 1.394 . S
C1124 C1130 1.465 1_655 S
C1125 C1120 1.399 . S
C1125 C1124 1.394 . S
C1125 C1126 1.519 . S
C1126 C1125 1.519 . S
C1126 C1127 1.502 1_655 S
C1126 C1128 1.561 . S
C1126 C1129 1.523 1_655 S
C1127 H1111 0.960 . S
C1127 H1112 0.965 . S
C1127 H1113 0.955 1_455 S
C1127 C1126 1.502 1_455 S
C1128 H1114 0.957 . S
C1128 H1115 0.963 1_655 S
C1128 H1116 0.959 1_655 S
C1128 C1126 1.561 . S
C1129 C1126 1.523 1_455 S
C1129 C1130 1.396 . S
C1129 C1134 1.390 . S
C1130 C1124 1.465 1_455 S
C1130 C1129 1.396 . S
C1130 C1131 1.399 . S
C1131 H1117 0.929 . S
C1131 C1130 1.399 . S
C1131 C1132 1.385 . S
C1132 H1118 0.931 . S
C1132 C1131 1.385 . S
C1132 C1133 1.389 . S
C1133 C1132 1.389 . S
C1133 C1134 1.387 . S
C1134 H1119 0.930 . S
C1134 C1129 1.390 . S
C1134 C1133 1.387 . S
H1135 C1147 0.930 . S
H1136 C1149 0.930 . S
H1137 C1150 0.930 . S
H1138 C1154 0.964 . S
H1139 C1154 0.992 . S
H1140 C1154 0.926 1_655 S
H1141 C1155 0.952 1_655 S
H1142 C1155 0.969 . S
H1143 C1155 0.960 . S
H1144 C1158 0.929 . S
H1145 C1159 0.931 . S
H1146 C1161 0.930 . S
C1147 H1135 0.930 . S
C1147 C1148 1.399 . S
C1147 C1152 1.399 . S
C1148 C1147 1.399 . S
C1148 C1149 1.376 . S
C1149 H1136 0.930 . S
C1149 C1148 1.376 . S
C1149 C1150 1.388 . S
C1150 H1137 0.930 . S
C1150 C1149 1.388 . S
C1150 C1151 1.390 . S
C1151 C1150 1.390 . S
C1151 C1152 1.394 . S
C1151 C1157 1.465 1_655 S
C1152 C1147 1.399 . S
C1152 C1151 1.394 . S
C1152 C1153 1.508 1_655 S
C1153 C1152 1.508 1_455 S
C1153 C1154 1.501 . S
C1153 C1155 1.561 . S
C1153 C1156 1.534 . S
C1154 H1138 0.964 . S
C1154 H1139 0.992 . S
C1154 H1140 0.926 1_455 S
C1154 C1153 1.501 . S
C1155 H1141 0.952 1_455 S
C1155 H1142 0.969 . S
C1155 H1143 0.960 . S
C1155 C1153 1.561 . S
C1156 C1153 1.534 . S
C1156 C1157 1.396 . S
C1156 C1161 1.390 . S
C1157 C1151 1.465 1_455 S
C1157 C1156 1.396 . S
C1157 C1158 1.399 . S
C1158 H1144 0.929 . S
C1158 C1157 1.399 . S
C1158 C1159 1.385 . S
C1159 H1145 0.931 . S
C1159 C1158 1.385 . S
C1159 C1160 1.389 . S
C1160 C1159 1.389 . S
C1160 C1161 1.387 . S
C1161 H1146 0.930 . S
C1161 C1156 1.390 . S
C1161 C1160 1.387 . S
H1162 C1174 0.930 . S
H1163 C1176 0.930 . S
H1164 C1177 0.930 . S
H1165 C1181 0.963 . S
H1166 C1181 0.984 . S
H1167 C1181 0.934 1_455 S
H1168 C1182 0.955 1_455 S
H1169 C1182 0.965 . S
H1170 C1182 0.959 . S
H1171 C1185 0.929 . S
H1172 C1186 0.931 . S
H1173 C1188 0.930 . S
C1174 H1162 0.930 . S
C1174 C1175 1.399 . S
C1174 C1179 1.399 . S
C1175 C1174 1.399 . S
C1175 C1176 1.376 . S
C1176 H1163 0.930 . S
C1176 C1175 1.376 . S
C1176 C1177 1.388 . S
C1177 H1164 0.930 . S
C1177 C1176 1.388 . S
C1177 C1178 1.390 . S
C1178 C1177 1.390 . S
C1178 C1179 1.394 . S
C1178 C1184 1.465 1_455 S
C1179 C1174 1.399 . S
C1179 C1178 1.394 . S
C1179 C1180 1.511 1_455 S
C1180 C1179 1.511 1_655 S
C1180 C1181 1.502 . S
C1180 C1182 1.561 . S
C1180 C1183 1.531 . S
C1181 H1165 0.963 . S
C1181 H1166 0.984 . S
C1181 H1167 0.934 1_655 S
C1181 C1180 1.502 . S
C1182 H1168 0.955 1_655 S
C1182 H1169 0.965 . S
C1182 H1170 0.959 . S
C1182 C1180 1.561 . S
C1183 C1180 1.531 . S
C1183 C1184 1.396 . S
C1183 C1188 1.390 . S
C1184 C1178 1.465 1_655 S
C1184 C1183 1.396 . S
C1184 C1185 1.399 . S
C1185 H1171 0.929 . S
C1185 C1184 1.399 . S
C1185 C1186 1.385 . S
C1186 H1172 0.931 . S
C1186 C1185 1.385 . S
C1186 C1187 1.389 . S
C1187 C1186 1.389 . S
C1187 C1188 1.387 . S
C1188 H1173 0.930 . S
C1188 C1183 1.390 . S
C1188 C1187 1.387 . S
H1189 C1201 0.930 . S
H1190 C1203 0.930 . S
H1191 C1204 0.930 . S
H1192 C1208 0.961 . S
H1193 C1208 0.969 . S
H1194 C1208 0.950 1_455 S
H1195 C1209 0.967 . S
H1196 C1209 0.955 1_655 S
H1197 C1209 0.958 1_655 S
H1198 C1212 0.929 . S
H1199 C1213 0.931 . S
H1200 C1215 0.930 . S
C1201 H1189 0.930 . S
C1201 C1202 1.399 . S
C1201 C1206 1.399 . S
C1202 C1201 1.399 . S
C1202 C1203 1.376 . S
C1203 H1190 0.930 . S
C1203 C1202 1.376 . S
C1203 C1204 1.388 . S
C1204 H1191 0.930 . S
C1204 C1203 1.388 . S
C1204 C1205 1.390 . S
C1205 C1204 1.390 . S
C1205 C1206 1.394 . S
C1205 C1211 1.465 1_455 S
C1206 C1201 1.399 . S
C1206 C1205 1.394 . S
C1206 C1207 1.521 . S
C1207 C1206 1.521 . S
C1207 C1208 1.502 1_455 S
C1207 C1209 1.561 . S
C1207 C1210 1.521 1_455 S
C1208 H1192 0.961 . S
C1208 H1193 0.969 . S
C1208 H1194 0.950 1_655 S
C1208 C1207 1.502 1_655 S
C1209 H1195 0.967 . S
C1209 H1196 0.955 1_455 S
C1209 H1197 0.958 1_455 S
C1209 C1207 1.561 . S
C1210 C1207 1.521 1_655 S
C1210 C1211 1.396 . S
C1210 C1215 1.390 . S
C1211 C1205 1.465 1_655 S
C1211 C1210 1.396 . S
C1211 C1212 1.399 . S
C1212 H1198 0.929 . S
C1212 C1211 1.399 . S
C1212 C1213 1.385 . S
C1213 H1199 0.931 . S
C1213 C1212 1.385 . S
C1213 C1214 1.389 . S
C1214 C1213 1.389 . S
C1214 C1215 1.387 . S
C1215 H1200 0.930 . S
C1215 C1210 1.390 . S
C1215 C1214 1.387 . S
H1216 C1228 0.930 . S
H1217 C1230 0.930 . S
H1218 C1231 0.930 . S
H1219 C1235 0.959 . S
H1220 C1235 0.959 . S
H1221 C1235 0.961 1_554 S
H1222 C1236 0.960 . S
H1223 C1236 0.961 . S
H1224 C1236 0.959 . S
H1225 C1239 0.929 . S
H1226 C1240 0.931 . S
H1227 C1242 0.930 . S
C1228 H1216 0.930 . S
C1228 C1229 1.399 . S
C1228 C1233 1.399 . S
C1229 C1228 1.399 . S
C1229 C1230 1.376 . S
C1230 H1217 0.930 . S
C1230 C1229 1.376 . S
C1230 C1231 1.388 . S
C1231 H1218 0.930 . S
C1231 C1230 1.388 . S
C1231 C1232 1.390 . S
C1232 C1231 1.390 . S
C1232 C1233 1.394 . S
C1232 C1238 1.465 1_554 S
C1233 C1228 1.399 . S
C1233 C1232 1.394 . S
C1233 C1234 1.516 . S
C1234 C1233 1.516 . S
C1234 C1235 1.502 1_554 S
C1234 C1236 1.561 . S
C1234 C1237 1.526 1_554 S
C1235 H1219 0.959 . S
C1235 H1220 0.959 . S
C1235 H1221 0.961 1_556 S
C1235 C1234 1.502 1_556 S
C1236 H1222 0.960 . S
C1236 H1223 0.961 . S
C1236 H1224 0.959 . S
C1236 C1234 1.561 . S
C1237 C1234 1.526 1_556 S
C1237 C1238 1.396 . S
C1237 C1242 1.390 . S
C1238 C1232 1.465 1_556 S
C1238 C1237 1.396 . S
C1238 C1239 1.399 . S
C1239 H1225 0.929 . S
C1239 C1238 1.399 . S
C1239 C1240 1.385 . S
C1240 H1226 0.931 . S
C1240 C1239 1.385 . S
C1240 C1241 1.389 . S
C1241 C1240 1.389 . S
C1241 C1242 1.387 . S
C1242 H1227 0.930 . S
C1242 C1237 1.390 . S
C1242 C1241 1.387 . S
H1243 C1255 0.930 . S
H1244 C1257 0.930 . S
H1245 C1258 0.930 . S
H1246 C1262 0.959 . S
H1247 C1262 0.959 . S
H1248 C1262 0.961 . S
H1249 C1263 0.960 . S
H1250 C1263 0.961 . S
H1251 C1263 0.959 . S
H1252 C1266 0.929 . S
H1253 C1267 0.931 . S
H1254 C1269 0.930 . S
C1255 H1243 0.930 . S
C1255 C1256 1.399 . S
C1255 C1260 1.399 . S
C1256 C1255 1.399 . S
C1256 C1257 1.376 . S
C1257 H1244 0.930 . S
C1257 C1256 1.376 . S
C1257 C1258 1.388 . S
C1258 H1245 0.930 . S
C1258 C1257 1.388 . S
C1258 C1259 1.390 . S
C1259 C1258 1.390 . S
C1259 C1260 1.394 . S
C1259 C1265 1.465 . S
C1260 C1255 1.399 . S
C1260 C1259 1.394 . S
C1260 C1261 1.516 . S
C1261 C1260 1.516 . S
C1261 C1262 1.502 . S
C1261 C1263 1.561 . S
C1261 C1264 1.526 . S
C1262 H1246 0.959 . S
C1262 H1247 0.959 . S
C1262 H1248 0.961 . S
C1262 C1261 1.502 . S
C1263 H1249 0.960 . S
C1263 H1250 0.961 . S
C1263 H1251 0.959 . S
C1263 C1261 1.561 . S
C1264 C1261 1.526 . S
C1264 C1265 1.396 . S
C1264 C1269 1.390 . S
C1265 C1259 1.465 . S
C1265 C1264 1.396 . S
C1265 C1266 1.399 . S
C1266 H1252 0.929 . S
C1266 C1265 1.399 . S
C1266 C1267 1.385 . S
C1267 H1253 0.931 . S
C1267 C1266 1.385 . S
C1267 C1268 1.389 . S
C1268 C1267 1.389 . S
C1268 C1269 1.387 . S
C1269 H1254 0.930 . S
C1269 C1264 1.390 . S
C1269 C1268 1.387 . S
H1270 C1282 0.930 . S
H1271 C1284 0.930 . S
H1272 C1285 0.930 . S
H1273 C1289 0.959 . S
H1274 C1289 0.959 . S
H1275 C1289 0.961 . S
H1276 C1290 0.960 . S
H1277 C1290 0.961 . S
H1278 C1290 0.959 . S
H1279 C1293 0.929 . S
H1280 C1294 0.931 . S
H1281 C1296 0.930 . S
C1282 H1270 0.930 . S
C1282 C1283 1.399 . S
C1282 C1287 1.399 . S
C1283 C1282 1.399 . S
C1283 C1284 1.376 . S
C1284 H1271 0.930 . S
C1284 C1283 1.376 . S
C1284 C1285 1.388 . S
C1285 H1272 0.930 . S
C1285 C1284 1.388 . S
C1285 C1286 1.390 . S
C1286 C1285 1.390 . S
C1286 C1287 1.394 . S
C1286 C1292 1.465 1_554 S
C1287 C1282 1.399 . S
C1287 C1286 1.394 . S
C1287 C1288 1.516 . S
C1288 C1287 1.516 . S
C1288 C1289 1.502 . S
C1288 C1290 1.561 . S
C1288 C1291 1.526 1_554 S
C1289 H1273 0.959 . S
C1289 H1274 0.959 . S
C1289 H1275 0.961 . S
C1289 C1288 1.502 . S
C1290 H1276 0.960 . S
C1290 H1277 0.961 . S
C1290 H1278 0.959 . S
C1290 C1288 1.561 . S
C1291 C1288 1.526 1_556 S
C1291 C1292 1.396 . S
C1291 C1296 1.390 . S
C1292 C1286 1.465 1_556 S
C1292 C1291 1.396 . S
C1292 C1293 1.399 . S
C1293 H1279 0.929 . S
C1293 C1292 1.399 . S
C1293 C1294 1.385 . S
C1294 H1280 0.931 . S
C1294 C1293 1.385 . S
C1294 C1295 1.389 . S
C1295 C1294 1.389 . S
C1295 C1296 1.387 . S
C1296 H1281 0.930 . S
C1296 C1291 1.390 . S
C1296 C1295 1.387 . S
H1297 C1309 0.930 . S
H1298 C1311 0.930 . S
H1299 C1312 0.930 . S
H1300 C1316 0.959 . S
H1301 C1316 0.959 . S
H1302 C1316 0.961 . S
H1303 C1317 0.960 . S
H1304 C1317 0.961 . S
H1305 C1317 0.959 . S
H1306 C1320 0.929 . S
H1307 C1321 0.931 . S
H1308 C1323 0.930 . S
C1309 H1297 0.930 . S
C1309 C1310 1.399 . S
C1309 C1314 1.399 . S
C1310 C1309 1.399 . S
C1310 C1311 1.376 . S
C1311 H1298 0.930 . S
C1311 C1310 1.376 . S
C1311 C1312 1.388 . S
C1312 H1299 0.930 . S
C1312 C1311 1.388 . S
C1312 C1313 1.390 . S
C1313 C1312 1.390 . S
C1313 C1314 1.394 . S
C1313 C1319 1.465 . S
C1314 C1309 1.399 . S
C1314 C1313 1.394 . S
C1314 C1315 1.516 . S
C1315 C1314 1.516 . S
C1315 C1316 1.502 . S
C1315 C1317 1.561 . S
C1315 C1318 1.526 . S
C1316 H1300 0.959 . S
C1316 H1301 0.959 . S
C1316 H1302 0.961 . S
C1316 C1315 1.502 . S
C1317 H1303 0.960 . S
C1317 H1304 0.961 . S
C1317 H1305 0.959 . S
C1317 C1315 1.561 . S
C1318 C1315 1.526 . S
C1318 C1319 1.396 . S
C1318 C1323 1.390 . S
C1319 C1313 1.465 . S
C1319 C1318 1.396 . S
C1319 C1320 1.399 . S
C1320 H1306 0.929 . S
C1320 C1319 1.399 . S
C1320 C1321 1.385 . S
C1321 H1307 0.931 . S
C1321 C1320 1.385 . S
C1321 C1322 1.389 . S
C1322 C1321 1.389 . S
C1322 C1323 1.387 . S
C1323 H1308 0.930 . S
C1323 C1318 1.390 . S
C1323 C1322 1.387 . S
H1324 C1336 0.930 . S
H1325 C1338 0.930 . S
H1326 C1339 0.930 . S
H1327 C1343 0.959 1_554 S
H1328 C1343 0.959 . S
H1329 C1343 0.961 1_554 S
H1330 C1344 0.960 . S
H1331 C1344 0.961 . S
H1332 C1344 0.959 . S
H1333 C1347 0.929 . S
H1334 C1348 0.931 . S
H1335 C1350 0.930 . S
C1336 H1324 0.930 . S
C1336 C1337 1.399 . S
C1336 C1341 1.399 . S
C1337 C1336 1.399 . S
C1337 C1338 1.376 . S
C1338 H1325 0.930 . S
C1338 C1337 1.376 . S
C1338 C1339 1.388 . S
C1339 H1326 0.930 . S
C1339 C1338 1.388 . S
C1339 C1340 1.390 . S
C1340 C1339 1.390 . S
C1340 C1341 1.394 . S
C1340 C1346 1.465 1_554 S
C1341 C1336 1.399 . S
C1341 C1340 1.394 . S
C1341 C1342 1.516 1_554 S
C1342 C1341 1.516 1_556 S
C1342 C1343 1.502 . S
C1342 C1344 1.561 . S
C1342 C1345 1.526 . S
C1343 H1327 0.959 1_556 S
C1343 H1328 0.959 . S
C1343 H1329 0.961 1_556 S
C1343 C1342 1.502 . S
C1344 H1330 0.960 . S
C1344 H1331 0.961 . S
C1344 H1332 0.959 . S
C1344 C1342 1.561 . S
C1345 C1342 1.526 . S
C1345 C1346 1.396 . S
C1345 C1350 1.390 . S
C1346 C1340 1.465 1_556 S
C1346 C1345 1.396 . S
C1346 C1347 1.399 . S
C1347 H1333 0.929 . S
C1347 C1346 1.399 . S
C1347 C1348 1.385 . S
C1348 H1334 0.931 . S
C1348 C1347 1.385 . S
C1348 C1349 1.389 . S
C1349 C1348 1.389 . S
C1349 C1350 1.387 . S
C1350 H1335 0.930 . S
C1350 C1345 1.390 . S
C1350 C1349 1.387 . S
H1351 C1363 0.930 . S
H1352 C1365 0.930 . S
H1353 C1366 0.930 . S
H1354 C1370 0.959 . S
H1355 C1370 0.959 . S
H1356 C1370 0.961 . S
H1357 C1371 0.960 . S
H1358 C1371 0.961 . S
H1359 C1371 0.959 . S
H1360 C1374 0.929 . S
H1361 C1375 0.931 . S
H1362 C1377 0.930 . S
C1363 H1351 0.930 . S
C1363 C1364 1.399 . S
C1363 C1368 1.399 . S
C1364 C1363 1.399 . S
C1364 C1365 1.376 . S
C1365 H1352 0.930 . S
C1365 C1364 1.376 . S
C1365 C1366 1.388 . S
C1366 H1353 0.930 . S
C1366 C1365 1.388 . S
C1366 C1367 1.390 . S
C1367 C1366 1.390 . S
C1367 C1368 1.394 . S
C1367 C1373 1.465 . S
C1368 C1363 1.399 . S
C1368 C1367 1.394 . S
C1368 C1369 1.516 . S
C1369 C1368 1.516 . S
C1369 C1370 1.502 . S
C1369 C1371 1.561 . S
C1369 C1372 1.526 . S
C1370 H1354 0.959 . S
C1370 H1355 0.959 . S
C1370 H1356 0.961 . S
C1370 C1369 1.502 . S
C1371 H1357 0.960 . S
C1371 H1358 0.961 . S
C1371 H1359 0.959 . S
C1371 C1369 1.561 . S
C1372 C1369 1.526 . S
C1372 C1373 1.396 . S
C1372 C1377 1.390 . S
C1373 C1367 1.465 . S
C1373 C1372 1.396 . S
C1373 C1374 1.399 . S
C1374 H1360 0.929 . S
C1374 C1373 1.399 . S
C1374 C1375 1.385 . S
C1375 H1361 0.931 . S
C1375 C1374 1.385 . S
C1375 C1376 1.389 . S
C1376 C1375 1.389 . S
C1376 C1377 1.387 . S
C1377 H1362 0.930 . S
C1377 C1372 1.390 . S
C1377 C1376 1.387 . S
H1378 C1390 0.930 . S
H1379 C1392 0.930 . S
H1380 C1393 0.930 . S
H1381 C1397 0.959 . S
H1382 C1397 0.959 . S
H1383 C1397 0.961 . S
H1384 C1398 0.960 . S
H1385 C1398 0.953 1_556 S
H1386 C1398 0.959 1_556 S
H1387 C1401 0.929 . S
H1388 C1402 0.931 . S
H1389 C1404 0.930 . S
C1390 H1378 0.930 . S
C1390 C1391 1.399 . S
C1390 C1395 1.399 . S
C1391 C1390 1.399 . S
C1391 C1392 1.376 . S
C1392 H1379 0.930 . S
C1392 C1391 1.376 . S
C1392 C1393 1.388 . S
C1393 H1380 0.930 . S
C1393 C1392 1.388 . S
C1393 C1394 1.390 . S
C1394 C1393 1.390 . S
C1394 C1395 1.394 . S
C1394 C1400 1.465 1_554 S
C1395 C1390 1.399 . S
C1395 C1394 1.394 . S
C1395 C1396 1.516 . S
C1396 C1395 1.516 . S
C1396 C1397 1.502 . S
C1396 C1398 1.561 . S
C1396 C1399 1.526 1_554 S
C1397 H1381 0.959 . S
C1397 H1382 0.959 . S
C1397 H1383 0.961 . S
C1397 C1396 1.502 . S
C1398 H1384 0.960 . S
C1398 H1385 0.953 1_554 S
C1398 H1386 0.959 1_554 S
C1398 C1396 1.561 . S
C1399 C1396 1.526 1_556 S
C1399 C1400 1.396 . S
C1399 C1404 1.390 . S
C1400 C1394 1.465 1_556 S
C1400 C1399 1.396 . S
C1400 C1401 1.399 . S
C1401 H1387 0.929 . S
C1401 C1400 1.399 . S
C1401 C1402 1.385 . S
C1402 H1388 0.931 . S
C1402 C1401 1.385 . S
C1402 C1403 1.389 . S
C1403 C1402 1.389 . S
C1403 C1404 1.387 . S
C1404 H1389 0.930 . S
C1404 C1399 1.390 . S
C1404 C1403 1.387 . S
H1405 C1417 0.930 . S
H1406 C1419 0.930 . S
H1407 C1420 0.930 . S
H1408 C1424 0.959 . S
H1409 C1424 0.959 . S
H1410 C1424 0.961 . S
H1411 C1425 0.960 . S
H1412 C1425 0.961 . S
H1413 C1425 0.959 . S
H1414 C1428 0.929 . S
H1415 C1429 0.931 . S
H1416 C1431 0.930 . S
C1417 H1405 0.930 . S
C1417 C1418 1.399 . S
C1417 C1422 1.399 . S
C1418 C1417 1.399 . S
C1418 C1419 1.376 . S
C1419 H1406 0.930 . S
C1419 C1418 1.376 . S
C1419 C1420 1.388 . S
C1420 H1407 0.930 . S
C1420 C1419 1.388 . S
C1420 C1421 1.390 . S
C1421 C1420 1.390 . S
C1421 C1422 1.394 . S
C1421 C1427 1.465 . S
C1422 C1417 1.399 . S
C1422 C1421 1.394 . S
C1422 C1423 1.516 . S
C1423 C1422 1.516 . S
C1423 C1424 1.502 . S
C1423 C1425 1.561 . S
C1423 C1426 1.526 . S
C1424 H1408 0.959 . S
C1424 H1409 0.959 . S
C1424 H1410 0.961 . S
C1424 C1423 1.502 . S
C1425 H1411 0.960 . S
C1425 H1412 0.961 . S
C1425 H1413 0.959 . S
C1425 C1423 1.561 . S
C1426 C1423 1.526 . S
C1426 C1427 1.396 . S
C1426 C1431 1.390 . S
C1427 C1421 1.465 . S
C1427 C1426 1.396 . S
C1427 C1428 1.399 . S
C1428 H1414 0.929 . S
C1428 C1427 1.399 . S
C1428 C1429 1.385 . S
C1429 H1415 0.931 . S
C1429 C1428 1.385 . S
C1429 C1430 1.389 . S
C1430 C1429 1.389 . S
C1430 C1431 1.387 . S
C1431 H1416 0.930 . S
C1431 C1426 1.390 . S
C1431 C1430 1.387 . S
H1432 C1444 0.930 . S
H1433 C1446 0.930 . S
H1434 C1447 0.930 . S
H1435 C1451 0.959 . S
H1436 C1451 0.959 . S
H1437 C1451 0.961 . S
H1438 C1452 0.960 . S
H1439 C1452 0.961 . S
H1440 C1452 0.959 . S
H1441 C1455 0.929 . S
H1442 C1456 0.931 . S
H1443 C1458 0.930 . S
C1444 H1432 0.930 . S
C1444 C1445 1.399 . S
C1444 C1449 1.399 . S
C1445 C1444 1.399 . S
C1445 C1446 1.376 . S
C1446 H1433 0.930 . S
C1446 C1445 1.376 . S
C1446 C1447 1.388 . S
C1447 H1434 0.930 . S
C1447 C1446 1.388 . S
C1447 C1448 1.390 . S
C1448 C1447 1.390 . S
C1448 C1449 1.394 . S
C1448 C1454 1.465 . S
C1449 C1444 1.399 . S
C1449 C1448 1.394 . S
C1449 C1450 1.516 . S
C1450 C1449 1.516 . S
C1450 C1451 1.502 . S
C1450 C1452 1.561 . S
C1450 C1453 1.526 . S
C1451 H1435 0.959 . S
C1451 H1436 0.959 . S
C1451 H1437 0.961 . S
C1451 C1450 1.502 . S
C1452 H1438 0.960 . S
C1452 H1439 0.961 . S
C1452 H1440 0.959 . S
C1452 C1450 1.561 . S
C1453 C1450 1.526 . S
C1453 C1454 1.396 . S
C1453 C1458 1.390 . S
C1454 C1448 1.465 . S
C1454 C1453 1.396 . S
C1454 C1455 1.399 . S
C1455 H1441 0.929 . S
C1455 C1454 1.399 . S
C1455 C1456 1.385 . S
C1456 H1442 0.931 . S
C1456 C1455 1.385 . S
C1456 C1457 1.389 . S
C1457 C1456 1.389 . S
C1457 C1458 1.387 . S
C1458 H1443 0.930 . S
C1458 C1453 1.390 . S
C1458 C1457 1.387 . S
H1459 C1471 0.930 . S
H1460 C1473 0.930 . S
H1461 C1474 0.930 . S
H1462 C1478 0.959 . S
H1463 C1478 0.959 . S
H1464 C1478 0.961 . S
H1465 C1479 0.960 . S
H1466 C1479 0.961 . S
H1467 C1479 0.959 . S
H1468 C1482 0.929 . S
H1469 C1483 0.931 . S
H1470 C1485 0.930 . S
C1471 H1459 0.930 . S
C1471 C1472 1.399 . S
C1471 C1476 1.399 . S
C1472 C1471 1.399 . S
C1472 C1473 1.376 . S
C1473 H1460 0.930 . S
C1473 C1472 1.376 . S
C1473 C1474 1.388 . S
C1474 H1461 0.930 . S
C1474 C1473 1.388 . S
C1474 C1475 1.390 . S
C1475 C1474 1.390 . S
C1475 C1476 1.394 . S
C1475 C1481 1.465 . S
C1476 C1471 1.399 . S
C1476 C1475 1.394 . S
C1476 C1477 1.516 . S
C1477 C1476 1.516 . S
C1477 C1478 1.502 . S
C1477 C1479 1.561 . S
C1477 C1480 1.526 . S
C1478 H1462 0.959 . S
C1478 H1463 0.959 . S
C1478 H1464 0.961 . S
C1478 C1477 1.502 . S
C1479 H1465 0.960 . S
C1479 H1466 0.961 . S
C1479 H1467 0.959 . S
C1479 C1477 1.561 . S
C1480 C1477 1.526 . S
C1480 C1481 1.396 . S
C1480 C1485 1.390 . S
C1481 C1475 1.465 . S
C1481 C1480 1.396 . S
C1481 C1482 1.399 . S
C1482 H1468 0.929 . S
C1482 C1481 1.399 . S
C1482 C1483 1.385 . S
C1483 H1469 0.931 . S
C1483 C1482 1.385 . S
C1483 C1484 1.389 . S
C1484 C1483 1.389 . S
C1484 C1485 1.387 . S
C1485 H1470 0.930 . S
C1485 C1480 1.390 . S
C1485 C1484 1.387 . S
H1486 C1498 0.930 . S
H1487 C1500 0.930 . S
H1488 C1501 0.930 . S
H1489 C1505 0.959 . S
H1490 C1505 0.959 . S
H1491 C1505 0.961 . S
H1492 C1506 0.960 . S
H1493 C1506 0.961 . S
H1494 C1506 0.959 . S
H1495 C1509 0.929 . S
H1496 C1510 0.931 . S
H1497 C1512 0.930 . S
C1498 H1486 0.930 . S
C1498 C1499 1.399 . S
C1498 C1503 1.399 . S
C1499 C1498 1.399 . S
C1499 C1500 1.376 . S
C1500 H1487 0.930 . S
C1500 C1499 1.376 . S
C1500 C1501 1.388 . S
C1501 H1488 0.930 . S
C1501 C1500 1.388 . S
C1501 C1502 1.390 . S
C1502 C1501 1.390 . S
C1502 C1503 1.394 . S
C1502 C1508 1.465 . S
C1503 C1498 1.399 . S
C1503 C1502 1.394 . S
C1503 C1504 1.516 . S
C1504 C1503 1.516 . S
C1504 C1505 1.502 . S
C1504 C1506 1.561 . S
C1504 C1507 1.526 . S
C1505 H1489 0.959 . S
C1505 H1490 0.959 . S
C1505 H1491 0.961 . S
C1505 C1504 1.502 . S
C1506 H1492 0.960 . S
C1506 H1493 0.961 . S
C1506 H1494 0.959 . S
C1506 C1504 1.561 . S
C1507 C1504 1.526 . S
C1507 C1508 1.396 . S
C1507 C1512 1.390 . S
C1508 C1502 1.465 . S
C1508 C1507 1.396 . S
C1508 C1509 1.399 . S
C1509 H1495 0.929 . S
C1509 C1508 1.399 . S
C1509 C1510 1.385 . S
C1510 H1496 0.931 . S
C1510 C1509 1.385 . S
C1510 C1511 1.389 . S
C1511 C1510 1.389 . S
C1511 C1512 1.387 . S
C1512 H1497 0.930 . S
C1512 C1507 1.390 . S
C1512 C1511 1.387 . S
H1513 C1525 0.930 . S
H1514 C1527 0.930 . S
H1515 C1528 0.930 . S
H1516 C1532 0.959 . S
H1517 C1532 0.959 . S
H1518 C1532 0.961 . S
H1519 C1533 0.960 . S
H1520 C1533 0.961 . S
H1521 C1533 0.959 . S
H1522 C1536 0.929 . S
H1523 C1537 0.931 . S
H1524 C1539 0.930 . S
C1525 H1513 0.930 . S
C1525 C1526 1.399 . S
C1525 C1530 1.399 . S
C1526 C1525 1.399 . S
C1526 C1527 1.376 . S
C1527 H1514 0.930 . S
C1527 C1526 1.376 . S
C1527 C1528 1.388 . S
C1528 H1515 0.930 . S
C1528 C1527 1.388 . S
C1528 C1529 1.390 . S
C1529 C1528 1.390 . S
C1529 C1530 1.394 . S
C1529 C1535 1.465 . S
C1530 C1525 1.399 . S
C1530 C1529 1.394 . S
C1530 C1531 1.516 . S
C1531 C1530 1.516 . S
C1531 C1532 1.502 . S
C1531 C1533 1.561 . S
C1531 C1534 1.526 . S
C1532 H1516 0.959 . S
C1532 H1517 0.959 . S
C1532 H1518 0.961 . S
C1532 C1531 1.502 . S
C1533 H1519 0.960 . S
C1533 H1520 0.961 . S
C1533 H1521 0.959 . S
C1533 C1531 1.561 . S
C1534 C1531 1.526 . S
C1534 C1535 1.396 . S
C1534 C1539 1.390 . S
C1535 C1529 1.465 . S
C1535 C1534 1.396 . S
C1535 C1536 1.399 . S
C1536 H1522 0.929 . S
C1536 C1535 1.399 . S
C1536 C1537 1.385 . S
C1537 H1523 0.931 . S
C1537 C1536 1.385 . S
C1537 C1538 1.389 . S
C1538 C1537 1.389 . S
C1538 C1539 1.387 . S
C1539 H1524 0.930 . S
C1539 C1534 1.390 . S
C1539 C1538 1.387 . S
H1540 C1552 0.930 . S
H1541 C1554 0.930 . S
H1542 C1555 0.930 . S
H1543 C1559 0.959 . S
H1544 C1559 0.959 . S
H1545 C1559 0.961 . S
H1546 C1560 0.960 . S
H1547 C1560 0.961 . S
H1548 C1560 0.959 . S
H1549 C1563 0.929 . S
H1550 C1564 0.931 . S
H1551 C1566 0.930 . S
C1552 H1540 0.930 . S
C1552 C1553 1.399 . S
C1552 C1557 1.399 . S
C1553 C1552 1.399 . S
C1553 C1554 1.376 . S
C1554 H1541 0.930 . S
C1554 C1553 1.376 . S
C1554 C1555 1.388 . S
C1555 H1542 0.930 . S
C1555 C1554 1.388 . S
C1555 C1556 1.390 . S
C1556 C1555 1.390 . S
C1556 C1557 1.394 . S
C1556 C1562 1.465 . S
C1557 C1552 1.399 . S
C1557 C1556 1.394 . S
C1557 C1558 1.516 . S
C1558 C1557 1.516 . S
C1558 C1559 1.502 . S
C1558 C1560 1.561 . S
C1558 C1561 1.526 . S
C1559 H1543 0.959 . S
C1559 H1544 0.959 . S
C1559 H1545 0.961 . S
C1559 C1558 1.502 . S
C1560 H1546 0.960 . S
C1560 H1547 0.961 . S
C1560 H1548 0.959 . S
C1560 C1558 1.561 . S
C1561 C1558 1.526 . S
C1561 C1562 1.396 . S
C1561 C1566 1.390 . S
C1562 C1556 1.465 . S
C1562 C1561 1.396 . S
C1562 C1563 1.399 . S
C1563 H1549 0.929 . S
C1563 C1562 1.399 . S
C1563 C1564 1.385 . S
C1564 H1550 0.931 . S
C1564 C1563 1.385 . S
C1564 C1565 1.389 . S
C1565 C1564 1.389 . S
C1565 C1566 1.387 . S
C1566 H1551 0.930 . S
C1566 C1561 1.390 . S
C1566 C1565 1.387 . S
H1567 C1579 0.930 . S
H1568 C1581 0.930 . S
H1569 C1582 0.930 . S
H1570 C1586 0.959 . S
H1571 C1586 0.959 . S
H1572 C1586 0.961 . S
H1573 C1587 0.960 . S
H1574 C1587 0.961 . S
H1575 C1587 0.959 . S
H1576 C1590 0.929 . S
H1577 C1591 0.931 . S
H1578 C1593 0.930 . S
C1579 H1567 0.930 . S
C1579 C1580 1.399 . S
C1579 C1584 1.399 . S
C1580 C1579 1.399 . S
C1580 C1581 1.376 . S
C1581 H1568 0.930 . S
C1581 C1580 1.376 . S
C1581 C1582 1.388 . S
C1582 H1569 0.930 . S
C1582 C1581 1.388 . S
C1582 C1583 1.390 . S
C1583 C1582 1.390 . S
C1583 C1584 1.394 . S
C1583 C1589 1.465 . S
C1584 C1579 1.399 . S
C1584 C1583 1.394 . S
C1584 C1585 1.516 . S
C1585 C1584 1.516 . S
C1585 C1586 1.502 . S
C1585 C1587 1.561 . S
C1585 C1588 1.526 . S
C1586 H1570 0.959 . S
C1586 H1571 0.959 . S
C1586 H1572 0.961 . S
C1586 C1585 1.502 . S
C1587 H1573 0.960 . S
C1587 H1574 0.961 . S
C1587 H1575 0.959 . S
C1587 C1585 1.561 . S
C1588 C1585 1.526 . S
C1588 C1589 1.396 . S
C1588 C1593 1.390 . S
C1589 C1583 1.465 . S
C1589 C1588 1.396 . S
C1589 C1590 1.399 . S
C1590 H1576 0.929 . S
C1590 C1589 1.399 . S
C1590 C1591 1.385 . S
C1591 H1577 0.931 . S
C1591 C1590 1.385 . S
C1591 C1592 1.389 . S
C1592 C1591 1.389 . S
C1592 C1593 1.387 . S
C1593 H1578 0.930 . S
C1593 C1588 1.390 . S
C1593 C1592 1.387 . S
H1594 C1606 0.930 . S
H1595 C1608 0.930 . S
H1596 C1609 0.930 . S
H1597 C1613 0.959 . S
H1598 C1613 0.959 . S
H1599 C1613 0.961 . S
H1600 C1614 0.960 . S
H1601 C1614 0.961 . S
H1602 C1614 0.959 . S
H1603 C1617 0.929 . S
H1604 C1618 0.931 . S
H1605 C1620 0.930 . S
C1606 H1594 0.930 . S
C1606 C1607 1.399 . S
C1606 C1611 1.399 . S
C1607 C1606 1.399 . S
C1607 C1608 1.376 . S
C1608 H1595 0.930 . S
C1608 C1607 1.376 . S
C1608 C1609 1.388 . S
C1609 H1596 0.930 . S
C1609 C1608 1.388 . S
C1609 C1610 1.390 . S
C1610 C1609 1.390 . S
C1610 C1611 1.394 . S
C1610 C1616 1.465 . S
C1611 C1606 1.399 . S
C1611 C1610 1.394 . S
C1611 C1612 1.516 . S
C1612 C1611 1.516 . S
C1612 C1613 1.502 . S
C1612 C1614 1.561 . S
C1612 C1615 1.526 . S
C1613 H1597 0.959 . S
C1613 H1598 0.959 . S
C1613 H1599 0.961 . S
C1613 C1612 1.502 . S
C1614 H1600 0.960 . S
C1614 H1601 0.961 . S
C1614 H1602 0.959 . S
C1614 C1612 1.561 . S
C1615 C1612 1.526 . S
C1615 C1616 1.396 . S
C1615 C1620 1.390 . S
C1616 C1610 1.465 . S
C1616 C1615 1.396 . S
C1616 C1617 1.399 . S
C1617 H1603 0.929 . S
C1617 C1616 1.399 . S
C1617 C1618 1.385 . S
C1618 H1604 0.931 . S
C1618 C1617 1.385 . S
C1618 C1619 1.389 . S
C1619 C1618 1.389 . S
C1619 C1620 1.387 . S
C1620 H1605 0.930 . S
C1620 C1615 1.390 . S
C1620 C1619 1.387 . S
H1621 C1633 0.930 . S
H1622 C1635 0.930 . S
H1623 C1636 0.930 . S
H1624 C1640 0.959 . S
H1625 C1640 0.959 . S
H1626 C1640 0.961 . S
H1627 C1641 0.960 . S
H1628 C1641 0.961 . S
H1629 C1641 0.959 . S
H1630 C1644 0.929 . S
H1631 C1645 0.931 . S
H1632 C1647 0.930 . S
C1633 H1621 0.930 . S
C1633 C1634 1.399 . S
C1633 C1638 1.399 . S
C1634 C1633 1.399 . S
C1634 C1635 1.376 . S
C1635 H1622 0.930 . S
C1635 C1634 1.376 . S
C1635 C1636 1.388 . S
C1636 H1623 0.930 . S
C1636 C1635 1.388 . S
C1636 C1637 1.390 . S
C1637 C1636 1.390 . S
C1637 C1638 1.394 . S
C1637 C1643 1.465 . S
C1638 C1633 1.399 . S
C1638 C1637 1.394 . S
C1638 C1639 1.516 . S
C1639 C1638 1.516 . S
C1639 C1640 1.502 . S
C1639 C1641 1.561 . S
C1639 C1642 1.526 . S
C1640 H1624 0.959 . S
C1640 H1625 0.959 . S
C1640 H1626 0.961 . S
C1640 C1639 1.502 . S
C1641 H1627 0.960 . S
C1641 H1628 0.961 . S
C1641 H1629 0.959 . S
C1641 C1639 1.561 . S
C1642 C1639 1.526 . S
C1642 C1643 1.396 . S
C1642 C1647 1.390 . S
C1643 C1637 1.465 . S
C1643 C1642 1.396 . S
C1643 C1644 1.399 . S
C1644 H1630 0.929 . S
C1644 C1643 1.399 . S
C1644 C1645 1.385 . S
C1645 H1631 0.931 . S
C1645 C1644 1.385 . S
C1645 C1646 1.389 . S
C1646 C1645 1.389 . S
C1646 C1647 1.387 . S
C1647 H1632 0.930 . S
C1647 C1642 1.390 . S
C1647 C1646 1.387 . S
C365 C10 1.586 . S
C377 C329 1.620 . S
C392 C32 1.524 . S
C404 C351 1.616 . S
C419 C52 1.524 . S
C431 C279 1.615 . S
C446 C301 1.623 . S
C458 C76 1.554 . S
C473 C235 1.623 . S
C485 C96 1.543 . S
C500 C263 1.628 . S
C512 C118 1.601 . S
C527 C197 1.626 . S
C539 C142 1.589 . S
C554 C219 1.622 . S
C566 C172 1.551 . S
C581 C186 1.526 . S
C593 C139 1.616 . S
C608 C175 1.624 . S
C620 C208 1.561 . S
C635 C103 1.625 . S
C647 C238 1.566 . S
C662 C125 1.624 . S
C674 C252 1.561 . S
C689 C51 1.624 . S
C701 C272 1.548 . S
C716 C294 1.551 . S
C728 C87 1.623 . S
C743 C21 1.624 . S
C755 C326 1.546 . S
C770 C348 1.571 . S
C782 C43 1.627 . S
C797 C7 1.287 . S
C809 C59 1.279 . S
C824 C73 1.287 . S
C836 C29 1.277 . S
C851 C153 1.279 . S
C863 C95 1.281 . S
C878 C169 1.268 . S
C890 C117 1.271 . S
C905 C241 1.258 . S
C917 C183 1.268 . S
C932 C249 1.287 . S
C944 C205 1.279 . S
C959 C323 1.287 . S
C971 C271 1.285 . S
C986 C293 1.292 . S
C998 C345 1.292 . S
C1013 C18 1.523 . S
C1025 C140 1.523 . S
C1040 C40 1.519 . S
C1052 C164 1.519 . S
C1067 C106 1.506 . S
C1079 C54 1.507 . S
C1094 C84 1.499 . S
C1106 C128 1.496 . S
C1121 C194 1.497 . S
C1133 C318 1.493 . S
C1148 C340 1.526 . S
C1160 C216 1.526 . S
C1175 C282 1.519 . S
C1187 C228 1.519 . S
C1202 C260 1.526 . S
C1214 C304 1.526 . S
C1229 C15 0.973 . S
C1241 C285 0.847 . S
C1256 C307 0.971 . S
C1268 C37 0.837 . S
C1283 C315 0.852 . S
C1295 C65 0.956 . S
C1310 C337 0.844 . S
C1322 C81 0.970 . S
C1337 C191 0.837 . S
C1349 C109 0.964 . S
C1364 C213 0.838 . S
C1376 C131 0.962 . S
C1391 C147 0.920 . S
C1403 C227 0.879 . S
C1418 C257 0.837 . S
C1430 C161 0.964 . S
C1445 C8 1.421 . S
C1457 C120 1.417 . S
C1472 C98 1.426 . S
C1484 C30 1.425 . S
C1499 C62 1.419 . S
C1511 C162 1.414 . S
C1526 C150 1.416 . S
C1538 C74 1.419 . S
C1553 C184 1.420 . S
C1565 C296 1.421 . S
C1580 C274 1.425 . S
C1592 C206 1.425 . S
C1607 C338 1.415 . S
C1619 C230 1.419 . S
C1634 C250 1.423 . S
C1646 C316 1.426 . S
