# Generated by pormake.
# Topology deh, (3)-cn, num edge types: 1
# Building blocks:
#     Node 0, Type 0, BuildingBlock: WUSLED_clean_sbu_0, # of connection points: 3
#     Node 1, Type 0, BuildingBlock: WUSLED_clean_sbu_0, # of connection points: 3
#     Node 2, Type 0, BuildingBlock: WUSLED_clean_sbu_0, # of connection points: 3
#     Node 3, Type 0, BuildingBlock: WUSLED_clean_sbu_0, # of connection points: 3
#     Node 4, Type 0, BuildingBlock: WUSLED_clean_sbu_0, # of connection points: 3
#     Node 5, Type 0, BuildingBlock: WUSLED_clean_sbu_0, # of connection points: 3
#     Node 6, Type 0, BuildingBlock: WUSLED_clean_sbu_0, # of connection points: 3
#     Node 7, Type 0, BuildingBlock: WUSLED_clean_sbu_0, # of connection points: 3
#     Node 8, Type 0, BuildingBlock: WUSLED_clean_sbu_0, # of connection points: 3
#     Node 9, Type 0, BuildingBlock: WUSLED_clean_sbu_0, # of connection points: 3
#     Node 10, Type 0, BuildingBlock: WUSLED_clean_sbu_0, # of connection points: 3
#     Node 11, Type 0, BuildingBlock: WUSLED_clean_sbu_0, # of connection points: 3
#     Node 12, Type 0, BuildingBlock: WUSLED_clean_sbu_0, # of connection points: 3
#     Node 13, Type 0, BuildingBlock: WUSLED_clean_sbu_0, # of connection points: 3
#     Node 14, Type 0, BuildingBlock: WUSLED_clean_sbu_0, # of connection points: 3
#     Node 15, Type 0, BuildingBlock: WUSLED_clean_sbu_0, # of connection points: 3
#     Node 16, Type 0, BuildingBlock: WUSLED_clean_sbu_0, # of connection points: 3
#     Node 17, Type 0, BuildingBlock: WUSLED_clean_sbu_0, # of connection points: 3
#     Node 18, Type 0, BuildingBlock: WUSLED_clean_sbu_0, # of connection points: 3
#     Node 19, Type 0, BuildingBlock: WUSLED_clean_sbu_0, # of connection points: 3
#     Node 20, Type 0, BuildingBlock: WUSLED_clean_sbu_0, # of connection points: 3
#     Node 21, Type 0, BuildingBlock: WUSLED_clean_sbu_0, # of connection points: 3
#     Node 22, Type 0, BuildingBlock: WUSLED_clean_sbu_0, # of connection points: 3
#     Node 23, Type 0, BuildingBlock: WUSLED_clean_sbu_0, # of connection points: 3
#     Node 24, Type 0, BuildingBlock: WUSLED_clean_sbu_0, # of connection points: 3
#     Node 25, Type 0, BuildingBlock: WUSLED_clean_sbu_0, # of connection points: 3
#     Node 26, Type 0, BuildingBlock: WUSLED_clean_sbu_0, # of connection points: 3
#     Node 27, Type 0, BuildingBlock: WUSLED_clean_sbu_0, # of connection points: 3
#     Node 28, Type 0, BuildingBlock: WUSLED_clean_sbu_0, # of connection points: 3
#     Node 29, Type 0, BuildingBlock: WUSLED_clean_sbu_0, # of connection points: 3
#     Node 30, Type 0, BuildingBlock: WUSLED_clean_sbu_0, # of connection points: 3
#     Node 31, Type 0, BuildingBlock: WUSLED_clean_sbu_0, # of connection points: 3
#     Edge 32, Type (0, 0), BuildingBlock: UVAHIK_clean_linker_0, # of connection points: 2
#     Edge 33, Type (0, 0), BuildingBlock: UVAHIK_clean_linker_0, # of connection points: 2
#     Edge 34, Type (0, 0), BuildingBlock: UVAHIK_clean_linker_0, # of connection points: 2
#     Edge 35, Type (0, 0), BuildingBlock: UVAHIK_clean_linker_0, # of connection points: 2
#     Edge 36, Type (0, 0), BuildingBlock: UVAHIK_clean_linker_0, # of connection points: 2
#     Edge 37, Type (0, 0), BuildingBlock: UVAHIK_clean_linker_0, # of connection points: 2
#     Edge 38, Type (0, 0), BuildingBlock: UVAHIK_clean_linker_0, # of connection points: 2
#     Edge 39, Type (0, 0), BuildingBlock: UVAHIK_clean_linker_0, # of connection points: 2
#     Edge 40, Type (0, 0), BuildingBlock: UVAHIK_clean_linker_0, # of connection points: 2
#     Edge 41, Type (0, 0), BuildingBlock: UVAHIK_clean_linker_0, # of connection points: 2
#     Edge 42, Type (0, 0), BuildingBlock: UVAHIK_clean_linker_0, # of connection points: 2
#     Edge 43, Type (0, 0), BuildingBlock: UVAHIK_clean_linker_0, # of connection points: 2
#     Edge 44, Type (0, 0), BuildingBlock: UVAHIK_clean_linker_0, # of connection points: 2
#     Edge 45, Type (0, 0), BuildingBlock: UVAHIK_clean_linker_0, # of connection points: 2
#     Edge 46, Type (0, 0), BuildingBlock: UVAHIK_clean_linker_0, # of connection points: 2
#     Edge 47, Type (0, 0), BuildingBlock: UVAHIK_clean_linker_0, # of connection points: 2
#     Edge 48, Type (0, 0), BuildingBlock: UVAHIK_clean_linker_0, # of connection points: 2
#     Edge 49, Type (0, 0), BuildingBlock: UVAHIK_clean_linker_0, # of connection points: 2
#     Edge 50, Type (0, 0), BuildingBlock: UVAHIK_clean_linker_0, # of connection points: 2
#     Edge 51, Type (0, 0), BuildingBlock: UVAHIK_clean_linker_0, # of connection points: 2
#     Edge 52, Type (0, 0), BuildingBlock: UVAHIK_clean_linker_0, # of connection points: 2
#     Edge 53, Type (0, 0), BuildingBlock: UVAHIK_clean_linker_0, # of connection points: 2
#     Edge 54, Type (0, 0), BuildingBlock: UVAHIK_clean_linker_0, # of connection points: 2
#     Edge 55, Type (0, 0), BuildingBlock: UVAHIK_clean_linker_0, # of connection points: 2
#     Edge 56, Type (0, 0), BuildingBlock: UVAHIK_clean_linker_0, # of connection points: 2
#     Edge 57, Type (0, 0), BuildingBlock: UVAHIK_clean_linker_0, # of connection points: 2
#     Edge 58, Type (0, 0), BuildingBlock: UVAHIK_clean_linker_0, # of connection points: 2
#     Edge 59, Type (0, 0), BuildingBlock: UVAHIK_clean_linker_0, # of connection points: 2
#     Edge 60, Type (0, 0), BuildingBlock: UVAHIK_clean_linker_0, # of connection points: 2
#     Edge 61, Type (0, 0), BuildingBlock: UVAHIK_clean_linker_0, # of connection points: 2
#     Edge 62, Type (0, 0), BuildingBlock: UVAHIK_clean_linker_0, # of connection points: 2
#     Edge 63, Type (0, 0), BuildingBlock: UVAHIK_clean_linker_0, # of connection points: 2
#     Edge 64, Type (0, 0), BuildingBlock: UVAHIK_clean_linker_0, # of connection points: 2
#     Edge 65, Type (0, 0), BuildingBlock: UVAHIK_clean_linker_0, # of connection points: 2
#     Edge 66, Type (0, 0), BuildingBlock: UVAHIK_clean_linker_0, # of connection points: 2
#     Edge 67, Type (0, 0), BuildingBlock: UVAHIK_clean_linker_0, # of connection points: 2
#     Edge 68, Type (0, 0), BuildingBlock: UVAHIK_clean_linker_0, # of connection points: 2
#     Edge 69, Type (0, 0), BuildingBlock: UVAHIK_clean_linker_0, # of connection points: 2
#     Edge 70, Type (0, 0), BuildingBlock: UVAHIK_clean_linker_0, # of connection points: 2
#     Edge 71, Type (0, 0), BuildingBlock: UVAHIK_clean_linker_0, # of connection points: 2
#     Edge 72, Type (0, 0), BuildingBlock: UVAHIK_clean_linker_0, # of connection points: 2
#     Edge 73, Type (0, 0), BuildingBlock: UVAHIK_clean_linker_0, # of connection points: 2
#     Edge 74, Type (0, 0), BuildingBlock: UVAHIK_clean_linker_0, # of connection points: 2
#     Edge 75, Type (0, 0), BuildingBlock: UVAHIK_clean_linker_0, # of connection points: 2
#     Edge 76, Type (0, 0), BuildingBlock: UVAHIK_clean_linker_0, # of connection points: 2
#     Edge 77, Type (0, 0), BuildingBlock: UVAHIK_clean_linker_0, # of connection points: 2
#     Edge 78, Type (0, 0), BuildingBlock: UVAHIK_clean_linker_0, # of connection points: 2
#     Edge 79, Type (0, 0), BuildingBlock: UVAHIK_clean_linker_0, # of connection points: 2
# Relax obj value: 0.006
# Max RMSD: 0.035
# Mean RMSD: 0.011
data_MOF--net-deh--node1-WUSLED_clean_sbu_0--edge1-UVAHIK_clean_linker_0
_symmetry_space_group_name_H-M    P1
_symmetry_Int_Tables_number       1
_symmetry_cell_setting            triclinic
loop_
_symmetry_equiv_pos_as_xyz
'x, y, z'
_cell_length_a     85.526271
_cell_length_b     88.348527
_cell_length_c     186.79916
_cell_angle_alpha  89.9841
_cell_angle_beta   90.034861
_cell_angle_gamma 89.981872
loop_
_atom_site_label
_atom_site_type_symbol
_atom_site_fract_x
_atom_site_fract_y
_atom_site_fract_z
_atom_type_partial_charge
C0 C 0.12093 0.03442 0.3049 0.0
C1 C 0.11338 0.03587 0.31153 0.0
C2 C 0.08798 0.03406 0.30567 0.0
C3 C 0.09704 0.03568 0.31192 0.0
C4 C 0.09567 0.03249 0.29905 0.0
C5 C 0.11199 0.03268 0.29867 0.0
U6 U 0.16087 0.03813 0.31369 0.0
O7 O 0.18294 0.02617 0.31149 0.0
O8 O 0.18168 0.05084 0.31029 0.0
C9 C 0.19002 0.03853 0.30929 0.0
C10 C 0.13806 0.0349 0.30441 0.0
C11 C 0.19773 0.03741 0.30228 0.0
C12 C 0.19639 0.03581 0.2893 0.0
C13 C 0.18891 0.03653 0.29596 0.0
C14 C 0.22158 0.03669 0.29523 0.0
C15 C 0.21283 0.03592 0.28886 0.0
C16 C 0.21408 0.03744 0.30188 0.0
C17 C 0.16257 0.04346 0.33408 0.0
C18 C 0.18674 0.04514 0.34089 0.0
C19 C 0.16183 0.04878 0.34682 0.0
C20 C 0.15409 0.04644 0.34033 0.0
C21 C 0.17825 0.04816 0.34719 0.0
C22 C 0.17895 0.04281 0.33438 0.0
C23 C 0.15408 0.04122 0.32732 0.0
O24 O 0.14443 0.04804 0.30595 0.0
O25 O 0.14544 0.02341 0.30734 0.0
O26 O 0.15601 0.02801 0.32422 0.0
O27 O 0.15458 0.05263 0.32282 0.0
H28 H 0.12014 0.03727 0.3164 0.0
H29 H 0.09151 0.03708 0.31709 0.0
H30 H 0.08906 0.031 0.29415 0.0
H31 H 0.11765 0.0315 0.29352 0.0
H32 H 0.1893 0.03504 0.28451 0.0
H33 H 0.17625 0.03646 0.29618 0.0
H34 H 0.23423 0.037 0.29509 0.0
H35 H 0.22107 0.03816 0.30671 0.0
H36 H 0.19938 0.04445 0.34099 0.0
H37 H 0.15493 0.05134 0.35153 0.0
H38 H 0.14143 0.04706 0.34018 0.0
H39 H 0.18568 0.04052 0.32959 0.0
C40 C 0.25986 0.86404 0.55084 0.0
C41 C 0.25795 0.8568 0.55747 0.0
C42 C 0.26203 0.83222 0.55185 0.0
C43 C 0.25902 0.84104 0.55797 0.0
C44 C 0.26409 0.83959 0.54523 0.0
C45 C 0.26299 0.85536 0.54473 0.0
U46 U 0.25271 0.90194 0.55967 0.0
O47 O 0.26341 0.92428 0.55799 0.0
O48 O 0.23818 0.92129 0.55632 0.0
C49 C 0.25029 0.93035 0.55569 0.0
C50 C 0.25828 0.88056 0.55026 0.0
C51 C 0.25119 0.939 0.54895 0.0
C52 C 0.26231 0.94353 0.53715 0.0
C53 C 0.26151 0.93489 0.54343 0.0
C54 C 0.24228 0.96028 0.54177 0.0
C55 C 0.2527 0.95633 0.53625 0.0
C56 C 0.24157 0.95171 0.54805 0.0
C57 C 0.246 0.90115 0.58013 0.0
C58 C 0.23302 0.92 0.58753 0.0
C59 C 0.24764 0.89965 0.59309 0.0
C60 C 0.25149 0.894 0.58634 0.0
C61 C 0.23813 0.91257 0.59378 0.0
C62 C 0.23693 0.91433 0.58075 0.0
C63 C 0.24931 0.89414 0.57315 0.0
O64 O 0.24421 0.88582 0.55159 0.0
O65 O 0.26941 0.88846 0.55336 0.0
O66 O 0.26295 0.89732 0.57028 0.0
O67 O 0.23778 0.89412 0.56849 0.0
H68 H 0.25556 0.86335 0.56225 0.0
H69 H 0.25758 0.83576 0.56316 0.0
H70 H 0.26624 0.83314 0.54039 0.0
H71 H 0.26445 0.86077 0.53957 0.0
H72 H 0.27032 0.94009 0.53297 0.0
H73 H 0.26896 0.92504 0.54398 0.0
H74 H 0.23485 0.97015 0.54128 0.0
H75 H 0.23355 0.95508 0.55225 0.0
H76 H 0.22562 0.92992 0.58787 0.0
H77 H 0.25202 0.89381 0.59778 0.0
H78 H 0.25857 0.88386 0.58596 0.0
H79 H 0.2326 0.92005 0.57602 0.0
C80 C 0.38546 0.97224 0.80569 0.0
C81 C 0.39304 0.97083 0.81232 0.0
C82 C 0.41842 0.97239 0.80643 0.0
C83 C 0.40938 0.97092 0.81269 0.0
C84 C 0.4107 0.97391 0.79981 0.0
C85 C 0.39437 0.97383 0.79945 0.0
U86 U 0.34556 0.96877 0.81452 0.0
O87 O 0.32354 0.98082 0.81233 0.0
O88 O 0.32466 0.95614 0.81115 0.0
C89 C 0.31637 0.96849 0.81015 0.0
C90 C 0.36832 0.97185 0.80521 0.0
C91 C 0.30859 0.9696 0.80315 0.0
C92 C 0.30979 0.97111 0.79017 0.0
C93 C 0.31734 0.97041 0.79681 0.0
C94 C 0.28466 0.97037 0.79615 0.0
C95 C 0.29334 0.97104 0.78976 0.0
C96 C 0.29223 0.96964 0.80278 0.0
C97 C 0.34402 0.9635 0.83491 0.0
C98 C 0.31992 0.96209 0.84177 0.0
C99 C 0.34485 0.958 0.84764 0.0
C100 C 0.35254 0.96031 0.84113 0.0
C101 C 0.32844 0.95887 0.84805 0.0
C102 C 0.32766 0.96439 0.83525 0.0
C103 C 0.35245 0.96568 0.82814 0.0
O104 O 0.36189 0.95875 0.80676 0.0
O105 O 0.36103 0.98339 0.80813 0.0
O106 O 0.35056 0.9789 0.82503 0.0
O107 O 0.35187 0.95426 0.82364 0.0
H108 H 0.3863 0.96954 0.81719 0.0
H109 H 0.41494 0.96956 0.81786 0.0
H110 H 0.41729 0.97529 0.7949 0.0
H111 H 0.3887 0.97498 0.79429 0.0
H112 H 0.31682 0.97181 0.78537 0.0
H113 H 0.33 0.97043 0.79701 0.0
H114 H 0.27201 0.9701 0.79603 0.0
H115 H 0.2853 0.96898 0.80763 0.0
H116 H 0.3073 0.96298 0.84191 0.0
H117 H 0.35177 0.95527 0.85232 0.0
H118 H 0.36518 0.9595 0.84095 0.0
H119 H 0.3209 0.96684 0.83048 0.0
C120 C 0.24495 0.14208 0.05102 0.0
C121 C 0.24702 0.1495 0.05759 0.0
C122 C 0.24302 0.17393 0.05181 0.0
C123 C 0.24607 0.16528 0.05798 0.0
C124 C 0.24082 0.16639 0.04524 0.0
C125 C 0.2418 0.15059 0.04486 0.0
U126 U 0.25245 0.1046 0.06014 0.0
O127 O 0.24151 0.08224 0.05884 0.0
O128 O 0.26664 0.085 0.05686 0.0
C129 C 0.25448 0.07594 0.05651 0.0
C130 C 0.24638 0.12552 0.05056 0.0
C131 C 0.25309 0.06705 0.04988 0.0
C132 C 0.24566 0.06468 0.03737 0.0
C133 C 0.24679 0.07336 0.04362 0.0
C134 C 0.25721 0.04335 0.04358 0.0
C135 C 0.25086 0.04954 0.03726 0.0
C136 C 0.25829 0.05202 0.04982 0.0
C137 C 0.26065 0.10634 0.08043 0.0
C138 C 0.26965 0.08529 0.08773 0.0
C139 C 0.26419 0.10957 0.09322 0.0
C140 C 0.25994 0.11542 0.08656 0.0
C141 C 0.26927 0.09448 0.09389 0.0
C142 C 0.26539 0.09119 0.08104 0.0
C143 C 0.25683 0.11313 0.07346 0.0
O144 O 0.26051 0.12023 0.05176 0.0
O145 O 0.23542 0.11783 0.05389 0.0
O146 O 0.24301 0.10981 0.07082 0.0
O147 O 0.26804 0.11279 0.06865 0.0
H148 H 0.24944 0.14308 0.06241 0.0
H149 H 0.24761 0.17069 0.06313 0.0
H150 H 0.23865 0.1727 0.04037 0.0
H151 H 0.24023 0.14503 0.03974 0.0
H152 H 0.24057 0.06978 0.03264 0.0
H153 H 0.24274 0.08498 0.04358 0.0
H154 H 0.26159 0.03185 0.04367 0.0
H155 H 0.26327 0.04699 0.05459 0.0
H156 H 0.27361 0.07366 0.08805 0.0
H157 H 0.26349 0.11688 0.09786 0.0
H158 H 0.25623 0.12712 0.08618 0.0
H159 H 0.266 0.08402 0.07634 0.0
C160 C 0.12088 0.97326 0.70484 0.0
C161 C 0.11363 0.97091 0.69819 0.0
C162 C 0.08801 0.9746 0.70364 0.0
C163 C 0.09733 0.97156 0.69759 0.0
C164 C 0.0954 0.97701 0.71028 0.0
C165 C 0.11169 0.97634 0.71086 0.0
U166 U 0.16108 0.96765 0.69658 0.0
O167 O 0.18342 0.97914 0.69877 0.0
O168 O 0.18132 0.95464 0.70042 0.0
C169 C 0.19005 0.96676 0.70123 0.0
C170 C 0.13797 0.97236 0.70555 0.0
C171 C 0.19781 0.96816 0.70822 0.0
C172 C 0.19672 0.96957 0.72121 0.0
C173 C 0.18911 0.96875 0.71458 0.0
C174 C 0.22178 0.96944 0.71516 0.0
C175 C 0.21317 0.96982 0.72158 0.0
C176 C 0.21416 0.9686 0.70855 0.0
C177 C 0.16354 0.9601 0.6763 0.0
C178 C 0.18502 0.96463 0.66803 0.0
C179 C 0.16521 0.946 0.66516 0.0
C180 C 0.15756 0.9492 0.67159 0.0
C181 C 0.179 0.95371 0.66329 0.0
C182 C 0.1774 0.96775 0.6745 0.0
C183 C 0.15491 0.96337 0.68296 0.0
O184 O 0.14403 0.95893 0.70436 0.0
O185 O 0.14582 0.98337 0.70247 0.0
O186 O 0.15693 0.97684 0.68581 0.0
O187 O 0.15469 0.95241 0.68772 0.0
H188 H 0.12058 0.96856 0.69347 0.0
H189 H 0.09204 0.96983 0.69239 0.0
H190 H 0.08859 0.97917 0.71505 0.0
H191 H 0.11711 0.97813 0.71604 0.0
H192 H 0.18973 0.96969 0.72604 0.0
H193 H 0.17645 0.9684 0.71441 0.0
H194 H 0.23444 0.96985 0.71524 0.0
H195 H 0.22106 0.96821 0.70369 0.0
H196 H 0.1957 0.97064 0.66677 0.0
H197 H 0.16017 0.93766 0.66159 0.0
H198 H 0.14686 0.94321 0.67286 0.0
H199 H 0.18231 0.97616 0.67807 0.0
C200 C 0.24658 0.8634 0.95924 0.0
C201 C 0.24848 0.85615 0.95262 0.0
C202 C 0.24452 0.83158 0.95827 0.0
C203 C 0.24747 0.84038 0.95214 0.0
C204 C 0.24247 0.83897 0.96489 0.0
C205 C 0.24351 0.85474 0.96536 0.0
U206 U 0.25364 0.90134 0.9504 0.0
O207 O 0.24283 0.92365 0.95207 0.0
O208 O 0.26806 0.92073 0.95378 0.0
C209 C 0.25592 0.92975 0.95439 0.0
C210 C 0.24809 0.87994 0.9598 0.0
C211 C 0.25497 0.93844 0.96112 0.0
C212 C 0.24328 0.94351 0.97276 0.0
C213 C 0.2441 0.93482 0.9665 0.0
C214 C 0.26436 0.95933 0.96842 0.0
C215 C 0.25341 0.95587 0.97379 0.0
C216 C 0.26509 0.95073 0.96215 0.0
C217 C 0.26061 0.90099 0.93004 0.0
C218 C 0.26842 0.92289 0.92302 0.0
C219 C 0.2634 0.89892 0.91715 0.0
C220 C 0.25985 0.89239 0.92376 0.0
C221 C 0.26779 0.91424 0.91669 0.0
C222 C 0.26484 0.91632 0.92965 0.0
C223 C 0.25726 0.89363 0.93692 0.0
O224 O 0.26215 0.88524 0.95849 0.0
O225 O 0.23695 0.88779 0.95667 0.0
O226 O 0.24358 0.8967 0.93977 0.0
O227 O 0.26874 0.89366 0.9416 0.0
H228 H 0.25083 0.86269 0.94783 0.0
H229 H 0.2489 0.83509 0.94695 0.0
H230 H 0.24038 0.83254 0.96973 0.0
H231 H 0.24206 0.86017 0.97052 0.0
H232 H 0.23484 0.94045 0.97683 0.0
H233 H 0.23623 0.92531 0.96585 0.0
H234 H 0.27221 0.96887 0.96901 0.0
H235 H 0.27354 0.95372 0.95807 0.0
H236 H 0.27161 0.93475 0.92285 0.0
H237 H 0.26303 0.89186 0.91242 0.0
H238 H 0.25667 0.88052 0.92398 0.0
H239 H 0.26544 0.92314 0.93446 0.0
C240 C 0.38557 0.03467 0.20507 0.0
C241 C 0.39317 0.03639 0.19847 0.0
C242 C 0.41852 0.03439 0.20437 0.0
C243 C 0.40951 0.03624 0.19812 0.0
C244 C 0.41078 0.03254 0.21096 0.0
C245 C 0.39445 0.03269 0.2113 0.0
U246 U 0.34575 0.03826 0.19618 0.0
O247 O 0.32365 0.02633 0.19833 0.0
O248 O 0.32488 0.05102 0.19946 0.0
C249 C 0.31651 0.03872 0.20046 0.0
C250 C 0.36842 0.03513 0.20554 0.0
C251 C 0.30857 0.03771 0.20742 0.0
C252 C 0.30943 0.03672 0.22042 0.0
C253 C 0.31716 0.03734 0.21382 0.0
C254 C 0.28448 0.03668 0.21427 0.0
C255 C 0.29297 0.03646 0.22073 0.0
C256 C 0.29222 0.03731 0.20768 0.0
C257 C 0.34435 0.04343 0.17578 0.0
C258 C 0.32029 0.04483 0.16888 0.0
C259 C 0.34524 0.0491 0.16307 0.0
C260 C 0.3529 0.04673 0.16958 0.0
C261 C 0.32884 0.04818 0.16263 0.0
C262 C 0.328 0.04248 0.1754 0.0
C263 C 0.35275 0.04123 0.18256 0.0
O264 O 0.36205 0.04825 0.20396 0.0
O265 O 0.3611 0.02361 0.20261 0.0
O266 O 0.35077 0.02804 0.18569 0.0
O267 O 0.3522 0.05268 0.18704 0.0
H268 H 0.38646 0.03797 0.19361 0.0
H269 H 0.41509 0.03787 0.19297 0.0
H270 H 0.41734 0.03087 0.21586 0.0
H271 H 0.38875 0.03129 0.21644 0.0
H272 H 0.31634 0.03674 0.22528 0.0
H273 H 0.32982 0.03766 0.21371 0.0
H274 H 0.27182 0.03626 0.2143 0.0
H275 H 0.28542 0.03753 0.20279 0.0
H276 H 0.30767 0.0439 0.16871 0.0
H277 H 0.35217 0.05194 0.15841 0.0
H278 H 0.36553 0.0476 0.16979 0.0
H279 H 0.32122 0.03994 0.18015 0.0
C280 C 0.25995 0.14207 0.45886 0.0
C281 C 0.2573 0.14971 0.45238 0.0
C282 C 0.26122 0.17398 0.45832 0.0
C283 C 0.25793 0.16552 0.45211 0.0
C284 C 0.26404 0.16621 0.46478 0.0
C285 C 0.2634 0.15039 0.46504 0.0
U286 U 0.2536 0.10443 0.4496 0.0
O287 O 0.26498 0.08231 0.45103 0.0
O288 O 0.23972 0.08457 0.45279 0.0
C289 C 0.25206 0.07576 0.45326 0.0
C290 C 0.25883 0.12548 0.45921 0.0
C291 C 0.25336 0.06691 0.45991 0.0
C292 C 0.26126 0.06435 0.47236 0.0
C293 C 0.2602 0.07302 0.4661 0.0
C294 C 0.24853 0.04345 0.46632 0.0
C295 C 0.25544 0.04943 0.47255 0.0
C296 C 0.24753 0.0521 0.46007 0.0
C297 C 0.24625 0.10545 0.42928 0.0
C298 C 0.23878 0.08362 0.42215 0.0
C299 C 0.24319 0.10786 0.41642 0.0
C300 C 0.24672 0.11427 0.42306 0.0
C301 C 0.23911 0.09248 0.41587 0.0
C302 C 0.24235 0.09006 0.4288 0.0
C303 C 0.24957 0.11266 0.43621 0.0
O304 O 0.24487 0.11994 0.45788 0.0
O305 O 0.27008 0.11805 0.45596 0.0
O306 O 0.26336 0.10977 0.43899 0.0
O307 O 0.23818 0.1122 0.44092 0.0
H308 H 0.25458 0.14344 0.44756 0.0
H309 H 0.25551 0.17112 0.44708 0.0
H310 H 0.26683 0.17234 0.46963 0.0
H311 H 0.26552 0.14466 0.47007 0.0
H312 H 0.2668 0.06928 0.47702 0.0
H313 H 0.26474 0.08447 0.46607 0.0
H314 H 0.24366 0.03214 0.4663 0.0
H315 H 0.24211 0.04723 0.45536 0.0
H316 H 0.23583 0.07171 0.42191 0.0
H317 H 0.24332 0.11507 0.41173 0.0
H318 H 0.24966 0.12618 0.42335 0.0
H319 H 0.24197 0.08309 0.43357 0.0
C320 C 0.88637 0.97251 0.70469 0.0
C321 C 0.89367 0.97022 0.69805 0.0
C322 C 0.91923 0.97405 0.70355 0.0
C323 C 0.90997 0.97097 0.69749 0.0
C324 C 0.91178 0.97642 0.71018 0.0
C325 C 0.89549 0.97565 0.71073 0.0
U326 U 0.84634 0.96659 0.69632 0.0
O327 O 0.82615 0.95344 0.70008 0.0
O328 O 0.82386 0.97792 0.6984 0.0
C329 C 0.8173 0.96549 0.70084 0.0
C330 C 0.86928 0.9715 0.70536 0.0
C331 C 0.80936 0.96685 0.70779 0.0
C332 C 0.81014 0.96827 0.72078 0.0
C333 C 0.81791 0.96748 0.71419 0.0
C334 C 0.78522 0.96801 0.7146 0.0
C335 C 0.79368 0.96843 0.72106 0.0
C336 C 0.79301 0.96722 0.70803 0.0
C337 C 0.84422 0.95899 0.67606 0.0
C338 C 0.82181 0.96209 0.66817 0.0
C339 C 0.84336 0.94594 0.66463 0.0
C340 C 0.85106 0.94927 0.67103 0.0
C341 C 0.82866 0.95232 0.66311 0.0
C342 C 0.82949 0.96534 0.67461 0.0
C343 C 0.85278 0.96232 0.68273 0.0
O344 O 0.86137 0.98244 0.70225 0.0
O345 O 0.86334 0.95802 0.70417 0.0
O346 O 0.85301 0.95139 0.68749 0.0
O347 O 0.85057 0.97579 0.68555 0.0
H348 H 0.88677 0.96782 0.69332 0.0
H349 H 0.9153 0.96927 0.69229 0.0
H350 H 0.91856 0.97861 0.71497 0.0
H351 H 0.89003 0.9774 0.7159 0.0
H352 H 0.81702 0.96841 0.72565 0.0
H353 H 0.83058 0.96719 0.7141 0.0
H354 H 0.77257 0.96837 0.71461 0.0
H355 H 0.78623 0.9668 0.70313 0.0
H356 H 0.81043 0.96706 0.66718 0.0
H357 H 0.84903 0.93852 0.66081 0.0
H358 H 0.86242 0.94429 0.67205 0.0
H359 H 0.82393 0.9728 0.67844 0.0
C360 C 0.74551 0.14271 0.45962 0.0
C361 C 0.74867 0.1503 0.45318 0.0
C362 C 0.74414 0.17461 0.45899 0.0
C363 C 0.74798 0.16611 0.45287 0.0
C364 C 0.74083 0.16688 0.46541 0.0
C365 C 0.74152 0.15107 0.46572 0.0
U366 U 0.75427 0.10522 0.45067 0.0
O367 O 0.76778 0.08557 0.4544 0.0
O368 O 0.74299 0.0829 0.45164 0.0
C369 C 0.75556 0.07656 0.45438 0.0
C370 C 0.74673 0.12613 0.46003 0.0
C371 C 0.75317 0.06777 0.46098 0.0
C372 C 0.74964 0.06639 0.47387 0.0
C373 C 0.75127 0.07497 0.46761 0.0
C374 C 0.75153 0.04334 0.4669 0.0
C375 C 0.74983 0.05045 0.4736 0.0
C376 C 0.75319 0.05193 0.46066 0.0
C377 C 0.76628 0.10683 0.43077 0.0
C378 C 0.76667 0.08624 0.42212 0.0
C379 C 0.78087 0.10941 0.4197 0.0
C380 C 0.77588 0.11535 0.42623 0.0
C381 C 0.77633 0.0948 0.41755 0.0
C382 C 0.76173 0.09219 0.4287 0.0
C383 C 0.76114 0.11364 0.43757 0.0
O384 O 0.73633 0.1186 0.45627 0.0
O385 O 0.76098 0.12075 0.45934 0.0
O386 O 0.77143 0.11339 0.44279 0.0
O387 O 0.74684 0.11048 0.43968 0.0
H388 H 0.75184 0.144 0.44842 0.0
H389 H 0.75079 0.17167 0.44787 0.0
H390 H 0.73763 0.17306 0.4702 0.0
H391 H 0.73902 0.14538 0.47072 0.0
H392 H 0.74817 0.07222 0.47893 0.0
H393 H 0.75117 0.08722 0.46795 0.0
H394 H 0.75194 0.03112 0.46649 0.0
H395 H 0.7547 0.04619 0.45558 0.0
H396 H 0.76308 0.07491 0.42065 0.0
H397 H 0.7881 0.11638 0.41626 0.0
H398 H 0.77947 0.12668 0.42773 0.0
H399 H 0.75438 0.08539 0.43216 0.0
C400 C 0.62033 0.03511 0.2055 0.0
C401 C 0.61282 0.03695 0.19888 0.0
C402 C 0.58739 0.03468 0.20466 0.0
C403 C 0.59648 0.03672 0.19846 0.0
C404 C 0.59503 0.03272 0.21128 0.0
C405 C 0.61136 0.03294 0.21168 0.0
U406 U 0.66026 0.04005 0.19687 0.0
O407 O 0.68082 0.05282 0.20051 0.0
O408 O 0.68253 0.02827 0.1989 0.0
C409 C 0.6894 0.04058 0.20129 0.0
C410 C 0.63745 0.03572 0.20604 0.0
C411 C 0.69732 0.03913 0.20825 0.0
C412 C 0.6965 0.03788 0.22124 0.0
C413 C 0.68875 0.03872 0.21465 0.0
C414 C 0.72142 0.03762 0.21509 0.0
C415 C 0.71295 0.03742 0.22155 0.0
C416 C 0.71367 0.03848 0.20851 0.0
C417 C 0.66208 0.04755 0.1766 0.0
C418 C 0.68422 0.04399 0.1686 0.0
C419 C 0.663 0.06066 0.16518 0.0
C420 C 0.65537 0.05746 0.17161 0.0
C421 C 0.6775 0.05396 0.16359 0.0
C422 C 0.67662 0.04087 0.17507 0.0
C423 C 0.65361 0.0444 0.1833 0.0
O424 O 0.64498 0.02459 0.20289 0.0
O425 O 0.64368 0.04905 0.20479 0.0
O426 O 0.65371 0.05535 0.18806 0.0
O427 O 0.65561 0.0309 0.18613 0.0
H428 H 0.6196 0.0387 0.19405 0.0
H429 H 0.59098 0.03843 0.1933 0.0
H430 H 0.5884 0.0309 0.21614 0.0
H431 H 0.61698 0.03147 0.21684 0.0
H432 H 0.68961 0.03791 0.2261 0.0
H433 H 0.6761 0.03923 0.21454 0.0
H434 H 0.73407 0.03704 0.21511 0.0
H435 H 0.72046 0.03873 0.20361 0.0
H436 H 0.69545 0.03877 0.16755 0.0
H437 H 0.65742 0.06823 0.16139 0.0
H438 H 0.64416 0.0627 0.17268 0.0
H439 H 0.68208 0.03326 0.17887 0.0
C440 C 0.76008 0.86374 0.95934 0.0
C441 C 0.75773 0.85646 0.95275 0.0
C442 C 0.76179 0.83189 0.95839 0.0
C443 C 0.75857 0.84068 0.95228 0.0
C444 C 0.76423 0.8393 0.96497 0.0
C445 C 0.76337 0.85509 0.96544 0.0
U446 U 0.75332 0.90178 0.95051 0.0
O447 O 0.73964 0.92153 0.95398 0.0
O448 O 0.76485 0.92381 0.95208 0.0
C449 C 0.75201 0.93031 0.95443 0.0
C450 C 0.7589 0.8803 0.95988 0.0
C451 C 0.75359 0.93896 0.96111 0.0
C452 C 0.75547 0.94021 0.97409 0.0
C453 C 0.75423 0.93169 0.96778 0.0
C454 C 0.75561 0.9633 0.96708 0.0
C455 C 0.75615 0.95613 0.97381 0.0
C456 C 0.75434 0.95478 0.9608 0.0
C457 C 0.74544 0.90171 0.93015 0.0
C458 C 0.72893 0.91743 0.92256 0.0
C459 C 0.75073 0.90379 0.9174 0.0
C460 C 0.75449 0.89799 0.92414 0.0
C461 C 0.73773 0.91338 0.91649 0.0
C462 C 0.73275 0.91168 0.92932 0.0
C463 C 0.74893 0.89431 0.93706 0.0
O464 O 0.77003 0.88791 0.95664 0.0
O465 O 0.74488 0.88586 0.9587 0.0
O466 O 0.73771 0.8943 0.94187 0.0
O467 O 0.76284 0.89694 0.93979 0.0
H468 H 0.75521 0.863 0.94798 0.0
H469 H 0.75682 0.83538 0.94712 0.0
H470 H 0.76654 0.83288 0.9698 0.0
H471 H 0.76517 0.86053 0.97057 0.0
H472 H 0.75603 0.93433 0.97917 0.0
H473 H 0.75374 0.91946 0.96812 0.0
H474 H 0.75588 0.97552 0.96667 0.0
H475 H 0.75382 0.96058 0.95569 0.0
H476 H 0.71875 0.92465 0.92206 0.0
H477 H 0.75796 0.90066 0.91288 0.0
H478 H 0.76434 0.89035 0.92465 0.0
H479 H 0.72556 0.91477 0.93386 0.0
C480 C 0.88614 0.03389 0.30508 0.0
C481 C 0.89379 0.03529 0.31169 0.0
C482 C 0.9191 0.0335 0.30576 0.0
C483 C 0.91014 0.03508 0.31203 0.0
C484 C 0.91132 0.03197 0.29916 0.0
C485 C 0.89498 0.03217 0.29883 0.0
U486 U 0.84652 0.03785 0.31406 0.0
O487 O 0.82576 0.05088 0.31084 0.0
O488 O 0.82423 0.02621 0.31197 0.0
C489 C 0.81724 0.03868 0.30985 0.0
C490 C 0.869 0.0345 0.30464 0.0
C491 C 0.80933 0.03775 0.30287 0.0
C492 C 0.81033 0.03614 0.28989 0.0
C493 C 0.81798 0.03676 0.29651 0.0
C494 C 0.7853 0.03735 0.29594 0.0
C495 C 0.79389 0.03647 0.28952 0.0
C496 C 0.79297 0.03799 0.30255 0.0
C497 C 0.84602 0.04298 0.33455 0.0
C498 C 0.82392 0.05171 0.34161 0.0
C499 C 0.84755 0.04313 0.34752 0.0
C500 C 0.85429 0.04008 0.34087 0.0
C501 C 0.83237 0.04921 0.34798 0.0
C502 C 0.8307 0.04862 0.33494 0.0
C503 C 0.85391 0.04063 0.32765 0.0
O504 O 0.86159 0.02304 0.30757 0.0
O505 O 0.86278 0.04768 0.30623 0.0
O506 O 0.85343 0.05209 0.32316 0.0
O507 O 0.85154 0.02748 0.32455 0.0
H508 H 0.88711 0.03668 0.31658 0.0
H509 H 0.91574 0.03646 0.31719 0.0
H510 H 0.91785 0.03051 0.29424 0.0
H511 H 0.88925 0.03104 0.29368 0.0
H512 H 0.81729 0.03528 0.28507 0.0
H513 H 0.83065 0.03651 0.29667 0.0
H514 H 0.77265 0.03782 0.29585 0.0
H515 H 0.78612 0.03879 0.30741 0.0
H516 H 0.81225 0.05647 0.34177 0.0
H517 H 0.85427 0.04082 0.35231 0.0
H518 H 0.8661 0.03565 0.34066 0.0
H519 H 0.82413 0.05092 0.3301 0.0
C520 C 0.75936 0.1421 0.05095 0.0
C521 C 0.75724 0.14955 0.05751 0.0
C522 C 0.76092 0.17398 0.05169 0.0
C523 C 0.758 0.16534 0.05788 0.0
C524 C 0.76314 0.16641 0.04514 0.0
C525 C 0.76235 0.1506 0.04477 0.0
U526 U 0.75301 0.10451 0.06017 0.0
O527 O 0.73938 0.08451 0.057 0.0
O528 O 0.76463 0.08246 0.05885 0.0
C529 C 0.7518 0.07578 0.0566 0.0
C530 C 0.75827 0.12552 0.05053 0.0
C531 C 0.75333 0.06691 0.04998 0.0
C532 C 0.75569 0.06534 0.03703 0.0
C533 C 0.75448 0.07402 0.04328 0.0
C534 C 0.75477 0.04241 0.04413 0.0
C535 C 0.75583 0.04941 0.03738 0.0
C536 C 0.75353 0.05108 0.05036 0.0
C537 C 0.74548 0.10621 0.08054 0.0
C538 C 0.7335 0.08687 0.08801 0.0
C539 C 0.74589 0.10864 0.09348 0.0
C540 C 0.74983 0.11415 0.08671 0.0
C541 C 0.73745 0.09506 0.09422 0.0
C542 C 0.73748 0.0924 0.08122 0.0
C543 C 0.74883 0.11297 0.07351 0.0
O544 O 0.76951 0.11809 0.05381 0.0
O545 O 0.74432 0.11993 0.05182 0.0
O546 O 0.73749 0.11235 0.06877 0.0
O547 O 0.76268 0.11006 0.07079 0.0
H548 H 0.75496 0.14313 0.06235 0.0
H549 H 0.75645 0.17077 0.06303 0.0
H550 H 0.76521 0.17271 0.04025 0.0
H551 H 0.76397 0.14503 0.03966 0.0
H552 H 0.75667 0.07111 0.03193 0.0
H553 H 0.75441 0.08626 0.04289 0.0
H554 H 0.75462 0.03019 0.04459 0.0
H555 H 0.75261 0.04542 0.05549 0.0
H556 H 0.72693 0.07642 0.08838 0.0
H557 H 0.74939 0.11509 0.09815 0.0
H558 H 0.75608 0.12478 0.08629 0.0
H559 H 0.73405 0.08608 0.0765 0.0
C560 C 0.6202 0.97165 0.80516 0.0
C561 C 0.61278 0.97031 0.81183 0.0
C562 C 0.58727 0.97204 0.80606 0.0
C563 C 0.59645 0.97052 0.81228 0.0
C564 C 0.59483 0.97351 0.7994 0.0
C565 C 0.61115 0.97331 0.79897 0.0
U566 U 0.6603 0.96772 0.81379 0.0
O567 O 0.68092 0.95477 0.81033 0.0
O568 O 0.68244 0.97944 0.81147 0.0
C569 C 0.68938 0.96699 0.80929 0.0
C570 C 0.63732 0.97105 0.8046 0.0
C571 C 0.69714 0.96796 0.80229 0.0
C572 C 0.69595 0.96937 0.78931 0.0
C573 C 0.68839 0.9687 0.79594 0.0
C574 C 0.72107 0.96872 0.7953 0.0
C575 C 0.71239 0.96936 0.78891 0.0
C576 C 0.71349 0.96802 0.80193 0.0
C577 C 0.66268 0.96258 0.83415 0.0
C578 C 0.68564 0.95371 0.84058 0.0
C579 C 0.66336 0.96341 0.84714 0.0
C580 C 0.65556 0.96613 0.84069 0.0
C581 C 0.67844 0.95703 0.84717 0.0
C582 C 0.67784 0.95652 0.83412 0.0
C583 C 0.6539 0.9649 0.82747 0.0
O584 O 0.64485 0.98252 0.80747 0.0
O585 O 0.64363 0.95788 0.80614 0.0
O586 O 0.65397 0.95346 0.82297 0.0
O587 O 0.65587 0.97807 0.82433 0.0
H588 H 0.61963 0.96897 0.81667 0.0
H589 H 0.59101 0.9692 0.81747 0.0
H590 H 0.58814 0.97492 0.79452 0.0
H591 H 0.61671 0.97439 0.79378 0.0
H592 H 0.68892 0.97004 0.78449 0.0
H593 H 0.67572 0.96872 0.79613 0.0
H594 H 0.73372 0.96849 0.79519 0.0
H595 H 0.72042 0.96741 0.80678 0.0
H596 H 0.69731 0.94896 0.84041 0.0
H597 H 0.6574 0.96592 0.85212 0.0
H598 H 0.64385 0.9708 0.84081 0.0
H599 H 0.68357 0.95379 0.82911 0.0
C600 C 0.74681 0.86415 0.55043 0.0
C601 C 0.74917 0.85658 0.55695 0.0
C602 C 0.74574 0.83223 0.55101 0.0
C603 C 0.74864 0.84077 0.55724 0.0
C604 C 0.74326 0.83993 0.54451 0.0
C605 C 0.7438 0.85575 0.54422 0.0
U606 U 0.75274 0.90163 0.5598 0.0
O607 O 0.76625 0.92178 0.55675 0.0
O608 O 0.74096 0.92363 0.55851 0.0
C609 C 0.75377 0.93043 0.55634 0.0
C610 C 0.74772 0.88075 0.55008 0.0
C611 C 0.7523 0.93945 0.54975 0.0
C612 C 0.75109 0.94142 0.53678 0.0
C613 C 0.75209 0.93256 0.54298 0.0
C614 C 0.75027 0.96409 0.54406 0.0
C615 C 0.75027 0.95732 0.53724 0.0
C616 C 0.7513 0.95523 0.55025 0.0
C617 C 0.76023 0.89971 0.58017 0.0
C618 C 0.77189 0.91918 0.58766 0.0
C619 C 0.76012 0.89705 0.5931 0.0
C620 C 0.75619 0.89156 0.58632 0.0
C621 C 0.76825 0.9108 0.59385 0.0
C622 C 0.76791 0.91367 0.58086 0.0
C623 C 0.75693 0.893 0.57312 0.0
O624 O 0.73639 0.888 0.55338 0.0
O625 O 0.76161 0.88645 0.55141 0.0
O626 O 0.76827 0.89374 0.56839 0.0
O627 O 0.74307 0.89587 0.57039 0.0
H628 H 0.75155 0.86291 0.56179 0.0
H629 H 0.7508 0.83523 0.56232 0.0
H630 H 0.7408 0.83373 0.53963 0.0
H631 H 0.74191 0.86143 0.53915 0.0
H632 H 0.75126 0.93583 0.53162 0.0
H633 H 0.75286 0.92036 0.54251 0.0
H634 H 0.74939 0.97626 0.54463 0.0
H635 H 0.75136 0.96073 0.55543 0.0
H636 H 0.77822 0.92977 0.58805 0.0
H637 H 0.75687 0.89045 0.59775 0.0
H638 H 0.75019 0.8808 0.58589 0.0
H639 H 0.7711 0.92015 0.57616 0.0
C640 C 0.621 0.51288 0.80519 0.0
C641 C 0.61338 0.51496 0.81176 0.0
C642 C 0.58805 0.51222 0.80591 0.0
C643 C 0.59704 0.51461 0.81213 0.0
C644 C 0.59582 0.51 0.79935 0.0
C645 C 0.61215 0.51034 0.799 0.0
U646 U 0.66086 0.51794 0.81393 0.0
O647 O 0.68318 0.50628 0.8119 0.0
O648 O 0.6814 0.53084 0.81035 0.0
C649 C 0.69002 0.51864 0.80954 0.0
C650 C 0.63813 0.51362 0.8047 0.0
C651 C 0.69794 0.51727 0.80259 0.0
C652 C 0.69712 0.51604 0.78959 0.0
C653 C 0.68938 0.5169 0.79618 0.0
C654 C 0.72204 0.51572 0.79576 0.0
C655 C 0.71357 0.51554 0.7893 0.0
C656 C 0.71429 0.51659 0.80234 0.0
C657 C 0.66242 0.52485 0.83421 0.0
C658 C 0.68652 0.52853 0.84089 0.0
C659 C 0.66153 0.53058 0.84691 0.0
C660 C 0.65386 0.52742 0.84048 0.0
C661 C 0.67796 0.5312 0.8472 0.0
C662 C 0.6788 0.52538 0.83444 0.0
C663 C 0.65398 0.52189 0.8275 0.0
O664 O 0.64425 0.52697 0.80602 0.0
O665 O 0.64571 0.50248 0.80782 0.0
O666 O 0.65624 0.5085 0.82462 0.0
O667 O 0.6542 0.53296 0.8228 0.0
H668 H 0.62007 0.51698 0.8166 0.0
H669 H 0.59144 0.51653 0.81725 0.0
H670 H 0.58928 0.50791 0.79448 0.0
H671 H 0.61786 0.50867 0.79389 0.0
H672 H 0.69022 0.51609 0.78473 0.0
H673 H 0.67672 0.51742 0.79628 0.0
H674 H 0.73469 0.51511 0.79575 0.0
H675 H 0.72108 0.51681 0.80724 0.0
H676 H 0.69918 0.52878 0.84093 0.0
H677 H 0.65455 0.53283 0.85163 0.0
H678 H 0.64119 0.52713 0.84039 0.0
H679 H 0.68559 0.52341 0.82963 0.0
C680 C 0.75809 0.3694 0.05271 0.0
C681 C 0.75599 0.36163 0.05919 0.0
C682 C 0.76014 0.33752 0.05313 0.0
C683 C 0.757 0.34582 0.0594 0.0
C684 C 0.7623 0.34543 0.04666 0.0
C685 C 0.76127 0.36123 0.04646 0.0
U686 U 0.75161 0.40725 0.06193 0.0
O687 O 0.76315 0.42927 0.06031 0.0
O688 O 0.73787 0.42707 0.05858 0.0
C689 C 0.75027 0.43578 0.05801 0.0
C690 C 0.75682 0.38598 0.05241 0.0
C691 C 0.75165 0.44415 0.05123 0.0
C692 C 0.75318 0.44472 0.03824 0.0
C693 C 0.75222 0.43654 0.04465 0.0
C694 C 0.75321 0.46818 0.04496 0.0
C695 C 0.7536 0.46066 0.03831 0.0
C696 C 0.75223 0.45999 0.05135 0.0
C697 C 0.74427 0.40723 0.08221 0.0
C698 C 0.73852 0.42988 0.08911 0.0
C699 C 0.73977 0.40548 0.09501 0.0
C700 C 0.74319 0.39857 0.08847 0.0
C701 C 0.73736 0.42121 0.09542 0.0
C702 C 0.74197 0.42293 0.08255 0.0
C703 C 0.74755 0.39958 0.07539 0.0
O704 O 0.74284 0.39146 0.05376 0.0
O705 O 0.76807 0.39345 0.05566 0.0
O706 O 0.76136 0.40225 0.07257 0.0
O707 O 0.73616 0.39987 0.07066 0.0
H708 H 0.75356 0.36779 0.06408 0.0
H709 H 0.75546 0.34012 0.06448 0.0
H710 H 0.76453 0.3394 0.04172 0.0
H711 H 0.76287 0.36706 0.04141 0.0
H712 H 0.75329 0.43857 0.03323 0.0
H713 H 0.75179 0.42429 0.04446 0.0
H714 H 0.75377 0.48041 0.04523 0.0
H715 H 0.75188 0.46604 0.05639 0.0
H716 H 0.73688 0.44203 0.08924 0.0
H717 H 0.73871 0.39842 0.09972 0.0
H718 H 0.74487 0.38642 0.08828 0.0
H719 H 0.74278 0.42979 0.07775 0.0
C720 C 0.88599 0.49407 0.30561 0.0
C721 C 0.89339 0.49217 0.31225 0.0
C722 C 0.91887 0.49566 0.30664 0.0
C723 C 0.9097 0.49295 0.31277 0.0
C724 C 0.91133 0.49763 0.30001 0.0
C725 C 0.89503 0.49683 0.2995 0.0
U726 U 0.84603 0.48822 0.31408 0.0
O727 O 0.82355 0.49955 0.31198 0.0
O728 O 0.82579 0.47505 0.31038 0.0
C729 C 0.81696 0.48711 0.30958 0.0
C730 C 0.86889 0.49301 0.30498 0.0
C731 C 0.80903 0.48844 0.30262 0.0
C732 C 0.80981 0.48966 0.28962 0.0
C733 C 0.81757 0.48882 0.29621 0.0
C734 C 0.7849 0.48997 0.2958 0.0
C735 C 0.79335 0.49015 0.28933 0.0
C736 C 0.79268 0.48911 0.30237 0.0
C737 C 0.8442 0.48119 0.33436 0.0
C738 C 0.82002 0.47729 0.34093 0.0
C739 C 0.84494 0.47537 0.34705 0.0
C740 C 0.85268 0.47862 0.34065 0.0
C741 C 0.82851 0.47465 0.34728 0.0
C742 C 0.82781 0.48054 0.33452 0.0
C743 C 0.85271 0.4843 0.32768 0.0
O744 O 0.863 0.47953 0.30625 0.0
O745 O 0.861 0.50398 0.30806 0.0
O746 O 0.8503 0.49767 0.3248 0.0
O747 O 0.85275 0.47325 0.32297 0.0
H748 H 0.88655 0.49005 0.31703 0.0
H749 H 0.9151 0.49156 0.31797 0.0
H750 H 0.91803 0.49953 0.29517 0.0
H751 H 0.88949 0.49828 0.29433 0.0
H752 H 0.81668 0.48962 0.28476 0.0
H753 H 0.83023 0.48831 0.29631 0.0
H754 H 0.77226 0.49058 0.29579 0.0
H755 H 0.78591 0.48889 0.30727 0.0
H756 H 0.80736 0.47696 0.34093 0.0
H757 H 0.85186 0.47314 0.35179 0.0
H758 H 0.86535 0.47901 0.3406 0.0
H759 H 0.82108 0.4825 0.32969 0.0
C760 C 0.74817 0.63672 0.55251 0.0
C761 C 0.7507 0.64464 0.55892 0.0
C762 C 0.74705 0.66865 0.55269 0.0
C763 C 0.75013 0.66047 0.55901 0.0
C764 C 0.74438 0.66058 0.54631 0.0
C765 C 0.74494 0.64477 0.54623 0.0
U766 U 0.75438 0.59878 0.56179 0.0
O767 O 0.74245 0.57694 0.56023 0.0
O768 O 0.76768 0.57879 0.55832 0.0
C769 C 0.75513 0.57028 0.5578 0.0
C770 C 0.74911 0.62011 0.5523 0.0
C771 C 0.75335 0.56216 0.55098 0.0
C772 C 0.75064 0.56218 0.53803 0.0
C773 C 0.75191 0.57007 0.5445 0.0
C774 C 0.75203 0.5384 0.54447 0.0
C775 C 0.75074 0.54624 0.53793 0.0
C776 C 0.75333 0.54631 0.55093 0.0
C777 C 0.76272 0.59855 0.58198 0.0
C778 C 0.76677 0.5756 0.58892 0.0
C779 C 0.76959 0.60013 0.59457 0.0
C780 C 0.76594 0.6072 0.58808 0.0
C781 C 0.77007 0.58424 0.59507 0.0
C782 C 0.76312 0.5827 0.58242 0.0
C783 C 0.7592 0.60632 0.57521 0.0
O784 O 0.76305 0.61443 0.55354 0.0
O785 O 0.73788 0.61289 0.55567 0.0
O786 O 0.74522 0.60387 0.57252 0.0
O787 O 0.77035 0.60591 0.57038 0.0
H788 H 0.75325 0.63857 0.56383 0.0
H789 H 0.75241 0.66632 0.564 0.0
H790 H 0.74174 0.66649 0.54137 0.0
H791 H 0.74291 0.63881 0.54124 0.0
H792 H 0.74947 0.56856 0.53311 0.0
H793 H 0.75185 0.58233 0.54445 0.0
H794 H 0.75235 0.52615 0.54459 0.0
H795 H 0.75448 0.54003 0.55589 0.0
H796 H 0.76688 0.56335 0.58913 0.0
H797 H 0.77232 0.60715 0.59915 0.0
H798 H 0.76575 0.61945 0.58782 0.0
H799 H 0.76066 0.57586 0.57774 0.0
C800 C 0.62096 0.49517 0.20448 0.0
C801 C 0.61366 0.49317 0.19782 0.0
C802 C 0.5881 0.49687 0.20332 0.0
C803 C 0.59737 0.49401 0.19724 0.0
C804 C 0.59554 0.49895 0.20998 0.0
C805 C 0.61182 0.49809 0.21054 0.0
U806 U 0.66103 0.48907 0.19618 0.0
O807 O 0.68353 0.5003 0.19834 0.0
O808 O 0.68115 0.47582 0.19999 0.0
C809 C 0.69 0.48786 0.20081 0.0
C810 C 0.63803 0.49404 0.20518 0.0
C811 C 0.69766 0.48923 0.20783 0.0
C812 C 0.69625 0.49144 0.22079 0.0
C813 C 0.68881 0.49053 0.21412 0.0
C814 C 0.72147 0.48996 0.21492 0.0
C815 C 0.71269 0.49112 0.22127 0.0
C816 C 0.714 0.48902 0.20827 0.0
C817 C 0.66306 0.48189 0.1759 0.0
C818 C 0.68719 0.47738 0.16938 0.0
C819 C 0.66232 0.47641 0.16317 0.0
C820 C 0.65459 0.47975 0.16957 0.0
C821 C 0.67872 0.47516 0.16299 0.0
C822 C 0.67942 0.48072 0.17578 0.0
C823 C 0.65454 0.48508 0.18256 0.0
O824 O 0.64389 0.48053 0.20396 0.0
O825 O 0.64603 0.50495 0.20211 0.0
O826 O 0.657 0.49846 0.18542 0.0
O827 O 0.6544 0.47407 0.18729 0.0
H828 H 0.62057 0.49093 0.19308 0.0
H829 H 0.59205 0.49253 0.19203 0.0
H830 H 0.58876 0.50097 0.21478 0.0
H831 H 0.61728 0.49961 0.21573 0.0
H832 H 0.68915 0.49251 0.22556 0.0
H833 H 0.67615 0.49076 0.21388 0.0
H834 H 0.73411 0.48948 0.21509 0.0
H835 H 0.72101 0.48798 0.20346 0.0
H836 H 0.69983 0.47664 0.16941 0.0
H837 H 0.6554 0.47451 0.1584 0.0
H838 H 0.64194 0.48054 0.16958 0.0
H839 H 0.68613 0.48236 0.18064 0.0
C840 C 0.7472 0.37012 0.45758 0.0
C841 C 0.75018 0.36213 0.45124 0.0
C842 C 0.74577 0.33819 0.45742 0.0
C843 C 0.74947 0.3463 0.45115 0.0
C844 C 0.74262 0.34633 0.46374 0.0
C845 C 0.74335 0.36214 0.46381 0.0
U846 U 0.75352 0.4079 0.44823 0.0
O847 O 0.74182 0.42986 0.44978 0.0
O848 O 0.76709 0.42782 0.45156 0.0
C849 C 0.75463 0.43646 0.4521 0.0
C850 C 0.7483 0.38671 0.45779 0.0
C851 C 0.75311 0.44482 0.45887 0.0
C852 C 0.75153 0.44536 0.47186 0.0
C853 C 0.75255 0.4372 0.46546 0.0
C854 C 0.75139 0.46883 0.46515 0.0
C855 C 0.75103 0.4613 0.47179 0.0
C856 C 0.75244 0.46065 0.45876 0.0
C857 C 0.76126 0.40778 0.42799 0.0
C858 C 0.76764 0.43033 0.42113 0.0
C859 C 0.76553 0.40605 0.41517 0.0
C860 C 0.76196 0.39918 0.4217 0.0
C861 C 0.76846 0.42171 0.41479 0.0
C862 C 0.76405 0.42341 0.42767 0.0
C863 C 0.75788 0.40015 0.4348 0.0
O864 O 0.76225 0.39228 0.45648 0.0
O865 O 0.73705 0.39402 0.45446 0.0
O866 O 0.744 0.40277 0.43755 0.0
O867 O 0.76917 0.40051 0.43957 0.0
H868 H 0.7532 0.36814 0.44637 0.0
H869 H 0.75213 0.34042 0.44622 0.0
H870 H 0.7395 0.34047 0.46863 0.0
H871 H 0.74095 0.36814 0.46875 0.0
H872 H 0.75144 0.4392 0.47687 0.0
H873 H 0.75307 0.42495 0.46564 0.0
H874 H 0.75077 0.48106 0.46488 0.0
H875 H 0.75278 0.46671 0.45371 0.0
H876 H 0.76968 0.44242 0.42102 0.0
H877 H 0.7663 0.39903 0.41043 0.0
H878 H 0.7599 0.38708 0.42186 0.0
H879 H 0.76351 0.43023 0.43249 0.0
C880 C 0.88526 0.51273 0.70483 0.0
C881 C 0.89285 0.51489 0.69825 0.0
C882 C 0.91822 0.51213 0.70407 0.0
C883 C 0.90919 0.51458 0.69787 0.0
C884 C 0.91048 0.50981 0.71064 0.0
C885 C 0.89416 0.51012 0.711 0.0
U886 U 0.84527 0.51752 0.69616 0.0
O887 O 0.82304 0.5058 0.69829 0.0
O888 O 0.82472 0.53037 0.69977 0.0
C889 C 0.81619 0.51814 0.70065 0.0
C890 C 0.86813 0.51343 0.70534 0.0
C891 C 0.80854 0.51679 0.70767 0.0
C892 C 0.80999 0.51466 0.72063 0.0
C893 C 0.81741 0.51557 0.71396 0.0
C894 C 0.78475 0.51603 0.71476 0.0
C895 C 0.79356 0.51494 0.72111 0.0
C896 C 0.79219 0.51696 0.70811 0.0
C897 C 0.84355 0.524 0.67582 0.0
C898 C 0.8198 0.52996 0.66924 0.0
C899 C 0.84434 0.52702 0.66291 0.0
C900 C 0.85192 0.524 0.66938 0.0
C901 C 0.82819 0.53009 0.66275 0.0
C902 C 0.82742 0.52692 0.67572 0.0
C903 C 0.85197 0.52123 0.68255 0.0
O904 O 0.86195 0.52674 0.70398 0.0
O905 O 0.86057 0.50222 0.70228 0.0
O906 O 0.8498 0.50789 0.68549 0.0
O907 O 0.85172 0.53239 0.6872 0.0
H908 H 0.88613 0.51695 0.69343 0.0
H909 H 0.91476 0.51656 0.69275 0.0
H910 H 0.91705 0.50767 0.71549 0.0
H911 H 0.88847 0.50838 0.71612 0.0
H912 H 0.81712 0.51364 0.7254 0.0
H913 H 0.83007 0.51537 0.71372 0.0
H914 H 0.77211 0.51647 0.71494 0.0
H915 H 0.78517 0.51794 0.7033 0.0
H916 H 0.80734 0.53214 0.6693 0.0
H917 H 0.85121 0.52726 0.65804 0.0
H918 H 0.86439 0.52183 0.66936 0.0
H919 H 0.82078 0.52693 0.68066 0.0
C920 C 0.75865 0.63652 0.95736 0.0
C921 C 0.75633 0.64423 0.95088 0.0
C922 C 0.7608 0.66838 0.95685 0.0
C923 C 0.75739 0.66003 0.95063 0.0
C924 C 0.76318 0.66054 0.96332 0.0
C925 C 0.76211 0.64475 0.96357 0.0
U926 U 0.75195 0.59852 0.9483 0.0
O927 O 0.76346 0.57651 0.94998 0.0
O928 O 0.73822 0.5788 0.95177 0.0
C929 C 0.75062 0.57008 0.95236 0.0
C930 C 0.75734 0.61995 0.95772 0.0
C931 C 0.75212 0.56196 0.9592 0.0
C932 C 0.75452 0.56193 0.97217 0.0
C933 C 0.75341 0.56984 0.96569 0.0
C934 C 0.75322 0.53818 0.96571 0.0
C935 C 0.7544 0.54598 0.97225 0.0
C936 C 0.75208 0.5461 0.95925 0.0
C937 C 0.74436 0.59826 0.92803 0.0
C938 C 0.73793 0.57565 0.92122 0.0
C939 C 0.74026 0.59983 0.91519 0.0
C940 C 0.74378 0.60678 0.92171 0.0
C941 C 0.73725 0.58419 0.91485 0.0
C942 C 0.74148 0.58263 0.92776 0.0
C943 C 0.74774 0.60597 0.93482 0.0
O944 O 0.74333 0.61449 0.95642 0.0
O945 O 0.76853 0.6124 0.95448 0.0
O946 O 0.76158 0.6033 0.93761 0.0
O947 O 0.73641 0.60577 0.93957 0.0
H948 H 0.75369 0.63802 0.94603 0.0
H949 H 0.75567 0.66569 0.94554 0.0
H950 H 0.76562 0.66661 0.96823 0.0
H951 H 0.76388 0.63896 0.96862 0.0
H952 H 0.7556 0.56829 0.9771 0.0
H953 H 0.75352 0.58211 0.96574 0.0
H954 H 0.75289 0.52593 0.96558 0.0
H955 H 0.75106 0.53984 0.95428 0.0
H956 H 0.73583 0.56356 0.92114 0.0
H957 H 0.73958 0.6068 0.91043 0.0
H958 H 0.74591 0.61886 0.92183 0.0
H959 H 0.74192 0.57588 0.9326 0.0
C960 C 0.38644 0.49523 0.20456 0.0
C961 C 0.3937 0.4933 0.19789 0.0
C962 C 0.41929 0.49699 0.20338 0.0
C963 C 0.40999 0.49417 0.1973 0.0
C964 C 0.41189 0.49902 0.21004 0.0
C965 C 0.39561 0.49813 0.21062 0.0
U966 U 0.34639 0.48905 0.19625 0.0
O967 O 0.32643 0.47551 0.19999 0.0
O968 O 0.32379 0.5 0.19847 0.0
C969 C 0.31744 0.48744 0.20087 0.0
C970 C 0.36938 0.49398 0.20527 0.0
C971 C 0.30975 0.48857 0.20789 0.0
C972 C 0.31106 0.4905 0.22086 0.0
C973 C 0.31856 0.48971 0.21421 0.0
C974 C 0.28589 0.48921 0.21493 0.0
C975 C 0.29462 0.49022 0.2213 0.0
C976 C 0.2934 0.48838 0.20829 0.0
C977 C 0.34449 0.48239 0.17587 0.0
C978 C 0.32354 0.47022 0.16921 0.0
C979 C 0.34401 0.48365 0.16289 0.0
C980 C 0.35102 0.48736 0.16941 0.0
C981 C 0.33032 0.47482 0.16269 0.0
C982 C 0.33056 0.47399 0.17575 0.0
C983 C 0.35283 0.48554 0.18261 0.0
O984 O 0.36127 0.50491 0.20226 0.0
O985 O 0.36362 0.48046 0.20399 0.0
O986 O 0.35326 0.47442 0.18728 0.0
O987 O 0.3502 0.49883 0.18553 0.0
H988 H 0.38677 0.49108 0.19315 0.0
H989 H 0.41528 0.49274 0.19208 0.0
H990 H 0.4187 0.501 0.21484 0.0
H991 H 0.39019 0.49959 0.21582 0.0
H992 H 0.31813 0.49146 0.22565 0.0
H993 H 0.33122 0.48993 0.21399 0.0
H994 H 0.27324 0.48876 0.21507 0.0
H995 H 0.28643 0.48747 0.20346 0.0
H996 H 0.31309 0.46331 0.16926 0.0
H997 H 0.34938 0.48764 0.15799 0.0
H998 H 0.36172 0.49393 0.16941 0.0
H999 H 0.3253 0.47007 0.18069 0.0
C1000 C 0.2477 0.63622 0.95709 0.0
C1001 C 0.24973 0.64398 0.9506 0.0
C1002 C 0.24545 0.66809 0.95664 0.0
C1003 C 0.24862 0.65978 0.95038 0.0
C1004 C 0.24335 0.66019 0.96312 0.0
C1005 C 0.24448 0.6444 0.96333 0.0
U1006 U 0.2545 0.59839 0.94791 0.0
O1007 O 0.26838 0.57869 0.95126 0.0
O1008 O 0.24312 0.5763 0.94953 0.0
C1009 C 0.25605 0.56989 0.95183 0.0
C1010 C 0.24908 0.61965 0.95741 0.0
C1011 C 0.25473 0.5615 0.95861 0.0
C1012 C 0.25353 0.56088 0.97161 0.0
C1013 C 0.25437 0.56908 0.96521 0.0
C1014 C 0.25317 0.53745 0.96487 0.0
C1015 C 0.25302 0.54494 0.97152 0.0
C1016 C 0.25403 0.54567 0.95848 0.0
C1017 C 0.26195 0.59839 0.92764 0.0
C1018 C 0.26851 0.57583 0.92083 0.0
C1019 C 0.26608 0.60002 0.91481 0.0
C1020 C 0.2625 0.60693 0.92134 0.0
C1021 C 0.26918 0.58439 0.91447 0.0
C1022 C 0.2649 0.58277 0.92737 0.0
C1023 C 0.25856 0.60605 0.93445 0.0
O1024 O 0.23791 0.6121 0.95415 0.0
O1025 O 0.26311 0.61427 0.95607 0.0
O1026 O 0.26991 0.60588 0.93919 0.0
O1027 O 0.24475 0.60329 0.93724 0.0
H1028 H 0.25219 0.6378 0.94571 0.0
H1029 H 0.25011 0.66547 0.94529 0.0
H1030 H 0.24111 0.66623 0.96806 0.0
H1031 H 0.24293 0.63859 0.96839 0.0
H1032 H 0.25361 0.567 0.97663 0.0
H1033 H 0.2549 0.58133 0.9654 0.0
H1034 H 0.25252 0.52523 0.96459 0.0
H1035 H 0.25421 0.53964 0.95343 0.0
H1036 H 0.27068 0.56375 0.92075 0.0
H1037 H 0.26674 0.607 0.91006 0.0
H1038 H 0.26031 0.61901 0.92147 0.0
H1039 H 0.26449 0.57601 0.9322 0.0
C1040 C 0.12007 0.51295 0.70501 0.0
C1041 C 0.1125 0.51514 0.69843 0.0
C1042 C 0.08712 0.51227 0.70421 0.0
C1043 C 0.09616 0.51479 0.69803 0.0
C1044 C 0.09484 0.50994 0.71078 0.0
C1045 C 0.11116 0.51028 0.71117 0.0
U1046 U 0.16002 0.5182 0.6964 0.0
O1047 O 0.1805 0.53104 0.70009 0.0
O1048 O 0.18233 0.50652 0.69845 0.0
C1049 C 0.18912 0.51883 0.70089 0.0
C1050 C 0.13719 0.5137 0.70555 0.0
C1051 C 0.19686 0.51733 0.70788 0.0
C1052 C 0.1956 0.51497 0.72083 0.0
C1053 C 0.18808 0.51597 0.71419 0.0
C1054 C 0.22075 0.51649 0.71491 0.0
C1055 C 0.21204 0.51529 0.72127 0.0
C1056 C 0.21321 0.51751 0.70828 0.0
C1057 C 0.16177 0.52543 0.67614 0.0
C1058 C 0.18594 0.52883 0.66949 0.0
C1059 C 0.16098 0.53159 0.66348 0.0
C1060 C 0.15326 0.52839 0.66989 0.0
C1061 C 0.17743 0.53186 0.66319 0.0
C1062 C 0.17817 0.52564 0.67591 0.0
C1063 C 0.15329 0.52238 0.68282 0.0
O1064 O 0.14481 0.50262 0.7024 0.0
O1065 O 0.14331 0.52708 0.70429 0.0
O1066 O 0.15347 0.53337 0.68756 0.0
O1067 O 0.15552 0.50893 0.68566 0.0
H1068 H 0.11923 0.51726 0.69362 0.0
H1069 H 0.0906 0.51679 0.6929 0.0
H1070 H 0.08826 0.50775 0.71562 0.0
H1071 H 0.11683 0.50853 0.71629 0.0
H1072 H 0.18855 0.51387 0.72562 0.0
H1073 H 0.17542 0.51576 0.71397 0.0
H1074 H 0.2334 0.51696 0.71505 0.0
H1075 H 0.22016 0.5186 0.70345 0.0
H1076 H 0.1986 0.5288 0.66944 0.0
H1077 H 0.15404 0.53412 0.65878 0.0
H1078 H 0.14059 0.52836 0.66998 0.0
H1079 H 0.18492 0.52337 0.68071 0.0
C1080 C 0.2587 0.36951 0.4578 0.0
C1081 C 0.25574 0.36171 0.4514 0.0
C1082 C 0.26005 0.33759 0.45744 0.0
C1083 C 0.25642 0.34588 0.45122 0.0
C1084 C 0.26318 0.34554 0.46382 0.0
C1085 C 0.2625 0.36135 0.46399 0.0
U1086 U 0.2509 0.40743 0.44881 0.0
O1087 O 0.23753 0.42712 0.45258 0.0
O1088 O 0.26252 0.42951 0.45018 0.0
C1089 C 0.24991 0.4359 0.45283 0.0
C1090 C 0.25756 0.3861 0.45811 0.0
C1091 C 0.25207 0.44426 0.45957 0.0
C1092 C 0.254 0.44492 0.47255 0.0
C1093 C 0.25262 0.4367 0.46617 0.0
C1094 C 0.25459 0.46829 0.46577 0.0
C1095 C 0.25487 0.46084 0.47244 0.0
C1096 C 0.25319 0.46007 0.45941 0.0
C1097 C 0.24005 0.40766 0.42882 0.0
C1098 C 0.24124 0.42894 0.42056 0.0
C1099 C 0.22509 0.40721 0.41777 0.0
C1100 C 0.2297 0.40032 0.42416 0.0
C1101 C 0.2308 0.42159 0.41588 0.0
C1102 C 0.24577 0.42207 0.427 0.0
C1103 C 0.24465 0.4 0.43551 0.0
O1104 O 0.26829 0.39353 0.4545 0.0
O1105 O 0.24342 0.39161 0.45722 0.0
O1106 O 0.23408 0.40001 0.44061 0.0
O1107 O 0.25889 0.4026 0.43786 0.0
H1108 H 0.25274 0.36786 0.44657 0.0
H1109 H 0.25379 0.34013 0.44624 0.0
H1110 H 0.26623 0.33954 0.46868 0.0
H1111 H 0.26486 0.36721 0.46896 0.0
H1112 H 0.25403 0.43881 0.47758 0.0
H1113 H 0.25177 0.42447 0.46639 0.0
H1114 H 0.2555 0.4805 0.46547 0.0
H1115 H 0.25285 0.46608 0.45436 0.0
H1116 H 0.24572 0.44009 0.41929 0.0
H1117 H 0.2172 0.40117 0.41424 0.0
H1118 H 0.22518 0.3892 0.42546 0.0
H1119 H 0.25371 0.428 0.43054 0.0
C1120 C 0.38619 0.51301 0.80502 0.0
C1121 C 0.39379 0.51507 0.8116 0.0
C1122 C 0.41914 0.51231 0.80578 0.0
C1123 C 0.41013 0.51471 0.81198 0.0
C1124 C 0.41139 0.5101 0.79921 0.0
C1125 C 0.39506 0.51045 0.79884 0.0
U1126 U 0.34635 0.51813 0.81373 0.0
O1127 O 0.32581 0.53103 0.81015 0.0
O1128 O 0.32402 0.50648 0.81172 0.0
C1129 C 0.31717 0.51884 0.80937 0.0
C1130 C 0.36906 0.51376 0.80451 0.0
C1131 C 0.30915 0.51747 0.80243 0.0
C1132 C 0.30977 0.51632 0.78943 0.0
C1133 C 0.31762 0.51717 0.796 0.0
C1134 C 0.28495 0.51585 0.79567 0.0
C1135 C 0.29332 0.51575 0.78918 0.0
C1136 C 0.2928 0.51671 0.80223 0.0
C1137 C 0.3448 0.5251 0.834 0.0
C1138 C 0.32066 0.52874 0.84064 0.0
C1139 C 0.34562 0.53094 0.84669 0.0
C1140 C 0.35333 0.52777 0.84027 0.0
C1141 C 0.32919 0.5315 0.84696 0.0
C1142 C 0.32841 0.52557 0.83421 0.0
C1143 C 0.35326 0.52212 0.82731 0.0
O1144 O 0.36147 0.50263 0.80764 0.0
O1145 O 0.36294 0.52712 0.80581 0.0
O1146 O 0.35305 0.53317 0.8226 0.0
O1147 O 0.351 0.50872 0.82443 0.0
H1148 H 0.38709 0.51709 0.81643 0.0
H1149 H 0.41571 0.51661 0.81711 0.0
H1150 H 0.41794 0.508 0.79435 0.0
H1151 H 0.38936 0.5088 0.79372 0.0
H1152 H 0.31659 0.51643 0.78455 0.0
H1153 H 0.33027 0.51776 0.79607 0.0
H1154 H 0.27231 0.51517 0.79569 0.0
H1155 H 0.28609 0.51687 0.80714 0.0
H1156 H 0.308 0.52894 0.84067 0.0
H1157 H 0.35258 0.53326 0.85141 0.0
H1158 H 0.366 0.52752 0.8402 0.0
H1159 H 0.32165 0.52353 0.8294 0.0
C1160 C 0.25974 0.63685 0.55322 0.0
C1161 C 0.25756 0.64459 0.5597 0.0
C1162 C 0.26184 0.66873 0.55368 0.0
C1163 C 0.25859 0.66039 0.55993 0.0
C1164 C 0.26407 0.66085 0.54721 0.0
C1165 C 0.26303 0.64506 0.54699 0.0
U1166 U 0.25296 0.59888 0.56232 0.0
O1167 O 0.2393 0.57914 0.55882 0.0
O1168 O 0.26452 0.57688 0.56069 0.0
C1169 C 0.25171 0.57043 0.55828 0.0
C1170 C 0.25845 0.62028 0.55289 0.0
C1171 C 0.2533 0.56228 0.55146 0.0
C1172 C 0.25613 0.5622 0.53851 0.0
C1173 C 0.25493 0.57014 0.54498 0.0
C1174 C 0.25427 0.53848 0.54497 0.0
C1175 C 0.25578 0.54626 0.53843 0.0
C1176 C 0.25304 0.54643 0.55142 0.0
C1177 C 0.24511 0.59864 0.58256 0.0
C1178 C 0.23824 0.5761 0.58932 0.0
C1179 C 0.24114 0.60016 0.5954 0.0
C1180 C 0.24476 0.6071 0.58889 0.0
C1181 C 0.23778 0.58457 0.59571 0.0
C1182 C 0.24189 0.58308 0.5828 0.0
C1183 C 0.24857 0.60636 0.57577 0.0
O1184 O 0.2696 0.61275 0.55618 0.0
O1185 O 0.24443 0.61482 0.55415 0.0
O1186 O 0.2373 0.60616 0.57099 0.0
O1187 O 0.26245 0.60371 0.57303 0.0
H1188 H 0.25505 0.6384 0.56458 0.0
H1189 H 0.25699 0.66607 0.56502 0.0
H1190 H 0.26637 0.66691 0.54228 0.0
H1191 H 0.26469 0.63926 0.54194 0.0
H1192 H 0.25746 0.56855 0.53359 0.0
H1193 H 0.25521 0.5824 0.54492 0.0
H1194 H 0.25375 0.52624 0.54509 0.0
H1195 H 0.25175 0.54018 0.55638 0.0
H1196 H 0.23586 0.56406 0.58937 0.0
H1197 H 0.24065 0.60708 0.60018 0.0
H1198 H 0.24715 0.61914 0.5888 0.0
H1199 H 0.24215 0.57637 0.57794 0.0
C1200 C 0.12059 0.49383 0.30522 0.0
C1201 C 0.11326 0.49204 0.31189 0.0
C1202 C 0.08772 0.49548 0.30632 0.0
C1203 C 0.09697 0.49285 0.31243 0.0
C1204 C 0.09519 0.49736 0.29966 0.0
C1205 C 0.11148 0.49653 0.29912 0.0
U1206 U 0.16044 0.48816 0.31377 0.0
O1207 O 0.18068 0.47475 0.31025 0.0
O1208 O 0.18299 0.4993 0.31166 0.0
C1209 C 0.18956 0.48675 0.30938 0.0
C1210 C 0.13768 0.4927 0.30458 0.0
C1211 C 0.19756 0.4878 0.30243 0.0
C1212 C 0.19688 0.4889 0.28943 0.0
C1213 C 0.18906 0.4882 0.29601 0.0
C1214 C 0.22174 0.48899 0.29565 0.0
C1215 C 0.21334 0.48923 0.28917 0.0
C1216 C 0.21392 0.48828 0.30221 0.0
C1217 C 0.16146 0.48202 0.33421 0.0
C1218 C 0.1831 0.4717 0.34112 0.0
C1219 C 0.16057 0.48224 0.3472 0.0
C1220 C 0.15377 0.48568 0.3406 0.0
C1221 C 0.1752 0.475 0.34755 0.0
C1222 C 0.17627 0.47518 0.3345 0.0
C1223 C 0.15346 0.4849 0.32737 0.0
O1224 O 0.14562 0.50376 0.30757 0.0
O1225 O 0.14354 0.47925 0.30596 0.0
O1226 O 0.15346 0.47365 0.32277 0.0
O1227 O 0.15609 0.49813 0.3244 0.0
H1228 H 0.12015 0.48998 0.31666 0.0
H1229 H 0.09163 0.49153 0.31765 0.0
H1230 H 0.08842 0.4992 0.29483 0.0
H1231 H 0.11696 0.49789 0.29394 0.0
H1232 H 0.19003 0.4889 0.28455 0.0
H1233 H 0.1764 0.48784 0.29608 0.0
H1234 H 0.2344 0.48948 0.29566 0.0
H1235 H 0.22066 0.48805 0.30713 0.0
H1236 H 0.19433 0.46604 0.3412 0.0
H1237 H 0.1543 0.48521 0.35204 0.0
H1238 H 0.14237 0.49104 0.34047 0.0
H1239 H 0.1824 0.47228 0.32961 0.0
C1240 C 0.24608 0.3693 0.05262 0.0
C1241 C 0.24816 0.3616 0.05912 0.0
C1242 C 0.24372 0.33744 0.05314 0.0
C1243 C 0.247 0.34581 0.05938 0.0
C1244 C 0.24154 0.34528 0.04665 0.0
C1245 C 0.24273 0.36106 0.0464 0.0
U1246 U 0.25344 0.40722 0.06164 0.0
O1247 O 0.26759 0.42664 0.05815 0.0
O1248 O 0.2424 0.42944 0.05991 0.0
C1249 C 0.25539 0.43559 0.05753 0.0
C1250 C 0.24763 0.38585 0.05224 0.0
C1251 C 0.25408 0.4437 0.05068 0.0
C1252 C 0.25174 0.44367 0.03771 0.0
C1253 C 0.25267 0.43579 0.0442 0.0
C1254 C 0.25344 0.46744 0.04413 0.0
C1255 C 0.25216 0.45961 0.0376 0.0
C1256 C 0.2544 0.45955 0.05061 0.0
C1257 C 0.26115 0.40739 0.08195 0.0
C1258 C 0.27417 0.42714 0.08878 0.0
C1259 C 0.26046 0.407 0.09494 0.0
C1260 C 0.25628 0.40067 0.08836 0.0
C1261 C 0.26968 0.42018 0.09525 0.0
C1262 C 0.26993 0.42081 0.08219 0.0
C1263 C 0.25749 0.39983 0.07513 0.0
O1264 O 0.23659 0.39358 0.05549 0.0
O1265 O 0.26174 0.39108 0.05352 0.0
O1266 O 0.26878 0.3996 0.07035 0.0
O1267 O 0.2437 0.40279 0.07236 0.0
H1268 H 0.25074 0.36781 0.06398 0.0
H1269 H 0.24856 0.34016 0.06447 0.0
H1270 H 0.23922 0.3392 0.04173 0.0
H1271 H 0.24114 0.36684 0.04133 0.0
H1272 H 0.25058 0.4373 0.03279 0.0
H1273 H 0.25234 0.42353 0.04416 0.0
H1274 H 0.254 0.47969 0.04424 0.0
H1275 H 0.25552 0.46582 0.05556 0.0
H1276 H 0.28137 0.43722 0.08881 0.0
H1277 H 0.25653 0.4015 0.0998 0.0
H1278 H 0.24942 0.39036 0.08828 0.0
H1279 H 0.27377 0.4262 0.07728 0.0
C1280 C 0.29029 0.0272 0.23342 0.0
C1281 C 0.28469 0.03613 0.22774 0.0
C1282 C 0.2825 0.02696 0.24001 0.0
C1283 C 0.2545 0.04896 0.25099 0.0
H1284 H 0.24955 0.01118 0.26131 0.0
C1285 C 0.21509 0.044 0.27599 0.0
C1286 C 0.22082 0.03548 0.28178 0.0
C1287 C 0.2228 0.04388 0.26938 0.0
C1288 C 0.25097 0.02185 0.25853 0.0
H1289 H 0.26656 0.05197 0.22458 0.0
H1290 H 0.25283 0.05132 0.236 0.0
H1291 H 0.26321 0.01138 0.24985 0.0
H1292 H 0.23903 0.0199 0.28511 0.0
H1293 H 0.2526 0.01985 0.27363 0.0
H1294 H 0.24226 0.05943 0.25967 0.0
C1295 C 0.26333 0.04459 0.23539 0.0
C1296 C 0.25882 0.02197 0.25196 0.0
C1297 C 0.27111 0.04482 0.22881 0.0
C1298 C 0.23438 0.02672 0.28079 0.0
C1299 C 0.24207 0.02656 0.27418 0.0
C1300 C 0.24665 0.04884 0.25756 0.0
C1301 C 0.26893 0.03568 0.24108 0.0
C1302 C 0.26066 0.03553 0.2481 0.0
C1303 C 0.23642 0.0352 0.2684 0.0
C1304 C 0.24477 0.03528 0.26141 0.0
H1305 H 0.30062 0.02025 0.23277 0.0
H1306 H 0.28723 0.02008 0.24429 0.0
H1307 H 0.25594 0.05965 0.24823 0.0
H1308 H 0.20477 0.05099 0.27658 0.0
H1309 H 0.21802 0.05053 0.26503 0.0
C1310 C 0.25379 0.04673 0.48597 0.0
C1311 C 0.2564 0.04016 0.47921 0.0
C1312 C 0.25415 0.03789 0.49218 0.0
C1313 C 0.26755 1.00069 0.49928 0.0
H1314 H 0.23669 0.0086 0.514 0.0
C1315 C 0.26806 0.96951 0.5266 0.0
C1316 C 0.25355 0.96562 0.52961 0.0
C1317 C 0.26883 0.97866 0.52049 0.0
C1318 C 0.24531 0.00613 0.50992 0.0
H1319 H 0.26192 0.01913 0.47377 0.0
H1320 H 0.26209 0.00368 0.48456 0.0
H1321 H 0.23728 0.02431 0.50331 0.0
H1322 H 0.22845 0.96794 0.52843 0.0
H1323 H 0.22974 0.98368 0.51774 0.0
H1324 H 0.27524 0.98219 0.5058 0.0
C1325 C 0.25993 0.01571 0.48507 0.0
C1326 C 0.2458 0.0153 0.50382 0.0
C1327 C 0.25962 0.02455 0.47886 0.0
C1328 C 0.23982 0.97093 0.52631 0.0
C1329 C 0.24058 0.98 0.52019 0.0
C1330 C 0.26703 0.99147 0.50538 0.0
C1331 C 0.2571 0.02223 0.49182 0.0
C1332 C 0.25689 0.01268 0.49841 0.0
C1333 C 0.25509 0.98409 0.51722 0.0
C1334 C 0.25585 0.99403 0.51077 0.0
H1335 H 0.25114 0.05867 0.48645 0.0
H1336 H 0.25213 0.04335 0.49729 0.0
H1337 H 0.27638 0.99843 0.49527 0.0
H1338 H 0.27886 0.96576 0.52906 0.0
H1339 H 0.28022 0.98174 0.51842 0.0
C1340 C 0.2157 0.97924 0.73427 0.0
C1341 C 0.22135 0.97021 0.72863 0.0
C1342 C 0.22341 0.97954 0.74088 0.0
C1343 C 0.25127 0.95761 0.752 0.0
H1344 H 0.25634 0.99552 0.76219 0.0
C1345 C 0.29091 0.96282 0.77691 0.0
C1346 C 0.28527 0.97143 0.78269 0.0
C1347 C 0.28312 0.96288 0.77033 0.0
C1348 C 0.25488 0.98481 0.75945 0.0
H1349 H 0.23946 0.95427 0.72559 0.0
H1350 H 0.25306 0.95504 0.73703 0.0
H1351 H 0.24265 0.99519 0.75073 0.0
H1352 H 0.26714 0.98709 0.78601 0.0
H1353 H 0.25342 0.98703 0.77455 0.0
H1354 H 0.26351 0.94722 0.76071 0.0
C1355 C 0.24258 0.96179 0.73638 0.0
C1356 C 0.24702 0.98462 0.75288 0.0
C1357 C 0.23488 0.96149 0.72977 0.0
C1358 C 0.27171 0.98021 0.7817 0.0
C1359 C 0.26395 0.9803 0.7751 0.0
C1360 C 0.25913 0.9578 0.75856 0.0
C1361 C 0.23694 0.97079 0.74202 0.0
C1362 C 0.24514 0.97102 0.74906 0.0
C1363 C 0.26951 0.97157 0.76935 0.0
C1364 C 0.26107 0.97141 0.76237 0.0
H1365 H 0.20539 0.9862 0.73355 0.0
H1366 H 0.21865 0.98649 0.74513 0.0
H1367 H 0.2498 0.94688 0.74928 0.0
H1368 H 0.30122 0.95581 0.77751 0.0
H1369 H 0.28783 0.95616 0.76599 0.0
C1370 C 0.25317 0.04665 0.02388 0.0
C1371 C 0.24987 0.04026 0.03061 0.0
C1372 C 0.25279 0.03778 0.01768 0.0
C1373 C 0.23819 1.00112 0.01047 0.0
H1374 H 0.27034 0.00754 0.99617 0.0
C1375 C 0.23804 0.96978 0.9832 0.0
C1376 C 0.25255 0.96523 0.9804 0.0
C1377 C 0.23729 0.979 0.98929 0.0
C1378 C 0.26135 0.00549 1.00013 0.0
H1379 H 0.24311 0.01953 0.03602 0.0
H1380 H 0.24288 0.00401 0.02526 0.0
H1381 H 0.26977 0.02337 0.00682 0.0
H1382 H 0.27764 0.96642 0.98194 0.0
H1383 H 0.27637 0.98229 0.99258 0.0
H1384 H 0.23008 0.98292 1.00388 0.0
C1385 C 0.2456 0.01593 0.02475 0.0
C1386 C 0.26088 0.01474 0.00621 0.0
C1387 C 0.24594 0.02481 0.03095 0.0
C1388 C 0.26628 0.96993 0.98389 0.0
C1389 C 0.26554 0.97907 0.98999 0.0
C1390 C 0.23869 0.99184 1.0044 0.0
C1391 C 0.24913 0.02227 0.01804 0.0
C1392 C 0.24933 0.01265 0.01147 0.0
C1393 C 0.25104 0.98383 0.99274 0.0
C1394 C 0.25032 0.99386 0.99917 0.0
H1395 H 0.25637 0.05847 0.02341 0.0
H1396 H 0.25536 0.0431 0.01259 0.0
H1397 H 0.22901 0.99929 0.01436 0.0
H1398 H 0.22725 0.9665 0.98059 0.0
H1399 H 0.22593 0.9826 0.99119 0.0
C1400 C 0.73399 0.97865 0.78088 0.0
C1401 C 0.72049 0.9698 0.78185 0.0
C1402 C 0.74181 0.97878 0.77431 0.0
C1403 C 0.74693 0.95629 0.7578 0.0
H1404 H 0.76335 0.99374 0.75002 0.0
C1405 C 0.77182 0.96002 0.72913 0.0
C1406 C 0.78534 0.9688 0.72806 0.0
C1407 C 0.76396 0.9603 0.73569 0.0
C1408 C 0.759 0.98315 0.75215 0.0
H1409 H 0.70465 0.95412 0.77664 0.0
H1410 H 0.71813 0.95453 0.76514 0.0
H1411 H 0.74945 0.99403 0.76142 0.0
H1412 H 0.80108 0.98487 0.73307 0.0
H1413 H 0.78754 0.98512 0.74456 0.0
H1414 H 0.75651 0.94539 0.74856 0.0
C1415 C 0.72277 0.96127 0.76949 0.0
C1416 C 0.75102 0.98332 0.75869 0.0
C1417 C 0.71493 0.96117 0.77606 0.0
C1418 C 0.7908 0.97786 0.73373 0.0
C1419 C 0.78292 0.97814 0.74029 0.0
C1420 C 0.75492 0.95611 0.75127 0.0
C1421 C 0.73634 0.97003 0.76854 0.0
C1422 C 0.74485 0.96989 0.76158 0.0
C1423 C 0.76941 0.96934 0.74136 0.0
C1424 C 0.76104 0.96954 0.74835 0.0
H1425 H 0.7385 0.98556 0.78521 0.0
H1426 H 0.7523 0.98556 0.77378 0.0
H1427 H 0.74258 0.9457 0.75993 0.0
H1428 H 0.76738 0.95277 0.72492 0.0
H1429 H 0.7535 0.95351 0.73629 0.0
C1430 C 0.75801 0.9805 0.53028 0.0
C1431 C 0.7496 0.96685 0.53066 0.0
C1432 C 0.75734 0.98956 0.52414 0.0
C1433 C 0.74811 0.98838 0.50482 0.0
H1434 H 0.74571 0.03201 0.50682 0.0
C1435 C 0.73978 0.02786 0.4804 0.0
C1436 C 0.74867 0.04125 0.48026 0.0
C1437 C 0.73918 0.01891 0.48658 0.0
C1438 C 0.74654 0.01986 0.50616 0.0
H1439 H 0.73376 0.95211 0.52486 0.0
H1440 H 0.73264 0.96789 0.51414 0.0
H1441 H 0.74607 0.0161 0.51748 0.0
H1442 H 0.76392 0.05569 0.48653 0.0
H1443 H 0.7629 0.0401 0.49729 0.0
H1444 H 0.74869 0.99214 0.4935 0.0
C1445 C 0.7399 0.9715 0.51857 0.0
C1446 C 0.74674 0.01073 0.51228 0.0
C1447 C 0.74055 0.96244 0.52472 0.0
C1448 C 0.75677 0.04557 0.48648 0.0
C1449 C 0.75619 0.03662 0.49266 0.0
C1450 C 0.74792 0.99751 0.4987 0.0
C1451 C 0.74826 0.98519 0.51822 0.0
C1452 C 0.74762 0.99487 0.51169 0.0
C1453 C 0.74746 0.02313 0.49277 0.0
C1454 C 0.74721 0.01338 0.49929 0.0
H1455 H 0.76534 0.98412 0.53469 0.0
H1456 H 0.76416 0.99988 0.52401 0.0
H1457 H 0.749 0.97623 0.50417 0.0
H1458 H 0.73319 0.02432 0.47574 0.0
H1459 H 0.73212 0.00874 0.48651 0.0
C1460 C 0.77204 0.02748 0.28155 0.0
C1461 C 0.78572 0.0361 0.28248 0.0
C1462 C 0.76422 0.02737 0.27497 0.0
C1463 C 0.75957 0.04956 0.25833 0.0
H1464 H 0.74259 0.0122 0.25071 0.0
C1465 C 0.73493 0.04558 0.22962 0.0
C1466 C 0.72126 0.03702 0.22856 0.0
C1467 C 0.74272 0.04531 0.2362 0.0
C1468 C 0.7471 0.02277 0.2528 0.0
H1469 H 0.80184 0.0514 0.2772 0.0
H1470 H 0.78834 0.05101 0.2657 0.0
H1471 H 0.75636 0.01196 0.26215 0.0
H1472 H 0.7052 0.02131 0.2336 0.0
H1473 H 0.71863 0.02107 0.24513 0.0
H1474 H 0.75029 0.06039 0.249 0.0
C1475 C 0.78358 0.04444 0.27008 0.0
C1476 C 0.75501 0.02263 0.25936 0.0
C1477 C 0.79142 0.04453 0.27666 0.0
C1478 C 0.7156 0.02816 0.23425 0.0
C1479 C 0.72341 0.02788 0.24084 0.0
C1480 C 0.75166 0.04971 0.25178 0.0
C1481 C 0.76985 0.0359 0.26917 0.0
C1482 C 0.76138 0.03602 0.2622 0.0
C1483 C 0.73706 0.03648 0.2419 0.0
C1484 C 0.74535 0.03631 0.24892 0.0
H1485 H 0.76741 0.02074 0.2859 0.0
H1486 H 0.7536 0.02076 0.27447 0.0
H1487 H 0.76409 0.06013 0.26041 0.0
H1488 H 0.73953 0.05268 0.22539 0.0
H1489 H 0.7533 0.05194 0.23679 0.0
C1490 C 0.74836 0.0441 0.02459 0.0
C1491 C 0.75686 0.0401 0.03075 0.0
C1492 C 0.74893 0.03506 0.01844 0.0
C1493 C 0.75813 0.99611 0.01246 0.0
H1494 H 0.7588 0.01446 0.99361 0.0
C1495 C 0.74822 0.9615 0.98654 0.0
C1496 C 0.75718 0.9653 0.98049 0.0
C1497 C 0.74874 0.97048 0.9927 0.0
C1498 C 0.75875 0.00913 0.99883 0.0
H1499 H 0.77302 0.02365 0.03518 0.0
H1500 H 0.77405 0.00793 0.02447 0.0
H1501 H 0.75903 0.03053 1.00421 0.0
H1502 H 0.7741 0.98128 0.97628 0.0
H1503 H 0.77504 0.99687 0.98704 0.0
H1504 H 0.7581 0.97471 0.00708 0.0
C1505 C 0.76669 0.0179 0.02443 0.0
C1506 C 0.7587 0.01836 1.00491 0.0
C1507 C 0.76611 0.02693 0.03057 0.0
C1508 C 0.76685 0.97816 0.9808 0.0
C1509 C 0.76737 0.98712 0.98697 0.0
C1510 C 0.75818 0.98688 0.00637 0.0
C1511 C 0.75804 0.0218 0.01829 0.0
C1512 C 0.75835 0.01197 0.01181 0.0
C1513 C 0.75824 0.98346 0.99298 0.0
C1514 C 0.75845 0.99327 0.99948 0.0
H1515 H 0.74094 0.05404 0.02456 0.0
H1516 H 0.74193 0.0383 0.01385 0.0
H1517 H 0.75769 0.99079 0.01768 0.0
H1518 H 0.74049 0.9518 0.98644 0.0
H1519 H 0.74139 0.96743 0.9972 0.0
C1520 C 0.73559 0.52357 0.78122 0.0
C1521 C 0.72187 0.51508 0.78229 0.0
C1522 C 0.74337 0.52327 0.77464 0.0
C1523 C 0.74749 0.50079 0.758 0.0
H1524 H 0.76463 0.53813 0.75042 0.0
C1525 C 0.77195 0.50576 0.72917 0.0
C1526 C 0.78562 0.51437 0.7282 0.0
C1527 C 0.76429 0.50554 0.73579 0.0
C1528 C 0.76008 0.52756 0.7525 0.0
H1529 H 0.70571 0.49946 0.77724 0.0
H1530 H 0.71911 0.49917 0.76571 0.0
H1531 H 0.75097 0.53836 0.76186 0.0
H1532 H 0.80193 0.52952 0.73347 0.0
H1533 H 0.78873 0.52894 0.74503 0.0
H1534 H 0.75657 0.49002 0.74861 0.0
C1535 C 0.72394 0.50595 0.77001 0.0
C1536 C 0.75224 0.5277 0.75906 0.0
C1537 C 0.71615 0.50625 0.77659 0.0
C1538 C 0.79151 0.52265 0.73404 0.0
C1539 C 0.78384 0.52247 0.74065 0.0
C1540 C 0.75532 0.50067 0.75142 0.0
C1541 C 0.73763 0.51448 0.76894 0.0
C1542 C 0.74587 0.51431 0.76191 0.0
C1543 C 0.77009 0.51396 0.7416 0.0
C1544 C 0.76174 0.51405 0.7486 0.0
H1545 H 0.74024 0.53064 0.78546 0.0
H1546 H 0.75397 0.52984 0.77405 0.0
H1547 H 0.74294 0.49023 0.76008 0.0
H1548 H 0.76718 0.49912 0.72481 0.0
H1549 H 0.75367 0.49897 0.73631 0.0
C1550 C 0.76429 0.52427 0.97972 0.0
C1551 C 0.75524 0.53751 0.97914 0.0
C1552 C 0.76475 0.51608 0.98613 0.0
C1553 C 0.75669 0.51938 0.00559 0.0
H1554 H 0.75522 0.47554 1.00483 0.0
C1555 C 0.74553 0.48285 0.03071 0.0
C1556 C 0.75426 0.46945 0.0315 0.0
C1557 C 0.74614 0.49116 0.02435 0.0
C1558 C 0.75583 0.48777 1.00514 0.0
H1559 H 0.7395 0.55245 0.98487 0.0
H1560 H 0.74026 0.53818 0.99603 0.0
H1561 H 0.75548 0.49007 0.99373 0.0
H1562 H 0.77062 0.45441 0.0262 0.0
H1563 H 0.77162 0.46889 0.01508 0.0
H1564 H 0.75693 0.51708 0.017 0.0
C1565 C 0.74721 0.53424 0.99156 0.0
C1566 C 0.75598 0.49611 0.99877 0.0
C1567 C 0.74677 0.54243 0.98515 0.0
C1568 C 0.76357 0.46455 0.02575 0.0
C1569 C 0.76416 0.47286 0.01937 0.0
C1570 C 0.75651 0.51104 0.01195 0.0
C1571 C 0.75616 0.52092 0.99213 0.0
C1572 C 0.75635 0.51203 0.99891 0.0
C1573 C 0.75546 0.48628 0.0186 0.0
C1574 C 0.75601 0.49513 0.01181 0.0
H1575 H 0.77116 0.52028 0.97523 0.0
H1576 H 0.77198 0.50603 0.9864 0.0
H1577 H 0.75725 0.53161 0.0059 0.0
H1578 H 0.738 0.48682 0.03498 0.0
H1579 H 0.73908 0.50129 0.02389 0.0
C1580 C 0.77127 0.48214 0.28128 0.0
C1581 C 0.78501 0.49061 0.28233 0.0
C1582 C 0.76343 0.48248 0.27471 0.0
C1583 C 0.75916 0.50506 0.2581 0.0
H1584 H 0.74181 0.46781 0.25052 0.0
C1585 C 0.73436 0.50026 0.2293 0.0
C1586 C 0.72066 0.49169 0.22836 0.0
C1587 C 0.74208 0.50045 0.23591 0.0
C1588 C 0.74642 0.47835 0.2526 0.0
H1589 H 0.80114 0.50623 0.27727 0.0
H1590 H 0.78764 0.50659 0.26576 0.0
H1591 H 0.75562 0.46748 0.26193 0.0
H1592 H 0.70434 0.47659 0.23365 0.0
H1593 H 0.71765 0.47711 0.24519 0.0
H1594 H 0.74999 0.5159 0.24873 0.0
C1595 C 0.78284 0.49979 0.27005 0.0
C1596 C 0.75435 0.47816 0.25914 0.0
C1597 C 0.79069 0.49945 0.27663 0.0
C1598 C 0.71478 0.48342 0.2342 0.0
C1599 C 0.72252 0.48358 0.2408 0.0
C1600 C 0.75124 0.50524 0.25154 0.0
C1601 C 0.76912 0.49129 0.269 0.0
C1602 C 0.76079 0.49151 0.26199 0.0
C1603 C 0.73631 0.49203 0.24173 0.0
C1604 C 0.74474 0.49189 0.24871 0.0
H1605 H 0.76665 0.47506 0.28551 0.0
H1606 H 0.75281 0.47592 0.27413 0.0
H1607 H 0.76377 0.51559 0.26017 0.0
H1608 H 0.73912 0.50688 0.22494 0.0
H1609 H 0.75273 0.50698 0.23642 0.0
C1610 C 0.75902 0.48349 0.4794 0.0
C1611 C 0.75034 0.47007 0.4786 0.0
C1612 C 0.75842 0.49177 0.48577 0.0
C1613 C 0.74889 0.48822 0.50499 0.0
H1614 H 0.74737 0.53206 0.50429 0.0
C1615 C 0.74074 0.52455 0.53048 0.0
C1616 C 0.74979 0.53779 0.53104 0.0
C1617 C 0.74019 0.51641 0.52406 0.0
C1618 C 0.74796 0.51983 0.50458 0.0
H1619 H 0.73406 0.45496 0.4839 0.0
H1620 H 0.73306 0.46937 0.49504 0.0
H1621 H 0.7476 0.51761 0.49317 0.0
H1622 H 0.76545 0.55276 0.52528 0.0
H1623 H 0.76452 0.53856 0.5141 0.0
H1624 H 0.74938 0.49044 0.5164 0.0
C1625 C 0.74049 0.47339 0.49075 0.0
C1626 C 0.74808 0.51154 0.4982 0.0
C1627 C 0.74107 0.46512 0.48436 0.0
C1628 C 0.75817 0.54274 0.525 0.0
C1629 C 0.75763 0.53459 0.51859 0.0
C1630 C 0.74879 0.49651 0.51137 0.0
C1631 C 0.74914 0.48683 0.49153 0.0
C1632 C 0.74862 0.49563 0.49832 0.0
C1633 C 0.74868 0.52128 0.51804 0.0
C1634 C 0.7484 0.51244 0.51125 0.0
H1635 H 0.76651 0.48751 0.47513 0.0
H1636 H 0.76545 0.50191 0.48623 0.0
H1637 H 0.74953 0.47599 0.50528 0.0
H1638 H 0.73395 0.52054 0.53499 0.0
H1639 H 0.73297 0.50635 0.5238 0.0
C1640 C 0.27292 0.49937 0.22931 0.0
C1641 C 0.28659 0.49074 0.22837 0.0
C1642 C 0.26515 0.49953 0.2359 0.0
C1643 C 0.26055 0.47731 0.25253 0.0
H1644 H 0.24335 0.51459 0.26013 0.0
C1645 C 0.2354 0.48104 0.28115 0.0
C1646 C 0.22173 0.48962 0.28218 0.0
C1647 C 0.24331 0.48136 0.2746 0.0
C1648 C 0.24792 0.50405 0.25805 0.0
H1649 H 0.30278 0.4755 0.23366 0.0
H1650 H 0.28937 0.47596 0.24518 0.0
H1651 H 0.25725 0.51492 0.24873 0.0
H1652 H 0.20576 0.50539 0.27709 0.0
H1653 H 0.21937 0.5057 0.26562 0.0
H1654 H 0.25119 0.46641 0.26181 0.0
C1655 C 0.28458 0.4825 0.24079 0.0
C1656 C 0.2559 0.50424 0.25151 0.0
C1657 C 0.29237 0.48238 0.23421 0.0
C1658 C 0.21616 0.49853 0.27647 0.0
C1659 C 0.22408 0.49885 0.26992 0.0
C1660 C 0.25255 0.47711 0.25905 0.0
C1661 C 0.27083 0.49102 0.24171 0.0
C1662 C 0.26234 0.49087 0.24867 0.0
C1663 C 0.23774 0.49025 0.2689 0.0
C1664 C 0.24615 0.49048 0.26191 0.0
H1665 H 0.26824 0.50608 0.22495 0.0
H1666 H 0.25453 0.50613 0.2364 0.0
H1667 H 0.26512 0.46676 0.25044 0.0
H1668 H 0.23994 0.47392 0.28539 0.0
H1669 H 0.25389 0.47473 0.27404 0.0
C1670 C 0.26131 0.52271 0.97904 0.0
C1671 C 0.25257 0.53612 0.97832 0.0
C1672 C 0.26097 0.51442 0.98541 0.0
C1673 C 0.23769 0.50851 1.00191 0.0
H1674 H 0.27614 0.49079 0.00904 0.0
C1675 C 0.24272 0.48143 0.03007 0.0
C1676 C 0.25154 0.46805 0.0307 0.0
C1677 C 0.24251 0.48959 0.02365 0.0
C1678 C 0.26526 0.49551 0.00708 0.0
H1679 H 0.23648 0.5512 0.98377 0.0
H1680 H 0.23614 0.53689 0.99494 0.0
H1681 H 0.27649 0.5054 0.99798 0.0
H1682 H 0.26704 0.45278 0.02502 0.0
H1683 H 0.26648 0.46687 0.0138 0.0
H1684 H 0.22649 0.49865 0.01104 0.0
C1685 C 0.24313 0.5327 0.99053 0.0
C1686 C 0.26546 0.50389 1.00074 0.0
C1687 C 0.24348 0.54101 0.98415 0.0
C1688 C 0.26001 0.46296 0.02471 0.0
C1689 C 0.25984 0.47114 0.0183 0.0
C1690 C 0.2375 0.50013 0.00827 0.0
C1691 C 0.2519 0.51931 0.99125 0.0
C1692 C 0.25167 0.51048 0.99805 0.0
C1693 C 0.25115 0.4846 0.0177 0.0
C1694 C 0.25129 0.4935 0.01093 0.0
H1695 H 0.2686 0.51869 0.9747 0.0
H1696 H 0.26773 0.50407 0.98574 0.0
H1697 H 0.22681 0.51323 0.99995 0.0
H1698 H 0.23592 0.48559 0.03455 0.0
H1699 H 0.23579 0.49997 0.0234 0.0
C1700 C 0.21426 0.52287 0.73422 0.0
C1701 C 0.22009 0.51466 0.72835 0.0
C1702 C 0.22206 0.52266 0.7408 0.0
C1703 C 0.25091 0.50092 0.75144 0.0
H1704 H 0.25528 0.53858 0.7619 0.0
C1705 C 0.29056 0.50654 0.77647 0.0
C1706 C 0.2849 0.51531 0.7822 0.0
C1707 C 0.28265 0.50624 0.76991 0.0
C1708 C 0.25401 0.52793 0.7591 0.0
H1709 H 0.23854 0.49951 0.72486 0.0
H1710 H 0.25226 0.49932 0.73632 0.0
H1711 H 0.24139 0.53835 0.75052 0.0
H1712 H 0.26651 0.53077 0.78545 0.0
H1713 H 0.25257 0.52998 0.77409 0.0
H1714 H 0.26353 0.4905 0.76004 0.0
C1715 C 0.24159 0.50585 0.73584 0.0
C1716 C 0.24603 0.52779 0.75256 0.0
C1717 C 0.23381 0.50609 0.72925 0.0
C1718 C 0.27112 0.52375 0.78119 0.0
C1719 C 0.26322 0.52345 0.77464 0.0
C1720 C 0.25888 0.50105 0.75799 0.0
C1721 C 0.23587 0.51421 0.74169 0.0
C1722 C 0.24436 0.51429 0.74865 0.0
C1723 C 0.26889 0.51472 0.76891 0.0
C1724 C 0.26051 0.51455 0.76191 0.0
H1725 H 0.20381 0.5297 0.73369 0.0
H1726 H 0.21722 0.52909 0.74521 0.0
H1727 H 0.24966 0.49029 0.74862 0.0
H1728 H 0.30105 0.49979 0.77707 0.0
H1729 H 0.28743 0.49951 0.76559 0.0
C1730 C 0.24733 0.48327 0.47997 0.0
C1731 C 0.25575 0.46968 0.47922 0.0
C1732 C 0.24806 0.49159 0.48633 0.0
C1733 C 0.2573 0.48802 0.50558 0.0
H1734 H 0.25956 0.53182 0.50481 0.0
C1735 C 0.26558 0.52439 0.53105 0.0
C1736 C 0.25672 0.53777 0.53155 0.0
C1737 C 0.26612 0.5162 0.52464 0.0
C1738 C 0.25877 0.51961 0.50513 0.0
H1739 H 0.27169 0.45431 0.48459 0.0
H1740 H 0.2729 0.46881 0.4957 0.0
H1741 H 0.25928 0.51729 0.49372 0.0
H1742 H 0.24142 0.55294 0.5257 0.0
H1743 H 0.24233 0.53866 0.51455 0.0
H1744 H 0.25666 0.49033 0.51698 0.0
C1745 C 0.26559 0.47293 0.49138 0.0
C1746 C 0.25861 0.51127 0.49876 0.0
C1747 C 0.26489 0.46462 0.48501 0.0
C1748 C 0.24854 0.54282 0.52547 0.0
C1749 C 0.24907 0.53462 0.51907 0.0
C1750 C 0.25743 0.49636 0.51194 0.0
C1751 C 0.25719 0.48654 0.49212 0.0
C1752 C 0.25779 0.49537 0.4989 0.0
C1753 C 0.25782 0.52117 0.51858 0.0
C1754 C 0.25809 0.51227 0.5118 0.0
H1755 H 0.23994 0.48738 0.47569 0.0
H1756 H 0.24121 0.50187 0.48675 0.0
H1757 H 0.25644 0.4758 0.50588 0.0
H1758 H 0.27222 0.52031 0.53559 0.0
H1759 H 0.27319 0.50604 0.52443 0.0
C1760 C 0.24307 0.09004 0.40259 0.0
C1761 C 0.23482 0.08591 0.4088 0.0
C1762 C 0.23838 0.08476 0.39587 0.0
C1763 C 0.2144 0.05555 0.3868 0.0
H1764 H 0.21272 0.08503 0.37143 0.0
C1765 C 0.18022 0.04521 0.36056 0.0
C1766 C 0.1864 0.05091 0.35412 0.0
C1767 C 0.18732 0.0485 0.36711 0.0
C1768 C 0.21335 0.07657 0.37562 0.0
H1769 H 0.21531 0.07272 0.4128 0.0
H1770 H 0.20716 0.06346 0.40108 0.0
H1771 H 0.223 0.0924 0.38307 0.0
H1772 H 0.20514 0.06435 0.34956 0.0
H1773 H 0.21774 0.0698 0.36098 0.0
H1774 H 0.20462 0.03975 0.37935 0.0
C1775 C 0.21736 0.07068 0.40142 0.0
C1776 C 0.21923 0.08081 0.38231 0.0
C1777 C 0.22204 0.07599 0.40814 0.0
C1778 C 0.20011 0.05968 0.3544 0.0
C1779 C 0.20723 0.06296 0.36096 0.0
C1780 C 0.20854 0.05129 0.3801 0.0
C1781 C 0.22535 0.07518 0.39519 0.0
C1782 C 0.21973 0.07039 0.38799 0.0
C1783 C 0.20083 0.05756 0.36741 0.0
C1784 C 0.20782 0.06179 0.37444 0.0
H1785 H 0.25315 0.09743 0.40291 0.0
H1786 H 0.24496 0.08821 0.39119 0.0
H1787 H 0.21482 0.04719 0.39103 0.0
H1788 H 0.1698 0.03824 0.36054 0.0
H1789 H 0.18197 0.04426 0.37197 0.0
C1790 C 0.23256 0.93333 0.6027 0.0
C1791 C 0.23315 0.91783 0.601 0.0
C1792 C 0.2279 0.93811 0.60952 0.0
C1793 C 0.22332 0.92422 0.62816 0.0
H1794 H 0.19511 0.9583 0.63023 0.0
C1795 C 0.18865 0.93534 0.65405 0.0
C1796 C 0.18693 0.95037 0.65639 0.0
C1797 C 0.19551 0.93215 0.64743 0.0
C1798 C 0.20317 0.94889 0.62975 0.0
H1799 H 0.22881 0.89524 0.6051 0.0
H1800 H 0.2207 0.90353 0.61693 0.0
H1801 H 0.20471 0.95137 0.61836 0.0
H1802 H 0.19117 0.97384 0.65362 0.0
H1803 H 0.20326 0.96825 0.64205 0.0
H1804 H 0.22157 0.92157 0.63952 0.0
C1805 C 0.22418 0.91201 0.61306 0.0
C1806 C 0.20867 0.94492 0.62295 0.0
C1807 C 0.22884 0.90725 0.60626 0.0
C1808 C 0.19243 0.96214 0.65199 0.0
C1809 C 0.19921 0.95895 0.64534 0.0
C1810 C 0.21779 0.92816 0.63494 0.0
C1811 C 0.2237 0.92748 0.61479 0.0
C1812 C 0.21864 0.9324 0.62206 0.0
C1813 C 0.20076 0.94391 0.64297 0.0
C1814 C 0.20748 0.94041 0.63581 0.0
H1815 H 0.23594 0.94177 0.59878 0.0
H1816 H 0.22779 0.95011 0.6107 0.0
H1817 H 0.23125 0.91471 0.62769 0.0
H1818 H 0.18468 0.92601 0.65734 0.0
H1819 H 0.19638 0.92045 0.64575 0.0
C1820 C 0.28504 0.93062 0.909 0.0
C1821 C 0.27207 0.92093 0.90964 0.0
C1822 C 0.28972 0.936 0.90229 0.0
C1823 C 0.28737 0.92632 0.88315 0.0
H1824 H 0.30274 0.96716 0.88031 0.0
C1825 C 0.30649 0.9476 0.85527 0.0
C1826 C 0.32034 0.95614 0.85499 0.0
C1827 C 0.2994 0.94433 0.86184 0.0
C1828 C 0.2986 0.95568 0.88103 0.0
H1829 H 0.2534 0.90993 0.90375 0.0
H1830 H 0.26159 0.91927 0.89206 0.0
H1831 H 0.29257 0.95968 0.892 0.0
H1832 H 0.33725 0.96844 0.86141 0.0
H1833 H 0.32515 0.96243 0.87285 0.0
H1834 H 0.29364 0.92218 0.87224 0.0
C1835 C 0.26832 0.92248 0.89673 0.0
C1836 C 0.29276 0.9514 0.88773 0.0
C1837 C 0.26363 0.91712 0.90344 0.0
C1838 C 0.32672 0.96164 0.86143 0.0
C1839 C 0.31965 0.95836 0.86799 0.0
C1840 C 0.29324 0.93057 0.87646 0.0
C1841 C 0.28155 0.93181 0.89606 0.0
C1842 C 0.28716 0.93664 0.88888 0.0
C1843 C 0.306 0.94952 0.8683 0.0
C1844 C 0.29903 0.94528 0.87533 0.0
H1845 H 0.29192 0.93363 0.91366 0.0
H1846 H 0.30007 0.94303 0.90196 0.0
H1847 H 0.28339 0.91478 0.88388 0.0
H1848 H 0.30131 0.94309 0.85043 0.0
H1849 H 0.28878 0.93766 0.86187 0.0
C1850 C 0.28363 0.09771 0.1055 0.0
C1851 C 0.27448 0.08861 0.10097 0.0
C1852 C 0.28833 0.09246 0.11221 0.0
C1853 C 0.29417 0.05761 0.12282 0.0
H1854 H 0.29457 0.08583 0.13872 0.0
C1855 C 0.32722 0.04576 0.14923 0.0
C1856 C 0.32077 0.05106 0.15569 0.0
C1857 C 0.32026 0.0493 0.14267 0.0
C1858 C 0.29435 0.07772 0.13437 0.0
H1859 H 0.26315 0.06677 0.09995 0.0
H1860 H 0.27134 0.05757 0.11172 0.0
H1861 H 0.28477 0.094 0.12712 0.0
H1862 H 0.30167 0.06395 0.16028 0.0
H1863 H 0.28932 0.06983 0.14885 0.0
H1864 H 0.30362 0.04128 0.13012 0.0
C1865 C 0.275 0.06875 0.11003 0.0
C1866 C 0.28892 0.08248 0.12768 0.0
C1867 C 0.2703 0.07401 0.10328 0.0
C1868 C 0.30691 0.0596 0.15542 0.0
C1869 C 0.29993 0.06312 0.14885 0.0
C1870 C 0.2996 0.05284 0.12952 0.0
C1871 C 0.28399 0.07796 0.11459 0.0
C1872 C 0.28895 0.07255 0.1218 0.0
C1873 C 0.30664 0.0582 0.14238 0.0
C1874 C 0.29992 0.06289 0.13536 0.0
H1875 H 0.28734 0.10888 0.10382 0.0
H1876 H 0.29555 0.09973 0.11551 0.0
H1877 H 0.29444 0.04969 0.1184 0.0
H1878 H 0.33776 0.03896 0.14923 0.0
H1879 H 0.32584 0.04542 0.1378 0.0
C1880 C 0.77238 0.93133 0.60305 0.0
C1881 C 0.77334 0.916 0.60107 0.0
C1882 C 0.77714 0.93604 0.60987 0.0
C1883 C 0.7849 0.92128 0.62813 0.0
H1884 H 0.80935 0.95791 0.63041 0.0
C1885 C 0.82039 0.93385 0.65364 0.0
C1886 C 0.82062 0.94876 0.65626 0.0
C1887 C 0.81338 0.93051 0.64707 0.0
C1888 C 0.80235 0.94776 0.62988 0.0
H1889 H 0.78055 0.8937 0.60465 0.0
H1890 H 0.78882 0.90187 0.61648 0.0
H1891 H 0.79953 0.95095 0.61858 0.0
H1892 H 0.81356 0.97186 0.65404 0.0
H1893 H 0.80119 0.966 0.64255 0.0
H1894 H 0.78793 0.91794 0.6394 0.0
C1895 C 0.78405 0.91023 0.61284 0.0
C1896 C 0.79671 0.94377 0.6231 0.0
C1897 C 0.77931 0.90554 0.60604 0.0
C1898 C 0.81348 0.96025 0.65219 0.0
C1899 C 0.80653 0.95692 0.64558 0.0
C1900 C 0.79056 0.92524 0.6349 0.0
C1901 C 0.78297 0.92552 0.61486 0.0
C1902 C 0.78811 0.93036 0.62213 0.0
C1903 C 0.80646 0.94201 0.64294 0.0
C1904 C 0.79953 0.93841 0.63583 0.0
H1905 H 0.76772 0.93966 0.59937 0.0
H1906 H 0.77603 0.94788 0.61128 0.0
H1907 H 0.77803 0.91104 0.62761 0.0
H1908 H 0.82565 0.92473 0.65668 0.0
H1909 H 0.81366 0.91894 0.64516 0.0
C1910 C 0.77121 0.08106 0.40597 0.0
C1911 C 0.78163 0.0887 0.41054 0.0
C1912 C 0.77604 0.07628 0.39917 0.0
C1913 C 0.80603 0.08452 0.38546 0.0
H1914 H 0.79385 0.04582 0.37742 0.0
C1915 C 0.83521 0.06061 0.3602 0.0
C1916 C 0.82574 0.05346 0.35506 0.0
C1917 C 0.82915 0.06473 0.36686 0.0
C1918 C 0.79719 0.05674 0.37956 0.0
H1919 H 0.80549 0.0966 0.4117 0.0
H1920 H 0.81392 0.08821 0.3999 0.0
H1921 H 0.78464 0.05301 0.38934 0.0
H1922 H 0.80242 0.04496 0.35293 0.0
H1923 H 0.79173 0.05233 0.36457 0.0
H1924 H 0.81862 0.08827 0.37574 0.0
C1925 C 0.80191 0.08624 0.40148 0.0
C1926 C 0.79193 0.06086 0.38639 0.0
C1927 C 0.79709 0.09103 0.40825 0.0
C1928 C 0.81 0.05054 0.35675 0.0
C1929 C 0.80392 0.05463 0.36344 0.0
C1930 C 0.81129 0.08041 0.37866 0.0
C1931 C 0.79139 0.07902 0.39681 0.0
C1932 C 0.79644 0.07473 0.38946 0.0
C1933 C 0.81343 0.06183 0.36856 0.0
C1934 C 0.80709 0.06641 0.37566 0.0
H1935 H 0.75918 0.0792 0.40756 0.0
H1936 H 0.76761 0.07084 0.39569 0.0
H1937 H 0.80943 0.09544 0.38758 0.0
H1938 H 0.84733 0.06322 0.35905 0.0
H1939 H 0.83685 0.07008 0.3707 0.0
C1940 C 0.72675 0.10037 0.10646 0.0
C1941 C 0.73237 0.08986 0.10143 0.0
C1942 C 0.72204 0.09568 0.11326 0.0
C1943 C 0.70881 0.06228 0.12347 0.0
H1944 H 0.71858 0.08767 0.13981 0.0
C1945 C 0.69225 0.04581 0.15259 0.0
C1946 C 0.68549 0.05741 0.15671 0.0
C1947 C 0.69914 0.04906 0.14596 0.0
C1948 C 0.71568 0.0805 0.1353 0.0
H1949 H 0.73739 0.06611 0.09963 0.0
H1950 H 0.72914 0.05788 0.11155 0.0
H1951 H 0.72839 0.09451 0.128 0.0
H1952 H 0.68105 0.08154 0.15721 0.0
H1953 H 0.69294 0.0872 0.14566 0.0
H1954 H 0.69599 0.04833 0.13079 0.0
C1955 C 0.72827 0.06977 0.11019 0.0
C1956 C 0.72128 0.08443 0.12852 0.0
C1957 C 0.733 0.07448 0.10336 0.0
C1958 C 0.68602 0.07234 0.15413 0.0
C1959 C 0.69298 0.0756 0.14754 0.0
C1960 C 0.70323 0.05832 0.13026 0.0
C1961 C 0.7228 0.08034 0.11523 0.0
C1962 C 0.71772 0.07551 0.1225 0.0
C1963 C 0.69953 0.064 0.14336 0.0
C1964 C 0.7064 0.06753 0.13623 0.0
H1965 H 0.72577 0.11226 0.10511 0.0
H1966 H 0.71755 0.10409 0.11695 0.0
H1967 H 0.70572 0.05523 0.11894 0.0
H1968 H 0.69193 0.03418 0.15441 0.0
H1969 H 0.70419 0.03989 0.14289 0.0
C1970 C 0.73399 0.90865 0.90333 0.0
C1971 C 0.733 0.91856 0.90921 0.0
C1972 C 0.72906 0.91323 0.89653 0.0
C1973 C 0.71963 0.94713 0.8856 0.0
H1974 H 0.69678 0.91811 0.87407 0.0
C1975 C 0.68555 0.96342 0.85988 0.0
C1976 C 0.6863 0.95336 0.85406 0.0
C1977 C 0.69216 0.95956 0.86649 0.0
C1978 C 0.70331 0.9263 0.87718 0.0
H1979 H 0.72631 0.94121 0.91247 0.0
H1980 H 0.71732 0.94907 0.90064 0.0
H1981 H 0.7064 0.91072 0.88582 0.0
H1982 H 0.69477 0.93141 0.8506 0.0
H1983 H 0.70645 0.92475 0.8621 0.0
H1984 H 0.71629 0.96277 0.87696 0.0
C1985 C 0.7221 0.9378 0.90128 0.0
C1986 C 0.70885 0.92206 0.88393 0.0
C1987 C 0.72709 0.93323 0.90809 0.0
C1988 C 0.69409 0.93947 0.85496 0.0
C1989 C 0.70063 0.93558 0.86157 0.0
C1990 C 0.71403 0.95139 0.87885 0.0
C1991 C 0.72292 0.92781 0.89543 0.0
C1992 C 0.7171 0.9324 0.88823 0.0
C1993 C 0.6996 0.94551 0.86743 0.0
C1994 C 0.70581 0.94101 0.87456 0.0
H1995 H 0.73828 0.8972 0.90399 0.0
H1996 H 0.73008 0.9053 0.89214 0.0
H1997 H 0.72612 0.95533 0.88872 0.0
H1998 H 0.67976 0.97427 0.85934 0.0
H1999 H 0.69107 0.96743 0.8709 0.0
C2000 C 0.68046 0.52919 0.86059 0.0
C2001 C 0.68602 0.53496 0.85405 0.0
C2002 C 0.68739 0.53343 0.86707 0.0
C2003 C 0.71114 0.564 0.87505 0.0
H2004 H 0.71547 0.53584 0.89085 0.0
C2005 C 0.74069 0.58135 0.90155 0.0
C2006 C 0.73309 0.57698 0.9079 0.0
C2007 C 0.73613 0.57535 0.89495 0.0
C2008 C 0.71423 0.54386 0.8865 0.0
H2009 H 0.70348 0.54952 0.84922 0.0
H2010 H 0.7158 0.55665 0.8605 0.0
H2011 H 0.70558 0.52688 0.87935 0.0
H2012 H 0.71487 0.56263 0.91227 0.0
H2013 H 0.70694 0.55211 0.90075 0.0
H2014 H 0.71967 0.58099 0.8822 0.0
C2015 C 0.7059 0.54901 0.86062 0.0
C2016 C 0.70856 0.53873 0.87991 0.0
C2017 C 0.69896 0.54477 0.85414 0.0
C2018 C 0.7211 0.56613 0.9075 0.0
C2019 C 0.71655 0.5601 0.90089 0.0
C2020 C 0.71685 0.56911 0.88163 0.0
C2021 C 0.70009 0.54354 0.86718 0.0
C2022 C 0.70683 0.54876 0.87411 0.0
C2023 C 0.72387 0.56479 0.89453 0.0
C2024 C 0.71837 0.55913 0.88745 0.0
H2025 H 0.67065 0.52144 0.86072 0.0
H2026 H 0.6825 0.52909 0.87201 0.0
H2027 H 0.70971 0.57211 0.87075 0.0
H2028 H 0.75018 0.58947 0.90168 0.0
H2029 H 0.74221 0.57899 0.89017 0.0
C2030 C 0.72178 0.43971 0.10278 0.0
C2031 C 0.73332 0.42839 0.10239 0.0
C2032 C 0.71734 0.44577 0.1094 0.0
C2033 C 0.71684 0.43638 0.12862 0.0
H2034 H 0.70736 0.47899 0.13104 0.0
C2035 C 0.69932 0.4609 0.15612 0.0
C2036 C 0.68681 0.47123 0.15618 0.0
C2037 C 0.70626 0.45651 0.14966 0.0
C2038 C 0.70984 0.46704 0.13044 0.0
H2039 H 0.74972 0.4151 0.10864 0.0
H2040 H 0.74193 0.42562 0.12016 0.0
H2041 H 0.71711 0.46986 0.11954 0.0
H2042 H 0.67222 0.48549 0.14948 0.0
H2043 H 0.68403 0.47758 0.13823 0.0
H2044 H 0.70934 0.43347 0.13945 0.0
C2045 C 0.73612 0.42962 0.11536 0.0
C2046 C 0.71543 0.46181 0.12385 0.0
C2047 C 0.74058 0.42358 0.10876 0.0
C2048 C 0.68168 0.47734 0.14963 0.0
C2049 C 0.6886 0.47295 0.14318 0.0
C2050 C 0.71121 0.4416 0.1352 0.0
C2051 C 0.72431 0.44066 0.11578 0.0
C2052 C 0.71892 0.4464 0.12285 0.0
C2053 C 0.70086 0.46234 0.1431 0.0
C2054 C 0.70755 0.45698 0.13618 0.0
H2055 H 0.71581 0.44356 0.098 0.0
H2056 H 0.70808 0.45413 0.10953 0.0
H2057 H 0.71916 0.4244 0.12801 0.0
H2058 H 0.70351 0.45588 0.16105 0.0
H2059 H 0.71581 0.44847 0.14981 0.0
C2060 C 0.76523 0.42436 0.40146 0.0
C2061 C 0.7727 0.42885 0.40783 0.0
C2062 C 0.76986 0.43034 0.39487 0.0
C2063 C 0.79168 0.46191 0.38645 0.0
H2064 H 0.7966 0.43361 0.37074 0.0
C2065 C 0.82581 0.47664 0.36066 0.0
C2066 C 0.82038 0.47084 0.3541 0.0
C2067 C 0.81879 0.47237 0.36711 0.0
C2068 C 0.79506 0.44173 0.37503 0.0
H2069 H 0.79076 0.44334 0.41224 0.0
H2070 H 0.79881 0.45379 0.40073 0.0
H2071 H 0.78651 0.42473 0.38218 0.0
H2072 H 0.80307 0.45618 0.34921 0.0
H2073 H 0.79061 0.449 0.36045 0.0
H2074 H 0.80035 0.4789 0.3793 0.0
C2075 C 0.78925 0.44576 0.40085 0.0
C2076 C 0.78928 0.43662 0.3816 0.0
C2077 C 0.78463 0.43976 0.40745 0.0
C2078 C 0.80749 0.46095 0.35415 0.0
C2079 C 0.80047 0.45669 0.3606 0.0
C2080 C 0.79743 0.46703 0.37986 0.0
C2081 C 0.78206 0.44097 0.39447 0.0
C2082 C 0.78762 0.44662 0.3874 0.0
C2083 C 0.80614 0.46221 0.36718 0.0
C2084 C 0.7993 0.45698 0.37408 0.0
H2085 H 0.75579 0.4162 0.40157 0.0
H2086 H 0.76388 0.42661 0.39007 0.0
H2087 H 0.79033 0.46995 0.39078 0.0
H2088 H 0.83556 0.48444 0.36082 0.0
H2089 H 0.82358 0.47675 0.37206 0.0
C2090 C 0.78427 0.56416 0.6021 0.0
C2091 C 0.77431 0.57683 0.60197 0.0
C2092 C 0.78896 0.55776 0.60861 0.0
C2093 C 0.77948 0.55647 0.62804 0.0
H2094 H 0.82308 0.54513 0.62995 0.0
C2095 C 0.80927 0.5455 0.65543 0.0
C2096 C 0.82034 0.53376 0.65584 0.0
C2097 C 0.80269 0.5496 0.64885 0.0
C2098 C 0.81082 0.54804 0.62949 0.0
H2099 H 0.761 0.59231 0.60862 0.0
H2100 H 0.76945 0.58139 0.61994 0.0
H2101 H 0.81337 0.55427 0.61848 0.0
H2102 H 0.8326 0.51667 0.64969 0.0
H2103 H 0.82118 0.52384 0.63822 0.0
H2104 H 0.77705 0.55046 0.6391 0.0
C2105 C 0.77355 0.57631 0.61502 0.0
C2106 C 0.80523 0.55327 0.6229 0.0
C2107 C 0.76886 0.58269 0.60851 0.0
C2108 C 0.82434 0.52596 0.64954 0.0
C2109 C 0.81779 0.53007 0.64297 0.0
C2110 C 0.78509 0.55127 0.63464 0.0
C2111 C 0.7838 0.56386 0.61516 0.0
C2112 C 0.78952 0.55764 0.6221 0.0
C2113 C 0.80704 0.54207 0.64252 0.0
C2114 C 0.80085 0.54707 0.63545 0.0
H2115 H 0.78879 0.55942 0.59718 0.0
H2116 H 0.79669 0.54806 0.60851 0.0
H2117 H 0.76726 0.55952 0.62759 0.0
H2118 H 0.80605 0.55187 0.66016 0.0
H2119 H 0.79458 0.55901 0.64868 0.0
C2120 C 0.27985 0.4163 0.10773 0.0
C2121 C 0.27506 0.42624 0.10227 0.0
C2122 C 0.28527 0.42186 0.11428 0.0
C2123 C 0.2855 0.45586 0.12588 0.0
H2124 H 0.32127 0.43598 0.13451 0.0
C2125 C 0.30729 0.46947 0.15463 0.0
C2126 C 0.32357 0.46995 0.15571 0.0
C2127 C 0.30108 0.46455 0.14809 0.0
C2128 C 0.31135 0.44175 0.13216 0.0
H2129 H 0.272 0.4499 0.0995 0.0
H2130 H 0.28178 0.45963 0.11089 0.0
H2131 H 0.31114 0.42688 0.12314 0.0
H2132 H 0.34603 0.46549 0.15074 0.0
H2133 H 0.33524 0.45728 0.13934 0.0
H2134 H 0.28596 0.47095 0.13487 0.0
C2135 C 0.28117 0.4475 0.11012 0.0
C2136 C 0.30541 0.4364 0.12567 0.0
C2137 C 0.27573 0.44192 0.10355 0.0
C2138 C 0.33345 0.46547 0.15008 0.0
C2139 C 0.32725 0.46056 0.14356 0.0
C2140 C 0.29146 0.46122 0.13239 0.0
C2141 C 0.28611 0.43753 0.11554 0.0
C2142 C 0.2924 0.44336 0.12245 0.0
C2143 C 0.31099 0.45994 0.14249 0.0
C2144 C 0.30448 0.45425 0.1356 0.0
H2145 H 0.27969 0.40417 0.10691 0.0
H2146 H 0.28878 0.41385 0.11836 0.0
H2147 H 0.27538 0.46141 0.12358 0.0
H2148 H 0.29935 0.47297 0.15882 0.0
H2149 H 0.2885 0.4641 0.14747 0.0
C2150 C 0.26586 0.58156 0.90116 0.0
C2151 C 0.27343 0.57722 0.90753 0.0
C2152 C 0.2705 0.57557 0.89457 0.0
C2153 C 0.29261 0.54416 0.88618 0.0
H2154 H 0.29709 0.57238 0.87041 0.0
C2155 C 0.32665 0.52957 0.86035 0.0
C2156 C 0.32109 0.53527 0.85379 0.0
C2157 C 0.31966 0.53381 0.86681 0.0
C2158 C 0.29568 0.56428 0.87472 0.0
H2159 H 0.29171 0.56296 0.91193 0.0
H2160 H 0.29977 0.55247 0.90043 0.0
H2161 H 0.287 0.58126 0.88185 0.0
H2162 H 0.30357 0.54973 0.84891 0.0
H2163 H 0.29115 0.55685 0.86016 0.0
H2164 H 0.30142 0.5272 0.87905 0.0
C2165 C 0.29013 0.56041 0.90055 0.0
C2166 C 0.2899 0.56938 0.88128 0.0
C2167 C 0.28549 0.56642 0.90715 0.0
C2168 C 0.3081 0.54503 0.85385 0.0
C2169 C 0.30109 0.54926 0.86032 0.0
C2170 C 0.29837 0.53904 0.8796 0.0
C2171 C 0.28282 0.56507 0.89417 0.0
C2172 C 0.28839 0.55941 0.88711 0.0
C2173 C 0.3069 0.54385 0.86688 0.0
C2174 C 0.30008 0.54907 0.8738 0.0
H2175 H 0.25633 0.58963 0.90127 0.0
H2176 H 0.26444 0.57919 0.88978 0.0
H2177 H 0.2914 0.53614 0.89053 0.0
H2178 H 0.3365 0.52186 0.8605 0.0
H2179 H 0.32455 0.52952 0.87176 0.0
C2180 C 0.17982 0.53008 0.64979 0.0
C2181 C 0.18554 0.53559 0.65635 0.0
C2182 C 0.18684 0.53429 0.64333 0.0
C2183 C 0.21136 0.56441 0.63547 0.0
H2184 H 0.21494 0.53641 0.61957 0.0
C2185 C 0.2412 0.5815 0.609 0.0
C2186 C 0.23348 0.57738 0.60264 0.0
C2187 C 0.23652 0.57551 0.61559 0.0
C2188 C 0.21392 0.54439 0.62394 0.0
H2189 H 0.20337 0.54964 0.66125 0.0
H2190 H 0.21584 0.5567 0.65 0.0
H2191 H 0.20486 0.5275 0.63105 0.0
H2192 H 0.2149 0.5635 0.59824 0.0
H2193 H 0.20677 0.55301 0.60973 0.0
H2194 H 0.22029 0.58132 0.62837 0.0
C2195 C 0.20576 0.5493 0.64984 0.0
C2196 C 0.20813 0.53929 0.63052 0.0
C2197 C 0.19872 0.5451 0.65631 0.0
C2198 C 0.22123 0.56679 0.60302 0.0
C2199 C 0.21656 0.56078 0.60961 0.0
C2200 C 0.21717 0.56949 0.6289 0.0
C2201 C 0.1998 0.54409 0.64327 0.0
C2202 C 0.20667 0.54927 0.63636 0.0
C2203 C 0.22402 0.56522 0.61599 0.0
C2204 C 0.21842 0.55958 0.62304 0.0
H2205 H 0.16983 0.52257 0.64963 0.0
H2206 H 0.18184 0.53016 0.63838 0.0
H2207 H 0.21015 0.57248 0.6398 0.0
H2208 H 0.25088 0.58941 0.60889 0.0
H2209 H 0.24271 0.57896 0.62038 0.0
C2210 C 0.21007 0.42823 0.40691 0.0
C2211 C 0.22581 0.42882 0.40906 0.0
C2212 C 0.20536 0.43451 0.40039 0.0
C2213 C 0.22013 0.44512 0.38259 0.0
H2214 H 0.18082 0.46681 0.38127 0.0
C2215 C 0.19789 0.47219 0.35609 0.0
C2216 C 0.18186 0.47051 0.35461 0.0
C2217 C 0.20396 0.46805 0.36279 0.0
C2218 C 0.19176 0.46067 0.38153 0.0
H2219 H 0.24894 0.43656 0.40607 0.0
H2220 H 0.24069 0.44764 0.39466 0.0
H2221 H 0.1901 0.45812 0.39289 0.0
H2222 H 0.15976 0.46268 0.35894 0.0
H2223 H 0.17029 0.45548 0.37054 0.0
H2224 H 0.22165 0.44747 0.3712 0.0
C2225 C 0.23201 0.44223 0.39802 0.0
C2226 C 0.19709 0.4557 0.3882 0.0
C2227 C 0.23671 0.43602 0.40458 0.0
C2228 C 0.1721 0.46445 0.35994 0.0
C2229 C 0.17814 0.46032 0.36661 0.0
C2230 C 0.21477 0.45007 0.3759 0.0
C2231 C 0.21628 0.4415 0.39584 0.0
C2232 C 0.21122 0.44769 0.3888 0.0
C2233 C 0.19413 0.46214 0.36814 0.0
C2234 C 0.2004 0.45771 0.37528 0.0
H2235 H 0.20135 0.4229 0.41028 0.0
H2236 H 0.19319 0.43361 0.39885 0.0
H2237 H 0.23099 0.43885 0.38287 0.0
H2238 H 0.20571 0.47694 0.35213 0.0
H2239 H 0.21631 0.46972 0.36381 0.0
C2240 C 0.06178 0.04193 0.30084 0.0
C2241 C 0.07059 0.03416 0.30603 0.0
C2242 C 0.04546 0.04202 0.30114 0.0
C2243 C 0.0118 0.02109 0.30858 0.0
H2244 H 0.98918 0.05793 0.30408 0.0
C2245 C 0.94454 0.02603 0.31157 0.0
C2246 C 0.9365 0.03366 0.30608 0.0
C2247 C 0.96089 0.0262 0.31184 0.0
C2248 C 0.99531 0.04751 0.30528 0.0
H2249 H 0.06907 0.0203 0.31559 0.0
H2250 H 0.04056 0.02064 0.31617 0.0
H2251 H 0.01767 0.05806 0.30407 0.0
H2252 H 0.9394 0.04762 0.29662 0.0
H2253 H 0.96786 0.04768 0.29701 0.0
H2254 H 0.98941 0.01053 0.30975 0.0
C2255 C 0.0463 0.02656 0.31183 0.0
C2256 C 0.01165 0.04758 0.30528 0.0
C2257 C 0.06265 0.02651 0.31154 0.0
C2258 C 0.94521 0.04149 0.30088 0.0
C2259 C 0.96153 0.04168 0.30115 0.0
C2260 C 0.99543 0.02102 0.30858 0.0
C2261 C 0.0375 0.03433 0.30663 0.0
C2262 C 0.0201 0.03435 0.30688 0.0
C2263 C 0.96959 0.03404 0.30664 0.0
C2264 C 0.98699 0.0342 0.30688 0.0
H2265 H 0.06751 0.04809 0.29657 0.0
H2266 H 0.03905 0.04797 0.297 0.0
H2267 H 0.01793 0.01065 0.30975 0.0
H2268 H 0.93821 0.01978 0.31563 0.0
H2269 H 0.96672 0.02031 0.31617 0.0
C2270 C 0.2741 0.80722 0.54849 0.0
C2271 C 0.26279 0.81541 0.55234 0.0
C2272 C 0.27461 0.79141 0.54885 0.0
C2273 C 0.26145 0.75877 0.5598 0.0
H2274 H 0.26867 0.73609 0.54234 0.0
C2275 C 0.25196 0.69402 0.55793 0.0
C2276 C 0.2627 0.68556 0.55387 0.0
C2277 C 0.2525 0.70984 0.55794 0.0
C2278 C 0.26684 0.74224 0.54729 0.0
H2279 H 0.24307 0.81332 0.55957 0.0
H2280 H 0.24394 0.78578 0.5602 0.0
H2281 H 0.26867 0.76365 0.542 0.0
H2282 H 0.28276 0.68718 0.54681 0.0
H2283 H 0.2837 0.71476 0.54683 0.0
H2284 H 0.25951 0.73732 0.56507 0.0
C2285 C 0.25258 0.79159 0.55698 0.0
C2286 C 0.26684 0.75806 0.54709 0.0
C2287 C 0.25208 0.80739 0.55661 0.0
C2288 C 0.27413 0.69333 0.5499 0.0
C2289 C 0.27467 0.70915 0.54991 0.0
C2290 C 0.26144 0.74293 0.55999 0.0
C2291 C 0.26382 0.78339 0.55308 0.0
C2292 C 0.26411 0.76653 0.55334 0.0
C2293 C 0.26381 0.71761 0.5539 0.0
C2294 C 0.26409 0.73447 0.55374 0.0
H2295 H 0.28268 0.81304 0.54523 0.0
H2296 H 0.28358 0.78548 0.54588 0.0
H2297 H 0.25954 0.76493 0.56473 0.0
H2298 H 0.24287 0.68841 0.56097 0.0
H2299 H 0.24382 0.716 0.561 0.0
C2300 C 0.44384 0.97985 0.81226 0.0
C2301 C 0.43581 0.97217 0.80678 0.0
C2302 C 0.4602 0.97967 0.81253 0.0
C2303 C 0.49464 0.95832 0.80603 0.0
H2304 H 0.5172 0.9953 0.8103 0.0
C2305 C 0.56102 0.96401 0.80136 0.0
C2306 C 0.56989 0.9719 0.80648 0.0
C2307 C 0.5447 0.96388 0.80171 0.0
C2308 C 0.51108 0.98483 0.80919 0.0
H2309 H 0.43872 0.95807 0.79737 0.0
H2310 H 0.46718 0.95799 0.79778 0.0
H2311 H 0.48867 0.99535 0.81037 0.0
H2312 H 0.56848 0.9859 0.816 0.0
H2313 H 0.53997 0.98548 0.81668 0.0
H2314 H 0.51703 0.94781 0.80481 0.0
C2315 C 0.46085 0.96405 0.8019 0.0
C2316 C 0.49472 0.98486 0.80923 0.0
C2317 C 0.44453 0.96425 0.80161 0.0
C2318 C 0.56201 0.97961 0.81199 0.0
C2319 C 0.54567 0.9795 0.81234 0.0
C2320 C 0.51099 0.95829 0.80599 0.0
C2321 C 0.4689 0.97177 0.80736 0.0
C2322 C 0.4863 0.97163 0.80759 0.0
C2323 C 0.53681 0.97163 0.80721 0.0
C2324 C 0.51941 0.97157 0.80751 0.0
H2325 H 0.4375 0.98616 0.81629 0.0
H2326 H 0.46602 0.98562 0.81685 0.0
H2327 H 0.48854 0.94786 0.80487 0.0
H2328 H 0.56669 0.9578 0.79709 0.0
H2329 H 0.53825 0.95785 0.79762 0.0
C2330 C 0.23106 0.19891 0.04832 0.0
C2331 C 0.24237 0.19076 0.0522 0.0
C2332 C 0.2306 0.21473 0.04861 0.0
C2333 C 0.24387 0.24748 0.05945 0.0
H2334 H 0.23662 0.26999 0.04194 0.0
C2335 C 0.25352 0.31216 0.05744 0.0
C2336 C 0.24279 0.32062 0.05336 0.0
C2337 C 0.25293 0.29634 0.05748 0.0
C2338 C 0.23846 0.26388 0.04689 0.0
H2339 H 0.26217 0.19293 0.05938 0.0
H2340 H 0.26139 0.22048 0.05989 0.0
H2341 H 0.23656 0.24242 0.04166 0.0
H2342 H 0.22273 0.31901 0.04629 0.0
H2343 H 0.2217 0.29143 0.04637 0.0
H2344 H 0.24586 0.26897 0.06467 0.0
C2345 C 0.2527 0.21464 0.05671 0.0
C2346 C 0.23843 0.24806 0.04674 0.0
C2347 C 0.25315 0.19882 0.05641 0.0
C2348 C 0.23134 0.31285 0.04939 0.0
C2349 C 0.23075 0.29703 0.04944 0.0
C2350 C 0.24391 0.26331 0.0596 0.0
C2351 C 0.24145 0.22279 0.0528 0.0
C2352 C 0.24118 0.23965 0.05301 0.0
C2353 C 0.24159 0.28857 0.05345 0.0
C2354 C 0.24125 0.27171 0.05332 0.0
H2355 H 0.22242 0.19305 0.0451 0.0
H2356 H 0.22162 0.22063 0.04562 0.0
H2357 H 0.24579 0.24136 0.0644 0.0
H2358 H 0.26263 0.31776 0.06047 0.0
H2359 H 0.2616 0.29018 0.06055 0.0
C2360 C 0.94517 0.98566 0.70673 0.0
C2361 C 0.93659 0.97462 0.703 0.0
C2362 C 0.9615 0.98597 0.70635 0.0
C2363 C 0.9955 0.96165 0.70234 0.0
H2364 H 0.01778 0.9998 0.70127 0.0
C2365 C 0.0626 0.96438 0.69887 0.0
C2366 C 0.07066 0.97507 0.70305 0.0
C2367 C 0.04627 0.96457 0.69848 0.0
C2368 C 0.01174 0.98905 0.70163 0.0
H2369 H 0.9385 0.95524 0.69592 0.0
H2370 H 0.96696 0.95594 0.69517 0.0
H2371 H 0.98926 0.9997 0.70126 0.0
H2372 H 0.06781 0.99457 0.70998 0.0
H2373 H 0.03933 0.99473 0.70941 0.0
H2374 H 0.01796 0.951 0.70276 0.0
C2375 C 0.96106 0.96428 0.69845 0.0
C2376 C 0.99539 0.989 0.70163 0.0
C2377 C 0.94473 0.96398 0.69882 0.0
C2378 C 0.06198 0.98606 0.70677 0.0
C2379 C 0.04565 0.98627 0.70638 0.0
C2380 C 0.01185 0.9617 0.70234 0.0
C2381 C 0.96966 0.97523 0.70224 0.0
C2382 C 0.98706 0.97529 0.70202 0.0
C2383 C 0.03758 0.97547 0.70226 0.0
C2384 C 0.02018 0.97541 0.70203 0.0
H2385 H 0.93927 0.99413 0.70993 0.0
H2386 H 0.96774 0.99448 0.70939 0.0
H2387 H 0.98947 0.9509 0.70276 0.0
H2388 H 0.06891 0.95567 0.69598 0.0
H2389 H 0.04044 0.95619 0.6952 0.0
C2390 C 0.25452 0.80676 0.95352 0.0
C2391 C 0.24381 0.81476 0.9578 0.0
C2392 C 0.25408 0.79095 0.95318 0.0
C2393 C 0.24007 0.75744 0.96315 0.0
H2394 H 0.24728 0.73662 0.94518 0.0
C2395 C 0.23311 0.69265 0.96046 0.0
C2396 C 0.24451 0.68492 0.95645 0.0
C2397 C 0.23248 0.70847 0.96043 0.0
C2398 C 0.24539 0.74226 0.95026 0.0
H2399 H 0.22399 0.81238 0.96494 0.0
H2400 H 0.2232 0.78481 0.96435 0.0
H2401 H 0.24712 0.76423 0.94548 0.0
H2402 H 0.26423 0.68783 0.94929 0.0
H2403 H 0.26314 0.71541 0.94924 0.0
H2404 H 0.23841 0.73549 0.96794 0.0
C2405 C 0.23212 0.79075 0.96134 0.0
C2406 C 0.2453 0.75809 0.95043 0.0
C2407 C 0.23257 0.80656 0.96169 0.0
C2408 C 0.25516 0.6934 0.95235 0.0
C2409 C 0.25453 0.70923 0.95233 0.0
C2410 C 0.24015 0.74161 0.96298 0.0
C2411 C 0.24291 0.78274 0.95711 0.0
C2412 C 0.24269 0.76588 0.95689 0.0
C2413 C 0.24324 0.71696 0.9564 0.0
C2414 C 0.24286 0.73382 0.95654 0.0
H2415 H 0.26349 0.81269 0.95054 0.0
H2416 H 0.26272 0.78515 0.94996 0.0
H2417 H 0.23827 0.76305 0.96824 0.0
H2418 H 0.22455 0.68647 0.96357 0.0
H2419 H 0.22346 0.71405 0.96353 0.0
C2420 C 0.44465 0.04214 0.20932 0.0
C2421 C 0.43592 0.03457 0.20404 0.0
C2422 C 0.46097 0.04232 0.20905 0.0
C2423 C 0.49483 0.02197 0.20142 0.0
H2424 H 0.51714 0.05869 0.20639 0.0
C2425 C 0.56209 0.02748 0.19865 0.0
C2426 C 0.57 0.0348 0.20427 0.0
C2427 C 0.54574 0.02758 0.19833 0.0
C2428 C 0.5111 0.0483 0.20505 0.0
H2429 H 0.43759 0.02117 0.19435 0.0
H2430 H 0.4661 0.02169 0.19381 0.0
H2431 H 0.48865 0.05865 0.20634 0.0
H2432 H 0.56687 0.04817 0.2139 0.0
H2433 H 0.53841 0.04812 0.21341 0.0
H2434 H 0.51731 0.01161 0.20016 0.0
C2435 C 0.46029 0.02737 0.1982 0.0
C2436 C 0.49476 0.04827 0.20502 0.0
C2437 C 0.44394 0.02721 0.19847 0.0
C2438 C 0.56116 0.04227 0.20954 0.0
C2439 C 0.54484 0.0424 0.20921 0.0
C2440 C 0.51119 0.022 0.20144 0.0
C2441 C 0.46901 0.03494 0.20349 0.0
C2442 C 0.48641 0.03508 0.20326 0.0
C2443 C 0.53692 0.03506 0.20361 0.0
C2444 C 0.51952 0.03514 0.20332 0.0
H2445 H 0.43885 0.04807 0.21365 0.0
H2446 H 0.46731 0.04811 0.21326 0.0
H2447 H 0.48878 0.01156 0.20012 0.0
H2448 H 0.56854 0.02151 0.19454 0.0
H2449 H 0.54002 0.02192 0.1939 0.0
C2450 C 0.25396 0.31242 0.46305 0.0
C2451 C 0.26032 0.32074 0.45733 0.0
C2452 C 0.2541 0.2966 0.46296 0.0
C2453 C 0.27388 0.26376 0.4547 0.0
H2454 H 0.23744 0.2419 0.46145 0.0
C2455 C 0.26801 0.19858 0.45224 0.0
C2456 C 0.26142 0.19084 0.45809 0.0
C2457 C 0.26795 0.21441 0.45199 0.0
C2458 C 0.24779 0.24782 0.45962 0.0
H2459 H 0.27196 0.31888 0.44706 0.0
H2460 H 0.272 0.29124 0.44685 0.0
H2461 H 0.23716 0.26947 0.46126 0.0
H2462 H 0.2495 0.19376 0.46824 0.0
H2463 H 0.2497 0.22131 0.46788 0.0
H2464 H 0.28452 0.24207 0.45307 0.0
C2465 C 0.26701 0.29698 0.45144 0.0
C2466 C 0.24762 0.26364 0.45951 0.0
C2467 C 0.26684 0.31283 0.45152 0.0
C2468 C 0.25483 0.19934 0.46369 0.0
C2469 C 0.25477 0.21515 0.46344 0.0
C2470 C 0.27405 0.24792 0.45481 0.0
C2471 C 0.26061 0.28867 0.45715 0.0
C2472 C 0.26069 0.27182 0.45709 0.0
C2473 C 0.26128 0.2229 0.45758 0.0
C2474 C 0.26103 0.23975 0.45731 0.0
H2475 H 0.24868 0.31813 0.46757 0.0
H2476 H 0.24923 0.29057 0.46749 0.0
H2477 H 0.28422 0.2697 0.45288 0.0
H2478 H 0.27332 0.1924 0.44787 0.0
H2479 H 0.27296 0.22 0.44737 0.0
C2480 C 0.73769 0.19912 0.45276 0.0
C2481 C 0.74391 0.19146 0.45872 0.0
C2482 C 0.73776 0.21495 0.45247 0.0
C2483 C 0.75753 0.24841 0.46021 0.0
H2484 H 0.72149 0.27028 0.453 0.0
C2485 C 0.7516 0.31313 0.46321 0.0
C2486 C 0.74543 0.32134 0.4574 0.0
C2487 C 0.75138 0.29731 0.46321 0.0
C2488 C 0.73173 0.26434 0.45495 0.0
H2489 H 0.75514 0.1945 0.46903 0.0
H2490 H 0.75499 0.22206 0.46859 0.0
H2491 H 0.7211 0.24266 0.45331 0.0
H2492 H 0.73403 0.31926 0.44707 0.0
H2493 H 0.73389 0.29163 0.44702 0.0
H2494 H 0.76816 0.27005 0.46186 0.0
C2495 C 0.7502 0.21583 0.4641 0.0
C2496 C 0.7315 0.2485 0.45513 0.0
C2497 C 0.75011 0.20002 0.4644 0.0
C2498 C 0.73902 0.3133 0.4516 0.0
C2499 C 0.73878 0.29746 0.45161 0.0
C2500 C 0.75776 0.26423 0.46003 0.0
C2501 C 0.74407 0.2235 0.45813 0.0
C2502 C 0.74437 0.24035 0.4578 0.0
C2503 C 0.74499 0.28926 0.45741 0.0
C2504 C 0.74483 0.2724 0.45743 0.0
H2505 H 0.73268 0.19289 0.44833 0.0
H2506 H 0.73306 0.22049 0.44776 0.0
H2507 H 0.76776 0.24249 0.46217 0.0
H2508 H 0.75679 0.31892 0.46773 0.0
H2509 H 0.75609 0.29138 0.4678 0.0
C2510 C 0.77327 0.69298 0.96053 0.0
C2511 C 0.7617 0.68522 0.95664 0.0
C2512 C 0.77385 0.7088 0.96049 0.0
C2513 C 0.76038 0.74255 0.95043 0.0
H2514 H 0.76835 0.76337 0.96833 0.0
C2515 C 0.75146 0.80709 0.95376 0.0
C2516 C 0.7624 0.81507 0.95793 0.0
C2517 C 0.75186 0.79127 0.95343 0.0
C2518 C 0.76631 0.75775 0.96327 0.0
H2519 H 0.74166 0.68807 0.94964 0.0
H2520 H 0.74268 0.71565 0.94957 0.0
H2521 H 0.76822 0.7358 0.96804 0.0
H2522 H 0.78258 0.81264 0.96487 0.0
H2523 H 0.78328 0.78508 0.96428 0.0
H2524 H 0.7584 0.76452 0.94566 0.0
C2525 C 0.75144 0.7095 0.95259 0.0
C2526 C 0.76624 0.74192 0.9631 0.0
C2527 C 0.75085 0.69367 0.95263 0.0
C2528 C 0.77382 0.80685 0.9617 0.0
C2529 C 0.77422 0.79103 0.96136 0.0
C2530 C 0.76046 0.75839 0.95059 0.0
C2531 C 0.76289 0.71726 0.95655 0.0
C2532 C 0.76323 0.73412 0.95668 0.0
C2533 C 0.7632 0.78304 0.95725 0.0
C2534 C 0.76339 0.76619 0.95702 0.0
H2535 H 0.78197 0.68682 0.96358 0.0
H2536 H 0.78299 0.7144 0.9635 0.0
H2537 H 0.75826 0.73691 0.94537 0.0
H2538 H 0.74236 0.81304 0.95087 0.0
H2539 H 0.74304 0.78549 0.95029 0.0
C2540 C 0.75028 0.31224 0.05738 0.0
C2541 C 0.76099 0.32068 0.0533 0.0
C2542 C 0.75082 0.29641 0.0574 0.0
C2543 C 0.76513 0.26396 0.04676 0.0
H2544 H 0.758 0.2414 0.06427 0.0
C2545 C 0.77271 0.199 0.04816 0.0
C2546 C 0.76148 0.19081 0.05206 0.0
C2547 C 0.77311 0.21481 0.04846 0.0
C2548 C 0.75986 0.24752 0.05932 0.0
H2549 H 0.78095 0.31905 0.04619 0.0
H2550 H 0.7819 0.29147 0.04622 0.0
H2551 H 0.75792 0.269 0.06455 0.0
H2552 H 0.74173 0.19293 0.05928 0.0
H2553 H 0.7424 0.22048 0.05978 0.0
H2554 H 0.76699 0.2425 0.04152 0.0
C2555 C 0.7729 0.29708 0.04932 0.0
C2556 C 0.75981 0.26335 0.05948 0.0
C2557 C 0.77236 0.31291 0.0493 0.0
C2558 C 0.75069 0.19885 0.05629 0.0
C2559 C 0.75108 0.21466 0.05658 0.0
C2560 C 0.76517 0.24813 0.0466 0.0
C2561 C 0.76209 0.28863 0.05334 0.0
C2562 C 0.76241 0.27177 0.0532 0.0
C2563 C 0.76227 0.22285 0.05265 0.0
C2564 C 0.7625 0.23971 0.05287 0.0
H2565 H 0.74122 0.31784 0.06045 0.0
H2566 H 0.74217 0.29026 0.06048 0.0
H2567 H 0.76692 0.27007 0.04181 0.0
H2568 H 0.78135 0.19316 0.04494 0.0
H2569 H 0.78204 0.22074 0.04545 0.0
C2570 C 0.75252 0.80681 0.54581 0.0
C2571 C 0.74556 0.81538 0.55129 0.0
C2572 C 0.75261 0.791 0.54612 0.0
C2573 C 0.73284 0.75835 0.55462 0.0
H2574 H 0.77022 0.73674 0.54882 0.0
C2575 C 0.73991 0.69356 0.55838 0.0
C2576 C 0.74685 0.68551 0.55272 0.0
C2577 C 0.73974 0.70941 0.55837 0.0
C2578 C 0.75963 0.74259 0.55039 0.0
H2579 H 0.73301 0.81395 0.56136 0.0
H2580 H 0.73341 0.78637 0.56196 0.0
H2581 H 0.76987 0.76431 0.54848 0.0
H2582 H 0.75926 0.68786 0.54265 0.0
H2583 H 0.75871 0.71542 0.54257 0.0
H2584 H 0.7226 0.73659 0.55652 0.0
C2585 C 0.73869 0.79189 0.55739 0.0
C2586 C 0.75942 0.7584 0.55019 0.0
C2587 C 0.73862 0.80772 0.55708 0.0
C2588 C 0.75365 0.69369 0.54706 0.0
C2589 C 0.7535 0.70951 0.54706 0.0
C2590 C 0.73305 0.74251 0.55482 0.0
C2591 C 0.74574 0.78333 0.55192 0.0
C2592 C 0.74601 0.76649 0.55227 0.0
C2593 C 0.74655 0.71757 0.55271 0.0
C2594 C 0.74642 0.73443 0.55267 0.0
H2595 H 0.75812 0.81232 0.54131 0.0
H2596 H 0.75798 0.78477 0.54177 0.0
H2597 H 0.72225 0.7642 0.55617 0.0
H2598 H 0.73444 0.68762 0.56279 0.0
H2599 H 0.73441 0.71526 0.56284 0.0
C2600 C 0.56268 0.50526 0.81192 0.0
C2601 C 0.57065 0.51228 0.80623 0.0
C2602 C 0.54632 0.50534 0.81218 0.0
C2603 C 0.51177 0.52569 0.80508 0.0
H2604 H 0.48931 0.48932 0.81048 0.0
C2605 C 0.44535 0.51948 0.80074 0.0
C2606 C 0.43654 0.51234 0.80612 0.0
C2607 C 0.46167 0.51957 0.80104 0.0
C2608 C 0.4954 0.49963 0.80905 0.0
H2609 H 0.56762 0.5251 0.79642 0.0
H2610 H 0.53917 0.52501 0.79681 0.0
H2611 H 0.51785 0.48931 0.81051 0.0
H2612 H 0.43806 0.49959 0.81602 0.0
H2613 H 0.46658 0.49995 0.8166 0.0
H2614 H 0.48936 0.53599 0.80358 0.0
C2615 C 0.54554 0.51954 0.80111 0.0
C2616 C 0.51177 0.49963 0.80906 0.0
C2617 C 0.56187 0.51943 0.80083 0.0
C2618 C 0.44448 0.5053 0.81182 0.0
C2619 C 0.46083 0.50537 0.81211 0.0
C2620 C 0.49543 0.5257 0.80506 0.0
C2621 C 0.53755 0.51251 0.80678 0.0
C2622 C 0.52015 0.51262 0.80702 0.0
C2623 C 0.46963 0.51253 0.80672 0.0
C2624 C 0.48703 0.51263 0.80699 0.0
H2625 H 0.56908 0.49953 0.81613 0.0
H2626 H 0.54055 0.49993 0.81666 0.0
H2627 H 0.51784 0.53598 0.80361 0.0
H2628 H 0.43962 0.52516 0.79632 0.0
H2629 H 0.46807 0.52503 0.79675 0.0
C2630 C 0.06224 0.48573 0.31121 0.0
C2631 C 0.07036 0.49606 0.30686 0.0
C2632 C 0.04591 0.48603 0.31158 0.0
C2633 C 0.01151 0.51044 0.30802 0.0
H2634 H 0.98903 0.47234 0.3076 0.0
C2635 C 0.9448 0.507 0.30322 0.0
C2636 C 0.93624 0.49624 0.30714 0.0
C2637 C 0.96114 0.50728 0.30353 0.0
C2638 C 0.99512 0.48308 0.30782 0.0
H2639 H 0.06762 0.51503 0.29959 0.0
H2640 H 0.03914 0.51538 0.30013 0.0
H2641 H 0.01752 0.4723 0.30753 0.0
H2642 H 0.93824 0.47734 0.3145 0.0
H2643 H 0.9667 0.47799 0.31515 0.0
H2644 H 0.98909 0.52122 0.30827 0.0
C2645 C 0.04541 0.50712 0.30331 0.0
C2646 C 0.01147 0.48306 0.30778 0.0
C2647 C 0.06174 0.5068 0.30294 0.0
C2648 C 0.94444 0.48587 0.31146 0.0
C2649 C 0.96078 0.48613 0.31177 0.0
C2650 C 0.99516 0.51047 0.30806 0.0
C2651 C 0.03728 0.49668 0.30761 0.0
C2652 C 0.01987 0.49673 0.30784 0.0
C2653 C 0.96934 0.49679 0.30778 0.0
C2654 C 0.98675 0.49679 0.30793 0.0
H2655 H 0.06849 0.47722 0.31425 0.0
H2656 H 0.04004 0.47793 0.315 0.0
H2657 H 0.01762 0.52117 0.30819 0.0
H2658 H 0.93886 0.51526 0.2999 0.0
H2659 H 0.96735 0.51555 0.30034 0.0
C2660 C 0.44527 0.50844 0.20665 0.0
C2661 C 0.43665 0.49759 0.2028 0.0
C2662 C 0.46159 0.50873 0.20627 0.0
C2663 C 0.49551 0.48449 0.20199 0.0
H2664 H 0.51796 0.52259 0.20132 0.0
C2665 C 0.56259 0.48705 0.19847 0.0
C2666 C 0.57074 0.49749 0.20276 0.0
C2667 C 0.54626 0.48735 0.19811 0.0
C2668 C 0.51187 0.51185 0.20157 0.0
H2669 H 0.43851 0.47856 0.19552 0.0
H2670 H 0.46696 0.47924 0.19476 0.0
H2671 H 0.48944 0.52261 0.20134 0.0
H2672 H 0.56805 0.51669 0.20989 0.0
H2673 H 0.53958 0.51704 0.20936 0.0
H2674 H 0.51792 0.47373 0.20228 0.0
C2675 C 0.46109 0.48743 0.19813 0.0
C2676 C 0.49552 0.51187 0.20158 0.0
C2677 C 0.44476 0.48716 0.1985 0.0
C2678 C 0.56215 0.50837 0.2066 0.0
C2679 C 0.54582 0.50868 0.20623 0.0
C2680 C 0.51186 0.48448 0.20198 0.0
C2681 C 0.46972 0.49818 0.20204 0.0
C2682 C 0.48713 0.49818 0.20182 0.0
C2683 C 0.53766 0.49812 0.20201 0.0
C2684 C 0.52025 0.49816 0.20181 0.0
H2685 H 0.43939 0.51675 0.20995 0.0
H2686 H 0.46787 0.51707 0.2094 0.0
H2687 H 0.48943 0.47375 0.20229 0.0
H2688 H 0.56882 0.47844 0.19549 0.0
H2689 H 0.54036 0.47916 0.19475 0.0
C2690 C 0.9444 0.5193 0.70915 0.0
C2691 C 0.93561 0.51222 0.70374 0.0
C2692 C 0.96073 0.51943 0.70887 0.0
C2693 C 0.99451 0.49966 0.70083 0.0
H2694 H 0.01688 0.53594 0.70644 0.0
C2695 C 0.0618 0.50539 0.69812 0.0
C2696 C 0.06972 0.51232 0.70385 0.0
C2697 C 0.04545 0.50547 0.69782 0.0
C2698 C 0.01082 0.52567 0.70492 0.0
H2699 H 0.93718 0.49961 0.6938 0.0
H2700 H 0.96571 0.50005 0.69325 0.0
H2701 H 0.9884 0.53593 0.70641 0.0
H2702 H 0.0666 0.52497 0.7137 0.0
H2703 H 0.03815 0.52486 0.71324 0.0
H2704 H 0.01698 0.48939 0.69938 0.0
C2705 C 0.95994 0.50539 0.69775 0.0
C2706 C 0.99448 0.52566 0.70491 0.0
C2707 C 0.94358 0.50528 0.69803 0.0
C2708 C 0.06089 0.51937 0.70925 0.0
C2709 C 0.04457 0.51947 0.70895 0.0
C2710 C 0.01087 0.49967 0.70085 0.0
C2711 C 0.96871 0.51249 0.70317 0.0
C2712 C 0.98611 0.51262 0.70292 0.0
C2713 C 0.03663 0.51253 0.70323 0.0
C2714 C 0.01923 0.51264 0.70295 0.0
H2715 H 0.93865 0.52491 0.71358 0.0
H2716 H 0.9671 0.52484 0.71317 0.0
H2717 H 0.98844 0.48937 0.69935 0.0
H2718 H 0.06824 0.49975 0.6939 0.0
H2719 H 0.03971 0.50013 0.69331 0.0
loop_
_geom_bond_atom_site_label_1
_geom_bond_atom_site_label_2
_geom_bond_distance
_geom_bond_site_symmetry_2
_ccdc_geom_bond_type
C0 C1 1.264 . S
C0 C5 1.479 . S
C0 C10 1.465 . S
C1 C0 1.264 . S
C1 C3 1.339 . S
C1 H28 0.931 . S
C2 C3 1.395 . S
C2 C4 1.320 . S
C3 C1 1.339 . S
C3 C2 1.395 . S
C3 H29 0.929 . S
C4 C2 1.320 . S
C4 C5 1.405 . S
C4 H30 0.930 . S
C5 C0 1.479 . S
C5 C4 1.405 . S
C5 H31 0.931 . S
U6 O7 2.454 . S
U6 O8 2.458 . S
U6 C9 2.984 . S
U6 C10 2.847 . S
U6 C23 2.882 . S
U6 O24 2.441 . S
U6 O25 2.420 . S
U6 O26 2.455 . S
U6 O27 2.449 . S
O7 U6 2.454 . S
O7 C9 1.353 . S
O8 U6 2.458 . S
O8 C9 1.286 . S
C9 U6 2.984 . S
C9 O7 1.353 . S
C9 O8 1.286 . S
C9 C11 1.363 . S
C10 C0 1.465 . S
C10 U6 2.847 . S
C10 O24 1.249 . S
C10 O25 1.202 . S
C11 C9 1.363 . S
C11 C13 1.408 . S
C11 C16 1.342 . S
C12 C13 1.310 . S
C12 C15 1.461 . S
C12 H32 0.932 . S
C13 C11 1.408 . S
C13 C12 1.310 . S
C13 H33 0.930 . S
C14 C15 1.474 . S
C14 C16 1.285 . S
C14 H34 0.929 . S
C15 C12 1.461 . S
C15 C14 1.474 . S
C16 C11 1.342 . S
C16 C14 1.285 . S
C16 H35 0.930 . S
C17 C20 1.424 . S
C17 C22 1.245 . S
C17 C23 1.428 1_545 S
C18 C21 1.260 . S
C18 C22 1.477 . S
C18 H36 0.932 . S
C19 C20 1.384 . S
C19 C21 1.479 . S
C19 H37 0.929 . S
C20 C17 1.424 . S
C20 C19 1.384 . S
C20 H38 0.928 . S
C21 C18 1.260 . S
C21 C19 1.479 . S
C22 C17 1.245 . S
C22 C18 1.477 . S
C22 H39 0.932 . S
C23 U6 2.882 . S
C23 C17 1.428 1_565 S
C23 O26 1.301 . S
C23 O27 1.282 . S
O24 U6 2.441 . S
O24 C10 1.249 . S
O25 U6 2.420 . S
O25 C10 1.202 . S
O26 U6 2.455 . S
O26 C23 1.301 . S
O27 U6 2.449 . S
O27 C23 1.282 . S
H28 C1 0.931 . S
H29 C3 0.929 . S
H30 C4 0.930 . S
H31 C5 0.931 . S
H32 C12 0.932 . S
H33 C13 0.930 . S
H34 C14 0.929 . S
H35 C16 0.930 . S
H36 C18 0.932 . S
H37 C19 0.929 . S
H38 C20 0.928 . S
H39 C22 0.932 . S
C40 C41 1.264 . S
C40 C45 1.479 . S
C40 C50 1.465 . S
C41 C40 1.264 . S
C41 C43 1.339 . S
C41 H68 0.931 . S
C42 C43 1.395 . S
C42 C44 1.320 . S
C43 C41 1.339 . S
C43 C42 1.395 . S
C43 H69 0.929 . S
C44 C42 1.320 . S
C44 C45 1.405 . S
C44 H70 0.930 . S
C45 C40 1.479 . S
C45 C44 1.405 . S
C45 H71 0.931 . S
U46 O47 2.454 . S
U46 O48 2.458 . S
U46 C49 2.984 . S
U46 C50 2.847 . S
U46 C63 2.882 . S
U46 O64 2.441 . S
U46 O65 2.420 . S
U46 O66 2.455 . S
U46 O67 2.449 . S
O47 U46 2.454 . S
O47 C49 1.353 . S
O48 U46 2.458 . S
O48 C49 1.286 . S
C49 U46 2.984 . S
C49 O47 1.353 . S
C49 O48 1.286 . S
C49 C51 1.363 . S
C50 C40 1.465 . S
C50 U46 2.847 . S
C50 O64 1.249 . S
C50 O65 1.202 . S
C51 C49 1.363 . S
C51 C53 1.408 . S
C51 C56 1.342 . S
C52 C53 1.310 . S
C52 C55 1.461 . S
C52 H72 0.932 . S
C53 C51 1.408 . S
C53 C52 1.310 . S
C53 H73 0.930 . S
C54 C55 1.474 . S
C54 C56 1.285 . S
C54 H74 0.929 . S
C55 C52 1.461 . S
C55 C54 1.474 . S
C56 C51 1.342 . S
C56 C54 1.285 . S
C56 H75 0.930 . S
C57 C60 1.424 . S
C57 C62 1.245 . S
C57 C63 1.428 . S
C58 C61 1.260 . S
C58 C62 1.477 . S
C58 H76 0.932 . S
C59 C60 1.384 . S
C59 C61 1.479 . S
C59 H77 0.929 . S
C60 C57 1.424 . S
C60 C59 1.384 . S
C60 H78 0.928 . S
C61 C58 1.260 . S
C61 C59 1.479 . S
C62 C57 1.245 . S
C62 C58 1.477 . S
C62 H79 0.932 . S
C63 U46 2.882 . S
C63 C57 1.428 . S
C63 O66 1.301 . S
C63 O67 1.282 . S
O64 U46 2.441 . S
O64 C50 1.249 . S
O65 U46 2.420 . S
O65 C50 1.202 . S
O66 U46 2.455 . S
O66 C63 1.301 . S
O67 U46 2.449 . S
O67 C63 1.282 . S
H68 C41 0.931 . S
H69 C43 0.929 . S
H70 C44 0.930 . S
H71 C45 0.931 . S
H72 C52 0.932 . S
H73 C53 0.930 . S
H74 C54 0.929 . S
H75 C56 0.930 . S
H76 C58 0.932 . S
H77 C59 0.929 . S
H78 C60 0.928 . S
H79 C62 0.932 . S
C80 C81 1.264 . S
C80 C85 1.479 . S
C80 C90 1.465 . S
C81 C80 1.264 . S
C81 C83 1.339 . S
C81 H108 0.931 . S
C82 C83 1.395 . S
C82 C84 1.320 . S
C83 C81 1.339 . S
C83 C82 1.395 . S
C83 H109 0.929 . S
C84 C82 1.320 . S
C84 C85 1.405 . S
C84 H110 0.930 . S
C85 C80 1.479 . S
C85 C84 1.405 . S
C85 H111 0.931 . S
U86 O87 2.454 . S
U86 O88 2.458 . S
U86 C89 2.984 . S
U86 C90 2.847 . S
U86 C103 2.882 . S
U86 O104 2.441 . S
U86 O105 2.420 . S
U86 O106 2.455 . S
U86 O107 2.449 . S
O87 U86 2.454 . S
O87 C89 1.353 . S
O88 U86 2.458 . S
O88 C89 1.286 . S
C89 U86 2.984 . S
C89 O87 1.353 . S
C89 O88 1.286 . S
C89 C91 1.363 . S
C90 C80 1.465 . S
C90 U86 2.847 . S
C90 O104 1.249 . S
C90 O105 1.202 . S
C91 C89 1.363 . S
C91 C93 1.408 . S
C91 C96 1.342 . S
C92 C93 1.310 . S
C92 C95 1.461 . S
C92 H112 0.932 . S
C93 C91 1.408 . S
C93 C92 1.310 . S
C93 H113 0.930 . S
C94 C95 1.474 . S
C94 C96 1.285 . S
C94 H114 0.929 . S
C95 C92 1.461 . S
C95 C94 1.474 . S
C96 C91 1.342 . S
C96 C94 1.285 . S
C96 H115 0.930 . S
C97 C100 1.424 . S
C97 C102 1.245 . S
C97 C103 1.428 1_565 S
C98 C101 1.260 . S
C98 C102 1.477 . S
C98 H116 0.932 . S
C99 C100 1.384 . S
C99 C101 1.479 . S
C99 H117 0.929 . S
C100 C97 1.424 . S
C100 C99 1.384 . S
C100 H118 0.928 . S
C101 C98 1.260 . S
C101 C99 1.479 . S
C102 C97 1.245 . S
C102 C98 1.477 . S
C102 H119 0.932 . S
C103 U86 2.882 . S
C103 C97 1.428 1_545 S
C103 O106 1.301 . S
C103 O107 1.282 . S
O104 U86 2.441 . S
O104 C90 1.249 . S
O105 U86 2.420 . S
O105 C90 1.202 . S
O106 U86 2.455 . S
O106 C103 1.301 . S
O107 U86 2.449 . S
O107 C103 1.282 . S
H108 C81 0.931 . S
H109 C83 0.929 . S
H110 C84 0.930 . S
H111 C85 0.931 . S
H112 C92 0.932 . S
H113 C93 0.930 . S
H114 C94 0.929 . S
H115 C96 0.930 . S
H116 C98 0.932 . S
H117 C99 0.929 . S
H118 C100 0.928 . S
H119 C102 0.932 . S
C120 C121 1.264 . S
C120 C125 1.479 . S
C120 C130 1.465 . S
C121 C120 1.264 . S
C121 C123 1.339 . S
C121 H148 0.931 . S
C122 C123 1.395 . S
C122 C124 1.320 . S
C123 C121 1.339 . S
C123 C122 1.395 . S
C123 H149 0.929 . S
C124 C122 1.320 . S
C124 C125 1.405 . S
C124 H150 0.930 . S
C125 C120 1.479 . S
C125 C124 1.405 . S
C125 H151 0.931 . S
U126 O127 2.454 . S
U126 O128 2.458 . S
U126 C129 2.984 . S
U126 C130 2.847 . S
U126 C143 2.882 . S
U126 O144 2.441 . S
U126 O145 2.420 . S
U126 O146 2.455 . S
U126 O147 2.449 . S
O127 U126 2.454 . S
O127 C129 1.353 . S
O128 U126 2.458 . S
O128 C129 1.286 . S
C129 U126 2.984 . S
C129 O127 1.353 . S
C129 O128 1.286 . S
C129 C131 1.363 . S
C130 C120 1.465 . S
C130 U126 2.847 . S
C130 O144 1.249 . S
C130 O145 1.202 . S
C131 C129 1.363 . S
C131 C133 1.408 . S
C131 C136 1.342 . S
C132 C133 1.310 . S
C132 C135 1.461 . S
C132 H152 0.932 . S
C133 C131 1.408 . S
C133 C132 1.310 . S
C133 H153 0.930 . S
C134 C135 1.474 . S
C134 C136 1.285 . S
C134 H154 0.929 . S
C135 C132 1.461 . S
C135 C134 1.474 . S
C136 C131 1.342 . S
C136 C134 1.285 . S
C136 H155 0.930 . S
C137 C140 1.424 . S
C137 C142 1.245 . S
C137 C143 1.428 . S
C138 C141 1.260 . S
C138 C142 1.477 . S
C138 H156 0.932 . S
C139 C140 1.384 . S
C139 C141 1.479 . S
C139 H157 0.929 . S
C140 C137 1.424 . S
C140 C139 1.384 . S
C140 H158 0.928 . S
C141 C138 1.260 . S
C141 C139 1.479 . S
C142 C137 1.245 . S
C142 C138 1.477 . S
C142 H159 0.932 . S
C143 U126 2.882 . S
C143 C137 1.428 . S
C143 O146 1.301 . S
C143 O147 1.282 . S
O144 U126 2.441 . S
O144 C130 1.249 . S
O145 U126 2.420 . S
O145 C130 1.202 . S
O146 U126 2.455 . S
O146 C143 1.301 . S
O147 U126 2.449 . S
O147 C143 1.282 . S
H148 C121 0.931 . S
H149 C123 0.929 . S
H150 C124 0.930 . S
H151 C125 0.931 . S
H152 C132 0.932 . S
H153 C133 0.930 . S
H154 C134 0.929 . S
H155 C136 0.930 . S
H156 C138 0.932 . S
H157 C139 0.929 . S
H158 C140 0.928 . S
H159 C142 0.932 . S
C160 C161 1.264 . S
C160 C165 1.479 . S
C160 C170 1.465 . S
C161 C160 1.264 . S
C161 C163 1.339 . S
C161 H188 0.931 . S
C162 C163 1.395 . S
C162 C164 1.320 . S
C163 C161 1.339 . S
C163 C162 1.395 . S
C163 H189 0.929 . S
C164 C162 1.320 . S
C164 C165 1.405 . S
C164 H190 0.930 . S
C165 C160 1.479 . S
C165 C164 1.405 . S
C165 H191 0.931 . S
U166 O167 2.454 . S
U166 O168 2.458 . S
U166 C169 2.984 . S
U166 C170 2.847 . S
U166 C183 2.882 . S
U166 O184 2.441 . S
U166 O185 2.420 . S
U166 O186 2.455 . S
U166 O187 2.449 . S
O167 U166 2.454 . S
O167 C169 1.353 . S
O168 U166 2.458 . S
O168 C169 1.286 . S
C169 U166 2.984 . S
C169 O167 1.353 . S
C169 O168 1.286 . S
C169 C171 1.363 . S
C170 C160 1.465 . S
C170 U166 2.847 . S
C170 O184 1.249 . S
C170 O185 1.202 . S
C171 C169 1.363 . S
C171 C173 1.408 . S
C171 C176 1.342 . S
C172 C173 1.310 . S
C172 C175 1.461 . S
C172 H192 0.932 . S
C173 C171 1.408 . S
C173 C172 1.310 . S
C173 H193 0.930 . S
C174 C175 1.474 . S
C174 C176 1.285 . S
C174 H194 0.929 . S
C175 C172 1.461 . S
C175 C174 1.474 . S
C176 C171 1.342 . S
C176 C174 1.285 . S
C176 H195 0.930 . S
C177 C180 1.424 . S
C177 C182 1.245 . S
C177 C183 1.428 1_565 S
C178 C181 1.260 . S
C178 C182 1.477 . S
C178 H196 0.932 . S
C179 C180 1.384 . S
C179 C181 1.479 . S
C179 H197 0.929 . S
C180 C177 1.424 . S
C180 C179 1.384 . S
C180 H198 0.928 . S
C181 C178 1.260 . S
C181 C179 1.479 . S
C182 C177 1.245 . S
C182 C178 1.477 . S
C182 H199 0.932 . S
C183 U166 2.882 . S
C183 C177 1.428 1_545 S
C183 O186 1.301 . S
C183 O187 1.282 . S
O184 U166 2.441 . S
O184 C170 1.249 . S
O185 U166 2.420 . S
O185 C170 1.202 . S
O186 U166 2.455 . S
O186 C183 1.301 . S
O187 U166 2.449 . S
O187 C183 1.282 . S
H188 C161 0.931 . S
H189 C163 0.929 . S
H190 C164 0.930 . S
H191 C165 0.931 . S
H192 C172 0.932 . S
H193 C173 0.930 . S
H194 C174 0.929 . S
H195 C176 0.930 . S
H196 C178 0.932 . S
H197 C179 0.929 . S
H198 C180 0.928 . S
H199 C182 0.932 . S
C200 C201 1.264 . S
C200 C205 1.479 . S
C200 C210 1.465 . S
C201 C200 1.264 . S
C201 C203 1.339 . S
C201 H228 0.931 . S
C202 C203 1.395 . S
C202 C204 1.320 . S
C203 C201 1.339 . S
C203 C202 1.395 . S
C203 H229 0.929 . S
C204 C202 1.320 . S
C204 C205 1.405 . S
C204 H230 0.930 . S
C205 C200 1.479 . S
C205 C204 1.405 . S
C205 H231 0.931 . S
U206 O207 2.454 . S
U206 O208 2.458 . S
U206 C209 2.984 . S
U206 C210 2.847 . S
U206 C223 2.882 . S
U206 O224 2.441 . S
U206 O225 2.420 . S
U206 O226 2.455 . S
U206 O227 2.449 . S
O207 U206 2.454 . S
O207 C209 1.353 . S
O208 U206 2.458 . S
O208 C209 1.286 . S
C209 U206 2.984 . S
C209 O207 1.353 . S
C209 O208 1.286 . S
C209 C211 1.363 . S
C210 C200 1.465 . S
C210 U206 2.847 . S
C210 O224 1.249 . S
C210 O225 1.202 . S
C211 C209 1.363 . S
C211 C213 1.408 . S
C211 C216 1.342 . S
C212 C213 1.310 . S
C212 C215 1.461 . S
C212 H232 0.932 . S
C213 C211 1.408 . S
C213 C212 1.310 . S
C213 H233 0.930 . S
C214 C215 1.474 . S
C214 C216 1.285 . S
C214 H234 0.929 . S
C215 C212 1.461 . S
C215 C214 1.474 . S
C216 C211 1.342 . S
C216 C214 1.285 . S
C216 H235 0.930 . S
C217 C220 1.424 . S
C217 C222 1.245 . S
C217 C223 1.428 . S
C218 C221 1.260 . S
C218 C222 1.477 . S
C218 H236 0.932 . S
C219 C220 1.384 . S
C219 C221 1.479 . S
C219 H237 0.929 . S
C220 C217 1.424 . S
C220 C219 1.384 . S
C220 H238 0.928 . S
C221 C218 1.260 . S
C221 C219 1.479 . S
C222 C217 1.245 . S
C222 C218 1.477 . S
C222 H239 0.932 . S
C223 U206 2.882 . S
C223 C217 1.428 . S
C223 O226 1.301 . S
C223 O227 1.282 . S
O224 U206 2.441 . S
O224 C210 1.249 . S
O225 U206 2.420 . S
O225 C210 1.202 . S
O226 U206 2.455 . S
O226 C223 1.301 . S
O227 U206 2.449 . S
O227 C223 1.282 . S
H228 C201 0.931 . S
H229 C203 0.929 . S
H230 C204 0.930 . S
H231 C205 0.931 . S
H232 C212 0.932 . S
H233 C213 0.930 . S
H234 C214 0.929 . S
H235 C216 0.930 . S
H236 C218 0.932 . S
H237 C219 0.929 . S
H238 C220 0.928 . S
H239 C222 0.932 . S
C240 C241 1.264 . S
C240 C245 1.479 . S
C240 C250 1.465 . S
C241 C240 1.264 . S
C241 C243 1.339 . S
C241 H268 0.931 . S
C242 C243 1.395 . S
C242 C244 1.320 . S
C243 C241 1.339 . S
C243 C242 1.395 . S
C243 H269 0.929 . S
C244 C242 1.320 . S
C244 C245 1.405 . S
C244 H270 0.930 . S
C245 C240 1.479 . S
C245 C244 1.405 . S
C245 H271 0.931 . S
U246 O247 2.454 . S
U246 O248 2.458 . S
U246 C249 2.984 . S
U246 C250 2.847 . S
U246 C263 2.882 . S
U246 O264 2.441 . S
U246 O265 2.420 . S
U246 O266 2.455 . S
U246 O267 2.449 . S
O247 U246 2.454 . S
O247 C249 1.353 . S
O248 U246 2.458 . S
O248 C249 1.286 . S
C249 U246 2.984 . S
C249 O247 1.353 . S
C249 O248 1.286 . S
C249 C251 1.363 . S
C250 C240 1.465 . S
C250 U246 2.847 . S
C250 O264 1.249 . S
C250 O265 1.202 . S
C251 C249 1.363 . S
C251 C253 1.408 . S
C251 C256 1.342 . S
C252 C253 1.310 . S
C252 C255 1.461 . S
C252 H272 0.932 . S
C253 C251 1.408 . S
C253 C252 1.310 . S
C253 H273 0.930 . S
C254 C255 1.474 . S
C254 C256 1.285 . S
C254 H274 0.929 . S
C255 C252 1.461 . S
C255 C254 1.474 . S
C256 C251 1.342 . S
C256 C254 1.285 . S
C256 H275 0.930 . S
C257 C260 1.424 . S
C257 C262 1.245 . S
C257 C263 1.428 1_545 S
C258 C261 1.260 . S
C258 C262 1.477 . S
C258 H276 0.932 . S
C259 C260 1.384 . S
C259 C261 1.479 . S
C259 H277 0.929 . S
C260 C257 1.424 . S
C260 C259 1.384 . S
C260 H278 0.928 . S
C261 C258 1.260 . S
C261 C259 1.479 . S
C262 C257 1.245 . S
C262 C258 1.477 . S
C262 H279 0.932 . S
C263 U246 2.882 . S
C263 C257 1.428 1_565 S
C263 O266 1.301 . S
C263 O267 1.282 . S
O264 U246 2.441 . S
O264 C250 1.249 . S
O265 U246 2.420 . S
O265 C250 1.202 . S
O266 U246 2.455 . S
O266 C263 1.301 . S
O267 U246 2.449 . S
O267 C263 1.282 . S
H268 C241 0.931 . S
H269 C243 0.929 . S
H270 C244 0.930 . S
H271 C245 0.931 . S
H272 C252 0.932 . S
H273 C253 0.930 . S
H274 C254 0.929 . S
H275 C256 0.930 . S
H276 C258 0.932 . S
H277 C259 0.929 . S
H278 C260 0.928 . S
H279 C262 0.932 . S
C280 C281 1.264 . S
C280 C285 1.479 . S
C280 C290 1.465 . S
C281 C280 1.264 . S
C281 C283 1.339 . S
C281 H308 0.931 . S
C282 C283 1.395 . S
C282 C284 1.320 . S
C283 C281 1.339 . S
C283 C282 1.395 . S
C283 H309 0.929 . S
C284 C282 1.320 . S
C284 C285 1.405 . S
C284 H310 0.930 . S
C285 C280 1.479 . S
C285 C284 1.405 . S
C285 H311 0.931 . S
U286 O287 2.454 . S
U286 O288 2.458 . S
U286 C289 2.984 . S
U286 C290 2.847 . S
U286 C303 2.882 . S
U286 O304 2.441 . S
U286 O305 2.420 . S
U286 O306 2.455 . S
U286 O307 2.449 . S
O287 U286 2.454 . S
O287 C289 1.353 . S
O288 U286 2.458 . S
O288 C289 1.286 . S
C289 U286 2.984 . S
C289 O287 1.353 . S
C289 O288 1.286 . S
C289 C291 1.363 . S
C290 C280 1.465 . S
C290 U286 2.847 . S
C290 O304 1.249 . S
C290 O305 1.202 . S
C291 C289 1.363 . S
C291 C293 1.408 . S
C291 C296 1.342 . S
C292 C293 1.310 . S
C292 C295 1.461 . S
C292 H312 0.932 . S
C293 C291 1.408 . S
C293 C292 1.310 . S
C293 H313 0.930 . S
C294 C295 1.474 . S
C294 C296 1.285 . S
C294 H314 0.929 . S
C295 C292 1.461 . S
C295 C294 1.474 . S
C296 C291 1.342 . S
C296 C294 1.285 . S
C296 H315 0.930 . S
C297 C300 1.424 . S
C297 C302 1.245 . S
C297 C303 1.428 . S
C298 C301 1.260 . S
C298 C302 1.477 . S
C298 H316 0.932 . S
C299 C300 1.384 . S
C299 C301 1.479 . S
C299 H317 0.929 . S
C300 C297 1.424 . S
C300 C299 1.384 . S
C300 H318 0.928 . S
C301 C298 1.260 . S
C301 C299 1.479 . S
C302 C297 1.245 . S
C302 C298 1.477 . S
C302 H319 0.932 . S
C303 U286 2.882 . S
C303 C297 1.428 . S
C303 O306 1.301 . S
C303 O307 1.282 . S
O304 U286 2.441 . S
O304 C290 1.249 . S
O305 U286 2.420 . S
O305 C290 1.202 . S
O306 U286 2.455 . S
O306 C303 1.301 . S
O307 U286 2.449 . S
O307 C303 1.282 . S
H308 C281 0.931 . S
H309 C283 0.929 . S
H310 C284 0.930 . S
H311 C285 0.931 . S
H312 C292 0.932 . S
H313 C293 0.930 . S
H314 C294 0.929 . S
H315 C296 0.930 . S
H316 C298 0.932 . S
H317 C299 0.929 . S
H318 C300 0.928 . S
H319 C302 0.932 . S
C320 C321 1.264 . S
C320 C325 1.479 1_565 S
C320 C330 1.465 . S
C321 C320 1.264 . S
C321 C323 1.343 . S
C321 H348 0.931 . S
C322 C323 1.388 1_545 S
C322 C324 1.320 . S
C323 C321 1.343 . S
C323 C322 1.388 1_565 S
C323 H349 0.932 . S
C324 C322 1.320 . S
C324 C325 1.405 . S
C324 H350 0.930 . S
C325 C320 1.479 1_545 S
C325 C324 1.405 . S
C325 H351 0.931 . S
U326 O327 2.441 1_565 S
U326 O328 2.458 . S
U326 C329 2.998 . S
U326 C330 2.847 . S
U326 C343 2.882 . S
U326 O344 2.441 . S
U326 O345 2.420 . S
U326 O346 2.455 . S
U326 O347 2.449 . S
O327 U326 2.441 1_545 S
O327 C329 1.349 1_545 S
O328 U326 2.458 . S
O328 C329 1.300 . S
C329 U326 2.998 . S
C329 O327 1.349 1_565 S
C329 O328 1.300 . S
C329 C331 1.353 1_565 S
C330 C320 1.465 . S
C330 U326 2.847 . S
C330 O344 1.249 . S
C330 O345 1.202 . S
C331 C329 1.353 1_545 S
C331 C333 1.408 . S
C331 C336 1.342 . S
C332 C333 1.310 . S
C332 C335 1.461 . S
C332 H352 0.932 . S
C333 C331 1.408 . S
C333 C332 1.310 . S
C333 H353 0.930 . S
C334 C335 1.474 . S
C334 C336 1.285 . S
C334 H354 0.929 . S
C335 C332 1.461 . S
C335 C334 1.474 . S
C336 C331 1.342 . S
C336 C334 1.285 . S
C336 H355 0.937 . S
C337 C340 1.424 . S
C337 C342 1.245 . S
C337 C343 1.428 . S
C338 C341 1.260 . S
C338 C342 1.477 . S
C338 H356 0.932 . S
C339 C340 1.384 . S
C339 C341 1.479 . S
C339 H357 0.929 . S
C340 C337 1.424 . S
C340 C339 1.384 . S
C340 H358 0.928 . S
C341 C338 1.260 . S
C341 C339 1.479 . S
C342 C337 1.245 . S
C342 C338 1.477 . S
C342 H359 0.932 . S
C343 U326 2.882 . S
C343 C337 1.428 . S
C343 O346 1.301 . S
C343 O347 1.282 . S
O344 U326 2.441 . S
O344 C330 1.249 . S
O345 U326 2.420 . S
O345 C330 1.202 . S
O346 U326 2.455 . S
O346 C343 1.301 . S
O347 U326 2.449 . S
O347 C343 1.282 . S
H348 C321 0.931 . S
H349 C323 0.932 . S
H350 C324 0.930 . S
H351 C325 0.931 . S
H352 C332 0.932 . S
H353 C333 0.930 . S
H354 C334 0.929 . S
H355 C336 0.937 . S
H356 C338 0.932 . S
H357 C339 0.929 . S
H358 C340 0.928 . S
H359 C342 0.932 . S
C360 C361 1.264 . S
C360 C365 1.479 . S
C360 C370 1.465 . S
C361 C360 1.264 . S
C361 C363 1.339 . S
C361 H388 0.931 . S
C362 C363 1.395 . S
C362 C364 1.320 . S
C363 C361 1.339 . S
C363 C362 1.395 . S
C363 H389 0.929 . S
C364 C362 1.320 . S
C364 C365 1.405 . S
C364 H390 0.930 . S
C365 C360 1.479 . S
C365 C364 1.405 . S
C365 H391 0.931 . S
U366 O367 2.454 . S
U366 O368 2.458 . S
U366 C369 2.984 . S
U366 C370 2.847 . S
U366 C383 2.882 . S
U366 O384 2.441 . S
U366 O385 2.420 . S
U366 O386 2.455 . S
U366 O387 2.449 . S
O367 U366 2.454 . S
O367 C369 1.353 . S
O368 U366 2.458 . S
O368 C369 1.286 . S
C369 U366 2.984 . S
C369 O367 1.353 . S
C369 O368 1.286 . S
C369 C371 1.363 . S
C370 C360 1.465 . S
C370 U366 2.847 . S
C370 O384 1.249 . S
C370 O385 1.202 . S
C371 C369 1.363 . S
C371 C373 1.408 . S
C371 C376 1.342 . S
C372 C373 1.310 . S
C372 C375 1.461 . S
C372 H392 0.932 . S
C373 C371 1.408 . S
C373 C372 1.310 . S
C373 H393 0.930 . S
C374 C375 1.474 . S
C374 C376 1.285 . S
C374 H394 0.929 . S
C375 C372 1.461 . S
C375 C374 1.474 . S
C376 C371 1.342 . S
C376 C374 1.285 . S
C376 H395 0.930 . S
C377 C380 1.424 . S
C377 C382 1.245 . S
C377 C383 1.428 . S
C378 C381 1.260 . S
C378 C382 1.477 . S
C378 H396 0.932 . S
C379 C380 1.384 . S
C379 C381 1.479 . S
C379 H397 0.929 . S
C380 C377 1.424 . S
C380 C379 1.384 . S
C380 H398 0.928 . S
C381 C378 1.260 . S
C381 C379 1.479 . S
C382 C377 1.245 . S
C382 C378 1.477 . S
C382 H399 0.932 . S
C383 U366 2.882 . S
C383 C377 1.428 . S
C383 O386 1.301 . S
C383 O387 1.282 . S
O384 U366 2.441 . S
O384 C370 1.249 . S
O385 U366 2.420 . S
O385 C370 1.202 . S
O386 U366 2.455 . S
O386 C383 1.301 . S
O387 U366 2.449 . S
O387 C383 1.282 . S
H388 C361 0.931 . S
H389 C363 0.929 . S
H390 C364 0.930 . S
H391 C365 0.931 . S
H392 C372 0.932 . S
H393 C373 0.930 . S
H394 C374 0.929 . S
H395 C376 0.930 . S
H396 C378 0.932 . S
H397 C379 0.929 . S
H398 C380 0.928 . S
H399 C382 0.932 . S
C400 C401 1.264 . S
C400 C405 1.479 1_545 S
C400 C410 1.465 . S
C401 C400 1.264 . S
C401 C403 1.343 . S
C401 H428 0.931 . S
C402 C403 1.388 1_565 S
C402 C404 1.320 . S
C403 C401 1.343 . S
C403 C402 1.388 1_545 S
C403 H429 0.932 . S
C404 C402 1.320 . S
C404 C405 1.405 . S
C404 H430 0.930 . S
C405 C400 1.479 1_565 S
C405 C404 1.405 . S
C405 H431 0.931 . S
U406 O407 2.441 1_545 S
U406 O408 2.458 . S
U406 C409 2.998 . S
U406 C410 2.847 . S
U406 C423 2.882 . S
U406 O424 2.441 . S
U406 O425 2.420 . S
U406 O426 2.455 . S
U406 O427 2.449 . S
O407 U406 2.441 1_565 S
O407 C409 1.349 1_565 S
O408 U406 2.458 . S
O408 C409 1.300 . S
C409 U406 2.998 . S
C409 O407 1.349 1_545 S
C409 O408 1.300 . S
C409 C411 1.353 1_545 S
C410 C400 1.465 . S
C410 U406 2.847 . S
C410 O424 1.249 . S
C410 O425 1.202 . S
C411 C409 1.353 1_565 S
C411 C413 1.408 . S
C411 C416 1.342 . S
C412 C413 1.310 . S
C412 C415 1.461 . S
C412 H432 0.932 . S
C413 C411 1.408 . S
C413 C412 1.310 . S
C413 H433 0.930 . S
C414 C415 1.474 . S
C414 C416 1.285 . S
C414 H434 0.929 . S
C415 C412 1.461 . S
C415 C414 1.474 . S
C416 C411 1.342 . S
C416 C414 1.285 . S
C416 H435 0.937 . S
C417 C420 1.424 . S
C417 C422 1.245 . S
C417 C423 1.428 . S
C418 C421 1.260 . S
C418 C422 1.477 . S
C418 H436 0.932 . S
C419 C420 1.384 . S
C419 C421 1.479 . S
C419 H437 0.929 . S
C420 C417 1.424 . S
C420 C419 1.384 . S
C420 H438 0.928 . S
C421 C418 1.260 . S
C421 C419 1.479 . S
C422 C417 1.245 . S
C422 C418 1.477 . S
C422 H439 0.932 . S
C423 U406 2.882 . S
C423 C417 1.428 . S
C423 O426 1.301 . S
C423 O427 1.282 . S
O424 U406 2.441 . S
O424 C410 1.249 . S
O425 U406 2.420 . S
O425 C410 1.202 . S
O426 U406 2.455 . S
O426 C423 1.301 . S
O427 U406 2.449 . S
O427 C423 1.282 . S
H428 C401 0.931 . S
H429 C403 0.932 . S
H430 C404 0.930 . S
H431 C405 0.931 . S
H432 C412 0.932 . S
H433 C413 0.930 . S
H434 C414 0.929 . S
H435 C416 0.937 . S
H436 C418 0.932 . S
H437 C419 0.929 . S
H438 C420 0.928 . S
H439 C422 0.932 . S
C440 C441 1.264 . S
C440 C445 1.479 . S
C440 C450 1.465 . S
C441 C440 1.264 . S
C441 C443 1.339 . S
C441 H468 0.931 . S
C442 C443 1.395 . S
C442 C444 1.320 . S
C443 C441 1.339 . S
C443 C442 1.395 . S
C443 H469 0.929 . S
C444 C442 1.320 . S
C444 C445 1.405 . S
C444 H470 0.930 . S
C445 C440 1.479 . S
C445 C444 1.405 . S
C445 H471 0.931 . S
U446 O447 2.454 . S
U446 O448 2.458 . S
U446 C449 2.984 . S
U446 C450 2.847 . S
U446 C463 2.882 . S
U446 O464 2.441 . S
U446 O465 2.420 . S
U446 O466 2.455 . S
U446 O467 2.449 . S
O447 U446 2.454 . S
O447 C449 1.353 . S
O448 U446 2.458 . S
O448 C449 1.286 . S
C449 U446 2.984 . S
C449 O447 1.353 . S
C449 O448 1.286 . S
C449 C451 1.363 . S
C450 C440 1.465 . S
C450 U446 2.847 . S
C450 O464 1.249 . S
C450 O465 1.202 . S
C451 C449 1.363 . S
C451 C453 1.408 . S
C451 C456 1.342 . S
C452 C453 1.310 . S
C452 C455 1.461 . S
C452 H472 0.932 . S
C453 C451 1.408 . S
C453 C452 1.310 . S
C453 H473 0.930 . S
C454 C455 1.474 . S
C454 C456 1.285 . S
C454 H474 0.929 . S
C455 C452 1.461 . S
C455 C454 1.474 . S
C456 C451 1.342 . S
C456 C454 1.285 . S
C456 H475 0.930 . S
C457 C460 1.424 . S
C457 C462 1.245 . S
C457 C463 1.428 . S
C458 C461 1.260 . S
C458 C462 1.477 . S
C458 H476 0.932 . S
C459 C460 1.384 . S
C459 C461 1.479 . S
C459 H477 0.929 . S
C460 C457 1.424 . S
C460 C459 1.384 . S
C460 H478 0.928 . S
C461 C458 1.260 . S
C461 C459 1.479 . S
C462 C457 1.245 . S
C462 C458 1.477 . S
C462 H479 0.932 . S
C463 U446 2.882 . S
C463 C457 1.428 . S
C463 O466 1.301 . S
C463 O467 1.282 . S
O464 U446 2.441 . S
O464 C450 1.249 . S
O465 U446 2.420 . S
O465 C450 1.202 . S
O466 U446 2.455 . S
O466 C463 1.301 . S
O467 U446 2.449 . S
O467 C463 1.282 . S
H468 C441 0.931 . S
H469 C443 0.929 . S
H470 C444 0.930 . S
H471 C445 0.931 . S
H472 C452 0.932 . S
H473 C453 0.930 . S
H474 C454 0.929 . S
H475 C456 0.930 . S
H476 C458 0.932 . S
H477 C459 0.929 . S
H478 C460 0.928 . S
H479 C462 0.932 . S
C480 C481 1.264 . S
C480 C485 1.479 1_545 S
C480 C490 1.465 . S
C481 C480 1.264 . S
C481 C483 1.343 . S
C481 H508 0.931 . S
C482 C483 1.388 1_565 S
C482 C484 1.320 . S
C483 C481 1.343 . S
C483 C482 1.388 1_545 S
C483 H509 0.932 . S
C484 C482 1.320 . S
C484 C485 1.405 . S
C484 H510 0.930 . S
C485 C480 1.479 1_565 S
C485 C484 1.405 . S
C485 H511 0.931 . S
U486 O487 2.441 1_545 S
U486 O488 2.458 . S
U486 C489 2.998 . S
U486 C490 2.847 . S
U486 C503 2.882 . S
U486 O504 2.441 . S
U486 O505 2.420 . S
U486 O506 2.455 . S
U486 O507 2.449 . S
O487 U486 2.441 1_565 S
O487 C489 1.349 1_565 S
O488 U486 2.458 . S
O488 C489 1.300 . S
C489 U486 2.998 . S
C489 O487 1.349 1_545 S
C489 O488 1.300 . S
C489 C491 1.353 1_545 S
C490 C480 1.465 . S
C490 U486 2.847 . S
C490 O504 1.249 . S
C490 O505 1.202 . S
C491 C489 1.353 1_565 S
C491 C493 1.408 . S
C491 C496 1.342 . S
C492 C493 1.310 . S
C492 C495 1.461 . S
C492 H512 0.932 . S
C493 C491 1.408 . S
C493 C492 1.310 . S
C493 H513 0.930 . S
C494 C495 1.474 . S
C494 C496 1.285 . S
C494 H514 0.929 . S
C495 C492 1.461 . S
C495 C494 1.474 . S
C496 C491 1.342 . S
C496 C494 1.285 . S
C496 H515 0.937 . S
C497 C500 1.424 . S
C497 C502 1.245 . S
C497 C503 1.428 . S
C498 C501 1.260 . S
C498 C502 1.477 . S
C498 H516 0.932 . S
C499 C500 1.384 . S
C499 C501 1.479 . S
C499 H517 0.929 . S
C500 C497 1.424 . S
C500 C499 1.384 . S
C500 H518 0.928 . S
C501 C498 1.260 . S
C501 C499 1.479 . S
C502 C497 1.245 . S
C502 C498 1.477 . S
C502 H519 0.932 . S
C503 U486 2.882 . S
C503 C497 1.428 . S
C503 O506 1.301 . S
C503 O507 1.282 . S
O504 U486 2.441 . S
O504 C490 1.249 . S
O505 U486 2.420 . S
O505 C490 1.202 . S
O506 U486 2.455 . S
O506 C503 1.301 . S
O507 U486 2.449 . S
O507 C503 1.282 . S
H508 C481 0.931 . S
H509 C483 0.932 . S
H510 C484 0.930 . S
H511 C485 0.931 . S
H512 C492 0.932 . S
H513 C493 0.930 . S
H514 C494 0.929 . S
H515 C496 0.937 . S
H516 C498 0.932 . S
H517 C499 0.929 . S
H518 C500 0.928 . S
H519 C502 0.932 . S
C520 C521 1.264 . S
C520 C525 1.479 . S
C520 C530 1.465 . S
C521 C520 1.264 . S
C521 C523 1.339 . S
C521 H548 0.931 . S
C522 C523 1.395 . S
C522 C524 1.320 . S
C523 C521 1.339 . S
C523 C522 1.395 . S
C523 H549 0.929 . S
C524 C522 1.320 . S
C524 C525 1.405 . S
C524 H550 0.930 . S
C525 C520 1.479 . S
C525 C524 1.405 . S
C525 H551 0.931 . S
U526 O527 2.454 . S
U526 O528 2.458 . S
U526 C529 2.984 . S
U526 C530 2.847 . S
U526 C543 2.882 . S
U526 O544 2.441 . S
U526 O545 2.420 . S
U526 O546 2.455 . S
U526 O547 2.449 . S
O527 U526 2.454 . S
O527 C529 1.353 . S
O528 U526 2.458 . S
O528 C529 1.286 . S
C529 U526 2.984 . S
C529 O527 1.353 . S
C529 O528 1.286 . S
C529 C531 1.363 . S
C530 C520 1.465 . S
C530 U526 2.847 . S
C530 O544 1.249 . S
C530 O545 1.202 . S
C531 C529 1.363 . S
C531 C533 1.408 . S
C531 C536 1.342 . S
C532 C533 1.310 . S
C532 C535 1.461 . S
C532 H552 0.932 . S
C533 C531 1.408 . S
C533 C532 1.310 . S
C533 H553 0.930 . S
C534 C535 1.474 . S
C534 C536 1.285 . S
C534 H554 0.929 . S
C535 C532 1.461 . S
C535 C534 1.474 . S
C536 C531 1.342 . S
C536 C534 1.285 . S
C536 H555 0.930 . S
C537 C540 1.424 . S
C537 C542 1.245 . S
C537 C543 1.428 . S
C538 C541 1.260 . S
C538 C542 1.477 . S
C538 H556 0.932 . S
C539 C540 1.384 . S
C539 C541 1.479 . S
C539 H557 0.929 . S
C540 C537 1.424 . S
C540 C539 1.384 . S
C540 H558 0.928 . S
C541 C538 1.260 . S
C541 C539 1.479 . S
C542 C537 1.245 . S
C542 C538 1.477 . S
C542 H559 0.932 . S
C543 U526 2.882 . S
C543 C537 1.428 . S
C543 O546 1.301 . S
C543 O547 1.282 . S
O544 U526 2.441 . S
O544 C530 1.249 . S
O545 U526 2.420 . S
O545 C530 1.202 . S
O546 U526 2.455 . S
O546 C543 1.301 . S
O547 U526 2.449 . S
O547 C543 1.282 . S
H548 C521 0.931 . S
H549 C523 0.929 . S
H550 C524 0.930 . S
H551 C525 0.931 . S
H552 C532 0.932 . S
H553 C533 0.930 . S
H554 C534 0.929 . S
H555 C536 0.930 . S
H556 C538 0.932 . S
H557 C539 0.929 . S
H558 C540 0.928 . S
H559 C542 0.932 . S
C560 C561 1.264 . S
C560 C565 1.479 1_565 S
C560 C570 1.465 . S
C561 C560 1.264 . S
C561 C563 1.343 . S
C561 H588 0.931 . S
C562 C563 1.388 1_545 S
C562 C564 1.320 . S
C563 C561 1.343 . S
C563 C562 1.388 1_565 S
C563 H589 0.932 . S
C564 C562 1.320 . S
C564 C565 1.405 . S
C564 H590 0.930 . S
C565 C560 1.479 1_545 S
C565 C564 1.405 . S
C565 H591 0.931 . S
U566 O567 2.441 1_565 S
U566 O568 2.458 . S
U566 C569 2.998 . S
U566 C570 2.847 . S
U566 C583 2.882 . S
U566 O584 2.441 . S
U566 O585 2.420 . S
U566 O586 2.455 . S
U566 O587 2.449 . S
O567 U566 2.441 1_545 S
O567 C569 1.349 1_545 S
O568 U566 2.458 . S
O568 C569 1.300 . S
C569 U566 2.998 . S
C569 O567 1.349 1_565 S
C569 O568 1.300 . S
C569 C571 1.353 1_565 S
C570 C560 1.465 . S
C570 U566 2.847 . S
C570 O584 1.249 . S
C570 O585 1.202 . S
C571 C569 1.353 1_545 S
C571 C573 1.408 . S
C571 C576 1.342 . S
C572 C573 1.310 . S
C572 C575 1.461 . S
C572 H592 0.932 . S
C573 C571 1.408 . S
C573 C572 1.310 . S
C573 H593 0.930 . S
C574 C575 1.474 . S
C574 C576 1.285 . S
C574 H594 0.929 . S
C575 C572 1.461 . S
C575 C574 1.474 . S
C576 C571 1.342 . S
C576 C574 1.285 . S
C576 H595 0.937 . S
C577 C580 1.424 . S
C577 C582 1.245 . S
C577 C583 1.428 . S
C578 C581 1.260 . S
C578 C582 1.477 . S
C578 H596 0.932 . S
C579 C580 1.384 . S
C579 C581 1.479 . S
C579 H597 0.929 . S
C580 C577 1.424 . S
C580 C579 1.384 . S
C580 H598 0.928 . S
C581 C578 1.260 . S
C581 C579 1.479 . S
C582 C577 1.245 . S
C582 C578 1.477 . S
C582 H599 0.932 . S
C583 U566 2.882 . S
C583 C577 1.428 . S
C583 O586 1.301 . S
C583 O587 1.282 . S
O584 U566 2.441 . S
O584 C570 1.249 . S
O585 U566 2.420 . S
O585 C570 1.202 . S
O586 U566 2.455 . S
O586 C583 1.301 . S
O587 U566 2.449 . S
O587 C583 1.282 . S
H588 C561 0.931 . S
H589 C563 0.932 . S
H590 C564 0.930 . S
H591 C565 0.931 . S
H592 C572 0.932 . S
H593 C573 0.930 . S
H594 C574 0.929 . S
H595 C576 0.937 . S
H596 C578 0.932 . S
H597 C579 0.929 . S
H598 C580 0.928 . S
H599 C582 0.932 . S
C600 C601 1.264 . S
C600 C605 1.479 . S
C600 C610 1.465 . S
C601 C600 1.264 . S
C601 C603 1.339 . S
C601 H628 0.931 . S
C602 C603 1.395 . S
C602 C604 1.320 . S
C603 C601 1.339 . S
C603 C602 1.395 . S
C603 H629 0.929 . S
C604 C602 1.320 . S
C604 C605 1.405 . S
C604 H630 0.930 . S
C605 C600 1.479 . S
C605 C604 1.405 . S
C605 H631 0.931 . S
U606 O607 2.454 . S
U606 O608 2.458 . S
U606 C609 2.984 . S
U606 C610 2.847 . S
U606 C623 2.882 . S
U606 O624 2.441 . S
U606 O625 2.420 . S
U606 O626 2.455 . S
U606 O627 2.449 . S
O607 U606 2.454 . S
O607 C609 1.353 . S
O608 U606 2.458 . S
O608 C609 1.286 . S
C609 U606 2.984 . S
C609 O607 1.353 . S
C609 O608 1.286 . S
C609 C611 1.363 . S
C610 C600 1.465 . S
C610 U606 2.847 . S
C610 O624 1.249 . S
C610 O625 1.202 . S
C611 C609 1.363 . S
C611 C613 1.408 . S
C611 C616 1.342 . S
C612 C613 1.310 . S
C612 C615 1.461 . S
C612 H632 0.932 . S
C613 C611 1.408 . S
C613 C612 1.310 . S
C613 H633 0.930 . S
C614 C615 1.474 . S
C614 C616 1.285 . S
C614 H634 0.929 . S
C615 C612 1.461 . S
C615 C614 1.474 . S
C616 C611 1.342 . S
C616 C614 1.285 . S
C616 H635 0.930 . S
C617 C620 1.424 . S
C617 C622 1.245 . S
C617 C623 1.428 . S
C618 C621 1.260 . S
C618 C622 1.477 . S
C618 H636 0.932 . S
C619 C620 1.384 . S
C619 C621 1.479 . S
C619 H637 0.929 . S
C620 C617 1.424 . S
C620 C619 1.384 . S
C620 H638 0.928 . S
C621 C618 1.260 . S
C621 C619 1.479 . S
C622 C617 1.245 . S
C622 C618 1.477 . S
C622 H639 0.932 . S
C623 U606 2.882 . S
C623 C617 1.428 . S
C623 O626 1.301 . S
C623 O627 1.282 . S
O624 U606 2.441 . S
O624 C610 1.249 . S
O625 U606 2.420 . S
O625 C610 1.202 . S
O626 U606 2.455 . S
O626 C623 1.301 . S
O627 U606 2.449 . S
O627 C623 1.282 . S
H628 C601 0.931 . S
H629 C603 0.929 . S
H630 C604 0.930 . S
H631 C605 0.931 . S
H632 C612 0.932 . S
H633 C613 0.930 . S
H634 C614 0.929 . S
H635 C616 0.930 . S
H636 C618 0.932 . S
H637 C619 0.929 . S
H638 C620 0.928 . S
H639 C622 0.932 . S
C640 C641 1.264 . S
C640 C645 1.479 . S
C640 C650 1.465 . S
C641 C640 1.264 . S
C641 C643 1.339 . S
C641 H668 0.931 . S
C642 C643 1.395 . S
C642 C644 1.320 . S
C643 C641 1.339 . S
C643 C642 1.395 . S
C643 H669 0.929 . S
C644 C642 1.320 . S
C644 C645 1.405 . S
C644 H670 0.930 . S
C645 C640 1.479 . S
C645 C644 1.405 . S
C645 H671 0.931 . S
U646 O647 2.454 . S
U646 O648 2.458 . S
U646 C649 2.984 . S
U646 C650 2.847 . S
U646 C663 2.882 . S
U646 O664 2.441 . S
U646 O665 2.420 . S
U646 O666 2.455 . S
U646 O667 2.449 . S
O647 U646 2.454 . S
O647 C649 1.353 . S
O648 U646 2.458 . S
O648 C649 1.286 . S
C649 U646 2.984 . S
C649 O647 1.353 . S
C649 O648 1.286 . S
C649 C651 1.363 . S
C650 C640 1.465 . S
C650 U646 2.847 . S
C650 O664 1.249 . S
C650 O665 1.202 . S
C651 C649 1.363 . S
C651 C653 1.408 . S
C651 C656 1.342 . S
C652 C653 1.310 . S
C652 C655 1.461 . S
C652 H672 0.932 . S
C653 C651 1.408 . S
C653 C652 1.310 . S
C653 H673 0.930 . S
C654 C655 1.474 . S
C654 C656 1.285 . S
C654 H674 0.929 . S
C655 C652 1.461 . S
C655 C654 1.474 . S
C656 C651 1.342 . S
C656 C654 1.285 . S
C656 H675 0.930 . S
C657 C660 1.424 . S
C657 C662 1.245 . S
C657 C663 1.428 . S
C658 C661 1.260 . S
C658 C662 1.477 . S
C658 H676 0.932 . S
C659 C660 1.384 . S
C659 C661 1.479 . S
C659 H677 0.929 . S
C660 C657 1.424 . S
C660 C659 1.384 . S
C660 H678 0.928 . S
C661 C658 1.260 . S
C661 C659 1.479 . S
C662 C657 1.245 . S
C662 C658 1.477 . S
C662 H679 0.932 . S
C663 U646 2.882 . S
C663 C657 1.428 . S
C663 O666 1.301 . S
C663 O667 1.282 . S
O664 U646 2.441 . S
O664 C650 1.249 . S
O665 U646 2.420 . S
O665 C650 1.202 . S
O666 U646 2.455 . S
O666 C663 1.301 . S
O667 U646 2.449 . S
O667 C663 1.282 . S
H668 C641 0.931 . S
H669 C643 0.929 . S
H670 C644 0.930 . S
H671 C645 0.931 . S
H672 C652 0.932 . S
H673 C653 0.930 . S
H674 C654 0.929 . S
H675 C656 0.930 . S
H676 C658 0.932 . S
H677 C659 0.929 . S
H678 C660 0.928 . S
H679 C662 0.932 . S
C680 C681 1.264 . S
C680 C685 1.479 . S
C680 C690 1.465 . S
C681 C680 1.264 . S
C681 C683 1.339 . S
C681 H708 0.931 . S
C682 C683 1.395 . S
C682 C684 1.320 . S
C683 C681 1.339 . S
C683 C682 1.395 . S
C683 H709 0.929 . S
C684 C682 1.320 . S
C684 C685 1.405 . S
C684 H710 0.930 . S
C685 C680 1.479 . S
C685 C684 1.405 . S
C685 H711 0.931 . S
U686 O687 2.454 . S
U686 O688 2.458 . S
U686 C689 2.984 . S
U686 C690 2.847 . S
U686 C703 2.882 . S
U686 O704 2.441 . S
U686 O705 2.420 . S
U686 O706 2.455 . S
U686 O707 2.449 . S
O687 U686 2.454 . S
O687 C689 1.353 . S
O688 U686 2.458 . S
O688 C689 1.286 . S
C689 U686 2.984 . S
C689 O687 1.353 . S
C689 O688 1.286 . S
C689 C691 1.363 . S
C690 C680 1.465 . S
C690 U686 2.847 . S
C690 O704 1.249 . S
C690 O705 1.202 . S
C691 C689 1.363 . S
C691 C693 1.408 . S
C691 C696 1.342 . S
C692 C693 1.310 . S
C692 C695 1.461 . S
C692 H712 0.932 . S
C693 C691 1.408 . S
C693 C692 1.310 . S
C693 H713 0.930 . S
C694 C695 1.474 . S
C694 C696 1.285 . S
C694 H714 0.929 . S
C695 C692 1.461 . S
C695 C694 1.474 . S
C696 C691 1.342 . S
C696 C694 1.285 . S
C696 H715 0.930 . S
C697 C700 1.424 . S
C697 C702 1.245 . S
C697 C703 1.428 . S
C698 C701 1.260 . S
C698 C702 1.477 . S
C698 H716 0.932 . S
C699 C700 1.384 . S
C699 C701 1.479 . S
C699 H717 0.929 . S
C700 C697 1.424 . S
C700 C699 1.384 . S
C700 H718 0.928 . S
C701 C698 1.260 . S
C701 C699 1.479 . S
C702 C697 1.245 . S
C702 C698 1.477 . S
C702 H719 0.932 . S
C703 U686 2.882 . S
C703 C697 1.428 . S
C703 O706 1.301 . S
C703 O707 1.282 . S
O704 U686 2.441 . S
O704 C690 1.249 . S
O705 U686 2.420 . S
O705 C690 1.202 . S
O706 U686 2.455 . S
O706 C703 1.301 . S
O707 U686 2.449 . S
O707 C703 1.282 . S
H708 C681 0.931 . S
H709 C683 0.929 . S
H710 C684 0.930 . S
H711 C685 0.931 . S
H712 C692 0.932 . S
H713 C693 0.930 . S
H714 C694 0.929 . S
H715 C696 0.930 . S
H716 C698 0.932 . S
H717 C699 0.929 . S
H718 C700 0.928 . S
H719 C702 0.932 . S
C720 C721 1.264 . S
C720 C725 1.479 . S
C720 C730 1.465 . S
C721 C720 1.264 . S
C721 C723 1.339 . S
C721 H748 0.931 . S
C722 C723 1.395 . S
C722 C724 1.320 . S
C723 C721 1.339 . S
C723 C722 1.395 . S
C723 H749 0.929 . S
C724 C722 1.320 . S
C724 C725 1.405 . S
C724 H750 0.930 . S
C725 C720 1.479 . S
C725 C724 1.405 . S
C725 H751 0.931 . S
U726 O727 2.454 . S
U726 O728 2.458 . S
U726 C729 2.984 . S
U726 C730 2.847 . S
U726 C743 2.882 . S
U726 O744 2.441 . S
U726 O745 2.420 . S
U726 O746 2.455 . S
U726 O747 2.449 . S
O727 U726 2.454 . S
O727 C729 1.353 . S
O728 U726 2.458 . S
O728 C729 1.286 . S
C729 U726 2.984 . S
C729 O727 1.353 . S
C729 O728 1.286 . S
C729 C731 1.363 . S
C730 C720 1.465 . S
C730 U726 2.847 . S
C730 O744 1.249 . S
C730 O745 1.202 . S
C731 C729 1.363 . S
C731 C733 1.408 . S
C731 C736 1.342 . S
C732 C733 1.310 . S
C732 C735 1.461 . S
C732 H752 0.932 . S
C733 C731 1.408 . S
C733 C732 1.310 . S
C733 H753 0.930 . S
C734 C735 1.474 . S
C734 C736 1.285 . S
C734 H754 0.929 . S
C735 C732 1.461 . S
C735 C734 1.474 . S
C736 C731 1.342 . S
C736 C734 1.285 . S
C736 H755 0.930 . S
C737 C740 1.424 . S
C737 C742 1.245 . S
C737 C743 1.428 . S
C738 C741 1.260 . S
C738 C742 1.477 . S
C738 H756 0.932 . S
C739 C740 1.384 . S
C739 C741 1.479 . S
C739 H757 0.929 . S
C740 C737 1.424 . S
C740 C739 1.384 . S
C740 H758 0.928 . S
C741 C738 1.260 . S
C741 C739 1.479 . S
C742 C737 1.245 . S
C742 C738 1.477 . S
C742 H759 0.932 . S
C743 U726 2.882 . S
C743 C737 1.428 . S
C743 O746 1.301 . S
C743 O747 1.282 . S
O744 U726 2.441 . S
O744 C730 1.249 . S
O745 U726 2.420 . S
O745 C730 1.202 . S
O746 U726 2.455 . S
O746 C743 1.301 . S
O747 U726 2.449 . S
O747 C743 1.282 . S
H748 C721 0.931 . S
H749 C723 0.929 . S
H750 C724 0.930 . S
H751 C725 0.931 . S
H752 C732 0.932 . S
H753 C733 0.930 . S
H754 C734 0.929 . S
H755 C736 0.930 . S
H756 C738 0.932 . S
H757 C739 0.929 . S
H758 C740 0.928 . S
H759 C742 0.932 . S
C760 C761 1.264 . S
C760 C765 1.479 . S
C760 C770 1.465 . S
C761 C760 1.264 . S
C761 C763 1.339 . S
C761 H788 0.931 . S
C762 C763 1.395 . S
C762 C764 1.320 . S
C763 C761 1.339 . S
C763 C762 1.395 . S
C763 H789 0.929 . S
C764 C762 1.320 . S
C764 C765 1.405 . S
C764 H790 0.930 . S
C765 C760 1.479 . S
C765 C764 1.405 . S
C765 H791 0.931 . S
U766 O767 2.454 . S
U766 O768 2.458 . S
U766 C769 2.984 . S
U766 C770 2.847 . S
U766 C783 2.882 . S
U766 O784 2.441 . S
U766 O785 2.420 . S
U766 O786 2.455 . S
U766 O787 2.449 . S
O767 U766 2.454 . S
O767 C769 1.353 . S
O768 U766 2.458 . S
O768 C769 1.286 . S
C769 U766 2.984 . S
C769 O767 1.353 . S
C769 O768 1.286 . S
C769 C771 1.363 . S
C770 C760 1.465 . S
C770 U766 2.847 . S
C770 O784 1.249 . S
C770 O785 1.202 . S
C771 C769 1.363 . S
C771 C773 1.408 . S
C771 C776 1.342 . S
C772 C773 1.310 . S
C772 C775 1.461 . S
C772 H792 0.932 . S
C773 C771 1.408 . S
C773 C772 1.310 . S
C773 H793 0.930 . S
C774 C775 1.474 . S
C774 C776 1.285 . S
C774 H794 0.929 . S
C775 C772 1.461 . S
C775 C774 1.474 . S
C776 C771 1.342 . S
C776 C774 1.285 . S
C776 H795 0.930 . S
C777 C780 1.424 . S
C777 C782 1.245 . S
C777 C783 1.428 . S
C778 C781 1.260 . S
C778 C782 1.477 . S
C778 H796 0.932 . S
C779 C780 1.384 . S
C779 C781 1.479 . S
C779 H797 0.929 . S
C780 C777 1.424 . S
C780 C779 1.384 . S
C780 H798 0.928 . S
C781 C778 1.260 . S
C781 C779 1.479 . S
C782 C777 1.245 . S
C782 C778 1.477 . S
C782 H799 0.932 . S
C783 U766 2.882 . S
C783 C777 1.428 . S
C783 O786 1.301 . S
C783 O787 1.282 . S
O784 U766 2.441 . S
O784 C770 1.249 . S
O785 U766 2.420 . S
O785 C770 1.202 . S
O786 U766 2.455 . S
O786 C783 1.301 . S
O787 U766 2.449 . S
O787 C783 1.282 . S
H788 C761 0.931 . S
H789 C763 0.929 . S
H790 C764 0.930 . S
H791 C765 0.931 . S
H792 C772 0.932 . S
H793 C773 0.930 . S
H794 C774 0.929 . S
H795 C776 0.930 . S
H796 C778 0.932 . S
H797 C779 0.929 . S
H798 C780 0.928 . S
H799 C782 0.932 . S
C800 C801 1.264 . S
C800 C805 1.479 . S
C800 C810 1.465 . S
C801 C800 1.264 . S
C801 C803 1.339 . S
C801 H828 0.931 . S
C802 C803 1.395 . S
C802 C804 1.320 . S
C803 C801 1.339 . S
C803 C802 1.395 . S
C803 H829 0.929 . S
C804 C802 1.320 . S
C804 C805 1.405 . S
C804 H830 0.930 . S
C805 C800 1.479 . S
C805 C804 1.405 . S
C805 H831 0.931 . S
U806 O807 2.454 . S
U806 O808 2.458 . S
U806 C809 2.984 . S
U806 C810 2.847 . S
U806 C823 2.882 . S
U806 O824 2.441 . S
U806 O825 2.420 . S
U806 O826 2.455 . S
U806 O827 2.449 . S
O807 U806 2.454 . S
O807 C809 1.353 . S
O808 U806 2.458 . S
O808 C809 1.286 . S
C809 U806 2.984 . S
C809 O807 1.353 . S
C809 O808 1.286 . S
C809 C811 1.363 . S
C810 C800 1.465 . S
C810 U806 2.847 . S
C810 O824 1.249 . S
C810 O825 1.202 . S
C811 C809 1.363 . S
C811 C813 1.408 . S
C811 C816 1.342 . S
C812 C813 1.310 . S
C812 C815 1.461 . S
C812 H832 0.932 . S
C813 C811 1.408 . S
C813 C812 1.310 . S
C813 H833 0.930 . S
C814 C815 1.474 . S
C814 C816 1.285 . S
C814 H834 0.929 . S
C815 C812 1.461 . S
C815 C814 1.474 . S
C816 C811 1.342 . S
C816 C814 1.285 . S
C816 H835 0.930 . S
C817 C820 1.424 . S
C817 C822 1.245 . S
C817 C823 1.428 . S
C818 C821 1.260 . S
C818 C822 1.477 . S
C818 H836 0.932 . S
C819 C820 1.384 . S
C819 C821 1.479 . S
C819 H837 0.929 . S
C820 C817 1.424 . S
C820 C819 1.384 . S
C820 H838 0.928 . S
C821 C818 1.260 . S
C821 C819 1.479 . S
C822 C817 1.245 . S
C822 C818 1.477 . S
C822 H839 0.932 . S
C823 U806 2.882 . S
C823 C817 1.428 . S
C823 O826 1.301 . S
C823 O827 1.282 . S
O824 U806 2.441 . S
O824 C810 1.249 . S
O825 U806 2.420 . S
O825 C810 1.202 . S
O826 U806 2.455 . S
O826 C823 1.301 . S
O827 U806 2.449 . S
O827 C823 1.282 . S
H828 C801 0.931 . S
H829 C803 0.929 . S
H830 C804 0.930 . S
H831 C805 0.931 . S
H832 C812 0.932 . S
H833 C813 0.930 . S
H834 C814 0.929 . S
H835 C816 0.930 . S
H836 C818 0.932 . S
H837 C819 0.929 . S
H838 C820 0.928 . S
H839 C822 0.932 . S
C840 C841 1.264 . S
C840 C845 1.479 . S
C840 C850 1.465 . S
C841 C840 1.264 . S
C841 C843 1.339 . S
C841 H868 0.931 . S
C842 C843 1.395 . S
C842 C844 1.320 . S
C843 C841 1.339 . S
C843 C842 1.395 . S
C843 H869 0.929 . S
C844 C842 1.320 . S
C844 C845 1.405 . S
C844 H870 0.930 . S
C845 C840 1.479 . S
C845 C844 1.405 . S
C845 H871 0.931 . S
U846 O847 2.454 . S
U846 O848 2.458 . S
U846 C849 2.984 . S
U846 C850 2.847 . S
U846 C863 2.882 . S
U846 O864 2.441 . S
U846 O865 2.420 . S
U846 O866 2.455 . S
U846 O867 2.449 . S
O847 U846 2.454 . S
O847 C849 1.353 . S
O848 U846 2.458 . S
O848 C849 1.286 . S
C849 U846 2.984 . S
C849 O847 1.353 . S
C849 O848 1.286 . S
C849 C851 1.363 . S
C850 C840 1.465 . S
C850 U846 2.847 . S
C850 O864 1.249 . S
C850 O865 1.202 . S
C851 C849 1.363 . S
C851 C853 1.408 . S
C851 C856 1.342 . S
C852 C853 1.310 . S
C852 C855 1.461 . S
C852 H872 0.932 . S
C853 C851 1.408 . S
C853 C852 1.310 . S
C853 H873 0.930 . S
C854 C855 1.474 . S
C854 C856 1.285 . S
C854 H874 0.929 . S
C855 C852 1.461 . S
C855 C854 1.474 . S
C856 C851 1.342 . S
C856 C854 1.285 . S
C856 H875 0.930 . S
C857 C860 1.424 . S
C857 C862 1.245 . S
C857 C863 1.428 . S
C858 C861 1.260 . S
C858 C862 1.477 . S
C858 H876 0.932 . S
C859 C860 1.384 . S
C859 C861 1.479 . S
C859 H877 0.929 . S
C860 C857 1.424 . S
C860 C859 1.384 . S
C860 H878 0.928 . S
C861 C858 1.260 . S
C861 C859 1.479 . S
C862 C857 1.245 . S
C862 C858 1.477 . S
C862 H879 0.932 . S
C863 U846 2.882 . S
C863 C857 1.428 . S
C863 O866 1.301 . S
C863 O867 1.282 . S
O864 U846 2.441 . S
O864 C850 1.249 . S
O865 U846 2.420 . S
O865 C850 1.202 . S
O866 U846 2.455 . S
O866 C863 1.301 . S
O867 U846 2.449 . S
O867 C863 1.282 . S
H868 C841 0.931 . S
H869 C843 0.929 . S
H870 C844 0.930 . S
H871 C845 0.931 . S
H872 C852 0.932 . S
H873 C853 0.930 . S
H874 C854 0.929 . S
H875 C856 0.930 . S
H876 C858 0.932 . S
H877 C859 0.929 . S
H878 C860 0.928 . S
H879 C862 0.932 . S
C880 C881 1.264 . S
C880 C885 1.479 . S
C880 C890 1.465 . S
C881 C880 1.264 . S
C881 C883 1.339 . S
C881 H908 0.931 . S
C882 C883 1.395 . S
C882 C884 1.320 . S
C883 C881 1.339 . S
C883 C882 1.395 . S
C883 H909 0.929 . S
C884 C882 1.320 . S
C884 C885 1.405 . S
C884 H910 0.930 . S
C885 C880 1.479 . S
C885 C884 1.405 . S
C885 H911 0.931 . S
U886 O887 2.454 . S
U886 O888 2.458 . S
U886 C889 2.984 . S
U886 C890 2.847 . S
U886 C903 2.882 . S
U886 O904 2.441 . S
U886 O905 2.420 . S
U886 O906 2.455 . S
U886 O907 2.449 . S
O887 U886 2.454 . S
O887 C889 1.353 . S
O888 U886 2.458 . S
O888 C889 1.286 . S
C889 U886 2.984 . S
C889 O887 1.353 . S
C889 O888 1.286 . S
C889 C891 1.363 . S
C890 C880 1.465 . S
C890 U886 2.847 . S
C890 O904 1.249 . S
C890 O905 1.202 . S
C891 C889 1.363 . S
C891 C893 1.408 . S
C891 C896 1.342 . S
C892 C893 1.310 . S
C892 C895 1.461 . S
C892 H912 0.932 . S
C893 C891 1.408 . S
C893 C892 1.310 . S
C893 H913 0.930 . S
C894 C895 1.474 . S
C894 C896 1.285 . S
C894 H914 0.929 . S
C895 C892 1.461 . S
C895 C894 1.474 . S
C896 C891 1.342 . S
C896 C894 1.285 . S
C896 H915 0.930 . S
C897 C900 1.424 . S
C897 C902 1.245 . S
C897 C903 1.428 . S
C898 C901 1.260 . S
C898 C902 1.477 . S
C898 H916 0.932 . S
C899 C900 1.384 . S
C899 C901 1.479 . S
C899 H917 0.929 . S
C900 C897 1.424 . S
C900 C899 1.384 . S
C900 H918 0.928 . S
C901 C898 1.260 . S
C901 C899 1.479 . S
C902 C897 1.245 . S
C902 C898 1.477 . S
C902 H919 0.932 . S
C903 U886 2.882 . S
C903 C897 1.428 . S
C903 O906 1.301 . S
C903 O907 1.282 . S
O904 U886 2.441 . S
O904 C890 1.249 . S
O905 U886 2.420 . S
O905 C890 1.202 . S
O906 U886 2.455 . S
O906 C903 1.301 . S
O907 U886 2.449 . S
O907 C903 1.282 . S
H908 C881 0.931 . S
H909 C883 0.929 . S
H910 C884 0.930 . S
H911 C885 0.931 . S
H912 C892 0.932 . S
H913 C893 0.930 . S
H914 C894 0.929 . S
H915 C896 0.930 . S
H916 C898 0.932 . S
H917 C899 0.929 . S
H918 C900 0.928 . S
H919 C902 0.932 . S
C920 C921 1.264 . S
C920 C925 1.479 . S
C920 C930 1.465 . S
C921 C920 1.264 . S
C921 C923 1.339 . S
C921 H948 0.931 . S
C922 C923 1.395 . S
C922 C924 1.320 . S
C923 C921 1.339 . S
C923 C922 1.395 . S
C923 H949 0.929 . S
C924 C922 1.320 . S
C924 C925 1.405 . S
C924 H950 0.930 . S
C925 C920 1.479 . S
C925 C924 1.405 . S
C925 H951 0.931 . S
U926 O927 2.454 . S
U926 O928 2.458 . S
U926 C929 2.984 . S
U926 C930 2.847 . S
U926 C943 2.882 . S
U926 O944 2.441 . S
U926 O945 2.420 . S
U926 O946 2.455 . S
U926 O947 2.449 . S
O927 U926 2.454 . S
O927 C929 1.353 . S
O928 U926 2.458 . S
O928 C929 1.286 . S
C929 U926 2.984 . S
C929 O927 1.353 . S
C929 O928 1.286 . S
C929 C931 1.363 . S
C930 C920 1.465 . S
C930 U926 2.847 . S
C930 O944 1.249 . S
C930 O945 1.202 . S
C931 C929 1.363 . S
C931 C933 1.408 . S
C931 C936 1.342 . S
C932 C933 1.310 . S
C932 C935 1.461 . S
C932 H952 0.932 . S
C933 C931 1.408 . S
C933 C932 1.310 . S
C933 H953 0.930 . S
C934 C935 1.474 . S
C934 C936 1.285 . S
C934 H954 0.929 . S
C935 C932 1.461 . S
C935 C934 1.474 . S
C936 C931 1.342 . S
C936 C934 1.285 . S
C936 H955 0.930 . S
C937 C940 1.424 . S
C937 C942 1.245 . S
C937 C943 1.428 . S
C938 C941 1.260 . S
C938 C942 1.477 . S
C938 H956 0.932 . S
C939 C940 1.384 . S
C939 C941 1.479 . S
C939 H957 0.929 . S
C940 C937 1.424 . S
C940 C939 1.384 . S
C940 H958 0.928 . S
C941 C938 1.260 . S
C941 C939 1.479 . S
C942 C937 1.245 . S
C942 C938 1.477 . S
C942 H959 0.932 . S
C943 U926 2.882 . S
C943 C937 1.428 . S
C943 O946 1.301 . S
C943 O947 1.282 . S
O944 U926 2.441 . S
O944 C930 1.249 . S
O945 U926 2.420 . S
O945 C930 1.202 . S
O946 U926 2.455 . S
O946 C943 1.301 . S
O947 U926 2.449 . S
O947 C943 1.282 . S
H948 C921 0.931 . S
H949 C923 0.929 . S
H950 C924 0.930 . S
H951 C925 0.931 . S
H952 C932 0.932 . S
H953 C933 0.930 . S
H954 C934 0.929 . S
H955 C936 0.930 . S
H956 C938 0.932 . S
H957 C939 0.929 . S
H958 C940 0.928 . S
H959 C942 0.932 . S
C960 C961 1.264 . S
C960 C965 1.479 . S
C960 C970 1.465 . S
C961 C960 1.264 . S
C961 C963 1.339 . S
C961 H988 0.931 . S
C962 C963 1.395 . S
C962 C964 1.320 . S
C963 C961 1.339 . S
C963 C962 1.395 . S
C963 H989 0.929 . S
C964 C962 1.320 . S
C964 C965 1.405 . S
C964 H990 0.930 . S
C965 C960 1.479 . S
C965 C964 1.405 . S
C965 H991 0.931 . S
U966 O967 2.454 . S
U966 O968 2.458 . S
U966 C969 2.984 . S
U966 C970 2.847 . S
U966 C983 2.882 . S
U966 O984 2.441 . S
U966 O985 2.420 . S
U966 O986 2.455 . S
U966 O987 2.449 . S
O967 U966 2.454 . S
O967 C969 1.353 . S
O968 U966 2.458 . S
O968 C969 1.286 . S
C969 U966 2.984 . S
C969 O967 1.353 . S
C969 O968 1.286 . S
C969 C971 1.363 . S
C970 C960 1.465 . S
C970 U966 2.847 . S
C970 O984 1.249 . S
C970 O985 1.202 . S
C971 C969 1.363 . S
C971 C973 1.408 . S
C971 C976 1.342 . S
C972 C973 1.310 . S
C972 C975 1.461 . S
C972 H992 0.932 . S
C973 C971 1.408 . S
C973 C972 1.310 . S
C973 H993 0.930 . S
C974 C975 1.474 . S
C974 C976 1.285 . S
C974 H994 0.929 . S
C975 C972 1.461 . S
C975 C974 1.474 . S
C976 C971 1.342 . S
C976 C974 1.285 . S
C976 H995 0.930 . S
C977 C980 1.424 . S
C977 C982 1.245 . S
C977 C983 1.428 . S
C978 C981 1.260 . S
C978 C982 1.477 . S
C978 H996 0.932 . S
C979 C980 1.384 . S
C979 C981 1.479 . S
C979 H997 0.929 . S
C980 C977 1.424 . S
C980 C979 1.384 . S
C980 H998 0.928 . S
C981 C978 1.260 . S
C981 C979 1.479 . S
C982 C977 1.245 . S
C982 C978 1.477 . S
C982 H999 0.932 . S
C983 U966 2.882 . S
C983 C977 1.428 . S
C983 O986 1.301 . S
C983 O987 1.282 . S
O984 U966 2.441 . S
O984 C970 1.249 . S
O985 U966 2.420 . S
O985 C970 1.202 . S
O986 U966 2.455 . S
O986 C983 1.301 . S
O987 U966 2.449 . S
O987 C983 1.282 . S
H988 C961 0.931 . S
H989 C963 0.929 . S
H990 C964 0.930 . S
H991 C965 0.931 . S
H992 C972 0.932 . S
H993 C973 0.930 . S
H994 C974 0.929 . S
H995 C976 0.930 . S
H996 C978 0.932 . S
H997 C979 0.929 . S
H998 C980 0.928 . S
H999 C982 0.932 . S
C1000 C1001 1.264 . S
C1000 C1005 1.479 . S
C1000 C1010 1.465 . S
C1001 C1000 1.264 . S
C1001 C1003 1.339 . S
C1001 H1028 0.931 . S
C1002 C1003 1.395 . S
C1002 C1004 1.320 . S
C1003 C1001 1.339 . S
C1003 C1002 1.395 . S
C1003 H1029 0.929 . S
C1004 C1002 1.320 . S
C1004 C1005 1.405 . S
C1004 H1030 0.930 . S
C1005 C1000 1.479 . S
C1005 C1004 1.405 . S
C1005 H1031 0.931 . S
U1006 O1007 2.454 . S
U1006 O1008 2.458 . S
U1006 C1009 2.984 . S
U1006 C1010 2.847 . S
U1006 C1023 2.882 . S
U1006 O1024 2.441 . S
U1006 O1025 2.420 . S
U1006 O1026 2.455 . S
U1006 O1027 2.449 . S
O1007 U1006 2.454 . S
O1007 C1009 1.353 . S
O1008 U1006 2.458 . S
O1008 C1009 1.286 . S
C1009 U1006 2.984 . S
C1009 O1007 1.353 . S
C1009 O1008 1.286 . S
C1009 C1011 1.363 . S
C1010 C1000 1.465 . S
C1010 U1006 2.847 . S
C1010 O1024 1.249 . S
C1010 O1025 1.202 . S
C1011 C1009 1.363 . S
C1011 C1013 1.408 . S
C1011 C1016 1.342 . S
C1012 C1013 1.310 . S
C1012 C1015 1.461 . S
C1012 H1032 0.932 . S
C1013 C1011 1.408 . S
C1013 C1012 1.310 . S
C1013 H1033 0.930 . S
C1014 C1015 1.474 . S
C1014 C1016 1.285 . S
C1014 H1034 0.929 . S
C1015 C1012 1.461 . S
C1015 C1014 1.474 . S
C1016 C1011 1.342 . S
C1016 C1014 1.285 . S
C1016 H1035 0.930 . S
C1017 C1020 1.424 . S
C1017 C1022 1.245 . S
C1017 C1023 1.428 . S
C1018 C1021 1.260 . S
C1018 C1022 1.477 . S
C1018 H1036 0.932 . S
C1019 C1020 1.384 . S
C1019 C1021 1.479 . S
C1019 H1037 0.929 . S
C1020 C1017 1.424 . S
C1020 C1019 1.384 . S
C1020 H1038 0.928 . S
C1021 C1018 1.260 . S
C1021 C1019 1.479 . S
C1022 C1017 1.245 . S
C1022 C1018 1.477 . S
C1022 H1039 0.932 . S
C1023 U1006 2.882 . S
C1023 C1017 1.428 . S
C1023 O1026 1.301 . S
C1023 O1027 1.282 . S
O1024 U1006 2.441 . S
O1024 C1010 1.249 . S
O1025 U1006 2.420 . S
O1025 C1010 1.202 . S
O1026 U1006 2.455 . S
O1026 C1023 1.301 . S
O1027 U1006 2.449 . S
O1027 C1023 1.282 . S
H1028 C1001 0.931 . S
H1029 C1003 0.929 . S
H1030 C1004 0.930 . S
H1031 C1005 0.931 . S
H1032 C1012 0.932 . S
H1033 C1013 0.930 . S
H1034 C1014 0.929 . S
H1035 C1016 0.930 . S
H1036 C1018 0.932 . S
H1037 C1019 0.929 . S
H1038 C1020 0.928 . S
H1039 C1022 0.932 . S
C1040 C1041 1.264 . S
C1040 C1045 1.479 . S
C1040 C1050 1.465 . S
C1041 C1040 1.264 . S
C1041 C1043 1.339 . S
C1041 H1068 0.931 . S
C1042 C1043 1.395 . S
C1042 C1044 1.320 . S
C1043 C1041 1.339 . S
C1043 C1042 1.395 . S
C1043 H1069 0.929 . S
C1044 C1042 1.320 . S
C1044 C1045 1.405 . S
C1044 H1070 0.930 . S
C1045 C1040 1.479 . S
C1045 C1044 1.405 . S
C1045 H1071 0.931 . S
U1046 O1047 2.454 . S
U1046 O1048 2.458 . S
U1046 C1049 2.984 . S
U1046 C1050 2.847 . S
U1046 C1063 2.882 . S
U1046 O1064 2.441 . S
U1046 O1065 2.420 . S
U1046 O1066 2.455 . S
U1046 O1067 2.449 . S
O1047 U1046 2.454 . S
O1047 C1049 1.353 . S
O1048 U1046 2.458 . S
O1048 C1049 1.286 . S
C1049 U1046 2.984 . S
C1049 O1047 1.353 . S
C1049 O1048 1.286 . S
C1049 C1051 1.363 . S
C1050 C1040 1.465 . S
C1050 U1046 2.847 . S
C1050 O1064 1.249 . S
C1050 O1065 1.202 . S
C1051 C1049 1.363 . S
C1051 C1053 1.408 . S
C1051 C1056 1.342 . S
C1052 C1053 1.310 . S
C1052 C1055 1.461 . S
C1052 H1072 0.932 . S
C1053 C1051 1.408 . S
C1053 C1052 1.310 . S
C1053 H1073 0.930 . S
C1054 C1055 1.474 . S
C1054 C1056 1.285 . S
C1054 H1074 0.929 . S
C1055 C1052 1.461 . S
C1055 C1054 1.474 . S
C1056 C1051 1.342 . S
C1056 C1054 1.285 . S
C1056 H1075 0.930 . S
C1057 C1060 1.424 . S
C1057 C1062 1.245 . S
C1057 C1063 1.428 . S
C1058 C1061 1.260 . S
C1058 C1062 1.477 . S
C1058 H1076 0.932 . S
C1059 C1060 1.384 . S
C1059 C1061 1.479 . S
C1059 H1077 0.929 . S
C1060 C1057 1.424 . S
C1060 C1059 1.384 . S
C1060 H1078 0.928 . S
C1061 C1058 1.260 . S
C1061 C1059 1.479 . S
C1062 C1057 1.245 . S
C1062 C1058 1.477 . S
C1062 H1079 0.932 . S
C1063 U1046 2.882 . S
C1063 C1057 1.428 . S
C1063 O1066 1.301 . S
C1063 O1067 1.282 . S
O1064 U1046 2.441 . S
O1064 C1050 1.249 . S
O1065 U1046 2.420 . S
O1065 C1050 1.202 . S
O1066 U1046 2.455 . S
O1066 C1063 1.301 . S
O1067 U1046 2.449 . S
O1067 C1063 1.282 . S
H1068 C1041 0.931 . S
H1069 C1043 0.929 . S
H1070 C1044 0.930 . S
H1071 C1045 0.931 . S
H1072 C1052 0.932 . S
H1073 C1053 0.930 . S
H1074 C1054 0.929 . S
H1075 C1056 0.930 . S
H1076 C1058 0.932 . S
H1077 C1059 0.929 . S
H1078 C1060 0.928 . S
H1079 C1062 0.932 . S
C1080 C1081 1.264 . S
C1080 C1085 1.479 . S
C1080 C1090 1.465 . S
C1081 C1080 1.264 . S
C1081 C1083 1.339 . S
C1081 H1108 0.931 . S
C1082 C1083 1.395 . S
C1082 C1084 1.320 . S
C1083 C1081 1.339 . S
C1083 C1082 1.395 . S
C1083 H1109 0.929 . S
C1084 C1082 1.320 . S
C1084 C1085 1.405 . S
C1084 H1110 0.930 . S
C1085 C1080 1.479 . S
C1085 C1084 1.405 . S
C1085 H1111 0.931 . S
U1086 O1087 2.454 . S
U1086 O1088 2.458 . S
U1086 C1089 2.984 . S
U1086 C1090 2.847 . S
U1086 C1103 2.882 . S
U1086 O1104 2.441 . S
U1086 O1105 2.420 . S
U1086 O1106 2.455 . S
U1086 O1107 2.449 . S
O1087 U1086 2.454 . S
O1087 C1089 1.353 . S
O1088 U1086 2.458 . S
O1088 C1089 1.286 . S
C1089 U1086 2.984 . S
C1089 O1087 1.353 . S
C1089 O1088 1.286 . S
C1089 C1091 1.363 . S
C1090 C1080 1.465 . S
C1090 U1086 2.847 . S
C1090 O1104 1.249 . S
C1090 O1105 1.202 . S
C1091 C1089 1.363 . S
C1091 C1093 1.408 . S
C1091 C1096 1.342 . S
C1092 C1093 1.310 . S
C1092 C1095 1.461 . S
C1092 H1112 0.932 . S
C1093 C1091 1.408 . S
C1093 C1092 1.310 . S
C1093 H1113 0.930 . S
C1094 C1095 1.474 . S
C1094 C1096 1.285 . S
C1094 H1114 0.929 . S
C1095 C1092 1.461 . S
C1095 C1094 1.474 . S
C1096 C1091 1.342 . S
C1096 C1094 1.285 . S
C1096 H1115 0.930 . S
C1097 C1100 1.424 . S
C1097 C1102 1.245 . S
C1097 C1103 1.428 . S
C1098 C1101 1.260 . S
C1098 C1102 1.477 . S
C1098 H1116 0.932 . S
C1099 C1100 1.384 . S
C1099 C1101 1.479 . S
C1099 H1117 0.929 . S
C1100 C1097 1.424 . S
C1100 C1099 1.384 . S
C1100 H1118 0.928 . S
C1101 C1098 1.260 . S
C1101 C1099 1.479 . S
C1102 C1097 1.245 . S
C1102 C1098 1.477 . S
C1102 H1119 0.932 . S
C1103 U1086 2.882 . S
C1103 C1097 1.428 . S
C1103 O1106 1.301 . S
C1103 O1107 1.282 . S
O1104 U1086 2.441 . S
O1104 C1090 1.249 . S
O1105 U1086 2.420 . S
O1105 C1090 1.202 . S
O1106 U1086 2.455 . S
O1106 C1103 1.301 . S
O1107 U1086 2.449 . S
O1107 C1103 1.282 . S
H1108 C1081 0.931 . S
H1109 C1083 0.929 . S
H1110 C1084 0.930 . S
H1111 C1085 0.931 . S
H1112 C1092 0.932 . S
H1113 C1093 0.930 . S
H1114 C1094 0.929 . S
H1115 C1096 0.930 . S
H1116 C1098 0.932 . S
H1117 C1099 0.929 . S
H1118 C1100 0.928 . S
H1119 C1102 0.932 . S
C1120 C1121 1.264 . S
C1120 C1125 1.479 . S
C1120 C1130 1.465 . S
C1121 C1120 1.264 . S
C1121 C1123 1.339 . S
C1121 H1148 0.931 . S
C1122 C1123 1.395 . S
C1122 C1124 1.320 . S
C1123 C1121 1.339 . S
C1123 C1122 1.395 . S
C1123 H1149 0.929 . S
C1124 C1122 1.320 . S
C1124 C1125 1.405 . S
C1124 H1150 0.930 . S
C1125 C1120 1.479 . S
C1125 C1124 1.405 . S
C1125 H1151 0.931 . S
U1126 O1127 2.454 . S
U1126 O1128 2.458 . S
U1126 C1129 2.984 . S
U1126 C1130 2.847 . S
U1126 C1143 2.882 . S
U1126 O1144 2.441 . S
U1126 O1145 2.420 . S
U1126 O1146 2.455 . S
U1126 O1147 2.449 . S
O1127 U1126 2.454 . S
O1127 C1129 1.353 . S
O1128 U1126 2.458 . S
O1128 C1129 1.286 . S
C1129 U1126 2.984 . S
C1129 O1127 1.353 . S
C1129 O1128 1.286 . S
C1129 C1131 1.363 . S
C1130 C1120 1.465 . S
C1130 U1126 2.847 . S
C1130 O1144 1.249 . S
C1130 O1145 1.202 . S
C1131 C1129 1.363 . S
C1131 C1133 1.408 . S
C1131 C1136 1.342 . S
C1132 C1133 1.310 . S
C1132 C1135 1.461 . S
C1132 H1152 0.932 . S
C1133 C1131 1.408 . S
C1133 C1132 1.310 . S
C1133 H1153 0.930 . S
C1134 C1135 1.474 . S
C1134 C1136 1.285 . S
C1134 H1154 0.929 . S
C1135 C1132 1.461 . S
C1135 C1134 1.474 . S
C1136 C1131 1.342 . S
C1136 C1134 1.285 . S
C1136 H1155 0.930 . S
C1137 C1140 1.424 . S
C1137 C1142 1.245 . S
C1137 C1143 1.428 . S
C1138 C1141 1.260 . S
C1138 C1142 1.477 . S
C1138 H1156 0.932 . S
C1139 C1140 1.384 . S
C1139 C1141 1.479 . S
C1139 H1157 0.929 . S
C1140 C1137 1.424 . S
C1140 C1139 1.384 . S
C1140 H1158 0.928 . S
C1141 C1138 1.260 . S
C1141 C1139 1.479 . S
C1142 C1137 1.245 . S
C1142 C1138 1.477 . S
C1142 H1159 0.932 . S
C1143 U1126 2.882 . S
C1143 C1137 1.428 . S
C1143 O1146 1.301 . S
C1143 O1147 1.282 . S
O1144 U1126 2.441 . S
O1144 C1130 1.249 . S
O1145 U1126 2.420 . S
O1145 C1130 1.202 . S
O1146 U1126 2.455 . S
O1146 C1143 1.301 . S
O1147 U1126 2.449 . S
O1147 C1143 1.282 . S
H1148 C1121 0.931 . S
H1149 C1123 0.929 . S
H1150 C1124 0.930 . S
H1151 C1125 0.931 . S
H1152 C1132 0.932 . S
H1153 C1133 0.930 . S
H1154 C1134 0.929 . S
H1155 C1136 0.930 . S
H1156 C1138 0.932 . S
H1157 C1139 0.929 . S
H1158 C1140 0.928 . S
H1159 C1142 0.932 . S
C1160 C1161 1.264 . S
C1160 C1165 1.479 . S
C1160 C1170 1.465 . S
C1161 C1160 1.264 . S
C1161 C1163 1.339 . S
C1161 H1188 0.931 . S
C1162 C1163 1.395 . S
C1162 C1164 1.320 . S
C1163 C1161 1.339 . S
C1163 C1162 1.395 . S
C1163 H1189 0.929 . S
C1164 C1162 1.320 . S
C1164 C1165 1.405 . S
C1164 H1190 0.930 . S
C1165 C1160 1.479 . S
C1165 C1164 1.405 . S
C1165 H1191 0.931 . S
U1166 O1167 2.454 . S
U1166 O1168 2.458 . S
U1166 C1169 2.984 . S
U1166 C1170 2.847 . S
U1166 C1183 2.882 . S
U1166 O1184 2.441 . S
U1166 O1185 2.420 . S
U1166 O1186 2.455 . S
U1166 O1187 2.449 . S
O1167 U1166 2.454 . S
O1167 C1169 1.353 . S
O1168 U1166 2.458 . S
O1168 C1169 1.286 . S
C1169 U1166 2.984 . S
C1169 O1167 1.353 . S
C1169 O1168 1.286 . S
C1169 C1171 1.363 . S
C1170 C1160 1.465 . S
C1170 U1166 2.847 . S
C1170 O1184 1.249 . S
C1170 O1185 1.202 . S
C1171 C1169 1.363 . S
C1171 C1173 1.408 . S
C1171 C1176 1.342 . S
C1172 C1173 1.310 . S
C1172 C1175 1.461 . S
C1172 H1192 0.932 . S
C1173 C1171 1.408 . S
C1173 C1172 1.310 . S
C1173 H1193 0.930 . S
C1174 C1175 1.474 . S
C1174 C1176 1.285 . S
C1174 H1194 0.929 . S
C1175 C1172 1.461 . S
C1175 C1174 1.474 . S
C1176 C1171 1.342 . S
C1176 C1174 1.285 . S
C1176 H1195 0.930 . S
C1177 C1180 1.424 . S
C1177 C1182 1.245 . S
C1177 C1183 1.428 . S
C1178 C1181 1.260 . S
C1178 C1182 1.477 . S
C1178 H1196 0.932 . S
C1179 C1180 1.384 . S
C1179 C1181 1.479 . S
C1179 H1197 0.929 . S
C1180 C1177 1.424 . S
C1180 C1179 1.384 . S
C1180 H1198 0.928 . S
C1181 C1178 1.260 . S
C1181 C1179 1.479 . S
C1182 C1177 1.245 . S
C1182 C1178 1.477 . S
C1182 H1199 0.932 . S
C1183 U1166 2.882 . S
C1183 C1177 1.428 . S
C1183 O1186 1.301 . S
C1183 O1187 1.282 . S
O1184 U1166 2.441 . S
O1184 C1170 1.249 . S
O1185 U1166 2.420 . S
O1185 C1170 1.202 . S
O1186 U1166 2.455 . S
O1186 C1183 1.301 . S
O1187 U1166 2.449 . S
O1187 C1183 1.282 . S
H1188 C1161 0.931 . S
H1189 C1163 0.929 . S
H1190 C1164 0.930 . S
H1191 C1165 0.931 . S
H1192 C1172 0.932 . S
H1193 C1173 0.930 . S
H1194 C1174 0.929 . S
H1195 C1176 0.930 . S
H1196 C1178 0.932 . S
H1197 C1179 0.929 . S
H1198 C1180 0.928 . S
H1199 C1182 0.932 . S
C1200 C1201 1.264 . S
C1200 C1205 1.479 . S
C1200 C1210 1.465 . S
C1201 C1200 1.264 . S
C1201 C1203 1.339 . S
C1201 H1228 0.931 . S
C1202 C1203 1.395 . S
C1202 C1204 1.320 . S
C1203 C1201 1.339 . S
C1203 C1202 1.395 . S
C1203 H1229 0.929 . S
C1204 C1202 1.320 . S
C1204 C1205 1.405 . S
C1204 H1230 0.930 . S
C1205 C1200 1.479 . S
C1205 C1204 1.405 . S
C1205 H1231 0.931 . S
U1206 O1207 2.454 . S
U1206 O1208 2.458 . S
U1206 C1209 2.984 . S
U1206 C1210 2.847 . S
U1206 C1223 2.882 . S
U1206 O1224 2.441 . S
U1206 O1225 2.420 . S
U1206 O1226 2.455 . S
U1206 O1227 2.449 . S
O1207 U1206 2.454 . S
O1207 C1209 1.353 . S
O1208 U1206 2.458 . S
O1208 C1209 1.286 . S
C1209 U1206 2.984 . S
C1209 O1207 1.353 . S
C1209 O1208 1.286 . S
C1209 C1211 1.363 . S
C1210 C1200 1.465 . S
C1210 U1206 2.847 . S
C1210 O1224 1.249 . S
C1210 O1225 1.202 . S
C1211 C1209 1.363 . S
C1211 C1213 1.408 . S
C1211 C1216 1.342 . S
C1212 C1213 1.310 . S
C1212 C1215 1.461 . S
C1212 H1232 0.932 . S
C1213 C1211 1.408 . S
C1213 C1212 1.310 . S
C1213 H1233 0.930 . S
C1214 C1215 1.474 . S
C1214 C1216 1.285 . S
C1214 H1234 0.929 . S
C1215 C1212 1.461 . S
C1215 C1214 1.474 . S
C1216 C1211 1.342 . S
C1216 C1214 1.285 . S
C1216 H1235 0.930 . S
C1217 C1220 1.424 . S
C1217 C1222 1.245 . S
C1217 C1223 1.428 . S
C1218 C1221 1.260 . S
C1218 C1222 1.477 . S
C1218 H1236 0.932 . S
C1219 C1220 1.384 . S
C1219 C1221 1.479 . S
C1219 H1237 0.929 . S
C1220 C1217 1.424 . S
C1220 C1219 1.384 . S
C1220 H1238 0.928 . S
C1221 C1218 1.260 . S
C1221 C1219 1.479 . S
C1222 C1217 1.245 . S
C1222 C1218 1.477 . S
C1222 H1239 0.932 . S
C1223 U1206 2.882 . S
C1223 C1217 1.428 . S
C1223 O1226 1.301 . S
C1223 O1227 1.282 . S
O1224 U1206 2.441 . S
O1224 C1210 1.249 . S
O1225 U1206 2.420 . S
O1225 C1210 1.202 . S
O1226 U1206 2.455 . S
O1226 C1223 1.301 . S
O1227 U1206 2.449 . S
O1227 C1223 1.282 . S
H1228 C1201 0.931 . S
H1229 C1203 0.929 . S
H1230 C1204 0.930 . S
H1231 C1205 0.931 . S
H1232 C1212 0.932 . S
H1233 C1213 0.930 . S
H1234 C1214 0.929 . S
H1235 C1216 0.930 . S
H1236 C1218 0.932 . S
H1237 C1219 0.929 . S
H1238 C1220 0.928 . S
H1239 C1222 0.932 . S
C1240 C1241 1.264 . S
C1240 C1245 1.479 . S
C1240 C1250 1.465 . S
C1241 C1240 1.264 . S
C1241 C1243 1.339 . S
C1241 H1268 0.931 . S
C1242 C1243 1.395 . S
C1242 C1244 1.320 . S
C1243 C1241 1.339 . S
C1243 C1242 1.395 . S
C1243 H1269 0.929 . S
C1244 C1242 1.320 . S
C1244 C1245 1.405 . S
C1244 H1270 0.930 . S
C1245 C1240 1.479 . S
C1245 C1244 1.405 . S
C1245 H1271 0.931 . S
U1246 O1247 2.454 . S
U1246 O1248 2.458 . S
U1246 C1249 2.984 . S
U1246 C1250 2.847 . S
U1246 C1263 2.882 . S
U1246 O1264 2.441 . S
U1246 O1265 2.420 . S
U1246 O1266 2.455 . S
U1246 O1267 2.449 . S
O1247 U1246 2.454 . S
O1247 C1249 1.353 . S
O1248 U1246 2.458 . S
O1248 C1249 1.286 . S
C1249 U1246 2.984 . S
C1249 O1247 1.353 . S
C1249 O1248 1.286 . S
C1249 C1251 1.363 . S
C1250 C1240 1.465 . S
C1250 U1246 2.847 . S
C1250 O1264 1.249 . S
C1250 O1265 1.202 . S
C1251 C1249 1.363 . S
C1251 C1253 1.408 . S
C1251 C1256 1.342 . S
C1252 C1253 1.310 . S
C1252 C1255 1.461 . S
C1252 H1272 0.932 . S
C1253 C1251 1.408 . S
C1253 C1252 1.310 . S
C1253 H1273 0.930 . S
C1254 C1255 1.474 . S
C1254 C1256 1.285 . S
C1254 H1274 0.929 . S
C1255 C1252 1.461 . S
C1255 C1254 1.474 . S
C1256 C1251 1.342 . S
C1256 C1254 1.285 . S
C1256 H1275 0.930 . S
C1257 C1260 1.424 . S
C1257 C1262 1.245 . S
C1257 C1263 1.428 . S
C1258 C1261 1.260 . S
C1258 C1262 1.477 . S
C1258 H1276 0.932 . S
C1259 C1260 1.384 . S
C1259 C1261 1.479 . S
C1259 H1277 0.929 . S
C1260 C1257 1.424 . S
C1260 C1259 1.384 . S
C1260 H1278 0.928 . S
C1261 C1258 1.260 . S
C1261 C1259 1.479 . S
C1262 C1257 1.245 . S
C1262 C1258 1.477 . S
C1262 H1279 0.932 . S
C1263 U1246 2.882 . S
C1263 C1257 1.428 . S
C1263 O1266 1.301 . S
C1263 O1267 1.282 . S
O1264 U1246 2.441 . S
O1264 C1250 1.249 . S
O1265 U1246 2.420 . S
O1265 C1250 1.202 . S
O1266 U1246 2.455 . S
O1266 C1263 1.301 . S
O1267 U1246 2.449 . S
O1267 C1263 1.282 . S
H1268 C1241 0.931 . S
H1269 C1243 0.929 . S
H1270 C1244 0.930 . S
H1271 C1245 0.931 . S
H1272 C1252 0.932 . S
H1273 C1253 0.930 . S
H1274 C1254 0.929 . S
H1275 C1256 0.930 . S
H1276 C1258 0.932 . S
H1277 C1259 0.929 . S
H1278 C1260 0.928 . S
H1279 C1262 0.932 . S
C1280 C1281 1.349 . S
C1280 C1282 1.327 . S
C1280 H1305 0.950 . S
C1281 C1280 1.349 . S
C1281 C1297 1.349 1_565 S
C1282 C1280 1.327 . S
C1282 C1301 1.429 . S
C1282 H1306 0.950 . S
C1283 C1300 1.574 . S
C1283 C1302 1.368 1_545 S
C1283 H1307 0.949 . S
H1284 C1288 0.949 . S
C1285 C1286 1.349 1_545 S
C1285 C1287 1.327 . S
C1285 H1308 0.950 . S
C1286 C1285 1.349 1_565 S
C1286 C1298 1.349 . S
C1287 C1285 1.327 . S
C1287 C1303 1.429 1_545 S
C1287 H1309 0.950 . S
C1288 H1284 0.949 . S
C1288 C1296 1.574 . S
C1288 C1304 1.368 . S
H1289 C1297 0.950 . S
H1290 C1295 0.950 . S
H1291 C1296 0.949 . S
H1292 C1298 0.950 . S
H1293 C1299 0.950 . S
H1294 C1300 0.949 . S
C1295 H1290 0.950 . S
C1295 C1297 1.327 . S
C1295 C1301 1.429 1_545 S
C1296 C1288 1.574 . S
C1296 H1291 0.949 . S
C1296 C1302 1.368 . S
C1297 C1281 1.349 1_545 S
C1297 H1289 0.950 . S
C1297 C1295 1.327 . S
C1298 C1286 1.349 . S
C1298 H1292 0.950 . S
C1298 C1299 1.327 . S
C1299 H1293 0.950 . S
C1299 C1298 1.327 . S
C1299 C1303 1.429 . S
C1300 C1283 1.574 . S
C1300 H1294 0.949 . S
C1300 C1304 1.368 1_545 S
C1301 C1282 1.429 . S
C1301 C1295 1.429 1_565 S
C1301 C1302 1.523 . S
C1302 C1283 1.368 1_565 S
C1302 C1296 1.368 . S
C1302 C1301 1.523 . S
C1303 C1287 1.429 1_565 S
C1303 C1299 1.429 . S
C1303 C1304 1.523 . S
C1304 C1288 1.368 . S
C1304 C1300 1.368 1_565 S
C1304 C1303 1.523 . S
H1305 C1280 0.950 . S
H1306 C1282 0.950 . S
H1307 C1283 0.949 . S
H1308 C1285 0.950 . S
H1309 C1287 0.950 . S
C1310 C1311 1.349 . S
C1310 C1312 1.327 . S
C1310 H1335 0.950 . S
C1311 C1310 1.349 . S
C1311 C1327 1.349 . S
C1312 C1310 1.327 . S
C1312 C1331 1.429 . S
C1312 H1336 0.950 . S
C1313 C1330 1.574 . S
C1313 C1332 1.368 1_565 S
C1313 H1337 0.949 . S
H1314 C1318 0.949 . S
C1315 C1316 1.349 . S
C1315 C1317 1.327 . S
C1315 H1338 0.950 . S
C1316 C1315 1.349 . S
C1316 C1328 1.349 . S
C1317 C1315 1.327 . S
C1317 C1333 1.429 . S
C1317 H1339 0.950 . S
C1318 H1314 0.949 . S
C1318 C1326 1.574 . S
C1318 C1334 1.368 1_545 S
H1319 C1327 0.950 . S
H1320 C1325 0.950 . S
H1321 C1326 0.949 . S
H1322 C1328 0.950 . S
H1323 C1329 0.950 . S
H1324 C1330 0.949 . S
C1325 H1320 0.950 . S
C1325 C1327 1.327 . S
C1325 C1331 1.429 . S
C1326 C1318 1.574 . S
C1326 H1321 0.949 . S
C1326 C1332 1.368 . S
C1327 C1311 1.349 . S
C1327 H1319 0.950 . S
C1327 C1325 1.327 . S
C1328 C1316 1.349 . S
C1328 H1322 0.950 . S
C1328 C1329 1.327 . S
C1329 H1323 0.950 . S
C1329 C1328 1.327 . S
C1329 C1333 1.429 . S
C1330 C1313 1.574 . S
C1330 H1324 0.949 . S
C1330 C1334 1.368 . S
C1331 C1312 1.429 . S
C1331 C1325 1.429 . S
C1331 C1332 1.523 . S
C1332 C1313 1.368 1_545 S
C1332 C1326 1.368 . S
C1332 C1331 1.523 . S
C1333 C1317 1.429 . S
C1333 C1329 1.429 . S
C1333 C1334 1.523 . S
C1334 C1318 1.368 1_565 S
C1334 C1330 1.368 . S
C1334 C1333 1.523 . S
H1335 C1310 0.950 . S
H1336 C1312 0.950 . S
H1337 C1313 0.949 . S
H1338 C1315 0.950 . S
H1339 C1317 0.950 . S
C1340 C1341 1.349 . S
C1340 C1342 1.327 . S
C1340 H1365 0.950 . S
C1341 C1340 1.349 . S
C1341 C1357 1.349 1_545 S
C1342 C1340 1.327 . S
C1342 C1361 1.429 . S
C1342 H1366 0.950 . S
C1343 C1360 1.574 . S
C1343 C1362 1.368 1_565 S
C1343 H1367 0.949 . S
H1344 C1348 0.949 . S
C1345 C1346 1.349 1_565 S
C1345 C1347 1.327 . S
C1345 H1368 0.950 . S
C1346 C1345 1.349 1_545 S
C1346 C1358 1.349 . S
C1347 C1345 1.327 . S
C1347 C1363 1.429 1_565 S
C1347 H1369 0.950 . S
C1348 H1344 0.949 . S
C1348 C1356 1.574 . S
C1348 C1364 1.368 . S
H1349 C1357 0.950 . S
H1350 C1355 0.950 . S
H1351 C1356 0.949 . S
H1352 C1358 0.950 . S
H1353 C1359 0.950 . S
H1354 C1360 0.949 . S
C1355 H1350 0.950 . S
C1355 C1357 1.327 . S
C1355 C1361 1.429 1_565 S
C1356 C1348 1.574 . S
C1356 H1351 0.949 . S
C1356 C1362 1.368 . S
C1357 C1341 1.349 1_565 S
C1357 H1349 0.950 . S
C1357 C1355 1.327 . S
C1358 C1346 1.349 . S
C1358 H1352 0.950 . S
C1358 C1359 1.327 . S
C1359 H1353 0.950 . S
C1359 C1358 1.327 . S
C1359 C1363 1.429 . S
C1360 C1343 1.574 . S
C1360 H1354 0.949 . S
C1360 C1364 1.368 1_565 S
C1361 C1342 1.429 . S
C1361 C1355 1.429 1_545 S
C1361 C1362 1.523 . S
C1362 C1343 1.368 1_545 S
C1362 C1356 1.368 . S
C1362 C1361 1.523 . S
C1363 C1347 1.429 1_545 S
C1363 C1359 1.429 . S
C1363 C1364 1.523 . S
C1364 C1348 1.368 . S
C1364 C1360 1.368 1_545 S
C1364 C1363 1.523 . S
H1365 C1340 0.950 . S
H1366 C1342 0.950 . S
H1367 C1343 0.949 . S
H1368 C1345 0.950 . S
H1369 C1347 0.950 . S
C1370 C1371 1.349 . S
C1370 C1372 1.327 . S
C1370 H1395 0.950 . S
C1371 C1370 1.349 . S
C1371 C1387 1.349 . S
C1372 C1370 1.327 . S
C1372 C1391 1.429 . S
C1372 H1396 0.950 . S
C1373 C1390 1.463 1_554 S
C1373 C1392 1.368 1_565 S
C1373 H1397 0.949 . S
H1374 C1378 0.949 . S
C1375 C1376 1.349 . S
C1375 C1377 1.327 . S
C1375 H1398 0.950 . S
C1376 C1375 1.349 . S
C1376 C1388 1.349 . S
C1377 C1375 1.327 . S
C1377 C1393 1.429 . S
C1377 H1399 0.950 . S
C1378 H1374 0.949 . S
C1378 C1386 1.463 1_556 S
C1378 C1394 1.368 1_545 S
H1379 C1387 0.950 . S
H1380 C1385 0.950 . S
H1381 C1386 0.976 . S
H1382 C1388 0.950 . S
H1383 C1389 0.950 . S
H1384 C1390 0.976 . S
C1385 H1380 0.950 . S
C1385 C1387 1.327 . S
C1385 C1391 1.429 . S
C1386 C1378 1.463 1_554 S
C1386 H1381 0.976 . S
C1386 C1392 1.465 . S
C1387 C1371 1.349 . S
C1387 H1379 0.950 . S
C1387 C1385 1.327 . S
C1388 C1376 1.349 . S
C1388 H1382 0.950 . S
C1388 C1389 1.327 . S
C1389 H1383 0.950 . S
C1389 C1388 1.327 . S
C1389 C1393 1.429 . S
C1390 C1373 1.463 1_556 S
C1390 H1384 0.976 . S
C1390 C1394 1.465 . S
C1391 C1372 1.429 . S
C1391 C1385 1.429 . S
C1391 C1392 1.523 . S
C1392 C1373 1.368 1_545 S
C1392 C1386 1.465 . S
C1392 C1391 1.523 . S
C1393 C1377 1.429 . S
C1393 C1389 1.429 . S
C1393 C1394 1.523 . S
C1394 C1378 1.368 1_565 S
C1394 C1390 1.465 . S
C1394 C1393 1.523 . S
H1395 C1370 0.950 . S
H1396 C1372 0.950 . S
H1397 C1373 0.949 . S
H1398 C1375 0.950 . S
H1399 C1377 0.950 . S
C1400 C1401 1.349 . S
C1400 C1402 1.327 . S
C1400 H1425 0.950 . S
C1401 C1400 1.349 . S
C1401 C1417 1.349 1_545 S
C1402 C1400 1.327 . S
C1402 C1421 1.429 . S
C1402 H1426 0.950 . S
C1403 C1420 1.574 . S
C1403 C1422 1.368 1_565 S
C1403 H1427 0.949 . S
H1404 C1408 0.949 . S
C1405 C1406 1.349 1_565 S
C1405 C1407 1.327 . S
C1405 H1428 0.950 . S
C1406 C1405 1.349 1_545 S
C1406 C1418 1.349 . S
C1407 C1405 1.327 . S
C1407 C1423 1.429 1_565 S
C1407 H1429 0.950 . S
C1408 H1404 0.949 . S
C1408 C1416 1.574 . S
C1408 C1424 1.368 . S
H1409 C1417 0.950 . S
H1410 C1415 0.950 . S
H1411 C1416 0.949 . S
H1412 C1418 0.950 . S
H1413 C1419 0.950 . S
H1414 C1420 0.949 . S
C1415 H1410 0.950 . S
C1415 C1417 1.327 . S
C1415 C1421 1.429 1_565 S
C1416 C1408 1.574 . S
C1416 H1411 0.949 . S
C1416 C1422 1.368 . S
C1417 C1401 1.349 1_565 S
C1417 H1409 0.950 . S
C1417 C1415 1.327 . S
C1418 C1406 1.349 . S
C1418 H1412 0.950 . S
C1418 C1419 1.327 . S
C1419 H1413 0.950 . S
C1419 C1418 1.327 . S
C1419 C1423 1.429 . S
C1420 C1403 1.574 . S
C1420 H1414 0.949 . S
C1420 C1424 1.368 1_565 S
C1421 C1402 1.429 . S
C1421 C1415 1.429 1_545 S
C1421 C1422 1.523 . S
C1422 C1403 1.368 1_545 S
C1422 C1416 1.368 . S
C1422 C1421 1.523 . S
C1423 C1407 1.429 1_545 S
C1423 C1419 1.429 . S
C1423 C1424 1.523 . S
C1424 C1408 1.368 . S
C1424 C1420 1.368 1_545 S
C1424 C1423 1.523 . S
H1425 C1400 0.950 . S
H1426 C1402 0.950 . S
H1427 C1403 0.949 . S
H1428 C1405 0.950 . S
H1429 C1407 0.950 . S
C1430 C1431 1.349 . S
C1430 C1432 1.327 . S
C1430 H1455 0.950 . S
C1431 C1430 1.349 . S
C1431 C1447 1.349 . S
C1432 C1430 1.327 . S
C1432 C1451 1.429 . S
C1432 H1456 0.950 . S
C1433 C1450 1.574 . S
C1433 C1452 1.368 . S
C1433 H1457 0.949 . S
H1434 C1438 0.949 . S
C1435 C1436 1.349 . S
C1435 C1437 1.327 . S
C1435 H1458 0.950 . S
C1436 C1435 1.349 . S
C1436 C1448 1.349 . S
C1437 C1435 1.327 . S
C1437 C1453 1.429 . S
C1437 H1459 0.950 . S
C1438 H1434 0.949 . S
C1438 C1446 1.574 . S
C1438 C1454 1.368 . S
H1439 C1447 0.950 . S
H1440 C1445 0.950 . S
H1441 C1446 0.949 . S
H1442 C1448 0.950 . S
H1443 C1449 0.950 . S
H1444 C1450 0.949 . S
C1445 H1440 0.950 . S
C1445 C1447 1.327 . S
C1445 C1451 1.429 . S
C1446 C1438 1.574 . S
C1446 H1441 0.949 . S
C1446 C1452 1.368 1_545 S
C1447 C1431 1.349 . S
C1447 H1439 0.950 . S
C1447 C1445 1.327 . S
C1448 C1436 1.349 . S
C1448 H1442 0.950 . S
C1448 C1449 1.327 . S
C1449 H1443 0.950 . S
C1449 C1448 1.327 . S
C1449 C1453 1.429 . S
C1450 C1433 1.574 . S
C1450 H1444 0.949 . S
C1450 C1454 1.368 1_565 S
C1451 C1432 1.429 . S
C1451 C1445 1.429 . S
C1451 C1452 1.523 . S
C1452 C1433 1.368 . S
C1452 C1446 1.368 1_565 S
C1452 C1451 1.523 . S
C1453 C1437 1.429 . S
C1453 C1449 1.429 . S
C1453 C1454 1.523 . S
C1454 C1438 1.368 . S
C1454 C1450 1.368 1_545 S
C1454 C1453 1.523 . S
H1455 C1430 0.950 . S
H1456 C1432 0.950 . S
H1457 C1433 0.949 . S
H1458 C1435 0.950 . S
H1459 C1437 0.950 . S
C1460 C1461 1.349 . S
C1460 C1462 1.327 . S
C1460 H1485 0.950 . S
C1461 C1460 1.349 . S
C1461 C1477 1.349 1_565 S
C1462 C1460 1.327 . S
C1462 C1481 1.429 . S
C1462 H1486 0.950 . S
C1463 C1480 1.574 . S
C1463 C1482 1.368 1_545 S
C1463 H1487 0.949 . S
H1464 C1468 0.949 . S
C1465 C1466 1.349 1_545 S
C1465 C1467 1.327 . S
C1465 H1488 0.950 . S
C1466 C1465 1.349 1_565 S
C1466 C1478 1.349 . S
C1467 C1465 1.327 . S
C1467 C1483 1.429 1_545 S
C1467 H1489 0.950 . S
C1468 H1464 0.949 . S
C1468 C1476 1.574 . S
C1468 C1484 1.368 . S
H1469 C1477 0.950 . S
H1470 C1475 0.950 . S
H1471 C1476 0.949 . S
H1472 C1478 0.950 . S
H1473 C1479 0.950 . S
H1474 C1480 0.949 . S
C1475 H1470 0.950 . S
C1475 C1477 1.327 . S
C1475 C1481 1.429 1_545 S
C1476 C1468 1.574 . S
C1476 H1471 0.949 . S
C1476 C1482 1.368 . S
C1477 C1461 1.349 1_545 S
C1477 H1469 0.950 . S
C1477 C1475 1.327 . S
C1478 C1466 1.349 . S
C1478 H1472 0.950 . S
C1478 C1479 1.327 . S
C1479 H1473 0.950 . S
C1479 C1478 1.327 . S
C1479 C1483 1.429 . S
C1480 C1463 1.574 . S
C1480 H1474 0.949 . S
C1480 C1484 1.368 1_545 S
C1481 C1462 1.429 . S
C1481 C1475 1.429 1_565 S
C1481 C1482 1.523 . S
C1482 C1463 1.368 1_565 S
C1482 C1476 1.368 . S
C1482 C1481 1.523 . S
C1483 C1467 1.429 1_565 S
C1483 C1479 1.429 . S
C1483 C1484 1.523 . S
C1484 C1468 1.368 . S
C1484 C1480 1.368 1_565 S
C1484 C1483 1.523 . S
H1485 C1460 0.950 . S
H1486 C1462 0.950 . S
H1487 C1463 0.949 . S
H1488 C1465 0.950 . S
H1489 C1467 0.950 . S
C1490 C1491 1.349 . S
C1490 C1492 1.327 . S
C1490 H1515 0.950 . S
C1491 C1490 1.349 . S
C1491 C1507 1.349 . S
C1492 C1490 1.327 . S
C1492 C1511 1.429 . S
C1492 H1516 0.950 . S
C1493 C1510 1.609 . S
C1493 C1512 1.368 1_565 S
C1493 H1517 0.949 . S
H1494 C1498 0.949 . S
C1495 C1496 1.349 . S
C1495 C1497 1.327 . S
C1495 H1518 0.950 . S
C1496 C1495 1.349 . S
C1496 C1508 1.349 . S
C1497 C1495 1.327 . S
C1497 C1513 1.429 . S
C1497 H1519 0.950 . S
C1498 H1494 0.949 . S
C1498 C1506 1.609 . S
C1498 C1514 1.368 1_545 S
H1499 C1507 0.950 . S
H1500 C1505 0.950 . S
H1501 C1506 0.949 . S
H1502 C1508 0.950 . S
H1503 C1509 0.950 . S
H1504 C1510 0.949 . S
C1505 H1500 0.950 . S
C1505 C1507 1.327 . S
C1505 C1511 1.429 . S
C1506 C1498 1.609 . S
C1506 H1501 0.949 . S
C1506 C1512 1.333 1_556 S
C1507 C1491 1.349 . S
C1507 H1499 0.950 . S
C1507 C1505 1.327 . S
C1508 C1496 1.349 . S
C1508 H1502 0.950 . S
C1508 C1509 1.327 . S
C1509 H1503 0.950 . S
C1509 C1508 1.327 . S
C1509 C1513 1.429 . S
C1510 C1493 1.609 . S
C1510 H1504 0.949 . S
C1510 C1514 1.333 1_554 S
C1511 C1492 1.429 . S
C1511 C1505 1.429 . S
C1511 C1512 1.523 . S
C1512 C1493 1.368 1_545 S
C1512 C1506 1.333 1_554 S
C1512 C1511 1.523 . S
C1513 C1497 1.429 . S
C1513 C1509 1.429 . S
C1513 C1514 1.523 . S
C1514 C1498 1.368 1_565 S
C1514 C1510 1.333 1_556 S
C1514 C1513 1.523 . S
H1515 C1490 0.950 . S
H1516 C1492 0.950 . S
H1517 C1493 0.949 . S
H1518 C1495 0.950 . S
H1519 C1497 0.950 . S
C1520 C1521 1.349 . S
C1520 C1522 1.327 . S
C1520 H1545 0.950 . S
C1521 C1520 1.349 . S
C1521 C1537 1.349 . S
C1522 C1520 1.327 . S
C1522 C1541 1.429 . S
C1522 H1546 0.950 . S
C1523 C1540 1.574 . S
C1523 C1542 1.368 . S
C1523 H1547 0.949 . S
H1524 C1528 0.949 . S
C1525 C1526 1.349 . S
C1525 C1527 1.327 . S
C1525 H1548 0.950 . S
C1526 C1525 1.349 . S
C1526 C1538 1.349 . S
C1527 C1525 1.327 . S
C1527 C1543 1.429 . S
C1527 H1549 0.950 . S
C1528 H1524 0.949 . S
C1528 C1536 1.574 . S
C1528 C1544 1.368 . S
H1529 C1537 0.950 . S
H1530 C1535 0.950 . S
H1531 C1536 0.949 . S
H1532 C1538 0.950 . S
H1533 C1539 0.950 . S
H1534 C1540 0.949 . S
C1535 H1530 0.950 . S
C1535 C1537 1.327 . S
C1535 C1541 1.429 . S
C1536 C1528 1.574 . S
C1536 H1531 0.949 . S
C1536 C1542 1.368 . S
C1537 C1521 1.349 . S
C1537 H1529 0.950 . S
C1537 C1535 1.327 . S
C1538 C1526 1.349 . S
C1538 H1532 0.950 . S
C1538 C1539 1.327 . S
C1539 H1533 0.950 . S
C1539 C1538 1.327 . S
C1539 C1543 1.429 . S
C1540 C1523 1.574 . S
C1540 H1534 0.949 . S
C1540 C1544 1.368 . S
C1541 C1522 1.429 . S
C1541 C1535 1.429 . S
C1541 C1542 1.523 . S
C1542 C1523 1.368 . S
C1542 C1536 1.368 . S
C1542 C1541 1.523 . S
C1543 C1527 1.429 . S
C1543 C1539 1.429 . S
C1543 C1544 1.523 . S
C1544 C1528 1.368 . S
C1544 C1540 1.368 . S
C1544 C1543 1.523 . S
H1545 C1520 0.950 . S
H1546 C1522 0.950 . S
H1547 C1523 0.949 . S
H1548 C1525 0.950 . S
H1549 C1527 0.950 . S
C1550 C1551 1.349 . S
C1550 C1552 1.327 . S
C1550 H1575 0.950 . S
C1551 C1550 1.349 . S
C1551 C1567 1.349 . S
C1552 C1550 1.327 . S
C1552 C1571 1.429 . S
C1552 H1576 0.950 . S
C1553 C1570 1.487 1_556 S
C1553 C1572 1.445 . S
C1553 H1577 0.965 . S
H1554 C1558 0.965 . S
C1555 C1556 1.349 . S
C1555 C1557 1.327 . S
C1555 H1578 0.950 . S
C1556 C1555 1.349 . S
C1556 C1568 1.349 . S
C1557 C1555 1.327 . S
C1557 C1573 1.429 . S
C1557 H1579 0.950 . S
C1558 H1554 0.965 . S
C1558 C1566 1.487 1_554 S
C1558 C1574 1.445 . S
H1559 C1567 0.950 . S
H1560 C1565 0.950 . S
H1561 C1566 0.949 . S
H1562 C1568 0.950 . S
H1563 C1569 0.950 . S
H1564 C1570 0.949 . S
C1565 H1560 0.950 . S
C1565 C1567 1.327 . S
C1565 C1571 1.429 . S
C1566 C1558 1.487 1_556 S
C1566 H1561 0.949 . S
C1566 C1572 1.368 . S
C1567 C1551 1.349 . S
C1567 H1559 0.950 . S
C1567 C1565 1.327 . S
C1568 C1556 1.349 . S
C1568 H1562 0.950 . S
C1568 C1569 1.327 . S
C1569 H1563 0.950 . S
C1569 C1568 1.327 . S
C1569 C1573 1.429 . S
C1570 C1553 1.487 1_554 S
C1570 H1564 0.949 . S
C1570 C1574 1.368 . S
C1571 C1552 1.429 . S
C1571 C1565 1.429 . S
C1571 C1572 1.523 . S
C1572 C1553 1.445 . S
C1572 C1566 1.368 . S
C1572 C1571 1.523 . S
C1573 C1557 1.429 . S
C1573 C1569 1.429 . S
C1573 C1574 1.523 . S
C1574 C1558 1.445 . S
C1574 C1570 1.368 . S
C1574 C1573 1.523 . S
H1575 C1550 0.950 . S
H1576 C1552 0.950 . S
H1577 C1553 0.965 . S
H1578 C1555 0.950 . S
H1579 C1557 0.950 . S
C1580 C1581 1.349 . S
C1580 C1582 1.327 . S
C1580 H1605 0.950 . S
C1581 C1580 1.349 . S
C1581 C1597 1.349 . S
C1582 C1580 1.327 . S
C1582 C1601 1.429 . S
C1582 H1606 0.950 . S
C1583 C1600 1.574 . S
C1583 C1602 1.368 . S
C1583 H1607 0.949 . S
H1584 C1588 0.949 . S
C1585 C1586 1.349 . S
C1585 C1587 1.327 . S
C1585 H1608 0.950 . S
C1586 C1585 1.349 . S
C1586 C1598 1.349 . S
C1587 C1585 1.327 . S
C1587 C1603 1.429 . S
C1587 H1609 0.950 . S
C1588 H1584 0.949 . S
C1588 C1596 1.574 . S
C1588 C1604 1.368 . S
H1589 C1597 0.950 . S
H1590 C1595 0.950 . S
H1591 C1596 0.949 . S
H1592 C1598 0.950 . S
H1593 C1599 0.950 . S
H1594 C1600 0.949 . S
C1595 H1590 0.950 . S
C1595 C1597 1.327 . S
C1595 C1601 1.429 . S
C1596 C1588 1.574 . S
C1596 H1591 0.949 . S
C1596 C1602 1.368 . S
C1597 C1581 1.349 . S
C1597 H1589 0.950 . S
C1597 C1595 1.327 . S
C1598 C1586 1.349 . S
C1598 H1592 0.950 . S
C1598 C1599 1.327 . S
C1599 H1593 0.950 . S
C1599 C1598 1.327 . S
C1599 C1603 1.429 . S
C1600 C1583 1.574 . S
C1600 H1594 0.949 . S
C1600 C1604 1.368 . S
C1601 C1582 1.429 . S
C1601 C1595 1.429 . S
C1601 C1602 1.523 . S
C1602 C1583 1.368 . S
C1602 C1596 1.368 . S
C1602 C1601 1.523 . S
C1603 C1587 1.429 . S
C1603 C1599 1.429 . S
C1603 C1604 1.523 . S
C1604 C1588 1.368 . S
C1604 C1600 1.368 . S
C1604 C1603 1.523 . S
H1605 C1580 0.950 . S
H1606 C1582 0.950 . S
H1607 C1583 0.949 . S
H1608 C1585 0.950 . S
H1609 C1587 0.950 . S
C1610 C1611 1.349 . S
C1610 C1612 1.327 . S
C1610 H1635 0.950 . S
C1611 C1610 1.349 . S
C1611 C1627 1.349 . S
C1612 C1610 1.327 . S
C1612 C1631 1.429 . S
C1612 H1636 0.950 . S
C1613 C1630 1.574 . S
C1613 C1632 1.368 . S
C1613 H1637 0.949 . S
H1614 C1618 0.949 . S
C1615 C1616 1.349 . S
C1615 C1617 1.327 . S
C1615 H1638 0.950 . S
C1616 C1615 1.349 . S
C1616 C1628 1.349 . S
C1617 C1615 1.327 . S
C1617 C1633 1.429 . S
C1617 H1639 0.950 . S
C1618 H1614 0.949 . S
C1618 C1626 1.574 . S
C1618 C1634 1.368 . S
H1619 C1627 0.950 . S
H1620 C1625 0.950 . S
H1621 C1626 0.949 . S
H1622 C1628 0.950 . S
H1623 C1629 0.950 . S
H1624 C1630 0.949 . S
C1625 H1620 0.950 . S
C1625 C1627 1.327 . S
C1625 C1631 1.429 . S
C1626 C1618 1.574 . S
C1626 H1621 0.949 . S
C1626 C1632 1.368 . S
C1627 C1611 1.349 . S
C1627 H1619 0.950 . S
C1627 C1625 1.327 . S
C1628 C1616 1.349 . S
C1628 H1622 0.950 . S
C1628 C1629 1.327 . S
C1629 H1623 0.950 . S
C1629 C1628 1.327 . S
C1629 C1633 1.429 . S
C1630 C1613 1.574 . S
C1630 H1624 0.949 . S
C1630 C1634 1.368 . S
C1631 C1612 1.429 . S
C1631 C1625 1.429 . S
C1631 C1632 1.523 . S
C1632 C1613 1.368 . S
C1632 C1626 1.368 . S
C1632 C1631 1.523 . S
C1633 C1617 1.429 . S
C1633 C1629 1.429 . S
C1633 C1634 1.523 . S
C1634 C1618 1.368 . S
C1634 C1630 1.368 . S
C1634 C1633 1.523 . S
H1635 C1610 0.950 . S
H1636 C1612 0.950 . S
H1637 C1613 0.949 . S
H1638 C1615 0.950 . S
H1639 C1617 0.950 . S
C1640 C1641 1.349 . S
C1640 C1642 1.327 . S
C1640 H1665 0.950 . S
C1641 C1640 1.349 . S
C1641 C1657 1.349 . S
C1642 C1640 1.327 . S
C1642 C1661 1.429 . S
C1642 H1666 0.950 . S
C1643 C1660 1.574 . S
C1643 C1662 1.368 . S
C1643 H1667 0.949 . S
H1644 C1648 0.949 . S
C1645 C1646 1.349 . S
C1645 C1647 1.327 . S
C1645 H1668 0.950 . S
C1646 C1645 1.349 . S
C1646 C1658 1.349 . S
C1647 C1645 1.327 . S
C1647 C1663 1.429 . S
C1647 H1669 0.950 . S
C1648 H1644 0.949 . S
C1648 C1656 1.574 . S
C1648 C1664 1.368 . S
H1649 C1657 0.950 . S
H1650 C1655 0.950 . S
H1651 C1656 0.949 . S
H1652 C1658 0.950 . S
H1653 C1659 0.950 . S
H1654 C1660 0.949 . S
C1655 H1650 0.950 . S
C1655 C1657 1.327 . S
C1655 C1661 1.429 . S
C1656 C1648 1.574 . S
C1656 H1651 0.949 . S
C1656 C1662 1.368 . S
C1657 C1641 1.349 . S
C1657 H1649 0.950 . S
C1657 C1655 1.327 . S
C1658 C1646 1.349 . S
C1658 H1652 0.950 . S
C1658 C1659 1.327 . S
C1659 H1653 0.950 . S
C1659 C1658 1.327 . S
C1659 C1663 1.429 . S
C1660 C1643 1.574 . S
C1660 H1654 0.949 . S
C1660 C1664 1.368 . S
C1661 C1642 1.429 . S
C1661 C1655 1.429 . S
C1661 C1662 1.523 . S
C1662 C1643 1.368 . S
C1662 C1656 1.368 . S
C1662 C1661 1.523 . S
C1663 C1647 1.429 . S
C1663 C1659 1.429 . S
C1663 C1664 1.523 . S
C1664 C1648 1.368 . S
C1664 C1660 1.368 . S
C1664 C1663 1.523 . S
H1665 C1640 0.950 . S
H1666 C1642 0.950 . S
H1667 C1643 0.949 . S
H1668 C1645 0.950 . S
H1669 C1647 0.950 . S
C1670 C1671 1.349 . S
C1670 C1672 1.327 . S
C1670 H1695 0.950 . S
C1671 C1670 1.349 . S
C1671 C1687 1.349 . S
C1672 C1670 1.327 . S
C1672 C1691 1.429 . S
C1672 H1696 0.950 . S
C1673 C1690 1.574 1_556 S
C1673 C1692 1.368 . S
C1673 H1697 0.949 . S
H1674 C1678 0.949 . S
C1675 C1676 1.349 . S
C1675 C1677 1.327 . S
C1675 H1698 0.950 . S
C1676 C1675 1.349 . S
C1676 C1688 1.349 . S
C1677 C1675 1.327 . S
C1677 C1693 1.429 . S
C1677 H1699 0.950 . S
C1678 H1674 0.949 . S
C1678 C1686 1.574 1_554 S
C1678 C1694 1.368 . S
H1679 C1687 0.950 . S
H1680 C1685 0.950 . S
H1681 C1686 0.949 . S
H1682 C1688 0.950 . S
H1683 C1689 0.950 . S
H1684 C1690 0.949 . S
C1685 H1680 0.950 . S
C1685 C1687 1.327 . S
C1685 C1691 1.429 . S
C1686 C1678 1.574 1_556 S
C1686 H1681 0.949 . S
C1686 C1692 1.368 . S
C1687 C1671 1.349 . S
C1687 H1679 0.950 . S
C1687 C1685 1.327 . S
C1688 C1676 1.349 . S
C1688 H1682 0.950 . S
C1688 C1689 1.327 . S
C1689 H1683 0.950 . S
C1689 C1688 1.327 . S
C1689 C1693 1.429 . S
C1690 C1673 1.574 1_554 S
C1690 H1684 0.949 . S
C1690 C1694 1.368 . S
C1691 C1672 1.429 . S
C1691 C1685 1.429 . S
C1691 C1692 1.523 . S
C1692 C1673 1.368 . S
C1692 C1686 1.368 . S
C1692 C1691 1.523 . S
C1693 C1677 1.429 . S
C1693 C1689 1.429 . S
C1693 C1694 1.523 . S
C1694 C1678 1.368 . S
C1694 C1690 1.368 . S
C1694 C1693 1.523 . S
H1695 C1670 0.950 . S
H1696 C1672 0.950 . S
H1697 C1673 0.949 . S
H1698 C1675 0.950 . S
H1699 C1677 0.950 . S
C1700 C1701 1.349 . S
C1700 C1702 1.327 . S
C1700 H1725 0.950 . S
C1701 C1700 1.349 . S
C1701 C1717 1.349 . S
C1702 C1700 1.327 . S
C1702 C1721 1.429 . S
C1702 H1726 0.950 . S
C1703 C1720 1.574 . S
C1703 C1722 1.368 . S
C1703 H1727 0.949 . S
H1704 C1708 0.949 . S
C1705 C1706 1.349 . S
C1705 C1707 1.327 . S
C1705 H1728 0.950 . S
C1706 C1705 1.349 . S
C1706 C1718 1.349 . S
C1707 C1705 1.327 . S
C1707 C1723 1.429 . S
C1707 H1729 0.950 . S
C1708 H1704 0.949 . S
C1708 C1716 1.574 . S
C1708 C1724 1.368 . S
H1709 C1717 0.950 . S
H1710 C1715 0.950 . S
H1711 C1716 0.949 . S
H1712 C1718 0.950 . S
H1713 C1719 0.950 . S
H1714 C1720 0.949 . S
C1715 H1710 0.950 . S
C1715 C1717 1.327 . S
C1715 C1721 1.429 . S
C1716 C1708 1.574 . S
C1716 H1711 0.949 . S
C1716 C1722 1.368 . S
C1717 C1701 1.349 . S
C1717 H1709 0.950 . S
C1717 C1715 1.327 . S
C1718 C1706 1.349 . S
C1718 H1712 0.950 . S
C1718 C1719 1.327 . S
C1719 H1713 0.950 . S
C1719 C1718 1.327 . S
C1719 C1723 1.429 . S
C1720 C1703 1.574 . S
C1720 H1714 0.949 . S
C1720 C1724 1.368 . S
C1721 C1702 1.429 . S
C1721 C1715 1.429 . S
C1721 C1722 1.523 . S
C1722 C1703 1.368 . S
C1722 C1716 1.368 . S
C1722 C1721 1.523 . S
C1723 C1707 1.429 . S
C1723 C1719 1.429 . S
C1723 C1724 1.523 . S
C1724 C1708 1.368 . S
C1724 C1720 1.368 . S
C1724 C1723 1.523 . S
H1725 C1700 0.950 . S
H1726 C1702 0.950 . S
H1727 C1703 0.949 . S
H1728 C1705 0.950 . S
H1729 C1707 0.950 . S
C1730 C1731 1.349 . S
C1730 C1732 1.327 . S
C1730 H1755 0.950 . S
C1731 C1730 1.349 . S
C1731 C1747 1.349 . S
C1732 C1730 1.327 . S
C1732 C1751 1.429 . S
C1732 H1756 0.950 . S
C1733 C1750 1.574 . S
C1733 C1752 1.368 . S
C1733 H1757 0.949 . S
H1734 C1738 0.949 . S
C1735 C1736 1.349 . S
C1735 C1737 1.327 . S
C1735 H1758 0.950 . S
C1736 C1735 1.349 . S
C1736 C1748 1.349 . S
C1737 C1735 1.327 . S
C1737 C1753 1.429 . S
C1737 H1759 0.950 . S
C1738 H1734 0.949 . S
C1738 C1746 1.574 . S
C1738 C1754 1.368 . S
H1739 C1747 0.950 . S
H1740 C1745 0.950 . S
H1741 C1746 0.949 . S
H1742 C1748 0.950 . S
H1743 C1749 0.950 . S
H1744 C1750 0.949 . S
C1745 H1740 0.950 . S
C1745 C1747 1.327 . S
C1745 C1751 1.429 . S
C1746 C1738 1.574 . S
C1746 H1741 0.949 . S
C1746 C1752 1.368 . S
C1747 C1731 1.349 . S
C1747 H1739 0.950 . S
C1747 C1745 1.327 . S
C1748 C1736 1.349 . S
C1748 H1742 0.950 . S
C1748 C1749 1.327 . S
C1749 H1743 0.950 . S
C1749 C1748 1.327 . S
C1749 C1753 1.429 . S
C1750 C1733 1.574 . S
C1750 H1744 0.949 . S
C1750 C1754 1.368 . S
C1751 C1732 1.429 . S
C1751 C1745 1.429 . S
C1751 C1752 1.523 . S
C1752 C1733 1.368 . S
C1752 C1746 1.368 . S
C1752 C1751 1.523 . S
C1753 C1737 1.429 . S
C1753 C1749 1.429 . S
C1753 C1754 1.523 . S
C1754 C1738 1.368 . S
C1754 C1750 1.368 . S
C1754 C1753 1.523 . S
H1755 C1730 0.950 . S
H1756 C1732 0.950 . S
H1757 C1733 0.949 . S
H1758 C1735 0.950 . S
H1759 C1737 0.950 . S
C1760 C1761 1.349 . S
C1760 C1762 1.327 . S
C1760 H1785 0.950 . S
C1761 C1760 1.349 . S
C1761 C1777 1.349 . S
C1762 C1760 1.327 . S
C1762 C1781 1.429 . S
C1762 H1786 0.950 . S
C1763 C1780 1.574 . S
C1763 C1782 1.368 . S
C1763 H1787 0.949 . S
H1764 C1768 0.949 . S
C1765 C1766 1.349 . S
C1765 C1767 1.327 . S
C1765 H1788 0.950 . S
C1766 C1765 1.349 . S
C1766 C1778 1.349 . S
C1767 C1765 1.327 . S
C1767 C1783 1.429 . S
C1767 H1789 0.950 . S
C1768 H1764 0.949 . S
C1768 C1776 1.574 . S
C1768 C1784 1.368 . S
H1769 C1777 0.950 . S
H1770 C1775 0.950 . S
H1771 C1776 0.949 . S
H1772 C1778 0.950 . S
H1773 C1779 0.950 . S
H1774 C1780 0.949 . S
C1775 H1770 0.950 . S
C1775 C1777 1.327 . S
C1775 C1781 1.429 . S
C1776 C1768 1.574 . S
C1776 H1771 0.949 . S
C1776 C1782 1.368 . S
C1777 C1761 1.349 . S
C1777 H1769 0.950 . S
C1777 C1775 1.327 . S
C1778 C1766 1.349 . S
C1778 H1772 0.950 . S
C1778 C1779 1.327 . S
C1779 H1773 0.950 . S
C1779 C1778 1.327 . S
C1779 C1783 1.429 . S
C1780 C1763 1.574 . S
C1780 H1774 0.949 . S
C1780 C1784 1.368 . S
C1781 C1762 1.429 . S
C1781 C1775 1.429 . S
C1781 C1782 1.523 . S
C1782 C1763 1.368 . S
C1782 C1776 1.368 . S
C1782 C1781 1.523 . S
C1783 C1767 1.429 . S
C1783 C1779 1.429 . S
C1783 C1784 1.523 . S
C1784 C1768 1.368 . S
C1784 C1780 1.368 . S
C1784 C1783 1.523 . S
H1785 C1760 0.950 . S
H1786 C1762 0.950 . S
H1787 C1763 0.949 . S
H1788 C1765 0.950 . S
H1789 C1767 0.950 . S
C1790 C1791 1.349 . S
C1790 C1792 1.327 . S
C1790 H1815 0.950 . S
C1791 C1790 1.349 . S
C1791 C1807 1.349 . S
C1792 C1790 1.327 . S
C1792 C1811 1.429 . S
C1792 H1816 0.950 . S
C1793 C1810 1.574 . S
C1793 C1812 1.368 . S
C1793 H1817 0.949 . S
H1794 C1798 0.949 . S
C1795 C1796 1.349 . S
C1795 C1797 1.327 . S
C1795 H1818 0.950 . S
C1796 C1795 1.349 . S
C1796 C1808 1.349 . S
C1797 C1795 1.327 . S
C1797 C1813 1.429 . S
C1797 H1819 0.950 . S
C1798 H1794 0.949 . S
C1798 C1806 1.574 . S
C1798 C1814 1.368 . S
H1799 C1807 0.950 . S
H1800 C1805 0.950 . S
H1801 C1806 0.949 . S
H1802 C1808 0.935 1_545 S
H1803 C1809 0.950 . S
H1804 C1810 0.949 . S
C1805 H1800 0.950 . S
C1805 C1807 1.327 . S
C1805 C1811 1.429 . S
C1806 C1798 1.574 . S
C1806 H1801 0.949 . S
C1806 C1812 1.368 . S
C1807 C1791 1.349 . S
C1807 H1799 0.950 . S
C1807 C1805 1.327 . S
C1808 C1796 1.349 . S
C1808 H1802 0.935 1_565 S
C1808 C1809 1.327 . S
C1809 H1803 0.950 . S
C1809 C1808 1.327 . S
C1809 C1813 1.429 . S
C1810 C1793 1.574 . S
C1810 H1804 0.949 . S
C1810 C1814 1.368 . S
C1811 C1792 1.429 . S
C1811 C1805 1.429 . S
C1811 C1812 1.523 . S
C1812 C1793 1.368 . S
C1812 C1806 1.368 . S
C1812 C1811 1.523 . S
C1813 C1797 1.429 . S
C1813 C1809 1.429 . S
C1813 C1814 1.523 . S
C1814 C1798 1.368 . S
C1814 C1810 1.368 . S
C1814 C1813 1.523 . S
H1815 C1790 0.950 . S
H1816 C1792 0.950 . S
H1817 C1793 0.949 . S
H1818 C1795 0.950 . S
H1819 C1797 0.950 . S
C1820 C1821 1.349 . S
C1820 C1822 1.327 . S
C1820 H1845 0.950 . S
C1821 C1820 1.349 . S
C1821 C1837 1.349 . S
C1822 C1820 1.327 . S
C1822 C1841 1.429 . S
C1822 H1846 0.950 . S
C1823 C1840 1.574 . S
C1823 C1842 1.368 . S
C1823 H1847 0.949 . S
H1824 C1828 0.949 . S
C1825 C1826 1.349 . S
C1825 C1827 1.327 . S
C1825 H1848 0.950 . S
C1826 C1825 1.349 . S
C1826 C1838 1.349 . S
C1827 C1825 1.327 . S
C1827 C1843 1.429 . S
C1827 H1849 0.950 . S
C1828 H1824 0.949 . S
C1828 C1836 1.574 . S
C1828 C1844 1.368 . S
H1829 C1837 0.950 . S
H1830 C1835 0.950 . S
H1831 C1836 0.949 . S
H1832 C1838 0.986 . S
H1833 C1839 0.950 . S
H1834 C1840 0.949 . S
C1835 H1830 0.950 . S
C1835 C1837 1.327 . S
C1835 C1841 1.429 . S
C1836 C1828 1.574 . S
C1836 H1831 0.949 . S
C1836 C1842 1.368 . S
C1837 C1821 1.349 . S
C1837 H1829 0.950 . S
C1837 C1835 1.327 . S
C1838 C1826 1.349 . S
C1838 H1832 0.986 . S
C1838 C1839 1.327 . S
C1839 H1833 0.950 . S
C1839 C1838 1.327 . S
C1839 C1843 1.429 . S
C1840 C1823 1.574 . S
C1840 H1834 0.949 . S
C1840 C1844 1.368 . S
C1841 C1822 1.429 . S
C1841 C1835 1.429 . S
C1841 C1842 1.523 . S
C1842 C1823 1.368 . S
C1842 C1836 1.368 . S
C1842 C1841 1.523 . S
C1843 C1827 1.429 . S
C1843 C1839 1.429 . S
C1843 C1844 1.523 . S
C1844 C1828 1.368 . S
C1844 C1840 1.368 . S
C1844 C1843 1.523 . S
H1845 C1820 0.950 . S
H1846 C1822 0.950 . S
H1847 C1823 0.949 . S
H1848 C1825 0.950 . S
H1849 C1827 0.950 . S
C1850 C1851 1.349 . S
C1850 C1852 1.327 . S
C1850 H1875 0.950 . S
C1851 C1850 1.349 . S
C1851 C1867 1.349 . S
C1852 C1850 1.327 . S
C1852 C1871 1.429 . S
C1852 H1876 0.950 . S
C1853 C1870 1.574 . S
C1853 C1872 1.368 . S
C1853 H1877 0.949 . S
H1854 C1858 0.949 . S
C1855 C1856 1.349 . S
C1855 C1857 1.327 . S
C1855 H1878 0.942 1_545 S
C1856 C1855 1.349 . S
C1856 C1868 1.349 . S
C1857 C1855 1.327 . S
C1857 C1873 1.429 . S
C1857 H1879 0.950 . S
C1858 H1854 0.949 . S
C1858 C1866 1.574 . S
C1858 C1874 1.368 . S
H1859 C1867 0.950 . S
H1860 C1865 0.950 . S
H1861 C1866 0.949 . S
H1862 C1868 0.950 . S
H1863 C1869 0.950 . S
H1864 C1870 0.949 . S
C1865 H1860 0.950 . S
C1865 C1867 1.327 . S
C1865 C1871 1.429 . S
C1866 C1858 1.574 . S
C1866 H1861 0.949 . S
C1866 C1872 1.368 . S
C1867 C1851 1.349 . S
C1867 H1859 0.950 . S
C1867 C1865 1.327 . S
C1868 C1856 1.349 . S
C1868 H1862 0.950 . S
C1868 C1869 1.327 . S
C1869 H1863 0.950 . S
C1869 C1868 1.327 . S
C1869 C1873 1.429 . S
C1870 C1853 1.574 . S
C1870 H1864 0.949 . S
C1870 C1874 1.368 . S
C1871 C1852 1.429 . S
C1871 C1865 1.429 . S
C1871 C1872 1.523 . S
C1872 C1853 1.368 . S
C1872 C1866 1.368 . S
C1872 C1871 1.523 . S
C1873 C1857 1.429 . S
C1873 C1869 1.429 . S
C1873 C1874 1.523 . S
C1874 C1858 1.368 . S
C1874 C1870 1.368 . S
C1874 C1873 1.523 . S
H1875 C1850 0.950 . S
H1876 C1852 0.950 . S
H1877 C1853 0.949 . S
H1878 C1855 0.942 1_565 S
H1879 C1857 0.950 . S
C1880 C1881 1.349 . S
C1880 C1882 1.327 . S
C1880 H1905 0.950 . S
C1881 C1880 1.349 . S
C1881 C1897 1.349 . S
C1882 C1880 1.327 . S
C1882 C1901 1.429 . S
C1882 H1906 0.950 . S
C1883 C1900 1.574 . S
C1883 C1902 1.368 . S
C1883 H1907 0.949 . S
H1884 C1888 0.949 . S
C1885 C1886 1.349 . S
C1885 C1887 1.327 . S
C1885 H1908 0.950 . S
C1886 C1885 1.349 . S
C1886 C1898 1.349 . S
C1887 C1885 1.327 . S
C1887 C1903 1.429 . S
C1887 H1909 0.950 . S
C1888 H1884 0.949 . S
C1888 C1896 1.574 . S
C1888 C1904 1.368 . S
H1889 C1897 0.950 . S
H1890 C1895 0.950 . S
H1891 C1896 0.949 . S
H1892 C1898 0.922 1_545 S
H1893 C1899 0.950 . S
H1894 C1900 0.949 . S
C1895 H1890 0.950 . S
C1895 C1897 1.327 . S
C1895 C1901 1.429 . S
C1896 C1888 1.574 . S
C1896 H1891 0.949 . S
C1896 C1902 1.368 . S
C1897 C1881 1.349 . S
C1897 H1889 0.950 . S
C1897 C1895 1.327 . S
C1898 C1886 1.349 . S
C1898 H1892 0.922 1_565 S
C1898 C1899 1.327 . S
C1899 H1893 0.950 . S
C1899 C1898 1.327 . S
C1899 C1903 1.429 . S
C1900 C1883 1.574 . S
C1900 H1894 0.949 . S
C1900 C1904 1.368 . S
C1901 C1882 1.429 . S
C1901 C1895 1.429 . S
C1901 C1902 1.523 . S
C1902 C1883 1.368 . S
C1902 C1896 1.368 . S
C1902 C1901 1.523 . S
C1903 C1887 1.429 . S
C1903 C1899 1.429 . S
C1903 C1904 1.523 . S
C1904 C1888 1.368 . S
C1904 C1900 1.368 . S
C1904 C1903 1.523 . S
H1905 C1880 0.950 . S
H1906 C1882 0.950 . S
H1907 C1883 0.949 . S
H1908 C1885 0.950 . S
H1909 C1887 0.950 . S
C1910 C1911 1.349 . S
C1910 C1912 1.327 . S
C1910 H1935 0.950 . S
C1911 C1910 1.349 . S
C1911 C1927 1.349 . S
C1912 C1910 1.327 . S
C1912 C1931 1.429 . S
C1912 H1936 0.950 . S
C1913 C1930 1.574 . S
C1913 C1932 1.368 . S
C1913 H1937 0.949 . S
H1914 C1918 0.949 . S
C1915 C1916 1.349 . S
C1915 C1917 1.327 . S
C1915 H1938 0.950 . S
C1916 C1915 1.349 . S
C1916 C1928 1.349 . S
C1917 C1915 1.327 . S
C1917 C1933 1.429 . S
C1917 H1939 0.950 . S
C1918 H1914 0.949 . S
C1918 C1926 1.574 . S
C1918 C1934 1.368 . S
H1919 C1927 0.950 . S
H1920 C1925 0.950 . S
H1921 C1926 0.949 . S
H1922 C1928 0.950 . S
H1923 C1929 0.950 . S
H1924 C1930 0.949 . S
C1925 H1920 0.950 . S
C1925 C1927 1.327 . S
C1925 C1931 1.429 . S
C1926 C1918 1.574 . S
C1926 H1921 0.949 . S
C1926 C1932 1.368 . S
C1927 C1911 1.349 . S
C1927 H1919 0.950 . S
C1927 C1925 1.327 . S
C1928 C1916 1.349 . S
C1928 H1922 0.950 . S
C1928 C1929 1.327 . S
C1929 H1923 0.950 . S
C1929 C1928 1.327 . S
C1929 C1933 1.429 . S
C1930 C1913 1.574 . S
C1930 H1924 0.949 . S
C1930 C1934 1.368 . S
C1931 C1912 1.429 . S
C1931 C1925 1.429 . S
C1931 C1932 1.523 . S
C1932 C1913 1.368 . S
C1932 C1926 1.368 . S
C1932 C1931 1.523 . S
C1933 C1917 1.429 . S
C1933 C1929 1.429 . S
C1933 C1934 1.523 . S
C1934 C1918 1.368 . S
C1934 C1930 1.368 . S
C1934 C1933 1.523 . S
H1935 C1910 0.950 . S
H1936 C1912 0.950 . S
H1937 C1913 0.949 . S
H1938 C1915 0.950 . S
H1939 C1917 0.950 . S
C1940 C1941 1.349 . S
C1940 C1942 1.327 . S
C1940 H1965 0.950 . S
C1941 C1940 1.349 . S
C1941 C1957 1.349 . S
C1942 C1940 1.327 . S
C1942 C1961 1.429 . S
C1942 H1966 0.950 . S
C1943 C1960 1.574 . S
C1943 C1962 1.368 . S
C1943 H1967 0.949 . S
H1944 C1948 0.949 . S
C1945 C1946 1.349 . S
C1945 C1947 1.327 . S
C1945 H1968 0.921 1_545 S
C1946 C1945 1.349 . S
C1946 C1958 1.349 . S
C1947 C1945 1.327 . S
C1947 C1963 1.429 . S
C1947 H1969 0.950 . S
C1948 H1944 0.949 . S
C1948 C1956 1.574 . S
C1948 C1964 1.368 . S
H1949 C1957 0.950 . S
H1950 C1955 0.950 . S
H1951 C1956 0.949 . S
H1952 C1958 0.950 . S
H1953 C1959 0.950 . S
H1954 C1960 0.949 . S
C1955 H1950 0.950 . S
C1955 C1957 1.327 . S
C1955 C1961 1.429 . S
C1956 C1948 1.574 . S
C1956 H1951 0.949 . S
C1956 C1962 1.368 . S
C1957 C1941 1.349 . S
C1957 H1949 0.950 . S
C1957 C1955 1.327 . S
C1958 C1946 1.349 . S
C1958 H1952 0.950 . S
C1958 C1959 1.327 . S
C1959 H1953 0.950 . S
C1959 C1958 1.327 . S
C1959 C1963 1.429 . S
C1960 C1943 1.574 . S
C1960 H1954 0.949 . S
C1960 C1964 1.368 . S
C1961 C1942 1.429 . S
C1961 C1955 1.429 . S
C1961 C1962 1.523 . S
C1962 C1943 1.368 . S
C1962 C1956 1.368 . S
C1962 C1961 1.523 . S
C1963 C1947 1.429 . S
C1963 C1959 1.429 . S
C1963 C1964 1.523 . S
C1964 C1948 1.368 . S
C1964 C1960 1.368 . S
C1964 C1963 1.523 . S
H1965 C1940 0.950 . S
H1966 C1942 0.950 . S
H1967 C1943 0.949 . S
H1968 C1945 0.921 1_565 S
H1969 C1947 0.950 . S
C1970 C1971 1.349 . S
C1970 C1972 1.327 . S
C1970 H1995 0.950 . S
C1971 C1970 1.349 . S
C1971 C1987 1.349 . S
C1972 C1970 1.327 . S
C1972 C1991 1.429 . S
C1972 H1996 0.950 . S
C1973 C1990 1.574 . S
C1973 C1992 1.368 . S
C1973 H1997 0.949 . S
H1974 C1978 0.949 . S
C1975 C1976 1.349 . S
C1975 C1977 1.327 . S
C1975 H1998 0.941 1_565 S
C1976 C1975 1.349 . S
C1976 C1988 1.349 . S
C1977 C1975 1.327 . S
C1977 C1993 1.429 . S
C1977 H1999 0.950 . S
C1978 H1974 0.949 . S
C1978 C1986 1.574 . S
C1978 C1994 1.368 . S
H1979 C1987 0.950 . S
H1980 C1985 0.950 . S
H1981 C1986 0.949 . S
H1982 C1988 0.950 . S
H1983 C1989 0.950 . S
H1984 C1990 0.949 . S
C1985 H1980 0.950 . S
C1985 C1987 1.327 . S
C1985 C1991 1.429 . S
C1986 C1978 1.574 . S
C1986 H1981 0.949 . S
C1986 C1992 1.368 . S
C1987 C1971 1.349 . S
C1987 H1979 0.950 . S
C1987 C1985 1.327 . S
C1988 C1976 1.349 . S
C1988 H1982 0.950 . S
C1988 C1989 1.327 . S
C1989 H1983 0.950 . S
C1989 C1988 1.327 . S
C1989 C1993 1.429 . S
C1990 C1973 1.574 . S
C1990 H1984 0.949 . S
C1990 C1994 1.368 . S
C1991 C1972 1.429 . S
C1991 C1985 1.429 . S
C1991 C1992 1.523 . S
C1992 C1973 1.368 . S
C1992 C1986 1.368 . S
C1992 C1991 1.523 . S
C1993 C1977 1.429 . S
C1993 C1989 1.429 . S
C1993 C1994 1.523 . S
C1994 C1978 1.368 . S
C1994 C1990 1.368 . S
C1994 C1993 1.523 . S
H1995 C1970 0.950 . S
H1996 C1972 0.950 . S
H1997 C1973 0.949 . S
H1998 C1975 0.941 1_545 S
H1999 C1977 0.950 . S
C2000 C2001 1.349 . S
C2000 C2002 1.327 . S
C2000 H2025 0.950 . S
C2001 C2000 1.349 . S
C2001 C2017 1.349 . S
C2002 C2000 1.327 . S
C2002 C2021 1.429 . S
C2002 H2026 0.950 . S
C2003 C2020 1.574 . S
C2003 C2022 1.368 . S
C2003 H2027 0.949 . S
H2004 C2008 0.949 . S
C2005 C2006 1.349 . S
C2005 C2007 1.327 . S
C2005 H2028 0.950 . S
C2006 C2005 1.349 . S
C2006 C2018 1.349 . S
C2007 C2005 1.327 . S
C2007 C2023 1.429 . S
C2007 H2029 0.950 . S
C2008 H2004 0.949 . S
C2008 C2016 1.574 . S
C2008 C2024 1.368 . S
H2009 C2017 0.950 . S
H2010 C2015 0.950 . S
H2011 C2016 0.949 . S
H2012 C2018 0.950 . S
H2013 C2019 0.950 . S
H2014 C2020 0.949 . S
C2015 H2010 0.950 . S
C2015 C2017 1.327 . S
C2015 C2021 1.429 . S
C2016 C2008 1.574 . S
C2016 H2011 0.949 . S
C2016 C2022 1.368 . S
C2017 C2001 1.349 . S
C2017 H2009 0.950 . S
C2017 C2015 1.327 . S
C2018 C2006 1.349 . S
C2018 H2012 0.950 . S
C2018 C2019 1.327 . S
C2019 H2013 0.950 . S
C2019 C2018 1.327 . S
C2019 C2023 1.429 . S
C2020 C2003 1.574 . S
C2020 H2014 0.949 . S
C2020 C2024 1.368 . S
C2021 C2002 1.429 . S
C2021 C2015 1.429 . S
C2021 C2022 1.523 . S
C2022 C2003 1.368 . S
C2022 C2016 1.368 . S
C2022 C2021 1.523 . S
C2023 C2007 1.429 . S
C2023 C2019 1.429 . S
C2023 C2024 1.523 . S
C2024 C2008 1.368 . S
C2024 C2020 1.368 . S
C2024 C2023 1.523 . S
H2025 C2000 0.950 . S
H2026 C2002 0.950 . S
H2027 C2003 0.949 . S
H2028 C2005 0.950 . S
H2029 C2007 0.950 . S
C2030 C2031 1.349 . S
C2030 C2032 1.327 . S
C2030 H2055 0.950 . S
C2031 C2030 1.349 . S
C2031 C2047 1.349 . S
C2032 C2030 1.327 . S
C2032 C2051 1.429 . S
C2032 H2056 0.950 . S
C2033 C2050 1.574 . S
C2033 C2052 1.368 . S
C2033 H2057 0.949 . S
H2034 C2038 0.949 . S
C2035 C2036 1.349 . S
C2035 C2037 1.327 . S
C2035 H2058 0.950 . S
C2036 C2035 1.349 . S
C2036 C2048 1.349 . S
C2037 C2035 1.327 . S
C2037 C2053 1.429 . S
C2037 H2059 0.950 . S
C2038 H2034 0.949 . S
C2038 C2046 1.574 . S
C2038 C2054 1.368 . S
H2039 C2047 0.950 . S
H2040 C2045 0.950 . S
H2041 C2046 0.949 . S
H2042 C2048 0.950 . S
H2043 C2049 0.950 . S
H2044 C2050 0.949 . S
C2045 H2040 0.950 . S
C2045 C2047 1.327 . S
C2045 C2051 1.429 . S
C2046 C2038 1.574 . S
C2046 H2041 0.949 . S
C2046 C2052 1.368 . S
C2047 C2031 1.349 . S
C2047 H2039 0.950 . S
C2047 C2045 1.327 . S
C2048 C2036 1.349 . S
C2048 H2042 0.950 . S
C2048 C2049 1.327 . S
C2049 H2043 0.950 . S
C2049 C2048 1.327 . S
C2049 C2053 1.429 . S
C2050 C2033 1.574 . S
C2050 H2044 0.949 . S
C2050 C2054 1.368 . S
C2051 C2032 1.429 . S
C2051 C2045 1.429 . S
C2051 C2052 1.523 . S
C2052 C2033 1.368 . S
C2052 C2046 1.368 . S
C2052 C2051 1.523 . S
C2053 C2037 1.429 . S
C2053 C2049 1.429 . S
C2053 C2054 1.523 . S
C2054 C2038 1.368 . S
C2054 C2050 1.368 . S
C2054 C2053 1.523 . S
H2055 C2030 0.950 . S
H2056 C2032 0.950 . S
H2057 C2033 0.949 . S
H2058 C2035 0.950 . S
H2059 C2037 0.950 . S
C2060 C2061 1.349 . S
C2060 C2062 1.327 . S
C2060 H2085 0.950 . S
C2061 C2060 1.349 . S
C2061 C2077 1.349 . S
C2062 C2060 1.327 . S
C2062 C2081 1.429 . S
C2062 H2086 0.950 . S
C2063 C2080 1.574 . S
C2063 C2082 1.368 . S
C2063 H2087 0.949 . S
H2064 C2068 0.949 . S
C2065 C2066 1.349 . S
C2065 C2067 1.327 . S
C2065 H2088 0.950 . S
C2066 C2065 1.349 . S
C2066 C2078 1.349 . S
C2067 C2065 1.327 . S
C2067 C2083 1.429 . S
C2067 H2089 0.950 . S
C2068 H2064 0.949 . S
C2068 C2076 1.574 . S
C2068 C2084 1.368 . S
H2069 C2077 0.950 . S
H2070 C2075 0.950 . S
H2071 C2076 0.949 . S
H2072 C2078 0.950 . S
H2073 C2079 0.950 . S
H2074 C2080 0.949 . S
C2075 H2070 0.950 . S
C2075 C2077 1.327 . S
C2075 C2081 1.429 . S
C2076 C2068 1.574 . S
C2076 H2071 0.949 . S
C2076 C2082 1.368 . S
C2077 C2061 1.349 . S
C2077 H2069 0.950 . S
C2077 C2075 1.327 . S
C2078 C2066 1.349 . S
C2078 H2072 0.950 . S
C2078 C2079 1.327 . S
C2079 H2073 0.950 . S
C2079 C2078 1.327 . S
C2079 C2083 1.429 . S
C2080 C2063 1.574 . S
C2080 H2074 0.949 . S
C2080 C2084 1.368 . S
C2081 C2062 1.429 . S
C2081 C2075 1.429 . S
C2081 C2082 1.523 . S
C2082 C2063 1.368 . S
C2082 C2076 1.368 . S
C2082 C2081 1.523 . S
C2083 C2067 1.429 . S
C2083 C2079 1.429 . S
C2083 C2084 1.523 . S
C2084 C2068 1.368 . S
C2084 C2080 1.368 . S
C2084 C2083 1.523 . S
H2085 C2060 0.950 . S
H2086 C2062 0.950 . S
H2087 C2063 0.949 . S
H2088 C2065 0.950 . S
H2089 C2067 0.950 . S
C2090 C2091 1.349 . S
C2090 C2092 1.327 . S
C2090 H2115 0.950 . S
C2091 C2090 1.349 . S
C2091 C2107 1.349 . S
C2092 C2090 1.327 . S
C2092 C2111 1.429 . S
C2092 H2116 0.950 . S
C2093 C2110 1.574 . S
C2093 C2112 1.368 . S
C2093 H2117 0.949 . S
H2094 C2098 0.949 . S
C2095 C2096 1.349 . S
C2095 C2097 1.327 . S
C2095 H2118 0.950 . S
C2096 C2095 1.349 . S
C2096 C2108 1.349 . S
C2097 C2095 1.327 . S
C2097 C2113 1.429 . S
C2097 H2119 0.950 . S
C2098 H2094 0.949 . S
C2098 C2106 1.574 . S
C2098 C2114 1.368 . S
H2099 C2107 0.950 . S
H2100 C2105 0.950 . S
H2101 C2106 0.949 . S
H2102 C2108 0.950 . S
H2103 C2109 0.950 . S
H2104 C2110 0.949 . S
C2105 H2100 0.950 . S
C2105 C2107 1.327 . S
C2105 C2111 1.429 . S
C2106 C2098 1.574 . S
C2106 H2101 0.949 . S
C2106 C2112 1.368 . S
C2107 C2091 1.349 . S
C2107 H2099 0.950 . S
C2107 C2105 1.327 . S
C2108 C2096 1.349 . S
C2108 H2102 0.950 . S
C2108 C2109 1.327 . S
C2109 H2103 0.950 . S
C2109 C2108 1.327 . S
C2109 C2113 1.429 . S
C2110 C2093 1.574 . S
C2110 H2104 0.949 . S
C2110 C2114 1.368 . S
C2111 C2092 1.429 . S
C2111 C2105 1.429 . S
C2111 C2112 1.523 . S
C2112 C2093 1.368 . S
C2112 C2106 1.368 . S
C2112 C2111 1.523 . S
C2113 C2097 1.429 . S
C2113 C2109 1.429 . S
C2113 C2114 1.523 . S
C2114 C2098 1.368 . S
C2114 C2110 1.368 . S
C2114 C2113 1.523 . S
H2115 C2090 0.950 . S
H2116 C2092 0.950 . S
H2117 C2093 0.949 . S
H2118 C2095 0.950 . S
H2119 C2097 0.950 . S
C2120 C2121 1.349 . S
C2120 C2122 1.327 . S
C2120 H2145 0.950 . S
C2121 C2120 1.349 . S
C2121 C2137 1.349 . S
C2122 C2120 1.327 . S
C2122 C2141 1.429 . S
C2122 H2146 0.950 . S
C2123 C2140 1.574 . S
C2123 C2142 1.368 . S
C2123 H2147 0.949 . S
H2124 C2128 0.949 . S
C2125 C2126 1.349 . S
C2125 C2127 1.327 . S
C2125 H2148 0.950 . S
C2126 C2125 1.349 . S
C2126 C2138 1.349 . S
C2127 C2125 1.327 . S
C2127 C2143 1.429 . S
C2127 H2149 0.950 . S
C2128 H2124 0.949 . S
C2128 C2136 1.574 . S
C2128 C2144 1.368 . S
H2129 C2137 0.950 . S
H2130 C2135 0.950 . S
H2131 C2136 0.949 . S
H2132 C2138 0.950 . S
H2133 C2139 0.950 . S
H2134 C2140 0.949 . S
C2135 H2130 0.950 . S
C2135 C2137 1.327 . S
C2135 C2141 1.429 . S
C2136 C2128 1.574 . S
C2136 H2131 0.949 . S
C2136 C2142 1.368 . S
C2137 C2121 1.349 . S
C2137 H2129 0.950 . S
C2137 C2135 1.327 . S
C2138 C2126 1.349 . S
C2138 H2132 0.950 . S
C2138 C2139 1.327 . S
C2139 H2133 0.950 . S
C2139 C2138 1.327 . S
C2139 C2143 1.429 . S
C2140 C2123 1.574 . S
C2140 H2134 0.949 . S
C2140 C2144 1.368 . S
C2141 C2122 1.429 . S
C2141 C2135 1.429 . S
C2141 C2142 1.523 . S
C2142 C2123 1.368 . S
C2142 C2136 1.368 . S
C2142 C2141 1.523 . S
C2143 C2127 1.429 . S
C2143 C2139 1.429 . S
C2143 C2144 1.523 . S
C2144 C2128 1.368 . S
C2144 C2140 1.368 . S
C2144 C2143 1.523 . S
H2145 C2120 0.950 . S
H2146 C2122 0.950 . S
H2147 C2123 0.949 . S
H2148 C2125 0.950 . S
H2149 C2127 0.950 . S
C2150 C2151 1.349 . S
C2150 C2152 1.327 . S
C2150 H2175 0.950 . S
C2151 C2150 1.349 . S
C2151 C2167 1.349 . S
C2152 C2150 1.327 . S
C2152 C2171 1.429 . S
C2152 H2176 0.950 . S
C2153 C2170 1.574 . S
C2153 C2172 1.368 . S
C2153 H2177 0.949 . S
H2154 C2158 0.949 . S
C2155 C2156 1.349 . S
C2155 C2157 1.327 . S
C2155 H2178 0.950 . S
C2156 C2155 1.349 . S
C2156 C2168 1.349 . S
C2157 C2155 1.327 . S
C2157 C2173 1.429 . S
C2157 H2179 0.950 . S
C2158 H2154 0.949 . S
C2158 C2166 1.574 . S
C2158 C2174 1.368 . S
H2159 C2167 0.950 . S
H2160 C2165 0.950 . S
H2161 C2166 0.949 . S
H2162 C2168 0.950 . S
H2163 C2169 0.950 . S
H2164 C2170 0.949 . S
C2165 H2160 0.950 . S
C2165 C2167 1.327 . S
C2165 C2171 1.429 . S
C2166 C2158 1.574 . S
C2166 H2161 0.949 . S
C2166 C2172 1.368 . S
C2167 C2151 1.349 . S
C2167 H2159 0.950 . S
C2167 C2165 1.327 . S
C2168 C2156 1.349 . S
C2168 H2162 0.950 . S
C2168 C2169 1.327 . S
C2169 H2163 0.950 . S
C2169 C2168 1.327 . S
C2169 C2173 1.429 . S
C2170 C2153 1.574 . S
C2170 H2164 0.949 . S
C2170 C2174 1.368 . S
C2171 C2152 1.429 . S
C2171 C2165 1.429 . S
C2171 C2172 1.523 . S
C2172 C2153 1.368 . S
C2172 C2166 1.368 . S
C2172 C2171 1.523 . S
C2173 C2157 1.429 . S
C2173 C2169 1.429 . S
C2173 C2174 1.523 . S
C2174 C2158 1.368 . S
C2174 C2170 1.368 . S
C2174 C2173 1.523 . S
H2175 C2150 0.950 . S
H2176 C2152 0.950 . S
H2177 C2153 0.949 . S
H2178 C2155 0.950 . S
H2179 C2157 0.950 . S
C2180 C2181 1.349 . S
C2180 C2182 1.327 . S
C2180 H2205 0.950 . S
C2181 C2180 1.349 . S
C2181 C2197 1.349 . S
C2182 C2180 1.327 . S
C2182 C2201 1.429 . S
C2182 H2206 0.950 . S
C2183 C2200 1.574 . S
C2183 C2202 1.368 . S
C2183 H2207 0.949 . S
H2184 C2188 0.949 . S
C2185 C2186 1.349 . S
C2185 C2187 1.327 . S
C2185 H2208 0.950 . S
C2186 C2185 1.349 . S
C2186 C2198 1.349 . S
C2187 C2185 1.327 . S
C2187 C2203 1.429 . S
C2187 H2209 0.950 . S
C2188 H2184 0.949 . S
C2188 C2196 1.574 . S
C2188 C2204 1.368 . S
H2189 C2197 0.950 . S
H2190 C2195 0.950 . S
H2191 C2196 0.949 . S
H2192 C2198 0.950 . S
H2193 C2199 0.950 . S
H2194 C2200 0.949 . S
C2195 H2190 0.950 . S
C2195 C2197 1.327 . S
C2195 C2201 1.429 . S
C2196 C2188 1.574 . S
C2196 H2191 0.949 . S
C2196 C2202 1.368 . S
C2197 C2181 1.349 . S
C2197 H2189 0.950 . S
C2197 C2195 1.327 . S
C2198 C2186 1.349 . S
C2198 H2192 0.950 . S
C2198 C2199 1.327 . S
C2199 H2193 0.950 . S
C2199 C2198 1.327 . S
C2199 C2203 1.429 . S
C2200 C2183 1.574 . S
C2200 H2194 0.949 . S
C2200 C2204 1.368 . S
C2201 C2182 1.429 . S
C2201 C2195 1.429 . S
C2201 C2202 1.523 . S
C2202 C2183 1.368 . S
C2202 C2196 1.368 . S
C2202 C2201 1.523 . S
C2203 C2187 1.429 . S
C2203 C2199 1.429 . S
C2203 C2204 1.523 . S
C2204 C2188 1.368 . S
C2204 C2200 1.368 . S
C2204 C2203 1.523 . S
H2205 C2180 0.950 . S
H2206 C2182 0.950 . S
H2207 C2183 0.949 . S
H2208 C2185 0.950 . S
H2209 C2187 0.950 . S
C2210 C2211 1.349 . S
C2210 C2212 1.327 . S
C2210 H2235 0.950 . S
C2211 C2210 1.349 . S
C2211 C2227 1.349 . S
C2212 C2210 1.327 . S
C2212 C2231 1.429 . S
C2212 H2236 0.950 . S
C2213 C2230 1.574 . S
C2213 C2232 1.368 . S
C2213 H2237 0.949 . S
H2214 C2218 0.949 . S
C2215 C2216 1.349 . S
C2215 C2217 1.327 . S
C2215 H2238 0.950 . S
C2216 C2215 1.349 . S
C2216 C2228 1.349 . S
C2217 C2215 1.327 . S
C2217 C2233 1.429 . S
C2217 H2239 0.950 . S
C2218 H2214 0.949 . S
C2218 C2226 1.574 . S
C2218 C2234 1.368 . S
H2219 C2227 0.950 . S
H2220 C2225 0.950 . S
H2221 C2226 0.949 . S
H2222 C2228 0.950 . S
H2223 C2229 0.950 . S
H2224 C2230 0.949 . S
C2225 H2220 0.950 . S
C2225 C2227 1.327 . S
C2225 C2231 1.429 . S
C2226 C2218 1.574 . S
C2226 H2221 0.949 . S
C2226 C2232 1.368 . S
C2227 C2211 1.349 . S
C2227 H2219 0.950 . S
C2227 C2225 1.327 . S
C2228 C2216 1.349 . S
C2228 H2222 0.950 . S
C2228 C2229 1.327 . S
C2229 H2223 0.950 . S
C2229 C2228 1.327 . S
C2229 C2233 1.429 . S
C2230 C2213 1.574 . S
C2230 H2224 0.949 . S
C2230 C2234 1.368 . S
C2231 C2212 1.429 . S
C2231 C2225 1.429 . S
C2231 C2232 1.523 . S
C2232 C2213 1.368 . S
C2232 C2226 1.368 . S
C2232 C2231 1.523 . S
C2233 C2217 1.429 . S
C2233 C2229 1.429 . S
C2233 C2234 1.523 . S
C2234 C2218 1.368 . S
C2234 C2230 1.368 . S
C2234 C2233 1.523 . S
H2235 C2210 0.950 . S
H2236 C2212 0.950 . S
H2237 C2213 0.949 . S
H2238 C2215 0.950 . S
H2239 C2217 0.950 . S
C2240 C2241 1.349 1_545 S
C2240 C2242 1.327 . S
C2240 H2265 0.950 . S
C2241 C2240 1.349 1_565 S
C2241 C2257 1.349 . S
C2242 C2240 1.327 . S
C2242 C2261 1.429 1_545 S
C2242 H2266 0.950 . S
C2243 C2260 1.574 1_455 S
C2243 C2262 1.368 . S
C2243 H2267 0.949 . S
H2244 C2248 0.949 . S
C2245 C2246 1.349 . S
C2245 C2247 1.327 . S
C2245 H2268 0.950 . S
C2246 C2245 1.349 . S
C2246 C2258 1.349 1_565 S
C2247 C2245 1.327 . S
C2247 C2263 1.429 . S
C2247 H2269 0.950 . S
C2248 H2244 0.949 . S
C2248 C2256 1.574 1_655 S
C2248 C2264 1.368 1_545 S
H2249 C2257 0.950 . S
H2250 C2255 0.950 . S
H2251 C2256 0.949 . S
H2252 C2258 0.950 . S
H2253 C2259 0.950 . S
H2254 C2260 0.949 . S
C2255 H2250 0.950 . S
C2255 C2257 1.327 . S
C2255 C2261 1.429 . S
C2256 C2248 1.574 1_455 S
C2256 H2251 0.949 . S
C2256 C2262 1.368 1_545 S
C2257 C2241 1.349 . S
C2257 H2249 0.950 . S
C2257 C2255 1.327 . S
C2258 C2246 1.349 1_545 S
C2258 H2252 0.950 . S
C2258 C2259 1.327 . S
C2259 H2253 0.950 . S
C2259 C2258 1.327 . S
C2259 C2263 1.429 1_545 S
C2260 C2243 1.574 1_655 S
C2260 H2254 0.949 . S
C2260 C2264 1.368 . S
C2261 C2242 1.429 1_565 S
C2261 C2255 1.429 . S
C2261 C2262 1.523 . S
C2262 C2243 1.368 . S
C2262 C2256 1.368 1_565 S
C2262 C2261 1.523 . S
C2263 C2247 1.429 . S
C2263 C2259 1.429 1_565 S
C2263 C2264 1.523 . S
C2264 C2248 1.368 1_565 S
C2264 C2260 1.368 . S
C2264 C2263 1.523 . S
H2265 C2240 0.950 . S
H2266 C2242 0.950 . S
H2267 C2243 0.949 . S
H2268 C2245 0.950 . S
H2269 C2247 0.950 . S
C2270 C2271 1.349 . S
C2270 C2272 1.327 . S
C2270 H2295 0.950 . S
C2271 C2270 1.349 . S
C2271 C2287 1.349 . S
C2272 C2270 1.327 . S
C2272 C2291 1.429 . S
C2272 H2296 0.950 . S
C2273 C2290 1.574 . S
C2273 C2292 1.368 . S
C2273 H2297 0.949 . S
H2274 C2278 0.949 . S
C2275 C2276 1.349 . S
C2275 C2277 1.327 . S
C2275 H2298 0.950 . S
C2276 C2275 1.349 . S
C2276 C2288 1.349 . S
C2277 C2275 1.327 . S
C2277 C2293 1.429 . S
C2277 H2299 0.950 . S
C2278 H2274 0.949 . S
C2278 C2286 1.574 . S
C2278 C2294 1.368 . S
H2279 C2287 0.950 . S
H2280 C2285 0.950 . S
H2281 C2286 0.949 . S
H2282 C2288 0.950 . S
H2283 C2289 0.950 . S
H2284 C2290 0.949 . S
C2285 H2280 0.950 . S
C2285 C2287 1.327 . S
C2285 C2291 1.429 . S
C2286 C2278 1.574 . S
C2286 H2281 0.949 . S
C2286 C2292 1.368 . S
C2287 C2271 1.349 . S
C2287 H2279 0.950 . S
C2287 C2285 1.327 . S
C2288 C2276 1.349 . S
C2288 H2282 0.950 . S
C2288 C2289 1.327 . S
C2289 H2283 0.950 . S
C2289 C2288 1.327 . S
C2289 C2293 1.429 . S
C2290 C2273 1.574 . S
C2290 H2284 0.949 . S
C2290 C2294 1.368 . S
C2291 C2272 1.429 . S
C2291 C2285 1.429 . S
C2291 C2292 1.523 . S
C2292 C2273 1.368 . S
C2292 C2286 1.368 . S
C2292 C2291 1.523 . S
C2293 C2277 1.429 . S
C2293 C2289 1.429 . S
C2293 C2294 1.523 . S
C2294 C2278 1.368 . S
C2294 C2290 1.368 . S
C2294 C2293 1.523 . S
H2295 C2270 0.950 . S
H2296 C2272 0.950 . S
H2297 C2273 0.949 . S
H2298 C2275 0.950 . S
H2299 C2277 0.950 . S
C2300 C2301 1.349 . S
C2300 C2302 1.327 . S
C2300 H2325 0.950 . S
C2301 C2300 1.349 . S
C2301 C2317 1.349 1_545 S
C2302 C2300 1.327 . S
C2302 C2321 1.429 . S
C2302 H2326 0.950 . S
C2303 C2320 1.574 . S
C2303 C2322 1.368 1_565 S
C2303 H2327 0.949 . S
H2304 C2308 0.949 . S
C2305 C2306 1.349 1_565 S
C2305 C2307 1.327 . S
C2305 H2328 0.950 . S
C2306 C2305 1.349 1_545 S
C2306 C2318 1.349 . S
C2307 C2305 1.327 . S
C2307 C2323 1.429 1_565 S
C2307 H2329 0.950 . S
C2308 H2304 0.949 . S
C2308 C2316 1.574 . S
C2308 C2324 1.368 . S
H2309 C2317 0.950 . S
H2310 C2315 0.950 . S
H2311 C2316 0.949 . S
H2312 C2318 0.950 . S
H2313 C2319 0.950 . S
H2314 C2320 0.949 . S
C2315 H2310 0.950 . S
C2315 C2317 1.327 . S
C2315 C2321 1.429 1_565 S
C2316 C2308 1.574 . S
C2316 H2311 0.949 . S
C2316 C2322 1.368 . S
C2317 C2301 1.349 1_565 S
C2317 H2309 0.950 . S
C2317 C2315 1.327 . S
C2318 C2306 1.349 . S
C2318 H2312 0.950 . S
C2318 C2319 1.327 . S
C2319 H2313 0.950 . S
C2319 C2318 1.327 . S
C2319 C2323 1.429 . S
C2320 C2303 1.574 . S
C2320 H2314 0.949 . S
C2320 C2324 1.368 1_565 S
C2321 C2302 1.429 . S
C2321 C2315 1.429 1_545 S
C2321 C2322 1.523 . S
C2322 C2303 1.368 1_545 S
C2322 C2316 1.368 . S
C2322 C2321 1.523 . S
C2323 C2307 1.429 1_545 S
C2323 C2319 1.429 . S
C2323 C2324 1.523 . S
C2324 C2308 1.368 . S
C2324 C2320 1.368 1_545 S
C2324 C2323 1.523 . S
H2325 C2300 0.950 . S
H2326 C2302 0.950 . S
H2327 C2303 0.949 . S
H2328 C2305 0.950 . S
H2329 C2307 0.950 . S
C2330 C2331 1.349 . S
C2330 C2332 1.327 . S
C2330 H2355 0.950 . S
C2331 C2330 1.349 . S
C2331 C2347 1.349 . S
C2332 C2330 1.327 . S
C2332 C2351 1.429 . S
C2332 H2356 0.950 . S
C2333 C2350 1.574 . S
C2333 C2352 1.368 . S
C2333 H2357 0.949 . S
H2334 C2338 0.949 . S
C2335 C2336 1.349 . S
C2335 C2337 1.327 . S
C2335 H2358 0.950 . S
C2336 C2335 1.349 . S
C2336 C2348 1.349 . S
C2337 C2335 1.327 . S
C2337 C2353 1.429 . S
C2337 H2359 0.950 . S
C2338 H2334 0.949 . S
C2338 C2346 1.574 . S
C2338 C2354 1.368 . S
H2339 C2347 0.950 . S
H2340 C2345 0.950 . S
H2341 C2346 0.949 . S
H2342 C2348 0.950 . S
H2343 C2349 0.950 . S
H2344 C2350 0.949 . S
C2345 H2340 0.950 . S
C2345 C2347 1.327 . S
C2345 C2351 1.429 . S
C2346 C2338 1.574 . S
C2346 H2341 0.949 . S
C2346 C2352 1.368 . S
C2347 C2331 1.349 . S
C2347 H2339 0.950 . S
C2347 C2345 1.327 . S
C2348 C2336 1.349 . S
C2348 H2342 0.950 . S
C2348 C2349 1.327 . S
C2349 H2343 0.950 . S
C2349 C2348 1.327 . S
C2349 C2353 1.429 . S
C2350 C2333 1.574 . S
C2350 H2344 0.949 . S
C2350 C2354 1.368 . S
C2351 C2332 1.429 . S
C2351 C2345 1.429 . S
C2351 C2352 1.523 . S
C2352 C2333 1.368 . S
C2352 C2346 1.368 . S
C2352 C2351 1.523 . S
C2353 C2337 1.429 . S
C2353 C2349 1.429 . S
C2353 C2354 1.523 . S
C2354 C2338 1.368 . S
C2354 C2350 1.368 . S
C2354 C2353 1.523 . S
H2355 C2330 0.950 . S
H2356 C2332 0.950 . S
H2357 C2333 0.949 . S
H2358 C2335 0.950 . S
H2359 C2337 0.950 . S
C2360 C2361 1.349 . S
C2360 C2362 1.327 . S
C2360 H2385 0.950 . S
C2361 C2360 1.349 . S
C2361 C2377 1.349 1_545 S
C2362 C2360 1.327 . S
C2362 C2381 1.429 . S
C2362 H2386 0.950 . S
C2363 C2380 1.574 1_655 S
C2363 C2382 1.368 1_565 S
C2363 H2387 0.949 . S
H2364 C2368 0.949 . S
C2365 C2366 1.349 1_565 S
C2365 C2367 1.327 . S
C2365 H2388 0.950 . S
C2366 C2365 1.349 1_545 S
C2366 C2378 1.349 . S
C2367 C2365 1.327 . S
C2367 C2383 1.429 1_565 S
C2367 H2389 0.950 . S
C2368 H2364 0.949 . S
C2368 C2376 1.574 1_455 S
C2368 C2384 1.368 . S
H2369 C2377 0.950 . S
H2370 C2375 0.950 . S
H2371 C2376 0.949 . S
H2372 C2378 0.950 . S
H2373 C2379 0.950 . S
H2374 C2380 0.949 . S
C2375 H2370 0.950 . S
C2375 C2377 1.327 . S
C2375 C2381 1.429 1_565 S
C2376 C2368 1.574 1_655 S
C2376 H2371 0.949 . S
C2376 C2382 1.368 . S
C2377 C2361 1.349 1_565 S
C2377 H2369 0.950 . S
C2377 C2375 1.327 . S
C2378 C2366 1.349 . S
C2378 H2372 0.950 . S
C2378 C2379 1.327 . S
C2379 H2373 0.950 . S
C2379 C2378 1.327 . S
C2379 C2383 1.429 . S
C2380 C2363 1.574 1_455 S
C2380 H2374 0.949 . S
C2380 C2384 1.368 1_565 S
C2381 C2362 1.429 . S
C2381 C2375 1.429 1_545 S
C2381 C2382 1.523 . S
C2382 C2363 1.368 1_545 S
C2382 C2376 1.368 . S
C2382 C2381 1.523 . S
C2383 C2367 1.429 1_545 S
C2383 C2379 1.429 . S
C2383 C2384 1.523 . S
C2384 C2368 1.368 . S
C2384 C2380 1.368 1_545 S
C2384 C2383 1.523 . S
H2385 C2360 0.950 . S
H2386 C2362 0.950 . S
H2387 C2363 0.949 . S
H2388 C2365 0.950 . S
H2389 C2367 0.950 . S
C2390 C2391 1.349 . S
C2390 C2392 1.327 . S
C2390 H2415 0.950 . S
C2391 C2390 1.349 . S
C2391 C2407 1.349 . S
C2392 C2390 1.327 . S
C2392 C2411 1.429 . S
C2392 H2416 0.950 . S
C2393 C2410 1.574 . S
C2393 C2412 1.368 . S
C2393 H2417 0.949 . S
H2394 C2398 0.949 . S
C2395 C2396 1.349 . S
C2395 C2397 1.327 . S
C2395 H2418 0.950 . S
C2396 C2395 1.349 . S
C2396 C2408 1.349 . S
C2397 C2395 1.327 . S
C2397 C2413 1.429 . S
C2397 H2419 0.950 . S
C2398 H2394 0.949 . S
C2398 C2406 1.574 . S
C2398 C2414 1.368 . S
H2399 C2407 0.950 . S
H2400 C2405 0.950 . S
H2401 C2406 0.949 . S
H2402 C2408 0.950 . S
H2403 C2409 0.950 . S
H2404 C2410 0.949 . S
C2405 H2400 0.950 . S
C2405 C2407 1.327 . S
C2405 C2411 1.429 . S
C2406 C2398 1.574 . S
C2406 H2401 0.949 . S
C2406 C2412 1.368 . S
C2407 C2391 1.349 . S
C2407 H2399 0.950 . S
C2407 C2405 1.327 . S
C2408 C2396 1.349 . S
C2408 H2402 0.950 . S
C2408 C2409 1.327 . S
C2409 H2403 0.950 . S
C2409 C2408 1.327 . S
C2409 C2413 1.429 . S
C2410 C2393 1.574 . S
C2410 H2404 0.949 . S
C2410 C2414 1.368 . S
C2411 C2392 1.429 . S
C2411 C2405 1.429 . S
C2411 C2412 1.523 . S
C2412 C2393 1.368 . S
C2412 C2406 1.368 . S
C2412 C2411 1.523 . S
C2413 C2397 1.429 . S
C2413 C2409 1.429 . S
C2413 C2414 1.523 . S
C2414 C2398 1.368 . S
C2414 C2410 1.368 . S
C2414 C2413 1.523 . S
H2415 C2390 0.950 . S
H2416 C2392 0.950 . S
H2417 C2393 0.949 . S
H2418 C2395 0.950 . S
H2419 C2397 0.950 . S
C2420 C2421 1.349 1_545 S
C2420 C2422 1.327 . S
C2420 H2445 0.950 . S
C2421 C2420 1.349 1_565 S
C2421 C2437 1.349 . S
C2422 C2420 1.327 . S
C2422 C2441 1.429 1_545 S
C2422 H2446 0.950 . S
C2423 C2440 1.574 . S
C2423 C2442 1.368 . S
C2423 H2447 0.949 . S
H2424 C2428 0.949 . S
C2425 C2426 1.349 . S
C2425 C2427 1.327 . S
C2425 H2448 0.950 . S
C2426 C2425 1.349 . S
C2426 C2438 1.349 1_565 S
C2427 C2425 1.327 . S
C2427 C2443 1.429 . S
C2427 H2449 0.950 . S
C2428 H2424 0.949 . S
C2428 C2436 1.574 . S
C2428 C2444 1.368 1_545 S
H2429 C2437 0.950 . S
H2430 C2435 0.950 . S
H2431 C2436 0.949 . S
H2432 C2438 0.950 . S
H2433 C2439 0.950 . S
H2434 C2440 0.949 . S
C2435 H2430 0.950 . S
C2435 C2437 1.327 . S
C2435 C2441 1.429 . S
C2436 C2428 1.574 . S
C2436 H2431 0.949 . S
C2436 C2442 1.368 1_545 S
C2437 C2421 1.349 . S
C2437 H2429 0.950 . S
C2437 C2435 1.327 . S
C2438 C2426 1.349 1_545 S
C2438 H2432 0.950 . S
C2438 C2439 1.327 . S
C2439 H2433 0.950 . S
C2439 C2438 1.327 . S
C2439 C2443 1.429 1_545 S
C2440 C2423 1.574 . S
C2440 H2434 0.949 . S
C2440 C2444 1.368 . S
C2441 C2422 1.429 1_565 S
C2441 C2435 1.429 . S
C2441 C2442 1.523 . S
C2442 C2423 1.368 . S
C2442 C2436 1.368 1_565 S
C2442 C2441 1.523 . S
C2443 C2427 1.429 . S
C2443 C2439 1.429 1_565 S
C2443 C2444 1.523 . S
C2444 C2428 1.368 1_565 S
C2444 C2440 1.368 . S
C2444 C2443 1.523 . S
H2445 C2420 0.950 . S
H2446 C2422 0.950 . S
H2447 C2423 0.949 . S
H2448 C2425 0.950 . S
H2449 C2427 0.950 . S
C2450 C2451 1.349 . S
C2450 C2452 1.327 . S
C2450 H2475 0.950 . S
C2451 C2450 1.349 . S
C2451 C2467 1.349 . S
C2452 C2450 1.327 . S
C2452 C2471 1.429 . S
C2452 H2476 0.950 . S
C2453 C2470 1.574 . S
C2453 C2472 1.368 . S
C2453 H2477 0.949 . S
H2454 C2458 0.949 . S
C2455 C2456 1.349 . S
C2455 C2457 1.327 . S
C2455 H2478 0.950 . S
C2456 C2455 1.349 . S
C2456 C2468 1.349 . S
C2457 C2455 1.327 . S
C2457 C2473 1.429 . S
C2457 H2479 0.950 . S
C2458 H2454 0.949 . S
C2458 C2466 1.574 . S
C2458 C2474 1.368 . S
H2459 C2467 0.950 . S
H2460 C2465 0.950 . S
H2461 C2466 0.949 . S
H2462 C2468 0.950 . S
H2463 C2469 0.950 . S
H2464 C2470 0.949 . S
C2465 H2460 0.950 . S
C2465 C2467 1.327 . S
C2465 C2471 1.429 . S
C2466 C2458 1.574 . S
C2466 H2461 0.949 . S
C2466 C2472 1.368 . S
C2467 C2451 1.349 . S
C2467 H2459 0.950 . S
C2467 C2465 1.327 . S
C2468 C2456 1.349 . S
C2468 H2462 0.950 . S
C2468 C2469 1.327 . S
C2469 H2463 0.950 . S
C2469 C2468 1.327 . S
C2469 C2473 1.429 . S
C2470 C2453 1.574 . S
C2470 H2464 0.949 . S
C2470 C2474 1.368 . S
C2471 C2452 1.429 . S
C2471 C2465 1.429 . S
C2471 C2472 1.523 . S
C2472 C2453 1.368 . S
C2472 C2466 1.368 . S
C2472 C2471 1.523 . S
C2473 C2457 1.429 . S
C2473 C2469 1.429 . S
C2473 C2474 1.523 . S
C2474 C2458 1.368 . S
C2474 C2470 1.368 . S
C2474 C2473 1.523 . S
H2475 C2450 0.950 . S
H2476 C2452 0.950 . S
H2477 C2453 0.949 . S
H2478 C2455 0.950 . S
H2479 C2457 0.950 . S
C2480 C2481 1.349 . S
C2480 C2482 1.327 . S
C2480 H2505 0.950 . S
C2481 C2480 1.349 . S
C2481 C2497 1.349 . S
C2482 C2480 1.327 . S
C2482 C2501 1.429 . S
C2482 H2506 0.950 . S
C2483 C2500 1.574 . S
C2483 C2502 1.368 . S
C2483 H2507 0.949 . S
H2484 C2488 0.949 . S
C2485 C2486 1.349 . S
C2485 C2487 1.327 . S
C2485 H2508 0.950 . S
C2486 C2485 1.349 . S
C2486 C2498 1.349 . S
C2487 C2485 1.327 . S
C2487 C2503 1.429 . S
C2487 H2509 0.950 . S
C2488 H2484 0.949 . S
C2488 C2496 1.574 . S
C2488 C2504 1.368 . S
H2489 C2497 0.950 . S
H2490 C2495 0.950 . S
H2491 C2496 0.949 . S
H2492 C2498 0.950 . S
H2493 C2499 0.950 . S
H2494 C2500 0.949 . S
C2495 H2490 0.950 . S
C2495 C2497 1.327 . S
C2495 C2501 1.429 . S
C2496 C2488 1.574 . S
C2496 H2491 0.949 . S
C2496 C2502 1.368 . S
C2497 C2481 1.349 . S
C2497 H2489 0.950 . S
C2497 C2495 1.327 . S
C2498 C2486 1.349 . S
C2498 H2492 0.950 . S
C2498 C2499 1.327 . S
C2499 H2493 0.950 . S
C2499 C2498 1.327 . S
C2499 C2503 1.429 . S
C2500 C2483 1.574 . S
C2500 H2494 0.949 . S
C2500 C2504 1.368 . S
C2501 C2482 1.429 . S
C2501 C2495 1.429 . S
C2501 C2502 1.523 . S
C2502 C2483 1.368 . S
C2502 C2496 1.368 . S
C2502 C2501 1.523 . S
C2503 C2487 1.429 . S
C2503 C2499 1.429 . S
C2503 C2504 1.523 . S
C2504 C2488 1.368 . S
C2504 C2500 1.368 . S
C2504 C2503 1.523 . S
H2505 C2480 0.950 . S
H2506 C2482 0.950 . S
H2507 C2483 0.949 . S
H2508 C2485 0.950 . S
H2509 C2487 0.950 . S
C2510 C2511 1.349 . S
C2510 C2512 1.327 . S
C2510 H2535 0.950 . S
C2511 C2510 1.349 . S
C2511 C2527 1.349 . S
C2512 C2510 1.327 . S
C2512 C2531 1.429 . S
C2512 H2536 0.950 . S
C2513 C2530 1.574 . S
C2513 C2532 1.368 . S
C2513 H2537 0.949 . S
H2514 C2518 0.949 . S
C2515 C2516 1.349 . S
C2515 C2517 1.327 . S
C2515 H2538 0.950 . S
C2516 C2515 1.349 . S
C2516 C2528 1.349 . S
C2517 C2515 1.327 . S
C2517 C2533 1.429 . S
C2517 H2539 0.950 . S
C2518 H2514 0.949 . S
C2518 C2526 1.574 . S
C2518 C2534 1.368 . S
H2519 C2527 0.950 . S
H2520 C2525 0.950 . S
H2521 C2526 0.949 . S
H2522 C2528 0.950 . S
H2523 C2529 0.950 . S
H2524 C2530 0.949 . S
C2525 H2520 0.950 . S
C2525 C2527 1.327 . S
C2525 C2531 1.429 . S
C2526 C2518 1.574 . S
C2526 H2521 0.949 . S
C2526 C2532 1.368 . S
C2527 C2511 1.349 . S
C2527 H2519 0.950 . S
C2527 C2525 1.327 . S
C2528 C2516 1.349 . S
C2528 H2522 0.950 . S
C2528 C2529 1.327 . S
C2529 H2523 0.950 . S
C2529 C2528 1.327 . S
C2529 C2533 1.429 . S
C2530 C2513 1.574 . S
C2530 H2524 0.949 . S
C2530 C2534 1.368 . S
C2531 C2512 1.429 . S
C2531 C2525 1.429 . S
C2531 C2532 1.523 . S
C2532 C2513 1.368 . S
C2532 C2526 1.368 . S
C2532 C2531 1.523 . S
C2533 C2517 1.429 . S
C2533 C2529 1.429 . S
C2533 C2534 1.523 . S
C2534 C2518 1.368 . S
C2534 C2530 1.368 . S
C2534 C2533 1.523 . S
H2535 C2510 0.950 . S
H2536 C2512 0.950 . S
H2537 C2513 0.949 . S
H2538 C2515 0.950 . S
H2539 C2517 0.950 . S
C2540 C2541 1.349 . S
C2540 C2542 1.327 . S
C2540 H2565 0.950 . S
C2541 C2540 1.349 . S
C2541 C2557 1.349 . S
C2542 C2540 1.327 . S
C2542 C2561 1.429 . S
C2542 H2566 0.950 . S
C2543 C2560 1.574 . S
C2543 C2562 1.368 . S
C2543 H2567 0.949 . S
H2544 C2548 0.949 . S
C2545 C2546 1.349 . S
C2545 C2547 1.327 . S
C2545 H2568 0.950 . S
C2546 C2545 1.349 . S
C2546 C2558 1.349 . S
C2547 C2545 1.327 . S
C2547 C2563 1.429 . S
C2547 H2569 0.950 . S
C2548 H2544 0.949 . S
C2548 C2556 1.574 . S
C2548 C2564 1.368 . S
H2549 C2557 0.950 . S
H2550 C2555 0.950 . S
H2551 C2556 0.949 . S
H2552 C2558 0.950 . S
H2553 C2559 0.950 . S
H2554 C2560 0.949 . S
C2555 H2550 0.950 . S
C2555 C2557 1.327 . S
C2555 C2561 1.429 . S
C2556 C2548 1.574 . S
C2556 H2551 0.949 . S
C2556 C2562 1.368 . S
C2557 C2541 1.349 . S
C2557 H2549 0.950 . S
C2557 C2555 1.327 . S
C2558 C2546 1.349 . S
C2558 H2552 0.950 . S
C2558 C2559 1.327 . S
C2559 H2553 0.950 . S
C2559 C2558 1.327 . S
C2559 C2563 1.429 . S
C2560 C2543 1.574 . S
C2560 H2554 0.949 . S
C2560 C2564 1.368 . S
C2561 C2542 1.429 . S
C2561 C2555 1.429 . S
C2561 C2562 1.523 . S
C2562 C2543 1.368 . S
C2562 C2556 1.368 . S
C2562 C2561 1.523 . S
C2563 C2547 1.429 . S
C2563 C2559 1.429 . S
C2563 C2564 1.523 . S
C2564 C2548 1.368 . S
C2564 C2560 1.368 . S
C2564 C2563 1.523 . S
H2565 C2540 0.950 . S
H2566 C2542 0.950 . S
H2567 C2543 0.949 . S
H2568 C2545 0.950 . S
H2569 C2547 0.950 . S
C2570 C2571 1.349 . S
C2570 C2572 1.327 . S
C2570 H2595 0.950 . S
C2571 C2570 1.349 . S
C2571 C2587 1.349 . S
C2572 C2570 1.327 . S
C2572 C2591 1.429 . S
C2572 H2596 0.950 . S
C2573 C2590 1.574 . S
C2573 C2592 1.368 . S
C2573 H2597 0.949 . S
H2574 C2578 0.949 . S
C2575 C2576 1.349 . S
C2575 C2577 1.327 . S
C2575 H2598 0.950 . S
C2576 C2575 1.349 . S
C2576 C2588 1.349 . S
C2577 C2575 1.327 . S
C2577 C2593 1.429 . S
C2577 H2599 0.950 . S
C2578 H2574 0.949 . S
C2578 C2586 1.574 . S
C2578 C2594 1.368 . S
H2579 C2587 0.950 . S
H2580 C2585 0.950 . S
H2581 C2586 0.949 . S
H2582 C2588 0.950 . S
H2583 C2589 0.950 . S
H2584 C2590 0.949 . S
C2585 H2580 0.950 . S
C2585 C2587 1.327 . S
C2585 C2591 1.429 . S
C2586 C2578 1.574 . S
C2586 H2581 0.949 . S
C2586 C2592 1.368 . S
C2587 C2571 1.349 . S
C2587 H2579 0.950 . S
C2587 C2585 1.327 . S
C2588 C2576 1.349 . S
C2588 H2582 0.950 . S
C2588 C2589 1.327 . S
C2589 H2583 0.950 . S
C2589 C2588 1.327 . S
C2589 C2593 1.429 . S
C2590 C2573 1.574 . S
C2590 H2584 0.949 . S
C2590 C2594 1.368 . S
C2591 C2572 1.429 . S
C2591 C2585 1.429 . S
C2591 C2592 1.523 . S
C2592 C2573 1.368 . S
C2592 C2586 1.368 . S
C2592 C2591 1.523 . S
C2593 C2577 1.429 . S
C2593 C2589 1.429 . S
C2593 C2594 1.523 . S
C2594 C2578 1.368 . S
C2594 C2590 1.368 . S
C2594 C2593 1.523 . S
H2595 C2570 0.950 . S
H2596 C2572 0.950 . S
H2597 C2573 0.949 . S
H2598 C2575 0.950 . S
H2599 C2577 0.950 . S
C2600 C2601 1.349 . S
C2600 C2602 1.327 . S
C2600 H2625 0.950 . S
C2601 C2600 1.349 . S
C2601 C2617 1.349 . S
C2602 C2600 1.327 . S
C2602 C2621 1.429 . S
C2602 H2626 0.950 . S
C2603 C2620 1.574 . S
C2603 C2622 1.368 . S
C2603 H2627 0.949 . S
H2604 C2608 0.949 . S
C2605 C2606 1.349 . S
C2605 C2607 1.327 . S
C2605 H2628 0.950 . S
C2606 C2605 1.349 . S
C2606 C2618 1.349 . S
C2607 C2605 1.327 . S
C2607 C2623 1.429 . S
C2607 H2629 0.950 . S
C2608 H2604 0.949 . S
C2608 C2616 1.574 . S
C2608 C2624 1.368 . S
H2609 C2617 0.950 . S
H2610 C2615 0.950 . S
H2611 C2616 0.949 . S
H2612 C2618 0.950 . S
H2613 C2619 0.950 . S
H2614 C2620 0.949 . S
C2615 H2610 0.950 . S
C2615 C2617 1.327 . S
C2615 C2621 1.429 . S
C2616 C2608 1.574 . S
C2616 H2611 0.949 . S
C2616 C2622 1.368 . S
C2617 C2601 1.349 . S
C2617 H2609 0.950 . S
C2617 C2615 1.327 . S
C2618 C2606 1.349 . S
C2618 H2612 0.950 . S
C2618 C2619 1.327 . S
C2619 H2613 0.950 . S
C2619 C2618 1.327 . S
C2619 C2623 1.429 . S
C2620 C2603 1.574 . S
C2620 H2614 0.949 . S
C2620 C2624 1.368 . S
C2621 C2602 1.429 . S
C2621 C2615 1.429 . S
C2621 C2622 1.523 . S
C2622 C2603 1.368 . S
C2622 C2616 1.368 . S
C2622 C2621 1.523 . S
C2623 C2607 1.429 . S
C2623 C2619 1.429 . S
C2623 C2624 1.523 . S
C2624 C2608 1.368 . S
C2624 C2620 1.368 . S
C2624 C2623 1.523 . S
H2625 C2600 0.950 . S
H2626 C2602 0.950 . S
H2627 C2603 0.949 . S
H2628 C2605 0.950 . S
H2629 C2607 0.950 . S
C2630 C2631 1.349 . S
C2630 C2632 1.327 . S
C2630 H2655 0.950 . S
C2631 C2630 1.349 . S
C2631 C2647 1.349 . S
C2632 C2630 1.327 . S
C2632 C2651 1.429 . S
C2632 H2656 0.950 . S
C2633 C2650 1.574 1_455 S
C2633 C2652 1.368 . S
C2633 H2657 0.949 . S
H2634 C2638 0.949 . S
C2635 C2636 1.349 . S
C2635 C2637 1.327 . S
C2635 H2658 0.950 . S
C2636 C2635 1.349 . S
C2636 C2648 1.349 . S
C2637 C2635 1.327 . S
C2637 C2653 1.429 . S
C2637 H2659 0.950 . S
C2638 H2634 0.949 . S
C2638 C2646 1.574 1_655 S
C2638 C2654 1.368 . S
H2639 C2647 0.950 . S
H2640 C2645 0.950 . S
H2641 C2646 0.949 . S
H2642 C2648 0.950 . S
H2643 C2649 0.950 . S
H2644 C2650 0.949 . S
C2645 H2640 0.950 . S
C2645 C2647 1.327 . S
C2645 C2651 1.429 . S
C2646 C2638 1.574 1_455 S
C2646 H2641 0.949 . S
C2646 C2652 1.368 . S
C2647 C2631 1.349 . S
C2647 H2639 0.950 . S
C2647 C2645 1.327 . S
C2648 C2636 1.349 . S
C2648 H2642 0.950 . S
C2648 C2649 1.327 . S
C2649 H2643 0.950 . S
C2649 C2648 1.327 . S
C2649 C2653 1.429 . S
C2650 C2633 1.574 1_655 S
C2650 H2644 0.949 . S
C2650 C2654 1.368 . S
C2651 C2632 1.429 . S
C2651 C2645 1.429 . S
C2651 C2652 1.523 . S
C2652 C2633 1.368 . S
C2652 C2646 1.368 . S
C2652 C2651 1.523 . S
C2653 C2637 1.429 . S
C2653 C2649 1.429 . S
C2653 C2654 1.523 . S
C2654 C2638 1.368 . S
C2654 C2650 1.368 . S
C2654 C2653 1.523 . S
H2655 C2630 0.950 . S
H2656 C2632 0.950 . S
H2657 C2633 0.949 . S
H2658 C2635 0.950 . S
H2659 C2637 0.950 . S
C2660 C2661 1.349 . S
C2660 C2662 1.327 . S
C2660 H2685 0.950 . S
C2661 C2660 1.349 . S
C2661 C2677 1.349 . S
C2662 C2660 1.327 . S
C2662 C2681 1.429 . S
C2662 H2686 0.950 . S
C2663 C2680 1.574 . S
C2663 C2682 1.368 . S
C2663 H2687 0.949 . S
H2664 C2668 0.949 . S
C2665 C2666 1.349 . S
C2665 C2667 1.327 . S
C2665 H2688 0.950 . S
C2666 C2665 1.349 . S
C2666 C2678 1.349 . S
C2667 C2665 1.327 . S
C2667 C2683 1.429 . S
C2667 H2689 0.950 . S
C2668 H2664 0.949 . S
C2668 C2676 1.574 . S
C2668 C2684 1.368 . S
H2669 C2677 0.950 . S
H2670 C2675 0.950 . S
H2671 C2676 0.949 . S
H2672 C2678 0.950 . S
H2673 C2679 0.950 . S
H2674 C2680 0.949 . S
C2675 H2670 0.950 . S
C2675 C2677 1.327 . S
C2675 C2681 1.429 . S
C2676 C2668 1.574 . S
C2676 H2671 0.949 . S
C2676 C2682 1.368 . S
C2677 C2661 1.349 . S
C2677 H2669 0.950 . S
C2677 C2675 1.327 . S
C2678 C2666 1.349 . S
C2678 H2672 0.950 . S
C2678 C2679 1.327 . S
C2679 H2673 0.950 . S
C2679 C2678 1.327 . S
C2679 C2683 1.429 . S
C2680 C2663 1.574 . S
C2680 H2674 0.949 . S
C2680 C2684 1.368 . S
C2681 C2662 1.429 . S
C2681 C2675 1.429 . S
C2681 C2682 1.523 . S
C2682 C2663 1.368 . S
C2682 C2676 1.368 . S
C2682 C2681 1.523 . S
C2683 C2667 1.429 . S
C2683 C2679 1.429 . S
C2683 C2684 1.523 . S
C2684 C2668 1.368 . S
C2684 C2680 1.368 . S
C2684 C2683 1.523 . S
H2685 C2660 0.950 . S
H2686 C2662 0.950 . S
H2687 C2663 0.949 . S
H2688 C2665 0.950 . S
H2689 C2667 0.950 . S
C2690 C2691 1.349 . S
C2690 C2692 1.327 . S
C2690 H2715 0.950 . S
C2691 C2690 1.349 . S
C2691 C2707 1.349 . S
C2692 C2690 1.327 . S
C2692 C2711 1.429 . S
C2692 H2716 0.950 . S
C2693 C2710 1.574 1_655 S
C2693 C2712 1.368 . S
C2693 H2717 0.949 . S
H2694 C2698 0.949 . S
C2695 C2696 1.349 . S
C2695 C2697 1.327 . S
C2695 H2718 0.950 . S
C2696 C2695 1.349 . S
C2696 C2708 1.349 . S
C2697 C2695 1.327 . S
C2697 C2713 1.429 . S
C2697 H2719 0.950 . S
C2698 H2694 0.949 . S
C2698 C2706 1.574 1_455 S
C2698 C2714 1.368 . S
H2699 C2707 0.950 . S
H2700 C2705 0.950 . S
H2701 C2706 0.949 . S
H2702 C2708 0.950 . S
H2703 C2709 0.950 . S
H2704 C2710 0.949 . S
C2705 H2700 0.950 . S
C2705 C2707 1.327 . S
C2705 C2711 1.429 . S
C2706 C2698 1.574 1_655 S
C2706 H2701 0.949 . S
C2706 C2712 1.368 . S
C2707 C2691 1.349 . S
C2707 H2699 0.950 . S
C2707 C2705 1.327 . S
C2708 C2696 1.349 . S
C2708 H2702 0.950 . S
C2708 C2709 1.327 . S
C2709 H2703 0.950 . S
C2709 C2708 1.327 . S
C2709 C2713 1.429 . S
C2710 C2693 1.574 1_455 S
C2710 H2704 0.949 . S
C2710 C2714 1.368 . S
C2711 C2692 1.429 . S
C2711 C2705 1.429 . S
C2711 C2712 1.523 . S
C2712 C2693 1.368 . S
C2712 C2706 1.368 . S
C2712 C2711 1.523 . S
C2713 C2697 1.429 . S
C2713 C2709 1.429 . S
C2713 C2714 1.523 . S
C2714 C2698 1.368 . S
C2714 C2710 1.368 . S
C2714 C2713 1.523 . S
H2715 C2690 0.950 . S
H2716 C2692 0.950 . S
H2717 C2693 0.949 . S
H2718 C2695 0.950 . S
H2719 C2697 0.950 . S
C1281 C255 1.495 . S
C1286 C15 1.495 . S
C1311 C295 1.735 . S
C1316 C55 1.735 . S
C1341 C175 1.495 . S
C1346 C95 1.495 . S
C1371 C135 1.734 . S
C1376 C215 1.734 . S
C1401 C575 1.493 . S
C1406 C335 1.493 . S
C1431 C615 1.732 . S
C1436 C375 1.732 . S
C1461 C495 1.493 . S
C1466 C415 1.493 . S
C1491 C535 1.732 . S
C1496 C455 1.732 . S
C1521 C655 1.723 . S
C1526 C895 1.723 . S
C1551 C935 1.508 . S
C1556 C695 1.508 . S
C1581 C735 1.723 . S
C1586 C815 1.723 . S
C1611 C855 1.509 . S
C1616 C775 1.509 . S
C1641 C975 1.720 . S
C1646 C1215 1.720 . S
C1671 C1015 1.506 . S
C1676 C1255 1.506 . S
C1701 C1055 1.720 . S
C1706 C1135 1.720 . S
C1731 C1095 1.506 . S
C1736 C1175 1.506 . S
C1761 C301 1.482 . S
C1766 C21 1.476 . S
C1791 C61 1.482 . S
C1796 C181 1.476 . S
C1821 C221 1.482 . S
C1826 C101 1.476 . S
C1851 C141 1.482 . S
C1856 C261 1.476 . S
C1881 C621 1.443 . S
C1886 C341 1.459 . S
C1911 C381 1.443 . S
C1916 C501 1.459 . S
C1941 C541 1.443 . S
C1946 C421 1.459 . S
C1971 C461 1.443 . S
C1976 C581 1.459 . S
C2001 C661 1.818 . S
C2006 C941 1.819 . S
C2031 C701 1.819 . S
C2036 C821 1.818 . S
C2061 C861 1.819 . S
C2066 C741 1.818 . S
C2091 C781 1.819 . S
C2096 C901 1.818 . S
C2121 C1261 1.771 . S
C2126 C981 1.778 . S
C2151 C1021 1.771 . S
C2156 C1141 1.778 . S
C2181 C1061 1.778 . S
C2186 C1181 1.771 . S
C2211 C1101 1.771 . S
C2216 C1221 1.778 . S
C2241 C2 1.486 . S
C2246 C482 1.469 . S
C2271 C42 1.662 . S
C2276 C1162 1.629 . S
C2301 C82 1.486 . S
C2306 C562 1.469 . S
C2331 C122 1.662 . S
C2336 C1242 1.629 . S
C2361 C322 1.469 . S
C2366 C162 1.486 . S
C2391 C202 1.662 . S
C2396 C1002 1.629 . S
C2421 C242 1.486 . S
C2426 C402 1.469 . S
C2451 C1082 1.629 . S
C2456 C282 1.662 . S
C2481 C362 1.637 . S
C2486 C842 1.659 . S
C2511 C922 1.659 . S
C2516 C442 1.637 . S
C2541 C682 1.659 . S
C2546 C522 1.637 . S
C2571 C602 1.637 . S
C2576 C762 1.659 . S
C2601 C642 1.733 . S
C2606 C1122 1.707 . S
C2631 C1202 1.706 . S
C2636 C722 1.733 . S
C2661 C962 1.707 . S
C2666 C802 1.733 . S
C2691 C882 1.733 . S
C2696 C1042 1.706 . S
