# Generated by pormake.
# Topology sne, (6)-cn, num edge types: 1
# Building blocks:
#     Node 0, Type 0, BuildingBlock: KUMBUR_clean_sbu_1, # of connection points: 6
#     Node 1, Type 0, BuildingBlock: KUMBUR_clean_sbu_1, # of connection points: 6
#     Node 2, Type 0, BuildingBlock: KUMBUR_clean_sbu_1, # of connection points: 6
#     Node 3, Type 0, BuildingBlock: KUMBUR_clean_sbu_1, # of connection points: 6
#     Node 4, Type 0, BuildingBlock: KUMBUR_clean_sbu_1, # of connection points: 6
#     Node 5, Type 0, BuildingBlock: KUMBUR_clean_sbu_1, # of connection points: 6
#     Node 6, Type 0, BuildingBlock: KUMBUR_clean_sbu_1, # of connection points: 6
#     Node 7, Type 0, BuildingBlock: KUMBUR_clean_sbu_1, # of connection points: 6
#     Edge 8, Type (0, 0), None
#     Edge 9, Type (0, 0), None
#     Edge 10, Type (0, 0), None
#     Edge 11, Type (0, 0), None
#     Edge 12, Type (0, 0), None
#     Edge 13, Type (0, 0), None
#     Edge 14, Type (0, 0), None
#     Edge 15, Type (0, 0), None
#     Edge 16, Type (0, 0), None
#     Edge 17, Type (0, 0), None
#     Edge 18, Type (0, 0), None
#     Edge 19, Type (0, 0), None
#     Edge 20, Type (0, 0), None
#     Edge 21, Type (0, 0), None
#     Edge 22, Type (0, 0), None
#     Edge 23, Type (0, 0), None
#     Edge 24, Type (0, 0), None
#     Edge 25, Type (0, 0), None
#     Edge 26, Type (0, 0), None
#     Edge 27, Type (0, 0), None
#     Edge 28, Type (0, 0), None
#     Edge 29, Type (0, 0), None
#     Edge 30, Type (0, 0), None
#     Edge 31, Type (0, 0), None
# Relax obj value: 0.325
# Max RMSD: 0.311
# Mean RMSD: 0.309
data_MOF--net-sne--node1-KUMBUR_clean_sbu_1--edge1-none
_symmetry_space_group_name_H-M    P1
_symmetry_Int_Tables_number       1
_symmetry_cell_setting            triclinic
loop_
_symmetry_equiv_pos_as_xyz
'x, y, z'
_cell_length_a     24.858851
_cell_length_b     25.039512
_cell_length_c     13.016606
_cell_angle_alpha  90.017616
_cell_angle_beta   90.163898
_cell_angle_gamma 92.830264
loop_
_atom_site_label
_atom_site_type_symbol
_atom_site_fract_x
_atom_site_fract_y
_atom_site_fract_z
_atom_type_partial_charge
Tb0 Tb 0.31742 0.18324 0.43308 0.0
C1 C 0.12204 0.06801 0.4043 0.0
N2 N 0.1204 0.11355 0.35136 0.0
C3 C 0.09107 0.06184 0.20468 0.0
C4 C 0.12049 0.01817 0.35675 0.0
C5 C 0.10139 0.11197 0.25293 0.0
C6 C 0.10345 0.01485 0.25529 0.0
C7 C 0.13771 0.02953 0.56703 0.0
C8 C 0.12681 0.07267 0.50686 0.0
C9 C 0.14988 0.98204 0.51752 0.0
C10 C 0.13907 0.97512 0.41227 0.0
Tb11 Tb 0.16203 0.18369 0.44108 0.0
N12 N 0.12614 0.12185 0.54724 0.0
C13 C 0.13771 0.03732 0.67323 0.0
C14 C 0.11439 0.1287 0.648 0.0
C15 C 0.11764 0.08453 0.71189 0.0
H16 H 0.09967 0.14877 0.21113 0.0
H17 H 0.10416 0.08605 0.7883 0.0
H18 H 0.37673 0.13484 0.64227 0.0
H19 H 0.28088 0.38846 0.35863 0.0
H20 H 0.10791 0.168 0.67883 0.0
H21 H 0.14811 0.00584 0.72521 0.0
H22 H 0.2453 0.29803 0.39823 0.0
H23 H 0.07732 0.05823 0.12713 0.0
H24 H 0.1627 0.94953 0.56151 0.0
H25 H 0.14415 0.9368 0.37594 0.0
H26 H 0.4682 0.15588 0.70921 0.0
H27 H 0.1 0.97676 0.21589 0.0
H28 H 0.38066 0.41043 0.37191 0.0
N29 N 0.37452 0.20751 0.55927 0.0
C30 C 0.4002 0.2539 0.53148 0.0
C31 C 0.44908 0.18474 0.66137 0.0
C32 C 0.45323 0.26658 0.56119 0.0
C33 C 0.3968 0.17322 0.62597 0.0
C34 C 0.47755 0.23183 0.62868 0.0
N35 N 0.32218 0.272 0.44085 0.0
C36 C 0.28767 0.30831 0.40727 0.0
C37 C 0.39816 0.33296 0.42724 0.0
C38 C 0.37345 0.28646 0.46563 0.0
C39 C 0.36436 0.37081 0.38727 0.0
C40 C 0.30824 0.35947 0.38369 0.0
H41 H 0.51898 0.24001 0.6512 0.0
H42 H 0.52309 0.31989 0.5316 0.0
H43 H 0.47373 0.37773 0.41392 0.0
O44 O 0.38688 0.19815 0.33709 0.0
O45 O 0.28688 0.21385 0.59219 0.0
O46 O 0.19566 0.23177 0.57828 0.0
O47 O 0.37911 0.1292 0.43069 0.0
O48 O 0.28874 0.21546 0.27976 0.0
O49 O 0.19596 0.22488 0.29566 0.0
O50 O 0.07622 0.18416 0.44817 0.0
O51 O 0.19833 0.14281 0.30915 0.0
O52 O 0.27818 0.11203 0.36526 0.0
O53 O 0.12347 0.25678 0.43051 0.0
O54 O 0.21005 0.13836 0.56316 0.0
O55 O 0.2877 0.1079 0.49647 0.0
C56 C 0.24155 0.2338 0.63333 0.0
C57 C 0.46855 0.16404 0.41106 0.0
C58 C 0.55644 0.21391 0.42931 0.0
C59 C 0.57098 0.1773 0.50467 0.0
C60 C 0.48782 0.1249 0.47774 0.0
C61 C 0.53781 0.13228 0.52597 0.0
C62 C 0.50454 0.20719 0.38281 0.0
C63 C 0.24206 0.23099 0.24094 0.0
C64 C 0.41149 0.15753 0.37279 0.0
C65 C 0.48107 0.31033 0.51407 0.0
C66 C 0.45349 0.34292 0.4454 0.0
C67 C 0.23501 0.10665 0.30907 0.0
C68 C 0.03615 0.26401 0.51174 0.0
C69 C 0.94416 0.28211 0.57963 0.0
C70 C 0.96815 0.32848 0.62532 0.0
C71 C 0.05625 0.31047 0.5618 0.0
C72 C 0.97931 0.24914 0.52221 0.0
C73 C 0.02267 0.34191 0.61777 0.0
C74 C 0.24708 0.10103 0.55784 0.0
C75 C 0.07468 0.23563 0.44274 0.0
H76 H 0.61094 0.18018 0.53821 0.0
H77 H 0.46302 0.08958 0.49719 0.0
H78 H 0.55101 0.10272 0.57986 0.0
H79 H 0.49338 0.23402 0.32193 0.0
H80 H 0.94574 0.35292 0.67598 0.0
H81 H 0.09841 0.32318 0.55727 0.0
H82 H 0.96283 0.21317 0.48533 0.0
H83 H 0.03901 0.37672 0.65828 0.0
Tb84 Tb 0.18328 0.81969 0.71464 0.0
C85 C 0.21437 0.60261 0.50657 0.0
N86 N 0.17335 0.6185 0.56574 0.0
C87 C 0.10692 0.56671 0.47609 0.0
C88 C 0.20578 0.55113 0.43785 0.0
C89 C 0.12118 0.60159 0.55049 0.0
C90 C 0.14602 0.54093 0.42648 0.0
C91 C 0.35526 0.5629 0.45995 0.0
C92 C 0.27278 0.61887 0.5399 0.0
C93 C 0.34399 0.5212 0.38134 0.0
C94 C 0.28496 0.50451 0.36515 0.0
Tb95 Tb 0.19421 0.65919 0.71292 0.0
N96 N 0.25595 0.59735 0.65253 0.0
C97 C 0.3698 0.50965 0.55111 0.0
C98 C 0.27781 0.54299 0.71057 0.0
C99 C 0.33038 0.50025 0.66659 0.0
H100 H 0.08904 0.61567 0.59764 0.0
H101 H 0.34047 0.46749 0.71556 0.0
H102 H 0.18338 0.83816 0.97212 0.0
H103 H 0.05128 0.89186 0.42288 0.0
H104 H 0.26956 0.53692 0.78963 0.0
H105 H 0.39921 0.48075 0.5323 0.0
H106 H 0.11978 0.83452 0.49301 0.0
H107 H 0.06465 0.55536 0.46421 0.0
H108 H 0.37621 0.49773 0.35487 0.0
H109 H 0.28629 0.47016 0.3149 0.0
H110 H 0.13587 0.89229 0.09628 0.0
H111 H 0.12499 0.51044 0.38065 0.0
H112 H 0.03005 0.97004 0.52342 0.0
N113 N 0.14369 0.86905 0.84064 0.0
C114 C 0.1076 0.90376 0.80838 0.0
C115 C 0.129 0.8971 1.01491 0.0
C116 C 0.08529 0.94058 0.87618 0.0
C117 C 0.1553 0.86585 0.94348 0.0
C118 C 0.09649 0.93699 0.98059 0.0
N119 N 0.1148 0.86556 0.64558 0.0
C120 C 0.10045 0.8619 0.54364 0.0
C121 C 0.05942 0.9402 0.66722 0.0
C122 C 0.09296 0.90213 0.70706 0.0
C123 C 0.04599 0.93683 0.56283 0.0
C124 C 0.06185 0.89428 0.50354 0.0
H125 H 0.07893 0.96364 1.03521 0.0
H126 H 0.03634 0.00952 0.88701 0.0
H127 H 0.02107 0.0143 0.70248 0.0
O128 O 0.21357 0.88226 0.61709 0.0
O129 O 0.14099 0.77396 0.83898 0.0
O130 O 0.12078 0.69076 0.7685 0.0
O131 O 0.25133 0.86975 0.75934 0.0
O132 O 0.10832 0.77869 0.65317 0.0
O133 O 0.14002 0.69857 0.59967 0.0
O134 O 0.20779 0.59808 0.82118 0.0
O135 O 0.24847 0.70878 0.59961 0.0
O136 O 0.20751 0.78525 0.55951 0.0
O137 O 0.12995 0.60536 0.75796 0.0
O138 O 0.23221 0.69681 0.85619 0.0
O139 O 0.23224 0.78991 0.84859 0.0
C140 C 0.11377 0.7274 0.83734 0.0
C141 C 0.25355 0.96265 0.6986 0.0
C142 C 0.2538 0.05838 0.63907 0.0
C143 C 0.26172 0.07474 0.74057 0.0
C144 C 0.25849 0.98232 0.79934 0.0
C145 C 0.26654 0.03712 0.81868 0.0
C146 C 0.2559 0.00191 0.61746 0.0
C147 C 0.104 0.73603 0.59427 0.0
C148 C 0.24911 0.90196 0.68096 0.0
C149 C 0.05287 0.97981 0.83724 0.0
C150 C 0.04285 0.98154 0.73184 0.0
C151 C 0.23379 0.74352 0.52614 0.0
C152 C 0.15875 0.51532 0.77165 0.0
C153 C 0.20041 0.42712 0.76764 0.0
C154 C 0.16734 0.41211 0.68448 0.0
C155 C 0.12456 0.4973 0.69151 0.0
C156 C 0.19163 0.4771 0.81631 0.0
C157 C 0.12979 0.44702 0.64675 0.0
C158 C 0.24007 0.74485 0.90078 0.0
C159 C 0.16097 0.57345 0.80569 0.0
H160 H 0.26481 0.11694 0.75949 0.0
H161 H 0.25765 0.95519 0.86386 0.0
H162 H 0.27528 0.05094 0.8958 0.0
H163 H 0.25604 0.98858 0.53842 0.0
H164 H 0.16926 0.37262 0.65116 0.0
H165 H 0.09283 0.52146 0.66442 0.0
H166 H 0.21153 0.48743 0.88804 0.0
H167 H 0.10419 0.43497 0.58266 0.0
Tb168 Tb 0.67065 0.79873 0.4711 0.0
C169 C 0.88781 0.91305 0.42366 0.0
N170 N 0.86434 0.87464 0.36354 0.0
C171 C 0.90317 0.91809 0.21701 0.0
C172 C 0.91496 0.9585 0.38215 0.0
C173 C 0.87303 0.87534 0.26029 0.0
C174 C 0.92475 0.95969 0.27743 0.0
C175 C 0.92557 0.93476 0.58779 0.0
C176 C 0.89483 0.90086 0.5249 0.0
C177 C 0.93724 0.98771 0.55345 0.0
C178 C 0.93461 -0.00117 0.4483 0.0
Tb179 Tb 0.82433 0.80501 0.45087 0.0
N180 N 0.8777 0.85193 0.55754 0.0
C181 C 0.94301 0.91346 0.68143 0.0
C182 C 0.89781 0.82961 0.64399 0.0
C183 C 0.93193 0.86011 0.70708 0.0
H184 H 0.85662 0.84319 0.21228 0.0
H185 H 0.94624 0.84392 0.77851 0.0
H186 H 0.59544 0.82182 0.68146 0.0
H187 H 0.75453 0.60592 0.4049 0.0
H188 H 0.88668 0.7887 0.66419 0.0
H189 H 0.95769 0.93874 0.74193 0.0
H190 H 0.76378 0.70195 0.4397 0.0
H191 H 0.90723 0.92142 0.13732 0.0
H192 H 0.95455 0.01828 0.60304 0.0
H193 H 0.95163 0.03645 0.41888 0.0
H194 H 0.51193 0.77543 0.74989 0.0
H195 H 0.94738 0.99292 0.2422 0.0
H196 H 0.66541 0.55762 0.4163 0.0
N197 N 0.61152 0.7578 0.58112 0.0
C198 C 0.59736 0.70769 0.54973 0.0
C199 C 0.53704 0.75549 0.69671 0.0
C200 C 0.55039 0.68038 0.58551 0.0
C201 C 0.58391 0.78149 0.65743 0.0
C202 C 0.51962 0.70528 0.65923 0.0
N203 N 0.68074 0.70916 0.46743 0.0
C204 C 0.7249 0.68196 0.44335 0.0
C205 C 0.62532 0.62796 0.46701 0.0
C206 C 0.63377 0.68218 0.48996 0.0
C207 C 0.66921 0.60023 0.43131 0.0
C208 C 0.71963 0.62714 0.42402 0.0
H209 H 0.48323 0.68575 0.68953 0.0
H210 H 0.5007 0.60698 0.57336 0.0
H211 H 0.56727 0.56116 0.47021 0.0
O212 O 0.60626 0.78572 0.36296 0.0
O213 O 0.69989 0.77495 0.62573 0.0
O214 O 0.79119 0.76181 0.59698 0.0
O215 O 0.60424 0.8465 0.47631 0.0
O216 O 0.7016 0.77221 0.31256 0.0
O217 O 0.79439 0.76339 0.3128 0.0
O218 O 0.90727 0.80036 0.4222 0.0
O219 O 0.77467 0.85902 0.34286 0.0
O220 O 0.69869 0.87681 0.43237 0.0
O221 O 0.85993 0.72817 0.46012 0.0
O222 O 0.79304 0.84644 0.5816 0.0
O223 O 0.70768 0.87263 0.55442 0.0
C224 C 0.74704 0.75827 0.65807 0.0
C225 C 0.51912 0.80952 0.42438 0.0
C226 C 0.42811 0.7763 0.37517 0.0
C227 C 0.41136 0.78613 0.47661 0.0
C228 C 0.49776 0.82631 0.51844 0.0
C229 C 0.4457 0.81126 0.54699 0.0
C230 C 0.48328 0.78551 0.35035 0.0
C231 C 0.74742 0.75808 0.26641 0.0
C232 C 0.57738 0.82197 0.40354 0.0
C233 C 0.53748 0.62849 0.54966 0.0
C234 C 0.57501 0.60245 0.48987 0.0
C235 C 0.7328 0.88995 0.36207 0.0
C236 C 0.96085 0.72477 0.46201 0.0
C237 C 0.05705 0.72585 0.51983 0.0
C238 C 0.06607 0.69039 0.43873 0.0
C239 C 0.97133 0.68168 0.39796 0.0
C240 C 0.00394 0.74614 0.52714 0.0
C241 C 0.02365 0.6661 0.38358 0.0
C242 C 0.75838 0.88414 0.585 0.0
C243 C 0.90792 0.74984 0.44117 0.0
H244 H 0.37002 0.77754 0.49999 0.0
H245 H 0.52143 0.85072 0.57198 0.0
H246 H 0.43093 0.82185 0.6221 0.0
H247 H 0.4975 0.77644 0.27401 0.0
H248 H 0.10647 0.67941 0.42016 0.0
H249 H 0.93969 0.66349 0.35019 0.0
H250 H 0.99639 0.77748 0.58171 0.0
H251 H 0.03169 0.63619 0.32628 0.0
Tb252 Tb 0.78941 0.33997 0.72807 0.0
C253 C 0.77469 0.10667 0.90237 0.0
N254 N 0.80764 0.15562 0.8967 0.0
C255 C 0.85811 0.16696 1.09037 0.0
C256 C 0.7746 0.05175 1.05895 0.0
C257 C 0.84248 0.18197 0.97801 0.0
C258 C 0.83912 0.11612 0.15094 0.0
C259 C 0.70117 0.0178 0.8064 0.0
C260 C 0.73623 0.08133 0.80161 0.0
C261 C 0.69912 0.97306 0.92164 0.0
C262 C 0.73434 0.98968 1.04367 0.0
Tb263 Tb 0.80129 0.17868 0.72428 0.0
N264 N 0.72865 0.11574 0.72535 0.0
C265 C 0.66712 0.01031 0.72219 0.0
C266 C 0.69076 0.10253 0.65186 0.0
C267 C 0.66147 0.05203 0.64975 0.0
H268 H 0.85858 0.22009 0.96663 0.0
H269 H 0.63356 0.04453 0.58683 0.0
H270 H 0.80694 0.35976 0.47629 0.0
H271 H 0.8722 0.44998 1.053 0.0
H272 H 0.68573 0.12963 0.58833 0.0
H273 H 0.64224 0.97378 0.71561 0.0
H274 H 0.81451 0.3813 0.96446 0.0
H275 H 0.88389 0.19569 0.13167 0.0
H276 H 0.6745 0.93631 0.91697 0.0
H277 H 0.73735 0.95998 0.10166 0.0
H278 H 0.87096 0.41029 0.36315 0.0
H279 H 0.82235 0.09653 0.13409 0.0
H280 H 0.93755 0.50697 0.95379 0.0
N281 N 0.84258 0.39041 0.61472 0.0
C282 C 0.87817 0.42729 0.6559 0.0
C283 C 0.87274 0.41609 0.44547 0.0
C284 C 0.9129 0.4597 0.5939 0.0
C285 C 0.83682 0.38732 0.50985 0.0
C286 C 0.91058 0.45284 0.48753 0.0
N287 N 0.84668 0.39878 0.81629 0.0
C288 C 0.84321 0.40562 0.92033 0.0
C289 C 0.91474 0.4708 0.80802 0.0
C290 C 0.88013 0.43171 0.76072 0.0
C291 C 0.91221 0.47694 0.91457 0.0
C292 C 0.8755 0.44483 0.97074 0.0
H293 H 0.93743 0.47599 0.43725 0.0
H294 H 0.97623 0.5225 0.59394 0.0
H295 H 0.97688 0.53321 0.7821 0.0
O296 O 0.72944 0.38448 0.659 0.0
O297 O 0.85867 0.31277 0.63629 0.0
O298 O 0.86853 0.22022 0.633 0.0
O299 O 0.75097 0.39809 0.8155 0.0
O300 O 0.82886 0.28901 0.83517 0.0
O301 O 0.87656 0.22122 0.78164 0.0
O302 O 0.7939 0.11704 0.60901 0.0
O303 O 0.75109 0.20864 0.86862 0.0
O304 O 0.75143 0.3021 0.87515 0.0
O305 O 0.85258 0.11377 0.72648 0.0
O306 O 0.76462 0.2126 0.58118 0.0
O307 O 0.74435 0.3019 0.59366 0.0
C308 C 0.88464 0.27008 0.60635 0.0
C309 C 0.74393 0.47581 0.71597 0.0
C310 C 0.75594 0.56854 0.77627 0.0
C311 C 0.77396 0.58414 0.67863 0.0
C312 C 0.76236 0.49285 0.6187 0.0
C313 C 0.77835 0.54621 0.6014 0.0
C314 C 0.74293 0.514 0.79608 0.0
C315 C 0.87627 0.26986 0.82139 0.0
C316 C 0.72902 0.41817 0.7356 0.0
C317 C 0.94907 0.49737 0.64019 0.0
C318 C 0.94964 0.50327 0.74722 0.0
C319 C 0.74117 0.25451 0.92243 0.0
C320 C 0.82054 0.02684 0.65878 0.0
C321 C 0.77679 0.93356 0.64496 0.0
C322 C 0.80911 0.9193 0.72617 0.0
C323 C 0.85948 0.0037 0.71716 0.0
C324 C 0.78036 0.98967 0.61299 0.0
C325 C 0.85111 0.95281 0.75675 0.0
C326 C 0.74736 0.25707 0.53873 0.0
C327 C 0.82972 0.08783 0.64932 0.0
H328 H 0.78556 0.6256 0.66266 0.0
H329 H 0.76486 0.46498 0.55571 0.0
H330 H 0.79444 0.55824 0.52784 0.0
H331 H 0.73084 0.50163 0.8727 0.0
H332 H 0.80644 0.87928 0.75826 0.0
H333 H 0.89528 0.02684 0.74167 0.0
H334 H 0.75392 0.00383 0.55509 0.0
H335 H 0.87748 0.93971 0.8147 0.0
Tb336 Tb 0.16291 0.30707 0.95178 0.0
C337 C 0.42326 0.37454 0.83301 0.0
N338 N 0.3813 0.34068 0.80442 0.0
C339 C 0.39186 0.37531 0.63679 0.0
C340 C 0.46197 0.39321 0.75966 0.0
C341 C 0.36526 0.34102 0.7047 0.0
C342 C 0.44378 0.39509 0.65877 0.0
C343 C 0.43497 0.46262 0.90583 0.0
C344 C 0.40796 0.41102 0.90386 0.0
C345 C 0.48579 0.47004 0.86107 0.0
C346 C 0.50067 0.43304 0.78782 0.0
Tb347 Tb 0.32008 0.315 0.92789 0.0
N348 N 0.35534 0.40392 0.9299 0.0
C349 C 0.40512 0.50702 0.92351 0.0
C350 C 0.32559 0.44821 0.92472 0.0
C351 C 0.34966 0.49994 0.92247 0.0
H352 H 0.32727 0.32271 0.6808 0.0
H353 H 0.32528 0.53445 0.92452 0.0
H354 H 0.11171 0.36291 0.16317 0.0
H355 H 0.18979 0.09886 0.88996 0.0
H356 H 0.2832 0.44509 0.92814 0.0
H357 H 0.42348 0.54719 0.92207 0.0
H358 H 0.22331 0.19213 0.89856 0.0
H359 H 0.37032 0.38984 0.57259 0.0
H360 H 0.50766 0.5084 0.86569 0.0
H361 H 0.53319 0.44431 0.73598 0.0
H362 H 0.03338 0.33911 0.27614 0.0
H363 H 0.46494 0.42016 0.6025 0.0
H364 H 0.1009 0.07098 0.96158 0.0
N365 N 0.10559 0.28903 1.08313 0.0
C366 C 0.07999 0.24044 1.0732 0.0
C367 C 0.04604 0.31109 0.21882 0.0
C368 C 0.03343 0.22639 0.1296 0.0
C369 C 0.09077 0.32417 0.15644 0.0
C370 C 0.01626 0.26264 0.20318 0.0
N371 N 0.15196 0.21794 0.96777 0.0
C372 C 0.18396 0.18098 0.92783 0.0
C373 C 0.08226 0.15108 1.00601 0.0
C374 C 0.1041 0.20339 1.0123 0.0
C375 C 0.11466 0.11257 0.96485 0.0
C376 C 0.16562 0.12775 0.92575 0.0
H377 H 0.98097 0.25318 0.2496 0.0
H378 H 0.97067 0.16435 0.15311 0.0
H379 H 0.01133 0.09956 1.03803 0.0
O380 O 0.09691 0.29173 0.84874 0.0
O381 O 0.19147 0.26977 0.09707 0.0
O382 O 0.28431 0.26853 1.07272 0.0
O383 O 0.10246 0.36171 0.94122 0.0
O384 O 0.19575 0.27572 0.7935 0.0
O385 O 0.28758 0.26015 0.80183 0.0
O386 O 0.39116 0.31513 1.01806 0.0
O387 O 0.27136 0.36148 0.8107 0.0
O388 O 0.2039 0.37839 0.91483 0.0
O389 O 0.36369 0.2451 0.93173 0.0
O390 O 0.2785 0.33955 1.06242 0.0
O391 O 0.20282 0.38058 1.03706 0.0
C392 C 0.23919 0.25487 0.12907 0.0
C393 C 0.01455 0.32493 0.91406 0.0
C394 C 0.9214 0.29107 0.88807 0.0
C395 C 0.90803 0.31368 0.983 0.0
C396 C 0.99729 0.35306 1.00074 0.0
C397 C 0.94554 0.34469 1.03832 0.0
C398 C 0.9761 0.29276 0.85833 0.0
C399 C 0.24136 0.25806 0.74866 0.0
C400 C 0.07168 0.33265 0.88098 0.0
C401 C 0.00715 0.17612 0.11228 0.0
C402 C 0.0308 0.13894 1.04761 0.0
C403 C 0.22519 0.38446 0.8275 0.0
C404 C 0.45776 0.25223 0.9791 0.0
C405 C 0.54847 0.23534 1.04471 0.0
C406 C 0.56224 0.21625 0.94796 0.0
C407 C 0.47392 0.23468 0.88325 0.0
C408 C 0.49559 0.25286 1.06088 0.0
C409 C 0.52525 0.21554 0.8684 0.0
C410 C 0.25206 0.38188 1.07875 0.0
C411 C 0.40062 0.26591 0.99451 0.0
H412 H 0.8674 0.30952 1.01273 0.0
H413 H 0.02401 0.38111 1.0416 0.0
H414 H 0.93374 0.36421 0.10838 0.0
H415 H 0.98821 0.27126 0.79089 0.0
H416 H 0.60235 0.20321 0.93247 0.0
H417 H 0.44554 0.23603 0.82149 0.0
H418 H 0.48414 0.26707 0.13596 0.0
H419 H 0.53758 0.20003 0.79557 0.0
Tb420 Tb 0.2994 0.83246 0.21443 0.0
C421 C 0.2811 0.59238 0.37518 0.0
N422 N 0.31584 0.64029 0.37149 0.0
C423 C 0.36921 0.64536 0.56247 0.0
C424 C 0.28087 0.53496 0.52725 0.0
C425 C 0.35448 0.66244 0.45041 0.0
C426 C 0.34777 0.5943 0.62072 0.0
C427 C 0.20345 0.50797 0.27716 0.0
C428 C 0.24066 0.57057 0.27519 0.0
C429 C 0.20254 0.46038 0.38825 0.0
C430 C 0.2393 0.4738 0.50949 0.0
Tb431 Tb 0.30745 0.66963 0.20472 0.0
N432 N 0.23336 0.60731 0.20279 0.0
C433 C 0.16609 0.50479 0.19723 0.0
C434 C 0.19332 0.59746 0.13182 0.0
C435 C 0.16057 0.54886 0.12976 0.0
H436 H 0.38256 0.69174 0.42797 0.0
H437 H 0.13019 0.54465 1.07019 0.0
H438 H 0.2932 0.88156 0.9796 0.0
H439 H 0.40515 0.92148 0.54035 0.0
H440 H 0.18799 0.62616 1.07124 0.0
H441 H 0.13891 0.46986 0.19044 0.0
H442 H 0.33404 0.86605 0.45182 0.0
H443 H 0.39946 0.67016 0.60196 0.0
H444 H 0.17813 0.42353 0.382 0.0
H445 H 0.24159 0.44259 0.56546 0.0
H446 H 0.35095 0.93834 0.86424 0.0
H447 H 0.32953 0.57525 0.60223 0.0
H448 H 0.47749 0.96809 0.4396 0.0
N449 N 0.34752 0.88917 0.10596 0.0
C450 C 0.39264 0.91472 0.14357 0.0
C451 C 0.36252 0.93264 0.94332 0.0
C452 C 0.42586 0.94865 1.0818 0.0
C453 C 0.33042 0.89993 1.00853 0.0
C454 C 0.4109 0.95636 0.97958 0.0
N455 N 0.36573 0.88121 0.30254 0.0
C456 C 0.36556 0.88626 0.40721 0.0
C457 C 0.44427 0.94162 0.29333 0.0
C458 C 0.40218 0.91052 0.24658 0.0
C459 C 0.44633 0.94401 0.4005 0.0
C460 C 0.40553 0.91786 0.45752 0.0
H461 H 0.43552 0.98168 0.92902 0.0
H462 H 0.49784 0.00125 1.07923 0.0
H463 H 0.51319 -0.00392 0.26616 0.0
O464 O 0.22487 0.8666 0.17853 0.0
O465 O 0.35972 0.80607 0.1025 0.0
O466 O 0.37162 0.71326 0.11061 0.0
O467 O 0.27781 0.90063 0.29341 0.0
O468 O 0.33778 0.77891 0.31606 0.0
O469 O 0.38425 0.71293 0.2541 0.0
O470 O 0.29903 0.60866 1.09037 0.0
O471 O 0.26119 0.6975 0.35205 0.0
O472 O 0.26404 0.79106 0.36012 0.0
O473 O 0.3604 0.60636 0.20522 0.0
O474 O 0.26494 0.7025 1.06756 0.0
O475 O 0.26568 0.79588 1.06509 0.0
C476 C 0.38487 0.7624 1.07587 0.0
C477 C 0.23214 0.96361 0.20215 0.0
C478 C 0.23064 0.06043 0.23742 0.0
C479 C 0.21665 0.06866 0.13497 0.0
C480 C 0.22262 0.97414 0.0989 0.0
C481 C 0.21232 0.02552 1.06686 0.0
C482 C 0.23912 0.00761 0.27074 0.0
C483 C 0.38483 0.76019 0.29953 0.0
C484 C 0.23545 0.90764 0.2395 0.0
C485 C 0.47123 0.97567 0.12559 0.0
C486 C 0.48021 0.97246 0.23175 0.0
C487 C 0.25329 0.74318 0.40612 0.0
C488 C 0.32863 0.5205 0.13843 0.0
C489 C 0.2846 0.42808 0.12855 0.0
C490 C 0.33207 0.41021 0.17167 0.0
C491 C 0.37647 0.49675 0.16132 0.0
C492 C 0.28226 0.48529 0.11322 0.0
C493 C 0.37713 0.44285 0.18225 0.0
C494 C 0.25892 0.74826 1.01741 0.0
C495 C 0.33609 0.58061 0.12976 0.0
H496 H 0.20953 0.10857 0.10838 0.0
H497 H 0.22263 0.9426 1.04271 0.0
H498 H 0.20011 0.03084 0.98873 0.0
H499 H 0.2489 0.00058 0.35058 0.0
H500 H 0.33748 0.36836 0.18753 0.0
H501 H 0.41333 0.52125 0.16608 0.0
H502 H 0.24899 0.50098 1.07183 0.0
H503 H 0.41219 0.42458 0.20949 0.0
Tb504 Tb 0.83018 0.69544 0.96554 0.0
C505 C 0.62181 0.572 0.91 0.0
N506 N 0.63269 0.61832 0.8596 0.0
C507 C 0.62819 0.5709 0.7006 0.0
C508 C 0.61715 0.52291 0.8583 0.0
C509 C 0.63099 0.61937 0.75465 0.0
C510 C 0.62031 0.52278 0.75231 0.0
C511 C 0.61069 0.52749 1.0719 0.0
C512 C 0.61831 0.57383 1.01486 0.0
C513 C 0.61354 0.47876 1.02181 0.0
C514 C 0.61521 0.47561 0.91507 0.0
Tb515 Tb 0.67075 0.68336 0.96458 0.0
N516 N 0.62797 0.62119 1.06225 0.0
C517 C 0.6044 0.53219 0.17777 0.0
C518 C 0.61434 0.62791 0.1625 0.0
C519 C 0.60013 0.58272 0.22071 0.0
H520 H 0.64151 0.65613 0.7146 0.0
H521 H 0.58764 0.58625 0.29825 0.0
H522 H 0.91352 0.67803 0.16782 0.0
H523 H 0.73744 0.88407 0.97865 0.0
H524 H 0.61757 0.66708 0.19768 0.0
H525 H 0.60218 0.49768 0.22651 0.0
H526 H 0.73539 0.78732 0.96167 0.0
H527 H 0.63871 0.56901 0.62162 0.0
H528 H 0.61759 0.44429 1.06559 0.0
H529 H 0.6165 0.43696 0.87788 0.0
H530 H 0.00052 0.72515 0.21979 0.0
H531 H 0.62075 0.4855 0.71112 0.0
H532 H 0.82578 0.93634 0.98105 0.0
N533 N 0.89473 0.73859 1.06169 0.0
C534 C 0.90786 0.78742 1.024 0.0
C535 C 0.974 0.74322 0.16617 0.0
C536 C 0.9565 0.815 1.04966 0.0
C537 C 0.92493 0.71705 0.13704 0.0
C538 C 0.99081 0.79144 0.11945 0.0
N539 N 0.82033 0.78427 0.96076 0.0
C540 C 0.77337 0.80962 0.9605 0.0
C541 C 0.87213 0.86745 0.96309 0.0
C542 C 0.86787 0.81223 0.97308 0.0
C543 C 0.82424 0.89411 0.96847 0.0
C544 C 0.77462 0.86499 0.96868 0.0
H545 H 0.02891 0.81117 0.14135 0.0
H546 H 0.0038 0.88861 1.02808 0.0
H547 H 0.92937 0.93613 0.95439 0.0
O548 O 0.89875 0.70553 0.86776 0.0
O549 O 0.7967 0.72199 0.11776 0.0
O550 O 0.70249 0.72552 0.10598 0.0
O551 O 0.89153 0.64097 0.97385 0.0
O552 O 0.79726 0.72221 0.81048 0.0
O553 O 0.70344 0.72858 0.8231 0.0
O554 O 0.58518 0.68361 0.95302 0.0
O555 O 0.71894 0.64726 0.84538 0.0
O556 O 0.79681 0.61928 0.90875 0.0
O557 O 0.63297 0.75718 0.98186 0.0
O558 O 0.71065 0.62439 1.06852 0.0
O559 O 0.80449 0.63476 1.07719 0.0
C560 C 0.74865 0.73391 0.15684 0.0
C561 C 0.98097 0.67395 0.93981 0.0
C562 C 0.07209 0.71352 0.91323 0.0
C563 C 0.08887 0.69048 1.00493 0.0
C564 C 0.00081 0.64653 1.02563 0.0
C565 C 0.05364 0.6564 1.05989 0.0
C566 C 0.01773 0.70619 0.88168 0.0
C567 C 0.75005 0.73654 0.77076 0.0
C568 C 0.92308 0.66602 0.90896 0.0
C569 C 0.9665 0.8667 1.01097 0.0
C570 C 0.9238 0.89352 0.96718 0.0
C571 C 0.75293 0.60959 0.85674 0.0
C572 C 0.53386 0.76424 0.97903 0.0
C573 C 0.43607 0.77257 1.01423 0.0
C574 C 0.43815 0.81756 0.95004 0.0
C575 C 0.53437 0.81377 0.92907 0.0
C576 C 0.48441 0.74403 1.02505 0.0
C577 C 0.48664 0.83909 0.9115 0.0
C578 C 0.75852 0.60928 0.10064 0.0
C579 C 0.58465 0.73418 0.97371 0.0
H580 H 0.13054 0.69525 1.02914 0.0
H581 H 0.97493 0.61887 1.06911 0.0
H582 H 0.06766 0.63652 0.12803 0.0
H583 H 0.00494 0.72316 0.80949 0.0
H584 H 0.4018 0.83681 0.93076 0.0
H585 H 0.57112 0.83072 0.89505 0.0
H586 H 0.48399 0.70769 1.07021 0.0
H587 H 0.48702 0.87508 0.86542 0.0
Tb588 Tb 0.66501 0.32649 0.23586 0.0
C589 C 0.70592 0.11669 1.02995 0.0
N590 N 0.6635 0.13135 1.08657 0.0
C591 C 0.59962 0.07883 0.99216 0.0
C592 C 0.69992 0.06441 0.96421 0.0
C593 C 0.61165 0.11356 1.06759 0.0
C594 C 0.64045 0.05318 0.94776 0.0
C595 C 0.84866 0.082 0.99317 0.0
C596 C 0.76334 0.13507 1.06576 0.0
C597 C 0.83987 0.03817 0.91879 0.0
C598 C 0.78114 0.01899 0.89982 0.0
Tb599 Tb 0.68375 0.16976 0.23619 0.0
N600 N 0.74721 0.11424 0.1795 0.0
C601 C 0.86471 0.03126 1.08813 0.0
C602 C 0.77138 0.06272 0.2419 0.0
C603 C 0.82473 0.02215 0.20199 0.0
H604 H 0.57847 0.1263 0.11379 0.0
H605 H 0.8322 0.99031 0.25387 0.0
H606 H 0.70545 0.3848 0.45376 0.0
H607 H 0.51098 0.38159 0.96925 0.0
H608 H 0.76602 0.0587 0.3229 0.0
H609 H 0.89593 0.00386 1.07274 0.0
H610 H 0.59209 0.33813 1.02104 0.0
H611 H 0.55784 0.06688 0.97659 0.0
H612 H 0.8736 0.01415 0.90364 0.0
H613 H 0.78233 0.98231 0.85915 0.0
H614 H 0.6661 0.44393 0.58232 0.0
H615 H 0.62091 0.02195 0.90143 0.0
H616 H 0.47178 0.447 1.08687 0.0
N617 N 0.63529 0.3821 0.35913 0.0
C618 C 0.58738 0.40386 0.34069 0.0
C619 C 0.64368 0.43147 0.51612 0.0
C620 C 0.5663 0.44069 0.41012 0.0
C621 C 0.665 0.39749 0.44326 0.0
C622 C 0.59353 0.45186 0.50107 0.0
N623 N 0.58774 0.36304 0.17768 0.0
C624 C 0.57003 0.35983 1.07759 0.0
C625 C 0.52036 0.42578 0.21571 0.0
C626 C 0.56322 0.39482 0.24608 0.0
C627 C 0.50192 0.42135 0.11456 0.0
C628 C 0.52487 0.386 1.04704 0.0
H629 H 0.57782 0.4792 0.55643 0.0
H630 H 0.50424 0.49701 0.43514 0.0
H631 H 0.47101 0.49065 0.26283 0.0
O632 O 0.67157 0.40474 0.1828 0.0
O633 O 0.62443 0.28213 0.36624 0.0
O634 O 0.61131 0.19717 0.29683 0.0
O635 O 0.74368 0.36381 0.21157 0.0
O636 O 0.59311 0.28101 0.18422 0.0
O637 O 0.63159 0.20791 0.12078 0.0
O638 O 0.69792 0.11011 0.34921 0.0
O639 O 0.7355 0.22275 0.12029 0.0
O640 O 0.68875 0.29476 1.0753 0.0
O641 O 0.6247 0.10751 0.26899 0.0
O642 O 0.72622 0.20815 0.37319 0.0
O643 O 0.70839 0.29885 0.37957 0.0
C644 C 0.60153 0.23287 0.36521 0.0
C645 C 0.74771 0.46289 0.20531 0.0
C646 C 0.76325 0.56011 0.16692 0.0
C647 C 0.79911 0.56317 0.25038 0.0
C648 C 0.77876 0.47001 0.29394 0.0
C649 C 0.80582 0.51907 0.31423 0.0
C650 C 0.73963 0.50864 0.14177 0.0
C651 C 0.59121 0.23976 0.12416 0.0
C652 C 0.72335 0.40849 0.17869 0.0
C653 C 0.5216 0.46901 0.38284 0.0
C654 C 0.50073 0.46355 0.28446 0.0
C655 C 0.7195 0.25537 1.04345 0.0
C656 C 0.66223 0.01998 0.29137 0.0
C657 C 0.70838 0.9319 0.29642 0.0
C658 C 0.67337 0.91307 0.21835 0.0
C659 C 0.62979 -0.00172 0.21152 0.0
C660 C 0.69822 0.98376 0.33849 0.0
C661 C 0.63461 0.94572 0.17701 0.0
C662 C 0.72623 0.25463 0.42394 0.0
C663 C 0.65631 0.07919 0.32342 0.0
H664 H 0.82093 0.60055 0.26854 0.0
H665 H 0.78242 0.43711 0.34638 0.0
H666 H 0.83224 0.52309 0.38016 0.0
H667 H 0.71718 0.50377 1.0711 0.0
H668 H 0.67477 0.8722 0.19137 0.0
H669 H 0.59922 0.02145 0.17663 0.0
H670 H 0.71882 -0.00383 0.4075 0.0
H671 H 0.608 0.93013 0.11698 0.0
loop_
_geom_bond_atom_site_label_1
_geom_bond_atom_site_label_2
_geom_bond_distance
_geom_bond_site_symmetry_2
_ccdc_geom_bond_type
Tb0 N29 2.617 . S
Tb0 N35 2.572 . S
Tb0 O44 2.465 . S
Tb0 O45 2.387 . S
Tb0 O47 2.428 . S
Tb0 O48 2.308 . S
Tb0 O52 2.349 . S
Tb0 O55 2.393 . S
Tb0 C64 2.802 . S
C1 N2 1.379 . S
C1 C4 1.416 . S
C1 C8 1.424 . S
N2 C1 1.379 . S
N2 C5 1.334 . S
N2 Tb11 2.617 . S
C3 C5 1.390 . S
C3 C6 1.339 . S
C3 H23 0.930 . S
C4 C1 1.416 . S
C4 C6 1.416 . S
C4 C10 1.448 . S
C5 N2 1.334 . S
C5 C3 1.390 . S
C5 H16 0.930 . S
C6 C3 1.339 . S
C6 C4 1.416 . S
C6 H27 0.930 1_554 S
C7 C8 1.413 . S
C7 C9 1.427 . S
C7 C13 1.416 1_545 S
C8 C1 1.424 . S
C8 C7 1.413 . S
C8 N12 1.361 . S
C9 C7 1.427 . S
C9 C10 1.328 . S
C9 H24 0.915 1_545 S
C10 C4 1.448 . S
C10 C9 1.328 . S
C10 H25 0.930 1_554 S
Tb11 N2 2.617 . S
Tb11 N12 2.572 . S
Tb11 O46 2.349 . S
Tb11 O49 2.393 . S
Tb11 O50 2.465 . S
Tb11 O51 2.387 . S
Tb11 O53 2.428 . S
Tb11 O54 2.308 . S
Tb11 C75 2.802 . S
N12 C8 1.361 . S
N12 Tb11 2.572 . S
N12 C14 1.340 . S
C13 C7 1.416 1_565 S
C13 C15 1.332 . S
C13 H21 0.931 . S
C14 N12 1.340 . S
C14 C15 1.407 1_545 S
C14 H20 0.930 . S
C15 C13 1.332 . S
C15 C14 1.407 1_565 S
C15 H17 0.929 . S
H16 C5 0.930 . S
H17 C15 0.929 . S
H18 C33 0.930 . S
H19 C40 0.929 . S
H20 C14 0.930 . S
H21 C13 0.931 . S
H22 C36 0.930 . S
H23 C3 0.930 . S
H24 C9 0.915 1_565 S
H25 C10 0.930 1_556 S
H26 C31 0.930 . S
H27 C6 0.930 1_556 S
H28 C39 0.931 . S
N29 Tb0 2.617 . S
N29 C30 1.379 . S
N29 C33 1.334 . S
C30 N29 1.379 . S
C30 C32 1.416 . S
C30 C38 1.424 . S
C31 H26 0.930 . S
C31 C33 1.390 . S
C31 C34 1.339 . S
C32 C30 1.416 . S
C32 C34 1.416 . S
C32 C65 1.448 . S
C33 H18 0.930 . S
C33 N29 1.334 . S
C33 C31 1.390 . S
C34 C31 1.339 . S
C34 C32 1.416 . S
C34 H41 0.930 . S
N35 Tb0 2.572 . S
N35 C36 1.340 . S
N35 C38 1.361 . S
C36 H22 0.930 . S
C36 N35 1.340 . S
C36 C40 1.407 . S
C37 C38 1.413 . S
C37 C39 1.416 . S
C37 C66 1.427 . S
C38 C30 1.424 . S
C38 N35 1.361 . S
C38 C37 1.413 . S
C39 H28 0.931 . S
C39 C37 1.416 . S
C39 C40 1.332 . S
C40 H19 0.929 . S
C40 C36 1.407 . S
C40 C39 1.332 . S
H41 C34 0.930 . S
H42 C65 0.930 . S
H43 C66 0.929 . S
O44 Tb0 2.465 . S
O44 C64 1.264 . S
O45 Tb0 2.387 . S
O45 C56 1.264 . S
O46 Tb11 2.349 . S
O46 C56 1.243 . S
O47 Tb0 2.428 . S
O47 C64 1.256 . S
O48 Tb0 2.308 . S
O48 C63 1.266 . S
O49 Tb11 2.393 . S
O49 C63 1.248 . S
O50 Tb11 2.465 . S
O50 C75 1.264 . S
O51 Tb11 2.387 . S
O51 C67 1.264 . S
O52 Tb0 2.349 . S
O52 C67 1.243 . S
O53 Tb11 2.428 . S
O53 C75 1.256 . S
O54 Tb11 2.308 . S
O54 C74 1.266 . S
O55 Tb0 2.393 . S
O55 C74 1.248 . S
C56 O45 1.264 . S
C56 O46 1.243 . S
C57 C60 1.399 . S
C57 C62 1.383 . S
C57 C64 1.496 . S
C58 C59 1.399 . S
C58 C62 1.389 . S
C59 C58 1.399 . S
C59 C61 1.380 . S
C59 H76 0.929 . S
C60 C57 1.399 . S
C60 C61 1.392 . S
C60 H77 0.929 . S
C61 C59 1.380 . S
C61 C60 1.392 . S
C61 H78 0.929 . S
C62 C57 1.383 . S
C62 C58 1.389 . S
C62 H79 0.931 . S
C63 O48 1.266 . S
C63 O49 1.248 . S
C64 Tb0 2.802 . S
C64 O44 1.264 . S
C64 O47 1.256 . S
C64 C57 1.496 . S
C65 C32 1.448 . S
C65 H42 0.930 . S
C65 C66 1.328 . S
C66 C37 1.427 . S
C66 H43 0.929 . S
C66 C65 1.328 . S
C67 O51 1.264 . S
C67 O52 1.243 . S
C68 C71 1.399 1_455 S
C68 C72 1.383 1_455 S
C68 C75 1.496 . S
C69 C70 1.399 . S
C69 C72 1.389 . S
C70 C69 1.399 . S
C70 C73 1.380 . S
C70 H80 0.929 . S
C71 C68 1.399 1_655 S
C71 C73 1.392 . S
C71 H81 0.929 . S
C72 C68 1.383 1_655 S
C72 C69 1.389 . S
C72 H82 0.931 1_655 S
C73 C70 1.380 . S
C73 C71 1.392 . S
C73 H83 0.929 . S
C74 O54 1.266 . S
C74 O55 1.248 . S
C75 Tb11 2.802 . S
C75 O50 1.264 . S
C75 O53 1.256 . S
C75 C68 1.496 . S
H76 C59 0.929 . S
H77 C60 0.929 . S
H78 C61 0.929 . S
H79 C62 0.931 . S
H80 C70 0.929 . S
H81 C71 0.929 . S
H82 C72 0.931 1_455 S
H83 C73 0.929 . S
Tb84 N113 2.617 . S
Tb84 N119 2.572 . S
Tb84 O128 2.465 . S
Tb84 O129 2.387 . S
Tb84 O131 2.428 . S
Tb84 O132 2.308 . S
Tb84 O136 2.349 . S
Tb84 O139 2.393 . S
Tb84 C148 2.802 . S
C85 N86 1.379 . S
C85 C88 1.416 . S
C85 C92 1.424 . S
N86 C85 1.379 . S
N86 C89 1.334 . S
N86 Tb95 2.617 . S
C87 C89 1.390 . S
C87 C90 1.339 . S
C87 H107 0.930 . S
C88 C85 1.416 . S
C88 C90 1.416 . S
C88 C94 1.448 . S
C89 N86 1.334 . S
C89 C87 1.390 . S
C89 H100 0.930 . S
C90 C87 1.339 . S
C90 C88 1.416 . S
C90 H111 0.930 . S
C91 C92 1.413 . S
C91 C93 1.427 . S
C91 C97 1.416 . S
C92 C85 1.424 . S
C92 C91 1.413 . S
C92 N96 1.361 . S
C93 C91 1.427 . S
C93 C94 1.328 . S
C93 H108 0.929 . S
C94 C88 1.448 . S
C94 C93 1.328 . S
C94 H109 0.930 . S
Tb95 N86 2.617 . S
Tb95 N96 2.572 . S
Tb95 O130 2.349 . S
Tb95 O133 2.393 . S
Tb95 O134 2.465 . S
Tb95 O135 2.387 . S
Tb95 O137 2.428 . S
Tb95 O138 2.308 . S
Tb95 C159 2.802 . S
N96 C92 1.361 . S
N96 Tb95 2.572 . S
N96 C98 1.340 . S
C97 C91 1.416 . S
C97 C99 1.332 . S
C97 H105 0.931 . S
C98 N96 1.340 . S
C98 C99 1.407 . S
C98 H104 0.930 . S
C99 C97 1.332 . S
C99 C98 1.407 . S
C99 H101 0.929 . S
H100 C89 0.930 . S
H101 C99 0.929 . S
H102 C117 0.930 . S
H103 C124 0.929 . S
H104 C98 0.930 . S
H105 C97 0.931 . S
H106 C120 0.930 . S
H107 C87 0.930 . S
H108 C93 0.929 . S
H109 C94 0.930 . S
H110 C115 0.930 . S
H111 C90 0.930 . S
H112 C123 0.931 . S
N113 Tb84 2.617 . S
N113 C114 1.379 . S
N113 C117 1.334 . S
C114 N113 1.379 . S
C114 C116 1.416 . S
C114 C122 1.424 . S
C115 H110 0.930 . S
C115 C117 1.390 . S
C115 C118 1.339 . S
C116 C114 1.416 . S
C116 C118 1.416 . S
C116 C149 1.448 . S
C117 H102 0.930 . S
C117 N113 1.334 . S
C117 C115 1.390 . S
C118 C115 1.339 . S
C118 C116 1.416 . S
C118 H125 0.930 1_556 S
N119 Tb84 2.572 . S
N119 C120 1.340 . S
N119 C122 1.361 . S
C120 H106 0.930 . S
C120 N119 1.340 . S
C120 C124 1.407 1_455 S
C121 C122 1.413 . S
C121 C123 1.416 1_455 S
C121 C150 1.427 . S
C122 C114 1.424 . S
C122 N119 1.361 . S
C122 C121 1.413 . S
C123 H112 0.931 . S
C123 C121 1.416 1_655 S
C123 C124 1.332 . S
C124 H103 0.929 . S
C124 C120 1.407 1_655 S
C124 C123 1.332 . S
H125 C118 0.930 1_554 S
H126 C149 0.930 1_554 S
H127 C150 0.929 . S
O128 Tb84 2.465 . S
O128 C148 1.264 . S
O129 Tb84 2.387 . S
O129 C140 1.264 . S
O130 Tb95 2.349 . S
O130 C140 1.243 . S
O131 Tb84 2.428 . S
O131 C148 1.256 . S
O132 Tb84 2.308 . S
O132 C147 1.266 . S
O133 Tb95 2.393 . S
O133 C147 1.248 . S
O134 Tb95 2.465 . S
O134 C159 1.264 . S
O135 Tb95 2.387 . S
O135 C151 1.264 . S
O136 Tb84 2.349 . S
O136 C151 1.243 . S
O137 Tb95 2.428 . S
O137 C159 1.256 . S
O138 Tb95 2.308 . S
O138 C158 1.266 . S
O139 Tb84 2.393 . S
O139 C158 1.248 . S
C140 O129 1.264 . S
C140 O130 1.243 . S
C141 C144 1.399 1_565 S
C141 C146 1.383 1_565 S
C141 C148 1.496 . S
C142 C143 1.399 . S
C142 C146 1.389 . S
C143 C142 1.399 . S
C143 C145 1.380 . S
C143 H160 0.929 . S
C144 C141 1.399 1_545 S
C144 C145 1.392 . S
C144 H161 0.929 . S
C145 C143 1.380 . S
C145 C144 1.392 . S
C145 H162 0.929 . S
C146 C141 1.383 1_545 S
C146 C142 1.389 . S
C146 H163 0.931 1_545 S
C147 O132 1.266 . S
C147 O133 1.248 . S
C148 Tb84 2.802 . S
C148 O128 1.264 . S
C148 O131 1.256 . S
C148 C141 1.496 . S
C149 C116 1.448 . S
C149 H126 0.930 1_556 S
C149 C150 1.328 . S
C150 C121 1.427 . S
C150 H127 0.929 . S
C150 C149 1.328 . S
C151 O135 1.264 . S
C151 O136 1.243 . S
C152 C155 1.399 . S
C152 C156 1.383 . S
C152 C159 1.496 . S
C153 C154 1.399 . S
C153 C156 1.389 . S
C154 C153 1.399 . S
C154 C157 1.380 . S
C154 H164 0.929 . S
C155 C152 1.399 . S
C155 C157 1.392 . S
C155 H165 0.929 . S
C156 C152 1.383 . S
C156 C153 1.389 . S
C156 H166 0.931 . S
C157 C154 1.380 . S
C157 C155 1.392 . S
C157 H167 0.929 . S
C158 O138 1.266 . S
C158 O139 1.248 . S
C159 Tb95 2.802 . S
C159 O134 1.264 . S
C159 O137 1.256 . S
C159 C152 1.496 . S
H160 C143 0.929 . S
H161 C144 0.929 . S
H162 C145 0.929 . S
H163 C146 0.931 1_565 S
H164 C154 0.929 . S
H165 C155 0.929 . S
H166 C156 0.931 . S
H167 C157 0.929 . S
Tb168 N197 2.617 . S
Tb168 N203 2.572 . S
Tb168 O212 2.465 . S
Tb168 O213 2.387 . S
Tb168 O215 2.428 . S
Tb168 O216 2.308 . S
Tb168 O220 2.349 . S
Tb168 O223 2.393 . S
Tb168 C232 2.802 . S
C169 N170 1.379 . S
C169 C172 1.416 . S
C169 C176 1.424 . S
N170 C169 1.379 . S
N170 C173 1.334 . S
N170 Tb179 2.617 . S
C171 C173 1.390 . S
C171 C174 1.339 . S
C171 H191 0.930 . S
C172 C169 1.416 . S
C172 C174 1.416 . S
C172 C178 1.448 . S
C173 N170 1.334 . S
C173 C171 1.390 . S
C173 H184 0.930 . S
C174 C171 1.339 . S
C174 C172 1.416 . S
C174 H195 0.930 1_554 S
C175 C176 1.413 . S
C175 C177 1.427 . S
C175 C181 1.416 1_565 S
C176 C169 1.424 . S
C176 C175 1.413 . S
C176 N180 1.361 . S
C177 C175 1.427 . S
C177 C178 1.328 . S
C177 H192 0.940 . S
C178 C172 1.448 . S
C178 C177 1.328 . S
C178 H193 0.930 1_554 S
Tb179 N170 2.617 . S
Tb179 N180 2.572 . S
Tb179 O214 2.349 . S
Tb179 O217 2.393 . S
Tb179 O218 2.465 . S
Tb179 O219 2.387 . S
Tb179 O221 2.428 . S
Tb179 O222 2.308 . S
Tb179 C243 2.802 . S
N180 C176 1.361 . S
N180 Tb179 2.572 . S
N180 C182 1.340 . S
C181 C175 1.416 1_545 S
C181 C183 1.332 . S
C181 H189 0.931 . S
C182 N180 1.340 . S
C182 C183 1.407 1_565 S
C182 H188 0.930 . S
C183 C181 1.332 . S
C183 C182 1.407 1_545 S
C183 H185 0.929 . S
H184 C173 0.930 . S
H185 C183 0.929 . S
H186 C201 0.930 . S
H187 C208 0.929 . S
H188 C182 0.930 . S
H189 C181 0.931 . S
H190 C204 0.930 . S
H191 C171 0.930 . S
H192 C177 0.940 . S
H193 C178 0.930 1_556 S
H194 C199 0.930 . S
H195 C174 0.930 1_556 S
H196 C207 0.931 . S
N197 Tb168 2.617 . S
N197 C198 1.379 . S
N197 C201 1.334 . S
C198 N197 1.379 . S
C198 C200 1.416 . S
C198 C206 1.424 . S
C199 H194 0.930 . S
C199 C201 1.390 . S
C199 C202 1.339 . S
C200 C198 1.416 . S
C200 C202 1.416 . S
C200 C233 1.448 . S
C201 H186 0.930 . S
C201 N197 1.334 . S
C201 C199 1.390 . S
C202 C199 1.339 . S
C202 C200 1.416 . S
C202 H209 0.930 . S
N203 Tb168 2.572 . S
N203 C204 1.340 . S
N203 C206 1.361 . S
C204 H190 0.930 . S
C204 N203 1.340 . S
C204 C208 1.407 . S
C205 C206 1.413 . S
C205 C207 1.416 . S
C205 C234 1.427 . S
C206 C198 1.424 . S
C206 N203 1.361 . S
C206 C205 1.413 . S
C207 H196 0.931 . S
C207 C205 1.416 . S
C207 C208 1.332 . S
C208 H187 0.929 . S
C208 C204 1.407 . S
C208 C207 1.332 . S
H209 C202 0.930 . S
H210 C233 0.930 . S
H211 C234 0.929 . S
O212 Tb168 2.465 . S
O212 C232 1.264 . S
O213 Tb168 2.387 . S
O213 C224 1.264 . S
O214 Tb179 2.349 . S
O214 C224 1.243 . S
O215 Tb168 2.428 . S
O215 C232 1.256 . S
O216 Tb168 2.308 . S
O216 C231 1.266 . S
O217 Tb179 2.393 . S
O217 C231 1.248 . S
O218 Tb179 2.465 . S
O218 C243 1.264 . S
O219 Tb179 2.387 . S
O219 C235 1.264 . S
O220 Tb168 2.349 . S
O220 C235 1.243 . S
O221 Tb179 2.428 . S
O221 C243 1.256 . S
O222 Tb179 2.308 . S
O222 C242 1.266 . S
O223 Tb168 2.393 . S
O223 C242 1.248 . S
C224 O213 1.264 . S
C224 O214 1.243 . S
C225 C228 1.399 . S
C225 C230 1.383 . S
C225 C232 1.496 . S
C226 C227 1.399 . S
C226 C230 1.389 . S
C227 C226 1.399 . S
C227 C229 1.380 . S
C227 H244 0.929 . S
C228 C225 1.399 . S
C228 C229 1.392 . S
C228 H245 0.929 . S
C229 C227 1.380 . S
C229 C228 1.392 . S
C229 H246 0.929 . S
C230 C225 1.383 . S
C230 C226 1.389 . S
C230 H247 0.931 . S
C231 O216 1.266 . S
C231 O217 1.248 . S
C232 Tb168 2.802 . S
C232 O212 1.264 . S
C232 O215 1.256 . S
C232 C225 1.496 . S
C233 C200 1.448 . S
C233 H210 0.930 . S
C233 C234 1.328 . S
C234 C205 1.427 . S
C234 H211 0.929 . S
C234 C233 1.328 . S
C235 O219 1.264 . S
C235 O220 1.243 . S
C236 C239 1.399 1_655 S
C236 C240 1.383 1_655 S
C236 C243 1.496 . S
C237 C238 1.399 . S
C237 C240 1.389 . S
C238 C237 1.399 . S
C238 C241 1.380 . S
C238 H248 0.929 . S
C239 C236 1.399 1_455 S
C239 C241 1.392 . S
C239 H249 0.929 . S
C240 C236 1.383 1_455 S
C240 C237 1.389 . S
C240 H250 0.931 1_455 S
C241 C238 1.380 . S
C241 C239 1.392 . S
C241 H251 0.929 . S
C242 O222 1.266 . S
C242 O223 1.248 . S
C243 Tb179 2.802 . S
C243 O218 1.264 . S
C243 O221 1.256 . S
C243 C236 1.496 . S
H244 C227 0.929 . S
H245 C228 0.929 . S
H246 C229 0.929 . S
H247 C230 0.931 . S
H248 C238 0.929 . S
H249 C239 0.929 . S
H250 C240 0.931 1_655 S
H251 C241 0.929 . S
Tb252 N281 2.617 . S
Tb252 N287 2.572 . S
Tb252 O296 2.465 . S
Tb252 O297 2.387 . S
Tb252 O299 2.428 . S
Tb252 O300 2.308 . S
Tb252 O304 2.349 . S
Tb252 O307 2.393 . S
Tb252 C316 2.802 . S
C253 N254 1.379 . S
C253 C256 1.416 . S
C253 C260 1.424 . S
N254 C253 1.379 . S
N254 C257 1.334 . S
N254 Tb263 2.617 . S
C255 C257 1.390 . S
C255 C258 1.339 . S
C255 H275 0.930 . S
C256 C253 1.416 . S
C256 C258 1.416 . S
C256 C262 1.448 . S
C257 N254 1.334 . S
C257 C255 1.390 . S
C257 H268 0.930 . S
C258 C255 1.339 . S
C258 C256 1.416 . S
C258 H279 0.930 1_556 S
C259 C260 1.413 . S
C259 C261 1.427 . S
C259 C265 1.416 . S
C260 C253 1.424 . S
C260 C259 1.413 . S
C260 N264 1.361 . S
C261 C259 1.427 . S
C261 C262 1.328 . S
C261 H276 0.929 . S
C262 C256 1.448 . S
C262 C261 1.328 . S
C262 H277 0.930 1_556 S
Tb263 N254 2.617 . S
Tb263 N264 2.572 . S
Tb263 O298 2.349 . S
Tb263 O301 2.393 . S
Tb263 O302 2.465 . S
Tb263 O303 2.387 . S
Tb263 O305 2.428 . S
Tb263 O306 2.308 . S
Tb263 C327 2.802 . S
N264 C260 1.361 . S
N264 Tb263 2.572 . S
N264 C266 1.340 . S
C265 C259 1.416 . S
C265 C267 1.332 . S
C265 H273 0.931 . S
C266 N264 1.340 . S
C266 C267 1.407 . S
C266 H272 0.930 . S
C267 C265 1.332 . S
C267 C266 1.407 . S
C267 H269 0.929 . S
H268 C257 0.930 . S
H269 C267 0.929 . S
H270 C285 0.930 . S
H271 C292 0.929 . S
H272 C266 0.930 . S
H273 C265 0.931 . S
H274 C288 0.930 . S
H275 C255 0.930 . S
H276 C261 0.929 . S
H277 C262 0.930 1_554 S
H278 C283 0.930 . S
H279 C258 0.930 1_554 S
H280 C291 0.931 . S
N281 Tb252 2.617 . S
N281 C282 1.379 . S
N281 C285 1.334 . S
C282 N281 1.379 . S
C282 C284 1.416 . S
C282 C290 1.424 . S
C283 H278 0.930 . S
C283 C285 1.390 . S
C283 C286 1.339 . S
C284 C282 1.416 . S
C284 C286 1.416 . S
C284 C317 1.448 . S
C285 H270 0.930 . S
C285 N281 1.334 . S
C285 C283 1.390 . S
C286 C283 1.339 . S
C286 C284 1.416 . S
C286 H293 0.930 . S
N287 Tb252 2.572 . S
N287 C288 1.340 . S
N287 C290 1.361 . S
C288 H274 0.930 . S
C288 N287 1.340 . S
C288 C292 1.407 1_655 S
C289 C290 1.413 . S
C289 C291 1.416 1_655 S
C289 C318 1.427 . S
C290 C282 1.424 . S
C290 N287 1.361 . S
C290 C289 1.413 . S
C291 H280 0.931 . S
C291 C289 1.416 1_455 S
C291 C292 1.332 . S
C292 H271 0.929 . S
C292 C288 1.407 1_455 S
C292 C291 1.332 . S
H293 C286 0.930 . S
H294 C317 0.930 . S
H295 C318 0.936 . S
O296 Tb252 2.465 . S
O296 C316 1.264 . S
O297 Tb252 2.387 . S
O297 C308 1.264 . S
O298 Tb263 2.349 . S
O298 C308 1.243 . S
O299 Tb252 2.428 . S
O299 C316 1.256 . S
O300 Tb252 2.308 . S
O300 C315 1.266 . S
O301 Tb263 2.393 . S
O301 C315 1.248 . S
O302 Tb263 2.465 . S
O302 C327 1.264 . S
O303 Tb263 2.387 . S
O303 C319 1.264 . S
O304 Tb252 2.349 . S
O304 C319 1.243 . S
O305 Tb263 2.428 . S
O305 C327 1.256 . S
O306 Tb263 2.308 . S
O306 C326 1.266 . S
O307 Tb252 2.393 . S
O307 C326 1.248 . S
C308 O297 1.264 . S
C308 O298 1.243 . S
C309 C312 1.399 . S
C309 C314 1.383 . S
C309 C316 1.496 . S
C310 C311 1.399 . S
C310 C314 1.389 . S
C311 C310 1.399 . S
C311 C313 1.380 . S
C311 H328 0.929 . S
C312 C309 1.399 . S
C312 C313 1.392 . S
C312 H329 0.929 . S
C313 C311 1.380 . S
C313 C312 1.392 . S
C313 H330 0.929 . S
C314 C309 1.383 . S
C314 C310 1.389 . S
C314 H331 0.931 . S
C315 O300 1.266 . S
C315 O301 1.248 . S
C316 Tb252 2.802 . S
C316 O296 1.264 . S
C316 O299 1.256 . S
C316 C309 1.496 . S
C317 C284 1.448 . S
C317 H294 0.930 . S
C317 C318 1.328 . S
C318 C289 1.427 . S
C318 H295 0.936 . S
C318 C317 1.328 . S
C319 O303 1.264 . S
C319 O304 1.243 . S
C320 C323 1.399 1_545 S
C320 C324 1.383 1_545 S
C320 C327 1.496 . S
C321 C322 1.399 . S
C321 C324 1.389 . S
C322 C321 1.399 . S
C322 C325 1.380 . S
C322 H332 0.929 . S
C323 C320 1.399 1_565 S
C323 C325 1.392 . S
C323 H333 0.929 . S
C324 C320 1.383 1_565 S
C324 C321 1.389 . S
C324 H334 0.931 1_565 S
C325 C322 1.380 . S
C325 C323 1.392 . S
C325 H335 0.929 . S
C326 O306 1.266 . S
C326 O307 1.248 . S
C327 Tb263 2.802 . S
C327 O302 1.264 . S
C327 O305 1.256 . S
C327 C320 1.496 . S
H328 C311 0.929 . S
H329 C312 0.929 . S
H330 C313 0.929 . S
H331 C314 0.931 . S
H332 C322 0.929 . S
H333 C323 0.929 . S
H334 C324 0.931 1_545 S
H335 C325 0.929 . S
Tb336 N365 2.617 1_556 S
Tb336 N371 2.572 . S
Tb336 O380 2.465 . S
Tb336 O381 2.387 1_556 S
Tb336 O383 2.428 . S
Tb336 O384 2.308 . S
Tb336 O388 2.349 . S
Tb336 O391 2.393 . S
Tb336 C400 2.802 . S
C337 N338 1.379 . S
C337 C340 1.416 . S
C337 C344 1.424 . S
N338 C337 1.379 . S
N338 C341 1.334 . S
N338 Tb347 2.617 . S
C339 C341 1.390 . S
C339 C342 1.339 . S
C339 H359 0.930 . S
C340 C337 1.416 . S
C340 C342 1.416 . S
C340 C346 1.448 . S
C341 N338 1.334 . S
C341 C339 1.390 . S
C341 H352 0.930 . S
C342 C339 1.339 . S
C342 C340 1.416 . S
C342 H363 0.930 . S
C343 C344 1.413 . S
C343 C345 1.427 . S
C343 C349 1.416 . S
C344 C337 1.424 . S
C344 C343 1.413 . S
C344 N348 1.361 . S
C345 C343 1.427 . S
C345 C346 1.328 . S
C345 H360 0.929 . S
C346 C340 1.448 . S
C346 C345 1.328 . S
C346 H361 0.930 . S
Tb347 N338 2.617 . S
Tb347 N348 2.572 . S
Tb347 O382 2.349 . S
Tb347 O385 2.393 . S
Tb347 O386 2.465 . S
Tb347 O387 2.387 . S
Tb347 O389 2.428 . S
Tb347 O390 2.308 . S
Tb347 C411 2.802 . S
N348 C344 1.361 . S
N348 Tb347 2.572 . S
N348 C350 1.340 . S
C349 C343 1.416 . S
C349 C351 1.332 . S
C349 H357 0.931 . S
C350 N348 1.340 . S
C350 C351 1.407 . S
C350 H356 0.930 . S
C351 C349 1.332 . S
C351 C350 1.407 . S
C351 H353 0.929 . S
H352 C341 0.930 . S
H353 C351 0.929 . S
H354 C369 0.930 . S
H355 C376 0.929 . S
H356 C350 0.930 . S
H357 C349 0.931 . S
H358 C372 0.930 . S
H359 C339 0.930 . S
H360 C345 0.929 . S
H361 C346 0.930 . S
H362 C367 0.930 . S
H363 C342 0.930 . S
H364 C375 0.931 . S
N365 Tb336 2.617 1_554 S
N365 C366 1.379 . S
N365 C369 1.334 . S
C366 N365 1.379 . S
C366 C368 1.416 . S
C366 C374 1.424 . S
C367 H362 0.930 . S
C367 C369 1.390 . S
C367 C370 1.339 . S
C368 C366 1.416 . S
C368 C370 1.416 . S
C368 C401 1.448 . S
C369 H354 0.930 . S
C369 N365 1.334 . S
C369 C367 1.390 . S
C370 C367 1.339 . S
C370 C368 1.416 . S
C370 H377 0.930 . S
N371 Tb336 2.572 . S
N371 C372 1.340 . S
N371 C374 1.361 1_556 S
C372 H358 0.930 . S
C372 N371 1.340 . S
C372 C376 1.407 . S
C373 C374 1.413 . S
C373 C375 1.416 . S
C373 C402 1.427 . S
C374 C366 1.424 . S
C374 N371 1.361 1_554 S
C374 C373 1.413 . S
C375 H364 0.931 . S
C375 C373 1.416 . S
C375 C376 1.332 1_554 S
C376 H355 0.929 . S
C376 C372 1.407 . S
C376 C375 1.332 1_556 S
H377 C370 0.930 . S
H378 C401 0.930 . S
H379 C402 0.929 . S
O380 Tb336 2.465 . S
O380 C400 1.264 . S
O381 Tb336 2.387 1_554 S
O381 C392 1.264 . S
O382 Tb347 2.349 . S
O382 C392 1.243 1_556 S
O383 Tb336 2.428 . S
O383 C400 1.256 . S
O384 Tb336 2.308 . S
O384 C399 1.266 . S
O385 Tb347 2.393 . S
O385 C399 1.248 . S
O386 Tb347 2.465 . S
O386 C411 1.264 . S
O387 Tb347 2.387 . S
O387 C403 1.264 . S
O388 Tb336 2.349 . S
O388 C403 1.243 . S
O389 Tb347 2.428 . S
O389 C411 1.256 . S
O390 Tb347 2.308 . S
O390 C410 1.266 . S
O391 Tb336 2.393 . S
O391 C410 1.248 . S
C392 O381 1.264 . S
C392 O382 1.243 1_554 S
C393 C396 1.399 1_455 S
C393 C398 1.383 1_455 S
C393 C400 1.496 . S
C394 C395 1.399 . S
C394 C398 1.389 . S
C395 C394 1.399 . S
C395 C397 1.380 . S
C395 H412 0.929 . S
C396 C393 1.399 1_655 S
C396 C397 1.392 . S
C396 H413 0.929 . S
C397 C395 1.380 . S
C397 C396 1.392 . S
C397 H414 0.929 . S
C398 C393 1.383 1_655 S
C398 C394 1.389 . S
C398 H415 0.931 1_655 S
C399 O384 1.266 . S
C399 O385 1.248 . S
C400 Tb336 2.802 . S
C400 O380 1.264 . S
C400 O383 1.256 . S
C400 C393 1.496 . S
C401 C368 1.448 . S
C401 H378 0.930 . S
C401 C402 1.328 . S
C402 C373 1.427 . S
C402 H379 0.929 . S
C402 C401 1.328 . S
C403 O387 1.264 . S
C403 O388 1.243 . S
C404 C407 1.399 . S
C404 C408 1.383 1_556 S
C404 C411 1.496 . S
C405 C406 1.399 . S
C405 C408 1.389 . S
C406 C405 1.399 . S
C406 C409 1.380 1_554 S
C406 H416 0.929 . S
C407 C404 1.399 . S
C407 C409 1.392 . S
C407 H417 0.929 . S
C408 C404 1.383 1_554 S
C408 C405 1.389 . S
C408 H418 0.931 . S
C409 C406 1.380 1_556 S
C409 C407 1.392 . S
C409 H419 0.929 . S
C410 O390 1.266 . S
C410 O391 1.248 . S
C411 Tb347 2.802 . S
C411 O386 1.264 . S
C411 O389 1.256 . S
C411 C404 1.496 . S
H412 C395 0.929 . S
H413 C396 0.929 . S
H414 C397 0.929 . S
H415 C398 0.931 1_455 S
H416 C406 0.929 . S
H417 C407 0.929 . S
H418 C408 0.931 . S
H419 C409 0.929 . S
Tb420 N449 2.617 1_554 S
Tb420 N455 2.572 . S
Tb420 O464 2.465 . S
Tb420 O465 2.387 1_554 S
Tb420 O467 2.428 . S
Tb420 O468 2.308 . S
Tb420 O472 2.349 . S
Tb420 O475 2.393 . S
Tb420 C484 2.802 . S
C421 N422 1.379 . S
C421 C424 1.416 . S
C421 C428 1.424 . S
N422 C421 1.379 . S
N422 C425 1.334 . S
N422 Tb431 2.617 . S
C423 C425 1.390 . S
C423 C426 1.339 . S
C423 H443 0.930 . S
C424 C421 1.416 . S
C424 C426 1.416 . S
C424 C430 1.448 . S
C425 N422 1.334 . S
C425 C423 1.390 . S
C425 H436 0.930 . S
C426 C423 1.339 . S
C426 C424 1.416 . S
C426 H447 0.930 . S
C427 C428 1.413 . S
C427 C429 1.427 . S
C427 C433 1.416 . S
C428 C421 1.424 . S
C428 C427 1.413 . S
C428 N432 1.361 . S
C429 C427 1.427 . S
C429 C430 1.328 . S
C429 H444 0.929 . S
C430 C424 1.448 . S
C430 C429 1.328 . S
C430 H445 0.930 . S
Tb431 N422 2.617 . S
Tb431 N432 2.572 . S
Tb431 O466 2.349 . S
Tb431 O469 2.393 . S
Tb431 O470 2.465 . S
Tb431 O471 2.387 . S
Tb431 O473 2.428 . S
Tb431 O474 2.308 . S
Tb431 C495 2.802 . S
N432 C428 1.361 . S
N432 Tb431 2.572 . S
N432 C434 1.340 . S
C433 C427 1.416 . S
C433 C435 1.332 . S
C433 H441 0.931 . S
C434 N432 1.340 . S
C434 C435 1.407 . S
C434 H440 0.930 . S
C435 C433 1.332 . S
C435 C434 1.407 . S
C435 H437 0.929 . S
H436 C425 0.930 . S
H437 C435 0.929 . S
H438 C453 0.930 . S
H439 C460 0.929 . S
H440 C434 0.930 . S
H441 C433 0.931 . S
H442 C456 0.930 . S
H443 C423 0.930 . S
H444 C429 0.929 . S
H445 C430 0.930 . S
H446 C451 0.930 . S
H447 C426 0.930 . S
H448 C459 0.931 . S
N449 Tb420 2.617 1_556 S
N449 C450 1.379 . S
N449 C453 1.334 . S
C450 N449 1.379 . S
C450 C452 1.416 . S
C450 C458 1.424 . S
C451 H446 0.930 . S
C451 C453 1.390 . S
C451 C454 1.339 . S
C452 C450 1.416 . S
C452 C454 1.416 . S
C452 C485 1.448 . S
C453 H438 0.930 . S
C453 N449 1.334 . S
C453 C451 1.390 . S
C454 C451 1.339 . S
C454 C452 1.416 . S
C454 H461 0.930 . S
N455 Tb420 2.572 . S
N455 C456 1.340 . S
N455 C458 1.361 1_554 S
C456 H442 0.930 . S
C456 N455 1.340 . S
C456 C460 1.407 . S
C457 C458 1.413 . S
C457 C459 1.416 . S
C457 C486 1.427 . S
C458 C450 1.424 . S
C458 N455 1.361 1_556 S
C458 C457 1.413 . S
C459 H448 0.931 . S
C459 C457 1.416 . S
C459 C460 1.332 1_556 S
C460 H439 0.929 . S
C460 C456 1.407 . S
C460 C459 1.332 1_554 S
H461 C454 0.930 . S
H462 C485 0.930 . S
H463 C486 0.929 . S
O464 Tb420 2.465 . S
O464 C484 1.264 . S
O465 Tb420 2.387 1_556 S
O465 C476 1.264 . S
O466 Tb431 2.349 . S
O466 C476 1.243 1_554 S
O467 Tb420 2.428 . S
O467 C484 1.256 . S
O468 Tb420 2.308 . S
O468 C483 1.266 . S
O469 Tb431 2.393 . S
O469 C483 1.248 . S
O470 Tb431 2.465 . S
O470 C495 1.264 . S
O471 Tb431 2.387 . S
O471 C487 1.264 . S
O472 Tb420 2.349 . S
O472 C487 1.243 . S
O473 Tb431 2.428 . S
O473 C495 1.256 . S
O474 Tb431 2.308 . S
O474 C494 1.266 . S
O475 Tb420 2.393 . S
O475 C494 1.248 . S
C476 O465 1.264 . S
C476 O466 1.243 1_556 S
C477 C480 1.399 1_565 S
C477 C482 1.383 1_565 S
C477 C484 1.496 . S
C478 C479 1.399 . S
C478 C482 1.389 . S
C479 C478 1.399 . S
C479 C481 1.380 . S
C479 H496 0.929 . S
C480 C477 1.399 1_545 S
C480 C481 1.392 . S
C480 H497 0.929 . S
C481 C479 1.380 . S
C481 C480 1.392 . S
C481 H498 0.929 . S
C482 C477 1.383 1_545 S
C482 C478 1.389 . S
C482 H499 0.931 1_545 S
C483 O468 1.266 . S
C483 O469 1.248 . S
C484 Tb420 2.802 . S
C484 O464 1.264 . S
C484 O467 1.256 . S
C484 C477 1.496 . S
C485 C452 1.448 . S
C485 H462 0.930 . S
C485 C486 1.328 . S
C486 C457 1.427 . S
C486 H463 0.929 . S
C486 C485 1.328 . S
C487 O471 1.264 . S
C487 O472 1.243 . S
C488 C491 1.399 . S
C488 C492 1.383 1_554 S
C488 C495 1.496 . S
C489 C490 1.399 . S
C489 C492 1.389 . S
C490 C489 1.399 . S
C490 C493 1.380 1_556 S
C490 H500 0.929 . S
C491 C488 1.399 . S
C491 C493 1.392 . S
C491 H501 0.929 . S
C492 C488 1.383 1_556 S
C492 C489 1.389 . S
C492 H502 0.931 . S
C493 C490 1.380 1_554 S
C493 C491 1.392 . S
C493 H503 0.929 . S
C494 O474 1.266 . S
C494 O475 1.248 . S
C495 Tb431 2.802 . S
C495 O470 1.264 . S
C495 O473 1.256 . S
C495 C488 1.496 . S
H496 C479 0.929 . S
H497 C480 0.929 . S
H498 C481 0.929 . S
H499 C482 0.931 1_565 S
H500 C490 0.929 . S
H501 C491 0.929 . S
H502 C492 0.931 . S
H503 C493 0.929 . S
Tb504 N533 2.617 1_556 S
Tb504 N539 2.572 . S
Tb504 O548 2.465 . S
Tb504 O549 2.387 1_556 S
Tb504 O551 2.428 . S
Tb504 O552 2.308 . S
Tb504 O556 2.349 . S
Tb504 O559 2.393 . S
Tb504 C568 2.802 . S
C505 N506 1.379 . S
C505 C508 1.416 . S
C505 C512 1.424 . S
N506 C505 1.379 . S
N506 C509 1.334 . S
N506 Tb515 2.617 . S
C507 C509 1.390 . S
C507 C510 1.339 . S
C507 H527 0.930 . S
C508 C505 1.416 . S
C508 C510 1.416 . S
C508 C514 1.448 . S
C509 N506 1.334 . S
C509 C507 1.390 . S
C509 H520 0.930 . S
C510 C507 1.339 . S
C510 C508 1.416 . S
C510 H531 0.930 . S
C511 C512 1.413 . S
C511 C513 1.427 . S
C511 C517 1.416 . S
C512 C505 1.424 . S
C512 C511 1.413 . S
C512 N516 1.361 . S
C513 C511 1.427 . S
C513 C514 1.328 . S
C513 H528 0.929 . S
C514 C508 1.448 . S
C514 C513 1.328 . S
C514 H529 0.930 . S
Tb515 N506 2.617 . S
Tb515 N516 2.572 . S
Tb515 O550 2.349 . S
Tb515 O553 2.393 . S
Tb515 O554 2.465 . S
Tb515 O555 2.387 . S
Tb515 O557 2.428 . S
Tb515 O558 2.308 . S
Tb515 C579 2.802 . S
N516 C512 1.361 . S
N516 Tb515 2.572 . S
N516 C518 1.340 . S
C517 C511 1.416 . S
C517 C519 1.332 . S
C517 H525 0.931 . S
C518 N516 1.340 . S
C518 C519 1.407 . S
C518 H524 0.930 . S
C519 C517 1.332 . S
C519 C518 1.407 . S
C519 H521 0.929 . S
H520 C509 0.930 . S
H521 C519 0.929 . S
H522 C537 0.930 . S
H523 C544 0.929 . S
H524 C518 0.930 . S
H525 C517 0.931 . S
H526 C540 0.930 . S
H527 C507 0.930 . S
H528 C513 0.929 . S
H529 C514 0.930 . S
H530 C535 0.930 . S
H531 C510 0.930 . S
H532 C543 0.931 . S
N533 Tb504 2.617 1_554 S
N533 C534 1.379 . S
N533 C537 1.334 . S
C534 N533 1.379 . S
C534 C536 1.416 . S
C534 C542 1.424 . S
C535 H530 0.930 . S
C535 C537 1.390 . S
C535 C538 1.339 . S
C536 C534 1.416 . S
C536 C538 1.416 . S
C536 C569 1.448 . S
C537 H522 0.930 . S
C537 N533 1.334 . S
C537 C535 1.390 . S
C538 C535 1.339 . S
C538 C536 1.416 . S
C538 H545 0.930 . S
N539 Tb504 2.572 . S
N539 C540 1.340 . S
N539 C542 1.361 1_556 S
C540 H526 0.930 . S
C540 N539 1.340 . S
C540 C544 1.407 . S
C541 C542 1.413 . S
C541 C543 1.416 . S
C541 C570 1.427 . S
C542 C534 1.424 . S
C542 N539 1.361 1_554 S
C542 C541 1.413 . S
C543 H532 0.931 . S
C543 C541 1.416 . S
C543 C544 1.332 1_554 S
C544 H523 0.929 . S
C544 C540 1.407 . S
C544 C543 1.332 1_556 S
H545 C538 0.930 . S
H546 C569 0.930 . S
H547 C570 0.929 . S
O548 Tb504 2.465 . S
O548 C568 1.264 . S
O549 Tb504 2.387 1_554 S
O549 C560 1.264 . S
O550 Tb515 2.349 . S
O550 C560 1.243 1_556 S
O551 Tb504 2.428 . S
O551 C568 1.256 . S
O552 Tb504 2.308 . S
O552 C567 1.266 . S
O553 Tb515 2.393 . S
O553 C567 1.248 . S
O554 Tb515 2.465 . S
O554 C579 1.264 . S
O555 Tb515 2.387 . S
O555 C571 1.264 . S
O556 Tb504 2.349 . S
O556 C571 1.243 . S
O557 Tb515 2.428 . S
O557 C579 1.256 . S
O558 Tb515 2.308 . S
O558 C578 1.266 . S
O559 Tb504 2.393 . S
O559 C578 1.248 . S
C560 O549 1.264 . S
C560 O550 1.243 1_554 S
C561 C564 1.399 1_655 S
C561 C566 1.383 1_655 S
C561 C568 1.496 . S
C562 C563 1.399 . S
C562 C566 1.389 . S
C563 C562 1.399 . S
C563 C565 1.380 . S
C563 H580 0.929 . S
C564 C561 1.399 1_455 S
C564 C565 1.392 . S
C564 H581 0.929 . S
C565 C563 1.380 . S
C565 C564 1.392 . S
C565 H582 0.929 . S
C566 C561 1.383 1_455 S
C566 C562 1.389 . S
C566 H583 0.931 1_455 S
C567 O552 1.266 . S
C567 O553 1.248 . S
C568 Tb504 2.802 . S
C568 O548 1.264 . S
C568 O551 1.256 . S
C568 C561 1.496 . S
C569 C536 1.448 . S
C569 H546 0.930 . S
C569 C570 1.328 . S
C570 C541 1.427 . S
C570 H547 0.929 . S
C570 C569 1.328 . S
C571 O555 1.264 . S
C571 O556 1.243 . S
C572 C575 1.399 . S
C572 C576 1.383 1_556 S
C572 C579 1.496 . S
C573 C574 1.399 . S
C573 C576 1.389 . S
C574 C573 1.399 . S
C574 C577 1.380 1_554 S
C574 H584 0.929 . S
C575 C572 1.399 . S
C575 C577 1.392 . S
C575 H585 0.929 . S
C576 C572 1.383 1_554 S
C576 C573 1.389 . S
C576 H586 0.931 . S
C577 C574 1.380 1_556 S
C577 C575 1.392 . S
C577 H587 0.929 . S
C578 O558 1.266 . S
C578 O559 1.248 . S
C579 Tb515 2.802 . S
C579 O554 1.264 . S
C579 O557 1.256 . S
C579 C572 1.496 . S
H580 C563 0.929 . S
H581 C564 0.929 . S
H582 C565 0.929 . S
H583 C566 0.931 1_655 S
H584 C574 0.929 . S
H585 C575 0.929 . S
H586 C576 0.931 . S
H587 C577 0.929 . S
Tb588 N617 2.617 . S
Tb588 N623 2.572 . S
Tb588 O632 2.465 . S
Tb588 O633 2.387 . S
Tb588 O635 2.428 . S
Tb588 O636 2.308 . S
Tb588 O640 2.349 . S
Tb588 O643 2.393 . S
Tb588 C652 2.802 . S
C589 N590 1.379 . S
C589 C592 1.416 . S
C589 C596 1.424 . S
N590 C589 1.379 . S
N590 C593 1.334 . S
N590 Tb599 2.617 1_556 S
C591 C593 1.390 . S
C591 C594 1.339 . S
C591 H611 0.930 . S
C592 C589 1.416 . S
C592 C594 1.416 . S
C592 C598 1.448 . S
C593 N590 1.334 . S
C593 C591 1.390 . S
C593 H604 0.930 . S
C594 C591 1.339 . S
C594 C592 1.416 . S
C594 H615 0.930 . S
C595 C596 1.413 . S
C595 C597 1.427 . S
C595 C601 1.416 . S
C596 C589 1.424 . S
C596 C595 1.413 . S
C596 N600 1.361 1_556 S
C597 C595 1.427 . S
C597 C598 1.328 . S
C597 H612 0.929 . S
C598 C592 1.448 . S
C598 C597 1.328 . S
C598 H613 0.930 . S
Tb599 N590 2.617 1_554 S
Tb599 N600 2.572 . S
Tb599 O634 2.349 . S
Tb599 O637 2.393 . S
Tb599 O638 2.465 . S
Tb599 O639 2.387 1_554 S
Tb599 O641 2.428 . S
Tb599 O642 2.308 . S
Tb599 C663 2.802 . S
N600 C596 1.361 1_554 S
N600 Tb599 2.572 . S
N600 C602 1.340 . S
C601 C595 1.416 . S
C601 C603 1.332 1_556 S
C601 H609 0.931 . S
C602 N600 1.340 . S
C602 C603 1.407 . S
C602 H608 0.930 . S
C603 C601 1.332 1_554 S
C603 C602 1.407 . S
C603 H605 0.929 . S
H604 C593 0.930 . S
H605 C603 0.929 . S
H606 C621 0.930 . S
H607 C628 0.929 . S
H608 C602 0.930 . S
H609 C601 0.931 . S
H610 C624 0.930 . S
H611 C591 0.930 . S
H612 C597 0.929 . S
H613 C598 0.930 . S
H614 C619 0.930 . S
H615 C594 0.930 . S
H616 C627 0.931 . S
N617 Tb588 2.617 . S
N617 C618 1.379 . S
N617 C621 1.334 . S
C618 N617 1.379 . S
C618 C620 1.416 . S
C618 C626 1.424 . S
C619 H614 0.930 . S
C619 C621 1.390 . S
C619 C622 1.339 . S
C620 C618 1.416 . S
C620 C622 1.416 . S
C620 C653 1.448 . S
C621 H606 0.930 . S
C621 N617 1.334 . S
C621 C619 1.390 . S
C622 C619 1.339 . S
C622 C620 1.416 . S
C622 H629 0.930 . S
N623 Tb588 2.572 . S
N623 C624 1.340 . S
N623 C626 1.361 . S
C624 H610 0.930 . S
C624 N623 1.340 . S
C624 C628 1.407 . S
C625 C626 1.413 . S
C625 C627 1.416 . S
C625 C654 1.427 . S
C626 C618 1.424 . S
C626 N623 1.361 . S
C626 C625 1.413 . S
C627 H616 0.931 . S
C627 C625 1.416 . S
C627 C628 1.332 . S
C628 H607 0.929 . S
C628 C624 1.407 . S
C628 C627 1.332 . S
H629 C622 0.930 . S
H630 C653 0.930 . S
H631 C654 0.929 . S
O632 Tb588 2.465 . S
O632 C652 1.264 . S
O633 Tb588 2.387 . S
O633 C644 1.264 . S
O634 Tb599 2.349 . S
O634 C644 1.243 . S
O635 Tb588 2.428 . S
O635 C652 1.256 . S
O636 Tb588 2.308 . S
O636 C651 1.266 . S
O637 Tb599 2.393 . S
O637 C651 1.248 . S
O638 Tb599 2.465 . S
O638 C663 1.264 . S
O639 Tb599 2.387 1_556 S
O639 C655 1.264 . S
O640 Tb588 2.349 . S
O640 C655 1.239 1_554 S
O641 Tb599 2.428 . S
O641 C663 1.256 . S
O642 Tb599 2.308 . S
O642 C662 1.266 . S
O643 Tb588 2.393 . S
O643 C662 1.248 . S
C644 O633 1.264 . S
C644 O634 1.243 . S
C645 C648 1.399 . S
C645 C650 1.383 1_554 S
C645 C652 1.496 . S
C646 C647 1.399 . S
C646 C650 1.389 . S
C647 C646 1.399 . S
C647 C649 1.380 1_556 S
C647 H664 0.929 . S
C648 C645 1.399 . S
C648 C649 1.392 . S
C648 H665 0.929 . S
C649 C647 1.380 1_554 S
C649 C648 1.392 . S
C649 H666 0.929 . S
C650 C645 1.383 1_556 S
C650 C646 1.389 . S
C650 H667 0.931 . S
C651 O636 1.266 . S
C651 O637 1.248 . S
C652 Tb588 2.802 . S
C652 O632 1.264 . S
C652 O635 1.256 . S
C652 C645 1.496 . S
C653 C620 1.448 . S
C653 H630 0.930 . S
C653 C654 1.328 . S
C654 C625 1.427 . S
C654 H631 0.929 . S
C654 C653 1.328 . S
C655 O639 1.264 . S
C655 O640 1.239 1_556 S
C656 C659 1.399 1_545 S
C656 C660 1.383 1_545 S
C656 C663 1.496 . S
C657 C658 1.399 . S
C657 C660 1.389 . S
C658 C657 1.399 . S
C658 C661 1.380 . S
C658 H668 0.929 . S
C659 C656 1.399 1_565 S
C659 C661 1.392 . S
C659 H669 0.929 . S
C660 C656 1.383 1_565 S
C660 C657 1.389 . S
C660 H670 0.931 1_565 S
C661 C658 1.380 . S
C661 C659 1.392 . S
C661 H671 0.929 . S
C662 O642 1.266 . S
C662 O643 1.248 . S
C663 Tb599 2.802 . S
C663 O638 1.264 . S
C663 O641 1.256 . S
C663 C656 1.496 . S
H664 C647 0.929 . S
H665 C648 0.929 . S
H666 C649 0.929 . S
H667 C650 0.931 . S
H668 C658 0.929 . S
H669 C659 0.929 . S
H670 C660 0.931 1_545 S
H671 C661 0.929 . S
C67 C478 1.725 . S
C140 C562 2.372 . S
C235 C657 2.467 . S
C394 C315 2.419 . S
C489 C410 2.508 . S
C573 C476 1.842 1_554 S
C646 C578 1.712 . S
C651 C405 1.808 . S
C571 C310 1.725 . S
C644 C58 2.372 . S
C153 C403 2.467 . S
C226 C483 2.419 . S
C321 C242 2.508 . S
C69 C308 1.842 . S
C142 C74 1.712 . S
C147 C237 1.808 . S
C392 C63 4.077 . S
C494 C158 4.192 1_554 S
C231 C560 4.073 . S
C319 C655 3.968 . S
C224 C567 4.077 . S
C326 C662 4.192 . S
C399 C56 4.073 . S
C487 C151 3.960 . S
