# Generated by pormake.
# Topology acs-h, (5)-cn, num edge types: 1
# Building blocks:
#     Node 0, Type 0, BuildingBlock: BEQFEK_clean_sbu_0, # of connection points: 5
#     Node 1, Type 0, BuildingBlock: BEQFEK_clean_sbu_0, # of connection points: 5
#     Node 2, Type 0, BuildingBlock: BEQFEK_clean_sbu_0, # of connection points: 5
#     Node 3, Type 0, BuildingBlock: BEQFEK_clean_sbu_0, # of connection points: 5
#     Node 4, Type 0, BuildingBlock: BEQFEK_clean_sbu_0, # of connection points: 5
#     Node 5, Type 0, BuildingBlock: BEQFEK_clean_sbu_0, # of connection points: 5
#     Node 6, Type 0, BuildingBlock: BEQFEK_clean_sbu_0, # of connection points: 5
#     Node 7, Type 0, BuildingBlock: BEQFEK_clean_sbu_0, # of connection points: 5
#     Node 8, Type 0, BuildingBlock: BEQFEK_clean_sbu_0, # of connection points: 5
#     Node 9, Type 0, BuildingBlock: BEQFEK_clean_sbu_0, # of connection points: 5
#     Node 10, Type 0, BuildingBlock: BEQFEK_clean_sbu_0, # of connection points: 5
#     Node 11, Type 0, BuildingBlock: BEQFEK_clean_sbu_0, # of connection points: 5
#     Edge 12, Type (0, 0), BuildingBlock: AJUNOK_clean_linker_0, # of connection points: 2
#     Edge 13, Type (0, 0), BuildingBlock: AJUNOK_clean_linker_0, # of connection points: 2
#     Edge 14, Type (0, 0), BuildingBlock: AJUNOK_clean_linker_0, # of connection points: 2
#     Edge 15, Type (0, 0), BuildingBlock: AJUNOK_clean_linker_0, # of connection points: 2
#     Edge 16, Type (0, 0), BuildingBlock: AJUNOK_clean_linker_0, # of connection points: 2
#     Edge 17, Type (0, 0), BuildingBlock: AJUNOK_clean_linker_0, # of connection points: 2
#     Edge 18, Type (0, 0), BuildingBlock: AJUNOK_clean_linker_0, # of connection points: 2
#     Edge 19, Type (0, 0), BuildingBlock: AJUNOK_clean_linker_0, # of connection points: 2
#     Edge 20, Type (0, 0), BuildingBlock: AJUNOK_clean_linker_0, # of connection points: 2
#     Edge 21, Type (0, 0), BuildingBlock: AJUNOK_clean_linker_0, # of connection points: 2
#     Edge 22, Type (0, 0), BuildingBlock: AJUNOK_clean_linker_0, # of connection points: 2
#     Edge 23, Type (0, 0), BuildingBlock: AJUNOK_clean_linker_0, # of connection points: 2
#     Edge 24, Type (0, 0), BuildingBlock: AJUNOK_clean_linker_0, # of connection points: 2
#     Edge 25, Type (0, 0), BuildingBlock: AJUNOK_clean_linker_0, # of connection points: 2
#     Edge 26, Type (0, 0), BuildingBlock: AJUNOK_clean_linker_0, # of connection points: 2
#     Edge 27, Type (0, 0), BuildingBlock: AJUNOK_clean_linker_0, # of connection points: 2
#     Edge 28, Type (0, 0), BuildingBlock: AJUNOK_clean_linker_0, # of connection points: 2
#     Edge 29, Type (0, 0), BuildingBlock: AJUNOK_clean_linker_0, # of connection points: 2
#     Edge 30, Type (0, 0), BuildingBlock: AJUNOK_clean_linker_0, # of connection points: 2
#     Edge 31, Type (0, 0), BuildingBlock: AJUNOK_clean_linker_0, # of connection points: 2
#     Edge 32, Type (0, 0), BuildingBlock: AJUNOK_clean_linker_0, # of connection points: 2
#     Edge 33, Type (0, 0), BuildingBlock: AJUNOK_clean_linker_0, # of connection points: 2
#     Edge 34, Type (0, 0), BuildingBlock: AJUNOK_clean_linker_0, # of connection points: 2
#     Edge 35, Type (0, 0), BuildingBlock: AJUNOK_clean_linker_0, # of connection points: 2
#     Edge 36, Type (0, 0), BuildingBlock: AJUNOK_clean_linker_0, # of connection points: 2
#     Edge 37, Type (0, 0), BuildingBlock: AJUNOK_clean_linker_0, # of connection points: 2
#     Edge 38, Type (0, 0), BuildingBlock: AJUNOK_clean_linker_0, # of connection points: 2
#     Edge 39, Type (0, 0), BuildingBlock: AJUNOK_clean_linker_0, # of connection points: 2
#     Edge 40, Type (0, 0), BuildingBlock: AJUNOK_clean_linker_0, # of connection points: 2
#     Edge 41, Type (0, 0), BuildingBlock: AJUNOK_clean_linker_0, # of connection points: 2
# Relax obj value: 1.263
# Max RMSD: 0.207
# Mean RMSD: 0.207
data_MOF--net-acs-h--node1-BEQFEK_clean_sbu_0--edge1-AJUNOK_clean_linker_0
_symmetry_space_group_name_H-M    P1
_symmetry_Int_Tables_number       1
_symmetry_cell_setting            triclinic
loop_
_symmetry_equiv_pos_as_xyz
'x, y, z'
_cell_length_a     32.134735
_cell_length_b     32.206589
_cell_length_c     28.774899
_cell_angle_alpha  89.991882
_cell_angle_beta   90.050582
_cell_angle_gamma 120.2084
loop_
_atom_site_label
_atom_site_type_symbol
_atom_site_fract_x
_atom_site_fract_y
_atom_site_fract_z
_atom_type_partial_charge
Co0 Co 0.4613 0.05935 0.08958 0.0
Co1 Co 0.47647 0.14704 0.02826 0.0
C2 C 0.55763 0.12823 0.05077 0.0
O3 O 0.5313 0.08906 0.07262 0.0
O4 O 0.54043 0.1537 0.03575 0.0
C5 C 0.4609 0.98048 0.1346 0.0
O6 O 0.49518 0.98884 0.10487 0.0
C7 C 0.52485 0.24959 0.02066 0.0
C8 C 0.46625 0.26281 0.00131 0.0
C9 C 0.51183 0.28464 0.02121 0.0
N10 N 0.48734 0.20807 0.00553 0.0
N11 N 0.4532 0.21677 -0.0082 0.0
C12 C 0.57445 0.25709 0.02665 0.0
H13 H 0.57688 0.24079 0.05974 0.0
H14 H 0.60226 0.2958 0.02583 0.0
H15 H 0.58188 0.23924 -0.00234 0.0
C16 C 0.43588 0.10973 0.16109 0.0
N17 N 0.44846 0.10462 0.11752 0.0
N18 N 0.44646 0.13605 0.08972 0.0
C19 C 0.43112 0.16122 0.11513 0.0
C20 C 0.42488 0.14627 0.16109 0.0
C21 C 0.43585 0.08107 0.20199 0.0
H22 H 0.40146 0.04629 0.20243 0.0
H23 H 0.46577 0.07341 0.19895 0.0
H24 H 0.43915 0.10027 0.23504 0.0
O25 O 0.42097 0.03867 0.03399 0.0
O26 O 0.45063 0.09314 0.98087 0.0
H27 H 0.40062 0.18466 0.06265 0.0
H28 H 0.39567 0.2029 0.12025 0.0
C29 C 0.41949 0.19735 0.09628 0.0
H30 H 0.45321 0.23213 0.09236 0.0
H31 H 0.41911 0.1903 0.98066 0.0
O32 O 0.44034 0.00519 0.13181 0.0
C33 C 0.44205 0.05209 -0.00483 0.0
Co34 Co 0.94725 0.40359 0.11237 0.0
Co35 Co 0.8816 0.32352 0.04212 0.0
C36 C 0.87622 0.41258 0.0528 0.0
O37 O 0.91186 0.43139 0.08069 0.0
O38 O 0.85845 0.36941 0.03914 0.0
C39 C 0.01245 0.49273 0.15302 0.0
O40 O 0.00401 0.50969 0.11494 0.0
C41 C 0.78508 0.25189 0.02197 0.0
C42 C 0.78904 0.19609 0.98099 0.0
C43 C 0.75734 0.20669 0.00337 0.0
N44 N 0.83149 0.26771 0.01205 0.0
N45 N 0.83379 0.23445 0.98699 0.0
C46 C 0.76782 0.27715 0.05359 0.0
H47 H 0.76366 0.30407 0.03319 0.0
H48 H 0.79426 0.29601 0.08177 0.0
H49 H 0.73247 0.2517 0.06935 0.0
C50 C 0.89024 0.32509 0.18034 0.0
N51 N 0.90463 0.34254 0.13704 0.0
N52 N 0.88411 0.30724 0.10678 0.0
C53 C 0.85757 0.2657 0.13047 0.0
C54 C 0.85983 0.27558 0.17767 0.0
C55 C 0.90427 0.35573 0.223 0.0
H56 H 0.94389 0.37377 0.22758 0.0
H57 H 0.89491 0.38428 0.21837 0.0
H58 H 0.88622 0.3342 0.25445 0.0
O59 O 0.98675 0.39356 0.0675 0.0
O60 O 0.94326 0.36467 0.00551 0.0
H61 H 0.84246 0.21533 0.07502 0.0
H62 H 0.82465 0.18853 0.13159 0.0
C63 C 0.82711 0.21737 0.10874 0.0
H64 H 0.79003 0.2107 0.10402 0.0
H65 H 0.86585 0.2368 0.97602 0.0
O66 O 0.99046 0.44762 0.15956 0.0
C67 C 0.98046 0.39887 0.02503 0.0
Co68 Co 0.6451 0.57959 0.10433 0.0
Co69 Co 0.6996 0.54846 0.04003 0.0
C70 C 0.62426 0.47635 0.09161 0.0
O71 O 0.61125 0.50692 0.10054 0.0
O72 O 0.66558 0.48939 0.07511 0.0
C73 C 0.60173 0.56685 0.18745 0.0
O74 O 0.62717 0.5457 0.19356 0.0
C75 C 0.7479 0.50492 -0.00733 0.0
C76 C 0.81258 0.56858 0.96534 0.0
C77 C 0.79355 0.52012 0.97495 0.0
N78 N 0.74172 0.54309 -0.0038 0.0
N79 N 0.77944 0.58054 0.97743 0.0
C80 C 0.7138 0.45657 0.01298 0.0
H81 H 0.6762 0.44868 0.00888 0.0
H82 H 0.72201 0.45615 0.05038 0.0
H83 H 0.71641 0.42746 -0.00458 0.0
C84 C 0.7389 0.6235 0.15568 0.0
N85 N 0.71281 0.60744 0.11606 0.0
N86 N 0.73571 0.59433 0.08713 0.0
C87 C 0.7756 0.59954 0.10837 0.0
C88 C 0.77886 0.61739 0.15299 0.0
C89 C 0.72395 0.64008 0.19775 0.0
H90 H 0.69704 0.65059 0.18842 0.0
H91 H 0.70878 0.61137 0.22438 0.0
H92 H 0.75602 0.67124 0.21347 0.0
O93 O 0.62872 0.59803 0.04547 0.0
O94 O 0.64335 0.54773 0.0077 0.0
H95 H 0.82207 0.59485 0.05924 0.0
H96 H 0.82974 0.57839 0.11672 0.0
C97 C 0.8028 0.57621 0.09127 0.0
H98 H 0.77738 0.53795 0.08324 0.0
H99 H 0.78509 0.6154 0.97797 0.0
O100 O 0.60984 0.59267 0.15177 0.0
C101 C 0.6178 0.5674 0.01319 0.0
Co102 Co 0.94218 0.51774 0.37952 0.0
Co103 Co 0.86088 0.51755 0.44014 0.0
C104 C 0.87037 0.4298 0.43021 0.0
O105 O 0.90892 0.45125 0.40627 0.0
O106 O 0.84697 0.45062 0.44093 0.0
C107 C 0.02787 0.56706 0.3245 0.0
O108 O 0.0298 0.60674 0.33875 0.0
C109 C 0.75921 0.47997 0.44599 0.0
C110 C 0.75354 0.54365 0.46226 0.0
C111 C 0.72799 0.49782 0.4433 0.0
N112 N 0.80235 0.51477 0.46145 0.0
N113 N 0.79806 0.55211 0.47326 0.0
C114 C 0.74635 0.42864 0.44082 0.0
H115 H 0.76024 0.41862 0.47117 0.0
H116 H 0.7632 0.42411 0.40906 0.0
H117 H 0.7068 0.40395 0.44003 0.0
C118 C 0.89438 0.54336 0.30397 0.0
N119 N 0.89926 0.53235 0.34835 0.0
N120 N 0.87195 0.54134 0.37585 0.0
C121 C 0.85032 0.55997 0.34948 0.0
C122 C 0.86286 0.56102 0.30328 0.0
C123 C 0.91873 0.53664 0.26286 0.0
H124 H 0.94894 0.57212 0.2522 0.0
H125 H 0.93267 0.51226 0.27126 0.0
H126 H 0.89328 0.52201 0.23316 0.0
O127 O 0.96829 0.56521 0.429 0.0
O128 O 0.91738 0.54295 0.48536 0.0
H129 H 0.82171 0.60758 0.34287 0.0
H130 H 0.78351 0.55188 0.37145 0.0
C131 C 0.82134 0.58089 0.36754 0.0
H132 H 0.83652 0.59931 0.40092 0.0
H133 H 0.82673 0.58512 0.48404 0.0
O134 O 0.99442 0.52672 0.33906 0.0
C135 C 0.95731 0.54904 0.46987 0.0
Co136 Co 0.43367 0.37937 0.35859 0.0
Co137 Co 0.46029 0.32184 0.42341 0.0
C138 C 0.53525 0.39521 0.37267 0.0
O139 O 0.50635 0.41022 0.36301 0.0
O140 O 0.52006 0.3536 0.38927 0.0
C141 C 0.44735 0.41862 0.27311 0.0
O142 O 0.46549 0.39029 0.26881 0.0
C143 C 0.4998 0.27092 0.47252 0.0
C144 C 0.43391 0.20736 0.49818 0.0
C145 C 0.48265 0.22537 0.49079 0.0
N146 N 0.46263 0.27857 0.4674 0.0
N147 N 0.42375 0.24145 0.48505 0.0
C148 C 0.5488 0.30268 0.45214 0.0
H149 H 0.5595 0.34094 0.45708 0.0
H150 H 0.54811 0.29494 0.41449 0.0
H151 H 0.57648 0.29677 0.46865 0.0
C152 C 0.3827 0.28434 0.30913 0.0
N153 N 0.40196 0.31125 0.34781 0.0
N154 N 0.41374 0.28721 0.37665 0.0
C155 C 0.4049 0.24579 0.35613 0.0
C156 C 0.3854 0.24255 0.31226 0.0
C157 C 0.36642 0.29988 0.26725 0.0
H158 H 0.35928 0.32919 0.2762 0.0
H159 H 0.39396 0.31185 0.23948 0.0
H160 H 0.33309 0.26883 0.25319 0.0
O161 O 0.41656 0.3981 0.41676 0.0
O162 O 0.46305 0.37872 0.45564 0.0
H163 H 0.40632 0.19586 0.4037 0.0
H164 H 0.42405 0.19043 0.34611 0.0
C165 C 0.42629 0.21646 0.37263 0.0
H166 H 0.46455 0.24044 0.38208 0.0
H167 H 0.38928 0.23692 0.48302 0.0
O168 O 0.42395 0.41544 0.30954 0.0
C169 C 0.44574 0.40632 0.44996 0.0
Co170 Co 0.58858 0.05658 0.36826 0.0
Co171 Co 0.66663 0.11536 0.4422 0.0
C172 C 0.58326 0.13057 0.42445 0.0
O173 O 0.56252 0.0956 0.39593 0.0
O174 O 0.62477 0.14329 0.44062 0.0
C175 C 0.5048 0.98695 0.3182 0.0
O176 O 0.47912 0.98698 0.35363 0.0
C177 C 0.74198 0.20874 0.46396 0.0
C178 C 0.78977 0.20027 0.51337 0.0
C179 C 0.78508 0.23371 0.48703 0.0
N180 N 0.72169 0.16211 0.475 0.0
N181 N 0.75014 0.15704 0.50491 0.0
C182 C 0.7226 0.22892 0.42853 0.0
H183 H 0.69863 0.23947 0.44609 0.0
H184 H 0.70177 0.20202 0.40138 0.0
H185 H 0.75201 0.26143 0.41164 0.0
C186 C 0.6719 0.11137 0.30511 0.0
N187 N 0.65204 0.09565 0.34736 0.0
N188 N 0.68603 0.11226 0.37914 0.0
C189 C 0.72912 0.13762 0.35746 0.0
C190 C 0.72162 0.1388 0.31002 0.0
C191 C 0.64333 0.10166 0.2613 0.0
H192 H 0.61409 0.10997 0.26677 0.0
H193 H 0.66632 0.12286 0.23168 0.0
H194 H 0.62608 0.06285 0.25285 0.0
O195 O 0.59071 0.01395 0.41494 0.0
O196 O 0.62013 0.05564 0.47787 0.0
H197 H 0.80484 0.16206 0.36059 0.0
H198 H 0.78804 0.20252 0.38453 0.0
C199 C 0.77688 0.164 0.38143 0.0
H200 H 0.77519 0.14836 0.4161 0.0
H201 H 0.7435 0.12408 0.51815 0.0
O202 O 0.54988 0.0157 0.31762 0.0
C203 C 0.5847 0.0209 0.45702 0.0
Co204 Co 0.54149 0.94447 0.8747 0.0
Co205 Co 0.55106 0.88315 0.95232 0.0
C206 C 0.45737 0.87807 0.93392 0.0
O207 O 0.47611 0.91187 0.90407 0.0
O208 O 0.48181 0.86112 0.95205 0.0
C209 C 0.52194 0.00709 0.82468 0.0
O210 O 0.49589 0.00269 0.86146 0.0
C211 C 0.52532 0.7893 0.98266 0.0
C212 C 0.58796 0.79754 0.02211 0.0
C213 C 0.54413 0.7637 0.00327 0.0
N214 N 0.55634 0.83638 0.98861 0.0
N215 N 0.59345 0.84127 0.01308 0.0
C216 C 0.48231 0.76929 0.95104 0.0
H217 H 0.45184 0.76849 0.96988 0.0
H218 H 0.49038 0.79234 0.91989 0.0
H219 H 0.47093 0.73219 0.93958 0.0
C220 C 0.56527 0.88455 0.81422 0.0
N221 N 0.55939 0.90004 0.85591 0.0
N222 N 0.57077 0.87959 0.88922 0.0
C223 C 0.58526 0.85088 0.86928 0.0
C224 C 0.58144 0.85231 0.82127 0.0
C225 C 0.55306 0.89852 0.76884 0.0
H226 H 0.58417 0.93311 0.75727 0.0
H227 H 0.5217 0.90377 0.77316 0.0
H228 H 0.54509 0.87096 0.74175 0.0
O229 O 0.59068 0.98695 0.91836 0.0
O230 O 0.57266 0.94772 0.98327 0.0
H231 H 0.62345 0.843 0.92662 0.0
H232 H 0.62846 0.81712 0.8727 0.0
C233 C 0.60387 0.82324 0.895 0.0
H234 H 0.57332 0.78771 0.90476 0.0
H235 H 0.62402 0.87424 0.02055 0.0
O236 O 0.54386 0.98366 0.82276 0.0
C237 C 0.57819 0.98411 0.96034 0.0
Co238 Co 0.05785 0.59971 0.88473 0.0
Co239 Co 0.13032 0.67766 0.95301 0.0
C240 C 0.13655 0.59067 0.9281 0.0
O241 O 0.09751 0.57064 0.90462 0.0
O242 O 0.15389 0.63313 0.94367 0.0
C243 C 0.9767 0.52039 0.83644 0.0
O244 O 0.96947 0.49303 0.87282 0.0
C245 C 0.22856 0.74953 0.96576 0.0
C246 C 0.23021 0.79461 0.02422 0.0
C247 C 0.25882 0.78965 0.99123 0.0
N248 N 0.18359 0.73118 0.9821 0.0
N249 N 0.18462 0.75815 0.01729 0.0
C250 C 0.24244 0.73023 0.92487 0.0
H251 H 0.25501 0.70588 0.93754 0.0
H252 H 0.21148 0.70994 0.90119 0.0
H253 H 0.27245 0.75978 0.90524 0.0
C254 C 0.10519 0.68211 0.81918 0.0
N255 N 0.09625 0.66295 0.86225 0.0
N256 N 0.11998 0.69713 0.89288 0.0
C257 C 0.14395 0.73955 0.87006 0.0
C258 C 0.13594 0.73152 0.82253 0.0
C259 C 0.08849 0.65293 0.77555 0.0
H260 H 0.05282 0.6478 0.76584 0.0
H261 H 0.08463 0.61708 0.78119 0.0
H262 H 0.11386 0.67141 0.74647 0.0
O263 O 0.02242 0.6026 0.93849 0.0
O264 O 0.07455 0.63355 -0.00533 0.0
H265 H 0.16346 0.78664 0.92926 0.0
H266 H 0.17205 0.81572 0.87337 0.0
C267 C 0.1747 0.78732 0.89273 0.0
H268 H 0.21287 0.7966 0.89178 0.0
H269 H 0.15431 0.75218 0.03602 0.0
O270 O 0.01163 0.56324 0.83614 0.0
C271 C 0.03608 0.59801 0.97852 0.0
Co272 Co 0.41585 0.48465 0.88243 0.0
Co273 Co 0.34268 0.47508 0.95811 0.0
C274 C 0.43578 0.56743 0.94283 0.0
O275 O 0.45164 0.55002 0.91236 0.0
O276 O 0.39347 0.54261 0.95898 0.0
C277 C 0.49604 0.49378 0.83118 0.0
O278 O 0.52257 0.52179 0.86521 0.0
C279 C 0.27803 0.50733 0.97906 0.0
C280 C 0.22012 0.45013 0.02105 0.0
C281 C 0.23316 0.49259 -0.00241 0.0
N282 N 0.2913 0.4753 0.99065 0.0
N283 N 0.25701 0.4415 0.0166 0.0
C284 C 0.30357 0.5463 0.94347 0.0
H285 H 0.32982 0.57994 0.96138 0.0
H286 H 0.32321 0.53663 0.91824 0.0
H287 H 0.27807 0.55329 0.92371 0.0
C288 C 0.33362 0.46426 0.81981 0.0
N289 N 0.35419 0.46916 0.86191 0.0
N290 N 0.32125 0.4562 0.89446 0.0
C291 C 0.2783 0.44192 0.87363 0.0
C292 C 0.28475 0.44723 0.82591 0.0
C293 C 0.36063 0.47688 0.7749 0.0
H294 H 0.36349 0.44565 0.76294 0.0
H295 H 0.39765 0.50764 0.78001 0.0
H296 H 0.34166 0.48562 0.74776 0.0
O297 O 0.4032 0.43424 0.92704 0.0
O298 O 0.38148 0.45073 -0.00775 0.0
H299 H 0.20145 0.39585 0.87607 0.0
H300 H 0.22383 0.45253 0.90427 0.0
C301 C 0.23115 0.42285 0.89811 0.0
H302 H 0.23154 0.40592 0.93144 0.0
H303 H 0.25704 0.41079 0.02812 0.0
O304 O 0.45095 0.47707 0.8316 0.0
C305 C 0.41257 0.44566 0.9693 0.0
Co306 Co 0.05518 0.45757 0.60802 0.0
Co307 Co 0.13162 0.45779 0.54034 0.0
C308 C 0.12088 0.54321 0.54819 0.0
O309 O 0.08517 0.5216 0.57581 0.0
O310 O 0.14525 0.52412 0.53495 0.0
C311 C 0.99077 0.47887 0.65531 0.0
O312 O 1.00301 0.51196 0.62316 0.0
C313 C 0.22668 0.49009 0.50211 0.0
C314 C 0.23175 0.42498 0.51072 0.0
C315 C 0.25976 0.47453 0.50655 0.0
N316 N 0.18194 0.45257 0.50848 0.0
N317 N 0.18509 0.41325 0.51072 0.0
C318 C 0.23772 0.53991 0.49026 0.0
H319 H 0.21361 0.53783 0.46171 0.0
H320 H 0.23109 0.55709 0.52042 0.0
H321 H 0.27574 0.56256 0.47899 0.0
C322 C 0.11243 0.44328 0.68019 0.0
N323 N 0.1023 0.44773 0.63549 0.0
N324 N 0.13294 0.44445 0.60755 0.0
C325 C 0.16433 0.43872 0.63466 0.0
C326 C 0.15263 0.43778 0.68134 0.0
C327 C 0.08288 0.44275 0.7206 0.0
H328 H 0.04445 0.41609 0.7141 0.0
H329 H 0.08604 0.47856 0.72401 0.0
H330 H 0.09429 0.43331 0.75344 0.0
O331 O 0.02222 0.40577 0.56404 0.0
O332 O 0.06838 0.42737 0.50393 0.0
H333 H 0.19959 0.40493 0.60318 0.0
H334 H 0.23653 0.45066 0.64489 0.0
C335 C 0.20883 0.44051 0.61747 0.0
H336 H 0.22427 0.46796 0.59057 0.0
H337 H 0.15617 0.37929 0.51864 0.0
O338 O 0.00906 0.45204 0.65448 0.0
C339 C 0.02867 0.41888 0.52209 0.0
Co340 Co 0.55499 0.61011 0.6019 0.0
Co341 Co 0.53364 0.67729 0.54397 0.0
C342 C 0.45438 0.5878 0.57527 0.0
O343 O 0.48329 0.5736 0.58799 0.0
O344 O 0.46928 0.63097 0.56324 0.0
C345 C 0.54762 0.52889 0.64796 0.0
O346 O 0.51565 0.50476 0.61554 0.0
C347 C 0.49034 0.73036 0.50976 0.0
C348 C 0.55275 0.80387 0.5105 0.0
C349 C 0.50286 0.77829 0.51208 0.0
N350 N 0.53074 0.72769 0.51136 0.0
N351 N 0.56802 0.77183 0.50921 0.0
C352 C 0.44078 0.68788 0.50299 0.0
H353 H 0.44266 0.66103 0.48024 0.0
H354 H 0.42506 0.67003 0.53642 0.0
H355 H 0.4165 0.69924 0.48729 0.0
C356 C 0.58907 0.68975 0.67042 0.0
N357 N 0.57532 0.67161 0.62713 0.0
N358 N 0.56765 0.70115 0.602 0.0
C359 C 0.57436 0.73819 0.62949 0.0
C360 C 0.58899 0.73283 0.67343 0.0
C361 C 0.59871 0.66442 0.70885 0.0
H362 H 0.6244 0.65335 0.69659 0.0
H363 H 0.56468 0.63141 0.71839 0.0
H364 H 0.61388 0.68777 0.7399 0.0
O365 O 0.58878 0.61537 0.5447 0.0
O366 O 0.54437 0.63332 0.50139 0.0
H367 H 0.58402 0.8028 0.59909 0.0
H368 H 0.5471 0.78496 0.65016 0.0
C369 C 0.556 0.77145 0.61845 0.0
H370 H 0.52283 0.75216 0.59771 0.0
H371 H 0.60373 0.7803 0.51322 0.0
O372 O 0.57019 0.57437 0.64635 0.0
C373 C 0.56345 0.60746 0.50854 0.0
Co374 Co 0.37169 0.94002 0.60182 0.0
Co375 Co 0.30418 0.85596 0.54009 0.0
C376 C 0.38543 0.85532 0.57672 0.0
O377 O 0.40139 0.89867 0.58966 0.0
O378 O 0.34248 0.82899 0.56241 0.0
C379 C 0.45476 0.00567 0.64816 0.0
O380 O 0.47417 0.9933 0.61474 0.0
C381 C 0.24194 0.7647 0.4942 0.0
C382 C 0.17533 0.7678 0.48614 0.0
C383 C 0.19314 0.73659 0.48487 0.0
N384 N 0.2522 0.81002 0.50218 0.0
N385 N 0.21263 0.81208 0.49511 0.0
C386 C 0.27571 0.74659 0.50473 0.0
H387 H 0.31272 0.77345 0.49364 0.0
H388 H 0.27562 0.74039 0.54267 0.0
H389 H 0.26471 0.71222 0.48661 0.0
C390 C 0.2881 0.89716 0.66514 0.0
N391 N 0.30763 0.9029 0.62245 0.0
N392 N 0.27835 0.86689 0.59582 0.0
C393 C 0.23975 0.83593 0.62143 0.0
C394 C 0.24418 0.85423 0.66624 0.0
C395 C 0.31382 0.92936 0.70543 0.0
H396 H 0.33039 0.96743 0.69442 0.0
H397 H 0.34313 0.92306 0.71707 0.0
H398 H 0.28891 0.9227 0.73485 0.0
O399 O 0.37779 0.97473 0.54477 0.0
O400 O 0.35662 0.91104 0.50219 0.0
H401 H 0.17723 0.78398 0.58506 0.0
H402 H 0.18889 0.76115 0.63749 0.0
C403 C 0.20598 0.78505 0.6072 0.0
H404 H 0.22569 0.77104 0.58723 0.0
H405 H 0.20974 0.84236 0.50194 0.0
O406 O 0.40945 0.9872 0.64878 0.0
C407 C 0.38465 0.95592 0.50913 0.0
C408 C 0.43859 0.96 0.26099 0.0
C409 C 0.48173 0.96264 0.27466 0.0
C410 C 0.42688 0.9571 0.21388 0.0
C411 C 0.45853 0.95761 0.17966 0.0
H412 H 0.41697 0.96616 0.28587 0.0
H413 H 0.39635 0.96089 0.20424 0.0
S414 S 0.56473 0.94366 0.20025 0.0
N415 N 0.54759 0.9501 0.25253 0.0
N416 N 0.52579 0.94499 0.16368 0.0
C417 C 0.49613 0.95019 0.19377 0.0
C418 C 0.50794 0.953 0.24166 0.0
C419 C 0.05079 0.50552 0.23031 0.0
C420 C 0.03864 0.52468 0.19223 0.0
C421 C 0.05743 0.52612 0.27427 0.0
C422 C 0.05143 0.56595 0.28124 0.0
H423 H 0.04984 0.47151 0.22732 0.0
H424 H 0.06016 0.50671 0.3038 0.0
S425 S 0.03913 0.64003 0.18978 0.0
N426 N 0.03565 0.59368 0.16167 0.0
N427 N 0.04803 0.63237 0.24491 0.0
C428 C 0.04949 0.591 0.24212 0.0
C429 C 0.04266 0.57 0.19716 0.0
C430 C 0.5464 0.54249 0.25408 0.0
C431 C 0.553 0.5419 0.20606 0.0
C432 C 0.50606 0.50469 0.27546 0.0
C433 C 0.47268 0.46474 0.24934 0.0
H434 H 0.57471 0.56961 0.27562 0.0
H435 H 0.50451 0.50379 0.31311 0.0
S436 S 0.47072 0.45014 0.12183 0.0
N437 N 0.51951 0.5025 0.13214 0.0
N438 N 0.44532 0.42962 0.173 0.0
C439 C 0.47633 0.46628 0.20092 0.0
C440 C 0.51634 0.50555 0.179 0.0
C441 C 0.47331 0.02941 0.77513 0.0
C442 C 0.51568 0.02766 0.78159 0.0
C443 C 0.4566 0.02945 0.73039 0.0
C444 C 0.48178 0.02745 0.6912 0.0
H445 H 0.45013 0.02516 0.80425 0.0
H446 H 0.42121 0.02549 0.72682 0.0
S447 S 0.60408 0.04274 0.69089 0.0
N448 N 0.58955 0.03907 0.74637 0.0
N449 N 0.55799 0.03906 0.66187 0.0
C450 C 0.5285 0.03521 0.6975 0.0
C451 C 0.54551 0.03518 0.74307 0.0
C452 C 0.95695 0.44549 0.73289 0.0
C453 C 0.96553 0.47941 0.69778 0.0
C454 C 0.95227 0.45533 0.77921 0.0
C455 C 0.95594 0.49922 0.79123 0.0
H456 H 0.95934 0.41377 0.7255 0.0
H457 H 0.95228 0.43152 0.80581 0.0
S458 S 0.95777 0.58981 0.71063 0.0
N459 N 0.9623 0.55097 0.67662 0.0
N460 N 0.95343 0.5694 0.76412 0.0
C461 C 0.95475 0.52854 0.75573 0.0
C462 C 0.95959 0.51861 0.70857 0.0
C463 C 0.57752 0.5358 0.72854 0.0
C464 C 0.54533 0.50679 0.69345 0.0
C465 C 0.56392 0.52787 0.77525 0.0
C466 C 0.51817 0.49032 0.7878 0.0
H467 H 0.61069 0.56827 0.71966 0.0
H468 H 0.58696 0.55445 0.80058 0.0
S469 S 0.43054 0.3927 0.71127 0.0
N470 N 0.47303 0.43073 0.67579 0.0
N471 N 0.44773 0.41537 0.76392 0.0
C472 C 0.49029 0.45568 0.75417 0.0
C473 C 0.50403 0.46388 0.70662 0.0
C474 C 0.4713 0.99343 0.00497 0.0
C475 C 0.47679 0.03529 0.98348 0.0
C476 C 0.50557 0.97884 -0.0002 0.0
C477 C 0.54658 0.00459 0.97169 0.0
H478 H 0.44019 0.97164 0.02657 0.0
H479 H 0.49883 0.94608 0.01692 0.0
S480 S 0.57579 0.11353 0.90272 0.0
N481 N 0.52538 0.10043 0.92989 0.0
N482 N 0.58945 0.07289 0.91988 0.0
C483 C 0.55215 0.04598 0.94902 0.0
C484 C 0.51723 0.06102 0.9545 0.0
C485 C 0.96813 0.46075 0.98267 0.0
C486 C 0.99782 0.44949 0.00949 0.0
C487 C 0.97969 0.50864 0.97549 0.0
C488 C 0.02246 0.54786 -0.00704 0.0
H489 H 0.93448 0.43235 0.96865 0.0
H490 H 0.95468 0.51502 0.95586 0.0
S491 S 0.11404 0.53809 0.06376 0.0
N492 N 0.07267 0.48182 0.05282 0.0
N493 N 0.09519 0.57151 0.03807 0.0
C494 C 0.05311 0.53715 0.01905 0.0
C495 C 0.04089 0.48825 0.02704 0.0
C496 C 0.48155 0.51584 0.01123 0.0
C497 C 0.46481 0.47571 0.98161 0.0
C498 C 0.53116 0.54748 0.01836 0.0
C499 C 0.5665 0.5403 -0.00337 0.0
H500 H 0.45622 0.52338 0.02866 0.0
H501 H 0.54169 0.57694 0.04248 0.0
S502 S 0.54145 0.43976 0.91642 0.0
N503 N 0.48763 0.43009 0.93104 0.0
N504 N 0.58028 0.48955 0.94358 0.0
C505 C 0.55005 0.5006 0.96636 0.0
C506 C 0.49958 0.46822 0.95946 0.0
C507 C 0.02977 0.48426 0.47215 0.0
C508 C 0.00718 0.44872 0.50659 0.0
C509 C 0.01431 0.51712 0.46209 0.0
C510 C 0.97492 0.51586 0.48535 0.0
H511 H 0.06066 0.48778 0.45355 0.0
H512 H 0.0336 0.54384 0.43553 0.0
S513 S 0.90182 0.42852 0.57738 0.0
N514 N 0.9417 0.41295 0.56262 0.0
N515 N 0.91351 0.47519 0.54454 0.0
C516 C 0.95161 0.48015 0.51955 0.0
C517 C 0.96718 0.44636 0.52957 0.0
C518 C 0.46537 0.49258 0.45124 0.0
C519 C 0.47367 0.45648 0.46886 0.0
C520 C 0.49609 0.54142 0.46186 0.0
C521 C 0.53703 0.55688 0.49037 0.0
H522 H 0.43503 0.48324 0.42851 0.0
H523 H 0.48682 0.56711 0.44831 0.0
S524 S 0.57766 0.47757 0.54272 0.0
N525 N 0.52715 0.4403 0.51564 0.0
N526 N 0.5859 0.53176 0.53342 0.0
C527 C 0.54663 0.52132 0.50712 0.0
C528 C 0.51464 0.47142 0.4973 0.0
C529 C 0.49538 0.9655 0.45024 0.0
C530 C 0.53418 0.00588 0.47148 0.0
C531 C 0.44717 0.95205 0.45932 0.0
C532 C 0.43511 0.97821 0.49039 0.0
H533 H 0.50227 0.94348 0.42657 0.0
H534 H 0.41913 0.91944 0.44335 0.0
S535 S 0.52309 0.08997 0.55212 0.0
N536 N 0.55697 0.07349 0.5236 0.0
N537 N 0.46696 0.04986 0.53883 0.0
C538 C 0.47369 0.02035 0.50997 0.0
C539 C 0.52287 0.03342 0.50149 0.0
C540 C 0.36382 0.16834 0.26468 0.0
C541 C 0.39348 0.21805 0.27229 0.0
C542 C 0.37458 0.14463 0.22944 0.0
C543 C 0.41548 0.16993 0.20103 0.0
H544 H 0.33239 0.1477 0.28625 0.0
H545 H 0.35049 0.10655 0.22397 0.0
S546 S 0.50707 0.2993 0.21063 0.0
N547 N 0.46715 0.29068 0.25104 0.0
N548 N 0.48723 0.24667 0.1852 0.0
C549 C 0.4459 0.21931 0.20933 0.0
C550 C 0.43495 0.24322 0.24486 0.0
C551 C 0.75421 0.21289 0.26091 0.0
C552 C 0.75717 0.17288 0.27596 0.0
C553 C 0.78866 0.24699 0.23043 0.0
C554 C 0.82724 0.24221 0.21394 0.0
H555 H 0.72512 0.21792 0.27297 0.0
H556 H 0.7846 0.2768 0.21895 0.0
S557 S 0.85143 0.14428 0.24325 0.0
N558 N 0.80179 0.13059 0.27228 0.0
N559 N 0.86673 0.19483 0.21535 0.0
C560 C 0.8308 0.20264 0.22906 0.0
C561 C 0.79575 0.16795 0.26003 0.0
C562 C 0.87131 0.61426 0.23494 0.0
C563 C 0.84234 0.57411 0.2631 0.0
C564 C 0.85071 0.62947 0.20026 0.0
C565 C 0.80053 0.60508 0.19278 0.0
H566 H 0.9099 0.63445 0.24032 0.0
H567 H 0.8741 0.66018 0.17892 0.0
S568 S 0.70994 0.49538 0.25392 0.0
N569 N 0.76144 0.50898 0.27921 0.0
N570 N 0.72332 0.53665 0.21371 0.0
C571 C 0.77168 0.56424 0.21987 0.0
C572 C 0.79241 0.54903 0.25509 0.0
C573 C 0.61801 0.8412 0.74859 0.0
C574 C 0.58633 0.82096 0.78631 0.0
C575 C 0.62089 0.81205 0.71383 0.0
C576 C 0.59186 0.76159 0.71524 0.0
H577 H 0.64014 0.87988 0.74556 0.0
H578 H 0.64473 0.82918 0.68462 0.0
S579 S 0.50177 0.69112 0.80609 0.0
N580 N 0.52517 0.74751 0.82305 0.0
N581 N 0.52969 0.69291 0.75731 0.0
C582 C 0.56054 0.74093 0.75322 0.0
C583 C 0.55795 0.77059 0.7888 0.0
C584 C 0.21335 0.79029 0.78351 0.0
C585 C 0.16268 0.76578 0.78416 0.0
C586 C 0.23951 0.82004 0.74606 0.0
C587 C 0.21606 0.82688 0.70797 0.0
H588 H 0.23295 0.78501 0.81132 0.0
H589 H 0.27832 0.83634 0.74623 0.0
S590 S 0.08405 0.77309 0.69418 0.0
N591 N 0.09011 0.75167 0.74433 0.0
N592 N 0.1392 0.80819 0.67433 0.0
C593 C 0.16545 0.8036 0.70887 0.0
C594 C 0.13881 0.77293 0.7468 0.0
C595 C 0.19749 0.40385 0.7237 0.0
C596 C 0.18169 0.43755 0.72194 0.0
C597 C 0.23097 0.40716 0.7572 0.0
C598 C 0.24895 0.44357 0.79096 0.0
H599 H 0.18497 0.37552 0.69795 0.0
H600 H 0.24298 0.3812 0.75663 0.0
S601 S 0.21832 0.53965 0.80332 0.0
N602 N 0.18702 0.50854 0.7576 0.0
N603 N 0.24757 0.5129 0.82199 0.0
C604 C 0.23221 0.47634 0.79087 0.0
C605 C 0.19902 0.4737 0.75615 0.0
C606 C 0.52741 0.36849 0.03072 0.0
C607 C 0.53586 0.33183 0.04577 0.0
C608 C 0.55243 0.41453 0.05031 0.0
C609 C 0.58764 0.42585 0.08462 0.0
H610 H 0.50275 0.36219 0.00233 0.0
H611 H 0.54673 0.44235 0.03622 0.0
S612 S 0.61444 0.34098 0.14524 0.0
N613 N 0.57285 0.30781 0.10657 0.0
N614 N 0.6249 0.39624 0.13789 0.0
C615 C 0.59369 0.38908 0.10274 0.0
C616 C 0.56644 0.34152 0.0847 0.0
C617 C 0.67634 0.1923 0.98624 0.0
C618 C 0.70482 0.17705 0.00884 0.0
C619 C 0.62887 0.17543 -0.00012 0.0
C620 C 0.60769 0.14273 0.03692 0.0
H621 H 0.69167 0.2194 0.95926 0.0
H622 H 0.60876 0.18857 0.981 0.0
S623 S 0.66708 0.08966 0.10572 0.0
N624 N 0.70888 0.126 0.06863 0.0
N625 N 0.61867 0.0934 0.09415 0.0
C626 C 0.6352 0.12524 0.05839 0.0
C627 C 0.68402 0.1427 0.04442 0.0
C628 C 0.82262 0.42226 -0.00381 0.0
C629 C 0.85852 0.44248 0.03084 0.0
C630 C 0.80513 0.44924 0.97439 0.0
C631 C 0.82214 0.49719 0.98687 0.0
H632 H 0.80723 0.38499 0.98606 0.0
H633 H 0.77658 0.4318 0.94896 0.0
S634 S 0.92243 0.57011 0.06853 0.0
N635 N 0.91525 0.51573 0.07158 0.0
N636 N 0.88208 0.56622 0.03057 0.0
C637 C 0.86081 0.51914 0.01842 0.0
C638 C 0.87874 0.49171 0.04073 0.0
C639 C 0.64672 0.48929 0.43187 0.0
C640 C 0.68113 0.47703 0.41799 0.0
C641 C 0.6004 0.4664 0.41234 0.0
C642 C 0.58662 0.42967 0.37925 0.0
H643 H 0.65483 0.51514 0.45948 0.0
H644 H 0.57415 0.47487 0.42577 0.0
S645 S 0.66555 0.39253 0.32213 0.0
N646 N 0.70095 0.43466 0.35933 0.0
N647 N 0.61182 0.38662 0.32856 0.0
C648 C 0.62141 0.4199 0.36219 0.0
C649 C 0.66928 0.44497 0.38004 0.0
C650 C 0.51111 0.14098 0.42645 0.0
C651 C 0.55709 0.1538 0.44349 0.0
C652 C 0.48542 0.16177 0.44461 0.0
C653 C 0.50461 0.19584 0.48062 0.0
H654 H 0.49509 0.11533 0.39834 0.0
H655 H 0.45119 0.15263 0.42896 0.0
S656 S 0.62007 0.2374 0.54201 0.0
N657 N 0.61871 0.20023 0.50177 0.0
N658 N 0.56937 0.23812 0.5359 0.0
C659 C 0.54904 0.20709 0.49977 0.0
C660 C 0.57568 0.1866 0.48103 0.0
C661 C 0.86895 0.35093 0.42955 0.0
C662 C 0.85414 0.38126 0.44965 0.0
C663 C 0.85055 0.30361 0.44549 0.0
C664 C 0.81765 0.28565 0.48257 0.0
H665 H 0.89286 0.36289 0.39984 0.0
H666 H 0.85939 0.27994 0.42667 0.0
S667 S 0.77252 0.35156 0.55148 0.0
N668 N 0.80866 0.39075 0.51255 0.0
N669 N 0.77403 0.30195 0.54129 0.0
C670 C 0.80534 0.31636 0.505 0.0
C671 C 0.82353 0.36414 0.48879 0.0
C672 C 0.51243 0.64789 0.94312 0.0
C673 C 0.46725 0.61608 0.96286 0.0
C674 C 0.54053 0.69509 0.95989 0.0
C675 C 0.52443 0.71179 -0.00301 0.0
H676 H 0.52529 0.63701 0.91337 0.0
H677 H 0.57348 0.7195 0.94182 0.0
S678 S 0.41261 0.64206 0.06487 0.0
N679 N 0.41076 0.60399 0.02543 0.0
N680 N 0.46335 0.69276 0.05536 0.0
C681 C 0.48123 0.67976 0.0189 0.0
C682 C 0.45266 0.63188 0.00222 0.0
C683 C 0.34157 0.80495 0.00206 0.0
C684 C 0.31089 0.81973 0.9834 0.0
C685 C 0.38897 0.82472 0.9863 0.0
C686 C 0.40733 0.8596 0.95068 0.0
H687 H 0.32814 0.77631 0.02756 0.0
H688 H 0.41091 0.81151 0.00157 0.0
S689 S 0.3408 0.91155 0.89212 0.0
N690 N 0.30156 0.87206 0.92912 0.0
N691 N 0.39088 0.90971 0.89911 0.0
C692 C 0.37716 0.8759 0.93296 0.0
C693 C 0.32885 0.85576 0.94935 0.0
C694 C 0.20237 0.58774 0.97077 0.0
C695 C 0.15953 0.56326 0.94457 0.0
C696 C 0.2235 0.56355 0.99105 0.0
C697 C 0.20331 0.51389 0.98557 0.0
H698 H 0.22005 0.6262 0.97606 0.0
H699 H 0.25712 0.58425 0.00975 0.0
S700 S 0.09074 0.43187 0.92252 0.0
N701 N 0.09641 0.48548 0.91633 0.0
N702 N 0.1376 0.44016 0.95359 0.0
C703 C 0.16005 0.48836 0.9606 0.0
C704 C 0.13803 0.51305 0.94002 0.0
C705 C 0.39018 0.51433 0.5361 0.0
C706 C 0.40336 0.55332 0.56627 0.0
C707 C 0.34384 0.48944 0.51641 0.0
C708 C 0.30922 0.5027 0.52647 0.0
H709 H 0.41648 0.50451 0.52599 0.0
H710 H 0.33537 0.46026 0.49249 0.0
S711 S 0.32413 0.59583 0.6126 0.0
N712 N 0.37733 0.59995 0.61049 0.0
N713 N 0.29001 0.55258 0.57598 0.0
C714 C 0.3214 0.53945 0.55978 0.0
C715 C 0.36851 0.56484 0.57913 0.0
C716 C 0.45595 0.86345 0.53411 0.0
C717 C 0.4194 0.83874 0.567 0.0
C718 C 0.48224 0.84325 0.51598 0.0
C719 C 0.4734 0.79801 0.53098 0.0
H720 H 0.46291 0.89774 0.52108 0.0
H721 H 0.5092 0.86288 0.48965 0.0
S722 S 0.39 0.72577 0.62646 0.0
N723 N 0.37978 0.77061 0.61863 0.0
N724 N 0.43237 0.73453 0.58882 0.0
C725 C 0.43976 0.77517 0.56729 0.0
C726 C 0.41189 0.79507 0.58426 0.0
C727 C 0.14238 0.66988 0.53893 0.0
C728 C 0.16501 0.68488 0.49537 0.0
C729 C 0.1264 0.62325 0.55531 0.0
C730 C 0.1329 0.59039 0.52869 0.0
H731 H 0.13949 0.69512 0.5616 0.0
H732 H 0.1111 0.61371 0.58987 0.0
S733 S 0.18071 0.6095 0.4083 0.0
N734 N 0.18686 0.66177 0.4234 0.0
N735 N 0.15595 0.57367 0.45342 0.0
C736 C 0.1517 0.60388 0.48344 0.0
C737 C 0.16795 0.65128 0.46692 0.0
loop_
_geom_bond_atom_site_label_1
_geom_bond_atom_site_label_2
_geom_bond_distance
_geom_bond_site_symmetry_2
_ccdc_geom_bond_type
Co0 O3 1.970 . S
Co0 N17 1.989 . S
Co0 O25 1.967 . S
Co0 O32 1.920 . S
Co1 O4 1.966 . S
Co1 N10 2.022 1_554 S
Co1 N18 1.993 . S
Co1 O26 1.941 1_554 S
C2 O3 1.258 . S
C2 O4 1.263 . S
O3 Co0 1.970 . S
O3 C2 1.258 . S
O4 Co1 1.966 . S
O4 C2 1.263 . S
C5 O6 1.235 . S
C5 O32 1.289 . S
O6 C5 1.235 . S
C7 C9 1.400 . S
C7 N10 1.351 . S
C7 C12 1.501 . S
C8 C9 1.387 . S
C8 N11 1.341 . S
C9 C7 1.400 . S
C9 C8 1.387 . S
N10 Co1 2.022 1_556 S
N10 C7 1.351 . S
N10 N11 1.365 . S
N11 C8 1.341 . S
N11 N10 1.365 . S
N11 H31 0.862 . S
C12 C7 1.501 . S
C12 H13 0.961 . S
C12 H14 0.961 . S
C12 H15 0.960 . S
H13 C12 0.961 . S
H14 C12 0.961 . S
H15 C12 0.960 . S
C16 N17 1.342 . S
C16 C20 1.401 . S
C16 C21 1.499 . S
N17 Co0 1.989 . S
N17 C16 1.342 . S
N17 N18 1.388 . S
N18 Co1 1.993 . S
N18 N17 1.388 . S
N18 C19 1.346 . S
C19 N18 1.346 . S
C19 C20 1.396 . S
C19 C29 1.510 . S
C20 C16 1.401 . S
C20 C19 1.396 . S
C21 C16 1.499 . S
C21 H22 0.959 . S
C21 H23 0.960 . S
C21 H24 0.961 . S
H22 C21 0.959 . S
H23 C21 0.960 . S
H24 C21 0.961 . S
O25 Co0 1.967 . S
O25 C33 1.258 . S
O26 Co1 1.941 1_556 S
O26 C33 1.266 1_556 S
H27 C29 0.959 . S
H28 C29 0.961 . S
C29 C19 1.510 . S
C29 H27 0.959 . S
C29 H28 0.961 . S
C29 H30 0.960 . S
H30 C29 0.960 . S
H31 N11 0.862 . S
O32 Co0 1.920 . S
O32 C5 1.289 . S
C33 O25 1.258 . S
C33 O26 1.266 1_554 S
Co34 O37 1.970 . S
Co34 N51 1.989 . S
Co34 O59 1.967 . S
Co34 O66 1.920 . S
Co35 O38 1.966 . S
Co35 N44 2.022 1_554 S
Co35 N52 1.993 . S
Co35 O60 1.941 1_554 S
C36 O37 1.258 . S
C36 O38 1.263 . S
O37 Co34 1.970 . S
O37 C36 1.258 . S
O38 Co35 1.966 . S
O38 C36 1.263 . S
C39 O40 1.235 . S
C39 O66 1.289 . S
O40 C39 1.235 . S
C41 C43 1.400 . S
C41 N44 1.351 . S
C41 C46 1.501 . S
C42 C43 1.387 . S
C42 N45 1.341 . S
C43 C41 1.400 . S
C43 C42 1.387 . S
N44 Co35 2.022 1_556 S
N44 C41 1.351 . S
N44 N45 1.365 . S
N45 C42 1.341 . S
N45 N44 1.365 . S
N45 H65 0.862 . S
C46 C41 1.501 . S
C46 H47 0.961 . S
C46 H48 0.961 . S
C46 H49 0.960 . S
H47 C46 0.961 . S
H48 C46 0.961 . S
H49 C46 0.960 . S
C50 N51 1.342 . S
C50 C54 1.401 . S
C50 C55 1.499 . S
N51 Co34 1.989 . S
N51 C50 1.342 . S
N51 N52 1.388 . S
N52 Co35 1.993 . S
N52 N51 1.388 . S
N52 C53 1.346 . S
C53 N52 1.346 . S
C53 C54 1.396 . S
C53 C63 1.510 . S
C54 C50 1.401 . S
C54 C53 1.396 . S
C55 C50 1.499 . S
C55 H56 0.959 . S
C55 H57 0.960 . S
C55 H58 0.961 . S
H56 C55 0.959 . S
H57 C55 0.960 . S
H58 C55 0.961 . S
O59 Co34 1.967 . S
O59 C67 1.258 . S
O60 Co35 1.941 1_556 S
O60 C67 1.266 1_556 S
H61 C63 0.959 . S
H62 C63 0.961 . S
C63 C53 1.510 . S
C63 H61 0.959 . S
C63 H62 0.961 . S
C63 H64 0.960 . S
H64 C63 0.960 . S
H65 N45 0.862 . S
O66 Co34 1.920 . S
O66 C39 1.289 . S
C67 O59 1.258 . S
C67 O60 1.266 1_554 S
Co68 O71 1.970 . S
Co68 N85 1.989 . S
Co68 O93 1.967 . S
Co68 O100 1.920 . S
Co69 O72 1.966 . S
Co69 N78 2.022 1_554 S
Co69 N86 1.993 . S
Co69 O94 1.941 1_554 S
C70 O71 1.258 . S
C70 O72 1.263 . S
O71 Co68 1.970 . S
O71 C70 1.258 . S
O72 Co69 1.966 . S
O72 C70 1.263 . S
C73 O74 1.235 . S
C73 O100 1.289 . S
O74 C73 1.235 . S
C75 C77 1.400 . S
C75 N78 1.351 . S
C75 C80 1.501 . S
C76 C77 1.387 . S
C76 N79 1.341 . S
C77 C75 1.400 . S
C77 C76 1.387 . S
N78 Co69 2.022 1_556 S
N78 C75 1.351 . S
N78 N79 1.365 . S
N79 C76 1.341 . S
N79 N78 1.365 . S
N79 H99 0.862 . S
C80 C75 1.501 . S
C80 H81 0.961 . S
C80 H82 0.961 . S
C80 H83 0.960 . S
H81 C80 0.961 . S
H82 C80 0.961 . S
H83 C80 0.960 . S
C84 N85 1.342 . S
C84 C88 1.401 . S
C84 C89 1.499 . S
N85 Co68 1.989 . S
N85 C84 1.342 . S
N85 N86 1.388 . S
N86 Co69 1.993 . S
N86 N85 1.388 . S
N86 C87 1.346 . S
C87 N86 1.346 . S
C87 C88 1.396 . S
C87 C97 1.510 . S
C88 C84 1.401 . S
C88 C87 1.396 . S
C89 C84 1.499 . S
C89 H90 0.959 . S
C89 H91 0.960 . S
C89 H92 0.961 . S
H90 C89 0.959 . S
H91 C89 0.960 . S
H92 C89 0.961 . S
O93 Co68 1.967 . S
O93 C101 1.258 . S
O94 Co69 1.941 1_556 S
O94 C101 1.266 1_556 S
H95 C97 0.959 . S
H96 C97 0.961 . S
C97 C87 1.510 . S
C97 H95 0.959 . S
C97 H96 0.961 . S
C97 H98 0.960 . S
H98 C97 0.960 . S
H99 N79 0.862 . S
O100 Co68 1.920 . S
O100 C73 1.289 . S
C101 O93 1.258 . S
C101 O94 1.266 1_554 S
Co102 O105 1.970 . S
Co102 N119 1.989 . S
Co102 O127 1.967 . S
Co102 O134 1.920 . S
Co103 O106 1.966 . S
Co103 N112 2.022 . S
Co103 N120 1.993 . S
Co103 O128 1.941 . S
C104 O105 1.258 . S
C104 O106 1.263 . S
O105 Co102 1.970 . S
O105 C104 1.258 . S
O106 Co103 1.966 . S
O106 C104 1.263 . S
C107 O108 1.235 . S
C107 O134 1.289 . S
O108 C107 1.235 . S
C109 C111 1.400 . S
C109 N112 1.351 . S
C109 C114 1.501 . S
C110 C111 1.387 . S
C110 N113 1.341 . S
C111 C109 1.400 . S
C111 C110 1.387 . S
N112 Co103 2.022 . S
N112 C109 1.351 . S
N112 N113 1.365 . S
N113 C110 1.341 . S
N113 N112 1.365 . S
N113 H133 0.862 . S
C114 C109 1.501 . S
C114 H115 0.961 . S
C114 H116 0.961 . S
C114 H117 0.960 . S
H115 C114 0.961 . S
H116 C114 0.961 . S
H117 C114 0.960 . S
C118 N119 1.342 . S
C118 C122 1.401 . S
C118 C123 1.499 . S
N119 Co102 1.989 . S
N119 C118 1.342 . S
N119 N120 1.388 . S
N120 Co103 1.993 . S
N120 N119 1.388 . S
N120 C121 1.346 . S
C121 N120 1.346 . S
C121 C122 1.396 . S
C121 C131 1.510 . S
C122 C118 1.401 . S
C122 C121 1.396 . S
C123 C118 1.499 . S
C123 H124 0.959 . S
C123 H125 0.960 . S
C123 H126 0.961 . S
H124 C123 0.959 . S
H125 C123 0.960 . S
H126 C123 0.961 . S
O127 Co102 1.967 . S
O127 C135 1.258 . S
O128 Co103 1.941 . S
O128 C135 1.266 . S
H129 C131 0.959 . S
H130 C131 0.961 . S
C131 C121 1.510 . S
C131 H129 0.959 . S
C131 H130 0.961 . S
C131 H132 0.960 . S
H132 C131 0.960 . S
H133 N113 0.862 . S
O134 Co102 1.920 . S
O134 C107 1.289 . S
C135 O127 1.258 . S
C135 O128 1.266 . S
Co136 O139 1.970 . S
Co136 N153 1.989 . S
Co136 O161 1.967 . S
Co136 O168 1.920 . S
Co137 O140 1.966 . S
Co137 N146 2.022 . S
Co137 N154 1.993 . S
Co137 O162 1.941 . S
C138 O139 1.258 . S
C138 O140 1.263 . S
O139 Co136 1.970 . S
O139 C138 1.258 . S
O140 Co137 1.966 . S
O140 C138 1.263 . S
C141 O142 1.235 . S
C141 O168 1.289 . S
O142 C141 1.235 . S
C143 C145 1.400 . S
C143 N146 1.351 . S
C143 C148 1.501 . S
C144 C145 1.387 . S
C144 N147 1.341 . S
C145 C143 1.400 . S
C145 C144 1.387 . S
N146 Co137 2.022 . S
N146 C143 1.351 . S
N146 N147 1.365 . S
N147 C144 1.341 . S
N147 N146 1.365 . S
N147 H167 0.862 . S
C148 C143 1.501 . S
C148 H149 0.961 . S
C148 H150 0.961 . S
C148 H151 0.960 . S
H149 C148 0.961 . S
H150 C148 0.961 . S
H151 C148 0.960 . S
C152 N153 1.342 . S
C152 C156 1.401 . S
C152 C157 1.499 . S
N153 Co136 1.989 . S
N153 C152 1.342 . S
N153 N154 1.388 . S
N154 Co137 1.993 . S
N154 N153 1.388 . S
N154 C155 1.346 . S
C155 N154 1.346 . S
C155 C156 1.396 . S
C155 C165 1.510 . S
C156 C152 1.401 . S
C156 C155 1.396 . S
C157 C152 1.499 . S
C157 H158 0.959 . S
C157 H159 0.960 . S
C157 H160 0.961 . S
H158 C157 0.959 . S
H159 C157 0.960 . S
H160 C157 0.961 . S
O161 Co136 1.967 . S
O161 C169 1.258 . S
O162 Co137 1.941 . S
O162 C169 1.266 . S
H163 C165 0.959 . S
H164 C165 0.961 . S
C165 C155 1.510 . S
C165 H163 0.959 . S
C165 H164 0.961 . S
C165 H166 0.960 . S
H166 C165 0.960 . S
H167 N147 0.862 . S
O168 Co136 1.920 . S
O168 C141 1.289 . S
C169 O161 1.258 . S
C169 O162 1.266 . S
Co170 O173 1.970 . S
Co170 N187 1.989 . S
Co170 O195 1.967 . S
Co170 O202 1.920 . S
Co171 O174 1.966 . S
Co171 N180 2.022 . S
Co171 N188 1.993 . S
Co171 O196 1.941 . S
C172 O173 1.258 . S
C172 O174 1.263 . S
O173 Co170 1.970 . S
O173 C172 1.258 . S
O174 Co171 1.966 . S
O174 C172 1.263 . S
C175 O176 1.235 . S
C175 O202 1.289 . S
O176 C175 1.235 . S
C177 C179 1.400 . S
C177 N180 1.351 . S
C177 C182 1.501 . S
C178 C179 1.387 . S
C178 N181 1.341 . S
C179 C177 1.400 . S
C179 C178 1.387 . S
N180 Co171 2.022 . S
N180 C177 1.351 . S
N180 N181 1.365 . S
N181 C178 1.341 . S
N181 N180 1.365 . S
N181 H201 0.862 . S
C182 C177 1.501 . S
C182 H183 0.961 . S
C182 H184 0.961 . S
C182 H185 0.960 . S
H183 C182 0.961 . S
H184 C182 0.961 . S
H185 C182 0.960 . S
C186 N187 1.342 . S
C186 C190 1.401 . S
C186 C191 1.499 . S
N187 Co170 1.989 . S
N187 C186 1.342 . S
N187 N188 1.388 . S
N188 Co171 1.993 . S
N188 N187 1.388 . S
N188 C189 1.346 . S
C189 N188 1.346 . S
C189 C190 1.396 . S
C189 C199 1.510 . S
C190 C186 1.401 . S
C190 C189 1.396 . S
C191 C186 1.499 . S
C191 H192 0.959 . S
C191 H193 0.960 . S
C191 H194 0.961 . S
H192 C191 0.959 . S
H193 C191 0.960 . S
H194 C191 0.961 . S
O195 Co170 1.967 . S
O195 C203 1.258 . S
O196 Co171 1.941 . S
O196 C203 1.266 . S
H197 C199 0.959 . S
H198 C199 0.961 . S
C199 C189 1.510 . S
C199 H197 0.959 . S
C199 H198 0.961 . S
C199 H200 0.960 . S
H200 C199 0.960 . S
H201 N181 0.862 . S
O202 Co170 1.920 . S
O202 C175 1.289 . S
C203 O195 1.258 . S
C203 O196 1.266 . S
Co204 O207 1.970 . S
Co204 N221 1.989 . S
Co204 O229 1.967 . S
Co204 O236 1.920 . S
Co205 O208 1.966 . S
Co205 N214 2.022 1_556 S
Co205 N222 1.993 . S
Co205 O230 1.941 1_556 S
C206 O207 1.258 . S
C206 O208 1.263 . S
O207 Co204 1.970 . S
O207 C206 1.258 . S
O208 Co205 1.966 . S
O208 C206 1.263 . S
C209 O210 1.235 . S
C209 O236 1.289 . S
O210 C209 1.235 . S
C211 C213 1.400 . S
C211 N214 1.351 . S
C211 C216 1.501 . S
C212 C213 1.387 . S
C212 N215 1.341 . S
C213 C211 1.400 . S
C213 C212 1.387 . S
N214 Co205 2.022 1_554 S
N214 C211 1.351 . S
N214 N215 1.365 . S
N215 C212 1.341 . S
N215 N214 1.365 . S
N215 H235 0.862 . S
C216 C211 1.501 . S
C216 H217 0.961 . S
C216 H218 0.961 . S
C216 H219 0.960 . S
H217 C216 0.961 . S
H218 C216 0.961 . S
H219 C216 0.960 . S
C220 N221 1.342 . S
C220 C224 1.401 . S
C220 C225 1.499 . S
N221 Co204 1.989 . S
N221 C220 1.342 . S
N221 N222 1.388 . S
N222 Co205 1.993 . S
N222 N221 1.388 . S
N222 C223 1.346 . S
C223 N222 1.346 . S
C223 C224 1.396 . S
C223 C233 1.510 . S
C224 C220 1.401 . S
C224 C223 1.396 . S
C225 C220 1.499 . S
C225 H226 0.959 . S
C225 H227 0.960 . S
C225 H228 0.961 . S
H226 C225 0.959 . S
H227 C225 0.960 . S
H228 C225 0.961 . S
O229 Co204 1.967 . S
O229 C237 1.258 . S
O230 Co205 1.941 1_554 S
O230 C237 1.266 1_554 S
H231 C233 0.959 . S
H232 C233 0.961 . S
C233 C223 1.510 . S
C233 H231 0.959 . S
C233 H232 0.961 . S
C233 H234 0.960 . S
H234 C233 0.960 . S
H235 N215 0.862 . S
O236 Co204 1.920 . S
O236 C209 1.289 . S
C237 O229 1.258 . S
C237 O230 1.266 1_556 S
Co238 O241 1.970 . S
Co238 N255 1.989 . S
Co238 O263 1.967 . S
Co238 O270 1.920 . S
Co239 O242 1.966 . S
Co239 N248 2.022 1_556 S
Co239 N256 1.993 . S
Co239 O264 1.941 1_556 S
C240 O241 1.258 . S
C240 O242 1.263 . S
O241 Co238 1.970 . S
O241 C240 1.258 . S
O242 Co239 1.966 . S
O242 C240 1.263 . S
C243 O244 1.235 . S
C243 O270 1.289 . S
O244 C243 1.235 . S
C245 C247 1.400 . S
C245 N248 1.351 . S
C245 C250 1.501 . S
C246 C247 1.387 . S
C246 N249 1.341 . S
C247 C245 1.400 . S
C247 C246 1.387 . S
N248 Co239 2.022 1_554 S
N248 C245 1.351 . S
N248 N249 1.365 . S
N249 C246 1.341 . S
N249 N248 1.365 . S
N249 H269 0.862 . S
C250 C245 1.501 . S
C250 H251 0.961 . S
C250 H252 0.961 . S
C250 H253 0.960 . S
H251 C250 0.961 . S
H252 C250 0.961 . S
H253 C250 0.960 . S
C254 N255 1.342 . S
C254 C258 1.401 . S
C254 C259 1.499 . S
N255 Co238 1.989 . S
N255 C254 1.342 . S
N255 N256 1.388 . S
N256 Co239 1.993 . S
N256 N255 1.388 . S
N256 C257 1.346 . S
C257 N256 1.346 . S
C257 C258 1.396 . S
C257 C267 1.510 . S
C258 C254 1.401 . S
C258 C257 1.396 . S
C259 C254 1.499 . S
C259 H260 0.959 . S
C259 H261 0.960 . S
C259 H262 0.961 . S
H260 C259 0.959 . S
H261 C259 0.960 . S
H262 C259 0.961 . S
O263 Co238 1.967 . S
O263 C271 1.258 . S
O264 Co239 1.941 1_554 S
O264 C271 1.266 1_554 S
H265 C267 0.959 . S
H266 C267 0.961 . S
C267 C257 1.510 . S
C267 H265 0.959 . S
C267 H266 0.961 . S
C267 H268 0.960 . S
H268 C267 0.960 . S
H269 N249 0.862 . S
O270 Co238 1.920 . S
O270 C243 1.289 . S
C271 O263 1.258 . S
C271 O264 1.266 1_556 S
Co272 O275 1.970 . S
Co272 N289 1.989 . S
Co272 O297 1.967 . S
Co272 O304 1.920 . S
Co273 O276 1.966 . S
Co273 N282 2.022 1_556 S
Co273 N290 1.993 . S
Co273 O298 1.941 1_556 S
C274 O275 1.258 . S
C274 O276 1.263 . S
O275 Co272 1.970 . S
O275 C274 1.258 . S
O276 Co273 1.966 . S
O276 C274 1.263 . S
C277 O278 1.235 . S
C277 O304 1.289 . S
O278 C277 1.235 . S
C279 C281 1.400 . S
C279 N282 1.351 . S
C279 C284 1.501 . S
C280 C281 1.387 . S
C280 N283 1.341 . S
C281 C279 1.400 . S
C281 C280 1.387 . S
N282 Co273 2.022 1_554 S
N282 C279 1.351 . S
N282 N283 1.365 . S
N283 C280 1.341 . S
N283 N282 1.365 . S
N283 H303 0.862 . S
C284 C279 1.501 . S
C284 H285 0.961 . S
C284 H286 0.961 . S
C284 H287 0.960 . S
H285 C284 0.961 . S
H286 C284 0.961 . S
H287 C284 0.960 . S
C288 N289 1.342 . S
C288 C292 1.401 . S
C288 C293 1.499 . S
N289 Co272 1.989 . S
N289 C288 1.342 . S
N289 N290 1.388 . S
N290 Co273 1.993 . S
N290 N289 1.388 . S
N290 C291 1.346 . S
C291 N290 1.346 . S
C291 C292 1.396 . S
C291 C301 1.510 . S
C292 C288 1.401 . S
C292 C291 1.396 . S
C293 C288 1.499 . S
C293 H294 0.959 . S
C293 H295 0.960 . S
C293 H296 0.961 . S
H294 C293 0.959 . S
H295 C293 0.960 . S
H296 C293 0.961 . S
O297 Co272 1.967 . S
O297 C305 1.258 . S
O298 Co273 1.941 1_554 S
O298 C305 1.266 1_554 S
H299 C301 0.959 . S
H300 C301 0.961 . S
C301 C291 1.510 . S
C301 H299 0.959 . S
C301 H300 0.961 . S
C301 H302 0.960 . S
H302 C301 0.960 . S
H303 N283 0.862 . S
O304 Co272 1.920 . S
O304 C277 1.289 . S
C305 O297 1.258 . S
C305 O298 1.266 1_556 S
Co306 O309 1.970 . S
Co306 N323 1.989 . S
Co306 O331 1.967 . S
Co306 O338 1.920 . S
Co307 O310 1.966 . S
Co307 N316 2.022 . S
Co307 N324 1.993 . S
Co307 O332 1.941 . S
C308 O309 1.258 . S
C308 O310 1.263 . S
O309 Co306 1.970 . S
O309 C308 1.258 . S
O310 Co307 1.966 . S
O310 C308 1.263 . S
C311 O312 1.235 . S
C311 O338 1.289 . S
O312 C311 1.235 . S
C313 C315 1.400 . S
C313 N316 1.351 . S
C313 C318 1.501 . S
C314 C315 1.387 . S
C314 N317 1.341 . S
C315 C313 1.400 . S
C315 C314 1.387 . S
N316 Co307 2.022 . S
N316 C313 1.351 . S
N316 N317 1.365 . S
N317 C314 1.341 . S
N317 N316 1.365 . S
N317 H337 0.862 . S
C318 C313 1.501 . S
C318 H319 0.961 . S
C318 H320 0.961 . S
C318 H321 0.960 . S
H319 C318 0.961 . S
H320 C318 0.961 . S
H321 C318 0.960 . S
C322 N323 1.342 . S
C322 C326 1.401 . S
C322 C327 1.499 . S
N323 Co306 1.989 . S
N323 C322 1.342 . S
N323 N324 1.388 . S
N324 Co307 1.993 . S
N324 N323 1.388 . S
N324 C325 1.346 . S
C325 N324 1.346 . S
C325 C326 1.396 . S
C325 C335 1.510 . S
C326 C322 1.401 . S
C326 C325 1.396 . S
C327 C322 1.499 . S
C327 H328 0.959 . S
C327 H329 0.960 . S
C327 H330 0.961 . S
H328 C327 0.959 . S
H329 C327 0.960 . S
H330 C327 0.961 . S
O331 Co306 1.967 . S
O331 C339 1.258 . S
O332 Co307 1.941 . S
O332 C339 1.266 . S
H333 C335 0.959 . S
H334 C335 0.961 . S
C335 C325 1.510 . S
C335 H333 0.959 . S
C335 H334 0.961 . S
C335 H336 0.960 . S
H336 C335 0.960 . S
H337 N317 0.862 . S
O338 Co306 1.920 . S
O338 C311 1.289 . S
C339 O331 1.258 . S
C339 O332 1.266 . S
Co340 O343 1.970 . S
Co340 N357 1.989 . S
Co340 O365 1.967 . S
Co340 O372 1.920 . S
Co341 O344 1.966 . S
Co341 N350 2.022 . S
Co341 N358 1.993 . S
Co341 O366 1.941 . S
C342 O343 1.258 . S
C342 O344 1.263 . S
O343 Co340 1.970 . S
O343 C342 1.258 . S
O344 Co341 1.966 . S
O344 C342 1.263 . S
C345 O346 1.235 . S
C345 O372 1.289 . S
O346 C345 1.235 . S
C347 C349 1.400 . S
C347 N350 1.351 . S
C347 C352 1.501 . S
C348 C349 1.387 . S
C348 N351 1.341 . S
C349 C347 1.400 . S
C349 C348 1.387 . S
N350 Co341 2.022 . S
N350 C347 1.351 . S
N350 N351 1.365 . S
N351 C348 1.341 . S
N351 N350 1.365 . S
N351 H371 0.862 . S
C352 C347 1.501 . S
C352 H353 0.961 . S
C352 H354 0.961 . S
C352 H355 0.960 . S
H353 C352 0.961 . S
H354 C352 0.961 . S
H355 C352 0.960 . S
C356 N357 1.342 . S
C356 C360 1.401 . S
C356 C361 1.499 . S
N357 Co340 1.989 . S
N357 C356 1.342 . S
N357 N358 1.388 . S
N358 Co341 1.993 . S
N358 N357 1.388 . S
N358 C359 1.346 . S
C359 N358 1.346 . S
C359 C360 1.396 . S
C359 C369 1.510 . S
C360 C356 1.401 . S
C360 C359 1.396 . S
C361 C356 1.499 . S
C361 H362 0.959 . S
C361 H363 0.960 . S
C361 H364 0.961 . S
H362 C361 0.959 . S
H363 C361 0.960 . S
H364 C361 0.961 . S
O365 Co340 1.967 . S
O365 C373 1.258 . S
O366 Co341 1.941 . S
O366 C373 1.266 . S
H367 C369 0.959 . S
H368 C369 0.961 . S
C369 C359 1.510 . S
C369 H367 0.959 . S
C369 H368 0.961 . S
C369 H370 0.960 . S
H370 C369 0.960 . S
H371 N351 0.862 . S
O372 Co340 1.920 . S
O372 C345 1.289 . S
C373 O365 1.258 . S
C373 O366 1.266 . S
Co374 O377 1.970 . S
Co374 N391 1.989 . S
Co374 O399 1.967 . S
Co374 O406 1.920 . S
Co375 O378 1.966 . S
Co375 N384 2.022 . S
Co375 N392 1.993 . S
Co375 O400 1.941 . S
C376 O377 1.258 . S
C376 O378 1.263 . S
O377 Co374 1.970 . S
O377 C376 1.258 . S
O378 Co375 1.966 . S
O378 C376 1.263 . S
C379 O380 1.235 . S
C379 O406 1.289 . S
O380 C379 1.235 . S
C381 C383 1.400 . S
C381 N384 1.351 . S
C381 C386 1.501 . S
C382 C383 1.387 . S
C382 N385 1.341 . S
C383 C381 1.400 . S
C383 C382 1.387 . S
N384 Co375 2.022 . S
N384 C381 1.351 . S
N384 N385 1.365 . S
N385 C382 1.341 . S
N385 N384 1.365 . S
N385 H405 0.862 . S
C386 C381 1.501 . S
C386 H387 0.961 . S
C386 H388 0.961 . S
C386 H389 0.960 . S
H387 C386 0.961 . S
H388 C386 0.961 . S
H389 C386 0.960 . S
C390 N391 1.342 . S
C390 C394 1.401 . S
C390 C395 1.499 . S
N391 Co374 1.989 . S
N391 C390 1.342 . S
N391 N392 1.388 . S
N392 Co375 1.993 . S
N392 N391 1.388 . S
N392 C393 1.346 . S
C393 N392 1.346 . S
C393 C394 1.396 . S
C393 C403 1.510 . S
C394 C390 1.401 . S
C394 C393 1.396 . S
C395 C390 1.499 . S
C395 H396 0.959 . S
C395 H397 0.960 . S
C395 H398 0.961 . S
H396 C395 0.959 . S
H397 C395 0.960 . S
H398 C395 0.961 . S
O399 Co374 1.967 . S
O399 C407 1.258 . S
O400 Co375 1.941 . S
O400 C407 1.266 . S
H401 C403 0.959 . S
H402 C403 0.961 . S
C403 C393 1.510 . S
C403 H401 0.959 . S
C403 H402 0.961 . S
C403 H404 0.960 . S
H404 C403 0.960 . S
H405 N385 0.862 . S
O406 Co374 1.920 . S
O406 C379 1.289 . S
C407 O399 1.258 . S
C407 O400 1.266 . S
C408 C409 1.369 . S
C408 C410 1.419 . S
C408 H412 0.930 . S
C409 C408 1.369 . S
C409 C418 1.429 1_545 S
C410 C408 1.419 . S
C410 C411 1.363 . S
C410 H413 0.929 . S
C411 C410 1.363 . S
C411 C417 1.428 1_545 S
H412 C408 0.930 . S
H413 C410 0.929 . S
S414 N415 1.613 . S
S414 N416 1.610 . S
N415 S414 1.613 . S
N415 C418 1.350 . S
N416 S414 1.610 . S
N416 C417 1.351 . S
C417 C411 1.428 1_565 S
C417 N416 1.351 . S
C417 C418 1.434 . S
C418 C409 1.429 1_565 S
C418 N415 1.350 . S
C418 C417 1.434 . S
C419 C420 1.369 . S
C419 C421 1.419 . S
C419 H423 0.930 1_655 S
C420 C419 1.369 . S
C420 C429 1.429 . S
C421 C419 1.419 . S
C421 C422 1.363 . S
C421 H424 0.929 1_655 S
C422 C421 1.363 . S
C422 C428 1.428 . S
H423 C419 0.930 1_455 S
H424 C421 0.929 1_455 S
S425 N426 1.613 . S
S425 N427 1.610 . S
N426 S425 1.613 . S
N426 C429 1.350 . S
N427 S425 1.610 . S
N427 C428 1.351 . S
C428 C422 1.428 . S
C428 N427 1.351 . S
C428 C429 1.434 . S
C429 C420 1.429 . S
C429 N426 1.350 . S
C429 C428 1.434 . S
C430 C431 1.369 . S
C430 C432 1.419 . S
C430 H434 0.930 . S
C431 C430 1.369 . S
C431 C440 1.429 . S
C432 C430 1.419 . S
C432 C433 1.363 . S
C432 H435 0.929 . S
C433 C432 1.363 . S
C433 C439 1.428 . S
H434 C430 0.930 . S
H435 C432 0.929 . S
S436 N437 1.613 . S
S436 N438 1.610 . S
N437 S436 1.613 . S
N437 C440 1.350 . S
N438 S436 1.610 . S
N438 C439 1.351 . S
C439 C433 1.428 . S
C439 N438 1.351 . S
C439 C440 1.434 . S
C440 C431 1.429 . S
C440 N437 1.350 . S
C440 C439 1.434 . S
C441 C442 1.369 . S
C441 C443 1.419 . S
C441 H445 0.930 . S
C442 C441 1.369 . S
C442 C451 1.429 . S
C443 C441 1.419 . S
C443 C444 1.363 . S
C443 H446 0.929 . S
C444 C443 1.363 . S
C444 C450 1.428 . S
H445 C441 0.930 . S
H446 C443 0.929 . S
S447 N448 1.613 . S
S447 N449 1.610 . S
N448 S447 1.613 . S
N448 C451 1.350 1_545 S
N449 S447 1.610 . S
N449 C450 1.351 1_545 S
C450 C444 1.428 . S
C450 N449 1.351 1_565 S
C450 C451 1.434 . S
C451 C442 1.429 . S
C451 N448 1.350 1_565 S
C451 C450 1.434 . S
C452 C453 1.364 1_655 S
C452 C454 1.421 . S
C452 H456 0.932 . S
C453 C452 1.364 1_455 S
C453 C462 1.429 . S
C454 C452 1.421 . S
C454 C455 1.363 1_655 S
C454 H457 0.930 . S
C455 C454 1.363 1_455 S
C455 C461 1.428 . S
H456 C452 0.932 . S
H457 C454 0.930 . S
S458 N459 1.613 . S
S458 N460 1.610 . S
N459 S458 1.613 . S
N459 C462 1.350 . S
N460 S458 1.610 . S
N460 C461 1.351 . S
C461 C455 1.428 . S
C461 N460 1.351 . S
C461 C462 1.434 . S
C462 C453 1.429 . S
C462 N459 1.350 . S
C462 C461 1.434 . S
C463 C464 1.369 . S
C463 C465 1.419 . S
C463 H467 0.930 . S
C464 C463 1.369 . S
C464 C473 1.429 . S
C465 C463 1.419 . S
C465 C466 1.363 . S
C465 H468 0.929 . S
C466 C465 1.363 . S
C466 C472 1.428 . S
H467 C463 0.930 . S
H468 C465 0.929 . S
S469 N470 1.613 . S
S469 N471 1.610 . S
N470 S469 1.613 . S
N470 C473 1.350 . S
N471 S469 1.610 . S
N471 C472 1.351 . S
C472 C466 1.428 . S
C472 N471 1.351 . S
C472 C473 1.434 . S
C473 C464 1.429 . S
C473 N470 1.350 . S
C473 C472 1.434 . S
C474 C475 1.369 1_564 S
C474 C476 1.419 . S
C474 H478 0.930 . S
C475 C474 1.369 1_546 S
C475 C484 1.429 . S
C476 C474 1.419 . S
C476 C477 1.363 . S
C476 H479 0.929 . S
C477 C476 1.363 . S
C477 C483 1.428 1_564 S
H478 C474 0.930 . S
H479 C476 0.929 . S
S480 N481 1.613 . S
S480 N482 1.610 . S
N481 S480 1.613 . S
N481 C484 1.350 . S
N482 S480 1.610 . S
N482 C483 1.351 . S
C483 C477 1.428 1_546 S
C483 N482 1.351 . S
C483 C484 1.434 . S
C484 C475 1.429 . S
C484 N481 1.350 . S
C484 C483 1.434 . S
C485 C486 1.369 1_455 S
C485 C487 1.419 . S
C485 H489 0.930 . S
C486 C485 1.369 1_655 S
C486 C495 1.429 1_556 S
C487 C485 1.419 . S
C487 C488 1.363 1_556 S
C487 H490 0.929 . S
C488 C487 1.363 1_554 S
C488 C494 1.428 1_455 S
H489 C485 0.930 . S
H490 C487 0.929 . S
S491 N492 1.613 . S
S491 N493 1.610 . S
N492 S491 1.613 . S
N492 C495 1.350 . S
N493 S491 1.610 . S
N493 C494 1.351 . S
C494 C488 1.428 1_655 S
C494 N493 1.351 . S
C494 C495 1.434 . S
C495 C486 1.429 1_554 S
C495 N492 1.350 . S
C495 C494 1.434 . S
C496 C497 1.369 . S
C496 C498 1.419 . S
C496 H500 0.930 . S
C497 C496 1.369 . S
C497 C506 1.429 1_554 S
C498 C496 1.419 . S
C498 C499 1.363 1_554 S
C498 H501 0.929 . S
C499 C498 1.363 1_556 S
C499 C505 1.428 . S
H500 C496 0.930 . S
H501 C498 0.929 . S
S502 N503 1.613 . S
S502 N504 1.610 . S
N503 S502 1.613 . S
N503 C506 1.350 . S
N504 S502 1.610 . S
N504 C505 1.351 . S
C505 C499 1.428 . S
C505 N504 1.351 . S
C505 C506 1.434 . S
C506 C497 1.429 1_556 S
C506 N503 1.350 . S
C506 C505 1.434 . S
C507 C508 1.369 . S
C507 C509 1.419 . S
C507 H511 0.930 . S
C508 C507 1.369 . S
C508 C517 1.429 1_455 S
C509 C507 1.419 . S
C509 C510 1.363 1_455 S
C509 H512 0.929 . S
C510 C509 1.363 1_655 S
C510 C516 1.428 . S
H511 C507 0.930 . S
H512 C509 0.929 . S
S513 N514 1.613 . S
S513 N515 1.610 . S
N514 S513 1.613 . S
N514 C517 1.350 . S
N515 S513 1.610 . S
N515 C516 1.351 . S
C516 C510 1.428 . S
C516 N515 1.351 . S
C516 C517 1.434 . S
C517 C508 1.429 1_655 S
C517 N514 1.350 . S
C517 C516 1.434 . S
C518 C519 1.369 . S
C518 C520 1.419 . S
C518 H522 0.930 . S
C519 C518 1.369 . S
C519 C528 1.429 . S
C520 C518 1.419 . S
C520 C521 1.363 . S
C520 H523 0.929 . S
C521 C520 1.363 . S
C521 C527 1.428 . S
H522 C518 0.930 . S
H523 C520 0.929 . S
S524 N525 1.613 . S
S524 N526 1.610 . S
N525 S524 1.613 . S
N525 C528 1.350 . S
N526 S524 1.610 . S
N526 C527 1.351 . S
C527 C521 1.428 . S
C527 N526 1.351 . S
C527 C528 1.434 . S
C528 C519 1.429 . S
C528 N525 1.350 . S
C528 C527 1.434 . S
C529 C530 1.369 . S
C529 C531 1.419 . S
C529 H533 0.930 . S
C530 C529 1.369 . S
C530 C539 1.429 1_545 S
C531 C529 1.419 . S
C531 C532 1.363 1_545 S
C531 H534 0.929 . S
C532 C531 1.363 1_565 S
C532 C538 1.428 . S
H533 C529 0.930 . S
H534 C531 0.929 . S
S535 N536 1.613 . S
S535 N537 1.610 . S
N536 S535 1.613 . S
N536 C539 1.350 . S
N537 S535 1.610 . S
N537 C538 1.351 . S
C538 C532 1.428 . S
C538 N537 1.351 . S
C538 C539 1.434 . S
C539 C530 1.429 1_565 S
C539 N536 1.350 . S
C539 C538 1.434 . S
C540 C541 1.369 . S
C540 C542 1.419 . S
C540 H544 0.930 . S
C541 C540 1.369 . S
C541 C550 1.429 . S
C542 C540 1.419 . S
C542 C543 1.363 . S
C542 H545 0.929 . S
C543 C542 1.363 . S
C543 C549 1.428 . S
H544 C540 0.930 . S
H545 C542 0.929 . S
S546 N547 1.613 . S
S546 N548 1.610 . S
N547 S546 1.613 . S
N547 C550 1.350 . S
N548 S546 1.610 . S
N548 C549 1.351 . S
C549 C543 1.428 . S
C549 N548 1.351 . S
C549 C550 1.434 . S
C550 C541 1.429 . S
C550 N547 1.350 . S
C550 C549 1.434 . S
C551 C552 1.369 . S
C551 C553 1.419 . S
C551 H555 0.930 . S
C552 C551 1.369 . S
C552 C561 1.429 . S
C553 C551 1.419 . S
C553 C554 1.363 . S
C553 H556 0.929 . S
C554 C553 1.363 . S
C554 C560 1.428 . S
H555 C551 0.930 . S
H556 C553 0.929 . S
S557 N558 1.613 . S
S557 N559 1.610 . S
N558 S557 1.613 . S
N558 C561 1.350 . S
N559 S557 1.610 . S
N559 C560 1.351 . S
C560 C554 1.428 . S
C560 N559 1.351 . S
C560 C561 1.434 . S
C561 C552 1.429 . S
C561 N558 1.350 . S
C561 C560 1.434 . S
C562 C563 1.369 . S
C562 C564 1.419 . S
C562 H566 0.930 . S
C563 C562 1.369 . S
C563 C572 1.429 . S
C564 C562 1.419 . S
C564 C565 1.363 . S
C564 H567 0.929 . S
C565 C564 1.363 . S
C565 C571 1.428 . S
H566 C562 0.930 . S
H567 C564 0.929 . S
S568 N569 1.613 . S
S568 N570 1.610 . S
N569 S568 1.613 . S
N569 C572 1.350 . S
N570 S568 1.610 . S
N570 C571 1.351 . S
C571 C565 1.428 . S
C571 N570 1.351 . S
C571 C572 1.434 . S
C572 C563 1.429 . S
C572 N569 1.350 . S
C572 C571 1.434 . S
C573 C574 1.369 . S
C573 C575 1.419 . S
C573 H577 0.930 . S
C574 C573 1.369 . S
C574 C583 1.429 . S
C575 C573 1.419 . S
C575 C576 1.363 . S
C575 H578 0.929 . S
C576 C575 1.363 . S
C576 C582 1.428 . S
H577 C573 0.930 . S
H578 C575 0.929 . S
S579 N580 1.613 . S
S579 N581 1.610 . S
N580 S579 1.613 . S
N580 C583 1.350 . S
N581 S579 1.610 . S
N581 C582 1.351 . S
C582 C576 1.428 . S
C582 N581 1.351 . S
C582 C583 1.434 . S
C583 C574 1.429 . S
C583 N580 1.350 . S
C583 C582 1.434 . S
C584 C585 1.369 . S
C584 C586 1.419 . S
C584 H588 0.930 . S
C585 C584 1.369 . S
C585 C594 1.429 . S
C586 C584 1.419 . S
C586 C587 1.363 . S
C586 H589 0.929 . S
C587 C586 1.363 . S
C587 C593 1.428 . S
H588 C584 0.930 . S
H589 C586 0.929 . S
S590 N591 1.613 . S
S590 N592 1.610 . S
N591 S590 1.613 . S
N591 C594 1.350 . S
N592 S590 1.610 . S
N592 C593 1.351 . S
C593 C587 1.428 . S
C593 N592 1.351 . S
C593 C594 1.434 . S
C594 C585 1.429 . S
C594 N591 1.350 . S
C594 C593 1.434 . S
C595 C596 1.369 . S
C595 C597 1.419 . S
C595 H599 0.930 . S
C596 C595 1.369 . S
C596 C605 1.429 . S
C597 C595 1.419 . S
C597 C598 1.363 . S
C597 H600 0.929 . S
C598 C597 1.363 . S
C598 C604 1.428 . S
H599 C595 0.930 . S
H600 C597 0.929 . S
S601 N602 1.613 . S
S601 N603 1.610 . S
N602 S601 1.613 . S
N602 C605 1.350 . S
N603 S601 1.610 . S
N603 C604 1.351 . S
C604 C598 1.428 . S
C604 N603 1.351 . S
C604 C605 1.434 . S
C605 C596 1.429 . S
C605 N602 1.350 . S
C605 C604 1.434 . S
C606 C607 1.369 . S
C606 C608 1.419 . S
C606 H610 0.930 . S
C607 C606 1.369 . S
C607 C616 1.429 . S
C608 C606 1.419 . S
C608 C609 1.363 1_556 S
C608 H611 0.929 . S
C609 C608 1.363 1_554 S
C609 C615 1.428 . S
H610 C606 0.930 . S
H611 C608 0.929 . S
S612 N613 1.613 . S
S612 N614 1.610 . S
N613 S612 1.613 . S
N613 C616 1.350 1_554 S
N614 S612 1.610 . S
N614 C615 1.351 . S
C615 C609 1.428 . S
C615 N614 1.351 . S
C615 C616 1.434 1_554 S
C616 C607 1.429 . S
C616 N613 1.350 1_556 S
C616 C615 1.434 1_556 S
C617 C618 1.369 . S
C617 C619 1.419 . S
C617 H621 0.930 . S
C618 C617 1.369 . S
C618 C627 1.429 1_556 S
C619 C617 1.419 . S
C619 C620 1.363 1_556 S
C619 H622 0.929 . S
C620 C619 1.363 1_554 S
C620 C626 1.428 . S
H621 C617 0.930 . S
H622 C619 0.929 . S
S623 N624 1.613 . S
S623 N625 1.610 . S
N624 S623 1.613 . S
N624 C627 1.350 . S
N625 S623 1.610 . S
N625 C626 1.351 . S
C626 C620 1.428 . S
C626 N625 1.351 . S
C626 C627 1.434 . S
C627 C618 1.429 1_554 S
C627 N624 1.350 . S
C627 C626 1.434 . S
C628 C629 1.369 1_556 S
C628 C630 1.419 . S
C628 H632 0.930 . S
C629 C628 1.369 1_554 S
C629 C638 1.429 . S
C630 C628 1.419 . S
C630 C631 1.363 . S
C630 H633 0.929 . S
C631 C630 1.363 . S
C631 C637 1.428 1_556 S
H632 C628 0.930 . S
H633 C630 0.929 . S
S634 N635 1.613 . S
S634 N636 1.610 . S
N635 S634 1.613 . S
N635 C638 1.350 . S
N636 S634 1.610 . S
N636 C637 1.351 . S
C637 C631 1.428 1_554 S
C637 N636 1.351 . S
C637 C638 1.434 . S
C638 C629 1.429 . S
C638 N635 1.350 . S
C638 C637 1.434 . S
C639 C640 1.369 . S
C639 C641 1.419 . S
C639 H643 0.930 . S
C640 C639 1.369 . S
C640 C649 1.429 . S
C641 C639 1.419 . S
C641 C642 1.363 . S
C641 H644 0.929 . S
C642 C641 1.363 . S
C642 C648 1.428 . S
H643 C639 0.930 . S
H644 C641 0.929 . S
S645 N646 1.613 . S
S645 N647 1.610 . S
N646 S645 1.613 . S
N646 C649 1.350 . S
N647 S645 1.610 . S
N647 C648 1.351 . S
C648 C642 1.428 . S
C648 N647 1.351 . S
C648 C649 1.434 . S
C649 C640 1.429 . S
C649 N646 1.350 . S
C649 C648 1.434 . S
C650 C651 1.369 . S
C650 C652 1.419 . S
C650 H654 0.930 . S
C651 C650 1.369 . S
C651 C660 1.429 . S
C652 C650 1.419 . S
C652 C653 1.363 . S
C652 H655 0.929 . S
C653 C652 1.363 . S
C653 C659 1.428 . S
H654 C650 0.930 . S
H655 C652 0.929 . S
S656 N657 1.613 . S
S656 N658 1.610 . S
N657 S656 1.613 . S
N657 C660 1.350 . S
N658 S656 1.610 . S
N658 C659 1.351 . S
C659 C653 1.428 . S
C659 N658 1.351 . S
C659 C660 1.434 . S
C660 C651 1.429 . S
C660 N657 1.350 . S
C660 C659 1.434 . S
C661 C662 1.369 . S
C661 C663 1.419 . S
C661 H665 0.930 . S
C662 C661 1.369 . S
C662 C671 1.429 . S
C663 C661 1.419 . S
C663 C664 1.363 . S
C663 H666 0.929 . S
C664 C663 1.363 . S
C664 C670 1.428 . S
H665 C661 0.930 . S
H666 C663 0.929 . S
S667 N668 1.613 . S
S667 N669 1.610 . S
N668 S667 1.613 . S
N668 C671 1.350 . S
N669 S667 1.610 . S
N669 C670 1.351 . S
C670 C664 1.428 . S
C670 N669 1.351 . S
C670 C671 1.434 . S
C671 C662 1.429 . S
C671 N668 1.350 . S
C671 C670 1.434 . S
C672 C673 1.369 . S
C672 C674 1.419 1_556 S
C672 H676 0.930 . S
C673 C672 1.369 . S
C673 C682 1.429 1_556 S
C674 C672 1.419 1_554 S
C674 C675 1.363 . S
C674 H677 0.929 1_554 S
C675 C674 1.363 . S
C675 C681 1.428 . S
H676 C672 0.930 . S
H677 C674 0.929 1_556 S
S678 N679 1.613 . S
S678 N680 1.610 . S
N679 S678 1.613 . S
N679 C682 1.350 . S
N680 S678 1.610 . S
N680 C681 1.351 . S
C681 C675 1.428 . S
C681 N680 1.351 . S
C681 C682 1.434 . S
C682 C673 1.429 1_554 S
C682 N679 1.350 . S
C682 C681 1.434 . S
C683 C684 1.369 . S
C683 C685 1.419 . S
C683 H687 0.930 . S
C684 C683 1.369 . S
C684 C693 1.429 1_554 S
C685 C683 1.419 . S
C685 C686 1.363 1_554 S
C685 H688 0.929 . S
C686 C685 1.363 1_556 S
C686 C692 1.428 . S
H687 C683 0.930 . S
H688 C685 0.929 . S
S689 N690 1.613 . S
S689 N691 1.610 . S
N690 S689 1.613 . S
N690 C693 1.350 . S
N691 S689 1.610 . S
N691 C692 1.351 . S
C692 C686 1.428 . S
C692 N691 1.351 . S
C692 C693 1.434 . S
C693 C684 1.429 1_556 S
C693 N690 1.350 . S
C693 C692 1.434 . S
C694 C695 1.369 1_554 S
C694 C696 1.419 . S
C694 H698 0.930 . S
C695 C694 1.369 1_556 S
C695 C704 1.429 . S
C696 C694 1.419 . S
C696 C697 1.363 . S
C696 H699 0.929 . S
C697 C696 1.363 . S
C697 C703 1.428 1_554 S
H698 C694 0.930 . S
H699 C696 0.929 . S
S700 N701 1.613 . S
S700 N702 1.610 . S
N701 S700 1.613 . S
N701 C704 1.350 . S
N702 S700 1.610 . S
N702 C703 1.351 . S
C703 C697 1.428 1_556 S
C703 N702 1.351 . S
C703 C704 1.434 . S
C704 C695 1.429 . S
C704 N701 1.350 . S
C704 C703 1.434 . S
C705 C706 1.369 . S
C705 C707 1.419 . S
C705 H709 0.930 . S
C706 C705 1.369 . S
C706 C715 1.429 . S
C707 C705 1.419 . S
C707 C708 1.363 . S
C707 H710 0.929 . S
C708 C707 1.363 . S
C708 C714 1.428 . S
H709 C705 0.930 . S
H710 C707 0.929 . S
S711 N712 1.613 . S
S711 N713 1.610 . S
N712 S711 1.613 . S
N712 C715 1.350 . S
N713 S711 1.610 . S
N713 C714 1.351 . S
C714 C708 1.428 . S
C714 N713 1.351 . S
C714 C715 1.434 . S
C715 C706 1.429 . S
C715 N712 1.350 . S
C715 C714 1.434 . S
C716 C717 1.369 . S
C716 C718 1.419 . S
C716 H720 0.930 . S
C717 C716 1.369 . S
C717 C726 1.429 . S
C718 C716 1.419 . S
C718 C719 1.363 . S
C718 H721 0.929 . S
C719 C718 1.363 . S
C719 C725 1.428 . S
H720 C716 0.930 . S
H721 C718 0.929 . S
S722 N723 1.613 . S
S722 N724 1.610 . S
N723 S722 1.613 . S
N723 C726 1.350 . S
N724 S722 1.610 . S
N724 C725 1.351 . S
C725 C719 1.428 . S
C725 N724 1.351 . S
C725 C726 1.434 . S
C726 C717 1.429 . S
C726 N723 1.350 . S
C726 C725 1.434 . S
C727 C728 1.369 . S
C727 C729 1.419 . S
C727 H731 0.930 . S
C728 C727 1.369 . S
C728 C737 1.429 . S
C729 C727 1.419 . S
C729 C730 1.363 . S
C729 H732 0.929 . S
C730 C729 1.363 . S
C730 C736 1.428 . S
H731 C727 0.930 . S
H732 C729 0.929 . S
S733 N734 1.613 . S
S733 N735 1.610 . S
N734 S733 1.613 . S
N734 C737 1.350 . S
N735 S733 1.610 . S
N735 C736 1.351 . S
C736 C730 1.428 . S
C736 N735 1.351 . S
C736 C737 1.434 . S
C737 C728 1.429 . S
C737 N734 1.350 . S
C737 C736 1.434 . S
C409 C175 0.999 . S
C411 C5 0.997 . S
C420 C39 0.990 . S
C422 C107 0.990 . S
C431 C73 0.984 . S
C433 C141 0.986 . S
C442 C209 0.999 . S
C444 C379 0.997 . S
C453 C311 0.983 . S
C455 C243 0.986 . S
C464 C345 0.984 . S
C466 C277 0.986 . S
C475 C33 2.235 1_556 S
C477 C237 2.232 1_554 S
C486 C67 2.227 1_556 S
C488 C271 2.237 1_554 S
C497 C305 2.230 1_554 S
C499 C101 2.233 1_556 S
C508 C339 2.239 . S
C510 C135 2.229 . S
C519 C169 2.237 . S
C521 C373 2.228 . S
C530 C203 2.237 . S
C532 C407 2.228 . S
C541 C156 1.931 . S
C543 C20 1.933 . S
C552 C190 1.936 . S
C554 C54 1.937 . S
C563 C122 1.932 . S
C565 C88 1.932 . S
C574 C224 1.930 . S
C576 C360 1.932 . S
C585 C258 1.934 . S
C587 C394 1.936 . S
C596 C326 1.931 . S
C598 C292 1.933 . S
C607 C9 1.976 . S
C609 C70 2.130 . S
C618 C43 1.983 . S
C620 C2 2.127 . S
C629 C36 2.128 . S
C631 C77 1.980 . S
C640 C111 1.977 . S
C642 C138 2.129 . S
C651 C172 2.127 . S
C653 C145 1.985 . S
C662 C104 2.126 . S
C664 C179 1.984 . S
C673 C274 2.127 . S
C675 C213 1.985 . S
C684 C247 1.976 . S
C686 C206 2.130 . S
C695 C240 2.128 . S
C697 C281 1.980 . S
C706 C342 2.130 . S
C708 C315 1.978 . S
C717 C376 2.130 . S
C719 C349 1.978 . S
C728 C383 1.986 . S
C730 C308 2.128 . S
