# Generated by pormake.
# Topology smm, (6)-cn, num edge types: 1
# Building blocks:
#     Node 0, Type 0, BuildingBlock: BETGAK_clean_sbu_0, # of connection points: 6
#     Node 1, Type 0, BuildingBlock: BETGAK_clean_sbu_0, # of connection points: 6
#     Node 2, Type 0, BuildingBlock: BETGAK_clean_sbu_0, # of connection points: 6
#     Node 3, Type 0, BuildingBlock: BETGAK_clean_sbu_0, # of connection points: 6
#     Node 4, Type 0, BuildingBlock: BETGAK_clean_sbu_0, # of connection points: 6
#     Node 5, Type 0, BuildingBlock: BETGAK_clean_sbu_0, # of connection points: 6
#     Node 6, Type 0, BuildingBlock: BETGAK_clean_sbu_0, # of connection points: 6
#     Node 7, Type 0, BuildingBlock: BETGAK_clean_sbu_0, # of connection points: 6
#     Node 8, Type 0, BuildingBlock: BETGAK_clean_sbu_0, # of connection points: 6
#     Edge 9, Type (0, 0), BuildingBlock: OJICUG_clean_linker_0, # of connection points: 2
#     Edge 10, Type (0, 0), BuildingBlock: OJICUG_clean_linker_0, # of connection points: 2
#     Edge 11, Type (0, 0), BuildingBlock: OJICUG_clean_linker_0, # of connection points: 2
#     Edge 12, Type (0, 0), BuildingBlock: OJICUG_clean_linker_0, # of connection points: 2
#     Edge 13, Type (0, 0), BuildingBlock: OJICUG_clean_linker_0, # of connection points: 2
#     Edge 14, Type (0, 0), BuildingBlock: OJICUG_clean_linker_0, # of connection points: 2
#     Edge 15, Type (0, 0), BuildingBlock: OJICUG_clean_linker_0, # of connection points: 2
#     Edge 16, Type (0, 0), BuildingBlock: OJICUG_clean_linker_0, # of connection points: 2
#     Edge 17, Type (0, 0), BuildingBlock: OJICUG_clean_linker_0, # of connection points: 2
#     Edge 18, Type (0, 0), BuildingBlock: OJICUG_clean_linker_0, # of connection points: 2
#     Edge 19, Type (0, 0), BuildingBlock: OJICUG_clean_linker_0, # of connection points: 2
#     Edge 20, Type (0, 0), BuildingBlock: OJICUG_clean_linker_0, # of connection points: 2
#     Edge 21, Type (0, 0), BuildingBlock: OJICUG_clean_linker_0, # of connection points: 2
#     Edge 22, Type (0, 0), BuildingBlock: OJICUG_clean_linker_0, # of connection points: 2
#     Edge 23, Type (0, 0), BuildingBlock: OJICUG_clean_linker_0, # of connection points: 2
#     Edge 24, Type (0, 0), BuildingBlock: OJICUG_clean_linker_0, # of connection points: 2
#     Edge 25, Type (0, 0), BuildingBlock: OJICUG_clean_linker_0, # of connection points: 2
#     Edge 26, Type (0, 0), BuildingBlock: OJICUG_clean_linker_0, # of connection points: 2
#     Edge 27, Type (0, 0), BuildingBlock: OJICUG_clean_linker_0, # of connection points: 2
#     Edge 28, Type (0, 0), BuildingBlock: OJICUG_clean_linker_0, # of connection points: 2
#     Edge 29, Type (0, 0), BuildingBlock: OJICUG_clean_linker_0, # of connection points: 2
#     Edge 30, Type (0, 0), BuildingBlock: OJICUG_clean_linker_0, # of connection points: 2
#     Edge 31, Type (0, 0), BuildingBlock: OJICUG_clean_linker_0, # of connection points: 2
#     Edge 32, Type (0, 0), BuildingBlock: OJICUG_clean_linker_0, # of connection points: 2
#     Edge 33, Type (0, 0), BuildingBlock: OJICUG_clean_linker_0, # of connection points: 2
#     Edge 34, Type (0, 0), BuildingBlock: OJICUG_clean_linker_0, # of connection points: 2
#     Edge 35, Type (0, 0), BuildingBlock: OJICUG_clean_linker_0, # of connection points: 2
# Relax obj value: 0.033
# Max RMSD: 0.111
# Mean RMSD: 0.111
data_MOF--net-smm--node1-BETGAK_clean_sbu_0--edge1-OJICUG_clean_linker_0
_symmetry_space_group_name_H-M    P1
_symmetry_Int_Tables_number       1
_symmetry_cell_setting            triclinic
loop_
_symmetry_equiv_pos_as_xyz
'x, y, z'
_cell_length_a     56.422875
_cell_length_b     56.422556
_cell_length_c     10.227832
_cell_angle_alpha  89.982997
_cell_angle_beta   89.989207
_cell_angle_gamma 119.99679
loop_
_atom_site_label
_atom_site_type_symbol
_atom_site_fract_x
_atom_site_fract_y
_atom_site_fract_z
_atom_type_partial_charge
La0 La 0.0891 0.24203 0.00549 0.0
La1 La 1.03824 0.18716 0.0462 0.0
C2 C 0.12452 0.28722 0.90781 0.0
C3 C 0.13205 0.3163 0.88963 0.0
C4 C 0.14901 0.33627 0.98073 0.0
C5 C 0.15971 0.36412 0.9541 0.0
C6 C 0.15392 0.37277 0.83527 0.0
C7 C 0.13611 0.35277 0.74628 0.0
C8 C 0.12543 0.32487 0.77284 0.0
C9 C 0.07811 0.22611 0.25175 0.0
C10 C 1.03132 0.23892 0.0505 0.0
C11 C 1.00215 0.14029 0.124 0.0
C12 C 0.99331 0.11106 0.10012 0.0
C13 C 0.97924 0.09769 0.98527 0.0
C14 C 0.96891 0.06957 0.96911 0.0
C15 C 0.97234 0.05407 0.06729 0.0
C16 C 0.98691 0.06757 0.18092 0.0
C17 C 0.99716 0.09569 0.19729 0.0
C18 C 1.05042 0.20275 0.79939 0.0
C19 C 0.09685 0.19107 0.02744 0.0
O20 O 0.12617 0.27906 0.02567 0.0
O21 O 0.10327 0.26852 0.84362 0.0
O22 O 0.10263 0.24159 0.20637 0.0
O23 O 0.06109 0.22247 0.16364 0.0
O24 O 0.05648 0.25296 0.00179 0.0
O25 O 1.02148 0.21354 0.09344 0.0
O26 O 0.99847 0.15372 0.0293 0.0
O27 O 1.02559 0.15523 0.18354 0.0
O28 O 1.02581 0.18783 0.84331 0.0
O29 O 0.06686 0.20623 0.88988 0.0
O30 O 0.07092 0.17687 0.0652 0.0
O31 O 0.10751 0.21633 0.9818 0.0
H32 H 0.1548 0.33048 0.07103 0.0
H33 H 0.173 0.37893 0.02584 0.0
H34 H 0.1314 0.35867 0.65338 0.0
H35 H 0.1128 0.31008 0.69949 0.0
H36 H 0.97576 0.10881 0.90841 0.0
H37 H 0.95812 0.05993 0.87965 0.0
H38 H 0.98966 0.05625 0.25924 0.0
H39 H 1.00761 0.10532 0.28749 0.0
La40 La 0.87175 0.87711 0.00546 0.0
La41 La 0.92665 0.88116 0.04594 0.0
C42 C 0.82656 0.86732 0.90794 0.0
C43 C 0.7975 0.84577 0.8897 0.0
C44 C 0.77749 0.84274 0.98074 0.0
C45 C 0.74966 0.8256 0.95404 0.0
C46 C 0.74104 0.81117 0.8352 0.0
C47 C 0.76107 0.81337 0.74629 0.0
C48 C 0.78895 0.83057 0.77292 0.0
C49 C 0.88768 0.88205 0.25164 0.0
C50 C 0.87492 0.82247 0.05035 0.0
C51 C 0.97352 0.89197 0.12369 0.0
C52 C 1.00276 0.91239 0.0999 0.0
C53 C 1.01612 0.91185 0.98468 0.0
C54 C 1.04425 0.92964 0.96862 0.0
C55 C 0.05975 0.94841 0.06725 0.0
C56 C 1.04625 0.94933 0.18126 0.0
C57 C 1.01813 0.93145 0.19754 0.0
C58 C 0.91106 0.87775 0.7992 0.0
C59 C 0.92269 0.93585 0.0272 0.0
O60 O 0.83469 0.87709 0.02585 0.0
O61 O 0.84529 0.86482 0.84363 0.0
O62 O 0.87218 0.89107 0.20633 0.0
O63 O 0.89134 0.86868 0.16351 0.0
O64 O 0.86085 0.83357 0.00181 0.0
O65 O 0.9003 0.83801 0.09313 0.0
O66 O 0.96013 0.87489 0.0289 0.0
O67 O 0.95856 0.90044 0.1833 0.0
O68 O 0.926 0.86808 0.84306 0.0
O69 O 0.90756 0.89069 0.8897 0.0
O70 O 0.93692 0.92413 0.06468 0.0
O71 O 0.89741 0.92123 0.98187 0.0
H72 H 0.78326 0.85431 0.07102 0.0
H73 H 0.73482 0.82406 0.02572 0.0
H74 H 0.75519 0.80276 0.6534 0.0
H75 H 0.80377 0.83275 0.69962 0.0
H76 H 1.005 0.89738 0.90744 0.0
H77 H 1.05389 0.92861 0.87887 0.0
H78 H 0.05758 0.96328 0.25992 0.0
H79 H 1.0085 0.93215 0.28801 0.0
La80 La 0.23673 1.02474 0.00552 0.0
La81 La 0.23267 0.07559 0.046 0.0
C82 C 0.24654 0.98936 0.90791 0.0
C83 C 0.2681 0.98186 0.88969 0.0
C84 C 0.27134 0.96512 0.98141 0.0
C85 C 0.28849 0.95443 0.95484 0.0
C86 C 0.30273 0.96002 0.83549 0.0
C87 C 0.30033 0.97762 0.74586 0.0
C88 C 0.28311 0.98829 0.77235 0.0
C89 C 0.23178 1.03573 0.25172 0.0
C90 C 0.29137 0.08254 0.05027 0.0
C91 C 0.22186 0.11164 0.12386 0.0
C92 C 0.20142 0.12043 0.10021 0.0
C93 C 0.20164 0.13392 0.98404 0.0
C94 C 0.18384 0.14424 0.968 0.0
C95 C 0.16537 0.14136 0.06757 0.0
C96 C 0.16477 0.12735 0.18254 0.0
C97 C 0.18266 0.11713 0.19881 0.0
C98 C 0.23609 0.06341 0.79925 0.0
C99 C 0.17799 1.01695 0.02738 0.0
O100 O 0.23673 0.98769 0.02579 0.0
O101 O 0.24905 1.01059 0.84365 0.0
O102 O 0.22277 1.01121 0.20646 0.0
O103 O 0.24516 0.05275 0.16353 0.0
O104 O 0.28027 0.05737 0.0018 0.0
O105 O 0.27582 0.09238 0.09303 0.0
O106 O 0.23894 0.11533 0.02898 0.0
O107 O 0.21339 0.0882 0.1835 0.0
O108 O 0.24576 0.08802 0.84307 0.0
O109 O 0.22315 0.04697 0.88981 0.0
O110 O 0.18971 0.04289 0.06487 0.0
O111 O 0.19261 1.00629 0.98199 0.0
H112 H 0.25991 0.95949 0.07217 0.0
H113 H 0.29018 0.94131 0.02705 0.0
H114 H 0.3108 0.98217 0.65257 0.0
H115 H 0.28078 1.00074 0.69854 0.0
H116 H 0.21587 0.13695 0.90602 0.0
H117 H 0.18462 0.15459 0.87754 0.0
H118 H 0.15106 0.12503 0.26188 0.0
H119 H 0.18222 0.10712 0.28996 0.0
La120 La 0.7558 0.57537 0.33882 0.0
La121 La 0.70494 0.5205 0.37959 0.0
C122 C 0.79122 0.62055 0.24112 0.0
C123 C 0.79875 0.64963 0.22299 0.0
C124 C 0.81571 0.6696 0.31411 0.0
C125 C 0.8264 0.69745 0.28752 0.0
C126 C 0.82061 0.7061 0.16871 0.0
C127 C 0.8028 0.6861 0.07971 0.0
C128 C 0.79212 0.65821 0.10623 0.0
C129 C 0.74482 0.55946 0.58511 0.0
C130 C 0.69803 0.57226 0.38379 0.0
C131 C 0.66885 0.47364 0.45743 0.0
C132 C 0.66002 0.4444 0.4336 0.0
C133 C 0.64604 0.43105 0.31852 0.0
C134 C 0.63571 0.40293 0.30239 0.0
C135 C 0.63904 0.38742 0.40081 0.0
C136 C 0.65351 0.4009 0.51468 0.0
C137 C 0.66376 0.42902 0.53102 0.0
C138 C 0.71713 0.53608 0.13275 0.0
C139 C 0.76355 0.5244 0.36087 0.0
O140 O 0.79288 0.61239 0.35896 0.0
O141 O 0.76997 0.60185 0.17695 0.0
O142 O 0.76933 0.57493 0.53971 0.0
O143 O 0.7278 0.55582 0.49699 0.0
O144 O 0.72319 0.5863 0.33507 0.0
O145 O 0.68819 0.54689 0.42678 0.0
O146 O 0.66517 0.48706 0.3627 0.0
O147 O 0.69229 0.48857 0.51697 0.0
O148 O 0.69252 0.52116 0.17668 0.0
O149 O 0.73357 0.53956 0.22325 0.0
O150 O 0.73762 0.51022 0.39872 0.0
O151 O 0.77421 0.54966 0.31509 0.0
H152 H 0.8215 0.6638 0.40438 0.0
H153 H 0.83969 0.71226 0.35927 0.0
H154 H 0.79808 0.69201 0.98683 0.0
H155 H 0.77949 0.64342 0.03286 0.0
H156 H 0.64265 0.44219 0.24145 0.0
H157 H 0.625 0.39331 0.21275 0.0
H158 H 0.65619 0.38956 0.59318 0.0
H159 H 0.67414 0.43863 0.62138 0.0
La160 La 0.53842 0.21046 0.33902 0.0
La161 La 0.59331 0.2145 0.37951 0.0
C162 C 0.49323 0.20068 0.2415 0.0
C163 C 0.46416 0.17913 0.2233 0.0
C164 C 0.44416 0.17611 0.31432 0.0
C165 C 0.41633 0.15898 0.28764 0.0
C166 C 0.40771 0.14453 0.16884 0.0
C167 C 0.42773 0.14672 0.07994 0.0
C168 C 0.45562 0.16392 0.10655 0.0
C169 C 0.55435 0.21539 0.58521 0.0
C170 C 0.54157 0.15581 0.3839 0.0
C171 C 0.64018 0.22529 0.45729 0.0
C172 C 0.66942 0.24572 0.43354 0.0
C173 C 0.68277 0.24522 0.31817 0.0
C174 C 0.71089 0.26302 0.30211 0.0
C175 C 0.7264 0.28174 0.40089 0.0
C176 C 0.71292 0.2826 0.51505 0.0
C177 C 0.6848 0.26473 0.53133 0.0
C178 C 0.57772 0.21109 0.13277 0.0
C179 C 0.58937 0.26919 0.36076 0.0
O180 O 0.50137 0.21045 0.35941 0.0
O181 O 0.51195 0.19818 0.1772 0.0
O182 O 0.53886 0.22442 0.5399 0.0
O183 O 0.558 0.20202 0.49708 0.0
O184 O 0.52751 0.16692 0.33535 0.0
O185 O 0.56695 0.17135 0.42669 0.0
O186 O 0.62678 0.20822 0.36249 0.0
O187 O 0.62522 0.23377 0.5169 0.0
O188 O 0.59266 0.20142 0.17664 0.0
O189 O 0.57423 0.22404 0.22327 0.0
O190 O 0.60359 0.25747 0.39828 0.0
O191 O 0.56409 0.25458 0.3154 0.0
H192 H 0.44993 0.1877 0.40457 0.0
H193 H 0.40149 0.15745 0.35931 0.0
H194 H 0.42185 0.1361 0.98708 0.0
H195 H 0.47043 0.16609 0.03326 0.0
H196 H 0.67163 0.23079 0.2408 0.0
H197 H 0.72052 0.26203 0.21225 0.0
H198 H 0.72426 0.29651 0.59382 0.0
H199 H 0.67518 0.26538 0.6219 0.0
La200 La 0.90338 0.35806 0.33904 0.0
La201 La 0.89933 0.4089 0.37958 0.0
C202 C 0.91318 0.32266 0.24145 0.0
C203 C 0.93474 0.31516 0.22318 0.0
C204 C 0.93796 0.29841 0.31481 0.0
C205 C 0.95512 0.28772 0.28819 0.0
C206 C 0.96937 0.29333 0.16887 0.0
C207 C 0.96699 0.31095 0.07933 0.0
C208 C 0.94977 0.32162 0.10587 0.0
C209 C 0.89844 0.36904 0.58526 0.0
C210 C 0.95802 0.41584 0.38376 0.0
C211 C 0.88853 0.44496 0.45752 0.0
C212 C 0.86809 0.45375 0.43395 0.0
C213 C 0.86807 0.46693 0.3171 0.0
C214 C 0.85027 0.47725 0.30106 0.0
C215 C 0.83205 0.47468 0.40128 0.0
C216 C 0.83169 0.46098 0.51695 0.0
C217 C 0.84957 0.45075 0.53322 0.0
C218 C 0.90274 0.39673 0.1328 0.0
C219 C 0.84464 0.35027 0.36095 0.0
O220 O 0.90339 0.32101 0.35936 0.0
O221 O 0.91567 0.34389 0.17715 0.0
O222 O 0.88942 0.34452 0.53998 0.0
O223 O 0.91181 0.38606 0.49707 0.0
O224 O 0.94691 0.39069 0.33516 0.0
O225 O 0.94247 0.42568 0.42666 0.0
O226 O 0.9056 0.44865 0.36259 0.0
O227 O 0.88006 0.42152 0.51712 0.0
O228 O 0.91242 0.42134 0.17664 0.0
O229 O 0.88979 0.38028 0.22336 0.0
O230 O 0.85636 0.37621 0.39848 0.0
O231 O 0.85926 0.33961 0.31552 0.0
H232 H 0.92652 0.29275 0.40554 0.0
H233 H 0.9568 0.27458 0.36033 0.0
H234 H 0.97746 0.31552 0.98607 0.0
H235 H 0.94744 0.33409 0.03213 0.0
H236 H 0.8821 0.4697 0.23853 0.0
H237 H 0.85086 0.48736 0.21009 0.0
H238 H 0.81816 0.4589 0.59677 0.0
H239 H 0.84933 0.44099 0.62486 0.0
La240 La 0.42245 0.9087 0.6722 0.0
La241 La 0.37159 0.85383 0.7129 0.0
C242 C 0.45786 0.95389 0.57454 0.0
C243 C 0.46539 0.98297 0.55643 0.0
C244 C 0.48234 1.00294 0.64757 0.0
C245 C 0.49304 1.03078 0.621 0.0
C246 C 0.48724 0.03944 0.5022 0.0
C247 C 0.46944 1.01945 0.41318 0.0
C248 C 0.45876 0.99155 0.43968 0.0
C249 C 0.41146 0.89278 0.91846 0.0
C250 C 0.36467 0.90559 0.71723 0.0
C251 C 0.33549 0.80696 0.79062 0.0
C252 C 0.32665 0.77772 0.76661 0.0
C253 C 0.3123 0.76431 0.65238 0.0
C254 C 0.30198 0.73619 0.63615 0.0
C255 C 0.30566 0.72074 0.73367 0.0
C256 C 0.32049 0.73428 0.84668 0.0
C257 C 0.33075 0.7624 0.86311 0.0
C258 C 0.38377 0.86943 0.46609 0.0
C259 C 0.4302 0.85774 0.69412 0.0
O260 O 0.45952 0.94573 0.69238 0.0
O261 O 0.43662 0.9352 0.51035 0.0
O262 O 0.43598 0.90826 0.87307 0.0
O263 O 0.39444 0.88914 0.83035 0.0
O264 O 0.38983 0.91963 0.6685 0.0
O265 O 0.35484 0.88022 0.76019 0.0
O266 O 0.33181 0.8204 0.69599 0.0
O267 O 0.35894 0.82188 0.85015 0.0
O268 O 0.35916 0.85451 0.51001 0.0
O269 O 0.40021 0.87291 0.55658 0.0
O270 O 0.40427 0.84355 0.73191 0.0
O271 O 0.44086 0.883 0.64846 0.0
H272 H 0.48814 0.99714 0.73784 0.0
H273 H 0.50632 0.0456 0.69276 0.0
H274 H 0.46472 1.02536 0.32031 0.0
H275 H 0.44613 0.97676 0.3663 0.0
H276 H 0.30862 0.77539 0.57607 0.0
H277 H 0.29098 0.72652 0.54716 0.0
H278 H 0.32345 0.723 0.92452 0.0
H279 H 0.3414 0.77206 0.95286 0.0
La280 La 0.20509 0.54376 0.67183 0.0
La281 La 0.25999 0.54783 0.7123 0.0
C282 C 0.1599 0.53396 0.57425 0.0
C283 C 0.13084 0.5124 0.55597 0.0
C284 C 0.11087 0.50904 0.64796 0.0
C285 C 0.08303 0.49189 0.62139 0.0
C286 C 0.07438 0.47777 0.50178 0.0
C287 C 0.09438 0.48029 0.41186 0.0
C288 C 0.12226 0.49751 0.43834 0.0
C289 C 0.22102 0.54871 0.91801 0.0
C290 C 0.20826 0.48913 0.71675 0.0
C291 C 0.30686 0.55863 0.79005 0.0
C292 C 0.3361 0.57905 0.76626 0.0
C293 C 0.34946 0.5785 0.65105 0.0
C294 C 0.37759 0.59629 0.63497 0.0
C295 C 0.39309 0.61507 0.7336 0.0
C296 C 0.37959 0.61599 0.84759 0.0
C297 C 0.35147 0.59812 0.86388 0.0
C298 C 0.24439 0.5444 0.46556 0.0
C299 C 0.25603 0.60251 0.69356 0.0
O300 O 0.16802 0.54373 0.69217 0.0
O301 O 0.17863 0.53148 0.50995 0.0
O302 O 0.20552 0.55772 0.87271 0.0
O303 O 0.22467 0.53534 0.82988 0.0
O304 O 0.19419 0.50023 0.66821 0.0
O305 O 0.23364 0.50467 0.7595 0.0
O306 O 0.29346 0.54154 0.69528 0.0
O307 O 0.2919 0.56711 0.84965 0.0
O308 O 0.25934 0.53474 0.50943 0.0
O309 O 0.24089 0.55735 0.55607 0.0
O310 O 0.27026 0.59079 0.73095 0.0
O311 O 0.23074 0.58789 0.64833 0.0
H312 H 0.11666 0.52037 0.73895 0.0
H313 H 0.06821 0.4901 0.6938 0.0
H314 H 0.08847 0.46993 0.31837 0.0
H315 H 0.13706 0.49995 0.36434 0.0
H316 H 0.33834 0.56403 0.57382 0.0
H317 H 0.38722 0.59526 0.54524 0.0
H318 H 0.39092 0.62994 0.92624 0.0
H319 H 0.34184 0.59882 0.95435 0.0
La320 La 0.57007 0.6914 0.67184 0.0
La321 La 0.56601 0.74224 0.71233 0.0
C322 C 0.57988 0.65602 0.57421 0.0
C323 C 0.60144 0.64852 0.55603 0.0
C324 C 0.60467 0.63178 0.64774 0.0
C325 C 0.62182 0.62109 0.6212 0.0
C326 C 0.63608 0.62668 0.50188 0.0
C327 C 0.63369 0.64429 0.41225 0.0
C328 C 0.61646 0.65495 0.43872 0.0
C329 C 0.56512 0.70238 0.91804 0.0
C330 C 0.62471 0.74919 0.71658 0.0
C331 C 0.5552 0.77829 0.79022 0.0
C332 C 0.53476 0.78708 0.76663 0.0
C333 C 0.53495 0.80054 0.6504 0.0
C334 C 0.51714 0.81086 0.63441 0.0
C335 C 0.49871 0.80801 0.73409 0.0
C336 C 0.49814 0.79404 0.84911 0.0
C337 C 0.51603 0.78381 0.86533 0.0
C338 C 0.56943 0.73007 0.46557 0.0
C339 C 0.51132 0.68361 0.6937 0.0
O340 O 0.57006 0.65434 0.69208 0.0
O341 O 0.58239 0.67725 0.50997 0.0
O342 O 0.55611 0.67787 0.87277 0.0
O343 O 0.57849 0.7194 0.82985 0.0
O344 O 0.6136 0.72403 0.66812 0.0
O345 O 0.60916 0.75904 0.75934 0.0
O346 O 0.57227 0.78198 0.6953 0.0
O347 O 0.54674 0.75486 0.84986 0.0
O348 O 0.5791 0.75468 0.50939 0.0
O349 O 0.55648 0.71362 0.55613 0.0
O350 O 0.52304 0.70955 0.73119 0.0
O351 O 0.52594 0.67294 0.64831 0.0
H352 H 0.59323 0.62614 0.73848 0.0
H353 H 0.62351 0.60796 0.6934 0.0
H354 H 0.64416 0.64885 0.31899 0.0
H355 H 0.61413 0.66741 0.36491 0.0
H356 H 0.54914 0.80354 0.57229 0.0
H357 H 0.51789 0.82119 0.5439 0.0
H358 H 0.48445 0.79175 0.92854 0.0
H359 H 0.51562 0.77383 0.95653 0.0
C360 C 0.15343 0.41383 0.73887 0.0
C361 C 0.16766 0.40248 0.80175 0.0
H362 H 0.15494 0.45 0.66249 0.0
C363 C 0.19549 0.41974 0.83137 0.0
H364 H 0.13195 0.40116 0.71502 0.0
C365 C 0.20865 0.44761 0.8012 0.0
C366 C 0.19436 0.45912 0.7406 0.0
H367 H 0.20728 0.41165 0.87716 0.0
H368 H 0.23005 0.46017 0.8267 0.0
C369 C 0.16661 0.44185 0.70891 0.0
C370 C 0.7 0.76964 0.73878 0.0
C371 C 0.71134 0.79521 0.8016 0.0
H372 H 0.66383 0.73499 0.66243 0.0
C373 C 0.69408 0.8058 0.83112 0.0
H374 H 0.71267 0.76083 0.715 0.0
C375 C 0.66621 0.79109 0.80091 0.0
C376 C 0.65471 0.7653 0.74039 0.0
H377 H 0.70217 0.82568 0.87686 0.0
H378 H 0.65365 0.79994 0.82634 0.0
C379 C 0.67198 0.75481 0.70879 0.0
C380 C 0.34418 0.96042 0.7383 0.0
C381 C 0.31869 0.94626 0.80213 0.0
H382 H 0.37874 0.95882 0.66121 0.0
C383 C 0.30819 0.91848 0.83282 0.0
H384 H 0.35291 0.98185 0.7136 0.0
C385 C 0.32289 0.9053 0.8027 0.0
C386 C 0.34858 0.91951 0.74111 0.0
H387 H 0.28839 0.90676 0.8794 0.0
H388 H 0.31411 0.88395 0.82902 0.0
C389 C 0.35899 0.94721 0.70842 0.0
C390 C 0.36075 0.13916 0.16473 0.0
C391 C 0.378 0.12857 0.13526 0.0
H392 H 0.32032 0.1333 0.15994 0.0
C393 C 0.36666 0.10299 0.07248 0.0
H394 H 0.36883 0.15904 0.21044 0.0
C395 C 0.33865 0.08816 0.04251 0.0
C396 C 0.32137 0.09865 0.07407 0.0
H397 H 0.37933 0.09418 0.04873 0.0
H398 H 0.3305 0.06833 -0.00382 0.0
C399 C 0.33288 0.12445 0.13455 0.0
C400 C 0.97482 0.25179 0.16601 0.0
C401 C 0.98533 0.27958 0.13545 0.0
H402 H 0.98074 0.21725 0.16208 0.0
C403 C 1.01082 0.29374 0.0717 0.0
H404 H 0.95502 0.24006 0.21251 0.0
C405 C 1.02565 0.28054 0.04179 0.0
C406 C 1.01523 0.25283 0.07437 0.0
H407 H 1.01957 0.31518 0.0471 0.0
H408 H 1.0454 0.29216 0.99466 0.0
C409 C 0.98953 0.23862 0.13586 0.0
C410 C 0.83328 0.77519 0.04248 0.0
C411 C 0.86103 0.79246 0.07417 0.0
H412 H 0.79863 0.73449 0.04855 0.0
C413 C 0.87532 0.78095 0.13474 0.0
H414 H 0.82161 0.78334 -0.00391 0.0
C415 C 0.86217 0.75307 0.16487 0.0
C416 C 0.83434 0.73582 0.13524 0.0
H417 H 0.89672 0.79352 0.16023 0.0
H418 H 0.87396 0.74499 0.21063 0.0
C419 C 0.8201 0.74716 0.0724 0.0
C420 C 1.02737 0.47227 0.49967 0.0
C421 C 1.04466 0.46182 0.46849 0.0
H422 H 0.9869 0.46632 0.49631 0.0
C423 C 1.03336 0.43639 0.40422 0.0
H424 H 1.03543 0.49202 0.54661 0.0
C425 C 1.00533 0.42158 0.37442 0.0
C426 C 0.98802 0.43194 0.40758 0.0
H427 H 1.04607 0.4277 0.37913 0.0
H428 H 0.99721 0.40188 0.32687 0.0
C429 C 0.99949 0.45758 0.4696 0.0
C430 C 0.67753 0.62709 0.40478 0.0
C431 C 0.65204 0.61293 0.46855 0.0
H432 H 0.7121 0.62549 0.3278 0.0
C433 C 0.64153 0.58515 0.49919 0.0
H434 H 0.68627 0.64852 0.38012 0.0
C435 C 0.65624 0.57197 0.46911 0.0
C436 C 0.68194 0.58618 0.4076 0.0
H437 H 0.62173 0.57342 0.54571 0.0
H438 H 0.64745 0.55061 0.4954 0.0
C439 C 0.69235 0.61388 0.37494 0.0
C440 C 0.49993 0.10853 0.37601 0.0
C441 C 0.52768 0.1258 0.4077 0.0
H442 H 0.46527 0.06784 0.38206 0.0
C443 C 0.54196 0.11429 0.46824 0.0
H444 H 0.48826 0.11669 0.32963 0.0
C445 C 0.52881 0.08641 0.49836 0.0
C446 C 0.50098 0.06916 0.46874 0.0
H447 H 0.56337 0.12685 0.49373 0.0
H448 H 0.5406 0.07832 0.54411 0.0
C449 C 0.48674 0.08051 0.40591 0.0
C450 C 0.12014 0.13962 0.09661 0.0
C451 C 0.14747 0.15369 0.05341 0.0
H452 H 0.08275 0.14017 0.12158 0.0
C453 C 0.1578 0.17995 -0.00093 0.0
H454 H 0.11143 0.11925 0.13762 0.0
C455 C 0.14134 0.19197 0.98956 0.0
C456 C 0.11409 0.178 0.03376 0.0
H457 H 0.17884 0.19153 0.96635 0.0
H458 H 0.15012 0.21234 0.94853 0.0
C459 C 0.10365 0.15159 0.08669 0.0
C460 C 0.92155 0.97937 0.99165 0.0
C461 C 0.93574 0.96615 0.03349 0.0
H462 H 0.92178 1.01724 0.97043 0.0
C463 C 0.96234 0.98217 0.08408 0.0
H464 H 0.90102 0.96774 0.95252 0.0
C465 C 0.9743 1.01064 0.09397 0.0
C466 C 0.96001 1.02384 0.05316 0.0
H467 H 0.97394 0.97275 0.11709 0.0
H468 H 0.99482 1.02234 0.13306 0.0
C469 C 0.93354 1.00784 0.00121 0.0
C470 C 0.1032 0.99374 0.09476 0.0
C471 C 0.08998 0.96631 0.05319 0.0
H472 H 0.14111 1.03122 0.1185 0.0
C473 C 0.10598 0.95588 0.00057 0.0
H474 H 0.09151 1.00254 0.13439 0.0
C475 C 0.13445 0.97234 0.99108 0.0
C476 C 0.14768 0.9997 0.03366 0.0
H477 H 0.09656 0.93476 0.96918 0.0
H478 H 0.14607 0.96348 0.9514 0.0
C479 C 0.13167 1.01024 0.08492 0.0
C480 C 0.77041 0.48503 0.42141 0.0
C481 C 0.78078 0.51132 0.36726 0.0
H482 H 0.77825 0.45278 0.47344 0.0
C483 C 0.80795 0.52517 0.32187 0.0
H484 H 0.74957 0.4737 0.45725 0.0
C485 C 0.82439 0.51315 0.33142 0.0
C486 C 0.81415 0.487 0.38703 0.0
H487 H 0.81666 0.54545 0.27984 0.0
H488 H 0.84538 0.52463 0.29773 0.0
C489 C 0.7869 0.47306 0.43142 0.0
C490 C 0.60027 0.3412 0.33434 0.0
C491 C 0.62671 0.35719 0.38669 0.0
H492 H 0.56777 0.30111 0.28534 0.0
C493 C 0.64095 0.34397 0.42792 0.0
H494 H 0.58855 0.35062 0.30322 0.0
C495 C 0.62899 0.31551 0.41803 0.0
C496 C 0.60242 0.2995 0.36705 0.0
H497 H 0.66145 0.35566 0.46732 0.0
H498 H 0.64055 0.30607 0.45136 0.0
C499 C 0.58828 0.31273 0.32479 0.0
C500 C 0.76986 0.32705 0.42863 0.0
C501 C 0.75664 0.29963 0.38682 0.0
H502 H 0.80778 0.36451 0.45256 0.0
C503 C 0.77262 0.28922 0.33392 0.0
H504 H 0.75818 0.33583 0.46848 0.0
C505 C 0.80109 0.30568 0.32443 0.0
C506 C 0.81433 0.33302 0.36725 0.0
H507 H 0.76319 0.26811 0.30234 0.0
H508 H 0.81271 0.29683 0.28453 0.0
C509 C 0.79833 0.34354 0.41877 0.0
C510 C 0.45349 0.80629 0.76335 0.0
C511 C 0.48081 0.82034 0.71997 0.0
H512 H 0.41611 0.80686 0.78849 0.0
C513 C 0.49112 0.8466 0.66551 0.0
H514 H 0.44478 0.78594 0.80446 0.0
C515 C 0.47467 0.85862 0.65604 0.0
C516 C 0.44743 0.84466 0.70041 0.0
H517 H 0.51216 0.85817 0.63266 0.0
H518 H 0.48345 0.87898 0.61491 0.0
C519 C 0.437 0.81827 0.75347 0.0
C520 C 0.29575 0.64886 0.7494 0.0
C521 C 0.26906 0.63281 0.69986 0.0
H522 H 0.32831 0.68904 0.7975 0.0
C523 C 0.25478 0.64601 0.65908 0.0
H524 H 0.30743 0.63945 0.78155 0.0
C525 C 0.26676 0.67447 0.66868 0.0
C526 C 0.29333 0.6905 0.71955 0.0
H527 H 0.23418 0.63435 0.62081 0.0
H528 H 0.25493 0.68385 0.63878 0.0
C529 C 0.30771 0.67733 0.75928 0.0
C530 C 0.46778 0.639 0.65743 0.0
C531 C 0.48102 0.66636 0.69998 0.0
H532 H 0.42989 0.60141 0.63556 0.0
C533 C 0.46501 0.67689 0.75122 0.0
H534 H 0.47941 0.63014 0.61776 0.0
C535 C 0.43654 0.6604 0.76106 0.0
C536 C 0.42332 0.63296 0.71953 0.0
H537 H 0.47445 0.69788 0.78478 0.0
H538 H 0.42485 0.6692 0.80068 0.0
C539 C 0.43931 0.62254 0.66692 0.0
C540 C 0.08511 0.22133 0.61838 0.0
C541 C 0.0577 0.20881 0.65955 0.0
H542 H 0.11307 0.23659 0.45657 0.0
C543 C 1.03709 0.2016 0.5654 0.0
H544 H 0.10141 0.22687 0.68869 0.0
C545 C 1.04373 0.20692 0.43276 0.0
C546 C 0.07114 0.21968 0.3916 0.0
H547 H 1.01578 0.19183 0.59422 0.0
H548 H 1.02738 0.2012 0.36255 0.0
C549 C 0.09178 0.22678 0.4856 0.0
C550 C 0.91222 0.86556 0.56522 0.0
C551 C 0.905 0.87896 0.65939 0.0
H552 H 0.91262 0.85625 0.36238 0.0
C553 C 0.89246 0.89384 0.61824 0.0
H554 H 0.922 0.85403 0.59402 0.0
C555 C 0.88701 0.89505 0.48548 0.0
C556 C 0.89412 0.88151 0.39147 0.0
H557 H 0.88691 0.90459 0.68856 0.0
H558 H 0.87718 0.90652 0.45647 0.0
C559 C 0.9069 0.86688 0.4326 0.0
C560 C 0.22 1.02872 0.61838 0.0
C561 C 0.23488 0.05613 0.65944 0.0
H562 H 0.20733 1.00076 0.45669 0.0
C563 C 0.24827 0.07675 0.5652 0.0
H564 H 0.20926 1.01242 0.68875 0.0
C565 C 0.24696 0.07011 0.43259 0.0
C566 C 0.23232 0.0427 0.39155 0.0
H567 H 0.2598 0.09806 0.59394 0.0
H568 H 0.25758 0.08646 0.36232 0.0
C569 C 0.2188 1.02206 0.48563 0.0
C570 C 0.71043 0.54026 0.76612 0.0
C571 C 0.73784 0.55302 0.72496 0.0
H572 H 0.68248 0.52516 0.92758 0.0
C573 C 0.75848 0.56012 0.81896 0.0
H574 H 0.69408 0.53455 0.69592 0.0
C575 C 0.75182 0.55466 0.95174 0.0
C576 C 0.72441 0.54214 0.99291 0.0
H577 H 0.77978 0.56993 0.78993 0.0
H578 H 0.76811 0.5602 0.02204 0.0
C579 C 0.70379 0.53493 0.89876 0.0
C580 C 0.57355 0.20022 0.76617 0.0
C581 C 0.56078 0.21486 0.72504 0.0
H582 H 0.58865 0.18737 0.92759 0.0
C583 C 0.55368 0.22839 0.81905 0.0
H584 H 0.57927 0.18958 0.69595 0.0
C585 C 0.55913 0.22719 0.95181 0.0
C586 C 0.57166 0.21231 0.99296 0.0
H587 H 0.54386 0.23987 0.79004 0.0
H588 H 0.55359 0.23794 0.02213 0.0
C589 C 0.57888 0.1989 0.89879 0.0
C590 C 0.88544 0.35538 0.81917 0.0
C591 C 0.89898 0.37601 0.72509 0.0
H592 H 0.87589 0.34574 0.02229 0.0
C593 C 0.91362 0.40343 0.76614 0.0
H594 H 0.87397 0.33408 0.79023 0.0
C595 C 0.91493 0.41007 0.89875 0.0
C596 C 0.90153 0.38945 0.99299 0.0
H597 H 0.92425 0.41977 0.69587 0.0
H598 H 0.92646 0.43138 0.92748 0.0
C599 C 0.88665 0.36204 0.95193 0.0
C600 C 0.37044 0.86827 0.2321 0.0
C601 C 0.39105 0.87548 0.32626 0.0
H602 H 0.36073 0.86787 0.02925 0.0
C603 C 0.41846 0.888 0.28509 0.0
H604 H 0.34913 0.8585 0.26092 0.0
C605 C 0.42513 0.89345 0.15231 0.0
C606 C 0.40449 0.88635 0.05831 0.0
H607 H 0.43476 0.89354 0.3554 0.0
H608 H 0.44643 0.90327 0.12328 0.0
C609 C 0.37708 0.87359 0.09946 0.0
C610 C 0.22034 0.5617 0.15184 0.0
C611 C 0.22746 0.54817 0.05784 0.0
H612 H 0.22025 0.57125 0.35493 0.0
C613 C 0.24023 0.53354 0.09897 0.0
H614 H 0.21052 0.57318 0.12284 0.0
C615 C 0.24555 0.53222 0.23159 0.0
C616 C 0.23833 0.54562 0.32575 0.0
H617 H 0.24595 0.52291 0.02874 0.0
H618 H 0.25533 0.52069 0.26039 0.0
C619 C 0.2258 0.5605 0.28461 0.0
C620 C 0.58161 0.74341 0.23152 0.0
C621 C 0.56821 0.72279 0.32576 0.0
H622 H 0.59092 0.75312 0.02864 0.0
C623 C 0.55334 0.69538 0.2847 0.0
H624 H 0.59313 0.76472 0.26025 0.0
C625 C 0.55213 0.68871 0.15195 0.0
C626 C 0.56566 0.70935 0.05787 0.0
H627 H 0.54259 0.67908 0.35507 0.0
H628 H 0.54066 0.66742 0.12301 0.0
C629 C 0.58029 0.73677 0.09891 0.0
loop_
_geom_bond_atom_site_label_1
_geom_bond_atom_site_label_2
_geom_bond_distance
_geom_bond_site_symmetry_2
_ccdc_geom_bond_type
La0 C2 2.928 1_554 S
La0 O20 2.521 . S
La0 O21 2.628 1_554 S
La0 O22 2.554 . S
La0 O23 2.757 . S
La0 O24 2.470 . S
La0 O29 2.482 1_554 S
La0 O31 2.503 1_554 S
La1 C11 2.928 1_556 S
La1 O23 2.482 1_656 S
La1 O25 2.503 1_556 S
La1 O26 2.521 . S
La1 O27 2.628 1_556 S
La1 O28 2.554 . S
La1 O29 2.757 1_655 S
La1 O30 2.470 1_655 S
C2 La0 2.928 1_556 S
C2 C3 1.503 . S
C2 O20 1.261 1_556 S
C2 O21 1.243 . S
C3 C2 1.503 . S
C3 C4 1.394 1_556 S
C3 C8 1.373 . S
C4 C3 1.394 1_554 S
C4 C5 1.380 . S
C4 H32 0.930 . S
C5 C4 1.380 . S
C5 C6 1.376 1_554 S
C5 H33 0.930 . S
C6 C5 1.376 1_556 S
C6 C7 1.370 . S
C7 C6 1.370 . S
C7 C8 1.396 . S
C7 H34 0.929 . S
C8 C3 1.373 . S
C8 C7 1.396 . S
C8 H35 0.929 . S
C9 O22 1.240 . S
C9 O23 1.289 . S
C10 O24 1.258 1_655 S
C10 O25 1.256 . S
C11 La1 2.928 1_554 S
C11 C12 1.503 . S
C11 O26 1.261 1_554 S
C11 O27 1.243 . S
C12 C11 1.503 . S
C12 C13 1.394 1_554 S
C12 C17 1.373 . S
C13 C12 1.394 1_556 S
C13 C14 1.380 . S
C13 H36 0.930 . S
C14 C13 1.380 . S
C14 C15 1.376 1_556 S
C14 H37 0.930 . S
C15 C14 1.376 1_554 S
C15 C16 1.370 . S
C16 C15 1.370 . S
C16 C17 1.396 . S
C16 H38 0.929 . S
C17 C12 1.373 . S
C17 C16 1.396 . S
C17 H39 0.929 . S
C18 O28 1.240 1_455 S
C18 O29 1.289 . S
C19 O30 1.258 . S
C19 O31 1.256 . S
O20 La0 2.521 . S
O20 C2 1.261 1_554 S
O21 La0 2.628 1_556 S
O21 C2 1.243 . S
O22 La0 2.554 . S
O22 C9 1.240 . S
O23 La0 2.757 . S
O23 La1 2.482 1_454 S
O23 C9 1.289 . S
O24 La0 2.470 . S
O24 C10 1.258 1_455 S
O25 La1 2.503 1_554 S
O25 C10 1.256 . S
O26 La1 2.521 . S
O26 C11 1.261 1_556 S
O27 La1 2.628 1_554 S
O27 C11 1.243 . S
O28 La1 2.554 . S
O28 C18 1.240 1_655 S
O29 La0 2.482 1_556 S
O29 La1 2.757 1_455 S
O29 C18 1.289 . S
O30 La1 2.470 1_455 S
O30 C19 1.258 . S
O31 La0 2.503 1_556 S
O31 C19 1.256 . S
H32 C4 0.930 . S
H33 C5 0.930 . S
H34 C7 0.929 . S
H35 C8 0.929 . S
H36 C13 0.930 . S
H37 C14 0.930 . S
H38 C16 0.929 . S
H39 C17 0.929 . S
La40 C42 2.928 1_554 S
La40 O60 2.521 . S
La40 O61 2.628 1_554 S
La40 O62 2.554 . S
La40 O63 2.757 . S
La40 O64 2.470 . S
La40 O69 2.482 1_554 S
La40 O71 2.503 1_554 S
La41 C51 2.928 1_556 S
La41 O63 2.482 1_556 S
La41 O65 2.503 1_556 S
La41 O66 2.521 . S
La41 O67 2.628 1_556 S
La41 O68 2.554 . S
La41 O69 2.757 . S
La41 O70 2.470 . S
C42 La40 2.928 1_556 S
C42 C43 1.503 . S
C42 O60 1.261 1_556 S
C42 O61 1.243 . S
C43 C42 1.503 . S
C43 C44 1.394 1_556 S
C43 C48 1.373 . S
C44 C43 1.394 1_554 S
C44 C45 1.380 . S
C44 H72 0.930 . S
C45 C44 1.380 . S
C45 C46 1.376 1_554 S
C45 H73 0.930 . S
C46 C45 1.376 1_556 S
C46 C47 1.370 . S
C47 C46 1.370 . S
C47 C48 1.396 . S
C47 H74 0.929 . S
C48 C43 1.373 . S
C48 C47 1.396 . S
C48 H75 0.929 . S
C49 O62 1.240 . S
C49 O63 1.289 . S
C50 O64 1.258 . S
C50 O65 1.256 . S
C51 La41 2.928 1_554 S
C51 C52 1.503 . S
C51 O66 1.261 1_554 S
C51 O67 1.243 . S
C52 C51 1.503 . S
C52 C53 1.394 1_554 S
C52 C57 1.373 . S
C53 C52 1.394 1_556 S
C53 C54 1.346 1_655 S
C53 H76 0.930 . S
C54 C53 1.346 1_455 S
C54 C55 1.380 1_556 S
C54 H77 0.962 . S
C55 C54 1.380 1_554 S
C55 C56 1.370 1_455 S
C56 C55 1.370 1_655 S
C56 C57 1.396 . S
C56 H78 0.928 1_655 S
C57 C52 1.373 . S
C57 C56 1.396 . S
C57 H79 0.929 . S
C58 O68 1.240 . S
C58 O69 1.289 . S
C59 O70 1.258 . S
C59 O71 1.256 . S
O60 La40 2.521 . S
O60 C42 1.261 1_554 S
O61 La40 2.628 1_556 S
O61 C42 1.243 . S
O62 La40 2.554 . S
O62 C49 1.240 . S
O63 La40 2.757 . S
O63 La41 2.482 1_554 S
O63 C49 1.289 . S
O64 La40 2.470 . S
O64 C50 1.258 . S
O65 La41 2.503 1_554 S
O65 C50 1.256 . S
O66 La41 2.521 . S
O66 C51 1.261 1_556 S
O67 La41 2.628 1_554 S
O67 C51 1.243 . S
O68 La41 2.554 . S
O68 C58 1.240 . S
O69 La40 2.482 1_556 S
O69 La41 2.757 . S
O69 C58 1.289 . S
O70 La41 2.470 . S
O70 C59 1.258 . S
O71 La40 2.503 1_556 S
O71 C59 1.256 . S
H72 C44 0.930 . S
H73 C45 0.930 . S
H74 C47 0.929 . S
H75 C48 0.929 . S
H76 C53 0.930 . S
H77 C54 0.962 . S
H78 C56 0.928 1_455 S
H79 C57 0.929 . S
La80 C82 2.928 1_554 S
La80 O100 2.521 . S
La80 O101 2.628 1_554 S
La80 O102 2.554 . S
La80 O103 2.757 1_565 S
La80 O104 2.470 1_565 S
La80 O109 2.482 1_564 S
La80 O111 2.503 1_554 S
La81 C91 2.928 1_556 S
La81 O103 2.482 1_556 S
La81 O105 2.503 1_556 S
La81 O106 2.521 . S
La81 O107 2.628 1_556 S
La81 O108 2.554 . S
La81 O109 2.757 . S
La81 O110 2.470 . S
C82 La80 2.928 1_556 S
C82 C83 1.503 . S
C82 O100 1.261 1_556 S
C82 O101 1.243 . S
C83 C82 1.503 . S
C83 C84 1.394 1_556 S
C83 C88 1.373 . S
C84 C83 1.394 1_554 S
C84 C85 1.380 . S
C84 H112 0.930 . S
C85 C84 1.380 . S
C85 C86 1.376 1_554 S
C85 H113 0.930 . S
C86 C85 1.376 1_556 S
C86 C87 1.370 . S
C87 C86 1.370 . S
C87 C88 1.396 . S
C87 H114 0.929 . S
C88 C83 1.373 . S
C88 C87 1.396 . S
C88 H115 0.929 . S
C89 O102 1.240 1_545 S
C89 O103 1.289 . S
C90 O104 1.258 . S
C90 O105 1.256 . S
C91 La81 2.928 1_554 S
C91 C92 1.503 . S
C91 O106 1.261 1_554 S
C91 O107 1.243 . S
C92 C91 1.503 . S
C92 C93 1.394 1_554 S
C92 C97 1.373 . S
C93 C92 1.394 1_556 S
C93 C94 1.380 . S
C93 H116 0.930 . S
C94 C93 1.380 . S
C94 C95 1.376 1_556 S
C94 H117 0.930 . S
C95 C94 1.376 1_554 S
C95 C96 1.370 . S
C96 C95 1.370 . S
C96 C97 1.396 . S
C96 H118 0.929 . S
C97 C92 1.373 . S
C97 C96 1.396 . S
C97 H119 0.929 . S
C98 O108 1.240 . S
C98 O109 1.289 . S
C99 O110 1.258 1_565 S
C99 O111 1.256 . S
O100 La80 2.521 . S
O100 C82 1.261 1_554 S
O101 La80 2.628 1_556 S
O101 C82 1.243 . S
O102 La80 2.554 . S
O102 C89 1.240 1_565 S
O103 La80 2.757 1_545 S
O103 La81 2.482 1_554 S
O103 C89 1.289 . S
O104 La80 2.470 1_545 S
O104 C90 1.258 . S
O105 La81 2.503 1_554 S
O105 C90 1.256 . S
O106 La81 2.521 . S
O106 C91 1.261 1_556 S
O107 La81 2.628 1_554 S
O107 C91 1.243 . S
O108 La81 2.554 . S
O108 C98 1.240 . S
O109 La80 2.482 1_546 S
O109 La81 2.757 . S
O109 C98 1.289 . S
O110 La81 2.470 . S
O110 C99 1.258 1_545 S
O111 La80 2.503 1_556 S
O111 C99 1.256 . S
H112 C84 0.930 . S
H113 C85 0.930 . S
H114 C87 0.929 . S
H115 C88 0.929 . S
H116 C93 0.930 . S
H117 C94 0.930 . S
H118 C96 0.929 . S
H119 C97 0.929 . S
La120 C122 2.928 . S
La120 O140 2.521 . S
La120 O141 2.628 . S
La120 O142 2.554 . S
La120 O143 2.757 . S
La120 O144 2.470 . S
La120 O149 2.482 . S
La120 O151 2.503 . S
La121 C131 2.928 . S
La121 O143 2.482 . S
La121 O145 2.503 . S
La121 O146 2.521 . S
La121 O147 2.628 . S
La121 O148 2.554 . S
La121 O149 2.757 . S
La121 O150 2.470 . S
C122 La120 2.928 . S
C122 C123 1.503 . S
C122 O140 1.261 . S
C122 O141 1.243 . S
C123 C122 1.503 . S
C123 C124 1.394 . S
C123 C128 1.373 . S
C124 C123 1.394 . S
C124 C125 1.380 . S
C124 H152 0.930 . S
C125 C124 1.380 . S
C125 C126 1.376 . S
C125 H153 0.930 . S
C126 C125 1.376 . S
C126 C127 1.370 . S
C127 C126 1.370 . S
C127 C128 1.396 . S
C127 H154 0.929 . S
C128 C123 1.373 . S
C128 C127 1.396 . S
C128 H155 0.929 . S
C129 O142 1.240 . S
C129 O143 1.289 . S
C130 O144 1.258 . S
C130 O145 1.256 . S
C131 La121 2.928 . S
C131 C132 1.503 . S
C131 O146 1.261 . S
C131 O147 1.243 . S
C132 C131 1.503 . S
C132 C133 1.394 . S
C132 C137 1.373 . S
C133 C132 1.394 . S
C133 C134 1.380 . S
C133 H156 0.930 . S
C134 C133 1.380 . S
C134 C135 1.376 . S
C134 H157 0.930 . S
C135 C134 1.376 . S
C135 C136 1.370 . S
C136 C135 1.370 . S
C136 C137 1.396 . S
C136 H158 0.929 . S
C137 C132 1.373 . S
C137 C136 1.396 . S
C137 H159 0.929 . S
C138 O148 1.240 . S
C138 O149 1.289 . S
C139 O150 1.258 . S
C139 O151 1.256 . S
O140 La120 2.521 . S
O140 C122 1.261 . S
O141 La120 2.628 . S
O141 C122 1.243 . S
O142 La120 2.554 . S
O142 C129 1.240 . S
O143 La120 2.757 . S
O143 La121 2.482 . S
O143 C129 1.289 . S
O144 La120 2.470 . S
O144 C130 1.258 . S
O145 La121 2.503 . S
O145 C130 1.256 . S
O146 La121 2.521 . S
O146 C131 1.261 . S
O147 La121 2.628 . S
O147 C131 1.243 . S
O148 La121 2.554 . S
O148 C138 1.240 . S
O149 La120 2.482 . S
O149 La121 2.757 . S
O149 C138 1.289 . S
O150 La121 2.470 . S
O150 C139 1.258 . S
O151 La120 2.503 . S
O151 C139 1.256 . S
H152 C124 0.930 . S
H153 C125 0.930 . S
H154 C127 0.929 . S
H155 C128 0.929 . S
H156 C133 0.930 . S
H157 C134 0.930 . S
H158 C136 0.929 . S
H159 C137 0.929 . S
La160 C162 2.928 . S
La160 O180 2.521 . S
La160 O181 2.628 . S
La160 O182 2.554 . S
La160 O183 2.757 . S
La160 O184 2.470 . S
La160 O189 2.482 . S
La160 O191 2.503 . S
La161 C171 2.928 . S
La161 O183 2.482 . S
La161 O185 2.503 . S
La161 O186 2.521 . S
La161 O187 2.628 . S
La161 O188 2.554 . S
La161 O189 2.757 . S
La161 O190 2.470 . S
C162 La160 2.928 . S
C162 C163 1.503 . S
C162 O180 1.261 . S
C162 O181 1.243 . S
C163 C162 1.503 . S
C163 C164 1.394 . S
C163 C168 1.373 . S
C164 C163 1.394 . S
C164 C165 1.380 . S
C164 H192 0.930 . S
C165 C164 1.380 . S
C165 C166 1.376 . S
C165 H193 0.930 . S
C166 C165 1.376 . S
C166 C167 1.370 . S
C167 C166 1.370 . S
C167 C168 1.396 . S
C167 H194 0.929 . S
C168 C163 1.373 . S
C168 C167 1.396 . S
C168 H195 0.929 . S
C169 O182 1.240 . S
C169 O183 1.289 . S
C170 O184 1.258 . S
C170 O185 1.256 . S
C171 La161 2.928 . S
C171 C172 1.503 . S
C171 O186 1.261 . S
C171 O187 1.243 . S
C172 C171 1.503 . S
C172 C173 1.394 . S
C172 C177 1.373 . S
C173 C172 1.394 . S
C173 C174 1.380 . S
C173 H196 0.930 . S
C174 C173 1.380 . S
C174 C175 1.376 . S
C174 H197 0.930 . S
C175 C174 1.376 . S
C175 C176 1.370 . S
C176 C175 1.370 . S
C176 C177 1.396 . S
C176 H198 0.929 . S
C177 C172 1.373 . S
C177 C176 1.396 . S
C177 H199 0.929 . S
C178 O188 1.240 . S
C178 O189 1.289 . S
C179 O190 1.258 . S
C179 O191 1.256 . S
O180 La160 2.521 . S
O180 C162 1.261 . S
O181 La160 2.628 . S
O181 C162 1.243 . S
O182 La160 2.554 . S
O182 C169 1.240 . S
O183 La160 2.757 . S
O183 La161 2.482 . S
O183 C169 1.289 . S
O184 La160 2.470 . S
O184 C170 1.258 . S
O185 La161 2.503 . S
O185 C170 1.256 . S
O186 La161 2.521 . S
O186 C171 1.261 . S
O187 La161 2.628 . S
O187 C171 1.243 . S
O188 La161 2.554 . S
O188 C178 1.240 . S
O189 La160 2.482 . S
O189 La161 2.757 . S
O189 C178 1.289 . S
O190 La161 2.470 . S
O190 C179 1.258 . S
O191 La160 2.503 . S
O191 C179 1.256 . S
H192 C164 0.930 . S
H193 C165 0.930 . S
H194 C167 0.929 . S
H195 C168 0.929 . S
H196 C173 0.930 . S
H197 C174 0.930 . S
H198 C176 0.929 . S
H199 C177 0.929 . S
La200 C202 2.928 . S
La200 O220 2.521 . S
La200 O221 2.628 . S
La200 O222 2.554 . S
La200 O223 2.757 . S
La200 O224 2.470 . S
La200 O229 2.482 . S
La200 O231 2.503 . S
La201 C211 2.928 . S
La201 O223 2.482 . S
La201 O225 2.503 . S
La201 O226 2.521 . S
La201 O227 2.628 . S
La201 O228 2.554 . S
La201 O229 2.757 . S
La201 O230 2.470 . S
C202 La200 2.928 . S
C202 C203 1.503 . S
C202 O220 1.261 . S
C202 O221 1.243 . S
C203 C202 1.503 . S
C203 C204 1.394 . S
C203 C208 1.373 . S
C204 C203 1.394 . S
C204 C205 1.380 . S
C204 H232 0.930 . S
C205 C204 1.380 . S
C205 C206 1.376 . S
C205 H233 0.930 . S
C206 C205 1.376 . S
C206 C207 1.370 . S
C207 C206 1.370 . S
C207 C208 1.396 . S
C207 H234 0.929 . S
C208 C203 1.373 . S
C208 C207 1.396 . S
C208 H235 0.929 . S
C209 O222 1.240 . S
C209 O223 1.289 . S
C210 O224 1.258 . S
C210 O225 1.256 . S
C211 La201 2.928 . S
C211 C212 1.503 . S
C211 O226 1.261 . S
C211 O227 1.243 . S
C212 C211 1.503 . S
C212 C213 1.394 . S
C212 C217 1.373 . S
C213 C212 1.394 . S
C213 C214 1.380 . S
C213 H236 0.930 . S
C214 C213 1.380 . S
C214 C215 1.376 . S
C214 H237 0.930 . S
C215 C214 1.376 . S
C215 C216 1.370 . S
C216 C215 1.370 . S
C216 C217 1.396 . S
C216 H238 0.929 . S
C217 C212 1.373 . S
C217 C216 1.396 . S
C217 H239 0.929 . S
C218 O228 1.240 . S
C218 O229 1.289 . S
C219 O230 1.258 . S
C219 O231 1.256 . S
O220 La200 2.521 . S
O220 C202 1.261 . S
O221 La200 2.628 . S
O221 C202 1.243 . S
O222 La200 2.554 . S
O222 C209 1.240 . S
O223 La200 2.757 . S
O223 La201 2.482 . S
O223 C209 1.289 . S
O224 La200 2.470 . S
O224 C210 1.258 . S
O225 La201 2.503 . S
O225 C210 1.256 . S
O226 La201 2.521 . S
O226 C211 1.261 . S
O227 La201 2.628 . S
O227 C211 1.243 . S
O228 La201 2.554 . S
O228 C218 1.240 . S
O229 La200 2.482 . S
O229 La201 2.757 . S
O229 C218 1.289 . S
O230 La201 2.470 . S
O230 C219 1.258 . S
O231 La200 2.503 . S
O231 C219 1.256 . S
H232 C204 0.930 . S
H233 C205 0.930 . S
H234 C207 0.929 . S
H235 C208 0.929 . S
H236 C213 0.930 . S
H237 C214 0.930 . S
H238 C216 0.929 . S
H239 C217 0.929 . S
La240 C242 2.928 . S
La240 O260 2.521 . S
La240 O261 2.628 . S
La240 O262 2.554 . S
La240 O263 2.757 . S
La240 O264 2.470 . S
La240 O269 2.482 . S
La240 O271 2.503 . S
La241 C251 2.928 . S
La241 O263 2.482 . S
La241 O265 2.503 . S
La241 O266 2.521 . S
La241 O267 2.628 . S
La241 O268 2.554 . S
La241 O269 2.757 . S
La241 O270 2.470 . S
C242 La240 2.928 . S
C242 C243 1.503 . S
C242 O260 1.261 . S
C242 O261 1.243 . S
C243 C242 1.503 . S
C243 C244 1.394 . S
C243 C248 1.373 . S
C244 C243 1.394 . S
C244 C245 1.380 1_565 S
C244 H272 0.930 . S
C245 C244 1.380 1_545 S
C245 C246 1.376 . S
C245 H273 0.930 . S
C246 C245 1.376 . S
C246 C247 1.370 1_545 S
C247 C246 1.370 1_565 S
C247 C248 1.396 . S
C247 H274 0.929 1_565 S
C248 C243 1.373 . S
C248 C247 1.396 . S
C248 H275 0.929 . S
C249 O262 1.240 . S
C249 O263 1.289 . S
C250 O264 1.258 . S
C250 O265 1.256 . S
C251 La241 2.928 . S
C251 C252 1.503 . S
C251 O266 1.261 . S
C251 O267 1.243 . S
C252 C251 1.503 . S
C252 C253 1.394 . S
C252 C257 1.373 . S
C253 C252 1.394 . S
C253 C254 1.380 . S
C253 H276 0.930 . S
C254 C253 1.380 . S
C254 C255 1.376 . S
C254 H277 0.930 . S
C255 C254 1.376 . S
C255 C256 1.370 . S
C256 C255 1.370 . S
C256 C257 1.396 . S
C256 H278 0.929 . S
C257 C252 1.373 . S
C257 C256 1.396 . S
C257 H279 0.929 . S
C258 O268 1.240 . S
C258 O269 1.289 . S
C259 O270 1.258 . S
C259 O271 1.256 . S
O260 La240 2.521 . S
O260 C242 1.261 . S
O261 La240 2.628 . S
O261 C242 1.243 . S
O262 La240 2.554 . S
O262 C249 1.240 . S
O263 La240 2.757 . S
O263 La241 2.482 . S
O263 C249 1.289 . S
O264 La240 2.470 . S
O264 C250 1.258 . S
O265 La241 2.503 . S
O265 C250 1.256 . S
O266 La241 2.521 . S
O266 C251 1.261 . S
O267 La241 2.628 . S
O267 C251 1.243 . S
O268 La241 2.554 . S
O268 C258 1.240 . S
O269 La240 2.482 . S
O269 La241 2.757 . S
O269 C258 1.289 . S
O270 La241 2.470 . S
O270 C259 1.258 . S
O271 La240 2.503 . S
O271 C259 1.256 . S
H272 C244 0.930 . S
H273 C245 0.930 . S
H274 C247 0.929 1_545 S
H275 C248 0.929 . S
H276 C253 0.930 . S
H277 C254 0.930 . S
H278 C256 0.929 . S
H279 C257 0.929 . S
La280 C282 2.928 . S
La280 O300 2.521 . S
La280 O301 2.628 . S
La280 O302 2.554 . S
La280 O303 2.757 . S
La280 O304 2.470 . S
La280 O309 2.482 . S
La280 O311 2.503 . S
La281 C291 2.928 . S
La281 O303 2.482 . S
La281 O305 2.503 . S
La281 O306 2.521 . S
La281 O307 2.628 . S
La281 O308 2.554 . S
La281 O309 2.757 . S
La281 O310 2.470 . S
C282 La280 2.928 . S
C282 C283 1.503 . S
C282 O300 1.261 . S
C282 O301 1.243 . S
C283 C282 1.503 . S
C283 C284 1.394 . S
C283 C288 1.373 . S
C284 C283 1.394 . S
C284 C285 1.380 . S
C284 H312 0.930 . S
C285 C284 1.380 . S
C285 C286 1.376 . S
C285 H313 0.930 . S
C286 C285 1.376 . S
C286 C287 1.370 . S
C287 C286 1.370 . S
C287 C288 1.396 . S
C287 H314 0.929 . S
C288 C283 1.373 . S
C288 C287 1.396 . S
C288 H315 0.929 . S
C289 O302 1.240 . S
C289 O303 1.289 . S
C290 O304 1.258 . S
C290 O305 1.256 . S
C291 La281 2.928 . S
C291 C292 1.503 . S
C291 O306 1.261 . S
C291 O307 1.243 . S
C292 C291 1.503 . S
C292 C293 1.394 . S
C292 C297 1.373 . S
C293 C292 1.394 . S
C293 C294 1.380 . S
C293 H316 0.930 . S
C294 C293 1.380 . S
C294 C295 1.376 . S
C294 H317 0.930 . S
C295 C294 1.376 . S
C295 C296 1.370 . S
C296 C295 1.370 . S
C296 C297 1.396 . S
C296 H318 0.929 . S
C297 C292 1.373 . S
C297 C296 1.396 . S
C297 H319 0.929 . S
C298 O308 1.240 . S
C298 O309 1.289 . S
C299 O310 1.258 . S
C299 O311 1.256 . S
O300 La280 2.521 . S
O300 C282 1.261 . S
O301 La280 2.628 . S
O301 C282 1.243 . S
O302 La280 2.554 . S
O302 C289 1.240 . S
O303 La280 2.757 . S
O303 La281 2.482 . S
O303 C289 1.289 . S
O304 La280 2.470 . S
O304 C290 1.258 . S
O305 La281 2.503 . S
O305 C290 1.256 . S
O306 La281 2.521 . S
O306 C291 1.261 . S
O307 La281 2.628 . S
O307 C291 1.243 . S
O308 La281 2.554 . S
O308 C298 1.240 . S
O309 La280 2.482 . S
O309 La281 2.757 . S
O309 C298 1.289 . S
O310 La281 2.470 . S
O310 C299 1.258 . S
O311 La280 2.503 . S
O311 C299 1.256 . S
H312 C284 0.930 . S
H313 C285 0.930 . S
H314 C287 0.929 . S
H315 C288 0.929 . S
H316 C293 0.930 . S
H317 C294 0.930 . S
H318 C296 0.929 . S
H319 C297 0.929 . S
La320 C322 2.928 . S
La320 O340 2.521 . S
La320 O341 2.628 . S
La320 O342 2.554 . S
La320 O343 2.757 . S
La320 O344 2.470 . S
La320 O349 2.482 . S
La320 O351 2.503 . S
La321 C331 2.928 . S
La321 O343 2.482 . S
La321 O345 2.503 . S
La321 O346 2.521 . S
La321 O347 2.628 . S
La321 O348 2.554 . S
La321 O349 2.757 . S
La321 O350 2.470 . S
C322 La320 2.928 . S
C322 C323 1.503 . S
C322 O340 1.261 . S
C322 O341 1.243 . S
C323 C322 1.503 . S
C323 C324 1.394 . S
C323 C328 1.373 . S
C324 C323 1.394 . S
C324 C325 1.380 . S
C324 H352 0.930 . S
C325 C324 1.380 . S
C325 C326 1.376 . S
C325 H353 0.930 . S
C326 C325 1.376 . S
C326 C327 1.370 . S
C327 C326 1.370 . S
C327 C328 1.396 . S
C327 H354 0.929 . S
C328 C323 1.373 . S
C328 C327 1.396 . S
C328 H355 0.929 . S
C329 O342 1.240 . S
C329 O343 1.289 . S
C330 O344 1.258 . S
C330 O345 1.256 . S
C331 La321 2.928 . S
C331 C332 1.503 . S
C331 O346 1.261 . S
C331 O347 1.243 . S
C332 C331 1.503 . S
C332 C333 1.394 . S
C332 C337 1.373 . S
C333 C332 1.394 . S
C333 C334 1.380 . S
C333 H356 0.930 . S
C334 C333 1.380 . S
C334 C335 1.376 . S
C334 H357 0.930 . S
C335 C334 1.376 . S
C335 C336 1.370 . S
C336 C335 1.370 . S
C336 C337 1.396 . S
C336 H358 0.929 . S
C337 C332 1.373 . S
C337 C336 1.396 . S
C337 H359 0.929 . S
C338 O348 1.240 . S
C338 O349 1.289 . S
C339 O350 1.258 . S
C339 O351 1.256 . S
O340 La320 2.521 . S
O340 C322 1.261 . S
O341 La320 2.628 . S
O341 C322 1.243 . S
O342 La320 2.554 . S
O342 C329 1.240 . S
O343 La320 2.757 . S
O343 La321 2.482 . S
O343 C329 1.289 . S
O344 La320 2.470 . S
O344 C330 1.258 . S
O345 La321 2.503 . S
O345 C330 1.256 . S
O346 La321 2.521 . S
O346 C331 1.261 . S
O347 La321 2.628 . S
O347 C331 1.243 . S
O348 La321 2.554 . S
O348 C338 1.240 . S
O349 La320 2.482 . S
O349 La321 2.757 . S
O349 C338 1.289 . S
O350 La321 2.470 . S
O350 C339 1.258 . S
O351 La320 2.503 . S
O351 C339 1.256 . S
H352 C324 0.930 . S
H353 C325 0.930 . S
H354 C327 0.929 . S
H355 C328 0.929 . S
H356 C333 0.930 . S
H357 C334 0.930 . S
H358 C336 0.929 . S
H359 C337 0.929 . S
C360 C361 1.387 . S
C360 H364 0.950 . S
C360 C369 1.390 . S
C361 C360 1.387 . S
C361 C363 1.387 . S
H362 C369 0.950 . S
C363 C361 1.387 . S
C363 C365 1.390 . S
C363 H367 0.950 . S
H364 C360 0.950 . S
C365 C363 1.390 . S
C365 C366 1.387 . S
C365 H368 0.950 . S
C366 C365 1.387 . S
C366 C369 1.387 . S
H367 C363 0.950 . S
H368 C365 0.950 . S
C369 C360 1.390 . S
C369 H362 0.950 . S
C369 C366 1.387 . S
C370 C371 1.387 . S
C370 H374 0.950 . S
C370 C379 1.390 . S
C371 C370 1.387 . S
C371 C373 1.387 . S
H372 C379 0.950 . S
C373 C371 1.387 . S
C373 C375 1.390 . S
C373 H377 0.950 . S
H374 C370 0.950 . S
C375 C373 1.390 . S
C375 C376 1.387 . S
C375 H378 0.950 . S
C376 C375 1.387 . S
C376 C379 1.387 . S
H377 C373 0.950 . S
H378 C375 0.950 . S
C379 C370 1.390 . S
C379 H372 0.950 . S
C379 C376 1.387 . S
C380 C381 1.387 . S
C380 H384 0.950 . S
C380 C389 1.390 . S
C381 C380 1.387 . S
C381 C383 1.387 . S
H382 C389 0.950 . S
C383 C381 1.387 . S
C383 C385 1.390 . S
C383 H387 0.950 1_556 S
H384 C380 0.950 . S
C385 C383 1.390 . S
C385 C386 1.387 . S
C385 H388 0.950 . S
C386 C385 1.387 . S
C386 C389 1.387 . S
H387 C383 0.950 1_554 S
H388 C385 0.950 . S
C389 C380 1.390 . S
C389 H382 0.950 . S
C389 C386 1.387 . S
C390 C391 1.387 . S
C390 H394 0.950 . S
C390 C399 1.390 . S
C391 C390 1.387 . S
C391 C393 1.387 . S
H392 C399 0.950 1_556 S
C393 C391 1.387 . S
C393 C395 1.390 . S
C393 H397 0.950 . S
H394 C390 0.950 . S
C395 C393 1.390 . S
C395 C396 1.387 . S
C395 H398 0.950 . S
C396 C395 1.387 . S
C396 C399 1.387 . S
H397 C393 0.950 . S
H398 C395 0.950 . S
C399 C390 1.390 . S
C399 H392 0.950 1_554 S
C399 C396 1.387 . S
C400 C401 1.387 . S
C400 H404 0.950 . S
C400 C409 1.390 . S
C401 C400 1.387 . S
C401 C403 1.387 . S
H402 C409 0.950 . S
C403 C401 1.387 . S
C403 C405 1.390 . S
C403 H407 0.950 . S
H404 C400 0.950 . S
C405 C403 1.390 . S
C405 C406 1.387 . S
C405 H408 0.950 1_554 S
C406 C405 1.387 . S
C406 C409 1.387 . S
H407 C403 0.950 . S
H408 C405 0.950 1_556 S
C409 C400 1.390 . S
C409 H402 0.950 . S
C409 C406 1.387 . S
C410 C411 1.387 . S
C410 H414 0.950 . S
C410 C419 1.390 . S
C411 C410 1.387 . S
C411 C413 1.387 . S
H412 C419 0.950 . S
C413 C411 1.387 . S
C413 C415 1.390 . S
C413 H417 0.950 . S
H414 C410 0.950 . S
C415 C413 1.390 . S
C415 C416 1.387 . S
C415 H418 0.950 . S
C416 C415 1.387 . S
C416 C419 1.387 . S
H417 C413 0.950 . S
H418 C415 0.950 . S
C419 C410 1.390 . S
C419 H412 0.950 . S
C419 C416 1.387 . S
C420 C421 1.387 . S
C420 H424 0.950 . S
C420 C429 1.390 . S
C421 C420 1.387 . S
C421 C423 1.387 . S
H422 C429 0.950 . S
C423 C421 1.387 . S
C423 C425 1.390 . S
C423 H427 0.950 . S
H424 C420 0.950 . S
C425 C423 1.390 . S
C425 C426 1.387 . S
C425 H428 0.950 . S
C426 C425 1.387 . S
C426 C429 1.387 . S
H427 C423 0.950 . S
H428 C425 0.950 . S
C429 C420 1.390 . S
C429 H422 0.950 . S
C429 C426 1.387 . S
C430 C431 1.387 . S
C430 H434 0.950 . S
C430 C439 1.390 . S
C431 C430 1.387 . S
C431 C433 1.387 . S
H432 C439 0.950 . S
C433 C431 1.387 . S
C433 C435 1.390 . S
C433 H437 0.950 . S
H434 C430 0.950 . S
C435 C433 1.390 . S
C435 C436 1.387 . S
C435 H438 0.950 . S
C436 C435 1.387 . S
C436 C439 1.387 . S
H437 C433 0.950 . S
H438 C435 0.950 . S
C439 C430 1.390 . S
C439 H432 0.950 . S
C439 C436 1.387 . S
C440 C441 1.387 . S
C440 H444 0.950 . S
C440 C449 1.390 . S
C441 C440 1.387 . S
C441 C443 1.387 . S
H442 C449 0.950 . S
C443 C441 1.387 . S
C443 C445 1.390 . S
C443 H447 0.950 . S
H444 C440 0.950 . S
C445 C443 1.390 . S
C445 C446 1.387 . S
C445 H448 0.950 . S
C446 C445 1.387 . S
C446 C449 1.387 . S
H447 C443 0.950 . S
H448 C445 0.950 . S
C449 C440 1.390 . S
C449 H442 0.950 . S
C449 C446 1.387 . S
C450 C451 1.387 . S
C450 H454 0.950 . S
C450 C459 1.390 . S
C451 C450 1.387 . S
C451 C453 1.387 1_554 S
H452 C459 0.950 . S
C453 C451 1.387 1_556 S
C453 C455 1.390 . S
C453 H457 0.950 . S
H454 C450 0.950 . S
C455 C453 1.390 . S
C455 C456 1.387 1_556 S
C455 H458 0.950 . S
C456 C455 1.387 1_554 S
C456 C459 1.387 . S
H457 C453 0.950 . S
H458 C455 0.950 . S
C459 C450 1.390 . S
C459 H452 0.950 . S
C459 C456 1.387 . S
C460 C461 1.387 1_556 S
C460 H464 0.950 . S
C460 C469 1.390 . S
C461 C460 1.387 1_554 S
C461 C463 1.387 . S
H462 C469 0.950 . S
C463 C461 1.387 . S
C463 C465 1.390 . S
C463 H467 0.950 . S
H464 C460 0.950 . S
C465 C463 1.390 . S
C465 C466 1.387 . S
C465 H468 0.950 . S
C466 C465 1.387 . S
C466 C469 1.387 1_554 S
H467 C463 0.950 . S
H468 C465 0.950 . S
C469 C460 1.390 . S
C469 H462 0.950 . S
C469 C466 1.387 1_556 S
C470 C471 1.387 . S
C470 H474 0.950 . S
C470 C479 1.390 . S
C471 C470 1.387 . S
C471 C473 1.387 1_554 S
H472 C479 0.950 . S
C473 C471 1.387 1_556 S
C473 C475 1.390 . S
C473 H477 0.950 . S
H474 C470 0.950 . S
C475 C473 1.390 . S
C475 C476 1.387 1_556 S
C475 H478 0.950 . S
C476 C475 1.387 1_554 S
C476 C479 1.387 . S
H477 C473 0.950 . S
H478 C475 0.950 . S
C479 C470 1.390 . S
C479 H472 0.950 . S
C479 C476 1.387 . S
C480 C481 1.387 . S
C480 H484 0.950 . S
C480 C489 1.390 . S
C481 C480 1.387 . S
C481 C483 1.387 . S
H482 C489 0.950 . S
C483 C481 1.387 . S
C483 C485 1.390 . S
C483 H487 0.950 . S
H484 C480 0.950 . S
C485 C483 1.390 . S
C485 C486 1.387 . S
C485 H488 0.950 . S
C486 C485 1.387 . S
C486 C489 1.387 . S
H487 C483 0.950 . S
H488 C485 0.950 . S
C489 C480 1.390 . S
C489 H482 0.950 . S
C489 C486 1.387 . S
C490 C491 1.387 . S
C490 H494 0.950 . S
C490 C499 1.390 . S
C491 C490 1.387 . S
C491 C493 1.387 . S
H492 C499 0.950 . S
C493 C491 1.387 . S
C493 C495 1.390 . S
C493 H497 0.950 . S
H494 C490 0.950 . S
C495 C493 1.390 . S
C495 C496 1.387 . S
C495 H498 0.950 . S
C496 C495 1.387 . S
C496 C499 1.387 . S
H497 C493 0.950 . S
H498 C495 0.950 . S
C499 C490 1.390 . S
C499 H492 0.950 . S
C499 C496 1.387 . S
C500 C501 1.387 . S
C500 H504 0.950 . S
C500 C509 1.390 . S
C501 C500 1.387 . S
C501 C503 1.387 . S
H502 C509 0.950 . S
C503 C501 1.387 . S
C503 C505 1.390 . S
C503 H507 0.950 . S
H504 C500 0.950 . S
C505 C503 1.390 . S
C505 C506 1.387 . S
C505 H508 0.950 . S
C506 C505 1.387 . S
C506 C509 1.387 . S
H507 C503 0.950 . S
H508 C505 0.950 . S
C509 C500 1.390 . S
C509 H502 0.950 . S
C509 C506 1.387 . S
C510 C511 1.387 . S
C510 H514 0.950 . S
C510 C519 1.390 . S
C511 C510 1.387 . S
C511 C513 1.387 . S
H512 C519 0.950 . S
C513 C511 1.387 . S
C513 C515 1.390 . S
C513 H517 0.950 . S
H514 C510 0.950 . S
C515 C513 1.390 . S
C515 C516 1.387 . S
C515 H518 0.950 . S
C516 C515 1.387 . S
C516 C519 1.387 . S
H517 C513 0.950 . S
H518 C515 0.950 . S
C519 C510 1.390 . S
C519 H512 0.950 . S
C519 C516 1.387 . S
C520 C521 1.387 . S
C520 H524 0.950 . S
C520 C529 1.390 . S
C521 C520 1.387 . S
C521 C523 1.387 . S
H522 C529 0.950 . S
C523 C521 1.387 . S
C523 C525 1.390 . S
C523 H527 0.950 . S
H524 C520 0.950 . S
C525 C523 1.390 . S
C525 C526 1.387 . S
C525 H528 0.950 . S
C526 C525 1.387 . S
C526 C529 1.387 . S
H527 C523 0.950 . S
H528 C525 0.950 . S
C529 C520 1.390 . S
C529 H522 0.950 . S
C529 C526 1.387 . S
C530 C531 1.387 . S
C530 H534 0.950 . S
C530 C539 1.390 . S
C531 C530 1.387 . S
C531 C533 1.387 . S
H532 C539 0.950 . S
C533 C531 1.387 . S
C533 C535 1.390 . S
C533 H537 0.950 . S
H534 C530 0.950 . S
C535 C533 1.390 . S
C535 C536 1.387 . S
C535 H538 0.950 . S
C536 C535 1.387 . S
C536 C539 1.387 . S
H537 C533 0.950 . S
H538 C535 0.950 . S
C539 C530 1.390 . S
C539 H532 0.950 . S
C539 C536 1.387 . S
C540 C541 1.387 . S
C540 H544 0.950 . S
C540 C549 1.390 . S
C541 C540 1.387 . S
C541 C543 1.387 . S
H542 C549 0.950 . S
C543 C541 1.387 . S
C543 C545 1.390 . S
C543 H547 0.950 1_455 S
H544 C540 0.950 . S
C545 C543 1.390 . S
C545 C546 1.387 . S
C545 H548 0.938 . S
C546 C545 1.387 . S
C546 C549 1.387 . S
H547 C543 0.950 1_655 S
H548 C545 0.938 . S
C549 C540 1.390 . S
C549 H542 0.950 . S
C549 C546 1.387 . S
C550 C551 1.387 . S
C550 H554 0.950 . S
C550 C559 1.390 . S
C551 C550 1.387 . S
C551 C553 1.387 . S
H552 C559 0.950 . S
C553 C551 1.387 . S
C553 C555 1.390 . S
C553 H557 0.950 . S
H554 C550 0.950 . S
C555 C553 1.390 . S
C555 C556 1.387 . S
C555 H558 0.950 . S
C556 C555 1.387 . S
C556 C559 1.387 . S
H557 C553 0.950 . S
H558 C555 0.950 . S
C559 C550 1.390 . S
C559 H552 0.950 . S
C559 C556 1.387 . S
C560 C561 1.387 1_565 S
C560 H564 0.950 . S
C560 C569 1.390 . S
C561 C560 1.387 1_545 S
C561 C563 1.387 . S
H562 C569 0.950 . S
C563 C561 1.387 . S
C563 C565 1.390 . S
C563 H567 0.950 . S
H564 C560 0.950 . S
C565 C563 1.390 . S
C565 C566 1.387 . S
C565 H568 0.950 . S
C566 C565 1.387 . S
C566 C569 1.387 1_545 S
H567 C563 0.950 . S
H568 C565 0.950 . S
C569 C560 1.390 . S
C569 H562 0.950 . S
C569 C566 1.387 1_565 S
C570 C571 1.387 . S
C570 H574 0.950 . S
C570 C579 1.390 . S
C571 C570 1.387 . S
C571 C573 1.387 . S
H572 C579 0.950 . S
C573 C571 1.387 . S
C573 C575 1.390 . S
C573 H577 0.950 . S
H574 C570 0.950 . S
C575 C573 1.390 . S
C575 C576 1.387 . S
C575 H578 0.950 . S
C576 C575 1.387 . S
C576 C579 1.387 . S
H577 C573 0.950 . S
H578 C575 0.950 . S
C579 C570 1.390 . S
C579 H572 0.950 . S
C579 C576 1.387 . S
C580 C581 1.387 . S
C580 H584 0.950 . S
C580 C589 1.390 . S
C581 C580 1.387 . S
C581 C583 1.387 . S
H582 C589 0.950 . S
C583 C581 1.387 . S
C583 C585 1.390 . S
C583 H587 0.950 . S
H584 C580 0.950 . S
C585 C583 1.390 . S
C585 C586 1.387 . S
C585 H588 0.950 . S
C586 C585 1.387 . S
C586 C589 1.387 . S
H587 C583 0.950 . S
H588 C585 0.950 . S
C589 C580 1.390 . S
C589 H582 0.950 . S
C589 C586 1.387 . S
C590 C591 1.387 . S
C590 H594 0.950 . S
C590 C599 1.390 . S
C591 C590 1.387 . S
C591 C593 1.387 . S
H592 C599 0.950 . S
C593 C591 1.387 . S
C593 C595 1.390 . S
C593 H597 0.950 . S
H594 C590 0.950 . S
C595 C593 1.390 . S
C595 C596 1.387 . S
C595 H598 0.950 . S
C596 C595 1.387 . S
C596 C599 1.387 . S
H597 C593 0.950 . S
H598 C595 0.950 . S
C599 C590 1.390 . S
C599 H592 0.950 . S
C599 C596 1.387 . S
C600 C601 1.387 . S
C600 H604 0.950 . S
C600 C609 1.390 . S
C601 C600 1.387 . S
C601 C603 1.387 . S
H602 C609 0.950 . S
C603 C601 1.387 . S
C603 C605 1.390 . S
C603 H607 0.950 . S
H604 C600 0.950 . S
C605 C603 1.390 . S
C605 C606 1.387 . S
C605 H608 0.950 . S
C606 C605 1.387 . S
C606 C609 1.387 . S
H607 C603 0.950 . S
H608 C605 0.950 . S
C609 C600 1.390 . S
C609 H602 0.950 . S
C609 C606 1.387 . S
C610 C611 1.387 . S
C610 H614 0.950 . S
C610 C619 1.390 . S
C611 C610 1.387 . S
C611 C613 1.387 . S
H612 C619 0.950 . S
C613 C611 1.387 . S
C613 C615 1.390 . S
C613 H617 0.950 . S
H614 C610 0.950 . S
C615 C613 1.390 . S
C615 C616 1.387 . S
C615 H618 0.950 . S
C616 C615 1.387 . S
C616 C619 1.387 . S
H617 C613 0.950 . S
H618 C615 0.950 . S
C619 C610 1.390 . S
C619 H612 0.950 . S
C619 C616 1.387 . S
C620 C621 1.387 . S
C620 H624 0.950 . S
C620 C629 1.390 . S
C621 C620 1.387 . S
C621 C623 1.387 . S
H622 C629 0.950 . S
C623 C621 1.387 . S
C623 C625 1.390 . S
C623 H627 0.950 . S
H624 C620 0.950 . S
C625 C623 1.390 . S
C625 C626 1.387 . S
C625 H628 0.950 . S
C626 C625 1.387 . S
C626 C629 1.387 . S
H627 C623 0.950 . S
H628 C625 0.950 . S
C629 C620 1.390 . S
C629 H622 0.950 . S
C629 C626 1.387 . S
C361 C6 1.858 . S
C366 C290 1.761 . S
C371 C46 1.858 . S
C376 C330 1.761 . S
C381 C86 1.858 . S
C386 C250 1.763 . S
C391 C166 1.859 . S
C396 C90 1.765 . S
C401 C206 1.860 . S
C406 C10 1.764 . S
C411 C50 1.761 . S
C416 C126 1.858 . S
C421 C286 1.859 1_655 S
C426 C210 1.762 . S
C431 C326 1.858 . S
C436 C130 1.763 . S
C441 C170 1.761 . S
C446 C246 1.858 . S
C451 C95 1.649 . S
C456 C19 1.660 1_554 S
C461 C59 1.660 1_554 S
C466 C15 1.648 1_565 S
C471 C55 1.649 . S
C476 C99 1.660 1_554 S
C481 C139 1.660 . S
C486 C215 1.649 . S
C491 C135 1.648 . S
C496 C179 1.661 . S
C501 C175 1.649 . S
C506 C219 1.660 . S
C511 C335 1.649 . S
C516 C259 1.660 . S
C521 C299 1.661 . S
C526 C255 1.647 . S
C531 C339 1.661 . S
C536 C295 1.648 . S
C541 C18 1.110 . S
C546 C9 1.110 . S
C551 C58 1.110 . S
C556 C49 1.110 . S
C561 C98 1.112 . S
C566 C89 1.112 . S
C571 C129 1.111 . S
C576 C138 1.111 1_556 S
C581 C169 1.109 . S
C586 C178 1.109 1_556 S
C591 C209 1.111 . S
C596 C218 1.111 1_556 S
C601 C258 1.111 . S
C606 C249 1.111 1_554 S
C611 C289 1.112 1_554 S
C616 C298 1.112 . S
C621 C338 1.110 . S
C626 C329 1.110 1_554 S
