# Generated by pormake.
# Topology zfc, (5)-cn, num edge types: 1
# Building blocks:
#     Node 0, Type 0, BuildingBlock: XOMCOT_clean_sbu_1, # of connection points: 5
#     Node 1, Type 0, BuildingBlock: XOMCOT_clean_sbu_1, # of connection points: 5
#     Node 2, Type 0, BuildingBlock: XOMCOT_clean_sbu_1, # of connection points: 5
#     Node 3, Type 0, BuildingBlock: XOMCOT_clean_sbu_1, # of connection points: 5
#     Node 4, Type 0, BuildingBlock: XOMCOT_clean_sbu_1, # of connection points: 5
#     Node 5, Type 0, BuildingBlock: XOMCOT_clean_sbu_1, # of connection points: 5
#     Node 6, Type 0, BuildingBlock: XOMCOT_clean_sbu_1, # of connection points: 5
#     Node 7, Type 0, BuildingBlock: XOMCOT_clean_sbu_1, # of connection points: 5
#     Node 8, Type 0, BuildingBlock: XOMCOT_clean_sbu_1, # of connection points: 5
#     Node 9, Type 0, BuildingBlock: XOMCOT_clean_sbu_1, # of connection points: 5
#     Node 10, Type 0, BuildingBlock: XOMCOT_clean_sbu_1, # of connection points: 5
#     Node 11, Type 0, BuildingBlock: XOMCOT_clean_sbu_1, # of connection points: 5
#     Node 12, Type 0, BuildingBlock: XOMCOT_clean_sbu_1, # of connection points: 5
#     Node 13, Type 0, BuildingBlock: XOMCOT_clean_sbu_1, # of connection points: 5
#     Node 14, Type 0, BuildingBlock: XOMCOT_clean_sbu_1, # of connection points: 5
#     Node 15, Type 0, BuildingBlock: XOMCOT_clean_sbu_1, # of connection points: 5
#     Edge 16, Type (0, 0), BuildingBlock: KIFKEQ_clean_linker_1, # of connection points: 2
#     Edge 17, Type (0, 0), BuildingBlock: KIFKEQ_clean_linker_1, # of connection points: 2
#     Edge 18, Type (0, 0), BuildingBlock: KIFKEQ_clean_linker_1, # of connection points: 2
#     Edge 19, Type (0, 0), BuildingBlock: KIFKEQ_clean_linker_1, # of connection points: 2
#     Edge 20, Type (0, 0), BuildingBlock: KIFKEQ_clean_linker_1, # of connection points: 2
#     Edge 21, Type (0, 0), BuildingBlock: KIFKEQ_clean_linker_1, # of connection points: 2
#     Edge 22, Type (0, 0), BuildingBlock: KIFKEQ_clean_linker_1, # of connection points: 2
#     Edge 23, Type (0, 0), BuildingBlock: KIFKEQ_clean_linker_1, # of connection points: 2
#     Edge 24, Type (0, 0), BuildingBlock: KIFKEQ_clean_linker_1, # of connection points: 2
#     Edge 25, Type (0, 0), BuildingBlock: KIFKEQ_clean_linker_1, # of connection points: 2
#     Edge 26, Type (0, 0), BuildingBlock: KIFKEQ_clean_linker_1, # of connection points: 2
#     Edge 27, Type (0, 0), BuildingBlock: KIFKEQ_clean_linker_1, # of connection points: 2
#     Edge 28, Type (0, 0), BuildingBlock: KIFKEQ_clean_linker_1, # of connection points: 2
#     Edge 29, Type (0, 0), BuildingBlock: KIFKEQ_clean_linker_1, # of connection points: 2
#     Edge 30, Type (0, 0), BuildingBlock: KIFKEQ_clean_linker_1, # of connection points: 2
#     Edge 31, Type (0, 0), BuildingBlock: KIFKEQ_clean_linker_1, # of connection points: 2
#     Edge 32, Type (0, 0), BuildingBlock: KIFKEQ_clean_linker_1, # of connection points: 2
#     Edge 33, Type (0, 0), BuildingBlock: KIFKEQ_clean_linker_1, # of connection points: 2
#     Edge 34, Type (0, 0), BuildingBlock: KIFKEQ_clean_linker_1, # of connection points: 2
#     Edge 35, Type (0, 0), BuildingBlock: KIFKEQ_clean_linker_1, # of connection points: 2
#     Edge 36, Type (0, 0), BuildingBlock: KIFKEQ_clean_linker_1, # of connection points: 2
#     Edge 37, Type (0, 0), BuildingBlock: KIFKEQ_clean_linker_1, # of connection points: 2
#     Edge 38, Type (0, 0), BuildingBlock: KIFKEQ_clean_linker_1, # of connection points: 2
#     Edge 39, Type (0, 0), BuildingBlock: KIFKEQ_clean_linker_1, # of connection points: 2
#     Edge 40, Type (0, 0), BuildingBlock: KIFKEQ_clean_linker_1, # of connection points: 2
#     Edge 41, Type (0, 0), BuildingBlock: KIFKEQ_clean_linker_1, # of connection points: 2
#     Edge 42, Type (0, 0), BuildingBlock: KIFKEQ_clean_linker_1, # of connection points: 2
#     Edge 43, Type (0, 0), BuildingBlock: KIFKEQ_clean_linker_1, # of connection points: 2
#     Edge 44, Type (0, 0), BuildingBlock: KIFKEQ_clean_linker_1, # of connection points: 2
#     Edge 45, Type (0, 0), BuildingBlock: KIFKEQ_clean_linker_1, # of connection points: 2
#     Edge 46, Type (0, 0), BuildingBlock: KIFKEQ_clean_linker_1, # of connection points: 2
#     Edge 47, Type (0, 0), BuildingBlock: KIFKEQ_clean_linker_1, # of connection points: 2
#     Edge 48, Type (0, 0), BuildingBlock: KIFKEQ_clean_linker_1, # of connection points: 2
#     Edge 49, Type (0, 0), BuildingBlock: KIFKEQ_clean_linker_1, # of connection points: 2
#     Edge 50, Type (0, 0), BuildingBlock: KIFKEQ_clean_linker_1, # of connection points: 2
#     Edge 51, Type (0, 0), BuildingBlock: KIFKEQ_clean_linker_1, # of connection points: 2
#     Edge 52, Type (0, 0), BuildingBlock: KIFKEQ_clean_linker_1, # of connection points: 2
#     Edge 53, Type (0, 0), BuildingBlock: KIFKEQ_clean_linker_1, # of connection points: 2
#     Edge 54, Type (0, 0), BuildingBlock: KIFKEQ_clean_linker_1, # of connection points: 2
#     Edge 55, Type (0, 0), BuildingBlock: KIFKEQ_clean_linker_1, # of connection points: 2
# Relax obj value: 0.150
# Max RMSD: 0.157
# Mean RMSD: 0.157
data_MOF--net-zfc--node1-XOMCOT_clean_sbu_1--edge1-KIFKEQ_clean_linker_1
_symmetry_space_group_name_H-M    P1
_symmetry_Int_Tables_number       1
_symmetry_cell_setting            triclinic
loop_
_symmetry_equiv_pos_as_xyz
'x, y, z'
_cell_length_a     76.160721
_cell_length_b     76.182558
_cell_length_c     17.692732
_cell_angle_alpha  90.047414
_cell_angle_beta   89.98362
_cell_angle_gamma 89.987415
loop_
_atom_site_label
_atom_site_type_symbol
_atom_site_fract_x
_atom_site_fract_y
_atom_site_fract_z
_atom_type_partial_charge
C0 C 0.25395 0.0996 0.14002 0.0
C1 C 0.25147 0.09866 0.21707 0.0
N2 N 0.26734 0.09867 0.25089 0.0
N3 N 0.27128 0.10034 0.12528 0.0
C4 C 0.27908 0.09949 0.19374 0.0
H5 H 0.24377 0.10006 0.09745 0.0
Co6 Co 0.28142 0.10309 0.03024 0.0
C7 C 0.31278 0.12556 0.06054 0.0
O8 O 0.30964 0.1345 0.99848 0.0
N9 N 0.29161 0.10516 0.93272 0.0
C10 C 0.31067 0.1014 0.83827 0.0
C11 C 0.30853 0.10158 0.91546 0.0
C12 C 0.28366 0.10643 0.86441 0.0
N13 N 0.29495 0.10436 0.80612 0.0
O14 O 0.29051 0.0796 0.03572 0.0
H15 H 0.31856 0.09831 0.95633 0.0
H16 H 0.26973 0.10789 0.8567 0.0
O17 O 0.30278 0.11267 0.07805 0.0
C18 C 0.28007 0.06941 1.00034 0.0
O19 O 0.26592 0.07632 0.96995 0.0
N20 N 0.27082 0.12553 0.02389 0.0
C21 C 0.25001 0.15572 0.01622 0.0
C22 C 0.2638 0.15459 0.06838 0.0
C23 C 0.27395 0.13926 0.07201 0.0
C24 C 0.25659 0.12605 0.97722 0.0
C25 C 0.2464 0.14118 0.9705 0.0
H26 H 0.28365 0.13822 0.11618 0.0
H27 H 0.25242 0.11431 0.94831 0.0
H28 H 0.29311 0.09991 0.20172 0.0
H29 H 0.23893 0.09809 0.24576 0.0
H30 H 0.32266 0.09825 0.80829 0.0
H31 H 0.26647 0.16529 0.10706 0.0
H32 H 0.23519 0.14115 0.9328 0.0
C33 C 0.90695 0.25326 0.14327 0.0
C34 C 0.90772 0.251 0.22044 0.0
N35 N 0.90749 0.26696 0.25347 0.0
N36 N 0.90608 0.27054 0.12771 0.0
C37 C 0.90666 0.27854 0.1958 0.0
H38 H 0.90683 0.24296 0.10115 0.0
Co39 Co 0.90406 0.28058 0.03225 0.0
C40 C 0.88003 0.3109 0.05798 0.0
O41 O 0.87176 0.30736 0.99455 0.0
N42 N 0.90272 0.29079 0.93482 0.0
C43 C 0.90647 0.31022 0.84184 0.0
C44 C 0.90608 0.30782 0.91889 0.0
C45 C 0.90177 0.28306 0.86597 0.0
N46 N 0.90384 0.29456 0.80859 0.0
O47 O 0.92702 0.2906 0.04319 0.0
H48 H 0.90887 0.3178 0.9607 0.0
H49 H 0.90032 0.26918 0.85707 0.0
O50 O 0.89309 0.30141 0.07797 0.0
C51 C 0.93818 0.27935 0.01996 0.0
O52 O 0.93227 0.26426 0.99441 0.0
N53 N 0.88225 0.26899 0.02078 0.0
C54 C 0.85392 0.2455 0.0092 0.0
C55 C 0.85341 0.25973 0.05999 0.0
C56 C 0.86776 0.2712 0.0655 0.0
C57 C 0.88331 0.25474 0.97464 0.0
C58 C 0.86915 0.2434 0.96525 0.0
H59 H 0.86757 0.28108 0.10921 0.0
H60 H 0.89564 0.25144 0.94825 0.0
H61 H 0.90617 0.2926 0.20306 0.0
H62 H 0.90845 0.23856 0.24974 0.0
H63 H 0.90941 0.32236 0.81275 0.0
H64 H 0.84245 0.26155 0.09812 0.0
H65 H 0.87055 0.23274 0.92532 0.0
C66 C 0.75294 0.9025 0.17661 0.0
C67 C 0.7552 0.90273 0.25375 0.0
N68 N 0.73922 0.90299 0.28653 0.0
N69 N 0.73562 0.90245 0.16077 0.0
C70 C 0.72762 0.90298 0.22882 0.0
H71 H 0.76328 0.90234 0.13474 0.0
Co72 Co 0.72563 0.90155 0.06478 0.0
C73 C 0.69347 0.87944 0.08524 0.0
O74 O 0.69582 0.87207 0.01881 0.0
N75 N 0.71564 0.90125 0.96753 0.0
C76 C 0.69697 0.90689 0.87372 0.0
C77 C 0.69922 0.90673 0.95078 0.0
C78 C 0.72325 0.89866 0.8993 0.0
N79 N 0.71216 0.90188 0.84139 0.0
O80 O 0.71628 0.92474 0.07843 0.0
H81 H 0.68962 0.91092 0.9921 0.0
H82 H 0.73679 0.895 0.89144 0.0
O83 O 0.70432 0.8911 0.10835 0.0
C84 C 0.7282 0.93606 0.06542 0.0
O85 O 0.74409 0.93046 0.04923 0.0
N86 N 0.73649 0.87952 0.05009 0.0
C87 C 0.75938 0.85099 0.03634 0.0
C88 C 0.74366 0.84939 0.07703 0.0
C89 C 0.73259 0.86398 0.08502 0.0
C90 C 0.75188 0.88125 0.01149 0.0
C91 C 0.76338 0.86717 1.00314 0.0
H92 H 0.72157 0.86288 0.12286 0.0
H93 H 0.75569 0.89399 0.99014 0.0
H94 H 0.71355 0.90311 0.23603 0.0
H95 H 0.76764 0.90284 0.28327 0.0
H96 H 0.68534 0.91119 0.84384 0.0
H97 H 0.74045 0.83727 0.10594 0.0
H98 H 0.77556 0.86906 0.97253 0.0
C99 C 0.09424 0.74946 0.13828 0.0
C100 C 0.09318 0.75178 0.21543 0.0
N101 N 0.09455 0.73593 0.2489 0.0
N102 N 0.09642 0.73227 0.12316 0.0
C103 C 0.09631 0.72437 0.19149 0.0
H104 H 0.09378 0.75968 0.09592 0.0
Co105 Co 0.09979 0.72234 0.02809 0.0
C106 C 0.12504 0.69307 0.05774 0.0
O107 O 0.13378 0.69688 0.99579 0.0
N108 N 0.10255 0.71221 0.93054 0.0
C109 C 0.10043 0.69277 0.83652 0.0
C110 C 0.10044 0.69503 0.91369 0.0
C111 C 0.1032 0.72013 0.862 0.0
N112 N 0.10207 0.70864 0.80399 0.0
O113 O 0.07738 0.71094 0.0363 0.0
H114 H 0.09807 0.68481 0.95485 0.0
H115 H 0.10356 0.7341 0.85384 0.0
O116 O 0.11145 0.70208 0.07537 0.0
C117 C 0.06553 0.71821 0.99621 0.0
O118 O 0.06983 0.73187 0.95483 0.0
N119 N 0.12106 0.73503 0.0198 0.0
C120 C 0.14898 0.75906 0.0098 0.0
C121 C 0.14946 0.74503 0.06152 0.0
C122 C 0.13531 0.73331 0.06625 0.0
C123 C 0.11992 0.74918 0.97317 0.0
C124 C 0.13389 0.76082 0.96476 0.0
H125 H 0.1355 0.72353 0.11029 0.0
H126 H 0.10769 0.75206 0.94507 0.0
H127 H 0.0979 0.71042 0.19917 0.0
H128 H 0.09158 0.76419 0.24441 0.0
H129 H 0.09832 0.68053 0.80682 0.0
H130 H 0.16028 0.7435 0.10062 0.0
H131 H 0.1325 0.77135 0.92429 0.0
C132 C 0.25175 0.90861 0.86489 0.0
C133 C 0.24944 0.90929 0.78765 0.0
N134 N 0.26519 0.90688 0.75452 0.0
N135 N 0.26886 0.9058 0.88011 0.0
C136 C 0.2767 0.90497 0.81179 0.0
H137 H 0.2416 0.90992 0.90731 0.0
Co138 Co 0.27885 0.9036 0.97545 0.0
C139 C 0.30967 0.8801 0.95077 0.0
O140 O 0.30645 0.87205 0.01498 0.0
N141 N 0.28899 0.90204 0.07282 0.0
C142 C 0.30793 0.90705 0.16635 0.0
C143 C 0.30561 0.90689 0.08932 0.0
C144 C 0.28144 0.89962 0.14132 0.0
N145 N 0.29264 0.90255 0.19927 0.0
O146 O 0.28872 0.92668 0.96565 0.0
H147 H 0.31526 0.9109 0.04791 0.0
H148 H 0.26782 0.89647 0.14937 0.0
O149 O 0.29983 0.89282 0.93002 0.0
C150 C 0.27769 0.93756 0.99296 0.0
O151 O 0.26297 0.93129 0.02092 0.0
N152 N 0.26732 0.8818 0.9857 0.0
C153 C 0.24361 0.85363 0.99533 0.0
C154 C 0.25831 0.85284 0.94713 0.0
C155 C 0.26989 0.86712 0.9425 0.0
C156 C 0.25267 0.8831 0.02938 0.0
C157 C 0.24116 0.86904 0.03771 0.0
H158 H 0.28018 0.86669 0.90066 0.0
H159 H 0.24941 0.8955 0.0555 0.0
H160 H 0.29063 0.90328 0.80381 0.0
H161 H 0.2371 0.91105 0.75823 0.0
H162 H 0.31973 0.91113 0.19554 0.0
H163 H 0.26044 0.84169 0.91034 0.0
H164 H 0.23017 0.87062 0.07579 0.0
C165 C 0.08984 0.25626 0.86617 0.0
C166 C 0.08926 0.25345 0.78924 0.0
N167 N 0.0984 0.26633 0.75487 0.0
N168 N 0.09922 0.27088 0.88031 0.0
C169 C 0.10434 0.27663 0.8115 0.0
H170 H 0.0837 0.24825 0.90915 0.0
Co171 Co 0.1031 0.28045 0.97573 0.0
C172 C 0.12619 0.31142 0.94632 0.0
O173 O 0.13524 0.30807 1.0079 0.0
N174 N 0.1064 0.29006 0.0736 0.0
C175 C 0.10352 0.30858 0.17047 0.0
C176 C 0.1027 0.30681 0.09323 0.0
C177 C 0.10894 0.28184 0.14062 0.0
N178 N 0.10734 0.2928 0.20038 0.0
O179 O 0.07998 0.29063 0.97384 0.0
H180 H 0.09869 0.31694 0.05407 0.0
H181 H 0.11102 0.26793 0.14646 0.0
O182 O 0.11317 0.3016 0.92883 0.0
C183 C 0.06961 0.28132 0.01378 0.0
O184 O 0.07603 0.26729 0.04707 0.0
N185 N 0.12492 0.26874 0.97864 0.0
C186 C 0.15387 0.24602 0.98553 0.0
C187 C 0.15408 0.26089 0.93846 0.0
C188 C 0.13938 0.27194 0.93493 0.0
C189 C 0.1241 0.25378 0.02049 0.0
C190 C 0.13851 0.24261 0.02685 0.0
H191 H 0.13948 0.2825 0.89444 0.0
H192 H 0.11192 0.25022 0.04779 0.0
H193 H 0.11205 0.28832 0.80269 0.0
H194 H 0.08265 0.24271 0.76103 0.0
H195 H 0.10041 0.32032 0.20224 0.0
H196 H 0.16523 0.26367 0.90242 0.0
H197 H 0.13742 0.2313 0.0635 0.0
C198 C 0.75247 0.09699 0.86176 0.0
C199 C 0.75461 0.09629 0.78448 0.0
N200 N 0.73863 0.0973 0.75223 0.0
N201 N 0.73522 0.0984 0.87786 0.0
C202 C 0.72714 0.09841 0.81002 0.0
H203 H 0.76282 0.09665 0.90358 0.0
Co204 Co 0.72527 0.10003 0.97356 0.0
C205 C 0.69417 0.12316 0.95104 0.0
O206 O 0.69737 0.13106 0.01567 0.0
N207 N 0.71512 0.10104 0.07091 0.0
C208 C 0.69617 0.09536 0.16372 0.0
C209 C 0.69861 0.09571 0.08679 0.0
C210 C 0.72249 0.10359 0.13966 0.0
N211 N 0.71128 0.10026 0.19719 0.0
O212 O 0.71564 0.07688 0.96232 0.0
H213 H 0.68912 0.09154 0.04498 0.0
H214 H 0.73597 0.10718 0.14817 0.0
O215 O 0.70416 0.11064 0.92918 0.0
C216 C 0.7275 0.06569 0.97839 0.0
O217 O 0.74321 0.07147 0.99637 0.0
N218 N 0.73647 0.12196 0.98542 0.0
C219 C 0.75977 0.15044 0.99664 0.0
C220 C 0.74513 0.15111 0.94815 0.0
C221 C 0.73374 0.13668 0.94279 0.0
C222 C 0.75108 0.12079 0.02935 0.0
C223 C 0.76236 0.135 0.03858 0.0
H224 H 0.72349 0.13704 0.90075 0.0
H225 H 0.7545 0.10838 0.0549 0.0
H226 H 0.71308 0.09897 0.80284 0.0
H227 H 0.76697 0.0955 0.7544 0.0
H228 H 0.68444 0.09093 0.1924 0.0
H229 H 0.74289 0.16227 0.91164 0.0
H230 H 0.77331 0.1335 0.07692 0.0
C231 C 0.91463 0.74394 0.87738 0.0
C232 C 0.91497 0.74691 0.80059 0.0
N233 N 0.90543 0.7343 0.76625 0.0
N234 N 0.90498 0.72952 0.89152 0.0
C235 C 0.89946 0.724 0.82288 0.0
H236 H 0.92112 0.7517 0.92029 0.0
Co237 Co 0.90139 0.72005 0.98705 0.0
C238 C 0.87813 0.68883 0.96018 0.0
O239 O 0.86966 0.69152 0.0239 0.0
N240 N 0.89834 0.71064 0.08491 0.0
C241 C 0.9012 0.69251 0.18279 0.0
C242 C 0.90233 0.69405 0.10557 0.0
C243 C 0.89527 0.71903 0.15115 0.0
N244 N 0.89685 0.70828 0.21159 0.0
O245 O 0.92411 0.70912 0.98168 0.0
H246 H 0.90661 0.68387 0.06709 0.0
H247 H 0.8927 0.73291 0.15569 0.0
O248 O 0.89059 0.69918 0.94113 0.0
C249 C 0.93566 0.71652 0.02305 0.0
O250 O 0.93094 0.72998 0.06489 0.0
N251 N 0.87998 0.73238 0.99266 0.0
C252 C 0.85235 0.75648 0.99977 0.0
C253 C 0.85031 0.74047 0.96163 0.0
C254 C 0.86447 0.72877 0.95692 0.0
C255 C 0.88226 0.74812 0.02791 0.0
C256 C 0.86861 0.76026 0.03287 0.0
H257 H 0.86301 0.71737 0.92157 0.0
H258 H 0.89499 0.75144 0.0509 0.0
H259 H 0.8915 0.71245 0.81424 0.0
H260 H 0.92172 0.75756 0.77248 0.0
H261 H 0.90439 0.68092 0.21538 0.0
H262 H 0.83815 0.73739 0.9328 0.0
H263 H 0.87084 0.77261 0.06177 0.0
C264 C 0.75675 0.58623 0.64228 0.0
C265 C 0.75397 0.58535 0.7191 0.0
N266 N 0.7657 0.5959 0.7536 0.0
N267 N 0.77028 0.59714 0.62821 0.0
C268 C 0.77533 0.603 0.69718 0.0
H269 H 0.74963 0.57904 0.59941 0.0
Co270 Co 0.77986 0.60094 0.5324 0.0
C271 C 0.81161 0.62305 0.56158 0.0
O272 O 0.80901 0.63182 0.49863 0.0
N273 N 0.78948 0.60414 0.43442 0.0
C274 C 0.80776 0.59943 0.33812 0.0
C275 C 0.80596 0.59924 0.4153 0.0
C276 C 0.78147 0.60708 0.36706 0.0
N277 N 0.79232 0.60428 0.30771 0.0
O278 O 0.78971 0.57762 0.53405 0.0
H279 H 0.81577 0.5947 0.45489 0.0
H280 H 0.7676 0.60969 0.36082 0.0
O281 O 0.80109 0.61065 0.57972 0.0
C282 C 0.78028 0.56757 0.49305 0.0
O283 O 0.76645 0.57437 0.45961 0.0
N284 N 0.7684 0.62279 0.52923 0.0
C285 C 0.74477 0.65082 0.5267 0.0
C286 C 0.76072 0.65223 0.56581 0.0
C287 C 0.77219 0.63785 0.56814 0.0
C288 C 0.75282 0.62121 0.49215 0.0
C289 C 0.74089 0.63506 0.4896 0.0
H290 H 0.78352 0.63871 0.60433 0.0
H291 H 0.74934 0.6088 0.46655 0.0
H292 H 0.78622 0.61183 0.70638 0.0
H293 H 0.74421 0.5774 0.74743 0.0
H294 H 0.81929 0.59548 0.30661 0.0
H295 H 0.76385 0.664 0.59739 0.0
H296 H 0.72856 0.63335 0.4599 0.0
C297 C 0.40657 0.75306 0.64735 0.0
C298 C 0.40758 0.75065 0.72442 0.0
N299 N 0.40653 0.76648 0.75827 0.0
N300 N 0.40474 0.77031 0.63268 0.0
C301 C 0.40501 0.77815 0.70117 0.0
H302 H 0.40679 0.74288 0.60471 0.0
Co303 Co 0.40152 0.78024 0.5377 0.0
C304 C 0.37741 0.81041 0.56694 0.0
O305 O 0.36861 0.80663 0.50513 0.0
N306 N 0.39894 0.79031 0.44011 0.0
C307 C 0.40174 0.80954 0.34579 0.0
C308 C 0.40174 0.80738 0.42295 0.0
C309 C 0.39792 0.78233 0.37173 0.0
N310 N 0.39944 0.79371 0.31354 0.0
O311 O 0.4244 0.79073 0.54439 0.0
H312 H 0.40459 0.81753 0.46388 0.0
H313 H 0.39708 0.76836 0.36387 0.0
O314 O 0.39076 0.8011 0.58504 0.0
C315 C 0.43586 0.78301 0.50363 0.0
O316 O 0.43097 0.76944 0.46285 0.0
N317 N 0.37967 0.76847 0.53105 0.0
C318 C 0.35022 0.74668 0.52303 0.0
C319 C 0.35094 0.76034 0.57593 0.0
C320 C 0.3659 0.77098 0.57969 0.0
C321 C 0.37961 0.7543 0.48393 0.0
C322 C 0.36482 0.74362 0.47696 0.0
H323 H 0.36664 0.78064 0.62419 0.0
H324 H 0.39146 0.75061 0.45458 0.0
H325 H 0.40366 0.79211 0.70924 0.0
H326 H 0.40892 0.73818 0.7531 0.0
H327 H 0.40433 0.82165 0.31587 0.0
H328 H 0.34018 0.76256 0.61484 0.0
H329 H 0.36511 0.73254 0.43856 0.0
C330 C 0.24974 0.40876 0.63294 0.0
C331 C 0.25208 0.40978 0.71008 0.0
N332 N 0.23622 0.40851 0.74365 0.0
N333 N 0.23253 0.40669 0.61792 0.0
C334 C 0.22464 0.40684 0.6863 0.0
H335 H 0.25996 0.40917 0.59051 0.0
Co336 Co 0.22256 0.40345 0.52288 0.0
C337 C 0.19299 0.37854 0.55255 0.0
O338 O 0.19665 0.3698 0.49041 0.0
N339 N 0.21241 0.4008 0.42538 0.0
C340 C 0.19301 0.40318 0.33141 0.0
C341 C 0.19525 0.40318 0.40858 0.0
C342 C 0.22033 0.39998 0.35683 0.0
N343 N 0.20886 0.40128 0.29885 0.0
O344 O 0.21142 0.42599 0.53121 0.0
H345 H 0.18507 0.40571 0.44977 0.0
H346 H 0.2343 0.39938 0.34865 0.0
O347 O 0.20217 0.392 0.57022 0.0
C348 C 0.21892 0.43769 0.49111 0.0
O349 O 0.23252 0.43315 0.4498 0.0
N350 N 0.23504 0.38206 0.51438 0.0
C351 C 0.25888 0.35399 0.50421 0.0
C352 C 0.24475 0.35353 0.55547 0.0
C353 C 0.23313 0.36776 0.56036 0.0
C354 C 0.24927 0.38316 0.46809 0.0
C355 C 0.26084 0.36912 0.45967 0.0
H356 H 0.22329 0.36759 0.6042 0.0
H357 H 0.25226 0.39539 0.44029 0.0
H358 H 0.21068 0.40533 0.6941 0.0
H359 H 0.2645 0.4113 0.73899 0.0
H360 H 0.1808 0.40548 0.30173 0.0
H361 H 0.24308 0.34266 0.59415 0.0
H362 H 0.27149 0.37048 0.41966 0.0
C363 C 0.60033 0.25131 0.66407 0.0
C364 C 0.60002 0.25365 0.74122 0.0
N365 N 0.59995 0.23771 0.77427 0.0
N366 N 0.60066 0.23399 0.64855 0.0
C367 C 0.60019 0.22606 0.71673 0.0
H368 H 0.60038 0.26158 0.62195 0.0
Co369 Co 0.60166 0.22395 0.55283 0.0
C370 C 0.62365 0.19174 0.57365 0.0
O371 O 0.63104 0.19411 0.50727 0.0
N372 N 0.602 0.21394 0.45544 0.0
C373 C 0.59639 0.19531 0.36132 0.0
C374 C 0.5966 0.1975 0.43844 0.0
C375 C 0.60447 0.22161 0.3873 0.0
N376 N 0.60127 0.21055 0.3292 0.0
O377 O 0.57841 0.21478 0.56625 0.0
H378 H 0.59246 0.18787 0.47962 0.0
H379 H 0.60797 0.23519 0.37963 0.0
O380 O 0.61196 0.20257 0.59671 0.0
C381 C 0.56726 0.22622 0.54494 0.0
O382 O 0.57316 0.24141 0.52047 0.0
N383 N 0.62382 0.23462 0.53867 0.0
C384 C 0.65329 0.25626 0.52011 0.0
C385 C 0.65422 0.24093 0.56402 0.0
C386 C 0.63924 0.23052 0.57417 0.0
C387 C 0.62252 0.24987 0.49891 0.0
C388 C 0.63704 0.26071 0.48806 0.0
H389 H 0.64003 0.21973 0.61326 0.0
H390 H 0.60986 0.25402 0.4779 0.0
H391 H 0.60024 0.212 0.72416 0.0
H392 H 0.5997 0.26611 0.77056 0.0
H393 H 0.59214 0.18369 0.33127 0.0
H394 H 0.66632 0.23711 0.59157 0.0
H395 H 0.63529 0.27285 0.45717 0.0
C396 C 0.75147 0.40393 0.35137 0.0
C397 C 0.74907 0.40427 0.27427 0.0
N398 N 0.76498 0.40395 0.2409 0.0
N399 N 0.7688 0.40319 0.36654 0.0
C400 C 0.77668 0.40345 0.29819 0.0
H401 H 0.74123 0.40411 0.39371 0.0
Co402 Co 0.77883 0.40184 0.46221 0.0
C403 C 0.81111 0.37995 0.43987 0.0
O404 O 0.80876 0.37233 0.50574 0.0
N405 N 0.7888 0.40115 0.55954 0.0
C406 C 0.80736 0.4065 0.6541 0.0
C407 C 0.80523 0.40647 0.57696 0.0
C408 C 0.78105 0.39854 0.62747 0.0
N409 N 0.79207 0.40159 0.68583 0.0
O410 O 0.78803 0.42511 0.45036 0.0
H411 H 0.81491 0.41071 0.5361 0.0
H412 H 0.76744 0.39508 0.63477 0.0
O413 O 0.80024 0.39168 0.41764 0.0
C414 C 0.77663 0.43621 0.47258 0.0
O415 O 0.76146 0.43027 0.49712 0.0
N416 N 0.7681 0.37967 0.47477 0.0
C417 C 0.74577 0.35066 0.48616 0.0
C418 C 0.76147 0.34955 0.44506 0.0
C419 C 0.77223 0.36438 0.43818 0.0
C420 C 0.75268 0.38096 0.51351 0.0
C421 C 0.74143 0.36662 0.52061 0.0
H422 H 0.78319 0.36365 0.3999 0.0
H423 H 0.74865 0.39352 0.53606 0.0
H424 H 0.79072 0.40303 0.29039 0.0
H425 H 0.73659 0.40486 0.24518 0.0
H426 H 0.81896 0.41069 0.68447 0.0
H427 H 0.76489 0.33763 0.41503 0.0
H428 H 0.72922 0.36814 0.55134 0.0
C429 C 0.59471 0.75242 0.37796 0.0
C430 C 0.59413 0.74992 0.30087 0.0
N431 N 0.59648 0.76559 0.26702 0.0
N432 N 0.59759 0.76954 0.3926 0.0
C433 C 0.59841 0.77724 0.32397 0.0
H434 H 0.59332 0.74237 0.4207 0.0
Co435 Co 0.60035 0.77934 0.48802 0.0
C436 C 0.62413 0.8101 0.46379 0.0
O437 O 0.63222 0.80687 0.52792 0.0
N438 N 0.60254 0.78917 0.58569 0.0
C439 C 0.59912 0.80793 0.68127 0.0
C440 C 0.59864 0.80595 0.60409 0.0
C441 C 0.60481 0.78113 0.6532 0.0
N442 N 0.6029 0.79225 0.71214 0.0
O443 O 0.5776 0.79005 0.47919 0.0
H444 H 0.59491 0.81599 0.56396 0.0
H445 H 0.60705 0.76725 0.65984 0.0
O446 O 0.61149 0.80018 0.44269 0.0
C447 C 0.56597 0.78239 0.51918 0.0
O448 O 0.57067 0.76882 0.56026 0.0
N449 N 0.6219 0.76725 0.49707 0.0
C450 C 0.64996 0.74367 0.50641 0.0
C451 C 0.65146 0.75911 0.46391 0.0
C452 C 0.63708 0.77049 0.45806 0.0
C453 C 0.62013 0.75199 0.53648 0.0
C454 C 0.63401 0.74013 0.54268 0.0
H455 H 0.63803 0.78128 0.41901 0.0
H456 H 0.60755 0.74862 0.56073 0.0
H457 H 0.60072 0.79107 0.31563 0.0
H458 H 0.59207 0.73755 0.2721 0.0
H459 H 0.59592 0.81976 0.71234 0.0
H460 H 0.66333 0.7619 0.43235 0.0
H461 H 0.63216 0.72813 0.57447 0.0
C462 C 0.2472 0.58872 0.36797 0.0
C463 C 0.25001 0.58805 0.29103 0.0
N464 N 0.23712 0.59715 0.25651 0.0
N465 N 0.23259 0.59813 0.3819 0.0
C466 C 0.2268 0.60315 0.31302 0.0
H467 H 0.25518 0.58259 0.4111 0.0
Co468 Co 0.22302 0.60196 0.4772 0.0
C469 C 0.19241 0.62561 0.44865 0.0
O470 O 0.19593 0.63453 0.51045 0.0
N471 N 0.21338 0.60514 0.57511 0.0
C472 C 0.19473 0.60247 0.67161 0.0
C473 C 0.19653 0.60177 0.59436 0.0
C474 C 0.2216 0.60735 0.64236 0.0
N475 N 0.21057 0.60588 0.7019 0.0
O476 O 0.21229 0.57914 0.47301 0.0
H477 H 0.18634 0.59808 0.55489 0.0
H478 H 0.23554 0.6091 0.64852 0.0
O479 O 0.20204 0.61248 0.43067 0.0
C480 C 0.21959 0.56765 0.51488 0.0
O481 O 0.23304 0.57238 0.55672 0.0
N482 N 0.23502 0.62366 0.48124 0.0
C483 C 0.25711 0.65285 0.48882 0.0
C484 C 0.24276 0.6527 0.43937 0.0
C485 C 0.23194 0.63786 0.43579 0.0
C486 C 0.24979 0.62318 0.52467 0.0
C487 C 0.26068 0.63782 0.5314 0.0
H488 H 0.22163 0.63768 0.39412 0.0
H489 H 0.2535 0.61111 0.55241 0.0
H490 H 0.21506 0.61077 0.30405 0.0
H491 H 0.26073 0.58139 0.26291 0.0
H492 H 0.18289 0.59959 0.70308 0.0
H493 H 0.24007 0.66385 0.40323 0.0
H494 H 0.27219 0.63717 0.5673 0.0
C495 C 0.40883 0.25005 0.3788 0.0
C496 C 0.40993 0.25247 0.30174 0.0
N497 N 0.40832 0.2367 0.26774 0.0
N498 N 0.4064 0.23287 0.39336 0.0
C499 C 0.40637 0.22507 0.32474 0.0
H500 H 0.4094 0.2602 0.42152 0.0
Co501 Co 0.40269 0.22301 0.48838 0.0
C502 C 0.3785 0.19308 0.45634 0.0
O503 O 0.36925 0.19698 0.51681 0.0
N504 N 0.39959 0.21301 0.58592 0.0
C505 C 0.40181 0.19374 0.68042 0.0
C506 C 0.40193 0.19588 0.60323 0.0
C507 C 0.39873 0.22103 0.65427 0.0
N508 N 0.39991 0.20963 0.71255 0.0
O509 O 0.42569 0.21266 0.48489 0.0
H510 H 0.40463 0.18564 0.56248 0.0
H511 H 0.39826 0.23502 0.66212 0.0
O512 O 0.3921 0.20221 0.44022 0.0
C513 C 0.43593 0.22265 0.52236 0.0
O514 O 0.4293 0.23704 0.55197 0.0
N515 N 0.38096 0.23497 0.49316 0.0
C516 C 0.35289 0.25888 0.49734 0.0
C517 C 0.35285 0.24463 0.44663 0.0
C518 C 0.36711 0.23296 0.44473 0.0
C519 C 0.38158 0.24922 0.53949 0.0
C520 C 0.36752 0.26082 0.5449 0.0
H521 H 0.36737 0.22305 0.40118 0.0
H522 H 0.39353 0.2523 0.56924 0.0
H523 H 0.40446 0.21119 0.31644 0.0
H524 H 0.4117 0.26489 0.27315 0.0
H525 H 0.4041 0.18158 0.71044 0.0
H526 H 0.34234 0.24294 0.40609 0.0
H527 H 0.3685 0.27154 0.58479 0.0
H528 H 0.31656 0.11209 0.68909 0.0
H529 H 0.26395 0.09486 0.7417 0.0
H530 H 0.30979 0.11051 0.5545 0.0
H531 H 0.25719 0.09323 0.60748 0.0
H532 H 0.24599 0.11018 0.36358 0.0
H533 H 0.25263 0.11162 0.49798 0.0
H534 H 0.30386 0.08937 0.45544 0.0
H535 H 0.29723 0.08795 0.32097 0.0
C536 C 0.30358 0.10787 0.672 0.0
C537 C 0.29081 0.10367 0.72644 0.0
C538 C 0.2997 0.10693 0.59478 0.0
C539 C 0.28294 0.10173 0.56998 0.0
C540 C 0.27015 0.09756 0.62446 0.0
C541 C 0.27403 0.09852 0.70164 0.0
C542 C 0.25859 0.10539 0.3828 0.0
C543 C 0.27106 0.09895 0.33104 0.0
C544 C 0.26241 0.10624 0.46007 0.0
C545 C 0.2788 0.10065 0.48771 0.0
C546 C 0.29122 0.09408 0.43607 0.0
C547 C 0.2874 0.09323 0.3588 0.0
H548 H 0.89574 0.31639 0.69281 0.0
H549 H 0.91361 0.26385 0.7426 0.0
H550 H 0.89676 0.30977 0.55788 0.0
H551 H 0.91465 0.25725 0.60822 0.0
H552 H 0.89617 0.2459 0.36713 0.0
H553 H 0.8953 0.2527 0.50148 0.0
H554 H 0.91748 0.30381 0.45641 0.0
H555 H 0.91834 0.29701 0.32193 0.0
C556 C 0.9 0.30348 0.67502 0.0
C557 C 0.90449 0.29065 0.72874 0.0
C558 C 0.9006 0.29968 0.59766 0.0
C559 C 0.90575 0.28295 0.57212 0.0
C560 C 0.91032 0.27016 0.62586 0.0
C561 C 0.9097 0.27395 0.70311 0.0
C562 C 0.90105 0.25851 0.38578 0.0
C563 C 0.90734 0.27088 0.33339 0.0
C564 C 0.90053 0.26243 0.46297 0.0
C565 C 0.90631 0.27881 0.48986 0.0
C566 C 0.91266 0.29117 0.43757 0.0
C567 C 0.91317 0.28725 0.36034 0.0
H568 H 0.71025 0.91599 0.35604 0.0
H569 H 0.75931 0.88934 0.39832 0.0
H570 H 0.70364 0.91542 0.49075 0.0
H571 H 0.75268 0.88862 0.53287 0.0
H572 H 0.74374 0.90767 0.77506 0.0
H573 H 0.75024 0.90784 0.64041 0.0
H574 H 0.69603 0.89549 0.59168 0.0
H575 H 0.68953 0.89549 0.7267 0.0
C576 C 0.71956 0.90988 0.39395 0.0
C577 C 0.73534 0.90276 0.36631 0.0
C578 C 0.71576 0.90952 0.47125 0.0
C579 C 0.72763 0.90197 0.52275 0.0
C580 C 0.74338 0.8948 0.49501 0.0
C581 C 0.7472 0.89522 0.41779 0.0
C582 C 0.73325 0.90478 0.73575 0.0
C583 C 0.71611 0.90153 0.76169 0.0
C584 C 0.73697 0.90489 0.65842 0.0
C585 C 0.72366 0.90168 0.6051 0.0
C586 C 0.70654 0.8983 0.6311 0.0
C587 C 0.70281 0.89826 0.70847 0.0
H588 H 0.1043 0.758 0.36206 0.0
H589 H 0.08628 0.7052 0.3183 0.0
H590 H 0.10619 0.75137 0.49635 0.0
H591 H 0.08815 0.69858 0.45267 0.0
H592 H 0.11152 0.68765 0.68703 0.0
H593 H 0.10954 0.69427 0.55237 0.0
H594 H 0.08803 0.7453 0.60519 0.0
H595 H 0.09005 0.7387 0.73935 0.0
C596 C 0.10053 0.74504 0.38101 0.0
C597 C 0.09513 0.73216 0.32897 0.0
C598 C 0.10164 0.74122 0.45821 0.0
C599 C 0.09736 0.72442 0.48551 0.0
C600 C 0.09184 0.71157 0.43357 0.0
C601 C 0.09074 0.71538 0.35636 0.0
C602 C 0.10629 0.70024 0.66987 0.0
C603 C 0.10104 0.71265 0.72426 0.0
C604 C 0.10512 0.70404 0.59262 0.0
C605 C 0.09864 0.72034 0.56777 0.0
C606 C 0.09338 0.73274 0.6222 0.0
C607 C 0.09456 0.72895 0.69936 0.0
H608 H 0.31574 0.90076 0.31632 0.0
H609 H 0.26032 0.90452 0.2657 0.0
H610 H 0.30913 0.9022 0.45045 0.0
H611 H 0.25371 0.90479 0.3994 0.0
H612 H 0.24854 0.92418 0.64184 0.0
H613 H 0.25532 0.92306 0.50721 0.0
H614 H 0.29707 0.88603 0.55213 0.0
H615 H 0.29052 0.88759 0.68664 0.0
C616 C 0.30215 0.90183 0.3334 0.0
C617 C 0.28863 0.90257 0.27927 0.0
C618 C 0.29833 0.90242 0.41069 0.0
C619 C 0.28086 0.90363 0.43611 0.0
C620 C 0.26734 0.90414 0.38212 0.0
C621 C 0.27116 0.9037 0.3049 0.0
C622 C 0.2591 0.91576 0.62273 0.0
C623 C 0.26902 0.90604 0.67483 0.0
C624 C 0.26298 0.91505 0.54552 0.0
C625 C 0.27676 0.90443 0.51846 0.0
C626 C 0.28659 0.89461 0.5708 0.0
C627 C 0.28281 0.89546 0.64801 0.0
H628 H 0.12472 0.28424 0.6854 0.0
H629 H 0.0773 0.25485 0.64137 0.0
H630 H 0.12784 0.29007 0.55081 0.0
H631 H 0.08045 0.26067 0.50679 0.0
H632 H 0.09941 0.2612 0.26336 0.0
H633 H 0.09845 0.25401 0.39732 0.0
H634 H 0.11367 0.30713 0.45234 0.0
H635 H 0.11528 0.31413 0.31811 0.0
C636 C 0.1149 0.27907 0.64723 0.0
C637 C 0.1007 0.26911 0.67464 0.0
C638 C 0.11671 0.28243 0.56989 0.0
C639 C 0.10438 0.27589 0.51785 0.0
C640 C 0.09034 0.2657 0.54508 0.0
C641 C 0.08853 0.26236 0.62243 0.0
C642 C 0.10285 0.27129 0.30379 0.0
C643 C 0.10744 0.28827 0.2797 0.0
C644 C 0.10208 0.26721 0.38082 0.0
C645 C 0.10591 0.28 0.43576 0.0
C646 C 0.1108 0.2969 0.41165 0.0
C647 C 0.11154 0.30098 0.33463 0.0
H648 H 0.71206 0.11487 0.68491 0.0
H649 H 0.75606 0.08075 0.63976 0.0
H650 H 0.70541 0.11603 0.55036 0.0
H651 H 0.74918 0.08139 0.50522 0.0
H652 H 0.74356 0.09983 0.26452 0.0
H653 H 0.74995 0.09978 0.39824 0.0
H654 H 0.69439 0.09944 0.4479 0.0
H655 H 0.68792 0.10071 0.31371 0.0
C656 C 0.72018 0.10744 0.64616 0.0
C657 C 0.73459 0.09772 0.67277 0.0
C658 C 0.71635 0.10805 0.56897 0.0
C659 C 0.72675 0.09881 0.51659 0.0
C660 C 0.74108 0.08896 0.54356 0.0
C661 C 0.74502 0.08853 0.62068 0.0
C662 C 0.73262 0.10005 0.30336 0.0
C663 C 0.71515 0.10032 0.27729 0.0
C664 C 0.73633 0.09973 0.38063 0.0
C665 C 0.72271 0.09948 0.43424 0.0
C666 C 0.70525 0.09981 0.40842 0.0
C667 C 0.70152 0.10032 0.33107 0.0
H668 H 0.87892 0.71654 0.697 0.0
H669 H 0.92621 0.74609 0.65219 0.0
H670 H 0.87549 0.71104 0.56221 0.0
H671 H 0.92272 0.74064 0.51759 0.0
H672 H 0.90383 0.74012 0.27447 0.0
H673 H 0.90443 0.74739 0.40863 0.0
H674 H 0.8898 0.69411 0.46314 0.0
H675 H 0.88861 0.68702 0.32892 0.0
C676 C 0.88863 0.72183 0.65866 0.0
C677 C 0.9029 0.73172 0.68597 0.0
C678 C 0.88665 0.71868 0.5812 0.0
C679 C 0.89884 0.72537 0.52895 0.0
C680 C 0.91292 0.73551 0.55606 0.0
C681 C 0.91493 0.73864 0.63349 0.0
C682 C 0.90043 0.73003 0.31488 0.0
C683 C 0.89621 0.71295 0.29072 0.0
C684 C 0.90099 0.73415 0.39197 0.0
C685 C 0.89726 0.72131 0.4468 0.0
C686 C 0.8926 0.70436 0.42254 0.0
C687 C 0.8921 0.70024 0.34553 0.0
H688 H 0.77126 0.62667 0.2305 0.0
H689 H 0.80301 0.58013 0.20605 0.0
H690 H 0.76407 0.62548 0.0948 0.0
H691 H 0.79571 0.57878 0.07182 0.0
H692 H 0.76111 0.57104 0.86074 0.0
H693 H 0.76678 0.57371 0.99613 0.0
H694 H 0.78229 0.62768 0.96501 0.0
H695 H 0.77673 0.62496 0.82868 0.0
C696 C 0.77662 0.61619 0.19615 0.0
C697 C 0.78776 0.60357 0.22861 0.0
C698 C 0.77261 0.61556 0.11869 0.0
C699 C 0.77934 0.60202 0.07287 0.0
C700 C 0.79028 0.58931 0.10576 0.0
C701 C 0.79455 0.59015 0.18247 0.0
C702 C 0.76554 0.58353 0.88277 0.0
C703 C 0.76846 0.5978 0.83397 0.0
C704 C 0.7689 0.58502 0.96021 0.0
C705 C 0.77497 0.6009 0.99107 0.0
C706 C 0.77751 0.61532 0.94276 0.0
C707 C 0.77446 0.61373 0.86482 0.0
H708 H 0.39059 0.81492 0.19675 0.0
H709 H 0.41043 0.76324 0.2489 0.0
H710 H 0.39246 0.80826 0.0621 0.0
H711 H 0.41236 0.75659 0.11464 0.0
H712 H 0.39609 0.74457 0.87065 0.0
H713 H 0.39426 0.75112 1.00511 0.0
H714 H 0.41383 0.80342 0.96302 0.0
H715 H 0.41562 0.79688 0.8285 0.0
C716 C 0.39544 0.80218 0.17953 0.0
C717 C 0.40029 0.78962 0.23385 0.0
C718 C 0.39655 0.79836 0.10229 0.0
C719 C 0.40257 0.78188 0.07735 0.0
C720 C 0.40739 0.76931 0.13172 0.0
C721 C 0.40625 0.77312 0.20892 0.0
C722 C 0.4002 0.7574 0.89002 0.0
C723 C 0.406 0.77018 0.8384 0.0
C724 C 0.39913 0.76117 0.96729 0.0
C725 C 0.40385 0.77782 0.99507 0.0
C726 C 0.40979 0.79056 0.94355 0.0
C727 C 0.41084 0.78679 0.86627 0.0
H728 H 0.23908 0.4129 0.23412 0.0
H729 H 0.18777 0.39206 0.18199 0.0
H730 H 0.24571 0.41484 0.09993 0.0
H731 H 0.19442 0.39395 0.04731 0.0
H732 H 0.20557 0.41706 0.81326 0.0
H733 H 0.19894 0.41524 0.94766 0.0
H734 H 0.25158 0.39669 0.99093 0.0
H735 H 0.25822 0.39854 0.8566 0.0
C736 C 0.22927 0.4085 0.19416 0.0
C737 C 0.21289 0.40223 0.21911 0.0
C738 C 0.23308 0.40965 0.11698 0.0
C739 C 0.22062 0.40454 0.06259 0.0
C740 C 0.20423 0.39825 0.08751 0.0
C741 C 0.20042 0.39713 0.16478 0.0
C742 C 0.21572 0.41249 0.85125 0.0
C743 C 0.23245 0.40795 0.82373 0.0
C744 C 0.21189 0.41143 0.92848 0.0
C745 C 0.2247 0.40579 0.98031 0.0
C746 C 0.24147 0.40134 0.95288 0.0
C747 C 0.24529 0.40242 0.87566 0.0
H748 H 0.59519 0.24213 0.26338 0.0
H749 H 0.60781 0.18807 0.21406 0.0
H750 H 0.59491 0.24871 0.12881 0.0
H751 H 0.60771 0.19465 0.07917 0.0
H752 H 0.58723 0.20864 0.8437 0.0
H753 H 0.5878 0.20207 0.97838 0.0
H754 H 0.61392 0.25145 0.02095 0.0
H755 H 0.61318 0.25805 0.88635 0.0
C756 C 0.59815 0.23169 0.22388 0.0
C757 C 0.60155 0.21456 0.24954 0.0
C758 C 0.59798 0.23546 0.14659 0.0
C759 C 0.60128 0.22222 0.093 0.0
C760 C 0.60482 0.20511 0.11875 0.0
C761 C 0.60491 0.20133 0.19607 0.0
C762 C 0.59319 0.21804 0.8817 0.0
C763 C 0.60013 0.23389 0.85413 0.0
C764 C 0.59355 0.21426 0.959 0.0
C765 C 0.60092 0.22622 0.01065 0.0
C766 C 0.60788 0.24206 0.98301 0.0
C767 C 0.60745 0.24586 0.90575 0.0
H768 H 0.7443 0.39097 0.12943 0.0
H769 H 0.79423 0.41604 0.17074 0.0
H770 H 0.75083 0.38987 0.99475 0.0
H771 H 0.80072 0.41513 0.03601 0.0
H772 H 0.8144 0.39472 0.80099 0.0
H773 H 0.80778 0.39501 0.93585 0.0
H774 H 0.75388 0.40846 0.88606 0.0
H775 H 0.7605 0.40796 0.75146 0.0
C776 C 0.75659 0.39643 0.10971 0.0
C777 C 0.76873 0.4036 0.16097 0.0
C778 C 0.76035 0.3958 0.0324 0.0
C779 C 0.77632 0.4024 1.00437 0.0
C780 C 0.78843 0.40964 0.05568 0.0
C781 C 0.78469 0.4102 0.13301 0.0
C782 C 0.80116 0.39778 0.81895 0.0
C783 C 0.78799 0.40128 0.76543 0.0
C784 C 0.79736 0.39799 0.89626 0.0
C785 C 0.7803 0.40181 0.92198 0.0
C786 C 0.7671 0.4052 0.86833 0.0
C787 C 0.77089 0.4049 0.79102 0.0
H788 H 0.60715 0.74337 0.15635 0.0
H789 H 0.58803 0.79594 0.19593 0.0
H790 H 0.60944 0.74962 0.02164 0.0
H791 H 0.59007 0.80216 0.06129 0.0
H792 H 0.61213 0.81353 0.82785 0.0
H793 H 0.61099 0.80687 0.96255 0.0
H794 H 0.592 0.75475 0.91125 0.0
H795 H 0.59343 0.76138 0.77675 0.0
C796 C 0.60324 0.7562 0.13621 0.0
C797 C 0.59742 0.76915 0.18702 0.0
C798 C 0.60455 0.7598 0.05889 0.0
C799 C 0.59998 0.77642 0.03039 0.0
C800 C 0.59404 0.78932 0.08127 0.0
C801 C 0.59282 0.78575 0.15857 0.0
C802 C 0.60771 0.80066 0.84547 0.0
C803 C 0.60289 0.788 0.79158 0.0
C804 C 0.60699 0.79685 0.92269 0.0
C805 C 0.60131 0.78029 0.948 0.0
C806 C 0.59668 0.76755 0.89393 0.0
C807 C 0.59751 0.77134 0.81668 0.0
H808 H 0.24842 0.57583 0.14342 0.0
H809 H 0.2193 0.62346 0.1867 0.0
H810 H 0.24252 0.57881 0.00881 0.0
H811 H 0.2134 0.62643 0.05209 0.0
H812 H 0.18926 0.61396 0.81962 0.0
H813 H 0.19624 0.61233 0.95387 0.0
H814 H 0.24923 0.59658 0.89905 0.0
H815 H 0.24206 0.59754 0.76513 0.0
C816 C 0.24096 0.58706 0.12429 0.0
C817 C 0.23429 0.59935 0.17628 0.0
C818 C 0.23756 0.58878 0.04693 0.0
C819 C 0.22743 0.60284 0.0195 0.0
C820 C 0.22099 0.61528 0.07133 0.0
C821 C 0.22439 0.61356 0.14866 0.0
C822 C 0.20238 0.61008 0.83618 0.0
C823 C 0.21505 0.60586 0.78129 0.0
C824 C 0.20645 0.60933 0.91321 0.0
C825 C 0.22331 0.6043 0.9374 0.0
C826 C 0.23606 0.60031 0.88251 0.0
C827 C 0.23199 0.60109 0.80548 0.0
H828 H 0.41624 0.20599 0.19731 0.0
H829 H 0.39864 0.259 0.15547 0.0
H830 H 0.41409 0.19952 0.06287 0.0
H831 H 0.39644 0.25252 0.02104 0.0
H832 H 0.41191 0.23976 0.77686 0.0
H833 H 0.41414 0.24638 0.91105 0.0
H834 H 0.39255 0.19542 0.96418 0.0
H835 H 0.3904 0.18878 0.82958 0.0
C836 C 0.41181 0.21625 0.15963 0.0
C837 C 0.40761 0.23303 0.18758 0.0
C838 C 0.41055 0.21252 0.08237 0.0
C839 C 0.40504 0.22547 0.03093 0.0
C840 C 0.40097 0.24229 0.05878 0.0
C841 C 0.40226 0.24603 0.13604 0.0
C842 C 0.40742 0.23003 0.81696 0.0
C843 C 0.4009 0.21373 0.79221 0.0
C844 C 0.40873 0.23383 0.89413 0.0
C845 C 0.40354 0.22145 0.94865 0.0
C846 C 0.39694 0.20517 0.92388 0.0
C847 C 0.39567 0.20136 0.84667 0.0
H848 H 0.32047 0.11294 0.20243 0.0
H849 H 0.33441 0.15397 0.04506 0.0
H850 H 0.33838 0.12696 0.29946 0.0
H851 H 0.35241 0.16785 0.14183 0.0
H852 H 0.34874 0.17322 0.46874 0.0
H853 H 0.33532 0.15465 0.37276 0.0
H854 H 0.37891 0.16474 0.2229 0.0
H855 H 0.39248 0.18321 0.31928 0.0
C856 C 0.32743 0.12485 0.18817 0.0
C857 C 0.32569 0.13247 0.11616 0.0
C858 C 0.33771 0.13289 0.24392 0.0
C859 C 0.3467 0.14862 0.22864 0.0
C860 C 0.34575 0.15569 0.1554 0.0
C861 C 0.33534 0.14775 0.09994 0.0
C862 C 0.35563 0.17132 0.4158 0.0
C863 C 0.37157 0.18002 0.40142 0.0
C864 C 0.34795 0.16058 0.36082 0.0
C865 C 0.35597 0.15833 0.28988 0.0
C866 C 0.37227 0.16642 0.27657 0.0
C867 C 0.38004 0.17703 0.3319 0.0
H868 H 0.83274 0.35172 0.46095 0.0
H869 H 0.81922 0.39144 0.29683 0.0
H870 H 0.8513 0.33728 0.36784 0.0
H871 H 0.83787 0.37699 0.20362 0.0
H872 H 0.89227 0.32046 0.1982 0.0
H873 H 0.87787 0.33929 0.29093 0.0
H874 H 0.83619 0.34967 0.13159 0.0
H875 H 0.8506 0.33096 0.03889 0.0
C876 C 0.8339 0.35755 0.40535 0.0
C877 C 0.8242 0.37261 0.38615 0.0
C878 C 0.84464 0.34928 0.35195 0.0
C879 C 0.84597 0.35587 0.27793 0.0
C880 C 0.8369 0.37139 0.25972 0.0
C881 C 0.82621 0.3797 0.31327 0.0
C882 C 0.88011 0.32684 0.18267 0.0
C883 C 0.8725 0.32397 0.1113 0.0
C884 C 0.87182 0.33762 0.23598 0.0
C885 C 0.85579 0.3459 0.21901 0.0
C886 C 0.8486 0.34364 0.14644 0.0
C887 C 0.85684 0.33281 0.0933 0.0
H888 H 0.65352 0.83014 0.48355 0.0
H889 H 0.61191 0.81981 0.32365 0.0
H890 H 0.66798 0.84889 0.39147 0.0
H891 H 0.62642 0.83866 0.23135 0.0
H892 H 0.67184 0.85127 0.06253 0.0
H893 H 0.65308 0.83675 0.15468 0.0
H894 H 0.66634 0.87624 0.32044 0.0
H895 H 0.6852 0.89072 0.22833 0.0
C896 C 0.64731 0.83203 0.42911 0.0
C897 C 0.63167 0.82319 0.41072 0.0
C898 C 0.65558 0.84288 0.37632 0.0
C899 C 0.64844 0.84519 0.30372 0.0
C900 C 0.63242 0.83694 0.28633 0.0
C901 C 0.62409 0.82613 0.33934 0.0
C902 C 0.6706 0.85702 0.11827 0.0
C903 C 0.6803 0.87203 0.13827 0.0
C904 C 0.65975 0.84872 0.1711 0.0
C905 C 0.65832 0.85522 0.24527 0.0
C906 C 0.66738 0.8707 0.26422 0.0
C907 C 0.6782 0.87903 0.21129 0.0
H908 H 0.17141 0.65446 0.46496 0.0
H909 H 0.18405 0.61291 0.30759 0.0
H910 H 0.15319 0.66844 0.36933 0.0
H911 H 0.16595 0.6271 0.21151 0.0
H912 H 0.15488 0.67337 0.04247 0.0
H913 H 0.16888 0.65489 0.13731 0.0
H914 H 0.12613 0.66508 0.29151 0.0
H915 H 0.112 0.68344 0.19649 0.0
C916 C 0.17016 0.64817 0.4103 0.0
C917 C 0.17949 0.6327 0.3937 0.0
C918 C 0.15963 0.65617 0.3555 0.0
C919 C 0.15825 0.64897 0.28258 0.0
C920 C 0.16697 0.63311 0.26685 0.0
C921 C 0.17735 0.62498 0.322 0.0
C922 C 0.14831 0.67152 0.09618 0.0
C923 C 0.13243 0.68019 0.11215 0.0
C924 C 0.15632 0.66083 0.15046 0.0
C925 C 0.14869 0.65864 0.22219 0.0
C926 C 0.13246 0.66673 0.23715 0.0
C927 C 0.12437 0.67727 0.18259 0.0
H928 H 0.34843 0.83113 0.54869 0.0
H929 H 0.38984 0.81943 0.70774 0.0
H930 H 0.33437 0.84991 0.64219 0.0
H931 H 0.37568 0.83821 0.80146 0.0
H932 H 0.3189 0.89204 0.80962 0.0
H933 H 0.33722 0.87728 0.7161 0.0
H934 H 0.34841 0.8362 0.877 0.0
H935 H 0.33 0.85084 0.97029 0.0
C936 C 0.35468 0.8327 0.60326 0.0
C937 C 0.37016 0.82351 0.62089 0.0
C938 C 0.34663 0.84357 0.65682 0.0
C939 C 0.35382 0.84546 0.72956 0.0
C940 C 0.36967 0.83682 0.7463 0.0
C941 C 0.3778 0.82606 0.69244 0.0
C942 C 0.32528 0.87991 0.82527 0.0
C943 C 0.32266 0.87249 0.8972 0.0
C944 C 0.33581 0.87144 0.77156 0.0
C945 C 0.34416 0.85548 0.7888 0.0
C946 C 0.34227 0.84854 0.86196 0.0
C947 C 0.33163 0.85692 0.91543 0.0
H948 H 0.1548 0.33276 0.96158 0.0
H949 H 0.11329 0.31944 0.80522 0.0
H950 H 0.16856 0.35093 0.86521 0.0
H951 H 0.12725 0.33751 0.70839 0.0
H952 H 0.17329 0.34869 0.53816 0.0
H953 H 0.1549 0.33477 0.6336 0.0
H954 H 0.1651 0.37773 0.78673 0.0
H955 H 0.18337 0.39176 0.69111 0.0
C956 C 0.14847 0.33385 0.90698 0.0
C957 C 0.13308 0.32435 0.8909 0.0
C958 C 0.15634 0.34435 0.85175 0.0
C959 C 0.14909 0.34554 0.77888 0.0
C960 C 0.1333 0.33665 0.76367 0.0
C961 C 0.12531 0.32629 0.81925 0.0
C962 C 0.17145 0.35532 0.59175 0.0
C963 C 0.18011 0.37123 0.60726 0.0
C964 C 0.16082 0.34736 0.6464 0.0
C965 C 0.15866 0.35507 0.71804 0.0
C966 C 0.16672 0.37133 0.73248 0.0
C967 C 0.17722 0.37937 0.67757 0.0
H968 H 0.68451 0.11105 0.81078 0.0
H969 H 0.6738 0.15232 0.97196 0.0
H970 H 0.66537 0.12537 0.71925 0.0
H971 H 0.65479 0.16667 0.88042 0.0
H972 H 0.61267 0.18363 0.71739 0.0
H973 H 0.62748 0.16502 0.80954 0.0
H974 H 0.66679 0.15184 0.64284 0.0
H975 H 0.65195 0.17029 0.55073 0.0
C976 C 0.67804 0.12311 0.82694 0.0
C977 C 0.68093 0.13063 0.8985 0.0
C978 C 0.66707 0.13135 0.77432 0.0
C979 C 0.65863 0.14726 0.79216 0.0
C980 C 0.66093 0.15435 0.86491 0.0
C981 C 0.67193 0.14615 0.91739 0.0
C982 C 0.62439 0.17668 0.70017 0.0
C983 C 0.63123 0.17871 0.62685 0.0
C984 C 0.63292 0.16603 0.75314 0.0
C985 C 0.64844 0.15705 0.73392 0.0
C986 C 0.65479 0.15842 0.65952 0.0
C987 C 0.6463 0.1691 0.60667 0.0
H988 H 0.81877 0.61021 0.70336 0.0
H989 H 0.83361 0.65118 0.54715 0.0
H990 H 0.83707 0.62366 0.80065 0.0
H991 H 0.8517 0.66467 0.64436 0.0
H992 H 0.84893 0.66821 0.97381 0.0
H993 H 0.83522 0.65013 0.87705 0.0
H994 H 0.87764 0.66216 0.72348 0.0
H995 H 0.89134 0.6804 0.82031 0.0
C996 C 0.82603 0.62199 0.68947 0.0
C997 C 0.82451 0.62973 0.61762 0.0
C998 C 0.83648 0.62974 0.7454 0.0
C999 C 0.84575 0.64534 0.73064 0.0
C1000 C 0.84489 0.65257 0.65763 0.0
C1001 C 0.83441 0.64487 0.60186 0.0
C1002 C 0.85549 0.66683 0.91982 0.0
C1003 C 0.87111 0.67601 0.90459 0.0
C1004 C 0.84765 0.65636 0.86432 0.0
C1005 C 0.85524 0.65479 0.79215 0.0
C1006 C 0.87129 0.66333 0.77803 0.0
C1007 C 0.87916 0.67377 0.83366 0.0
H1008 H 0.30475 0.04851 0.07217 0.0
H1009 H 0.26211 0.04682 0.91117 0.0
H1010 H 0.30674 0.01622 0.06703 0.0
H1011 H 0.26413 0.01509 0.90653 0.0
H1012 H 0.25329 0.96253 0.02003 0.0
H1013 H 0.25666 0.99413 0.01898 0.0
H1014 H 0.31161 0.98852 0.96483 0.0
H1015 H 0.30825 0.95628 0.96529 0.0
C1016 C 0.29601 0.04133 0.03508 0.0
C1017 C 0.28307 0.05023 0.99316 0.0
C1018 C 0.29721 0.0229 0.03189 0.0
C1019 C 0.28545 0.0132 0.98695 0.0
C1020 C 0.27321 0.02222 0.94233 0.0
C1021 C 0.27205 0.04045 0.94529 0.0
C1022 C 0.26616 0.96788 1.00798 0.0
C1023 C 0.28049 0.95683 0.99228 0.0
C1024 C 0.26806 0.98605 1.00727 0.0
C1025 C 0.28436 0.99377 0.99145 0.0
C1026 C 0.2989 0.98285 0.97735 0.0
C1027 C 0.29695 0.96447 0.97712 0.0
H1028 H 0.04869 0.30351 0.92858 0.0
H1029 H 0.04756 0.26795 0.11867 0.0
H1030 H 0.01643 0.30592 0.93467 0.0
H1031 H 0.01582 0.27037 0.12427 0.0
H1032 H 0.96344 0.25454 0.01534 0.0
H1033 H 0.99503 0.25829 0.01783 0.0
H1034 H 0.98864 0.31447 0.03248 0.0
H1035 H 0.95642 0.31071 0.03076 0.0
C1036 C 0.04164 0.29652 0.97239 0.0
C1037 C 0.05064 0.28528 0.02219 0.0
C1038 C 0.02324 0.29795 0.97603 0.0
C1039 C 0.01368 0.28816 0.02944 0.0
C1040 C 0.02284 0.27789 0.082 0.0
C1041 C 0.04105 0.27648 0.07849 0.0
C1042 C 0.96864 0.26775 0.01914 0.0
C1043 C 0.95739 0.28233 0.02313 0.0
C1044 C 0.98678 0.26987 0.02077 0.0
C1045 C 0.99427 0.28665 0.02564 0.0
C1046 C 0.98315 0.30139 0.02857 0.0
C1047 C 0.96479 0.29923 0.02812 0.0
H1048 H 0.75069 0.96169 0.10474 0.0
H1049 H 0.6982 0.95343 0.0202 0.0
H1050 H 0.74795 0.99296 0.08169 0.0
H1051 H 0.69555 0.98512 0.99456 0.0
H1052 H 0.69756 0.04798 0.02211 0.0
H1053 H 0.69526 0.01627 0.04787 0.0
H1054 H 0.74803 0.00907 0.96374 0.0
H1055 H 0.75041 0.04035 0.94061 0.0
C1056 C 0.73846 0.96664 0.08182 0.0
C1057 C 0.72473 0.95514 0.06358 0.0
C1058 C 0.73693 0.98456 0.06797 0.0
C1059 C 0.72173 0.99149 0.03412 0.0
C1060 C 0.70746 0.98016 0.02028 0.0
C1061 C 0.70894 0.96207 0.03511 0.0
C1062 C 0.70846 0.03947 1.00789 0.0
C1063 C 0.72424 0.04659 0.98027 0.0
C1064 C 0.70718 0.02136 0.0228 0.0
C1065 C 0.72164 0.01022 0.00986 0.0
C1066 C 0.73685 0.01733 0.97681 0.0
C1067 C 0.73818 0.03525 0.9629 0.0
H1068 H 0.95979 0.72173 0.13344 0.0
H1069 H 0.95375 0.6994 0.91063 0.0
H1070 H 0.99139 0.71723 0.1265 0.0
H1071 H 0.98563 0.69493 0.90343 0.0
H1072 H 0.0412 0.72281 0.88632 0.0
H1073 H 0.00974 0.71747 0.8936 0.0
H1074 H 0.01622 0.69541 0.11659 0.0
H1075 H 0.04798 0.70071 0.10902 0.0
C1076 C 0.96521 0.71556 0.08342 0.0
C1077 C 0.95432 0.71108 0.02224 0.0
C1078 C 0.98332 0.71284 0.07974 0.0
C1079 C 0.99103 0.70578 0.01434 0.0
C1080 C 0.98005 0.70048 0.95445 0.0
C1081 C 0.96182 0.70297 0.95863 0.0
C1082 C 0.03597 0.71652 0.93642 0.0
C1083 C 0.04702 0.71233 0.99744 0.0
C1084 C 0.01795 0.71332 0.94028 0.0
C1085 C 0.01047 0.70607 1.00573 0.0
C1086 C 0.02162 0.70109 0.06553 0.0
C1087 C 0.03978 0.70405 0.06114 0.0
H1088 H 0.75194 0.46164 0.47527 0.0
H1089 H 0.80816 0.45421 0.4677 0.0
H1090 H 0.75599 0.49322 0.47675 0.0
H1091 H 0.81221 0.48636 0.46995 0.0
H1092 H 0.80173 0.54578 0.57781 0.0
H1093 H 0.80359 0.51353 0.56839 0.0
H1094 H 0.76882 0.51465 0.37604 0.0
H1095 H 0.76695 0.54636 0.38492 0.0
C1096 C 0.76521 0.46676 0.47391 0.0
C1097 C 0.77973 0.45541 0.471 0.0
C1098 C 0.76751 0.48488 0.47459 0.0
C1099 C 0.7844 0.49223 0.47319 0.0
C1100 C 0.79905 0.48099 0.47122 0.0
C1101 C 0.79672 0.46266 0.46934 0.0
C1102 C 0.79479 0.53911 0.53275 0.0
C1103 C 0.78393 0.54859 0.48306 0.0
C1104 C 0.7959 0.52071 0.52723 0.0
C1105 C 0.78616 0.51163 0.47204 0.0
C1106 C 0.77627 0.52128 0.41972 0.0
C1107 C 0.77518 0.53948 0.42509 0.0
H1108 H 0.45439 0.80035 0.61404 0.0
H1109 H 0.45955 0.7775 0.39177 0.0
H1110 H 0.48628 0.80496 0.61834 0.0
H1111 H 0.49116 0.78218 0.39579 0.0
H1112 H 0.54766 0.79957 0.40764 0.0
H1113 H 0.5158 0.80447 0.40281 0.0
H1114 H 0.51062 0.7824 0.62642 0.0
H1115 H 0.54218 0.77743 0.63092 0.0
C1116 C 0.46227 0.79669 0.56556 0.0
C1117 C 0.45453 0.7884 0.50296 0.0
C1118 C 0.4805 0.79926 0.56808 0.0
C1119 C 0.49123 0.79389 0.50743 0.0
C1120 C 0.48327 0.78662 0.44306 0.0
C1121 C 0.46516 0.7838 0.44109 0.0
C1122 C 0.53972 0.79612 0.4562 0.0
C1123 C 0.54735 0.78795 0.51929 0.0
C1124 C 0.52151 0.79886 0.45339 0.0
C1125 C 0.5107 0.79378 0.51422 0.0
C1126 C 0.51857 0.78662 0.57899 0.0
C1127 C 0.53664 0.78363 0.58125 0.0
H1128 H 0.22357 0.46173 0.38024 0.0
H1129 H 0.20212 0.45574 0.60462 0.0
H1130 H 0.21892 0.4933 0.38708 0.0
H1131 H 0.19753 0.48762 0.61179 0.0
H1132 H 0.22502 0.54354 0.62519 0.0
H1133 H 0.21996 0.51201 0.61934 0.0
H1134 H 0.19684 0.51786 0.39799 0.0
H1135 H 0.20187 0.54965 0.40405 0.0
C1136 C 0.21756 0.46716 0.43062 0.0
C1137 C 0.21336 0.4563 0.4922 0.0
C1138 C 0.21476 0.48525 0.43427 0.0
C1139 C 0.20791 0.49298 0.50004 0.0
C1140 C 0.20291 0.48203 0.56047 0.0
C1141 C 0.20546 0.4638 0.5563 0.0
C1142 C 0.21858 0.53816 0.57576 0.0
C1143 C 0.21401 0.54904 0.51471 0.0
C1144 C 0.21553 0.52009 0.57274 0.0
C1145 C 0.20806 0.51242 0.50813 0.0
C1146 C 0.20271 0.5234 0.44839 0.0
C1147 C 0.20552 0.54158 0.45193 0.0
H1148 H 0.54182 0.25089 0.54368 0.0
H1149 H 0.54926 0.19469 0.54947 0.0
H1150 H 0.51025 0.24685 0.54219 0.0
H1151 H 0.51711 0.19063 0.54741 0.0
H1152 H 0.4578 0.20069 0.44023 0.0
H1153 H 0.49004 0.19881 0.45077 0.0
H1154 H 0.4886 0.2344 0.64048 0.0
H1155 H 0.45691 0.23633 0.63022 0.0
C1156 C 0.53671 0.23762 0.54474 0.0
C1157 C 0.54806 0.22311 0.54705 0.0
C1158 C 0.51858 0.23532 0.5441 0.0
C1159 C 0.51122 0.21843 0.54503 0.0
C1160 C 0.52248 0.20379 0.54654 0.0
C1161 C 0.54081 0.20612 0.54832 0.0
C1162 C 0.46441 0.2078 0.48496 0.0
C1163 C 0.45486 0.21893 0.53339 0.0
C1164 C 0.4828 0.20669 0.49113 0.0
C1165 C 0.4918 0.21667 0.5458 0.0
C1166 C 0.48205 0.22679 0.59709 0.0
C1167 C 0.46386 0.22791 0.59096 0.0
H1168 H 0.24102 0.17527 0.89319 0.0
H1169 H 0.23206 0.17055 0.1332 0.0
H1170 H 0.21892 0.19873 0.88664 0.0
H1171 H 0.20964 0.19367 0.12603 0.0
H1172 H 0.1534 0.21015 1.00447 0.0
H1173 H 0.17824 0.19027 0.01635 0.0
H1174 H 0.21402 0.23328 0.98139 0.0
H1175 H 0.18922 0.2537 0.97423 0.0
C1176 C 0.23449 0.17944 0.94456 0.0
C1177 C 0.23825 0.1712 0.01375 0.0
C1178 C 0.22194 0.19283 0.9408 0.0
C1179 C 0.21273 0.19792 1.00588 0.0
C1180 C 0.21672 0.18997 0.07533 0.0
C1181 C 0.22953 0.17684 0.07941 0.0
C1182 C 0.16649 0.2156 1.00096 0.0
C1183 C 0.16916 0.23372 0.98941 0.0
C1184 C 0.1807 0.20412 1.00714 0.0
C1185 C 0.19792 0.21034 1.00022 0.0
C1186 C 0.20078 0.22826 0.98698 0.0
C1187 C 0.18655 0.23988 0.98228 0.0
H1188 H 0.85643 0.21028 0.97486 0.0
H1189 H 0.81835 0.24988 0.03756 0.0
H1190 H 0.83353 0.18889 0.96564 0.0
H1191 H 0.79551 0.22758 0.03817 0.0
H1192 H 0.75482 0.18612 0.97327 0.0
H1193 H 0.77686 0.20919 0.97246 0.0
H1194 H 0.81648 0.17115 0.03446 0.0
H1195 H 0.79526 0.14809 0.02536 0.0
C1196 C 0.84318 0.21459 0.98661 0.0
C1197 C 0.83946 0.23214 1.00602 0.0
C1198 C 0.82993 0.20201 0.98334 0.0
C1199 C 0.8125 0.20622 1.0025 0.0
C1200 C 0.80868 0.22373 0.02227 0.0
C1201 C 0.82193 0.23654 0.02327 0.0
C1202 C 0.7683 0.18259 0.98517 0.0
C1203 C 0.77301 0.16501 0.99956 0.0
C1204 C 0.78097 0.19597 0.98606 0.0
C1205 C 0.79867 0.19222 1.00286 0.0
C1206 C 0.8032 0.17472 0.0191 0.0
C1207 C 0.79073 0.16136 0.01592 0.0
H1208 H 0.81792 0.75155 0.03931 0.0
H1209 H 0.85447 0.79111 0.96418 0.0
H1210 H 0.79491 0.77386 0.04991 0.0
H1211 H 0.83153 0.81323 0.97153 0.0
H1212 H 0.79411 0.85255 0.06985 0.0
H1213 H 0.81585 0.82928 0.06146 0.0
H1214 H 0.7757 0.79327 0.98508 0.0
H1215 H 0.75376 0.81663 0.99675 0.0
C1216 C 0.82093 0.76499 0.02419 0.0
C1217 C 0.83801 0.76966 1.00185 0.0
C1218 C 0.80776 0.77778 0.02995 0.0
C1219 C 0.81134 0.79546 0.01252 0.0
C1220 C 0.82834 0.7999 0.98765 0.0
C1221 C 0.84151 0.7872 0.98297 0.0
C1222 C 0.78995 0.83965 0.05119 0.0
C1223 C 0.7723 0.83642 0.0332 0.0
C1224 C 0.80243 0.8263 0.0459 0.0
C1225 C 0.79767 0.80938 0.02134 0.0
C1226 C 0.77987 0.80606 1.00473 0.0
C1227 C 0.7673 0.81944 0.01109 0.0
H1228 H 0.18447 0.75479 0.0395 0.0
H1229 H 0.14652 0.79414 0.97293 0.0
H1230 H 0.20733 0.77703 0.0391 0.0
H1231 H 0.16949 0.8155 0.96308 0.0
H1232 H 0.20808 0.85638 0.02213 0.0
H1233 H 0.18661 0.83349 0.03106 0.0
H1234 H 0.22607 0.795 0.97204 0.0
H1235 H 0.24829 0.81792 0.97267 0.0
C1236 C 0.18092 0.76808 0.02423 0.0
C1237 C 0.16342 0.77243 1.00625 0.0
C1238 C 0.19419 0.78085 0.02262 0.0
C1239 C 0.19044 0.79828 1.00149 0.0
C1240 C 0.17303 0.80245 0.98171 0.0
C1241 C 0.15975 0.78989 0.98546 0.0
C1242 C 0.21249 0.84305 0.01322 0.0
C1243 C 0.23022 0.8392 0.99773 0.0
C1244 C 0.1999 0.82979 0.01636 0.0
C1245 C 0.20434 0.81221 1.00115 0.0
C1246 C 0.22204 0.80829 0.98497 0.0
C1247 C 0.23481 0.82157 0.98398 0.0
H1248 H 0.64793 0.70876 0.47641 0.0
H1249 H 0.68457 0.74927 0.54061 0.0
H1250 H 0.67126 0.68703 0.48148 0.0
H1251 H 0.708 0.72736 0.54939 0.0
H1252 H 0.74933 0.68535 0.48871 0.0
H1253 H 0.72684 0.70827 0.48266 0.0
H1254 H 0.68834 0.67135 0.56652 0.0
H1255 H 0.71061 0.64848 0.56865 0.0
C1256 C 0.661 0.71295 0.49253 0.0
C1257 C 0.66443 0.73065 0.50872 0.0
C1258 C 0.6744 0.70047 0.49595 0.0
C1259 C 0.69157 0.7053 0.51698 0.0
C1260 C 0.69503 0.72313 0.53229 0.0
C1261 C 0.68161 0.73569 0.52764 0.0
C1262 C 0.73603 0.68226 0.50599 0.0
C1263 C 0.73162 0.66514 0.52827 0.0
C1264 C 0.72314 0.69538 0.50289 0.0
C1265 C 0.70562 0.69169 0.52316 0.0
C1266 C 0.70149 0.67464 0.5482 0.0
C1267 C 0.71428 0.66152 0.55003 0.0
H1268 H 0.33741 0.72603 0.6354 0.0
H1269 H 0.32908 0.74015 0.4024 0.0
H1270 H 0.31419 0.70414 0.62676 0.0
H1271 H 0.30494 0.71919 0.39418 0.0
H1272 H 0.27706 0.66644 0.3758 0.0
H1273 H 0.29874 0.68987 0.38468 0.0
H1274 H 0.2849 0.69758 0.61979 0.0
H1275 H 0.26418 0.67325 0.61113 0.0
C1276 C 0.33026 0.72466 0.58279 0.0
C1277 C 0.33496 0.7347 0.51958 0.0
C1278 C 0.31684 0.71219 0.5777 0.0
C1279 C 0.30753 0.70972 0.50959 0.0
C1280 C 0.31198 0.7203 0.44709 0.0
C1281 C 0.32569 0.73247 0.4518 0.0
C1282 C 0.27867 0.67329 0.42906 0.0
C1283 C 0.26905 0.66812 0.49279 0.0
C1284 C 0.29101 0.68683 0.43429 0.0
C1285 C 0.29375 0.69578 0.50313 0.0
C1286 C 0.28359 0.69084 0.56625 0.0
C1287 C 0.27155 0.67701 0.56133 0.0
H1288 H 0.31753 0.25457 0.46582 0.0
H1289 H 0.35561 0.29421 0.52735 0.0
H1290 H 0.29473 0.27697 0.46288 0.0
H1291 H 0.33275 0.31585 0.53308 0.0
H1292 H 0.29413 0.35638 0.47072 0.0
H1293 H 0.31548 0.33329 0.46191 0.0
H1294 H 0.27633 0.29545 0.53089 0.0
H1295 H 0.25421 0.31847 0.5308 0.0
C1296 C 0.3211 0.26797 0.47923 0.0
C1297 C 0.33857 0.27237 0.49728 0.0
C1298 C 0.30789 0.28083 0.47878 0.0
C1299 C 0.31174 0.2984 0.4975 0.0
C1300 C 0.32916 0.30266 0.51652 0.0
C1301 C 0.34235 0.28998 0.51511 0.0
C1302 C 0.28976 0.34313 0.48195 0.0
C1303 C 0.27217 0.33949 0.50077 0.0
C1304 C 0.30228 0.32979 0.47871 0.0
C1305 C 0.29788 0.31236 0.49686 0.0
C1306 C 0.2803 0.30863 0.51578 0.0
C1307 C 0.26761 0.32197 0.51706 0.0
H1308 H 0.75226 0.31649 0.52549 0.0
H1309 H 0.71106 0.35133 0.45102 0.0
H1310 H 0.73104 0.2922 0.53138 0.0
H1311 H 0.69002 0.32716 0.45598 0.0
H1312 H 0.66252 0.27569 0.39577 0.0
H1313 H 0.68566 0.29764 0.38562 0.0
H1314 H 0.70268 0.28564 0.61225 0.0
H1315 H 0.67907 0.26414 0.62421 0.0
C1316 C 0.73871 0.31889 0.51002 0.0
C1317 C 0.73325 0.33577 0.4882 0.0
C1318 C 0.72659 0.30507 0.5137 0.0
C1319 C 0.70892 0.30782 0.49393 0.0
C1320 C 0.70359 0.32464 0.47094 0.0
C1321 C 0.71558 0.33848 0.46864 0.0
C1322 C 0.67109 0.27774 0.44378 0.0
C1323 C 0.66869 0.26822 0.51121 0.0
C1324 C 0.68441 0.29026 0.43767 0.0
C1325 C 0.69587 0.2934 0.4983 0.0
C1326 C 0.69408 0.28338 0.56445 0.0
C1327 C 0.68057 0.271 0.57106 0.0
loop_
_geom_bond_atom_site_label_1
_geom_bond_atom_site_label_2
_geom_bond_distance
_geom_bond_site_symmetry_2
_ccdc_geom_bond_type
C0 C1 1.351 . S
C0 N3 1.368 . S
C0 H5 0.931 . S
C1 C0 1.351 . S
C1 N2 1.373 . S
C1 H29 0.930 . S
N2 C1 1.373 . S
N2 C4 1.340 . S
N3 C0 1.368 . S
N3 C4 1.321 . S
N3 Co6 2.135 . S
C4 N2 1.340 . S
C4 N3 1.321 . S
C4 H28 0.930 . S
H5 C0 0.931 . S
Co6 N3 2.135 . S
Co6 N9 2.121 1_554 S
Co6 O14 2.055 . S
Co6 O17 2.039 . S
Co6 N20 2.140 . S
C7 O8 1.227 . S
C7 O17 1.265 . S
O8 C7 1.227 . S
N9 Co6 2.121 1_556 S
N9 C11 1.375 . S
N9 C12 1.313 . S
C10 C11 1.338 . S
C10 N13 1.377 . S
C10 H30 0.930 . S
C11 N9 1.375 . S
C11 C10 1.338 . S
C11 H15 0.931 . S
C12 N9 1.313 . S
C12 N13 1.344 . S
C12 H16 0.930 . S
N13 C10 1.377 . S
N13 C12 1.344 . S
O14 Co6 2.055 . S
O14 C18 1.253 . S
H15 C11 0.931 . S
H16 C12 0.930 . S
O17 Co6 2.039 . S
O17 C7 1.265 . S
C18 O14 1.253 . S
C18 O19 1.227 . S
O19 C18 1.227 . S
N20 Co6 2.140 . S
N20 C23 1.346 . S
N20 C24 1.345 . S
C21 C22 1.387 . S
C21 C25 1.391 . S
C22 C21 1.387 . S
C22 C23 1.369 . S
C22 H31 0.929 . S
C23 N20 1.346 . S
C23 C22 1.369 . S
C23 H26 0.928 . S
C24 N20 1.345 . S
C24 C25 1.371 . S
C24 H27 0.931 1_554 S
C25 C21 1.391 . S
C25 C24 1.371 . S
C25 H32 0.930 1_554 S
H26 C23 0.928 . S
H27 C24 0.931 1_556 S
H28 C4 0.930 . S
H29 C1 0.930 . S
H30 C10 0.930 . S
H31 C22 0.929 . S
H32 C25 0.930 1_556 S
C33 C34 1.351 . S
C33 N36 1.368 . S
C33 H38 0.931 . S
C34 C33 1.351 . S
C34 N35 1.373 . S
C34 H62 0.930 . S
N35 C34 1.373 . S
N35 C37 1.340 . S
N36 C33 1.368 . S
N36 C37 1.321 . S
N36 Co39 2.135 . S
C37 N35 1.340 . S
C37 N36 1.321 . S
C37 H61 0.930 . S
H38 C33 0.931 . S
Co39 N36 2.135 . S
Co39 N42 2.121 1_554 S
Co39 O47 2.055 . S
Co39 O50 2.039 . S
Co39 N53 2.140 . S
C40 O41 1.227 . S
C40 O50 1.265 . S
O41 C40 1.227 . S
N42 Co39 2.121 1_556 S
N42 C44 1.375 . S
N42 C45 1.313 . S
C43 C44 1.338 . S
C43 N46 1.377 . S
C43 H63 0.930 . S
C44 N42 1.375 . S
C44 C43 1.338 . S
C44 H48 0.931 . S
C45 N42 1.313 . S
C45 N46 1.344 . S
C45 H49 0.930 . S
N46 C43 1.377 . S
N46 C45 1.344 . S
O47 Co39 2.055 . S
O47 C51 1.253 . S
H48 C44 0.931 . S
H49 C45 0.930 . S
O50 Co39 2.039 . S
O50 C40 1.265 . S
C51 O47 1.253 . S
C51 O52 1.227 . S
O52 C51 1.227 . S
N53 Co39 2.140 . S
N53 C56 1.346 . S
N53 C57 1.345 . S
C54 C55 1.387 . S
C54 C58 1.391 . S
C55 C54 1.387 . S
C55 C56 1.369 . S
C55 H64 0.929 . S
C56 N53 1.346 . S
C56 C55 1.369 . S
C56 H59 0.928 . S
C57 N53 1.345 . S
C57 C58 1.371 . S
C57 H60 0.931 1_554 S
C58 C54 1.391 . S
C58 C57 1.371 . S
C58 H65 0.930 1_554 S
H59 C56 0.928 . S
H60 C57 0.931 1_556 S
H61 C37 0.930 . S
H62 C34 0.930 . S
H63 C43 0.930 . S
H64 C55 0.929 . S
H65 C58 0.930 1_556 S
C66 C67 1.351 . S
C66 N69 1.368 . S
C66 H71 0.931 . S
C67 C66 1.351 . S
C67 N68 1.373 . S
C67 H95 0.930 . S
N68 C67 1.373 . S
N68 C70 1.340 . S
N69 C66 1.368 . S
N69 C70 1.321 . S
N69 Co72 2.135 . S
C70 N68 1.340 . S
C70 N69 1.321 . S
C70 H94 0.930 . S
H71 C66 0.931 . S
Co72 N69 2.135 . S
Co72 N75 2.121 1_554 S
Co72 O80 2.055 . S
Co72 O83 2.039 . S
Co72 N86 2.140 . S
C73 O74 1.227 . S
C73 O83 1.265 . S
O74 C73 1.227 . S
N75 Co72 2.121 1_556 S
N75 C77 1.375 . S
N75 C78 1.313 . S
C76 C77 1.338 . S
C76 N79 1.377 . S
C76 H96 0.930 . S
C77 N75 1.375 . S
C77 C76 1.338 . S
C77 H81 0.931 . S
C78 N75 1.313 . S
C78 N79 1.344 . S
C78 H82 0.930 . S
N79 C76 1.377 . S
N79 C78 1.344 . S
O80 Co72 2.055 . S
O80 C84 1.253 . S
H81 C77 0.931 . S
H82 C78 0.930 . S
O83 Co72 2.039 . S
O83 C73 1.265 . S
C84 O80 1.253 . S
C84 O85 1.227 . S
O85 C84 1.227 . S
N86 Co72 2.140 . S
N86 C89 1.346 . S
N86 C90 1.345 . S
C87 C88 1.387 . S
C87 C91 1.391 . S
C88 C87 1.387 . S
C88 C89 1.369 . S
C88 H97 0.929 . S
C89 N86 1.346 . S
C89 C88 1.369 . S
C89 H92 0.928 . S
C90 N86 1.345 . S
C90 C91 1.371 . S
C90 H93 0.931 1_554 S
C91 C87 1.391 . S
C91 C90 1.371 . S
C91 H98 0.930 1_554 S
H92 C89 0.928 . S
H93 C90 0.931 1_556 S
H94 C70 0.930 . S
H95 C67 0.930 . S
H96 C76 0.930 . S
H97 C88 0.929 . S
H98 C91 0.930 1_556 S
C99 C100 1.351 . S
C99 N102 1.368 . S
C99 H104 0.931 . S
C100 C99 1.351 . S
C100 N101 1.373 . S
C100 H128 0.930 . S
N101 C100 1.373 . S
N101 C103 1.340 . S
N102 C99 1.368 . S
N102 C103 1.321 . S
N102 Co105 2.135 . S
C103 N101 1.340 . S
C103 N102 1.321 . S
C103 H127 0.930 . S
H104 C99 0.931 . S
Co105 N102 2.135 . S
Co105 N108 2.121 1_554 S
Co105 O113 2.055 . S
Co105 O116 2.039 . S
Co105 N119 2.140 . S
C106 O107 1.227 . S
C106 O116 1.265 . S
O107 C106 1.227 . S
N108 Co105 2.121 1_556 S
N108 C110 1.375 . S
N108 C111 1.313 . S
C109 C110 1.338 . S
C109 N112 1.377 . S
C109 H129 0.930 . S
C110 N108 1.375 . S
C110 C109 1.338 . S
C110 H114 0.931 . S
C111 N108 1.313 . S
C111 N112 1.344 . S
C111 H115 0.930 . S
N112 C109 1.377 . S
N112 C111 1.344 . S
O113 Co105 2.055 . S
O113 C117 1.253 . S
H114 C110 0.931 . S
H115 C111 0.930 . S
O116 Co105 2.039 . S
O116 C106 1.265 . S
C117 O113 1.253 . S
C117 O118 1.227 . S
O118 C117 1.227 . S
N119 Co105 2.140 . S
N119 C122 1.346 . S
N119 C123 1.345 . S
C120 C121 1.387 . S
C120 C124 1.391 . S
C121 C120 1.387 . S
C121 C122 1.369 . S
C121 H130 0.929 . S
C122 N119 1.346 . S
C122 C121 1.369 . S
C122 H125 0.928 . S
C123 N119 1.345 . S
C123 C124 1.371 . S
C123 H126 0.931 1_554 S
C124 C120 1.391 . S
C124 C123 1.371 . S
C124 H131 0.930 1_554 S
H125 C122 0.928 . S
H126 C123 0.931 1_556 S
H127 C103 0.930 . S
H128 C100 0.930 . S
H129 C109 0.930 . S
H130 C121 0.929 . S
H131 C124 0.930 1_556 S
C132 C133 1.351 . S
C132 N135 1.368 . S
C132 H137 0.931 . S
C133 C132 1.351 . S
C133 N134 1.373 . S
C133 H161 0.930 . S
N134 C133 1.373 . S
N134 C136 1.340 . S
N135 C132 1.368 . S
N135 C136 1.321 . S
N135 Co138 2.135 . S
C136 N134 1.340 . S
C136 N135 1.321 . S
C136 H160 0.930 . S
H137 C132 0.931 . S
Co138 N135 2.135 . S
Co138 N141 2.121 1_556 S
Co138 O146 2.055 . S
Co138 O149 2.039 . S
Co138 N152 2.140 . S
C139 O140 1.227 . S
C139 O149 1.265 . S
O140 C139 1.227 . S
N141 Co138 2.121 1_554 S
N141 C143 1.375 . S
N141 C144 1.313 . S
C142 C143 1.338 . S
C142 N145 1.377 . S
C142 H162 0.930 . S
C143 N141 1.375 . S
C143 C142 1.338 . S
C143 H147 0.931 . S
C144 N141 1.313 . S
C144 N145 1.344 . S
C144 H148 0.930 . S
N145 C142 1.377 . S
N145 C144 1.344 . S
O146 Co138 2.055 . S
O146 C150 1.253 . S
H147 C143 0.931 . S
H148 C144 0.930 . S
O149 Co138 2.039 . S
O149 C139 1.265 . S
C150 O146 1.253 . S
C150 O151 1.227 . S
O151 C150 1.227 . S
N152 Co138 2.140 . S
N152 C155 1.346 . S
N152 C156 1.345 . S
C153 C154 1.387 . S
C153 C157 1.391 . S
C154 C153 1.387 . S
C154 C155 1.369 . S
C154 H163 0.929 . S
C155 N152 1.346 . S
C155 C154 1.369 . S
C155 H158 0.928 . S
C156 N152 1.345 . S
C156 C157 1.371 . S
C156 H159 0.931 1_556 S
C157 C153 1.391 . S
C157 C156 1.371 . S
C157 H164 0.930 1_556 S
H158 C155 0.928 . S
H159 C156 0.931 1_554 S
H160 C136 0.930 . S
H161 C133 0.930 . S
H162 C142 0.930 . S
H163 C154 0.929 . S
H164 C157 0.930 1_554 S
C165 C166 1.351 . S
C165 N168 1.368 . S
C165 H170 0.931 . S
C166 C165 1.351 . S
C166 N167 1.373 . S
C166 H194 0.930 . S
N167 C166 1.373 . S
N167 C169 1.340 . S
N168 C165 1.368 . S
N168 C169 1.321 . S
N168 Co171 2.135 . S
C169 N167 1.340 . S
C169 N168 1.321 . S
C169 H193 0.930 . S
H170 C165 0.931 . S
Co171 N168 2.135 . S
Co171 N174 2.121 1_556 S
Co171 O179 2.055 . S
Co171 O182 2.039 . S
Co171 N185 2.140 . S
C172 O173 1.227 . S
C172 O182 1.265 . S
O173 C172 1.227 . S
N174 Co171 2.121 1_554 S
N174 C176 1.375 . S
N174 C177 1.313 . S
C175 C176 1.338 . S
C175 N178 1.377 . S
C175 H195 0.930 . S
C176 N174 1.375 . S
C176 C175 1.338 . S
C176 H180 0.931 . S
C177 N174 1.313 . S
C177 N178 1.344 . S
C177 H181 0.930 . S
N178 C175 1.377 . S
N178 C177 1.344 . S
O179 Co171 2.055 . S
O179 C183 1.253 . S
H180 C176 0.931 . S
H181 C177 0.930 . S
O182 Co171 2.039 . S
O182 C172 1.265 . S
C183 O179 1.253 . S
C183 O184 1.227 . S
O184 C183 1.227 . S
N185 Co171 2.140 . S
N185 C188 1.346 . S
N185 C189 1.345 . S
C186 C187 1.387 . S
C186 C190 1.391 . S
C187 C186 1.387 . S
C187 C188 1.369 . S
C187 H196 0.929 . S
C188 N185 1.346 . S
C188 C187 1.369 . S
C188 H191 0.928 . S
C189 N185 1.345 . S
C189 C190 1.371 . S
C189 H192 0.931 1_556 S
C190 C186 1.391 . S
C190 C189 1.371 . S
C190 H197 0.930 1_556 S
H191 C188 0.928 . S
H192 C189 0.931 1_554 S
H193 C169 0.930 . S
H194 C166 0.930 . S
H195 C175 0.930 . S
H196 C187 0.929 . S
H197 C190 0.930 1_554 S
C198 C199 1.351 . S
C198 N201 1.368 . S
C198 H203 0.931 . S
C199 C198 1.351 . S
C199 N200 1.373 . S
C199 H227 0.930 . S
N200 C199 1.373 . S
N200 C202 1.340 . S
N201 C198 1.368 . S
N201 C202 1.321 . S
N201 Co204 2.135 . S
C202 N200 1.340 . S
C202 N201 1.321 . S
C202 H226 0.930 . S
H203 C198 0.931 . S
Co204 N201 2.135 . S
Co204 N207 2.121 1_556 S
Co204 O212 2.055 . S
Co204 O215 2.039 . S
Co204 N218 2.140 . S
C205 O206 1.227 . S
C205 O215 1.265 . S
O206 C205 1.227 . S
N207 Co204 2.121 1_554 S
N207 C209 1.375 . S
N207 C210 1.313 . S
C208 C209 1.338 . S
C208 N211 1.377 . S
C208 H228 0.930 . S
C209 N207 1.375 . S
C209 C208 1.338 . S
C209 H213 0.931 . S
C210 N207 1.313 . S
C210 N211 1.344 . S
C210 H214 0.930 . S
N211 C208 1.377 . S
N211 C210 1.344 . S
O212 Co204 2.055 . S
O212 C216 1.253 . S
H213 C209 0.931 . S
H214 C210 0.930 . S
O215 Co204 2.039 . S
O215 C205 1.265 . S
C216 O212 1.253 . S
C216 O217 1.227 . S
O217 C216 1.227 . S
N218 Co204 2.140 . S
N218 C221 1.346 . S
N218 C222 1.345 . S
C219 C220 1.387 . S
C219 C223 1.391 . S
C220 C219 1.387 . S
C220 C221 1.369 . S
C220 H229 0.929 . S
C221 N218 1.346 . S
C221 C220 1.369 . S
C221 H224 0.928 . S
C222 N218 1.345 . S
C222 C223 1.371 . S
C222 H225 0.931 1_556 S
C223 C219 1.391 . S
C223 C222 1.371 . S
C223 H230 0.930 1_556 S
H224 C221 0.928 . S
H225 C222 0.931 1_554 S
H226 C202 0.930 . S
H227 C199 0.930 . S
H228 C208 0.930 . S
H229 C220 0.929 . S
H230 C223 0.930 1_554 S
C231 C232 1.351 . S
C231 N234 1.368 . S
C231 H236 0.931 . S
C232 C231 1.351 . S
C232 N233 1.373 . S
C232 H260 0.930 . S
N233 C232 1.373 . S
N233 C235 1.340 . S
N234 C231 1.368 . S
N234 C235 1.321 . S
N234 Co237 2.135 . S
C235 N233 1.340 . S
C235 N234 1.321 . S
C235 H259 0.930 . S
H236 C231 0.931 . S
Co237 N234 2.135 . S
Co237 N240 2.121 1_556 S
Co237 O245 2.055 . S
Co237 O248 2.039 . S
Co237 N251 2.140 . S
C238 O239 1.227 . S
C238 O248 1.265 . S
O239 C238 1.227 . S
N240 Co237 2.121 1_554 S
N240 C242 1.375 . S
N240 C243 1.313 . S
C241 C242 1.338 . S
C241 N244 1.377 . S
C241 H261 0.930 . S
C242 N240 1.375 . S
C242 C241 1.338 . S
C242 H246 0.931 . S
C243 N240 1.313 . S
C243 N244 1.344 . S
C243 H247 0.930 . S
N244 C241 1.377 . S
N244 C243 1.344 . S
O245 Co237 2.055 . S
O245 C249 1.253 . S
H246 C242 0.931 . S
H247 C243 0.930 . S
O248 Co237 2.039 . S
O248 C238 1.265 . S
C249 O245 1.253 . S
C249 O250 1.227 . S
O250 C249 1.227 . S
N251 Co237 2.140 . S
N251 C254 1.346 . S
N251 C255 1.345 . S
C252 C253 1.387 . S
C252 C256 1.391 . S
C253 C252 1.387 . S
C253 C254 1.369 . S
C253 H262 0.929 . S
C254 N251 1.346 . S
C254 C253 1.369 . S
C254 H257 0.928 . S
C255 N251 1.345 . S
C255 C256 1.371 . S
C255 H258 0.931 1_556 S
C256 C252 1.391 . S
C256 C255 1.371 . S
C256 H263 0.930 1_556 S
H257 C254 0.928 . S
H258 C255 0.931 1_554 S
H259 C235 0.930 . S
H260 C232 0.930 . S
H261 C241 0.930 . S
H262 C253 0.929 . S
H263 C256 0.930 1_554 S
C264 C265 1.351 . S
C264 N267 1.368 . S
C264 H269 0.931 . S
C265 C264 1.351 . S
C265 N266 1.373 . S
C265 H293 0.930 . S
N266 C265 1.373 . S
N266 C268 1.340 . S
N267 C264 1.368 . S
N267 C268 1.321 . S
N267 Co270 2.135 . S
C268 N266 1.340 . S
C268 N267 1.321 . S
C268 H292 0.930 . S
H269 C264 0.931 . S
Co270 N267 2.135 . S
Co270 N273 2.121 . S
Co270 O278 2.055 . S
Co270 O281 2.039 . S
Co270 N284 2.140 . S
C271 O272 1.227 . S
C271 O281 1.265 . S
O272 C271 1.227 . S
N273 Co270 2.121 . S
N273 C275 1.375 . S
N273 C276 1.313 . S
C274 C275 1.338 . S
C274 N277 1.377 . S
C274 H294 0.930 . S
C275 N273 1.375 . S
C275 C274 1.338 . S
C275 H279 0.931 . S
C276 N273 1.313 . S
C276 N277 1.344 . S
C276 H280 0.930 . S
N277 C274 1.377 . S
N277 C276 1.344 . S
O278 Co270 2.055 . S
O278 C282 1.253 . S
H279 C275 0.931 . S
H280 C276 0.930 . S
O281 Co270 2.039 . S
O281 C271 1.265 . S
C282 O278 1.253 . S
C282 O283 1.227 . S
O283 C282 1.227 . S
N284 Co270 2.140 . S
N284 C287 1.346 . S
N284 C288 1.345 . S
C285 C286 1.387 . S
C285 C289 1.391 . S
C286 C285 1.387 . S
C286 C287 1.369 . S
C286 H295 0.929 . S
C287 N284 1.346 . S
C287 C286 1.369 . S
C287 H290 0.928 . S
C288 N284 1.345 . S
C288 C289 1.371 . S
C288 H291 0.931 . S
C289 C285 1.391 . S
C289 C288 1.371 . S
C289 H296 0.930 . S
H290 C287 0.928 . S
H291 C288 0.931 . S
H292 C268 0.930 . S
H293 C265 0.930 . S
H294 C274 0.930 . S
H295 C286 0.929 . S
H296 C289 0.930 . S
C297 C298 1.351 . S
C297 N300 1.368 . S
C297 H302 0.931 . S
C298 C297 1.351 . S
C298 N299 1.373 . S
C298 H326 0.930 . S
N299 C298 1.373 . S
N299 C301 1.340 . S
N300 C297 1.368 . S
N300 C301 1.321 . S
N300 Co303 2.135 . S
C301 N299 1.340 . S
C301 N300 1.321 . S
C301 H325 0.930 . S
H302 C297 0.931 . S
Co303 N300 2.135 . S
Co303 N306 2.121 . S
Co303 O311 2.055 . S
Co303 O314 2.039 . S
Co303 N317 2.140 . S
C304 O305 1.227 . S
C304 O314 1.265 . S
O305 C304 1.227 . S
N306 Co303 2.121 . S
N306 C308 1.375 . S
N306 C309 1.313 . S
C307 C308 1.338 . S
C307 N310 1.377 . S
C307 H327 0.930 . S
C308 N306 1.375 . S
C308 C307 1.338 . S
C308 H312 0.931 . S
C309 N306 1.313 . S
C309 N310 1.344 . S
C309 H313 0.930 . S
N310 C307 1.377 . S
N310 C309 1.344 . S
O311 Co303 2.055 . S
O311 C315 1.253 . S
H312 C308 0.931 . S
H313 C309 0.930 . S
O314 Co303 2.039 . S
O314 C304 1.265 . S
C315 O311 1.253 . S
C315 O316 1.227 . S
O316 C315 1.227 . S
N317 Co303 2.140 . S
N317 C320 1.346 . S
N317 C321 1.345 . S
C318 C319 1.387 . S
C318 C322 1.391 . S
C319 C318 1.387 . S
C319 C320 1.369 . S
C319 H328 0.929 . S
C320 N317 1.346 . S
C320 C319 1.369 . S
C320 H323 0.928 . S
C321 N317 1.345 . S
C321 C322 1.371 . S
C321 H324 0.931 . S
C322 C318 1.391 . S
C322 C321 1.371 . S
C322 H329 0.930 . S
H323 C320 0.928 . S
H324 C321 0.931 . S
H325 C301 0.930 . S
H326 C298 0.930 . S
H327 C307 0.930 . S
H328 C319 0.929 . S
H329 C322 0.930 . S
C330 C331 1.351 . S
C330 N333 1.368 . S
C330 H335 0.931 . S
C331 C330 1.351 . S
C331 N332 1.373 . S
C331 H359 0.930 . S
N332 C331 1.373 . S
N332 C334 1.340 . S
N333 C330 1.368 . S
N333 C334 1.321 . S
N333 Co336 2.135 . S
C334 N332 1.340 . S
C334 N333 1.321 . S
C334 H358 0.930 . S
H335 C330 0.931 . S
Co336 N333 2.135 . S
Co336 N339 2.121 . S
Co336 O344 2.055 . S
Co336 O347 2.039 . S
Co336 N350 2.140 . S
C337 O338 1.227 . S
C337 O347 1.265 . S
O338 C337 1.227 . S
N339 Co336 2.121 . S
N339 C341 1.375 . S
N339 C342 1.313 . S
C340 C341 1.338 . S
C340 N343 1.377 . S
C340 H360 0.930 . S
C341 N339 1.375 . S
C341 C340 1.338 . S
C341 H345 0.931 . S
C342 N339 1.313 . S
C342 N343 1.344 . S
C342 H346 0.930 . S
N343 C340 1.377 . S
N343 C342 1.344 . S
O344 Co336 2.055 . S
O344 C348 1.253 . S
H345 C341 0.931 . S
H346 C342 0.930 . S
O347 Co336 2.039 . S
O347 C337 1.265 . S
C348 O344 1.253 . S
C348 O349 1.227 . S
O349 C348 1.227 . S
N350 Co336 2.140 . S
N350 C353 1.346 . S
N350 C354 1.345 . S
C351 C352 1.387 . S
C351 C355 1.391 . S
C352 C351 1.387 . S
C352 C353 1.369 . S
C352 H361 0.929 . S
C353 N350 1.346 . S
C353 C352 1.369 . S
C353 H356 0.928 . S
C354 N350 1.345 . S
C354 C355 1.371 . S
C354 H357 0.931 . S
C355 C351 1.391 . S
C355 C354 1.371 . S
C355 H362 0.930 . S
H356 C353 0.928 . S
H357 C354 0.931 . S
H358 C334 0.930 . S
H359 C331 0.930 . S
H360 C340 0.930 . S
H361 C352 0.929 . S
H362 C355 0.930 . S
C363 C364 1.351 . S
C363 N366 1.368 . S
C363 H368 0.931 . S
C364 C363 1.351 . S
C364 N365 1.373 . S
C364 H392 0.930 . S
N365 C364 1.373 . S
N365 C367 1.340 . S
N366 C363 1.368 . S
N366 C367 1.321 . S
N366 Co369 2.135 . S
C367 N365 1.340 . S
C367 N366 1.321 . S
C367 H391 0.930 . S
H368 C363 0.931 . S
Co369 N366 2.135 . S
Co369 N372 2.121 . S
Co369 O377 2.055 . S
Co369 O380 2.039 . S
Co369 N383 2.140 . S
C370 O371 1.227 . S
C370 O380 1.265 . S
O371 C370 1.227 . S
N372 Co369 2.121 . S
N372 C374 1.375 . S
N372 C375 1.313 . S
C373 C374 1.338 . S
C373 N376 1.377 . S
C373 H393 0.930 . S
C374 N372 1.375 . S
C374 C373 1.338 . S
C374 H378 0.931 . S
C375 N372 1.313 . S
C375 N376 1.344 . S
C375 H379 0.930 . S
N376 C373 1.377 . S
N376 C375 1.344 . S
O377 Co369 2.055 . S
O377 C381 1.253 . S
H378 C374 0.931 . S
H379 C375 0.930 . S
O380 Co369 2.039 . S
O380 C370 1.265 . S
C381 O377 1.253 . S
C381 O382 1.227 . S
O382 C381 1.227 . S
N383 Co369 2.140 . S
N383 C386 1.346 . S
N383 C387 1.345 . S
C384 C385 1.387 . S
C384 C388 1.391 . S
C385 C384 1.387 . S
C385 C386 1.369 . S
C385 H394 0.929 . S
C386 N383 1.346 . S
C386 C385 1.369 . S
C386 H389 0.928 . S
C387 N383 1.345 . S
C387 C388 1.371 . S
C387 H390 0.931 . S
C388 C384 1.391 . S
C388 C387 1.371 . S
C388 H395 0.930 . S
H389 C386 0.928 . S
H390 C387 0.931 . S
H391 C367 0.930 . S
H392 C364 0.930 . S
H393 C373 0.930 . S
H394 C385 0.929 . S
H395 C388 0.930 . S
C396 C397 1.351 . S
C396 N399 1.368 . S
C396 H401 0.931 . S
C397 C396 1.351 . S
C397 N398 1.373 . S
C397 H425 0.930 . S
N398 C397 1.373 . S
N398 C400 1.340 . S
N399 C396 1.368 . S
N399 C400 1.321 . S
N399 Co402 2.135 . S
C400 N398 1.340 . S
C400 N399 1.321 . S
C400 H424 0.930 . S
H401 C396 0.931 . S
Co402 N399 2.135 . S
Co402 N405 2.121 . S
Co402 O410 2.055 . S
Co402 O413 2.039 . S
Co402 N416 2.140 . S
C403 O404 1.227 . S
C403 O413 1.265 . S
O404 C403 1.227 . S
N405 Co402 2.121 . S
N405 C407 1.375 . S
N405 C408 1.313 . S
C406 C407 1.338 . S
C406 N409 1.377 . S
C406 H426 0.930 . S
C407 N405 1.375 . S
C407 C406 1.338 . S
C407 H411 0.931 . S
C408 N405 1.313 . S
C408 N409 1.344 . S
C408 H412 0.930 . S
N409 C406 1.377 . S
N409 C408 1.344 . S
O410 Co402 2.055 . S
O410 C414 1.253 . S
H411 C407 0.931 . S
H412 C408 0.930 . S
O413 Co402 2.039 . S
O413 C403 1.265 . S
C414 O410 1.253 . S
C414 O415 1.227 . S
O415 C414 1.227 . S
N416 Co402 2.140 . S
N416 C419 1.346 . S
N416 C420 1.345 . S
C417 C418 1.387 . S
C417 C421 1.391 . S
C418 C417 1.387 . S
C418 C419 1.369 . S
C418 H427 0.929 . S
C419 N416 1.346 . S
C419 C418 1.369 . S
C419 H422 0.928 . S
C420 N416 1.345 . S
C420 C421 1.371 . S
C420 H423 0.931 . S
C421 C417 1.391 . S
C421 C420 1.371 . S
C421 H428 0.930 . S
H422 C419 0.928 . S
H423 C420 0.931 . S
H424 C400 0.930 . S
H425 C397 0.930 . S
H426 C406 0.930 . S
H427 C418 0.929 . S
H428 C421 0.930 . S
C429 C430 1.351 . S
C429 N432 1.368 . S
C429 H434 0.931 . S
C430 C429 1.351 . S
C430 N431 1.373 . S
C430 H458 0.930 . S
N431 C430 1.373 . S
N431 C433 1.340 . S
N432 C429 1.368 . S
N432 C433 1.321 . S
N432 Co435 2.135 . S
C433 N431 1.340 . S
C433 N432 1.321 . S
C433 H457 0.930 . S
H434 C429 0.931 . S
Co435 N432 2.135 . S
Co435 N438 2.121 . S
Co435 O443 2.055 . S
Co435 O446 2.039 . S
Co435 N449 2.140 . S
C436 O437 1.227 . S
C436 O446 1.265 . S
O437 C436 1.227 . S
N438 Co435 2.121 . S
N438 C440 1.375 . S
N438 C441 1.313 . S
C439 C440 1.338 . S
C439 N442 1.377 . S
C439 H459 0.930 . S
C440 N438 1.375 . S
C440 C439 1.338 . S
C440 H444 0.931 . S
C441 N438 1.313 . S
C441 N442 1.344 . S
C441 H445 0.930 . S
N442 C439 1.377 . S
N442 C441 1.344 . S
O443 Co435 2.055 . S
O443 C447 1.253 . S
H444 C440 0.931 . S
H445 C441 0.930 . S
O446 Co435 2.039 . S
O446 C436 1.265 . S
C447 O443 1.253 . S
C447 O448 1.227 . S
O448 C447 1.227 . S
N449 Co435 2.140 . S
N449 C452 1.346 . S
N449 C453 1.345 . S
C450 C451 1.387 . S
C450 C454 1.391 . S
C451 C450 1.387 . S
C451 C452 1.369 . S
C451 H460 0.929 . S
C452 N449 1.346 . S
C452 C451 1.369 . S
C452 H455 0.928 . S
C453 N449 1.345 . S
C453 C454 1.371 . S
C453 H456 0.931 . S
C454 C450 1.391 . S
C454 C453 1.371 . S
C454 H461 0.930 . S
H455 C452 0.928 . S
H456 C453 0.931 . S
H457 C433 0.930 . S
H458 C430 0.930 . S
H459 C439 0.930 . S
H460 C451 0.929 . S
H461 C454 0.930 . S
C462 C463 1.351 . S
C462 N465 1.368 . S
C462 H467 0.931 . S
C463 C462 1.351 . S
C463 N464 1.373 . S
C463 H491 0.930 . S
N464 C463 1.373 . S
N464 C466 1.340 . S
N465 C462 1.368 . S
N465 C466 1.321 . S
N465 Co468 2.135 . S
C466 N464 1.340 . S
C466 N465 1.321 . S
C466 H490 0.930 . S
H467 C462 0.931 . S
Co468 N465 2.135 . S
Co468 N471 2.121 . S
Co468 O476 2.055 . S
Co468 O479 2.039 . S
Co468 N482 2.140 . S
C469 O470 1.227 . S
C469 O479 1.265 . S
O470 C469 1.227 . S
N471 Co468 2.121 . S
N471 C473 1.375 . S
N471 C474 1.313 . S
C472 C473 1.338 . S
C472 N475 1.377 . S
C472 H492 0.930 . S
C473 N471 1.375 . S
C473 C472 1.338 . S
C473 H477 0.931 . S
C474 N471 1.313 . S
C474 N475 1.344 . S
C474 H478 0.930 . S
N475 C472 1.377 . S
N475 C474 1.344 . S
O476 Co468 2.055 . S
O476 C480 1.253 . S
H477 C473 0.931 . S
H478 C474 0.930 . S
O479 Co468 2.039 . S
O479 C469 1.265 . S
C480 O476 1.253 . S
C480 O481 1.227 . S
O481 C480 1.227 . S
N482 Co468 2.140 . S
N482 C485 1.346 . S
N482 C486 1.345 . S
C483 C484 1.387 . S
C483 C487 1.391 . S
C484 C483 1.387 . S
C484 C485 1.369 . S
C484 H493 0.929 . S
C485 N482 1.346 . S
C485 C484 1.369 . S
C485 H488 0.928 . S
C486 N482 1.345 . S
C486 C487 1.371 . S
C486 H489 0.931 . S
C487 C483 1.391 . S
C487 C486 1.371 . S
C487 H494 0.930 . S
H488 C485 0.928 . S
H489 C486 0.931 . S
H490 C466 0.930 . S
H491 C463 0.930 . S
H492 C472 0.930 . S
H493 C484 0.929 . S
H494 C487 0.930 . S
C495 C496 1.351 . S
C495 N498 1.368 . S
C495 H500 0.931 . S
C496 C495 1.351 . S
C496 N497 1.373 . S
C496 H524 0.930 . S
N497 C496 1.373 . S
N497 C499 1.340 . S
N498 C495 1.368 . S
N498 C499 1.321 . S
N498 Co501 2.135 . S
C499 N497 1.340 . S
C499 N498 1.321 . S
C499 H523 0.930 . S
H500 C495 0.931 . S
Co501 N498 2.135 . S
Co501 N504 2.121 . S
Co501 O509 2.055 . S
Co501 O512 2.039 . S
Co501 N515 2.140 . S
C502 O503 1.227 . S
C502 O512 1.265 . S
O503 C502 1.227 . S
N504 Co501 2.121 . S
N504 C506 1.375 . S
N504 C507 1.313 . S
C505 C506 1.338 . S
C505 N508 1.377 . S
C505 H525 0.930 . S
C506 N504 1.375 . S
C506 C505 1.338 . S
C506 H510 0.931 . S
C507 N504 1.313 . S
C507 N508 1.344 . S
C507 H511 0.930 . S
N508 C505 1.377 . S
N508 C507 1.344 . S
O509 Co501 2.055 . S
O509 C513 1.253 . S
H510 C506 0.931 . S
H511 C507 0.930 . S
O512 Co501 2.039 . S
O512 C502 1.265 . S
C513 O509 1.253 . S
C513 O514 1.227 . S
O514 C513 1.227 . S
N515 Co501 2.140 . S
N515 C518 1.346 . S
N515 C519 1.345 . S
C516 C517 1.387 . S
C516 C520 1.391 . S
C517 C516 1.387 . S
C517 C518 1.369 . S
C517 H526 0.929 . S
C518 N515 1.346 . S
C518 C517 1.369 . S
C518 H521 0.928 . S
C519 N515 1.345 . S
C519 C520 1.371 . S
C519 H522 0.931 . S
C520 C516 1.391 . S
C520 C519 1.371 . S
C520 H527 0.930 . S
H521 C518 0.928 . S
H522 C519 0.931 . S
H523 C499 0.930 . S
H524 C496 0.930 . S
H525 C505 0.930 . S
H526 C517 0.929 . S
H527 C520 0.930 . S
H528 C536 0.950 . S
H529 C541 0.950 . S
H530 C538 0.950 . S
H531 C540 0.950 . S
H532 C542 0.950 . S
H533 C544 0.950 . S
H534 C546 0.950 . S
H535 C547 0.950 . S
C536 H528 0.950 . S
C536 C537 1.386 . S
C536 C538 1.391 . S
C537 C536 1.386 . S
C537 C541 1.393 . S
C538 H530 0.950 . S
C538 C536 1.391 . S
C538 C539 1.400 . S
C539 C538 1.400 . S
C539 C540 1.398 . S
C539 C545 1.491 . S
C540 H531 0.950 . S
C540 C539 1.398 . S
C540 C541 1.391 . S
C541 H529 0.950 . S
C541 C537 1.393 . S
C541 C540 1.391 . S
C542 H532 0.950 . S
C542 C543 1.386 . S
C542 C544 1.391 . S
C543 C542 1.386 . S
C543 C547 1.393 . S
C544 H533 0.950 . S
C544 C542 1.391 . S
C544 C545 1.400 . S
C545 C539 1.491 . S
C545 C544 1.400 . S
C545 C546 1.398 . S
C546 H534 0.950 . S
C546 C545 1.398 . S
C546 C547 1.391 . S
C547 H535 0.950 . S
C547 C543 1.393 . S
C547 C546 1.391 . S
H548 C556 0.950 . S
H549 C561 0.950 . S
H550 C558 0.950 . S
H551 C560 0.950 . S
H552 C562 0.950 . S
H553 C564 0.950 . S
H554 C566 0.950 . S
H555 C567 0.950 . S
C556 H548 0.950 . S
C556 C557 1.386 . S
C556 C558 1.391 . S
C557 C556 1.386 . S
C557 C561 1.393 . S
C558 H550 0.950 . S
C558 C556 1.391 . S
C558 C559 1.400 . S
C559 C558 1.400 . S
C559 C560 1.398 . S
C559 C565 1.491 . S
C560 H551 0.950 . S
C560 C559 1.398 . S
C560 C561 1.391 . S
C561 H549 0.950 . S
C561 C557 1.393 . S
C561 C560 1.391 . S
C562 H552 0.950 . S
C562 C563 1.386 . S
C562 C564 1.391 . S
C563 C562 1.386 . S
C563 C567 1.393 . S
C564 H553 0.950 . S
C564 C562 1.391 . S
C564 C565 1.400 . S
C565 C559 1.491 . S
C565 C564 1.400 . S
C565 C566 1.398 . S
C566 H554 0.950 . S
C566 C565 1.398 . S
C566 C567 1.391 . S
C567 H555 0.950 . S
C567 C563 1.393 . S
C567 C566 1.391 . S
H568 C576 0.950 . S
H569 C581 0.950 . S
H570 C578 0.950 . S
H571 C580 0.950 . S
H572 C582 0.950 . S
H573 C584 0.950 . S
H574 C586 0.950 . S
H575 C587 0.950 . S
C576 H568 0.950 . S
C576 C577 1.386 . S
C576 C578 1.391 . S
C577 C576 1.386 . S
C577 C581 1.393 . S
C578 H570 0.950 . S
C578 C576 1.391 . S
C578 C579 1.400 . S
C579 C578 1.400 . S
C579 C580 1.398 . S
C579 C585 1.491 . S
C580 H571 0.950 . S
C580 C579 1.398 . S
C580 C581 1.391 . S
C581 H569 0.950 . S
C581 C577 1.393 . S
C581 C580 1.391 . S
C582 H572 0.950 . S
C582 C583 1.386 . S
C582 C584 1.391 . S
C583 C582 1.386 . S
C583 C587 1.393 . S
C584 H573 0.950 . S
C584 C582 1.391 . S
C584 C585 1.400 . S
C585 C579 1.491 . S
C585 C584 1.400 . S
C585 C586 1.398 . S
C586 H574 0.950 . S
C586 C585 1.398 . S
C586 C587 1.391 . S
C587 H575 0.950 . S
C587 C583 1.393 . S
C587 C586 1.391 . S
H588 C596 0.950 . S
H589 C601 0.950 . S
H590 C598 0.950 . S
H591 C600 0.950 . S
H592 C602 0.950 . S
H593 C604 0.950 . S
H594 C606 0.950 . S
H595 C607 0.950 . S
C596 H588 0.950 . S
C596 C597 1.386 . S
C596 C598 1.391 . S
C597 C596 1.386 . S
C597 C601 1.393 . S
C598 H590 0.950 . S
C598 C596 1.391 . S
C598 C599 1.400 . S
C599 C598 1.400 . S
C599 C600 1.398 . S
C599 C605 1.491 . S
C600 H591 0.950 . S
C600 C599 1.398 . S
C600 C601 1.391 . S
C601 H589 0.950 . S
C601 C597 1.393 . S
C601 C600 1.391 . S
C602 H592 0.950 . S
C602 C603 1.386 . S
C602 C604 1.391 . S
C603 C602 1.386 . S
C603 C607 1.393 . S
C604 H593 0.950 . S
C604 C602 1.391 . S
C604 C605 1.400 . S
C605 C599 1.491 . S
C605 C604 1.400 . S
C605 C606 1.398 . S
C606 H594 0.950 . S
C606 C605 1.398 . S
C606 C607 1.391 . S
C607 H595 0.950 . S
C607 C603 1.393 . S
C607 C606 1.391 . S
H608 C616 0.950 . S
H609 C621 0.950 . S
H610 C618 0.950 . S
H611 C620 0.950 . S
H612 C622 0.950 . S
H613 C624 0.950 . S
H614 C626 0.950 . S
H615 C627 0.950 . S
C616 H608 0.950 . S
C616 C617 1.386 . S
C616 C618 1.391 . S
C617 C616 1.386 . S
C617 C621 1.393 . S
C618 H610 0.950 . S
C618 C616 1.391 . S
C618 C619 1.400 . S
C619 C618 1.400 . S
C619 C620 1.398 . S
C619 C625 1.491 . S
C620 H611 0.950 . S
C620 C619 1.398 . S
C620 C621 1.391 . S
C621 H609 0.950 . S
C621 C617 1.393 . S
C621 C620 1.391 . S
C622 H612 0.950 . S
C622 C623 1.386 . S
C622 C624 1.391 . S
C623 C622 1.386 . S
C623 C627 1.393 . S
C624 H613 0.950 . S
C624 C622 1.391 . S
C624 C625 1.400 . S
C625 C619 1.491 . S
C625 C624 1.400 . S
C625 C626 1.398 . S
C626 H614 0.950 . S
C626 C625 1.398 . S
C626 C627 1.391 . S
C627 H615 0.950 . S
C627 C623 1.393 . S
C627 C626 1.391 . S
H628 C636 0.950 . S
H629 C641 0.950 . S
H630 C638 0.950 . S
H631 C640 0.950 . S
H632 C642 0.950 . S
H633 C644 0.950 . S
H634 C646 0.950 . S
H635 C647 0.950 . S
C636 H628 0.950 . S
C636 C637 1.386 . S
C636 C638 1.391 . S
C637 C636 1.386 . S
C637 C641 1.393 . S
C638 H630 0.950 . S
C638 C636 1.391 . S
C638 C639 1.400 . S
C639 C638 1.400 . S
C639 C640 1.398 . S
C639 C645 1.491 . S
C640 H631 0.950 . S
C640 C639 1.398 . S
C640 C641 1.391 . S
C641 H629 0.950 . S
C641 C637 1.393 . S
C641 C640 1.391 . S
C642 H632 0.950 . S
C642 C643 1.386 . S
C642 C644 1.391 . S
C643 C642 1.386 . S
C643 C647 1.393 . S
C644 H633 0.950 . S
C644 C642 1.391 . S
C644 C645 1.400 . S
C645 C639 1.491 . S
C645 C644 1.400 . S
C645 C646 1.398 . S
C646 H634 0.950 . S
C646 C645 1.398 . S
C646 C647 1.391 . S
C647 H635 0.950 . S
C647 C643 1.393 . S
C647 C646 1.391 . S
H648 C656 0.950 . S
H649 C661 0.950 . S
H650 C658 0.950 . S
H651 C660 0.950 . S
H652 C662 0.950 . S
H653 C664 0.950 . S
H654 C666 0.950 . S
H655 C667 0.950 . S
C656 H648 0.950 . S
C656 C657 1.386 . S
C656 C658 1.391 . S
C657 C656 1.386 . S
C657 C661 1.393 . S
C658 H650 0.950 . S
C658 C656 1.391 . S
C658 C659 1.400 . S
C659 C658 1.400 . S
C659 C660 1.398 . S
C659 C665 1.491 . S
C660 H651 0.950 . S
C660 C659 1.398 . S
C660 C661 1.391 . S
C661 H649 0.950 . S
C661 C657 1.393 . S
C661 C660 1.391 . S
C662 H652 0.950 . S
C662 C663 1.386 . S
C662 C664 1.391 . S
C663 C662 1.386 . S
C663 C667 1.393 . S
C664 H653 0.950 . S
C664 C662 1.391 . S
C664 C665 1.400 . S
C665 C659 1.491 . S
C665 C664 1.400 . S
C665 C666 1.398 . S
C666 H654 0.950 . S
C666 C665 1.398 . S
C666 C667 1.391 . S
C667 H655 0.950 . S
C667 C663 1.393 . S
C667 C666 1.391 . S
H668 C676 0.950 . S
H669 C681 0.950 . S
H670 C678 0.950 . S
H671 C680 0.950 . S
H672 C682 0.950 . S
H673 C684 0.950 . S
H674 C686 0.950 . S
H675 C687 0.950 . S
C676 H668 0.950 . S
C676 C677 1.386 . S
C676 C678 1.391 . S
C677 C676 1.386 . S
C677 C681 1.393 . S
C678 H670 0.950 . S
C678 C676 1.391 . S
C678 C679 1.400 . S
C679 C678 1.400 . S
C679 C680 1.398 . S
C679 C685 1.491 . S
C680 H671 0.950 . S
C680 C679 1.398 . S
C680 C681 1.391 . S
C681 H669 0.950 . S
C681 C677 1.393 . S
C681 C680 1.391 . S
C682 H672 0.950 . S
C682 C683 1.386 . S
C682 C684 1.391 . S
C683 C682 1.386 . S
C683 C687 1.393 . S
C684 H673 0.950 . S
C684 C682 1.391 . S
C684 C685 1.400 . S
C685 C679 1.491 . S
C685 C684 1.400 . S
C685 C686 1.398 . S
C686 H674 0.950 . S
C686 C685 1.398 . S
C686 C687 1.391 . S
C687 H675 0.950 . S
C687 C683 1.393 . S
C687 C686 1.391 . S
H688 C696 0.950 . S
H689 C701 0.950 . S
H690 C698 0.950 . S
H691 C700 0.950 . S
H692 C702 0.950 . S
H693 C704 0.950 . S
H694 C706 0.950 . S
H695 C707 0.950 . S
C696 H688 0.950 . S
C696 C697 1.386 . S
C696 C698 1.391 . S
C697 C696 1.386 . S
C697 C701 1.393 . S
C698 H690 0.950 . S
C698 C696 1.391 . S
C698 C699 1.400 . S
C699 C698 1.400 . S
C699 C700 1.398 . S
C699 C705 1.491 . S
C700 H691 0.950 . S
C700 C699 1.398 . S
C700 C701 1.391 . S
C701 H689 0.950 . S
C701 C697 1.393 . S
C701 C700 1.391 . S
C702 H692 0.950 . S
C702 C703 1.386 . S
C702 C704 1.391 1_556 S
C703 C702 1.386 . S
C703 C707 1.393 . S
C704 H693 0.950 . S
C704 C702 1.391 1_554 S
C704 C705 1.400 . S
C705 C699 1.491 . S
C705 C704 1.400 . S
C705 C706 1.398 . S
C706 H694 0.950 . S
C706 C705 1.398 . S
C706 C707 1.391 1_554 S
C707 H695 0.950 . S
C707 C703 1.393 . S
C707 C706 1.391 1_556 S
H708 C716 0.950 . S
H709 C721 0.950 . S
H710 C718 0.950 . S
H711 C720 0.950 . S
H712 C722 0.950 . S
H713 C724 0.950 . S
H714 C726 0.956 . S
H715 C727 0.950 . S
C716 H708 0.950 . S
C716 C717 1.386 . S
C716 C718 1.391 . S
C717 C716 1.386 . S
C717 C721 1.393 . S
C718 H710 0.950 . S
C718 C716 1.391 . S
C718 C719 1.400 . S
C719 C718 1.400 . S
C719 C720 1.398 . S
C719 C725 1.491 . S
C720 H711 0.950 . S
C720 C719 1.398 . S
C720 C721 1.391 . S
C721 H709 0.950 . S
C721 C717 1.393 . S
C721 C720 1.391 . S
C722 H712 0.950 . S
C722 C723 1.386 . S
C722 C724 1.391 1_556 S
C723 C722 1.386 . S
C723 C727 1.393 . S
C724 H713 0.950 . S
C724 C722 1.391 1_554 S
C724 C725 1.400 . S
C725 C719 1.491 . S
C725 C724 1.400 . S
C725 C726 1.409 . S
C726 H714 0.956 . S
C726 C725 1.409 . S
C726 C727 1.375 1_554 S
C727 H715 0.950 . S
C727 C723 1.393 . S
C727 C726 1.375 1_556 S
H728 C736 0.950 . S
H729 C741 0.950 . S
H730 C738 0.950 . S
H731 C740 0.950 . S
H732 C742 0.950 . S
H733 C744 0.950 . S
H734 C746 0.950 . S
H735 C747 0.950 . S
C736 H728 0.950 . S
C736 C737 1.386 . S
C736 C738 1.391 . S
C737 C736 1.386 . S
C737 C741 1.393 . S
C738 H730 0.950 . S
C738 C736 1.391 . S
C738 C739 1.400 . S
C739 C738 1.400 . S
C739 C740 1.398 . S
C739 C745 1.491 . S
C740 H731 0.950 . S
C740 C739 1.398 . S
C740 C741 1.391 . S
C741 H729 0.950 . S
C741 C737 1.393 . S
C741 C740 1.391 . S
C742 H732 0.950 . S
C742 C743 1.386 . S
C742 C744 1.391 1_556 S
C743 C742 1.386 . S
C743 C747 1.393 . S
C744 H733 0.950 . S
C744 C742 1.391 1_554 S
C744 C745 1.400 . S
C745 C739 1.491 . S
C745 C744 1.400 . S
C745 C746 1.398 . S
C746 H734 0.950 . S
C746 C745 1.398 . S
C746 C747 1.391 1_554 S
C747 H735 0.950 . S
C747 C743 1.393 . S
C747 C746 1.391 1_556 S
H748 C756 0.950 . S
H749 C761 0.950 . S
H750 C758 0.950 . S
H751 C760 0.950 . S
H752 C762 0.950 . S
H753 C764 0.951 . S
H754 C766 0.950 . S
H755 C767 0.950 . S
C756 H748 0.950 . S
C756 C757 1.386 . S
C756 C758 1.391 . S
C757 C756 1.386 . S
C757 C761 1.393 . S
C758 H750 0.950 . S
C758 C756 1.391 . S
C758 C759 1.400 . S
C759 C758 1.400 . S
C759 C760 1.398 . S
C759 C765 1.491 . S
C760 H751 0.950 . S
C760 C759 1.398 . S
C760 C761 1.391 . S
C761 H749 0.950 . S
C761 C757 1.393 . S
C761 C760 1.391 . S
C762 H752 0.950 . S
C762 C763 1.386 . S
C762 C764 1.387 1_556 S
C763 C762 1.386 . S
C763 C767 1.393 . S
C764 H753 0.951 . S
C764 C762 1.387 1_554 S
C764 C765 1.403 . S
C765 C759 1.491 . S
C765 C764 1.403 . S
C765 C766 1.398 . S
C766 H754 0.950 . S
C766 C765 1.398 . S
C766 C767 1.391 1_554 S
C767 H755 0.950 . S
C767 C763 1.393 . S
C767 C766 1.391 1_556 S
H768 C776 0.950 . S
H769 C781 0.950 . S
H770 C778 0.950 . S
H771 C780 0.950 . S
H772 C782 0.950 . S
H773 C784 0.950 . S
H774 C786 0.950 . S
H775 C787 0.950 . S
C776 H768 0.950 . S
C776 C777 1.386 . S
C776 C778 1.391 1_554 S
C777 C776 1.386 . S
C777 C781 1.393 . S
C778 H770 0.950 . S
C778 C776 1.391 1_556 S
C778 C779 1.400 . S
C779 C778 1.400 . S
C779 C780 1.398 . S
C779 C785 1.491 . S
C780 H771 0.950 . S
C780 C779 1.398 . S
C780 C781 1.391 1_556 S
C781 H769 0.950 . S
C781 C777 1.393 . S
C781 C780 1.391 1_554 S
C782 H772 0.950 . S
C782 C783 1.386 . S
C782 C784 1.391 . S
C783 C782 1.386 . S
C783 C787 1.393 . S
C784 H773 0.950 . S
C784 C782 1.391 . S
C784 C785 1.400 . S
C785 C779 1.491 . S
C785 C784 1.400 . S
C785 C786 1.398 . S
C786 H774 0.950 . S
C786 C785 1.398 . S
C786 C787 1.391 . S
C787 H775 0.950 . S
C787 C783 1.393 . S
C787 C786 1.391 . S
H788 C796 0.950 . S
H789 C801 0.950 . S
H790 C798 0.950 . S
H791 C800 0.955 . S
H792 C802 0.950 . S
H793 C804 0.950 . S
H794 C806 0.950 . S
H795 C807 0.950 . S
C796 H788 0.950 . S
C796 C797 1.386 . S
C796 C798 1.391 1_554 S
C797 C796 1.386 . S
C797 C801 1.393 . S
C798 H790 0.950 . S
C798 C796 1.391 1_556 S
C798 C799 1.400 . S
C799 C798 1.400 . S
C799 C800 1.407 . S
C799 C805 1.491 . S
C800 H791 0.955 . S
C800 C799 1.407 . S
C800 C801 1.378 1_556 S
C801 H789 0.950 . S
C801 C797 1.393 . S
C801 C800 1.378 1_554 S
C802 H792 0.950 . S
C802 C803 1.386 . S
C802 C804 1.391 . S
C803 C802 1.386 . S
C803 C807 1.393 . S
C804 H793 0.950 . S
C804 C802 1.391 . S
C804 C805 1.400 . S
C805 C799 1.491 . S
C805 C804 1.400 . S
C805 C806 1.398 . S
C806 H794 0.950 . S
C806 C805 1.398 . S
C806 C807 1.391 . S
C807 H795 0.950 . S
C807 C803 1.393 . S
C807 C806 1.391 . S
H808 C816 0.950 . S
H809 C821 0.950 . S
H810 C818 0.950 . S
H811 C820 0.950 . S
H812 C822 0.950 . S
H813 C824 0.950 . S
H814 C826 0.950 . S
H815 C827 0.950 . S
C816 H808 0.950 . S
C816 C817 1.386 . S
C816 C818 1.391 1_554 S
C817 C816 1.386 . S
C817 C821 1.393 . S
C818 H810 0.950 . S
C818 C816 1.391 1_556 S
C818 C819 1.400 . S
C819 C818 1.400 . S
C819 C820 1.398 . S
C819 C825 1.491 . S
C820 H811 0.950 . S
C820 C819 1.398 . S
C820 C821 1.391 1_556 S
C821 H809 0.950 . S
C821 C817 1.393 . S
C821 C820 1.391 1_554 S
C822 H812 0.950 . S
C822 C823 1.386 . S
C822 C824 1.391 . S
C823 C822 1.386 . S
C823 C827 1.393 . S
C824 H813 0.950 . S
C824 C822 1.391 . S
C824 C825 1.400 . S
C825 C819 1.491 . S
C825 C824 1.400 . S
C825 C826 1.398 . S
C826 H814 0.950 . S
C826 C825 1.398 . S
C826 C827 1.391 . S
C827 H815 0.950 . S
C827 C823 1.393 . S
C827 C826 1.391 . S
H828 C836 0.950 . S
H829 C841 0.950 . S
H830 C838 0.950 . S
H831 C840 0.950 . S
H832 C842 0.950 . S
H833 C844 0.950 . S
H834 C846 0.950 . S
H835 C847 0.950 . S
C836 H828 0.950 . S
C836 C837 1.386 . S
C836 C838 1.391 1_554 S
C837 C836 1.386 . S
C837 C841 1.393 . S
C838 H830 0.950 . S
C838 C836 1.391 1_556 S
C838 C839 1.400 . S
C839 C838 1.400 . S
C839 C840 1.398 . S
C839 C845 1.491 . S
C840 H831 0.950 . S
C840 C839 1.398 . S
C840 C841 1.391 1_556 S
C841 H829 0.950 . S
C841 C837 1.393 . S
C841 C840 1.391 1_554 S
C842 H832 0.950 . S
C842 C843 1.386 . S
C842 C844 1.391 . S
C843 C842 1.386 . S
C843 C847 1.393 . S
C844 H833 0.950 . S
C844 C842 1.391 . S
C844 C845 1.400 . S
C845 C839 1.491 . S
C845 C844 1.400 . S
C845 C846 1.398 . S
C846 H834 0.950 . S
C846 C845 1.398 . S
C846 C847 1.391 . S
C847 H835 0.950 . S
C847 C843 1.393 . S
C847 C846 1.391 . S
H848 C856 0.950 . S
H849 C861 0.950 . S
H850 C858 0.950 . S
H851 C860 0.950 . S
H852 C862 0.950 . S
H853 C864 0.950 . S
H854 C866 0.950 . S
H855 C867 0.950 . S
C856 H848 0.950 . S
C856 C857 1.386 . S
C856 C858 1.391 . S
C857 C856 1.386 . S
C857 C861 1.393 . S
C858 H850 0.950 . S
C858 C856 1.391 . S
C858 C859 1.400 . S
C859 C858 1.400 . S
C859 C860 1.398 . S
C859 C865 1.491 . S
C860 H851 0.950 . S
C860 C859 1.398 . S
C860 C861 1.391 . S
C861 H849 0.950 . S
C861 C857 1.393 . S
C861 C860 1.391 . S
C862 H852 0.950 . S
C862 C863 1.386 . S
C862 C864 1.391 . S
C863 C862 1.386 . S
C863 C867 1.393 . S
C864 H853 0.950 . S
C864 C862 1.391 . S
C864 C865 1.400 . S
C865 C859 1.491 . S
C865 C864 1.400 . S
C865 C866 1.398 . S
C866 H854 0.950 . S
C866 C865 1.398 . S
C866 C867 1.391 . S
C867 H855 0.950 . S
C867 C863 1.393 . S
C867 C866 1.391 . S
H868 C876 0.950 . S
H869 C881 0.950 . S
H870 C878 0.950 . S
H871 C880 0.950 . S
H872 C882 0.950 . S
H873 C884 0.950 . S
H874 C886 0.950 . S
H875 C887 0.950 . S
C876 H868 0.950 . S
C876 C877 1.386 . S
C876 C878 1.391 . S
C877 C876 1.386 . S
C877 C881 1.393 . S
C878 H870 0.950 . S
C878 C876 1.391 . S
C878 C879 1.400 . S
C879 C878 1.400 . S
C879 C880 1.398 . S
C879 C885 1.491 . S
C880 H871 0.950 . S
C880 C879 1.398 . S
C880 C881 1.391 . S
C881 H869 0.950 . S
C881 C877 1.393 . S
C881 C880 1.391 . S
C882 H872 0.950 . S
C882 C883 1.386 . S
C882 C884 1.391 . S
C883 C882 1.386 . S
C883 C887 1.393 . S
C884 H873 0.950 . S
C884 C882 1.391 . S
C884 C885 1.400 . S
C885 C879 1.491 . S
C885 C884 1.400 . S
C885 C886 1.398 . S
C886 H874 0.950 . S
C886 C885 1.398 . S
C886 C887 1.391 . S
C887 H875 0.950 . S
C887 C883 1.393 . S
C887 C886 1.391 . S
H888 C896 0.950 . S
H889 C901 0.950 . S
H890 C898 0.950 . S
H891 C900 0.950 . S
H892 C902 0.950 . S
H893 C904 0.950 . S
H894 C906 0.950 . S
H895 C907 0.950 . S
C896 H888 0.950 . S
C896 C897 1.386 . S
C896 C898 1.391 . S
C897 C896 1.386 . S
C897 C901 1.393 . S
C898 H890 0.950 . S
C898 C896 1.391 . S
C898 C899 1.400 . S
C899 C898 1.400 . S
C899 C900 1.398 . S
C899 C905 1.491 . S
C900 H891 0.950 . S
C900 C899 1.398 . S
C900 C901 1.391 . S
C901 H889 0.950 . S
C901 C897 1.393 . S
C901 C900 1.391 . S
C902 H892 0.950 . S
C902 C903 1.386 . S
C902 C904 1.391 . S
C903 C902 1.386 . S
C903 C907 1.393 . S
C904 H893 0.950 . S
C904 C902 1.391 . S
C904 C905 1.400 . S
C905 C899 1.491 . S
C905 C904 1.400 . S
C905 C906 1.398 . S
C906 H894 0.950 . S
C906 C905 1.398 . S
C906 C907 1.391 . S
C907 H895 0.950 . S
C907 C903 1.393 . S
C907 C906 1.391 . S
H908 C916 0.950 . S
H909 C921 0.950 . S
H910 C918 0.950 . S
H911 C920 0.950 . S
H912 C922 0.950 . S
H913 C924 0.950 . S
H914 C926 0.950 . S
H915 C927 0.950 . S
C916 H908 0.950 . S
C916 C917 1.386 . S
C916 C918 1.391 . S
C917 C916 1.386 . S
C917 C921 1.393 . S
C918 H910 0.950 . S
C918 C916 1.391 . S
C918 C919 1.400 . S
C919 C918 1.400 . S
C919 C920 1.398 . S
C919 C925 1.491 . S
C920 H911 0.950 . S
C920 C919 1.398 . S
C920 C921 1.391 . S
C921 H909 0.950 . S
C921 C917 1.393 . S
C921 C920 1.391 . S
C922 H912 0.950 . S
C922 C923 1.386 . S
C922 C924 1.391 . S
C923 C922 1.386 . S
C923 C927 1.393 . S
C924 H913 0.950 . S
C924 C922 1.391 . S
C924 C925 1.400 . S
C925 C919 1.491 . S
C925 C924 1.400 . S
C925 C926 1.398 . S
C926 H914 0.950 . S
C926 C925 1.398 . S
C926 C927 1.391 . S
C927 H915 0.950 . S
C927 C923 1.393 . S
C927 C926 1.391 . S
H928 C936 0.950 . S
H929 C941 0.950 . S
H930 C938 0.950 . S
H931 C940 0.950 . S
H932 C942 0.950 . S
H933 C944 0.950 . S
H934 C946 0.950 . S
H935 C947 0.950 . S
C936 H928 0.950 . S
C936 C937 1.386 . S
C936 C938 1.391 . S
C937 C936 1.386 . S
C937 C941 1.393 . S
C938 H930 0.950 . S
C938 C936 1.391 . S
C938 C939 1.400 . S
C939 C938 1.400 . S
C939 C940 1.398 . S
C939 C945 1.491 . S
C940 H931 0.950 . S
C940 C939 1.398 . S
C940 C941 1.391 . S
C941 H929 0.950 . S
C941 C937 1.393 . S
C941 C940 1.391 . S
C942 H932 0.950 . S
C942 C943 1.386 . S
C942 C944 1.391 . S
C943 C942 1.386 . S
C943 C947 1.393 . S
C944 H933 0.950 . S
C944 C942 1.391 . S
C944 C945 1.400 . S
C945 C939 1.491 . S
C945 C944 1.400 . S
C945 C946 1.398 . S
C946 H934 0.950 . S
C946 C945 1.398 . S
C946 C947 1.391 . S
C947 H935 0.950 . S
C947 C943 1.393 . S
C947 C946 1.391 . S
H948 C956 0.950 . S
H949 C961 0.950 . S
H950 C958 0.950 . S
H951 C960 0.950 . S
H952 C962 0.950 . S
H953 C964 0.950 . S
H954 C966 0.950 . S
H955 C967 0.950 . S
C956 H948 0.950 . S
C956 C957 1.386 . S
C956 C958 1.391 . S
C957 C956 1.386 . S
C957 C961 1.393 . S
C958 H950 0.950 . S
C958 C956 1.391 . S
C958 C959 1.400 . S
C959 C958 1.400 . S
C959 C960 1.398 . S
C959 C965 1.491 . S
C960 H951 0.950 . S
C960 C959 1.398 . S
C960 C961 1.391 . S
C961 H949 0.950 . S
C961 C957 1.393 . S
C961 C960 1.391 . S
C962 H952 0.950 . S
C962 C963 1.386 . S
C962 C964 1.391 . S
C963 C962 1.386 . S
C963 C967 1.393 . S
C964 H953 0.950 . S
C964 C962 1.391 . S
C964 C965 1.400 . S
C965 C959 1.491 . S
C965 C964 1.400 . S
C965 C966 1.398 . S
C966 H954 0.950 . S
C966 C965 1.398 . S
C966 C967 1.391 . S
C967 H955 0.950 . S
C967 C963 1.393 . S
C967 C966 1.391 . S
H968 C976 0.950 . S
H969 C981 0.950 . S
H970 C978 0.950 . S
H971 C980 0.950 . S
H972 C982 0.950 . S
H973 C984 0.950 . S
H974 C986 0.950 . S
H975 C987 0.950 . S
C976 H968 0.950 . S
C976 C977 1.386 . S
C976 C978 1.391 . S
C977 C976 1.386 . S
C977 C981 1.393 . S
C978 H970 0.950 . S
C978 C976 1.391 . S
C978 C979 1.400 . S
C979 C978 1.400 . S
C979 C980 1.398 . S
C979 C985 1.491 . S
C980 H971 0.950 . S
C980 C979 1.398 . S
C980 C981 1.391 . S
C981 H969 0.950 . S
C981 C977 1.393 . S
C981 C980 1.391 . S
C982 H972 0.950 . S
C982 C983 1.386 . S
C982 C984 1.391 . S
C983 C982 1.386 . S
C983 C987 1.393 . S
C984 H973 0.950 . S
C984 C982 1.391 . S
C984 C985 1.400 . S
C985 C979 1.491 . S
C985 C984 1.400 . S
C985 C986 1.398 . S
C986 H974 0.950 . S
C986 C985 1.398 . S
C986 C987 1.391 . S
C987 H975 0.950 . S
C987 C983 1.393 . S
C987 C986 1.391 . S
H988 C996 0.950 . S
H989 C1001 0.950 . S
H990 C998 0.950 . S
H991 C1000 0.950 . S
H992 C1002 0.950 . S
H993 C1004 0.950 . S
H994 C1006 0.950 . S
H995 C1007 0.950 . S
C996 H988 0.950 . S
C996 C997 1.386 . S
C996 C998 1.391 . S
C997 C996 1.386 . S
C997 C1001 1.393 . S
C998 H990 0.950 . S
C998 C996 1.391 . S
C998 C999 1.400 . S
C999 C998 1.400 . S
C999 C1000 1.398 . S
C999 C1005 1.491 . S
C1000 H991 0.950 . S
C1000 C999 1.398 . S
C1000 C1001 1.391 . S
C1001 H989 0.950 . S
C1001 C997 1.393 . S
C1001 C1000 1.391 . S
C1002 H992 0.950 . S
C1002 C1003 1.386 . S
C1002 C1004 1.391 . S
C1003 C1002 1.386 . S
C1003 C1007 1.393 . S
C1004 H993 0.950 . S
C1004 C1002 1.391 . S
C1004 C1005 1.400 . S
C1005 C999 1.491 . S
C1005 C1004 1.400 . S
C1005 C1006 1.398 . S
C1006 H994 0.950 . S
C1006 C1005 1.398 . S
C1006 C1007 1.391 . S
C1007 H995 0.950 . S
C1007 C1003 1.393 . S
C1007 C1006 1.391 . S
H1008 C1016 0.950 . S
H1009 C1021 0.950 . S
H1010 C1018 0.950 . S
H1011 C1020 0.950 . S
H1012 C1022 0.950 . S
H1013 C1024 0.950 . S
H1014 C1026 0.950 . S
H1015 C1027 0.950 . S
C1016 H1008 0.950 . S
C1016 C1017 1.386 . S
C1016 C1018 1.391 . S
C1017 C1016 1.386 . S
C1017 C1021 1.393 . S
C1018 H1010 0.950 . S
C1018 C1016 1.391 . S
C1018 C1019 1.400 . S
C1019 C1018 1.400 . S
C1019 C1020 1.398 1_554 S
C1019 C1025 1.491 1_544 S
C1020 H1011 0.950 . S
C1020 C1019 1.398 1_556 S
C1020 C1021 1.391 1_556 S
C1021 H1009 0.950 . S
C1021 C1017 1.393 . S
C1021 C1020 1.391 1_554 S
C1022 H1012 0.950 . S
C1022 C1023 1.386 . S
C1022 C1024 1.391 . S
C1023 C1022 1.386 . S
C1023 C1027 1.393 . S
C1024 H1013 0.950 . S
C1024 C1022 1.391 . S
C1024 C1025 1.400 . S
C1025 C1019 1.491 1_566 S
C1025 C1024 1.400 . S
C1025 C1026 1.398 1_556 S
C1026 H1014 0.950 . S
C1026 C1025 1.398 1_554 S
C1026 C1027 1.391 1_554 S
C1027 H1015 0.950 . S
C1027 C1023 1.393 . S
C1027 C1026 1.391 1_556 S
H1028 C1036 0.950 . S
H1029 C1041 0.950 . S
H1030 C1038 0.950 . S
H1031 C1040 0.950 . S
H1032 C1042 0.950 . S
H1033 C1044 0.950 . S
H1034 C1046 0.950 . S
H1035 C1047 0.950 . S
C1036 H1028 0.950 . S
C1036 C1037 1.386 . S
C1036 C1038 1.391 . S
C1037 C1036 1.386 . S
C1037 C1041 1.393 1_556 S
C1038 H1030 0.950 . S
C1038 C1036 1.391 . S
C1038 C1039 1.400 . S
C1039 C1038 1.400 . S
C1039 C1040 1.398 1_556 S
C1039 C1045 1.491 1_456 S
C1040 H1031 0.950 . S
C1040 C1039 1.398 1_554 S
C1040 C1041 1.391 . S
C1041 H1029 0.950 . S
C1041 C1037 1.393 1_554 S
C1041 C1040 1.391 . S
C1042 H1032 0.950 . S
C1042 C1043 1.386 . S
C1042 C1044 1.391 . S
C1043 C1042 1.386 . S
C1043 C1047 1.393 1_554 S
C1044 H1033 0.950 . S
C1044 C1042 1.391 . S
C1044 C1045 1.400 . S
C1045 C1039 1.491 1_654 S
C1045 C1044 1.400 . S
C1045 C1046 1.398 1_554 S
C1046 H1034 0.950 . S
C1046 C1045 1.398 1_556 S
C1046 C1047 1.391 . S
C1047 H1035 0.950 . S
C1047 C1043 1.393 1_556 S
C1047 C1046 1.391 . S
H1048 C1056 0.950 . S
H1049 C1061 0.950 . S
H1050 C1058 0.950 . S
H1051 C1060 0.950 1_556 S
H1052 C1062 0.950 . S
H1053 C1064 0.950 . S
H1054 C1066 0.950 1_554 S
H1055 C1067 0.950 . S
C1056 H1048 0.950 . S
C1056 C1057 1.386 . S
C1056 C1058 1.391 . S
C1057 C1056 1.386 . S
C1057 C1061 1.393 . S
C1058 H1050 0.950 . S
C1058 C1056 1.391 . S
C1058 C1059 1.400 . S
C1059 C1058 1.400 . S
C1059 C1060 1.398 . S
C1059 C1065 1.491 1_564 S
C1060 H1051 0.950 1_554 S
C1060 C1059 1.398 . S
C1060 C1061 1.391 . S
C1061 H1049 0.950 . S
C1061 C1057 1.393 . S
C1061 C1060 1.391 . S
C1062 H1052 0.950 . S
C1062 C1063 1.386 . S
C1062 C1064 1.391 . S
C1063 C1062 1.386 . S
C1063 C1067 1.393 . S
C1064 H1053 0.950 . S
C1064 C1062 1.391 . S
C1064 C1065 1.400 . S
C1065 C1059 1.491 1_546 S
C1065 C1064 1.400 . S
C1065 C1066 1.398 . S
C1066 H1054 0.950 1_556 S
C1066 C1065 1.398 . S
C1066 C1067 1.391 . S
C1067 H1055 0.950 . S
C1067 C1063 1.393 . S
C1067 C1066 1.391 . S
H1068 C1076 0.950 . S
H1069 C1081 0.950 . S
H1070 C1078 0.950 . S
H1071 C1080 0.950 . S
H1072 C1082 0.950 . S
H1073 C1084 0.950 . S
H1074 C1086 0.950 . S
H1075 C1087 0.950 . S
C1076 H1068 0.950 . S
C1076 C1077 1.386 1_554 S
C1076 C1078 1.391 . S
C1077 C1076 1.386 1_556 S
C1077 C1081 1.393 . S
C1078 H1070 0.950 . S
C1078 C1076 1.391 . S
C1078 C1079 1.400 1_554 S
C1079 C1078 1.400 1_556 S
C1079 C1080 1.398 . S
C1079 C1085 1.491 1_656 S
C1080 H1071 0.950 . S
C1080 C1079 1.398 . S
C1080 C1081 1.391 . S
C1081 H1069 0.950 . S
C1081 C1077 1.393 . S
C1081 C1080 1.391 . S
C1082 H1072 0.950 . S
C1082 C1083 1.386 1_556 S
C1082 C1084 1.391 . S
C1083 C1082 1.386 1_554 S
C1083 C1087 1.393 . S
C1084 H1073 0.950 . S
C1084 C1082 1.391 . S
C1084 C1085 1.400 1_556 S
C1085 C1079 1.491 1_454 S
C1085 C1084 1.400 1_554 S
C1085 C1086 1.398 . S
C1086 H1074 0.950 . S
C1086 C1085 1.398 . S
C1086 C1087 1.391 . S
C1087 H1075 0.950 . S
C1087 C1083 1.393 . S
C1087 C1086 1.391 . S
H1088 C1096 0.950 . S
H1089 C1101 0.950 . S
H1090 C1098 0.950 . S
H1091 C1100 0.950 . S
H1092 C1102 0.950 . S
H1093 C1104 0.950 . S
H1094 C1106 0.950 . S
H1095 C1107 0.950 . S
C1096 H1088 0.950 . S
C1096 C1097 1.386 . S
C1096 C1098 1.391 . S
C1097 C1096 1.386 . S
C1097 C1101 1.393 . S
C1098 H1090 0.950 . S
C1098 C1096 1.391 . S
C1098 C1099 1.400 . S
C1099 C1098 1.400 . S
C1099 C1100 1.398 . S
C1099 C1105 1.491 . S
C1100 H1091 0.950 . S
C1100 C1099 1.398 . S
C1100 C1101 1.391 . S
C1101 H1089 0.950 . S
C1101 C1097 1.393 . S
C1101 C1100 1.391 . S
C1102 H1092 0.950 . S
C1102 C1103 1.386 . S
C1102 C1104 1.391 . S
C1103 C1102 1.386 . S
C1103 C1107 1.393 . S
C1104 H1093 0.950 . S
C1104 C1102 1.391 . S
C1104 C1105 1.400 . S
C1105 C1099 1.491 . S
C1105 C1104 1.400 . S
C1105 C1106 1.398 . S
C1106 H1094 0.950 . S
C1106 C1105 1.398 . S
C1106 C1107 1.391 . S
C1107 H1095 0.950 . S
C1107 C1103 1.393 . S
C1107 C1106 1.391 . S
H1108 C1116 0.950 . S
H1109 C1121 0.950 . S
H1110 C1118 0.950 . S
H1111 C1120 0.950 . S
H1112 C1122 0.950 . S
H1113 C1124 0.950 . S
H1114 C1126 0.950 . S
H1115 C1127 0.950 . S
C1116 H1108 0.950 . S
C1116 C1117 1.386 . S
C1116 C1118 1.391 . S
C1117 C1116 1.386 . S
C1117 C1121 1.393 . S
C1118 H1110 0.950 . S
C1118 C1116 1.391 . S
C1118 C1119 1.400 . S
C1119 C1118 1.400 . S
C1119 C1120 1.398 . S
C1119 C1125 1.491 . S
C1120 H1111 0.950 . S
C1120 C1119 1.398 . S
C1120 C1121 1.391 . S
C1121 H1109 0.950 . S
C1121 C1117 1.393 . S
C1121 C1120 1.391 . S
C1122 H1112 0.950 . S
C1122 C1123 1.386 . S
C1122 C1124 1.391 . S
C1123 C1122 1.386 . S
C1123 C1127 1.393 . S
C1124 H1113 0.950 . S
C1124 C1122 1.391 . S
C1124 C1125 1.400 . S
C1125 C1119 1.491 . S
C1125 C1124 1.400 . S
C1125 C1126 1.398 . S
C1126 H1114 0.950 . S
C1126 C1125 1.398 . S
C1126 C1127 1.391 . S
C1127 H1115 0.950 . S
C1127 C1123 1.393 . S
C1127 C1126 1.391 . S
H1128 C1136 0.950 . S
H1129 C1141 0.950 . S
H1130 C1138 0.950 . S
H1131 C1140 0.950 . S
H1132 C1142 0.950 . S
H1133 C1144 0.950 . S
H1134 C1146 0.950 . S
H1135 C1147 0.950 . S
C1136 H1128 0.950 . S
C1136 C1137 1.386 . S
C1136 C1138 1.391 . S
C1137 C1136 1.386 . S
C1137 C1141 1.393 . S
C1138 H1130 0.950 . S
C1138 C1136 1.391 . S
C1138 C1139 1.400 . S
C1139 C1138 1.400 . S
C1139 C1140 1.398 . S
C1139 C1145 1.491 . S
C1140 H1131 0.950 . S
C1140 C1139 1.398 . S
C1140 C1141 1.391 . S
C1141 H1129 0.950 . S
C1141 C1137 1.393 . S
C1141 C1140 1.391 . S
C1142 H1132 0.950 . S
C1142 C1143 1.386 . S
C1142 C1144 1.391 . S
C1143 C1142 1.386 . S
C1143 C1147 1.393 . S
C1144 H1133 0.950 . S
C1144 C1142 1.391 . S
C1144 C1145 1.400 . S
C1145 C1139 1.491 . S
C1145 C1144 1.400 . S
C1145 C1146 1.398 . S
C1146 H1134 0.950 . S
C1146 C1145 1.398 . S
C1146 C1147 1.391 . S
C1147 H1135 0.950 . S
C1147 C1143 1.393 . S
C1147 C1146 1.391 . S
H1148 C1156 0.950 . S
H1149 C1161 0.950 . S
H1150 C1158 0.950 . S
H1151 C1160 0.950 . S
H1152 C1162 0.950 . S
H1153 C1164 0.950 . S
H1154 C1166 0.950 . S
H1155 C1167 0.950 . S
C1156 H1148 0.950 . S
C1156 C1157 1.386 . S
C1156 C1158 1.391 . S
C1157 C1156 1.386 . S
C1157 C1161 1.393 . S
C1158 H1150 0.950 . S
C1158 C1156 1.391 . S
C1158 C1159 1.400 . S
C1159 C1158 1.400 . S
C1159 C1160 1.398 . S
C1159 C1165 1.491 . S
C1160 H1151 0.950 . S
C1160 C1159 1.398 . S
C1160 C1161 1.391 . S
C1161 H1149 0.950 . S
C1161 C1157 1.393 . S
C1161 C1160 1.391 . S
C1162 H1152 0.950 . S
C1162 C1163 1.386 . S
C1162 C1164 1.391 . S
C1163 C1162 1.386 . S
C1163 C1167 1.393 . S
C1164 H1153 0.950 . S
C1164 C1162 1.391 . S
C1164 C1165 1.400 . S
C1165 C1159 1.491 . S
C1165 C1164 1.400 . S
C1165 C1166 1.398 . S
C1166 H1154 0.950 . S
C1166 C1165 1.398 . S
C1166 C1167 1.391 . S
C1167 H1155 0.950 . S
C1167 C1163 1.393 . S
C1167 C1166 1.391 . S
H1168 C1176 0.950 . S
H1169 C1181 0.950 . S
H1170 C1178 0.950 . S
H1171 C1180 0.950 . S
H1172 C1182 0.950 . S
H1173 C1184 0.950 . S
H1174 C1186 0.950 . S
H1175 C1187 0.950 . S
C1176 H1168 0.950 . S
C1176 C1177 1.386 1_556 S
C1176 C1178 1.391 . S
C1177 C1176 1.386 1_554 S
C1177 C1181 1.393 . S
C1178 H1170 0.950 . S
C1178 C1176 1.391 . S
C1178 C1179 1.400 1_556 S
C1179 C1178 1.400 1_554 S
C1179 C1180 1.398 . S
C1179 C1185 1.491 1_554 S
C1180 H1171 0.950 . S
C1180 C1179 1.398 . S
C1180 C1181 1.391 . S
C1181 H1169 0.950 . S
C1181 C1177 1.393 . S
C1181 C1180 1.391 . S
C1182 H1172 0.950 . S
C1182 C1183 1.386 1_554 S
C1182 C1184 1.391 . S
C1183 C1182 1.386 1_556 S
C1183 C1187 1.393 . S
C1184 H1173 0.950 . S
C1184 C1182 1.391 . S
C1184 C1185 1.400 1_554 S
C1185 C1179 1.491 1_556 S
C1185 C1184 1.400 1_556 S
C1185 C1186 1.398 . S
C1186 H1174 0.950 . S
C1186 C1185 1.398 . S
C1186 C1187 1.391 . S
C1187 H1175 0.950 . S
C1187 C1183 1.393 . S
C1187 C1186 1.391 . S
H1188 C1196 0.950 . S
H1189 C1201 0.950 . S
H1190 C1198 0.950 . S
H1191 C1200 0.950 . S
H1192 C1202 0.950 . S
H1193 C1204 0.950 . S
H1194 C1206 0.950 . S
H1195 C1207 0.950 . S
C1196 H1188 0.950 . S
C1196 C1197 1.386 . S
C1196 C1198 1.391 . S
C1197 C1196 1.386 . S
C1197 C1201 1.393 . S
C1198 H1190 0.950 . S
C1198 C1196 1.391 . S
C1198 C1199 1.400 . S
C1199 C1198 1.400 . S
C1199 C1200 1.398 . S
C1199 C1205 1.491 1_554 S
C1200 H1191 0.950 . S
C1200 C1199 1.398 . S
C1200 C1201 1.391 . S
C1201 H1189 0.950 . S
C1201 C1197 1.393 . S
C1201 C1200 1.391 . S
C1202 H1192 0.950 . S
C1202 C1203 1.386 . S
C1202 C1204 1.391 . S
C1203 C1202 1.386 . S
C1203 C1207 1.393 . S
C1204 H1193 0.950 . S
C1204 C1202 1.391 . S
C1204 C1205 1.400 . S
C1205 C1199 1.491 1_556 S
C1205 C1204 1.400 . S
C1205 C1206 1.398 . S
C1206 H1194 0.950 . S
C1206 C1205 1.398 . S
C1206 C1207 1.391 . S
C1207 H1195 0.950 . S
C1207 C1203 1.393 . S
C1207 C1206 1.391 . S
H1208 C1216 0.950 . S
H1209 C1221 0.950 . S
H1210 C1218 0.950 . S
H1211 C1220 0.950 . S
H1212 C1222 0.950 . S
H1213 C1224 0.950 . S
H1214 C1226 0.950 . S
H1215 C1227 0.950 . S
C1216 H1208 0.950 . S
C1216 C1217 1.386 1_554 S
C1216 C1218 1.391 . S
C1217 C1216 1.386 1_556 S
C1217 C1221 1.393 . S
C1218 H1210 0.950 . S
C1218 C1216 1.391 . S
C1218 C1219 1.400 1_554 S
C1219 C1218 1.400 1_556 S
C1219 C1220 1.398 . S
C1219 C1225 1.491 1_556 S
C1220 H1211 0.950 . S
C1220 C1219 1.398 . S
C1220 C1221 1.391 . S
C1221 H1209 0.950 . S
C1221 C1217 1.393 . S
C1221 C1220 1.391 . S
C1222 H1212 0.950 . S
C1222 C1223 1.386 1_556 S
C1222 C1224 1.391 . S
C1223 C1222 1.386 1_554 S
C1223 C1227 1.393 . S
C1224 H1213 0.950 . S
C1224 C1222 1.391 . S
C1224 C1225 1.400 1_556 S
C1225 C1219 1.491 1_554 S
C1225 C1224 1.400 1_554 S
C1225 C1226 1.398 . S
C1226 H1214 0.950 . S
C1226 C1225 1.398 . S
C1226 C1227 1.391 . S
C1227 H1215 0.950 . S
C1227 C1223 1.393 . S
C1227 C1226 1.391 . S
H1228 C1236 0.950 . S
H1229 C1241 0.950 . S
H1230 C1238 0.950 . S
H1231 C1240 0.950 . S
H1232 C1242 0.950 . S
H1233 C1244 0.950 . S
H1234 C1246 0.950 . S
H1235 C1247 0.950 . S
C1236 H1228 0.950 . S
C1236 C1237 1.386 . S
C1236 C1238 1.391 1_554 S
C1237 C1236 1.386 . S
C1237 C1241 1.393 . S
C1238 H1230 0.950 . S
C1238 C1236 1.391 1_556 S
C1238 C1239 1.400 1_556 S
C1239 C1238 1.400 1_554 S
C1239 C1240 1.398 . S
C1239 C1245 1.491 1_554 S
C1240 H1231 0.950 . S
C1240 C1239 1.398 . S
C1240 C1241 1.391 . S
C1241 H1229 0.950 . S
C1241 C1237 1.393 . S
C1241 C1240 1.391 . S
C1242 H1232 0.950 . S
C1242 C1243 1.386 . S
C1242 C1244 1.391 1_556 S
C1243 C1242 1.386 . S
C1243 C1247 1.393 . S
C1244 H1233 0.950 . S
C1244 C1242 1.391 1_554 S
C1244 C1245 1.400 1_554 S
C1245 C1239 1.491 1_556 S
C1245 C1244 1.400 1_556 S
C1245 C1246 1.398 . S
C1246 H1234 0.950 . S
C1246 C1245 1.398 . S
C1246 C1247 1.391 . S
C1247 H1235 0.950 . S
C1247 C1243 1.393 . S
C1247 C1246 1.391 . S
H1248 C1256 0.950 . S
H1249 C1261 0.950 . S
H1250 C1258 0.950 . S
H1251 C1260 0.950 . S
H1252 C1262 0.950 . S
H1253 C1264 0.950 . S
H1254 C1266 0.950 . S
H1255 C1267 0.950 . S
C1256 H1248 0.950 . S
C1256 C1257 1.386 . S
C1256 C1258 1.391 . S
C1257 C1256 1.386 . S
C1257 C1261 1.393 . S
C1258 H1250 0.950 . S
C1258 C1256 1.391 . S
C1258 C1259 1.400 . S
C1259 C1258 1.400 . S
C1259 C1260 1.398 . S
C1259 C1265 1.491 . S
C1260 H1251 0.950 . S
C1260 C1259 1.398 . S
C1260 C1261 1.391 . S
C1261 H1249 0.950 . S
C1261 C1257 1.393 . S
C1261 C1260 1.391 . S
C1262 H1252 0.950 . S
C1262 C1263 1.386 . S
C1262 C1264 1.391 . S
C1263 C1262 1.386 . S
C1263 C1267 1.393 . S
C1264 H1253 0.950 . S
C1264 C1262 1.391 . S
C1264 C1265 1.400 . S
C1265 C1259 1.491 . S
C1265 C1264 1.400 . S
C1265 C1266 1.398 . S
C1266 H1254 0.950 . S
C1266 C1265 1.398 . S
C1266 C1267 1.391 . S
C1267 H1255 0.950 . S
C1267 C1263 1.393 . S
C1267 C1266 1.391 . S
H1268 C1276 0.950 . S
H1269 C1281 0.950 . S
H1270 C1278 0.950 . S
H1271 C1280 0.950 . S
H1272 C1282 0.950 . S
H1273 C1284 0.950 . S
H1274 C1286 0.950 . S
H1275 C1287 0.950 . S
C1276 H1268 0.950 . S
C1276 C1277 1.386 . S
C1276 C1278 1.391 . S
C1277 C1276 1.386 . S
C1277 C1281 1.393 . S
C1278 H1270 0.950 . S
C1278 C1276 1.391 . S
C1278 C1279 1.400 . S
C1279 C1278 1.400 . S
C1279 C1280 1.398 . S
C1279 C1285 1.491 . S
C1280 H1271 0.950 . S
C1280 C1279 1.398 . S
C1280 C1281 1.391 . S
C1281 H1269 0.950 . S
C1281 C1277 1.393 . S
C1281 C1280 1.391 . S
C1282 H1272 0.950 . S
C1282 C1283 1.386 . S
C1282 C1284 1.391 . S
C1283 C1282 1.386 . S
C1283 C1287 1.393 . S
C1284 H1273 0.950 . S
C1284 C1282 1.391 . S
C1284 C1285 1.400 . S
C1285 C1279 1.491 . S
C1285 C1284 1.400 . S
C1285 C1286 1.398 . S
C1286 H1274 0.950 . S
C1286 C1285 1.398 . S
C1286 C1287 1.391 . S
C1287 H1275 0.950 . S
C1287 C1283 1.393 . S
C1287 C1286 1.391 . S
H1288 C1296 0.950 . S
H1289 C1301 0.950 . S
H1290 C1298 0.950 . S
H1291 C1300 0.950 . S
H1292 C1302 0.950 . S
H1293 C1304 0.950 . S
H1294 C1306 0.950 . S
H1295 C1307 0.950 . S
C1296 H1288 0.950 . S
C1296 C1297 1.386 . S
C1296 C1298 1.391 . S
C1297 C1296 1.386 . S
C1297 C1301 1.393 . S
C1298 H1290 0.950 . S
C1298 C1296 1.391 . S
C1298 C1299 1.400 . S
C1299 C1298 1.400 . S
C1299 C1300 1.398 . S
C1299 C1305 1.491 . S
C1300 H1291 0.950 . S
C1300 C1299 1.398 . S
C1300 C1301 1.391 . S
C1301 H1289 0.950 . S
C1301 C1297 1.393 . S
C1301 C1300 1.391 . S
C1302 H1292 0.950 . S
C1302 C1303 1.386 . S
C1302 C1304 1.391 . S
C1303 C1302 1.386 . S
C1303 C1307 1.393 . S
C1304 H1293 0.950 . S
C1304 C1302 1.391 . S
C1304 C1305 1.400 . S
C1305 C1299 1.491 . S
C1305 C1304 1.400 . S
C1305 C1306 1.398 . S
C1306 H1294 0.950 . S
C1306 C1305 1.398 . S
C1306 C1307 1.391 . S
C1307 H1295 0.950 . S
C1307 C1303 1.393 . S
C1307 C1306 1.391 . S
H1308 C1316 0.950 . S
H1309 C1321 0.950 . S
H1310 C1318 0.950 . S
H1311 C1320 0.950 . S
H1312 C1322 0.950 . S
H1313 C1324 0.950 . S
H1314 C1326 0.950 . S
H1315 C1327 0.950 . S
C1316 H1308 0.950 . S
C1316 C1317 1.386 . S
C1316 C1318 1.391 . S
C1317 C1316 1.386 . S
C1317 C1321 1.393 . S
C1318 H1310 0.950 . S
C1318 C1316 1.391 . S
C1318 C1319 1.400 . S
C1319 C1318 1.400 . S
C1319 C1320 1.398 . S
C1319 C1325 1.491 . S
C1320 H1311 0.950 . S
C1320 C1319 1.398 . S
C1320 C1321 1.391 . S
C1321 H1309 0.950 . S
C1321 C1317 1.393 . S
C1321 C1320 1.391 . S
C1322 H1312 0.950 . S
C1322 C1323 1.386 . S
C1322 C1324 1.391 . S
C1323 C1322 1.386 . S
C1323 C1327 1.393 . S
C1324 H1313 0.950 . S
C1324 C1322 1.391 . S
C1324 C1325 1.400 . S
C1325 C1319 1.491 . S
C1325 C1324 1.400 . S
C1325 C1326 1.398 . S
C1326 H1314 0.950 . S
C1326 C1325 1.398 . S
C1326 C1327 1.391 . S
C1327 H1315 0.950 . S
C1327 C1323 1.393 . S
C1327 C1326 1.391 . S
C537 N13 1.289 . S
C543 N2 1.288 . S
C557 N46 1.283 . S
C563 N35 1.281 . S
C577 N68 1.289 . S
C583 N79 1.291 . S
C597 N101 1.275 . S
C603 N112 1.277 . S
C617 N145 1.286 . S
C623 N134 1.284 . S
C637 N167 1.283 . S
C643 N178 1.285 . S
C657 N200 1.282 . S
C663 N211 1.284 . S
C677 N233 1.282 . S
C683 N244 1.284 . S
C697 N277 1.279 . S
C703 N266 1.277 . S
C717 N310 1.288 . S
C723 N299 1.287 . S
C737 N343 1.280 . S
C743 N332 1.278 . S
C757 N376 1.269 . S
C763 N365 1.267 . S
C777 N398 1.267 . S
C783 N409 1.269 . S
C797 N431 1.267 . S
C803 N442 1.269 . S
C817 N464 1.270 . S
C823 N475 1.272 . S
C837 N497 1.279 . S
C843 N508 1.281 . S
C857 C7 1.414 . S
C863 C502 1.420 . S
C877 C403 1.396 . S
C883 C40 1.403 . S
C897 C436 1.397 . S
C903 C73 1.413 . S
C917 C469 1.397 . S
C923 C106 1.412 . S
C937 C304 1.396 . S
C943 C139 1.405 . S
C957 C172 1.399 . S
C963 C337 1.416 . S
C977 C205 1.419 . S
C983 C370 1.403 . S
C997 C271 1.420 . S
C1003 C238 1.412 . S
C1017 C18 1.154 . S
C1023 C150 1.154 . S
C1037 C183 1.153 . S
C1043 C51 1.152 . S
C1057 C84 1.148 . S
C1063 C216 1.148 . S
C1077 C249 1.152 . S
C1083 C117 1.153 . S
C1097 C414 1.149 . S
C1103 C282 1.148 . S
C1117 C315 1.151 . S
C1123 C447 1.150 . S
C1137 C348 1.150 . S
C1143 C480 1.151 . S
C1157 C381 1.149 . S
C1163 C513 1.149 . S
C1177 C21 1.530 . S
C1183 C186 1.522 . S
C1197 C54 1.534 . S
C1203 C219 1.534 . S
C1217 C252 1.530 . S
C1223 C87 1.522 . S
C1237 C120 1.527 . S
C1243 C153 1.522 . S
C1257 C450 1.535 . S
C1263 C285 1.528 . S
C1277 C318 1.524 . S
C1283 C483 1.533 . S
C1297 C516 1.525 . S
C1303 C351 1.523 . S
C1317 C417 1.533 . S
C1323 C384 1.523 . S
