# Generated by pormake.
# Topology wjk, (5)-cn, num edge types: 1
# Building blocks:
#     Node 0, Type 0, BuildingBlock: BEQFEK_clean_sbu_0, # of connection points: 5
#     Node 1, Type 0, BuildingBlock: BEQFEK_clean_sbu_0, # of connection points: 5
#     Node 2, Type 0, BuildingBlock: BEQFEK_clean_sbu_0, # of connection points: 5
#     Node 3, Type 0, BuildingBlock: BEQFEK_clean_sbu_0, # of connection points: 5
#     Node 4, Type 0, BuildingBlock: BEQFEK_clean_sbu_0, # of connection points: 5
#     Node 5, Type 0, BuildingBlock: BEQFEK_clean_sbu_0, # of connection points: 5
#     Node 6, Type 0, BuildingBlock: BEQFEK_clean_sbu_0, # of connection points: 5
#     Node 7, Type 0, BuildingBlock: BEQFEK_clean_sbu_0, # of connection points: 5
#     Node 8, Type 0, BuildingBlock: BEQFEK_clean_sbu_0, # of connection points: 5
#     Node 9, Type 0, BuildingBlock: BEQFEK_clean_sbu_0, # of connection points: 5
#     Node 10, Type 0, BuildingBlock: BEQFEK_clean_sbu_0, # of connection points: 5
#     Node 11, Type 0, BuildingBlock: BEQFEK_clean_sbu_0, # of connection points: 5
#     Edge 12, Type (0, 0), BuildingBlock: AJUNOK_clean_linker_0, # of connection points: 2
#     Edge 13, Type (0, 0), BuildingBlock: AJUNOK_clean_linker_0, # of connection points: 2
#     Edge 14, Type (0, 0), BuildingBlock: AJUNOK_clean_linker_0, # of connection points: 2
#     Edge 15, Type (0, 0), BuildingBlock: AJUNOK_clean_linker_0, # of connection points: 2
#     Edge 16, Type (0, 0), BuildingBlock: AJUNOK_clean_linker_0, # of connection points: 2
#     Edge 17, Type (0, 0), BuildingBlock: AJUNOK_clean_linker_0, # of connection points: 2
#     Edge 18, Type (0, 0), BuildingBlock: AJUNOK_clean_linker_0, # of connection points: 2
#     Edge 19, Type (0, 0), BuildingBlock: AJUNOK_clean_linker_0, # of connection points: 2
#     Edge 20, Type (0, 0), BuildingBlock: AJUNOK_clean_linker_0, # of connection points: 2
#     Edge 21, Type (0, 0), BuildingBlock: AJUNOK_clean_linker_0, # of connection points: 2
#     Edge 22, Type (0, 0), BuildingBlock: AJUNOK_clean_linker_0, # of connection points: 2
#     Edge 23, Type (0, 0), BuildingBlock: AJUNOK_clean_linker_0, # of connection points: 2
#     Edge 24, Type (0, 0), BuildingBlock: AJUNOK_clean_linker_0, # of connection points: 2
#     Edge 25, Type (0, 0), BuildingBlock: AJUNOK_clean_linker_0, # of connection points: 2
#     Edge 26, Type (0, 0), BuildingBlock: AJUNOK_clean_linker_0, # of connection points: 2
#     Edge 27, Type (0, 0), BuildingBlock: AJUNOK_clean_linker_0, # of connection points: 2
#     Edge 28, Type (0, 0), BuildingBlock: AJUNOK_clean_linker_0, # of connection points: 2
#     Edge 29, Type (0, 0), BuildingBlock: AJUNOK_clean_linker_0, # of connection points: 2
#     Edge 30, Type (0, 0), BuildingBlock: AJUNOK_clean_linker_0, # of connection points: 2
#     Edge 31, Type (0, 0), BuildingBlock: AJUNOK_clean_linker_0, # of connection points: 2
#     Edge 32, Type (0, 0), BuildingBlock: AJUNOK_clean_linker_0, # of connection points: 2
#     Edge 33, Type (0, 0), BuildingBlock: AJUNOK_clean_linker_0, # of connection points: 2
#     Edge 34, Type (0, 0), BuildingBlock: AJUNOK_clean_linker_0, # of connection points: 2
#     Edge 35, Type (0, 0), BuildingBlock: AJUNOK_clean_linker_0, # of connection points: 2
#     Edge 36, Type (0, 0), BuildingBlock: AJUNOK_clean_linker_0, # of connection points: 2
#     Edge 37, Type (0, 0), BuildingBlock: AJUNOK_clean_linker_0, # of connection points: 2
#     Edge 38, Type (0, 0), BuildingBlock: AJUNOK_clean_linker_0, # of connection points: 2
#     Edge 39, Type (0, 0), BuildingBlock: AJUNOK_clean_linker_0, # of connection points: 2
#     Edge 40, Type (0, 0), BuildingBlock: AJUNOK_clean_linker_0, # of connection points: 2
#     Edge 41, Type (0, 0), BuildingBlock: AJUNOK_clean_linker_0, # of connection points: 2
# Relax obj value: 0.418
# Max RMSD: 0.219
# Mean RMSD: 0.219
data_MOF--net-wjk--node1-BEQFEK_clean_sbu_0--edge1-AJUNOK_clean_linker_0
_symmetry_space_group_name_H-M    P1
_symmetry_Int_Tables_number       1
_symmetry_cell_setting            triclinic
loop_
_symmetry_equiv_pos_as_xyz
'x, y, z'
_cell_length_a     27.354252
_cell_length_b     27.383677
_cell_length_c     54.485295
_cell_angle_alpha  89.966752
_cell_angle_beta   90.039782
_cell_angle_gamma 120.03507
loop_
_atom_site_label
_atom_site_type_symbol
_atom_site_fract_x
_atom_site_fract_y
_atom_site_fract_z
_atom_type_partial_charge
Co0 Co 0.14145 0.20526 0.27806 0.0
Co1 Co 0.2341 0.3102 0.25097 0.0
C2 C 0.21424 0.19567 0.23856 0.0
O3 O 0.17681 0.17421 0.25528 0.0
O4 O 0.24064 0.24857 0.23453 0.0
C5 C 0.11167 0.11468 0.30975 0.0
O6 O 0.1649 0.12928 0.30655 0.0
C7 C 0.35133 0.39155 0.23649 0.0
C8 C 0.35066 0.47156 0.23371 0.0
C9 C 0.38625 0.44918 0.23233 0.0
N10 N 0.29799 0.38071 0.24007 0.0
N11 N 0.29789 0.42875 0.23806 0.0
C12 C 0.36909 0.34838 0.23991 0.0
H13 H 0.34037 0.31519 0.2529 0.0
H14 H 0.41315 0.36811 0.24677 0.0
H15 H 0.36638 0.32782 0.22203 0.0
C16 C 0.20351 0.26736 0.32229 0.0
N17 N 0.19474 0.26467 0.29782 0.0
N18 N 0.2389 0.30606 0.28691 0.0
C19 C 0.27887 0.33414 0.30444 0.0
C20 C 0.25771 0.31019 0.32744 0.0
C21 C 0.16187 0.22814 0.34081 0.0
H22 H 0.11818 0.20924 0.33374 0.0
H23 H 0.17199 0.19484 0.34564 0.0
H24 H 0.16466 0.2512 0.35795 0.0
O25 O 0.09382 0.2254 0.25846 0.0
O26 O 0.15747 0.29971 0.23756 0.0
H27 H 0.33576 0.41193 0.28655 0.0
H28 H 0.3578 0.40404 0.31689 0.0
C29 C 0.33723 0.3817 0.2996 0.0
H30 H 0.36294 0.36484 0.29153 0.0
H31 H 0.26226 0.43273 0.2407 0.0
O32 O 0.09216 0.14242 0.29902 0.0
C33 C 0.10559 0.26292 0.24215 0.0
Co34 Co 0.93849 0.13438 0.61082 0.0
Co35 Co 0.93695 0.23261 0.58377 0.0
C36 C 0.02828 0.20834 0.57308 0.0
O37 O 1.00699 0.16865 0.58889 0.0
O38 O 1.00595 0.23862 0.56879 0.0
C39 C 0.99173 0.09756 0.64342 0.0
O40 O 0.03215 0.15049 0.64181 0.0
C41 C 0.97199 0.3476 0.56534 0.0
C42 C 0.90648 0.36172 0.58181 0.0
C43 C 0.95814 0.38956 0.56984 0.0
N44 N 0.93172 0.29859 0.57518 0.0
N45 N 0.89209 0.30723 0.58447 0.0
C46 C 0.02084 0.35254 0.55096 0.0
H47 H 1.00639 0.31474 0.53917 0.0
H48 H 0.05315 0.35402 0.56374 0.0
H49 H 0.03976 0.3907 0.53915 0.0
C50 C 0.94003 0.19649 0.65517 0.0
N51 N 0.93412 0.18812 0.63067 0.0
N52 N 0.94423 0.23482 0.61964 0.0
C53 C 0.96215 0.27606 0.63694 0.0
C54 C 0.95941 0.2529 0.66017 0.0
C55 C 0.93187 0.15247 0.67365 0.0
H56 H 0.90593 0.10955 0.66596 0.0
H57 H 0.97356 0.15947 0.6798 0.0
H58 H 0.90997 0.15571 0.69012 0.0
O59 O 0.87195 0.09075 0.59048 0.0
O60 O 0.8706 0.1582 0.56847 0.0
H61 H 0.9514 0.34608 0.62844 0.0
H62 H 1.01302 0.36421 0.64657 0.0
C63 C 0.98641 0.33732 0.63126 0.0
H64 H 1.01179 0.34824 0.61418 0.0
H65 H 0.85712 0.27689 0.59415 0.0
O66 O 0.94637 0.08142 0.63151 0.0
C67 C 0.85094 0.10552 0.57323 0.0
Co68 Co 0.82033 0.94041 0.94418 0.0
Co69 Co 0.71787 0.93346 0.91699 0.0
C70 C 0.83431 0.02502 0.90495 0.0
O71 O 0.85458 1.00733 0.92152 0.0
O72 O 0.78141 1.00068 0.90092 0.0
C73 C 0.91218 0.99328 0.9765 0.0
O74 O 0.90259 0.03556 0.97438 0.0
C75 C 0.63916 0.97221 0.90183 0.0
C76 C 0.55673 0.89348 0.90247 0.0
C77 C 0.58133 0.95132 0.89935 0.0
N78 N 0.64802 0.92891 0.90662 0.0
N79 N 0.59849 0.88188 0.90666 0.0
C80 C 0.68582 0.032 0.89885 0.0
H81 H 0.71221 0.04608 0.91566 0.0
H82 H 0.66977 0.06104 0.89461 0.0
H83 H 0.71343 0.03404 0.88351 0.0
C84 C 0.7594 0.94294 0.98844 0.0
N85 N 0.7622 0.93692 0.96396 0.0
N86 N 0.72219 0.94188 0.95293 0.0
C87 C 0.6952 0.9554 0.97032 0.0
C88 C 0.71798 0.95644 0.99345 0.0
C89 C 0.79762 0.93893 1.00704 0.0
H90 H 0.81439 0.91216 1.00018 0.0
H91 H 0.83256 0.98182 1.01154 0.0
H92 H 0.77455 0.92012 1.02435 0.0
O93 O 0.7972 0.87272 0.92441 0.0
O94 O 0.7253 0.86623 0.90297 0.0
H95 H 0.63217 0.97565 0.98231 0.0
H96 H 0.66864 1.00948 0.9543 0.0
C97 C 0.65034 0.9699 0.96507 0.0
H98 H 0.61628 0.93584 0.95407 0.0
H99 H 0.59296 0.84212 0.91054 0.0
O100 O 0.881 0.9479 0.96497 0.0
C101 C 0.76004 0.84877 0.90784 0.0
Co102 Co 0.89244 0.80451 0.27761 0.0
Co103 Co 0.78935 0.71291 0.24962 0.0
C104 C 0.82406 0.8304 0.23987 0.0
O105 O 0.86507 0.84348 0.25463 0.0
O106 O 0.78609 0.77907 0.23674 0.0
C107 C 0.93524 0.89534 0.31033 0.0
O108 O 0.88359 0.88676 0.30866 0.0
C109 C 0.67087 0.63595 0.23375 0.0
C110 C 0.66592 0.55308 0.23524 0.0
C111 C 0.63326 0.57816 0.23161 0.0
N112 N 0.72281 0.64426 0.23887 0.0
N113 N 0.71948 0.59442 0.23937 0.0
C114 C 0.65843 0.68287 0.23012 0.0
H115 H 0.68727 0.7121 0.21591 0.0
H116 H 0.66684 0.70739 0.24732 0.0
H117 H 0.61429 0.66708 0.22411 0.0
C118 C 0.82592 0.74476 0.32142 0.0
N119 N 0.83454 0.74832 0.29692 0.0
N120 N 0.78732 0.71351 0.28563 0.0
C121 C 0.74602 0.6895 0.30291 0.0
C122 C 0.76918 0.70855 0.32623 0.0
C123 C 0.87011 0.77888 0.34015 0.0
H124 H 0.91295 0.79331 0.33282 0.0
H125 H 0.86575 0.81539 0.34585 0.0
H126 H 0.86444 0.7534 0.35682 0.0
O127 O 0.93329 0.77759 0.2579 0.0
O128 O 0.86323 0.72153 0.23313 0.0
H129 H 0.67883 0.61655 0.28571 0.0
H130 H 0.65962 0.63546 0.31442 0.0
C131 C 0.6847 0.65225 0.29735 0.0
H132 H 0.66904 0.67666 0.28713 0.0
H133 H 0.7533 0.58841 0.24363 0.0
O134 O 0.94789 0.86322 0.29862 0.0
C135 C 0.91625 0.74812 0.23851 0.0
Co136 Co 0.08953 0.88799 0.61059 0.0
Co137 Co 0.09356 0.79136 0.58325 0.0
C138 C 1.00147 0.81425 0.57209 0.0
O139 O 0.02191 0.85348 0.58813 0.0
O140 O 0.02439 0.78448 0.56783 0.0
C141 C 0.03468 0.92203 0.64387 0.0
O142 O 0.99466 0.86892 0.6422 0.0
C143 C 0.06467 0.67706 0.56478 0.0
C144 C 0.13326 0.66905 0.58187 0.0
C145 C 0.08234 0.6378 0.56952 0.0
N146 N 0.10222 0.7273 0.57476 0.0
N147 N 0.14375 0.72228 0.58435 0.0
C148 C 1.01406 0.66831 0.55061 0.0
H149 H 0.02273 0.70827 0.54173 0.0
H150 H 0.97777 0.6547 0.56329 0.0
H151 H 1.00314 0.63617 0.53605 0.0
C152 C 0.08842 0.82551 0.65468 0.0
N153 N 0.09445 0.83432 0.63022 0.0
N154 N 0.08512 0.78804 0.61905 0.0
C155 C 0.06765 0.74657 0.63623 0.0
C156 C 0.06946 0.76915 0.65951 0.0
C157 C 0.09749 0.86936 0.67338 0.0
H158 H 0.12267 0.91236 0.66565 0.0
H159 H 0.05613 0.862 0.68019 0.0
H160 H 0.12066 0.86607 0.6894 0.0
O161 O 0.15669 0.93319 0.59086 0.0
O162 O 0.15978 0.86688 0.56872 0.0
H163 H 0.08208 0.67915 0.62719 0.0
H164 H 0.02065 0.65804 0.64581 0.0
C165 C 0.04581 0.68575 0.63041 0.0
H166 H 0.01979 0.67394 0.61349 0.0
H167 H 0.17738 0.75418 0.59417 0.0
O168 O 0.07969 0.93925 0.63158 0.0
C169 C 0.17876 0.91931 0.57375 0.0
Co170 Co 0.21683 0.08216 0.94462 0.0
Co171 Co 0.31744 0.08732 0.91683 0.0
C172 C 0.20106 0.99454 0.90636 0.0
O173 O 0.18214 0.01368 0.92288 0.0
O174 O 0.25362 0.01886 0.90158 0.0
C175 C 0.12778 0.0283 0.97807 0.0
O176 O 0.13945 0.98737 0.97606 0.0
C177 C 0.39661 0.04886 0.90211 0.0
C178 C 0.47772 0.12883 0.89998 0.0
C179 C 0.45427 0.07079 0.89838 0.0
N180 N 0.38675 0.09194 0.90573 0.0
N181 N 0.43543 0.13963 0.90405 0.0
C182 C 0.35257 0.98809 0.90521 0.0
H183 H 0.31911 0.98381 0.91798 0.0
H184 H 0.37145 0.96311 0.91216 0.0
H185 H 0.33256 0.97079 0.88716 0.0
C186 C 0.27992 0.08262 0.9885 0.0
N187 N 0.27639 0.0876 0.964 0.0
N188 N 0.31514 0.08079 0.95287 0.0
C189 C 0.3419 0.06703 0.97033 0.0
C190 C 0.32006 0.06738 0.9935 0.0
C191 C 0.24379 0.08963 1.00721 0.0
H192 H 0.22605 0.11514 0.99978 0.0
H193 H 0.20964 0.04761 1.01328 0.0
H194 H 0.26917 0.11152 1.02367 0.0
O195 O 0.23793 0.14872 0.92423 0.0
O196 O 0.30883 0.15378 0.90253 0.0
H197 H 0.40742 0.05066 0.98244 0.0
H198 H 0.36539 1.0083 0.95711 0.0
C199 C 0.38576 0.05107 0.96526 0.0
H200 H 0.41736 0.08134 0.95217 0.0
H201 H 0.44018 0.17947 0.90688 0.0
O202 O 0.15649 0.07342 0.96596 0.0
C203 C 0.27424 0.17152 0.90724 0.0
Co204 Co 0.8179 0.88618 0.46887 0.0
Co205 Co 0.71557 0.79034 0.49604 0.0
C206 C 0.83156 0.81406 0.50767 0.0
O207 O 0.85176 0.85214 0.49116 0.0
O208 O 0.77874 0.78592 0.51181 0.0
C209 C 0.90681 0.91975 0.43571 0.0
O210 O 0.89383 0.86679 0.43792 0.0
C211 C 0.63753 0.67294 0.5114 0.0
C212 C 0.55424 0.66682 0.50833 0.0
C213 C 0.57977 0.63478 0.51248 0.0
N214 N 0.64563 0.72464 0.50619 0.0
N215 N 0.59552 0.72072 0.50479 0.0
C216 C 0.68458 0.66102 0.51591 0.0
H217 H 0.71151 0.6717 0.49932 0.0
H218 H 0.66861 0.6164 0.52114 0.0
H219 H 0.7114 0.68828 0.53108 0.0
C220 C 0.75568 0.82404 0.42464 0.0
N221 N 0.75877 0.83248 0.44915 0.0
N222 N 0.71981 0.78689 0.46016 0.0
C223 C 0.69366 0.74629 0.44274 0.0
C224 C 0.71576 0.76852 0.41959 0.0
C225 C 0.79201 0.86744 0.40603 0.0
H226 H 0.81022 0.91055 0.41364 0.0
H227 H 0.8258 0.85923 0.39975 0.0
H228 H 0.76667 0.86474 0.38968 0.0
O229 O 0.79609 0.93135 0.48912 0.0
O230 O 0.72388 0.86522 0.51025 0.0
H231 H 0.6345 0.66135 0.43097 0.0
H232 H 0.67133 0.66756 0.45938 0.0
C233 C 0.65114 0.68623 0.44811 0.0
H234 H 0.61565 0.68427 0.45869 0.0
H235 H 0.58938 0.75426 0.5002 0.0
O236 O 0.87901 0.93741 0.4477 0.0
C237 C 0.75903 0.9176 0.50582 0.0
Co238 Co 0.94346 0.81318 0.80423 0.0
Co239 Co 0.93771 0.71026 0.8303 0.0
C240 C 0.03039 0.82421 0.84257 0.0
O241 O 1.0111 0.84473 0.82679 0.0
O242 O 1.00677 0.77123 0.84615 0.0
C243 C 0.99848 0.90337 0.77149 0.0
O244 O 0.03855 0.89031 0.77291 0.0
C245 C 0.96484 0.62357 0.84871 0.0
C246 C 0.8992 0.54876 0.82941 0.0
C247 C 0.94837 0.56731 0.84302 0.0
N248 N 0.92844 0.63699 0.83806 0.0
N249 N 0.88856 0.59142 0.82715 0.0
C250 C 1.01312 0.66408 0.86437 0.0
H251 H 1.00326 0.69483 0.87295 0.0
H252 H 0.05142 0.68755 0.85284 0.0
H253 H 0.02145 0.64152 0.87925 0.0
C254 C 0.9432 0.75295 0.75932 0.0
N255 N 0.9378 0.75514 0.78388 0.0
N256 N 0.94624 0.71707 0.79456 0.0
C257 C 0.96266 0.693 0.77699 0.0
C258 C 0.96055 0.71449 0.75395 0.0
C259 C 0.93567 0.78964 0.74108 0.0
H260 H 0.91075 0.8075 0.74903 0.0
H261 H 0.97757 0.82369 0.73481 0.0
H262 H 0.91301 0.76486 0.72464 0.0
O263 O 0.87632 0.79097 0.82418 0.0
O264 O 0.8722 0.71973 0.84528 0.0
H265 H 0.94858 0.6101 0.7832 0.0
H266 H 1.01328 0.65555 0.7674 0.0
C267 C 0.98464 0.65387 0.7822 0.0
H268 H 1.00726 0.66468 0.80003 0.0
H269 H 0.85623 0.59055 0.8166 0.0
O270 O 0.95361 0.87534 0.78384 0.0
C271 C 0.85408 0.75421 0.84101 0.0
Co272 Co 0.14128 0.94217 0.13474 0.0
Co273 Co 0.23395 0.93175 0.16285 0.0
C274 C 0.21353 0.02656 0.17386 0.0
O275 O 0.17603 1.00924 0.15711 0.0
O276 O 0.24009 1.00051 0.17857 0.0
C277 C 0.11007 1.00139 0.10272 0.0
O278 O 0.16306 0.04079 0.10583 0.0
C279 C 0.35063 0.96784 0.17863 0.0
C280 C 0.35257 0.88831 0.17767 0.0
C281 C 0.38676 0.94599 0.18102 0.0
N282 N 0.29808 0.92528 0.17365 0.0
N283 N 0.29953 0.87774 0.17345 0.0
C284 C 0.36503 0.02793 0.1818 0.0
H285 H 0.33939 0.03024 0.19704 0.0
H286 H 0.35374 0.04287 0.16497 0.0
H287 H 0.41019 0.05615 0.18629 0.0
C288 C 0.20507 0.94265 0.09113 0.0
N289 N 0.19525 0.93633 0.11552 0.0
N290 N 0.2394 0.94023 0.12692 0.0
C291 C 0.28046 0.9533 0.10983 0.0
C292 C 0.25989 0.9552 0.08655 0.0
C293 C 0.16415 0.9404 0.07224 0.0
H294 H 0.12015 0.91496 0.07887 0.0
H295 H 0.17398 0.98385 0.06766 0.0
H296 H 0.16811 0.92107 0.05504 0.0
O297 O 0.09396 0.87481 0.15448 0.0
O298 O 0.15726 0.86535 0.17624 0.0
H299 H 0.36397 0.9728 0.09848 0.0
H300 H 0.36075 1.00628 0.12647 0.0
C301 C 0.33942 0.96696 0.11553 0.0
H302 H 0.33841 0.9324 0.1265 0.0
H303 H 0.26485 0.83838 0.16934 0.0
O304 O 0.09159 0.95431 0.11347 0.0
C305 C 0.10544 0.84947 0.17106 0.0
Co306 Co 0.21387 0.13944 0.47022 0.0
Co307 Co 0.31584 0.23526 0.49733 0.0
C308 C 0.19967 0.21079 0.5091 0.0
O309 O 0.17959 0.17276 0.49256 0.0
O310 O 0.25252 0.23934 0.51326 0.0
C311 C 0.12232 0.0995 0.43739 0.0
O312 O 0.13138 0.15126 0.43906 0.0
C313 C 0.39677 0.35318 0.51133 0.0
C314 C 0.47718 0.35279 0.51256 0.0
C315 C 0.45475 0.38827 0.51414 0.0
N316 N 0.38573 0.29977 0.50794 0.0
N317 N 0.43401 0.29985 0.50916 0.0
C318 C 0.3534 0.37101 0.50912 0.0
H319 H 0.31708 0.34035 0.49793 0.0
H320 H 0.3719 0.41358 0.50076 0.0
H321 H 0.33781 0.37267 0.52772 0.0
C322 C 0.27498 0.20235 0.4259 0.0
N323 N 0.27226 0.19382 0.4504 0.0
N324 N 0.31199 0.23912 0.46135 0.0
C325 C 0.33872 0.27943 0.44382 0.0
C326 C 0.31592 0.25734 0.42078 0.0
C327 C 0.23735 0.15976 0.40731 0.0
H328 H 0.22072 0.11633 0.41433 0.0
H329 H 0.20234 0.16736 0.40246 0.0
H330 H 0.26101 0.16413 0.39017 0.0
O331 O 0.23643 0.09475 0.49034 0.0
O332 O 0.30803 0.16083 0.51163 0.0
H333 H 0.41591 0.33973 0.46112 0.0
H334 H 0.4038 0.3613 0.43144 0.0
C335 C 0.38341 0.33901 0.44875 0.0
H336 H 0.3641 0.36154 0.45774 0.0
H337 H 0.43785 0.2642 0.50639 0.0
O338 O 0.15347 0.08599 0.44939 0.0
C339 C 0.27328 0.10849 0.5071 0.0
Co340 Co 0.09576 0.21128 0.80259 0.0
Co341 Co 0.09607 0.30972 0.8302 0.0
C342 C 1.00559 0.19358 0.84058 0.0
O343 O 0.02756 0.17598 0.82474 0.0
O344 O 0.02715 0.24608 0.84489 0.0
C345 C 0.0423 0.12214 0.76967 0.0
O346 O 1.00229 0.1352 0.77136 0.0
C347 C 0.05916 0.38826 0.84822 0.0
C348 C 0.12734 0.46954 0.83418 0.0
C349 C 0.07389 0.44456 0.84457 0.0
N350 N 0.10075 0.38035 0.83937 0.0
N351 N 0.14193 0.42956 0.83156 0.0
C352 C 1.00796 0.34298 0.86091 0.0
H353 H 0.02051 0.31905 0.87334 0.0
H354 H 0.97832 0.31299 0.8471 0.0
H355 H 0.98656 0.36096 0.87189 0.0
C356 C 0.09278 0.27216 0.75862 0.0
N357 N 0.09921 0.26949 0.78307 0.0
N358 N 0.08886 0.30565 0.79433 0.0
C359 C 0.0705 0.32902 0.77723 0.0
C360 C 0.07254 0.30859 0.7539 0.0
C361 C 0.1023 0.23778 0.73986 0.0
H362 H 0.12819 0.22067 0.7475 0.0
H363 H 0.0611 0.20326 0.73315 0.0
H364 H 0.12498 0.26431 0.72379 0.0
O365 O 0.16271 0.23428 0.82269 0.0
O366 O 0.16248 0.30145 0.84532 0.0
H367 H 0.02533 0.3723 0.76725 0.0
H368 H 0.01815 0.34961 0.79902 0.0
C369 C 0.04743 0.36691 0.78319 0.0
H370 H 0.08278 0.40898 0.78836 0.0
H371 H 0.17831 0.43509 0.82286 0.0
O372 O 0.08779 0.15093 0.78157 0.0
C373 C 0.18295 0.26927 0.84026 0.0
Co374 Co 0.89184 0.09339 0.13687 0.0
Co375 Co 0.78914 0.08357 0.16434 0.0
C376 C 0.82385 1.00135 0.17541 0.0
O377 O 0.865 0.02858 0.16066 0.0
O378 O 0.78576 0.01467 0.17804 0.0
C379 C 0.93315 0.04365 0.10445 0.0
O380 O 0.88116 1.00124 0.1062 0.0
C381 C 0.67007 0.0425 0.17883 0.0
C382 C 0.66811 0.12198 0.18078 0.0
C383 C 0.63379 0.06389 0.18233 0.0
N384 N 0.72301 0.08598 0.17535 0.0
N385 N 0.72147 0.13334 0.17694 0.0
C386 C 0.65386 0.98188 0.17591 0.0
H387 H 0.6839 0.97786 0.16361 0.0
H388 H 0.61036 0.95669 0.16851 0.0
H389 H 0.6556 0.9646 0.1941 0.0
C390 C 0.8259 0.08579 0.09267 0.0
N391 N 0.83393 0.09088 0.11721 0.0
N392 N 0.78675 0.07964 0.12823 0.0
C393 C 0.74604 0.06328 0.11066 0.0
C394 C 0.76952 0.06623 0.08752 0.0
C395 C 0.87064 0.09649 0.07415 0.0
H396 H 0.91328 0.12434 0.0818 0.0
H397 H 0.86617 0.05579 0.06808 0.0
H398 H 0.86568 0.11737 0.05767 0.0
O399 O 0.933 0.16238 0.1557 0.0
O400 O 0.86339 0.1494 0.18051 0.0
H401 H 0.68089 0.07125 0.12873 0.0
H402 H 0.66229 0.04057 0.09841 0.0
C403 C 0.68505 0.04269 0.11561 0.0
H404 H 0.66535 0.99985 0.12368 0.0
H405 H 0.75641 0.17338 0.17418 0.0
O406 O 0.94677 0.08869 0.11613 0.0
C407 C 0.91626 0.17585 0.17487 0.0
C408 C 0.53847 0.56347 0.24461 0.0
C409 C 0.57036 0.54723 0.22999 0.0
C410 C 0.47911 0.53205 0.24483 0.0
C411 C 0.44913 0.48255 0.23076 0.0
H412 H 0.55949 0.59976 0.2566 0.0
H413 H 0.45655 0.54579 0.25669 0.0
S414 S 0.51245 0.42397 0.18812 0.0
N415 N 0.56733 0.47957 0.20036 0.0
N416 N 0.45599 0.42111 0.20052 0.0
C417 C 0.48043 0.46647 0.21571 0.0
C418 C 0.5409 0.49848 0.21549 0.0
C419 C 0.99303 0.54232 0.56339 0.0
C420 C 0.0521 0.57446 0.56666 0.0
C421 C 0.96411 0.48301 0.56315 0.0
C422 C 0.99219 0.45237 0.56694 0.0
H423 H 0.96759 0.56208 0.56219 0.0
H424 H 0.91867 0.46085 0.56081 0.0
S425 S 0.14549 0.5149 0.57977 0.0
N426 N 0.13732 0.56971 0.57458 0.0
N427 N 0.08199 0.45915 0.57694 0.0
C428 C 0.05088 0.48355 0.57101 0.0
C429 C 0.08083 0.54407 0.57027 0.0
C430 C 0.53439 0.05834 0.91264 0.0
C431 C 0.48667 0.0404 0.8975 0.0
C432 C 0.56514 0.02984 0.91293 0.0
C433 C 0.55014 0.98287 0.89772 0.0
H434 H 0.54726 0.0939 0.92488 0.0
H435 H 0.60009 0.04393 0.92565 0.0
S436 S 0.43088 0.92096 0.85359 0.0
N437 N 0.42746 0.9741 0.86611 0.0
N438 N 0.48502 0.92038 0.86675 0.0
C439 C 0.50286 0.9648 0.88234 0.0
C440 C 0.47139 0.99374 0.8821 0.0
C441 C 0.50291 0.54218 0.52898 0.0
C442 C 0.5499 0.57201 0.51348 0.0
C443 C 0.47246 0.48277 0.52936 0.0
C444 C 0.48768 0.45105 0.5141 0.0
H445 H 0.48967 0.56497 0.54096 0.0
H446 H 0.43691 0.46154 0.54174 0.0
S447 S 0.60276 0.50867 0.46793 0.0
N448 N 0.60666 0.56496 0.48088 0.0
N449 N 0.55052 0.45397 0.48193 0.0
C450 C 0.53397 0.4804 0.49825 0.0
C451 C 0.56466 0.54067 0.49778 0.0
C452 C 0.03679 0.56076 0.85164 0.0
C453 C 0.97857 0.53419 0.84614 0.0
C454 C 0.06603 0.53068 0.85225 0.0
C455 C 0.03923 0.47278 0.8467 0.0
H456 H 0.06157 0.6056 0.85441 0.0
H457 H 0.1108 0.55363 0.85635 0.0
S458 S 0.88942 0.38376 0.82765 0.0
N459 N 0.89583 0.44551 0.83412 0.0
N460 N 0.95233 0.39141 0.83258 0.0
C461 C 0.98163 0.44578 0.84036 0.0
C462 C 0.95117 0.47584 0.84067 0.0
C463 C 0.48216 0.02374 0.16747 0.0
C464 C 0.44963 0.97667 0.18257 0.0
C465 C 0.54146 0.05175 0.16782 0.0
C466 C 0.57083 0.03325 0.1829 0.0
H467 H 0.46168 0.03841 0.15484 0.0
H468 H 0.56451 0.08753 0.15571 0.0
S469 S 0.50566 0.91305 0.22643 0.0
N470 N 0.4513 0.91325 0.2133 0.0
N471 N 0.56269 0.96608 0.21406 0.0
C472 C 0.5389 0.98633 0.19813 0.0
C473 C 0.4784 0.95787 0.19783 0.0
C474 C 0.28767 0.31608 0.39577 0.0
C475 C 0.31807 0.28721 0.39747 0.0
C476 C 0.27308 0.32901 0.3728 0.0
C477 C 0.2885 0.31373 0.35067 0.0
H478 H 0.27105 0.32459 0.41225 0.0
H479 H 0.24595 0.34728 0.37236 0.0
S480 S 0.37321 0.24281 0.34515 0.0
N481 N 0.36728 0.24829 0.37506 0.0
N482 N 0.33981 0.27228 0.33206 0.0
C483 C 0.32264 0.28888 0.35219 0.0
C484 C 0.33737 0.27564 0.37554 0.0
C485 C 0.04662 0.31155 0.68538 0.0
C486 C 0.98728 0.28144 0.68373 0.0
C487 C 0.07427 0.32517 0.70832 0.0
C488 C 0.04374 0.30883 0.73052 0.0
H489 H 0.07183 0.32118 0.66887 0.0
H490 H 0.11991 0.34554 0.70867 0.0
S491 S 0.88773 0.23433 0.73619 0.0
N492 N 0.89908 0.24089 0.70627 0.0
N493 N 0.95073 0.26429 0.7492 0.0
C494 C 0.98451 0.28205 0.72907 0.0
C495 C 0.95642 0.26884 0.70574 0.0
C496 C 0.75502 0.06906 0.04192 0.0
C497 C 0.74107 0.03799 0.06396 0.0
C498 C 0.74197 0.04202 1.01884 0.0
C499 C 0.71438 0.98284 1.01692 0.0
H500 H 0.7795 0.11469 0.0425 0.0
H501 H 0.75742 0.0677 1.00245 0.0
S502 S 0.66328 0.882 0.0689 0.0
N503 N 0.69395 0.9446 0.08221 0.0
N504 N 0.6688 0.89407 1.03903 0.0
C505 C 0.6963 0.95135 1.03877 0.0
C506 C 0.70971 0.97882 0.06223 0.0
C507 C 0.69963 0.7549 0.37395 0.0
C508 C 0.71379 0.73879 0.39621 0.0
C509 C 0.71277 0.74017 0.35108 0.0
C510 C 0.74047 0.70862 0.3496 0.0
H511 H 0.68157 0.7822 0.37421 0.0
H512 H 0.70494 0.7571 0.33452 0.0
S513 S 0.78021 0.64996 0.40227 0.0
N514 N 0.75247 0.68516 0.41513 0.0
N515 N 0.7759 0.65656 0.37232 0.0
C516 C 0.7506 0.6884 0.37164 0.0
C517 C 0.73748 0.70359 0.3949 0.0
C518 C 0.07299 0.75444 0.70495 0.0
C519 C 0.04154 0.74026 0.683 0.0
C520 C 0.04631 0.74111 0.72809 0.0
C521 C 0.98706 0.71281 0.73018 0.0
H522 H 0.11864 0.77933 0.70425 0.0
H523 H 0.07226 0.75667 0.74442 0.0
S524 S 0.88529 0.6613 0.67849 0.0
N525 N 0.94776 0.69296 0.665 0.0
N526 N 0.89786 0.66638 0.70831 0.0
C527 C 0.95522 0.6947 0.70842 0.0
C528 C 0.98234 0.7087 0.68488 0.0
C529 C 0.33764 0.06929 1.03895 0.0
C530 C 0.32136 0.03888 1.01674 0.0
C531 C 0.32289 0.04153 0.06186 0.0
C532 C 0.29122 0.98227 0.06342 0.0
H533 H 0.35826 0.11491 1.03862 0.0
H534 H 0.33231 0.06667 0.07838 0.0
S535 S 0.24328 0.8831 1.01088 0.0
N536 N 0.27588 0.94613 0.99794 0.0
N537 N 0.24872 0.89421 0.04082 0.0
C538 C 0.27867 0.95147 0.04142 0.0
C539 C 0.29366 0.97968 1.01814 0.0
C540 C 0.08207 0.01506 0.31791 0.0
C541 C 0.07179 0.06004 0.32059 0.0
C542 C 0.03723 0.95963 0.31798 0.0
C543 C 0.98122 0.94812 0.32063 0.0
H544 H 0.12358 0.02259 0.31284 0.0
H545 H 0.04615 0.92646 0.31323 0.0
S546 S 0.93685 0.05057 0.33882 0.0
N547 N 1.00541 0.08933 0.33373 0.0
N548 N 0.92057 0.9846 0.33389 0.0
C549 C 0.97218 0.99203 0.3281 0.0
C550 C 0.01789 0.04848 0.32803 0.0
C551 C 0.95706 0.99833 0.65526 0.0
C552 C 1.00195 0.05447 0.6544 0.0
C553 C 0.96766 0.95355 0.65549 0.0
C554 C 0.02337 0.96413 0.65493 0.0
H555 H 0.91378 0.98872 0.65298 0.0
H556 H 0.93237 0.91119 0.65306 0.0
S557 S 0.15376 0.10242 0.66307 0.0
N558 N 0.10268 0.11766 0.66071 0.0
N559 N 0.12261 0.03301 0.66135 0.0
C560 C 0.06772 0.01941 0.65904 0.0
C561 C 0.05697 0.06504 0.65875 0.0
C562 C 0.0282 0.9631 0.98885 0.0
C563 C 0.07465 0.01803 0.98912 0.0
C564 C 0.9735 0.95455 0.98827 0.0
C565 C 0.9643 1.00077 0.98783 0.0
H566 H 0.03388 0.92709 0.986 0.0
H567 H 0.93895 0.91199 0.98534 0.0
S568 S 0.07157 0.15029 0.99917 0.0
N569 N 0.10798 0.11723 0.99708 0.0
N570 N 1.00467 0.1012 0.99578 0.0
C571 C 1.00977 0.05461 0.99313 0.0
C572 C 0.06546 0.06326 0.9938 0.0
C573 C 1.00652 0.95275 0.42602 0.0
C574 C 0.9603 0.96145 0.42456 0.0
C575 C 0.06127 0.99878 0.42667 0.0
C576 C 0.07072 0.05429 0.42598 0.0
H577 H 1.00046 0.91123 0.42979 0.0
H578 H 0.09549 0.99078 0.43057 0.0
S579 S 0.9646 0.0961 0.41097 0.0
N580 N 0.92778 0.02685 0.41413 0.0
N581 N 0.03125 0.11399 0.41545 0.0
C582 C 0.02571 0.06245 0.4194 0.0
C583 C 0.96996 0.01552 0.41869 0.0
C584 C 0.06488 1.00116 0.75845 0.0
C585 C 1.00917 0.9563 0.76008 0.0
C586 C 0.07575 0.05663 0.75789 0.0
C587 C 0.03113 0.06824 0.75904 0.0
H588 H 0.10022 0.99406 0.76057 0.0
H589 H 0.11924 0.09033 0.75939 0.0
S590 S 0.8786 0.96436 0.75294 0.0
N591 N 0.90957 0.92595 0.75488 0.0
N592 N 0.93006 0.03072 0.75406 0.0
C593 C 0.97573 0.02366 0.75572 0.0
C594 C 0.96467 0.96718 0.75624 0.0
C595 C 0.0344 0.08095 0.09516 0.0
C596 C 0.97825 0.03614 0.09368 0.0
C597 C 0.07937 0.0706 0.09453 0.0
C598 C 0.06909 0.01524 0.09232 0.0
H599 H 0.04358 0.12333 0.09949 0.0
H600 H 0.12129 0.10507 0.09872 0.0
S601 S 0.93253 0.88797 0.07737 0.0
N602 N 0.91655 0.93788 0.0822 0.0
N603 N 1.00162 0.91846 0.08097 0.0
C604 C 1.01451 0.9722 0.08605 0.0
C605 C 0.96866 0.9827 0.08672 0.0
C606 C 0.95428 0.20103 0.21816 0.0
C607 C 0.96164 0.21319 0.19287 0.0
C608 C 1.00088 0.22168 0.23435 0.0
C609 C 0.05727 0.25591 0.22617 0.0
H610 H 0.91276 0.1714 0.22521 0.0
H611 H 0.99273 0.20754 0.25325 0.0
S612 S 0.09895 0.30802 0.16242 0.0
N613 N 0.02955 0.26796 0.16106 0.0
N614 N 0.11632 0.30651 0.19133 0.0
C615 C 0.06464 0.27279 0.20139 0.0
C616 C 0.01721 0.2515 0.18486 0.0
C617 C 0.8167 0.06724 0.53055 0.0
C618 C 0.81129 0.05926 0.55615 0.0
C619 C 0.79465 0.02092 0.5142 0.0
C620 C 0.76556 0.96434 0.52259 0.0
H621 H 0.84242 0.10928 0.52313 0.0
H622 H 0.80392 0.02961 0.49484 0.0
S623 S 0.73193 0.92056 0.5877 0.0
N624 N 0.76834 0.99016 0.58888 0.0
N625 N 0.72701 0.90395 0.55832 0.0
C626 C 0.75511 0.95604 0.54797 0.0
C627 C 0.77796 1.00314 0.56464 0.0
C628 C 0.7844 0.78713 0.84958 0.0
C629 C 0.81436 0.76065 0.8581 0.0
C630 C 0.76079 0.80999 0.86583 0.0
C631 C 0.76662 0.80815 0.89143 0.0
H632 H 0.78253 0.7938 0.83008 0.0
H633 H 0.74238 0.83366 0.85817 0.0
S634 S 0.83376 0.73678 0.92353 0.0
N635 N 0.84232 0.72844 0.89413 0.0
N636 N 0.79874 0.7714 0.92452 0.0
C637 C 0.79203 0.77743 0.9002 0.0
C638 C 0.81556 0.75368 0.88364 0.0
C639 C 0.06435 0.80342 0.21212 0.0
C640 C 0.05682 0.80807 0.18683 0.0
C641 C 0.01789 0.77849 0.22841 0.0
C642 C 0.96146 0.75653 0.22028 0.0
H643 H 0.10657 0.82321 0.21974 0.0
H644 H 0.02672 0.77999 0.24787 0.0
S645 S 0.91794 0.74916 0.15524 0.0
N646 N 0.98755 0.78131 0.15405 0.0
N647 N 0.90116 0.73502 0.18451 0.0
C648 C 0.95314 0.75597 0.19476 0.0
C649 C 1.00044 0.78161 0.17816 0.0
C650 C 0.21601 0.95878 0.53151 0.0
C651 C 0.21915 0.96626 0.55714 0.0
C652 C 0.23885 1.00541 0.51532 0.0
C653 C 0.26656 0.06179 0.52392 0.0
H654 H 0.19142 0.91683 0.52385 0.0
H655 H 0.23123 0.99709 0.49584 0.0
S656 S 0.29415 0.10445 0.58936 0.0
N657 N 0.25855 0.03481 0.59027 0.0
N658 N 0.30135 0.12159 0.55999 0.0
C659 C 0.27483 0.06969 0.54943 0.0
C660 C 0.25115 0.02227 0.56593 0.0
C661 C 0.23779 0.23869 0.89916 0.0
C662 C 0.2676 0.21204 0.89066 0.0
C663 C 0.21595 0.26343 0.88295 0.0
C664 C 0.22235 0.26228 0.85736 0.0
H665 H 0.22782 0.23711 0.91849 0.0
H666 H 0.18965 0.27899 0.89044 0.0
S667 S 0.30453 0.20644 0.8256 0.0
N668 N 0.30832 0.19307 0.85489 0.0
N669 N 0.26733 0.23882 0.82457 0.0
C670 C 0.25651 0.24053 0.8488 0.0
C671 C 0.27913 0.21576 0.86534 0.0
C672 C 0.22492 0.11097 0.23115 0.0
C673 C 0.22204 0.15737 0.22179 0.0
C674 C 0.22576 0.07066 0.2154 0.0
C675 C 0.22165 0.07417 0.18975 0.0
H676 H 0.22555 0.10528 0.25081 0.0
H677 H 0.22673 0.03495 0.22345 0.0
S678 S 0.21373 0.18768 0.15602 0.0
N679 N 0.21705 0.20547 0.1852 0.0
N680 N 0.21591 0.12848 0.15576 0.0
C681 C 0.21964 0.12082 0.18018 0.0
C682 C 0.22055 0.16273 0.19616 0.0
C683 C 0.07785 0.22765 0.53245 0.0
C684 C 0.07622 0.21524 0.55767 0.0
C685 C 0.1185 0.22717 0.51677 0.0
C686 C 0.16019 0.21633 0.52592 0.0
H687 H 0.04593 0.23529 0.52455 0.0
H688 H 0.11696 0.23473 0.49734 0.0
S689 S 0.17615 0.18375 0.59051 0.0
N690 N 0.12065 0.19256 0.59098 0.0
N691 N 0.19835 0.19426 0.56177 0.0
C692 C 0.16037 0.20597 0.55119 0.0
C693 C 0.11807 0.20478 0.567 0.0
C694 C 0.95207 0.16492 0.88044 0.0
C695 C 0.9576 0.1519 0.85589 0.0
C696 C 0.91142 0.12409 0.89624 0.0
C697 C 0.87362 0.06936 0.88784 0.0
H698 H 0.98093 0.20629 0.88783 0.0
H699 H 0.90996 0.13518 0.9152 0.0
S700 S 0.86828 0.01405 0.8252 0.0
N701 N 0.92056 0.08006 0.82403 0.0
N702 N 0.8431 1.0044 0.85343 0.0
C703 C 0.87725 0.0563 0.86321 0.0
C704 C 0.91946 0.09728 0.84731 0.0
C705 C 0.7733 0.86851 0.21442 0.0
C706 C 0.82399 0.87517 0.22426 0.0
C707 C 0.77321 0.90945 0.19873 0.0
C708 C 0.82396 0.95764 0.19164 0.0
H709 H 0.73334 0.83155 0.21898 0.0
H710 H 0.73323 0.90293 0.19181 0.0
S711 S 0.96811 0.99546 0.21226 0.0
N712 N 0.92627 0.93471 0.2259 0.0
N713 N 0.92607 0.0102 0.19609 0.0
C714 C 0.87483 0.96468 0.20128 0.0
C715 C 0.87486 0.92389 0.21766 0.0
C716 C 0.91392 0.79928 0.51523 0.0
C717 C 0.87081 0.80786 0.52446 0.0
C718 C 0.95414 0.79809 0.531 0.0
C719 C 0.9539 0.80752 0.55643 0.0
H720 H 0.91689 0.79405 0.49568 0.0
H721 H 0.98721 0.79233 0.52305 0.0
S722 S 0.84985 0.83223 0.5896 0.0
N723 N 0.82937 0.82451 0.56064 0.0
N724 N 0.90628 0.82499 0.59003 0.0
C725 C 0.91065 0.81567 0.56584 0.0
C726 C 0.86879 0.81515 0.54992 0.0
C727 C 0.16768 0.94971 0.86504 0.0
C728 C 0.16042 0.94699 0.89071 0.0
C729 C 0.12604 0.90918 0.84948 0.0
C730 C 0.07667 0.86331 0.85908 0.0
H731 H 0.20457 0.98491 0.85683 0.0
H732 H 0.13216 0.91415 0.8298 0.0
S733 S 0.03845 0.83534 0.92495 0.0
N734 N 0.10027 0.89422 0.92496 0.0
N735 N 0.02354 0.8167 0.89587 0.0
C736 C 0.06998 0.85887 0.88473 0.0
C737 C 0.11144 0.90104 0.90051 0.0
loop_
_geom_bond_atom_site_label_1
_geom_bond_atom_site_label_2
_geom_bond_distance
_geom_bond_site_symmetry_2
_ccdc_geom_bond_type
Co0 O3 1.970 . S
Co0 N17 1.989 . S
Co0 O25 1.967 . S
Co0 O32 1.920 . S
Co1 O4 1.966 . S
Co1 N10 2.022 . S
Co1 N18 1.993 . S
Co1 O26 1.941 . S
C2 O3 1.258 . S
C2 O4 1.263 . S
O3 Co0 1.970 . S
O3 C2 1.258 . S
O4 Co1 1.966 . S
O4 C2 1.263 . S
C5 O6 1.235 . S
C5 O32 1.289 . S
O6 C5 1.235 . S
C7 C9 1.400 . S
C7 N10 1.351 . S
C7 C12 1.501 . S
C8 C9 1.387 . S
C8 N11 1.341 . S
C9 C7 1.400 . S
C9 C8 1.387 . S
N10 Co1 2.022 . S
N10 C7 1.351 . S
N10 N11 1.365 . S
N11 C8 1.341 . S
N11 N10 1.365 . S
N11 H31 0.862 . S
C12 C7 1.501 . S
C12 H13 0.961 . S
C12 H14 0.961 . S
C12 H15 0.960 . S
H13 C12 0.961 . S
H14 C12 0.961 . S
H15 C12 0.960 . S
C16 N17 1.342 . S
C16 C20 1.401 . S
C16 C21 1.499 . S
N17 Co0 1.989 . S
N17 C16 1.342 . S
N17 N18 1.388 . S
N18 Co1 1.993 . S
N18 N17 1.388 . S
N18 C19 1.346 . S
C19 N18 1.346 . S
C19 C20 1.396 . S
C19 C29 1.510 . S
C20 C16 1.401 . S
C20 C19 1.396 . S
C21 C16 1.499 . S
C21 H22 0.959 . S
C21 H23 0.960 . S
C21 H24 0.961 . S
H22 C21 0.959 . S
H23 C21 0.960 . S
H24 C21 0.961 . S
O25 Co0 1.967 . S
O25 C33 1.258 . S
O26 Co1 1.941 . S
O26 C33 1.266 . S
H27 C29 0.959 . S
H28 C29 0.961 . S
C29 C19 1.510 . S
C29 H27 0.959 . S
C29 H28 0.961 . S
C29 H30 0.960 . S
H30 C29 0.960 . S
H31 N11 0.862 . S
O32 Co0 1.920 . S
O32 C5 1.289 . S
C33 O25 1.258 . S
C33 O26 1.266 . S
Co34 O37 1.970 1_655 S
Co34 N51 1.989 . S
Co34 O59 1.967 . S
Co34 O66 1.920 . S
Co35 O38 1.966 . S
Co35 N44 2.022 . S
Co35 N52 1.993 . S
Co35 O60 1.941 . S
C36 O37 1.258 . S
C36 O38 1.263 1_455 S
O37 Co34 1.970 1_455 S
O37 C36 1.258 . S
O38 Co35 1.966 . S
O38 C36 1.263 1_655 S
C39 O40 1.235 1_655 S
C39 O66 1.289 . S
O40 C39 1.235 1_455 S
C41 C43 1.400 . S
C41 N44 1.351 . S
C41 C46 1.501 1_655 S
C42 C43 1.387 . S
C42 N45 1.341 . S
C43 C41 1.400 . S
C43 C42 1.387 . S
N44 Co35 2.022 . S
N44 C41 1.351 . S
N44 N45 1.365 . S
N45 C42 1.341 . S
N45 N44 1.365 . S
N45 H65 0.862 . S
C46 C41 1.501 1_455 S
C46 H47 0.961 . S
C46 H48 0.961 . S
C46 H49 0.960 . S
H47 C46 0.961 . S
H48 C46 0.961 . S
H49 C46 0.960 . S
C50 N51 1.342 . S
C50 C54 1.401 . S
C50 C55 1.499 . S
N51 Co34 1.989 . S
N51 C50 1.342 . S
N51 N52 1.388 . S
N52 Co35 1.993 . S
N52 N51 1.388 . S
N52 C53 1.346 . S
C53 N52 1.346 . S
C53 C54 1.396 . S
C53 C63 1.510 . S
C54 C50 1.401 . S
C54 C53 1.396 . S
C55 C50 1.499 . S
C55 H56 0.959 . S
C55 H57 0.960 . S
C55 H58 0.961 . S
H56 C55 0.959 . S
H57 C55 0.960 . S
H58 C55 0.961 . S
O59 Co34 1.967 . S
O59 C67 1.258 . S
O60 Co35 1.941 . S
O60 C67 1.266 . S
H61 C63 0.959 . S
H62 C63 0.961 . S
C63 C53 1.510 . S
C63 H61 0.959 . S
C63 H62 0.961 . S
C63 H64 0.960 . S
H64 C63 0.960 . S
H65 N45 0.862 . S
O66 Co34 1.920 . S
O66 C39 1.289 . S
C67 O59 1.258 . S
C67 O60 1.266 . S
Co68 O71 1.970 1_565 S
Co68 N85 1.989 . S
Co68 O93 1.967 . S
Co68 O100 1.920 . S
Co69 O72 1.966 . S
Co69 N78 2.022 . S
Co69 N86 1.993 . S
Co69 O94 1.941 . S
C70 O71 1.258 . S
C70 O72 1.263 1_545 S
O71 Co68 1.970 1_545 S
O71 C70 1.258 . S
O72 Co69 1.966 . S
O72 C70 1.263 1_565 S
C73 O74 1.235 1_565 S
C73 O100 1.289 . S
O74 C73 1.235 1_545 S
C75 C77 1.400 . S
C75 N78 1.351 . S
C75 C80 1.501 1_565 S
C76 C77 1.387 . S
C76 N79 1.341 . S
C77 C75 1.400 . S
C77 C76 1.387 . S
N78 Co69 2.022 . S
N78 C75 1.351 . S
N78 N79 1.365 . S
N79 C76 1.341 . S
N79 N78 1.365 . S
N79 H99 0.862 . S
C80 C75 1.501 1_545 S
C80 H81 0.961 . S
C80 H82 0.961 . S
C80 H83 0.960 . S
H81 C80 0.961 . S
H82 C80 0.961 . S
H83 C80 0.960 . S
C84 N85 1.342 . S
C84 C88 1.401 . S
C84 C89 1.499 . S
N85 Co68 1.989 . S
N85 C84 1.342 . S
N85 N86 1.388 . S
N86 Co69 1.993 . S
N86 N85 1.388 . S
N86 C87 1.346 . S
C87 N86 1.346 . S
C87 C88 1.396 . S
C87 C97 1.510 . S
C88 C84 1.401 . S
C88 C87 1.396 . S
C89 C84 1.499 . S
C89 H90 0.959 . S
C89 H91 0.960 . S
C89 H92 0.961 . S
H90 C89 0.959 . S
H91 C89 0.960 . S
H92 C89 0.961 . S
O93 Co68 1.967 . S
O93 C101 1.258 . S
O94 Co69 1.941 . S
O94 C101 1.266 . S
H95 C97 0.959 . S
H96 C97 0.961 . S
C97 C87 1.510 . S
C97 H95 0.959 . S
C97 H96 0.961 . S
C97 H98 0.960 . S
H98 C97 0.960 . S
H99 N79 0.862 . S
O100 Co68 1.920 . S
O100 C73 1.289 . S
C101 O93 1.258 . S
C101 O94 1.266 . S
Co102 O105 1.970 . S
Co102 N119 1.989 . S
Co102 O127 1.967 . S
Co102 O134 1.920 . S
Co103 O106 1.966 . S
Co103 N112 2.022 . S
Co103 N120 1.993 . S
Co103 O128 1.941 . S
C104 O105 1.258 . S
C104 O106 1.263 . S
O105 Co102 1.970 . S
O105 C104 1.258 . S
O106 Co103 1.966 . S
O106 C104 1.263 . S
C107 O108 1.235 . S
C107 O134 1.289 . S
O108 C107 1.235 . S
C109 C111 1.400 . S
C109 N112 1.351 . S
C109 C114 1.501 . S
C110 C111 1.387 . S
C110 N113 1.341 . S
C111 C109 1.400 . S
C111 C110 1.387 . S
N112 Co103 2.022 . S
N112 C109 1.351 . S
N112 N113 1.365 . S
N113 C110 1.341 . S
N113 N112 1.365 . S
N113 H133 0.862 . S
C114 C109 1.501 . S
C114 H115 0.961 . S
C114 H116 0.961 . S
C114 H117 0.960 . S
H115 C114 0.961 . S
H116 C114 0.961 . S
H117 C114 0.960 . S
C118 N119 1.342 . S
C118 C122 1.401 . S
C118 C123 1.499 . S
N119 Co102 1.989 . S
N119 C118 1.342 . S
N119 N120 1.388 . S
N120 Co103 1.993 . S
N120 N119 1.388 . S
N120 C121 1.346 . S
C121 N120 1.346 . S
C121 C122 1.396 . S
C121 C131 1.510 . S
C122 C118 1.401 . S
C122 C121 1.396 . S
C123 C118 1.499 . S
C123 H124 0.959 . S
C123 H125 0.960 . S
C123 H126 0.961 . S
H124 C123 0.959 . S
H125 C123 0.960 . S
H126 C123 0.961 . S
O127 Co102 1.967 . S
O127 C135 1.258 . S
O128 Co103 1.941 . S
O128 C135 1.266 . S
H129 C131 0.959 . S
H130 C131 0.961 . S
C131 C121 1.510 . S
C131 H129 0.959 . S
C131 H130 0.961 . S
C131 H132 0.960 . S
H132 C131 0.960 . S
H133 N113 0.862 . S
O134 Co102 1.920 . S
O134 C107 1.289 . S
C135 O127 1.258 . S
C135 O128 1.266 . S
Co136 O139 1.970 1_455 S
Co136 N153 1.989 . S
Co136 O161 1.967 . S
Co136 O168 1.920 . S
Co137 O140 1.966 . S
Co137 N146 2.022 . S
Co137 N154 1.993 . S
Co137 O162 1.941 . S
C138 O139 1.258 . S
C138 O140 1.263 1_655 S
O139 Co136 1.970 1_655 S
O139 C138 1.258 . S
O140 Co137 1.966 . S
O140 C138 1.263 1_455 S
C141 O142 1.235 1_455 S
C141 O168 1.289 . S
O142 C141 1.235 1_655 S
C143 C145 1.400 . S
C143 N146 1.351 . S
C143 C148 1.501 1_455 S
C144 C145 1.387 . S
C144 N147 1.341 . S
C145 C143 1.400 . S
C145 C144 1.387 . S
N146 Co137 2.022 . S
N146 C143 1.351 . S
N146 N147 1.365 . S
N147 C144 1.341 . S
N147 N146 1.365 . S
N147 H167 0.862 . S
C148 C143 1.501 1_655 S
C148 H149 0.961 . S
C148 H150 0.961 . S
C148 H151 0.960 . S
H149 C148 0.961 . S
H150 C148 0.961 . S
H151 C148 0.960 . S
C152 N153 1.342 . S
C152 C156 1.401 . S
C152 C157 1.499 . S
N153 Co136 1.989 . S
N153 C152 1.342 . S
N153 N154 1.388 . S
N154 Co137 1.993 . S
N154 N153 1.388 . S
N154 C155 1.346 . S
C155 N154 1.346 . S
C155 C156 1.396 . S
C155 C165 1.510 . S
C156 C152 1.401 . S
C156 C155 1.396 . S
C157 C152 1.499 . S
C157 H158 0.959 . S
C157 H159 0.960 . S
C157 H160 0.961 . S
H158 C157 0.959 . S
H159 C157 0.960 . S
H160 C157 0.961 . S
O161 Co136 1.967 . S
O161 C169 1.258 . S
O162 Co137 1.941 . S
O162 C169 1.266 . S
H163 C165 0.959 . S
H164 C165 0.961 . S
C165 C155 1.510 . S
C165 H163 0.959 . S
C165 H164 0.961 . S
C165 H166 0.960 . S
H166 C165 0.960 . S
H167 N147 0.862 . S
O168 Co136 1.920 . S
O168 C141 1.289 . S
C169 O161 1.258 . S
C169 O162 1.266 . S
Co170 O173 1.970 1_545 S
Co170 N187 1.989 . S
Co170 O195 1.967 . S
Co170 O202 1.920 . S
Co171 O174 1.966 . S
Co171 N180 2.022 . S
Co171 N188 1.993 . S
Co171 O196 1.941 . S
C172 O173 1.258 . S
C172 O174 1.263 1_565 S
O173 Co170 1.970 1_565 S
O173 C172 1.258 . S
O174 Co171 1.966 . S
O174 C172 1.263 1_545 S
C175 O176 1.235 1_545 S
C175 O202 1.289 . S
O176 C175 1.235 1_565 S
C177 C179 1.400 . S
C177 N180 1.351 . S
C177 C182 1.501 1_545 S
C178 C179 1.387 . S
C178 N181 1.341 . S
C179 C177 1.400 . S
C179 C178 1.387 . S
N180 Co171 2.022 . S
N180 C177 1.351 . S
N180 N181 1.365 . S
N181 C178 1.341 . S
N181 N180 1.365 . S
N181 H201 0.862 . S
C182 C177 1.501 1_565 S
C182 H183 0.961 . S
C182 H184 0.961 . S
C182 H185 0.960 . S
H183 C182 0.961 . S
H184 C182 0.961 . S
H185 C182 0.960 . S
C186 N187 1.342 . S
C186 C190 1.401 . S
C186 C191 1.499 . S
N187 Co170 1.989 . S
N187 C186 1.342 . S
N187 N188 1.388 . S
N188 Co171 1.993 . S
N188 N187 1.388 . S
N188 C189 1.346 . S
C189 N188 1.346 . S
C189 C190 1.396 . S
C189 C199 1.510 . S
C190 C186 1.401 . S
C190 C189 1.396 . S
C191 C186 1.499 . S
C191 H192 0.959 . S
C191 H193 0.960 . S
C191 H194 0.961 . S
H192 C191 0.959 . S
H193 C191 0.960 . S
H194 C191 0.961 . S
O195 Co170 1.967 . S
O195 C203 1.258 . S
O196 Co171 1.941 . S
O196 C203 1.266 . S
H197 C199 0.959 . S
H198 C199 0.961 . S
C199 C189 1.510 . S
C199 H197 0.959 . S
C199 H198 0.961 . S
C199 H200 0.960 . S
H200 C199 0.960 . S
H201 N181 0.862 . S
O202 Co170 1.920 . S
O202 C175 1.289 . S
C203 O195 1.258 . S
C203 O196 1.266 . S
Co204 O207 1.970 . S
Co204 N221 1.989 . S
Co204 O229 1.967 . S
Co204 O236 1.920 . S
Co205 O208 1.966 . S
Co205 N214 2.022 . S
Co205 N222 1.993 . S
Co205 O230 1.941 . S
C206 O207 1.258 . S
C206 O208 1.263 . S
O207 Co204 1.970 . S
O207 C206 1.258 . S
O208 Co205 1.966 . S
O208 C206 1.263 . S
C209 O210 1.235 . S
C209 O236 1.289 . S
O210 C209 1.235 . S
C211 C213 1.400 . S
C211 N214 1.351 . S
C211 C216 1.501 . S
C212 C213 1.387 . S
C212 N215 1.341 . S
C213 C211 1.400 . S
C213 C212 1.387 . S
N214 Co205 2.022 . S
N214 C211 1.351 . S
N214 N215 1.365 . S
N215 C212 1.341 . S
N215 N214 1.365 . S
N215 H235 0.862 . S
C216 C211 1.501 . S
C216 H217 0.961 . S
C216 H218 0.961 . S
C216 H219 0.960 . S
H217 C216 0.961 . S
H218 C216 0.961 . S
H219 C216 0.960 . S
C220 N221 1.342 . S
C220 C224 1.401 . S
C220 C225 1.499 . S
N221 Co204 1.989 . S
N221 C220 1.342 . S
N221 N222 1.388 . S
N222 Co205 1.993 . S
N222 N221 1.388 . S
N222 C223 1.346 . S
C223 N222 1.346 . S
C223 C224 1.396 . S
C223 C233 1.510 . S
C224 C220 1.401 . S
C224 C223 1.396 . S
C225 C220 1.499 . S
C225 H226 0.959 . S
C225 H227 0.960 . S
C225 H228 0.961 . S
H226 C225 0.959 . S
H227 C225 0.960 . S
H228 C225 0.961 . S
O229 Co204 1.967 . S
O229 C237 1.258 . S
O230 Co205 1.941 . S
O230 C237 1.266 . S
H231 C233 0.959 . S
H232 C233 0.961 . S
C233 C223 1.510 . S
C233 H231 0.959 . S
C233 H232 0.961 . S
C233 H234 0.960 . S
H234 C233 0.960 . S
H235 N215 0.862 . S
O236 Co204 1.920 . S
O236 C209 1.289 . S
C237 O229 1.258 . S
C237 O230 1.266 . S
Co238 O241 1.970 1_655 S
Co238 N255 1.989 . S
Co238 O263 1.967 . S
Co238 O270 1.920 . S
Co239 O242 1.966 . S
Co239 N248 2.022 . S
Co239 N256 1.993 . S
Co239 O264 1.941 . S
C240 O241 1.258 . S
C240 O242 1.263 1_455 S
O241 Co238 1.970 1_455 S
O241 C240 1.258 . S
O242 Co239 1.966 . S
O242 C240 1.263 1_655 S
C243 O244 1.235 1_655 S
C243 O270 1.289 . S
O244 C243 1.235 1_455 S
C245 C247 1.400 . S
C245 N248 1.351 . S
C245 C250 1.501 1_655 S
C246 C247 1.387 . S
C246 N249 1.341 . S
C247 C245 1.400 . S
C247 C246 1.387 . S
N248 Co239 2.022 . S
N248 C245 1.351 . S
N248 N249 1.365 . S
N249 C246 1.341 . S
N249 N248 1.365 . S
N249 H269 0.862 . S
C250 C245 1.501 1_455 S
C250 H251 0.961 . S
C250 H252 0.961 . S
C250 H253 0.960 . S
H251 C250 0.961 . S
H252 C250 0.961 . S
H253 C250 0.960 . S
C254 N255 1.342 . S
C254 C258 1.401 . S
C254 C259 1.499 . S
N255 Co238 1.989 . S
N255 C254 1.342 . S
N255 N256 1.388 . S
N256 Co239 1.993 . S
N256 N255 1.388 . S
N256 C257 1.346 . S
C257 N256 1.346 . S
C257 C258 1.396 . S
C257 C267 1.510 . S
C258 C254 1.401 . S
C258 C257 1.396 . S
C259 C254 1.499 . S
C259 H260 0.959 . S
C259 H261 0.960 . S
C259 H262 0.961 . S
H260 C259 0.959 . S
H261 C259 0.960 . S
H262 C259 0.961 . S
O263 Co238 1.967 . S
O263 C271 1.258 . S
O264 Co239 1.941 . S
O264 C271 1.266 . S
H265 C267 0.959 . S
H266 C267 0.961 . S
C267 C257 1.510 . S
C267 H265 0.959 . S
C267 H266 0.961 . S
C267 H268 0.960 . S
H268 C267 0.960 . S
H269 N249 0.862 . S
O270 Co238 1.920 . S
O270 C243 1.289 . S
C271 O263 1.258 . S
C271 O264 1.266 . S
Co272 O275 1.970 1_565 S
Co272 N289 1.989 . S
Co272 O297 1.967 . S
Co272 O304 1.920 . S
Co273 O276 1.966 . S
Co273 N282 2.022 . S
Co273 N290 1.993 . S
Co273 O298 1.941 . S
C274 O275 1.258 . S
C274 O276 1.263 1_545 S
O275 Co272 1.970 1_545 S
O275 C274 1.258 . S
O276 Co273 1.966 . S
O276 C274 1.263 1_565 S
C277 O278 1.235 1_565 S
C277 O304 1.289 . S
O278 C277 1.235 1_545 S
C279 C281 1.400 . S
C279 N282 1.351 . S
C279 C284 1.501 1_565 S
C280 C281 1.387 . S
C280 N283 1.341 . S
C281 C279 1.400 . S
C281 C280 1.387 . S
N282 Co273 2.022 . S
N282 C279 1.351 . S
N282 N283 1.365 . S
N283 C280 1.341 . S
N283 N282 1.365 . S
N283 H303 0.862 . S
C284 C279 1.501 1_545 S
C284 H285 0.961 . S
C284 H286 0.961 . S
C284 H287 0.960 . S
H285 C284 0.961 . S
H286 C284 0.961 . S
H287 C284 0.960 . S
C288 N289 1.342 . S
C288 C292 1.401 . S
C288 C293 1.499 . S
N289 Co272 1.989 . S
N289 C288 1.342 . S
N289 N290 1.388 . S
N290 Co273 1.993 . S
N290 N289 1.388 . S
N290 C291 1.346 . S
C291 N290 1.346 . S
C291 C292 1.396 . S
C291 C301 1.510 . S
C292 C288 1.401 . S
C292 C291 1.396 . S
C293 C288 1.499 . S
C293 H294 0.959 . S
C293 H295 0.960 . S
C293 H296 0.961 . S
H294 C293 0.959 . S
H295 C293 0.960 . S
H296 C293 0.961 . S
O297 Co272 1.967 . S
O297 C305 1.258 . S
O298 Co273 1.941 . S
O298 C305 1.266 . S
H299 C301 0.959 . S
H300 C301 0.961 . S
C301 C291 1.510 . S
C301 H299 0.959 . S
C301 H300 0.961 . S
C301 H302 0.960 . S
H302 C301 0.960 . S
H303 N283 0.862 . S
O304 Co272 1.920 . S
O304 C277 1.289 . S
C305 O297 1.258 . S
C305 O298 1.266 . S
Co306 O309 1.970 . S
Co306 N323 1.989 . S
Co306 O331 1.967 . S
Co306 O338 1.920 . S
Co307 O310 1.966 . S
Co307 N316 2.022 . S
Co307 N324 1.993 . S
Co307 O332 1.941 . S
C308 O309 1.258 . S
C308 O310 1.263 . S
O309 Co306 1.970 . S
O309 C308 1.258 . S
O310 Co307 1.966 . S
O310 C308 1.263 . S
C311 O312 1.235 . S
C311 O338 1.289 . S
O312 C311 1.235 . S
C313 C315 1.400 . S
C313 N316 1.351 . S
C313 C318 1.501 . S
C314 C315 1.387 . S
C314 N317 1.341 . S
C315 C313 1.400 . S
C315 C314 1.387 . S
N316 Co307 2.022 . S
N316 C313 1.351 . S
N316 N317 1.365 . S
N317 C314 1.341 . S
N317 N316 1.365 . S
N317 H337 0.862 . S
C318 C313 1.501 . S
C318 H319 0.961 . S
C318 H320 0.961 . S
C318 H321 0.960 . S
H319 C318 0.961 . S
H320 C318 0.961 . S
H321 C318 0.960 . S
C322 N323 1.342 . S
C322 C326 1.401 . S
C322 C327 1.499 . S
N323 Co306 1.989 . S
N323 C322 1.342 . S
N323 N324 1.388 . S
N324 Co307 1.993 . S
N324 N323 1.388 . S
N324 C325 1.346 . S
C325 N324 1.346 . S
C325 C326 1.396 . S
C325 C335 1.510 . S
C326 C322 1.401 . S
C326 C325 1.396 . S
C327 C322 1.499 . S
C327 H328 0.959 . S
C327 H329 0.960 . S
C327 H330 0.961 . S
H328 C327 0.959 . S
H329 C327 0.960 . S
H330 C327 0.961 . S
O331 Co306 1.967 . S
O331 C339 1.258 . S
O332 Co307 1.941 . S
O332 C339 1.266 . S
H333 C335 0.959 . S
H334 C335 0.961 . S
C335 C325 1.510 . S
C335 H333 0.959 . S
C335 H334 0.961 . S
C335 H336 0.960 . S
H336 C335 0.960 . S
H337 N317 0.862 . S
O338 Co306 1.920 . S
O338 C311 1.289 . S
C339 O331 1.258 . S
C339 O332 1.266 . S
Co340 O343 1.970 1_455 S
Co340 N357 1.989 . S
Co340 O365 1.967 . S
Co340 O372 1.920 . S
Co341 O344 1.966 . S
Co341 N350 2.022 . S
Co341 N358 1.993 . S
Co341 O366 1.941 . S
C342 O343 1.258 . S
C342 O344 1.263 1_655 S
O343 Co340 1.970 1_655 S
O343 C342 1.258 . S
O344 Co341 1.966 . S
O344 C342 1.263 1_455 S
C345 O346 1.235 1_455 S
C345 O372 1.289 . S
O346 C345 1.235 1_655 S
C347 C349 1.400 . S
C347 N350 1.351 . S
C347 C352 1.501 1_455 S
C348 C349 1.387 . S
C348 N351 1.341 . S
C349 C347 1.400 . S
C349 C348 1.387 . S
N350 Co341 2.022 . S
N350 C347 1.351 . S
N350 N351 1.365 . S
N351 C348 1.341 . S
N351 N350 1.365 . S
N351 H371 0.862 . S
C352 C347 1.501 1_655 S
C352 H353 0.961 . S
C352 H354 0.961 . S
C352 H355 0.960 . S
H353 C352 0.961 . S
H354 C352 0.961 . S
H355 C352 0.960 . S
C356 N357 1.342 . S
C356 C360 1.401 . S
C356 C361 1.499 . S
N357 Co340 1.989 . S
N357 C356 1.342 . S
N357 N358 1.388 . S
N358 Co341 1.993 . S
N358 N357 1.388 . S
N358 C359 1.346 . S
C359 N358 1.346 . S
C359 C360 1.396 . S
C359 C369 1.510 . S
C360 C356 1.401 . S
C360 C359 1.396 . S
C361 C356 1.499 . S
C361 H362 0.959 . S
C361 H363 0.960 . S
C361 H364 0.961 . S
H362 C361 0.959 . S
H363 C361 0.960 . S
H364 C361 0.961 . S
O365 Co340 1.967 . S
O365 C373 1.258 . S
O366 Co341 1.941 . S
O366 C373 1.266 . S
H367 C369 0.959 . S
H368 C369 0.961 . S
C369 C359 1.510 . S
C369 H367 0.959 . S
C369 H368 0.961 . S
C369 H370 0.960 . S
H370 C369 0.960 . S
H371 N351 0.862 . S
O372 Co340 1.920 . S
O372 C345 1.289 . S
C373 O365 1.258 . S
C373 O366 1.266 . S
Co374 O377 1.970 1_545 S
Co374 N391 1.989 . S
Co374 O399 1.967 . S
Co374 O406 1.920 . S
Co375 O378 1.966 . S
Co375 N384 2.022 . S
Co375 N392 1.993 . S
Co375 O400 1.941 . S
C376 O377 1.258 . S
C376 O378 1.263 1_565 S
O377 Co374 1.970 1_565 S
O377 C376 1.258 . S
O378 Co375 1.966 . S
O378 C376 1.263 1_545 S
C379 O380 1.235 1_545 S
C379 O406 1.289 . S
O380 C379 1.235 1_565 S
C381 C383 1.400 . S
C381 N384 1.351 . S
C381 C386 1.501 1_545 S
C382 C383 1.387 . S
C382 N385 1.341 . S
C383 C381 1.400 . S
C383 C382 1.387 . S
N384 Co375 2.022 . S
N384 C381 1.351 . S
N384 N385 1.365 . S
N385 C382 1.341 . S
N385 N384 1.365 . S
N385 H405 0.862 . S
C386 C381 1.501 1_565 S
C386 H387 0.961 . S
C386 H388 0.961 . S
C386 H389 0.960 . S
H387 C386 0.961 . S
H388 C386 0.961 . S
H389 C386 0.960 . S
C390 N391 1.342 . S
C390 C394 1.401 . S
C390 C395 1.499 . S
N391 Co374 1.989 . S
N391 C390 1.342 . S
N391 N392 1.388 . S
N392 Co375 1.993 . S
N392 N391 1.388 . S
N392 C393 1.346 . S
C393 N392 1.346 . S
C393 C394 1.396 . S
C393 C403 1.510 . S
C394 C390 1.401 . S
C394 C393 1.396 . S
C395 C390 1.499 . S
C395 H396 0.959 . S
C395 H397 0.960 . S
C395 H398 0.961 . S
H396 C395 0.959 . S
H397 C395 0.960 . S
H398 C395 0.961 . S
O399 Co374 1.967 . S
O399 C407 1.258 . S
O400 Co375 1.941 . S
O400 C407 1.266 . S
H401 C403 0.959 . S
H402 C403 0.961 . S
C403 C393 1.510 . S
C403 H401 0.959 . S
C403 H402 0.961 . S
C403 H404 0.960 . S
H404 C403 0.960 . S
H405 N385 0.862 . S
O406 Co374 1.920 . S
O406 C379 1.289 . S
C407 O399 1.258 . S
C407 O400 1.266 . S
C408 C409 1.369 . S
C408 C410 1.419 . S
C408 H412 0.930 . S
C409 C408 1.369 . S
C409 C418 1.429 . S
C410 C408 1.419 . S
C410 C411 1.363 . S
C410 H413 0.929 . S
C411 C410 1.363 . S
C411 C417 1.428 . S
H412 C408 0.930 . S
H413 C410 0.929 . S
S414 N415 1.613 . S
S414 N416 1.610 . S
N415 S414 1.613 . S
N415 C418 1.350 . S
N416 S414 1.610 . S
N416 C417 1.351 . S
C417 C411 1.428 . S
C417 N416 1.351 . S
C417 C418 1.434 . S
C418 C409 1.429 . S
C418 N415 1.350 . S
C418 C417 1.434 . S
C419 C420 1.369 1_655 S
C419 C421 1.419 . S
C419 H423 0.930 . S
C420 C419 1.369 1_455 S
C420 C429 1.429 . S
C421 C419 1.419 . S
C421 C422 1.363 . S
C421 H424 0.929 . S
C422 C421 1.363 . S
C422 C428 1.428 1_655 S
H423 C419 0.930 . S
H424 C421 0.929 . S
S425 N426 1.613 . S
S425 N427 1.610 . S
N426 S425 1.613 . S
N426 C429 1.350 . S
N427 S425 1.610 . S
N427 C428 1.351 . S
C428 C422 1.428 1_455 S
C428 N427 1.351 . S
C428 C429 1.434 . S
C429 C420 1.429 . S
C429 N426 1.350 . S
C429 C428 1.434 . S
C430 C431 1.369 . S
C430 C432 1.419 . S
C430 H434 0.930 . S
C431 C430 1.369 . S
C431 C440 1.429 1_545 S
C432 C430 1.419 . S
C432 C433 1.363 1_545 S
C432 H435 0.929 . S
C433 C432 1.363 1_565 S
C433 C439 1.428 . S
H434 C430 0.930 . S
H435 C432 0.929 . S
S436 N437 1.613 . S
S436 N438 1.610 . S
N437 S436 1.613 . S
N437 C440 1.350 . S
N438 S436 1.610 . S
N438 C439 1.351 . S
C439 C433 1.428 . S
C439 N438 1.351 . S
C439 C440 1.434 . S
C440 C431 1.429 1_565 S
C440 N437 1.350 . S
C440 C439 1.434 . S
C441 C442 1.369 . S
C441 C443 1.419 . S
C441 H445 0.930 . S
C442 C441 1.369 . S
C442 C451 1.429 . S
C443 C441 1.419 . S
C443 C444 1.363 . S
C443 H446 0.929 . S
C444 C443 1.363 . S
C444 C450 1.428 . S
H445 C441 0.930 . S
H446 C443 0.929 . S
S447 N448 1.613 . S
S447 N449 1.610 . S
N448 S447 1.613 . S
N448 C451 1.350 . S
N449 S447 1.610 . S
N449 C450 1.351 . S
C450 C444 1.428 . S
C450 N449 1.351 . S
C450 C451 1.434 . S
C451 C442 1.429 . S
C451 N448 1.350 . S
C451 C450 1.434 . S
C452 C453 1.369 1_455 S
C452 C454 1.419 . S
C452 H456 0.930 . S
C453 C452 1.369 1_655 S
C453 C462 1.429 . S
C454 C452 1.419 . S
C454 C455 1.363 . S
C454 H457 0.929 . S
C455 C454 1.363 . S
C455 C461 1.428 1_455 S
H456 C452 0.930 . S
H457 C454 0.929 . S
S458 N459 1.613 . S
S458 N460 1.610 . S
N459 S458 1.613 . S
N459 C462 1.350 . S
N460 S458 1.610 . S
N460 C461 1.351 . S
C461 C455 1.428 1_655 S
C461 N460 1.351 . S
C461 C462 1.434 . S
C462 C453 1.429 . S
C462 N459 1.350 . S
C462 C461 1.434 . S
C463 C464 1.369 1_545 S
C463 C465 1.419 . S
C463 H467 0.930 . S
C464 C463 1.369 1_565 S
C464 C473 1.429 . S
C465 C463 1.419 . S
C465 C466 1.363 . S
C465 H468 0.929 . S
C466 C465 1.363 . S
C466 C472 1.428 1_545 S
H467 C463 0.930 . S
H468 C465 0.929 . S
S469 N470 1.613 . S
S469 N471 1.610 . S
N470 S469 1.613 . S
N470 C473 1.350 . S
N471 S469 1.610 . S
N471 C472 1.351 . S
C472 C466 1.428 1_565 S
C472 N471 1.351 . S
C472 C473 1.434 . S
C473 C464 1.429 . S
C473 N470 1.350 . S
C473 C472 1.434 . S
C474 C475 1.369 . S
C474 C476 1.419 . S
C474 H478 0.930 . S
C475 C474 1.369 . S
C475 C484 1.429 . S
C476 C474 1.419 . S
C476 C477 1.363 . S
C476 H479 0.929 . S
C477 C476 1.363 . S
C477 C483 1.428 . S
H478 C474 0.930 . S
H479 C476 0.929 . S
S480 N481 1.613 . S
S480 N482 1.610 . S
N481 S480 1.613 . S
N481 C484 1.350 . S
N482 S480 1.610 . S
N482 C483 1.351 . S
C483 C477 1.428 . S
C483 N482 1.351 . S
C483 C484 1.434 . S
C484 C475 1.429 . S
C484 N481 1.350 . S
C484 C483 1.434 . S
C485 C486 1.372 . S
C485 C487 1.417 1_655 S
C485 H489 0.919 1_655 S
C486 C485 1.372 . S
C486 C495 1.429 . S
C487 C485 1.417 1_455 S
C487 C488 1.363 . S
C487 H490 0.929 . S
C488 C487 1.363 . S
C488 C494 1.420 1_455 S
H489 C485 0.919 1_455 S
H490 C487 0.929 . S
S491 N492 1.613 . S
S491 N493 1.610 . S
N492 S491 1.613 . S
N492 C495 1.350 . S
N493 S491 1.610 . S
N493 C494 1.355 . S
C494 C488 1.420 1_655 S
C494 N493 1.355 . S
C494 C495 1.438 . S
C495 C486 1.429 . S
C495 N492 1.350 . S
C495 C494 1.438 . S
C496 C497 1.369 . S
C496 C498 1.419 1_544 S
C496 H500 0.930 . S
C497 C496 1.369 . S
C497 C506 1.429 . S
C498 C496 1.419 1_566 S
C498 C499 1.363 . S
C498 H501 0.929 . S
C499 C498 1.363 . S
C499 C505 1.428 . S
H500 C496 0.930 . S
H501 C498 0.929 . S
S502 N503 1.613 1_565 S
S502 N504 1.610 1_554 S
N503 S502 1.613 1_545 S
N503 C506 1.350 . S
N504 S502 1.610 1_556 S
N504 C505 1.351 . S
C505 C499 1.428 . S
C505 N504 1.351 . S
C505 C506 1.434 1_566 S
C506 C497 1.429 . S
C506 N503 1.350 . S
C506 C505 1.434 1_544 S
C507 C508 1.369 . S
C507 C509 1.419 . S
C507 H511 0.930 . S
C508 C507 1.369 . S
C508 C517 1.429 . S
C509 C507 1.419 . S
C509 C510 1.363 . S
C509 H512 0.929 . S
C510 C509 1.363 . S
C510 C516 1.428 . S
H511 C507 0.930 . S
H512 C509 0.929 . S
S513 N514 1.613 . S
S513 N515 1.610 . S
N514 S513 1.613 . S
N514 C517 1.350 . S
N515 S513 1.610 . S
N515 C516 1.351 . S
C516 C510 1.428 . S
C516 N515 1.351 . S
C516 C517 1.434 . S
C517 C508 1.429 . S
C517 N514 1.350 . S
C517 C516 1.434 . S
C518 C519 1.369 . S
C518 C520 1.419 . S
C518 H522 0.930 . S
C519 C518 1.369 . S
C519 C528 1.429 1_455 S
C520 C518 1.419 . S
C520 C521 1.363 1_455 S
C520 H523 0.929 . S
C521 C520 1.363 1_655 S
C521 C527 1.428 . S
H522 C518 0.930 . S
H523 C520 0.929 . S
S524 N525 1.613 . S
S524 N526 1.610 . S
N525 S524 1.613 . S
N525 C528 1.350 . S
N526 S524 1.610 . S
N526 C527 1.351 . S
C527 C521 1.428 . S
C527 N526 1.351 . S
C527 C528 1.434 . S
C528 C519 1.429 1_655 S
C528 N525 1.350 . S
C528 C527 1.434 . S
C529 C530 1.369 . S
C529 C531 1.419 1_546 S
C529 H533 0.930 . S
C530 C529 1.369 . S
C530 C539 1.429 . S
C531 C529 1.419 1_564 S
C531 C532 1.363 . S
C531 H534 0.929 . S
C532 C531 1.363 . S
C532 C538 1.428 . S
H533 C529 0.930 . S
H534 C531 0.929 . S
S535 N536 1.613 1_565 S
S535 N537 1.610 1_556 S
N536 S535 1.613 1_545 S
N536 C539 1.350 . S
N537 S535 1.610 1_554 S
N537 C538 1.351 . S
C538 C532 1.428 . S
C538 N537 1.351 . S
C538 C539 1.434 1_564 S
C539 C530 1.429 . S
C539 N536 1.350 . S
C539 C538 1.434 1_546 S
C540 C541 1.369 . S
C540 C542 1.419 1_545 S
C540 H544 0.930 . S
C541 C540 1.369 . S
C541 C550 1.429 1_455 S
C542 C540 1.419 1_565 S
C542 C543 1.363 1_455 S
C542 H545 0.929 . S
C543 C542 1.363 1_655 S
C543 C549 1.428 . S
H544 C540 0.930 . S
H545 C542 0.929 . S
S546 N547 1.613 . S
S546 N548 1.610 1_545 S
N547 S546 1.613 . S
N547 C550 1.350 . S
N548 S546 1.610 1_565 S
N548 C549 1.351 . S
C549 C543 1.428 . S
C549 N548 1.351 . S
C549 C550 1.434 1_565 S
C550 C541 1.429 1_655 S
C550 N547 1.350 . S
C550 C549 1.434 1_545 S
C551 C552 1.369 1_565 S
C551 C553 1.419 . S
C551 H555 0.930 . S
C552 C551 1.369 1_545 S
C552 C561 1.429 1_655 S
C553 C551 1.419 . S
C553 C554 1.363 1_655 S
C553 H556 0.929 . S
C554 C553 1.363 1_455 S
C554 C560 1.428 1_565 S
H555 C551 0.930 . S
H556 C553 0.929 . S
S557 N558 1.613 . S
S557 N559 1.610 . S
N558 S557 1.613 . S
N558 C561 1.350 . S
N559 S557 1.610 . S
N559 C560 1.351 . S
C560 C554 1.428 1_545 S
C560 N559 1.351 . S
C560 C561 1.434 . S
C561 C552 1.429 1_455 S
C561 N558 1.350 . S
C561 C560 1.434 . S
C562 C563 1.369 1_565 S
C562 C564 1.419 1_455 S
C562 H566 0.930 . S
C563 C562 1.369 1_545 S
C563 C572 1.429 . S
C564 C562 1.419 1_655 S
C564 C565 1.363 . S
C564 H567 0.929 . S
C565 C564 1.363 . S
C565 C571 1.428 1_565 S
H566 C562 0.930 . S
H567 C564 0.929 . S
S568 N569 1.613 . S
S568 N570 1.610 1_455 S
N569 S568 1.613 . S
N569 C572 1.350 . S
N570 S568 1.610 1_655 S
N570 C571 1.351 . S
C571 C565 1.428 1_545 S
C571 N570 1.351 . S
C571 C572 1.434 1_655 S
C572 C563 1.429 . S
C572 N569 1.350 . S
C572 C571 1.434 1_455 S
C573 C574 1.369 . S
C573 C575 1.419 1_665 S
C573 H577 0.930 . S
C574 C573 1.369 . S
C574 C583 1.429 . S
C575 C573 1.419 1_445 S
C575 C576 1.363 . S
C575 H578 0.929 . S
C576 C575 1.363 . S
C576 C582 1.428 . S
H577 C573 0.930 . S
H578 C575 0.929 . S
S579 N580 1.622 . S
S579 N581 1.610 1_655 S
N580 S579 1.622 . S
N580 C583 1.345 1_545 S
N581 S579 1.610 1_455 S
N581 C582 1.351 . S
C582 C576 1.428 . S
C582 N581 1.351 . S
C582 C583 1.434 1_445 S
C583 C574 1.429 . S
C583 N580 1.345 1_565 S
C583 C582 1.434 1_665 S
C584 C585 1.369 1_455 S
C584 C586 1.419 1_565 S
C584 H588 0.930 . S
C585 C584 1.369 1_655 S
C585 C594 1.429 . S
C586 C584 1.419 1_545 S
C586 C587 1.363 . S
C586 H589 0.929 . S
C587 C586 1.363 . S
C587 C593 1.428 1_455 S
H588 C584 0.930 . S
H589 C586 0.929 . S
S590 N591 1.613 . S
S590 N592 1.610 1_565 S
N591 S590 1.613 . S
N591 C594 1.350 . S
N592 S590 1.610 1_545 S
N592 C593 1.351 . S
C593 C587 1.428 1_655 S
C593 N592 1.351 . S
C593 C594 1.434 1_545 S
C594 C585 1.429 . S
C594 N591 1.350 . S
C594 C593 1.434 1_565 S
C595 C596 1.369 1_455 S
C595 C597 1.419 . S
C595 H599 0.930 . S
C596 C595 1.369 1_655 S
C596 C605 1.429 1_545 S
C597 C595 1.419 . S
C597 C598 1.363 1_545 S
C597 H600 0.929 . S
C598 C597 1.363 1_565 S
C598 C604 1.428 1_455 S
H599 C595 0.930 . S
H600 C597 0.929 . S
S601 N602 1.613 . S
S601 N603 1.610 . S
N602 S601 1.613 . S
N602 C605 1.350 . S
N603 S601 1.610 . S
N603 C604 1.351 . S
C604 C598 1.428 1_655 S
C604 N603 1.351 . S
C604 C605 1.434 . S
C605 C596 1.429 1_565 S
C605 N602 1.350 . S
C605 C604 1.434 . S
C606 C607 1.369 . S
C606 C608 1.419 1_655 S
C606 H610 0.930 . S
C607 C606 1.369 . S
C607 C616 1.429 . S
C608 C606 1.419 1_455 S
C608 C609 1.363 . S
C608 H611 0.929 . S
C609 C608 1.363 . S
C609 C615 1.428 . S
H610 C606 0.930 . S
H611 C608 0.929 . S
S612 N613 1.613 1_455 S
S612 N614 1.610 . S
N613 S612 1.613 1_655 S
N613 C616 1.350 . S
N614 S612 1.610 . S
N614 C615 1.351 . S
C615 C609 1.428 . S
C615 N614 1.351 . S
C615 C616 1.434 1_455 S
C616 C607 1.429 . S
C616 N613 1.350 . S
C616 C615 1.434 1_655 S
C617 C618 1.369 . S
C617 C619 1.419 1_545 S
C617 H621 0.930 . S
C618 C617 1.369 . S
C618 C627 1.429 . S
C619 C617 1.419 1_565 S
C619 C620 1.363 . S
C619 H622 0.929 . S
C620 C619 1.363 . S
C620 C626 1.428 . S
H621 C617 0.930 . S
H622 C619 0.929 . S
S623 N624 1.613 . S
S623 N625 1.610 . S
N624 S623 1.613 . S
N624 C627 1.350 1_565 S
N625 S623 1.610 . S
N625 C626 1.351 . S
C626 C620 1.428 . S
C626 N625 1.351 . S
C626 C627 1.434 1_565 S
C627 C618 1.429 . S
C627 N624 1.350 1_545 S
C627 C626 1.434 1_545 S
C628 C629 1.369 . S
C628 C630 1.419 . S
C628 H632 0.930 . S
C629 C628 1.369 . S
C629 C638 1.429 . S
C630 C628 1.419 . S
C630 C631 1.363 . S
C630 H633 0.929 . S
C631 C630 1.363 . S
C631 C637 1.428 . S
H632 C628 0.930 . S
H633 C630 0.929 . S
S634 N635 1.613 . S
S634 N636 1.610 . S
N635 S634 1.613 . S
N635 C638 1.350 . S
N636 S634 1.610 . S
N636 C637 1.351 . S
C637 C631 1.428 . S
C637 N636 1.351 . S
C637 C638 1.434 . S
C638 C629 1.429 . S
C638 N635 1.350 . S
C638 C637 1.434 . S
C639 C640 1.369 . S
C639 C641 1.419 1_455 S
C639 H643 0.930 . S
C640 C639 1.369 . S
C640 C649 1.429 . S
C641 C639 1.419 1_655 S
C641 C642 1.363 . S
C641 H644 0.929 . S
C642 C641 1.363 . S
C642 C648 1.428 . S
H643 C639 0.930 . S
H644 C641 0.929 . S
S645 N646 1.613 1_655 S
S645 N647 1.610 . S
N646 S645 1.613 1_455 S
N646 C649 1.350 . S
N647 S645 1.610 . S
N647 C648 1.351 . S
C648 C642 1.428 . S
C648 N647 1.351 . S
C648 C649 1.434 1_655 S
C649 C640 1.429 . S
C649 N646 1.350 . S
C649 C648 1.434 1_455 S
C650 C651 1.369 . S
C650 C652 1.419 1_565 S
C650 H654 0.930 . S
C651 C650 1.369 . S
C651 C660 1.429 . S
C652 C650 1.419 1_545 S
C652 C653 1.363 . S
C652 H655 0.929 . S
C653 C652 1.363 . S
C653 C659 1.428 . S
H654 C650 0.930 . S
H655 C652 0.929 . S
S656 N657 1.623 . S
S656 N658 1.610 . S
N657 S656 1.623 . S
N657 C660 1.353 1_545 S
N658 S656 1.610 . S
N658 C659 1.351 . S
C659 C653 1.428 . S
C659 N658 1.351 . S
C659 C660 1.434 1_545 S
C660 C651 1.429 . S
C660 N657 1.353 1_565 S
C660 C659 1.434 1_565 S
C661 C662 1.369 . S
C661 C663 1.419 . S
C661 H665 0.930 . S
C662 C661 1.369 . S
C662 C671 1.429 . S
C663 C661 1.419 . S
C663 C664 1.363 . S
C663 H666 0.929 . S
C664 C663 1.363 . S
C664 C670 1.428 . S
H665 C661 0.930 . S
H666 C663 0.929 . S
S667 N668 1.613 . S
S667 N669 1.610 . S
N668 S667 1.613 . S
N668 C671 1.350 . S
N669 S667 1.610 . S
N669 C670 1.351 . S
C670 C664 1.428 . S
C670 N669 1.351 . S
C670 C671 1.434 . S
C671 C662 1.429 . S
C671 N668 1.350 . S
C671 C670 1.434 . S
C672 C673 1.369 . S
C672 C674 1.419 . S
C672 H676 0.930 . S
C673 C672 1.369 . S
C673 C682 1.429 . S
C674 C672 1.419 . S
C674 C675 1.363 . S
C674 H677 0.929 . S
C675 C674 1.363 . S
C675 C681 1.428 . S
H676 C672 0.930 . S
H677 C674 0.929 . S
S678 N679 1.613 . S
S678 N680 1.610 . S
N679 S678 1.613 . S
N679 C682 1.350 . S
N680 S678 1.610 . S
N680 C681 1.351 . S
C681 C675 1.428 . S
C681 N680 1.351 . S
C681 C682 1.434 . S
C682 C673 1.429 . S
C682 N679 1.350 . S
C682 C681 1.434 . S
C683 C684 1.369 . S
C683 C685 1.419 . S
C683 H687 0.930 . S
C684 C683 1.369 . S
C684 C693 1.429 . S
C685 C683 1.419 . S
C685 C686 1.363 . S
C685 H688 0.929 . S
C686 C685 1.363 . S
C686 C692 1.428 . S
H687 C683 0.930 . S
H688 C685 0.929 . S
S689 N690 1.613 . S
S689 N691 1.610 . S
N690 S689 1.613 . S
N690 C693 1.350 . S
N691 S689 1.610 . S
N691 C692 1.351 . S
C692 C686 1.428 . S
C692 N691 1.351 . S
C692 C693 1.434 . S
C693 C684 1.429 . S
C693 N690 1.350 . S
C693 C692 1.434 . S
C694 C695 1.369 . S
C694 C696 1.419 . S
C694 H698 0.930 . S
C695 C694 1.369 . S
C695 C704 1.429 . S
C696 C694 1.419 . S
C696 C697 1.363 . S
C696 H699 0.929 . S
C697 C696 1.363 . S
C697 C703 1.428 . S
H698 C694 0.930 . S
H699 C696 0.929 . S
S700 N701 1.613 . S
S700 N702 1.610 . S
N701 S700 1.613 . S
N701 C704 1.350 . S
N702 S700 1.610 . S
N702 C703 1.351 . S
C703 C697 1.428 . S
C703 N702 1.351 . S
C703 C704 1.434 . S
C704 C695 1.429 . S
C704 N701 1.350 . S
C704 C703 1.434 . S
C705 C706 1.369 . S
C705 C707 1.419 . S
C705 H709 0.930 . S
C706 C705 1.369 . S
C706 C715 1.429 . S
C707 C705 1.419 . S
C707 C708 1.363 . S
C707 H710 0.929 . S
C708 C707 1.363 . S
C708 C714 1.428 . S
H709 C705 0.930 . S
H710 C707 0.929 . S
S711 N712 1.613 . S
S711 N713 1.610 . S
N712 S711 1.613 . S
N712 C715 1.350 . S
N713 S711 1.610 . S
N713 C714 1.351 . S
C714 C708 1.428 . S
C714 N713 1.351 . S
C714 C715 1.434 . S
C715 C706 1.429 . S
C715 N712 1.350 . S
C715 C714 1.434 . S
C716 C717 1.369 . S
C716 C718 1.419 . S
C716 H720 0.930 . S
C717 C716 1.369 . S
C717 C726 1.429 . S
C718 C716 1.419 . S
C718 C719 1.363 . S
C718 H721 0.929 . S
C719 C718 1.363 . S
C719 C725 1.428 . S
H720 C716 0.930 . S
H721 C718 0.929 . S
S722 N723 1.613 . S
S722 N724 1.610 . S
N723 S722 1.613 . S
N723 C726 1.350 . S
N724 S722 1.610 . S
N724 C725 1.351 . S
C725 C719 1.428 . S
C725 N724 1.351 . S
C725 C726 1.434 . S
C726 C717 1.429 . S
C726 N723 1.350 . S
C726 C725 1.434 . S
C727 C728 1.369 . S
C727 C729 1.419 . S
C727 H731 0.930 . S
C728 C727 1.369 . S
C728 C737 1.429 . S
C729 C727 1.419 . S
C729 C730 1.363 . S
C729 H732 0.929 . S
C730 C729 1.363 . S
C730 C736 1.428 . S
H731 C727 0.930 . S
H732 C729 0.929 . S
S733 N734 1.613 . S
S733 N735 1.610 . S
N734 S733 1.613 . S
N734 C737 1.350 . S
N735 S733 1.610 . S
N735 C736 1.351 . S
C736 C730 1.428 . S
C736 N735 1.351 . S
C736 C737 1.434 . S
C737 C728 1.429 . S
C737 N734 1.350 . S
C737 C736 1.434 . S
C409 C111 1.573 . S
C411 C9 1.574 . S
C420 C145 1.572 . S
C422 C43 1.574 . S
C431 C179 1.574 . S
C433 C77 1.572 . S
C442 C213 1.572 . S
C444 C315 1.573 . S
C453 C247 1.572 . S
C455 C349 1.574 . S
C464 C281 1.573 . S
C466 C383 1.573 . S
C475 C326 1.953 . S
C477 C20 1.946 . S
C486 C54 1.950 . S
C488 C360 1.949 . S
C497 C394 1.948 . S
C499 C88 1.948 . S
C508 C224 1.946 . S
C510 C122 1.952 . S
C519 C156 1.944 . S
C521 C258 1.951 . S
C530 C190 1.948 . S
C532 C292 1.947 . S
C541 C5 0.269 . S
C543 C107 0.247 . S
C552 C39 0.244 . S
C554 C141 0.265 . S
C563 C175 0.269 . S
C565 C73 0.251 . S
C574 C209 0.265 . S
C576 C311 0.257 . S
C585 C243 0.269 . S
C587 C345 0.251 . S
C596 C379 0.244 . S
C598 C277 0.265 . S
C607 C407 1.755 . S
C609 C33 1.756 . S
C618 C67 1.759 . S
C620 C237 1.760 . S
C629 C271 1.755 . S
C631 C101 1.756 . S
C640 C305 1.754 . S
C642 C135 1.755 . S
C651 C169 1.760 . S
C653 C339 1.760 . S
C662 C203 1.759 . S
C664 C373 1.758 . S
C673 C2 1.415 . S
C675 C274 1.407 . S
C684 C36 1.407 . S
C686 C308 1.415 . S
C695 C342 1.405 . S
C697 C70 1.412 . S
C706 C104 1.405 . S
C708 C376 1.412 . S
C717 C206 1.412 . S
C719 C138 1.406 . S
C728 C172 1.406 . S
C730 C240 1.414 . S
