# Generated by pormake.
# Topology gsi, (4)-cn, num edge types: 1
# Building blocks:
#     Node 0, Type 0, BuildingBlock: KUFVIS_clean_sbu_0, # of connection points: 4
#     Node 1, Type 0, BuildingBlock: KUFVIS_clean_sbu_0, # of connection points: 4
#     Node 2, Type 0, BuildingBlock: KUFVIS_clean_sbu_0, # of connection points: 4
#     Node 3, Type 0, BuildingBlock: KUFVIS_clean_sbu_0, # of connection points: 4
#     Node 4, Type 0, BuildingBlock: KUFVIS_clean_sbu_0, # of connection points: 4
#     Node 5, Type 0, BuildingBlock: KUFVIS_clean_sbu_0, # of connection points: 4
#     Node 6, Type 0, BuildingBlock: KUFVIS_clean_sbu_0, # of connection points: 4
#     Node 7, Type 0, BuildingBlock: KUFVIS_clean_sbu_0, # of connection points: 4
#     Node 8, Type 0, BuildingBlock: KUFVIS_clean_sbu_0, # of connection points: 4
#     Node 9, Type 0, BuildingBlock: KUFVIS_clean_sbu_0, # of connection points: 4
#     Node 10, Type 0, BuildingBlock: KUFVIS_clean_sbu_0, # of connection points: 4
#     Node 11, Type 0, BuildingBlock: KUFVIS_clean_sbu_0, # of connection points: 4
#     Node 12, Type 0, BuildingBlock: KUFVIS_clean_sbu_0, # of connection points: 4
#     Node 13, Type 0, BuildingBlock: KUFVIS_clean_sbu_0, # of connection points: 4
#     Node 14, Type 0, BuildingBlock: KUFVIS_clean_sbu_0, # of connection points: 4
#     Node 15, Type 0, BuildingBlock: KUFVIS_clean_sbu_0, # of connection points: 4
#     Edge 16, Type (0, 0), BuildingBlock: TEMPAE_clean_linker_10, # of connection points: 2
#     Edge 17, Type (0, 0), BuildingBlock: TEMPAE_clean_linker_10, # of connection points: 2
#     Edge 18, Type (0, 0), BuildingBlock: TEMPAE_clean_linker_10, # of connection points: 2
#     Edge 19, Type (0, 0), BuildingBlock: TEMPAE_clean_linker_10, # of connection points: 2
#     Edge 20, Type (0, 0), BuildingBlock: TEMPAE_clean_linker_10, # of connection points: 2
#     Edge 21, Type (0, 0), BuildingBlock: TEMPAE_clean_linker_10, # of connection points: 2
#     Edge 22, Type (0, 0), BuildingBlock: TEMPAE_clean_linker_10, # of connection points: 2
#     Edge 23, Type (0, 0), BuildingBlock: TEMPAE_clean_linker_10, # of connection points: 2
#     Edge 24, Type (0, 0), BuildingBlock: TEMPAE_clean_linker_10, # of connection points: 2
#     Edge 25, Type (0, 0), BuildingBlock: TEMPAE_clean_linker_10, # of connection points: 2
#     Edge 26, Type (0, 0), BuildingBlock: TEMPAE_clean_linker_10, # of connection points: 2
#     Edge 27, Type (0, 0), BuildingBlock: TEMPAE_clean_linker_10, # of connection points: 2
#     Edge 28, Type (0, 0), BuildingBlock: TEMPAE_clean_linker_10, # of connection points: 2
#     Edge 29, Type (0, 0), BuildingBlock: TEMPAE_clean_linker_10, # of connection points: 2
#     Edge 30, Type (0, 0), BuildingBlock: TEMPAE_clean_linker_10, # of connection points: 2
#     Edge 31, Type (0, 0), BuildingBlock: TEMPAE_clean_linker_10, # of connection points: 2
#     Edge 32, Type (0, 0), BuildingBlock: TEMPAE_clean_linker_10, # of connection points: 2
#     Edge 33, Type (0, 0), BuildingBlock: TEMPAE_clean_linker_10, # of connection points: 2
#     Edge 34, Type (0, 0), BuildingBlock: TEMPAE_clean_linker_10, # of connection points: 2
#     Edge 35, Type (0, 0), BuildingBlock: TEMPAE_clean_linker_10, # of connection points: 2
#     Edge 36, Type (0, 0), BuildingBlock: TEMPAE_clean_linker_10, # of connection points: 2
#     Edge 37, Type (0, 0), BuildingBlock: TEMPAE_clean_linker_10, # of connection points: 2
#     Edge 38, Type (0, 0), BuildingBlock: TEMPAE_clean_linker_10, # of connection points: 2
#     Edge 39, Type (0, 0), BuildingBlock: TEMPAE_clean_linker_10, # of connection points: 2
#     Edge 40, Type (0, 0), BuildingBlock: TEMPAE_clean_linker_10, # of connection points: 2
#     Edge 41, Type (0, 0), BuildingBlock: TEMPAE_clean_linker_10, # of connection points: 2
#     Edge 42, Type (0, 0), BuildingBlock: TEMPAE_clean_linker_10, # of connection points: 2
#     Edge 43, Type (0, 0), BuildingBlock: TEMPAE_clean_linker_10, # of connection points: 2
#     Edge 44, Type (0, 0), BuildingBlock: TEMPAE_clean_linker_10, # of connection points: 2
#     Edge 45, Type (0, 0), BuildingBlock: TEMPAE_clean_linker_10, # of connection points: 2
#     Edge 46, Type (0, 0), BuildingBlock: TEMPAE_clean_linker_10, # of connection points: 2
#     Edge 47, Type (0, 0), BuildingBlock: TEMPAE_clean_linker_10, # of connection points: 2
# Relax obj value: 0.113
# Max RMSD: 0.169
# Mean RMSD: 0.121
data_MOF--net-gsi--node1-KUFVIS_clean_sbu_0--edge1-TEMPAE_clean_linker_10
_symmetry_space_group_name_H-M    P1
_symmetry_Int_Tables_number       1
_symmetry_cell_setting            triclinic
loop_
_symmetry_equiv_pos_as_xyz
'x, y, z'
_cell_length_a     42.924439
_cell_length_b     41.397003
_cell_length_c     41.105279
_cell_angle_alpha  92.144617
_cell_angle_beta   91.772907
_cell_angle_gamma 96.379881
loop_
_atom_site_label
_atom_site_type_symbol
_atom_site_fract_x
_atom_site_fract_y
_atom_site_fract_z
_atom_type_partial_charge
Mn0 Mn 0.16014 0.14922 0.13809 0.0
Mn1 Mn 0.13504 0.15485 0.21512 0.0
C2 C 0.18321 0.19024 0.17488 0.0
C3 C 0.19109 0.13239 0.09539 0.0
C4 C 0.09749 0.17268 0.15646 0.0
O5 O 0.13962 0.10242 0.14619 0.0
O6 O 0.12847 0.10905 0.1994 0.0
C7 C 0.17636 0.11707 0.25383 0.0
N8 N 0.16449 0.14559 0.24818 0.0
C9 C 0.17977 0.16682 0.30226 0.0
C10 C 0.19236 0.13777 0.30866 0.0
C11 C 0.1913 0.1131 0.28408 0.0
C12 C 0.16694 0.17015 0.27108 0.0
H13 H 0.17381 0.09732 0.23566 0.0
C14 C 0.13047 0.09126 0.17359 0.0
O15 O 0.16339 0.14101 0.09042 0.0
O16 O 0.20068 0.13167 0.1257 0.0
N17 N 0.14075 0.1984 0.23309 0.0
C18 C 0.12886 0.2254 0.2223 0.0
C19 C 0.13051 0.25341 0.24292 0.0
C20 C 0.1432 0.25284 0.27479 0.0
C21 C 0.15512 0.22465 0.28527 0.0
C22 C 0.15457 0.19823 0.26296 0.0
H23 H 0.11782 0.22544 0.19837 0.0
O24 O 0.18368 0.19419 0.14366 0.0
O25 O 0.16857 0.16306 0.18364 0.0
O26 O 0.11826 0.16912 0.13571 0.0
O27 O 0.1009 0.16547 0.18594 0.0
C28 C 0.16636 0.22118 0.31733 0.0
C29 C 0.17819 0.1921 0.32588 0.0
H30 H 0.20273 0.13402 0.33238 0.0
H31 H 0.20104 0.09069 0.28888 0.0
H32 H 0.12112 0.275 0.23464 0.0
H33 H 0.14344 0.27407 0.29107 0.0
H34 H 0.16589 0.24063 0.33562 0.0
H35 H 0.18523 0.18918 0.3509 0.0
Mn36 Mn 0.87283 0.35504 0.15961 0.0
Mn37 Mn 0.90228 0.34571 0.23552 0.0
C38 C 0.84833 0.31633 0.19319 0.0
C39 C 0.84034 0.37597 0.12011 0.0
C40 C 0.93308 0.32385 0.17451 0.0
O41 O 0.89827 0.39962 0.1712 0.0
O42 O 0.91378 0.39079 0.22294 0.0
C43 C 0.86933 0.3902 0.27677 0.0
N44 N 0.87658 0.35967 0.26917 0.0
C45 C 0.85704 0.33985 0.31974 0.0
C46 C 0.84927 0.37107 0.32811 0.0
C47 C 0.85504 0.39623 0.30632 0.0
C48 C 0.8702 0.33506 0.2895 0.0
H49 H 0.87487 0.40991 0.26068 0.0
C50 C 0.91116 0.40939 0.19905 0.0
O51 O 0.86634 0.36471 0.11305 0.0
O52 O 0.83371 0.37683 0.15079 0.0
N53 N 0.89165 0.30288 0.25044 0.0
C54 C 0.89909 0.27392 0.23784 0.0
C55 C 0.89284 0.24575 0.2556 0.0
C56 C 0.87993 0.24787 0.2865 0.0
C57 C 0.87258 0.27801 0.2989 0.0
C58 C 0.87801 0.30493 0.27947 0.0
H59 H 0.90995 0.27239 0.21458 0.0
O60 O 0.84547 0.31231 0.16167 0.0
O61 O 0.86658 0.34177 0.20385 0.0
O62 O 0.91215 0.33115 0.15439 0.0
O63 O 0.93201 0.32985 0.20494 0.0
C64 C 0.86074 0.28259 0.33007 0.0
C65 C 0.85311 0.31349 0.34051 0.0
H66 H 0.8391 0.37611 0.35126 0.0
H67 H 0.84922 0.4204 0.31266 0.0
H68 H 0.89862 0.22259 0.24584 0.0
H69 H 0.87583 0.22625 0.30051 0.0
H70 H 0.85722 0.26247 0.34616 0.0
H71 H 0.8446 0.31665 0.3647 0.0
Mn72 Mn 0.16932 0.87604 0.36133 0.0
Mn73 Mn 0.15963 0.80127 0.39278 0.0
C74 C 0.20282 0.83728 0.34818 0.0
C75 C 0.15775 0.91199 0.32032 0.0
C76 C 0.18997 0.86114 0.43139 0.0
O77 O 0.12425 0.87316 0.37734 0.0
O78 O 0.12083 0.82211 0.39507 0.0
C79 C 0.11458 0.77019 0.34185 0.0
N80 N 0.14167 0.7703 0.36 0.0
C81 C 0.1504 0.71782 0.33742 0.0
C82 C 0.1225 0.71696 0.31858 0.0
C83 C 0.10475 0.74348 0.32047 0.0
C84 C 0.15962 0.74562 0.35728 0.0
H85 H 0.10063 0.7903 0.34376 0.0
C86 C 0.10913 0.8485 0.38972 0.0
O87 O 0.1683 0.9225 0.3492 0.0
O88 O 0.15345 0.88066 0.31546 0.0
N89 N 0.19514 0.77726 0.39252 0.0
C90 C 0.22191 0.7824 0.41159 0.0
C91 C 0.24224 0.75813 0.41279 0.0
C92 C 0.23436 0.72848 0.39518 0.0
C93 C 0.20668 0.72374 0.37571 0.0
C94 C 0.18761 0.749 0.37508 0.0
H95 H 0.22753 0.80466 0.42612 0.0
O96 O 0.2114 0.86796 0.34458 0.0
O97 O 0.17496 0.83011 0.35883 0.0
O98 O 0.1882 0.8815 0.40881 0.0
O99 O 0.17897 0.83125 0.42774 0.0
C100 C 0.19693 0.69471 0.35742 0.0
C101 C 0.16924 0.69205 0.33763 0.0
H102 H 0.11452 0.69612 0.30256 0.0
H103 H 0.08334 0.74311 0.30578 0.0
H104 H 0.26359 0.76199 0.4278 0.0
H105 H 0.24978 0.70955 0.39673 0.0
H106 H 0.21076 0.67439 0.35809 0.0
H107 H 0.16244 0.66993 0.32302 0.0
Mn108 Mn 0.85744 0.66536 0.35677 0.0
Mn109 Mn 0.88241 0.6904 0.2831 0.0
C110 C 0.83702 0.70869 0.33262 0.0
C111 C 0.82482 0.63685 0.39363 0.0
C112 C 0.91836 0.70934 0.34595 0.0
O113 O 0.87643 0.62512 0.33845 0.0
O114 O 0.89439 0.64679 0.29225 0.0
C115 C 0.84421 0.64106 0.24011 0.0
N116 N 0.85417 0.67275 0.24847 0.0
C117 C 0.83164 0.69069 0.19888 0.0
C118 C 0.82113 0.65823 0.18973 0.0
C119 C 0.82722 0.63335 0.21057 0.0
C120 C 0.848 0.69692 0.22884 0.0
H121 H 0.84949 0.6218 0.25567 0.0
C122 C 0.89088 0.62338 0.3117 0.0
O123 O 0.85364 0.64772 0.4012 0.0
O124 O 0.81542 0.6401 0.36366 0.0
N125 N 0.87266 0.73194 0.26973 0.0
C126 C 0.88222 0.76202 0.28345 0.0
C127 C 0.87599 0.78974 0.26679 0.0
C128 C 0.86084 0.78623 0.23585 0.0
C129 C 0.85161 0.75501 0.22205 0.0
C130 C 0.85783 0.72831 0.2401 0.0
H131 H 0.89451 0.76479 0.3069 0.0
O132 O 0.83737 0.70589 0.36398 0.0
O133 O 0.84894 0.68614 0.31557 0.0
O134 O 0.90065 0.69179 0.36413 0.0
O135 O 0.91353 0.71085 0.31548 0.0
C136 C 0.83619 0.7493 0.19125 0.0
C137 C 0.82624 0.71716 0.17965 0.0
H138 H 0.80823 0.65216 0.16685 0.0
H139 H 0.81921 0.60824 0.20367 0.0
H140 H 0.88319 0.81375 0.27759 0.0
H141 H 0.85628 0.80768 0.22299 0.0
H142 H 0.83128 0.76947 0.1766 0.0
H143 H 0.81386 0.7131 0.15624 0.0
Mn144 Mn 0.37433 0.85456 0.66111 0.0
Mn145 Mn 0.40335 0.84276 0.73665 0.0
C146 C 0.34958 0.81481 0.69343 0.0
C147 C 0.34207 0.87644 0.62207 0.0
C148 C 0.4341 0.82207 0.67516 0.0
O149 O 0.39975 0.89885 0.67401 0.0
O150 O 0.41578 0.88799 0.725 0.0
C151 C 0.37082 0.88732 0.7783 0.0
N152 N 0.37775 0.85673 0.77039 0.0
C153 C 0.35747 0.83648 0.82049 0.0
C154 C 0.35009 0.86776 0.82921 0.0
C155 C 0.35638 0.89317 0.8078 0.0
C156 C 0.37083 0.8319 0.79031 0.0
H157 H 0.37672 0.90718 0.76251 0.0
C158 C 0.4131 0.90752 0.70193 0.0
O159 O 0.36819 0.86552 0.61488 0.0
O160 O 0.33522 0.87648 0.65269 0.0
N161 N 0.39192 0.79982 0.75089 0.0
C162 C 0.39902 0.77086 0.73796 0.0
C163 C 0.39231 0.7425 0.75534 0.0
C164 C 0.3793 0.74443 0.78621 0.0
C165 C 0.37231 0.77458 0.79896 0.0
C166 C 0.37822 0.80171 0.7799 0.0
H167 H 0.40998 0.76947 0.71473 0.0
O168 O 0.34695 0.8117 0.66184 0.0
O169 O 0.36777 0.83997 0.70489 0.0
O170 O 0.41366 0.83085 0.65531 0.0
O171 O 0.43279 0.82672 0.70577 0.0
C172 C 0.36034 0.77895 0.83011 0.0
C173 C 0.35297 0.80985 0.84086 0.0
H174 H 0.33981 0.87266 0.85233 0.0
H175 H 0.35084 0.91738 0.8144 0.0
H176 H 0.3978 0.71934 0.74531 0.0
H177 H 0.37483 0.72266 0.79992 0.0
H178 H 0.35645 0.75863 0.84592 0.0
H179 H 0.3442 0.81283 0.86497 0.0
Mn180 Mn 0.85533 0.85915 0.86776 0.0
Mn181 Mn 0.83174 0.78236 0.88877 0.0
C182 C 0.83662 0.8184 0.82829 0.0
C183 C 0.85158 0.91286 0.85239 0.0
C184 C 0.89963 0.81044 0.89027 0.0
O185 O 0.84342 0.86593 0.91636 0.0
O186 O 0.82726 0.81331 0.92518 0.0
C187 C 0.76439 0.78394 0.90071 0.0
N188 N 0.78757 0.77087 0.88465 0.0
C189 C 0.75363 0.72211 0.86987 0.0
C190 C 0.72948 0.73475 0.88682 0.0
C191 C 0.73465 0.76614 0.90156 0.0
C192 C 0.78222 0.74162 0.86856 0.0
H193 H 0.76882 0.80738 0.91341 0.0
C194 C 0.83087 0.84341 0.93431 0.0
O195 O 0.8771 0.90361 0.86445 0.0
O196 O 0.82674 0.89168 0.85208 0.0
N197 N 0.83448 0.75015 0.8549 0.0
C198 C 0.86017 0.74218 0.83911 0.0
C199 C 0.85812 0.71296 0.82027 0.0
C200 C 0.83017 0.69167 0.81918 0.0
C201 C 0.80422 0.70042 0.83596 0.0
C202 C 0.80704 0.7308 0.85247 0.0
H203 H 0.88213 0.75774 0.84136 0.0
O204 O 0.85669 0.8426 0.82081 0.0
O205 O 0.82955 0.8178 0.8586 0.0
O206 O 0.89485 0.83801 0.87997 0.0
O207 O 0.87748 0.78846 0.895 0.0
C208 C 0.77612 0.67972 0.83821 0.0
C209 C 0.7511 0.69039 0.85562 0.0
H210 H 0.70698 0.72055 0.88902 0.0
H211 H 0.71612 0.77607 0.9146 0.0
H212 H 0.87833 0.70633 0.80756 0.0
H213 H 0.82901 0.66857 0.80568 0.0
H214 H 0.77357 0.65548 0.82687 0.0
H215 H 0.73039 0.67367 0.85859 0.0
Mn216 Mn 0.15245 0.67753 0.86455 0.0
Mn217 Mn 0.18297 0.74929 0.90042 0.0
C218 C 0.17668 0.71852 0.83375 0.0
C219 C 0.1536 0.62419 0.8438 0.0
C220 C 0.11327 0.72997 0.89034 0.0
O221 O 0.16013 0.66582 0.91213 0.0
O222 O 0.1817 0.71504 0.93284 0.0
C223 C 0.24788 0.73714 0.91818 0.0
N224 N 0.22774 0.75445 0.90174 0.0
C225 C 0.26951 0.79555 0.88998 0.0
C226 C 0.29075 0.77818 0.90678 0.0
C227 C 0.27994 0.74862 0.92055 0.0
C228 C 0.23806 0.78237 0.88751 0.0
H229 H 0.2395 0.71507 0.92985 0.0
C230 C 0.1733 0.68459 0.93536 0.0
O231 O 0.12789 0.63511 0.85256 0.0
O232 O 0.17933 0.64376 0.84872 0.0
N233 N 0.18601 0.78403 0.87096 0.0
C234 C 0.16271 0.79686 0.85428 0.0
C235 C 0.16994 0.8253 0.83715 0.0
C236 C 0.20084 0.8407 0.83818 0.0
C237 C 0.22435 0.82702 0.85564 0.0
C238 C 0.21598 0.79792 0.87103 0.0
H239 H 0.13877 0.7856 0.85424 0.0
O240 O 0.15504 0.69713 0.82059 0.0
O241 O 0.18221 0.7162 0.86471 0.0
O242 O 0.11548 0.70271 0.87588 0.0
O243 O 0.13708 0.7487 0.90114 0.0
C244 C 0.2556 0.84147 0.85901 0.0
C245 C 0.27809 0.82584 0.87636 0.0
H246 H 0.31535 0.78735 0.90944 0.0
H247 H 0.29615 0.73514 0.93365 0.0
H248 H 0.15164 0.83569 0.82376 0.0
H249 H 0.20623 0.86304 0.82557 0.0
H250 H 0.26266 0.86451 0.84824 0.0
H251 H 0.30179 0.83756 0.87932 0.0
Mn252 Mn 0.84623 0.16288 0.67721 0.0
Mn253 Mn 0.89281 0.19608 0.74044 0.0
C254 C 0.82523 0.18722 0.72212 0.0
C255 C 0.81816 0.16398 0.62747 0.0
C256 C 0.87395 0.12345 0.73111 0.0
O257 O 0.88934 0.17041 0.65634 0.0
O258 O 0.91744 0.19134 0.70101 0.0
C259 C 0.90813 0.26115 0.71327 0.0
N260 N 0.89765 0.2424 0.73809 0.0
C261 C 0.89337 0.2897 0.77274 0.0
C262 C 0.90434 0.30952 0.74768 0.0
C263 C 0.91128 0.29519 0.71765 0.0
C264 C 0.88958 0.25599 0.76654 0.0
H265 H 0.91396 0.25024 0.69031 0.0
C266 C 0.91502 0.18296 0.67068 0.0
O267 O 0.82626 0.13717 0.63866 0.0
O268 O 0.82782 0.19064 0.64425 0.0
N269 N 0.87257 0.20315 0.78048 0.0
C270 C 0.85992 0.18078 0.80125 0.0
C271 C 0.85141 0.19109 0.83231 0.0
C272 C 0.85655 0.22419 0.84193 0.0
C273 C 0.86921 0.24683 0.81999 0.0
C274 C 0.87691 0.23515 0.78924 0.0
H275 H 0.85629 0.15528 0.79418 0.0
O276 O 0.80821 0.16524 0.70398 0.0
O277 O 0.85395 0.19417 0.71381 0.0
O278 O 0.85872 0.125 0.70417 0.0
O279 O 0.88834 0.14854 0.74616 0.0
C280 C 0.87476 0.2805 0.82751 0.0
C281 C 0.88612 0.30201 0.80367 0.0
H282 H 0.90731 0.33577 0.75114 0.0
H283 H 0.91926 0.31038 0.69804 0.0
H284 H 0.84128 0.17352 0.84895 0.0
H285 H 0.85038 0.232 0.86611 0.0
H286 H 0.86984 0.29019 0.85142 0.0
H287 H 0.88936 0.32793 0.80943 0.0
Mn288 Mn 0.16432 0.35941 0.6735 0.0
Mn289 Mn 0.12536 0.33119 0.7392 0.0
C290 C 0.19191 0.34126 0.71773 0.0
C291 C 0.18929 0.35765 0.62329 0.0
C292 C 0.13994 0.40262 0.72745 0.0
O293 O 0.11991 0.34624 0.65382 0.0
O294 O 0.09682 0.33139 0.70034 0.0
C295 C 0.10582 0.26298 0.71579 0.0
N296 N 0.11883 0.28481 0.73932 0.0
C297 C 0.11973 0.24307 0.77846 0.0
C298 C 0.10618 0.22013 0.75471 0.0
C299 C 0.09972 0.23004 0.72311 0.0
C300 C 0.12605 0.27534 0.76952 0.0
H301 H 0.10011 0.27065 0.69171 0.0
C302 C 0.09597 0.33532 0.66959 0.0
O303 O 0.1786 0.38355 0.6348 0.0
O304 O 0.18343 0.3315 0.63971 0.0
N305 N 0.1491 0.32855 0.77889 0.0
C306 C 0.16685 0.35254 0.79686 0.0
C307 C 0.17821 0.34598 0.82806 0.0
C308 C 0.17061 0.31509 0.84066 0.0
C309 C 0.15227 0.29081 0.82165 0.0
C310 C 0.14213 0.29861 0.79054 0.0
H311 H 0.17219 0.37646 0.78745 0.0
O312 O 0.20465 0.36323 0.69901 0.0
O313 O 0.16244 0.3309 0.71115 0.0
O314 O 0.15118 0.39892 0.69948 0.0
O315 O 0.12992 0.37874 0.74413 0.0
C316 C 0.14433 0.25893 0.83196 0.0
C317 C 0.1282 0.23502 0.81032 0.0
H318 H 0.10123 0.19474 0.76027 0.0
H319 H 0.08993 0.2123 0.70453 0.0
H320 H 0.19248 0.36478 0.84252 0.0
H321 H 0.17932 0.31017 0.86478 0.0
H322 H 0.15156 0.25224 0.85604 0.0
H323 H 0.1233 0.21031 0.81808 0.0
Mn324 Mn 0.65199 0.18214 0.36671 0.0
Mn325 Mn 0.68375 0.25312 0.40318 0.0
C326 C 0.67629 0.22324 0.33615 0.0
C327 C 0.65256 0.12912 0.34495 0.0
C328 C 0.61381 0.23466 0.39411 0.0
O329 O 0.66008 0.16968 0.41397 0.0
O330 O 0.68277 0.21834 0.43506 0.0
C331 C 0.74882 0.2404 0.41947 0.0
N332 N 0.72851 0.25799 0.40363 0.0
C333 C 0.7703 0.2988 0.39117 0.0
C334 C 0.7917 0.28113 0.40732 0.0
C335 C 0.78095 0.25158 0.42116 0.0
C336 C 0.73874 0.28594 0.3894 0.0
H337 H 0.74051 0.21831 0.43117 0.0
C338 C 0.67391 0.18793 0.43724 0.0
O339 O 0.62702 0.14003 0.35428 0.0
O340 O 0.67844 0.14842 0.34999 0.0
N341 N 0.68647 0.28821 0.37412 0.0
C342 C 0.66298 0.30132 0.35802 0.0
C343 C 0.6701 0.32974 0.34084 0.0
C344 C 0.70109 0.34481 0.34117 0.0
C345 C 0.72479 0.33084 0.35802 0.0
C346 C 0.7165 0.3018 0.37355 0.0
H347 H 0.639 0.29027 0.35844 0.0
O348 O 0.65423 0.2023 0.32304 0.0
O349 O 0.68213 0.22047 0.367 0.0
O350 O 0.61545 0.20759 0.37902 0.0
O351 O 0.63798 0.25286 0.40485 0.0
C352 C 0.75619 0.34494 0.36065 0.0
C353 C 0.77883 0.32907 0.37747 0.0
H354 H 0.81639 0.29004 0.4094 0.0
H355 H 0.7973 0.23786 0.43375 0.0
H356 H 0.65165 0.34035 0.32791 0.0
H357 H 0.70641 0.36713 0.3285 0.0
H358 H 0.76322 0.36793 0.34977 0.0
H359 H 0.80262 0.34061 0.37999 0.0
Mn360 Mn 0.66008 0.64799 0.63245 0.0
Mn361 Mn 0.63379 0.65454 0.70891 0.0
C362 C 0.68139 0.69056 0.66847 0.0
C363 C 0.69268 0.63059 0.59166 0.0
C364 C 0.59649 0.67052 0.64938 0.0
O365 O 0.64107 0.60093 0.64137 0.0
O366 O 0.62751 0.60858 0.69361 0.0
C367 C 0.67528 0.61716 0.74773 0.0
N368 N 0.66319 0.64556 0.74206 0.0
C369 C 0.67856 0.66707 0.79596 0.0
C370 C 0.69108 0.63799 0.80249 0.0
C371 C 0.69017 0.6133 0.77799 0.0
C372 C 0.66558 0.6702 0.76483 0.0
H373 H 0.6729 0.59739 0.72959 0.0
C374 C 0.63083 0.59027 0.66852 0.0
O375 O 0.66462 0.63757 0.58514 0.0
O376 O 0.7018 0.63243 0.62221 0.0
N377 N 0.63907 0.6981 0.72676 0.0
C378 C 0.62677 0.72488 0.71596 0.0
C379 C 0.6282 0.75292 0.7365 0.0
C380 C 0.64112 0.75261 0.76831 0.0
C381 C 0.65344 0.72463 0.77882 0.0
C382 C 0.65299 0.69816 0.75661 0.0
H383 H 0.61554 0.72467 0.69208 0.0
O384 O 0.68203 0.69379 0.63713 0.0
O385 O 0.6674 0.66323 0.67767 0.0
O386 O 0.61718 0.66603 0.6287 0.0
O387 O 0.60005 0.66485 0.67925 0.0
C388 C 0.66497 0.72142 0.8108 0.0
C389 C 0.67712 0.69251 0.81941 0.0
H390 H 0.70117 0.63409 0.82625 0.0
H391 H 0.69998 0.59095 0.78288 0.0
H392 H 0.61849 0.77433 0.72822 0.0
H393 H 0.64124 0.77387 0.78452 0.0
H394 H 0.66449 0.74094 0.82902 0.0
H395 H 0.68447 0.68986 0.84434 0.0
Mn396 Mn 0.66824 0.37692 0.85934 0.0
Mn397 Mn 0.65725 0.30254 0.89146 0.0
C398 C 0.70149 0.33764 0.84724 0.0
C399 C 0.65749 0.41251 0.81775 0.0
C400 C 0.68763 0.36252 0.92989 0.0
O401 O 0.62294 0.37467 0.8746 0.0
O402 O 0.61858 0.3237 0.89258 0.0
C403 C 0.61312 0.27139 0.83975 0.0
N404 N 0.63971 0.27137 0.85867 0.0
C405 C 0.64835 0.21848 0.83711 0.0
C406 C 0.62093 0.21773 0.81752 0.0
C407 C 0.60351 0.24453 0.81848 0.0
C408 C 0.65744 0.24646 0.85676 0.0
H409 H 0.59939 0.29172 0.84096 0.0
C410 C 0.60728 0.3502 0.88674 0.0
O411 O 0.6678 0.42327 0.84663 0.0
O412 O 0.65301 0.38116 0.81319 0.0
N413 N 0.69257 0.27824 0.89229 0.0
C414 C 0.71905 0.28339 0.9118 0.0
C415 C 0.73919 0.25899 0.91368 0.0
C416 C 0.73137 0.22917 0.89635 0.0
C417 C 0.70391 0.22436 0.87654 0.0
C418 C 0.68511 0.2498 0.87512 0.0
H419 H 0.72461 0.30579 0.92612 0.0
O420 O 0.71043 0.36821 0.84335 0.0
O421 O 0.67344 0.33091 0.85751 0.0
O422 O 0.68655 0.38265 0.90701 0.0
O423 O 0.67618 0.33274 0.92646 0.0
C424 C 0.69414 0.19512 0.85862 0.0
C425 C 0.66684 0.19247 0.83824 0.0
H426 H 0.61309 0.19677 0.80159 0.0
H427 H 0.58252 0.24427 0.80315 0.0
H428 H 0.76034 0.26289 0.92899 0.0
H429 H 0.74665 0.21016 0.89839 0.0
H430 H 0.70775 0.17465 0.85991 0.0
H431 H 0.66011 0.1702 0.82383 0.0
Mn432 Mn 0.35946 0.16278 0.86017 0.0
Mn433 Mn 0.37995 0.18277 0.78344 0.0
C434 C 0.33502 0.20208 0.83325 0.0
C435 C 0.33109 0.13655 0.90192 0.0
C436 C 0.41724 0.20906 0.84339 0.0
O437 O 0.38052 0.12279 0.84447 0.0
O438 O 0.39495 0.1414 0.79577 0.0
C439 C 0.34285 0.12823 0.74602 0.0
N440 N 0.35143 0.16073 0.75122 0.0
C441 C 0.32693 0.17262 0.70027 0.0
C442 C 0.31778 0.13927 0.69436 0.0
C443 C 0.32554 0.11702 0.71748 0.0
C444 C 0.34357 0.18238 0.72944 0.0
H445 H 0.34951 0.111 0.76329 0.0
C446 C 0.3939 0.11979 0.81721 0.0
O447 O 0.35955 0.15017 0.90632 0.0
O448 O 0.31964 0.13526 0.87212 0.0
N449 N 0.36739 0.22193 0.76669 0.0
C450 C 0.37615 0.25332 0.77724 0.0
C451 C 0.36869 0.27874 0.75779 0.0
C452 C 0.35309 0.27164 0.72737 0.0
C453 C 0.34475 0.23913 0.71682 0.0
C454 C 0.35221 0.21484 0.73755 0.0
H455 H 0.38888 0.25885 0.80022 0.0
O456 O 0.33682 0.20184 0.8648 0.0
O457 O 0.34768 0.17919 0.81743 0.0
O458 O 0.40117 0.19232 0.86352 0.0
O459 O 0.41128 0.2076 0.81295 0.0
C460 C 0.32908 0.22982 0.68671 0.0
C461 C 0.32011 0.19659 0.67847 0.0
H462 H 0.30472 0.13049 0.67221 0.0
H463 H 0.31863 0.09124 0.71305 0.0
H464 H 0.37531 0.30377 0.76603 0.0
H465 H 0.34755 0.29133 0.71236 0.0
H466 H 0.3232 0.24805 0.67004 0.0
H467 H 0.30752 0.18978 0.65556 0.0
Mn468 Mn 0.35743 0.36458 0.36778 0.0
Mn469 Mn 0.33463 0.29061 0.39682 0.0
C470 C 0.33899 0.32071 0.33226 0.0
C471 C 0.35195 0.41704 0.34967 0.0
C472 C 0.4023 0.31943 0.39609 0.0
O473 O 0.34605 0.37517 0.41535 0.0
O474 O 0.3283 0.3244 0.43044 0.0
C475 C 0.26665 0.29027 0.40664 0.0
N476 N 0.2907 0.27735 0.39196 0.0
C477 C 0.25736 0.22866 0.37513 0.0
C478 C 0.23217 0.24145 0.39006 0.0
C479 C 0.23673 0.2726 0.40541 0.0
C480 C 0.2863 0.24787 0.37615 0.0
H481 H 0.27044 0.31352 0.41978 0.0
C482 C 0.33323 0.35526 0.43567 0.0
O483 O 0.37813 0.4091 0.36148 0.0
O484 O 0.32787 0.39494 0.34991 0.0
N485 N 0.33939 0.25624 0.36573 0.0
C486 C 0.36587 0.2482 0.35146 0.0
C487 C 0.36478 0.21888 0.33292 0.0
C488 C 0.33678 0.19775 0.33017 0.0
C489 C 0.30993 0.20664 0.34519 0.0
C490 C 0.31205 0.23685 0.36196 0.0
H491 H 0.38768 0.26388 0.3544 0.0
O492 O 0.35852 0.34436 0.32245 0.0
O493 O 0.33219 0.32268 0.36272 0.0
O494 O 0.39732 0.34491 0.3815 0.0
O495 O 0.38024 0.29875 0.40429 0.0
C496 C 0.28141 0.18634 0.34501 0.0
C497 C 0.25531 0.19719 0.3603 0.0
H498 H 0.20931 0.22755 0.39021 0.0
H499 H 0.21745 0.28255 0.41711 0.0
H500 H 0.38564 0.21224 0.32145 0.0
H501 H 0.3362 0.17473 0.31661 0.0
H502 H 0.27929 0.16227 0.33331 0.0
H503 H 0.2341 0.18074 0.36098 0.0
Mn504 Mn 0.3484 0.66614 0.1747 0.0
Mn505 Mn 0.39515 0.69911 0.23798 0.0
C506 C 0.32759 0.69011 0.22005 0.0
C507 C 0.31977 0.66682 0.12524 0.0
C508 C 0.37534 0.62671 0.22885 0.0
O509 O 0.39134 0.67374 0.15352 0.0
O510 O 0.41962 0.69251 0.19873 0.0
C511 C 0.41046 0.76281 0.20794 0.0
N512 N 0.40062 0.74529 0.23385 0.0
C513 C 0.39578 0.79414 0.26596 0.0
C514 C 0.40626 0.8127 0.23982 0.0
C515 C 0.41305 0.79695 0.21048 0.0
C516 C 0.39229 0.76022 0.2615 0.0
H517 H 0.41602 0.75088 0.18542 0.0
C518 C 0.41728 0.68482 0.16826 0.0
O519 O 0.32834 0.64022 0.13639 0.0
O520 O 0.32937 0.69364 0.14182 0.0
N521 N 0.37582 0.70817 0.27819 0.0
C522 C 0.36578 0.68686 0.30115 0.0
C523 C 0.35817 0.69863 0.332 0.0
C524 C 0.36216 0.73218 0.33947 0.0
C525 C 0.37305 0.75372 0.31575 0.0
C526 C 0.37988 0.74056 0.28527 0.0
H527 H 0.36444 0.66106 0.29637 0.0
O528 O 0.31057 0.66819 0.20186 0.0
O529 O 0.35619 0.69738 0.21151 0.0
O530 O 0.36128 0.62829 0.20131 0.0
O531 O 0.38899 0.65163 0.24487 0.0
C532 C 0.37819 0.78769 0.32145 0.0
C533 C 0.38875 0.80795 0.29631 0.0
H534 H 0.40889 0.83903 0.24189 0.0
H535 H 0.42042 0.81115 0.18995 0.0
H536 H 0.35008 0.68181 0.35028 0.0
H537 H 0.35699 0.74113 0.36358 0.0
H538 H 0.37379 0.79852 0.34502 0.0
H539 H 0.39177 0.83409 0.30071 0.0
Mn540 Mn 0.66624 0.86459 0.17614 0.0
Mn541 Mn 0.62665 0.83707 0.24156 0.0
C542 C 0.69352 0.84966 0.22201 0.0
C543 C 0.69283 0.86115 0.12719 0.0
C544 C 0.63905 0.90817 0.22782 0.0
O545 O 0.6229 0.84827 0.15546 0.0
O546 O 0.59871 0.8358 0.202 0.0
C547 C 0.60856 0.76825 0.21932 0.0
N548 N 0.62129 0.79066 0.24248 0.0
C549 C 0.62325 0.74962 0.28225 0.0
C550 C 0.61003 0.72611 0.25887 0.0
C551 C 0.60304 0.73541 0.22717 0.0
C552 C 0.6287 0.78184 0.27287 0.0
H553 H 0.60253 0.77535 0.19513 0.0
C554 C 0.59864 0.8379 0.17098 0.0
O555 O 0.68043 0.88701 0.13608 0.0
O556 O 0.68805 0.83627 0.1455 0.0
N557 N 0.64983 0.83578 0.28183 0.0
C558 C 0.66665 0.86051 0.2997 0.0
C559 C 0.67819 0.85469 0.33104 0.0
C560 C 0.67177 0.82374 0.34386 0.0
C561 C 0.65436 0.7987 0.32497 0.0
C562 C 0.64392 0.8058 0.29374 0.0
H563 H 0.67118 0.88443 0.29008 0.0
O564 O 0.70578 0.87167 0.20302 0.0
O565 O 0.66458 0.83767 0.21481 0.0
O566 O 0.65018 0.90411 0.19979 0.0
O567 O 0.63011 0.88455 0.24533 0.0
C568 C 0.64757 0.76677 0.33558 0.0
C569 C 0.63208 0.74222 0.3142 0.0
H570 H 0.60562 0.70078 0.26482 0.0
H571 H 0.59325 0.71731 0.20892 0.0
H572 H 0.69174 0.87409 0.3454 0.0
H573 H 0.68063 0.81938 0.36808 0.0
H574 H 0.65506 0.76059 0.35975 0.0
H575 H 0.62791 0.71755 0.32227 0.0
C576 C 0.21263 0.24374 0.1946 0.0
C577 C 0.2059 0.2101 0.19746 0.0
C578 C 0.23558 0.26191 0.21522 0.0
C579 C 0.25247 0.24595 0.23887 0.0
C580 C 0.24608 0.21183 0.24111 0.0
C581 C 0.22304 0.19445 0.2204 0.0
C582 C 0.2415 0.29824 0.21204 0.0
C583 C 0.26236 0.19333 0.26616 0.0
C584 C 0.32867 0.28836 0.27907 0.0
C585 C 0.31794 0.30021 0.30857 0.0
C586 C 0.30768 0.27072 0.25598 0.0
C587 C 0.27529 0.2651 0.26254 0.0
C588 C 0.26461 0.27717 0.29231 0.0
C589 C 0.28587 0.29495 0.31457 0.0
C590 C 0.32012 0.2577 0.22481 0.0
C591 C 0.23082 0.27046 0.30116 0.0
H592 H 0.19977 0.25582 0.17645 0.0
H593 H 0.21885 0.16827 0.22185 0.0
H594 H 0.23533 0.31078 0.2349 0.0
H595 H 0.26678 0.30549 0.20837 0.0
H596 H 0.22762 0.30679 0.19146 0.0
H597 H 0.26392 0.16785 0.25744 0.0
H598 H 0.2863 0.20495 0.27302 0.0
H599 H 0.24809 0.1924 0.28816 0.0
H600 H 0.3534 0.29283 0.27411 0.0
H601 H 0.27717 0.30528 0.33663 0.0
H602 H 0.30756 0.26668 0.20355 0.0
H603 H 0.31568 0.23074 0.22355 0.0
H604 H 0.34568 0.26489 0.22285 0.0
H605 H 0.22574 0.28311 0.32439 0.0
H606 H 0.22549 0.24393 0.30378 0.0
H607 H 0.21509 0.27775 0.28149 0.0
C608 C 0.81138 0.26845 0.20922 0.0
C609 C 0.82392 0.30103 0.21412 0.0
C610 C 0.78663 0.25515 0.22815 0.0
C611 C 0.77408 0.27503 0.2522 0.0
C612 C 0.78673 0.30793 0.25692 0.0
C613 C 0.81103 0.32056 0.23756 0.0
C614 C 0.77423 0.21976 0.22288 0.0
C615 C 0.77544 0.32959 0.28327 0.0
C616 C 0.69293 0.25171 0.28556 0.0
C617 C 0.70063 0.23883 0.31539 0.0
C618 C 0.71659 0.26331 0.26452 0.0
C619 C 0.74855 0.2614 0.27335 0.0
C620 C 0.75614 0.2479 0.30331 0.0
C621 C 0.73217 0.23686 0.32382 0.0
C622 C 0.70748 0.27775 0.23293 0.0
C623 C 0.78948 0.24587 0.31476 0.0
H624 H 0.82098 0.25344 0.19072 0.0
H625 H 0.81965 0.34613 0.24047 0.0
H626 H 0.77826 0.20669 0.24546 0.0
H627 H 0.74853 0.21732 0.21766 0.0
H628 H 0.78565 0.20782 0.2025 0.0
H629 H 0.78488 0.35551 0.28131 0.0
H630 H 0.74944 0.32772 0.28284 0.0
H631 H 0.78348 0.32126 0.30706 0.0
H632 H 0.66846 0.25262 0.27871 0.0
H633 H 0.73824 0.22574 0.34626 0.0
H634 H 0.7173 0.26481 0.21217 0.0
H635 H 0.71756 0.30363 0.23285 0.0
H636 H 0.68163 0.27645 0.22904 0.0
H637 H 0.80561 0.24426 0.29437 0.0
H638 H 0.7912 0.22466 0.33023 0.0
H639 H 0.79724 0.26808 0.33003 0.0
C640 C 0.29557 0.6963 0.26872 0.0
C641 C 0.31291 0.71047 0.24381 0.0
C642 C 0.2798 0.7154 0.29018 0.0
C643 C 0.27947 0.74911 0.28521 0.0
C644 C 0.29754 0.76352 0.26015 0.0
C645 C 0.31444 0.74406 0.24007 0.0
C646 C 0.2631 0.69899 0.3176 0.0
C647 C 0.29816 0.79924 0.25372 0.0
C648 C 0.2084 0.79065 0.30979 0.0
C649 C 0.22133 0.81245 0.33474 0.0
C650 C 0.22681 0.76916 0.29411 0.0
C651 C 0.25865 0.76892 0.3043 0.0
C652 C 0.27092 0.78963 0.33103 0.0
C653 C 0.25248 0.81196 0.34511 0.0
C654 C 0.21245 0.74762 0.26589 0.0
C655 C 0.30365 0.789 0.34459 0.0
H656 H 0.29466 0.67027 0.27164 0.0
H657 H 0.32786 0.75489 0.22053 0.0
H658 H 0.23886 0.6901 0.30901 0.0
H659 H 0.27463 0.67766 0.32537 0.0
H660 H 0.26255 0.71608 0.33882 0.0
H661 H 0.31192 0.8062 0.23211 0.0
H662 H 0.27388 0.80552 0.2498 0.0
H663 H 0.30871 0.81398 0.27517 0.0
H664 H 0.1842 0.79131 0.30171 0.0
H665 H 0.26233 0.8288 0.36458 0.0
H666 H 0.21264 0.72172 0.27174 0.0
H667 H 0.22651 0.75188 0.24392 0.0
H668 H 0.18785 0.75193 0.26002 0.0
H669 H 0.31096 0.76431 0.34183 0.0
H670 H 0.30564 0.79675 0.37082 0.0
H671 H 0.31963 0.80629 0.33128 0.0
C672 C 0.8129 0.76088 0.33535 0.0
C673 C 0.81831 0.73248 0.31777 0.0
C674 C 0.79266 0.78213 0.32272 0.0
C675 C 0.7792 0.77581 0.29089 0.0
C676 C 0.78533 0.7475 0.27282 0.0
C677 C 0.8032 0.72532 0.28737 0.0
C678 C 0.78547 0.81087 0.34373 0.0
C679 C 0.7725 0.7402 0.23831 0.0
C680 C 0.70503 0.80174 0.25369 0.0
C681 C 0.71459 0.83292 0.24333 0.0
C682 C 0.72484 0.78495 0.27282 0.0
C683 C 0.75689 0.7971 0.27699 0.0
C684 C 0.76746 0.82803 0.26511 0.0
C685 C 0.74583 0.84613 0.24971 0.0
C686 C 0.71108 0.75454 0.28892 0.0
C687 C 0.80144 0.84224 0.26737 0.0
H688 H 0.82379 0.76603 0.35941 0.0
H689 H 0.80526 0.70222 0.27493 0.0
H690 H 0.76065 0.81559 0.34019 0.0
H691 H 0.79009 0.8071 0.36998 0.0
H692 H 0.8007 0.83285 0.33704 0.0
H693 H 0.78135 0.71841 0.22712 0.0
H694 H 0.74661 0.73539 0.23752 0.0
H695 H 0.77874 0.7615 0.22322 0.0
H696 H 0.68231 0.78992 0.24603 0.0
H697 H 0.75394 0.86991 0.24102 0.0
H698 H 0.70804 0.7608 0.31499 0.0
H699 H 0.7264 0.7348 0.28851 0.0
H700 H 0.68806 0.74469 0.27755 0.0
H701 H 0.80415 0.86315 0.28532 0.0
H702 H 0.80862 0.85186 0.24353 0.0
H703 H 0.8177 0.8246 0.27463 0.0
C704 C 0.31193 0.81782 0.73763 0.0
C705 C 0.32498 0.79891 0.71378 0.0
C706 C 0.28745 0.80466 0.75648 0.0
C707 C 0.27485 0.77184 0.75092 0.0
C708 C 0.28763 0.75256 0.72651 0.0
C709 C 0.31249 0.76641 0.70803 0.0
C710 C 0.27594 0.82565 0.78322 0.0
C711 C 0.27541 0.71721 0.72046 0.0
C712 C 0.23258 0.73254 0.82181 0.0
C713 C 0.20106 0.73433 0.81317 0.0
C714 C 0.25664 0.74383 0.80151 0.0
C715 C 0.2492 0.75764 0.77166 0.0
C716 C 0.21726 0.75947 0.76267 0.0
C717 C 0.19348 0.74742 0.78341 0.0
C718 C 0.28989 0.74165 0.81312 0.0
C719 C 0.20828 0.77437 0.7313 0.0
H720 H 0.32059 0.84333 0.74128 0.0
H721 H 0.32225 0.75186 0.68925 0.0
H722 H 0.24994 0.82383 0.78248 0.0
H723 H 0.28369 0.81662 0.80681 0.0
H724 H 0.28548 0.85163 0.78205 0.0
H725 H 0.28705 0.70576 0.69995 0.0
H726 H 0.27932 0.70371 0.74278 0.0
H727 H 0.24975 0.71475 0.71503 0.0
H728 H 0.23857 0.72138 0.84426 0.0
H729 H 0.16903 0.74826 0.77642 0.0
H730 H 0.30638 0.74139 0.79292 0.0
H731 H 0.29157 0.71957 0.82734 0.0
H732 H 0.29716 0.76302 0.82972 0.0
H733 H 0.21825 0.80031 0.7317 0.0
H734 H 0.18245 0.77298 0.72724 0.0
H735 H 0.21831 0.76184 0.7104 0.0
C736 C 0.72078 0.69625 0.71444 0.0
C737 C 0.70371 0.71119 0.69085 0.0
C738 C 0.7432 0.71434 0.7353 0.0
C739 C 0.74946 0.74834 0.73225 0.0
C740 C 0.73266 0.76362 0.70801 0.0
C741 C 0.71009 0.7448 0.68741 0.0
C742 C 0.75943 0.69712 0.76138 0.0
C743 C 0.73807 0.7999 0.70441 0.0
C744 C 0.78315 0.79563 0.80887 0.0
C745 C 0.8153 0.80028 0.80315 0.0
C746 C 0.76157 0.77968 0.78576 0.0
C747 C 0.77217 0.76786 0.75581 0.0
C748 C 0.80468 0.77304 0.7495 0.0
C749 C 0.82589 0.78949 0.77318 0.0
C750 C 0.72765 0.7742 0.79453 0.0
C751 C 0.81706 0.76064 0.71803 0.0
H752 H 0.71694 0.6701 0.71632 0.0
H753 H 0.69725 0.75637 0.66884 0.0
H754 H 0.78522 0.70331 0.76089 0.0
H755 H 0.75164 0.70563 0.7853 0.0
H756 H 0.75385 0.67025 0.75906 0.0
H757 H 0.72429 0.80794 0.68349 0.0
H758 H 0.73139 0.81253 0.72701 0.0
H759 H 0.76334 0.80755 0.70106 0.0
H760 H 0.77464 0.80489 0.83153 0.0
H761 H 0.8507 0.79347 0.76849 0.0
H762 H 0.72361 0.74989 0.80494 0.0
H763 H 0.71156 0.77485 0.773 0.0
H764 H 0.7218 0.7924 0.81327 0.0
H765 H 0.81279 0.73368 0.71631 0.0
H766 H 0.84259 0.76802 0.71605 0.0
H767 H 0.80438 0.76987 0.697 0.0
C768 C 0.70693 0.29104 0.80887 0.0
C769 C 0.71974 0.31243 0.8342 0.0
C770 C 0.72518 0.26919 0.79354 0.0
C771 C 0.75664 0.26802 0.80461 0.0
C772 C 0.76871 0.28828 0.83174 0.0
C773 C 0.75054 0.31111 0.84537 0.0
C774 C 0.71109 0.24831 0.76473 0.0
C775 C 0.80094 0.28664 0.84627 0.0
C776 C 0.79187 0.19418 0.76958 0.0
C777 C 0.81047 0.208 0.74543 0.0
C778 C 0.77628 0.21374 0.79075 0.0
C779 C 0.77733 0.24762 0.78608 0.0
C780 C 0.79659 0.26167 0.76173 0.0
C781 C 0.81331 0.2417 0.74201 0.0
C782 C 0.75838 0.19769 0.8176 0.0
C783 C 0.79872 0.29756 0.75568 0.0
H784 H 0.683 0.29236 0.8002 0.0
H785 H 0.76028 0.32764 0.86513 0.0
H786 H 0.7261 0.25207 0.74337 0.0
H787 H 0.70997 0.22228 0.7705 0.0
H788 H 0.68702 0.25373 0.75792 0.0
H789 H 0.80208 0.29346 0.87273 0.0
H790 H 0.80805 0.2619 0.843 0.0
H791 H 0.81763 0.30426 0.83417 0.0
H792 H 0.78991 0.16806 0.77223 0.0
H793 H 0.82766 0.25226 0.72301 0.0
H794 H 0.76854 0.17546 0.82513 0.0
H795 H 0.73396 0.1903 0.80859 0.0
H796 H 0.75843 0.21456 0.8391 0.0
H797 H 0.81313 0.30421 0.73443 0.0
H798 H 0.80937 0.3117 0.77745 0.0
H799 H 0.77488 0.30492 0.75137 0.0
C800 C 0.20217 0.29254 0.74903 0.0
C801 C 0.21249 0.32354 0.73867 0.0
C802 C 0.22146 0.27528 0.76835 0.0
C803 C 0.25366 0.28676 0.77281 0.0
C804 C 0.265 0.31734 0.76062 0.0
C805 C 0.24396 0.3359 0.74498 0.0
C806 C 0.20686 0.24554 0.78494 0.0
C807 C 0.29918 0.33081 0.76293 0.0
C808 C 0.30928 0.25326 0.83357 0.0
C809 C 0.31515 0.22427 0.81734 0.0
C810 C 0.28861 0.27347 0.81991 0.0
C811 C 0.27527 0.26562 0.78825 0.0
C812 C 0.28149 0.23647 0.77169 0.0
C813 C 0.29974 0.2153 0.78741 0.0
C814 C 0.28107 0.30294 0.83963 0.0
C815 C 0.26887 0.22753 0.73737 0.0
H816 H 0.17918 0.28137 0.74147 0.0
H817 H 0.25268 0.35949 0.73623 0.0
H818 H 0.22178 0.22548 0.7856 0.0
H819 H 0.20352 0.25255 0.81076 0.0
H820 H 0.18392 0.23586 0.77329 0.0
H821 H 0.3069 0.33891 0.73871 0.0
H822 H 0.30209 0.35265 0.77973 0.0
H823 H 0.31489 0.31322 0.77156 0.0
H824 H 0.32029 0.25982 0.85735 0.0
H825 H 0.30214 0.19173 0.77614 0.0
H826 H 0.28482 0.29988 0.86615 0.0
H827 H 0.25645 0.30787 0.83504 0.0
H828 H 0.29683 0.32452 0.83285 0.0
H829 H 0.24299 0.22304 0.73629 0.0
H830 H 0.2776 0.2051 0.7275 0.0
H831 H 0.27547 0.24793 0.72126 0.0
C832 C 0.15892 0.96832 0.29902 0.0
C833 C 0.15157 0.93459 0.29394 0.0
C834 C 0.15374 0.98994 0.27425 0.0
C835 C 0.14069 0.97775 0.24347 0.0
C836 C 0.13319 0.94372 0.23816 0.0
C837 C 0.13878 0.92259 0.26336 0.0
C838 C 0.1623 0.02596 0.28106 0.0
C839 C 0.11907 0.92964 0.20593 0.0
C840 C 0.10298 0.04286 0.19841 0.0
C841 C 0.12761 0.05594 0.17948 0.0
C842 C 0.10585 0.01555 0.21722 0.0
C843 C 0.13424 1.00104 0.21751 0.0
C844 C 0.15795 1.01216 0.19593 0.0
C845 C 0.15429 0.03938 0.17706 0.0
C846 C 0.07967 1.00442 0.23929 0.0
C847 C 0.18858 0.99751 0.19522 0.0
H848 H 0.16892 0.97791 0.32241 0.0
H849 H 0.13301 0.89659 0.25908 0.0
H850 H 0.17922 0.03576 0.26304 0.0
H851 H 0.14112 0.03889 0.27841 0.0
H852 H 0.17287 0.03158 0.30592 0.0
H853 H 0.11502 0.90264 0.20539 0.0
H854 H 0.09638 0.93927 0.20089 0.0
H855 H 0.13476 0.93717 0.18596 0.0
H856 H 0.08253 0.05586 0.20086 0.0
H857 H 0.17375 0.04978 0.16319 0.0
H858 H 0.08653 1.01266 0.26477 0.0
H859 H 0.07527 0.97748 0.23861 0.0
H860 H 0.05751 0.01442 0.23249 0.0
H861 H 0.20299 1.00589 0.21745 0.0
H862 H 0.20218 1.00478 0.17359 0.0
H863 H 0.1845 0.97058 0.19515 0.0
C864 C 0.93913 0.45459 0.23394 0.0
C865 C 0.91764 0.44466 0.20801 0.0
C866 C 0.93815 0.48421 0.25147 0.0
C867 C 0.91532 0.50478 0.24273 0.0
C868 C 0.89534 0.49626 0.21485 0.0
C869 C 0.89673 0.46628 0.19779 0.0
C870 C 0.9601 0.49232 0.28077 0.0
C871 C 0.87105 0.5178 0.20431 0.0
C872 C 0.88545 0.562 0.30697 0.0
C873 C 0.90113 0.59213 0.2992 0.0
C874 C 0.89048 0.5332 0.28938 0.0
C875 C 0.91162 0.53458 0.26341 0.0
C876 C 0.92871 0.56464 0.25673 0.0
C877 C 0.92338 0.59287 0.27471 0.0
C878 C 0.87217 0.50147 0.29764 0.0
C879 C 0.9516 0.56731 0.22952 0.0
H880 H 0.95529 0.43797 0.24211 0.0
H881 H 0.8797 0.45866 0.1782 0.0
H882 H 0.97165 0.5176 0.28004 0.0
H883 H 0.94649 0.49071 0.30328 0.0
H884 H 0.9785 0.47553 0.28238 0.0
H885 H 0.85924 0.50926 0.18062 0.0
H886 H 0.85299 0.51822 0.22302 0.0
H887 H 0.882 0.54317 0.20218 0.0
H888 H 0.86804 0.56115 0.32556 0.0
H889 H 0.93581 0.61596 0.26857 0.0
H890 H 0.88832 0.48275 0.30177 0.0
H891 H 0.85603 0.4924 0.27687 0.0
H892 H 0.85815 0.50402 0.31968 0.0
H893 H 0.96887 0.54946 0.23224 0.0
H894 H 0.96452 0.59204 0.22877 0.0
H895 H 0.9388 0.56148 0.20579 0.0
C896 C 0.28334 0.10815 0.92835 0.0
C897 C 0.31164 0.12876 0.93073 0.0
C898 C 0.26405 0.10381 0.95553 0.0
C899 C 0.27255 0.12154 0.98537 0.0
C900 C 0.30137 0.14191 0.98788 0.0
C901 C 0.32067 0.14474 0.9609 0.0
C902 C 0.23416 0.08089 0.95204 0.0
C903 C 0.31102 0.16238 1.0185 0.0
C904 C 0.20798 0.14619 0.03965 0.0
C905 C 0.21145 0.12772 0.06723 0.0
C906 C 0.22733 0.14401 1.01288 0.0
C907 C 0.25018 0.1218 1.01282 0.0
C908 C 0.25306 0.10213 0.04014 0.0
C909 C 0.23414 0.10582 0.06734 0.0
C910 C 0.22407 0.16651 0.98516 0.0
C911 C 0.27625 0.07731 0.04068 0.0
H912 H 0.27617 0.09564 0.90525 0.0
H913 H 0.34229 0.16103 0.96305 0.0
H914 H 0.23166 0.0653 0.9734 0.0
H915 H 0.21372 0.09506 0.95114 0.0
H916 H 0.23339 0.06508 0.92952 0.0
H917 H 0.33458 0.17625 1.01694 0.0
H918 H 0.2937 0.17991 0.02298 0.0
H919 H 0.31128 0.14686 0.03987 0.0
H920 H 0.19068 0.16339 0.03946 0.0
H921 H 0.23678 0.09128 0.08843 0.0
H922 H 0.21876 0.15221 0.96193 0.0
H923 H 0.24655 0.18206 0.98244 0.0
H924 H 0.20527 0.18252 0.98899 0.0
H925 H 0.27379 0.06201 1.01778 0.0
H926 H 0.27307 0.06128 0.06168 0.0
H927 H 0.30051 0.0898 0.04218 0.0
C928 C 0.82466 0.37639 0.06104 0.0
C929 C 0.81808 0.3836 0.09361 0.0
C930 C 0.80241 0.37844 0.03563 0.0
C931 C 0.77282 0.38861 0.04263 0.0
C932 C 0.76677 0.39809 0.07516 0.0
C933 C 0.78932 0.39514 0.10034 0.0
C934 C 0.8099 0.36754 1.00153 0.0
C935 C 0.73589 0.40987 0.08364 0.0
C936 C 0.72359 0.40263 0.96618 0.0
C937 C 0.70562 0.37224 0.9612 0.0
C938 C 0.74411 0.40931 0.99378 0.0
C939 C 0.74722 0.38485 1.01661 0.0
C940 C 0.72797 0.35485 1.01251 0.0
C941 C 0.70731 0.34912 0.98528 0.0
C942 C 0.76351 0.44198 0.9977 0.0
C943 C 0.7306 0.32777 0.03578 0.0
H944 H 0.84679 0.36754 0.05542 0.0
H945 H 0.78403 0.40097 0.12535 0.0
H946 H 0.79441 0.34506 0.994 0.0
H947 H 0.80537 0.38636 0.98403 0.0
H948 H 0.83467 0.36247 0.99969 0.0
H949 H 0.73685 0.42167 0.10843 0.0
H950 H 0.72903 0.42742 0.0657 0.0
H951 H 0.71728 0.38898 0.08271 0.0
H952 H 0.72249 0.42081 0.948 0.0
H953 H 0.69346 0.32561 0.98219 0.0
H954 H 0.78811 0.43936 0.99157 0.0
H955 H 0.76375 0.45146 0.02333 0.0
H956 H 0.75458 0.46009 0.98156 0.0
H957 H 0.75423 0.31939 0.03443 0.0
H958 H 0.71276 0.30656 0.03023 0.0
H959 H 0.72789 0.33667 0.06119 0.0
C960 C 0.29041 0.89424 0.60241 0.0
C961 C 0.31986 0.88434 0.59565 0.0
C962 C 0.26788 0.89691 0.57714 0.0
C963 C 0.2747 0.88884 0.54445 0.0
C964 C 0.30499 0.88055 0.53745 0.0
C965 C 0.32717 0.87872 0.56298 0.0
C966 C 0.23623 0.90671 0.58565 0.0
C967 C 0.31334 0.87125 0.50318 0.0
C968 C 0.21108 0.84734 0.48606 0.0
C969 C 0.20807 0.87087 0.46263 0.0
C970 C 0.23159 0.85348 0.51336 0.0
C971 C 0.24932 0.88429 0.51823 0.0
C972 C 0.24492 0.90899 0.49601 0.0
C973 C 0.2246 0.90192 0.4683 0.0
C974 C 0.23566 0.82614 0.53593 0.0
C975 C 0.26267 0.94246 0.50076 0.0
H976 H 0.28455 0.89883 0.62749 0.0
H977 H 0.34984 0.8712 0.55733 0.0
H978 H 0.22852 0.92418 0.56808 0.0
H979 H 0.21859 0.88493 0.58417 0.0
H980 H 0.23647 0.91788 0.61067 0.0
H981 H 0.33856 0.86786 0.50138 0.0
H982 H 0.29915 0.84816 0.49496 0.0
H983 H 0.30778 0.89012 0.48616 0.0
H984 H 0.19838 0.82329 0.48243 0.0
H985 H 0.22244 0.92041 0.45065 0.0
H986 H 0.23221 0.83408 0.5615 0.0
H987 H 0.25992 0.81938 0.53462 0.0
H988 H 0.21902 0.80411 0.52971 0.0
H989 H 0.26231 0.95123 0.52658 0.0
H990 H 0.2528 0.96033 0.48502 0.0
H991 H 0.28755 0.94144 0.4947 0.0
C992 C 0.70341 0.60273 0.5387 0.0
C993 C 0.71387 0.62444 0.56478 0.0
C994 C 0.7213 0.60008 0.51072 0.0
C995 C 0.74958 0.62088 0.50793 0.0
C996 C 0.7604 0.64256 0.53452 0.0
C997 C 0.74273 0.64358 0.56284 0.0
C998 C 0.7095 0.57557 0.48381 0.0
C999 C 0.78973 0.66604 0.53236 0.0
C1000 C 0.81122 0.60793 0.44478 0.0
C1001 C 0.80276 0.62773 0.41977 0.0
C1002 C 0.79309 0.60388 0.4727 0.0
C1003 C 0.76684 0.6215 0.47661 0.0
C1004 C 0.758 0.64117 0.45109 0.0
C1005 C 0.77566 0.64347 0.42275 0.0
C1006 C 0.80259 0.58144 0.49841 0.0
C1007 C 0.73099 0.66138 0.45449 0.0
H1008 H 0.68099 0.58802 0.54007 0.0
H1009 H 0.75055 0.66085 0.5827 0.0
H1010 H 0.70137 0.58833 0.46243 0.0
H1011 H 0.72871 0.56158 0.47578 0.0
H1012 H 0.68971 0.55825 0.49152 0.0
H1013 H 0.79512 0.68118 0.55514 0.0
H1014 H 0.81009 0.65264 0.52713 0.0
H1015 H 0.78688 0.68238 0.51193 0.0
H1016 H 0.83235 0.59597 0.4427 0.0
H1017 H 0.76948 0.65945 0.40385 0.0
H1018 H 0.78183 0.5654 0.50596 0.0
H1019 H 0.81243 0.59594 0.52031 0.0
H1020 H 0.82049 0.56603 0.4897 0.0
H1021 H 0.70911 0.64561 0.45909 0.0
H1022 H 0.72703 0.67535 0.43247 0.0
H1023 H 0.73572 0.67877 0.47576 0.0
C1024 C 0.98646 0.3057 0.18191 0.0
C1025 C 0.9584 0.30471 0.16323 0.0
C1026 C 1.00871 0.28416 0.17509 0.0
C1027 C 1.0027 0.26049 0.14919 0.0
C1028 C 0.97511 0.26029 0.12926 0.0
C1029 C 0.95338 0.28255 0.13637 0.0
C1030 C 0.03801 0.28573 0.1967 0.0
C1031 C 0.96762 0.23536 0.10162 0.0
C1032 C 0.07341 0.21662 0.12735 0.0
C1033 C 0.07021 0.19048 0.14823 0.0
C1034 C 0.0507 0.23874 0.12585 0.0
C1035 C 0.02398 0.23433 0.14534 0.0
C1036 C 0.01951 0.20648 0.16442 0.0
C1037 C 0.04274 0.18513 0.16583 0.0
C1038 C 0.05656 0.26813 0.10536 0.0
C1039 C 0.99119 0.20037 0.18516 0.0
H1040 H 0.99065 0.32284 0.2026 0.0
H1041 H 0.93166 0.28137 0.12198 0.0
H1042 H 0.03718 0.26365 0.21129 0.0
H1043 H 0.05911 0.28626 0.18172 0.0
H1044 H 0.04069 0.30744 0.2137 0.0
H1045 H 0.94749 0.24089 0.08596 0.0
H1046 H 0.98829 0.23393 0.0863 0.0
H1047 H 0.96173 0.21102 0.11169 0.0
H1048 H 0.09472 0.2212 0.11399 0.0
H1049 H 0.04006 0.16496 0.18198 0.0
H1050 H 0.06342 0.29001 0.12151 0.0
H1051 H 0.03493 0.27234 0.09144 0.0
H1052 H 0.07557 0.2656 0.08802 0.0
H1053 H 0.99287 0.2187 0.20572 0.0
H1054 H 0.9892 0.17576 0.19532 0.0
H1055 H 0.9694 0.20297 0.17074 0.0
C1056 C 0.97455 0.73016 0.35376 0.0
C1057 C 0.94334 0.7327 0.36093 0.0
C1058 C 0.99814 0.75524 0.36319 0.0
C1059 C 0.99006 0.78402 0.37914 0.0
C1060 C 0.95846 0.78644 0.38678 0.0
C1061 C 0.93544 0.76054 0.37775 0.0
C1062 C 0.03162 0.75131 0.35514 0.0
C1063 C 0.94871 0.8169 0.40291 0.0
C1064 C 0.06244 0.8293 0.41975 0.0
C1065 C 0.07498 0.84647 0.3935 0.0
C1066 C 0.03276 0.81137 0.41688 0.0
C1067 C 0.0151 0.81125 0.38725 0.0
C1068 C 0.02554 0.83285 0.36285 0.0
C1069 C 0.05561 0.85026 0.36622 0.0
C1070 C 0.02255 0.789 0.44368 0.0
C1071 C 1.00679 0.83443 0.33142 0.0
H1072 H 0.98036 0.70881 0.34016 0.0
H1073 H 0.91099 0.76273 0.38234 0.0
H1074 H 0.03983 0.76936 0.33713 0.0
H1075 H 0.04717 0.75599 0.37728 0.0
H1076 H 0.03422 0.72659 0.34484 0.0
H1077 H 0.92427 0.81318 0.41134 0.0
H1078 H 0.96466 0.82538 0.42399 0.0
H1079 H 0.95025 0.83659 0.38525 0.0
H1080 H 0.07746 0.82649 0.44095 0.0
H1081 H 0.06525 0.86342 0.34583 0.0
H1082 H 0.02734 0.76391 0.4367 0.0
H1083 H 0.99702 0.78837 0.4474 0.0
H1084 H 0.03542 0.79644 0.46711 0.0
H1085 H 1.01019 0.81313 0.31524 0.0
H1086 H 0.01435 0.85688 0.31844 0.0
H1087 H 0.98138 0.83354 0.33598 0.0
C1088 C 0.57325 0.71577 0.62194 0.0
C1089 C 0.56923 0.68805 0.64065 0.0
C1090 C 0.55079 0.7382 0.62167 0.0
C1091 C 0.5235 0.7325 0.64017 0.0
C1092 C 0.51815 0.70307 0.6567 0.0
C1093 C 0.54116 0.68143 0.65699 0.0
C1094 C 0.5576 0.76926 0.60385 0.0
C1095 C 0.48922 0.69556 0.67626 0.0
C1096 C 0.48659 0.80162 0.68209 0.0
C1097 C 0.45908 0.80287 0.66302 0.0
C1098 C 0.5085 0.7801 0.67382 0.0
C1099 C 0.50265 0.75874 0.646 0.0
C1100 C 0.4756 0.76082 0.62583 0.0
C1101 C 0.45425 0.78301 0.63445 0.0
C1102 C 0.53724 0.77923 0.69579 0.0
C1103 C 0.46829 0.73836 0.59617 0.0
H1104 H 0.59511 0.72135 0.60972 0.0
H1105 H 0.53796 0.6601 0.67158 0.0
H1106 H 0.53635 0.77515 0.5903 0.0
H1107 H 0.56471 0.78965 0.6218 0.0
H1108 H 0.57679 0.76777 0.58652 0.0
H1109 H 0.48651 0.67 0.68401 0.0
H1110 H 0.49074 0.71194 0.69839 0.0
H1111 H 0.46789 0.69992 0.66191 0.0
H1112 H 0.49067 0.81697 0.70409 0.0
H1113 H 0.43296 0.78356 0.61969 0.0
H1114 H 0.55868 0.78074 0.68127 0.0
H1115 H 0.53567 0.75582 0.70827 0.0
H1116 H 0.5399 0.7994 0.71462 0.0
H1117 H 0.48923 0.73796 0.58107 0.0
H1118 H 0.4486 0.74557 0.5809 0.0
H1119 H 0.46182 0.7132 0.60398 0.0
C1120 C 0.85931 0.06253 0.73135 0.0
C1121 C 0.87187 0.09173 0.74772 0.0
C1122 C 0.85466 0.03315 0.7478 0.0
C1123 C 0.8618 0.03296 0.78172 0.0
C1124 C 0.87438 0.06233 0.79836 0.0
C1125 C 0.87984 0.09103 0.78112 0.0
C1126 C 0.84235 1.00222 0.7288 0.0
C1127 C 0.88187 0.06355 0.83456 0.0
C1128 C 0.82702 0.96112 0.83065 0.0
C1129 C 0.85307 0.94389 0.83497 0.0
C1130 C 0.82944 0.99031 0.81358 0.0
C1131 C 0.85822 1.00179 0.79948 0.0
C1132 C 0.88423 0.98388 0.80315 0.0
C1133 C 0.88148 0.95564 0.8212 0.0
C1134 C 0.8014 1.00916 0.81106 0.0
C1135 C 0.91507 0.99441 0.78782 0.0
H1136 H 0.85309 0.0626 0.7056 0.0
H1137 H 0.88967 0.11319 0.79421 0.0
H1138 H 0.85931 0.98399 0.73113 0.0
H1139 H 0.82001 0.99161 0.7389 0.0
H1140 H 0.83823 1.0063 0.70253 0.0
H1141 H 0.88901 0.08874 0.8444 0.0
H1142 H 0.86113 0.05313 0.8477 0.0
H1143 H 0.90117 0.0486 0.83984 0.0
H1144 H 0.805 0.95216 0.8411 0.0
H1145 H 0.90163 0.94221 0.82385 0.0
H1146 H 0.79454 1.01159 0.78511 0.0
H1147 H 0.80757 0.03411 0.82186 0.0
H1148 H 0.7809 0.99735 0.82368 0.0
H1149 H 0.91125 0.9974 0.76133 0.0
H1150 H 0.93242 0.97669 0.7912 0.0
H1151 H 0.9253 0.01833 0.79863 0.0
C1152 C 0.1239 0.57629 0.81389 0.0
C1153 C 0.15268 0.59192 0.82653 0.0
C1154 C 0.12212 0.54642 0.79624 0.0
C1155 C 0.14971 0.53129 0.79154 0.0
C1156 C 0.17889 0.54684 0.80433 0.0
C1157 C 0.18007 0.57716 0.82141 0.0
C1158 C 0.0906 0.53099 0.7827 0.0
C1159 C 0.20875 0.53121 0.80038 0.0
C1160 C 0.13744 0.4395 0.77679 0.0
C1161 C 0.14116 0.43587 0.74302 0.0
C1162 C 0.1409 0.47027 0.79283 0.0
C1163 C 0.14756 0.49845 0.77471 0.0
C1164 C 0.15088 0.49514 0.74056 0.0
C1165 C 0.14795 0.46389 0.72517 0.0
C1166 C 0.13756 0.47257 0.8293 0.0
C1167 C 0.15733 0.52463 0.72029 0.0
H1168 H 0.10262 0.58766 0.81737 0.0
H1169 H 0.20238 0.58912 0.83102 0.0
H1170 H 0.09175 0.52575 0.75612 0.0
H1171 H 0.08423 0.50746 0.7942 0.0
H1172 H 0.07166 0.54674 0.78692 0.0
H1173 H 0.22958 0.54661 0.81128 0.0
H1174 H 0.20667 0.5074 0.81212 0.0
H1175 H 0.21264 0.52642 0.77417 0.0
H1176 H 0.13244 0.41815 0.79103 0.0
H1177 H 0.15092 0.46143 0.69914 0.0
H1178 H 0.1174 0.48604 0.83525 0.0
H1179 H 0.15886 0.48635 0.84108 0.0
H1180 H 0.13389 0.44827 0.84006 0.0
H1181 H 0.13824 0.54046 0.7229 0.0
H1182 H 0.15927 0.51801 0.69405 0.0
H1183 H 0.17945 0.53918 0.72911 0.0
C1184 C 0.74501 0.85303 0.10502 0.0
C1185 C 0.71471 0.86185 0.09996 0.0
C1186 C 0.76705 0.85584 0.08031 0.0
C1187 C 0.75816 0.86622 0.0492 0.0
C1188 C 0.72758 0.87555 0.04421 0.0
C1189 C 0.70652 0.87401 0.0699 0.0
C1190 C 0.7997 0.84698 0.0873 0.0
C1191 C 0.71654 0.88553 1.01125 0.0
C1192 C 0.8169 0.88181 0.98082 0.0
C1193 C 0.8152 0.85072 0.96553 0.0
C1194 C 0.79937 0.88733 1.00885 0.0
C1195 C 0.77855 0.86159 0.02077 0.0
C1196 C 0.77679 0.83042 1.00529 0.0
C1197 C 0.79564 0.82525 0.97893 0.0
C1198 C 0.80292 0.92071 0.02539 0.0
C1199 C 0.75426 0.80234 1.01597 0.0
H1200 H 0.75172 0.84459 0.12861 0.0
H1201 H 0.68324 0.88134 0.06617 0.0
H1202 H 0.80253 0.82329 0.07487 0.0
H1203 H 0.81745 0.86546 0.07771 0.0
H1204 H 0.80462 0.84495 0.11379 0.0
H1205 H 0.69258 0.89325 1.01162 0.0
H1206 H 0.73287 0.90582 1.00265 0.0
H1207 H 0.71645 0.86483 0.99327 0.0
H1208 H 0.8318 0.90171 0.97101 0.0
H1209 H 0.79388 0.80085 0.96807 0.0
H1210 H 0.80373 0.91899 0.05229 0.0
H1211 H 0.78244 0.9335 1.01869 0.0
H1212 H 0.82447 0.93565 1.01803 0.0
H1213 H 0.76102 0.79564 0.04086 0.0
H1214 H 0.75376 0.7804 0.99947 0.0
H1215 H 0.73013 0.80953 1.01676 0.0
C1216 C 0.21171 0.65231 0.96086 0.0
C1217 C 0.18634 0.67055 0.96456 0.0
C1218 C 0.23277 0.64898 0.98712 0.0
C1219 C 0.22772 0.66336 1.01807 0.0
C1220 C 0.20048 0.67928 0.02251 0.0
C1221 C 0.18052 0.68334 0.99553 0.0
C1222 C 0.26189 0.63265 0.98092 0.0
C1223 C 0.19346 0.69388 0.05531 0.0
C1224 C 0.27483 0.63867 0.09142 0.0
C1225 C 0.29732 0.66579 0.09694 0.0
C1226 C 0.25186 0.63766 0.06616 0.0
C1227 C 0.25201 0.66393 0.04507 0.0
C1228 C 0.27524 0.69104 0.05 0.0
C1229 C 0.29723 0.69194 0.0763 0.0
C1230 C 0.22697 0.60885 0.06253 0.0
C1231 C 0.2769 0.71911 0.02745 0.0
H1232 H 0.21686 0.64339 0.93669 0.0
H1233 H 0.16133 0.69809 0.99825 0.0
H1234 H 0.28267 0.65125 0.98239 0.0
H1235 H 0.26549 0.6148 0.99973 0.0
H1236 H 0.26086 0.61997 0.95654 0.0
H1237 H 0.16926 0.70097 0.05582 0.0
H1238 H 0.19641 0.6764 0.07469 0.0
H1239 H 0.2102 0.71587 0.06115 0.0
H1240 H 0.27454 0.61856 0.10761 0.0
H1241 H 0.3146 0.7129 0.08046 0.0
H1242 H 0.22757 0.59688 0.038 0.0
H1243 H 0.20342 0.61721 0.06477 0.0
H1244 H 0.22994 0.59053 0.08112 0.0
H1245 H 0.278 0.70999 1.00181 0.0
H1246 H 0.2976 0.73723 0.0332 0.0
H1247 H 0.2554 0.73157 0.02923 0.0
C1248 C 0.68097 0.18529 0.49731 0.0
C1249 C 0.6868 0.17317 0.46608 0.0
C1250 C 0.70059 0.18011 0.52422 0.0
C1251 C 0.72751 0.16375 0.51948 0.0
C1252 C 0.73258 0.15011 0.4882 0.0
C1253 C 0.71185 0.15457 0.46198 0.0
C1254 C 0.69358 0.194 0.55733 0.0
C1255 C 0.76139 0.13336 0.4817 0.0
C1256 C 0.79677 0.1901 0.57864 0.0
C1257 C 0.79625 0.16352 0.5988 0.0
C1258 C 0.77512 0.19002 0.55216 0.0
C1259 C 0.7516 0.16328 0.54652 0.0
C1260 C 0.7509 0.13651 0.56702 0.0
C1261 C 0.77355 0.13671 0.59251 0.0
C1262 C 0.77738 0.21861 0.53025 0.0
C1263 C 0.7257 0.10805 0.56259 0.0
H1264 H 0.66202 0.2003 0.50035 0.0
H1265 H 0.71699 0.14616 0.43763 0.0
H1266 H 0.69605 0.1759 0.57622 0.0
H1267 H 0.71064 0.21558 0.56383 0.0
H1268 H 0.66956 0.20155 0.55793 0.0
H1269 H 0.76027 0.12124 0.45705 0.0
H1270 H 0.78243 0.1516 0.48366 0.0
H1271 H 0.76456 0.11496 0.50007 0.0
H1272 H 0.81431 0.21081 0.58339 0.0
H1273 H 0.7728 0.11626 0.60831 0.0
H1274 H 0.75614 0.23144 0.53228 0.0
H1275 H 0.77846 0.21001 0.50445 0.0
H1276 H 0.79833 0.23628 0.53645 0.0
H1277 H 0.70229 0.11667 0.56515 0.0
H1278 H 0.7284 0.08911 0.5806 0.0
H1279 H 0.72617 0.09676 0.53774 0.0
C1280 C 0.21537 0.33218 0.57592 0.0
C1281 C 0.21048 0.35966 0.59523 0.0
C1282 C 0.23626 0.33461 0.55001 0.0
C1283 C 0.25351 0.36501 0.54399 0.0
C1284 C 0.24891 0.39266 0.56377 0.0
C1285 C 0.22719 0.38975 0.58869 0.0
C1286 C 0.2398 0.30467 0.52896 0.0
C1287 C 0.26736 0.42528 0.55899 0.0
C1288 C 0.32759 0.35981 0.49571 0.0
C1289 C 0.31756 0.36738 0.46442 0.0
C1290 C 0.30759 0.3607 0.52221 0.0
C1291 C 0.27632 0.36791 0.51701 0.0
C1292 C 0.26653 0.37675 0.48562 0.0
C1293 C 0.2874 0.37676 0.45986 0.0
C1294 C 0.31946 0.35224 0.55542 0.0
C1295 C 0.23328 0.3838 0.47861 0.0
H1296 H 0.2026 0.30888 0.58082 0.0
H1297 H 0.22395 0.41109 0.60377 0.0
H1298 H 0.23517 0.3095 0.50297 0.0
H1299 H 0.26422 0.29844 0.53126 0.0
H1300 H 0.2236 0.28331 0.53566 0.0
H1301 H 0.2616 0.44428 0.57692 0.0
H1302 H 0.29286 0.42309 0.56132 0.0
H1303 H 0.26262 0.43346 0.53412 0.0
H1304 H 0.35053 0.35156 0.49909 0.0
H1305 H 0.27918 0.38137 0.43543 0.0
H1306 H 0.3078 0.32816 0.56182 0.0
H1307 H 0.31363 0.37034 0.57422 0.0
H1308 H 0.34523 0.35127 0.55633 0.0
H1309 H 0.21699 0.36141 0.48155 0.0
H1310 H 0.22988 0.3922 0.45352 0.0
H1311 H 0.22665 0.4026 0.49619 0.0
C1312 C 0.05651 0.72811 0.87282 0.0
C1313 C 0.08185 0.74154 0.89322 0.0
C1314 C 0.02734 0.7405 0.87364 0.0
C1315 C 0.02316 0.76663 0.89576 0.0
C1316 C 0.04841 0.77981 0.91693 0.0
C1317 C 0.07748 0.76731 0.91522 0.0
C1318 C 1.00112 0.72599 0.8504 0.0
C1319 C 0.04476 0.80723 0.94129 0.0
C1320 C 0.95642 0.81708 0.87628 0.0
C1321 C 0.93221 0.80208 0.89453 0.0
C1322 C 0.98633 0.80618 0.87688 0.0
C1323 C 0.99233 0.78007 0.89666 0.0
C1324 C 0.96839 0.76589 0.91627 0.0
C1325 C 0.93858 0.77683 0.91472 0.0
C1326 C 0.01111 0.8217 0.85531 0.0
C1327 C 0.97397 0.7385 0.93822 0.0
H1328 H 0.05969 0.70841 0.85555 0.0
H1329 H 0.09685 0.7778 0.93118 0.0
H1330 H 0.98055 0.71638 0.86422 0.0
H1331 H 0.99346 0.7451 0.83473 0.0
H1332 H 1.0082 0.70596 0.83451 0.0
H1333 H 0.06634 0.81406 0.95676 0.0
H1334 H 0.03899 0.82897 0.92838 0.0
H1335 H 0.02502 0.80012 0.9573 0.0
H1336 H 0.95162 0.83638 0.8604 0.0
H1337 H 0.92005 0.76523 0.92905 0.0
H1338 H 0.01728 0.8034 0.83689 0.0
H1339 H 0.0328 0.83027 0.86993 0.0
H1340 H 1.00319 0.84262 0.84242 0.0
H1341 H 0.97823 0.71667 0.92327 0.0
H1342 H 0.95376 0.73187 0.95382 0.0
H1343 H 0.9952 0.74542 0.95413 0.0
C1344 C 0.06846 0.29752 0.62614 0.0
C1345 C 0.06682 0.32012 0.65221 0.0
C1346 C 0.04312 0.27346 0.61807 0.0
C1347 C 0.01571 0.27194 0.63664 0.0
C1348 C 0.01282 0.29705 0.6604 0.0
C1349 C 0.03828 0.32078 0.66778 0.0
C1350 C 0.04699 0.24795 0.59182 0.0
C1351 C 0.98407 0.29693 0.68063 0.0
C1352 C 0.93862 0.21677 0.62672 0.0
C1353 C 0.94245 0.19524 0.65177 0.0
C1354 C 0.96352 0.24001 0.61861 0.0
C1355 C 0.99271 0.24178 0.63612 0.0
C1356 C 0.99759 0.21736 0.65841 0.0
C1357 C 0.97249 0.19442 0.66585 0.0
C1358 C 0.95745 0.2647 0.59383 0.0
C1359 C 0.02823 0.21779 0.67749 0.0
H1360 H 0.09051 0.29657 0.61416 0.0
H1361 H 0.03685 0.33817 0.68793 0.0
H1362 H 0.05519 0.22634 0.60311 0.0
H1363 H 0.02439 0.24002 0.5785 0.0
H1364 H 0.06462 0.25707 0.57415 0.0
H1365 H 0.98392 0.31991 0.69546 0.0
H1366 H 0.96254 0.29331 0.66473 0.0
H1367 H 0.98319 0.27642 0.69735 0.0
H1368 H 0.91541 0.21787 0.61592 0.0
H1369 H 0.97555 0.17791 0.68529 0.0
H1370 H 0.97877 0.27187 0.58003 0.0
H1371 H 0.95071 0.28688 0.60652 0.0
H1372 H 0.93799 0.25518 0.57641 0.0
H1373 H 0.04826 0.22106 0.6611 0.0
H1374 H 0.02961 0.19507 0.69076 0.0
H1375 H 0.03077 0.23862 0.69555 0.0
C1376 C 0.55645 0.2329 0.3789 0.0
C1377 C 0.5827 0.2468 0.39776 0.0
C1378 C 0.52761 0.24592 0.38027 0.0
C1379 C 0.52475 0.27328 0.4013 0.0
C1380 C 0.5509 0.28692 0.42099 0.0
C1381 C 0.57955 0.27367 0.41885 0.0
C1382 C 0.50033 0.23079 0.35871 0.0
C1383 C 0.5487 0.31575 0.44409 0.0
C1384 C 0.45874 0.32426 0.38075 0.0
C1385 C 0.43491 0.31112 0.40061 0.0
C1386 C 0.48834 0.31268 0.38124 0.0
C1387 C 0.49442 0.2877 0.40242 0.0
C1388 C 0.47099 0.27552 0.42367 0.0
C1389 C 0.44151 0.28719 0.42235 0.0
C1390 C 0.51262 0.32618 0.35806 0.0
C1391 C 0.47669 0.24932 0.44703 0.0
H1392 H 0.55863 0.21231 0.36238 0.0
H1393 H 0.5996 0.28456 0.43365 0.0
H1394 H 0.4801 0.22279 0.37376 0.0
H1395 H 0.49265 0.24911 0.34208 0.0
H1396 H 0.50629 0.20952 0.34383 0.0
H1397 H 0.57083 0.32276 0.45862 0.0
H1398 H 0.54309 0.33695 0.43019 0.0
H1399 H 0.52939 0.31016 0.46104 0.0
H1400 H 0.45382 0.34253 0.36368 0.0
H1401 H 0.42331 0.27699 0.43791 0.0
H1402 H 0.51759 0.30668 0.34034 0.0
H1403 H 0.53496 0.33478 0.37155 0.0
H1404 H 0.50486 0.34666 0.34435 0.0
H1405 H 0.47975 0.22645 0.43315 0.0
H1406 H 0.45702 0.24434 0.46373 0.0
H1407 H 0.4986 0.25645 0.46182 0.0
C1408 C 0.60356 0.54223 0.69424 0.0
C1409 C 0.62822 0.55511 0.67525 0.0
C1410 C 0.6064 0.51514 0.71335 0.0
C1411 C 0.63479 0.50063 0.71388 0.0
C1412 C 0.65857 0.51155 0.69229 0.0
C1413 C 0.65493 0.53857 0.67311 0.0
C1414 C 0.58016 0.50421 0.73544 0.0
C1415 C 0.68919 0.49689 0.69183 0.0
C1416 C 0.65908 0.46861 0.79584 0.0
C1417 C 0.65164 0.43487 0.79105 0.0
C1418 C 0.65409 0.49 0.77082 0.0
C1419 C 0.64115 0.47757 0.74008 0.0
C1420 C 0.63359 0.44351 0.73505 0.0
C1421 C 0.63899 0.42261 0.7605 0.0
C1422 C 0.66269 0.52606 0.77732 0.0
C1423 C 0.6196 0.42917 0.70287 0.0
H1424 H 0.58306 0.55519 0.69641 0.0
H1425 H 0.67441 0.5488 0.65917 0.0
H1426 H 0.57572 0.47728 0.73495 0.0
H1427 H 0.58699 0.51262 0.76088 0.0
H1428 H 0.55803 0.5142 0.7285 0.0
H1429 H 0.70286 0.50397 0.6702 0.0
H1430 H 0.70354 0.50544 0.71406 0.0
H1431 H 0.68511 0.46997 0.69199 0.0
H1432 H 0.66896 0.4784 0.81921 0.0
H1433 H 0.63315 0.39659 0.75646 0.0
H1434 H 0.64153 0.53899 0.77457 0.0
H1435 H 0.67959 0.53566 0.7592 0.0
H1436 H 0.6733 0.53187 0.80214 0.0
H1437 H 0.59689 0.43871 0.69767 0.0
H1438 H 0.61559 0.40218 0.70253 0.0
H1439 H 0.63532 0.43658 0.6829 0.0
C1440 C 0.4282 0.08935 0.78249 0.0
C1441 C 0.40526 0.08862 0.80626 0.0
C1442 C 0.43353 0.06123 0.76431 0.0
C1443 C 0.41573 0.03131 0.77008 0.0
C1444 C 0.39412 0.02985 0.79564 0.0
C1445 C 0.38909 0.05855 0.81342 0.0
C1446 C 0.45691 0.06402 0.73757 0.0
C1447 C 0.37508 0.99825 0.80301 0.0
C1448 C 0.39986 0.965 0.7025 0.0
C1449 C 0.42014 0.94251 0.71212 0.0
C1450 C 0.39903 0.99461 0.72042 0.0
C1451 C 0.41888 1.00187 0.74863 0.0
C1452 C 0.44105 0.9804 0.75685 0.0
C1453 C 0.44154 0.9512 0.73843 0.0
C1454 C 0.37547 0.01718 0.71037 0.0
C1455 C 0.4628 0.9871 0.78651 0.0
H1456 H 0.44087 0.11247 0.77679 0.0
H1457 H 0.37106 0.05777 0.83136 0.0
H1458 H 0.47336 0.0453 0.73974 0.0
H1459 H 0.44433 0.05963 0.71354 0.0
H1460 H 0.47073 0.08838 0.73795 0.0
H1461 H 0.36116 1.00054 0.82515 0.0
H1462 H 0.35877 0.99021 0.78207 0.0
H1463 H 0.39069 0.97891 0.80648 0.0
H1464 H 0.38291 0.95837 0.68261 0.0
H1465 H 0.45724 0.93394 0.74615 0.0
H1466 H 0.3871 0.04237 0.70893 0.0
H1467 H 0.35734 0.01766 0.729 0.0
H1468 H 0.36365 1.00954 0.68645 0.0
H1469 H 0.47495 1.01219 0.78663 0.0
H1470 H 0.48071 0.96973 0.78775 0.0
H1471 H 0.44892 0.98516 0.80882 0.0
C1472 C 0.47313 0.23184 0.84885 0.0
C1473 C 0.44187 0.23423 0.8559 0.0
C1474 C 0.49648 0.25738 0.85764 0.0
C1475 C 0.4881 0.28642 0.8728 0.0
C1476 C 0.45636 0.2889 0.87984 0.0
C1477 C 0.43359 0.26255 0.87153 0.0
C1478 C 0.53009 0.25341 0.85023 0.0
C1479 C 0.44634 0.31965 0.89508 0.0
C1480 C 0.55957 0.33148 0.91536 0.0
C1481 C 0.57302 0.34847 0.88944 0.0
C1482 C 0.52987 0.31369 0.91164 0.0
C1483 C 0.51308 0.31358 0.88147 0.0
C1484 C 0.52439 0.33502 0.85729 0.0
C1485 C 0.55448 0.35226 0.86152 0.0
C1486 C 0.51878 0.29141 0.9382 0.0
C1487 C 0.50662 0.33659 0.82527 0.0
H1488 H 0.47923 0.21003 0.83629 0.0
H1489 H 0.40911 0.26449 0.87614 0.0
H1490 H 0.53866 0.27145 0.83235 0.0
H1491 H 0.54524 0.2581 0.87265 0.0
H1492 H 0.53283 0.22868 0.84007 0.0
H1493 H 0.42128 0.31664 0.90157 0.0
H1494 H 0.46094 0.32747 0.91731 0.0
H1495 H 0.44987 0.33952 0.87772 0.0
H1496 H 0.57395 0.32864 0.93703 0.0
H1497 H 0.56482 0.36528 0.84138 0.0
H1498 H 0.52361 0.26627 0.93149 0.0
H1499 H 0.49316 0.29092 0.94117 0.0
H1500 H 0.53105 0.29882 0.96196 0.0
H1501 H 0.5107 0.31542 0.80922 0.0
H1502 H 0.51448 0.35915 0.81259 0.0
H1503 H 0.48102 0.33547 0.8289 0.0
C1504 C 0.35067 0.59281 0.27181 0.0
C1505 C 0.37077 0.59551 0.24557 0.0
C1506 C 0.3456 0.56387 0.28864 0.0
C1507 C 0.36048 0.5365 0.2786 0.0
C1508 C 0.37999 0.53873 0.25128 0.0
C1509 C 0.38486 0.56824 0.23501 0.0
C1510 C 0.32462 0.5628 0.3175 0.0
C1511 C 0.39606 0.51008 0.23954 0.0
C1512 C 0.3755 0.47393 0.3413 0.0
C1513 C 0.35136 0.44874 0.33381 0.0
C1514 C 0.37839 0.50261 0.32386 0.0
C1515 C 0.35689 0.50625 0.29779 0.0
C1516 C 0.332 0.48121 0.2905 0.0
C1517 C 0.3294 0.45284 0.30874 0.0
C1518 C 0.40487 0.52884 0.33303 0.0
C1519 C 0.30867 0.48397 0.2628 0.0
H1520 H 0.33843 0.6133 0.27894 0.0
H1521 H 0.39991 0.57011 0.21431 0.0
H1522 H 0.30521 0.54285 0.31366 0.0
H1523 H 0.33818 0.55762 0.33976 0.0
H1524 H 0.31439 0.58602 0.32186 0.0
H1525 H 0.40908 0.5151 0.217 0.0
H1526 H 0.4128 0.50374 0.25875 0.0
H1527 H 0.37854 0.4885 0.23472 0.0
H1528 H 0.39259 0.47101 0.36064 0.0
H1529 H 0.31094 0.43334 0.3025 0.0
H1530 H 0.39537 0.5522 0.33862 0.0
H1531 H 0.42052 0.53271 0.31222 0.0
H1532 H 0.41911 0.52269 0.35449 0.0
H1533 H 0.29723 0.50654 0.26617 0.0
H1534 H 0.29023 0.46286 0.26073 0.0
H1535 H 0.32104 0.48564 0.23951 0.0
C1536 C 0.62256 0.08236 0.31355 0.0
C1537 C 0.65135 0.09724 0.32691 0.0
C1538 C 0.62058 0.05283 0.29528 0.0
C1539 C 0.64795 0.03728 0.29072 0.0
C1540 C 0.67715 0.05216 0.3041 0.0
C1541 C 0.67856 0.08217 0.32176 0.0
C1542 C 0.58906 0.03811 0.28111 0.0
C1543 C 0.70676 0.03605 0.30035 0.0
C1544 C 0.63495 0.94555 0.27638 0.0
C1545 C 0.63947 0.9416 0.24277 0.0
C1546 C 0.63821 0.9764 0.29218 0.0
C1547 C 0.64546 1.00439 0.27397 0.0
C1548 C 0.64935 1.00083 0.23992 0.0
C1549 C 0.64664 0.96946 0.22477 0.0
C1550 C 0.63424 0.97895 0.32856 0.0
C1551 C 0.65641 0.03016 0.21956 0.0
H1552 H 0.60145 0.09403 0.31701 0.0
H1553 H 0.70087 0.09359 0.33191 0.0
H1554 H 0.59062 0.03274 0.25459 0.0
H1555 H 0.58192 0.01472 0.29257 0.0
H1556 H 0.57046 0.05437 0.28486 0.0
H1557 H 0.72772 0.05117 0.31133 0.0
H1558 H 0.70427 1.01227 0.31217 0.0
H1559 H 0.71073 0.03109 0.27419 0.0
H1560 H 0.62958 0.92437 0.29076 0.0
H1561 H 0.65024 0.96677 0.19887 0.0
H1562 H 0.61429 0.99291 0.33403 0.0
H1563 H 0.65556 0.99235 0.34066 0.0
H1564 H 0.62988 0.95475 0.33939 0.0
H1565 H 0.63771 0.04646 0.22209 0.0
H1566 H 0.65827 0.02337 0.19334 0.0
H1567 H 0.67876 0.04425 0.22836 0.0
C1568 C 0.57257 0.79874 0.12764 0.0
C1569 C 0.57006 0.82147 0.15341 0.0
C1570 C 0.54761 0.77436 0.1191 0.0
C1571 C 0.51971 0.77261 0.1369 0.0
C1572 C 0.51609 0.79766 0.16049 0.0
C1573 C 0.54114 0.82172 0.16831 0.0
C1574 C 0.55231 0.74891 0.09307 0.0
C1575 C 0.48683 0.79729 0.17993 0.0
C1576 C 0.44242 0.71817 0.12471 0.0
C1577 C 0.4453 0.69657 0.14988 0.0
C1578 C 0.46783 0.7411 0.11723 0.0
C1579 C 0.49658 0.7425 0.13551 0.0
C1580 C 0.5006 0.7179 0.15787 0.0
C1581 C 0.47502 0.69524 0.16463 0.0
C1582 C 0.46271 0.76595 0.09231 0.0
C1583 C 0.53075 0.71792 0.17776 0.0
H1584 H 0.5949 0.79809 0.11617 0.0
H1585 H 0.539 0.83922 0.18819 0.0
H1586 H 0.56047 0.72742 0.10463 0.0
H1587 H 0.53006 0.74074 0.07921 0.0
H1588 H 0.57029 0.75819 0.07582 0.0
H1589 H 0.4862 0.82017 0.19479 0.0
H1590 H 0.46576 0.79366 0.16339 0.0
H1591 H 0.48558 0.77667 0.19653 0.0
H1592 H 0.41951 0.71965 0.11334 0.0
H1593 H 0.47741 0.67862 0.18411 0.0
H1594 H 0.48444 0.77282 0.07906 0.0
H1595 H 0.45601 0.78825 0.1048 0.0
H1596 H 0.44355 0.75673 0.07443 0.0
H1597 H 0.55126 0.72124 0.16199 0.0
H1598 H 0.53161 0.69504 0.19088 0.0
H1599 H 0.53296 0.73857 0.19602 0.0
loop_
_geom_bond_atom_site_label_1
_geom_bond_atom_site_label_2
_geom_bond_distance
_geom_bond_site_symmetry_2
_ccdc_geom_bond_type
Mn0 O5 2.095 . S
Mn0 O15 2.162 . S
Mn0 O16 2.297 . S
Mn0 O24 2.385 . S
Mn0 O25 2.209 . S
Mn0 O26 2.094 . S
Mn1 O6 2.121 . S
Mn1 N8 2.257 . S
Mn1 N17 2.282 . S
Mn1 O25 2.215 . S
Mn1 O27 2.117 . S
C2 O24 1.234 . S
C2 O25 1.283 . S
C3 O15 1.281 . S
C3 O16 1.236 . S
C4 O26 1.240 . S
C4 O27 1.264 . S
O5 Mn0 2.095 . S
O5 C14 1.250 . S
O6 Mn1 2.121 . S
O6 C14 1.258 . S
C7 N8 1.326 . S
C7 C11 1.460 . S
C7 H13 0.929 . S
N8 Mn1 2.257 . S
N8 C7 1.326 . S
N8 C12 1.362 . S
C9 C10 1.258 . S
C9 C12 1.431 . S
C9 C29 1.449 . S
C10 C9 1.258 . S
C10 C11 1.477 . S
C10 H30 0.931 . S
C11 C7 1.460 . S
C11 C10 1.477 . S
C11 H31 0.930 . S
C12 N8 1.362 . S
C12 C9 1.431 . S
C12 C22 1.476 . S
H13 C7 0.929 . S
C14 O5 1.250 . S
C14 O6 1.258 . S
O15 Mn0 2.162 . S
O15 C3 1.281 . S
O16 Mn0 2.297 . S
O16 C3 1.236 . S
N17 Mn1 2.282 . S
N17 C18 1.328 . S
N17 C22 1.318 . S
C18 N17 1.328 . S
C18 C19 1.457 . S
C18 H23 0.929 . S
C19 C18 1.457 . S
C19 C20 1.291 . S
C19 H32 0.931 . S
C20 C19 1.291 . S
C20 C21 1.373 . S
C20 H33 0.929 . S
C21 C20 1.373 . S
C21 C22 1.396 . S
C21 C28 1.403 . S
C22 C12 1.476 . S
C22 N17 1.318 . S
C22 C21 1.396 . S
H23 C18 0.929 . S
O24 Mn0 2.385 . S
O24 C2 1.234 . S
O25 Mn0 2.209 . S
O25 Mn1 2.215 . S
O25 C2 1.283 . S
O26 Mn0 2.094 . S
O26 C4 1.240 . S
O27 Mn1 2.117 . S
O27 C4 1.264 . S
C28 C21 1.403 . S
C28 C29 1.399 . S
C28 H34 0.929 . S
C29 C9 1.449 . S
C29 C28 1.399 . S
C29 H35 0.930 . S
H30 C10 0.931 . S
H31 C11 0.930 . S
H32 C19 0.931 . S
H33 C20 0.929 . S
H34 C28 0.929 . S
H35 C29 0.930 . S
Mn36 O41 2.095 . S
Mn36 O51 2.162 . S
Mn36 O52 2.297 . S
Mn36 O60 2.385 . S
Mn36 O61 2.209 . S
Mn36 O62 2.094 . S
Mn37 O42 2.121 . S
Mn37 N44 2.257 . S
Mn37 N53 2.282 . S
Mn37 O61 2.215 . S
Mn37 O63 2.117 . S
C38 O60 1.234 . S
C38 O61 1.283 . S
C39 O51 1.281 . S
C39 O52 1.236 . S
C40 O62 1.240 . S
C40 O63 1.264 . S
O41 Mn36 2.095 . S
O41 C50 1.250 . S
O42 Mn37 2.121 . S
O42 C50 1.258 . S
C43 N44 1.326 . S
C43 C47 1.460 . S
C43 H49 0.929 . S
N44 Mn37 2.257 . S
N44 C43 1.326 . S
N44 C48 1.362 . S
C45 C46 1.258 . S
C45 C48 1.431 . S
C45 C65 1.449 . S
C46 C45 1.258 . S
C46 C47 1.477 . S
C46 H66 0.931 . S
C47 C43 1.460 . S
C47 C46 1.477 . S
C47 H67 0.930 . S
C48 N44 1.362 . S
C48 C45 1.431 . S
C48 C58 1.476 . S
H49 C43 0.929 . S
C50 O41 1.250 . S
C50 O42 1.258 . S
O51 Mn36 2.162 . S
O51 C39 1.281 . S
O52 Mn36 2.297 . S
O52 C39 1.236 . S
N53 Mn37 2.282 . S
N53 C54 1.328 . S
N53 C58 1.318 . S
C54 N53 1.328 . S
C54 C55 1.457 . S
C54 H59 0.929 . S
C55 C54 1.457 . S
C55 C56 1.291 . S
C55 H68 0.931 . S
C56 C55 1.291 . S
C56 C57 1.373 . S
C56 H69 0.929 . S
C57 C56 1.373 . S
C57 C58 1.396 . S
C57 C64 1.403 . S
C58 C48 1.476 . S
C58 N53 1.318 . S
C58 C57 1.396 . S
H59 C54 0.929 . S
O60 Mn36 2.385 . S
O60 C38 1.234 . S
O61 Mn36 2.209 . S
O61 Mn37 2.215 . S
O61 C38 1.283 . S
O62 Mn36 2.094 . S
O62 C40 1.240 . S
O63 Mn37 2.117 . S
O63 C40 1.264 . S
C64 C57 1.403 . S
C64 C65 1.399 . S
C64 H70 0.929 . S
C65 C45 1.449 . S
C65 C64 1.399 . S
C65 H71 0.930 . S
H66 C46 0.931 . S
H67 C47 0.930 . S
H68 C55 0.931 . S
H69 C56 0.929 . S
H70 C64 0.929 . S
H71 C65 0.930 . S
Mn72 O77 2.095 . S
Mn72 O87 2.162 . S
Mn72 O88 2.297 . S
Mn72 O96 2.385 . S
Mn72 O97 2.209 . S
Mn72 O98 2.094 . S
Mn73 O78 2.121 . S
Mn73 N80 2.257 . S
Mn73 N89 2.282 . S
Mn73 O97 2.215 . S
Mn73 O99 2.117 . S
C74 O96 1.234 . S
C74 O97 1.283 . S
C75 O87 1.281 . S
C75 O88 1.236 . S
C76 O98 1.240 . S
C76 O99 1.264 . S
O77 Mn72 2.095 . S
O77 C86 1.250 . S
O78 Mn73 2.121 . S
O78 C86 1.258 . S
C79 N80 1.326 . S
C79 C83 1.460 . S
C79 H85 0.929 . S
N80 Mn73 2.257 . S
N80 C79 1.326 . S
N80 C84 1.362 . S
C81 C82 1.258 . S
C81 C84 1.431 . S
C81 C101 1.449 . S
C82 C81 1.258 . S
C82 C83 1.477 . S
C82 H102 0.931 . S
C83 C79 1.460 . S
C83 C82 1.477 . S
C83 H103 0.930 . S
C84 N80 1.362 . S
C84 C81 1.431 . S
C84 C94 1.476 . S
H85 C79 0.929 . S
C86 O77 1.250 . S
C86 O78 1.258 . S
O87 Mn72 2.162 . S
O87 C75 1.281 . S
O88 Mn72 2.297 . S
O88 C75 1.236 . S
N89 Mn73 2.282 . S
N89 C90 1.328 . S
N89 C94 1.318 . S
C90 N89 1.328 . S
C90 C91 1.457 . S
C90 H95 0.929 . S
C91 C90 1.457 . S
C91 C92 1.291 . S
C91 H104 0.931 . S
C92 C91 1.291 . S
C92 C93 1.373 . S
C92 H105 0.929 . S
C93 C92 1.373 . S
C93 C94 1.396 . S
C93 C100 1.403 . S
C94 C84 1.476 . S
C94 N89 1.318 . S
C94 C93 1.396 . S
H95 C90 0.929 . S
O96 Mn72 2.385 . S
O96 C74 1.234 . S
O97 Mn72 2.209 . S
O97 Mn73 2.215 . S
O97 C74 1.283 . S
O98 Mn72 2.094 . S
O98 C76 1.240 . S
O99 Mn73 2.117 . S
O99 C76 1.264 . S
C100 C93 1.403 . S
C100 C101 1.399 . S
C100 H106 0.929 . S
C101 C81 1.449 . S
C101 C100 1.399 . S
C101 H107 0.930 . S
H102 C82 0.931 . S
H103 C83 0.930 . S
H104 C91 0.931 . S
H105 C92 0.929 . S
H106 C100 0.929 . S
H107 C101 0.930 . S
Mn108 O113 2.095 . S
Mn108 O123 2.162 . S
Mn108 O124 2.297 . S
Mn108 O132 2.385 . S
Mn108 O133 2.209 . S
Mn108 O134 2.094 . S
Mn109 O114 2.121 . S
Mn109 N116 2.257 . S
Mn109 N125 2.282 . S
Mn109 O133 2.215 . S
Mn109 O135 2.117 . S
C110 O132 1.234 . S
C110 O133 1.283 . S
C111 O123 1.281 . S
C111 O124 1.236 . S
C112 O134 1.240 . S
C112 O135 1.264 . S
O113 Mn108 2.095 . S
O113 C122 1.250 . S
O114 Mn109 2.121 . S
O114 C122 1.258 . S
C115 N116 1.326 . S
C115 C119 1.460 . S
C115 H121 0.929 . S
N116 Mn109 2.257 . S
N116 C115 1.326 . S
N116 C120 1.362 . S
C117 C118 1.258 . S
C117 C120 1.431 . S
C117 C137 1.449 . S
C118 C117 1.258 . S
C118 C119 1.477 . S
C118 H138 0.931 . S
C119 C115 1.460 . S
C119 C118 1.477 . S
C119 H139 0.930 . S
C120 N116 1.362 . S
C120 C117 1.431 . S
C120 C130 1.476 . S
H121 C115 0.929 . S
C122 O113 1.250 . S
C122 O114 1.258 . S
O123 Mn108 2.162 . S
O123 C111 1.281 . S
O124 Mn108 2.297 . S
O124 C111 1.236 . S
N125 Mn109 2.282 . S
N125 C126 1.328 . S
N125 C130 1.318 . S
C126 N125 1.328 . S
C126 C127 1.457 . S
C126 H131 0.929 . S
C127 C126 1.457 . S
C127 C128 1.291 . S
C127 H140 0.931 . S
C128 C127 1.291 . S
C128 C129 1.373 . S
C128 H141 0.929 . S
C129 C128 1.373 . S
C129 C130 1.396 . S
C129 C136 1.403 . S
C130 C120 1.476 . S
C130 N125 1.318 . S
C130 C129 1.396 . S
H131 C126 0.929 . S
O132 Mn108 2.385 . S
O132 C110 1.234 . S
O133 Mn108 2.209 . S
O133 Mn109 2.215 . S
O133 C110 1.283 . S
O134 Mn108 2.094 . S
O134 C112 1.240 . S
O135 Mn109 2.117 . S
O135 C112 1.264 . S
C136 C129 1.403 . S
C136 C137 1.399 . S
C136 H142 0.929 . S
C137 C117 1.449 . S
C137 C136 1.399 . S
C137 H143 0.930 . S
H138 C118 0.931 . S
H139 C119 0.930 . S
H140 C127 0.931 . S
H141 C128 0.929 . S
H142 C136 0.929 . S
H143 C137 0.930 . S
Mn144 O149 2.095 . S
Mn144 O159 2.162 . S
Mn144 O160 2.297 . S
Mn144 O168 2.385 . S
Mn144 O169 2.209 . S
Mn144 O170 2.094 . S
Mn145 O150 2.121 . S
Mn145 N152 2.257 . S
Mn145 N161 2.282 . S
Mn145 O169 2.215 . S
Mn145 O171 2.117 . S
C146 O168 1.234 . S
C146 O169 1.283 . S
C147 O159 1.281 . S
C147 O160 1.236 . S
C148 O170 1.240 . S
C148 O171 1.264 . S
O149 Mn144 2.095 . S
O149 C158 1.250 . S
O150 Mn145 2.121 . S
O150 C158 1.258 . S
C151 N152 1.326 . S
C151 C155 1.460 . S
C151 H157 0.929 . S
N152 Mn145 2.257 . S
N152 C151 1.326 . S
N152 C156 1.362 . S
C153 C154 1.258 . S
C153 C156 1.431 . S
C153 C173 1.449 . S
C154 C153 1.258 . S
C154 C155 1.477 . S
C154 H174 0.931 . S
C155 C151 1.460 . S
C155 C154 1.477 . S
C155 H175 0.930 . S
C156 N152 1.362 . S
C156 C153 1.431 . S
C156 C166 1.476 . S
H157 C151 0.929 . S
C158 O149 1.250 . S
C158 O150 1.258 . S
O159 Mn144 2.162 . S
O159 C147 1.281 . S
O160 Mn144 2.297 . S
O160 C147 1.236 . S
N161 Mn145 2.282 . S
N161 C162 1.328 . S
N161 C166 1.318 . S
C162 N161 1.328 . S
C162 C163 1.457 . S
C162 H167 0.929 . S
C163 C162 1.457 . S
C163 C164 1.291 . S
C163 H176 0.931 . S
C164 C163 1.291 . S
C164 C165 1.373 . S
C164 H177 0.929 . S
C165 C164 1.373 . S
C165 C166 1.396 . S
C165 C172 1.403 . S
C166 C156 1.476 . S
C166 N161 1.318 . S
C166 C165 1.396 . S
H167 C162 0.929 . S
O168 Mn144 2.385 . S
O168 C146 1.234 . S
O169 Mn144 2.209 . S
O169 Mn145 2.215 . S
O169 C146 1.283 . S
O170 Mn144 2.094 . S
O170 C148 1.240 . S
O171 Mn145 2.117 . S
O171 C148 1.264 . S
C172 C165 1.403 . S
C172 C173 1.399 . S
C172 H178 0.929 . S
C173 C153 1.449 . S
C173 C172 1.399 . S
C173 H179 0.930 . S
H174 C154 0.931 . S
H175 C155 0.930 . S
H176 C163 0.931 . S
H177 C164 0.929 . S
H178 C172 0.929 . S
H179 C173 0.930 . S
Mn180 O185 2.095 . S
Mn180 O195 2.162 . S
Mn180 O196 2.297 . S
Mn180 O204 2.385 . S
Mn180 O205 2.209 . S
Mn180 O206 2.094 . S
Mn181 O186 2.121 . S
Mn181 N188 2.257 . S
Mn181 N197 2.282 . S
Mn181 O205 2.215 . S
Mn181 O207 2.117 . S
C182 O204 1.234 . S
C182 O205 1.283 . S
C183 O195 1.281 . S
C183 O196 1.236 . S
C184 O206 1.240 . S
C184 O207 1.264 . S
O185 Mn180 2.095 . S
O185 C194 1.250 . S
O186 Mn181 2.121 . S
O186 C194 1.258 . S
C187 N188 1.326 . S
C187 C191 1.460 . S
C187 H193 0.929 . S
N188 Mn181 2.257 . S
N188 C187 1.326 . S
N188 C192 1.362 . S
C189 C190 1.258 . S
C189 C192 1.431 . S
C189 C209 1.449 . S
C190 C189 1.258 . S
C190 C191 1.477 . S
C190 H210 0.931 . S
C191 C187 1.460 . S
C191 C190 1.477 . S
C191 H211 0.930 . S
C192 N188 1.362 . S
C192 C189 1.431 . S
C192 C202 1.476 . S
H193 C187 0.929 . S
C194 O185 1.250 . S
C194 O186 1.258 . S
O195 Mn180 2.162 . S
O195 C183 1.281 . S
O196 Mn180 2.297 . S
O196 C183 1.236 . S
N197 Mn181 2.282 . S
N197 C198 1.328 . S
N197 C202 1.318 . S
C198 N197 1.328 . S
C198 C199 1.457 . S
C198 H203 0.929 . S
C199 C198 1.457 . S
C199 C200 1.291 . S
C199 H212 0.931 . S
C200 C199 1.291 . S
C200 C201 1.373 . S
C200 H213 0.929 . S
C201 C200 1.373 . S
C201 C202 1.396 . S
C201 C208 1.403 . S
C202 C192 1.476 . S
C202 N197 1.318 . S
C202 C201 1.396 . S
H203 C198 0.929 . S
O204 Mn180 2.385 . S
O204 C182 1.234 . S
O205 Mn180 2.209 . S
O205 Mn181 2.215 . S
O205 C182 1.283 . S
O206 Mn180 2.094 . S
O206 C184 1.240 . S
O207 Mn181 2.117 . S
O207 C184 1.264 . S
C208 C201 1.403 . S
C208 C209 1.399 . S
C208 H214 0.929 . S
C209 C189 1.449 . S
C209 C208 1.399 . S
C209 H215 0.930 . S
H210 C190 0.931 . S
H211 C191 0.930 . S
H212 C199 0.931 . S
H213 C200 0.929 . S
H214 C208 0.929 . S
H215 C209 0.930 . S
Mn216 O221 2.095 . S
Mn216 O231 2.162 . S
Mn216 O232 2.297 . S
Mn216 O240 2.385 . S
Mn216 O241 2.209 . S
Mn216 O242 2.094 . S
Mn217 O222 2.121 . S
Mn217 N224 2.257 . S
Mn217 N233 2.282 . S
Mn217 O241 2.215 . S
Mn217 O243 2.117 . S
C218 O240 1.234 . S
C218 O241 1.283 . S
C219 O231 1.281 . S
C219 O232 1.236 . S
C220 O242 1.240 . S
C220 O243 1.264 . S
O221 Mn216 2.095 . S
O221 C230 1.250 . S
O222 Mn217 2.121 . S
O222 C230 1.258 . S
C223 N224 1.326 . S
C223 C227 1.460 . S
C223 H229 0.929 . S
N224 Mn217 2.257 . S
N224 C223 1.326 . S
N224 C228 1.362 . S
C225 C226 1.258 . S
C225 C228 1.431 . S
C225 C245 1.449 . S
C226 C225 1.258 . S
C226 C227 1.477 . S
C226 H246 0.931 . S
C227 C223 1.460 . S
C227 C226 1.477 . S
C227 H247 0.930 . S
C228 N224 1.362 . S
C228 C225 1.431 . S
C228 C238 1.476 . S
H229 C223 0.929 . S
C230 O221 1.250 . S
C230 O222 1.258 . S
O231 Mn216 2.162 . S
O231 C219 1.281 . S
O232 Mn216 2.297 . S
O232 C219 1.236 . S
N233 Mn217 2.282 . S
N233 C234 1.328 . S
N233 C238 1.318 . S
C234 N233 1.328 . S
C234 C235 1.457 . S
C234 H239 0.929 . S
C235 C234 1.457 . S
C235 C236 1.291 . S
C235 H248 0.931 . S
C236 C235 1.291 . S
C236 C237 1.373 . S
C236 H249 0.929 . S
C237 C236 1.373 . S
C237 C238 1.396 . S
C237 C244 1.403 . S
C238 C228 1.476 . S
C238 N233 1.318 . S
C238 C237 1.396 . S
H239 C234 0.929 . S
O240 Mn216 2.385 . S
O240 C218 1.234 . S
O241 Mn216 2.209 . S
O241 Mn217 2.215 . S
O241 C218 1.283 . S
O242 Mn216 2.094 . S
O242 C220 1.240 . S
O243 Mn217 2.117 . S
O243 C220 1.264 . S
C244 C237 1.403 . S
C244 C245 1.399 . S
C244 H250 0.929 . S
C245 C225 1.449 . S
C245 C244 1.399 . S
C245 H251 0.930 . S
H246 C226 0.931 . S
H247 C227 0.930 . S
H248 C235 0.931 . S
H249 C236 0.929 . S
H250 C244 0.929 . S
H251 C245 0.930 . S
Mn252 O257 2.095 . S
Mn252 O267 2.162 . S
Mn252 O268 2.297 . S
Mn252 O276 2.385 . S
Mn252 O277 2.209 . S
Mn252 O278 2.094 . S
Mn253 O258 2.121 . S
Mn253 N260 2.257 . S
Mn253 N269 2.282 . S
Mn253 O277 2.215 . S
Mn253 O279 2.117 . S
C254 O276 1.234 . S
C254 O277 1.283 . S
C255 O267 1.281 . S
C255 O268 1.236 . S
C256 O278 1.240 . S
C256 O279 1.264 . S
O257 Mn252 2.095 . S
O257 C266 1.250 . S
O258 Mn253 2.121 . S
O258 C266 1.258 . S
C259 N260 1.326 . S
C259 C263 1.460 . S
C259 H265 0.929 . S
N260 Mn253 2.257 . S
N260 C259 1.326 . S
N260 C264 1.362 . S
C261 C262 1.258 . S
C261 C264 1.431 . S
C261 C281 1.449 . S
C262 C261 1.258 . S
C262 C263 1.477 . S
C262 H282 0.931 . S
C263 C259 1.460 . S
C263 C262 1.477 . S
C263 H283 0.930 . S
C264 N260 1.362 . S
C264 C261 1.431 . S
C264 C274 1.476 . S
H265 C259 0.929 . S
C266 O257 1.250 . S
C266 O258 1.258 . S
O267 Mn252 2.162 . S
O267 C255 1.281 . S
O268 Mn252 2.297 . S
O268 C255 1.236 . S
N269 Mn253 2.282 . S
N269 C270 1.328 . S
N269 C274 1.318 . S
C270 N269 1.328 . S
C270 C271 1.457 . S
C270 H275 0.929 . S
C271 C270 1.457 . S
C271 C272 1.291 . S
C271 H284 0.931 . S
C272 C271 1.291 . S
C272 C273 1.373 . S
C272 H285 0.929 . S
C273 C272 1.373 . S
C273 C274 1.396 . S
C273 C280 1.403 . S
C274 C264 1.476 . S
C274 N269 1.318 . S
C274 C273 1.396 . S
H275 C270 0.929 . S
O276 Mn252 2.385 . S
O276 C254 1.234 . S
O277 Mn252 2.209 . S
O277 Mn253 2.215 . S
O277 C254 1.283 . S
O278 Mn252 2.094 . S
O278 C256 1.240 . S
O279 Mn253 2.117 . S
O279 C256 1.264 . S
C280 C273 1.403 . S
C280 C281 1.399 . S
C280 H286 0.929 . S
C281 C261 1.449 . S
C281 C280 1.399 . S
C281 H287 0.930 . S
H282 C262 0.931 . S
H283 C263 0.930 . S
H284 C271 0.931 . S
H285 C272 0.929 . S
H286 C280 0.929 . S
H287 C281 0.930 . S
Mn288 O293 2.095 . S
Mn288 O303 2.162 . S
Mn288 O304 2.297 . S
Mn288 O312 2.385 . S
Mn288 O313 2.209 . S
Mn288 O314 2.094 . S
Mn289 O294 2.121 . S
Mn289 N296 2.257 . S
Mn289 N305 2.282 . S
Mn289 O313 2.215 . S
Mn289 O315 2.117 . S
C290 O312 1.234 . S
C290 O313 1.283 . S
C291 O303 1.281 . S
C291 O304 1.236 . S
C292 O314 1.240 . S
C292 O315 1.264 . S
O293 Mn288 2.095 . S
O293 C302 1.250 . S
O294 Mn289 2.121 . S
O294 C302 1.258 . S
C295 N296 1.326 . S
C295 C299 1.460 . S
C295 H301 0.929 . S
N296 Mn289 2.257 . S
N296 C295 1.326 . S
N296 C300 1.362 . S
C297 C298 1.258 . S
C297 C300 1.431 . S
C297 C317 1.449 . S
C298 C297 1.258 . S
C298 C299 1.477 . S
C298 H318 0.931 . S
C299 C295 1.460 . S
C299 C298 1.477 . S
C299 H319 0.930 . S
C300 N296 1.362 . S
C300 C297 1.431 . S
C300 C310 1.476 . S
H301 C295 0.929 . S
C302 O293 1.250 . S
C302 O294 1.258 . S
O303 Mn288 2.162 . S
O303 C291 1.281 . S
O304 Mn288 2.297 . S
O304 C291 1.236 . S
N305 Mn289 2.282 . S
N305 C306 1.328 . S
N305 C310 1.318 . S
C306 N305 1.328 . S
C306 C307 1.457 . S
C306 H311 0.929 . S
C307 C306 1.457 . S
C307 C308 1.291 . S
C307 H320 0.931 . S
C308 C307 1.291 . S
C308 C309 1.373 . S
C308 H321 0.929 . S
C309 C308 1.373 . S
C309 C310 1.396 . S
C309 C316 1.403 . S
C310 C300 1.476 . S
C310 N305 1.318 . S
C310 C309 1.396 . S
H311 C306 0.929 . S
O312 Mn288 2.385 . S
O312 C290 1.234 . S
O313 Mn288 2.209 . S
O313 Mn289 2.215 . S
O313 C290 1.283 . S
O314 Mn288 2.094 . S
O314 C292 1.240 . S
O315 Mn289 2.117 . S
O315 C292 1.264 . S
C316 C309 1.403 . S
C316 C317 1.399 . S
C316 H322 0.929 . S
C317 C297 1.449 . S
C317 C316 1.399 . S
C317 H323 0.930 . S
H318 C298 0.931 . S
H319 C299 0.930 . S
H320 C307 0.931 . S
H321 C308 0.929 . S
H322 C316 0.929 . S
H323 C317 0.930 . S
Mn324 O329 2.095 . S
Mn324 O339 2.162 . S
Mn324 O340 2.297 . S
Mn324 O348 2.385 . S
Mn324 O349 2.209 . S
Mn324 O350 2.094 . S
Mn325 O330 2.121 . S
Mn325 N332 2.257 . S
Mn325 N341 2.282 . S
Mn325 O349 2.215 . S
Mn325 O351 2.117 . S
C326 O348 1.234 . S
C326 O349 1.283 . S
C327 O339 1.281 . S
C327 O340 1.236 . S
C328 O350 1.240 . S
C328 O351 1.264 . S
O329 Mn324 2.095 . S
O329 C338 1.250 . S
O330 Mn325 2.121 . S
O330 C338 1.258 . S
C331 N332 1.326 . S
C331 C335 1.460 . S
C331 H337 0.929 . S
N332 Mn325 2.257 . S
N332 C331 1.326 . S
N332 C336 1.362 . S
C333 C334 1.258 . S
C333 C336 1.431 . S
C333 C353 1.449 . S
C334 C333 1.258 . S
C334 C335 1.477 . S
C334 H354 0.931 . S
C335 C331 1.460 . S
C335 C334 1.477 . S
C335 H355 0.930 . S
C336 N332 1.362 . S
C336 C333 1.431 . S
C336 C346 1.476 . S
H337 C331 0.929 . S
C338 O329 1.250 . S
C338 O330 1.258 . S
O339 Mn324 2.162 . S
O339 C327 1.281 . S
O340 Mn324 2.297 . S
O340 C327 1.236 . S
N341 Mn325 2.282 . S
N341 C342 1.328 . S
N341 C346 1.318 . S
C342 N341 1.328 . S
C342 C343 1.457 . S
C342 H347 0.929 . S
C343 C342 1.457 . S
C343 C344 1.291 . S
C343 H356 0.931 . S
C344 C343 1.291 . S
C344 C345 1.373 . S
C344 H357 0.929 . S
C345 C344 1.373 . S
C345 C346 1.396 . S
C345 C352 1.403 . S
C346 C336 1.476 . S
C346 N341 1.318 . S
C346 C345 1.396 . S
H347 C342 0.929 . S
O348 Mn324 2.385 . S
O348 C326 1.234 . S
O349 Mn324 2.209 . S
O349 Mn325 2.215 . S
O349 C326 1.283 . S
O350 Mn324 2.094 . S
O350 C328 1.240 . S
O351 Mn325 2.117 . S
O351 C328 1.264 . S
C352 C345 1.403 . S
C352 C353 1.399 . S
C352 H358 0.929 . S
C353 C333 1.449 . S
C353 C352 1.399 . S
C353 H359 0.930 . S
H354 C334 0.931 . S
H355 C335 0.930 . S
H356 C343 0.931 . S
H357 C344 0.929 . S
H358 C352 0.929 . S
H359 C353 0.930 . S
Mn360 O365 2.095 . S
Mn360 O375 2.162 . S
Mn360 O376 2.297 . S
Mn360 O384 2.385 . S
Mn360 O385 2.209 . S
Mn360 O386 2.094 . S
Mn361 O366 2.121 . S
Mn361 N368 2.257 . S
Mn361 N377 2.282 . S
Mn361 O385 2.215 . S
Mn361 O387 2.117 . S
C362 O384 1.234 . S
C362 O385 1.283 . S
C363 O375 1.281 . S
C363 O376 1.236 . S
C364 O386 1.240 . S
C364 O387 1.264 . S
O365 Mn360 2.095 . S
O365 C374 1.250 . S
O366 Mn361 2.121 . S
O366 C374 1.258 . S
C367 N368 1.326 . S
C367 C371 1.460 . S
C367 H373 0.929 . S
N368 Mn361 2.257 . S
N368 C367 1.326 . S
N368 C372 1.362 . S
C369 C370 1.258 . S
C369 C372 1.431 . S
C369 C389 1.449 . S
C370 C369 1.258 . S
C370 C371 1.477 . S
C370 H390 0.931 . S
C371 C367 1.460 . S
C371 C370 1.477 . S
C371 H391 0.930 . S
C372 N368 1.362 . S
C372 C369 1.431 . S
C372 C382 1.476 . S
H373 C367 0.929 . S
C374 O365 1.250 . S
C374 O366 1.258 . S
O375 Mn360 2.162 . S
O375 C363 1.281 . S
O376 Mn360 2.297 . S
O376 C363 1.236 . S
N377 Mn361 2.282 . S
N377 C378 1.328 . S
N377 C382 1.318 . S
C378 N377 1.328 . S
C378 C379 1.457 . S
C378 H383 0.929 . S
C379 C378 1.457 . S
C379 C380 1.291 . S
C379 H392 0.931 . S
C380 C379 1.291 . S
C380 C381 1.373 . S
C380 H393 0.929 . S
C381 C380 1.373 . S
C381 C382 1.396 . S
C381 C388 1.403 . S
C382 C372 1.476 . S
C382 N377 1.318 . S
C382 C381 1.396 . S
H383 C378 0.929 . S
O384 Mn360 2.385 . S
O384 C362 1.234 . S
O385 Mn360 2.209 . S
O385 Mn361 2.215 . S
O385 C362 1.283 . S
O386 Mn360 2.094 . S
O386 C364 1.240 . S
O387 Mn361 2.117 . S
O387 C364 1.264 . S
C388 C381 1.403 . S
C388 C389 1.399 . S
C388 H394 0.929 . S
C389 C369 1.449 . S
C389 C388 1.399 . S
C389 H395 0.930 . S
H390 C370 0.931 . S
H391 C371 0.930 . S
H392 C379 0.931 . S
H393 C380 0.929 . S
H394 C388 0.929 . S
H395 C389 0.930 . S
Mn396 O401 2.095 . S
Mn396 O411 2.162 . S
Mn396 O412 2.297 . S
Mn396 O420 2.385 . S
Mn396 O421 2.209 . S
Mn396 O422 2.094 . S
Mn397 O402 2.121 . S
Mn397 N404 2.257 . S
Mn397 N413 2.282 . S
Mn397 O421 2.215 . S
Mn397 O423 2.117 . S
C398 O420 1.234 . S
C398 O421 1.283 . S
C399 O411 1.281 . S
C399 O412 1.236 . S
C400 O422 1.240 . S
C400 O423 1.264 . S
O401 Mn396 2.095 . S
O401 C410 1.250 . S
O402 Mn397 2.121 . S
O402 C410 1.258 . S
C403 N404 1.326 . S
C403 C407 1.460 . S
C403 H409 0.929 . S
N404 Mn397 2.257 . S
N404 C403 1.326 . S
N404 C408 1.362 . S
C405 C406 1.258 . S
C405 C408 1.431 . S
C405 C425 1.449 . S
C406 C405 1.258 . S
C406 C407 1.477 . S
C406 H426 0.931 . S
C407 C403 1.460 . S
C407 C406 1.477 . S
C407 H427 0.930 . S
C408 N404 1.362 . S
C408 C405 1.431 . S
C408 C418 1.476 . S
H409 C403 0.929 . S
C410 O401 1.250 . S
C410 O402 1.258 . S
O411 Mn396 2.162 . S
O411 C399 1.281 . S
O412 Mn396 2.297 . S
O412 C399 1.236 . S
N413 Mn397 2.282 . S
N413 C414 1.328 . S
N413 C418 1.318 . S
C414 N413 1.328 . S
C414 C415 1.457 . S
C414 H419 0.929 . S
C415 C414 1.457 . S
C415 C416 1.291 . S
C415 H428 0.931 . S
C416 C415 1.291 . S
C416 C417 1.373 . S
C416 H429 0.929 . S
C417 C416 1.373 . S
C417 C418 1.396 . S
C417 C424 1.403 . S
C418 C408 1.476 . S
C418 N413 1.318 . S
C418 C417 1.396 . S
H419 C414 0.929 . S
O420 Mn396 2.385 . S
O420 C398 1.234 . S
O421 Mn396 2.209 . S
O421 Mn397 2.215 . S
O421 C398 1.283 . S
O422 Mn396 2.094 . S
O422 C400 1.240 . S
O423 Mn397 2.117 . S
O423 C400 1.264 . S
C424 C417 1.403 . S
C424 C425 1.399 . S
C424 H430 0.929 . S
C425 C405 1.449 . S
C425 C424 1.399 . S
C425 H431 0.930 . S
H426 C406 0.931 . S
H427 C407 0.930 . S
H428 C415 0.931 . S
H429 C416 0.929 . S
H430 C424 0.929 . S
H431 C425 0.930 . S
Mn432 O437 2.095 . S
Mn432 O447 2.162 . S
Mn432 O448 2.297 . S
Mn432 O456 2.385 . S
Mn432 O457 2.209 . S
Mn432 O458 2.094 . S
Mn433 O438 2.121 . S
Mn433 N440 2.257 . S
Mn433 N449 2.282 . S
Mn433 O457 2.215 . S
Mn433 O459 2.117 . S
C434 O456 1.234 . S
C434 O457 1.283 . S
C435 O447 1.281 . S
C435 O448 1.236 . S
C436 O458 1.240 . S
C436 O459 1.264 . S
O437 Mn432 2.095 . S
O437 C446 1.250 . S
O438 Mn433 2.121 . S
O438 C446 1.258 . S
C439 N440 1.326 . S
C439 C443 1.460 . S
C439 H445 0.929 . S
N440 Mn433 2.257 . S
N440 C439 1.326 . S
N440 C444 1.362 . S
C441 C442 1.258 . S
C441 C444 1.431 . S
C441 C461 1.449 . S
C442 C441 1.258 . S
C442 C443 1.477 . S
C442 H462 0.931 . S
C443 C439 1.460 . S
C443 C442 1.477 . S
C443 H463 0.930 . S
C444 N440 1.362 . S
C444 C441 1.431 . S
C444 C454 1.476 . S
H445 C439 0.929 . S
C446 O437 1.250 . S
C446 O438 1.258 . S
O447 Mn432 2.162 . S
O447 C435 1.281 . S
O448 Mn432 2.297 . S
O448 C435 1.236 . S
N449 Mn433 2.282 . S
N449 C450 1.328 . S
N449 C454 1.318 . S
C450 N449 1.328 . S
C450 C451 1.457 . S
C450 H455 0.929 . S
C451 C450 1.457 . S
C451 C452 1.291 . S
C451 H464 0.931 . S
C452 C451 1.291 . S
C452 C453 1.373 . S
C452 H465 0.929 . S
C453 C452 1.373 . S
C453 C454 1.396 . S
C453 C460 1.403 . S
C454 C444 1.476 . S
C454 N449 1.318 . S
C454 C453 1.396 . S
H455 C450 0.929 . S
O456 Mn432 2.385 . S
O456 C434 1.234 . S
O457 Mn432 2.209 . S
O457 Mn433 2.215 . S
O457 C434 1.283 . S
O458 Mn432 2.094 . S
O458 C436 1.240 . S
O459 Mn433 2.117 . S
O459 C436 1.264 . S
C460 C453 1.403 . S
C460 C461 1.399 . S
C460 H466 0.929 . S
C461 C441 1.449 . S
C461 C460 1.399 . S
C461 H467 0.930 . S
H462 C442 0.931 . S
H463 C443 0.930 . S
H464 C451 0.931 . S
H465 C452 0.929 . S
H466 C460 0.929 . S
H467 C461 0.930 . S
Mn468 O473 2.095 . S
Mn468 O483 2.162 . S
Mn468 O484 2.297 . S
Mn468 O492 2.385 . S
Mn468 O493 2.209 . S
Mn468 O494 2.094 . S
Mn469 O474 2.121 . S
Mn469 N476 2.257 . S
Mn469 N485 2.282 . S
Mn469 O493 2.215 . S
Mn469 O495 2.117 . S
C470 O492 1.234 . S
C470 O493 1.283 . S
C471 O483 1.281 . S
C471 O484 1.236 . S
C472 O494 1.240 . S
C472 O495 1.264 . S
O473 Mn468 2.095 . S
O473 C482 1.250 . S
O474 Mn469 2.121 . S
O474 C482 1.258 . S
C475 N476 1.326 . S
C475 C479 1.460 . S
C475 H481 0.929 . S
N476 Mn469 2.257 . S
N476 C475 1.326 . S
N476 C480 1.362 . S
C477 C478 1.258 . S
C477 C480 1.431 . S
C477 C497 1.449 . S
C478 C477 1.258 . S
C478 C479 1.477 . S
C478 H498 0.931 . S
C479 C475 1.460 . S
C479 C478 1.477 . S
C479 H499 0.930 . S
C480 N476 1.362 . S
C480 C477 1.431 . S
C480 C490 1.476 . S
H481 C475 0.929 . S
C482 O473 1.250 . S
C482 O474 1.258 . S
O483 Mn468 2.162 . S
O483 C471 1.281 . S
O484 Mn468 2.297 . S
O484 C471 1.236 . S
N485 Mn469 2.282 . S
N485 C486 1.328 . S
N485 C490 1.318 . S
C486 N485 1.328 . S
C486 C487 1.457 . S
C486 H491 0.929 . S
C487 C486 1.457 . S
C487 C488 1.291 . S
C487 H500 0.931 . S
C488 C487 1.291 . S
C488 C489 1.373 . S
C488 H501 0.929 . S
C489 C488 1.373 . S
C489 C490 1.396 . S
C489 C496 1.403 . S
C490 C480 1.476 . S
C490 N485 1.318 . S
C490 C489 1.396 . S
H491 C486 0.929 . S
O492 Mn468 2.385 . S
O492 C470 1.234 . S
O493 Mn468 2.209 . S
O493 Mn469 2.215 . S
O493 C470 1.283 . S
O494 Mn468 2.094 . S
O494 C472 1.240 . S
O495 Mn469 2.117 . S
O495 C472 1.264 . S
C496 C489 1.403 . S
C496 C497 1.399 . S
C496 H502 0.929 . S
C497 C477 1.449 . S
C497 C496 1.399 . S
C497 H503 0.930 . S
H498 C478 0.931 . S
H499 C479 0.930 . S
H500 C487 0.931 . S
H501 C488 0.929 . S
H502 C496 0.929 . S
H503 C497 0.930 . S
Mn504 O509 2.095 . S
Mn504 O519 2.162 . S
Mn504 O520 2.297 . S
Mn504 O528 2.385 . S
Mn504 O529 2.209 . S
Mn504 O530 2.094 . S
Mn505 O510 2.121 . S
Mn505 N512 2.257 . S
Mn505 N521 2.282 . S
Mn505 O529 2.215 . S
Mn505 O531 2.117 . S
C506 O528 1.234 . S
C506 O529 1.283 . S
C507 O519 1.281 . S
C507 O520 1.236 . S
C508 O530 1.240 . S
C508 O531 1.264 . S
O509 Mn504 2.095 . S
O509 C518 1.250 . S
O510 Mn505 2.121 . S
O510 C518 1.258 . S
C511 N512 1.326 . S
C511 C515 1.460 . S
C511 H517 0.929 . S
N512 Mn505 2.257 . S
N512 C511 1.326 . S
N512 C516 1.362 . S
C513 C514 1.258 . S
C513 C516 1.431 . S
C513 C533 1.449 . S
C514 C513 1.258 . S
C514 C515 1.477 . S
C514 H534 0.931 . S
C515 C511 1.460 . S
C515 C514 1.477 . S
C515 H535 0.930 . S
C516 N512 1.362 . S
C516 C513 1.431 . S
C516 C526 1.476 . S
H517 C511 0.929 . S
C518 O509 1.250 . S
C518 O510 1.258 . S
O519 Mn504 2.162 . S
O519 C507 1.281 . S
O520 Mn504 2.297 . S
O520 C507 1.236 . S
N521 Mn505 2.282 . S
N521 C522 1.328 . S
N521 C526 1.318 . S
C522 N521 1.328 . S
C522 C523 1.457 . S
C522 H527 0.929 . S
C523 C522 1.457 . S
C523 C524 1.291 . S
C523 H536 0.931 . S
C524 C523 1.291 . S
C524 C525 1.373 . S
C524 H537 0.929 . S
C525 C524 1.373 . S
C525 C526 1.396 . S
C525 C532 1.403 . S
C526 C516 1.476 . S
C526 N521 1.318 . S
C526 C525 1.396 . S
H527 C522 0.929 . S
O528 Mn504 2.385 . S
O528 C506 1.234 . S
O529 Mn504 2.209 . S
O529 Mn505 2.215 . S
O529 C506 1.283 . S
O530 Mn504 2.094 . S
O530 C508 1.240 . S
O531 Mn505 2.117 . S
O531 C508 1.264 . S
C532 C525 1.403 . S
C532 C533 1.399 . S
C532 H538 0.929 . S
C533 C513 1.449 . S
C533 C532 1.399 . S
C533 H539 0.930 . S
H534 C514 0.931 . S
H535 C515 0.930 . S
H536 C523 0.931 . S
H537 C524 0.929 . S
H538 C532 0.929 . S
H539 C533 0.930 . S
Mn540 O545 2.095 . S
Mn540 O555 2.162 . S
Mn540 O556 2.297 . S
Mn540 O564 2.385 . S
Mn540 O565 2.209 . S
Mn540 O566 2.094 . S
Mn541 O546 2.121 . S
Mn541 N548 2.257 . S
Mn541 N557 2.282 . S
Mn541 O565 2.215 . S
Mn541 O567 2.117 . S
C542 O564 1.234 . S
C542 O565 1.283 . S
C543 O555 1.281 . S
C543 O556 1.236 . S
C544 O566 1.240 . S
C544 O567 1.264 . S
O545 Mn540 2.095 . S
O545 C554 1.250 . S
O546 Mn541 2.121 . S
O546 C554 1.258 . S
C547 N548 1.326 . S
C547 C551 1.460 . S
C547 H553 0.929 . S
N548 Mn541 2.257 . S
N548 C547 1.326 . S
N548 C552 1.362 . S
C549 C550 1.258 . S
C549 C552 1.431 . S
C549 C569 1.449 . S
C550 C549 1.258 . S
C550 C551 1.477 . S
C550 H570 0.931 . S
C551 C547 1.460 . S
C551 C550 1.477 . S
C551 H571 0.930 . S
C552 N548 1.362 . S
C552 C549 1.431 . S
C552 C562 1.476 . S
H553 C547 0.929 . S
C554 O545 1.250 . S
C554 O546 1.258 . S
O555 Mn540 2.162 . S
O555 C543 1.281 . S
O556 Mn540 2.297 . S
O556 C543 1.236 . S
N557 Mn541 2.282 . S
N557 C558 1.328 . S
N557 C562 1.318 . S
C558 N557 1.328 . S
C558 C559 1.457 . S
C558 H563 0.929 . S
C559 C558 1.457 . S
C559 C560 1.291 . S
C559 H572 0.931 . S
C560 C559 1.291 . S
C560 C561 1.373 . S
C560 H573 0.929 . S
C561 C560 1.373 . S
C561 C562 1.396 . S
C561 C568 1.403 . S
C562 C552 1.476 . S
C562 N557 1.318 . S
C562 C561 1.396 . S
H563 C558 0.929 . S
O564 Mn540 2.385 . S
O564 C542 1.234 . S
O565 Mn540 2.209 . S
O565 Mn541 2.215 . S
O565 C542 1.283 . S
O566 Mn540 2.094 . S
O566 C544 1.240 . S
O567 Mn541 2.117 . S
O567 C544 1.264 . S
C568 C561 1.403 . S
C568 C569 1.399 . S
C568 H574 0.929 . S
C569 C549 1.449 . S
C569 C568 1.399 . S
C569 H575 0.930 . S
H570 C550 0.931 . S
H571 C551 0.930 . S
H572 C559 0.931 . S
H573 C560 0.929 . S
H574 C568 0.929 . S
H575 C569 0.930 . S
C576 C577 1.391 . S
C576 C578 1.394 . S
C576 H592 0.931 . S
C577 C576 1.391 . S
C577 C581 1.376 . S
C578 C576 1.394 . S
C578 C579 1.369 . S
C578 C582 1.531 . S
C579 C578 1.369 . S
C579 C580 1.410 . S
C579 C587 1.503 . S
C580 C579 1.410 . S
C580 C581 1.392 . S
C580 C583 1.511 . S
C581 C577 1.376 . S
C581 C580 1.392 . S
C581 H593 0.929 . S
C582 C578 1.531 . S
C582 H594 0.960 . S
C582 H595 0.962 . S
C582 H596 0.960 . S
C583 C580 1.511 . S
C583 H597 0.961 . S
C583 H598 0.961 . S
C583 H599 0.961 . S
C584 C585 1.370 . S
C584 C586 1.363 . S
C584 H600 0.931 . S
C585 C584 1.370 . S
C585 C589 1.408 . S
C586 C584 1.363 . S
C586 C587 1.370 . S
C586 C590 1.524 . S
C587 C579 1.503 . S
C587 C586 1.370 . S
C587 C588 1.403 . S
C588 C587 1.403 . S
C588 C589 1.404 . S
C588 C591 1.539 . S
C589 C585 1.408 . S
C589 C588 1.404 . S
C589 H601 0.930 . S
C590 C586 1.524 . S
C590 H602 0.956 . S
C590 H603 0.961 . S
C590 H604 0.961 . S
C591 C588 1.539 . S
C591 H605 0.958 . S
C591 H606 0.961 . S
C591 H607 0.960 . S
H592 C576 0.931 . S
H593 C581 0.929 . S
H594 C582 0.960 . S
H595 C582 0.962 . S
H596 C582 0.960 . S
H597 C583 0.961 . S
H598 C583 0.961 . S
H599 C583 0.961 . S
H600 C584 0.931 . S
H601 C589 0.930 . S
H602 C590 0.956 . S
H603 C590 0.961 . S
H604 C590 0.961 . S
H605 C591 0.958 . S
H606 C591 0.961 . S
H607 C591 0.960 . S
C608 C609 1.391 . S
C608 C610 1.394 . S
C608 H624 0.931 . S
C609 C608 1.391 . S
C609 C613 1.376 . S
C610 C608 1.394 . S
C610 C611 1.369 . S
C610 C614 1.531 . S
C611 C610 1.369 . S
C611 C612 1.410 . S
C611 C619 1.503 . S
C612 C611 1.410 . S
C612 C613 1.392 . S
C612 C615 1.511 . S
C613 C609 1.376 . S
C613 C612 1.392 . S
C613 H625 0.929 . S
C614 C610 1.531 . S
C614 H626 0.960 . S
C614 H627 0.962 . S
C614 H628 0.960 . S
C615 C612 1.511 . S
C615 H629 0.961 . S
C615 H630 0.961 . S
C615 H631 0.961 . S
C616 C617 1.370 . S
C616 C618 1.363 . S
C616 H632 0.931 . S
C617 C616 1.370 . S
C617 C621 1.408 . S
C618 C616 1.363 . S
C618 C619 1.370 . S
C618 C622 1.524 . S
C619 C611 1.503 . S
C619 C618 1.370 . S
C619 C620 1.403 . S
C620 C619 1.403 . S
C620 C621 1.404 . S
C620 C623 1.539 . S
C621 C617 1.408 . S
C621 C620 1.404 . S
C621 H633 0.930 . S
C622 C618 1.524 . S
C622 H634 0.956 . S
C622 H635 0.961 . S
C622 H636 0.961 . S
C623 C620 1.539 . S
C623 H637 0.958 . S
C623 H638 0.961 . S
C623 H639 0.960 . S
H624 C608 0.931 . S
H625 C613 0.929 . S
H626 C614 0.960 . S
H627 C614 0.962 . S
H628 C614 0.960 . S
H629 C615 0.961 . S
H630 C615 0.961 . S
H631 C615 0.961 . S
H632 C616 0.931 . S
H633 C621 0.930 . S
H634 C622 0.956 . S
H635 C622 0.961 . S
H636 C622 0.961 . S
H637 C623 0.958 . S
H638 C623 0.961 . S
H639 C623 0.960 . S
C640 C641 1.391 . S
C640 C642 1.394 . S
C640 H656 0.931 . S
C641 C640 1.391 . S
C641 C645 1.376 . S
C642 C640 1.394 . S
C642 C643 1.369 . S
C642 C646 1.531 . S
C643 C642 1.369 . S
C643 C644 1.410 . S
C643 C651 1.503 . S
C644 C643 1.410 . S
C644 C645 1.392 . S
C644 C647 1.511 . S
C645 C641 1.376 . S
C645 C644 1.392 . S
C645 H657 0.929 . S
C646 C642 1.531 . S
C646 H658 0.960 . S
C646 H659 0.962 . S
C646 H660 0.960 . S
C647 C644 1.511 . S
C647 H661 0.961 . S
C647 H662 0.961 . S
C647 H663 0.961 . S
C648 C649 1.370 . S
C648 C650 1.363 . S
C648 H664 0.931 . S
C649 C648 1.370 . S
C649 C653 1.408 . S
C650 C648 1.363 . S
C650 C651 1.370 . S
C650 C654 1.524 . S
C651 C643 1.503 . S
C651 C650 1.370 . S
C651 C652 1.403 . S
C652 C651 1.403 . S
C652 C653 1.404 . S
C652 C655 1.539 . S
C653 C649 1.408 . S
C653 C652 1.404 . S
C653 H665 0.930 . S
C654 C650 1.524 . S
C654 H666 0.956 . S
C654 H667 0.961 . S
C654 H668 0.961 . S
C655 C652 1.539 . S
C655 H669 0.958 . S
C655 H670 0.961 . S
C655 H671 0.960 . S
H656 C640 0.931 . S
H657 C645 0.929 . S
H658 C646 0.960 . S
H659 C646 0.962 . S
H660 C646 0.960 . S
H661 C647 0.961 . S
H662 C647 0.961 . S
H663 C647 0.961 . S
H664 C648 0.931 . S
H665 C653 0.930 . S
H666 C654 0.956 . S
H667 C654 0.961 . S
H668 C654 0.961 . S
H669 C655 0.958 . S
H670 C655 0.961 . S
H671 C655 0.960 . S
C672 C673 1.391 . S
C672 C674 1.394 . S
C672 H688 0.931 . S
C673 C672 1.391 . S
C673 C677 1.376 . S
C674 C672 1.394 . S
C674 C675 1.369 . S
C674 C678 1.531 . S
C675 C674 1.369 . S
C675 C676 1.410 . S
C675 C683 1.503 . S
C676 C675 1.410 . S
C676 C677 1.392 . S
C676 C679 1.511 . S
C677 C673 1.376 . S
C677 C676 1.392 . S
C677 H689 0.929 . S
C678 C674 1.531 . S
C678 H690 0.960 . S
C678 H691 0.962 . S
C678 H692 0.960 . S
C679 C676 1.511 . S
C679 H693 0.961 . S
C679 H694 0.961 . S
C679 H695 0.961 . S
C680 C681 1.370 . S
C680 C682 1.363 . S
C680 H696 0.931 . S
C681 C680 1.370 . S
C681 C685 1.408 . S
C682 C680 1.363 . S
C682 C683 1.370 . S
C682 C686 1.524 . S
C683 C675 1.503 . S
C683 C682 1.370 . S
C683 C684 1.403 . S
C684 C683 1.403 . S
C684 C685 1.404 . S
C684 C687 1.539 . S
C685 C681 1.408 . S
C685 C684 1.404 . S
C685 H697 0.930 . S
C686 C682 1.524 . S
C686 H698 0.956 . S
C686 H699 0.961 . S
C686 H700 0.961 . S
C687 C684 1.539 . S
C687 H701 0.958 . S
C687 H702 0.961 . S
C687 H703 0.960 . S
H688 C672 0.931 . S
H689 C677 0.929 . S
H690 C678 0.960 . S
H691 C678 0.962 . S
H692 C678 0.960 . S
H693 C679 0.961 . S
H694 C679 0.961 . S
H695 C679 0.961 . S
H696 C680 0.931 . S
H697 C685 0.930 . S
H698 C686 0.956 . S
H699 C686 0.961 . S
H700 C686 0.961 . S
H701 C687 0.958 . S
H702 C687 0.961 . S
H703 C687 0.960 . S
C704 C705 1.391 . S
C704 C706 1.394 . S
C704 H720 0.931 . S
C705 C704 1.391 . S
C705 C709 1.376 . S
C706 C704 1.394 . S
C706 C707 1.369 . S
C706 C710 1.531 . S
C707 C706 1.369 . S
C707 C708 1.410 . S
C707 C715 1.503 . S
C708 C707 1.410 . S
C708 C709 1.392 . S
C708 C711 1.511 . S
C709 C705 1.376 . S
C709 C708 1.392 . S
C709 H721 0.929 . S
C710 C706 1.531 . S
C710 H722 0.960 . S
C710 H723 0.962 . S
C710 H724 0.960 . S
C711 C708 1.511 . S
C711 H725 0.961 . S
C711 H726 0.961 . S
C711 H727 0.961 . S
C712 C713 1.370 . S
C712 C714 1.363 . S
C712 H728 0.931 . S
C713 C712 1.370 . S
C713 C717 1.408 . S
C714 C712 1.363 . S
C714 C715 1.370 . S
C714 C718 1.524 . S
C715 C707 1.503 . S
C715 C714 1.370 . S
C715 C716 1.403 . S
C716 C715 1.403 . S
C716 C717 1.404 . S
C716 C719 1.539 . S
C717 C713 1.408 . S
C717 C716 1.404 . S
C717 H729 0.930 . S
C718 C714 1.524 . S
C718 H730 0.956 . S
C718 H731 0.961 . S
C718 H732 0.961 . S
C719 C716 1.539 . S
C719 H733 0.958 . S
C719 H734 0.961 . S
C719 H735 0.960 . S
H720 C704 0.931 . S
H721 C709 0.929 . S
H722 C710 0.960 . S
H723 C710 0.962 . S
H724 C710 0.960 . S
H725 C711 0.961 . S
H726 C711 0.961 . S
H727 C711 0.961 . S
H728 C712 0.931 . S
H729 C717 0.930 . S
H730 C718 0.956 . S
H731 C718 0.961 . S
H732 C718 0.961 . S
H733 C719 0.958 . S
H734 C719 0.961 . S
H735 C719 0.960 . S
C736 C737 1.391 . S
C736 C738 1.394 . S
C736 H752 0.931 . S
C737 C736 1.391 . S
C737 C741 1.376 . S
C738 C736 1.394 . S
C738 C739 1.369 . S
C738 C742 1.531 . S
C739 C738 1.369 . S
C739 C740 1.410 . S
C739 C747 1.503 . S
C740 C739 1.410 . S
C740 C741 1.392 . S
C740 C743 1.511 . S
C741 C737 1.376 . S
C741 C740 1.392 . S
C741 H753 0.929 . S
C742 C738 1.531 . S
C742 H754 0.960 . S
C742 H755 0.962 . S
C742 H756 0.960 . S
C743 C740 1.511 . S
C743 H757 0.961 . S
C743 H758 0.961 . S
C743 H759 0.961 . S
C744 C745 1.370 . S
C744 C746 1.363 . S
C744 H760 0.931 . S
C745 C744 1.370 . S
C745 C749 1.408 . S
C746 C744 1.363 . S
C746 C747 1.370 . S
C746 C750 1.524 . S
C747 C739 1.503 . S
C747 C746 1.370 . S
C747 C748 1.403 . S
C748 C747 1.403 . S
C748 C749 1.404 . S
C748 C751 1.539 . S
C749 C745 1.408 . S
C749 C748 1.404 . S
C749 H761 0.930 . S
C750 C746 1.524 . S
C750 H762 0.956 . S
C750 H763 0.961 . S
C750 H764 0.961 . S
C751 C748 1.539 . S
C751 H765 0.958 . S
C751 H766 0.961 . S
C751 H767 0.960 . S
H752 C736 0.931 . S
H753 C741 0.929 . S
H754 C742 0.960 . S
H755 C742 0.962 . S
H756 C742 0.960 . S
H757 C743 0.961 . S
H758 C743 0.961 . S
H759 C743 0.961 . S
H760 C744 0.931 . S
H761 C749 0.930 . S
H762 C750 0.956 . S
H763 C750 0.961 . S
H764 C750 0.961 . S
H765 C751 0.958 . S
H766 C751 0.961 . S
H767 C751 0.960 . S
C768 C769 1.391 . S
C768 C770 1.394 . S
C768 H784 0.931 . S
C769 C768 1.391 . S
C769 C773 1.376 . S
C770 C768 1.394 . S
C770 C771 1.369 . S
C770 C774 1.531 . S
C771 C770 1.369 . S
C771 C772 1.410 . S
C771 C779 1.503 . S
C772 C771 1.410 . S
C772 C773 1.392 . S
C772 C775 1.511 . S
C773 C769 1.376 . S
C773 C772 1.392 . S
C773 H785 0.929 . S
C774 C770 1.531 . S
C774 H786 0.960 . S
C774 H787 0.962 . S
C774 H788 0.960 . S
C775 C772 1.511 . S
C775 H789 0.961 . S
C775 H790 0.961 . S
C775 H791 0.961 . S
C776 C777 1.370 . S
C776 C778 1.363 . S
C776 H792 0.931 . S
C777 C776 1.370 . S
C777 C781 1.408 . S
C778 C776 1.363 . S
C778 C779 1.370 . S
C778 C782 1.524 . S
C779 C771 1.503 . S
C779 C778 1.370 . S
C779 C780 1.403 . S
C780 C779 1.403 . S
C780 C781 1.404 . S
C780 C783 1.539 . S
C781 C777 1.408 . S
C781 C780 1.404 . S
C781 H793 0.930 . S
C782 C778 1.524 . S
C782 H794 0.956 . S
C782 H795 0.961 . S
C782 H796 0.961 . S
C783 C780 1.539 . S
C783 H797 0.958 . S
C783 H798 0.961 . S
C783 H799 0.960 . S
H784 C768 0.931 . S
H785 C773 0.929 . S
H786 C774 0.960 . S
H787 C774 0.962 . S
H788 C774 0.960 . S
H789 C775 0.961 . S
H790 C775 0.961 . S
H791 C775 0.961 . S
H792 C776 0.931 . S
H793 C781 0.930 . S
H794 C782 0.956 . S
H795 C782 0.961 . S
H796 C782 0.961 . S
H797 C783 0.958 . S
H798 C783 0.961 . S
H799 C783 0.960 . S
C800 C801 1.391 . S
C800 C802 1.394 . S
C800 H816 0.931 . S
C801 C800 1.391 . S
C801 C805 1.376 . S
C802 C800 1.394 . S
C802 C803 1.369 . S
C802 C806 1.531 . S
C803 C802 1.369 . S
C803 C804 1.410 . S
C803 C811 1.503 . S
C804 C803 1.410 . S
C804 C805 1.392 . S
C804 C807 1.511 . S
C805 C801 1.376 . S
C805 C804 1.392 . S
C805 H817 0.929 . S
C806 C802 1.531 . S
C806 H818 0.960 . S
C806 H819 0.962 . S
C806 H820 0.960 . S
C807 C804 1.511 . S
C807 H821 0.961 . S
C807 H822 0.961 . S
C807 H823 0.961 . S
C808 C809 1.370 . S
C808 C810 1.363 . S
C808 H824 0.931 . S
C809 C808 1.370 . S
C809 C813 1.408 . S
C810 C808 1.363 . S
C810 C811 1.370 . S
C810 C814 1.524 . S
C811 C803 1.503 . S
C811 C810 1.370 . S
C811 C812 1.403 . S
C812 C811 1.403 . S
C812 C813 1.404 . S
C812 C815 1.539 . S
C813 C809 1.408 . S
C813 C812 1.404 . S
C813 H825 0.930 . S
C814 C810 1.524 . S
C814 H826 0.956 . S
C814 H827 0.961 . S
C814 H828 0.961 . S
C815 C812 1.539 . S
C815 H829 0.958 . S
C815 H830 0.961 . S
C815 H831 0.960 . S
H816 C800 0.931 . S
H817 C805 0.929 . S
H818 C806 0.960 . S
H819 C806 0.962 . S
H820 C806 0.960 . S
H821 C807 0.961 . S
H822 C807 0.961 . S
H823 C807 0.961 . S
H824 C808 0.931 . S
H825 C813 0.930 . S
H826 C814 0.956 . S
H827 C814 0.961 . S
H828 C814 0.961 . S
H829 C815 0.958 . S
H830 C815 0.961 . S
H831 C815 0.960 . S
C832 C833 1.391 . S
C832 C834 1.394 . S
C832 H848 0.931 . S
C833 C832 1.391 . S
C833 C837 1.376 . S
C834 C832 1.394 . S
C834 C835 1.369 . S
C834 C838 1.531 . S
C835 C834 1.369 . S
C835 C836 1.410 . S
C835 C843 1.503 1_565 S
C836 C835 1.410 . S
C836 C837 1.392 . S
C836 C839 1.511 . S
C837 C833 1.376 . S
C837 C836 1.392 . S
C837 H849 0.929 . S
C838 C834 1.531 . S
C838 H850 0.960 . S
C838 H851 0.962 . S
C838 H852 0.960 . S
C839 C836 1.511 . S
C839 H853 0.961 . S
C839 H854 0.961 1_565 S
C839 H855 0.961 . S
C840 C841 1.370 . S
C840 C842 1.363 . S
C840 H856 0.931 . S
C841 C840 1.370 . S
C841 C845 1.408 . S
C842 C840 1.363 . S
C842 C843 1.370 . S
C842 C846 1.524 . S
C843 C835 1.503 1_545 S
C843 C842 1.370 . S
C843 C844 1.403 . S
C844 C843 1.403 . S
C844 C845 1.404 . S
C844 C847 1.539 1_545 S
C845 C841 1.408 . S
C845 C844 1.404 . S
C845 H857 0.930 . S
C846 C842 1.524 . S
C846 H858 0.956 . S
C846 H859 0.961 . S
C846 H860 0.961 . S
C847 C844 1.539 1_565 S
C847 H861 0.958 . S
C847 H862 0.961 . S
C847 H863 0.960 . S
H848 C832 0.931 . S
H849 C837 0.929 . S
H850 C838 0.960 . S
H851 C838 0.962 . S
H852 C838 0.960 . S
H853 C839 0.961 . S
H854 C839 0.961 1_545 S
H855 C839 0.961 . S
H856 C840 0.931 . S
H857 C845 0.930 . S
H858 C846 0.956 . S
H859 C846 0.961 . S
H860 C846 0.961 . S
H861 C847 0.958 . S
H862 C847 0.961 . S
H863 C847 0.960 . S
C864 C865 1.391 . S
C864 C866 1.394 . S
C864 H880 0.931 . S
C865 C864 1.391 . S
C865 C869 1.376 . S
C866 C864 1.394 . S
C866 C867 1.369 . S
C866 C870 1.531 . S
C867 C866 1.369 . S
C867 C868 1.410 . S
C867 C875 1.503 . S
C868 C867 1.410 . S
C868 C869 1.392 . S
C868 C871 1.511 . S
C869 C865 1.376 . S
C869 C868 1.392 . S
C869 H881 0.929 . S
C870 C866 1.531 . S
C870 H882 0.960 . S
C870 H883 0.962 . S
C870 H884 0.960 . S
C871 C868 1.511 . S
C871 H885 0.961 . S
C871 H886 0.961 . S
C871 H887 0.961 . S
C872 C873 1.370 . S
C872 C874 1.363 . S
C872 H888 0.931 . S
C873 C872 1.370 . S
C873 C877 1.408 . S
C874 C872 1.363 . S
C874 C875 1.370 . S
C874 C878 1.524 . S
C875 C867 1.503 . S
C875 C874 1.370 . S
C875 C876 1.403 . S
C876 C875 1.403 . S
C876 C877 1.404 . S
C876 C879 1.539 . S
C877 C873 1.408 . S
C877 C876 1.404 . S
C877 H889 0.930 . S
C878 C874 1.524 . S
C878 H890 0.956 . S
C878 H891 0.961 . S
C878 H892 0.961 . S
C879 C876 1.539 . S
C879 H893 0.958 . S
C879 H894 0.961 . S
C879 H895 0.960 . S
H880 C864 0.931 . S
H881 C869 0.929 . S
H882 C870 0.960 . S
H883 C870 0.962 . S
H884 C870 0.960 . S
H885 C871 0.961 . S
H886 C871 0.961 . S
H887 C871 0.961 . S
H888 C872 0.931 . S
H889 C877 0.930 . S
H890 C878 0.956 . S
H891 C878 0.961 . S
H892 C878 0.961 . S
H893 C879 0.958 . S
H894 C879 0.961 . S
H895 C879 0.960 . S
C896 C897 1.391 . S
C896 C898 1.394 . S
C896 H912 0.931 . S
C897 C896 1.391 . S
C897 C901 1.376 . S
C898 C896 1.394 . S
C898 C899 1.369 . S
C898 C902 1.531 . S
C899 C898 1.369 . S
C899 C900 1.410 . S
C899 C907 1.503 1_556 S
C900 C899 1.410 . S
C900 C901 1.392 . S
C900 C903 1.511 1_556 S
C901 C897 1.376 . S
C901 C900 1.392 . S
C901 H913 0.929 . S
C902 C898 1.531 . S
C902 H914 0.960 . S
C902 H915 0.962 . S
C902 H916 0.960 . S
C903 C900 1.511 1_554 S
C903 H917 0.961 . S
C903 H918 0.961 . S
C903 H919 0.961 . S
C904 C905 1.370 . S
C904 C906 1.363 . S
C904 H920 0.931 . S
C905 C904 1.370 . S
C905 C909 1.408 . S
C906 C904 1.363 . S
C906 C907 1.370 . S
C906 C910 1.524 1_554 S
C907 C899 1.503 1_554 S
C907 C906 1.370 . S
C907 C908 1.403 . S
C908 C907 1.403 . S
C908 C909 1.404 . S
C908 C911 1.539 . S
C909 C905 1.408 . S
C909 C908 1.404 . S
C909 H921 0.930 . S
C910 C906 1.524 1_556 S
C910 H922 0.956 . S
C910 H923 0.961 . S
C910 H924 0.961 1_556 S
C911 C908 1.539 . S
C911 H925 0.958 . S
C911 H926 0.961 . S
C911 H927 0.960 . S
H912 C896 0.931 . S
H913 C901 0.929 . S
H914 C902 0.960 . S
H915 C902 0.962 . S
H916 C902 0.960 . S
H917 C903 0.961 . S
H918 C903 0.961 . S
H919 C903 0.961 . S
H920 C904 0.931 . S
H921 C909 0.930 . S
H922 C910 0.956 . S
H923 C910 0.961 . S
H924 C910 0.961 1_554 S
H925 C911 0.958 . S
H926 C911 0.961 . S
H927 C911 0.960 . S
C928 C929 1.391 . S
C928 C930 1.394 . S
C928 H944 0.931 . S
C929 C928 1.391 . S
C929 C933 1.376 . S
C930 C928 1.394 . S
C930 C931 1.369 . S
C930 C934 1.531 1_554 S
C931 C930 1.369 . S
C931 C932 1.410 . S
C931 C939 1.503 1_554 S
C932 C931 1.410 . S
C932 C933 1.392 . S
C932 C935 1.511 . S
C933 C929 1.376 . S
C933 C932 1.392 . S
C933 H945 0.929 . S
C934 C930 1.531 1_556 S
C934 H946 0.960 . S
C934 H947 0.962 . S
C934 H948 0.958 1_556 S
C935 C932 1.511 . S
C935 H949 0.961 . S
C935 H950 0.961 . S
C935 H951 0.961 . S
C936 C937 1.370 . S
C936 C938 1.363 . S
C936 H952 0.931 . S
C937 C936 1.370 . S
C937 C941 1.408 . S
C938 C936 1.363 . S
C938 C939 1.370 . S
C938 C942 1.524 . S
C939 C931 1.503 1_556 S
C939 C938 1.370 . S
C939 C940 1.403 . S
C940 C939 1.403 . S
C940 C941 1.404 . S
C940 C943 1.519 1_556 S
C941 C937 1.408 . S
C941 C940 1.404 . S
C941 H953 0.930 . S
C942 C938 1.524 . S
C942 H954 0.956 . S
C942 H955 0.961 . S
C942 H956 0.961 . S
C943 C940 1.519 1_554 S
C943 H957 0.954 1_554 S
C943 H958 0.959 1_554 S
C943 H959 0.988 . S
H944 C928 0.931 . S
H945 C933 0.929 . S
H946 C934 0.960 . S
H947 C934 0.962 . S
H948 C934 0.958 1_554 S
H949 C935 0.961 . S
H950 C935 0.961 . S
H951 C935 0.961 . S
H952 C936 0.931 . S
H953 C941 0.930 . S
H954 C942 0.956 . S
H955 C942 0.961 . S
H956 C942 0.961 . S
H957 C943 0.954 1_556 S
H958 C943 0.959 1_556 S
H959 C943 0.988 . S
C960 C961 1.391 . S
C960 C962 1.394 . S
C960 H976 0.931 . S
C961 C960 1.391 . S
C961 C965 1.376 . S
C962 C960 1.394 . S
C962 C963 1.369 . S
C962 C966 1.531 . S
C963 C962 1.369 . S
C963 C964 1.410 . S
C963 C971 1.503 . S
C964 C963 1.410 . S
C964 C965 1.392 . S
C964 C967 1.511 . S
C965 C961 1.376 . S
C965 C964 1.392 . S
C965 H977 0.929 . S
C966 C962 1.531 . S
C966 H978 0.960 . S
C966 H979 0.962 . S
C966 H980 0.960 . S
C967 C964 1.511 . S
C967 H981 0.961 . S
C967 H982 0.961 . S
C967 H983 0.961 . S
C968 C969 1.370 . S
C968 C970 1.363 . S
C968 H984 0.931 . S
C969 C968 1.370 . S
C969 C973 1.408 . S
C970 C968 1.363 . S
C970 C971 1.370 . S
C970 C974 1.524 . S
C971 C963 1.503 . S
C971 C970 1.370 . S
C971 C972 1.403 . S
C972 C971 1.403 . S
C972 C973 1.404 . S
C972 C975 1.539 . S
C973 C969 1.408 . S
C973 C972 1.404 . S
C973 H985 0.930 . S
C974 C970 1.524 . S
C974 H986 0.956 . S
C974 H987 0.961 . S
C974 H988 0.961 . S
C975 C972 1.539 . S
C975 H989 0.958 . S
C975 H990 0.961 . S
C975 H991 0.960 . S
H976 C960 0.931 . S
H977 C965 0.929 . S
H978 C966 0.960 . S
H979 C966 0.962 . S
H980 C966 0.960 . S
H981 C967 0.961 . S
H982 C967 0.961 . S
H983 C967 0.961 . S
H984 C968 0.931 . S
H985 C973 0.930 . S
H986 C974 0.956 . S
H987 C974 0.961 . S
H988 C974 0.961 . S
H989 C975 0.958 . S
H990 C975 0.961 . S
H991 C975 0.960 . S
C992 C993 1.391 . S
C992 C994 1.394 . S
C992 H1008 0.931 . S
C993 C992 1.391 . S
C993 C997 1.376 . S
C994 C992 1.394 . S
C994 C995 1.369 . S
C994 C998 1.531 . S
C995 C994 1.369 . S
C995 C996 1.410 . S
C995 C1003 1.503 . S
C996 C995 1.410 . S
C996 C997 1.392 . S
C996 C999 1.511 . S
C997 C993 1.376 . S
C997 C996 1.392 . S
C997 H1009 0.929 . S
C998 C994 1.531 . S
C998 H1010 0.960 . S
C998 H1011 0.962 . S
C998 H1012 0.960 . S
C999 C996 1.511 . S
C999 H1013 0.961 . S
C999 H1014 0.961 . S
C999 H1015 0.961 . S
C1000 C1001 1.370 . S
C1000 C1002 1.363 . S
C1000 H1016 0.931 . S
C1001 C1000 1.370 . S
C1001 C1005 1.408 . S
C1002 C1000 1.363 . S
C1002 C1003 1.370 . S
C1002 C1006 1.524 . S
C1003 C995 1.503 . S
C1003 C1002 1.370 . S
C1003 C1004 1.403 . S
C1004 C1003 1.403 . S
C1004 C1005 1.404 . S
C1004 C1007 1.539 . S
C1005 C1001 1.408 . S
C1005 C1004 1.404 . S
C1005 H1017 0.930 . S
C1006 C1002 1.524 . S
C1006 H1018 0.956 . S
C1006 H1019 0.961 . S
C1006 H1020 0.961 . S
C1007 C1004 1.539 . S
C1007 H1021 0.958 . S
C1007 H1022 0.961 . S
C1007 H1023 0.960 . S
H1008 C992 0.931 . S
H1009 C997 0.929 . S
H1010 C998 0.960 . S
H1011 C998 0.962 . S
H1012 C998 0.960 . S
H1013 C999 0.961 . S
H1014 C999 0.961 . S
H1015 C999 0.961 . S
H1016 C1000 0.931 . S
H1017 C1005 0.930 . S
H1018 C1006 0.956 . S
H1019 C1006 0.961 . S
H1020 C1006 0.961 . S
H1021 C1007 0.958 . S
H1022 C1007 0.961 . S
H1023 C1007 0.960 . S
C1024 C1025 1.391 . S
C1024 C1026 1.394 . S
C1024 H1040 0.931 . S
C1025 C1024 1.391 . S
C1025 C1029 1.376 . S
C1026 C1024 1.394 . S
C1026 C1027 1.369 . S
C1026 C1030 1.531 1_655 S
C1027 C1026 1.369 . S
C1027 C1028 1.410 . S
C1027 C1035 1.503 1_655 S
C1028 C1027 1.410 . S
C1028 C1029 1.392 . S
C1028 C1031 1.511 . S
C1029 C1025 1.376 . S
C1029 C1028 1.392 . S
C1029 H1041 0.929 . S
C1030 C1026 1.531 1_455 S
C1030 H1042 0.960 . S
C1030 H1043 0.962 . S
C1030 H1044 0.960 . S
C1031 C1028 1.511 . S
C1031 H1045 0.961 . S
C1031 H1046 0.961 . S
C1031 H1047 0.961 . S
C1032 C1033 1.370 . S
C1032 C1034 1.363 . S
C1032 H1048 0.931 . S
C1033 C1032 1.370 . S
C1033 C1037 1.408 . S
C1034 C1032 1.363 . S
C1034 C1035 1.370 . S
C1034 C1038 1.524 . S
C1035 C1027 1.503 1_455 S
C1035 C1034 1.370 . S
C1035 C1036 1.403 . S
C1036 C1035 1.403 . S
C1036 C1037 1.404 . S
C1036 C1039 1.541 . S
C1037 C1033 1.408 . S
C1037 C1036 1.404 . S
C1037 H1049 0.930 . S
C1038 C1034 1.524 . S
C1038 H1050 0.956 . S
C1038 H1051 0.961 1_455 S
C1038 H1052 0.961 . S
C1039 C1036 1.541 . S
C1039 H1053 0.959 . S
C1039 H1054 0.962 . S
C1039 H1055 0.957 1_455 S
H1040 C1024 0.931 . S
H1041 C1029 0.929 . S
H1042 C1030 0.960 . S
H1043 C1030 0.962 . S
H1044 C1030 0.960 . S
H1045 C1031 0.961 . S
H1046 C1031 0.961 . S
H1047 C1031 0.961 . S
H1048 C1032 0.931 . S
H1049 C1037 0.930 . S
H1050 C1038 0.956 . S
H1051 C1038 0.961 1_655 S
H1052 C1038 0.961 . S
H1053 C1039 0.959 . S
H1054 C1039 0.962 . S
H1055 C1039 0.957 1_655 S
C1056 C1057 1.391 . S
C1056 C1058 1.394 . S
C1056 H1072 0.931 . S
C1057 C1056 1.391 . S
C1057 C1061 1.376 . S
C1058 C1056 1.394 . S
C1058 C1059 1.369 . S
C1058 C1062 1.531 . S
C1059 C1058 1.369 . S
C1059 C1060 1.410 . S
C1059 C1067 1.503 1_655 S
C1060 C1059 1.410 . S
C1060 C1061 1.392 . S
C1060 C1063 1.511 . S
C1061 C1057 1.376 . S
C1061 C1060 1.392 . S
C1061 H1073 0.929 . S
C1062 C1058 1.531 . S
C1062 H1074 0.960 . S
C1062 H1075 0.962 1_655 S
C1062 H1076 0.960 . S
C1063 C1060 1.511 . S
C1063 H1077 0.961 . S
C1063 H1078 0.961 1_655 S
C1063 H1079 0.961 . S
C1064 C1065 1.370 . S
C1064 C1066 1.363 . S
C1064 H1080 0.931 . S
C1065 C1064 1.370 . S
C1065 C1069 1.408 . S
C1066 C1064 1.363 . S
C1066 C1067 1.370 . S
C1066 C1070 1.524 . S
C1067 C1059 1.503 1_455 S
C1067 C1066 1.370 . S
C1067 C1068 1.403 . S
C1068 C1067 1.403 . S
C1068 C1069 1.404 . S
C1068 C1071 1.539 1_455 S
C1069 C1065 1.408 . S
C1069 C1068 1.404 . S
C1069 H1081 0.930 . S
C1070 C1066 1.524 . S
C1070 H1082 0.956 . S
C1070 H1083 0.961 . S
C1070 H1084 0.961 . S
C1071 C1068 1.539 1_655 S
C1071 H1085 0.958 . S
C1071 H1086 0.961 . S
C1071 H1087 0.960 . S
H1072 C1056 0.931 . S
H1073 C1061 0.929 . S
H1074 C1062 0.960 . S
H1075 C1062 0.962 1_455 S
H1076 C1062 0.960 . S
H1077 C1063 0.961 . S
H1078 C1063 0.961 1_455 S
H1079 C1063 0.961 . S
H1080 C1064 0.931 . S
H1081 C1069 0.930 . S
H1082 C1070 0.956 . S
H1083 C1070 0.961 . S
H1084 C1070 0.961 . S
H1085 C1071 0.958 . S
H1086 C1071 0.961 . S
H1087 C1071 0.960 . S
C1088 C1089 1.391 . S
C1088 C1090 1.394 . S
C1088 H1104 0.931 . S
C1089 C1088 1.391 . S
C1089 C1093 1.376 . S
C1090 C1088 1.394 . S
C1090 C1091 1.369 . S
C1090 C1094 1.531 . S
C1091 C1090 1.369 . S
C1091 C1092 1.410 . S
C1091 C1099 1.503 . S
C1092 C1091 1.410 . S
C1092 C1093 1.392 . S
C1092 C1095 1.511 . S
C1093 C1089 1.376 . S
C1093 C1092 1.392 . S
C1093 H1105 0.929 . S
C1094 C1090 1.531 . S
C1094 H1106 0.960 . S
C1094 H1107 0.962 . S
C1094 H1108 0.960 . S
C1095 C1092 1.511 . S
C1095 H1109 0.961 . S
C1095 H1110 0.961 . S
C1095 H1111 0.961 . S
C1096 C1097 1.370 . S
C1096 C1098 1.363 . S
C1096 H1112 0.931 . S
C1097 C1096 1.370 . S
C1097 C1101 1.408 . S
C1098 C1096 1.363 . S
C1098 C1099 1.370 . S
C1098 C1102 1.524 . S
C1099 C1091 1.503 . S
C1099 C1098 1.370 . S
C1099 C1100 1.403 . S
C1100 C1099 1.403 . S
C1100 C1101 1.404 . S
C1100 C1103 1.539 . S
C1101 C1097 1.408 . S
C1101 C1100 1.404 . S
C1101 H1113 0.930 . S
C1102 C1098 1.524 . S
C1102 H1114 0.956 . S
C1102 H1115 0.961 . S
C1102 H1116 0.961 . S
C1103 C1100 1.539 . S
C1103 H1117 0.958 . S
C1103 H1118 0.961 . S
C1103 H1119 0.960 . S
H1104 C1088 0.931 . S
H1105 C1093 0.929 . S
H1106 C1094 0.960 . S
H1107 C1094 0.962 . S
H1108 C1094 0.960 . S
H1109 C1095 0.961 . S
H1110 C1095 0.961 . S
H1111 C1095 0.961 . S
H1112 C1096 0.931 . S
H1113 C1101 0.930 . S
H1114 C1102 0.956 . S
H1115 C1102 0.961 . S
H1116 C1102 0.961 . S
H1117 C1103 0.958 . S
H1118 C1103 0.961 . S
H1119 C1103 0.960 . S
C1120 C1121 1.391 . S
C1120 C1122 1.394 . S
C1120 H1136 0.931 . S
C1121 C1120 1.391 . S
C1121 C1125 1.376 . S
C1122 C1120 1.394 . S
C1122 C1123 1.369 . S
C1122 C1126 1.531 . S
C1123 C1122 1.369 . S
C1123 C1124 1.410 . S
C1123 C1131 1.503 . S
C1124 C1123 1.410 . S
C1124 C1125 1.392 . S
C1124 C1127 1.511 . S
C1125 C1121 1.376 . S
C1125 C1124 1.392 . S
C1125 H1137 0.929 . S
C1126 C1122 1.531 . S
C1126 H1138 0.935 1_545 S
C1126 H1139 0.962 . S
C1126 H1140 0.960 . S
C1127 C1124 1.511 . S
C1127 H1141 0.961 . S
C1127 H1142 0.961 . S
C1127 H1143 0.961 . S
C1128 C1129 1.370 . S
C1128 C1130 1.363 1_565 S
C1128 H1144 0.931 . S
C1129 C1128 1.370 . S
C1129 C1133 1.408 . S
C1130 C1128 1.363 1_545 S
C1130 C1131 1.370 . S
C1130 C1134 1.524 . S
C1131 C1123 1.503 . S
C1131 C1130 1.370 . S
C1131 C1132 1.403 1_545 S
C1132 C1131 1.403 1_565 S
C1132 C1133 1.404 . S
C1132 C1135 1.539 . S
C1133 C1129 1.408 . S
C1133 C1132 1.404 . S
C1133 H1145 0.930 . S
C1134 C1130 1.524 . S
C1134 H1146 0.956 . S
C1134 H1147 0.961 . S
C1134 H1148 0.961 . S
C1135 C1132 1.539 . S
C1135 H1149 0.958 . S
C1135 H1150 0.961 . S
C1135 H1151 0.960 . S
H1136 C1120 0.931 . S
H1137 C1125 0.929 . S
H1138 C1126 0.935 1_565 S
H1139 C1126 0.962 . S
H1140 C1126 0.960 . S
H1141 C1127 0.961 . S
H1142 C1127 0.961 . S
H1143 C1127 0.961 . S
H1144 C1128 0.931 . S
H1145 C1133 0.930 . S
H1146 C1134 0.956 . S
H1147 C1134 0.961 . S
H1148 C1134 0.961 . S
H1149 C1135 0.958 . S
H1150 C1135 0.961 . S
H1151 C1135 0.960 . S
C1152 C1153 1.391 . S
C1152 C1154 1.394 . S
C1152 H1168 0.931 . S
C1153 C1152 1.391 . S
C1153 C1157 1.376 . S
C1154 C1152 1.394 . S
C1154 C1155 1.369 . S
C1154 C1158 1.531 . S
C1155 C1154 1.369 . S
C1155 C1156 1.410 . S
C1155 C1163 1.503 . S
C1156 C1155 1.410 . S
C1156 C1157 1.392 . S
C1156 C1159 1.511 . S
C1157 C1153 1.376 . S
C1157 C1156 1.392 . S
C1157 H1169 0.929 . S
C1158 C1154 1.531 . S
C1158 H1170 0.960 . S
C1158 H1171 0.962 . S
C1158 H1172 0.960 . S
C1159 C1156 1.511 . S
C1159 H1173 0.961 . S
C1159 H1174 0.961 . S
C1159 H1175 0.961 . S
C1160 C1161 1.370 . S
C1160 C1162 1.363 . S
C1160 H1176 0.931 . S
C1161 C1160 1.370 . S
C1161 C1165 1.408 . S
C1162 C1160 1.363 . S
C1162 C1163 1.370 . S
C1162 C1166 1.524 . S
C1163 C1155 1.503 . S
C1163 C1162 1.370 . S
C1163 C1164 1.403 . S
C1164 C1163 1.403 . S
C1164 C1165 1.404 . S
C1164 C1167 1.539 . S
C1165 C1161 1.408 . S
C1165 C1164 1.404 . S
C1165 H1177 0.930 . S
C1166 C1162 1.524 . S
C1166 H1178 0.956 . S
C1166 H1179 0.961 . S
C1166 H1180 0.961 . S
C1167 C1164 1.539 . S
C1167 H1181 0.958 . S
C1167 H1182 0.961 . S
C1167 H1183 0.960 . S
H1168 C1152 0.931 . S
H1169 C1157 0.929 . S
H1170 C1158 0.960 . S
H1171 C1158 0.962 . S
H1172 C1158 0.960 . S
H1173 C1159 0.961 . S
H1174 C1159 0.961 . S
H1175 C1159 0.961 . S
H1176 C1160 0.931 . S
H1177 C1165 0.930 . S
H1178 C1166 0.956 . S
H1179 C1166 0.961 . S
H1180 C1166 0.961 . S
H1181 C1167 0.958 . S
H1182 C1167 0.961 . S
H1183 C1167 0.960 . S
C1184 C1185 1.391 . S
C1184 C1186 1.394 . S
C1184 H1200 0.931 . S
C1185 C1184 1.391 . S
C1185 C1189 1.376 . S
C1186 C1184 1.394 . S
C1186 C1187 1.369 . S
C1186 C1190 1.531 . S
C1187 C1186 1.369 . S
C1187 C1188 1.410 . S
C1187 C1195 1.503 1_554 S
C1188 C1187 1.410 . S
C1188 C1189 1.392 . S
C1188 C1191 1.511 1_554 S
C1189 C1185 1.376 . S
C1189 C1188 1.392 . S
C1189 H1201 0.929 . S
C1190 C1186 1.531 . S
C1190 H1202 0.960 . S
C1190 H1203 0.962 . S
C1190 H1204 0.960 . S
C1191 C1188 1.511 1_556 S
C1191 H1205 0.961 . S
C1191 H1206 0.961 . S
C1191 H1207 0.961 . S
C1192 C1193 1.370 . S
C1192 C1194 1.363 . S
C1192 H1208 0.931 . S
C1193 C1192 1.370 . S
C1193 C1197 1.408 . S
C1194 C1192 1.363 . S
C1194 C1195 1.370 . S
C1194 C1198 1.524 1_556 S
C1195 C1187 1.503 1_556 S
C1195 C1194 1.370 . S
C1195 C1196 1.403 . S
C1196 C1195 1.403 . S
C1196 C1197 1.404 . S
C1196 C1199 1.539 . S
C1197 C1193 1.408 . S
C1197 C1196 1.404 . S
C1197 H1209 0.930 . S
C1198 C1194 1.524 1_554 S
C1198 H1210 0.956 . S
C1198 H1211 0.961 . S
C1198 H1212 0.961 . S
C1199 C1196 1.539 . S
C1199 H1213 0.958 . S
C1199 H1214 0.961 . S
C1199 H1215 0.960 . S
H1200 C1184 0.931 . S
H1201 C1189 0.929 . S
H1202 C1190 0.960 . S
H1203 C1190 0.962 . S
H1204 C1190 0.960 . S
H1205 C1191 0.961 . S
H1206 C1191 0.961 . S
H1207 C1191 0.961 . S
H1208 C1192 0.931 . S
H1209 C1197 0.930 . S
H1210 C1198 0.956 . S
H1211 C1198 0.961 . S
H1212 C1198 0.961 . S
H1213 C1199 0.958 . S
H1214 C1199 0.961 . S
H1215 C1199 0.960 . S
C1216 C1217 1.391 . S
C1216 C1218 1.394 . S
C1216 H1232 0.931 . S
C1217 C1216 1.391 . S
C1217 C1221 1.376 . S
C1218 C1216 1.394 . S
C1218 C1219 1.369 . S
C1218 C1222 1.531 . S
C1219 C1218 1.369 . S
C1219 C1220 1.410 . S
C1219 C1227 1.503 1_556 S
C1220 C1219 1.410 . S
C1220 C1221 1.392 . S
C1220 C1223 1.511 1_556 S
C1221 C1217 1.376 . S
C1221 C1220 1.392 . S
C1221 H1233 0.929 . S
C1222 C1218 1.531 . S
C1222 H1234 0.960 . S
C1222 H1235 0.962 . S
C1222 H1236 0.960 . S
C1223 C1220 1.511 1_554 S
C1223 H1237 0.961 . S
C1223 H1238 0.961 . S
C1223 H1239 0.961 . S
C1224 C1225 1.370 . S
C1224 C1226 1.363 . S
C1224 H1240 0.931 . S
C1225 C1224 1.370 . S
C1225 C1229 1.408 . S
C1226 C1224 1.363 . S
C1226 C1227 1.370 . S
C1226 C1230 1.524 . S
C1227 C1219 1.503 1_554 S
C1227 C1226 1.370 . S
C1227 C1228 1.403 . S
C1228 C1227 1.403 . S
C1228 C1229 1.404 . S
C1228 C1231 1.539 1_554 S
C1229 C1225 1.408 . S
C1229 C1228 1.404 . S
C1229 H1241 0.930 . S
C1230 C1226 1.524 . S
C1230 H1242 0.956 . S
C1230 H1243 0.961 . S
C1230 H1244 0.961 . S
C1231 C1228 1.539 1_556 S
C1231 H1245 0.958 . S
C1231 H1246 0.961 . S
C1231 H1247 0.960 . S
H1232 C1216 0.931 . S
H1233 C1221 0.929 . S
H1234 C1222 0.960 . S
H1235 C1222 0.962 . S
H1236 C1222 0.960 . S
H1237 C1223 0.961 . S
H1238 C1223 0.961 . S
H1239 C1223 0.961 . S
H1240 C1224 0.931 . S
H1241 C1229 0.930 . S
H1242 C1230 0.956 . S
H1243 C1230 0.961 . S
H1244 C1230 0.961 . S
H1245 C1231 0.958 . S
H1246 C1231 0.961 . S
H1247 C1231 0.960 . S
C1248 C1249 1.391 . S
C1248 C1250 1.394 . S
C1248 H1264 0.931 . S
C1249 C1248 1.391 . S
C1249 C1253 1.376 . S
C1250 C1248 1.394 . S
C1250 C1251 1.369 . S
C1250 C1254 1.531 . S
C1251 C1250 1.369 . S
C1251 C1252 1.410 . S
C1251 C1259 1.503 . S
C1252 C1251 1.410 . S
C1252 C1253 1.392 . S
C1252 C1255 1.511 . S
C1253 C1249 1.376 . S
C1253 C1252 1.392 . S
C1253 H1265 0.929 . S
C1254 C1250 1.531 . S
C1254 H1266 0.960 . S
C1254 H1267 0.962 . S
C1254 H1268 0.960 . S
C1255 C1252 1.511 . S
C1255 H1269 0.961 . S
C1255 H1270 0.961 . S
C1255 H1271 0.961 . S
C1256 C1257 1.370 . S
C1256 C1258 1.363 . S
C1256 H1272 0.931 . S
C1257 C1256 1.370 . S
C1257 C1261 1.408 . S
C1258 C1256 1.363 . S
C1258 C1259 1.370 . S
C1258 C1262 1.524 . S
C1259 C1251 1.503 . S
C1259 C1258 1.370 . S
C1259 C1260 1.403 . S
C1260 C1259 1.403 . S
C1260 C1261 1.404 . S
C1260 C1263 1.539 . S
C1261 C1257 1.408 . S
C1261 C1260 1.404 . S
C1261 H1273 0.930 . S
C1262 C1258 1.524 . S
C1262 H1274 0.956 . S
C1262 H1275 0.961 . S
C1262 H1276 0.961 . S
C1263 C1260 1.539 . S
C1263 H1277 0.958 . S
C1263 H1278 0.961 . S
C1263 H1279 0.960 . S
H1264 C1248 0.931 . S
H1265 C1253 0.929 . S
H1266 C1254 0.960 . S
H1267 C1254 0.962 . S
H1268 C1254 0.960 . S
H1269 C1255 0.961 . S
H1270 C1255 0.961 . S
H1271 C1255 0.961 . S
H1272 C1256 0.931 . S
H1273 C1261 0.930 . S
H1274 C1262 0.956 . S
H1275 C1262 0.961 . S
H1276 C1262 0.961 . S
H1277 C1263 0.958 . S
H1278 C1263 0.961 . S
H1279 C1263 0.960 . S
C1280 C1281 1.391 . S
C1280 C1282 1.394 . S
C1280 H1296 0.931 . S
C1281 C1280 1.391 . S
C1281 C1285 1.376 . S
C1282 C1280 1.394 . S
C1282 C1283 1.369 . S
C1282 C1286 1.531 . S
C1283 C1282 1.369 . S
C1283 C1284 1.410 . S
C1283 C1291 1.503 . S
C1284 C1283 1.410 . S
C1284 C1285 1.392 . S
C1284 C1287 1.511 . S
C1285 C1281 1.376 . S
C1285 C1284 1.392 . S
C1285 H1297 0.929 . S
C1286 C1282 1.531 . S
C1286 H1298 0.960 . S
C1286 H1299 0.962 . S
C1286 H1300 0.960 . S
C1287 C1284 1.511 . S
C1287 H1301 0.961 . S
C1287 H1302 0.961 . S
C1287 H1303 0.961 . S
C1288 C1289 1.370 . S
C1288 C1290 1.363 . S
C1288 H1304 0.931 . S
C1289 C1288 1.370 . S
C1289 C1293 1.408 . S
C1290 C1288 1.363 . S
C1290 C1291 1.370 . S
C1290 C1294 1.524 . S
C1291 C1283 1.503 . S
C1291 C1290 1.370 . S
C1291 C1292 1.403 . S
C1292 C1291 1.403 . S
C1292 C1293 1.404 . S
C1292 C1295 1.539 . S
C1293 C1289 1.408 . S
C1293 C1292 1.404 . S
C1293 H1305 0.930 . S
C1294 C1290 1.524 . S
C1294 H1306 0.956 . S
C1294 H1307 0.961 . S
C1294 H1308 0.961 . S
C1295 C1292 1.539 . S
C1295 H1309 0.958 . S
C1295 H1310 0.961 . S
C1295 H1311 0.960 . S
H1296 C1280 0.931 . S
H1297 C1285 0.929 . S
H1298 C1286 0.960 . S
H1299 C1286 0.962 . S
H1300 C1286 0.960 . S
H1301 C1287 0.961 . S
H1302 C1287 0.961 . S
H1303 C1287 0.961 . S
H1304 C1288 0.931 . S
H1305 C1293 0.930 . S
H1306 C1294 0.956 . S
H1307 C1294 0.961 . S
H1308 C1294 0.961 . S
H1309 C1295 0.958 . S
H1310 C1295 0.961 . S
H1311 C1295 0.960 . S
C1312 C1313 1.391 . S
C1312 C1314 1.394 . S
C1312 H1328 0.931 . S
C1313 C1312 1.391 . S
C1313 C1317 1.376 . S
C1314 C1312 1.394 . S
C1314 C1315 1.369 . S
C1314 C1318 1.531 1_455 S
C1315 C1314 1.369 . S
C1315 C1316 1.410 . S
C1315 C1323 1.503 1_455 S
C1316 C1315 1.410 . S
C1316 C1317 1.392 . S
C1316 C1319 1.511 . S
C1317 C1313 1.376 . S
C1317 C1316 1.392 . S
C1317 H1329 0.929 . S
C1318 C1314 1.531 1_655 S
C1318 H1330 0.960 . S
C1318 H1331 0.962 . S
C1318 H1332 0.960 . S
C1319 C1316 1.511 . S
C1319 H1333 0.961 . S
C1319 H1334 0.961 . S
C1319 H1335 0.961 . S
C1320 C1321 1.370 . S
C1320 C1322 1.363 . S
C1320 H1336 0.931 . S
C1321 C1320 1.370 . S
C1321 C1325 1.408 . S
C1322 C1320 1.363 . S
C1322 C1323 1.370 . S
C1322 C1326 1.524 . S
C1323 C1315 1.503 1_655 S
C1323 C1322 1.370 . S
C1323 C1324 1.403 . S
C1324 C1323 1.403 . S
C1324 C1325 1.404 . S
C1324 C1327 1.538 1_655 S
C1325 C1321 1.408 . S
C1325 C1324 1.404 . S
C1325 H1337 0.930 . S
C1326 C1322 1.524 . S
C1326 H1338 0.956 . S
C1326 H1339 0.992 . S
C1326 H1340 0.961 . S
C1327 C1324 1.538 1_455 S
C1327 H1341 0.957 1_455 S
C1327 H1342 0.963 . S
C1327 H1343 0.962 . S
H1328 C1312 0.931 . S
H1329 C1317 0.929 . S
H1330 C1318 0.960 . S
H1331 C1318 0.962 . S
H1332 C1318 0.960 . S
H1333 C1319 0.961 . S
H1334 C1319 0.961 . S
H1335 C1319 0.961 . S
H1336 C1320 0.931 . S
H1337 C1325 0.930 . S
H1338 C1326 0.956 . S
H1339 C1326 0.992 . S
H1340 C1326 0.961 . S
H1341 C1327 0.957 1_655 S
H1342 C1327 0.963 . S
H1343 C1327 0.962 . S
C1344 C1345 1.391 . S
C1344 C1346 1.394 . S
C1344 H1360 0.931 . S
C1345 C1344 1.391 . S
C1345 C1349 1.376 . S
C1346 C1344 1.394 . S
C1346 C1347 1.369 . S
C1346 C1350 1.531 . S
C1347 C1346 1.369 . S
C1347 C1348 1.410 . S
C1347 C1355 1.503 1_455 S
C1348 C1347 1.410 . S
C1348 C1349 1.392 . S
C1348 C1351 1.511 1_455 S
C1349 C1345 1.376 . S
C1349 C1348 1.392 . S
C1349 H1361 0.929 . S
C1350 C1346 1.531 . S
C1350 H1362 0.960 . S
C1350 H1363 0.962 . S
C1350 H1364 0.960 . S
C1351 C1348 1.511 1_655 S
C1351 H1365 0.961 1_655 S
C1351 H1366 0.961 . S
C1351 H1367 0.961 . S
C1352 C1353 1.370 . S
C1352 C1354 1.363 . S
C1352 H1368 0.931 . S
C1353 C1352 1.370 . S
C1353 C1357 1.408 . S
C1354 C1352 1.363 . S
C1354 C1355 1.370 . S
C1354 C1358 1.524 . S
C1355 C1347 1.503 1_655 S
C1355 C1354 1.370 . S
C1355 C1356 1.403 . S
C1356 C1355 1.403 . S
C1356 C1357 1.404 . S
C1356 C1359 1.539 . S
C1357 C1353 1.408 . S
C1357 C1356 1.404 . S
C1357 H1369 0.930 . S
C1358 C1354 1.524 . S
C1358 H1370 0.956 1_655 S
C1358 H1371 0.961 1_655 S
C1358 H1372 0.961 . S
C1359 C1356 1.539 . S
C1359 H1373 0.958 . S
C1359 H1374 0.961 . S
C1359 H1375 0.969 . S
H1360 C1344 0.931 . S
H1361 C1349 0.929 . S
H1362 C1350 0.960 . S
H1363 C1350 0.962 . S
H1364 C1350 0.960 . S
H1365 C1351 0.961 1_455 S
H1366 C1351 0.961 . S
H1367 C1351 0.961 . S
H1368 C1352 0.931 . S
H1369 C1357 0.930 . S
H1370 C1358 0.956 1_455 S
H1371 C1358 0.961 1_455 S
H1372 C1358 0.961 . S
H1373 C1359 0.958 . S
H1374 C1359 0.961 . S
H1375 C1359 0.969 . S
C1376 C1377 1.391 . S
C1376 C1378 1.394 . S
C1376 H1392 0.931 . S
C1377 C1376 1.391 . S
C1377 C1381 1.376 . S
C1378 C1376 1.394 . S
C1378 C1379 1.369 . S
C1378 C1382 1.531 . S
C1379 C1378 1.369 . S
C1379 C1380 1.410 . S
C1379 C1387 1.503 . S
C1380 C1379 1.410 . S
C1380 C1381 1.392 . S
C1380 C1383 1.511 . S
C1381 C1377 1.376 . S
C1381 C1380 1.392 . S
C1381 H1393 0.929 . S
C1382 C1378 1.531 . S
C1382 H1394 0.960 . S
C1382 H1395 0.962 . S
C1382 H1396 0.960 . S
C1383 C1380 1.511 . S
C1383 H1397 0.961 . S
C1383 H1398 0.961 . S
C1383 H1399 0.961 . S
C1384 C1385 1.370 . S
C1384 C1386 1.363 . S
C1384 H1400 0.931 . S
C1385 C1384 1.370 . S
C1385 C1389 1.408 . S
C1386 C1384 1.363 . S
C1386 C1387 1.370 . S
C1386 C1390 1.524 . S
C1387 C1379 1.503 . S
C1387 C1386 1.370 . S
C1387 C1388 1.403 . S
C1388 C1387 1.403 . S
C1388 C1389 1.404 . S
C1388 C1391 1.539 . S
C1389 C1385 1.408 . S
C1389 C1388 1.404 . S
C1389 H1401 0.930 . S
C1390 C1386 1.524 . S
C1390 H1402 0.956 . S
C1390 H1403 0.961 . S
C1390 H1404 0.961 . S
C1391 C1388 1.539 . S
C1391 H1405 0.958 . S
C1391 H1406 0.961 . S
C1391 H1407 0.960 . S
H1392 C1376 0.931 . S
H1393 C1381 0.929 . S
H1394 C1382 0.960 . S
H1395 C1382 0.962 . S
H1396 C1382 0.960 . S
H1397 C1383 0.961 . S
H1398 C1383 0.961 . S
H1399 C1383 0.961 . S
H1400 C1384 0.931 . S
H1401 C1389 0.930 . S
H1402 C1390 0.956 . S
H1403 C1390 0.961 . S
H1404 C1390 0.961 . S
H1405 C1391 0.958 . S
H1406 C1391 0.961 . S
H1407 C1391 0.960 . S
C1408 C1409 1.391 . S
C1408 C1410 1.394 . S
C1408 H1424 0.931 . S
C1409 C1408 1.391 . S
C1409 C1413 1.376 . S
C1410 C1408 1.394 . S
C1410 C1411 1.369 . S
C1410 C1414 1.531 . S
C1411 C1410 1.369 . S
C1411 C1412 1.410 . S
C1411 C1419 1.503 . S
C1412 C1411 1.410 . S
C1412 C1413 1.392 . S
C1412 C1415 1.511 . S
C1413 C1409 1.376 . S
C1413 C1412 1.392 . S
C1413 H1425 0.929 . S
C1414 C1410 1.531 . S
C1414 H1426 0.960 . S
C1414 H1427 0.962 . S
C1414 H1428 0.960 . S
C1415 C1412 1.511 . S
C1415 H1429 0.961 . S
C1415 H1430 0.961 . S
C1415 H1431 0.961 . S
C1416 C1417 1.370 . S
C1416 C1418 1.363 . S
C1416 H1432 0.931 . S
C1417 C1416 1.370 . S
C1417 C1421 1.408 . S
C1418 C1416 1.363 . S
C1418 C1419 1.370 . S
C1418 C1422 1.524 . S
C1419 C1411 1.503 . S
C1419 C1418 1.370 . S
C1419 C1420 1.403 . S
C1420 C1419 1.403 . S
C1420 C1421 1.404 . S
C1420 C1423 1.539 . S
C1421 C1417 1.408 . S
C1421 C1420 1.404 . S
C1421 H1433 0.930 . S
C1422 C1418 1.524 . S
C1422 H1434 0.956 . S
C1422 H1435 0.961 . S
C1422 H1436 0.961 . S
C1423 C1420 1.539 . S
C1423 H1437 0.958 . S
C1423 H1438 0.961 . S
C1423 H1439 0.960 . S
H1424 C1408 0.931 . S
H1425 C1413 0.929 . S
H1426 C1414 0.960 . S
H1427 C1414 0.962 . S
H1428 C1414 0.960 . S
H1429 C1415 0.961 . S
H1430 C1415 0.961 . S
H1431 C1415 0.961 . S
H1432 C1416 0.931 . S
H1433 C1421 0.930 . S
H1434 C1422 0.956 . S
H1435 C1422 0.961 . S
H1436 C1422 0.961 . S
H1437 C1423 0.958 . S
H1438 C1423 0.961 . S
H1439 C1423 0.960 . S
C1440 C1441 1.391 . S
C1440 C1442 1.394 . S
C1440 H1456 0.931 . S
C1441 C1440 1.391 . S
C1441 C1445 1.376 . S
C1442 C1440 1.394 . S
C1442 C1443 1.369 . S
C1442 C1446 1.531 . S
C1443 C1442 1.369 . S
C1443 C1444 1.410 . S
C1443 C1451 1.503 1_545 S
C1444 C1443 1.410 . S
C1444 C1445 1.392 . S
C1444 C1447 1.511 1_545 S
C1445 C1441 1.376 . S
C1445 C1444 1.392 . S
C1445 H1457 0.929 . S
C1446 C1442 1.531 . S
C1446 H1458 0.960 . S
C1446 H1459 0.962 . S
C1446 H1460 0.960 . S
C1447 C1444 1.511 1_565 S
C1447 H1461 0.961 . S
C1447 H1462 0.961 . S
C1447 H1463 0.961 . S
C1448 C1449 1.370 . S
C1448 C1450 1.363 . S
C1448 H1464 0.931 . S
C1449 C1448 1.370 . S
C1449 C1453 1.408 . S
C1450 C1448 1.363 . S
C1450 C1451 1.370 . S
C1450 C1454 1.524 . S
C1451 C1443 1.503 1_565 S
C1451 C1450 1.370 . S
C1451 C1452 1.403 . S
C1452 C1451 1.403 . S
C1452 C1453 1.404 . S
C1452 C1455 1.539 . S
C1453 C1449 1.408 . S
C1453 C1452 1.404 . S
C1453 H1465 0.930 . S
C1454 C1450 1.524 . S
C1454 H1466 0.956 . S
C1454 H1467 0.961 . S
C1454 H1468 0.961 . S
C1455 C1452 1.539 . S
C1455 H1469 0.958 1_565 S
C1455 H1470 0.961 . S
C1455 H1471 0.960 1_565 S
H1456 C1440 0.931 . S
H1457 C1445 0.929 . S
H1458 C1446 0.960 . S
H1459 C1446 0.962 . S
H1460 C1446 0.960 . S
H1461 C1447 0.961 . S
H1462 C1447 0.961 . S
H1463 C1447 0.961 . S
H1464 C1448 0.931 . S
H1465 C1453 0.930 . S
H1466 C1454 0.956 . S
H1467 C1454 0.961 . S
H1468 C1454 0.961 . S
H1469 C1455 0.958 1_545 S
H1470 C1455 0.961 . S
H1471 C1455 0.960 1_545 S
C1472 C1473 1.391 . S
C1472 C1474 1.394 . S
C1472 H1488 0.931 . S
C1473 C1472 1.391 . S
C1473 C1477 1.376 . S
C1474 C1472 1.394 . S
C1474 C1475 1.369 . S
C1474 C1478 1.531 . S
C1475 C1474 1.369 . S
C1475 C1476 1.410 . S
C1475 C1483 1.503 . S
C1476 C1475 1.410 . S
C1476 C1477 1.392 . S
C1476 C1479 1.511 . S
C1477 C1473 1.376 . S
C1477 C1476 1.392 . S
C1477 H1489 0.929 . S
C1478 C1474 1.531 . S
C1478 H1490 0.960 . S
C1478 H1491 0.962 . S
C1478 H1492 0.960 . S
C1479 C1476 1.511 . S
C1479 H1493 0.961 . S
C1479 H1494 0.961 . S
C1479 H1495 0.961 . S
C1480 C1481 1.370 . S
C1480 C1482 1.363 . S
C1480 H1496 0.931 . S
C1481 C1480 1.370 . S
C1481 C1485 1.408 . S
C1482 C1480 1.363 . S
C1482 C1483 1.370 . S
C1482 C1486 1.524 . S
C1483 C1475 1.503 . S
C1483 C1482 1.370 . S
C1483 C1484 1.403 . S
C1484 C1483 1.403 . S
C1484 C1485 1.404 . S
C1484 C1487 1.539 . S
C1485 C1481 1.408 . S
C1485 C1484 1.404 . S
C1485 H1497 0.930 . S
C1486 C1482 1.524 . S
C1486 H1498 0.956 . S
C1486 H1499 0.961 . S
C1486 H1500 0.961 . S
C1487 C1484 1.539 . S
C1487 H1501 0.958 . S
C1487 H1502 0.961 . S
C1487 H1503 0.960 . S
H1488 C1472 0.931 . S
H1489 C1477 0.929 . S
H1490 C1478 0.960 . S
H1491 C1478 0.962 . S
H1492 C1478 0.960 . S
H1493 C1479 0.961 . S
H1494 C1479 0.961 . S
H1495 C1479 0.961 . S
H1496 C1480 0.931 . S
H1497 C1485 0.930 . S
H1498 C1486 0.956 . S
H1499 C1486 0.961 . S
H1500 C1486 0.961 . S
H1501 C1487 0.958 . S
H1502 C1487 0.961 . S
H1503 C1487 0.960 . S
C1504 C1505 1.391 . S
C1504 C1506 1.394 . S
C1504 H1520 0.931 . S
C1505 C1504 1.391 . S
C1505 C1509 1.376 . S
C1506 C1504 1.394 . S
C1506 C1507 1.369 . S
C1506 C1510 1.531 . S
C1507 C1506 1.369 . S
C1507 C1508 1.410 . S
C1507 C1515 1.503 . S
C1508 C1507 1.410 . S
C1508 C1509 1.392 . S
C1508 C1511 1.511 . S
C1509 C1505 1.376 . S
C1509 C1508 1.392 . S
C1509 H1521 0.929 . S
C1510 C1506 1.531 . S
C1510 H1522 0.960 . S
C1510 H1523 0.962 . S
C1510 H1524 0.960 . S
C1511 C1508 1.511 . S
C1511 H1525 0.961 . S
C1511 H1526 0.961 . S
C1511 H1527 0.961 . S
C1512 C1513 1.370 . S
C1512 C1514 1.363 . S
C1512 H1528 0.931 . S
C1513 C1512 1.370 . S
C1513 C1517 1.408 . S
C1514 C1512 1.363 . S
C1514 C1515 1.370 . S
C1514 C1518 1.524 . S
C1515 C1507 1.503 . S
C1515 C1514 1.370 . S
C1515 C1516 1.403 . S
C1516 C1515 1.403 . S
C1516 C1517 1.404 . S
C1516 C1519 1.539 . S
C1517 C1513 1.408 . S
C1517 C1516 1.404 . S
C1517 H1529 0.930 . S
C1518 C1514 1.524 . S
C1518 H1530 0.956 . S
C1518 H1531 0.961 . S
C1518 H1532 0.961 . S
C1519 C1516 1.539 . S
C1519 H1533 0.958 . S
C1519 H1534 0.961 . S
C1519 H1535 0.960 . S
H1520 C1504 0.931 . S
H1521 C1509 0.929 . S
H1522 C1510 0.960 . S
H1523 C1510 0.962 . S
H1524 C1510 0.960 . S
H1525 C1511 0.961 . S
H1526 C1511 0.961 . S
H1527 C1511 0.961 . S
H1528 C1512 0.931 . S
H1529 C1517 0.930 . S
H1530 C1518 0.956 . S
H1531 C1518 0.961 . S
H1532 C1518 0.961 . S
H1533 C1519 0.958 . S
H1534 C1519 0.961 . S
H1535 C1519 0.960 . S
C1536 C1537 1.391 . S
C1536 C1538 1.394 . S
C1536 H1552 0.931 . S
C1537 C1536 1.391 . S
C1537 C1541 1.376 . S
C1538 C1536 1.394 . S
C1538 C1539 1.369 . S
C1538 C1542 1.531 1_545 S
C1539 C1538 1.369 . S
C1539 C1540 1.410 . S
C1539 C1547 1.503 1_545 S
C1540 C1539 1.410 . S
C1540 C1541 1.392 . S
C1540 C1543 1.511 . S
C1541 C1537 1.376 . S
C1541 C1540 1.392 . S
C1541 H1553 0.929 . S
C1542 C1538 1.531 1_565 S
C1542 H1554 0.960 . S
C1542 H1555 0.962 . S
C1542 H1556 0.960 1_565 S
C1543 C1540 1.511 . S
C1543 H1557 0.961 . S
C1543 H1558 0.950 1_545 S
C1543 H1559 0.961 . S
C1544 C1545 1.370 . S
C1544 C1546 1.363 . S
C1544 H1560 0.931 . S
C1545 C1544 1.370 . S
C1545 C1549 1.408 . S
C1546 C1544 1.363 . S
C1546 C1547 1.370 . S
C1546 C1550 1.524 . S
C1547 C1539 1.503 1_565 S
C1547 C1546 1.370 . S
C1547 C1548 1.403 . S
C1548 C1547 1.403 . S
C1548 C1549 1.404 . S
C1548 C1551 1.539 1_565 S
C1549 C1545 1.408 . S
C1549 C1548 1.404 . S
C1549 H1561 0.930 . S
C1550 C1546 1.524 . S
C1550 H1562 0.956 . S
C1550 H1563 0.961 . S
C1550 H1564 0.961 . S
C1551 C1548 1.539 1_545 S
C1551 H1565 0.958 . S
C1551 H1566 0.961 . S
C1551 H1567 0.960 . S
H1552 C1536 0.931 . S
H1553 C1541 0.929 . S
H1554 C1542 0.960 . S
H1555 C1542 0.962 . S
H1556 C1542 0.960 1_545 S
H1557 C1543 0.961 . S
H1558 C1543 0.950 1_565 S
H1559 C1543 0.961 . S
H1560 C1544 0.931 . S
H1561 C1549 0.930 . S
H1562 C1550 0.956 . S
H1563 C1550 0.961 . S
H1564 C1550 0.961 . S
H1565 C1551 0.958 . S
H1566 C1551 0.961 . S
H1567 C1551 0.960 . S
C1568 C1569 1.391 . S
C1568 C1570 1.394 . S
C1568 H1584 0.931 . S
C1569 C1568 1.391 . S
C1569 C1573 1.376 . S
C1570 C1568 1.394 . S
C1570 C1571 1.369 . S
C1570 C1574 1.531 . S
C1571 C1570 1.369 . S
C1571 C1572 1.410 . S
C1571 C1579 1.503 . S
C1572 C1571 1.410 . S
C1572 C1573 1.392 . S
C1572 C1575 1.511 . S
C1573 C1569 1.376 . S
C1573 C1572 1.392 . S
C1573 H1585 0.929 . S
C1574 C1570 1.531 . S
C1574 H1586 0.960 . S
C1574 H1587 0.962 . S
C1574 H1588 0.960 . S
C1575 C1572 1.511 . S
C1575 H1589 0.961 . S
C1575 H1590 0.961 . S
C1575 H1591 0.961 . S
C1576 C1577 1.370 . S
C1576 C1578 1.363 . S
C1576 H1592 0.931 . S
C1577 C1576 1.370 . S
C1577 C1581 1.408 . S
C1578 C1576 1.363 . S
C1578 C1579 1.370 . S
C1578 C1582 1.524 . S
C1579 C1571 1.503 . S
C1579 C1578 1.370 . S
C1579 C1580 1.403 . S
C1580 C1579 1.403 . S
C1580 C1581 1.404 . S
C1580 C1583 1.539 . S
C1581 C1577 1.408 . S
C1581 C1580 1.404 . S
C1581 H1593 0.930 . S
C1582 C1578 1.524 . S
C1582 H1594 0.956 . S
C1582 H1595 0.961 . S
C1582 H1596 0.961 . S
C1583 C1580 1.539 . S
C1583 H1597 0.958 . S
C1583 H1598 0.961 . S
C1583 H1599 0.960 . S
H1584 C1568 0.931 . S
H1585 C1573 0.929 . S
H1586 C1574 0.960 . S
H1587 C1574 0.962 . S
H1588 C1574 0.960 . S
H1589 C1575 0.961 . S
H1590 C1575 0.961 . S
H1591 C1575 0.961 . S
H1592 C1576 0.931 . S
H1593 C1581 0.930 . S
H1594 C1582 0.956 . S
H1595 C1582 0.961 . S
H1596 C1582 0.961 . S
H1597 C1583 0.958 . S
H1598 C1583 0.961 . S
H1599 C1583 0.960 . S
C577 C2 1.243 . S
C585 C470 1.244 . S
C609 C38 0.993 . S
C617 C326 0.987 . S
C641 C506 1.032 . S
C649 C74 1.023 . S
C673 C110 1.207 . S
C681 C542 1.221 . S
C705 C146 0.987 . S
C713 C218 0.992 . S
C737 C362 1.241 . S
C745 C182 1.242 . S
C769 C398 1.024 . S
C777 C254 1.028 . S
C801 C290 1.221 . S
C809 C434 1.221 . S
C833 C75 1.630 . S
C841 C14 1.540 . S
C865 C50 1.693 . S
C873 C122 1.641 . S
C897 C435 1.652 . S
C905 C3 1.655 . S
C929 C39 1.728 . S
C937 C400 1.724 . S
C961 C147 1.723 . S
C969 C76 1.724 . S
C993 C363 1.643 . S
C1001 C111 1.651 . S
C1025 C40 1.774 . S
C1033 C4 1.770 . S
C1057 C112 0.956 . S
C1065 C86 0.970 . S
C1089 C364 1.768 . S
C1097 C148 1.786 . S
C1121 C256 1.679 . S
C1129 C183 1.673 . S
C1153 C219 1.258 . S
C1161 C292 1.270 . S
C1185 C543 1.695 . S
C1193 C194 1.554 . S
C1217 C230 1.335 . S
C1225 C507 1.475 . S
C1249 C338 1.403 . S
C1257 C255 1.460 . S
C1281 C291 1.686 . S
C1289 C482 1.571 . S
C1313 C220 1.688 . S
C1321 C184 1.697 . S
C1345 C302 1.670 . S
C1353 C266 1.718 . S
C1377 C328 1.686 . S
C1385 C472 1.698 . S
C1409 C374 1.554 . S
C1417 C399 1.632 . S
C1441 C446 1.624 . S
C1449 C158 1.667 . S
C1473 C436 0.954 . S
C1481 C410 0.971 . S
C1505 C508 1.676 . S
C1513 C471 1.674 . S
C1537 C327 1.255 . S
C1545 C544 1.271 . S
C1569 C554 1.721 . S
C1577 C518 1.737 . S
