# Generated by pormake.
# Topology ukt, (4)-cn, num edge types: 1
# Building blocks:
#     Node 0, Type 0, BuildingBlock: KUFVIS_clean_sbu_0, # of connection points: 4
#     Node 1, Type 0, BuildingBlock: KUFVIS_clean_sbu_0, # of connection points: 4
#     Node 2, Type 0, BuildingBlock: KUFVIS_clean_sbu_0, # of connection points: 4
#     Node 3, Type 0, BuildingBlock: KUFVIS_clean_sbu_0, # of connection points: 4
#     Node 4, Type 0, BuildingBlock: KUFVIS_clean_sbu_0, # of connection points: 4
#     Node 5, Type 0, BuildingBlock: KUFVIS_clean_sbu_0, # of connection points: 4
#     Node 6, Type 0, BuildingBlock: KUFVIS_clean_sbu_0, # of connection points: 4
#     Node 7, Type 0, BuildingBlock: KUFVIS_clean_sbu_0, # of connection points: 4
#     Node 8, Type 0, BuildingBlock: KUFVIS_clean_sbu_0, # of connection points: 4
#     Node 9, Type 0, BuildingBlock: KUFVIS_clean_sbu_0, # of connection points: 4
#     Node 10, Type 0, BuildingBlock: KUFVIS_clean_sbu_0, # of connection points: 4
#     Node 11, Type 0, BuildingBlock: KUFVIS_clean_sbu_0, # of connection points: 4
#     Node 12, Type 0, BuildingBlock: KUFVIS_clean_sbu_0, # of connection points: 4
#     Node 13, Type 0, BuildingBlock: KUFVIS_clean_sbu_0, # of connection points: 4
#     Node 14, Type 0, BuildingBlock: KUFVIS_clean_sbu_0, # of connection points: 4
#     Node 15, Type 0, BuildingBlock: KUFVIS_clean_sbu_0, # of connection points: 4
#     Edge 16, Type (0, 0), BuildingBlock: CIFDUS_clean_linker_0, # of connection points: 2
#     Edge 17, Type (0, 0), BuildingBlock: CIFDUS_clean_linker_0, # of connection points: 2
#     Edge 18, Type (0, 0), BuildingBlock: CIFDUS_clean_linker_0, # of connection points: 2
#     Edge 19, Type (0, 0), BuildingBlock: CIFDUS_clean_linker_0, # of connection points: 2
#     Edge 20, Type (0, 0), BuildingBlock: CIFDUS_clean_linker_0, # of connection points: 2
#     Edge 21, Type (0, 0), BuildingBlock: CIFDUS_clean_linker_0, # of connection points: 2
#     Edge 22, Type (0, 0), BuildingBlock: CIFDUS_clean_linker_0, # of connection points: 2
#     Edge 23, Type (0, 0), BuildingBlock: CIFDUS_clean_linker_0, # of connection points: 2
#     Edge 24, Type (0, 0), BuildingBlock: CIFDUS_clean_linker_0, # of connection points: 2
#     Edge 25, Type (0, 0), BuildingBlock: CIFDUS_clean_linker_0, # of connection points: 2
#     Edge 26, Type (0, 0), BuildingBlock: CIFDUS_clean_linker_0, # of connection points: 2
#     Edge 27, Type (0, 0), BuildingBlock: CIFDUS_clean_linker_0, # of connection points: 2
#     Edge 28, Type (0, 0), BuildingBlock: CIFDUS_clean_linker_0, # of connection points: 2
#     Edge 29, Type (0, 0), BuildingBlock: CIFDUS_clean_linker_0, # of connection points: 2
#     Edge 30, Type (0, 0), BuildingBlock: CIFDUS_clean_linker_0, # of connection points: 2
#     Edge 31, Type (0, 0), BuildingBlock: CIFDUS_clean_linker_0, # of connection points: 2
#     Edge 32, Type (0, 0), BuildingBlock: CIFDUS_clean_linker_0, # of connection points: 2
#     Edge 33, Type (0, 0), BuildingBlock: CIFDUS_clean_linker_0, # of connection points: 2
#     Edge 34, Type (0, 0), BuildingBlock: CIFDUS_clean_linker_0, # of connection points: 2
#     Edge 35, Type (0, 0), BuildingBlock: CIFDUS_clean_linker_0, # of connection points: 2
#     Edge 36, Type (0, 0), BuildingBlock: CIFDUS_clean_linker_0, # of connection points: 2
#     Edge 37, Type (0, 0), BuildingBlock: CIFDUS_clean_linker_0, # of connection points: 2
#     Edge 38, Type (0, 0), BuildingBlock: CIFDUS_clean_linker_0, # of connection points: 2
#     Edge 39, Type (0, 0), BuildingBlock: CIFDUS_clean_linker_0, # of connection points: 2
#     Edge 40, Type (0, 0), BuildingBlock: CIFDUS_clean_linker_0, # of connection points: 2
#     Edge 41, Type (0, 0), BuildingBlock: CIFDUS_clean_linker_0, # of connection points: 2
#     Edge 42, Type (0, 0), BuildingBlock: CIFDUS_clean_linker_0, # of connection points: 2
#     Edge 43, Type (0, 0), BuildingBlock: CIFDUS_clean_linker_0, # of connection points: 2
#     Edge 44, Type (0, 0), BuildingBlock: CIFDUS_clean_linker_0, # of connection points: 2
#     Edge 45, Type (0, 0), BuildingBlock: CIFDUS_clean_linker_0, # of connection points: 2
#     Edge 46, Type (0, 0), BuildingBlock: CIFDUS_clean_linker_0, # of connection points: 2
#     Edge 47, Type (0, 0), BuildingBlock: CIFDUS_clean_linker_0, # of connection points: 2
# Relax obj value: 0.283
# Max RMSD: 0.185
# Mean RMSD: 0.185
data_MOF--net-ukt--node1-KUFVIS_clean_sbu_0--edge1-CIFDUS_clean_linker_0
_symmetry_space_group_name_H-M    P1
_symmetry_Int_Tables_number       1
_symmetry_cell_setting            triclinic
loop_
_symmetry_equiv_pos_as_xyz
'x, y, z'
_cell_length_a     36.691064
_cell_length_b     36.690811
_cell_length_c     30.737739
_cell_angle_alpha  90.108403
_cell_angle_beta   90.043549
_cell_angle_gamma 89.966835
loop_
_atom_site_label
_atom_site_type_symbol
_atom_site_fract_x
_atom_site_fract_y
_atom_site_fract_z
_atom_type_partial_charge
Mn0 Mn 0.56639 0.12295 0.09017 0.0
Mn1 Mn 0.63346 0.14805 0.15969 0.0
C2 C 0.62489 0.10219 0.07922 0.0
C3 C 0.52179 0.08273 0.06582 0.0
C4 C 0.61174 0.19385 0.08331 0.0
O5 O 0.53711 0.14741 0.1389 0.0
O6 O 0.58501 0.16632 0.17844 0.0
C7 C 0.60654 0.09922 0.22916 0.0
N8 N 0.6338 0.10988 0.20196 0.0
C9 C 0.67296 0.06178 0.2274 0.0
C10 C 0.64535 0.05035 0.25578 0.0
C11 C 0.612 0.06918 0.25667 0.0
C12 C 0.66587 0.09177 0.20061 0.0
H13 H 0.58077 0.11342 0.22974 0.0
C14 C 0.55088 0.16559 0.17034 0.0
O15 O 0.52234 0.11644 0.05291 0.0
O16 O 0.54359 0.07417 0.09744 0.0
N17 N 0.68249 0.13358 0.14748 0.0
C18 C 0.70812 0.15201 0.12417 0.0
C19 C 0.7438 0.13824 0.12175 0.0
C20 C 0.75309 0.10651 0.14475 0.0
C21 C 0.7269 0.08956 0.17106 0.0
C22 C 0.69185 0.10466 0.17223 0.0
H23 H 0.70115 0.17674 0.10703 0.0
O24 O 0.60061 0.10006 0.04899 0.0
O25 O 0.61349 0.11359 0.11721 0.0
O26 O 0.58454 0.17389 0.07209 0.0
O27 O 0.63354 0.18623 0.11472 0.0
C28 C 0.73443 0.05889 0.19706 0.0
C29 C 0.70733 0.04478 0.22488 0.0
H30 H 0.64951 0.02727 0.27714 0.0
H31 H 0.59054 0.06051 0.27845 0.0
H32 H 0.76406 0.15206 0.10225 0.0
H33 H 0.78061 0.09594 0.14283 0.0
H34 H 0.76112 0.04627 0.19638 0.0
H35 H 0.71348 0.02131 0.24492 0.0
Mn36 Mn 0.37303 0.55876 0.07968 0.0
Mn37 Mn 0.33647 0.62862 0.13729 0.0
C38 C 0.38935 0.61773 0.06356 0.0
C39 C 0.41832 0.51631 0.0661 0.0
C40 C 0.29826 0.59342 0.06131 0.0
O41 O 0.34805 0.53181 0.12945 0.0
O42 O 0.32462 0.58075 0.16356 0.0
C43 C 0.38524 0.61852 0.21308 0.0
N44 N 0.37156 0.64028 0.18116 0.0
C45 C 0.40927 0.69048 0.20391 0.0
C46 C 0.42369 0.66867 0.23717 0.0
C47 C 0.41163 0.63252 0.24173 0.0
C48 C 0.38328 0.67494 0.17617 0.0
H49 H 0.37615 0.59068 0.21653 0.0
C50 C 0.32841 0.54634 0.15898 0.0
O51 O 0.38586 0.51254 0.04979 0.0
O52 O 0.42277 0.54179 0.09499 0.0
N53 N 0.34376 0.67734 0.11707 0.0
C54 C 0.32335 0.69611 0.08754 0.0
C55 C 0.3303 0.73328 0.08054 0.0
C56 C 0.35731 0.75106 0.105 0.0
C57 C 0.37635 0.73173 0.13712 0.0
C58 C 0.36803 0.69478 0.14279 0.0
H59 H 0.30212 0.68269 0.06916 0.0
O60 O 0.39551 0.59147 0.03654 0.0
O61 O 0.37586 0.60862 0.10133 0.0
O62 O 0.32249 0.56907 0.05401 0.0
O63 O 0.30087 0.61776 0.09113 0.0
C64 C 0.40276 0.74782 0.16429 0.0
C65 C 0.41951 0.72707 0.1973 0.0
H66 H 0.44391 0.67942 0.25944 0.0
H67 H 0.42266 0.6155 0.26728 0.0
H68 H 0.31488 0.74816 0.05634 0.0
H69 H 0.36271 0.7797 0.0994 0.0
H70 H 0.41022 0.77618 0.16029 0.0
H71 H 0.43999 0.73966 0.2176 0.0
Mn72 Mn 0.94232 0.36907 0.10368 0.0
Mn73 Mn 0.87221 0.34106 0.16668 0.0
C74 C 0.88468 0.39128 0.09108 0.0
C75 C 0.9874 0.40985 0.08483 0.0
C76 C 0.89669 0.2995 0.08796 0.0
O77 O 0.96939 0.342 0.15169 0.0
O78 O 0.91979 0.32156 0.18673 0.0
C79 C 0.89608 0.38567 0.24184 0.0
N80 N 0.87007 0.37673 0.21205 0.0
C81 C 0.82972 0.42321 0.23927 0.0
C82 C 0.85604 0.43285 0.27032 0.0
C83 C 0.88936 0.41398 0.27161 0.0
C84 C 0.83805 0.39493 0.2103 0.0
H85 H 0.92181 0.37141 0.24278 0.0
C86 C 0.95422 0.32251 0.18075 0.0
O87 O 0.98759 0.37682 0.0695 0.0
O88 O 0.9651 0.41668 0.11657 0.0
N89 N 0.82382 0.35645 0.15258 0.0
C90 C 0.79928 0.3396 0.12596 0.0
C91 C 0.76378 0.35362 0.12243 0.0
C92 C 0.75347 0.38391 0.1476 0.0
C93 C 0.77842 0.3991 0.17709 0.0
C94 C 0.81336 0.38384 0.17921 0.0
H95 H 0.807 0.31595 0.1071 0.0
O96 O 0.91021 0.39471 0.06261 0.0
O97 O 0.89428 0.37762 0.12867 0.0
O98 O 0.9245 0.31963 0.08012 0.0
O99 O 0.87383 0.30551 0.11874 0.0
C100 C 0.7697 0.42814 0.20524 0.0
C101 C 0.79547 0.4404 0.23608 0.0
H102 H 0.8509 0.45458 0.29343 0.0
H103 H 0.90982 0.42127 0.29546 0.0
H104 H 0.74443 0.34111 0.1004 0.0
H105 H 0.72608 0.3947 0.14481 0.0
H106 H 0.74313 0.44093 0.20375 0.0
H107 H 0.78847 0.4627 0.25763 0.0
Mn108 Mn 0.12301 0.93873 0.11012 0.0
Mn109 Mn 0.1479 0.86061 0.1605 0.0
C110 C 0.10653 0.88363 0.08064 0.0
C111 C 0.07879 0.98322 0.09843 0.0
C112 C 0.19711 0.90032 0.09798 0.0
O113 O 0.14416 0.95812 0.16737 0.0
O114 O 0.15954 0.90399 0.19637 0.0
C115 C 0.09062 0.86739 0.22773 0.0
N116 N 0.10656 0.84795 0.1951 0.0
C117 C 0.06062 0.80131 0.19958 0.0
C118 C 0.0438 0.82075 0.23339 0.0
C119 C 0.0589 0.8539 0.24755 0.0
C120 C 0.0921 0.81615 0.18103 0.0
H121 H 0.1019 0.8931 0.23832 0.0
C122 C 0.15883 0.93878 0.19713 0.0
O123 O 0.11228 0.98827 0.08583 0.0
O124 O 0.07282 0.95542 0.12319 0.0
N125 N 0.13963 0.81537 0.13109 0.0
C126 C 0.16229 0.79761 0.10302 0.0
C127 C 0.1527 0.76282 0.08763 0.0
C128 C 0.12054 0.74619 0.10237 0.0
C129 C 0.09887 0.76405 0.13337 0.0
C130 C 0.11008 0.79851 0.1478 0.0
H131 H 0.18728 0.81017 0.09208 0.0
O132 O 0.1037 0.91324 0.05853 0.0
O133 O 0.11563 0.88726 0.1215 0.0
O134 O 0.17568 0.92736 0.09026 0.0
O135 O 0.18923 0.8735 0.12305 0.0
C136 C 0.06699 0.74879 0.15113 0.0
C137 C 0.04764 0.7676 0.18388 0.0
H138 H 0.01941 0.81038 0.24884 0.0
H139 H 0.04605 0.86908 0.27358 0.0
H140 H 0.17001 0.74891 0.06443 0.0
H141 H 0.11308 0.71948 0.09022 0.0
H142 H 0.05734 0.72241 0.14021 0.0
H143 H 0.02332 0.75545 0.19756 0.0
Mn144 Mn 0.55447 0.36909 0.40759 0.0
Mn145 Mn 0.62537 0.34286 0.34445 0.0
C146 C 0.61228 0.38915 0.42386 0.0
C147 C 0.5105 0.41226 0.42539 0.0
C148 C 0.59777 0.29746 0.41907 0.0
O149 O 0.52822 0.34324 0.35737 0.0
O150 O 0.57809 0.3267 0.31971 0.0
C151 C 0.60592 0.39375 0.27351 0.0
N152 N 0.63046 0.38166 0.30346 0.0
C153 C 0.67289 0.42904 0.2845 0.0
C154 C 0.64815 0.44189 0.25329 0.0
C155 C 0.61452 0.42414 0.24777 0.0
C156 C 0.66275 0.39873 0.30926 0.0
H157 H 0.5799 0.38041 0.26948 0.0
C158 C 0.54366 0.32656 0.32583 0.0
O159 O 0.50878 0.37936 0.44103 0.0
O160 O 0.53362 0.41762 0.39426 0.0
N161 N 0.67362 0.35539 0.36278 0.0
C162 C 0.6966 0.3358 0.38863 0.0
C163 C 0.73219 0.34853 0.396 0.0
C164 C 0.74419 0.38046 0.37536 0.0
C165 C 0.7209 0.39863 0.34641 0.0
C166 C 0.68581 0.3845 0.34027 0.0
H167 H 0.68754 0.31101 0.4041 0.0
O168 O 0.58591 0.39307 0.45101 0.0
O169 O 0.60332 0.37712 0.38523 0.0
O170 O 0.57097 0.31838 0.42957 0.0
O171 O 0.62045 0.30428 0.38831 0.0
C172 C 0.73138 0.42964 0.3226 0.0
C173 C 0.70727 0.44502 0.29189 0.0
H174 H 0.65471 0.46528 0.23333 0.0
H175 H 0.59524 0.43394 0.22383 0.0
H176 H 0.75027 0.3338 0.41755 0.0
H177 H 0.7716 0.3903 0.38121 0.0
H178 H 0.75808 0.44159 0.3273 0.0
H179 H 0.71569 0.46878 0.27362 0.0
Mn180 Mn 0.12716 0.55982 0.39235 0.0
Mn181 Mn 0.16905 0.62904 0.33964 0.0
C182 C 0.11597 0.61904 0.41287 0.0
C183 C 0.07797 0.52184 0.40434 0.0
C184 C 0.20442 0.58735 0.41247 0.0
O185 O 0.14956 0.53313 0.3405 0.0
O186 O 0.17733 0.58155 0.31039 0.0
C187 C 0.11993 0.62575 0.26336 0.0
N188 N 0.13511 0.6451 0.29659 0.0
C189 C 0.10064 0.69858 0.27768 0.0
C190 C 0.08466 0.67925 0.24319 0.0
C191 C 0.09439 0.64269 0.23599 0.0
C192 C 0.12576 0.68021 0.30397 0.0
H193 H 0.12712 0.59755 0.258 0.0
C194 C 0.17061 0.54742 0.31226 0.0
O195 O 0.10996 0.51414 0.42002 0.0
O196 O 0.07618 0.54807 0.37615 0.0
N197 N 0.16506 0.67714 0.36324 0.0
C198 C 0.1857 0.69281 0.39509 0.0
C199 C 0.18059 0.72979 0.40533 0.0
C200 C 0.15518 0.75054 0.38179 0.0
C201 C 0.13572 0.73429 0.34757 0.0
C202 C 0.14216 0.69738 0.33874 0.0
H203 H 0.20557 0.67705 0.41294 0.0
O204 O 0.1079 0.59218 0.43807 0.0
O205 O 0.12826 0.61069 0.37423 0.0
O206 O 0.17844 0.56458 0.41799 0.0
O207 O 0.20358 0.61352 0.38493 0.0
C208 C 0.11038 0.75329 0.32169 0.0
C209 C 0.09257 0.7353 0.2871 0.0
H210 H 0.06486 0.69215 0.22211 0.0
H211 H 0.08213 0.62757 0.20949 0.0
H212 H 0.19617 0.74225 0.43131 0.0
H213 H 0.15115 0.779 0.38992 0.0
H214 H 0.10439 0.78172 0.32806 0.0
H215 H 0.0728 0.75001 0.26791 0.0
Mn216 Mn 0.94413 0.12466 0.41934 0.0
Mn217 Mn 0.87334 0.16039 0.36307 0.0
C218 C 0.88546 0.10998 0.43868 0.0
C219 C 0.98593 0.07893 0.43316 0.0
C220 C 0.91127 0.20046 0.43575 0.0
O221 O 0.97005 0.14693 0.36712 0.0
O222 O 0.92063 0.1706 0.33435 0.0
C223 C 0.88083 0.10937 0.28892 0.0
N224 N 0.86007 0.1243 0.32106 0.0
C225 C 0.80885 0.08669 0.3017 0.0
C226 C 0.82962 0.071 0.26827 0.0
C227 C 0.86578 0.08239 0.26188 0.0
C228 C 0.82538 0.11329 0.32775 0.0
H229 H 0.90869 0.11791 0.28409 0.0
C230 C 0.95503 0.16579 0.33728 0.0
O231 O 0.99091 0.11179 0.44785 0.0
O232 O 0.95952 0.07416 0.40563 0.0
N233 N 0.82517 0.15421 0.38563 0.0
C234 C 0.80771 0.17496 0.41601 0.0
C235 C 0.77079 0.16833 0.42511 0.0
C236 C 0.75191 0.14124 0.40194 0.0
C237 C 0.76993 0.12164 0.36914 0.0
C238 C 0.80667 0.12965 0.36137 0.0
H239 H 0.82199 0.19615 0.4335 0.0
O240 O 0.91231 0.10462 0.46507 0.0
O241 O 0.8937 0.12183 0.39985 0.0
O242 O 0.93562 0.17624 0.44288 0.0
O243 O 0.88591 0.19718 0.4073 0.0
C244 C 0.7528 0.09475 0.34356 0.0
C245 C 0.7724 0.07701 0.3102 0.0
H246 H 0.8181 0.05022 0.24732 0.0
H247 H 0.88201 0.07036 0.23621 0.0
H248 H 0.75694 0.18403 0.44995 0.0
H249 H 0.7235 0.13606 0.4092 0.0
H250 H 0.72457 0.08755 0.34918 0.0
H251 H 0.75914 0.05609 0.29113 0.0
Mn252 Mn 0.37777 0.92815 0.41386 0.0
Mn253 Mn 0.35321 0.85181 0.35904 0.0
C254 C 0.40225 0.87291 0.4339 0.0
C255 C 0.41779 0.97579 0.42733 0.0
C256 C 0.3086 0.88306 0.43231 0.0
O257 O 0.35093 0.94963 0.36151 0.0
O258 O 0.33495 0.89664 0.32984 0.0
C259 C 0.4012 0.86621 0.28365 0.0
N260 N 0.39017 0.84376 0.31631 0.0
C261 C 0.43413 0.79816 0.29582 0.0
C262 C 0.44586 0.82071 0.26181 0.0
C263 C 0.42933 0.85489 0.25573 0.0
C264 C 0.40606 0.81094 0.32264 0.0
H265 H 0.38866 0.89256 0.27903 0.0
C266 C 0.33423 0.93144 0.33223 0.0
O267 O 0.3846 0.97661 0.44215 0.0
O268 O 0.42522 0.95073 0.3989 0.0
N269 N 0.36723 0.80545 0.38205 0.0
C270 C 0.35048 0.78572 0.41385 0.0
C271 C 0.36237 0.7501 0.42269 0.0
C272 C 0.39077 0.73479 0.39806 0.0
C273 C 0.40662 0.75509 0.36439 0.0
C274 C 0.39331 0.79031 0.35679 0.0
H275 H 0.32831 0.79717 0.4325 0.0
O276 O 0.40351 0.90087 0.45932 0.0
O277 O 0.38856 0.87834 0.3951 0.0
O278 O 0.32825 0.91146 0.43896 0.0
O279 O 0.31584 0.85876 0.40368 0.0
C280 C 0.43503 0.74175 0.338 0.0
C281 C 0.44913 0.76348 0.30416 0.0
H282 H 0.46747 0.81203 0.24014 0.0
H283 H 0.43826 0.87247 0.22959 0.0
H284 H 0.3497 0.73448 0.44842 0.0
H285 H 0.40005 0.70741 0.40517 0.0
H286 H 0.44627 0.71483 0.34346 0.0
H287 H 0.47128 0.75307 0.28445 0.0
Mn288 Mn 0.41982 0.87128 0.90886 0.0
Mn289 Mn 0.33784 0.85009 0.86517 0.0
C290 C 0.36705 0.89389 0.93982 0.0
C291 C 0.46783 0.91178 0.9187 0.0
C292 C 0.37756 0.80038 0.92696 0.0
O293 O 0.43558 0.84809 0.85068 0.0
O294 O 0.37902 0.83483 0.82808 0.0
C295 C 0.34462 0.90407 0.79429 0.0
N296 N 0.32544 0.89005 0.82826 0.0
C297 C 0.27843 0.93525 0.82005 0.0
C298 C 0.29775 0.95027 0.78505 0.0
C299 C 0.33094 0.93455 0.77206 0.0
C300 C 0.29364 0.90514 0.84124 0.0
H301 H 0.37028 0.89221 0.78448 0.0
C302 C 0.41362 0.83326 0.82358 0.0
O303 O 0.4709 0.87778 0.93019 0.0
O304 O 0.43985 0.92002 0.89495 0.0
N305 N 0.2943 0.86183 0.89639 0.0
C306 C 0.2778 0.84219 0.92844 0.0
C307 C 0.24328 0.85282 0.94359 0.0
C308 C 0.22565 0.88296 0.92489 0.0
C309 C 0.24243 0.90174 0.89061 0.0
C310 C 0.27666 0.88957 0.87657 0.0
H311 H 0.291 0.81865 0.94245 0.0
O312 O 0.39729 0.89327 0.96111 0.0
O313 O 0.36843 0.88282 0.89953 0.0
O314 O 0.40633 0.81998 0.93097 0.0
O315 O 0.34976 0.8095 0.90418 0.0
C316 C 0.22648 0.9319 0.86964 0.0
C317 C 0.2447 0.94896 0.83478 0.0
H318 H 0.28732 0.97379 0.76781 0.0
H319 H 0.34595 0.94596 0.74503 0.0
H320 H 0.23032 0.83787 0.96966 0.0
H321 H 0.19916 0.89126 0.93689 0.0
H322 H 0.20023 0.94222 0.88007 0.0
H323 H 0.2323 0.97233 0.81919 0.0
Mn324 Mn 0.64169 0.42745 0.9188 0.0
Mn325 Mn 0.67161 0.35539 0.85996 0.0
C326 C 0.62163 0.36987 0.93536 0.0
C327 C 0.59905 0.4722 0.93392 0.0
C328 C 0.71317 0.38573 0.93612 0.0
O329 O 0.66698 0.45296 0.86822 0.0
O330 O 0.68809 0.40252 0.83517 0.0
C331 C 0.624 0.37212 0.78473 0.0
N332 N 0.63532 0.34844 0.81602 0.0
C333 C 0.59105 0.30378 0.79362 0.0
C334 C 0.579 0.32763 0.76103 0.0
C335 C 0.59559 0.36193 0.75655 0.0
C336 C 0.6194 0.31546 0.82074 0.0
H337 H 0.63643 0.39864 0.78146 0.0
C338 C 0.68592 0.43713 0.83903 0.0
O339 O 0.63191 0.47426 0.9496 0.0
O340 O 0.5931 0.44747 0.90457 0.0
N341 N 0.65925 0.30731 0.87874 0.0
C342 C 0.67748 0.2858 0.90762 0.0
C343 C 0.66583 0.24981 0.91442 0.0
C344 C 0.63636 0.23591 0.89041 0.0
C345 C 0.61952 0.25785 0.85893 0.0
C346 C 0.63255 0.29342 0.85341 0.0
H347 H 0.70044 0.29625 0.92577 0.0
O348 O 0.61799 0.39639 0.9626 0.0
O349 O 0.63464 0.37809 0.89705 0.0
O350 O 0.69198 0.41296 0.943 0.0
O351 O 0.70786 0.36168 0.90646 0.0
C352 C 0.59062 0.24571 0.83246 0.0
C353 C 0.57606 0.26889 0.80028 0.0
H354 H 0.55714 0.31984 0.73921 0.0
H355 H 0.58642 0.38052 0.73153 0.0
H356 H 0.67949 0.2329 0.93817 0.0
H357 H 0.6273 0.20821 0.8959 0.0
H358 H 0.57946 0.2186 0.83646 0.0
H359 H 0.55342 0.25952 0.78077 0.0
Mn360 Mn 0.04985 0.62927 0.9181 0.0
Mn361 Mn 0.12271 0.66732 0.8684 0.0
C362 C 0.10743 0.61864 0.94426 0.0
C363 C 0.01036 0.5814 0.93073 0.0
C364 C 0.07946 0.7061 0.93736 0.0
O365 O 0.02645 0.64858 0.86249 0.0
O366 O 0.07654 0.67642 0.83697 0.0
C367 C 0.11956 0.61688 0.79313 0.0
N368 N 0.13852 0.63177 0.82688 0.0
C369 C 0.19165 0.59615 0.8094 0.0
C370 C 0.17273 0.58054 0.77438 0.0
C371 C 0.13649 0.5909 0.76629 0.0
C372 C 0.1732 0.62157 0.83536 0.0
H373 H 0.09172 0.62475 0.78673 0.0
C374 C 0.04257 0.66912 0.83525 0.0
O375 O 0.00219 0.61438 0.94288 0.0
O376 O 0.0383 0.57766 0.90526 0.0
N377 N 0.17019 0.66214 0.89351 0.0
C378 C 0.18622 0.68369 0.92424 0.0
C379 C 0.22304 0.67822 0.93497 0.0
C380 C 0.24338 0.65156 0.91289 0.0
C381 C 0.22696 0.63135 0.87944 0.0
C382 C 0.19017 0.63808 0.87018 0.0
H383 H 0.17087 0.70467 0.94075 0.0
O384 O 0.07907 0.61236 0.96782 0.0
O385 O 0.10169 0.62842 0.90397 0.0
O386 O 0.05443 0.68191 0.94047 0.0
O387 O 0.1073 0.70316 0.91236 0.0
C388 C 0.24593 0.60553 0.85413 0.0
C389 C 0.22823 0.58779 0.81927 0.0
H390 H 0.18579 0.56071 0.75338 0.0
H391 H 0.12168 0.57897 0.73933 0.0
H392 H 0.23572 0.69453 0.96014 0.0
H393 H 0.27172 0.64731 0.92132 0.0
H394 H 0.27429 0.59949 0.86082 0.0
H395 H 0.24319 0.56823 0.79978 0.0
Mn396 Mn 0.87438 0.07185 0.91648 0.0
Mn397 Mn 0.84194 0.14223 0.85643 0.0
C398 C 0.89443 0.13018 0.92987 0.0
C399 C 0.9186 0.02841 0.93241 0.0
C400 C 0.80282 0.11352 0.9353 0.0
O401 O 0.84689 0.04469 0.86814 0.0
O402 O 0.82516 0.09441 0.83415 0.0
C403 C 0.88665 0.12375 0.7793 0.0
N404 N 0.87662 0.14814 0.81054 0.0
C405 C 0.91899 0.19271 0.78347 0.0
C406 C 0.92969 0.16812 0.75091 0.0
C407 C 0.91345 0.13348 0.74886 0.0
C408 C 0.89235 0.18139 0.81309 0.0
H409 H 0.87435 0.09706 0.77768 0.0
C410 C 0.82717 0.05992 0.83908 0.0
O411 O 0.88625 0.02664 0.94955 0.0
O412 O 0.9229 0.05144 0.90088 0.0
N413 N 0.8546 0.19096 0.87276 0.0
C414 C 0.83695 0.21334 0.90129 0.0
C415 C 0.84851 0.2496 0.90612 0.0
C416 C 0.87704 0.26294 0.88022 0.0
C417 C 0.89298 0.24016 0.84886 0.0
C418 C 0.88032 0.20424 0.84565 0.0
H419 H 0.81458 0.20335 0.9207 0.0
O420 O 0.89958 0.10438 0.95757 0.0
O421 O 0.88017 0.12074 0.89256 0.0
O422 O 0.82466 0.08683 0.94249 0.0
O423 O 0.80718 0.13693 0.90476 0.0
C424 C 0.92025 0.25196 0.81989 0.0
C425 C 0.93349 0.22813 0.78748 0.0
H426 H 0.9502 0.1756 0.72722 0.0
H427 H 0.92157 0.11434 0.72384 0.0
H428 H 0.83539 0.26723 0.92963 0.0
H429 H 0.88586 0.29094 0.88396 0.0
H430 H 0.93092 0.27943 0.82193 0.0
H431 H 0.95448 0.2375 0.76544 0.0
Mn432 Mn 0.43632 0.62129 0.59302 0.0
Mn433 Mn 0.35417 0.64915 0.62661 0.0
C434 C 0.3852 0.60721 0.55045 0.0
C435 C 0.47769 0.57342 0.59361 0.0
C436 C 0.41071 0.69761 0.5816 0.0
O437 O 0.44664 0.64594 0.65342 0.0
O438 O 0.39008 0.63669 0.67194 0.0
C439 C 0.3294 0.58359 0.67439 0.0
N440 N 0.32355 0.60938 0.64332 0.0
C441 C 0.26425 0.58478 0.62709 0.0
C442 C 0.26964 0.55804 0.65898 0.0
C443 C 0.30239 0.55741 0.68265 0.0
C444 C 0.29218 0.61013 0.6202 0.0
H445 H 0.35445 0.58304 0.69285 0.0
C446 C 0.41969 0.65376 0.67812 0.0
O447 O 0.48773 0.60598 0.58183 0.0
O448 O 0.44626 0.57076 0.61233 0.0
N449 N 0.31767 0.65938 0.58356 0.0
C450 C 0.31655 0.68685 0.55374 0.0
C451 C 0.28576 0.69089 0.52704 0.0
C452 C 0.25612 0.66708 0.53166 0.0
C453 C 0.2574 0.63962 0.56328 0.0
C454 C 0.28892 0.63679 0.58888 0.0
H455 H 0.33899 0.70548 0.54997 0.0
O456 O 0.41767 0.60157 0.53608 0.0
O457 O 0.38322 0.61753 0.59051 0.0
O458 O 0.43297 0.67296 0.56884 0.0
O459 O 0.3837 0.69141 0.60706 0.0
C460 C 0.22884 0.61462 0.56998 0.0
C461 C 0.23229 0.58719 0.6018 0.0
H462 H 0.24884 0.53784 0.66552 0.0
H463 H 0.30675 0.53685 0.70731 0.0
H464 H 0.28494 0.71226 0.50282 0.0
H465 H 0.23267 0.66999 0.51054 0.0
H466 H 0.20429 0.61595 0.55045 0.0
H467 H 0.21026 0.56794 0.60639 0.0
Mn468 Mn 0.87027 0.44784 0.57981 0.0
Mn469 Mn 0.83282 0.37289 0.62594 0.0
C470 C 0.88471 0.39091 0.55369 0.0
C471 C 0.91746 0.48895 0.57192 0.0
C472 C 0.79555 0.41614 0.55533 0.0
O473 O 0.84657 0.46978 0.63406 0.0
O474 O 0.8218 0.41786 0.65903 0.0
C475 C 0.8812 0.37476 0.70308 0.0
N476 N 0.86744 0.35646 0.66815 0.0
C477 C 0.90352 0.30344 0.6847 0.0
C478 C 0.91801 0.32169 0.7209 0.0
C479 C 0.90684 0.35752 0.73008 0.0
C480 C 0.87841 0.32217 0.65868 0.0
H481 H 0.87274 0.40231 0.71021 0.0
C482 C 0.8269 0.45222 0.66103 0.0
O483 O 0.8852 0.49604 0.55656 0.0
O484 O 0.92033 0.46123 0.59783 0.0
N485 N 0.83957 0.32626 0.59902 0.0
C486 C 0.81913 0.31078 0.56684 0.0
C487 C 0.82527 0.27429 0.55505 0.0
C488 C 0.85149 0.25368 0.57742 0.0
C489 C 0.87058 0.26948 0.61219 0.0
C490 C 0.86312 0.30594 0.62258 0.0
H491 H 0.7985 0.32631 0.55003 0.0
O492 O 0.89151 0.4198 0.53136 0.0
O493 O 0.87228 0.39585 0.5931 0.0
O494 O 0.81941 0.44151 0.5527 0.0
O495 O 0.79803 0.38885 0.5812 0.0
C496 C 0.89607 0.25023 0.6376 0.0
C497 C 0.91276 0.26731 0.6736 0.0
H498 H 0.93766 0.30844 0.74191 0.0
H499 H 0.91791 0.37179 0.75795 0.0
H500 H 0.80982 0.26207 0.5288 0.0
H501 H 0.85633 0.22561 0.56809 0.0
H502 H 0.90274 0.22217 0.63001 0.0
H503 H 0.93228 0.25219 0.69284 0.0
Mn504 Mn 0.0725 0.85882 0.58778 0.0
Mn505 Mn 0.14112 0.82911 0.65213 0.0
C506 C 0.13061 0.88028 0.5769 0.0
C507 C 0.02767 0.90028 0.56942 0.0
C508 C 0.11673 0.78816 0.5728 0.0
O509 O 0.04428 0.83236 0.63522 0.0
O510 O 0.09289 0.81076 0.67139 0.0
C511 C 0.11739 0.87429 0.72687 0.0
N512 N 0.14355 0.86469 0.69759 0.0
C513 C 0.18439 0.91058 0.72508 0.0
C514 C 0.15794 0.92088 0.75564 0.0
C515 C 0.12431 0.90261 0.75656 0.0
C516 C 0.17592 0.88223 0.69629 0.0
H517 H 0.09138 0.86056 0.72745 0.0
C518 C 0.05857 0.81266 0.66471 0.0
O519 O 0.02758 0.86757 0.55311 0.0
O520 O 0.05039 0.90673 0.60087 0.0
N521 N 0.18996 0.84342 0.63883 0.0
C522 C 0.21436 0.82618 0.61242 0.0
C523 C 0.25015 0.83952 0.60938 0.0
C524 C 0.26083 0.86956 0.63477 0.0
C525 C 0.23592 0.88521 0.66395 0.0
C526 C 0.20071 0.87057 0.66565 0.0
H527 H 0.20633 0.80277 0.59333 0.0
O528 O 0.10573 0.88398 0.54758 0.0
O529 O 0.12021 0.86634 0.61398 0.0
O530 O 0.08963 0.80909 0.56425 0.0
O531 O 0.13924 0.79355 0.60413 0.0
C532 C 0.24481 0.91427 0.69199 0.0
C533 C 0.21886 0.92725 0.72212 0.0
H534 H 0.16323 0.94266 0.77864 0.0
H535 H 0.10374 0.91041 0.78002 0.0
H536 H 0.26943 0.8267 0.58754 0.0
H537 H 0.2884 0.87987 0.63227 0.0
H538 H 0.27158 0.92666 0.69088 0.0
H539 H 0.22574 0.9499 0.74309 0.0
Mn540 Mn 0.63315 0.06834 0.59088 0.0
Mn541 Mn 0.65771 0.14091 0.65248 0.0
C542 C 0.61253 0.12542 0.57279 0.0
C543 C 0.59177 0.02313 0.572 0.0
C544 C 0.7054 0.11041 0.58133 0.0
O545 O 0.65649 0.04357 0.6435 0.0
O546 O 0.67227 0.09421 0.68043 0.0
C547 C 0.60425 0.12543 0.72211 0.0
N548 N 0.61801 0.14858 0.6917 0.0
C549 C 0.57169 0.19326 0.70709 0.0
C550 C 0.55714 0.17 0.73877 0.0
C551 C 0.57354 0.13596 0.74635 0.0
C552 C 0.60241 0.18136 0.68413 0.0
H553 H 0.6165 0.09907 0.7276 0.0
C554 C 0.67212 0.05959 0.67537 0.0
O555 O 0.62552 0.02141 0.55921 0.0
O556 O 0.58406 0.04754 0.60111 0.0
N557 N 0.64671 0.18849 0.6308 0.0
C558 C 0.66655 0.20917 0.60263 0.0
C559 C 0.65502 0.24476 0.59296 0.0
C560 C 0.62385 0.25907 0.6133 0.0
C561 C 0.60504 0.23793 0.64392 0.0
C562 C 0.61807 0.20279 0.65252 0.0
H563 H 0.69068 0.19835 0.58718 0.0
O564 O 0.61123 0.09888 0.54528 0.0
O565 O 0.62387 0.11747 0.61196 0.0
O566 O 0.6845 0.08371 0.57104 0.0
O567 O 0.69786 0.13399 0.61084 0.0
C568 C 0.57386 0.2503 0.66621 0.0
C569 C 0.55686 0.22773 0.69725 0.0
H570 H 0.53342 0.17799 0.75747 0.0
H571 H 0.5624 0.11782 0.77066 0.0
H572 H 0.67003 0.26107 0.56978 0.0
H573 H 0.61483 0.2864 0.60548 0.0
H574 H 0.56271 0.27708 0.65969 0.0
H575 H 0.53252 0.23728 0.71358 0.0
H576 H 0.57409 0.21946 0.013 0.0
H577 H 0.66659 0.24297 0.09574 0.0
H578 H 0.67884 0.29811 0.05463 0.0
H579 H 0.66208 0.34098 0.99752 0.0
H580 H 0.56989 0.31921 0.91478 0.0
H581 H 0.55849 0.2618 0.95371 0.0
C582 C 0.59693 0.2366 0.0221 0.0
C583 C 0.61914 0.22712 0.05776 0.0
C584 C 0.60388 0.26843 0.99833 0.0
C585 C 0.64882 0.24959 0.06874 0.0
C586 C 0.65594 0.28117 0.04523 0.0
C587 C 0.63992 0.32319 0.98764 0.0
C588 C 0.61756 0.33315 0.95267 0.0
C589 C 0.63352 0.29091 0.0103 0.0
C590 C 0.58808 0.31104 0.94077 0.0
C591 C 0.58143 0.2786 0.96328 0.0
H592 H 0.16637 0.57568 0.93045 0.0
H593 H 0.12441 0.66281 0.01023 0.0
H594 H 0.17991 0.66255 0.05405 0.0
H595 H 0.23963 0.63755 0.06969 0.0
H596 H 0.28269 0.54988 0.99094 0.0
H597 H 0.22758 0.55057 0.94629 0.0
C598 C 0.16992 0.59484 0.95704 0.0
C599 C 0.14241 0.62008 0.96648 0.0
C600 C 0.20175 0.59424 0.98235 0.0
C601 C 0.14604 0.64387 0.002 0.0
C602 C 0.17755 0.64361 0.02708 0.0
C603 C 0.23714 0.61851 0.04281 0.0
C604 C 0.26524 0.59366 0.03384 0.0
C605 C 0.20553 0.61892 0.01753 0.0
C606 C 0.26138 0.56925 0.99875 0.0
C607 C 0.22988 0.56955 0.9732 0.0
H608 H 0.85091 0.15627 0.99047 0.0
H609 H 0.9435 0.18399 0.91124 0.0
H610 H 0.95195 0.24061 0.95315 0.0
H611 H 0.9349 0.27933 0.01557 0.0
H612 H 0.84232 0.24925 0.09486 0.0
H613 H 0.83158 0.19635 0.04904 0.0
C614 C 0.87233 0.17528 0.98174 0.0
C615 C 0.89584 0.16708 0.94721 0.0
C616 C 0.8772 0.20689 0.00622 0.0
C617 C 0.92446 0.19077 0.93694 0.0
C618 C 0.92945 0.22273 0.96115 0.0
C619 C 0.91235 0.26126 0.02284 0.0
C620 C 0.88982 0.26805 0.05908 0.0
C621 C 0.90631 0.23068 0.9964 0.0
C622 C 0.86039 0.24458 0.06756 0.0
C623 C 0.85413 0.21431 0.04135 0.0
H624 H 0.34512 0.85817 0.00937 0.0
H625 H 0.31754 0.9487 0.92684 0.0
H626 H 0.26329 0.96138 0.97155 0.0
H627 H 0.2219 0.9432 0.0313 0.0
H628 H 0.25192 0.85216 0.11317 0.0
H629 H 0.30708 0.8431 0.07134 0.0
C630 C 0.32702 0.88058 1.00121 0.0
C631 C 0.33383 0.90152 0.96416 0.0
C632 C 0.29648 0.88751 0.02685 0.0
C633 C 0.31151 0.93141 0.95444 0.0
C634 C 0.28089 0.93879 0.98018 0.0
C635 C 0.24075 0.92174 0.04036 0.0
C636 C 0.23242 0.89819 0.07507 0.0
C637 C 0.27271 0.91648 0.01601 0.0
C638 C 0.25725 0.8705 0.08635 0.0
C639 C 0.28893 0.86522 0.06249 0.0
H640 H 0.55912 0.27183 0.48907 0.0
H641 H 0.65373 0.24943 0.40934 0.0
H642 H 0.66814 0.19681 0.45343 0.0
H643 H 0.65321 0.15558 0.51234 0.0
H644 H 0.55786 0.17397 0.59079 0.0
H645 H 0.54441 0.22998 0.54973 0.0
C646 C 0.5828 0.2554 0.48127 0.0
C647 C 0.60511 0.2647 0.44569 0.0
C648 C 0.59098 0.22466 0.5067 0.0
C649 C 0.63585 0.24308 0.43628 0.0
C650 C 0.64428 0.21291 0.46155 0.0
C651 C 0.62989 0.17238 0.52089 0.0
C652 C 0.6073 0.16195 0.5553 0.0
C653 C 0.62202 0.20343 0.49658 0.0
C654 C 0.57631 0.18266 0.56534 0.0
C655 C 0.56846 0.21425 0.54154 0.0
H656 H 0.32772 0.56164 0.55203 0.0
H657 H 0.37653 0.65008 0.48091 0.0
H658 H 0.32557 0.65022 0.42959 0.0
H659 H 0.26603 0.62761 0.40803 0.0
H660 H 0.2162 0.53917 0.4791 0.0
H661 H 0.26897 0.53629 0.5273 0.0
C662 C 0.32684 0.58086 0.52526 0.0
C663 C 0.35461 0.6066 0.52053 0.0
C664 C 0.29762 0.58062 0.49596 0.0
C665 C 0.35458 0.63064 0.4852 0.0
C666 C 0.32566 0.63065 0.45597 0.0
C667 C 0.26663 0.60754 0.43389 0.0
C668 C 0.23704 0.58391 0.44016 0.0
C669 C 0.29676 0.60618 0.46154 0.0
C670 C 0.23857 0.55784 0.47362 0.0
C671 C 0.26873 0.5561 0.50119 0.0
H672 H 0.92806 0.33211 0.56732 0.0
H673 H 0.84314 0.3751 0.48514 0.0
H674 H 0.84487 0.32036 0.44 0.0
H675 H 0.86944 0.26038 0.42491 0.0
H676 H 0.95444 0.21593 0.50644 0.0
H677 H 0.95368 0.2711 0.55107 0.0
C678 C 0.90975 0.32897 0.53984 0.0
C679 C 0.88454 0.35646 0.53022 0.0
C680 C 0.9111 0.29752 0.51385 0.0
C681 C 0.86194 0.35342 0.49357 0.0
C682 C 0.86306 0.32236 0.46771 0.0
C683 C 0.88792 0.26263 0.45235 0.0
C684 C 0.91189 0.23402 0.46228 0.0
C685 C 0.88735 0.29419 0.47773 0.0
C686 C 0.93573 0.23762 0.49793 0.0
C687 C 0.93536 0.26914 0.5235 0.0
H688 H 0.16129 0.83667 0.51968 0.0
H689 H 0.1814 0.93241 0.59708 0.0
H690 H 0.23975 0.94197 0.55914 0.0
H691 H 0.28301 0.92409 0.50076 0.0
H692 H 0.25984 0.82777 0.42403 0.0
H693 H 0.20487 0.8172 0.46538 0.0
C694 C 0.17898 0.8591 0.52892 0.0
C695 C 0.16817 0.88308 0.5619 0.0
C696 C 0.21164 0.86448 0.50679 0.0
C697 C 0.19018 0.91298 0.57266 0.0
C698 C 0.22317 0.91859 0.55067 0.0
C699 C 0.26595 0.9008 0.49316 0.0
C700 C 0.27557 0.87708 0.45892 0.0
C701 C 0.23393 0.8947 0.51718 0.0
C702 C 0.25324 0.84677 0.44987 0.0
C703 C 0.22168 0.84055 0.47353 0.0
H704 H 0.42031 0.77574 0.9938 0.0
H705 H 0.33056 0.74502 0.91017 0.0
H706 H 0.32648 0.68634 0.94602 0.0
H707 H 0.3482 0.64337 1.00024 0.0
H708 H 0.43622 0.67263 0.08607 0.0
H709 H 0.44164 0.73224 0.04992 0.0
C710 C 0.40003 0.75611 0.98332 0.0
C711 C 0.3759 0.76481 0.94924 0.0
C712 C 0.39755 0.72224 0.00435 0.0
C713 C 0.34945 0.7392 0.93636 0.0
C714 C 0.34709 0.70553 0.95672 0.0
C715 C 0.36828 0.6631 0.01121 0.0
C716 C 0.39095 0.65469 0.0464 0.0
C717 C 0.37092 0.69683 0.99063 0.0
C718 C 0.41774 0.67949 0.05983 0.0
C719 C 0.42098 0.71323 0.03895 0.0
H720 H 0.7346 0.42847 0.00466 0.0
H721 H 0.76393 0.33171 0.93187 0.0
H722 H 0.81733 0.32349 0.97724 0.0
H723 H 0.85781 0.34555 0.03348 0.0
H724 H 0.8315 0.44217 0.10658 0.0
H725 H 0.77453 0.44896 0.06485 0.0
C726 C 0.75263 0.40557 0.99874 0.0
C727 C 0.74532 0.38101 0.96451 0.0
C728 C 0.78364 0.40095 0.02494 0.0
C729 C 0.76887 0.35128 0.95763 0.0
C730 C 0.79946 0.34643 0.9836 0.0
C731 C 0.83898 0.3674 0.04122 0.0
C732 C 0.84765 0.39244 0.07403 0.0
C733 C 0.80722 0.37126 0.01687 0.0
C734 C 0.82434 0.42189 0.08239 0.0
C735 C 0.79217 0.42592 0.05824 0.0
H736 H 0.12869 0.76066 0.94356 0.0
H737 H 0.02669 0.72316 0.9975 0.0
H738 H 0.02675 0.7741 0.04883 0.0
H739 H 0.05615 0.8297 0.07835 0.0
H740 H 0.15807 0.86557 0.0236 0.0
H741 H 0.15775 0.81466 0.97253 0.0
C742 C 0.10628 0.76353 0.96631 0.0
C743 C 0.07772 0.7381 0.9665 0.0
C744 C 0.10667 0.79244 0.99585 0.0
C745 C 0.049 0.74244 0.99642 0.0
C746 C 0.04902 0.7715 0.02589 0.0
C747 C 0.0785 0.82564 0.05576 0.0
C748 C 0.1079 0.84995 0.05571 0.0
C749 C 0.07785 0.79655 0.02606 0.0
C750 C 0.13595 0.84604 0.02505 0.0
C751 C 0.13559 0.81726 0.99565 0.0
H752 H 0.65525 0.15113 0.02809 0.0
H753 H 0.67689 0.04992 0.09375 0.0
H754 H 0.73578 0.04488 0.05574 0.0
H755 H 0.77863 0.068 0.9999 0.0
H756 H 0.75418 0.16959 0.93476 0.0
H757 H 0.69907 0.17614 0.97745 0.0
C758 C 0.67342 0.12856 0.03508 0.0
C759 C 0.66278 0.10167 0.06472 0.0
C760 C 0.70646 0.12581 0.01292 0.0
C761 C 0.68544 0.07153 0.07207 0.0
C762 C 0.71877 0.06854 0.05004 0.0
C763 C 0.76139 0.09169 0.99524 0.0
C764 C 0.7705 0.11798 0.96364 0.0
C765 C 0.72927 0.09532 0.01981 0.0
C766 C 0.74787 0.14864 0.95835 0.0
C767 C 0.71626 0.15253 0.98278 0.0
H768 H 0.44982 0.72095 0.51059 0.0
H769 H 0.3753 0.75771 0.61055 0.0
H770 H 0.36486 0.81378 0.5712 0.0
H771 H 0.37221 0.84994 0.50622 0.0
H772 H 0.45192 0.82011 0.40989 0.0
H773 H 0.46512 0.76339 0.44996 0.0
C774 C 0.43205 0.74162 0.52426 0.0
C775 C 0.41263 0.7346 0.5629 0.0
C776 C 0.42643 0.77447 0.5017 0.0
C777 C 0.39002 0.76192 0.58043 0.0
C778 C 0.38384 0.79402 0.55791 0.0
C779 C 0.39234 0.83082 0.49386 0.0
C780 C 0.4095 0.83761 0.45406 0.0
C781 C 0.40088 0.79991 0.51795 0.0
C782 C 0.43692 0.81401 0.43932 0.0
C783 C 0.44485 0.7821 0.46261 0.0
H784 H 0.74267 0.36562 0.54879 0.0
H785 H 0.77775 0.46805 0.49397 0.0
H786 H 0.72548 0.46735 0.44428 0.0
H787 H 0.6678 0.43831 0.41897 0.0
H788 H 0.63426 0.33728 0.47795 0.0
H789 H 0.68842 0.33637 0.52283 0.0
C790 C 0.73919 0.38791 0.52604 0.0
C791 C 0.764 0.41695 0.52545 0.0
C792 C 0.70955 0.38727 0.49777 0.0
C793 C 0.75884 0.44544 0.49544 0.0
C794 C 0.72904 0.44503 0.46693 0.0
C795 C 0.67318 0.41575 0.44081 0.0
C796 C 0.64838 0.38675 0.44339 0.0
C797 C 0.70404 0.41612 0.468 0.0
C798 C 0.65417 0.35862 0.4735 0.0
C799 C 0.6848 0.35845 0.49983 0.0
H800 H 0.1552 0.63991 0.48066 0.0
H801 H 0.07333 0.67713 0.39069 0.0
H802 H 0.0668 0.73415 0.4322 0.0
H803 H 0.08282 0.77151 0.49618 0.0
H804 H 0.16401 0.73207 0.58669 0.0
H805 H 0.17216 0.67752 0.54295 0.0
C806 C 0.13641 0.66091 0.46986 0.0
C807 C 0.11565 0.65537 0.43216 0.0
C808 C 0.1325 0.69286 0.49414 0.0
C809 C 0.09042 0.68179 0.41891 0.0
C810 C 0.08649 0.71402 0.44286 0.0
C811 C 0.10242 0.75106 0.50626 0.0
C812 C 0.12254 0.75584 0.54492 0.0
C813 C 0.10718 0.71965 0.4808 0.0
C814 C 0.14808 0.72919 0.5572 0.0
C815 C 0.1529 0.69796 0.53214 0.0
H816 H 0.72997 0.07186 0.51088 0.0
H817 H 0.75932 0.15936 0.59866 0.0
H818 H 0.81676 0.16727 0.56081 0.0
H819 H 0.85936 0.14904 0.504 0.0
H820 H 0.83157 0.06241 0.4154 0.0
H821 H 0.77276 0.05416 0.45254 0.0
C822 C 0.74894 0.09259 0.52182 0.0
C823 C 0.74026 0.1148 0.55779 0.0
C824 C 0.78214 0.09716 0.49979 0.0
C825 C 0.76514 0.14175 0.57121 0.0
C826 C 0.79811 0.14636 0.54961 0.0
C827 C 0.84009 0.12867 0.49264 0.0
C828 C 0.84871 0.10717 0.45641 0.0
C829 C 0.80686 0.12421 0.51406 0.0
C830 C 0.82453 0.08002 0.44245 0.0
C831 C 0.79124 0.07515 0.4639 0.0
H832 H 0.45065 0.98377 0.92089 0.0
H833 H 0.52587 0.90527 0.9745 0.0
H834 H 0.54689 0.9506 0.02738 0.0
H835 H 0.54189 0.01163 0.06043 0.0
H836 H 0.46657 0.08989 0.0067 0.0
H837 H 0.44659 0.04497 0.95275 0.0
C838 C 0.47222 0.97666 0.94348 0.0
C839 C 0.48686 0.94106 0.94334 0.0
C840 C 0.48324 0.00246 0.97474 0.0
C841 C 0.51441 0.93246 0.97342 0.0
C842 C 0.52607 0.95826 0.00409 0.0
C843 C 0.52058 0.01868 0.03747 0.0
C844 C 0.5052 0.05394 0.03819 0.0
C845 C 0.51007 0.99306 0.00569 0.0
C846 C 0.47839 0.06284 0.00734 0.0
C847 C 0.46729 0.03728 0.97617 0.0
H848 H 0.48826 0.54031 0.06778 0.0
H849 H 0.41899 0.45759 0.01165 0.0
H850 H 0.46801 0.43952 0.96234 0.0
H851 H 0.52945 0.4485 0.93371 0.0
H852 H 0.59962 0.53021 0.99025 0.0
H853 H 0.55062 0.54848 0.0399 0.0
C854 C 0.48413 0.51776 0.04546 0.0
C855 C 0.45008 0.50003 0.04372 0.0
C856 C 0.51209 0.50826 0.01632 0.0
C857 C 0.44502 0.47138 0.01397 0.0
C858 C 0.47288 0.46137 0.98539 0.0
C859 C 0.5339 0.47085 0.95625 0.0
C860 C 0.56799 0.48846 0.95773 0.0
C861 C 0.50621 0.48012 0.9857 0.0
C862 C 0.57346 0.51667 0.98797 0.0
C863 C 0.54562 0.52675 0.01673 0.0
H864 H 0.04094 0.51411 0.93577 0.0
H865 H 0.95186 0.57888 0.98545 0.0
H866 H 0.94005 0.53296 0.04113 0.0
H867 H 0.95659 0.47611 0.07744 0.0
H868 H 0.04421 0.40999 0.02701 0.0
H869 H 0.05616 0.45579 0.97075 0.0
C870 C 0.01836 0.51785 0.95808 0.0
C871 C 0.99714 0.54989 0.95622 0.0
C872 C 0.01245 0.49186 0.99086 0.0
C873 C 0.96836 0.55439 0.98586 0.0
C874 C 0.96195 0.52839 0.01811 0.0
C875 C 0.97893 0.47205 0.05484 0.0
C876 C 0.00019 0.44011 0.05711 0.0
C877 C 0.98441 0.49754 0.02155 0.0
C878 C 0.02808 0.43473 0.02653 0.0
C879 C 0.0345 0.46063 0.99402 0.0
H880 H 0.07448 -0.00078 0.01249 0.0
H881 H 0.01169 0.99877 0.13091 0.0
H882 H 0.9557 0.00875 0.08926 0.0
H883 H 0.92427 0.01514 0.01897 0.0
H884 H 0.98677 0.01533 0.90024 0.0
H885 H 0.04298 0.00652 0.94195 0.0
C886 C 0.04868 0.00251 0.02925 0.0
C887 C 0.04738 -0.00077 0.07491 0.0
C888 C 0.01637 0.00669 0.00485 0.0
C889 C 0.01351 0.00208 0.09596 0.0
C890 C 0.98143 0.00716 0.07206 0.0
C891 C 0.95007 0.01237 0.00209 0.0
C892 C 0.95115 0.01507 0.95636 0.0
C893 C 0.98242 0.00866 0.02643 0.0
C894 C 0.98505 0.01261 0.93527 0.0
C895 C 0.01727 0.00811 0.95919 0.0
H896 H 0.49086 0.56783 0.508 0.0
H897 H 0.48938 0.50516 0.62628 0.0
H898 H 0.4951 0.44857 0.58405 0.0
H899 H 0.49886 0.41698 0.51288 0.0
H900 H 0.49701 0.48037 0.39487 0.0
H901 H 0.49256 0.5365 0.43742 0.0
C902 C 0.49301 0.54184 0.5246 0.0
C903 C 0.49119 0.54075 0.57035 0.0
C904 C 0.49407 0.50947 0.49998 0.0
C905 C 0.49207 0.50675 0.59124 0.0
C906 C 0.4946 0.4744 0.56701 0.0
C907 C 0.4964 0.443 0.49645 0.0
C908 C 0.49765 0.44435 0.45059 0.0
C909 C 0.49489 0.47538 0.52127 0.0
C910 C 0.49548 0.47846 0.42999 0.0
C911 C 0.49355 0.51063 0.45436 0.0
H912 H 0.07282 0.50289 0.48902 0.0
H913 H 0.00816 0.52056 0.37372 0.0
H914 H 0.95234 0.51719 0.41714 0.0
H915 H 0.92219 0.51013 0.48796 0.0
H916 H 0.98691 0.49233 0.60317 0.0
H917 H 0.04272 0.49661 0.55992 0.0
C918 C 0.04649 0.50507 0.47317 0.0
C919 C 0.04459 0.51117 0.42799 0.0
C920 C 0.01468 0.50457 0.49859 0.0
C921 C 0.01028 0.51511 0.40826 0.0
C922 C 0.97843 0.51377 0.43319 0.0
C923 C 0.94852 0.50827 0.50386 0.0
C924 C 0.95044 0.50163 0.54893 0.0
C925 C 0.98036 0.50917 0.47848 0.0
C926 C 0.98477 0.49815 0.56872 0.0
C927 C 0.01663 0.49997 0.54387 0.0
H928 H 0.05165 0.96963 0.56872 0.0
H929 H 0.97077 0.89878 0.51174 0.0
H930 H 0.95341 0.94706 0.46072 0.0
H931 H 0.96205 0.00897 0.43201 0.0
H932 H 0.04418 0.07887 0.48833 0.0
H933 H 0.0614 0.03054 0.53891 0.0
C934 C 0.02965 0.96493 0.54579 0.0
C935 C 0.01194 0.93091 0.5446 0.0
C936 C 0.02098 0.99215 0.51555 0.0
C937 C 0.9843 0.92497 0.51379 0.0
C938 C 0.97476 0.95237 0.48428 0.0
C939 C 0.98429 0.0134 0.45467 0.0
C940 C 0.00202 0.04745 0.45616 0.0
C941 C 0.99331 0.98587 0.48448 0.0
C942 C 0.03035 0.05285 0.48624 0.0
C943 C 0.03987 0.02539 0.51554 0.0
H944 H 0.52095 0.04422 0.56924 0.0
H945 H 0.59662 0.96763 0.51252 0.0
H946 H 0.55046 0.94948 0.45915 0.0
H947 H 0.48906 0.95601 0.4282 0.0
H948 H 0.41338 0.03251 0.4851 0.0
H949 H 0.45981 0.05122 0.53781 0.0
C950 C 0.52722 0.02301 0.54579 0.0
C951 C 0.56214 0.00685 0.54541 0.0
C952 C 0.50096 0.01362 0.51436 0.0
C953 C 0.56987 0.98007 0.51403 0.0
C954 C 0.54362 0.97005 0.48315 0.0
C955 C 0.48288 0.9774 0.45146 0.0
C956 C 0.44779 0.9932 0.45225 0.0
C957 C 0.50927 0.98703 0.48263 0.0
C958 C 0.44021 0.02028 0.48332 0.0
C959 C 0.46662 0.0306 0.51385 0.0
H960 H 0.52875 0.32117 0.23892 0.0
H961 H 0.5194 0.26425 0.36072 0.0
H962 H 0.51454 0.20615 0.32223 0.0
H963 H 0.52739 0.17127 0.25461 0.0
H964 H 0.53169 0.22832 0.13247 0.0
H965 H 0.52315 0.28644 0.16995 0.0
C966 C 0.52354 0.29627 0.25683 0.0
C967 C 0.52417 0.29707 0.3026 0.0
C968 C 0.52055 0.26279 0.23434 0.0
C969 C 0.51826 0.26446 0.32548 0.0
C970 C 0.5161 0.23107 0.30345 0.0
C971 C 0.52438 0.19623 0.23609 0.0
C972 C 0.52985 0.19546 0.19079 0.0
C973 C 0.51917 0.22974 0.25797 0.0
C974 C 0.5268 0.22813 0.16726 0.0
C975 C 0.52249 0.26151 0.18878 0.0
H976 H 0.17393 0.52833 0.22634 0.0
H977 H 0.23046 0.51979 0.34865 0.0
H978 H 0.28827 0.51147 0.31079 0.0
H979 H 0.32339 0.52296 0.24326 0.0
H980 H 0.26662 0.52567 0.12069 0.0
H981 H 0.20833 0.51882 0.15787 0.0
C982 C 0.19855 0.52237 0.24454 0.0
C983 C 0.19798 0.52464 0.29013 0.0
C984 C 0.23186 0.51731 0.22244 0.0
C985 C 0.2302 0.5176 0.31346 0.0
C986 C 0.26344 0.51345 0.29181 0.0
C987 C 0.29845 0.51982 0.22466 0.0
C988 C 0.29923 0.52479 0.17939 0.0
C989 C 0.26485 0.51552 0.24633 0.0
C990 C 0.26666 0.52138 0.15559 0.0
C991 C 0.2332 0.51803 0.1769 0.0
H992 H 0.98272 0.31666 0.2626 0.0
H993 H 0.96642 0.25847 0.1424 0.0
H994 H 0.97268 0.20037 0.18015 0.0
H995 H 0.96728 0.16751 0.25 0.0
H996 H 0.98774 0.22505 0.36968 0.0
H997 H 0.99656 0.2818 0.32971 0.0
C998 C 0.98266 0.29127 0.24444 0.0
C999 C 0.97425 0.29171 0.19988 0.0
C1000 C 0.98641 0.25779 0.26646 0.0
C1001 C 0.97343 0.25868 0.17668 0.0
C1002 C 0.97649 0.2254 0.19837 0.0
C1003 C 0.97581 0.19204 0.26694 0.0
C1004 C 0.97696 0.19218 0.31259 0.0
C1005 C 0.98086 0.22467 0.24364 0.0
C1006 C 0.98731 0.22424 0.33443 0.0
C1007 C 0.99175 0.25688 0.31161 0.0
H1008 H 0.26493 0.94601 0.35319 0.0
H1009 H 0.34176 0.95318 0.24785 0.0
H1010 H 0.29193 0.9658 0.19672 0.0
H1011 H 0.22619 0.96269 0.18044 0.0
H1012 H 0.1496 0.94652 0.28458 0.0
H1013 H 0.19908 0.95061 0.33799 0.0
C1014 C 0.27074 0.95189 0.3193 0.0
C1015 C 0.30694 0.94959 0.30431 0.0
C1016 C 0.24173 0.95722 0.28992 0.0
C1017 C 0.31422 0.95573 0.26016 0.0
C1018 C 0.28565 0.96255 0.23094 0.0
C1019 C 0.22023 0.96196 0.21501 0.0
C1020 C 0.18417 0.95544 0.22875 0.0
C1021 C 0.24921 0.96186 0.24516 0.0
C1022 C 0.17692 0.95269 0.27342 0.0
C1023 C 0.20534 0.9544 0.30385 0.0
H1024 H 0.37346 0.804 0.75932 0.0
H1025 H 0.48237 0.80166 0.81205 0.0
H1026 H 0.49592 0.74716 0.76791 0.0
H1027 H 0.47328 0.69518 0.72064 0.0
H1028 H 0.35898 0.69466 0.6859 0.0
H1029 H 0.35114 0.75417 0.71714 0.0
C1030 C 0.40046 0.79201 0.76125 0.0
C1031 C 0.42664 0.80704 0.78955 0.0
C1032 C 0.40686 0.75922 0.73926 0.0
C1033 C 0.46156 0.79102 0.79051 0.0
C1034 C 0.46911 0.75941 0.76572 0.0
C1035 C 0.4468 0.70825 0.7199 0.0
C1036 C 0.41706 0.69026 0.6998 0.0
C1037 C 0.44144 0.74236 0.74111 0.0
C1038 C 0.38271 0.7075 0.70021 0.0
C1039 C 0.378 0.74185 0.71818 0.0
H1040 H 0.833 0.4608 0.74837 0.0
H1041 H 0.76292 0.48223 0.63909 0.0
H1042 H 0.71008 0.48578 0.68726 0.0
H1043 H 0.68285 0.46781 0.75798 0.0
H1044 H 0.75353 0.44876 0.86749 0.0
H1045 H 0.80703 0.46001 0.82235 0.0
C1046 C 0.8065 0.4684 0.73557 0.0
C1047 C 0.80182 0.47156 0.69042 0.0
C1048 C 0.77614 0.46995 0.76352 0.0
C1049 C 0.76721 0.48043 0.67392 0.0
C1050 C 0.73685 0.4818 0.7014 0.0
C1051 C 0.70989 0.468 0.77226 0.0
C1052 C 0.71439 0.45765 0.81589 0.0
C1053 C 0.74071 0.47448 0.74594 0.0
C1054 C 0.74955 0.45716 0.83402 0.0
C1055 C 0.78018 0.46319 0.8081 0.0
H1056 H 0.02323 0.81317 0.74296 0.0
H1057 H 0.04944 0.74586 0.63244 0.0
H1058 H 0.03763 0.69096 0.67481 0.0
H1059 H 0.03545 0.66344 0.74782 0.0
H1060 H 0.00722 0.73011 0.85804 0.0
H1061 H 0.00279 0.78372 0.81135 0.0
C1062 C 0.02439 0.78652 0.7277 0.0
C1063 C 0.03709 0.78337 0.6848 0.0
C1064 C 0.01765 0.7549 0.75245 0.0
C1065 C 0.03928 0.74876 0.66538 0.0
C1066 C 0.03292 0.71734 0.68973 0.0
C1067 C 0.02609 0.68925 0.76101 0.0
C1068 C 0.02156 0.69291 0.80612 0.0
C1069 C 0.02419 0.7201 0.73397 0.0
C1070 C 0.01023 0.72661 0.8232 0.0
C1071 C 0.0084 0.75746 0.79661 0.0
H1072 H 0.674 0.04552 0.76274 0.0
H1073 H 0.73503 0.03359 0.644 0.0
H1074 H 0.79126 0.02543 0.68544 0.0
H1075 H 0.82408 0.03593 0.75494 0.0
H1076 H 0.76272 0.04299 0.87394 0.0
H1077 H 0.70571 0.03769 0.8334 0.0
C1078 C 0.6993 0.03919 0.74613 0.0
C1079 C 0.70035 0.03995 0.70042 0.0
C1080 C 0.73165 0.03415 0.7703 0.0
C1081 C 0.73345 0.03246 0.67919 0.0
C1082 C 0.76576 0.02831 0.7029 0.0
C1083 C 0.79832 0.03411 0.7721 0.0
C1084 C 0.79762 0.0395 0.81739 0.0
C1085 C 0.76546 0.03097 0.74843 0.0
C1086 C 0.76397 0.03811 0.83917 0.0
C1087 C 0.73127 0.03572 0.81589 0.0
loop_
_geom_bond_atom_site_label_1
_geom_bond_atom_site_label_2
_geom_bond_distance
_geom_bond_site_symmetry_2
_ccdc_geom_bond_type
Mn0 O5 2.095 . S
Mn0 O15 2.162 . S
Mn0 O16 2.297 . S
Mn0 O24 2.375 1_554 S
Mn0 O25 2.209 . S
Mn0 O26 2.094 . S
Mn1 O6 2.121 . S
Mn1 N8 2.257 . S
Mn1 N17 2.282 . S
Mn1 O25 2.215 . S
Mn1 O27 2.117 . S
C2 O24 1.221 1_554 S
C2 O25 1.283 . S
C3 O15 1.281 . S
C3 O16 1.236 . S
C4 O26 1.240 . S
C4 O27 1.264 . S
O5 Mn0 2.095 . S
O5 C14 1.250 . S
O6 Mn1 2.121 . S
O6 C14 1.258 . S
C7 N8 1.326 . S
C7 C11 1.460 . S
C7 H13 0.929 . S
N8 Mn1 2.257 . S
N8 C7 1.326 . S
N8 C12 1.362 . S
C9 C10 1.258 . S
C9 C12 1.431 . S
C9 C29 1.449 . S
C10 C9 1.258 . S
C10 C11 1.477 . S
C10 H30 0.931 . S
C11 C7 1.460 . S
C11 C10 1.477 . S
C11 H31 0.930 . S
C12 N8 1.362 . S
C12 C9 1.431 . S
C12 C22 1.476 . S
H13 C7 0.929 . S
C14 O5 1.250 . S
C14 O6 1.258 . S
O15 Mn0 2.162 . S
O15 C3 1.281 . S
O16 Mn0 2.297 . S
O16 C3 1.236 . S
N17 Mn1 2.282 . S
N17 C18 1.328 . S
N17 C22 1.318 . S
C18 N17 1.328 . S
C18 C19 1.457 1_554 S
C18 H23 0.929 1_554 S
C19 C18 1.457 1_556 S
C19 C20 1.291 1_556 S
C19 H32 0.931 . S
C20 C19 1.291 1_554 S
C20 C21 1.373 . S
C20 H33 0.929 1_554 S
C21 C20 1.373 . S
C21 C22 1.396 . S
C21 C28 1.403 . S
C22 C12 1.476 . S
C22 N17 1.318 . S
C22 C21 1.396 . S
H23 C18 0.929 1_556 S
O24 Mn0 2.375 1_556 S
O24 C2 1.221 1_556 S
O25 Mn0 2.209 . S
O25 Mn1 2.215 . S
O25 C2 1.283 . S
O26 Mn0 2.094 . S
O26 C4 1.240 . S
O27 Mn1 2.117 . S
O27 C4 1.264 . S
C28 C21 1.403 . S
C28 C29 1.399 . S
C28 H34 0.929 . S
C29 C9 1.449 . S
C29 C28 1.399 . S
C29 H35 0.930 . S
H30 C10 0.931 . S
H31 C11 0.930 . S
H32 C19 0.931 . S
H33 C20 0.929 1_556 S
H34 C28 0.929 . S
H35 C29 0.930 . S
Mn36 O41 2.095 . S
Mn36 O51 2.162 . S
Mn36 O52 2.297 . S
Mn36 O60 2.375 1_554 S
Mn36 O61 2.209 . S
Mn36 O62 2.094 . S
Mn37 O42 2.121 . S
Mn37 N44 2.257 . S
Mn37 N53 2.282 . S
Mn37 O61 2.215 . S
Mn37 O63 2.117 . S
C38 O60 1.221 1_554 S
C38 O61 1.283 . S
C39 O51 1.281 . S
C39 O52 1.236 . S
C40 O62 1.240 . S
C40 O63 1.264 . S
O41 Mn36 2.095 . S
O41 C50 1.250 . S
O42 Mn37 2.121 . S
O42 C50 1.258 . S
C43 N44 1.326 . S
C43 C47 1.460 . S
C43 H49 0.929 . S
N44 Mn37 2.257 . S
N44 C43 1.326 . S
N44 C48 1.362 . S
C45 C46 1.258 . S
C45 C48 1.431 . S
C45 C65 1.449 . S
C46 C45 1.258 . S
C46 C47 1.477 . S
C46 H66 0.931 . S
C47 C43 1.460 . S
C47 C46 1.477 . S
C47 H67 0.930 . S
C48 N44 1.362 . S
C48 C45 1.431 . S
C48 C58 1.476 . S
H49 C43 0.929 . S
C50 O41 1.250 . S
C50 O42 1.258 . S
O51 Mn36 2.162 . S
O51 C39 1.281 . S
O52 Mn36 2.297 . S
O52 C39 1.236 . S
N53 Mn37 2.282 . S
N53 C54 1.328 . S
N53 C58 1.318 . S
C54 N53 1.328 . S
C54 C55 1.457 1_554 S
C54 H59 0.929 1_554 S
C55 C54 1.457 1_556 S
C55 C56 1.291 1_556 S
C55 H68 0.931 . S
C56 C55 1.291 1_554 S
C56 C57 1.373 . S
C56 H69 0.929 1_554 S
C57 C56 1.373 . S
C57 C58 1.396 . S
C57 C64 1.403 . S
C58 C48 1.476 . S
C58 N53 1.318 . S
C58 C57 1.396 . S
H59 C54 0.929 1_556 S
O60 Mn36 2.375 1_556 S
O60 C38 1.221 1_556 S
O61 Mn36 2.209 . S
O61 Mn37 2.215 . S
O61 C38 1.283 . S
O62 Mn36 2.094 . S
O62 C40 1.240 . S
O63 Mn37 2.117 . S
O63 C40 1.264 . S
C64 C57 1.403 . S
C64 C65 1.399 . S
C64 H70 0.929 . S
C65 C45 1.449 . S
C65 C64 1.399 . S
C65 H71 0.930 . S
H66 C46 0.931 . S
H67 C47 0.930 . S
H68 C55 0.931 . S
H69 C56 0.929 1_556 S
H70 C64 0.929 . S
H71 C65 0.930 . S
Mn72 O77 2.095 . S
Mn72 O87 2.162 1_655 S
Mn72 O88 2.297 . S
Mn72 O96 2.375 1_554 S
Mn72 O97 2.209 . S
Mn72 O98 2.094 . S
Mn73 O78 2.121 . S
Mn73 N80 2.257 . S
Mn73 N89 2.282 . S
Mn73 O97 2.215 . S
Mn73 O99 2.117 . S
C74 O96 1.221 1_554 S
C74 O97 1.283 . S
C75 O87 1.281 . S
C75 O88 1.236 1_455 S
C76 O98 1.240 . S
C76 O99 1.264 . S
O77 Mn72 2.095 . S
O77 C86 1.250 . S
O78 Mn73 2.121 . S
O78 C86 1.258 . S
C79 N80 1.326 . S
C79 C83 1.460 . S
C79 H85 0.929 . S
N80 Mn73 2.257 . S
N80 C79 1.326 . S
N80 C84 1.362 . S
C81 C82 1.258 . S
C81 C84 1.431 . S
C81 C101 1.449 . S
C82 C81 1.258 . S
C82 C83 1.477 . S
C82 H102 0.931 . S
C83 C79 1.460 . S
C83 C82 1.477 . S
C83 H103 0.930 . S
C84 N80 1.362 . S
C84 C81 1.431 . S
C84 C94 1.476 . S
H85 C79 0.929 . S
C86 O77 1.250 . S
C86 O78 1.258 . S
O87 Mn72 2.162 1_455 S
O87 C75 1.281 . S
O88 Mn72 2.297 . S
O88 C75 1.236 1_655 S
N89 Mn73 2.282 . S
N89 C90 1.328 . S
N89 C94 1.318 . S
C90 N89 1.328 . S
C90 C91 1.457 1_554 S
C90 H95 0.929 1_554 S
C91 C90 1.457 1_556 S
C91 C92 1.291 1_556 S
C91 H104 0.931 . S
C92 C91 1.291 1_554 S
C92 C93 1.373 . S
C92 H105 0.929 1_554 S
C93 C92 1.373 . S
C93 C94 1.396 . S
C93 C100 1.403 . S
C94 C84 1.476 . S
C94 N89 1.318 . S
C94 C93 1.396 . S
H95 C90 0.929 1_556 S
O96 Mn72 2.375 1_556 S
O96 C74 1.221 1_556 S
O97 Mn72 2.209 . S
O97 Mn73 2.215 . S
O97 C74 1.283 . S
O98 Mn72 2.094 . S
O98 C76 1.240 . S
O99 Mn73 2.117 . S
O99 C76 1.264 . S
C100 C93 1.403 . S
C100 C101 1.399 . S
C100 H106 0.929 . S
C101 C81 1.449 . S
C101 C100 1.399 . S
C101 H107 0.930 . S
H102 C82 0.931 . S
H103 C83 0.930 . S
H104 C91 0.931 . S
H105 C92 0.929 1_556 S
H106 C100 0.929 . S
H107 C101 0.930 . S
Mn108 O113 2.095 . S
Mn108 O123 2.162 1_565 S
Mn108 O124 2.297 . S
Mn108 O132 2.375 1_554 S
Mn108 O133 2.209 . S
Mn108 O134 2.094 . S
Mn109 O114 2.121 . S
Mn109 N116 2.257 . S
Mn109 N125 2.282 . S
Mn109 O133 2.215 . S
Mn109 O135 2.117 . S
C110 O132 1.221 1_554 S
C110 O133 1.283 . S
C111 O123 1.281 . S
C111 O124 1.236 1_545 S
C112 O134 1.240 . S
C112 O135 1.264 . S
O113 Mn108 2.095 . S
O113 C122 1.250 . S
O114 Mn109 2.121 . S
O114 C122 1.258 . S
C115 N116 1.326 . S
C115 C119 1.460 . S
C115 H121 0.929 . S
N116 Mn109 2.257 . S
N116 C115 1.326 . S
N116 C120 1.362 . S
C117 C118 1.258 . S
C117 C120 1.431 . S
C117 C137 1.449 . S
C118 C117 1.258 . S
C118 C119 1.477 . S
C118 H138 0.931 . S
C119 C115 1.460 . S
C119 C118 1.477 . S
C119 H139 0.930 . S
C120 N116 1.362 . S
C120 C117 1.431 . S
C120 C130 1.476 . S
H121 C115 0.929 . S
C122 O113 1.250 . S
C122 O114 1.258 . S
O123 Mn108 2.162 1_545 S
O123 C111 1.281 . S
O124 Mn108 2.297 . S
O124 C111 1.236 1_565 S
N125 Mn109 2.282 . S
N125 C126 1.328 . S
N125 C130 1.318 . S
C126 N125 1.328 . S
C126 C127 1.457 1_554 S
C126 H131 0.929 1_554 S
C127 C126 1.457 1_556 S
C127 C128 1.291 1_556 S
C127 H140 0.931 . S
C128 C127 1.291 1_554 S
C128 C129 1.373 . S
C128 H141 0.929 1_554 S
C129 C128 1.373 . S
C129 C130 1.396 . S
C129 C136 1.403 . S
C130 C120 1.476 . S
C130 N125 1.318 . S
C130 C129 1.396 . S
H131 C126 0.929 1_556 S
O132 Mn108 2.375 1_556 S
O132 C110 1.221 1_556 S
O133 Mn108 2.209 . S
O133 Mn109 2.215 . S
O133 C110 1.283 . S
O134 Mn108 2.094 . S
O134 C112 1.240 . S
O135 Mn109 2.117 . S
O135 C112 1.264 . S
C136 C129 1.403 . S
C136 C137 1.399 . S
C136 H142 0.929 . S
C137 C117 1.449 . S
C137 C136 1.399 . S
C137 H143 0.930 . S
H138 C118 0.931 . S
H139 C119 0.930 . S
H140 C127 0.931 . S
H141 C128 0.929 1_556 S
H142 C136 0.929 . S
H143 C137 0.930 . S
Mn144 O149 2.095 . S
Mn144 O159 2.162 . S
Mn144 O160 2.297 . S
Mn144 O168 2.385 . S
Mn144 O169 2.209 . S
Mn144 O170 2.094 . S
Mn145 O150 2.121 . S
Mn145 N152 2.257 . S
Mn145 N161 2.282 . S
Mn145 O169 2.215 . S
Mn145 O171 2.117 . S
C146 O168 1.234 . S
C146 O169 1.283 . S
C147 O159 1.281 . S
C147 O160 1.236 . S
C148 O170 1.240 . S
C148 O171 1.264 . S
O149 Mn144 2.095 . S
O149 C158 1.250 . S
O150 Mn145 2.121 . S
O150 C158 1.258 . S
C151 N152 1.326 . S
C151 C155 1.460 . S
C151 H157 0.929 . S
N152 Mn145 2.257 . S
N152 C151 1.326 . S
N152 C156 1.362 . S
C153 C154 1.258 . S
C153 C156 1.431 . S
C153 C173 1.449 . S
C154 C153 1.258 . S
C154 C155 1.477 . S
C154 H174 0.931 . S
C155 C151 1.460 . S
C155 C154 1.477 . S
C155 H175 0.930 . S
C156 N152 1.362 . S
C156 C153 1.431 . S
C156 C166 1.476 . S
H157 C151 0.929 . S
C158 O149 1.250 . S
C158 O150 1.258 . S
O159 Mn144 2.162 . S
O159 C147 1.281 . S
O160 Mn144 2.297 . S
O160 C147 1.236 . S
N161 Mn145 2.282 . S
N161 C162 1.328 . S
N161 C166 1.318 . S
C162 N161 1.328 . S
C162 C163 1.457 . S
C162 H167 0.929 . S
C163 C162 1.457 . S
C163 C164 1.291 . S
C163 H176 0.931 . S
C164 C163 1.291 . S
C164 C165 1.373 . S
C164 H177 0.929 . S
C165 C164 1.373 . S
C165 C166 1.396 . S
C165 C172 1.403 . S
C166 C156 1.476 . S
C166 N161 1.318 . S
C166 C165 1.396 . S
H167 C162 0.929 . S
O168 Mn144 2.385 . S
O168 C146 1.234 . S
O169 Mn144 2.209 . S
O169 Mn145 2.215 . S
O169 C146 1.283 . S
O170 Mn144 2.094 . S
O170 C148 1.240 . S
O171 Mn145 2.117 . S
O171 C148 1.264 . S
C172 C165 1.403 . S
C172 C173 1.399 . S
C172 H178 0.929 . S
C173 C153 1.449 . S
C173 C172 1.399 . S
C173 H179 0.930 . S
H174 C154 0.931 . S
H175 C155 0.930 . S
H176 C163 0.931 . S
H177 C164 0.929 . S
H178 C172 0.929 . S
H179 C173 0.930 . S
Mn180 O185 2.095 . S
Mn180 O195 2.162 . S
Mn180 O196 2.297 . S
Mn180 O204 2.385 . S
Mn180 O205 2.209 . S
Mn180 O206 2.094 . S
Mn181 O186 2.121 . S
Mn181 N188 2.257 . S
Mn181 N197 2.282 . S
Mn181 O205 2.215 . S
Mn181 O207 2.117 . S
C182 O204 1.234 . S
C182 O205 1.283 . S
C183 O195 1.281 . S
C183 O196 1.236 . S
C184 O206 1.240 . S
C184 O207 1.264 . S
O185 Mn180 2.095 . S
O185 C194 1.250 . S
O186 Mn181 2.121 . S
O186 C194 1.258 . S
C187 N188 1.326 . S
C187 C191 1.460 . S
C187 H193 0.929 . S
N188 Mn181 2.257 . S
N188 C187 1.326 . S
N188 C192 1.362 . S
C189 C190 1.258 . S
C189 C192 1.431 . S
C189 C209 1.449 . S
C190 C189 1.258 . S
C190 C191 1.477 . S
C190 H210 0.931 . S
C191 C187 1.460 . S
C191 C190 1.477 . S
C191 H211 0.930 . S
C192 N188 1.362 . S
C192 C189 1.431 . S
C192 C202 1.476 . S
H193 C187 0.929 . S
C194 O185 1.250 . S
C194 O186 1.258 . S
O195 Mn180 2.162 . S
O195 C183 1.281 . S
O196 Mn180 2.297 . S
O196 C183 1.236 . S
N197 Mn181 2.282 . S
N197 C198 1.328 . S
N197 C202 1.318 . S
C198 N197 1.328 . S
C198 C199 1.457 . S
C198 H203 0.929 . S
C199 C198 1.457 . S
C199 C200 1.291 . S
C199 H212 0.931 . S
C200 C199 1.291 . S
C200 C201 1.373 . S
C200 H213 0.929 . S
C201 C200 1.373 . S
C201 C202 1.396 . S
C201 C208 1.403 . S
C202 C192 1.476 . S
C202 N197 1.318 . S
C202 C201 1.396 . S
H203 C198 0.929 . S
O204 Mn180 2.385 . S
O204 C182 1.234 . S
O205 Mn180 2.209 . S
O205 Mn181 2.215 . S
O205 C182 1.283 . S
O206 Mn180 2.094 . S
O206 C184 1.240 . S
O207 Mn181 2.117 . S
O207 C184 1.264 . S
C208 C201 1.403 . S
C208 C209 1.399 . S
C208 H214 0.929 . S
C209 C189 1.449 . S
C209 C208 1.399 . S
C209 H215 0.930 . S
H210 C190 0.931 . S
H211 C191 0.930 . S
H212 C199 0.931 . S
H213 C200 0.929 . S
H214 C208 0.929 . S
H215 C209 0.930 . S
Mn216 O221 2.095 . S
Mn216 O231 2.162 1_655 S
Mn216 O232 2.297 . S
Mn216 O240 2.385 . S
Mn216 O241 2.209 . S
Mn216 O242 2.094 . S
Mn217 O222 2.121 . S
Mn217 N224 2.257 . S
Mn217 N233 2.282 . S
Mn217 O241 2.215 . S
Mn217 O243 2.117 . S
C218 O240 1.234 . S
C218 O241 1.283 . S
C219 O231 1.281 . S
C219 O232 1.236 1_455 S
C220 O242 1.240 . S
C220 O243 1.264 . S
O221 Mn216 2.095 . S
O221 C230 1.250 . S
O222 Mn217 2.121 . S
O222 C230 1.258 . S
C223 N224 1.326 . S
C223 C227 1.460 . S
C223 H229 0.929 . S
N224 Mn217 2.257 . S
N224 C223 1.326 . S
N224 C228 1.362 . S
C225 C226 1.258 . S
C225 C228 1.431 . S
C225 C245 1.449 . S
C226 C225 1.258 . S
C226 C227 1.477 . S
C226 H246 0.931 . S
C227 C223 1.460 . S
C227 C226 1.477 . S
C227 H247 0.930 . S
C228 N224 1.362 . S
C228 C225 1.431 . S
C228 C238 1.476 . S
H229 C223 0.929 . S
C230 O221 1.250 . S
C230 O222 1.258 . S
O231 Mn216 2.162 1_455 S
O231 C219 1.281 . S
O232 Mn216 2.297 . S
O232 C219 1.236 1_655 S
N233 Mn217 2.282 . S
N233 C234 1.328 . S
N233 C238 1.318 . S
C234 N233 1.328 . S
C234 C235 1.457 . S
C234 H239 0.929 . S
C235 C234 1.457 . S
C235 C236 1.291 . S
C235 H248 0.931 . S
C236 C235 1.291 . S
C236 C237 1.373 . S
C236 H249 0.929 . S
C237 C236 1.373 . S
C237 C238 1.396 . S
C237 C244 1.403 . S
C238 C228 1.476 . S
C238 N233 1.318 . S
C238 C237 1.396 . S
H239 C234 0.929 . S
O240 Mn216 2.385 . S
O240 C218 1.234 . S
O241 Mn216 2.209 . S
O241 Mn217 2.215 . S
O241 C218 1.283 . S
O242 Mn216 2.094 . S
O242 C220 1.240 . S
O243 Mn217 2.117 . S
O243 C220 1.264 . S
C244 C237 1.403 . S
C244 C245 1.399 . S
C244 H250 0.929 . S
C245 C225 1.449 . S
C245 C244 1.399 . S
C245 H251 0.930 . S
H246 C226 0.931 . S
H247 C227 0.930 . S
H248 C235 0.931 . S
H249 C236 0.929 . S
H250 C244 0.929 . S
H251 C245 0.930 . S
Mn252 O257 2.095 . S
Mn252 O267 2.162 1_565 S
Mn252 O268 2.297 . S
Mn252 O276 2.385 . S
Mn252 O277 2.209 . S
Mn252 O278 2.094 . S
Mn253 O258 2.121 . S
Mn253 N260 2.257 . S
Mn253 N269 2.282 . S
Mn253 O277 2.215 . S
Mn253 O279 2.117 . S
C254 O276 1.234 . S
C254 O277 1.283 . S
C255 O267 1.281 . S
C255 O268 1.236 1_545 S
C256 O278 1.240 . S
C256 O279 1.264 . S
O257 Mn252 2.095 . S
O257 C266 1.250 . S
O258 Mn253 2.121 . S
O258 C266 1.258 . S
C259 N260 1.326 . S
C259 C263 1.460 . S
C259 H265 0.929 . S
N260 Mn253 2.257 . S
N260 C259 1.326 . S
N260 C264 1.362 . S
C261 C262 1.258 . S
C261 C264 1.431 . S
C261 C281 1.449 . S
C262 C261 1.258 . S
C262 C263 1.477 . S
C262 H282 0.931 . S
C263 C259 1.460 . S
C263 C262 1.477 . S
C263 H283 0.930 . S
C264 N260 1.362 . S
C264 C261 1.431 . S
C264 C274 1.476 . S
H265 C259 0.929 . S
C266 O257 1.250 . S
C266 O258 1.258 . S
O267 Mn252 2.162 1_545 S
O267 C255 1.281 . S
O268 Mn252 2.297 . S
O268 C255 1.236 1_565 S
N269 Mn253 2.282 . S
N269 C270 1.328 . S
N269 C274 1.318 . S
C270 N269 1.328 . S
C270 C271 1.457 . S
C270 H275 0.929 . S
C271 C270 1.457 . S
C271 C272 1.291 . S
C271 H284 0.931 . S
C272 C271 1.291 . S
C272 C273 1.373 . S
C272 H285 0.929 . S
C273 C272 1.373 . S
C273 C274 1.396 . S
C273 C280 1.403 . S
C274 C264 1.476 . S
C274 N269 1.318 . S
C274 C273 1.396 . S
H275 C270 0.929 . S
O276 Mn252 2.385 . S
O276 C254 1.234 . S
O277 Mn252 2.209 . S
O277 Mn253 2.215 . S
O277 C254 1.283 . S
O278 Mn252 2.094 . S
O278 C256 1.240 . S
O279 Mn253 2.117 . S
O279 C256 1.264 . S
C280 C273 1.403 . S
C280 C281 1.399 . S
C280 H286 0.929 . S
C281 C261 1.449 . S
C281 C280 1.399 . S
C281 H287 0.930 . S
H282 C262 0.931 . S
H283 C263 0.930 . S
H284 C271 0.931 . S
H285 C272 0.929 . S
H286 C280 0.929 . S
H287 C281 0.930 . S
Mn288 O293 2.095 . S
Mn288 O303 2.162 . S
Mn288 O304 2.297 . S
Mn288 O312 2.375 1_556 S
Mn288 O313 2.209 . S
Mn288 O314 2.094 . S
Mn289 O294 2.121 . S
Mn289 N296 2.257 . S
Mn289 N305 2.282 . S
Mn289 O313 2.215 . S
Mn289 O315 2.117 . S
C290 O312 1.221 1_556 S
C290 O313 1.283 . S
C291 O303 1.281 . S
C291 O304 1.236 . S
C292 O314 1.240 . S
C292 O315 1.264 . S
O293 Mn288 2.095 . S
O293 C302 1.250 . S
O294 Mn289 2.121 . S
O294 C302 1.258 . S
C295 N296 1.326 . S
C295 C299 1.460 . S
C295 H301 0.929 . S
N296 Mn289 2.257 . S
N296 C295 1.326 . S
N296 C300 1.362 . S
C297 C298 1.258 . S
C297 C300 1.431 . S
C297 C317 1.449 . S
C298 C297 1.258 . S
C298 C299 1.477 . S
C298 H318 0.931 . S
C299 C295 1.460 . S
C299 C298 1.477 . S
C299 H319 0.930 . S
C300 N296 1.362 . S
C300 C297 1.431 . S
C300 C310 1.476 . S
H301 C295 0.929 . S
C302 O293 1.250 . S
C302 O294 1.258 . S
O303 Mn288 2.162 . S
O303 C291 1.281 . S
O304 Mn288 2.297 . S
O304 C291 1.236 . S
N305 Mn289 2.282 . S
N305 C306 1.328 . S
N305 C310 1.318 . S
C306 N305 1.328 . S
C306 C307 1.457 1_556 S
C306 H311 0.929 1_556 S
C307 C306 1.457 1_554 S
C307 C308 1.291 1_554 S
C307 H320 0.931 . S
C308 C307 1.291 1_556 S
C308 C309 1.373 . S
C308 H321 0.929 1_556 S
C309 C308 1.373 . S
C309 C310 1.396 . S
C309 C316 1.403 . S
C310 C300 1.476 . S
C310 N305 1.318 . S
C310 C309 1.396 . S
H311 C306 0.929 1_554 S
O312 Mn288 2.375 1_554 S
O312 C290 1.221 1_554 S
O313 Mn288 2.209 . S
O313 Mn289 2.215 . S
O313 C290 1.283 . S
O314 Mn288 2.094 . S
O314 C292 1.240 . S
O315 Mn289 2.117 . S
O315 C292 1.264 . S
C316 C309 1.403 . S
C316 C317 1.399 . S
C316 H322 0.929 . S
C317 C297 1.449 . S
C317 C316 1.399 . S
C317 H323 0.930 . S
H318 C298 0.931 . S
H319 C299 0.930 . S
H320 C307 0.931 . S
H321 C308 0.929 1_554 S
H322 C316 0.929 . S
H323 C317 0.930 . S
Mn324 O329 2.095 . S
Mn324 O339 2.162 . S
Mn324 O340 2.297 . S
Mn324 O348 2.375 1_556 S
Mn324 O349 2.209 . S
Mn324 O350 2.094 . S
Mn325 O330 2.121 . S
Mn325 N332 2.257 . S
Mn325 N341 2.282 . S
Mn325 O349 2.215 . S
Mn325 O351 2.117 . S
C326 O348 1.221 1_556 S
C326 O349 1.283 . S
C327 O339 1.281 . S
C327 O340 1.236 . S
C328 O350 1.240 . S
C328 O351 1.264 . S
O329 Mn324 2.095 . S
O329 C338 1.250 . S
O330 Mn325 2.121 . S
O330 C338 1.258 . S
C331 N332 1.326 . S
C331 C335 1.460 . S
C331 H337 0.929 . S
N332 Mn325 2.257 . S
N332 C331 1.326 . S
N332 C336 1.362 . S
C333 C334 1.258 . S
C333 C336 1.431 . S
C333 C353 1.449 . S
C334 C333 1.258 . S
C334 C335 1.477 . S
C334 H354 0.931 . S
C335 C331 1.460 . S
C335 C334 1.477 . S
C335 H355 0.930 . S
C336 N332 1.362 . S
C336 C333 1.431 . S
C336 C346 1.476 . S
H337 C331 0.929 . S
C338 O329 1.250 . S
C338 O330 1.258 . S
O339 Mn324 2.162 . S
O339 C327 1.281 . S
O340 Mn324 2.297 . S
O340 C327 1.236 . S
N341 Mn325 2.282 . S
N341 C342 1.328 . S
N341 C346 1.318 . S
C342 N341 1.328 . S
C342 C343 1.457 1_556 S
C342 H347 0.929 1_556 S
C343 C342 1.457 1_554 S
C343 C344 1.291 1_554 S
C343 H356 0.931 . S
C344 C343 1.291 1_556 S
C344 C345 1.373 . S
C344 H357 0.929 1_556 S
C345 C344 1.373 . S
C345 C346 1.396 . S
C345 C352 1.403 . S
C346 C336 1.476 . S
C346 N341 1.318 . S
C346 C345 1.396 . S
H347 C342 0.929 1_554 S
O348 Mn324 2.375 1_554 S
O348 C326 1.221 1_554 S
O349 Mn324 2.209 . S
O349 Mn325 2.215 . S
O349 C326 1.283 . S
O350 Mn324 2.094 . S
O350 C328 1.240 . S
O351 Mn325 2.117 . S
O351 C328 1.264 . S
C352 C345 1.403 . S
C352 C353 1.399 . S
C352 H358 0.929 . S
C353 C333 1.449 . S
C353 C352 1.399 . S
C353 H359 0.930 . S
H354 C334 0.931 . S
H355 C335 0.930 . S
H356 C343 0.931 . S
H357 C344 0.929 1_554 S
H358 C352 0.929 . S
H359 C353 0.930 . S
Mn360 O365 2.095 . S
Mn360 O375 2.162 1_455 S
Mn360 O376 2.297 . S
Mn360 O384 2.375 1_556 S
Mn360 O385 2.209 . S
Mn360 O386 2.094 . S
Mn361 O366 2.121 . S
Mn361 N368 2.257 . S
Mn361 N377 2.282 . S
Mn361 O385 2.215 . S
Mn361 O387 2.117 . S
C362 O384 1.221 1_556 S
C362 O385 1.283 . S
C363 O375 1.281 . S
C363 O376 1.236 1_655 S
C364 O386 1.240 . S
C364 O387 1.264 . S
O365 Mn360 2.095 . S
O365 C374 1.250 . S
O366 Mn361 2.121 . S
O366 C374 1.258 . S
C367 N368 1.326 . S
C367 C371 1.460 . S
C367 H373 0.929 . S
N368 Mn361 2.257 . S
N368 C367 1.326 . S
N368 C372 1.362 . S
C369 C370 1.258 . S
C369 C372 1.431 . S
C369 C389 1.449 . S
C370 C369 1.258 . S
C370 C371 1.477 . S
C370 H390 0.931 . S
C371 C367 1.460 . S
C371 C370 1.477 . S
C371 H391 0.930 . S
C372 N368 1.362 . S
C372 C369 1.431 . S
C372 C382 1.476 . S
H373 C367 0.929 . S
C374 O365 1.250 . S
C374 O366 1.258 . S
O375 Mn360 2.162 1_655 S
O375 C363 1.281 . S
O376 Mn360 2.297 . S
O376 C363 1.236 1_455 S
N377 Mn361 2.282 . S
N377 C378 1.328 . S
N377 C382 1.318 . S
C378 N377 1.328 . S
C378 C379 1.457 1_556 S
C378 H383 0.929 1_556 S
C379 C378 1.457 1_554 S
C379 C380 1.291 1_554 S
C379 H392 0.931 . S
C380 C379 1.291 1_556 S
C380 C381 1.373 . S
C380 H393 0.929 1_556 S
C381 C380 1.373 . S
C381 C382 1.396 . S
C381 C388 1.403 . S
C382 C372 1.476 . S
C382 N377 1.318 . S
C382 C381 1.396 . S
H383 C378 0.929 1_554 S
O384 Mn360 2.375 1_554 S
O384 C362 1.221 1_554 S
O385 Mn360 2.209 . S
O385 Mn361 2.215 . S
O385 C362 1.283 . S
O386 Mn360 2.094 . S
O386 C364 1.240 . S
O387 Mn361 2.117 . S
O387 C364 1.264 . S
C388 C381 1.403 . S
C388 C389 1.399 . S
C388 H394 0.929 . S
C389 C369 1.449 . S
C389 C388 1.399 . S
C389 H395 0.930 . S
H390 C370 0.931 . S
H391 C371 0.930 . S
H392 C379 0.931 . S
H393 C380 0.929 1_554 S
H394 C388 0.929 . S
H395 C389 0.930 . S
Mn396 O401 2.095 . S
Mn396 O411 2.162 1_545 S
Mn396 O412 2.297 . S
Mn396 O420 2.375 1_556 S
Mn396 O421 2.209 . S
Mn396 O422 2.094 . S
Mn397 O402 2.121 . S
Mn397 N404 2.257 . S
Mn397 N413 2.282 . S
Mn397 O421 2.215 . S
Mn397 O423 2.117 . S
C398 O420 1.221 1_556 S
C398 O421 1.283 . S
C399 O411 1.281 . S
C399 O412 1.236 1_565 S
C400 O422 1.240 . S
C400 O423 1.264 . S
O401 Mn396 2.095 . S
O401 C410 1.250 . S
O402 Mn397 2.121 . S
O402 C410 1.258 . S
C403 N404 1.326 . S
C403 C407 1.460 . S
C403 H409 0.929 . S
N404 Mn397 2.257 . S
N404 C403 1.326 . S
N404 C408 1.362 . S
C405 C406 1.258 . S
C405 C408 1.431 . S
C405 C425 1.449 . S
C406 C405 1.258 . S
C406 C407 1.477 . S
C406 H426 0.931 . S
C407 C403 1.460 . S
C407 C406 1.477 . S
C407 H427 0.930 . S
C408 N404 1.362 . S
C408 C405 1.431 . S
C408 C418 1.476 . S
H409 C403 0.929 . S
C410 O401 1.250 . S
C410 O402 1.258 . S
O411 Mn396 2.162 1_565 S
O411 C399 1.281 . S
O412 Mn396 2.297 . S
O412 C399 1.236 1_545 S
N413 Mn397 2.282 . S
N413 C414 1.328 . S
N413 C418 1.318 . S
C414 N413 1.328 . S
C414 C415 1.457 1_556 S
C414 H419 0.929 1_556 S
C415 C414 1.457 1_554 S
C415 C416 1.291 1_554 S
C415 H428 0.931 . S
C416 C415 1.291 1_556 S
C416 C417 1.373 . S
C416 H429 0.929 1_556 S
C417 C416 1.373 . S
C417 C418 1.396 . S
C417 C424 1.403 . S
C418 C408 1.476 . S
C418 N413 1.318 . S
C418 C417 1.396 . S
H419 C414 0.929 1_554 S
O420 Mn396 2.375 1_554 S
O420 C398 1.221 1_554 S
O421 Mn396 2.209 . S
O421 Mn397 2.215 . S
O421 C398 1.283 . S
O422 Mn396 2.094 . S
O422 C400 1.240 . S
O423 Mn397 2.117 . S
O423 C400 1.264 . S
C424 C417 1.403 . S
C424 C425 1.399 . S
C424 H430 0.929 . S
C425 C405 1.449 . S
C425 C424 1.399 . S
C425 H431 0.930 . S
H426 C406 0.931 . S
H427 C407 0.930 . S
H428 C415 0.931 . S
H429 C416 0.929 1_554 S
H430 C424 0.929 . S
H431 C425 0.930 . S
Mn432 O437 2.095 . S
Mn432 O447 2.162 . S
Mn432 O448 2.297 . S
Mn432 O456 2.385 . S
Mn432 O457 2.209 . S
Mn432 O458 2.094 . S
Mn433 O438 2.121 . S
Mn433 N440 2.257 . S
Mn433 N449 2.282 . S
Mn433 O457 2.215 . S
Mn433 O459 2.117 . S
C434 O456 1.234 . S
C434 O457 1.283 . S
C435 O447 1.281 . S
C435 O448 1.236 . S
C436 O458 1.240 . S
C436 O459 1.264 . S
O437 Mn432 2.095 . S
O437 C446 1.250 . S
O438 Mn433 2.121 . S
O438 C446 1.258 . S
C439 N440 1.326 . S
C439 C443 1.460 . S
C439 H445 0.929 . S
N440 Mn433 2.257 . S
N440 C439 1.326 . S
N440 C444 1.362 . S
C441 C442 1.258 . S
C441 C444 1.431 . S
C441 C461 1.449 . S
C442 C441 1.258 . S
C442 C443 1.477 . S
C442 H462 0.931 . S
C443 C439 1.460 . S
C443 C442 1.477 . S
C443 H463 0.930 . S
C444 N440 1.362 . S
C444 C441 1.431 . S
C444 C454 1.476 . S
H445 C439 0.929 . S
C446 O437 1.250 . S
C446 O438 1.258 . S
O447 Mn432 2.162 . S
O447 C435 1.281 . S
O448 Mn432 2.297 . S
O448 C435 1.236 . S
N449 Mn433 2.282 . S
N449 C450 1.328 . S
N449 C454 1.318 . S
C450 N449 1.328 . S
C450 C451 1.457 . S
C450 H455 0.929 . S
C451 C450 1.457 . S
C451 C452 1.291 . S
C451 H464 0.931 . S
C452 C451 1.291 . S
C452 C453 1.373 . S
C452 H465 0.929 . S
C453 C452 1.373 . S
C453 C454 1.396 . S
C453 C460 1.403 . S
C454 C444 1.476 . S
C454 N449 1.318 . S
C454 C453 1.396 . S
H455 C450 0.929 . S
O456 Mn432 2.385 . S
O456 C434 1.234 . S
O457 Mn432 2.209 . S
O457 Mn433 2.215 . S
O457 C434 1.283 . S
O458 Mn432 2.094 . S
O458 C436 1.240 . S
O459 Mn433 2.117 . S
O459 C436 1.264 . S
C460 C453 1.403 . S
C460 C461 1.399 . S
C460 H466 0.929 . S
C461 C441 1.449 . S
C461 C460 1.399 . S
C461 H467 0.930 . S
H462 C442 0.931 . S
H463 C443 0.930 . S
H464 C451 0.931 . S
H465 C452 0.929 . S
H466 C460 0.929 . S
H467 C461 0.930 . S
Mn468 O473 2.095 . S
Mn468 O483 2.162 . S
Mn468 O484 2.297 . S
Mn468 O492 2.385 . S
Mn468 O493 2.209 . S
Mn468 O494 2.094 . S
Mn469 O474 2.121 . S
Mn469 N476 2.257 . S
Mn469 N485 2.282 . S
Mn469 O493 2.215 . S
Mn469 O495 2.117 . S
C470 O492 1.234 . S
C470 O493 1.283 . S
C471 O483 1.281 . S
C471 O484 1.236 . S
C472 O494 1.240 . S
C472 O495 1.264 . S
O473 Mn468 2.095 . S
O473 C482 1.250 . S
O474 Mn469 2.121 . S
O474 C482 1.258 . S
C475 N476 1.326 . S
C475 C479 1.460 . S
C475 H481 0.929 . S
N476 Mn469 2.257 . S
N476 C475 1.326 . S
N476 C480 1.362 . S
C477 C478 1.258 . S
C477 C480 1.431 . S
C477 C497 1.449 . S
C478 C477 1.258 . S
C478 C479 1.477 . S
C478 H498 0.931 . S
C479 C475 1.460 . S
C479 C478 1.477 . S
C479 H499 0.930 . S
C480 N476 1.362 . S
C480 C477 1.431 . S
C480 C490 1.476 . S
H481 C475 0.929 . S
C482 O473 1.250 . S
C482 O474 1.258 . S
O483 Mn468 2.162 . S
O483 C471 1.281 . S
O484 Mn468 2.297 . S
O484 C471 1.236 . S
N485 Mn469 2.282 . S
N485 C486 1.328 . S
N485 C490 1.318 . S
C486 N485 1.328 . S
C486 C487 1.457 . S
C486 H491 0.929 . S
C487 C486 1.457 . S
C487 C488 1.291 . S
C487 H500 0.931 . S
C488 C487 1.291 . S
C488 C489 1.373 . S
C488 H501 0.929 . S
C489 C488 1.373 . S
C489 C490 1.396 . S
C489 C496 1.403 . S
C490 C480 1.476 . S
C490 N485 1.318 . S
C490 C489 1.396 . S
H491 C486 0.929 . S
O492 Mn468 2.385 . S
O492 C470 1.234 . S
O493 Mn468 2.209 . S
O493 Mn469 2.215 . S
O493 C470 1.283 . S
O494 Mn468 2.094 . S
O494 C472 1.240 . S
O495 Mn469 2.117 . S
O495 C472 1.264 . S
C496 C489 1.403 . S
C496 C497 1.399 . S
C496 H502 0.929 . S
C497 C477 1.449 . S
C497 C496 1.399 . S
C497 H503 0.930 . S
H498 C478 0.931 . S
H499 C479 0.930 . S
H500 C487 0.931 . S
H501 C488 0.929 . S
H502 C496 0.929 . S
H503 C497 0.930 . S
Mn504 O509 2.095 . S
Mn504 O519 2.162 1_455 S
Mn504 O520 2.297 . S
Mn504 O528 2.385 . S
Mn504 O529 2.209 . S
Mn504 O530 2.094 . S
Mn505 O510 2.121 . S
Mn505 N512 2.257 . S
Mn505 N521 2.282 . S
Mn505 O529 2.215 . S
Mn505 O531 2.117 . S
C506 O528 1.234 . S
C506 O529 1.283 . S
C507 O519 1.281 . S
C507 O520 1.236 1_655 S
C508 O530 1.240 . S
C508 O531 1.264 . S
O509 Mn504 2.095 . S
O509 C518 1.250 . S
O510 Mn505 2.121 . S
O510 C518 1.258 . S
C511 N512 1.326 . S
C511 C515 1.460 . S
C511 H517 0.929 . S
N512 Mn505 2.257 . S
N512 C511 1.326 . S
N512 C516 1.362 . S
C513 C514 1.258 . S
C513 C516 1.431 . S
C513 C533 1.449 . S
C514 C513 1.258 . S
C514 C515 1.477 . S
C514 H534 0.931 . S
C515 C511 1.460 . S
C515 C514 1.477 . S
C515 H535 0.930 . S
C516 N512 1.362 . S
C516 C513 1.431 . S
C516 C526 1.476 . S
H517 C511 0.929 . S
C518 O509 1.250 . S
C518 O510 1.258 . S
O519 Mn504 2.162 1_655 S
O519 C507 1.281 . S
O520 Mn504 2.297 . S
O520 C507 1.236 1_455 S
N521 Mn505 2.282 . S
N521 C522 1.328 . S
N521 C526 1.318 . S
C522 N521 1.328 . S
C522 C523 1.457 . S
C522 H527 0.929 . S
C523 C522 1.457 . S
C523 C524 1.291 . S
C523 H536 0.931 . S
C524 C523 1.291 . S
C524 C525 1.373 . S
C524 H537 0.929 . S
C525 C524 1.373 . S
C525 C526 1.396 . S
C525 C532 1.403 . S
C526 C516 1.476 . S
C526 N521 1.318 . S
C526 C525 1.396 . S
H527 C522 0.929 . S
O528 Mn504 2.385 . S
O528 C506 1.234 . S
O529 Mn504 2.209 . S
O529 Mn505 2.215 . S
O529 C506 1.283 . S
O530 Mn504 2.094 . S
O530 C508 1.240 . S
O531 Mn505 2.117 . S
O531 C508 1.264 . S
C532 C525 1.403 . S
C532 C533 1.399 . S
C532 H538 0.929 . S
C533 C513 1.449 . S
C533 C532 1.399 . S
C533 H539 0.930 . S
H534 C514 0.931 . S
H535 C515 0.930 . S
H536 C523 0.931 . S
H537 C524 0.929 . S
H538 C532 0.929 . S
H539 C533 0.930 . S
Mn540 O545 2.095 . S
Mn540 O555 2.162 1_545 S
Mn540 O556 2.297 . S
Mn540 O564 2.385 . S
Mn540 O565 2.209 . S
Mn540 O566 2.094 . S
Mn541 O546 2.121 . S
Mn541 N548 2.257 . S
Mn541 N557 2.282 . S
Mn541 O565 2.215 . S
Mn541 O567 2.117 . S
C542 O564 1.234 . S
C542 O565 1.283 . S
C543 O555 1.281 . S
C543 O556 1.236 1_565 S
C544 O566 1.240 . S
C544 O567 1.264 . S
O545 Mn540 2.095 . S
O545 C554 1.250 . S
O546 Mn541 2.121 . S
O546 C554 1.258 . S
C547 N548 1.326 . S
C547 C551 1.460 . S
C547 H553 0.929 . S
N548 Mn541 2.257 . S
N548 C547 1.326 . S
N548 C552 1.362 . S
C549 C550 1.258 . S
C549 C552 1.431 . S
C549 C569 1.449 . S
C550 C549 1.258 . S
C550 C551 1.477 . S
C550 H570 0.931 . S
C551 C547 1.460 . S
C551 C550 1.477 . S
C551 H571 0.930 . S
C552 N548 1.362 . S
C552 C549 1.431 . S
C552 C562 1.476 . S
H553 C547 0.929 . S
C554 O545 1.250 . S
C554 O546 1.258 . S
O555 Mn540 2.162 1_565 S
O555 C543 1.281 . S
O556 Mn540 2.297 . S
O556 C543 1.236 1_545 S
N557 Mn541 2.282 . S
N557 C558 1.328 . S
N557 C562 1.318 . S
C558 N557 1.328 . S
C558 C559 1.457 . S
C558 H563 0.929 . S
C559 C558 1.457 . S
C559 C560 1.291 . S
C559 H572 0.931 . S
C560 C559 1.291 . S
C560 C561 1.373 . S
C560 H573 0.929 . S
C561 C560 1.373 . S
C561 C562 1.396 . S
C561 C568 1.403 . S
C562 C552 1.476 . S
C562 N557 1.318 . S
C562 C561 1.396 . S
H563 C558 0.929 . S
O564 Mn540 2.385 . S
O564 C542 1.234 . S
O565 Mn540 2.209 . S
O565 Mn541 2.215 . S
O565 C542 1.283 . S
O566 Mn540 2.094 . S
O566 C544 1.240 . S
O567 Mn541 2.117 . S
O567 C544 1.264 . S
C568 C561 1.403 . S
C568 C569 1.399 . S
C568 H574 0.929 . S
C569 C549 1.449 . S
C569 C568 1.399 . S
C569 H575 0.930 . S
H570 C550 0.931 . S
H571 C551 0.930 . S
H572 C559 0.931 . S
H573 C560 0.929 . S
H574 C568 0.929 . S
H575 C569 0.930 . S
H576 C582 0.930 . S
H577 C585 0.930 . S
H578 C586 0.930 . S
H579 C587 0.930 1_554 S
H580 C590 0.930 . S
H581 C591 0.930 . S
C582 H576 0.930 . S
C582 C583 1.355 1_556 S
C582 C584 1.415 . S
C583 C582 1.355 1_554 S
C583 C585 1.419 . S
C584 C582 1.415 . S
C584 C589 1.425 . S
C584 C591 1.409 . S
C585 H577 0.930 . S
C585 C583 1.419 . S
C585 C586 1.362 . S
C586 H578 0.930 . S
C586 C585 1.362 . S
C586 C589 1.409 1_554 S
C587 H579 0.930 1_556 S
C587 C588 1.355 . S
C587 C589 1.415 . S
C588 C587 1.355 . S
C588 C590 1.419 . S
C589 C584 1.425 . S
C589 C586 1.409 1_556 S
C589 C587 1.415 . S
C590 H580 0.930 . S
C590 C588 1.419 . S
C590 C591 1.362 . S
C591 H581 0.930 . S
C591 C584 1.409 . S
C591 C590 1.362 . S
H592 C598 0.930 . S
H593 C601 0.930 . S
H594 C602 0.930 . S
H595 C603 0.930 . S
H596 C606 0.930 . S
H597 C607 0.930 . S
C598 H592 0.930 . S
C598 C599 1.355 . S
C598 C600 1.415 . S
C599 C598 1.355 . S
C599 C601 1.419 1_556 S
C600 C598 1.415 . S
C600 C605 1.425 1_556 S
C600 C607 1.409 . S
C601 H593 0.930 . S
C601 C599 1.419 1_554 S
C601 C602 1.362 . S
C602 H594 0.930 . S
C602 C601 1.362 . S
C602 C605 1.409 . S
C603 H595 0.930 . S
C603 C604 1.355 . S
C603 C605 1.415 . S
C604 C603 1.355 . S
C604 C606 1.419 1_554 S
C605 C600 1.425 1_554 S
C605 C602 1.409 . S
C605 C603 1.415 . S
C606 H596 0.930 . S
C606 C604 1.419 1_556 S
C606 C607 1.362 . S
C607 H597 0.930 . S
C607 C600 1.409 . S
C607 C606 1.362 . S
H608 C614 0.930 1_554 S
H609 C617 0.930 . S
H610 C618 0.930 . S
H611 C619 0.930 . S
H612 C622 0.930 . S
H613 C623 0.930 . S
C614 H608 0.930 1_556 S
C614 C615 1.355 . S
C614 C616 1.415 . S
C615 C614 1.355 . S
C615 C617 1.419 . S
C616 C614 1.415 . S
C616 C621 1.425 . S
C616 C623 1.409 1_556 S
C617 H609 0.930 . S
C617 C615 1.419 . S
C617 C618 1.362 . S
C618 H610 0.930 . S
C618 C617 1.362 . S
C618 C621 1.409 . S
C619 H611 0.930 . S
C619 C620 1.355 1_556 S
C619 C621 1.415 . S
C620 C619 1.355 1_554 S
C620 C622 1.419 . S
C621 C616 1.425 . S
C621 C618 1.409 . S
C621 C619 1.415 . S
C622 H612 0.930 . S
C622 C620 1.419 . S
C622 C623 1.362 . S
C623 H613 0.930 . S
C623 C616 1.409 1_554 S
C623 C622 1.362 . S
H624 C630 0.930 . S
H625 C633 0.930 . S
H626 C634 0.930 . S
H627 C635 0.930 . S
H628 C638 0.930 . S
H629 C639 0.930 . S
C630 H624 0.930 . S
C630 C631 1.355 . S
C630 C632 1.415 . S
C631 C630 1.355 . S
C631 C633 1.419 . S
C632 C630 1.415 . S
C632 C637 1.425 . S
C632 C639 1.409 1_556 S
C633 H625 0.930 . S
C633 C631 1.419 . S
C633 C634 1.362 . S
C634 H626 0.930 . S
C634 C633 1.362 . S
C634 C637 1.409 . S
C635 H627 0.930 . S
C635 C636 1.355 1_556 S
C635 C637 1.415 . S
C636 C635 1.355 1_554 S
C636 C638 1.419 . S
C637 C632 1.425 . S
C637 C634 1.409 . S
C637 C635 1.415 . S
C638 H628 0.930 . S
C638 C636 1.419 . S
C638 C639 1.362 . S
C639 H629 0.930 . S
C639 C632 1.409 1_554 S
C639 C638 1.362 . S
H640 C646 0.930 . S
H641 C649 0.930 . S
H642 C650 0.930 . S
H643 C651 0.930 . S
H644 C654 0.930 . S
H645 C655 0.930 . S
C646 H640 0.930 . S
C646 C647 1.355 . S
C646 C648 1.415 . S
C647 C646 1.355 . S
C647 C649 1.419 . S
C648 C646 1.415 . S
C648 C653 1.425 . S
C648 C655 1.409 . S
C649 H641 0.930 . S
C649 C647 1.419 . S
C649 C650 1.362 . S
C650 H642 0.930 . S
C650 C649 1.362 . S
C650 C653 1.409 . S
C651 H643 0.930 . S
C651 C652 1.355 . S
C651 C653 1.415 . S
C652 C651 1.355 . S
C652 C654 1.419 . S
C653 C648 1.425 . S
C653 C650 1.409 . S
C653 C651 1.415 . S
C654 H644 0.930 . S
C654 C652 1.419 . S
C654 C655 1.362 . S
C655 H645 0.930 . S
C655 C648 1.409 . S
C655 C654 1.362 . S
H656 C662 0.930 . S
H657 C665 0.930 . S
H658 C666 0.930 . S
H659 C667 0.930 . S
H660 C670 0.930 . S
H661 C671 0.930 . S
C662 H656 0.930 . S
C662 C663 1.355 . S
C662 C664 1.415 . S
C663 C662 1.355 . S
C663 C665 1.419 . S
C664 C662 1.415 . S
C664 C669 1.425 . S
C664 C671 1.409 . S
C665 H657 0.930 . S
C665 C663 1.419 . S
C665 C666 1.362 . S
C666 H658 0.930 . S
C666 C665 1.362 . S
C666 C669 1.409 . S
C667 H659 0.930 . S
C667 C668 1.355 . S
C667 C669 1.415 . S
C668 C667 1.355 . S
C668 C670 1.419 . S
C669 C664 1.425 . S
C669 C666 1.409 . S
C669 C667 1.415 . S
C670 H660 0.930 . S
C670 C668 1.419 . S
C670 C671 1.362 . S
C671 H661 0.930 . S
C671 C664 1.409 . S
C671 C670 1.362 . S
H672 C678 0.930 . S
H673 C681 0.930 . S
H674 C682 0.930 . S
H675 C683 0.930 . S
H676 C686 0.930 . S
H677 C687 0.930 . S
C678 H672 0.930 . S
C678 C679 1.355 . S
C678 C680 1.415 . S
C679 C678 1.355 . S
C679 C681 1.419 . S
C680 C678 1.415 . S
C680 C685 1.425 . S
C680 C687 1.409 . S
C681 H673 0.930 . S
C681 C679 1.419 . S
C681 C682 1.362 . S
C682 H674 0.930 . S
C682 C681 1.362 . S
C682 C685 1.409 . S
C683 H675 0.930 . S
C683 C684 1.355 . S
C683 C685 1.415 . S
C684 C683 1.355 . S
C684 C686 1.419 . S
C685 C680 1.425 . S
C685 C682 1.409 . S
C685 C683 1.415 . S
C686 H676 0.930 . S
C686 C684 1.419 . S
C686 C687 1.362 . S
C687 H677 0.930 . S
C687 C680 1.409 . S
C687 C686 1.362 . S
H688 C694 0.930 . S
H689 C697 0.930 . S
H690 C698 0.930 . S
H691 C699 0.930 . S
H692 C702 0.930 . S
H693 C703 0.930 . S
C694 H688 0.930 . S
C694 C695 1.355 . S
C694 C696 1.415 . S
C695 C694 1.355 . S
C695 C697 1.419 . S
C696 C694 1.415 . S
C696 C701 1.425 . S
C696 C703 1.409 . S
C697 H689 0.930 . S
C697 C695 1.419 . S
C697 C698 1.362 . S
C698 H690 0.930 . S
C698 C697 1.362 . S
C698 C701 1.409 . S
C699 H691 0.930 . S
C699 C700 1.355 . S
C699 C701 1.415 . S
C700 C699 1.355 . S
C700 C702 1.419 . S
C701 C696 1.425 . S
C701 C698 1.409 . S
C701 C699 1.415 . S
C702 H692 0.930 . S
C702 C700 1.419 . S
C702 C703 1.362 . S
C703 H693 0.930 . S
C703 C696 1.409 . S
C703 C702 1.362 . S
H704 C710 0.930 . S
H705 C713 0.930 . S
H706 C714 0.930 . S
H707 C715 0.930 . S
H708 C718 0.930 . S
H709 C719 0.930 . S
C710 H704 0.930 . S
C710 C711 1.355 1_554 S
C710 C712 1.415 . S
C711 C710 1.355 1_556 S
C711 C713 1.419 . S
C712 C710 1.415 . S
C712 C717 1.425 . S
C712 C719 1.409 . S
C713 H705 0.930 . S
C713 C711 1.419 . S
C713 C714 1.362 . S
C714 H706 0.930 . S
C714 C713 1.362 . S
C714 C717 1.409 1_556 S
C715 H707 0.930 . S
C715 C716 1.355 . S
C715 C717 1.415 . S
C716 C715 1.355 . S
C716 C718 1.419 . S
C717 C712 1.425 . S
C717 C714 1.409 1_554 S
C717 C715 1.415 . S
C718 H708 0.930 . S
C718 C716 1.419 . S
C718 C719 1.362 . S
C719 H709 0.930 . S
C719 C712 1.409 . S
C719 C718 1.362 . S
H720 C726 0.930 . S
H721 C729 0.930 . S
H722 C730 0.930 . S
H723 C731 0.930 1_556 S
H724 C734 0.930 . S
H725 C735 0.930 . S
C726 H720 0.930 . S
C726 C727 1.355 1_554 S
C726 C728 1.415 . S
C727 C726 1.355 1_556 S
C727 C729 1.419 . S
C728 C726 1.415 . S
C728 C733 1.425 . S
C728 C735 1.409 . S
C729 H721 0.930 . S
C729 C727 1.419 . S
C729 C730 1.362 . S
C730 H722 0.930 . S
C730 C729 1.362 . S
C730 C733 1.409 1_556 S
C731 H723 0.930 1_554 S
C731 C732 1.355 . S
C731 C733 1.415 . S
C732 C731 1.355 . S
C732 C734 1.419 . S
C733 C728 1.425 . S
C733 C730 1.409 1_554 S
C733 C731 1.415 . S
C734 H724 0.930 . S
C734 C732 1.419 . S
C734 C735 1.362 . S
C735 H725 0.930 . S
C735 C728 1.409 . S
C735 C734 1.362 . S
H736 C742 0.930 . S
H737 C745 0.930 . S
H738 C746 0.930 . S
H739 C747 0.930 . S
H740 C750 0.930 1_556 S
H741 C751 0.930 . S
C742 H736 0.930 . S
C742 C743 1.355 . S
C742 C744 1.415 1_556 S
C743 C742 1.355 . S
C743 C745 1.419 1_556 S
C744 C742 1.415 1_554 S
C744 C749 1.425 . S
C744 C751 1.409 1_554 S
C745 H737 0.930 . S
C745 C743 1.419 1_554 S
C745 C746 1.362 . S
C746 H738 0.930 . S
C746 C745 1.362 . S
C746 C749 1.409 . S
C747 H739 0.930 . S
C747 C748 1.355 . S
C747 C749 1.415 . S
C748 C747 1.355 . S
C748 C750 1.419 . S
C749 C744 1.425 . S
C749 C746 1.409 . S
C749 C747 1.415 . S
C750 H740 0.930 1_554 S
C750 C748 1.419 . S
C750 C751 1.362 1_554 S
C751 H741 0.930 . S
C751 C744 1.409 1_556 S
C751 C750 1.362 1_556 S
H752 C758 0.930 1_556 S
H753 C761 0.930 . S
H754 C762 0.930 . S
H755 C763 0.930 . S
H756 C766 0.930 . S
H757 C767 0.930 . S
C758 H752 0.930 1_554 S
C758 C759 1.355 . S
C758 C760 1.415 . S
C759 C758 1.355 . S
C759 C761 1.419 . S
C760 C758 1.415 . S
C760 C765 1.425 . S
C760 C767 1.409 1_554 S
C761 H753 0.930 . S
C761 C759 1.419 . S
C761 C762 1.362 . S
C762 H754 0.930 . S
C762 C761 1.362 . S
C762 C765 1.409 . S
C763 H755 0.930 . S
C763 C764 1.355 1_554 S
C763 C765 1.415 . S
C764 C763 1.355 1_556 S
C764 C766 1.419 . S
C765 C760 1.425 . S
C765 C762 1.409 . S
C765 C763 1.415 . S
C766 H756 0.930 . S
C766 C764 1.419 . S
C766 C767 1.362 . S
C767 H757 0.930 . S
C767 C760 1.409 1_556 S
C767 C766 1.362 . S
H768 C774 0.930 . S
H769 C777 0.930 . S
H770 C778 0.930 . S
H771 C779 0.930 . S
H772 C782 0.930 . S
H773 C783 0.930 . S
C774 H768 0.930 . S
C774 C775 1.355 . S
C774 C776 1.415 . S
C775 C774 1.355 . S
C775 C777 1.419 . S
C776 C774 1.415 . S
C776 C781 1.425 . S
C776 C783 1.409 . S
C777 H769 0.930 . S
C777 C775 1.419 . S
C777 C778 1.362 . S
C778 H770 0.930 . S
C778 C777 1.362 . S
C778 C781 1.409 . S
C779 H771 0.930 . S
C779 C780 1.355 . S
C779 C781 1.415 . S
C780 C779 1.355 . S
C780 C782 1.419 . S
C781 C776 1.425 . S
C781 C778 1.409 . S
C781 C779 1.415 . S
C782 H772 0.930 . S
C782 C780 1.419 . S
C782 C783 1.362 . S
C783 H773 0.930 . S
C783 C776 1.409 . S
C783 C782 1.362 . S
H784 C790 0.930 . S
H785 C793 0.930 . S
H786 C794 0.930 . S
H787 C795 0.930 . S
H788 C798 0.930 . S
H789 C799 0.930 . S
C790 H784 0.930 . S
C790 C791 1.355 . S
C790 C792 1.415 . S
C791 C790 1.355 . S
C791 C793 1.419 . S
C792 C790 1.415 . S
C792 C797 1.425 . S
C792 C799 1.409 . S
C793 H785 0.930 . S
C793 C791 1.419 . S
C793 C794 1.362 . S
C794 H786 0.930 . S
C794 C793 1.362 . S
C794 C797 1.409 . S
C795 H787 0.930 . S
C795 C796 1.355 . S
C795 C797 1.415 . S
C796 C795 1.355 . S
C796 C798 1.419 . S
C797 C792 1.425 . S
C797 C794 1.409 . S
C797 C795 1.415 . S
C798 H788 0.930 . S
C798 C796 1.419 . S
C798 C799 1.362 . S
C799 H789 0.930 . S
C799 C792 1.409 . S
C799 C798 1.362 . S
H800 C806 0.930 . S
H801 C809 0.930 . S
H802 C810 0.930 . S
H803 C811 0.930 . S
H804 C814 0.930 . S
H805 C815 0.930 . S
C806 H800 0.930 . S
C806 C807 1.355 . S
C806 C808 1.415 . S
C807 C806 1.355 . S
C807 C809 1.419 . S
C808 C806 1.415 . S
C808 C813 1.425 . S
C808 C815 1.409 . S
C809 H801 0.930 . S
C809 C807 1.419 . S
C809 C810 1.362 . S
C810 H802 0.930 . S
C810 C809 1.362 . S
C810 C813 1.409 . S
C811 H803 0.930 . S
C811 C812 1.355 . S
C811 C813 1.415 . S
C812 C811 1.355 . S
C812 C814 1.419 . S
C813 C808 1.425 . S
C813 C810 1.409 . S
C813 C811 1.415 . S
C814 H804 0.930 . S
C814 C812 1.419 . S
C814 C815 1.362 . S
C815 H805 0.930 . S
C815 C808 1.409 . S
C815 C814 1.362 . S
H816 C822 0.930 . S
H817 C825 0.930 . S
H818 C826 0.930 . S
H819 C827 0.930 . S
H820 C830 0.930 . S
H821 C831 0.930 . S
C822 H816 0.930 . S
C822 C823 1.355 . S
C822 C824 1.415 . S
C823 C822 1.355 . S
C823 C825 1.419 . S
C824 C822 1.415 . S
C824 C829 1.425 . S
C824 C831 1.409 . S
C825 H817 0.930 . S
C825 C823 1.419 . S
C825 C826 1.362 . S
C826 H818 0.930 . S
C826 C825 1.362 . S
C826 C829 1.409 . S
C827 H819 0.930 . S
C827 C828 1.355 . S
C827 C829 1.415 . S
C828 C827 1.355 . S
C828 C830 1.419 . S
C829 C824 1.425 . S
C829 C826 1.409 . S
C829 C827 1.415 . S
C830 H820 0.930 . S
C830 C828 1.419 . S
C830 C831 1.362 . S
C831 H821 0.930 . S
C831 C824 1.409 . S
C831 C830 1.362 . S
H832 C838 0.930 . S
H833 C841 0.930 . S
H834 C842 0.930 1_554 S
H835 C843 0.930 . S
H836 C846 0.930 . S
H837 C847 0.930 1_556 S
C838 H832 0.930 . S
C838 C839 1.355 . S
C838 C840 1.415 . S
C839 C838 1.355 . S
C839 C841 1.419 . S
C840 C838 1.415 . S
C840 C845 1.425 1_566 S
C840 C847 1.409 1_566 S
C841 H833 0.930 . S
C841 C839 1.419 . S
C841 C842 1.363 . S
C842 H834 0.930 1_556 S
C842 C841 1.363 . S
C842 C845 1.409 1_566 S
C843 H835 0.930 . S
C843 C844 1.355 . S
C843 C845 1.415 . S
C844 C843 1.355 . S
C844 C846 1.419 . S
C845 C840 1.425 1_544 S
C845 C842 1.409 1_544 S
C845 C843 1.415 . S
C846 H836 0.930 . S
C846 C844 1.419 . S
C846 C847 1.363 . S
C847 H837 0.930 1_554 S
C847 C840 1.409 1_544 S
C847 C846 1.363 . S
H848 C854 0.930 . S
H849 C857 0.930 . S
H850 C858 0.930 . S
H851 C859 0.930 . S
H852 C862 0.930 . S
H853 C863 0.930 . S
C854 H848 0.930 . S
C854 C855 1.355 . S
C854 C856 1.415 . S
C855 C854 1.355 . S
C855 C857 1.419 1_554 S
C856 C854 1.415 . S
C856 C861 1.425 1_554 S
C856 C863 1.409 . S
C857 H849 0.930 . S
C857 C855 1.419 1_556 S
C857 C858 1.362 . S
C858 H850 0.930 . S
C858 C857 1.362 . S
C858 C861 1.409 . S
C859 H851 0.930 . S
C859 C860 1.355 . S
C859 C861 1.415 . S
C860 C859 1.355 . S
C860 C862 1.419 1_556 S
C861 C856 1.425 1_556 S
C861 C858 1.409 . S
C861 C859 1.415 . S
C862 H852 0.930 . S
C862 C860 1.419 1_554 S
C862 C863 1.362 . S
C863 H853 0.930 . S
C863 C856 1.409 . S
C863 C862 1.362 . S
H864 C870 0.930 . S
H865 C873 0.930 . S
H866 C874 0.930 . S
H867 C875 0.930 . S
H868 C878 0.930 . S
H869 C879 0.930 . S
C870 H864 0.930 . S
C870 C871 1.355 1_455 S
C870 C872 1.415 . S
C871 C870 1.355 1_655 S
C871 C873 1.419 1_556 S
C872 C870 1.415 . S
C872 C877 1.425 1_456 S
C872 C879 1.409 . S
C873 H865 0.930 . S
C873 C871 1.419 1_554 S
C873 C874 1.362 . S
C874 H866 0.930 . S
C874 C873 1.362 . S
C874 C877 1.409 . S
C875 H867 0.930 . S
C875 C876 1.355 1_655 S
C875 C877 1.415 . S
C876 C875 1.355 1_455 S
C876 C878 1.419 1_554 S
C877 C872 1.425 1_654 S
C877 C874 1.409 . S
C877 C875 1.415 . S
C878 H868 0.930 . S
C878 C876 1.419 1_556 S
C878 C879 1.362 . S
C879 H869 0.930 . S
C879 C872 1.409 . S
C879 C878 1.362 . S
H880 C886 0.930 . S
H881 C889 0.930 . S
H882 C890 0.930 1_655 S
H883 C891 0.930 . S
H884 C894 0.930 . S
H885 C895 0.930 1_455 S
C886 H880 0.930 . S
C886 C887 1.355 1_556 S
C886 C888 1.415 1_545 S
C887 C886 1.355 1_554 S
C887 C889 1.419 . S
C888 C886 1.415 1_565 S
C888 C893 1.425 1_466 S
C888 C895 1.409 1_455 S
C889 H881 0.930 . S
C889 C887 1.419 . S
C889 C890 1.362 . S
C890 H882 0.930 1_455 S
C890 C889 1.362 . S
C890 C893 1.409 1_455 S
C891 H883 0.930 . S
C891 C892 1.355 1_554 S
C891 C893 1.415 1_565 S
C892 C891 1.355 1_556 S
C892 C894 1.419 . S
C893 C888 1.425 1_644 S
C893 C890 1.409 1_655 S
C893 C891 1.415 1_545 S
C894 H884 0.930 . S
C894 C892 1.419 . S
C894 C895 1.362 . S
C895 H885 0.930 1_655 S
C895 C888 1.409 1_655 S
C895 C894 1.362 . S
H896 C902 0.930 . S
H897 C905 0.930 . S
H898 C906 0.930 . S
H899 C907 0.930 . S
H900 C910 0.930 . S
H901 C911 0.930 . S
C902 H896 0.930 . S
C902 C903 1.355 . S
C902 C904 1.415 . S
C903 C902 1.355 . S
C903 C905 1.419 . S
C904 C902 1.415 . S
C904 C909 1.425 . S
C904 C911 1.409 . S
C905 H897 0.930 . S
C905 C903 1.419 . S
C905 C906 1.362 . S
C906 H898 0.930 . S
C906 C905 1.362 . S
C906 C909 1.409 . S
C907 H899 0.930 . S
C907 C908 1.355 . S
C907 C909 1.415 . S
C908 C907 1.355 . S
C908 C910 1.419 . S
C909 C904 1.425 . S
C909 C906 1.409 . S
C909 C907 1.415 . S
C910 H900 0.930 . S
C910 C908 1.419 . S
C910 C911 1.362 . S
C911 H901 0.930 . S
C911 C904 1.409 . S
C911 C910 1.362 . S
H912 C918 0.930 . S
H913 C921 0.930 . S
H914 C922 0.930 1_655 S
H915 C923 0.930 . S
H916 C926 0.930 . S
H917 C927 0.930 1_455 S
C918 H912 0.930 . S
C918 C919 1.355 . S
C918 C920 1.415 . S
C919 C918 1.355 . S
C919 C921 1.419 . S
C920 C918 1.415 . S
C920 C925 1.425 1_455 S
C920 C927 1.409 1_455 S
C921 H913 0.930 . S
C921 C919 1.419 . S
C921 C922 1.362 . S
C922 H914 0.930 1_455 S
C922 C921 1.362 . S
C922 C925 1.409 1_455 S
C923 H915 0.930 . S
C923 C924 1.355 . S
C923 C925 1.415 . S
C924 C923 1.355 . S
C924 C926 1.419 . S
C925 C920 1.425 1_655 S
C925 C922 1.409 1_655 S
C925 C923 1.415 . S
C926 H916 0.930 . S
C926 C924 1.419 . S
C926 C927 1.362 . S
C927 H917 0.930 1_655 S
C927 C920 1.409 1_655 S
C927 C926 1.362 . S
H928 C934 0.930 . S
H929 C937 0.930 . S
H930 C938 0.930 . S
H931 C939 0.930 . S
H932 C942 0.930 . S
H933 C943 0.930 . S
C934 H928 0.930 . S
C934 C935 1.355 . S
C934 C936 1.416 . S
C935 C934 1.355 . S
C935 C937 1.419 1_655 S
C936 C934 1.416 . S
C936 C941 1.425 1_665 S
C936 C943 1.408 1_565 S
C937 H929 0.930 . S
C937 C935 1.419 1_455 S
C937 C938 1.362 . S
C938 H930 0.930 . S
C938 C937 1.362 . S
C938 C941 1.408 1_565 S
C939 H931 0.930 . S
C939 C940 1.355 . S
C939 C941 1.416 . S
C940 C939 1.355 . S
C940 C942 1.419 1_455 S
C941 C936 1.425 1_445 S
C941 C938 1.408 1_545 S
C941 C939 1.416 . S
C942 H932 0.930 . S
C942 C940 1.419 1_655 S
C942 C943 1.362 . S
C943 H933 0.930 . S
C943 C936 1.408 1_545 S
C943 C942 1.362 . S
H944 C950 0.930 . S
H945 C953 0.930 . S
H946 C954 0.930 . S
H947 C955 0.930 . S
H948 C958 0.930 . S
H949 C959 0.930 . S
C950 H944 0.930 . S
C950 C951 1.355 . S
C950 C952 1.412 1_565 S
C951 C950 1.355 . S
C951 C953 1.419 . S
C952 C950 1.412 1_545 S
C952 C957 1.425 1_545 S
C952 C959 1.412 . S
C953 H945 0.930 . S
C953 C951 1.419 . S
C953 C954 1.362 . S
C954 H946 0.930 . S
C954 C953 1.362 . S
C954 C957 1.412 . S
C955 H947 0.930 . S
C955 C956 1.355 . S
C955 C957 1.412 1_545 S
C956 C955 1.355 . S
C956 C958 1.419 . S
C957 C952 1.425 1_565 S
C957 C954 1.412 . S
C957 C955 1.412 1_565 S
C958 H948 0.930 . S
C958 C956 1.419 . S
C958 C959 1.362 . S
C959 H949 0.930 . S
C959 C952 1.412 . S
C959 C958 1.362 . S
H960 C966 0.930 . S
H961 C969 0.930 . S
H962 C970 0.930 . S
H963 C971 0.930 . S
H964 C974 0.930 . S
H965 C975 0.930 . S
C966 H960 0.930 . S
C966 C967 1.355 . S
C966 C968 1.415 . S
C967 C966 1.355 . S
C967 C969 1.419 . S
C968 C966 1.415 . S
C968 C973 1.425 . S
C968 C975 1.409 . S
C969 H961 0.930 . S
C969 C967 1.419 . S
C969 C970 1.362 . S
C970 H962 0.930 . S
C970 C969 1.362 . S
C970 C973 1.409 . S
C971 H963 0.930 . S
C971 C972 1.355 . S
C971 C973 1.415 . S
C972 C971 1.355 . S
C972 C974 1.419 . S
C973 C968 1.425 . S
C973 C970 1.409 . S
C973 C971 1.415 . S
C974 H964 0.930 . S
C974 C972 1.419 . S
C974 C975 1.362 . S
C975 H965 0.930 . S
C975 C968 1.409 . S
C975 C974 1.362 . S
H976 C982 0.930 . S
H977 C985 0.930 . S
H978 C986 0.930 . S
H979 C987 0.930 . S
H980 C990 0.930 . S
H981 C991 0.930 . S
C982 H976 0.930 . S
C982 C983 1.355 . S
C982 C984 1.415 . S
C983 C982 1.355 . S
C983 C985 1.419 . S
C984 C982 1.415 . S
C984 C989 1.425 . S
C984 C991 1.409 . S
C985 H977 0.930 . S
C985 C983 1.419 . S
C985 C986 1.362 . S
C986 H978 0.930 . S
C986 C985 1.362 . S
C986 C989 1.409 . S
C987 H979 0.930 . S
C987 C988 1.355 . S
C987 C989 1.415 . S
C988 C987 1.355 . S
C988 C990 1.419 . S
C989 C984 1.425 . S
C989 C986 1.409 . S
C989 C987 1.415 . S
C990 H980 0.930 . S
C990 C988 1.419 . S
C990 C991 1.362 . S
C991 H981 0.930 . S
C991 C984 1.409 . S
C991 C990 1.362 . S
H992 C998 0.930 . S
H993 C1001 0.930 . S
H994 C1002 0.930 . S
H995 C1003 0.930 1_455 S
H996 C1006 0.930 . S
H997 C1007 0.930 . S
C998 H992 0.930 . S
C998 C999 1.355 . S
C998 C1000 1.415 . S
C999 C998 1.355 . S
C999 C1001 1.419 1_655 S
C1000 C998 1.415 . S
C1000 C1005 1.425 . S
C1000 C1007 1.409 . S
C1001 H993 0.930 . S
C1001 C999 1.419 1_455 S
C1001 C1002 1.362 . S
C1002 H994 0.930 . S
C1002 C1001 1.362 . S
C1002 C1005 1.409 1_455 S
C1003 H995 0.930 1_655 S
C1003 C1004 1.355 . S
C1003 C1005 1.415 . S
C1004 C1003 1.355 . S
C1004 C1006 1.419 . S
C1005 C1000 1.425 . S
C1005 C1002 1.409 1_655 S
C1005 C1003 1.415 . S
C1006 H996 0.930 . S
C1006 C1004 1.419 . S
C1006 C1007 1.362 . S
C1007 H997 0.930 . S
C1007 C1000 1.409 . S
C1007 C1006 1.362 . S
H1008 C1014 0.930 . S
H1009 C1017 0.930 . S
H1010 C1018 0.930 . S
H1011 C1019 0.930 . S
H1012 C1022 0.930 . S
H1013 C1023 0.930 . S
C1014 H1008 0.930 . S
C1014 C1015 1.355 . S
C1014 C1016 1.415 . S
C1015 C1014 1.355 . S
C1015 C1017 1.419 . S
C1016 C1014 1.415 . S
C1016 C1021 1.425 . S
C1016 C1023 1.409 . S
C1017 H1009 0.930 . S
C1017 C1015 1.419 . S
C1017 C1018 1.362 . S
C1018 H1010 0.930 . S
C1018 C1017 1.362 . S
C1018 C1021 1.409 . S
C1019 H1011 0.930 . S
C1019 C1020 1.355 . S
C1019 C1021 1.415 . S
C1020 C1019 1.355 . S
C1020 C1022 1.419 . S
C1021 C1016 1.425 . S
C1021 C1018 1.409 . S
C1021 C1019 1.415 . S
C1022 H1012 0.930 . S
C1022 C1020 1.419 . S
C1022 C1023 1.362 . S
C1023 H1013 0.930 . S
C1023 C1016 1.409 . S
C1023 C1022 1.362 . S
H1024 C1030 0.930 . S
H1025 C1033 0.930 . S
H1026 C1034 0.930 . S
H1027 C1035 0.930 . S
H1028 C1038 0.930 . S
H1029 C1039 0.930 . S
C1030 H1024 0.930 . S
C1030 C1031 1.355 . S
C1030 C1032 1.415 . S
C1031 C1030 1.355 . S
C1031 C1033 1.419 . S
C1032 C1030 1.415 . S
C1032 C1037 1.425 . S
C1032 C1039 1.409 . S
C1033 H1025 0.930 . S
C1033 C1031 1.419 . S
C1033 C1034 1.362 . S
C1034 H1026 0.930 . S
C1034 C1033 1.362 . S
C1034 C1037 1.409 . S
C1035 H1027 0.930 . S
C1035 C1036 1.355 . S
C1035 C1037 1.415 . S
C1036 C1035 1.355 . S
C1036 C1038 1.419 . S
C1037 C1032 1.425 . S
C1037 C1034 1.409 . S
C1037 C1035 1.415 . S
C1038 H1028 0.930 . S
C1038 C1036 1.419 . S
C1038 C1039 1.362 . S
C1039 H1029 0.930 . S
C1039 C1032 1.409 . S
C1039 C1038 1.362 . S
H1040 C1046 0.930 . S
H1041 C1049 0.930 . S
H1042 C1050 0.930 . S
H1043 C1051 0.930 . S
H1044 C1054 0.930 . S
H1045 C1055 0.930 . S
C1046 H1040 0.930 . S
C1046 C1047 1.355 . S
C1046 C1048 1.415 . S
C1047 C1046 1.355 . S
C1047 C1049 1.419 . S
C1048 C1046 1.415 . S
C1048 C1053 1.425 . S
C1048 C1055 1.409 . S
C1049 H1041 0.930 . S
C1049 C1047 1.419 . S
C1049 C1050 1.362 . S
C1050 H1042 0.930 . S
C1050 C1049 1.362 . S
C1050 C1053 1.409 . S
C1051 H1043 0.930 . S
C1051 C1052 1.355 . S
C1051 C1053 1.415 . S
C1052 C1051 1.355 . S
C1052 C1054 1.419 . S
C1053 C1048 1.425 . S
C1053 C1050 1.409 . S
C1053 C1051 1.415 . S
C1054 H1044 0.930 . S
C1054 C1052 1.419 . S
C1054 C1055 1.362 . S
C1055 H1045 0.930 . S
C1055 C1048 1.409 . S
C1055 C1054 1.362 . S
H1056 C1062 0.930 . S
H1057 C1065 0.930 . S
H1058 C1066 0.930 . S
H1059 C1067 0.930 . S
H1060 C1070 0.928 1_655 S
H1061 C1071 0.930 1_655 S
C1062 H1056 0.930 . S
C1062 C1063 1.355 . S
C1062 C1064 1.415 . S
C1063 C1062 1.355 . S
C1063 C1065 1.419 . S
C1064 C1062 1.415 . S
C1064 C1069 1.425 . S
C1064 C1071 1.409 . S
C1065 H1057 0.930 . S
C1065 C1063 1.419 . S
C1065 C1066 1.362 . S
C1066 H1058 0.930 . S
C1066 C1065 1.362 . S
C1066 C1069 1.409 . S
C1067 H1059 0.930 . S
C1067 C1068 1.355 . S
C1067 C1069 1.415 . S
C1068 C1067 1.355 . S
C1068 C1070 1.419 . S
C1069 C1064 1.425 . S
C1069 C1066 1.409 . S
C1069 C1067 1.415 . S
C1070 H1060 0.928 1_455 S
C1070 C1068 1.419 . S
C1070 C1071 1.362 . S
C1071 H1061 0.930 1_455 S
C1071 C1064 1.409 . S
C1071 C1070 1.362 . S
H1072 C1078 0.930 . S
H1073 C1081 0.930 . S
H1074 C1082 0.930 . S
H1075 C1083 0.930 . S
H1076 C1086 0.930 . S
H1077 C1087 0.930 . S
C1078 H1072 0.930 . S
C1078 C1079 1.355 . S
C1078 C1080 1.415 . S
C1079 C1078 1.355 . S
C1079 C1081 1.419 . S
C1080 C1078 1.415 . S
C1080 C1085 1.425 . S
C1080 C1087 1.409 . S
C1081 H1073 0.930 . S
C1081 C1079 1.419 . S
C1081 C1082 1.362 . S
C1082 H1074 0.930 . S
C1082 C1081 1.362 . S
C1082 C1085 1.409 . S
C1083 H1075 0.930 . S
C1083 C1084 1.355 . S
C1083 C1085 1.415 . S
C1084 C1083 1.355 . S
C1084 C1086 1.419 . S
C1085 C1080 1.425 . S
C1085 C1082 1.409 . S
C1085 C1083 1.415 . S
C1086 H1076 0.930 . S
C1086 C1084 1.419 . S
C1086 C1087 1.362 . S
C1087 H1077 0.930 . S
C1087 C1080 1.409 . S
C1087 C1086 1.362 . S
C583 C4 0.808 . S
C588 C326 0.900 . S
C599 C362 0.892 . S
C604 C40 0.842 . S
C615 C398 0.920 . S
C620 C76 0.806 . S
C631 C290 0.940 . S
C636 C112 0.949 . S
C647 C148 0.926 . S
C652 C542 0.945 . S
C663 C434 0.893 . S
C668 C184 0.832 . S
C679 C470 0.915 . S
C684 C220 0.953 . S
C695 C506 0.919 . S
C700 C256 0.804 . S
C711 C292 0.953 . S
C716 C38 0.939 . S
C727 C328 0.947 . S
C732 C74 0.942 . S
C743 C364 0.959 . S
C748 C110 0.922 . S
C759 C2 0.900 . S
C764 C400 0.808 . S
C775 C436 0.940 . S
C780 C254 0.943 . S
C791 C472 0.874 . S
C796 C146 0.892 . S
C807 C182 0.914 . S
C812 C508 0.801 . S
C823 C544 0.930 . S
C828 C218 0.945 . S
C839 C291 1.844 . S
C844 C3 1.844 . S
C855 C39 1.798 . S
C860 C327 1.798 . S
C871 C363 1.840 . S
C876 C75 1.840 . S
C887 C111 1.827 . S
C892 C399 1.827 . S
C903 C435 1.809 . S
C908 C147 1.809 . S
C919 C183 1.842 . S
C924 C471 1.842 . S
C935 C507 1.801 . S
C940 C219 1.801 . S
C951 C543 1.820 . S
C956 C255 1.820 . S
C967 C158 1.542 . S
C972 C14 1.479 . S
C983 C194 1.496 . S
C988 C50 1.490 . S
C999 C86 1.550 . S
C1004 C230 1.482 . S
C1015 C266 1.569 . S
C1020 C122 1.568 . S
C1031 C302 1.479 . S
C1036 C446 1.516 . S
C1047 C482 1.490 . S
C1052 C338 1.496 . S
C1063 C518 1.478 . S
C1068 C374 1.531 . S
C1079 C554 1.480 . S
C1084 C410 1.513 . S
