# Generated by pormake.
# Topology wli, (5)-cn, num edge types: 1
# Building blocks:
#     Node 0, Type 0, BuildingBlock: BEQFEK_clean_sbu_0, # of connection points: 5
#     Node 1, Type 0, BuildingBlock: BEQFEK_clean_sbu_0, # of connection points: 5
#     Node 2, Type 0, BuildingBlock: BEQFEK_clean_sbu_0, # of connection points: 5
#     Node 3, Type 0, BuildingBlock: BEQFEK_clean_sbu_0, # of connection points: 5
#     Node 4, Type 0, BuildingBlock: BEQFEK_clean_sbu_0, # of connection points: 5
#     Node 5, Type 0, BuildingBlock: BEQFEK_clean_sbu_0, # of connection points: 5
#     Edge 6, Type (0, 0), BuildingBlock: UVAHIK_clean_linker_0, # of connection points: 2
#     Edge 7, Type (0, 0), BuildingBlock: UVAHIK_clean_linker_0, # of connection points: 2
#     Edge 8, Type (0, 0), BuildingBlock: UVAHIK_clean_linker_0, # of connection points: 2
#     Edge 9, Type (0, 0), BuildingBlock: UVAHIK_clean_linker_0, # of connection points: 2
#     Edge 10, Type (0, 0), BuildingBlock: UVAHIK_clean_linker_0, # of connection points: 2
#     Edge 11, Type (0, 0), BuildingBlock: UVAHIK_clean_linker_0, # of connection points: 2
#     Edge 12, Type (0, 0), BuildingBlock: UVAHIK_clean_linker_0, # of connection points: 2
#     Edge 13, Type (0, 0), BuildingBlock: UVAHIK_clean_linker_0, # of connection points: 2
#     Edge 14, Type (0, 0), BuildingBlock: UVAHIK_clean_linker_0, # of connection points: 2
#     Edge 15, Type (0, 0), BuildingBlock: UVAHIK_clean_linker_0, # of connection points: 2
#     Edge 16, Type (0, 0), BuildingBlock: UVAHIK_clean_linker_0, # of connection points: 2
#     Edge 17, Type (0, 0), BuildingBlock: UVAHIK_clean_linker_0, # of connection points: 2
#     Edge 18, Type (0, 0), BuildingBlock: UVAHIK_clean_linker_0, # of connection points: 2
#     Edge 19, Type (0, 0), BuildingBlock: UVAHIK_clean_linker_0, # of connection points: 2
#     Edge 20, Type (0, 0), BuildingBlock: UVAHIK_clean_linker_0, # of connection points: 2
# Relax obj value: 0.162
# Max RMSD: 0.125
# Mean RMSD: 0.125
data_MOF--net-wli--node1-BEQFEK_clean_sbu_0--edge1-UVAHIK_clean_linker_0
_symmetry_space_group_name_H-M    P1
_symmetry_Int_Tables_number       1
_symmetry_cell_setting            triclinic
loop_
_symmetry_equiv_pos_as_xyz
'x, y, z'
_cell_length_a     46.217763
_cell_length_b     46.22543
_cell_length_c     35.142003
_cell_angle_alpha  89.986988
_cell_angle_beta   90.000437
_cell_angle_gamma 119.94996
loop_
_atom_site_label
_atom_site_type_symbol
_atom_site_fract_x
_atom_site_fract_y
_atom_site_fract_z
_atom_type_partial_charge
Co0 Co 0.18951 0.42865 0.01163 0.0
Co1 Co 0.13175 0.37468 0.06223 0.0
C2 C 0.18526 0.36336 0.03041 0.0
O3 O 0.19922 0.39196 0.01474 0.0
O4 O 0.15868 0.35296 0.04996 0.0
C5 C 0.2434 0.46056 0.96024 0.0
O6 O 0.23271 0.42947 0.95021 0.0
C7 C 0.10012 0.33451 0.13083 0.0
C8 C 0.04769 0.32185 0.12263 0.0
C9 C 0.0687 0.31823 0.14796 0.0
N10 N 0.09757 0.34743 0.09754 0.0
N11 N 0.06612 0.33947 0.09266 0.0
C12 C 0.13193 0.33705 0.14472 0.0
H13 H 0.1491 0.34136 0.12068 0.0
H14 H 0.14464 0.35859 0.16437 0.0
H15 H 0.12678 0.31396 0.16004 0.0
C16 C 0.19817 0.47057 0.07823 0.0
N17 N 0.18324 0.44075 0.06076 0.0
N18 N 0.15825 0.41895 0.08175 0.0
C19 C 0.15571 0.43474 0.11283 0.0
C20 C 0.18106 0.46801 0.11168 0.0
C21 C 0.2284 0.50077 0.06292 0.0
H22 H 0.24647 0.49359 0.05207 0.0
H23 H 0.24086 0.52025 0.08507 0.0
H24 H 0.22091 0.51113 0.03882 0.0
O25 O 0.14932 0.41534 0.97985 0.0
O26 O 0.10908 0.37622 0.01545 0.0
H27 H 0.10352 0.40333 0.12466 0.0
H28 H 0.12427 0.43884 0.15577 0.0
C29 C 0.12704 0.41951 0.14017 0.0
H30 H 0.13122 0.40402 0.16108 0.0
H31 H 0.05735 0.34661 0.06916 0.0
O32 O 0.22803 0.46658 0.98623 0.0
C33 C 0.11874 0.39361 0.98516 0.0
Co34 Co 0.5784 0.76886 0.67882 0.0
Co35 Co 0.63124 0.76269 0.72947 0.0
C36 C 0.64442 0.82855 0.69965 0.0
O37 O 0.61624 0.81457 0.68299 0.0
O38 O 0.65386 0.81171 0.71952 0.0
C39 C 0.53775 0.79688 0.65836 0.0
O40 O 0.55949 0.82203 0.67908 0.0
C41 C 0.67293 0.76817 0.79634 0.0
C42 C 0.68005 0.72492 0.7865 0.0
C43 C 0.68736 0.75064 0.81182 0.0
N44 N 0.65742 0.75305 0.76375 0.0
N45 N 0.66208 0.72742 0.75795 0.0
C46 C 0.67469 0.79932 0.81137 0.0
H47 H 0.67273 0.8142 0.78788 0.0
H48 H 0.65354 0.79258 0.8311 0.0
H49 H 0.69839 0.81465 0.8271 0.0
C50 C 0.53508 0.73247 0.74371 0.0
N51 N 0.56539 0.74872 0.72727 0.0
N52 N 0.58708 0.74556 0.74859 0.0
C53 C 0.57095 0.72659 0.7791 0.0
C54 C 0.53758 0.71798 0.77715 0.0
C55 C 0.50374 0.72751 0.72518 0.0
H56 H 0.5023 0.71835 0.69568 0.0
H57 H 0.50451 0.75185 0.72365 0.0
H58 H 0.48106 0.70948 0.74099 0.0
O59 O 0.59139 0.74282 0.64545 0.0
O60 O 0.62906 0.73931 0.68142 0.0
H61 H 0.59765 0.70138 0.7937 0.0
H62 H 0.56828 0.69846 0.82972 0.0
C63 C 0.58659 0.71494 0.8081 0.0
H64 H 0.60687 0.73685 0.82281 0.0
H65 H 0.65252 0.71129 0.73473 0.0
O66 O 0.54098 0.77129 0.65447 0.0
C67 C 0.6124 0.73302 0.65067 0.0
Co68 Co 0.2415 0.8161 0.34152 0.0
Co69 Co 0.24008 0.86995 0.39474 0.0
C70 C 0.17756 0.81544 0.36174 0.0
O71 O 0.19428 0.80422 0.3449 0.0
O72 O 0.19179 0.84105 0.38313 0.0
C73 C 0.22399 0.74889 0.33005 0.0
O74 O 0.20792 0.74525 0.36214 0.0
C75 C 0.22838 0.90304 0.46066 0.0
C76 C 0.27498 0.95188 0.45965 0.0
C77 C 0.24589 0.9331 0.48024 0.0
N78 N 0.2468 0.90388 0.43054 0.0
N79 N 0.27433 0.93337 0.42983 0.0
C80 C 0.19449 0.87428 0.46971 0.0
H81 H 0.18041 0.86327 0.44314 0.0
H82 H 0.19714 0.85466 0.48483 0.0
H83 H 0.18008 0.88231 0.48777 0.0
C84 C 0.27986 0.81164 0.40657 0.0
N85 N 0.26141 0.82338 0.39023 0.0
N86 N 0.2595 0.8447 0.41347 0.0
C87 C 0.27609 0.84654 0.44582 0.0
C88 C 0.28955 0.82566 0.44249 0.0
C89 C 0.29149 0.79075 0.38638 0.0
H90 H 0.29386 0.79612 0.35544 0.0
H91 H 0.27304 0.76397 0.39088 0.0
H92 H 0.31599 0.79562 0.39753 0.0
O93 O 0.2657 0.85635 0.30996 0.0
O94 O 0.264 0.89407 0.34766 0.0
H95 H 0.29575 0.89445 0.47202 0.0
H96 H 0.28869 0.86136 0.50477 0.0
C97 C 0.27892 0.86781 0.47928 0.0
H98 H 0.25402 0.86426 0.48624 0.0
H99 H 0.29319 0.94048 0.40957 0.0
O100 O 0.24111 0.7779 0.31579 0.0
C101 C 0.27263 0.8862 0.31663 0.0
Co102 Co 0.42318 0.19131 0.97936 0.0
Co103 Co 0.36979 0.1302 0.93183 0.0
C104 C 0.35777 0.18515 0.95612 0.0
O105 O 0.38634 0.20064 0.97185 0.0
O106 O 0.34759 0.15716 0.93968 0.0
C107 C 0.4655 0.26056 0.99665 0.0
O108 O 0.44459 0.26426 0.97468 0.0
C109 C 0.32518 0.0909 0.8682 0.0
C110 C 0.3231 0.04253 0.87676 0.0
C111 C 0.31226 0.05905 0.85292 0.0
N112 N 0.34333 0.09315 0.89919 0.0
N113 N 0.34162 0.06401 0.90431 0.0
C114 C 0.31968 0.11843 0.85436 0.0
H115 H 0.31773 0.13253 0.8787 0.0
H116 H 0.34126 0.13603 0.83672 0.0
H117 H 0.29656 0.10842 0.83707 0.0
C118 C 0.4662 0.19445 0.9157 0.0
N119 N 0.4361 0.18124 0.93254 0.0
N120 N 0.41385 0.15634 0.9118 0.0
C121 C 0.42919 0.15309 0.88076 0.0
C122 C 0.46288 0.17718 0.88219 0.0
C123 C 0.49793 0.2207 0.93364 0.0
H124 H 0.49804 0.21513 0.96431 0.0
H125 H 0.49926 0.24527 0.9311 0.0
H126 H 0.5203 0.22221 0.92006 0.0
O127 O 0.40912 0.15389 0.01547 0.0
O128 O 0.37205 0.11085 0.98131 0.0
H129 H 0.40351 0.10218 0.8625 0.0
H130 H 0.42838 0.13151 0.82566 0.0
C131 C 0.41192 0.12734 0.85047 0.0
H132 H 0.38966 0.12821 0.84054 0.0
H133 H 0.35365 0.05897 0.92628 0.0
O134 O 0.46109 0.23148 0.00237 0.0
C135 C 0.3884 0.12283 0.01198 0.0
Co136 Co 0.81587 0.24236 0.6544 0.0
Co137 Co 0.87309 0.24588 0.60283 0.0
C138 C 0.82401 0.18245 0.63965 0.0
O139 O 0.8107 0.1975 0.65588 0.0
O140 O 0.84808 0.19754 0.61631 0.0
C141 C 0.74863 0.21198 0.68081 0.0
O142 O 0.74714 0.18523 0.66588 0.0
C143 C 0.90735 0.2384 0.53566 0.0
C144 C 0.95908 0.27885 0.54612 0.0
C145 C 0.93947 0.25391 0.52047 0.0
N146 N 0.90817 0.25384 0.56844 0.0
N147 N 0.93919 0.27782 0.57458 0.0
C148 C 0.87669 0.20854 0.52062 0.0
H149 H 0.85868 0.19536 0.54391 0.0
H150 H 0.86434 0.2167 0.49959 0.0
H151 H 0.8833 0.19121 0.50631 0.0
C152 C 0.80404 0.27155 0.58576 0.0
N153 N 0.82003 0.25794 0.60377 0.0
N154 N 0.84494 0.26126 0.58248 0.0
C155 C 0.84633 0.27834 0.5507 0.0
C156 C 0.82032 0.28531 0.55165 0.0
C157 C 0.7738 0.27139 0.60134 0.0
H158 H 0.75556 0.24589 0.6112 0.0
H159 H 0.76149 0.27904 0.57966 0.0
H160 H 0.78112 0.28846 0.62616 0.0
O161 O 0.85594 0.27277 0.6845 0.0
O162 O 0.89516 0.27169 0.64907 0.0
H163 H 0.89857 0.30017 0.53817 0.0
H164 H 0.87662 0.31342 0.50682 0.0
C165 C 0.87472 0.29192 0.52295 0.0
H166 H 0.87086 0.27206 0.50251 0.0
H167 H 0.94676 0.29373 0.59808 0.0
O168 O 0.77587 0.23968 0.67908 0.0
C169 C 0.88636 0.28125 0.67864 0.0
Co170 Co 0.75914 0.57147 0.31969 0.0
Co171 Co 0.75856 0.6269 0.26842 0.0
C172 C 0.82219 0.63514 0.29845 0.0
O173 O 0.8062 0.60697 0.31501 0.0
O174 O 0.80713 0.64656 0.27847 0.0
C175 C 0.77692 0.52146 0.33028 0.0
O176 O 0.79285 0.53368 0.29807 0.0
C177 C 0.76835 0.67249 0.20382 0.0
C178 C 0.72069 0.67272 0.20599 0.0
C179 C 0.74981 0.68435 0.18505 0.0
N180 N 0.75047 0.65402 0.23377 0.0
N181 N 0.7223 0.65479 0.23518 0.0
C182 C 0.80267 0.67906 0.19419 0.0
H183 H 0.81706 0.68225 0.22055 0.0
H184 H 0.80084 0.65741 0.17845 0.0
H185 H 0.81633 0.70189 0.17655 0.0
C186 C 0.71992 0.52913 0.25477 0.0
N187 N 0.73811 0.55912 0.27157 0.0
N188 N 0.73932 0.58247 0.24907 0.0
C189 C 0.72262 0.56806 0.21669 0.0
C190 C 0.70972 0.53377 0.21927 0.0
C191 C 0.70922 0.49646 0.27413 0.0
H192 H 0.70709 0.49887 0.30524 0.0
H193 H 0.72807 0.48877 0.26874 0.0
H194 H 0.68479 0.47667 0.26305 0.0
O195 O 0.73554 0.58713 0.35283 0.0
O196 O 0.73564 0.62656 0.31661 0.0
H197 H 0.70211 0.59584 0.19114 0.0
H198 H 0.7104 0.57107 0.15779 0.0
C199 C 0.71957 0.58682 0.18368 0.0
H200 H 0.74428 0.60867 0.17729 0.0
H201 H 0.70366 0.64216 0.25547 0.0
O202 O 0.76003 0.53359 0.34465 0.0
C203 C 0.72806 0.60983 0.34745 0.0
C204 C 0.23159 0.72176 0.27242 0.0
C205 C 0.222 0.71962 0.31067 0.0
C206 C 0.22862 0.69382 0.2536 0.0
C207 C 0.1853 0.6013 0.25966 0.0
H208 H 0.24861 0.61255 0.18056 0.0
C209 C 0.18584 0.49212 0.17689 0.0
C210 C 0.18595 0.49556 0.13717 0.0
C211 C 0.19098 0.51857 0.20065 0.0
C212 C 0.23079 0.60911 0.20262 0.0
H213 H 0.2026 0.6868 0.35958 0.0
H214 H 0.19848 0.63826 0.32715 0.0
H215 H 0.25747 0.66065 0.21802 0.0
H216 H 0.19017 0.52869 0.09115 0.0
H217 H 0.20043 0.57523 0.13252 0.0
H218 H 0.15904 0.54944 0.24428 0.0
C219 C 0.2074 0.66124 0.31128 0.0
C220 C 0.23568 0.63665 0.22393 0.0
C221 C 0.20994 0.68912 0.32996 0.0
C222 C 0.19086 0.52567 0.12164 0.0
C223 C 0.19657 0.55222 0.14526 0.0
C224 C 0.18072 0.57362 0.23868 0.0
C225 C 0.21648 0.66316 0.27275 0.0
C226 C 0.21264 0.63327 0.25222 0.0
C227 C 0.19681 0.54897 0.18493 0.0
C228 C 0.20309 0.57746 0.20952 0.0
H229 H 0.24074 0.74487 0.2567 0.0
H230 H 0.23521 0.69616 0.22375 0.0
H231 H 0.16679 0.59774 0.28083 0.0
H232 H 0.18218 0.46915 0.1895 0.0
H233 H 0.19107 0.51555 0.23121 0.0
C234 C 0.48859 0.70203 0.81953 0.0
C235 C 0.50962 0.69316 0.80032 0.0
C236 C 0.46039 0.67777 0.83879 0.0
C237 C 0.40059 0.58851 0.83653 0.0
H238 H 0.37748 0.60068 0.93904 0.0
C239 C 0.29359 0.48079 0.91856 0.0
C240 C 0.27357 0.488 0.94231 0.0
C241 C 0.32243 0.50651 0.902 0.0
C242 C 0.38329 0.59708 0.9102 0.0
H243 H 0.51826 0.65259 0.78594 0.0
H244 H 0.46883 0.60999 0.81951 0.0
H245 H 0.42829 0.64471 0.90936 0.0
H246 H 0.26797 0.52786 0.9672 0.0
H247 H 0.31788 0.57285 0.93736 0.0
H248 H 0.3555 0.54137 0.83672 0.0
C249 C 0.47411 0.63561 0.81983 0.0
C250 C 0.41246 0.62224 0.89332 0.0
C251 C 0.50244 0.65991 0.80095 0.0
C252 C 0.28294 0.52152 0.94906 0.0
C253 C 0.31168 0.5473 0.93217 0.0
C254 C 0.37131 0.56355 0.85319 0.0
C255 C 0.45261 0.64423 0.83856 0.0
C256 C 0.42151 0.61802 0.85647 0.0
C257 C 0.33179 0.5401 0.90843 0.0
C258 C 0.36243 0.56734 0.89037 0.0
H259 H 0.4937 0.72759 0.81903 0.0
H260 H 0.44409 0.68501 0.85277 0.0
H261 H 0.40667 0.58489 0.8078 0.0
H262 H 0.28725 0.45523 0.91307 0.0
H263 H 0.33763 0.5 0.88454 0.0
C264 C 0.33989 0.84967 0.48467 0.0
C265 C 0.31204 0.82162 0.46914 0.0
C266 C 0.36218 0.84582 0.50806 0.0
C267 C 0.39339 0.78847 0.52638 0.0
H268 H 0.42848 0.83927 0.61941 0.0
C269 C 0.48334 0.76974 0.62326 0.0
C270 C 0.51 0.79847 0.63948 0.0
C271 C 0.45749 0.77145 0.60473 0.0
C272 C 0.41922 0.82517 0.59329 0.0
H273 H 0.28522 0.76764 0.46617 0.0
H274 H 0.32448 0.76083 0.50669 0.0
H275 H 0.38638 0.84454 0.58299 0.0
H276 H 0.53041 0.85148 0.64918 0.0
H277 H 0.48586 0.85468 0.61601 0.0
H278 H 0.42673 0.76976 0.53587 0.0
C279 C 0.32909 0.78578 0.50075 0.0
C280 C 0.39503 0.82813 0.57254 0.0
C281 C 0.30666 0.78964 0.47765 0.0
C282 C 0.51013 0.82887 0.6371 0.0
C283 C 0.48444 0.83064 0.61828 0.0
C284 C 0.41777 0.78572 0.54692 0.0
C285 C 0.35721 0.81384 0.51597 0.0
C286 C 0.38197 0.80989 0.53881 0.0
C287 C 0.45786 0.80198 0.60171 0.0
C288 C 0.4311 0.80414 0.58057 0.0
H289 H 0.34495 0.87463 0.47789 0.0
H290 H 0.38388 0.86791 0.51898 0.0
H291 H 0.38411 0.77448 0.50017 0.0
H292 H 0.48237 0.74587 0.62496 0.0
H293 H 0.43713 0.74876 0.59291 0.0
C294 C 0.4938 0.154 0.84701 0.0
C295 C 0.48997 0.1814 0.85638 0.0
C296 C 0.5207 0.15839 0.82468 0.0
C297 C 0.60613 0.22116 0.7999 0.0
H298 H 0.59547 0.15982 0.7187 0.0
C299 C 0.71768 0.2388 0.70831 0.0
C300 C 0.7187 0.2098 0.69879 0.0
C301 C 0.68919 0.23647 0.72518 0.0
C302 C 0.59895 0.17698 0.74155 0.0
H303 H 0.51057 0.23465 0.84941 0.0
H304 H 0.55804 0.24252 0.81067 0.0
H305 H 0.54635 0.15339 0.75214 0.0
H306 H 0.69079 0.15566 0.69972 0.0
H307 H 0.6416 0.15159 0.72997 0.0
H308 H 0.65871 0.2442 0.79023 0.0
C309 C 0.54028 0.21767 0.82063 0.0
C310 C 0.57078 0.17333 0.76058 0.0
C311 C 0.51319 0.2132 0.84266 0.0
C312 C 0.69072 0.17848 0.70649 0.0
C313 C 0.66238 0.17615 0.72361 0.0
C314 C 0.63433 0.22464 0.7811 0.0
C315 C 0.54444 0.19034 0.81167 0.0
C316 C 0.57411 0.19523 0.79012 0.0
C317 C 0.66121 0.2051 0.73314 0.0
C318 C 0.63112 0.20241 0.75191 0.0
H319 H 0.47652 0.12933 0.85784 0.0
H320 H 0.52352 0.13696 0.81863 0.0
H321 H 0.60946 0.23815 0.8229 0.0
H322 H 0.73878 0.2633 0.70244 0.0
H323 H 0.68899 0.25927 0.73164 0.0
C324 C 0.79043 0.4753 0.33048 0.0
C325 C 0.77873 0.49409 0.34973 0.0
C326 C 0.79269 0.44982 0.34925 0.0
C327 C 0.76426 0.39742 0.43703 0.0
H328 H 0.84035 0.38578 0.41679 0.0
C329 C 0.80983 0.33264 0.54059 0.0
C330 C 0.81459 0.30715 0.52566 0.0
C331 C 0.80371 0.35294 0.51648 0.0
C332 C 0.8188 0.38855 0.42235 0.0
H333 H 0.76038 0.50107 0.40374 0.0
H334 H 0.76544 0.45768 0.43683 0.0
H335 H 0.83279 0.42621 0.3797 0.0
H336 H 0.8177 0.28345 0.47389 0.0
H337 H 0.80809 0.32002 0.4313 0.0
H338 H 0.75133 0.36084 0.48095 0.0
C339 C 0.77193 0.46174 0.40694 0.0
C340 C 0.81433 0.41159 0.40106 0.0
C341 C 0.76925 0.48685 0.38804 0.0
C342 C 0.81409 0.30295 0.48604 0.0
C343 C 0.80856 0.32374 0.46178 0.0
C344 C 0.76905 0.37483 0.45865 0.0
C345 C 0.78368 0.44286 0.38783 0.0
C346 C 0.78724 0.41667 0.4085 0.0
C347 C 0.80295 0.34864 0.47691 0.0
C348 C 0.79656 0.37051 0.45182 0.0
H349 H 0.79768 0.48015 0.30083 0.0
H350 H 0.80133 0.43549 0.33342 0.0
H351 H 0.74265 0.39995 0.44296 0.0
H352 H 0.81104 0.33705 0.57096 0.0
H353 H 0.80004 0.37237 0.52876 0.0
C354 C 0.51953 0.28726 0.03239 0.0
C355 C 0.49335 0.28977 0.01544 0.0
C356 C 0.54524 0.31455 0.05134 0.0
C357 C 0.58374 0.40647 0.06409 0.0
H358 H 0.61648 0.38911 0.15802 0.0
C359 C 0.65978 0.50771 0.17649 0.0
C360 C 0.68766 0.50757 0.19209 0.0
C361 C 0.63808 0.48204 0.15226 0.0
C362 C 0.60785 0.39431 0.13161 0.0
H363 H 0.47371 0.32292 0.00471 0.0
H364 H 0.51794 0.37019 0.03873 0.0
H365 H 0.5747 0.34252 0.1208 0.0
H366 H 0.71512 0.48096 0.19436 0.0
H367 H 0.67676 0.4356 0.15254 0.0
H368 H 0.61627 0.45843 0.07587 0.0
C369 C 0.51914 0.34744 0.03668 0.0
C370 C 0.58397 0.36762 0.11017 0.0
C371 C 0.49363 0.32026 0.01736 0.0
C372 C 0.69362 0.48145 0.1829 0.0
C373 C 0.67173 0.45558 0.15902 0.0
C374 C 0.60737 0.43318 0.08579 0.0
C375 C 0.54516 0.34487 0.05416 0.0
C376 C 0.57149 0.37334 0.07619 0.0
C377 C 0.64366 0.45555 0.14363 0.0
C378 C 0.61955 0.42733 0.11982 0.0
H379 H 0.52018 0.26418 0.03101 0.0
H380 H 0.5652 0.31184 0.06378 0.0
H381 H 0.57516 0.41183 0.03776 0.0
H382 H 0.65427 0.52723 0.18377 0.0
H383 H 0.61638 0.48238 0.1412 0.0
C384 C 0.94407 0.30466 0.70446 0.0
C385 C 0.91191 0.30058 0.70776 0.0
C386 C 0.96723 0.31936 0.73372 0.0
C387 C 0.99201 0.37286 0.81708 0.0
H388 H 0.02387 0.31484 0.85489 0.0
C389 C 0.10167 0.4095 0.92438 0.0
C390 C 0.09401 0.38719 0.95497 0.0
C391 C 0.07876 0.40209 0.89481 0.0
C392 C 0.01514 0.33125 0.84461 0.0
H393 H 0.87962 0.3107 0.7434 0.0
H394 H 0.92064 0.33694 0.7946 0.0
H395 H 0.98611 0.29735 0.80041 0.0
H396 H 0.05599 0.34011 0.97901 0.0
H397 H 0.01654 0.32697 0.92696 0.0
H398 H 0.02166 0.40697 0.86128 0.0
C399 C 0.92755 0.32842 0.76929 0.0
C400 C 0.99377 0.32138 0.8134 0.0
C401 C 0.9041 0.31328 0.74012 0.0
C402 C 0.06272 0.3578 0.95586 0.0
C403 C 0.04013 0.35021 0.92609 0.0
C404 C 0.01399 0.38306 0.84803 0.0
C405 C 0.95893 0.3307 0.76668 0.0
C406 C 0.98195 0.34201 0.79944 0.0
C407 C 0.04814 0.37205 0.89514 0.0
C408 C 0.02546 0.36214 0.86215 0.0
H409 H 0.95106 0.29538 0.67987 0.0
H410 H 0.99143 0.32114 0.73102 0.0
H411 H 0.98317 0.38913 0.80666 0.0
H412 H 0.1255 0.43243 0.92303 0.0
H413 H 0.08544 0.41919 0.87105 0.0
C414 C 0.70967 0.60552 0.4152 0.0
C415 C 0.71118 0.61768 0.37814 0.0
C416 C 0.69555 0.61452 0.44473 0.0
C417 C 0.6387 0.64593 0.46662 0.0
H418 H 0.69315 0.68206 0.55708 0.0
C419 C 0.61047 0.71743 0.5821 0.0
C420 C 0.61863 0.71496 0.62001 0.0
C421 C 0.61889 0.70252 0.55282 0.0
C422 C 0.67724 0.67144 0.53242 0.0
H423 H 0.69794 0.64782 0.34277 0.0
H424 H 0.67293 0.66324 0.3945 0.0
H425 H 0.71251 0.66093 0.50554 0.0
H426 H 0.64037 0.69348 0.65726 0.0
H427 H 0.65393 0.66649 0.60651 0.0
H428 H 0.6032 0.65607 0.4936 0.0
C429 C 0.68281 0.64684 0.40055 0.0
C430 C 0.68846 0.65948 0.50281 0.0
C431 C 0.69731 0.63818 0.37104 0.0
C432 C 0.63416 0.69621 0.62824 0.0
C433 C 0.64212 0.6809 0.59908 0.0
C434 C 0.62722 0.65753 0.49649 0.0
C435 C 0.68228 0.6355 0.43775 0.0
C436 C 0.66943 0.64683 0.46956 0.0
C437 C 0.63525 0.68444 0.56091 0.0
C438 C 0.64648 0.67065 0.52967 0.0
H439 H 0.72008 0.58966 0.42163 0.0
H440 H 0.69518 0.60523 0.47314 0.0
H441 H 0.62345 0.63602 0.44134 0.0
H442 H 0.59861 0.73184 0.57487 0.0
H443 H 0.61356 0.70615 0.52377 0.0
C444 C 0.39231 0.11305 0.08143 0.0
C445 C 0.38247 0.10023 0.04446 0.0
C446 C 0.38493 0.0915 0.11238 0.0
C447 C 0.36391 0.00658 0.13918 0.0
H448 H 0.31685 0.01833 0.22374 0.0
C449 C 0.29205 0.90309 0.24963 0.0
C450 C 0.29026 0.91214 0.28734 0.0
C451 C 0.30711 0.92747 0.22149 0.0
C452 C 0.33057 0.015 0.20081 0.0
H453 H 0.35822 0.05483 0.01081 0.0
H454 H 0.34576 0.01729 0.06488 0.0
H455 H 0.3372 0.0587 0.17193 0.0
H456 H 0.30403 0.95394 0.32545 0.0
H457 H 0.33123 0.99655 0.27661 0.0
H458 H 0.35754 0.96303 0.16797 0.0
C459 C 0.35905 0.04399 0.06983 0.0
C460 C 0.34211 0.03811 0.17107 0.0
C461 C 0.36599 0.06548 0.03896 0.0
C462 C 0.30469 0.94615 0.29654 0.0
C463 C 0.32014 0.97057 0.26849 0.0
C464 C 0.35274 0.98367 0.16916 0.0
C465 C 0.36806 0.05679 0.10686 0.0
C466 C 0.3584 0.03381 0.13973 0.0
C467 C 0.32114 0.96152 0.23049 0.0
C468 C 0.33542 0.98728 0.20005 0.0
H469 H 0.40502 0.1397 0.0866 0.0
H470 H 0.39229 0.10196 0.14067 0.0
H471 H 0.37676 0.00295 0.11549 0.0
H472 H 0.28101 0.87708 0.24156 0.0
H473 H 0.30687 0.91948 0.19248 0.0
C474 C 0.35022 0.23462 0.9625 0.0
C475 C 0.33597 0.19996 0.95802 0.0
C476 C 0.32999 0.24885 0.96661 0.0
C477 C 0.25127 0.23341 0.0038 0.0
H478 H 0.26781 0.31054 0.94371 0.0
C479 C 0.18078 0.30689 0.02831 0.0
C480 C 0.19989 0.34172 0.02401 0.0
C481 C 0.19421 0.28661 0.01849 0.0
C482 C 0.26307 0.28924 0.96103 0.0
H483 H 0.2894 0.15298 0.95401 0.0
H484 H 0.2538 0.17805 0.96234 0.0
H485 H 0.29687 0.28029 0.92825 0.0
H486 H 0.24855 0.38272 0.00801 0.0
H487 H 0.27217 0.34777 0.99235 0.0
H488 H 0.21873 0.2433 0.03784 0.0
C489 C 0.28069 0.19403 0.96221 0.0
C490 C 0.27952 0.2718 0.95192 0.0
C491 C 0.301 0.17979 0.95727 0.0
C492 C 0.23299 0.35593 0.01116 0.0
C493 C 0.24646 0.33581 0.00182 0.0
C494 C 0.23509 0.25118 0.01331 0.0
C495 C 0.2951 0.22868 0.96699 0.0
C496 C 0.27428 0.24417 0.97366 0.0
C497 C 0.22707 0.30087 0.00453 0.0
C498 C 0.24145 0.27981 0.99256 0.0
H499 H 0.37707 0.2508 0.96304 0.0
H500 H 0.34167 0.27562 0.97052 0.0
H501 H 0.24704 0.21225 0.02111 0.0
H502 H 0.15515 0.29524 0.03803 0.0
H503 H 0.17855 0.25978 0.02084 0.0
C504 C 0.78954 0.13263 0.68015 0.0
C505 C 0.81085 0.14679 0.6487 0.0
C506 C 0.77529 0.09874 0.68812 0.0
C507 C 0.77924 0.02231 0.6682 0.0
H508 H 0.68482 0.97915 0.69228 0.0
C509 C 0.65546 0.8831 0.67285 0.0
C510 C 0.66633 0.86506 0.69511 0.0
C511 C 0.67542 0.91745 0.66834 0.0
C512 C 0.71115 0.99078 0.68549 0.0
H513 H 0.83496 0.13664 0.60178 0.0
H514 H 0.80926 0.0768 0.61534 0.0
H515 H 0.71592 0.03901 0.6819 0.0
H516 H 0.70713 0.86908 0.7296 0.0
H517 H 0.74216 0.92969 0.7218 0.0
H518 H 0.77386 0.97344 0.67093 0.0
C519 C 0.80399 0.09223 0.63401 0.0
C520 C 0.72909 0.02517 0.67993 0.0
C521 C 0.81853 0.12641 0.62612 0.0
C522 C 0.69799 0.88227 0.71237 0.0
C523 C 0.71811 0.91687 0.70774 0.0
C524 C 0.76118 0.98769 0.67387 0.0
C525 C 0.78168 0.07798 0.66468 0.0
C526 C 0.76329 0.04136 0.67111 0.0
C527 C 0.70679 0.9348 0.68599 0.0
C528 C 0.72686 0.97159 0.68216 0.0
H529 H 0.78353 0.14768 0.69858 0.0
H530 H 0.75882 0.08868 0.71246 0.0
H531 H 0.80563 0.03415 0.66169 0.0
H532 H 0.63138 0.87074 0.65883 0.0
H533 H 0.66626 0.93048 0.65086 0.0
C534 C 0.12068 0.80796 0.37514 0.0
C535 C 0.14106 0.79854 0.35519 0.0
C536 C 0.08621 0.7916 0.36845 0.0
C537 C 0.01788 0.71245 0.32987 0.0
H538 H 0.96872 0.76014 0.32623 0.0
C539 C 0.87806 0.68615 0.28586 0.0
C540 C 0.85884 0.65501 0.30374 0.0
C541 C 0.91261 0.70476 0.29176 0.0
C542 C 0.98218 0.74654 0.32683 0.0
H543 H 0.1412 0.76503 0.31193 0.0
H544 H 0.08168 0.73716 0.29999 0.0
H545 H 0.02904 0.79096 0.33705 0.0
H546 H 0.86094 0.61928 0.34219 0.0
H547 H 0.92063 0.65175 0.35274 0.0
H548 H 0.97145 0.66823 0.31879 0.0
C549 C 0.09204 0.75661 0.32138 0.0
C550 C 0.01664 0.76413 0.33351 0.0
C551 C 0.12629 0.77276 0.32816 0.0
C552 C 0.8749 0.64302 0.32768 0.0
C553 C 0.90926 0.6616 0.33363 0.0
C554 C 0.98359 0.69496 0.3231 0.0
C555 C 0.07151 0.76559 0.34163 0.0
C556 C 0.03486 0.74724 0.33507 0.0
C557 C 0.92858 0.69259 0.31563 0.0
C558 C 0.96528 0.71172 0.32168 0.0
H559 H 0.13126 0.82774 0.39611 0.0
H560 H 0.07102 0.7989 0.38477 0.0
H561 H 0.03103 0.69858 0.33136 0.0
H562 H 0.86647 0.69614 0.26729 0.0
H563 H 0.92687 0.72843 0.2772 0.0
C564 C 0.98536 0.25675 0.48059 0.0
C565 C 0.95174 0.24839 0.48378 0.0
C566 C -0.00092 0.25698 0.44516 0.0
C567 C 0.98102 0.23053 0.3452 0.0
H568 H 0.05804 0.31721 0.32421 0.0
C569 C 0.02452 0.27907 0.19279 0.0
C570 C 0.05831 0.3025 0.1861 0.0
C571 C 0.01316 0.26716 0.22946 0.0
C572 C 0.03713 0.29251 0.32959 0.0
H573 H 0.90611 0.23319 0.45193 0.0
H574 H 0.92989 0.23265 0.39032 0.0
H575 H 0.03487 0.3044 0.38788 0.0
H576 H 0.10657 0.33153 0.2136 0.0
H577 H 0.08747 0.30895 0.27638 0.0
H578 H 0.98328 0.21855 0.28685 0.0
C579 C 0.94542 0.23861 0.41545 0.0
C580 C 0.02374 0.28527 0.36619 0.0
C581 C 0.93172 0.2387 0.45091 0.0
C582 C 0.08068 0.31272 0.21687 0.0
C583 C 0.06946 0.3003 0.25341 0.0
C584 C 0.99478 0.23756 0.30859 0.0
C585 C 0.97946 0.24873 0.41216 0.0
C586 C 0.99526 0.25446 0.37421 0.0
C587 C 0.03538 0.27814 0.26044 0.0
C588 C 0.02267 0.26892 0.30012 0.0
H589 H 0.00142 0.26427 0.50538 0.0
H590 H 0.02536 0.26467 0.44339 0.0
H591 H 0.95912 0.20651 0.3508 0.0
H592 H 0.00651 0.27069 0.16981 0.0
H593 H 0.98667 0.25052 0.23363 0.0
C594 C 0.72876 0.74541 0.85239 0.0
C595 C 0.70439 0.75495 0.84882 0.0
C596 C 0.74179 0.74474 0.88801 0.0
C597 C 0.74883 0.77181 0.98833 0.0
H598 H 0.7446 0.68748 0.00958 0.0
C599 C 0.74216 0.72198 0.14042 0.0
C600 C 0.75571 0.70126 0.1477 0.0
C601 C 0.74292 0.73407 0.10378 0.0
C602 C 0.74676 0.71153 0.00409 0.0
H603 H 0.67459 0.77122 0.88014 0.0
H604 H 0.69781 0.77071 0.94211 0.0
H605 H 0.73378 0.69938 0.94559 0.0
H606 H 0.78064 0.67694 0.12184 0.0
H607 H 0.78372 0.69949 0.05867 0.0
H608 H 0.76139 0.78376 0.04709 0.0
C609 C 0.70731 0.76437 0.91719 0.0
C610 C 0.74044 0.7183 0.96731 0.0
C611 C 0.69414 0.76489 0.88153 0.0
C612 C 0.77104 0.69379 0.11776 0.0
C613 C 0.77213 0.70617 0.08119 0.0
C614 C 0.75547 0.76516 0.02517 0.0
C615 C 0.73066 0.75351 0.9209 0.0
C616 C 0.74084 0.74824 0.95914 0.0
C617 C 0.75726 0.72569 0.07349 0.0
C618 C 0.75393 0.73465 0.03366 0.0
H619 H 0.73713 0.73758 0.82769 0.0
H620 H 0.75999 0.73655 0.88996 0.0
H621 H 0.74961 0.79524 0.98274 0.0
H622 H 0.7299 0.72792 0.16285 0.0
H623 H 0.73077 0.7486 0.09893 0.0
C624 C 0.27085 0.01107 0.81397 0.0
C625 C 0.29404 0.04534 0.81681 0.0
C626 C 0.25666 0.99685 0.7789 0.0
C627 C 0.24424 0.01585 0.67983 0.0
H628 H 0.252 0.93824 0.6553 0.0
C629 C 0.25133 0.97661 0.52621 0.0
C630 C 0.23921 0.94275 0.51799 0.0
C631 C 0.25009 0.98688 0.56325 0.0
C632 C 0.24882 0.95939 0.66176 0.0
H633 H 0.32085 0.09148 0.78483 0.0
H634 H 0.29564 0.06684 0.72388 0.0
H635 H 0.26379 0.96045 0.71951 0.0
H636 H 0.21619 0.89306 0.54253 0.0
H637 H 0.21237 0.91065 0.60652 0.0
H638 H 0.22985 0.01512 0.62176 0.0
C639 C 0.28782 0.05109 0.74894 0.0
C640 C 0.2557 0.97219 0.69867 0.0
C641 C 0.30213 0.06528 0.784 0.0
C642 C 0.2247 0.91919 0.5474 0.0
C643 C 0.22316 0.92941 0.5844 0.0
C644 C 0.23709 0.00287 0.64288 0.0
C645 C 0.2655 0.01661 0.74588 0.0
C646 C 0.25416 0.00095 0.70792 0.0
C647 C 0.23672 0.96347 0.59302 0.0
C648 C 0.24001 0.97489 0.63319 0.0
H649 H 0.26426 0.99508 0.83878 0.0
H650 H 0.23935 0.97024 0.77745 0.0
H651 H 0.24251 0.03785 0.68629 0.0
H652 H 0.26292 0.99538 0.50419 0.0
H653 H 0.26123 0.01336 0.56881 0.0
loop_
_geom_bond_atom_site_label_1
_geom_bond_atom_site_label_2
_geom_bond_distance
_geom_bond_site_symmetry_2
_ccdc_geom_bond_type
Co0 O3 1.970 1_556 S
Co0 N17 1.989 1_556 S
Co0 O25 1.967 . S
Co0 O32 1.920 . S
Co1 O4 1.966 . S
Co1 N10 2.022 . S
Co1 N18 1.993 . S
Co1 O26 1.941 . S
C2 O3 1.258 . S
C2 O4 1.263 . S
O3 Co0 1.970 1_554 S
O3 C2 1.258 . S
O4 Co1 1.966 . S
O4 C2 1.263 . S
C5 O6 1.235 . S
C5 O32 1.289 . S
O6 C5 1.235 . S
C7 C9 1.400 . S
C7 N10 1.351 . S
C7 C12 1.501 . S
C8 C9 1.387 . S
C8 N11 1.341 . S
C9 C7 1.400 . S
C9 C8 1.387 . S
N10 Co1 2.022 . S
N10 C7 1.351 . S
N10 N11 1.365 . S
N11 C8 1.341 . S
N11 N10 1.365 . S
N11 H31 0.862 . S
C12 C7 1.501 . S
C12 H13 0.961 . S
C12 H14 0.961 . S
C12 H15 0.960 . S
H13 C12 0.961 . S
H14 C12 0.961 . S
H15 C12 0.960 . S
C16 N17 1.342 . S
C16 C20 1.401 . S
C16 C21 1.499 . S
N17 Co0 1.989 1_554 S
N17 C16 1.342 . S
N17 N18 1.388 . S
N18 Co1 1.993 . S
N18 N17 1.388 . S
N18 C19 1.346 . S
C19 N18 1.346 . S
C19 C20 1.396 . S
C19 C29 1.510 . S
C20 C16 1.401 . S
C20 C19 1.396 . S
C21 C16 1.499 . S
C21 H22 0.959 . S
C21 H23 0.960 . S
C21 H24 0.961 . S
H22 C21 0.959 . S
H23 C21 0.960 . S
H24 C21 0.961 . S
O25 Co0 1.967 . S
O25 C33 1.258 . S
O26 Co1 1.941 . S
O26 C33 1.266 1_554 S
H27 C29 0.959 . S
H28 C29 0.961 . S
C29 C19 1.510 . S
C29 H27 0.959 . S
C29 H28 0.961 . S
C29 H30 0.960 . S
H30 C29 0.960 . S
H31 N11 0.862 . S
O32 Co0 1.920 . S
O32 C5 1.289 . S
C33 O25 1.258 . S
C33 O26 1.266 1_556 S
Co34 O37 1.970 . S
Co34 N51 1.989 . S
Co34 O59 1.967 . S
Co34 O66 1.920 . S
Co35 O38 1.966 . S
Co35 N44 2.022 . S
Co35 N52 1.993 . S
Co35 O60 1.941 . S
C36 O37 1.258 . S
C36 O38 1.263 . S
O37 Co34 1.970 . S
O37 C36 1.258 . S
O38 Co35 1.966 . S
O38 C36 1.263 . S
C39 O40 1.235 . S
C39 O66 1.289 . S
O40 C39 1.235 . S
C41 C43 1.400 . S
C41 N44 1.351 . S
C41 C46 1.501 . S
C42 C43 1.387 . S
C42 N45 1.341 . S
C43 C41 1.400 . S
C43 C42 1.387 . S
N44 Co35 2.022 . S
N44 C41 1.351 . S
N44 N45 1.365 . S
N45 C42 1.341 . S
N45 N44 1.365 . S
N45 H65 0.862 . S
C46 C41 1.501 . S
C46 H47 0.961 . S
C46 H48 0.961 . S
C46 H49 0.960 . S
H47 C46 0.961 . S
H48 C46 0.961 . S
H49 C46 0.960 . S
C50 N51 1.342 . S
C50 C54 1.401 . S
C50 C55 1.499 . S
N51 Co34 1.989 . S
N51 C50 1.342 . S
N51 N52 1.388 . S
N52 Co35 1.993 . S
N52 N51 1.388 . S
N52 C53 1.346 . S
C53 N52 1.346 . S
C53 C54 1.396 . S
C53 C63 1.510 . S
C54 C50 1.401 . S
C54 C53 1.396 . S
C55 C50 1.499 . S
C55 H56 0.959 . S
C55 H57 0.960 . S
C55 H58 0.961 . S
H56 C55 0.959 . S
H57 C55 0.960 . S
H58 C55 0.961 . S
O59 Co34 1.967 . S
O59 C67 1.258 . S
O60 Co35 1.941 . S
O60 C67 1.266 . S
H61 C63 0.959 . S
H62 C63 0.961 . S
C63 C53 1.510 . S
C63 H61 0.959 . S
C63 H62 0.961 . S
C63 H64 0.960 . S
H64 C63 0.960 . S
H65 N45 0.862 . S
O66 Co34 1.920 . S
O66 C39 1.289 . S
C67 O59 1.258 . S
C67 O60 1.266 . S
Co68 O71 1.970 . S
Co68 N85 1.989 . S
Co68 O93 1.967 . S
Co68 O100 1.920 . S
Co69 O72 1.966 . S
Co69 N78 2.022 . S
Co69 N86 1.993 . S
Co69 O94 1.941 . S
C70 O71 1.258 . S
C70 O72 1.263 . S
O71 Co68 1.970 . S
O71 C70 1.258 . S
O72 Co69 1.966 . S
O72 C70 1.263 . S
C73 O74 1.235 . S
C73 O100 1.289 . S
O74 C73 1.235 . S
C75 C77 1.400 . S
C75 N78 1.351 . S
C75 C80 1.501 . S
C76 C77 1.387 . S
C76 N79 1.341 . S
C77 C75 1.400 . S
C77 C76 1.387 . S
N78 Co69 2.022 . S
N78 C75 1.351 . S
N78 N79 1.365 . S
N79 C76 1.341 . S
N79 N78 1.365 . S
N79 H99 0.862 . S
C80 C75 1.501 . S
C80 H81 0.961 . S
C80 H82 0.961 . S
C80 H83 0.960 . S
H81 C80 0.961 . S
H82 C80 0.961 . S
H83 C80 0.960 . S
C84 N85 1.342 . S
C84 C88 1.401 . S
C84 C89 1.499 . S
N85 Co68 1.989 . S
N85 C84 1.342 . S
N85 N86 1.388 . S
N86 Co69 1.993 . S
N86 N85 1.388 . S
N86 C87 1.346 . S
C87 N86 1.346 . S
C87 C88 1.396 . S
C87 C97 1.510 . S
C88 C84 1.401 . S
C88 C87 1.396 . S
C89 C84 1.499 . S
C89 H90 0.959 . S
C89 H91 0.960 . S
C89 H92 0.961 . S
H90 C89 0.959 . S
H91 C89 0.960 . S
H92 C89 0.961 . S
O93 Co68 1.967 . S
O93 C101 1.258 . S
O94 Co69 1.941 . S
O94 C101 1.266 . S
H95 C97 0.959 . S
H96 C97 0.961 . S
C97 C87 1.510 . S
C97 H95 0.959 . S
C97 H96 0.961 . S
C97 H98 0.960 . S
H98 C97 0.960 . S
H99 N79 0.862 . S
O100 Co68 1.920 . S
O100 C73 1.289 . S
C101 O93 1.258 . S
C101 O94 1.266 . S
Co102 O105 1.970 1_554 S
Co102 N119 1.989 1_554 S
Co102 O127 1.967 . S
Co102 O134 1.920 . S
Co103 O106 1.966 . S
Co103 N112 2.022 . S
Co103 N120 1.993 . S
Co103 O128 1.941 . S
C104 O105 1.258 . S
C104 O106 1.263 . S
O105 Co102 1.970 1_556 S
O105 C104 1.258 . S
O106 Co103 1.966 . S
O106 C104 1.263 . S
C107 O108 1.235 . S
C107 O134 1.289 . S
O108 C107 1.235 . S
C109 C111 1.400 . S
C109 N112 1.351 . S
C109 C114 1.501 . S
C110 C111 1.387 . S
C110 N113 1.341 . S
C111 C109 1.400 . S
C111 C110 1.387 . S
N112 Co103 2.022 . S
N112 C109 1.351 . S
N112 N113 1.365 . S
N113 C110 1.341 . S
N113 N112 1.365 . S
N113 H133 0.862 . S
C114 C109 1.501 . S
C114 H115 0.961 . S
C114 H116 0.961 . S
C114 H117 0.960 . S
H115 C114 0.961 . S
H116 C114 0.961 . S
H117 C114 0.960 . S
C118 N119 1.342 . S
C118 C122 1.401 . S
C118 C123 1.499 . S
N119 Co102 1.989 1_556 S
N119 C118 1.342 . S
N119 N120 1.388 . S
N120 Co103 1.993 . S
N120 N119 1.388 . S
N120 C121 1.346 . S
C121 N120 1.346 . S
C121 C122 1.396 . S
C121 C131 1.510 . S
C122 C118 1.401 . S
C122 C121 1.396 . S
C123 C118 1.499 . S
C123 H124 0.959 . S
C123 H125 0.960 . S
C123 H126 0.961 . S
H124 C123 0.959 . S
H125 C123 0.960 . S
H126 C123 0.961 . S
O127 Co102 1.967 . S
O127 C135 1.258 . S
O128 Co103 1.941 . S
O128 C135 1.266 1_556 S
H129 C131 0.959 . S
H130 C131 0.961 . S
C131 C121 1.510 . S
C131 H129 0.959 . S
C131 H130 0.961 . S
C131 H132 0.960 . S
H132 C131 0.960 . S
H133 N113 0.862 . S
O134 Co102 1.920 . S
O134 C107 1.289 . S
C135 O127 1.258 . S
C135 O128 1.266 1_554 S
Co136 O139 1.970 . S
Co136 N153 1.989 . S
Co136 O161 1.967 . S
Co136 O168 1.920 . S
Co137 O140 1.966 . S
Co137 N146 2.022 . S
Co137 N154 1.993 . S
Co137 O162 1.941 . S
C138 O139 1.258 . S
C138 O140 1.263 . S
O139 Co136 1.970 . S
O139 C138 1.258 . S
O140 Co137 1.966 . S
O140 C138 1.263 . S
C141 O142 1.235 . S
C141 O168 1.289 . S
O142 C141 1.235 . S
C143 C145 1.400 . S
C143 N146 1.351 . S
C143 C148 1.501 . S
C144 C145 1.387 . S
C144 N147 1.341 . S
C145 C143 1.400 . S
C145 C144 1.387 . S
N146 Co137 2.022 . S
N146 C143 1.351 . S
N146 N147 1.365 . S
N147 C144 1.341 . S
N147 N146 1.365 . S
N147 H167 0.862 . S
C148 C143 1.501 . S
C148 H149 0.961 . S
C148 H150 0.961 . S
C148 H151 0.960 . S
H149 C148 0.961 . S
H150 C148 0.961 . S
H151 C148 0.960 . S
C152 N153 1.342 . S
C152 C156 1.401 . S
C152 C157 1.499 . S
N153 Co136 1.989 . S
N153 C152 1.342 . S
N153 N154 1.388 . S
N154 Co137 1.993 . S
N154 N153 1.388 . S
N154 C155 1.346 . S
C155 N154 1.346 . S
C155 C156 1.396 . S
C155 C165 1.510 . S
C156 C152 1.401 . S
C156 C155 1.396 . S
C157 C152 1.499 . S
C157 H158 0.959 . S
C157 H159 0.960 . S
C157 H160 0.961 . S
H158 C157 0.959 . S
H159 C157 0.960 . S
H160 C157 0.961 . S
O161 Co136 1.967 . S
O161 C169 1.258 . S
O162 Co137 1.941 . S
O162 C169 1.266 . S
H163 C165 0.959 . S
H164 C165 0.961 . S
C165 C155 1.510 . S
C165 H163 0.959 . S
C165 H164 0.961 . S
C165 H166 0.960 . S
H166 C165 0.960 . S
H167 N147 0.862 . S
O168 Co136 1.920 . S
O168 C141 1.289 . S
C169 O161 1.258 . S
C169 O162 1.266 . S
Co170 O173 1.970 . S
Co170 N187 1.989 . S
Co170 O195 1.967 . S
Co170 O202 1.920 . S
Co171 O174 1.966 . S
Co171 N180 2.022 . S
Co171 N188 1.993 . S
Co171 O196 1.941 . S
C172 O173 1.258 . S
C172 O174 1.263 . S
O173 Co170 1.970 . S
O173 C172 1.258 . S
O174 Co171 1.966 . S
O174 C172 1.263 . S
C175 O176 1.235 . S
C175 O202 1.289 . S
O176 C175 1.235 . S
C177 C179 1.400 . S
C177 N180 1.351 . S
C177 C182 1.501 . S
C178 C179 1.387 . S
C178 N181 1.341 . S
C179 C177 1.400 . S
C179 C178 1.387 . S
N180 Co171 2.022 . S
N180 C177 1.351 . S
N180 N181 1.365 . S
N181 C178 1.341 . S
N181 N180 1.365 . S
N181 H201 0.862 . S
C182 C177 1.501 . S
C182 H183 0.961 . S
C182 H184 0.961 . S
C182 H185 0.960 . S
H183 C182 0.961 . S
H184 C182 0.961 . S
H185 C182 0.960 . S
C186 N187 1.342 . S
C186 C190 1.401 . S
C186 C191 1.499 . S
N187 Co170 1.989 . S
N187 C186 1.342 . S
N187 N188 1.388 . S
N188 Co171 1.993 . S
N188 N187 1.388 . S
N188 C189 1.346 . S
C189 N188 1.346 . S
C189 C190 1.396 . S
C189 C199 1.510 . S
C190 C186 1.401 . S
C190 C189 1.396 . S
C191 C186 1.499 . S
C191 H192 0.959 . S
C191 H193 0.960 . S
C191 H194 0.961 . S
H192 C191 0.959 . S
H193 C191 0.960 . S
H194 C191 0.961 . S
O195 Co170 1.967 . S
O195 C203 1.258 . S
O196 Co171 1.941 . S
O196 C203 1.266 . S
H197 C199 0.959 . S
H198 C199 0.961 . S
C199 C189 1.510 . S
C199 H197 0.959 . S
C199 H198 0.961 . S
C199 H200 0.960 . S
H200 C199 0.960 . S
H201 N181 0.862 . S
O202 Co170 1.920 . S
O202 C175 1.289 . S
C203 O195 1.258 . S
C203 O196 1.266 . S
C204 C205 1.349 . S
C204 C206 1.327 . S
C204 H229 0.950 . S
C205 C204 1.349 . S
C205 C221 1.349 . S
C206 C204 1.327 . S
C206 C225 1.429 . S
C206 H230 0.950 . S
C207 C224 1.574 . S
C207 C226 1.368 . S
C207 H231 0.949 . S
H208 C212 0.949 . S
C209 C210 1.349 . S
C209 C211 1.327 . S
C209 H232 0.950 . S
C210 C209 1.349 . S
C210 C222 1.349 . S
C211 C209 1.327 . S
C211 C227 1.429 . S
C211 H233 0.950 . S
C212 H208 0.949 . S
C212 C220 1.574 . S
C212 C228 1.368 . S
H213 C221 0.950 . S
H214 C219 0.950 . S
H215 C220 0.949 . S
H216 C222 0.950 . S
H217 C223 0.950 . S
H218 C224 0.949 . S
C219 H214 0.950 . S
C219 C221 1.327 . S
C219 C225 1.429 . S
C220 C212 1.574 . S
C220 H215 0.949 . S
C220 C226 1.368 . S
C221 C205 1.349 . S
C221 H213 0.950 . S
C221 C219 1.327 . S
C222 C210 1.349 . S
C222 H216 0.950 . S
C222 C223 1.327 . S
C223 H217 0.950 . S
C223 C222 1.327 . S
C223 C227 1.429 . S
C224 C207 1.574 . S
C224 H218 0.949 . S
C224 C228 1.368 . S
C225 C206 1.429 . S
C225 C219 1.429 . S
C225 C226 1.523 . S
C226 C207 1.368 . S
C226 C220 1.368 . S
C226 C225 1.523 . S
C227 C211 1.429 . S
C227 C223 1.429 . S
C227 C228 1.523 . S
C228 C212 1.368 . S
C228 C224 1.368 . S
C228 C227 1.523 . S
H229 C204 0.950 . S
H230 C206 0.950 . S
H231 C207 0.949 . S
H232 C209 0.950 . S
H233 C211 0.950 . S
C234 C235 1.349 . S
C234 C236 1.327 . S
C234 H259 0.950 . S
C235 C234 1.349 . S
C235 C251 1.349 . S
C236 C234 1.327 . S
C236 C255 1.429 . S
C236 H260 0.950 . S
C237 C254 1.574 . S
C237 C256 1.368 . S
C237 H261 0.949 . S
H238 C242 0.949 . S
C239 C240 1.349 . S
C239 C241 1.327 . S
C239 H262 0.950 . S
C240 C239 1.349 . S
C240 C252 1.349 . S
C241 C239 1.327 . S
C241 C257 1.429 . S
C241 H263 0.950 . S
C242 H238 0.949 . S
C242 C250 1.574 . S
C242 C258 1.368 . S
H243 C251 0.950 . S
H244 C249 0.950 . S
H245 C250 0.949 . S
H246 C252 0.950 . S
H247 C253 0.950 . S
H248 C254 0.949 . S
C249 H244 0.950 . S
C249 C251 1.327 . S
C249 C255 1.429 . S
C250 C242 1.574 . S
C250 H245 0.949 . S
C250 C256 1.368 . S
C251 C235 1.349 . S
C251 H243 0.950 . S
C251 C249 1.327 . S
C252 C240 1.349 . S
C252 H246 0.950 . S
C252 C253 1.327 . S
C253 H247 0.950 . S
C253 C252 1.327 . S
C253 C257 1.429 . S
C254 C237 1.574 . S
C254 H248 0.949 . S
C254 C258 1.368 . S
C255 C236 1.429 . S
C255 C249 1.429 . S
C255 C256 1.523 . S
C256 C237 1.368 . S
C256 C250 1.368 . S
C256 C255 1.523 . S
C257 C241 1.429 . S
C257 C253 1.429 . S
C257 C258 1.523 . S
C258 C242 1.368 . S
C258 C254 1.368 . S
C258 C257 1.523 . S
H259 C234 0.950 . S
H260 C236 0.950 . S
H261 C237 0.949 . S
H262 C239 0.950 . S
H263 C241 0.950 . S
C264 C265 1.349 . S
C264 C266 1.327 . S
C264 H289 0.950 . S
C265 C264 1.349 . S
C265 C281 1.349 . S
C266 C264 1.327 . S
C266 C285 1.429 . S
C266 H290 0.950 . S
C267 C284 1.574 . S
C267 C286 1.368 . S
C267 H291 0.949 . S
H268 C272 0.949 . S
C269 C270 1.349 . S
C269 C271 1.327 . S
C269 H292 0.950 . S
C270 C269 1.349 . S
C270 C282 1.349 . S
C271 C269 1.327 . S
C271 C287 1.429 . S
C271 H293 0.950 . S
C272 H268 0.949 . S
C272 C280 1.574 . S
C272 C288 1.368 . S
H273 C281 0.950 . S
H274 C279 0.950 . S
H275 C280 0.949 . S
H276 C282 0.950 . S
H277 C283 0.950 . S
H278 C284 0.949 . S
C279 H274 0.950 . S
C279 C281 1.327 . S
C279 C285 1.429 . S
C280 C272 1.574 . S
C280 H275 0.949 . S
C280 C286 1.368 . S
C281 C265 1.349 . S
C281 H273 0.950 . S
C281 C279 1.327 . S
C282 C270 1.349 . S
C282 H276 0.950 . S
C282 C283 1.327 . S
C283 H277 0.950 . S
C283 C282 1.327 . S
C283 C287 1.429 . S
C284 C267 1.574 . S
C284 H278 0.949 . S
C284 C288 1.368 . S
C285 C266 1.429 . S
C285 C279 1.429 . S
C285 C286 1.523 . S
C286 C267 1.368 . S
C286 C280 1.368 . S
C286 C285 1.523 . S
C287 C271 1.429 . S
C287 C283 1.429 . S
C287 C288 1.523 . S
C288 C272 1.368 . S
C288 C284 1.368 . S
C288 C287 1.523 . S
H289 C264 0.950 . S
H290 C266 0.950 . S
H291 C267 0.949 . S
H292 C269 0.950 . S
H293 C271 0.950 . S
C294 C295 1.349 . S
C294 C296 1.327 . S
C294 H319 0.950 . S
C295 C294 1.349 . S
C295 C311 1.349 . S
C296 C294 1.327 . S
C296 C315 1.429 . S
C296 H320 0.950 . S
C297 C314 1.574 . S
C297 C316 1.368 . S
C297 H321 0.949 . S
H298 C302 0.949 . S
C299 C300 1.349 . S
C299 C301 1.327 . S
C299 H322 0.950 . S
C300 C299 1.349 . S
C300 C312 1.349 . S
C301 C299 1.327 . S
C301 C317 1.429 . S
C301 H323 0.950 . S
C302 H298 0.949 . S
C302 C310 1.574 . S
C302 C318 1.368 . S
H303 C311 0.950 . S
H304 C309 0.950 . S
H305 C310 0.949 . S
H306 C312 0.950 . S
H307 C313 0.950 . S
H308 C314 0.949 . S
C309 H304 0.950 . S
C309 C311 1.327 . S
C309 C315 1.429 . S
C310 C302 1.574 . S
C310 H305 0.949 . S
C310 C316 1.368 . S
C311 C295 1.349 . S
C311 H303 0.950 . S
C311 C309 1.327 . S
C312 C300 1.349 . S
C312 H306 0.950 . S
C312 C313 1.327 . S
C313 H307 0.950 . S
C313 C312 1.327 . S
C313 C317 1.429 . S
C314 C297 1.574 . S
C314 H308 0.949 . S
C314 C318 1.368 . S
C315 C296 1.429 . S
C315 C309 1.429 . S
C315 C316 1.523 . S
C316 C297 1.368 . S
C316 C310 1.368 . S
C316 C315 1.523 . S
C317 C301 1.429 . S
C317 C313 1.429 . S
C317 C318 1.523 . S
C318 C302 1.368 . S
C318 C314 1.368 . S
C318 C317 1.523 . S
H319 C294 0.950 . S
H320 C296 0.950 . S
H321 C297 0.949 . S
H322 C299 0.950 . S
H323 C301 0.950 . S
C324 C325 1.349 . S
C324 C326 1.327 . S
C324 H349 0.950 . S
C325 C324 1.349 . S
C325 C341 1.349 . S
C326 C324 1.327 . S
C326 C345 1.429 . S
C326 H350 0.950 . S
C327 C344 1.574 . S
C327 C346 1.368 . S
C327 H351 0.949 . S
H328 C332 0.949 . S
C329 C330 1.349 . S
C329 C331 1.327 . S
C329 H352 0.950 . S
C330 C329 1.349 . S
C330 C342 1.349 . S
C331 C329 1.327 . S
C331 C347 1.429 . S
C331 H353 0.950 . S
C332 H328 0.949 . S
C332 C340 1.574 . S
C332 C348 1.368 . S
H333 C341 0.950 . S
H334 C339 0.950 . S
H335 C340 0.949 . S
H336 C342 0.950 . S
H337 C343 0.950 . S
H338 C344 0.949 . S
C339 H334 0.950 . S
C339 C341 1.327 . S
C339 C345 1.429 . S
C340 C332 1.574 . S
C340 H335 0.949 . S
C340 C346 1.368 . S
C341 C325 1.349 . S
C341 H333 0.950 . S
C341 C339 1.327 . S
C342 C330 1.349 . S
C342 H336 0.950 . S
C342 C343 1.327 . S
C343 H337 0.950 . S
C343 C342 1.327 . S
C343 C347 1.429 . S
C344 C327 1.574 . S
C344 H338 0.949 . S
C344 C348 1.368 . S
C345 C326 1.429 . S
C345 C339 1.429 . S
C345 C346 1.523 . S
C346 C327 1.368 . S
C346 C340 1.368 . S
C346 C345 1.523 . S
C347 C331 1.429 . S
C347 C343 1.429 . S
C347 C348 1.523 . S
C348 C332 1.368 . S
C348 C344 1.368 . S
C348 C347 1.523 . S
H349 C324 0.950 . S
H350 C326 0.950 . S
H351 C327 0.949 . S
H352 C329 0.950 . S
H353 C331 0.950 . S
C354 C355 1.349 . S
C354 C356 1.327 . S
C354 H379 0.950 . S
C355 C354 1.349 . S
C355 C371 1.349 . S
C356 C354 1.327 . S
C356 C375 1.429 . S
C356 H380 0.950 . S
C357 C374 1.574 . S
C357 C376 1.368 . S
C357 H381 0.949 . S
H358 C362 0.949 . S
C359 C360 1.349 . S
C359 C361 1.327 . S
C359 H382 0.950 . S
C360 C359 1.349 . S
C360 C372 1.349 . S
C361 C359 1.327 . S
C361 C377 1.429 . S
C361 H383 0.950 . S
C362 H358 0.949 . S
C362 C370 1.574 . S
C362 C378 1.368 . S
H363 C371 0.950 . S
H364 C369 0.950 . S
H365 C370 0.949 . S
H366 C372 0.950 . S
H367 C373 0.950 . S
H368 C374 0.949 . S
C369 H364 0.950 . S
C369 C371 1.327 . S
C369 C375 1.429 . S
C370 C362 1.574 . S
C370 H365 0.949 . S
C370 C376 1.368 . S
C371 C355 1.349 . S
C371 H363 0.950 . S
C371 C369 1.327 . S
C372 C360 1.349 . S
C372 H366 0.950 . S
C372 C373 1.327 . S
C373 H367 0.950 . S
C373 C372 1.327 . S
C373 C377 1.429 . S
C374 C357 1.574 . S
C374 H368 0.949 . S
C374 C378 1.368 . S
C375 C356 1.429 . S
C375 C369 1.429 . S
C375 C376 1.523 . S
C376 C357 1.368 . S
C376 C370 1.368 . S
C376 C375 1.523 . S
C377 C361 1.429 . S
C377 C373 1.429 . S
C377 C378 1.523 . S
C378 C362 1.368 . S
C378 C374 1.368 . S
C378 C377 1.523 . S
H379 C354 0.950 . S
H380 C356 0.950 . S
H381 C357 0.949 . S
H382 C359 0.950 . S
H383 C361 0.950 . S
C384 C385 1.349 . S
C384 C386 1.327 . S
C384 H409 0.950 . S
C385 C384 1.349 . S
C385 C401 1.349 . S
C386 C384 1.327 . S
C386 C405 1.429 . S
C386 H410 0.950 . S
C387 C404 1.574 1_655 S
C387 C406 1.368 . S
C387 H411 0.949 . S
H388 C392 0.949 . S
C389 C390 1.349 . S
C389 C391 1.327 . S
C389 H412 0.950 . S
C390 C389 1.349 . S
C390 C402 1.349 . S
C391 C389 1.327 . S
C391 C407 1.429 . S
C391 H413 0.950 . S
C392 H388 0.949 . S
C392 C400 1.574 1_455 S
C392 C408 1.368 . S
H393 C401 0.950 . S
H394 C399 0.950 . S
H395 C400 0.949 . S
H396 C402 0.950 . S
H397 C403 0.950 . S
H398 C404 0.949 . S
C399 H394 0.950 . S
C399 C401 1.327 . S
C399 C405 1.429 . S
C400 C392 1.574 1_655 S
C400 H395 0.949 . S
C400 C406 1.368 . S
C401 C385 1.349 . S
C401 H393 0.950 . S
C401 C399 1.327 . S
C402 C390 1.349 . S
C402 H396 0.950 . S
C402 C403 1.327 . S
C403 H397 0.950 . S
C403 C402 1.327 . S
C403 C407 1.429 . S
C404 C387 1.574 1_455 S
C404 H398 0.949 . S
C404 C408 1.368 . S
C405 C386 1.429 . S
C405 C399 1.429 . S
C405 C406 1.523 . S
C406 C387 1.368 . S
C406 C400 1.368 . S
C406 C405 1.523 . S
C407 C391 1.429 . S
C407 C403 1.429 . S
C407 C408 1.523 . S
C408 C392 1.368 . S
C408 C404 1.368 . S
C408 C407 1.523 . S
H409 C384 0.950 . S
H410 C386 0.950 . S
H411 C387 0.949 . S
H412 C389 0.950 . S
H413 C391 0.950 . S
C414 C415 1.349 . S
C414 C416 1.327 . S
C414 H439 0.950 . S
C415 C414 1.349 . S
C415 C431 1.349 . S
C416 C414 1.327 . S
C416 C435 1.429 . S
C416 H440 0.950 . S
C417 C434 1.574 . S
C417 C436 1.368 . S
C417 H441 0.949 . S
H418 C422 0.949 . S
C419 C420 1.349 . S
C419 C421 1.327 . S
C419 H442 0.950 . S
C420 C419 1.349 . S
C420 C432 1.349 . S
C421 C419 1.327 . S
C421 C437 1.429 . S
C421 H443 0.950 . S
C422 H418 0.949 . S
C422 C430 1.574 . S
C422 C438 1.368 . S
H423 C431 0.950 . S
H424 C429 0.950 . S
H425 C430 0.949 . S
H426 C432 0.950 . S
H427 C433 0.950 . S
H428 C434 0.949 . S
C429 H424 0.950 . S
C429 C431 1.327 . S
C429 C435 1.429 . S
C430 C422 1.574 . S
C430 H425 0.949 . S
C430 C436 1.368 . S
C431 C415 1.349 . S
C431 H423 0.950 . S
C431 C429 1.327 . S
C432 C420 1.349 . S
C432 H426 0.950 . S
C432 C433 1.327 . S
C433 H427 0.950 . S
C433 C432 1.327 . S
C433 C437 1.429 . S
C434 C417 1.574 . S
C434 H428 0.949 . S
C434 C438 1.368 . S
C435 C416 1.429 . S
C435 C429 1.429 . S
C435 C436 1.523 . S
C436 C417 1.368 . S
C436 C430 1.368 . S
C436 C435 1.523 . S
C437 C421 1.429 . S
C437 C433 1.429 . S
C437 C438 1.523 . S
C438 C422 1.368 . S
C438 C434 1.368 . S
C438 C437 1.523 . S
H439 C414 0.950 . S
H440 C416 0.950 . S
H441 C417 0.949 . S
H442 C419 0.950 . S
H443 C421 0.950 . S
C444 C445 1.349 . S
C444 C446 1.327 . S
C444 H469 0.950 . S
C445 C444 1.349 . S
C445 C461 1.349 . S
C446 C444 1.327 . S
C446 C465 1.429 . S
C446 H470 0.950 . S
C447 C464 1.574 1_545 S
C447 C466 1.368 . S
C447 H471 0.949 . S
H448 C452 0.950 1_565 S
C449 C450 1.349 . S
C449 C451 1.327 . S
C449 H472 0.950 . S
C450 C449 1.349 . S
C450 C462 1.349 . S
C451 C449 1.327 . S
C451 C467 1.429 . S
C451 H473 0.950 . S
C452 H448 0.950 1_545 S
C452 C460 1.575 . S
C452 C468 1.366 1_545 S
H453 C461 0.950 . S
H454 C459 0.950 . S
H455 C460 0.949 . S
H456 C462 0.950 . S
H457 C463 0.950 . S
H458 C464 0.949 . S
C459 H454 0.950 . S
C459 C461 1.327 . S
C459 C465 1.429 . S
C460 C452 1.575 . S
C460 H455 0.949 . S
C460 C466 1.368 . S
C461 C445 1.349 . S
C461 H453 0.950 . S
C461 C459 1.327 . S
C462 C450 1.349 . S
C462 H456 0.950 . S
C462 C463 1.327 . S
C463 H457 0.950 . S
C463 C462 1.327 . S
C463 C467 1.429 . S
C464 C447 1.574 1_565 S
C464 H458 0.949 . S
C464 C468 1.368 . S
C465 C446 1.429 . S
C465 C459 1.429 . S
C465 C466 1.523 . S
C466 C447 1.368 . S
C466 C460 1.368 . S
C466 C465 1.523 . S
C467 C451 1.429 . S
C467 C463 1.429 . S
C467 C468 1.523 . S
C468 C452 1.366 1_565 S
C468 C464 1.368 . S
C468 C467 1.523 . S
H469 C444 0.950 . S
H470 C446 0.950 . S
H471 C447 0.949 . S
H472 C449 0.950 . S
H473 C451 0.950 . S
C474 C475 1.349 . S
C474 C476 1.327 . S
C474 H499 0.950 . S
C475 C474 1.349 . S
C475 C491 1.349 . S
C476 C474 1.327 . S
C476 C495 1.429 . S
C476 H500 0.950 1_556 S
C477 C494 1.574 . S
C477 C496 1.368 . S
C477 H501 0.949 . S
H478 C482 0.949 . S
C479 C480 1.349 . S
C479 C481 1.327 . S
C479 H502 0.950 . S
C480 C479 1.349 . S
C480 C492 1.349 . S
C481 C479 1.327 . S
C481 C497 1.429 . S
C481 H503 0.950 1_554 S
C482 H478 0.949 . S
C482 C490 1.574 . S
C482 C498 1.368 . S
H483 C491 0.950 . S
H484 C489 0.950 . S
H485 C490 0.949 . S
H486 C492 0.950 . S
H487 C493 0.950 . S
H488 C494 0.949 . S
C489 H484 0.950 . S
C489 C491 1.327 . S
C489 C495 1.429 . S
C490 C482 1.574 . S
C490 H485 0.949 . S
C490 C496 1.368 1_554 S
C491 C475 1.349 . S
C491 H483 0.950 . S
C491 C489 1.327 . S
C492 C480 1.349 . S
C492 H486 0.950 . S
C492 C493 1.327 . S
C493 H487 0.950 . S
C493 C492 1.327 . S
C493 C497 1.429 . S
C494 C477 1.574 . S
C494 H488 0.949 . S
C494 C498 1.368 1_556 S
C495 C476 1.429 . S
C495 C489 1.429 . S
C495 C496 1.523 . S
C496 C477 1.368 . S
C496 C490 1.368 1_556 S
C496 C495 1.523 . S
C497 C481 1.429 . S
C497 C493 1.429 . S
C497 C498 1.523 . S
C498 C482 1.368 . S
C498 C494 1.368 1_554 S
C498 C497 1.523 . S
H499 C474 0.950 . S
H500 C476 0.950 1_554 S
H501 C477 0.949 . S
H502 C479 0.950 . S
H503 C481 0.950 1_556 S
C504 C505 1.349 . S
C504 C506 1.327 . S
C504 H529 0.950 . S
C505 C504 1.349 . S
C505 C521 1.349 . S
C506 C504 1.327 . S
C506 C525 1.429 . S
C506 H530 0.950 . S
C507 C524 1.574 1_545 S
C507 C526 1.368 . S
C507 H531 0.949 . S
H508 C512 0.949 . S
C509 C510 1.349 . S
C509 C511 1.327 . S
C509 H532 0.950 . S
C510 C509 1.349 . S
C510 C522 1.349 . S
C511 C509 1.327 . S
C511 C527 1.429 . S
C511 H533 0.950 . S
C512 H508 0.949 . S
C512 C520 1.574 1_565 S
C512 C528 1.368 . S
H513 C521 0.950 . S
H514 C519 0.950 . S
H515 C520 0.949 . S
H516 C522 0.950 . S
H517 C523 0.950 . S
H518 C524 0.949 . S
C519 H514 0.950 . S
C519 C521 1.327 . S
C519 C525 1.429 . S
C520 C512 1.574 1_545 S
C520 H515 0.949 . S
C520 C526 1.368 . S
C521 C505 1.349 . S
C521 H513 0.950 . S
C521 C519 1.327 . S
C522 C510 1.349 . S
C522 H516 0.950 . S
C522 C523 1.327 . S
C523 H517 0.950 . S
C523 C522 1.327 . S
C523 C527 1.429 . S
C524 C507 1.574 1_565 S
C524 H518 0.949 . S
C524 C528 1.368 . S
C525 C506 1.429 . S
C525 C519 1.429 . S
C525 C526 1.523 . S
C526 C507 1.368 . S
C526 C520 1.368 . S
C526 C525 1.523 . S
C527 C511 1.429 . S
C527 C523 1.429 . S
C527 C528 1.523 . S
C528 C512 1.368 . S
C528 C524 1.368 . S
C528 C527 1.523 . S
H529 C504 0.950 . S
H530 C506 0.950 . S
H531 C507 0.949 . S
H532 C509 0.950 . S
H533 C511 0.950 . S
C534 C535 1.349 . S
C534 C536 1.327 . S
C534 H559 0.950 . S
C535 C534 1.349 . S
C535 C551 1.349 . S
C536 C534 1.327 . S
C536 C555 1.429 . S
C536 H560 0.950 . S
C537 C554 1.574 1_455 S
C537 C556 1.368 . S
C537 H561 0.949 . S
H538 C542 0.949 . S
C539 C540 1.349 . S
C539 C541 1.327 . S
C539 H562 0.950 . S
C540 C539 1.349 . S
C540 C552 1.349 . S
C541 C539 1.327 . S
C541 C557 1.429 . S
C541 H563 0.950 . S
C542 H538 0.949 . S
C542 C550 1.574 1_655 S
C542 C558 1.368 . S
H543 C551 0.950 . S
H544 C549 0.950 . S
H545 C550 0.949 . S
H546 C552 0.950 . S
H547 C553 0.950 . S
H548 C554 0.949 . S
C549 H544 0.950 . S
C549 C551 1.327 . S
C549 C555 1.429 . S
C550 C542 1.574 1_455 S
C550 H545 0.949 . S
C550 C556 1.368 . S
C551 C535 1.349 . S
C551 H543 0.950 . S
C551 C549 1.327 . S
C552 C540 1.349 . S
C552 H546 0.950 . S
C552 C553 1.327 . S
C553 H547 0.950 . S
C553 C552 1.327 . S
C553 C557 1.429 . S
C554 C537 1.574 1_655 S
C554 H548 0.949 . S
C554 C558 1.368 . S
C555 C536 1.429 . S
C555 C549 1.429 . S
C555 C556 1.523 . S
C556 C537 1.368 . S
C556 C550 1.368 . S
C556 C555 1.523 . S
C557 C541 1.429 . S
C557 C553 1.429 . S
C557 C558 1.523 . S
C558 C542 1.368 . S
C558 C554 1.368 . S
C558 C557 1.523 . S
H559 C534 0.950 . S
H560 C536 0.950 . S
H561 C537 0.949 . S
H562 C539 0.950 . S
H563 C541 0.950 . S
C564 C565 1.349 . S
C564 C566 1.327 . S
C564 H589 0.950 . S
C565 C564 1.349 . S
C565 C581 1.349 . S
C566 C564 1.327 . S
C566 C585 1.429 . S
C566 H590 0.950 1_655 S
C567 C584 1.574 . S
C567 C586 1.368 . S
C567 H591 0.949 . S
H568 C572 0.949 . S
C569 C570 1.349 . S
C569 C571 1.327 . S
C569 H592 0.950 . S
C570 C569 1.349 . S
C570 C582 1.349 . S
C571 C569 1.327 . S
C571 C587 1.429 . S
C571 H593 0.950 . S
C572 H568 0.949 . S
C572 C580 1.574 . S
C572 C588 1.368 . S
H573 C581 0.950 . S
H574 C579 0.950 . S
H575 C580 0.949 . S
H576 C582 0.950 . S
H577 C583 0.950 . S
H578 C584 0.949 . S
C579 H574 0.950 . S
C579 C581 1.327 . S
C579 C585 1.429 . S
C580 C572 1.574 . S
C580 H575 0.949 . S
C580 C586 1.368 1_455 S
C581 C565 1.349 . S
C581 H573 0.950 . S
C581 C579 1.327 . S
C582 C570 1.349 . S
C582 H576 0.950 . S
C582 C583 1.327 . S
C583 H577 0.950 . S
C583 C582 1.327 . S
C583 C587 1.429 . S
C584 C567 1.574 . S
C584 H578 0.949 . S
C584 C588 1.368 1_655 S
C585 C566 1.429 . S
C585 C579 1.429 . S
C585 C586 1.523 . S
C586 C567 1.368 . S
C586 C580 1.368 1_655 S
C586 C585 1.523 . S
C587 C571 1.429 . S
C587 C583 1.429 . S
C587 C588 1.523 . S
C588 C572 1.368 . S
C588 C584 1.368 1_455 S
C588 C587 1.523 . S
H589 C564 0.950 . S
H590 C566 0.950 1_455 S
H591 C567 0.949 . S
H592 C569 0.950 . S
H593 C571 0.950 . S
C594 C595 1.349 . S
C594 C596 1.327 . S
C594 H619 0.950 . S
C595 C594 1.349 . S
C595 C611 1.349 . S
C596 C594 1.327 . S
C596 C615 1.429 . S
C596 H620 0.950 . S
C597 C614 1.574 1_556 S
C597 C616 1.368 . S
C597 H621 0.949 . S
H598 C602 0.949 . S
C599 C600 1.349 . S
C599 C601 1.327 . S
C599 H622 0.950 . S
C600 C599 1.349 . S
C600 C612 1.349 . S
C601 C599 1.327 . S
C601 C617 1.429 . S
C601 H623 0.950 . S
C602 H598 0.949 . S
C602 C610 1.574 1_554 S
C602 C618 1.368 . S
H603 C611 0.950 . S
H604 C609 0.950 . S
H605 C610 0.949 . S
H606 C612 0.950 . S
H607 C613 0.950 . S
H608 C614 0.949 . S
C609 H604 0.950 . S
C609 C611 1.327 . S
C609 C615 1.429 . S
C610 C602 1.574 1_556 S
C610 H605 0.949 . S
C610 C616 1.368 . S
C611 C595 1.349 . S
C611 H603 0.950 . S
C611 C609 1.327 . S
C612 C600 1.349 . S
C612 H606 0.950 . S
C612 C613 1.327 . S
C613 H607 0.950 . S
C613 C612 1.327 . S
C613 C617 1.429 . S
C614 C597 1.574 1_554 S
C614 H608 0.949 . S
C614 C618 1.368 . S
C615 C596 1.429 . S
C615 C609 1.429 . S
C615 C616 1.523 . S
C616 C597 1.368 . S
C616 C610 1.368 . S
C616 C615 1.523 . S
C617 C601 1.429 . S
C617 C613 1.429 . S
C617 C618 1.523 . S
C618 C602 1.368 . S
C618 C614 1.368 . S
C618 C617 1.523 . S
H619 C594 0.950 . S
H620 C596 0.950 . S
H621 C597 0.949 . S
H622 C599 0.950 . S
H623 C601 0.950 . S
C624 C625 1.349 . S
C624 C626 1.327 . S
C624 H649 0.950 . S
C625 C624 1.349 . S
C625 C641 1.349 . S
C626 C624 1.327 . S
C626 C645 1.429 . S
C626 H650 0.950 . S
C627 C644 1.574 . S
C627 C646 1.368 . S
C627 H651 0.949 . S
H628 C632 0.949 . S
C629 C630 1.349 . S
C629 C631 1.327 . S
C629 H652 0.950 . S
C630 C629 1.349 . S
C630 C642 1.349 . S
C631 C629 1.327 . S
C631 C647 1.429 . S
C631 H653 0.950 1_565 S
C632 H628 0.949 . S
C632 C640 1.574 . S
C632 C648 1.368 . S
H633 C641 0.950 . S
H634 C639 0.950 . S
H635 C640 0.949 . S
H636 C642 0.950 . S
H637 C643 0.950 . S
H638 C644 0.949 . S
C639 H634 0.950 . S
C639 C641 1.327 . S
C639 C645 1.429 . S
C640 C632 1.574 . S
C640 H635 0.949 . S
C640 C646 1.368 1_565 S
C641 C625 1.349 . S
C641 H633 0.950 . S
C641 C639 1.327 . S
C642 C630 1.349 . S
C642 H636 0.950 . S
C642 C643 1.327 . S
C643 H637 0.950 . S
C643 C642 1.327 . S
C643 C647 1.429 . S
C644 C627 1.574 . S
C644 H638 0.949 . S
C644 C648 1.368 1_545 S
C645 C626 1.429 . S
C645 C639 1.429 . S
C645 C646 1.523 . S
C646 C627 1.368 . S
C646 C640 1.368 1_545 S
C646 C645 1.523 . S
C647 C631 1.429 . S
C647 C643 1.429 . S
C647 C648 1.523 . S
C648 C632 1.368 . S
C648 C644 1.368 1_565 S
C648 C647 1.523 . S
H649 C624 0.950 . S
H650 C626 0.950 . S
H651 C627 0.949 . S
H652 C629 0.950 . S
H653 C631 0.950 1_545 S
C205 C73 1.570 . S
C210 C20 1.597 . S
C235 C54 1.597 . S
C240 C5 1.570 . S
C265 C88 1.597 . S
C270 C39 1.571 . S
C295 C122 1.597 . S
C300 C141 1.570 . S
C325 C175 1.570 . S
C330 C156 1.597 . S
C355 C107 1.570 . S
C360 C190 1.597 . S
C385 C169 1.058 . S
C390 C33 1.058 . S
C415 C203 1.058 . S
C420 C67 1.058 . S
C445 C135 1.058 . S
C450 C101 1.058 . S
C475 C104 1.410 . S
C480 C2 1.410 . S
C505 C138 1.409 . S
C510 C36 1.409 . S
C535 C70 1.409 . S
C540 C172 1.409 . S
C565 C145 1.320 . S
C570 C9 1.320 . S
C595 C43 1.320 . S
C600 C179 1.320 . S
C625 C111 1.320 . S
C630 C77 1.320 . S
