# Generated by pormake.
# Topology svk, (7)-cn, num edge types: 1
# Building blocks:
#     Node 0, Type 0, BuildingBlock: HICVOG_clean_sbu_0, # of connection points: 7
#     Node 1, Type 0, BuildingBlock: HICVOG_clean_sbu_0, # of connection points: 7
#     Node 2, Type 0, BuildingBlock: HICVOG_clean_sbu_0, # of connection points: 7
#     Node 3, Type 0, BuildingBlock: HICVOG_clean_sbu_0, # of connection points: 7
#     Edge 4, Type (0, 0), BuildingBlock: OJICUG_clean_linker_0, # of connection points: 2
#     Edge 5, Type (0, 0), BuildingBlock: OJICUG_clean_linker_0, # of connection points: 2
#     Edge 6, Type (0, 0), BuildingBlock: OJICUG_clean_linker_0, # of connection points: 2
#     Edge 7, Type (0, 0), BuildingBlock: OJICUG_clean_linker_0, # of connection points: 2
#     Edge 8, Type (0, 0), BuildingBlock: OJICUG_clean_linker_0, # of connection points: 2
#     Edge 9, Type (0, 0), BuildingBlock: OJICUG_clean_linker_0, # of connection points: 2
#     Edge 10, Type (0, 0), BuildingBlock: OJICUG_clean_linker_0, # of connection points: 2
#     Edge 11, Type (0, 0), BuildingBlock: OJICUG_clean_linker_0, # of connection points: 2
#     Edge 12, Type (0, 0), BuildingBlock: OJICUG_clean_linker_0, # of connection points: 2
#     Edge 13, Type (0, 0), BuildingBlock: OJICUG_clean_linker_0, # of connection points: 2
#     Edge 14, Type (0, 0), BuildingBlock: OJICUG_clean_linker_0, # of connection points: 2
#     Edge 15, Type (0, 0), BuildingBlock: OJICUG_clean_linker_0, # of connection points: 2
#     Edge 16, Type (0, 0), BuildingBlock: OJICUG_clean_linker_0, # of connection points: 2
#     Edge 17, Type (0, 0), BuildingBlock: OJICUG_clean_linker_0, # of connection points: 2
# Relax obj value: 0.264
# Max RMSD: 0.251
# Mean RMSD: 0.251
data_MOF--net-svk--node1-HICVOG_clean_sbu_0--edge1-OJICUG_clean_linker_0
_symmetry_space_group_name_H-M    P1
_symmetry_Int_Tables_number       1
_symmetry_cell_setting            triclinic
loop_
_symmetry_equiv_pos_as_xyz
'x, y, z'
_cell_length_a     13.653245
_cell_length_b     36.843201
_cell_length_c     16.264217
_cell_angle_alpha  89.410952
_cell_angle_beta   90.0036
_cell_angle_gamma 89.997548
loop_
_atom_site_label
_atom_site_type_symbol
_atom_site_fract_x
_atom_site_fract_y
_atom_site_fract_z
_atom_type_partial_charge
Zn0 Zn 0.09985 0.3879 0.05912 0.0
C1 C 0.9232 0.32056 0.93528 0.0
N2 N 0.98577 0.29482 0.96045 0.0
C3 C 0.05839 0.314 0.99466 0.0
N4 N 0.0421 0.35019 0.99044 0.0
N5 N 0.95752 0.35404 0.9517 0.0
C6 C 0.71079 0.4059 0.94297 0.0
O7 O 0.75831 0.42336 1.00054 0.0
O8 O 0.25137 0.38586 0.05963 0.0
Zn9 Zn 0.91021 0.3967 0.89425 0.0
N10 N 0.02484 0.38407 0.16153 0.0
C11 C 0.85569 0.38497 0.19732 0.0
C12 C 0.92924 0.38672 0.13897 0.0
C13 C 0.05044 0.38173 0.24264 0.0
N14 N 0.88034 0.38243 0.27748 0.0
C15 C 0.97521 0.38127 0.30314 0.0
O16 O 0.94015 0.44514 0.94503 0.0
C17 C 0.00572 0.45903 0.99028 0.0
O18 O 0.06931 0.43995 0.02799 0.0
H19 H 0.91026 0.39096 0.07543 0.0
H20 H 0.1271 0.38154 0.25919 0.0
C21 C 0.96563 0.3908 0.71567 0.0
C22 C 0.03977 0.39157 0.65462 0.0
C23 C 0.1573 0.40575 0.75685 0.0
C24 C 0.08434 0.40534 0.81622 0.0
N25 N 0.99017 0.39785 0.79517 0.0
N26 N 0.13341 0.39893 0.67782 0.0
H27 H 0.89055 0.38416 0.7009 0.0
C28 C 0.29585 0.37667 0.99381 0.0
O29 O 0.24384 0.36509 0.93147 0.0
O30 O 0.75982 0.39277 0.88317 0.0
H31 H 0.10284 0.41042 0.87956 0.0
H32 H 0.77949 0.38656 0.17933 0.0
H33 H 0.23248 0.41143 0.77336 0.0
Zn34 Zn 0.09917 0.68537 0.9595 0.0
C35 C 0.9224 0.75285 0.0827 0.0
N36 N 0.98491 0.77857 0.05735 0.0
C37 C 0.05759 0.75936 0.02332 0.0
N38 N 0.04138 0.72317 0.02783 0.0
N39 N 0.95678 0.71936 0.06654 0.0
C40 C 0.71013 0.66746 0.07577 0.0
O41 O 0.75761 0.64986 0.0184 0.0
O42 O 0.2507 0.68739 0.95896 0.0
Zn43 Zn 0.90959 0.67678 0.12436 0.0
N44 N 0.02412 0.68905 0.8571 0.0
C45 C 0.85497 0.68796 0.82133 0.0
C46 C 0.92855 0.6863 0.87967 0.0
C47 C 0.04968 0.69145 0.77599 0.0
N48 N 0.87958 0.69056 0.74117 0.0
C49 C 0.97444 0.69185 0.71551 0.0
O50 O 0.93972 0.62825 0.07411 0.0
C51 C 0.0052 0.61422 0.02892 0.0
O52 O 0.06861 0.63336 0.99105 0.0
H53 H 0.90961 0.68206 0.94323 0.0
H54 H 0.12633 0.69176 0.75943 0.0
C55 C 0.96491 0.68277 0.30296 0.0
C56 C 0.0391 0.68214 0.36398 0.0
C57 C 0.15685 0.66836 0.26165 0.0
C58 C 0.08383 0.66862 0.20231 0.0
N59 N 0.98955 0.67586 0.22343 0.0
N60 N 0.13287 0.67506 0.34072 0.0
H61 H 0.8897 0.68918 0.31779 0.0
C62 C 0.29528 0.69679 0.02459 0.0
O63 O 0.24337 0.70861 0.08673 0.0
O64 O 0.7592 0.68071 0.13542 0.0
H65 H 0.10236 0.66358 0.13896 0.0
H66 H 0.77879 0.68629 0.83931 0.0
H67 H 0.23212 0.66289 0.24509 0.0
Zn68 Zn 0.60096 0.88817 0.05784 0.0
C69 C 0.42244 0.81978 0.93875 0.0
N70 N 0.48466 0.79412 0.96493 0.0
C71 C 0.55761 0.81343 0.99824 0.0
N72 N 0.54181 0.84962 0.99251 0.0
N73 N 0.45723 0.8533 0.95374 0.0
C74 C 0.20983 0.90483 0.9444 0.0
O75 O 0.25648 0.9228 1.00161 0.0
O76 O 0.7515 0.88474 0.06027 0.0
Zn77 Zn 0.40933 0.89599 0.89703 0.0
N78 N 0.52524 0.88679 0.16076 0.0
C79 C 0.35623 0.8896 0.19662 0.0
C80 C 0.42977 0.88985 0.13811 0.0
C81 C 0.55069 0.88497 0.24207 0.0
N82 N 0.38076 0.88765 0.2769 0.0
C83 C 0.47548 0.88572 0.30271 0.0
O84 O 0.43626 0.94405 0.95154 0.0
C85 C 0.50734 0.95871 0.98925 0.0
O86 O 0.5771 0.94013 0.02009 0.0
H87 H 0.41084 0.89298 0.07426 0.0
H88 H 0.62731 0.884 0.25861 0.0
C89 C 0.46415 0.89236 0.71685 0.0
C90 C 0.53842 0.89335 0.65572 0.0
C91 C 0.65666 0.9051 0.75903 0.0
C92 C 0.58377 0.90431 0.81844 0.0
N93 N 0.48913 0.89796 0.79703 0.0
N94 N 0.63241 0.89964 0.67953 0.0
H95 H 0.38871 0.88658 0.70152 0.0
C96 C 0.79594 0.87503 0.99489 0.0
O97 O 0.74392 0.86351 0.9325 0.0
O98 O 0.25946 0.89151 0.88521 0.0
H99 H 0.60274 0.90815 0.88205 0.0
H100 H 0.28013 0.8916 0.17855 0.0
H101 H 0.73216 0.90992 0.77593 0.0
Zn102 Zn 0.60164 0.18514 0.95936 0.0
C103 C 0.42327 0.25347 0.07884 0.0
N104 N 0.4855 0.27914 0.05277 0.0
C105 C 0.55841 0.25984 0.01934 0.0
N106 N 0.54257 0.22365 0.0249 0.0
N107 N 0.45801 0.21995 0.06367 0.0
C108 C 0.21058 0.16849 0.0727 0.0
O109 O 0.25726 0.15062 0.01534 0.0
O110 O 0.75217 0.18855 0.95698 0.0
Zn111 Zn 0.41005 0.17723 0.12017 0.0
N112 N 0.52597 0.18664 0.85641 0.0
C113 C 0.35696 0.18402 0.82049 0.0
C114 C 0.43047 0.18369 0.87902 0.0
C115 C 0.55147 0.18841 0.77511 0.0
N116 N 0.38153 0.18592 0.74021 0.0
C117 C 0.47628 0.18773 0.71444 0.0
O118 O 0.43683 0.12924 0.06539 0.0
C119 C 0.50779 0.11457 0.02753 0.0
O120 O 0.57763 0.13313 0.99679 0.0
H121 H 0.4115 0.18055 0.94285 0.0
H122 H 0.6281 0.18928 0.75859 0.0
C123 C 0.46495 0.18081 0.30033 0.0
C124 C 0.53921 0.17974 0.36147 0.0
C125 C 0.65733 0.16777 0.2582 0.0
C126 C 0.58444 0.16865 0.19878 0.0
N127 N 0.48986 0.17514 0.22017 0.0
N128 N 0.63313 0.1733 0.33769 0.0
H129 H 0.38958 0.18672 0.31563 0.0
C130 C 0.79658 0.19817 0.02246 0.0
O131 O 0.74452 0.20958 0.08493 0.0
O132 O 0.26018 0.18172 0.13201 0.0
H133 H 0.60339 0.16478 0.13517 0.0
H134 H 0.28084 0.1821 0.83852 0.0
H135 H 0.73278 0.16284 0.24131 0.0
C136 C 0.0237 0.5215 0.93232 0.0
C137 C 0.00717 0.4986 1.00031 0.0
H138 H 0.03862 0.57643 0.88878 0.0
C139 C 0.99083 0.51375 0.07787 0.0
H140 H 0.03645 0.5102 0.87201 0.0
C141 C 0.98904 0.55146 0.08705 0.0
C142 C 0.00688 0.57447 0.01928 0.0
H143 H 0.97765 0.49641 0.13095 0.0
H144 H 0.97504 0.56265 0.14726 0.0
C145 C 0.02523 0.55919 0.94199 0.0
C146 C 0.41946 0.05549 0.01355 0.0
C147 C 0.50819 0.0747 0.01792 0.0
H148 H 0.34981 1.00381 0.9994 0.0
C149 C 0.59686 0.0555 0.01251 0.0
H150 H 0.35001 0.06962 0.01708 0.0
C151 C 0.59675 1.01772 1.00413 0.0
C152 C 0.50796 0.99859 0.99868 0.0
H153 H 0.66631 0.06962 0.01595 0.0
H154 H 0.66612 1.00353 1.00077 0.0
C155 C 0.41935 1.01788 1.00296 0.0
C156 C 0.09581 0.37333 0.5142 0.0
C157 C 0.02033 0.38583 0.56592 0.0
H158 H 0.14184 0.36131 0.3917 0.0
C159 C 0.93049 0.39568 0.53063 0.0
H160 H 0.16604 0.36534 0.53953 0.0
C161 C 0.91704 0.39376 0.44582 0.0
C162 C 0.99295 0.38199 0.39349 0.0
H163 H 0.87143 0.40625 0.56776 0.0
H164 H 0.84706 0.40249 0.42129 0.0
C165 C 0.08229 0.37131 0.42903 0.0
C166 C 0.0948 0.70036 0.5045 0.0
C167 C 0.01957 0.68771 0.45272 0.0
H168 H 0.14062 0.71236 0.62708 0.0
C169 C 0.92996 0.67755 0.48797 0.0
H170 H 0.16485 0.70859 0.4792 0.0
C171 C 0.91652 0.67931 0.57279 0.0
C172 C 0.99219 0.69125 0.62517 0.0
H173 H 0.87112 0.66685 0.45079 0.0
H174 H 0.84674 0.67036 0.5973 0.0
C175 C 0.08128 0.70223 0.58969 0.0
C176 C 0.59475 0.87629 0.51439 0.0
C177 C 0.5193 0.88865 0.56641 0.0
H178 H 0.64132 0.86496 0.39169 0.0
C179 C 0.43007 0.89917 0.53097 0.0
H180 H 0.66455 0.86777 0.53969 0.0
C181 C 0.41721 0.89797 0.44588 0.0
C182 C 0.49303 0.88621 0.39333 0.0
H183 H 0.37103 0.90962 0.5683 0.0
H184 H 0.34759 0.90709 0.42135 0.0
C185 C 0.5818 0.87496 0.42902 0.0
C186 C 0.58276 0.19822 0.58812 0.0
C187 C 0.49385 0.18715 0.62382 0.0
H188 H 0.66562 0.20519 0.47745 0.0
C189 C 0.41791 0.17546 0.57129 0.0
H190 H 0.64238 0.20816 0.62543 0.0
C191 C 0.43078 0.17417 0.48621 0.0
C192 C 0.52014 0.18453 0.45076 0.0
H193 H 0.34818 0.16647 0.59582 0.0
H194 H 0.37163 0.16379 0.44891 0.0
C195 C 0.59571 0.1968 0.50275 0.0
C196 C 0.55065 0.37785 0.8978 0.0
C197 C 0.60461 0.3979 0.95518 0.0
H198 H 0.41157 0.35511 0.86539 0.0
C199 C 0.55708 0.40917 0.02758 0.0
H200 H 0.58505 0.36822 0.84213 0.0
C201 C 0.45802 0.4013 0.04154 0.0
C202 C 0.40336 0.38209 0.98329 0.0
H203 H 0.59639 0.42423 0.07393 0.0
H204 H 0.42386 0.41095 0.0973 0.0
C205 C 0.45122 0.37015 0.91158 0.0
C206 C 0.55013 0.69573 0.12054 0.0
C207 C 0.60397 0.67547 0.06348 0.0
H208 H 0.41118 0.71868 0.15259 0.0
C209 C 0.55634 0.66399 0.99129 0.0
H210 H 0.58461 0.70553 0.17603 0.0
C211 C 0.45731 0.67188 0.97723 0.0
C212 C 0.40277 0.69132 0.03516 0.0
H213 H 0.59555 0.64875 0.94518 0.0
H214 H 0.42307 0.66208 0.92164 0.0
C215 C 0.45073 0.70347 0.10665 0.0
C216 C 0.0507 0.8761 0.89944 0.0
C217 C 0.10402 0.89651 0.95654 0.0
H218 H 0.91206 0.85294 0.86723 0.0
C219 C 0.05628 0.90788 0.02872 0.0
H220 H 0.08541 0.86638 0.84399 0.0
C221 C 0.95747 0.8998 0.04268 0.0
C222 C 0.90332 0.88031 0.98463 0.0
H223 H 0.09518 0.9232 0.07487 0.0
H224 H 0.92304 0.90958 0.09821 0.0
C225 C 0.95143 0.86819 0.91322 0.0
C226 C 0.05135 0.19707 0.1179 0.0
C227 C 0.10475 0.1768 0.06061 0.0
H228 H 0.91261 0.22009 0.15034 0.0
C229 C 0.05705 0.16553 0.98832 0.0
H230 H 0.08603 0.2067 0.17345 0.0
C231 C 0.9582 0.17357 0.97444 0.0
C232 C 0.90398 0.19293 0.03268 0.0
H233 H 0.096 0.15032 0.94203 0.0
H234 H 0.9238 0.16388 0.91882 0.0
C235 C 0.95204 0.20494 0.10421 0.0
C236 C 0.28342 0.29211 0.12168 0.0
C237 C 0.31893 0.26203 0.07841 0.0
H238 H 0.16877 0.33182 0.13126 0.0
C239 C 0.26339 0.24774 0.0142 0.0
H240 H 0.32678 0.30418 0.17002 0.0
C241 C 0.17657 0.26411 0.99048 0.0
C242 C 0.14428 0.29567 0.02941 0.0
H243 H 0.2911 0.22579 0.97726 0.0
H244 H 0.13801 0.25329 0.93787 0.0
C245 C 0.19511 0.30853 0.09805 0.0
C246 C 0.69452 0.80824 0.10158 0.0
C247 C 0.64349 0.79519 0.03322 0.0
H248 H 0.82646 0.80403 0.17329 0.0
C249 C 0.67539 0.76346 0.99487 0.0
H250 H 0.66828 0.83166 0.13444 0.0
C251 C 0.7621 0.74707 0.01875 0.0
C252 C 0.81807 0.76155 0.08247 0.0
H253 H 0.6366 0.75247 0.94256 0.0
H254 H 0.78935 0.72496 0.98216 0.0
C255 C 0.78285 0.79182 0.12528 0.0
C256 C 0.28258 0.78109 0.89616 0.0
C257 C 0.3181 0.81123 0.93921 0.0
H258 H 0.16798 0.74135 0.88689 0.0
C259 C 0.26255 0.82561 1.00332 0.0
H260 H 0.32596 0.76895 0.84792 0.0
C261 C 0.17573 0.80927 0.02714 0.0
C262 C 0.14346 0.77766 0.98844 0.0
H263 H 0.29026 0.84762 0.04011 0.0
H264 H 0.13715 0.82017 0.07966 0.0
C265 C 0.1943 0.7647 0.91991 0.0
C266 C 0.6762 0.3098 0.02305 0.0
C267 C 0.64434 0.27811 0.98451 0.0
H268 H 0.79009 0.34829 0.03601 0.0
C269 C 0.69541 0.26514 0.91609 0.0
H270 H 0.63738 0.32072 0.07541 0.0
C271 C 0.78373 0.2816 0.89251 0.0
C272 C 0.81888 0.31183 0.9355 0.0
H273 H 0.6692 0.24175 0.88309 0.0
H274 H 0.82736 0.26946 0.84443 0.0
C275 C 0.76287 0.32623 0.99928 0.0
loop_
_geom_bond_atom_site_label_1
_geom_bond_atom_site_label_2
_geom_bond_distance
_geom_bond_site_symmetry_2
_ccdc_geom_bond_type
Zn0 N4 2.020 . S
Zn0 O8 2.019 . S
Zn0 N10 2.119 . S
Zn0 O18 1.975 . S
C1 N2 1.334 1_656 S
C1 N5 1.336 . S
N2 C1 1.334 1_454 S
N2 C3 1.334 . S
C3 N2 1.334 . S
C3 N4 1.336 . S
N4 Zn0 2.020 . S
N4 C3 1.336 . S
N4 N5 1.354 1_454 S
N5 C1 1.336 . S
N5 N4 1.354 1_656 S
N5 Zn9 2.020 . S
C6 O7 1.244 1_556 S
C6 O30 1.257 . S
O7 C6 1.244 1_554 S
O8 Zn0 2.019 . S
O8 C28 1.257 . S
Zn9 N5 2.020 . S
Zn9 O16 1.975 . S
Zn9 N25 2.119 . S
Zn9 O30 2.019 . S
N10 Zn0 2.119 . S
N10 C12 1.334 1_455 S
N10 C13 1.328 . S
C11 C12 1.391 . S
C11 N14 1.329 1_655 S
C11 H32 0.930 . S
C12 N10 1.334 1_655 S
C12 C11 1.391 . S
C12 H19 0.930 . S
C13 N10 1.328 . S
C13 C15 1.392 . S
C13 H20 0.930 . S
N14 C11 1.329 1_455 S
N14 C15 1.331 . S
C15 C13 1.392 . S
C15 N14 1.331 . S
O16 Zn9 1.975 . S
O16 C17 1.252 1_656 S
C17 O16 1.252 1_454 S
C17 O18 1.252 . S
O18 Zn0 1.975 . S
O18 C17 1.252 . S
H19 C12 0.930 . S
H20 C13 0.930 . S
C21 C22 1.392 . S
C21 N25 1.328 . S
C21 H27 0.930 . S
C22 C21 1.392 . S
C22 N26 1.331 . S
C23 C24 1.391 . S
C23 N26 1.329 1_455 S
C23 H33 0.930 . S
C24 C23 1.391 . S
C24 N25 1.334 1_455 S
C24 H31 0.930 . S
N25 Zn9 2.119 . S
N25 C21 1.328 . S
N25 C24 1.334 1_655 S
N26 C22 1.331 . S
N26 C23 1.329 1_655 S
H27 C21 0.930 . S
C28 O8 1.257 . S
C28 O29 1.244 1_554 S
O29 C28 1.244 1_556 S
O30 C6 1.257 . S
O30 Zn9 2.019 . S
H31 C24 0.930 . S
H32 C11 0.930 . S
H33 C23 0.930 . S
Zn34 N38 2.020 . S
Zn34 O42 2.019 . S
Zn34 N44 2.119 . S
Zn34 O52 1.975 . S
C35 N36 1.334 1_655 S
C35 N39 1.336 . S
N36 C35 1.334 1_455 S
N36 C37 1.334 1_554 S
C37 N36 1.334 1_556 S
C37 N38 1.336 . S
N38 Zn34 2.020 . S
N38 C37 1.336 . S
N38 N39 1.354 1_456 S
N39 C35 1.336 . S
N39 N38 1.354 1_654 S
N39 Zn43 2.020 . S
C40 O41 1.244 1_554 S
C40 O64 1.257 . S
O41 C40 1.244 1_556 S
O42 Zn34 2.019 . S
O42 C62 1.257 . S
Zn43 N39 2.020 . S
Zn43 O50 1.975 . S
Zn43 N59 2.119 . S
Zn43 O64 2.019 . S
N44 Zn34 2.119 . S
N44 C46 1.334 1_455 S
N44 C47 1.328 . S
C45 C46 1.391 . S
C45 N48 1.329 1_655 S
C45 H66 0.930 . S
C46 N44 1.334 1_655 S
C46 C45 1.391 . S
C46 H53 0.930 . S
C47 N44 1.328 . S
C47 C49 1.392 . S
C47 H54 0.930 . S
N48 C45 1.329 1_455 S
N48 C49 1.331 . S
C49 C47 1.392 . S
C49 N48 1.331 . S
O50 Zn43 1.975 . S
O50 C51 1.252 1_655 S
C51 O50 1.252 1_455 S
C51 O52 1.252 1_554 S
O52 Zn34 1.975 . S
O52 C51 1.252 1_556 S
H53 C46 0.930 . S
H54 C47 0.930 . S
C55 C56 1.392 . S
C55 N59 1.328 . S
C55 H61 0.930 . S
C56 C55 1.392 . S
C56 N60 1.331 . S
C57 C58 1.391 . S
C57 N60 1.329 1_455 S
C57 H67 0.930 . S
C58 C57 1.391 . S
C58 N59 1.334 1_455 S
C58 H65 0.930 . S
N59 Zn43 2.119 . S
N59 C55 1.328 . S
N59 C58 1.334 1_655 S
N60 C56 1.331 . S
N60 C57 1.329 1_655 S
H61 C55 0.930 . S
C62 O42 1.257 . S
C62 O63 1.244 1_556 S
O63 C62 1.244 1_554 S
O64 C40 1.257 . S
O64 Zn43 2.019 . S
H65 C58 0.930 . S
H66 C45 0.930 . S
H67 C57 0.930 . S
Zn68 N72 2.020 . S
Zn68 O76 2.019 . S
Zn68 N78 2.119 . S
Zn68 O86 1.975 . S
C69 N70 1.334 1_556 S
C69 N73 1.336 . S
N70 C69 1.334 1_554 S
N70 C71 1.334 . S
C71 N70 1.334 . S
C71 N72 1.336 . S
N72 Zn68 2.020 . S
N72 C71 1.336 . S
N72 N73 1.354 1_554 S
N73 C69 1.336 . S
N73 N72 1.354 1_556 S
N73 Zn77 2.020 . S
C74 O75 1.244 1_556 S
C74 O98 1.257 . S
O75 C74 1.244 1_554 S
O76 Zn68 2.019 . S
O76 C96 1.257 . S
Zn77 N73 2.020 . S
Zn77 O84 1.975 . S
Zn77 N93 2.119 . S
Zn77 O98 2.019 . S
N78 Zn68 2.119 . S
N78 C80 1.334 . S
N78 C81 1.328 . S
C79 C80 1.391 . S
C79 N82 1.329 . S
C79 H100 0.930 . S
C80 N78 1.334 . S
C80 C79 1.391 . S
C80 H87 0.930 . S
C81 N78 1.328 . S
C81 C83 1.392 . S
C81 H88 0.930 . S
N82 C79 1.329 . S
N82 C83 1.331 . S
C83 C81 1.392 . S
C83 N82 1.331 . S
O84 Zn77 1.975 . S
O84 C85 1.252 1_556 S
C85 O84 1.252 1_554 S
C85 O86 1.252 . S
O86 Zn68 1.975 . S
O86 C85 1.252 . S
H87 C80 0.930 . S
H88 C81 0.930 . S
C89 C90 1.392 . S
C89 N93 1.328 . S
C89 H95 0.930 . S
C90 C89 1.392 . S
C90 N94 1.331 . S
C91 C92 1.391 . S
C91 N94 1.329 . S
C91 H101 0.930 . S
C92 C91 1.391 . S
C92 N93 1.334 . S
C92 H99 0.930 . S
N93 Zn77 2.119 . S
N93 C89 1.328 . S
N93 C92 1.334 . S
N94 C90 1.331 . S
N94 C91 1.329 . S
H95 C89 0.930 . S
C96 O76 1.257 . S
C96 O97 1.244 1_554 S
O97 C96 1.244 1_556 S
O98 C74 1.257 . S
O98 Zn77 2.019 . S
H99 C92 0.930 . S
H100 C79 0.930 . S
H101 C91 0.930 . S
Zn102 N106 2.020 . S
Zn102 O110 2.019 . S
Zn102 N112 2.119 . S
Zn102 O120 1.975 . S
C103 N104 1.334 . S
C103 N107 1.336 . S
N104 C103 1.334 . S
N104 C105 1.334 1_554 S
C105 N104 1.334 1_556 S
C105 N106 1.336 . S
N106 Zn102 2.020 . S
N106 C105 1.336 . S
N106 N107 1.354 1_556 S
N107 C103 1.336 . S
N107 N106 1.354 1_554 S
N107 Zn111 2.020 . S
C108 O109 1.244 1_554 S
C108 O132 1.257 . S
O109 C108 1.244 1_556 S
O110 Zn102 2.019 . S
O110 C130 1.257 . S
Zn111 N107 2.020 . S
Zn111 O118 1.975 . S
Zn111 N127 2.119 . S
Zn111 O132 2.019 . S
N112 Zn102 2.119 . S
N112 C114 1.334 . S
N112 C115 1.328 . S
C113 C114 1.391 . S
C113 N116 1.329 . S
C113 H134 0.930 . S
C114 N112 1.334 . S
C114 C113 1.391 . S
C114 H121 0.930 . S
C115 N112 1.328 . S
C115 C117 1.392 . S
C115 H122 0.930 . S
N116 C113 1.329 . S
N116 C117 1.331 . S
C117 C115 1.392 . S
C117 N116 1.331 . S
O118 Zn111 1.975 . S
O118 C119 1.252 . S
C119 O118 1.252 . S
C119 O120 1.252 1_554 S
O120 Zn102 1.975 . S
O120 C119 1.252 1_556 S
H121 C114 0.930 . S
H122 C115 0.930 . S
C123 C124 1.392 . S
C123 N127 1.328 . S
C123 H129 0.930 . S
C124 C123 1.392 . S
C124 N128 1.331 . S
C125 C126 1.391 . S
C125 N128 1.329 . S
C125 H135 0.930 . S
C126 C125 1.391 . S
C126 N127 1.334 . S
C126 H133 0.930 . S
N127 Zn111 2.119 . S
N127 C123 1.328 . S
N127 C126 1.334 . S
N128 C124 1.331 . S
N128 C125 1.329 . S
H129 C123 0.930 . S
C130 O110 1.257 . S
C130 O131 1.244 1_556 S
O131 C130 1.244 1_554 S
O132 C108 1.257 . S
O132 Zn111 2.019 . S
H133 C126 0.930 . S
H134 C113 0.930 . S
H135 C125 0.930 . S
C136 C137 1.387 1_556 S
C136 H140 0.950 . S
C136 C145 1.390 . S
C137 C136 1.387 1_554 S
C137 C139 1.387 1_455 S
H138 C145 0.950 . S
C139 C137 1.387 1_655 S
C139 C141 1.390 . S
C139 H143 0.950 . S
H140 C136 0.950 . S
C141 C139 1.390 . S
C141 C142 1.387 . S
C141 H144 0.950 . S
C142 C141 1.387 . S
C142 C145 1.388 1_654 S
H143 C139 0.950 . S
H144 C141 0.950 . S
C145 C136 1.390 . S
C145 H138 0.950 . S
C145 C142 1.388 1_456 S
C146 C147 1.387 1_556 S
C146 H150 0.950 . S
C146 C155 1.390 1_545 S
C147 C146 1.387 1_554 S
C147 C149 1.388 . S
H148 C155 0.950 . S
C149 C147 1.388 . S
C149 C151 1.390 1_545 S
C149 H153 0.950 . S
H150 C146 0.950 . S
C151 C149 1.390 1_565 S
C151 C152 1.387 . S
C151 H154 0.950 . S
C152 C151 1.387 . S
C152 C155 1.388 1_554 S
H153 C149 0.950 . S
H154 C151 0.950 . S
C155 C146 1.390 1_565 S
C155 H148 0.950 . S
C155 C152 1.388 1_556 S
C156 C157 1.387 . S
C156 H160 0.950 . S
C156 C165 1.390 1_655 S
C157 C156 1.387 . S
C157 C159 1.387 . S
H158 C165 0.950 . S
C159 C157 1.387 . S
C159 C161 1.390 1_655 S
C159 H163 0.950 . S
H160 C156 0.950 . S
C161 C159 1.390 1_455 S
C161 C162 1.387 . S
C161 H164 0.950 . S
C162 C161 1.387 . S
C162 C165 1.387 . S
H163 C159 0.950 . S
H164 C161 0.950 . S
C165 C156 1.390 1_455 S
C165 H158 0.950 . S
C165 C162 1.387 . S
C166 C167 1.387 . S
C166 H170 0.950 . S
C166 C175 1.390 1_655 S
C167 C166 1.387 . S
C167 C169 1.387 . S
H168 C175 0.950 . S
C169 C167 1.387 . S
C169 C171 1.390 1_655 S
C169 H173 0.950 . S
H170 C166 0.950 . S
C171 C169 1.390 1_455 S
C171 C172 1.387 . S
C171 H174 0.950 . S
C172 C171 1.387 . S
C172 C175 1.387 . S
H173 C169 0.950 . S
H174 C171 0.950 . S
C175 C166 1.390 1_455 S
C175 H168 0.950 . S
C175 C172 1.387 . S
C176 C177 1.387 . S
C176 H180 0.950 . S
C176 C185 1.390 . S
C177 C176 1.387 . S
C177 C179 1.387 . S
H178 C185 0.950 . S
C179 C177 1.387 . S
C179 C181 1.390 . S
C179 H183 0.950 . S
H180 C176 0.950 . S
C181 C179 1.390 . S
C181 C182 1.387 . S
C181 H184 0.950 . S
C182 C181 1.387 . S
C182 C185 1.387 . S
H183 C179 0.950 . S
H184 C181 0.950 . S
C185 C176 1.390 . S
C185 H178 0.950 . S
C185 C182 1.387 . S
C186 C187 1.387 . S
C186 H190 0.950 . S
C186 C195 1.390 . S
C187 C186 1.387 . S
C187 C189 1.387 . S
H188 C195 0.950 . S
C189 C187 1.387 . S
C189 C191 1.390 . S
C189 H193 0.950 . S
H190 C186 0.950 . S
C191 C189 1.390 . S
C191 C192 1.387 . S
C191 H194 0.950 . S
C192 C191 1.387 . S
C192 C195 1.387 . S
H193 C189 0.950 . S
H194 C191 0.950 . S
C195 C186 1.390 . S
C195 H188 0.950 . S
C195 C192 1.387 . S
C196 C197 1.387 . S
C196 H200 0.950 . S
C196 C205 1.390 1_556 S
C197 C196 1.387 . S
C197 C199 1.387 . S
H198 C205 0.950 . S
C199 C197 1.387 . S
C199 C201 1.390 1_556 S
C199 H203 0.950 . S
H200 C196 0.950 . S
C201 C199 1.390 1_554 S
C201 C202 1.387 . S
C201 H204 0.950 . S
C202 C201 1.387 . S
C202 C205 1.387 . S
H203 C199 0.950 . S
H204 C201 0.950 . S
C205 C196 1.390 1_554 S
C205 H198 0.950 . S
C205 C202 1.387 . S
C206 C207 1.387 . S
C206 H210 0.950 . S
C206 C215 1.390 1_554 S
C207 C206 1.387 . S
C207 C209 1.387 . S
H208 C215 0.950 . S
C209 C207 1.387 . S
C209 C211 1.390 1_554 S
C209 H213 0.950 . S
H210 C206 0.950 . S
C211 C209 1.390 1_556 S
C211 C212 1.387 . S
C211 H214 0.950 . S
C212 C211 1.387 . S
C212 C215 1.387 . S
H213 C209 0.950 . S
H214 C211 0.950 . S
C215 C206 1.390 1_556 S
C215 H208 0.950 . S
C215 C212 1.387 . S
C216 C217 1.387 . S
C216 H220 0.950 . S
C216 C225 1.390 1_456 S
C217 C216 1.387 . S
C217 C219 1.387 . S
H218 C225 0.950 . S
C219 C217 1.387 . S
C219 C221 1.390 1_456 S
C219 H223 0.950 . S
H220 C216 0.950 . S
C221 C219 1.390 1_654 S
C221 C222 1.387 . S
C221 H224 0.950 . S
C222 C221 1.387 . S
C222 C225 1.387 . S
H223 C219 0.950 . S
H224 C221 0.950 . S
C225 C216 1.390 1_654 S
C225 H218 0.950 . S
C225 C222 1.387 . S
C226 C227 1.387 . S
C226 H230 0.950 . S
C226 C235 1.390 1_454 S
C227 C226 1.387 . S
C227 C229 1.387 . S
H228 C235 0.950 . S
C229 C227 1.387 . S
C229 C231 1.390 1_454 S
C229 H233 0.950 . S
H230 C226 0.950 . S
C231 C229 1.390 1_656 S
C231 C232 1.387 . S
C231 H234 0.950 . S
C232 C231 1.387 . S
C232 C235 1.387 . S
H233 C229 0.950 . S
H234 C231 0.950 . S
C235 C226 1.390 1_656 S
C235 H228 0.950 . S
C235 C232 1.387 . S
C236 C237 1.387 . S
C236 H240 0.950 . S
C236 C245 1.390 . S
C237 C236 1.387 . S
C237 C239 1.387 1_554 S
H238 C245 0.950 . S
C239 C237 1.387 1_556 S
C239 C241 1.390 . S
C239 H243 0.950 . S
H240 C236 0.950 . S
C241 C239 1.390 . S
C241 C242 1.387 1_556 S
C241 H244 0.950 . S
C242 C241 1.387 1_554 S
C242 C245 1.387 . S
H243 C239 0.950 . S
H244 C241 0.950 . S
C245 C236 1.390 . S
C245 H238 0.950 . S
C245 C242 1.387 . S
C246 C247 1.387 . S
C246 H250 0.950 . S
C246 C255 1.390 . S
C247 C246 1.387 . S
C247 C249 1.387 1_554 S
H248 C255 0.950 . S
C249 C247 1.387 1_556 S
C249 C251 1.390 . S
C249 H253 0.950 . S
H250 C246 0.950 . S
C251 C249 1.390 . S
C251 C252 1.387 1_556 S
C251 H254 0.950 . S
C252 C251 1.387 1_554 S
C252 C255 1.387 . S
H253 C249 0.950 . S
H254 C251 0.950 . S
C255 C246 1.390 . S
C255 H248 0.950 . S
C255 C252 1.387 . S
C256 C257 1.387 . S
C256 H260 0.950 . S
C256 C265 1.390 . S
C257 C256 1.387 . S
C257 C259 1.387 1_556 S
H258 C265 0.950 . S
C259 C257 1.387 1_554 S
C259 C261 1.390 . S
C259 H263 0.950 . S
H260 C256 0.950 . S
C261 C259 1.390 . S
C261 C262 1.387 1_554 S
C261 H264 0.950 . S
C262 C261 1.387 1_556 S
C262 C265 1.387 . S
H263 C259 0.950 . S
H264 C261 0.950 . S
C265 C256 1.390 . S
C265 H258 0.950 . S
C265 C262 1.387 . S
C266 C267 1.387 1_554 S
C266 H270 0.950 . S
C266 C275 1.390 . S
C267 C266 1.387 1_556 S
C267 C269 1.387 . S
H268 C275 0.950 . S
C269 C267 1.387 . S
C269 C271 1.390 . S
C269 H273 0.950 . S
H270 C266 0.950 . S
C271 C269 1.390 . S
C271 C272 1.387 . S
C271 H274 0.950 . S
C272 C271 1.387 . S
C272 C275 1.387 1_556 S
H273 C269 0.950 . S
H274 C271 0.950 . S
C275 C266 1.390 . S
C275 H268 0.950 . S
C275 C272 1.387 1_554 S
C137 C17 1.534 . S
C142 C51 1.534 1_655 S
C147 C119 1.534 . S
C152 C85 1.534 . S
C157 C22 1.927 . S
C162 C15 1.927 . S
C167 C56 1.927 . S
C172 C49 1.927 . S
C177 C90 1.927 . S
C182 C83 1.927 . S
C187 C117 1.927 . S
C192 C124 1.927 . S
C197 C6 1.341 . S
C202 C28 1.341 . S
C207 C40 1.341 . S
C212 C62 1.341 . S
C217 C74 1.341 . S
C222 C96 1.341 . S
C227 C108 1.341 . S
C232 C130 1.341 . S
C237 C103 1.834 . S
C242 C3 1.833 . S
C247 C71 1.834 . S
C252 C35 1.835 . S
C257 C69 1.834 . S
C262 C37 1.833 . S
C267 C105 1.832 . S
C272 C1 1.833 . S
