# Generated by pormake.
# Topology qtz-x, (6)-cn, num edge types: 1
# Building blocks:
#     Node 0, Type 0, BuildingBlock: KUMBOL_clean_sbu_0, # of connection points: 6
#     Node 1, Type 0, BuildingBlock: KUMBOL_clean_sbu_0, # of connection points: 6
#     Node 2, Type 0, BuildingBlock: KUMBOL_clean_sbu_0, # of connection points: 6
#     Edge 3, Type (0, 0), BuildingBlock: TEMPAE_clean_linker_10, # of connection points: 2
#     Edge 4, Type (0, 0), BuildingBlock: TEMPAE_clean_linker_10, # of connection points: 2
#     Edge 5, Type (0, 0), BuildingBlock: TEMPAE_clean_linker_10, # of connection points: 2
#     Edge 6, Type (0, 0), BuildingBlock: TEMPAE_clean_linker_10, # of connection points: 2
#     Edge 7, Type (0, 0), BuildingBlock: TEMPAE_clean_linker_10, # of connection points: 2
#     Edge 8, Type (0, 0), BuildingBlock: TEMPAE_clean_linker_10, # of connection points: 2
#     Edge 9, Type (0, 0), BuildingBlock: TEMPAE_clean_linker_10, # of connection points: 2
#     Edge 10, Type (0, 0), BuildingBlock: TEMPAE_clean_linker_10, # of connection points: 2
#     Edge 11, Type (0, 0), BuildingBlock: TEMPAE_clean_linker_10, # of connection points: 2
# Relax obj value: 0.166
# Max RMSD: 0.280
# Mean RMSD: 0.280
data_MOF--net-qtz-x--node1-KUMBOL_clean_sbu_0--edge1-TEMPAE_clean_linker_10
_symmetry_space_group_name_H-M    P1
_symmetry_Int_Tables_number       1
_symmetry_cell_setting            triclinic
loop_
_symmetry_equiv_pos_as_xyz
'x, y, z'
_cell_length_a     15.406438
_cell_length_b     15.438832
_cell_length_c     48.966887
_cell_angle_alpha  89.488807
_cell_angle_beta   90.661152
_cell_angle_gamma 119.62312
loop_
_atom_site_label
_atom_site_type_symbol
_atom_site_fract_x
_atom_site_fract_y
_atom_site_fract_z
_atom_type_partial_charge
Gd0 Gd 0.93463 0.30858 0.18831 0.0
Gd1 Gd 0.17917 0.43955 0.22387 0.0
C2 C 0.47851 0.57211 0.18024 0.0
C3 C 0.55348 0.48194 0.20155 0.0
C4 C 0.38469 0.44188 0.21331 0.0
C5 C 0.39091 0.51484 0.19551 0.0
C6 C 0.46693 0.42644 0.21706 0.0
C7 C 0.55864 0.55342 0.18283 0.0
C8 C 0.48526 0.6503 0.16405 0.0
C9 C 0.40842 0.67334 0.16456 0.0
N10 N 0.31516 0.53593 0.19502 0.0
C11 C 0.32475 0.6168 0.18082 0.0
H12 H 0.26683 0.63669 0.18135 0.0
C13 C 0.29667 0.32793 0.24882 0.0
N14 N 0.30165 0.39229 0.22875 0.0
C15 C 0.37579 0.30925 0.25308 0.0
C16 C 0.46156 0.35919 0.23724 0.0
H17 H 0.23143 0.29129 0.2616 0.0
H18 H 0.62661 0.59682 0.17136 0.0
H19 H 0.84265 0.13397 0.23779 0.0
H20 H 0.55103 0.69569 0.15194 0.0
H21 H 0.41412 0.73542 0.1527 0.0
H22 H 0.61788 0.4721 0.20443 0.0
H23 H 0.88894 0.44618 0.14325 0.0
H24 H 0.54291 0.06241 0.25405 0.0
H25 H 0.68768 0.03854 0.26353 0.0
H26 H 0.48098 0.25501 0.18755 0.0
H27 H 0.37143 0.25798 0.26893 0.0
H28 H 0.52413 0.34723 0.24125 0.0
H29 H 0.46557 0.14145 0.22506 0.0
H30 H 0.7493 0.47042 0.12869 0.0
N31 N 0.7914 0.2196 0.21559 0.0
C32 C 0.61206 0.1068 0.24315 0.0
C33 C 0.69348 0.09301 0.24852 0.0
C34 C 0.61965 0.17491 0.22301 0.0
C35 C 0.71179 0.23164 0.2096 0.0
C36 C 0.78189 0.14823 0.23395 0.0
N37 N 0.80953 0.34748 0.17595 0.0
C38 C 0.72084 0.29687 0.18893 0.0
C39 C 0.74027 0.42159 0.14573 0.0
C40 C 0.64865 0.37006 0.15891 0.0
C41 C 0.81971 0.40807 0.15424 0.0
C42 C 0.63773 0.3062 0.18066 0.0
H43 H 0.58661 0.3792 0.15194 0.0
O44 O 0.92684 0.26897 0.14561 0.0
O45 O 0.0999 0.38393 0.18453 0.0
O46 O 0.12352 0.54552 0.21086 0.0
O47 O 0.95194 0.45731 0.19983 0.0
O48 O 0.02334 0.41675 0.15514 0.0
O49 O 0.85649 0.1529 0.176 0.0
O50 O 0.21677 0.46793 0.26701 0.0
O51 O 0.01477 0.36887 0.22764 0.0
O52 O 0.98337 0.20492 0.20738 0.0
O53 O 0.15727 0.29231 0.20875 0.0
O54 O 0.08822 0.33603 0.25788 0.0
O55 O 0.25516 0.59124 0.23909 0.0
C56 C 0.1102 0.43297 0.16291 0.0
C57 C 0.54586 0.24966 0.19383 0.0
C58 C 0.53708 0.18492 0.21516 0.0
C59 C 0.86981 0.17419 0.15003 0.0
C60 C 0.78352 0.12208 0.13131 0.0
C61 C 0.68866 0.05098 0.14076 0.0
C62 C 0.79707 0.14396 0.10324 0.0
C63 C 0.71681 0.09778 0.08472 0.0
C64 C 0.60882 0.00349 0.12239 0.0
C65 C 0.62242 0.02705 0.09456 0.0
C66 C 0.03631 0.54046 0.20557 0.0
C67 C 0.00268 0.32404 0.25012 0.0
C68 C 0.2638 0.56441 0.26388 0.0
C69 C 0.36336 0.6186 0.27678 0.0
C70 C 0.44979 0.64217 0.26194 0.0
C71 C 0.37218 0.64529 0.30445 0.0
C72 C 0.46649 0.69321 0.31723 0.0
C73 C 0.54335 0.68903 0.27468 0.0
C74 C 0.55179 0.71406 0.30225 0.0
C75 C 0.07083 0.20809 0.20797 0.0
H76 H 0.67597 0.03226 0.16226 0.0
H77 H 0.86988 0.19955 0.09589 0.0
H78 H 0.5359 0.94883 0.12978 0.0
H79 H 0.55923 -0.00978 0.08074 0.0
H80 H 0.44532 0.62494 0.24055 0.0
H81 H 0.30609 0.62864 0.31603 0.0
H82 H 0.60951 0.70649 0.2631 0.0
H83 H 0.62504 0.75137 0.31182 0.0
Gd84 Gd 0.75403 0.22357 0.52311 0.0
Gd85 Gd 0.65587 0.9679 0.55006 0.0
C86 C 0.56814 0.69482 0.49566 0.0
C87 C 0.39027 0.59714 0.50372 0.0
C88 C 0.48848 0.76035 0.52487 0.0
C89 C 0.57479 0.77063 0.51312 0.0
C90 C 0.39615 0.67208 0.52084 0.0
C91 C 0.47586 0.60887 0.49099 0.0
C92 C 0.65436 0.70655 0.48338 0.0
C93 C 0.74504 0.79107 0.48884 0.0
N94 N 0.66443 0.85351 0.51865 0.0
C95 C 0.74926 0.86318 0.50665 0.0
H96 H 0.82231 0.92563 0.50974 0.0
C97 C 0.4126 0.82102 0.5552 0.0
N98 N 0.49474 0.834 0.54114 0.0
C99 C 0.32068 0.73443 0.55217 0.0
C100 C 0.31251 0.65954 0.53493 0.0
H101 H 0.41839 0.87613 0.56967 0.0
H102 H 0.47017 0.55018 0.47782 0.0
H103 H 0.69907 0.29358 0.58284 0.0
H104 H 0.65152 0.6505 0.4697 0.0
H105 H 0.81248 0.80081 0.47938 0.0
H106 H 0.31985 0.52939 0.50034 0.0
H107 H 0.92438 0.28203 0.47278 0.0
H108 H 0.92548 0.59101 0.60016 0.0
H109 H 0.76818 0.4398 0.61243 0.0
H110 H 0.13786 0.68051 0.52239 0.0
H111 H 0.25714 0.72444 0.56382 0.0
H112 H 0.24228 0.59073 0.53331 0.0
H113 H 0.06025 0.6815 0.56583 0.0
H114 H 0.07642 0.42805 0.45688 0.0
N115 N 0.8211 0.35513 0.55504 0.0
C116 C 0.89706 0.52539 0.58741 0.0
C117 C 0.80819 0.44041 0.59434 0.0
C118 C 0.94634 0.52585 0.56358 0.0
C119 C 0.90721 0.43784 0.54789 0.0
C120 C 0.76955 0.35689 0.57741 0.0
N121 N 0.91329 0.35087 0.50927 0.0
C122 C 0.95374 0.43619 0.52408 0.0
C123 C 0.04274 0.43143 0.47583 0.0
C124 C 0.08376 0.51989 0.49056 0.0
C125 C 0.95622 0.34797 0.4852 0.0
C126 C 0.03888 0.52341 0.51486 0.0
H127 H 0.14964 0.58512 0.48294 0.0
O128 O 0.67154 0.22049 0.48631 0.0
O129 O 0.6679 0.06032 0.51453 0.0
O130 O 0.81874 0.03172 0.53885 0.0
O131 O 0.89004 0.20292 0.52748 0.0
O132 O 0.77074 0.14943 0.48565 0.0
O133 O 0.70328 0.3312 0.51672 0.0
O134 O 0.59158 0.94399 0.59077 0.0
O135 O 0.71765 0.12945 0.56039 0.0
O136 O 0.61866 0.17083 0.54953 0.0
O137 O 0.53397 0.00591 0.53866 0.0
O138 O 0.78044 0.05281 0.58004 0.0
O139 O 0.662 0.85938 0.57709 0.0
C140 C 0.70549 0.05936 0.49193 0.0
C141 C 0.07517 0.61202 0.52977 0.0
C142 C 0.03056 0.61273 0.55439 0.0
C143 C 0.67148 0.30214 0.49202 0.0
C144 C 0.70663 0.38007 0.47052 0.0
C145 C 0.73606 0.47916 0.47735 0.0
C146 C 0.7126 0.35663 0.4431 0.0
C147 C 0.74975 0.43139 0.42288 0.0
C148 C 0.77247 0.55341 0.45733 0.0
C149 C 0.77919 0.52995 0.43028 0.0
C150 C 0.89548 0.12042 0.53213 0.0
C151 C 0.78189 0.13661 0.57791 0.0
C152 C 0.61706 0.87695 0.59702 0.0
C153 C 0.54925 0.79168 0.61419 0.0
C154 C 0.4701 0.70479 0.60301 0.0
C155 C 0.56926 0.79508 0.64236 0.0
C156 C 0.50906 0.71357 0.65932 0.0
C157 C 0.40695 0.62575 0.61995 0.0
C158 C 0.42582 0.63017 0.64802 0.0
C159 C 0.53409 0.08945 0.54429 0.0
H160 H 0.73197 0.49956 0.49821 0.0
H161 H 0.69141 0.28083 0.43759 0.0
H162 H 0.79669 0.62976 0.46284 0.0
H163 H 0.80793 0.58902 0.41514 0.0
H164 H 0.45836 0.69653 0.58126 0.0
H165 H 0.63364 0.85977 0.65094 0.0
H166 H 0.34526 0.55946 0.61118 0.0
H167 H 0.37878 0.56616 0.66062 0.0
Gd168 Gd 0.82135 0.42573 0.85189 0.0
Gd169 Gd 0.68912 0.53482 0.88841 0.0
C170 C 0.55405 0.71663 0.85222 0.0
C171 C 0.64488 0.87273 0.87679 0.0
C172 C 0.68557 0.74062 0.88402 0.0
C173 C 0.61265 0.68131 0.8654 0.0
C174 C 0.70118 0.83633 0.89036 0.0
C175 C 0.57221 0.81343 0.85754 0.0
C176 C 0.47529 0.65176 0.83528 0.0
C177 C 0.45381 0.55325 0.83275 0.0
N178 N 0.5928 0.58598 0.86211 0.0
C179 C 0.51192 0.5209 0.84692 0.0
H180 H 0.49287 0.44414 0.84507 0.0
C181 C 0.79821 0.75224 0.91883 0.0
N182 N 0.73505 0.70134 0.89772 0.0
C183 C 0.81816 0.84833 0.9254 0.0
C184 C 0.76953 0.89071 0.91107 0.0
H185 H 0.83358 0.71864 0.93061 0.0
H186 H 0.52791 0.84174 0.84764 0.0
H187 H 0.00588 0.51525 0.89896 0.0
H188 H 0.42846 0.67594 0.82488 0.0
H189 H 0.39175 0.50177 0.82016 0.0
H190 H 0.65508 0.94559 0.88159 0.0
H191 H 0.67507 0.23763 0.81061 0.0
H192 H 0.07072 0.2847 0.92093 0.0
H193 H 0.10233 0.4571 0.92615 0.0
H194 H 0.85966 0.01786 0.86088 0.0
H195 H 0.86954 0.88884 0.94185 0.0
H196 H 0.78312 0.96416 0.91667 0.0
H197 H 0.98088 0.12149 0.89614 0.0
H198 H 0.64222 0.06804 0.79994 0.0
N199 N 0.91467 0.37528 0.87967 0.0
C200 C 0.02673 0.30932 0.90922 0.0
C201 C 0.0449 0.40668 0.91218 0.0
C202 C 0.95426 0.24595 0.89051 0.0
C203 C 0.89845 0.28144 0.87594 0.0
C204 C -0.0105 0.43924 0.89673 0.0
N205 N 0.77853 0.26 0.84263 0.0
C206 C 0.82871 0.22221 0.85664 0.0
C207 C 0.69467 0.11046 0.81599 0.0
C208 C 0.74535 0.07029 0.83036 0.0
C209 C 0.71329 0.20646 0.82216 0.0
C210 C 0.81374 0.12638 0.85088 0.0
H211 H 0.73208 -0.00343 0.82523 0.0
O212 O 0.85902 0.43525 0.80891 0.0
O213 O 0.7453 0.51606 0.84859 0.0
O214 O 0.5826 0.38098 0.87095 0.0
O215 O 0.67291 0.29716 0.86518 0.0
O216 O 0.71771 0.41449 0.81773 0.0
O217 O 0.97529 0.51425 0.83927 0.0
O218 O 0.65972 0.52264 0.93198 0.0
O219 O 0.76122 0.44122 0.89107 0.0
O220 O 0.92711 0.58024 0.86847 0.0
O221 O 0.83733 0.66421 0.87528 0.0
O222 O 0.79539 0.54293 0.92175 0.0
O223 O 0.53657 0.45634 0.90317 0.0
C224 C 0.69954 0.48259 0.82621 0.0
C225 C 0.86911 0.09069 0.86527 0.0
C226 C 0.93839 0.14986 0.88528 0.0
C227 C 0.95464 0.48935 0.81364 0.0
C228 C 0.0206 0.46227 0.79884 0.0
C229 C 0.09179 0.44549 0.81247 0.0
C230 C 0.01326 0.45541 0.77027 0.0
C231 C 0.07508 0.43073 0.75521 0.0
C232 C 0.15448 0.4223 0.7976 0.0
C233 C 0.14625 0.41472 0.76915 0.0
C234 C 0.58777 0.29819 0.86782 0.0
C235 C 0.8077 0.47082 0.91339 0.0
C236 C 0.56341 0.47908 0.92865 0.0
C237 C 0.513 0.52249 0.94415 0.0
C238 C 0.4869 0.58879 0.93166 0.0
C239 C 0.49479 0.50098 0.97213 0.0
C240 C 0.45244 0.54681 0.98751 0.0
C241 C 0.4455 0.63487 0.947 0.0
C242 C 0.4286 0.61435 0.97484 0.0
C243 C 0.92177 0.66273 0.87151 0.0
H244 H 0.09908 0.45022 0.83451 0.0
H245 H 0.95721 0.46673 0.7598 0.0
H246 H 0.20904 0.40927 0.80818 0.0
H247 H 0.19501 0.3958 0.75806 0.0
H248 H 0.49836 0.60503 0.91013 0.0
H249 H 0.51373 0.44914 0.98192 0.0
H250 H 0.42605 0.68624 0.93724 0.0
H251 H 0.39529 0.64975 0.98644 0.0
C252 C -0.00628 0.66403 0.18552 0.0
C253 C 0.0357 0.63519 0.20672 0.0
C254 C 0.00234 0.75897 0.18543 0.0
C255 C 0.05158 0.8248 0.20748 0.0
C256 C 0.09152 0.7944 0.2293 0.0
C257 C 0.08444 0.70045 0.22842 0.0
C258 C 0.96054 0.78957 0.16155 0.0
C259 C 0.14118 0.86077 0.25364 0.0
C260 C 0.1495 0.10306 0.19891 0.0
C261 C 0.06967 0.11201 0.20904 0.0
C262 C 0.14452 0.00972 0.19804 0.0
C263 C 0.05872 0.92432 0.20817 0.0
C264 C 0.9795 0.93387 0.21924 0.0
C265 C 0.9855 0.02734 0.21925 0.0
C266 C 0.22997 0.00217 0.18575 0.0
C267 C 0.88826 0.84538 0.2311 0.0
H268 H 0.95763 0.61398 0.16855 0.0
H269 H 0.11658 0.67753 0.24485 0.0
H270 H 0.90207 0.80595 0.16863 0.0
H271 H 0.02049 0.85889 0.1522 0.0
H272 H 0.92756 0.73096 0.14562 0.0
H273 H 0.16568 0.82457 0.26927 0.0
H274 H 0.20724 0.93112 0.247 0.0
H275 H 0.08881 0.88098 0.26329 0.0
H276 H 0.21446 0.16839 0.19091 0.0
H277 H 0.92405 0.03407 0.22742 0.0
H278 H 0.20223 0.94938 0.16836 0.0
H279 H 0.26204 0.97227 0.20105 0.0
H280 H 0.29049 0.07536 0.17839 0.0
H281 H 0.84815 0.78909 0.21498 0.0
H282 H 0.83553 0.86653 0.24012 0.0
H283 H 0.91093 0.80921 0.24716 0.0
C284 C 0.44007 0.18013 0.55256 0.0
C285 C 0.44116 0.09573 0.54254 0.0
C286 C 0.35462 0.19026 0.55013 0.0
C287 C 0.26822 0.11478 0.53699 0.0
C288 C 0.26906 0.02971 0.5266 0.0
C289 C 0.35531 0.0209 0.52965 0.0
C290 C 0.35624 0.2809 0.56211 0.0
C291 C 0.17869 0.94779 0.51231 0.0
C292 C 0.01429 0.07961 0.55542 0.0
C293 C -0.00556 0.12727 0.53372 0.0
C294 C 0.10388 0.07719 0.55698 0.0
C295 C 0.17484 0.12147 0.53591 0.0
C296 C 0.156 0.17127 0.51408 0.0
C297 C 0.0662 0.17474 0.51342 0.0
C298 C 0.12204 0.02633 0.58111 0.0
C299 C 0.22932 0.21833 0.49107 0.0
H300 H 0.50611 0.23845 0.56254 0.0
H301 H 0.35592 0.95609 0.52155 0.0
H302 H 0.33802 0.32084 0.54612 0.0
H303 H 0.29845 0.25753 0.57813 0.0
H304 H 0.42992 0.33367 0.57128 0.0
H305 H 0.19341 0.88972 0.50389 0.0
H306 H 0.11571 0.91162 0.52681 0.0
H307 H 0.15446 0.97953 0.4954 0.0
H308 H 0.95923 0.04389 0.57134 0.0
H309 H 0.0505 0.21108 0.49658 0.0
H310 H 0.19397 0.07811 0.59123 0.0
H311 H 0.12756 0.96115 0.57406 0.0
H312 H 0.06164 0.00033 0.59646 0.0
H313 H 0.30326 0.27467 0.49923 0.0
H314 H 0.20411 0.25487 0.47575 0.0
H315 H 0.23976 0.16059 0.48067 0.0
C316 C 0.08164 0.77553 0.84842 0.0
C317 C 0.01721 0.75744 0.87036 0.0
C318 C 0.17566 0.86203 0.84736 0.0
C319 C 0.20725 0.93082 0.8692 0.0
C320 C 0.14258 0.91215 0.8916 0.0
C321 C 0.04776 0.82608 0.89175 0.0
C322 C 0.24063 0.88027 0.82271 0.0
C323 C 0.17415 0.98232 0.91558 0.0
C324 C 0.48638 0.11425 0.87669 0.0
C325 C 0.49229 0.20266 0.86694 0.0
C326 C 0.39407 0.02512 0.87774 0.0
C327 C 0.30625 0.02403 0.86813 0.0
C328 C 0.31279 0.11254 0.85743 0.0
C329 C 0.40531 0.20079 0.85729 0.0
C330 C 0.39023 0.93286 0.88973 0.0
C331 C 0.22192 0.11421 0.84613 0.0
H332 H 0.05787 0.72217 0.83188 0.0
H333 H -0.00083 0.81082 0.90904 0.0
H334 H 0.25812 0.9522 0.81296 0.0
H335 H 0.3126 0.8859 0.82902 0.0
H336 H 0.20438 0.82014 0.80728 0.0
H337 H 0.1169 0.95507 0.93187 0.0
H338 H 0.24514 -0.00791 0.92439 0.0
H339 H 0.18816 0.05678 0.90873 0.0
H340 H 0.55336 0.11547 0.8843 0.0
H341 H 0.40955 0.26846 0.84938 0.0
H342 H 0.36043 0.87224 0.87441 0.0
H343 H 0.33875 0.90607 0.90738 0.0
H344 H 0.46487 0.94644 0.89666 0.0
H345 H 0.1856 0.05655 0.8301 0.0
H346 H 0.24064 0.18781 0.83722 0.0
H347 H 0.16648 0.09627 0.86254 0.0
C348 C 0.33637 0.43692 1.02306 0.0
C349 C 0.42711 0.52091 1.01644 0.0
C350 C 0.30073 0.42091 0.04989 0.0
C351 C 0.35805 0.4904 0.0705 0.0
C352 C 0.45367 0.57109 0.06421 0.0
C353 C 0.48669 0.58619 1.03705 0.0
C354 C 0.19795 0.33445 0.05562 0.0
C355 C 0.51797 0.64472 0.08583 0.0
C356 C 0.19506 0.52453 0.12123 0.0
C357 C 0.1884 0.45989 0.14231 0.0
C358 C 0.25456 0.53908 0.09843 0.0
C359 C 0.30986 0.4884 0.0968 0.0
C360 C 0.30893 0.42827 0.11897 0.0
C361 C 0.24626 0.41291 0.14131 0.0
C362 C 0.2529 0.60374 0.07529 0.0
C363 C 0.36948 0.3758 0.11856 0.0
H364 H 0.29056 0.38709 1.00691 0.0
H365 H 0.55705 0.6511 1.03171 0.0
H366 H 0.19979 0.2929 0.07401 0.0
H367 H 0.14596 0.363 0.0598 0.0
H368 H 0.16758 0.28192 0.03817 0.0
H369 H 0.59432 0.69681 0.07834 0.0
H370 H 0.48311 0.68899 0.09245 0.0
H371 H 0.52376 0.60468 0.10408 0.0
H372 H 0.15002 0.56062 0.12207 0.0
H373 H 0.2401 0.36175 0.15745 0.0
H374 H 0.21818 0.55724 0.05691 0.0
H375 H 0.33003 0.66103 0.06984 0.0
H376 H 0.21027 0.642 0.08046 0.0
H377 H 0.32914 0.30665 0.10635 0.0
H378 H 0.38135 0.35497 0.1395 0.0
H379 H 0.44326 0.42314 0.10899 0.0
C380 C 0.69048 0.32313 0.38102 0.0
C381 C 0.76443 0.40789 0.39453 0.0
C382 C 0.70722 0.29768 0.35485 0.0
C383 C 0.80069 0.35749 0.34223 0.0
C384 C 0.87438 0.44458 0.3555 0.0
C385 C 0.85517 0.46878 0.38139 0.0
C386 C 0.62617 0.20544 0.34113 0.0
C387 C 0.97551 0.51012 0.34289 0.0
C388 C 0.92491 0.26098 0.29515 0.0
C389 C 0.9282 0.31085 0.27083 0.0
C390 C 0.87522 0.26794 0.31808 0.0
C391 C 0.82692 0.3256 0.31649 0.0
C392 C 0.82061 0.36684 0.29106 0.0
C393 C 0.87263 0.36012 0.26853 0.0
C394 C 0.88331 0.22199 0.34468 0.0
C395 C 0.76642 0.42539 0.28815 0.0
H396 H 0.61977 0.27639 0.391 0.0
H397 H 0.91299 0.53363 0.39186 0.0
H398 H 0.61817 0.22065 0.31932 0.0
H399 H 0.64636 0.14574 0.34177 0.0
H400 H 0.55294 0.17719 0.35131 0.0
H401 H 0.02316 0.57696 0.35545 0.0
H402 H 0.01506 0.46703 0.34044 0.0
H403 H 0.96661 0.53519 0.32227 0.0
H404 H 0.96704 0.22192 0.29682 0.0
H405 H 0.87449 0.39843 0.24973 0.0
H406 H 0.80968 0.18142 0.35478 0.0
H407 H 0.93483 0.28186 0.35874 0.0
H408 H 0.91219 0.16955 0.34171 0.0
H409 H 0.74638 0.42963 0.2665 0.0
H410 H 0.81549 0.50244 0.29558 0.0
H411 H 0.69742 0.39179 0.30054 0.0
C412 C 0.69695 0.6334 0.80718 0.0
C413 C 0.6611 0.53042 0.80716 0.0
C414 C 0.66699 0.67793 0.78667 0.0
C415 C 0.6053 0.61883 0.76486 0.0
C416 C 0.56792 0.51458 0.76518 0.0
C417 C 0.59529 0.47179 0.78649 0.0
C418 C 0.70332 0.7882 0.78795 0.0
C419 C 0.50341 0.44853 0.7422 0.0
C420 C 0.47329 0.6846 0.70947 0.0
C421 C 0.54016 0.70891 0.68779 0.0
C422 C 0.49732 0.6641 0.73566 0.0
C423 C 0.58902 0.66517 0.73992 0.0
C424 C 0.65865 0.69468 0.71833 0.0
C425 C 0.63379 0.71744 0.69265 0.0
C426 C 0.42336 0.63802 0.75849 0.0
C427 C 0.75572 0.6935 0.72156 0.0
H428 H 0.7492 0.67907 0.82293 0.0
H429 H 0.56805 0.39217 0.78642 0.0
H430 H 0.76006 0.82768 0.77196 0.0
H431 H 0.64058 0.80271 0.78395 0.0
H432 H 0.73718 0.8201 0.80815 0.0
H433 H 0.48038 0.36885 0.74568 0.0
H434 H 0.43517 0.45498 0.7398 0.0
H435 H 0.5448 0.47278 0.72268 0.0
H436 H 0.4012 0.679 0.7057 0.0
H437 H 0.68502 0.73525 0.67579 0.0
H438 H 0.45814 0.69392 0.77498 0.0
H439 H 0.40341 0.56429 0.76742 0.0
H440 H 0.35374 0.63662 0.75157 0.0
H441 H 0.79736 0.73649 0.73982 0.0
H442 H 0.80449 0.72497 0.70345 0.0
H443 H 0.73966 0.61562 0.72461 0.0
C444 C 0.77007 0.30186 0.93039 0.0
C445 C 0.81902 0.40559 0.9337 0.0
C446 C 0.7625 0.23897 0.95224 0.0
C447 C 0.80183 0.28099 0.97816 0.0
C448 C 0.85807 0.3859 0.98094 0.0
C449 C 0.86654 0.44682 0.95859 0.0
C450 C 0.70594 0.12769 0.94798 0.0
C451 C 0.90189 0.43411 1.00812 0.0
C452 C 0.66472 0.15557 0.04309 0.0
C453 C 0.73091 0.12969 0.05564 0.0
C454 C 0.68438 0.19985 1.01711 0.0
C455 C 0.77192 0.2177 1.00318 0.0
C456 C 0.83555 0.18552 1.01495 0.0
C457 C 0.8148 0.14274 0.0412 0.0
C458 C 0.61463 0.23333 1.00535 0.0
C459 C 0.92811 0.20073 1.00049 0.0
H460 H 0.73314 0.26922 0.91126 0.0
H461 H 0.90509 0.52706 0.96112 0.0
H462 H 0.73987 0.09051 0.95997 0.0
H463 H 0.62794 0.09746 0.95496 0.0
H464 H 0.70379 0.10841 0.92606 0.0
H465 H 0.95112 0.51603 1.00627 0.0
H466 H 0.84058 0.41944 1.02239 0.0
H467 H 0.94565 0.40183 1.01737 0.0
H468 H 0.60026 0.14633 0.05424 0.0
H469 H 0.86553 0.12159 0.05071 0.0
H470 H 0.59074 0.20353 0.98441 0.0
H471 H 0.6542 0.31588 1.00385 0.0
H472 H 0.54699 0.20883 1.01801 0.0
H473 H 0.91322 0.18458 0.97836 0.0
H474 H 0.95664 0.1529 1.00928 0.0
H475 H -0.0123 0.2796 1.00255 0.0
C476 C 0.50121 0.6762 0.36619 0.0
C477 C 0.47799 0.72589 0.34586 0.0
C478 C 0.5264 0.71492 0.39275 0.0
C479 C 0.53049 0.80646 0.39877 0.0
C480 C 0.50322 0.85472 0.3784 0.0
C481 C 0.47655 0.81327 0.35219 0.0
C482 C 0.55314 0.66046 0.41398 0.0
C483 C 0.5088 0.95361 0.38371 0.0
C484 C 0.55831 0.91486 0.46986 0.0
C485 C 0.6612 0.9814 0.47092 0.0
C486 C 0.51498 0.85157 0.4473 0.0
C487 C 0.57569 0.85881 0.42489 0.0
C488 C 0.68011 0.92429 0.42632 0.0
C489 C 0.72149 0.98417 0.44941 0.0
C490 C 0.40395 0.78041 0.44694 0.0
C491 C 0.7476 0.93587 0.40277 0.0
H492 H 0.50241 0.60862 0.36105 0.0
H493 H 0.4595 0.8518 0.33621 0.0
H494 H 0.63359 0.70503 0.41932 0.0
H495 H 0.51034 0.65083 0.43287 0.0
H496 H 0.53766 0.58603 0.40683 0.0
H497 H 0.47681 0.97678 0.36657 0.0
H498 H 0.46848 0.94995 0.40268 0.0
H499 H 0.58798 0.01199 0.38665 0.0
H500 H 0.51131 0.91471 0.48617 0.0
H501 H 0.80102 0.03661 0.45017 0.0
H502 H 0.38832 0.70475 0.44108 0.0
H503 H 0.36764 0.80514 0.43144 0.0
H504 H 0.36948 0.77582 0.46709 0.0
H505 H 0.73712 0.8623 0.39666 0.0
H506 H 0.82774 0.98567 0.40782 0.0
H507 H 0.728 0.96748 0.38484 0.0
C508 C 0.04888 0.32625 0.71404 0.0
C509 C 0.05859 0.41364 0.72536 0.0
C510 C 0.01613 0.29967 0.68701 0.0
C511 C -0.00677 0.36245 0.67084 0.0
C512 C 0.01048 0.45461 0.68144 0.0
C513 C 0.04237 0.47889 0.70869 0.0
C514 C -0.00101 0.20074 0.67645 0.0
C515 C -0.01022 0.52469 0.66451 0.0
C516 C 0.93678 0.27652 0.5973 0.0
C517 C 0.83318 0.2144 0.59835 0.0
C518 C -0.01003 0.33335 0.6201 0.0
C519 C 0.93813 0.32412 0.64463 0.0
C520 C 0.83259 0.26542 0.64512 0.0
C521 C 0.78147 0.21079 0.62194 0.0
C522 C 0.10202 0.39689 0.61844 0.0
C523 C 0.77421 0.25347 0.67079 0.0
H524 H 0.06085 0.27538 0.72684 0.0
H525 H 0.05155 0.54747 0.71726 0.0
H526 H 0.91775 0.14969 0.67344 0.0
H527 H 0.03533 0.21062 0.65636 0.0
H528 H 0.02822 0.16466 0.69071 0.0
H529 H 0.0207 0.59911 0.67417 0.0
H530 H 0.02195 0.53407 0.64381 0.0
H531 H 0.90798 0.49282 0.66192 0.0
H532 H 0.97667 0.27734 0.57911 0.0
H533 H 0.70147 0.16066 0.62275 0.0
H534 H 0.1372 0.35472 0.62697 0.0
H535 H 0.12953 0.46622 0.6305 0.0
H536 H 0.12689 0.4171 0.59697 0.0
H537 H 0.79174 0.21119 0.68624 0.0
H538 H 0.69231 0.2131 0.66699 0.0
H539 H 0.79568 0.32728 0.67966 0.0
loop_
_geom_bond_atom_site_label_1
_geom_bond_atom_site_label_2
_geom_bond_distance
_geom_bond_site_symmetry_2
_ccdc_geom_bond_type
Gd0 N31 2.661 . S
Gd0 N37 2.601 . S
Gd0 O44 2.545 . S
Gd0 O45 2.606 1_655 S
Gd0 O47 2.429 . S
Gd0 O48 2.545 . S
Gd0 O49 2.412 . S
Gd0 O51 2.362 . S
Gd0 O52 2.324 . S
Gd0 C59 2.828 . S
Gd1 N10 2.661 . S
Gd1 N14 2.601 . S
Gd1 O45 2.362 . S
Gd1 O46 2.324 . S
Gd1 O50 2.545 . S
Gd1 O51 2.606 1_455 S
Gd1 O53 2.429 . S
Gd1 O54 2.545 . S
Gd1 O55 2.412 . S
Gd1 C68 2.828 . S
C2 C5 1.417 . S
C2 C7 1.431 . S
C2 C8 1.412 . S
C3 C6 1.437 . S
C3 C7 1.317 . S
C3 H22 0.929 . S
C4 C5 1.426 . S
C4 C6 1.413 . S
C4 N14 1.359 . S
C5 C2 1.417 . S
C5 C4 1.426 . S
C5 N10 1.350 . S
C6 C3 1.437 . S
C6 C4 1.413 . S
C6 C16 1.391 . S
C7 C2 1.431 . S
C7 C3 1.317 . S
C7 H18 0.930 . S
C8 C2 1.412 . S
C8 C9 1.355 . S
C8 H20 0.930 . S
C9 C8 1.355 . S
C9 C11 1.402 . S
C9 H21 0.930 . S
N10 Gd1 2.661 . S
N10 C5 1.350 . S
N10 C11 1.307 . S
C11 C9 1.402 . S
C11 N10 1.307 . S
C11 H12 0.930 . S
H12 C11 0.930 . S
C13 N14 1.334 . S
C13 C15 1.394 . S
C13 H17 0.930 . S
N14 Gd1 2.601 . S
N14 C4 1.359 . S
N14 C13 1.334 . S
C15 C13 1.394 . S
C15 C16 1.359 . S
C15 H27 0.930 . S
C16 C6 1.391 . S
C16 C15 1.359 . S
C16 H28 0.929 . S
H17 C13 0.930 . S
H18 C7 0.930 . S
H19 C36 0.930 . S
H20 C8 0.930 . S
H21 C9 0.930 . S
H22 C3 0.929 . S
H23 C41 0.930 . S
H24 C32 0.930 . S
H25 C33 0.930 . S
H26 C57 0.929 . S
H27 C15 0.930 . S
H28 C16 0.929 . S
H29 C58 0.930 . S
H30 C39 0.930 . S
N31 Gd0 2.661 . S
N31 C35 1.350 . S
N31 C36 1.307 . S
C32 H24 0.930 . S
C32 C33 1.355 . S
C32 C34 1.412 . S
C33 H25 0.930 . S
C33 C32 1.355 . S
C33 C36 1.402 . S
C34 C32 1.412 . S
C34 C35 1.417 . S
C34 C58 1.431 . S
C35 N31 1.350 . S
C35 C34 1.417 . S
C35 C38 1.426 . S
C36 H19 0.930 . S
C36 N31 1.307 . S
C36 C33 1.402 . S
N37 Gd0 2.601 . S
N37 C38 1.359 . S
N37 C41 1.334 . S
C38 C35 1.426 . S
C38 N37 1.359 . S
C38 C42 1.413 . S
C39 H30 0.930 . S
C39 C40 1.359 . S
C39 C41 1.394 . S
C40 C39 1.359 . S
C40 C42 1.391 . S
C40 H43 0.929 . S
C41 H23 0.930 . S
C41 N37 1.334 . S
C41 C39 1.394 . S
C42 C38 1.413 . S
C42 C40 1.391 . S
C42 C57 1.437 . S
H43 C40 0.929 . S
O44 Gd0 2.545 . S
O44 C59 1.258 . S
O45 Gd0 2.606 1_455 S
O45 Gd1 2.362 . S
O45 C56 1.284 . S
O46 Gd1 2.324 . S
O46 C66 1.254 . S
O47 Gd0 2.429 . S
O47 C66 1.268 1_655 S
O48 Gd0 2.545 . S
O48 C56 1.250 1_655 S
O49 Gd0 2.412 . S
O49 C59 1.252 . S
O50 Gd1 2.545 . S
O50 C68 1.258 . S
O51 Gd0 2.362 . S
O51 Gd1 2.606 1_655 S
O51 C67 1.284 . S
O52 Gd0 2.324 . S
O52 C75 1.254 . S
O53 Gd1 2.429 . S
O53 C75 1.268 1_455 S
O54 Gd1 2.545 . S
O54 C67 1.250 1_455 S
O55 Gd1 2.412 . S
O55 C68 1.252 . S
C56 O45 1.284 . S
C56 O48 1.250 1_455 S
C57 H26 0.929 . S
C57 C42 1.437 . S
C57 C58 1.317 . S
C58 H29 0.930 . S
C58 C34 1.431 . S
C58 C57 1.317 . S
C59 Gd0 2.828 . S
C59 O44 1.258 . S
C59 O49 1.252 . S
C59 C60 1.497 . S
C60 C59 1.497 . S
C60 C61 1.395 . S
C60 C62 1.380 . S
C61 C60 1.395 . S
C61 C64 1.398 . S
C61 H76 0.930 . S
C62 C60 1.380 . S
C62 C63 1.391 . S
C62 H77 0.930 . S
C63 C62 1.391 . S
C63 C65 1.387 . S
C64 C61 1.398 . S
C64 C65 1.380 . S
C64 H78 0.930 . S
C65 C63 1.387 . S
C65 C64 1.380 . S
C65 H79 0.930 . S
C66 O46 1.254 . S
C66 O47 1.268 1_455 S
C67 O51 1.284 . S
C67 O54 1.250 1_655 S
C68 Gd1 2.828 . S
C68 O50 1.258 . S
C68 O55 1.252 . S
C68 C69 1.497 . S
C69 C68 1.497 . S
C69 C70 1.395 . S
C69 C71 1.380 . S
C70 C69 1.395 . S
C70 C73 1.398 . S
C70 H80 0.930 . S
C71 C69 1.380 . S
C71 C72 1.391 . S
C71 H81 0.930 . S
C72 C71 1.391 . S
C72 C74 1.387 . S
C73 C70 1.398 . S
C73 C74 1.380 . S
C73 H82 0.930 . S
C74 C72 1.387 . S
C74 C73 1.380 . S
C74 H83 0.930 . S
C75 O52 1.254 . S
C75 O53 1.268 1_655 S
H76 C61 0.930 . S
H77 C62 0.930 . S
H78 C64 0.930 . S
H79 C65 0.930 . S
H80 C70 0.930 . S
H81 C71 0.930 . S
H82 C73 0.930 . S
H83 C74 0.930 . S
Gd84 N115 2.661 . S
Gd84 N121 2.601 1_655 S
Gd84 O128 2.545 . S
Gd84 O129 2.606 . S
Gd84 O131 2.429 . S
Gd84 O132 2.545 . S
Gd84 O133 2.412 . S
Gd84 O135 2.362 . S
Gd84 O136 2.324 . S
Gd84 C143 2.828 . S
Gd85 N94 2.661 1_545 S
Gd85 N98 2.601 1_545 S
Gd85 O129 2.362 . S
Gd85 O130 2.324 . S
Gd85 O134 2.545 1_545 S
Gd85 O135 2.606 . S
Gd85 O137 2.429 . S
Gd85 O138 2.545 . S
Gd85 O139 2.412 1_545 S
Gd85 C152 2.828 1_545 S
C86 C89 1.417 . S
C86 C91 1.431 . S
C86 C92 1.412 . S
C87 C90 1.437 . S
C87 C91 1.317 . S
C87 H106 0.929 . S
C88 C89 1.426 . S
C88 C90 1.413 . S
C88 N98 1.359 . S
C89 C86 1.417 . S
C89 C88 1.426 . S
C89 N94 1.350 . S
C90 C87 1.437 . S
C90 C88 1.413 . S
C90 C100 1.391 . S
C91 C86 1.431 . S
C91 C87 1.317 . S
C91 H102 0.930 . S
C92 C86 1.412 . S
C92 C93 1.355 . S
C92 H104 0.930 . S
C93 C92 1.355 . S
C93 C95 1.402 . S
C93 H105 0.930 . S
N94 Gd85 2.661 1_565 S
N94 C89 1.350 . S
N94 C95 1.307 . S
C95 C93 1.402 . S
C95 N94 1.307 . S
C95 H96 0.930 . S
H96 C95 0.930 . S
C97 N98 1.334 . S
C97 C99 1.394 . S
C97 H101 0.930 . S
N98 Gd85 2.601 1_565 S
N98 C88 1.359 . S
N98 C97 1.334 . S
C99 C97 1.394 . S
C99 C100 1.359 . S
C99 H111 0.930 . S
C100 C90 1.391 . S
C100 C99 1.359 . S
C100 H112 0.929 . S
H101 C97 0.930 . S
H102 C91 0.930 . S
H103 C120 0.930 . S
H104 C92 0.930 . S
H105 C93 0.930 . S
H106 C87 0.929 . S
H107 C125 0.930 . S
H108 C116 0.930 . S
H109 C117 0.930 . S
H110 C141 0.929 . S
H111 C99 0.930 . S
H112 C100 0.929 . S
H113 C142 0.930 . S
H114 C123 0.930 . S
N115 Gd84 2.661 . S
N115 C119 1.350 . S
N115 C120 1.307 . S
C116 H108 0.930 . S
C116 C117 1.355 . S
C116 C118 1.412 . S
C117 H109 0.930 . S
C117 C116 1.355 . S
C117 C120 1.402 . S
C118 C116 1.412 . S
C118 C119 1.417 . S
C118 C142 1.431 1_655 S
C119 N115 1.350 . S
C119 C118 1.417 . S
C119 C122 1.426 1_655 S
C120 H103 0.930 . S
C120 N115 1.307 . S
C120 C117 1.402 . S
N121 Gd84 2.601 1_455 S
N121 C122 1.359 . S
N121 C125 1.334 . S
C122 C119 1.426 1_455 S
C122 N121 1.359 . S
C122 C126 1.413 . S
C123 H114 0.930 . S
C123 C124 1.359 . S
C123 C125 1.394 . S
C124 C123 1.359 . S
C124 C126 1.391 . S
C124 H127 0.929 . S
C125 H107 0.930 . S
C125 N121 1.334 . S
C125 C123 1.394 . S
C126 C122 1.413 . S
C126 C124 1.391 . S
C126 C141 1.437 . S
H127 C124 0.929 . S
O128 Gd84 2.545 . S
O128 C143 1.258 . S
O129 Gd84 2.606 . S
O129 Gd85 2.362 . S
O129 C140 1.284 . S
O130 Gd85 2.324 . S
O130 C150 1.254 . S
O131 Gd84 2.429 . S
O131 C150 1.268 . S
O132 Gd84 2.545 . S
O132 C140 1.250 . S
O133 Gd84 2.412 . S
O133 C143 1.252 . S
O134 Gd85 2.545 1_565 S
O134 C152 1.258 . S
O135 Gd84 2.362 . S
O135 Gd85 2.606 . S
O135 C151 1.284 . S
O136 Gd84 2.324 . S
O136 C159 1.254 . S
O137 Gd85 2.429 . S
O137 C159 1.268 . S
O138 Gd85 2.545 . S
O138 C151 1.250 . S
O139 Gd85 2.412 1_565 S
O139 C152 1.252 . S
C140 O129 1.284 . S
C140 O132 1.250 . S
C141 H110 0.929 . S
C141 C126 1.437 . S
C141 C142 1.317 . S
C142 H113 0.930 . S
C142 C118 1.431 1_455 S
C142 C141 1.317 . S
C143 Gd84 2.828 . S
C143 O128 1.258 . S
C143 O133 1.252 . S
C143 C144 1.497 . S
C144 C143 1.497 . S
C144 C145 1.395 1_655 S
C144 C146 1.380 . S
C145 C144 1.395 1_455 S
C145 C148 1.398 . S
C145 H160 0.930 . S
C146 C144 1.380 . S
C146 C147 1.391 . S
C146 H161 0.930 . S
C147 C146 1.391 . S
C147 C149 1.387 . S
C148 C145 1.398 . S
C148 C149 1.380 1_455 S
C148 H162 0.930 . S
C149 C147 1.387 . S
C149 C148 1.380 1_655 S
C149 H163 0.930 . S
C150 O130 1.254 . S
C150 O131 1.268 . S
C151 O135 1.284 . S
C151 O138 1.250 . S
C152 Gd85 2.828 1_565 S
C152 O134 1.258 . S
C152 O139 1.252 . S
C152 C153 1.497 . S
C153 C152 1.497 . S
C153 C154 1.395 . S
C153 C155 1.380 . S
C154 C153 1.395 . S
C154 C157 1.398 . S
C154 H164 0.930 . S
C155 C153 1.380 . S
C155 C156 1.391 . S
C155 H165 0.930 . S
C156 C155 1.391 . S
C156 C158 1.387 . S
C157 C154 1.398 . S
C157 C158 1.380 . S
C157 H166 0.930 . S
C158 C156 1.387 . S
C158 C157 1.380 . S
C158 H167 0.930 . S
C159 O136 1.254 . S
C159 O137 1.268 . S
H160 C145 0.930 . S
H161 C146 0.930 . S
H162 C148 0.930 . S
H163 C149 0.930 . S
H164 C154 0.930 . S
H165 C155 0.930 . S
H166 C157 0.930 . S
H167 C158 0.930 . S
Gd168 N199 2.661 . S
Gd168 N205 2.601 . S
Gd168 O212 2.545 . S
Gd168 O213 2.606 . S
Gd168 O215 2.429 . S
Gd168 O216 2.545 . S
Gd168 O217 2.412 . S
Gd168 O219 2.362 . S
Gd168 O220 2.324 . S
Gd168 C227 2.828 . S
Gd169 N178 2.661 . S
Gd169 N182 2.601 . S
Gd169 O213 2.362 . S
Gd169 O214 2.324 . S
Gd169 O218 2.545 . S
Gd169 O219 2.606 . S
Gd169 O221 2.429 . S
Gd169 O222 2.545 . S
Gd169 O223 2.412 . S
Gd169 C236 2.828 . S
C170 C173 1.417 . S
C170 C175 1.431 . S
C170 C176 1.412 . S
C171 C174 1.437 . S
C171 C175 1.317 . S
C171 H190 0.929 . S
C172 C173 1.426 . S
C172 C174 1.413 . S
C172 N182 1.359 . S
C173 C170 1.417 . S
C173 C172 1.426 . S
C173 N178 1.350 . S
C174 C171 1.437 . S
C174 C172 1.413 . S
C174 C184 1.391 . S
C175 C170 1.431 . S
C175 C171 1.317 . S
C175 H186 0.930 . S
C176 C170 1.412 . S
C176 C177 1.355 . S
C176 H188 0.930 . S
C177 C176 1.355 . S
C177 C179 1.402 . S
C177 H189 0.930 . S
N178 Gd169 2.661 . S
N178 C173 1.350 . S
N178 C179 1.307 . S
C179 C177 1.402 . S
C179 N178 1.307 . S
C179 H180 0.930 . S
H180 C179 0.930 . S
C181 N182 1.334 . S
C181 C183 1.394 . S
C181 H185 0.930 . S
N182 Gd169 2.601 . S
N182 C172 1.359 . S
N182 C181 1.334 . S
C183 C181 1.394 . S
C183 C184 1.359 . S
C183 H195 0.930 . S
C184 C174 1.391 . S
C184 C183 1.359 . S
C184 H196 0.929 . S
H185 C181 0.930 . S
H186 C175 0.930 . S
H187 C204 0.930 . S
H188 C176 0.930 . S
H189 C177 0.930 . S
H190 C171 0.929 . S
H191 C209 0.930 . S
H192 C200 0.930 . S
H193 C201 0.930 . S
H194 C225 0.929 1_565 S
H195 C183 0.930 . S
H196 C184 0.929 . S
H197 C226 0.930 . S
H198 C207 0.930 . S
N199 Gd168 2.661 . S
N199 C203 1.350 . S
N199 C204 1.307 1_655 S
C200 H192 0.930 . S
C200 C201 1.355 . S
C200 C202 1.412 . S
C201 H193 0.930 . S
C201 C200 1.355 . S
C201 C204 1.402 . S
C202 C200 1.412 . S
C202 C203 1.417 1_455 S
C202 C226 1.431 . S
C203 N199 1.350 . S
C203 C202 1.417 1_655 S
C203 C206 1.426 . S
C204 H187 0.930 . S
C204 N199 1.307 1_455 S
C204 C201 1.402 . S
N205 Gd168 2.601 . S
N205 C206 1.359 . S
N205 C209 1.334 . S
C206 C203 1.426 . S
C206 N205 1.359 . S
C206 C210 1.413 . S
C207 H198 0.930 . S
C207 C208 1.359 . S
C207 C209 1.394 1_565 S
C208 C207 1.359 . S
C208 C210 1.391 1_565 S
C208 H211 0.929 . S
C209 H191 0.930 . S
C209 N205 1.334 . S
C209 C207 1.394 1_545 S
C210 C206 1.413 . S
C210 C208 1.391 1_545 S
C210 C225 1.437 . S
H211 C208 0.929 . S
O212 Gd168 2.545 . S
O212 C227 1.258 . S
O213 Gd168 2.606 . S
O213 Gd169 2.362 . S
O213 C224 1.284 . S
O214 Gd169 2.324 . S
O214 C234 1.254 . S
O215 Gd168 2.429 . S
O215 C234 1.268 . S
O216 Gd168 2.545 . S
O216 C224 1.250 . S
O217 Gd168 2.412 . S
O217 C227 1.252 . S
O218 Gd169 2.545 . S
O218 C236 1.258 . S
O219 Gd168 2.362 . S
O219 Gd169 2.606 . S
O219 C235 1.284 . S
O220 Gd168 2.324 . S
O220 C243 1.254 . S
O221 Gd169 2.429 . S
O221 C243 1.268 . S
O222 Gd169 2.545 . S
O222 C235 1.250 . S
O223 Gd169 2.412 . S
O223 C236 1.252 . S
C224 O213 1.284 . S
C224 O216 1.250 . S
C225 H194 0.929 1_545 S
C225 C210 1.437 . S
C225 C226 1.317 1_655 S
C226 H197 0.930 . S
C226 C202 1.431 . S
C226 C225 1.317 1_455 S
C227 Gd168 2.828 . S
C227 O212 1.258 . S
C227 O217 1.252 . S
C227 C228 1.497 . S
C228 C227 1.497 . S
C228 C229 1.395 . S
C228 C230 1.380 1_655 S
C229 C228 1.395 . S
C229 C232 1.398 . S
C229 H244 0.930 . S
C230 C228 1.380 1_455 S
C230 C231 1.391 . S
C230 H245 0.930 . S
C231 C230 1.391 . S
C231 C233 1.387 . S
C232 C229 1.398 . S
C232 C233 1.380 1_655 S
C232 H246 0.930 . S
C233 C231 1.387 . S
C233 C232 1.380 1_455 S
C233 H247 0.930 . S
C234 O214 1.254 . S
C234 O215 1.268 . S
C235 O219 1.284 . S
C235 O222 1.250 . S
C236 Gd169 2.828 . S
C236 O218 1.258 . S
C236 O223 1.252 . S
C236 C237 1.497 . S
C237 C236 1.497 . S
C237 C238 1.395 . S
C237 C239 1.380 . S
C238 C237 1.395 . S
C238 C241 1.398 . S
C238 H248 0.930 . S
C239 C237 1.380 . S
C239 C240 1.391 . S
C239 H249 0.930 . S
C240 C239 1.391 . S
C240 C242 1.387 . S
C241 C238 1.398 . S
C241 C242 1.380 . S
C241 H250 0.930 . S
C242 C240 1.387 . S
C242 C241 1.380 . S
C242 H251 0.930 . S
C243 O220 1.254 . S
C243 O221 1.268 . S
H244 C229 0.930 . S
H245 C230 0.930 . S
H246 C232 0.930 . S
H247 C233 0.930 . S
H248 C238 0.930 . S
H249 C239 0.930 . S
H250 C241 0.930 . S
H251 C242 0.930 . S
C252 C253 1.390 . S
C252 C254 1.401 . S
C252 H268 0.926 1_655 S
C253 C252 1.390 . S
C253 C257 1.379 . S
C254 C252 1.401 . S
C254 C255 1.369 . S
C254 C258 1.531 . S
C255 C254 1.369 . S
C255 C256 1.410 . S
C255 C263 1.503 . S
C256 C255 1.410 . S
C256 C257 1.392 . S
C256 C259 1.511 . S
C257 C253 1.379 . S
C257 C256 1.392 . S
C257 H269 0.929 . S
C258 C254 1.531 . S
C258 H270 0.960 . S
C258 H271 0.962 1_655 S
C258 H272 0.960 . S
C259 C256 1.511 . S
C259 H273 0.961 . S
C259 H274 0.961 . S
C259 H275 0.961 . S
C260 C261 1.370 1_455 S
C260 C262 1.363 . S
C260 H276 0.931 . S
C261 C260 1.370 1_655 S
C261 C265 1.408 . S
C262 C260 1.363 . S
C262 C263 1.370 1_445 S
C262 C266 1.524 . S
C263 C255 1.503 . S
C263 C262 1.370 1_665 S
C263 C264 1.403 . S
C264 C263 1.403 . S
C264 C265 1.404 1_565 S
C264 C267 1.539 . S
C265 C261 1.408 . S
C265 C264 1.404 1_545 S
C265 H277 0.930 . S
C266 C262 1.524 . S
C266 H278 0.954 1_545 S
C266 H279 0.961 1_545 S
C266 H280 0.961 . S
C267 C264 1.539 . S
C267 H281 0.958 . S
C267 H282 0.961 . S
C267 H283 0.960 . S
H268 C252 0.926 1_455 S
H269 C257 0.929 . S
H270 C258 0.960 . S
H271 C258 0.962 1_455 S
H272 C258 0.960 . S
H273 C259 0.961 . S
H274 C259 0.961 . S
H275 C259 0.961 . S
H276 C260 0.931 . S
H277 C265 0.930 . S
H278 C266 0.954 1_565 S
H279 C266 0.961 1_565 S
H280 C266 0.961 . S
H281 C267 0.958 . S
H282 C267 0.961 . S
H283 C267 0.960 . S
C284 C285 1.391 . S
C284 C286 1.394 . S
C284 H300 0.931 . S
C285 C284 1.391 . S
C285 C289 1.376 . S
C286 C284 1.394 . S
C286 C287 1.369 . S
C286 C290 1.531 . S
C287 C286 1.369 . S
C287 C288 1.410 . S
C287 C295 1.503 . S
C288 C287 1.410 . S
C288 C289 1.392 . S
C288 C291 1.511 1_545 S
C289 C285 1.376 . S
C289 C288 1.392 . S
C289 H301 0.929 . S
C290 C286 1.531 . S
C290 H302 0.960 . S
C290 H303 0.962 . S
C290 H304 0.960 . S
C291 C288 1.511 1_565 S
C291 H305 0.961 . S
C291 H306 0.961 1_565 S
C291 H307 0.961 . S
C292 C293 1.370 . S
C292 C294 1.363 . S
C292 H308 0.931 . S
C293 C292 1.370 . S
C293 C297 1.408 . S
C294 C292 1.363 . S
C294 C295 1.370 . S
C294 C298 1.524 . S
C295 C287 1.503 . S
C295 C294 1.370 . S
C295 C296 1.403 . S
C296 C295 1.403 . S
C296 C297 1.404 . S
C296 C299 1.539 . S
C297 C293 1.408 . S
C297 C296 1.404 . S
C297 H309 0.930 . S
C298 C294 1.524 . S
C298 H310 0.956 . S
C298 H311 0.961 . S
C298 H312 0.961 . S
C299 C296 1.539 . S
C299 H313 0.958 . S
C299 H314 0.961 . S
C299 H315 0.960 . S
H300 C284 0.931 . S
H301 C289 0.929 . S
H302 C290 0.960 . S
H303 C290 0.962 . S
H304 C290 0.960 . S
H305 C291 0.961 . S
H306 C291 0.961 1_545 S
H307 C291 0.961 . S
H308 C292 0.931 . S
H309 C297 0.930 . S
H310 C298 0.956 . S
H311 C298 0.961 . S
H312 C298 0.961 . S
H313 C299 0.958 . S
H314 C299 0.961 . S
H315 C299 0.960 . S
C316 C317 1.391 . S
C316 C318 1.394 . S
C316 H332 0.931 . S
C317 C316 1.391 . S
C317 C321 1.376 . S
C318 C316 1.394 . S
C318 C319 1.369 . S
C318 C322 1.531 . S
C319 C318 1.369 . S
C319 C320 1.410 . S
C319 C327 1.503 . S
C320 C319 1.410 . S
C320 C321 1.392 . S
C320 C323 1.511 . S
C321 C317 1.376 . S
C321 C320 1.392 . S
C321 H333 0.929 1_455 S
C322 C318 1.531 . S
C322 H334 0.960 . S
C322 H335 0.962 . S
C322 H336 0.960 . S
C323 C320 1.511 . S
C323 H337 0.961 . S
C323 H338 0.961 . S
C323 H339 0.961 . S
C324 C325 1.370 . S
C324 C326 1.363 1_545 S
C324 H340 0.931 . S
C325 C324 1.370 . S
C325 C329 1.408 . S
C326 C324 1.363 1_565 S
C326 C327 1.370 . S
C326 C330 1.524 . S
C327 C319 1.503 . S
C327 C326 1.370 . S
C327 C328 1.403 1_565 S
C328 C327 1.403 1_545 S
C328 C329 1.404 . S
C328 C331 1.539 . S
C329 C325 1.408 . S
C329 C328 1.404 . S
C329 H341 0.930 . S
C330 C326 1.524 . S
C330 H342 0.956 . S
C330 H343 0.961 . S
C330 H344 0.961 . S
C331 C328 1.539 . S
C331 H345 0.958 . S
C331 H346 0.961 . S
C331 H347 0.960 1_545 S
H332 C316 0.931 . S
H333 C321 0.929 1_655 S
H334 C322 0.960 . S
H335 C322 0.962 . S
H336 C322 0.960 . S
H337 C323 0.961 . S
H338 C323 0.961 . S
H339 C323 0.961 . S
H340 C324 0.931 . S
H341 C329 0.930 . S
H342 C330 0.956 . S
H343 C330 0.961 . S
H344 C330 0.961 . S
H345 C331 0.958 . S
H346 C331 0.961 . S
H347 C331 0.960 1_565 S
C348 C349 1.391 . S
C348 C350 1.394 1_556 S
C348 H364 0.931 . S
C349 C348 1.391 . S
C349 C353 1.376 1_556 S
C350 C348 1.394 1_554 S
C350 C351 1.369 . S
C350 C354 1.531 . S
C351 C350 1.369 . S
C351 C352 1.410 . S
C351 C359 1.503 . S
C352 C351 1.410 . S
C352 C353 1.392 . S
C352 C355 1.511 . S
C353 C349 1.376 1_554 S
C353 C352 1.392 . S
C353 H365 0.929 . S
C354 C350 1.531 . S
C354 H366 0.960 . S
C354 H367 0.962 . S
C354 H368 0.960 . S
C355 C352 1.511 . S
C355 H369 0.961 . S
C355 H370 0.961 . S
C355 H371 0.961 . S
C356 C357 1.370 . S
C356 C358 1.363 . S
C356 H372 0.931 . S
C357 C356 1.370 . S
C357 C361 1.408 . S
C358 C356 1.363 . S
C358 C359 1.370 . S
C358 C362 1.524 . S
C359 C351 1.503 . S
C359 C358 1.370 . S
C359 C360 1.403 . S
C360 C359 1.403 . S
C360 C361 1.404 . S
C360 C363 1.539 . S
C361 C357 1.408 . S
C361 C360 1.404 . S
C361 H373 0.930 . S
C362 C358 1.524 . S
C362 H374 0.956 . S
C362 H375 0.961 . S
C362 H376 0.961 . S
C363 C360 1.539 . S
C363 H377 0.958 . S
C363 H378 0.961 . S
C363 H379 0.960 . S
H364 C348 0.931 . S
H365 C353 0.929 . S
H366 C354 0.960 . S
H367 C354 0.962 . S
H368 C354 0.960 . S
H369 C355 0.961 . S
H370 C355 0.961 . S
H371 C355 0.961 . S
H372 C356 0.931 . S
H373 C361 0.930 . S
H374 C362 0.956 . S
H375 C362 0.961 . S
H376 C362 0.961 . S
H377 C363 0.958 . S
H378 C363 0.961 . S
H379 C363 0.960 . S
C380 C381 1.391 . S
C380 C382 1.394 . S
C380 H396 0.931 . S
C381 C380 1.391 . S
C381 C385 1.376 . S
C382 C380 1.394 . S
C382 C383 1.369 . S
C382 C386 1.531 . S
C383 C382 1.369 . S
C383 C384 1.410 . S
C383 C391 1.503 . S
C384 C383 1.410 . S
C384 C385 1.392 . S
C384 C387 1.511 . S
C385 C381 1.376 . S
C385 C384 1.392 . S
C385 H397 0.929 . S
C386 C382 1.531 . S
C386 H398 0.960 . S
C386 H399 0.962 . S
C386 H400 0.960 . S
C387 C384 1.511 . S
C387 H401 0.961 . S
C387 H402 0.961 . S
C387 H403 0.961 . S
C388 C389 1.370 . S
C388 C390 1.363 . S
C388 H404 0.931 1_655 S
C389 C388 1.370 . S
C389 C393 1.408 . S
C390 C388 1.363 . S
C390 C391 1.370 . S
C390 C394 1.524 1_655 S
C391 C383 1.503 . S
C391 C390 1.370 . S
C391 C392 1.403 . S
C392 C391 1.403 . S
C392 C393 1.404 . S
C392 C395 1.539 . S
C393 C389 1.408 . S
C393 C392 1.404 . S
C393 H405 0.930 . S
C394 C390 1.524 1_455 S
C394 H406 0.956 1_455 S
C394 H407 0.961 . S
C394 H408 0.961 . S
C395 C392 1.539 . S
C395 H409 0.958 . S
C395 H410 0.961 . S
C395 H411 0.960 . S
H396 C380 0.931 . S
H397 C385 0.929 . S
H398 C386 0.960 . S
H399 C386 0.962 . S
H400 C386 0.960 . S
H401 C387 0.961 . S
H402 C387 0.961 . S
H403 C387 0.961 . S
H404 C388 0.931 1_455 S
H405 C393 0.930 . S
H406 C394 0.956 1_655 S
H407 C394 0.961 . S
H408 C394 0.961 . S
H409 C395 0.958 . S
H410 C395 0.961 . S
H411 C395 0.960 . S
C412 C413 1.391 . S
C412 C414 1.394 . S
C412 H428 0.931 . S
C413 C412 1.391 . S
C413 C417 1.376 . S
C414 C412 1.394 . S
C414 C415 1.369 . S
C414 C418 1.531 . S
C415 C414 1.369 . S
C415 C416 1.410 . S
C415 C423 1.503 . S
C416 C415 1.410 . S
C416 C417 1.392 . S
C416 C419 1.511 . S
C417 C413 1.376 . S
C417 C416 1.392 . S
C417 H429 0.929 . S
C418 C414 1.531 . S
C418 H430 0.960 . S
C418 H431 0.962 . S
C418 H432 0.960 . S
C419 C416 1.511 . S
C419 H433 0.961 . S
C419 H434 0.961 . S
C419 H435 0.961 . S
C420 C421 1.370 . S
C420 C422 1.363 . S
C420 H436 0.931 . S
C421 C420 1.370 . S
C421 C425 1.408 . S
C422 C420 1.363 . S
C422 C423 1.370 . S
C422 C426 1.524 . S
C423 C415 1.503 . S
C423 C422 1.370 . S
C423 C424 1.403 . S
C424 C423 1.403 . S
C424 C425 1.404 . S
C424 C427 1.539 . S
C425 C421 1.408 . S
C425 C424 1.404 . S
C425 H437 0.930 . S
C426 C422 1.524 . S
C426 H438 0.956 . S
C426 H439 0.961 . S
C426 H440 0.961 . S
C427 C424 1.539 . S
C427 H441 0.958 . S
C427 H442 0.961 . S
C427 H443 0.960 . S
H428 C412 0.931 . S
H429 C417 0.929 . S
H430 C418 0.960 . S
H431 C418 0.962 . S
H432 C418 0.960 . S
H433 C419 0.961 . S
H434 C419 0.961 . S
H435 C419 0.961 . S
H436 C420 0.931 . S
H437 C425 0.930 . S
H438 C426 0.956 . S
H439 C426 0.961 . S
H440 C426 0.961 . S
H441 C427 0.958 . S
H442 C427 0.961 . S
H443 C427 0.960 . S
C444 C445 1.391 . S
C444 C446 1.394 . S
C444 H460 0.931 . S
C445 C444 1.391 . S
C445 C449 1.376 . S
C446 C444 1.394 . S
C446 C447 1.369 . S
C446 C450 1.531 . S
C447 C446 1.369 . S
C447 C448 1.410 . S
C447 C455 1.503 . S
C448 C447 1.410 . S
C448 C449 1.392 . S
C448 C451 1.511 . S
C449 C445 1.376 . S
C449 C448 1.392 . S
C449 H461 0.929 . S
C450 C446 1.531 . S
C450 H462 0.960 . S
C450 H463 0.962 . S
C450 H464 0.960 . S
C451 C448 1.511 . S
C451 H465 0.961 1_655 S
C451 H466 0.961 . S
C451 H467 0.961 . S
C452 C453 1.370 . S
C452 C454 1.363 1_554 S
C452 H468 0.931 . S
C453 C452 1.370 . S
C453 C457 1.408 . S
C454 C452 1.363 1_556 S
C454 C455 1.370 . S
C454 C458 1.524 . S
C455 C447 1.503 . S
C455 C454 1.370 . S
C455 C456 1.403 . S
C456 C455 1.403 . S
C456 C457 1.404 1_556 S
C456 C459 1.539 . S
C457 C453 1.408 . S
C457 C456 1.404 1_554 S
C457 H469 0.930 1_545 S
C458 C454 1.524 . S
C458 H470 0.956 . S
C458 H471 0.961 . S
C458 H472 0.961 . S
C459 C456 1.539 . S
C459 H473 0.958 1_545 S
C459 H474 0.961 1_545 S
C459 H475 0.960 . S
H460 C444 0.931 . S
H461 C449 0.929 . S
H462 C450 0.960 . S
H463 C450 0.962 . S
H464 C450 0.960 . S
H465 C451 0.961 1_455 S
H466 C451 0.961 . S
H467 C451 0.961 . S
H468 C452 0.931 . S
H469 C457 0.930 1_565 S
H470 C458 0.956 . S
H471 C458 0.961 . S
H472 C458 0.961 . S
H473 C459 0.958 1_565 S
H474 C459 0.961 1_565 S
H475 C459 0.960 . S
C476 C477 1.391 . S
C476 C478 1.394 . S
C476 H492 0.931 . S
C477 C476 1.391 . S
C477 C481 1.376 . S
C478 C476 1.394 . S
C478 C479 1.369 . S
C478 C482 1.531 . S
C479 C478 1.369 . S
C479 C480 1.410 . S
C479 C487 1.503 . S
C480 C479 1.410 . S
C480 C481 1.392 . S
C480 C483 1.511 1_565 S
C481 C477 1.376 . S
C481 C480 1.392 . S
C481 H493 0.929 . S
C482 C478 1.531 . S
C482 H494 0.960 . S
C482 H495 0.962 . S
C482 H496 0.960 . S
C483 C480 1.511 1_545 S
C483 H497 0.961 . S
C483 H498 0.961 . S
C483 H499 0.961 . S
C484 C485 1.370 1_565 S
C484 C486 1.363 . S
C484 H500 0.931 . S
C485 C484 1.370 1_545 S
C485 C489 1.408 . S
C486 C484 1.363 . S
C486 C487 1.370 . S
C486 C490 1.524 . S
C487 C479 1.503 . S
C487 C486 1.370 . S
C487 C488 1.403 . S
C488 C487 1.403 . S
C488 C489 1.404 1_565 S
C488 C491 1.539 . S
C489 C485 1.408 . S
C489 C488 1.404 1_545 S
C489 H501 0.930 . S
C490 C486 1.524 . S
C490 H502 0.956 . S
C490 H503 0.961 . S
C490 H504 0.961 . S
C491 C488 1.539 . S
C491 H505 0.958 . S
C491 H506 0.961 . S
C491 H507 0.960 . S
H492 C476 0.931 . S
H493 C481 0.929 . S
H494 C482 0.960 . S
H495 C482 0.962 . S
H496 C482 0.960 . S
H497 C483 0.961 . S
H498 C483 0.961 . S
H499 C483 0.961 . S
H500 C484 0.931 . S
H501 C489 0.930 . S
H502 C490 0.956 . S
H503 C490 0.961 . S
H504 C490 0.961 . S
H505 C491 0.958 . S
H506 C491 0.961 . S
H507 C491 0.960 . S
C508 C509 1.391 . S
C508 C510 1.394 . S
C508 H524 0.931 . S
C509 C508 1.391 . S
C509 C513 1.376 . S
C510 C508 1.394 . S
C510 C511 1.369 1_455 S
C510 C514 1.531 . S
C511 C510 1.369 1_655 S
C511 C512 1.410 . S
C511 C519 1.503 . S
C512 C511 1.410 . S
C512 C513 1.392 1_655 S
C512 C515 1.511 . S
C513 C509 1.376 . S
C513 C512 1.392 1_455 S
C513 H525 0.929 . S
C514 C510 1.531 . S
C514 H526 0.960 1_455 S
C514 H527 0.962 . S
C514 H528 0.960 . S
C515 C512 1.511 . S
C515 H529 0.961 . S
C515 H530 0.961 . S
C515 H531 0.961 . S
C516 C517 1.370 . S
C516 C518 1.363 1_655 S
C516 H532 0.931 1_655 S
C517 C516 1.370 . S
C517 C521 1.408 . S
C518 C516 1.363 1_455 S
C518 C519 1.370 1_455 S
C518 C522 1.524 . S
C519 C511 1.503 . S
C519 C518 1.370 1_655 S
C519 C520 1.403 . S
C520 C519 1.403 . S
C520 C521 1.404 . S
C520 C523 1.539 . S
C521 C517 1.408 . S
C521 C520 1.404 . S
C521 H533 0.930 . S
C522 C518 1.524 . S
C522 H534 0.956 . S
C522 H535 0.961 . S
C522 H536 0.961 . S
C523 C520 1.539 . S
C523 H537 0.958 . S
C523 H538 0.961 . S
C523 H539 0.960 . S
H524 C508 0.931 . S
H525 C513 0.929 . S
H526 C514 0.960 1_655 S
H527 C514 0.962 . S
H528 C514 0.960 . S
H529 C515 0.961 . S
H530 C515 0.961 . S
H531 C515 0.961 . S
H532 C516 0.931 1_455 S
H533 C521 0.930 . S
H534 C522 0.956 . S
H535 C522 0.961 . S
H536 C522 0.961 . S
H537 C523 0.958 . S
H538 C523 0.961 . S
H539 C523 0.960 . S
C253 C66 1.436 1_655 S
C261 C75 1.437 . S
C285 C159 1.478 . S
C293 C150 1.424 1_455 S
C317 C243 1.473 1_455 S
C325 C234 1.427 . S
C349 C240 1.802 . S
C357 C56 1.929 . S
C381 C147 1.168 . S
C389 C67 1.246 . S
C413 C224 1.895 . S
C421 C156 1.783 . S
C445 C235 1.273 . S
C453 C63 1.126 . S
C477 C72 1.739 . S
C485 C140 1.919 . S
C509 C231 1.017 . S
C517 C151 1.204 . S
