# Generated by pormake.
# Topology fcp, (5)-cn, num edge types: 1
# Building blocks:
#     Node 0, Type 0, BuildingBlock: XOMCOT_clean_sbu_0, # of connection points: 5
#     Node 1, Type 0, BuildingBlock: XOMCOT_clean_sbu_0, # of connection points: 5
#     Node 2, Type 0, BuildingBlock: XOMCOT_clean_sbu_0, # of connection points: 5
#     Node 3, Type 0, BuildingBlock: XOMCOT_clean_sbu_0, # of connection points: 5
#     Node 4, Type 0, BuildingBlock: XOMCOT_clean_sbu_0, # of connection points: 5
#     Node 5, Type 0, BuildingBlock: XOMCOT_clean_sbu_0, # of connection points: 5
#     Node 6, Type 0, BuildingBlock: XOMCOT_clean_sbu_0, # of connection points: 5
#     Node 7, Type 0, BuildingBlock: XOMCOT_clean_sbu_0, # of connection points: 5
#     Node 8, Type 0, BuildingBlock: XOMCOT_clean_sbu_0, # of connection points: 5
#     Node 9, Type 0, BuildingBlock: XOMCOT_clean_sbu_0, # of connection points: 5
#     Node 10, Type 0, BuildingBlock: XOMCOT_clean_sbu_0, # of connection points: 5
#     Node 11, Type 0, BuildingBlock: XOMCOT_clean_sbu_0, # of connection points: 5
#     Node 12, Type 0, BuildingBlock: XOMCOT_clean_sbu_0, # of connection points: 5
#     Node 13, Type 0, BuildingBlock: XOMCOT_clean_sbu_0, # of connection points: 5
#     Node 14, Type 0, BuildingBlock: XOMCOT_clean_sbu_0, # of connection points: 5
#     Node 15, Type 0, BuildingBlock: XOMCOT_clean_sbu_0, # of connection points: 5
#     Node 16, Type 0, BuildingBlock: XOMCOT_clean_sbu_0, # of connection points: 5
#     Node 17, Type 0, BuildingBlock: XOMCOT_clean_sbu_0, # of connection points: 5
#     Node 18, Type 0, BuildingBlock: XOMCOT_clean_sbu_0, # of connection points: 5
#     Node 19, Type 0, BuildingBlock: XOMCOT_clean_sbu_0, # of connection points: 5
#     Node 20, Type 0, BuildingBlock: XOMCOT_clean_sbu_0, # of connection points: 5
#     Node 21, Type 0, BuildingBlock: XOMCOT_clean_sbu_0, # of connection points: 5
#     Node 22, Type 0, BuildingBlock: XOMCOT_clean_sbu_0, # of connection points: 5
#     Node 23, Type 0, BuildingBlock: XOMCOT_clean_sbu_0, # of connection points: 5
#     Edge 24, Type (0, 0), BuildingBlock: AJUNOK_clean_linker_0, # of connection points: 2
#     Edge 25, Type (0, 0), BuildingBlock: AJUNOK_clean_linker_0, # of connection points: 2
#     Edge 26, Type (0, 0), BuildingBlock: AJUNOK_clean_linker_0, # of connection points: 2
#     Edge 27, Type (0, 0), BuildingBlock: AJUNOK_clean_linker_0, # of connection points: 2
#     Edge 28, Type (0, 0), BuildingBlock: AJUNOK_clean_linker_0, # of connection points: 2
#     Edge 29, Type (0, 0), BuildingBlock: AJUNOK_clean_linker_0, # of connection points: 2
#     Edge 30, Type (0, 0), BuildingBlock: AJUNOK_clean_linker_0, # of connection points: 2
#     Edge 31, Type (0, 0), BuildingBlock: AJUNOK_clean_linker_0, # of connection points: 2
#     Edge 32, Type (0, 0), BuildingBlock: AJUNOK_clean_linker_0, # of connection points: 2
#     Edge 33, Type (0, 0), BuildingBlock: AJUNOK_clean_linker_0, # of connection points: 2
#     Edge 34, Type (0, 0), BuildingBlock: AJUNOK_clean_linker_0, # of connection points: 2
#     Edge 35, Type (0, 0), BuildingBlock: AJUNOK_clean_linker_0, # of connection points: 2
#     Edge 36, Type (0, 0), BuildingBlock: AJUNOK_clean_linker_0, # of connection points: 2
#     Edge 37, Type (0, 0), BuildingBlock: AJUNOK_clean_linker_0, # of connection points: 2
#     Edge 38, Type (0, 0), BuildingBlock: AJUNOK_clean_linker_0, # of connection points: 2
#     Edge 39, Type (0, 0), BuildingBlock: AJUNOK_clean_linker_0, # of connection points: 2
#     Edge 40, Type (0, 0), BuildingBlock: AJUNOK_clean_linker_0, # of connection points: 2
#     Edge 41, Type (0, 0), BuildingBlock: AJUNOK_clean_linker_0, # of connection points: 2
#     Edge 42, Type (0, 0), BuildingBlock: AJUNOK_clean_linker_0, # of connection points: 2
#     Edge 43, Type (0, 0), BuildingBlock: AJUNOK_clean_linker_0, # of connection points: 2
#     Edge 44, Type (0, 0), BuildingBlock: AJUNOK_clean_linker_0, # of connection points: 2
#     Edge 45, Type (0, 0), BuildingBlock: AJUNOK_clean_linker_0, # of connection points: 2
#     Edge 46, Type (0, 0), BuildingBlock: AJUNOK_clean_linker_0, # of connection points: 2
#     Edge 47, Type (0, 0), BuildingBlock: AJUNOK_clean_linker_0, # of connection points: 2
#     Edge 48, Type (0, 0), BuildingBlock: AJUNOK_clean_linker_0, # of connection points: 2
#     Edge 49, Type (0, 0), BuildingBlock: AJUNOK_clean_linker_0, # of connection points: 2
#     Edge 50, Type (0, 0), BuildingBlock: AJUNOK_clean_linker_0, # of connection points: 2
#     Edge 51, Type (0, 0), BuildingBlock: AJUNOK_clean_linker_0, # of connection points: 2
#     Edge 52, Type (0, 0), BuildingBlock: AJUNOK_clean_linker_0, # of connection points: 2
#     Edge 53, Type (0, 0), BuildingBlock: AJUNOK_clean_linker_0, # of connection points: 2
#     Edge 54, Type (0, 0), BuildingBlock: AJUNOK_clean_linker_0, # of connection points: 2
#     Edge 55, Type (0, 0), BuildingBlock: AJUNOK_clean_linker_0, # of connection points: 2
#     Edge 56, Type (0, 0), BuildingBlock: AJUNOK_clean_linker_0, # of connection points: 2
#     Edge 57, Type (0, 0), BuildingBlock: AJUNOK_clean_linker_0, # of connection points: 2
#     Edge 58, Type (0, 0), BuildingBlock: AJUNOK_clean_linker_0, # of connection points: 2
#     Edge 59, Type (0, 0), BuildingBlock: AJUNOK_clean_linker_0, # of connection points: 2
#     Edge 60, Type (0, 0), BuildingBlock: AJUNOK_clean_linker_0, # of connection points: 2
#     Edge 61, Type (0, 0), BuildingBlock: AJUNOK_clean_linker_0, # of connection points: 2
#     Edge 62, Type (0, 0), BuildingBlock: AJUNOK_clean_linker_0, # of connection points: 2
#     Edge 63, Type (0, 0), BuildingBlock: AJUNOK_clean_linker_0, # of connection points: 2
#     Edge 64, Type (0, 0), BuildingBlock: AJUNOK_clean_linker_0, # of connection points: 2
#     Edge 65, Type (0, 0), BuildingBlock: AJUNOK_clean_linker_0, # of connection points: 2
#     Edge 66, Type (0, 0), BuildingBlock: AJUNOK_clean_linker_0, # of connection points: 2
#     Edge 67, Type (0, 0), BuildingBlock: AJUNOK_clean_linker_0, # of connection points: 2
#     Edge 68, Type (0, 0), BuildingBlock: AJUNOK_clean_linker_0, # of connection points: 2
#     Edge 69, Type (0, 0), BuildingBlock: AJUNOK_clean_linker_0, # of connection points: 2
#     Edge 70, Type (0, 0), BuildingBlock: AJUNOK_clean_linker_0, # of connection points: 2
#     Edge 71, Type (0, 0), BuildingBlock: AJUNOK_clean_linker_0, # of connection points: 2
#     Edge 72, Type (0, 0), BuildingBlock: AJUNOK_clean_linker_0, # of connection points: 2
#     Edge 73, Type (0, 0), BuildingBlock: AJUNOK_clean_linker_0, # of connection points: 2
#     Edge 74, Type (0, 0), BuildingBlock: AJUNOK_clean_linker_0, # of connection points: 2
#     Edge 75, Type (0, 0), BuildingBlock: AJUNOK_clean_linker_0, # of connection points: 2
#     Edge 76, Type (0, 0), BuildingBlock: AJUNOK_clean_linker_0, # of connection points: 2
#     Edge 77, Type (0, 0), BuildingBlock: AJUNOK_clean_linker_0, # of connection points: 2
#     Edge 78, Type (0, 0), BuildingBlock: AJUNOK_clean_linker_0, # of connection points: 2
#     Edge 79, Type (0, 0), BuildingBlock: AJUNOK_clean_linker_0, # of connection points: 2
#     Edge 80, Type (0, 0), BuildingBlock: AJUNOK_clean_linker_0, # of connection points: 2
#     Edge 81, Type (0, 0), BuildingBlock: AJUNOK_clean_linker_0, # of connection points: 2
#     Edge 82, Type (0, 0), BuildingBlock: AJUNOK_clean_linker_0, # of connection points: 2
#     Edge 83, Type (0, 0), BuildingBlock: AJUNOK_clean_linker_0, # of connection points: 2
# Relax obj value: 0.051
# Max RMSD: 0.111
# Mean RMSD: 0.111
data_MOF--net-fcp--node1-XOMCOT_clean_sbu_0--edge1-AJUNOK_clean_linker_0
_symmetry_space_group_name_H-M    P1
_symmetry_Int_Tables_number       1
_symmetry_cell_setting            triclinic
loop_
_symmetry_equiv_pos_as_xyz
'x, y, z'
_cell_length_a     39.519903
_cell_length_b     39.521747
_cell_length_c     39.580424
_cell_angle_alpha  89.967643
_cell_angle_beta   90.045515
_cell_angle_gamma 90.01058
loop_
_atom_site_label
_atom_site_type_symbol
_atom_site_fract_x
_atom_site_fract_y
_atom_site_fract_z
_atom_type_partial_charge
Co0 Co 0.09401 0.34223 0.1924 0.0
C1 C 0.15271 0.31155 0.15652 0.0
C2 C 0.16645 0.35526 0.18541 0.0
C3 C 0.1955 0.33993 0.17435 0.0
N4 N 0.13936 0.33808 0.17367 0.0
N5 N 0.18688 0.31215 0.15667 0.0
H6 H 0.13822 0.29027 0.14741 0.0
H7 H 0.16546 0.37563 0.20357 0.0
C8 C 0.11534 0.41525 0.1804 0.0
O9 O 0.12808 0.40745 0.15075 0.0
N10 N 0.04963 0.34599 0.21227 0.0
C11 C 0.02283 0.32574 0.20656 0.0
C12 C 0.99677 0.33564 0.22749 0.0
C13 C 0.03968 0.36789 0.23647 0.0
N14 N 1.00751 0.36205 0.24623 0.0
C15 C 0.0727 0.31766 0.12725 0.0
C16 C 0.043 0.37666 0.10437 0.0
C17 C 0.04256 0.34819 0.08306 0.0
C18 C 0.05756 0.31836 0.09523 0.0
C19 C 0.05789 0.37469 0.13656 0.0
N20 N 0.07368 0.3458 0.14725 0.0
H21 H 0.08287 0.29403 0.13626 0.0
H22 H 0.05612 0.39642 0.15292 0.0
H23 H 0.02241 0.30507 0.18867 0.0
H24 H 0.05583 0.38707 0.2474 0.0
O25 O 0.09288 0.29319 0.19894 0.0
O26 O 0.11259 0.33041 0.23579 0.0
O27 O 0.09963 0.39292 0.19771 0.0
C28 C 0.10757 0.29893 0.22787 0.0
H29 H 0.22107 0.34724 0.18096 0.0
H30 H 0.97174 0.32456 0.22864 0.0
H31 H 0.03209 0.40046 0.09636 0.0
H32 H 0.0571 0.29536 0.08039 0.0
Co33 Co 0.83772 0.43344 0.33951 0.0
C34 C 0.80366 0.37692 0.37611 0.0
C35 C 0.84398 0.36031 0.34373 0.0
C36 C 0.82912 0.33238 0.35789 0.0
N37 N 0.82849 0.38824 0.35549 0.0
N38 N 0.80373 0.34273 0.37811 0.0
H39 H 0.78563 0.39319 0.38871 0.0
H40 H 0.86353 0.36014 0.32469 0.0
C41 C 0.9142 0.43646 0.32897 0.0
O42 O 0.91504 0.46957 0.33129 0.0
N43 N 0.84695 0.4786 0.32217 0.0
C44 C 0.84764 0.50827 0.33909 0.0
C45 C 0.85802 0.53341 0.31741 0.0
C46 C 0.85632 0.48643 0.29017 0.0
N47 N 0.86336 0.51963 0.28679 0.0
C48 C 0.81436 0.46315 0.40133 0.0
C49 C 0.87457 0.46096 0.43682 0.0
C50 C 0.84679 0.47762 0.45131 0.0
C51 C 0.81619 0.47775 0.43344 0.0
C52 C 0.87175 0.44675 0.40437 0.0
N53 N 0.84221 0.44908 0.38642 0.0
H54 H 0.79063 0.4645 0.38797 0.0
H55 H 0.89358 0.43428 0.39397 0.0
H56 H 0.84233 0.51174 0.36556 0.0
H57 H 0.85987 0.46799 0.27029 0.0
O58 O 0.78945 0.44061 0.33258 0.0
O59 O 0.82478 0.41935 0.29478 0.0
O60 O 0.88696 0.42013 0.33505 0.0
C61 C 0.79415 0.4282 0.30251 0.0
H62 H 0.83542 0.30627 0.35249 0.0
H63 H 0.86215 0.55973 0.32381 0.0
H64 H 0.89853 0.4597 0.45006 0.0
H65 H 0.79382 0.48945 0.44406 0.0
Co66 Co 0.92889 0.68548 0.18997 0.0
C67 C 0.86722 0.71433 0.15743 0.0
C68 C 0.85624 0.66989 0.1863 0.0
C69 C 0.82631 0.68331 0.17498 0.0
N70 N 0.88219 0.6886 0.17446 0.0
N71 N 0.83308 0.71151 0.15704 0.0
H72 H 0.88057 0.73641 0.14856 0.0
H73 H 0.85843 0.64941 0.20423 0.0
C74 C 0.90898 0.61077 0.18422 0.0
O75 O 0.89474 0.61473 0.15448 0.0
N76 N 0.97468 0.68235 0.20659 0.0
C77 C 1.00229 0.69874 0.19528 0.0
C78 C 0.02986 0.6881 0.21389 0.0
C79 C 0.98559 0.66232 0.23197 0.0
N80 N 0.0193 0.66501 0.23675 0.0
C81 C 0.94465 0.70745 0.12284 0.0
C82 C 0.97778 0.64965 0.1017 0.0
C83 C 0.97698 0.67783 0.08017 0.0
C84 C 0.95992 0.70686 0.09103 0.0
C85 C 0.96248 0.65144 0.13369 0.0
N86 N 0.94565 0.67996 0.14377 0.0
H87 H 0.93341 0.7308 0.13115 0.0
H88 H 0.96562 0.6304 0.15077 0.0
H89 H 1.00242 0.71679 0.17473 0.0
H90 H 0.96907 0.6465 0.24693 0.0
O91 O 0.93068 0.73444 0.19365 0.0
O92 O 0.9141 0.69952 0.23412 0.0
O93 O 0.92421 0.63545 0.1984 0.0
C94 C 0.91916 0.73046 0.22422 0.0
H95 H 0.80135 0.67395 0.1812 0.0
H96 H 0.0558 0.69616 0.2104 0.0
H97 H 0.99135 0.62698 0.09446 0.0
H98 H 0.959 0.72927 0.07528 0.0
Co99 Co 0.19048 0.59477 0.33291 0.0
C100 C 0.22422 0.65735 0.35995 0.0
C101 C 0.17272 0.65212 0.37627 0.0
C102 C 0.18592 0.68092 0.39047 0.0
N103 N 0.19655 0.63728 0.35692 0.0
N104 N 0.21815 0.68441 0.37998 0.0
H105 H 0.24821 0.65265 0.34773 0.0
H106 H 0.14744 0.64255 0.38027 0.0
C107 C 0.11424 0.59099 0.31984 0.0
O108 O 0.11303 0.55796 0.32333 0.0
N109 N 0.18466 0.55201 0.30917 0.0
C110 C 0.19938 0.5224 0.31765 0.0
C111 C 0.19127 0.49841 0.29382 0.0
C112 C 0.16845 0.54575 0.27962 0.0
N113 N 0.17181 0.51308 0.2701 0.0
C114 C 0.21302 0.56068 0.39261 0.0
C115 C 0.15184 0.55696 0.42601 0.0
C116 C 0.18089 0.54449 0.44219 0.0
C117 C 0.21172 0.54649 0.42491 0.0
C118 C 0.15419 0.57089 0.39346 0.0
N119 N 0.18453 0.57239 0.37685 0.0
H120 H 0.23733 0.56229 0.38042 0.0
H121 H 0.13164 0.58149 0.38264 0.0
H122 H 0.21531 0.51836 0.33943 0.0
H123 H 0.15428 0.56451 0.26556 0.0
O124 O 0.2392 0.59012 0.32736 0.0
O125 O 0.20485 0.61542 0.29123 0.0
O126 O 0.14134 0.60715 0.32673 0.0
C127 C 0.23539 0.6061 0.29883 0.0
H128 H 0.17289 0.6977 0.40771 0.0
H129 H 0.19858 0.47201 0.29412 0.0
H130 H 0.12761 0.55695 0.43876 0.0
H131 H 0.23486 0.53722 0.43631 0.0
Co132 Co 0.09528 0.68752 0.83899 0.0
C133 C 0.15819 0.72352 0.8624 0.0
C134 C 0.1526 0.67395 0.88384 0.0
C135 C 0.18195 0.68796 0.89605 0.0
N136 N 0.13774 0.69596 0.86242 0.0
N137 N 0.18555 0.71899 0.88242 0.0
H138 H 0.15364 0.74629 0.84796 0.0
H139 H 0.14269 0.64933 0.89045 0.0
C140 C 0.09353 0.61073 0.82843 0.0
O141 O 0.06034 0.60941 0.82756 0.0
N142 N 0.05248 0.67928 0.81604 0.0
C143 C 0.02152 0.68674 0.8283 0.0
C144 C 0.99744 0.67632 0.80556 0.0
C145 C 0.04674 0.66537 0.78523 0.0
N146 N 1.01324 0.66295 0.77862 0.0
C147 C 0.06399 0.71287 0.89929 0.0
C148 C 0.05359 0.65172 0.93149 0.0
C149 C 0.04352 0.68145 0.94798 0.0
C150 C 0.04867 0.71231 0.93119 0.0
C151 C 0.06847 0.65333 0.8994 0.0
N152 N 0.07331 0.68365 0.88337 0.0
H153 H 0.06804 0.73702 0.88724 0.0
H154 H 0.07657 0.62999 0.88827 0.0
H155 H 0.01642 0.69855 0.85233 0.0
H156 H 0.06644 0.65581 0.76882 0.0
O157 O 0.08972 0.73592 0.82975 0.0
O158 O 0.11587 0.69937 0.79663 0.0
O159 O 0.10867 0.6382 0.8363 0.0
C160 C 0.10646 0.73033 0.8019 0.0
H161 H 0.19918 0.67638 0.9139 0.0
H162 H 0.97027 0.67779 0.80878 0.0
H163 H 0.05058 0.6273 0.94356 0.0
H164 H 0.04068 0.73598 0.94239 0.0
Co165 Co 0.19004 0.43577 0.68697 0.0
C166 C 0.22436 0.37265 0.66276 0.0
C167 C 0.17754 0.38264 0.63713 0.0
C168 C 0.19244 0.3549 0.62236 0.0
N169 N 0.19756 0.39395 0.66237 0.0
N170 N 0.22173 0.34883 0.63855 0.0
H171 H 0.24598 0.37492 0.67932 0.0
H172 H 0.15418 0.39449 0.62919 0.0
C173 C 0.11448 0.43574 0.70246 0.0
O174 O 0.11169 0.46874 0.70495 0.0
N175 N 0.18314 0.47807 0.71085 0.0
C176 C 0.19555 0.50819 0.70075 0.0
C177 C 0.18732 0.5323 0.72432 0.0
C178 C 0.16855 0.48408 0.74121 0.0
N179 N 0.1702 0.5172 0.74958 0.0
C180 C 0.21408 0.46028 0.62355 0.0
C181 C 0.15377 0.48675 0.59993 0.0
C182 C 0.18233 0.48797 0.57896 0.0
C183 C 0.21286 0.4748 0.59133 0.0
C184 C 0.15611 0.47213 0.63211 0.0
N185 N 0.18594 0.4589 0.64351 0.0
H186 H 0.2376 0.44945 0.63231 0.0
H187 H 0.13377 0.47136 0.64743 0.0
H188 H 0.20954 0.51246 0.67768 0.0
H189 H 0.15619 0.46492 0.75637 0.0
O190 O 0.2385 0.4408 0.69546 0.0
O191 O 0.20211 0.41409 0.7286 0.0
O192 O 0.14072 0.42241 0.68919 0.0
C193 C 0.23305 0.42356 0.72309 0.0
H194 H 0.18276 0.34046 0.60122 0.0
H195 H 0.19235 0.55917 0.72244 0.0
H196 H 0.12982 0.49715 0.59162 0.0
H197 H 0.23551 0.47507 0.57593 0.0
Co198 Co 0.93865 0.33575 0.83563 0.0
C199 C 0.87575 0.30976 0.86872 0.0
C200 C 0.86621 0.35012 0.83391 0.0
C201 C 0.8358 0.33796 0.84506 0.0
N202 N 0.8915 0.33336 0.84949 0.0
N203 N 0.84159 0.31223 0.86668 0.0
H204 H 0.88877 0.28931 0.88127 0.0
H205 H 0.86941 0.36825 0.81375 0.0
C206 C 0.91629 0.40957 0.83806 0.0
O207 O 0.90136 0.40628 0.86754 0.0
N208 N 0.98481 0.33837 0.8202 0.0
C209 C 1.01222 0.32126 0.83101 0.0
C210 C 0.03976 0.3314 0.81195 0.0
C211 C 0.9958 0.3583 0.79487 0.0
N212 N 0.02919 0.35468 0.78927 0.0
C213 C 0.95402 0.31427 0.90338 0.0
C214 C 0.98177 0.37438 0.92595 0.0
C215 C 0.98144 0.34646 0.94778 0.0
C216 C 0.96749 0.3161 0.93609 0.0
C217 C 0.96856 0.37133 0.89313 0.0
N218 N 0.9541 0.34174 0.88237 0.0
H219 H 0.94452 0.29025 0.89464 0.0
H220 H 0.97113 0.39254 0.87619 0.0
H221 H 1.01223 0.303 0.85137 0.0
H222 H 0.97967 0.37502 0.78052 0.0
O223 O 0.93962 0.28652 0.83208 0.0
O224 O 0.92511 0.32178 0.79111 0.0
O225 O 0.93454 0.38571 0.82638 0.0
C226 C 0.92919 0.29078 0.80109 0.0
H227 H 0.81123 0.34635 0.83636 0.0
H228 H 0.06563 0.32298 0.81514 0.0
H229 H 0.99312 0.39804 0.93384 0.0
H230 H 0.96734 0.2938 0.95202 0.0
Co231 Co 0.84203 0.59359 0.69343 0.0
C232 C 0.81407 0.65371 0.6584 0.0
C233 C 0.8585 0.66575 0.68698 0.0
C234 C 0.84429 0.69538 0.67571 0.0
N235 N 0.84006 0.63937 0.67555 0.0
N236 N 0.81608 0.68776 0.6582 0.0
H237 H 0.79207 0.64015 0.64962 0.0
H238 H 0.87901 0.66401 0.70495 0.0
C239 C 0.91657 0.61153 0.68476 0.0
O240 O 0.91113 0.62416 0.65452 0.0
N241 N 0.84339 0.54868 0.71218 0.0
C242 C 0.82554 0.52168 0.70157 0.0
C243 C 0.83413 0.49431 0.72131 0.0
C244 C 0.86211 0.53774 0.73855 0.0
N245 N 0.85701 0.50454 0.74446 0.0
C246 C 0.81933 0.5755 0.62677 0.0
C247 C 0.87685 0.54136 0.60653 0.0
C248 C 0.84968 0.54391 0.58378 0.0
C249 C 0.82046 0.56083 0.59464 0.0
C250 C 0.87464 0.5564 0.63861 0.0
N251 N 0.84654 0.57431 0.64801 0.0
H252 H 0.79594 0.58676 0.63493 0.0
H253 H 0.89527 0.55277 0.6561 0.0
H254 H 0.8079 0.52181 0.68067 0.0
H255 H 0.8797 0.55342 0.75249 0.0
O256 O 0.79289 0.59388 0.69832 0.0
O257 O 0.82948 0.61112 0.73688 0.0
O258 O 0.89252 0.59711 0.70082 0.0
C259 C 0.79812 0.60672 0.72823 0.0
H260 H 0.85269 0.72068 0.68202 0.0
H261 H 0.82475 0.46871 0.71861 0.0
H262 H 0.89963 0.52778 0.59965 0.0
H263 H 0.79815 0.56197 0.57877 0.0
Co264 Co 0.19326 0.09977 0.34367 0.0
C265 C 0.16006 0.16148 0.31458 0.0
C266 C 0.18838 0.17216 0.35944 0.0
C267 C 0.17735 0.2022 0.34605 0.0
N268 N 0.1768 0.14628 0.34045 0.0
N269 N 0.16009 0.19564 0.31744 0.0
H270 H 0.15072 0.14837 0.29254 0.0
H271 H 0.20586 0.16981 0.3803 0.0
C272 C 0.18163 0.11891 0.4169 0.0
O273 O 0.15171 0.13124 0.40922 0.0
N274 N 0.21085 0.05421 0.34636 0.0
C275 C 0.20451 0.02859 0.3248 0.0
C276 C 0.22371 1.001 0.33424 0.0
C277 C 0.23372 0.04198 0.36859 0.0
N278 N 0.24182 1.00951 0.36183 0.0
C279 C 0.12582 0.08303 0.32122 0.0
C280 C 0.10639 0.04804 0.37856 0.0
C281 C 0.08371 0.05016 0.35145 0.0
C282 C 0.09388 0.06763 0.32237 0.0
C283 C 0.13838 0.06316 0.37609 0.0
N284 N 0.14741 0.08149 0.34815 0.0
H285 H 0.13361 0.09507 0.29808 0.0
H286 H 0.1562 0.05909 0.39635 0.0
H287 H 0.18737 0.03001 0.30353 0.0
H288 H 0.24488 0.05668 0.38874 0.0
O289 O 0.19853 0.09879 0.29478 0.0
O290 O 0.23748 0.11579 0.33116 0.0
O291 O 0.19956 0.1045 0.39422 0.0
C292 C 0.22887 0.11075 0.29989 0.0
H293 H 0.18297 0.22709 0.35595 0.0
H294 H 0.22411 0.97648 0.32208 0.0
H295 H 0.09989 0.03378 0.40102 0.0
H296 H 0.07736 0.06911 0.30056 0.0
Co297 Co 0.603 0.33704 0.18346 0.0
C298 C 0.65997 0.37662 0.21197 0.0
C299 C 0.67553 0.34384 0.17159 0.0
C300 C 0.70368 0.35963 0.18444 0.0
N301 N 0.64815 0.35472 0.18859 0.0
N302 N 0.69391 0.38034 0.20971 0.0
H303 H 0.64429 0.38861 0.23091 0.0
H304 H 0.67532 0.32429 0.15252 0.0
C305 C 0.5957 0.33338 0.10594 0.0
O306 O 0.56347 0.34148 0.10558 0.0
N307 N 0.5576 0.31841 0.1787 0.0
C308 C 0.53099 0.3259 0.19863 0.0
C309 C 0.50372 0.30678 0.18896 0.0
C310 C 0.54629 0.29349 0.15796 0.0
N311 N 0.51309 0.28677 0.16308 0.0
C312 C 0.57084 0.39743 0.20806 0.0
C313 C 0.57528 0.43556 0.14977 0.0
C314 C 0.55843 0.44932 0.17776 0.0
C315 C 0.55671 0.42985 0.20729 0.0
C316 C 0.58927 0.40294 0.15168 0.0
N317 N 0.58556 0.38352 0.18009 0.0
H318 H 0.56976 0.3835 0.23145 0.0
H319 H 0.60358 0.39398 0.13039 0.0
H320 H 0.53125 0.34328 0.21957 0.0
H321 H 0.56176 0.28083 0.1393 0.0
O322 O 0.60065 0.33022 0.23217 0.0
O323 O 0.61944 0.2927 0.19532 0.0
O324 O 0.6123 0.33271 0.13359 0.0
C325 C 0.61362 0.30043 0.22664 0.0
H326 H 0.72959 0.35454 0.17719 0.0
H327 H 0.47885 0.30727 0.20041 0.0
H328 H 0.57814 0.45013 0.12676 0.0
H329 H 0.54414 0.4394 0.22964 0.0
Co330 Co 0.84275 0.93022 0.34529 0.0
C331 C 0.86619 0.86718 0.31061 0.0
C332 C 0.88496 0.87147 0.36129 0.0
C333 C 0.89804 0.84254 0.34717 0.0
N334 N 0.86468 0.88683 0.33855 0.0
N335 N 0.8864 0.83999 0.31527 0.0
H336 H 0.85287 0.87244 0.28734 0.0
H337 H 0.89066 0.88107 0.38621 0.0
C338 C 0.82857 0.93281 0.42171 0.0
O339 O 0.82857 0.96599 0.4233 0.0
N340 N 0.82151 0.97411 0.35144 0.0
C341 C 0.83422 1.0036 0.33995 0.0
C342 C 0.81284 0.02939 0.34886 0.0
C343 C 0.79154 0.98228 0.36594 0.0
N344 N 0.78627 0.0161 0.36549 0.0
C345 C 0.90528 0.95749 0.32115 0.0
C346 C 0.9344 0.97294 0.38264 0.0
C347 C 0.95192 0.98179 0.35301 0.0
C348 C 0.93686 0.97344 0.32199 0.0
C349 C 0.90239 0.95761 0.38068 0.0
N350 N 0.88781 0.9506 0.35013 0.0
H351 H 0.89459 0.95129 0.29685 0.0
H352 H 0.88989 0.95122 0.40389 0.0
H353 H 0.85763 1.00646 0.32622 0.0
H354 H 0.77495 0.96422 0.37813 0.0
O355 O 0.83583 0.93531 0.2967 0.0
O356 O 0.79979 0.91147 0.33206 0.0
O357 O 0.83766 0.91763 0.39469 0.0
C358 C 0.80673 0.92049 0.30133 0.0
H359 H 0.91548 0.82513 0.35913 0.0
H360 H 0.81689 0.05611 0.3443 0.0
H361 H 0.94542 0.97735 0.40729 0.0
H362 H 0.94913 0.97956 0.29832 0.0
Co363 Co 0.43354 0.68723 0.1798 0.0
C364 C 0.37127 0.66085 0.21327 0.0
C365 C 0.37442 0.64619 0.16119 0.0
C366 C 0.34566 0.63217 0.17485 0.0
N367 N 0.39035 0.6645 0.18515 0.0
N368 N 0.34388 0.64123 0.2076 0.0
H369 H 0.37703 0.67228 0.23739 0.0
H370 H 0.38341 0.64254 0.13566 0.0
C371 C 0.43866 0.70369 0.10394 0.0
O372 O 0.47184 0.70374 0.10262 0.0
N373 N 0.47681 0.70946 0.17507 0.0
C374 C 0.5063 0.69835 0.18807 0.0
C375 C 0.53102 0.72188 0.18143 0.0
C376 C 0.48371 0.74013 0.16162 0.0
N377 N 0.51678 0.74798 0.16475 0.0
C378 C 0.45544 0.62284 0.20371 0.0
C379 C 0.4872 0.60049 0.14569 0.0
C380 C 0.48903 0.58035 0.17486 0.0
C381 C 0.47222 0.59168 0.20393 0.0
C382 C 0.47006 0.6316 0.14655 0.0
N383 N 0.45502 0.6428 0.17554 0.0
H384 H 0.44289 0.63113 0.22648 0.0
H385 H 0.46946 0.6465 0.12395 0.0
H386 H 0.50968 0.67476 0.20149 0.0
H387 H 0.46515 0.75607 0.1493 0.0
O388 O 0.43715 0.69398 0.22865 0.0
O389 O 0.41345 0.72964 0.19281 0.0
O390 O 0.42283 0.69231 0.12982 0.0
C391 C 0.4218 0.7228 0.22376 0.0
H392 H 0.32776 0.61596 0.16192 0.0
H393 H 0.55766 0.71956 0.18743 0.0
H394 H 0.49953 0.59263 0.12257 0.0
H395 H 0.47198 0.57655 0.22675 0.0
Co396 Co 0.18745 0.92682 0.67844 0.0
C397 C 0.15479 0.86573 0.70871 0.0
C398 C 0.18423 0.85349 0.66506 0.0
C399 C 0.17263 0.82397 0.67917 0.0
N400 N 0.17228 0.87999 0.68285 0.0
N401 N 0.15428 0.83152 0.70688 0.0
H402 H 0.14549 0.87971 0.73017 0.0
H403 H 0.20236 0.85501 0.64474 0.0
C404 C 0.18533 0.90478 0.60402 0.0
O405 O 0.1549 0.89169 0.60684 0.0
N406 N 0.20351 0.97277 0.67439 0.0
C407 C 0.19099 1.00048 0.68965 0.0
C408 C 0.20985 0.02808 0.67969 0.0
C409 C 0.22987 0.98368 0.65564 0.0
N410 N 0.23416 0.0175 0.65817 0.0
C411 C 0.11866 0.94188 0.69596 0.0
C412 C 0.10148 0.976 0.63743 0.0
C413 C 0.07831 0.97531 0.66423 0.0
C414 C 0.08712 0.95777 0.6936 0.0
C415 C 0.13303 0.95989 0.64089 0.0
N416 N 0.14126 0.94277 0.66985 0.0
H417 H 0.12552 0.93063 0.71973 0.0
H418 H 0.15143 0.96286 0.62097 0.0
H419 H 0.16958 1.00061 0.70665 0.0
H420 H 0.24594 0.96708 0.64106 0.0
O421 O 0.18858 0.93058 0.72748 0.0
O422 O 0.23123 0.91357 0.69529 0.0
O423 O 0.19873 0.92018 0.62905 0.0
C424 C 0.21966 0.91986 0.72533 0.0
H425 H 0.1788 0.79874 0.67053 0.0
H426 H 0.20568 0.05405 0.6873 0.0
H427 H 0.09585 0.9901 0.61464 0.0
H428 H 0.0702 0.95738 0.71512 0.0
Co429 Co 0.43054 0.33699 0.83956 0.0
C430 C 0.36939 0.37199 0.81242 0.0
C431 C 0.35773 0.33901 0.85372 0.0
C432 C 0.32801 0.35144 0.84087 0.0
N433 N 0.38393 0.35264 0.83671 0.0
N434 N 0.33518 0.37197 0.8146 0.0
H435 H 0.38314 0.38306 0.79165 0.0
H436 H 0.3597 0.3193 0.87253 0.0
C437 C 0.4087 0.33948 0.91355 0.0
O438 O 0.39493 0.3696 0.91059 0.0
N439 N 0.47632 0.32032 0.8423 0.0
C440 C 0.50466 0.33459 0.83002 0.0
C441 C 0.53195 0.31541 0.84021 0.0
C442 C 0.48656 0.29248 0.85913 0.0
N443 N 0.52056 0.28902 0.85874 0.0
C444 C 0.44752 0.40495 0.81968 0.0
C445 C 0.47758 0.42445 0.87965 0.0
C446 C 0.4779 0.44722 0.8524 0.0
C447 C 0.46232 0.43705 0.82219 0.0
C448 C 0.46273 0.39242 0.87599 0.0
N449 N 0.44732 0.38314 0.84646 0.0
H450 H 0.43757 0.39714 0.79556 0.0
H451 H 0.46493 0.37478 0.89665 0.0
H452 H 0.50555 0.35771 0.81543 0.0
H453 H 0.46931 0.27505 0.87106 0.0
O454 O 0.43206 0.33357 0.7903 0.0
O455 O 0.41566 0.29323 0.82532 0.0
O456 O 0.42576 0.32702 0.88924 0.0
C457 C 0.4206 0.30284 0.79442 0.0
H458 H 0.30292 0.3443 0.84916 0.0
H459 H 0.55826 0.3211 0.83521 0.0
H460 H 0.48904 0.43109 0.9036 0.0
H461 H 0.46257 0.45332 0.80017 0.0
Co462 Co 0.8394 0.09637 0.68409 0.0
C463 C 0.87851 0.1554 0.70914 0.0
C464 C 0.84036 0.16971 0.67339 0.0
C465 C 0.85405 0.19861 0.68702 0.0
N466 N 0.85619 0.14249 0.6866 0.0
N467 N 0.87775 0.18959 0.70977 0.0
H468 H 0.89347 0.14031 0.72623 0.0
H469 H 0.81856 0.16865 0.65691 0.0
C470 C 0.84008 0.12041 0.61112 0.0
O471 O 0.86936 0.13579 0.61453 0.0
N472 N 0.82172 0.05093 0.68235 0.0
C473 C 0.83077 0.02512 0.70259 0.0
C474 C 0.81153 0.99731 0.69437 0.0
C475 C 0.79688 0.0387 0.66228 0.0
N476 N 0.79047 1.00576 0.66882 0.0
C477 C 0.90611 0.0751 0.70406 0.0
C478 C 0.92674 0.04994 0.64232 0.0
C479 C 0.9491 0.04755 0.66981 0.0
C480 C 0.93806 0.06009 0.70109 0.0
C481 C 0.8948 0.06498 0.64642 0.0
N482 N 0.88507 0.07826 0.67683 0.0
H483 H 0.89791 0.08321 0.72874 0.0
H484 H 0.87772 0.06483 0.6252 0.0
H485 H 0.84975 0.02656 0.72223 0.0
H486 H 0.78395 0.05341 0.64317 0.0
O487 O 0.83673 0.09559 0.73341 0.0
O488 O 0.79609 0.11227 0.69883 0.0
O489 O 0.82893 0.10122 0.63453 0.0
C490 C 0.80616 0.10748 0.72962 0.0
H491 H 0.84543 0.22422 0.6825 0.0
H492 H 0.81261 0.97285 0.70664 0.0
H493 H 0.93373 0.04 0.6178 0.0
H494 H 0.95355 0.05742 0.72352 0.0
Co495 Co 0.59819 0.68805 0.84695 0.0
C496 C 0.66076 0.66232 0.81233 0.0
C497 C 0.65666 0.64574 0.86381 0.0
C498 C 0.6858 0.63254 0.85036 0.0
N499 N 0.64096 0.66471 0.84019 0.0
N500 N 0.68851 0.64315 0.81814 0.0
H501 H 0.65543 0.67445 0.78842 0.0
H502 H 0.64748 0.64136 0.88914 0.0
C503 C 0.59465 0.69872 0.92381 0.0
O504 O 0.56157 0.69588 0.9251 0.0
N505 N 0.55521 0.71106 0.85368 0.0
C506 C 0.52542 0.70155 0.8401 0.0
C507 C 0.50107 0.72465 0.84883 0.0
C508 C 0.54861 0.74055 0.86995 0.0
N509 N 0.51548 0.74906 0.86773 0.0
C510 C 0.56416 0.6285 0.82315 0.0
C511 C 0.55865 0.59465 0.88393 0.0
C512 C 0.54504 0.57961 0.85485 0.0
C513 C 0.54806 0.59699 0.82419 0.0
C514 C 0.57425 0.62653 0.88188 0.0
N515 N 0.57624 0.64359 0.85183 0.0
H516 H 0.56642 0.64095 0.79902 0.0
H517 H 0.58515 0.63669 0.90456 0.0
H518 H 0.52145 0.67969 0.82431 0.0
H519 H 0.5676 0.75548 0.88285 0.0
O520 O 0.59341 0.69514 0.79828 0.0
O521 O 0.61839 0.73047 0.83346 0.0
O522 O 0.61052 0.69293 0.89629 0.0
C523 C 0.60915 0.72377 0.80273 0.0
H524 H 0.70347 0.61599 0.86318 0.0
H525 H 0.47458 0.7235 0.84192 0.0
H526 H 0.5571 0.58199 0.90815 0.0
H527 H 0.53843 0.58608 0.80099 0.0
Co528 Co 0.33648 0.19094 0.09627 0.0
C529 C 0.30954 0.16388 0.16148 0.0
C530 C 0.36167 0.15088 0.1546 0.0
C531 C 0.35075 0.13725 0.18472 0.0
N532 N 0.33597 0.16802 0.14005 0.0
N533 N 0.31801 0.14562 0.18903 0.0
H534 H 0.28437 0.17359 0.1572 0.0
H535 H 0.38642 0.14741 0.14386 0.0
C536 C 0.41629 0.19434 0.10303 0.0
O537 O 0.42443 0.16299 0.09564 0.0
N538 N 0.33658 0.21362 0.05299 0.0
C539 C 0.31701 0.2054 0.02635 0.0
C540 C 0.32498 0.2264 0.99979 0.0
C541 C 0.3559 0.2398 0.04251 0.0
N542 N 0.34922 0.24803 1.01013 0.0
C543 C 0.32405 0.12158 0.08102 0.0
C544 C 0.37315 0.11336 0.03194 0.0
C545 C 0.35151 0.08607 0.03922 0.0
C546 C 0.32677 0.09062 0.06418 0.0
C547 C 0.36938 0.14418 0.04931 0.0
N548 N 0.34534 0.14781 0.07387 0.0
H549 H 0.3042 0.12477 0.09951 0.0
H550 H 0.3852 0.1654 0.0424 0.0
H551 H 0.29887 0.18489 0.02603 0.0
H552 H 0.37528 0.25173 0.05754 0.0
O553 O 0.28698 0.19129 0.09511 0.0
O554 O 0.31967 0.23129 0.11705 0.0
O555 O 0.38543 0.20385 0.10311 0.0
C556 C 0.28942 0.22048 0.11041 0.0
H557 H 0.3655 0.12153 0.20159 0.0
H558 H 0.31458 0.22531 0.97449 0.0
H559 H 0.39207 0.11126 1.01229 0.0
H560 H 0.30941 0.07038 0.07053 0.0
Co561 Co 0.34206 0.84344 0.92346 0.0
C562 C 0.30766 0.87657 0.86534 0.0
C563 C 0.36054 0.8698 0.85567 0.0
C564 C 0.34559 0.88283 0.82713 0.0
N565 N 0.33674 0.8654 0.87964 0.0
N566 N 0.31222 0.8868 0.83303 0.0
H567 H 0.28361 0.87713 0.87827 0.0
H568 H 0.38693 0.86367 0.85816 0.0
C569 C 0.42028 0.84002 0.92858 0.0
O570 O 0.42191 0.853 0.95909 0.0
N571 N 0.34622 0.82091 0.9675 0.0
C572 C 0.32121 0.81949 0.99069 0.0
C573 C 0.33116 0.79981 0.01733 0.0
C574 C 0.37084 0.80057 0.98037 0.0
N575 N 0.36271 0.78845 1.0114 0.0
C576 C 0.32375 0.89928 0.96618 0.0
C577 C 0.37645 0.94192 0.94912 0.0
C578 C 0.35239 0.95331 0.97267 0.0
C579 C 0.32574 0.93137 0.98093 0.0
C580 C 0.37361 0.90936 0.93505 0.0
N581 N 0.34795 0.88804 0.94431 0.0
H582 H 0.30206 0.88386 0.97182 0.0
H583 H 0.39163 0.90177 0.91604 0.0
H584 H 0.29644 0.83067 0.98816 0.0
H585 H 0.39384 0.79392 0.96733 0.0
O586 O 0.29292 0.83841 0.92614 0.0
O587 O 0.32812 0.80116 0.90393 0.0
O588 O 0.39181 0.8368 0.91362 0.0
C589 C 0.2972 0.80928 0.91128 0.0
H590 H 0.35823 0.88786 0.80341 0.0
H591 H 0.31564 0.79341 0.03891 0.0
H592 H 0.39676 0.95833 0.94085 0.0
H593 H 0.30626 0.93898 0.99858 0.0
Co594 Co 0.3375 0.18881 0.59463 0.0
C595 C 0.36945 0.22076 0.65538 0.0
C596 C 0.37923 0.16746 0.6526 0.0
C597 C 0.39415 0.17991 0.68137 0.0
N598 N 0.36358 0.19297 0.63618 0.0
N599 N 0.38765 0.21331 0.68331 0.0
H600 H 0.35989 0.24578 0.64985 0.0
H601 H 0.37948 0.14132 0.64474 0.0
C602 C 0.32189 0.11308 0.59043 0.0
O603 O 0.32787 0.11186 0.5578 0.0
N604 N 0.31128 0.18525 0.55304 0.0
C605 C 0.31615 0.20397 0.5249 0.0
C606 C 0.29083 0.1972 0.50211 0.0
C607 C 0.28222 0.16799 0.54716 0.0
N608 N 0.26968 0.17457 0.51607 0.0
C609 C 0.39484 0.20488 0.55324 0.0
C610 C 0.42807 0.14361 0.558 0.0
C611 C 0.44318 0.16989 0.53967 0.0
C612 C 0.42604 0.20072 0.5372 0.0
C613 C 0.39637 0.1486 0.57315 0.0
N614 N 0.37975 0.17891 0.5704 0.0
H615 H 0.3833 0.22955 0.55236 0.0
H616 H 0.38619 0.12823 0.58796 0.0
H617 H 0.33615 0.2221 0.52116 0.0
H618 H 0.27025 0.15122 0.56516 0.0
O619 O 0.33607 0.23776 0.58969 0.0
O620 O 0.29825 0.20684 0.61716 0.0
O621 O 0.32754 0.14024 0.60695 0.0
C622 C 0.30803 0.23644 0.60691 0.0
H623 H 0.40845 0.16537 0.69964 0.0
H624 H 0.28841 0.20759 0.47691 0.0
H625 H 0.4408 0.11951 0.56084 0.0
H626 H 0.43724 0.2219 0.52388 0.0
Co627 Co 0.69039 0.19112 0.92941 0.0
C628 C 0.72435 0.16323 0.86746 0.0
C629 C 0.67434 0.14357 0.87528 0.0
C630 C 0.68751 0.12892 0.84677 0.0
N631 N 0.69722 0.1653 0.88826 0.0
N632 N 0.71878 0.14149 0.84171 0.0
H633 H 0.74754 0.1774 0.8706 0.0
H634 H 0.6497 0.13841 0.88592 0.0
C635 C 0.61367 0.20289 0.93131 0.0
O636 O 0.61149 0.20072 0.96435 0.0
N637 N 0.68368 0.21636 0.97093 0.0
C638 C 0.69832 0.20883 1.00074 0.0
C639 C 0.68854 0.23233 0.02431 0.0
C640 C 0.66582 0.24508 0.97659 0.0
N641 N 0.66787 0.25488 1.00927 0.0
C642 C 0.71448 0.13231 0.96357 0.0
C643 C 0.65321 0.10026 0.97357 0.0
C644 C 0.68297 0.0839 0.98366 0.0
C645 C 0.71383 0.10047 0.97877 0.0
C646 C 0.65496 0.13215 0.95818 0.0
N647 N 0.68536 0.14811 0.95359 0.0
H648 H 0.73876 0.14399 0.95954 0.0
H649 H 0.63183 0.14284 0.94896 0.0
H650 H 0.71505 0.1877 1.00519 0.0
H651 H 0.65136 0.25825 0.95743 0.0
O652 O 0.73904 0.1982 0.93433 0.0
O653 O 0.70404 0.23203 0.90681 0.0
O654 O 0.64123 0.19555 0.91617 0.0
C655 C 0.7347 0.22559 0.9166 0.0
H656 H 0.67513 0.11018 0.83111 0.0
H657 H 0.69533 0.23233 0.05082 0.0
H658 H 0.62887 0.08801 0.9765 0.0
H659 H 0.73742 0.08882 0.98649 0.0
Co660 Co 0.69013 0.83431 0.59921 0.0
C661 C 0.66344 0.80493 0.66401 0.0
C662 C 0.6483 0.85652 0.65703 0.0
C663 C 0.63482 0.84494 0.68695 0.0
N664 N 0.66665 0.83163 0.64265 0.0
N665 N 0.64449 0.81255 0.69137 0.0
H666 H 0.67445 0.78026 0.65985 0.0
H667 H 0.64405 0.8812 0.64621 0.0
C668 C 0.69271 0.91432 0.60823 0.0
O669 O 0.66237 0.92441 0.59917 0.0
N670 N 0.71361 0.83714 0.55623 0.0
C671 C 0.70918 0.81628 0.5297 0.0
C672 C 0.73032 0.82637 0.50393 0.0
C673 C 0.73729 0.85975 0.54619 0.0
N674 N 0.7481 0.85358 0.51439 0.0
C675 C 0.62094 0.82047 0.58362 0.0
C676 C 0.61235 0.86943 0.53441 0.0
C677 C 0.58517 0.84783 0.54205 0.0
C678 C 0.58974 0.82332 0.56719 0.0
C679 C 0.64308 0.8662 0.55205 0.0
N680 N 0.64698 0.84201 0.57644 0.0
H681 H 0.62437 0.80051 0.60197 0.0
H682 H 0.66393 0.88268 0.54563 0.0
H683 H 0.69143 0.79547 0.52898 0.0
H684 H 0.74648 0.88032 0.56161 0.0
O685 O 0.69282 0.78493 0.59693 0.0
O686 O 0.73085 0.8191 0.62017 0.0
O687 O 0.70053 0.88311 0.60775 0.0
C688 C 0.72159 0.78853 0.61288 0.0
H689 H 0.61839 0.85899 0.70371 0.0
H690 H 0.73174 0.81513 0.47904 0.0
H691 H 0.60984 0.88863 0.51503 0.0
H692 H 0.56956 0.80586 0.57348 0.0
Co693 Co 0.6877 0.84295 0.10084 0.0
C694 C 0.72167 0.86777 0.16411 0.0
C695 C 0.67124 0.88695 0.15794 0.0
C696 C 0.68451 0.90009 0.1872 0.0
N697 N 0.69428 0.86635 0.14353 0.0
N698 N 0.71609 0.88789 0.19116 0.0
H699 H 0.74515 0.85445 0.15972 0.0
H700 H 0.64655 0.89262 0.14762 0.0
C701 C 0.61106 0.83249 0.09592 0.0
O702 O 0.61069 0.83326 0.06274 0.0
N703 N 0.68133 0.82011 0.05788 0.0
C704 C 0.6935 0.83092 0.028 0.0
C705 C 0.6844 0.80829 1.00335 0.0
C706 C 0.66578 0.79029 0.05109 0.0
N707 N 0.66672 0.78288 0.01769 0.0
C708 C 0.71375 0.90367 0.07158 0.0
C709 C 0.65286 0.93436 0.05621 0.0
C710 C 0.68296 0.95076 0.04729 0.0
C711 C 0.7137 0.93523 0.05566 0.0
C712 C 0.65402 0.90278 0.07214 0.0
N713 N 0.68421 0.88724 0.07889 0.0
H714 H 0.73778 0.89244 0.07794 0.0
H715 H 0.63041 0.89167 0.07933 0.0
H716 H 0.70797 0.85376 0.02415 0.0
H717 H 0.65367 0.77476 0.07009 0.0
O718 O 0.7362 0.83465 0.09668 0.0
O719 O 0.69952 0.80056 0.1216 0.0
O720 O 0.63805 0.83951 0.11224 0.0
C721 C 0.73059 0.80647 0.11285 0.0
H722 H 0.67213 0.91784 0.20395 0.0
H723 H 0.6896 0.81085 0.97661 0.0
H724 H 0.62854 0.94575 0.05072 0.0
H725 H 0.7376 0.94753 0.05032 0.0
Co726 Co 0.34352 0.83878 0.42564 0.0
C727 C 0.36757 0.80696 0.36109 0.0
C728 C 0.38282 0.85884 0.36594 0.0
C729 C 0.39577 0.84624 0.33625 0.0
N730 N 0.36479 0.83441 0.38147 0.0
N731 N 0.38604 0.8137 0.33313 0.0
H732 H 0.35657 0.78249 0.36643 0.0
H733 H 0.38713 0.88394 0.37592 0.0
C734 C 0.32513 0.9133 0.43372 0.0
O735 O 0.32537 0.91171 0.46682 0.0
N736 N 0.32232 0.84252 0.46993 0.0
C737 C 0.33697 0.83558 0.49993 0.0
C738 C 0.31466 0.84347 0.52537 0.0
C739 C 0.29048 0.85284 0.47759 0.0
N740 N 0.28557 0.85442 0.51136 0.0
C741 C 0.4105 0.81737 0.44291 0.0
C742 C 0.43155 0.87542 0.47569 0.0
C743 C 0.45389 0.84798 0.47375 0.0
C744 C 0.44314 0.81878 0.45678 0.0
C745 C 0.39939 0.87324 0.46085 0.0
N746 N 0.38883 0.84422 0.44525 0.0
H747 H 0.40254 0.79452 0.43021 0.0
H748 H 0.38322 0.89487 0.4625 0.0
H749 H 0.36245 0.82625 0.50331 0.0
H750 H 0.27229 0.86147 0.45902 0.0
O751 O 0.33827 0.78976 0.42886 0.0
O752 O 0.30086 0.82518 0.40696 0.0
O753 O 0.3369 0.88891 0.41594 0.0
C754 C 0.30875 0.79427 0.4147 0.0
H755 H 0.41195 0.85973 0.31878 0.0
H756 H 0.31973 0.84229 0.55223 0.0
H757 H 0.43899 0.89851 0.48843 0.0
H758 H 0.45957 0.79694 0.45483 0.0
Co759 Co 0.68669 0.18852 0.43187 0.0
C760 C 0.66908 0.2162 0.36342 0.0
C761 C 0.64664 0.16772 0.37214 0.0
C762 C 0.63552 0.17958 0.34146 0.0
N763 N 0.66803 0.19041 0.38606 0.0
N764 N 0.64965 0.21005 0.336 0.0
H765 H 0.68281 0.23952 0.36702 0.0
H766 H 0.6373 0.14532 0.38427 0.0
C767 C 0.68962 0.10976 0.42081 0.0
O768 O 0.65702 0.10364 0.42215 0.0
N769 N 0.70516 0.18699 0.47717 0.0
C770 C 0.69051 0.19859 0.50563 0.0
C771 C 0.7111 0.19087 0.53263 0.0
C772 C 0.73506 0.17375 0.48702 0.0
N773 N 0.73907 0.17531 0.52085 0.0
C774 C 0.61627 0.19956 0.44168 0.0
C775 C 0.60424 0.1469 0.4861 0.0
C776 C 0.5776 0.16921 0.4784 0.0
C777 C 0.58408 0.19569 0.45567 0.0
C778 C 0.63633 0.15195 0.47179 0.0
N779 N 0.64187 0.17776 0.44949 0.0
H780 H 0.62095 0.22068 0.42496 0.0
H781 H 0.65695 0.13563 0.47931 0.0
H782 H 0.66615 0.211 0.50677 0.0
H783 H 0.75326 0.16297 0.46992 0.0
O784 O 0.68512 0.2378 0.43507 0.0
O785 O 0.72855 0.20753 0.41653 0.0
O786 O 0.70132 0.13974 0.42467 0.0
C787 C 0.7162 0.23704 0.42391 0.0
H788 H 0.61678 0.16768 0.32543 0.0
H789 H 0.70575 0.19583 0.55899 0.0
H790 H 0.6005 0.12584 0.50319 0.0
H791 H 0.56465 0.21397 0.44938 0.0
C792 C 0.17408 0.48198 0.21627 0.0
C793 C 0.1551 0.49538 0.24311 0.0
C794 C 0.15994 0.45825 0.19386 0.0
C795 C 0.12656 0.44644 0.19815 0.0
H796 H 0.20054 0.48865 0.21375 0.0
H797 H 0.17609 0.44721 0.17472 0.0
S798 S 0.06598 0.47544 0.26354 0.0
N799 N 0.10096 0.49688 0.27161 0.0
N800 N 0.0743 0.45201 0.23001 0.0
C801 C 0.10687 0.46109 0.22391 0.0
C802 C 0.12118 0.48559 0.24631 0.0
C803 C 0.98624 0.4163 0.26879 0.0
C804 C 0.98799 0.38082 0.27055 0.0
C805 C 0.96392 0.4346 0.28957 0.0
C806 C 0.94277 0.41797 0.31296 0.0
H807 H 1.00084 0.42976 0.24996 0.0
H808 H 0.9619 0.46168 0.28585 0.0
S809 S 0.94306 0.3259 0.33165 0.0
N810 N 0.97017 0.33019 0.3002 0.0
N811 N 0.92906 0.36437 0.33996 0.0
C812 C 0.94643 0.38272 0.31669 0.0
C813 C 0.96877 0.36417 0.29526 0.0
C814 C 0.90727 0.55588 0.26231 0.0
C815 C 0.87774 0.53671 0.25814 0.0
C816 C 0.91884 0.57735 0.23672 0.0
C817 C 0.90101 0.58111 0.20607 0.0
H818 H 0.92078 0.55521 0.28612 0.0
H819 H 0.94092 0.59261 0.24192 0.0
S820 S 0.82398 0.5331 0.18162 0.0
N821 N 0.8326 0.5198 0.22027 0.0
N822 N 0.85376 0.56086 0.17202 0.0
C823 C 0.87267 0.56008 0.20068 0.0
C824 C 0.86113 0.53778 0.22681 0.0
C825 C 0.09016 0.64493 0.29685 0.0
C826 C 0.08636 0.60989 0.30275 0.0
C827 C 0.06772 0.66279 0.27602 0.0
C828 C 0.04021 0.64662 0.26042 0.0
H829 H 0.1114 0.65866 0.30741 0.0
H830 H 0.07222 0.68946 0.27165 0.0
S831 S 0.01701 0.55604 0.26921 0.0
N832 N 0.05133 0.56023 0.29267 0.0
N833 N 1.00942 0.59389 0.25329 0.0
C834 C 0.03505 0.61203 0.26722 0.0
C835 C 0.058 0.59369 0.28844 0.0
C836 C 0.11701 0.5318 0.7787 0.0
C837 C 0.15232 0.53485 0.77585 0.0
C838 C 0.09815 0.55503 0.79794 0.0
C839 C 0.11403 0.58199 0.81511 0.0
H840 H 0.1037 0.5129 0.76399 0.0
H841 H 0.07082 0.55301 0.79754 0.0
S842 S 0.20688 0.59657 0.82033 0.0
N843 N 0.20287 0.56371 0.7949 0.0
N844 N 0.16805 0.60689 0.83168 0.0
C845 C 0.14974 0.58317 0.81481 0.0
C846 C 0.16871 0.55976 0.79498 0.0
C847 C 0.04282 0.40842 0.76045 0.0
C848 C 0.04919 0.37374 0.76545 0.0
C849 C 0.06296 0.42794 0.73871 0.0
C850 C 0.09011 0.41349 0.72074 0.0
H851 H 0.02281 0.42085 0.7744 0.0
H852 H 0.05779 0.45479 0.73687 0.0
S853 S 0.11447 0.32251 0.72201 0.0
N854 N 0.08248 0.32506 0.74868 0.0
N855 N 0.1203 0.36126 0.70755 0.0
C856 C 0.09559 0.37831 0.72429 0.0
C857 C 0.07524 0.3586 0.74676 0.0
C858 C 0.88846 0.46575 0.82552 0.0
C859 C 0.90505 0.43636 0.81397 0.0
C860 C 0.87397 0.48898 0.80266 0.0
C861 C 0.87504 0.48314 0.76764 0.0
H862 H 0.88597 0.47045 0.85236 0.0
H863 H 0.86067 0.51086 0.81236 0.0
S864 S 0.9163 0.41165 0.72378 0.0
N865 N 0.92244 0.40403 0.76429 0.0
N866 N 0.89511 0.44756 0.72225 0.0
C867 C 0.89229 0.45472 0.75572 0.0
C868 C 0.90734 0.43137 0.77864 0.0
C869 C 0.97743 0.61654 0.75855 0.0
C870 C 0.99638 0.64569 0.75145 0.0
C871 C 0.95378 0.6039 0.73535 0.0
C872 C 0.94773 0.62027 0.70424 0.0
H873 H 0.97958 0.60461 0.7831 0.0
H874 H 0.93869 0.58228 0.74282 0.0
S875 S 0.99365 0.69601 0.6727 0.0
N876 N 1.00998 0.6891 0.71052 0.0
N877 N 0.96536 0.66581 0.6666 0.0
C878 C 0.96844 0.64815 0.69589 0.0
C879 C 0.99272 0.66084 0.71964 0.0
C880 C 0.1935 0.1623 0.46133 0.0
C881 C 0.19882 0.12947 0.44854 0.0
C882 C 0.21551 0.17631 0.48547 0.0
C883 C 0.24289 0.15764 0.49834 0.0
H884 H 0.17393 0.17828 0.45069 0.0
H885 H 0.2123 0.2025 0.49283 0.0
S886 S 0.26605 0.06994 0.47577 0.0
N887 N 0.23223 0.07799 0.45257 0.0
N888 N 0.27297 0.10435 0.49838 0.0
C889 C 0.24699 0.12412 0.4877 0.0
C890 C 0.22507 0.11001 0.46271 0.0
C891 C 0.64882 0.32012 0.07465 0.0
C892 C 0.61317 0.32049 0.07526 0.0
C893 C 0.66665 0.30065 0.0511 0.0
C894 C 0.64967 0.28117 0.02677 0.0
H895 H 0.66317 0.3335 0.09373 0.0
H896 H 0.69395 0.29931 0.05306 0.0
S897 S 0.55687 0.27754 0.01388 0.0
N898 N 0.56166 0.30275 0.04678 0.0
N899 N 0.59539 0.2665 1.00203 0.0
C900 C 0.61423 0.28385 0.02487 0.0
C901 C 0.59592 0.3035 0.04919 0.0
C902 C 0.77124 0.90873 0.49538 0.0
C903 C 0.77182 0.87313 0.49458 0.0
C904 C 0.79125 0.92803 0.47311 0.0
C905 C 0.81274 0.91244 0.4493 0.0
H906 H 0.75399 0.92173 0.51219 0.0
H907 H 0.78854 0.95529 0.47351 0.0
S908 S 0.82768 0.81992 0.44135 0.0
N909 N 0.79866 0.82319 0.47114 0.0
N910 N 0.83618 0.85904 0.42948 0.0
C911 C 0.81515 0.87684 0.44999 0.0
C912 C 0.79471 0.85731 0.47252 0.0
C913 C 0.40582 0.74356 0.02216 0.0
C914 C 0.3829 0.7681 0.03426 0.0
C915 C 0.42408 0.72257 0.04461 0.0
C916 C 0.41947 0.72504 0.0798 0.0
H917 H 0.40925 0.74017 0.99525 0.0
H918 H 0.4414 0.70397 0.0344 0.0
S919 S 0.36723 0.78879 0.12453 0.0
N920 N 0.36068 0.79648 0.08409 0.0
N921 N 0.39326 0.75621 0.12563 0.0
C922 C 0.39761 0.75018 0.0921 0.0
C923 C 0.37977 0.7719 0.06952 0.0
C924 C 0.26564 0.89683 0.55206 0.0
C925 C 0.25834 0.87047 0.52948 0.0
C926 C 0.241 0.90942 0.57413 0.0
C927 C 0.20799 0.89578 0.57509 0.0
H928 H 0.29106 0.90699 0.55341 0.0
H929 H 0.24856 0.92896 0.59173 0.0
S930 S 0.17538 0.82861 0.51797 0.0
N931 N 0.2154 0.83312 0.50677 0.0
N932 N 0.16879 0.85614 0.5487 0.0
C933 C 0.19981 0.87076 0.55095 0.0
C934 C 0.22506 0.85823 0.52809 0.0
C935 C 0.38008 0.32836 0.96955 0.0
C936 C 0.39789 0.31611 0.94118 0.0
C937 C 0.36547 0.30602 0.99318 0.0
C938 C 0.36783 0.27082 0.9889 0.0
H939 H 0.37652 0.35531 0.97299 0.0
H940 H 0.35104 0.31621 0.01407 0.0
S941 S 0.41276 0.22519 0.92096 0.0
N942 N 0.41809 0.26557 0.91186 0.0
N943 N 0.39036 0.22453 0.9561 0.0
C944 C 0.38645 0.25823 0.96173 0.0
C945 C 0.40159 0.28063 0.93793 0.0
C946 C 0.7806 0.12666 0.59076 0.0
C947 C 0.81549 0.13145 0.58478 0.0
C948 C 0.75605 0.14071 0.56953 0.0
C949 C 0.76513 0.15966 0.54097 0.0
H950 H 0.77189 0.11305 0.61287 0.0
H951 H 0.72961 0.13697 0.57566 0.0
S952 S 0.85242 0.1777 0.51197 0.0
N953 N 0.85767 0.15539 0.54692 0.0
N954 N 0.8111 0.18114 0.50645 0.0
C955 C 0.7997 0.16348 0.53358 0.0
C956 C 0.82495 0.14961 0.55564 0.0
C957 C 0.66603 0.74279 0.97021 0.0
C958 C 0.65033 0.7559 0.99923 0.0
C959 C 0.64843 0.72224 0.94742 0.0
C960 C 0.61407 0.71401 0.95237 0.0
H961 H 0.69186 0.74975 0.96429 0.0
H962 H 0.66159 0.71435 0.92476 0.0
S963 S 0.56314 0.73634 0.02799 0.0
N964 N 0.59986 0.75529 0.03429 0.0
N965 N 0.56656 0.71646 0.99144 0.0
C966 C 0.59887 0.72444 0.98287 0.0
C967 C 0.61703 0.74539 1.0063 0.0
C968 C 0.49968 0.23121 0.13665 0.0
C969 C 0.49078 0.26485 0.1442 0.0
C970 C 0.47594 0.20867 0.12228 0.0
C971 C 0.4425 0.21903 0.11496 0.0
H972 H 0.52463 0.22196 0.14318 0.0
H973 H 0.48355 0.18272 0.11793 0.0
S974 S 0.4086 0.30628 0.12617 0.0
N975 N 0.4479 0.30844 0.13997 0.0
N976 N 0.4032 0.26668 0.11427 0.0
C977 C 0.43415 0.25326 0.12105 0.0
C978 C 0.45828 0.27598 0.1353 0.0
C979 C 0.4489 0.81534 0.87803 0.0
C980 C 0.45001 0.82289 0.9128 0.0
C981 C 0.47208 0.79321 0.86312 0.0
C982 C 0.49753 0.7774 0.88217 0.0
H983 H 0.42887 0.82516 0.86225 0.0
H984 H 0.46902 0.78705 0.83663 0.0
S985 S 0.51436 0.79102 0.97329 0.0
N986 N 0.48101 0.81494 0.96535 0.0
N987 N 0.52461 0.77293 0.93709 0.0
C988 C 0.50076 0.78645 0.9164 0.0
C989 C 0.477 0.80926 0.93175 0.0
C990 C 0.27262 0.06662 0.65854 0.0
C991 C 0.25905 0.03852 0.64157 0.0
C992 C 0.2944 0.08931 0.64224 0.0
C993 C 0.3034 0.08521 0.60799 0.0
H994 H 0.26592 0.0714 0.68463 0.0
H995 H 0.30329 0.11094 0.65652 0.0
S996 S 0.27658 0.01411 0.55276 0.0
N997 N 0.25751 1.00663 0.5891 0.0
N998 N 0.29862 0.04918 0.55834 0.0
C999 C 0.29121 0.05627 0.59109 0.0
C1000 C 0.26902 0.03299 0.60787 0.0
C1001 C 0.57264 0.25483 0.86196 0.0
C1002 C 0.54112 0.26385 0.87565 0.0
C1003 C 0.59489 0.23346 0.87932 0.0
C1004 C 0.58678 0.22018 0.91138 0.0
H1005 H 0.58056 0.26492 0.8378 0.0
H1006 H 0.61933 0.22859 0.86794 0.0
S1007 S 0.50528 0.23178 0.95639 0.0
N1008 N 0.50156 0.25521 0.92205 0.0
N1009 N 0.5432 0.21435 0.95429 0.0
C1010 C 0.55446 0.22719 0.9245 0.0
C1011 C 0.53168 0.24912 0.90675 0.0
C1012 C 0.73438 0.99496 0.64244 0.0
C1013 C 0.7669 0.98367 0.65175 0.0
C1014 C 0.71058 0.97276 0.62777 0.0
C1015 C 0.71852 0.9385 0.62177 0.0
H1016 H 0.72701 0.02087 0.64739 0.0
H1017 H 0.68565 0.98238 0.62173 0.0
S1018 S 0.80204 0.89777 0.63841 0.0
N1019 N 0.80684 0.93717 0.65119 0.0
N1020 N 0.76271 0.89531 0.62475 0.0
C1021 C 0.75159 0.92743 0.63006 0.0
C1022 C 0.77558 0.95002 0.64475 0.0
C1023 C 0.53207 0.78108 0.11423 0.0
C1024 C 0.5349 0.77532 0.14915 0.0
C1025 C 0.55525 0.80205 0.09731 0.0
C1026 C 0.58198 0.81791 0.11484 0.0
H1027 H 0.51335 0.76743 0.0996 0.0
H1028 H 0.55341 0.80408 0.07009 0.0
S1029 S 0.59526 0.81609 0.20789 0.0
N1030 N 0.56275 0.79066 0.20142 0.0
N1031 N 0.60602 0.83053 0.17026 0.0
C1032 C 0.58274 0.81485 0.15038 0.0
C1033 C 0.55934 0.79333 0.16736 0.0
C1034 C 0.28967 0.96942 0.36392 0.0
C1035 C 0.2643 0.98787 0.38059 0.0
C1036 C 0.31039 0.94653 0.38157 0.0
C1037 C 0.30633 0.94108 0.41655 0.0
H1038 H 0.29321 0.9725 0.33697 0.0
H1039 H 0.32921 0.93243 0.36752 0.0
S1040 S 0.24106 0.98129 0.47092 0.0
N1041 N 0.23498 0.99823 0.43326 0.0
N1042 N 0.27355 0.9554 0.46671 0.0
C1043 C 0.281 0.9597 0.43346 0.0
C1044 C 0.26006 0.98301 0.41541 0.0
C1045 C 0.72669 0.03203 0.37695 0.0
C1046 C 0.76144 0.03546 0.3837 0.0
C1047 C 0.70308 0.05511 0.39051 0.0
C1048 C 0.71361 0.08229 0.41116 0.0
H1049 H 0.71802 1.01255 0.35978 0.0
H1050 H 0.67673 0.05264 0.38339 0.0
S1051 S 0.80147 0.09801 0.44071 0.0
N1052 N 0.80474 0.06503 0.41538 0.0
N1053 N 0.76092 0.10796 0.4409 0.0
C1054 C 0.74812 0.08418 0.41977 0.0
C1055 C 0.77189 0.06088 0.40603 0.0
C1056 C 0.02757 0.3316 0.98879 0.0
C1057 C 0.99693 0.34833 0.98206 0.0
C1058 C 0.04223 0.33217 0.02121 0.0
C1059 C 0.02664 0.34912 0.04849 0.0
H1060 H 0.04038 0.31802 0.96877 0.0
H1061 H 0.06612 0.31925 0.02483 0.0
S1062 S 0.94466 0.39514 0.04399 0.0
N1063 N 0.951 0.38175 1.00499 0.0
N1064 N 0.9775 0.38186 0.06618 0.0
C1065 C 0.99567 0.36575 0.04191 0.0
C1066 C 0.98108 0.36553 1.00871 0.0
C1067 C 0.8621 0.47863 0.51332 0.0
C1068 C 0.8495 0.4954 0.48453 0.0
C1069 C 0.86278 0.49461 0.54516 0.0
C1070 C 0.85102 0.52804 0.54942 0.0
H1071 H 0.87062 0.45266 0.51141 0.0
H1072 H 0.8717 0.48032 0.56675 0.0
S1073 S 0.81998 0.58446 0.48105 0.0
N1074 N 0.8279 0.54826 0.46183 0.0
N1075 N 0.82951 0.5783 0.5212 0.0
C1076 C 0.83969 0.54546 0.52049 0.0
C1077 C 0.83886 0.52917 0.48823 0.0
C1078 C 1.00287 0.65561 0.99001 0.0
C1079 C 0.02769 0.68015 0.98237 0.0
C1080 C 0.98707 0.65444 0.02187 0.0
C1081 C 0.99524 0.67795 0.04725 0.0
H1082 H 0.99507 0.63752 0.97099 0.0
H1083 H 0.96776 0.63553 0.02641 0.0
S1084 S 0.06086 0.7448 0.04193 0.0
N1085 N 0.06159 0.7266 1.00439 0.0
N1086 N 0.03124 0.72492 0.06362 0.0
C1087 C 0.02048 0.70204 0.04034 0.0
C1088 C 0.03682 0.70304 1.00812 0.0
C1089 C 0.20486 0.52659 0.53386 0.0
C1090 C 0.18052 0.50282 0.54434 0.0
C1091 C 0.20441 0.54021 0.5011 0.0
C1092 C 0.17971 0.53053 0.47728 0.0
H1093 H 0.22439 0.53487 0.55122 0.0
H1094 H 0.2236 0.5586 0.4944 0.0
S1095 S 0.11137 0.46767 0.49145 0.0
N1096 N 0.13156 0.46941 0.52796 0.0
N1097 N 0.13087 0.49474 0.46632 0.0
C1098 C 0.15518 0.50677 0.48744 0.0
C1099 C 0.15557 0.49299 0.52091 0.0
C1100 C 1.01115 0.99027 0.33048 0.0
C1101 C 0.98576 0.99917 0.35396 0.0
C1102 C 0.04258 1.00694 0.32976 0.0
C1103 C 0.05027 0.03284 0.35282 0.0
H1104 H 1.00685 0.97008 0.3125 0.0
H1105 H 0.06117 0.99926 0.31118 0.0
S1106 S 0.99303 0.06714 0.41849 0.0
N1107 N 0.97058 0.03715 0.39999 0.0
N1108 N 0.03017 0.06718 0.39939 0.0
C1109 C 0.02552 0.04191 0.37659 0.0
C1110 C 0.99323 0.02539 0.37701 0.0
C1111 C 0.52075 0.49247 0.14963 0.0
C1112 C 0.54264 0.48367 0.17635 0.0
C1113 C 0.50391 0.52387 0.14902 0.0
C1114 C 0.50828 0.54775 0.17509 0.0
H1115 H 0.51591 0.47458 0.12948 0.0
H1116 H 0.48669 0.52913 0.12837 0.0
S1117 S 0.56622 0.53888 0.24845 0.0
N1118 N 0.57 0.5027 0.22795 0.0
N1119 N 0.53858 0.56149 0.22677 0.0
C1120 C 0.53104 0.5397 0.2013 0.0
C1121 C 0.54812 0.50779 0.20193 0.0
C1122 C 0.01728 0.98233 0.64727 0.0
C1123 C 0.04635 0.99519 0.66322 0.0
C1124 C 0.98617 0.99972 0.64883 0.0
C1125 C 0.98295 0.03063 0.66645 0.0
H1126 H 0.01842 0.95827 0.63423 0.0
H1127 H 0.96425 0.98831 0.63699 0.0
S1128 S 0.0528 0.07613 0.70992 0.0
N1129 N 0.07066 0.04118 0.69562 0.0
N1130 N 1.01278 0.07428 0.69801 0.0
C1131 C 1.01234 0.04412 0.68155 0.0
C1132 C 0.04384 0.02632 0.68007 0.0
C1133 C 0.49567 0.54171 0.84153 0.0
C1134 C 0.52793 0.54592 0.85606 0.0
C1135 C 0.47956 0.51 0.84102 0.0
C1136 C 0.49508 0.48098 0.85479 0.0
H1137 H 0.48272 0.5632 0.83048 0.0
H1138 H 0.45465 0.50823 0.82971 0.0
S1139 S 0.58059 0.47804 0.89382 0.0
N1140 N 0.57531 0.51822 0.88363 0.0
N1141 N 0.54553 0.45856 0.88211 0.0
C1142 C 0.52746 0.48487 0.86931 0.0
C1143 C 0.54373 0.51728 0.87007 0.0
C1144 C 0.32363 0.03913 1.00665 0.0
C1145 C 0.35332 0.05334 0.02027 0.0
C1146 C 0.32386 1.0074 0.99067 0.0
C1147 C 0.35376 0.98816 0.98773 0.0
H1148 H 0.29985 0.05265 1.00847 0.0
H1149 H 0.30023 0.9978 0.98064 0.0
S1150 S 0.43838 1.01366 0.01974 0.0
N1151 N 0.41357 0.04576 0.02973 0.0
N1152 N 0.414 0.98592 1.00019 0.0
C1153 C 0.38381 1.00232 1.00079 0.0
C1154 C 0.38358 0.03486 0.01692 0.0
C1155 C 0.48169 0.17178 0.48946 0.0
C1156 C 0.47726 0.16612 0.52423 0.0
C1157 C 0.51401 0.17144 0.47477 0.0
C1158 C 0.54338 0.16597 0.49433 0.0
H1159 H 0.45996 0.1769 0.47355 0.0
H1160 H 0.51602 0.17599 0.44786 0.0
S1161 S 0.54521 0.15099 0.58701 0.0
N1162 N 0.50459 0.15485 0.57797 0.0
N1163 N 0.56548 0.15531 0.55079 0.0
C1164 C 0.53913 0.15986 0.52919 0.0
C1165 C 0.50609 0.15973 0.54402 0.0
C1166 C 0.66137 0.04246 0.02664 0.0
C1167 C 0.68211 0.04942 0.99862 0.0
C1168 C 0.66152 1.01044 0.04206 0.0
C1169 C 0.68233 0.98418 0.02993 0.0
H1170 H 0.6455 0.06215 0.03719 0.0
H1171 H 0.64574 1.00642 0.06406 0.0
S1172 S 0.7382 0.9884 0.95474 0.0
N1173 N 0.72197 0.02678 0.95777 0.0
N1174 N 0.72205 0.96661 0.98648 0.0
C1175 C 0.70235 0.99058 1.00126 0.0
C1176 C 0.70228 0.02315 0.98568 0.0
C1177 C 0.49042 0.85535 0.52523 0.0
C1178 C 0.48782 0.84946 0.49025 0.0
C1179 C 0.522 0.85521 0.54169 0.0
C1180 C 0.55227 0.85 0.52368 0.0
H1181 H 0.46777 0.85927 0.54013 0.0
H1182 H 0.52276 0.85909 0.56878 0.0
S1183 S 0.55939 0.83464 0.43155 0.0
N1184 N 0.51831 0.83882 0.43808 0.0
N1185 N 0.57762 0.83937 0.46884 0.0
C1186 C 0.55007 0.84488 0.48859 0.0
C1187 C 0.51788 0.84436 0.47194 0.0
C1188 C 0.10434 0.24074 0.25404 0.0
C1189 C 0.12163 0.27151 0.24923 0.0
C1190 C 0.11731 0.21561 0.27585 0.0
C1191 C 0.14813 0.22033 0.29319 0.0
H1192 H 0.08025 0.23649 0.24169 0.0
H1193 H 0.10276 0.19275 0.27986 0.0
S1194 S 0.20594 0.29387 0.28389 0.0
N1195 N 0.1728 0.30363 0.26047 0.0
N1196 N 0.19759 0.25631 0.30011 0.0
C1197 C 0.16645 0.25022 0.28685 0.0
C1198 C 0.15309 0.27581 0.26521 0.0
C1199 C 0.73492 0.40944 0.29038 0.0
C1200 C 0.76611 0.42197 0.27872 0.0
C1201 C 0.71037 0.3975 0.26759 0.0
C1202 C 0.71624 0.39798 0.23249 0.0
H1203 H 0.7303 0.40693 0.31725 0.0
H1204 H 0.68756 0.38607 0.27754 0.0
S1205 S 0.79117 0.43439 0.18937 0.0
N1206 N 0.79979 0.43811 0.23002 0.0
N1207 N 0.75342 0.41658 0.18727 0.0
C1208 C 0.74625 0.41294 0.22064 0.0
C1209 C 0.77126 0.42469 0.24375 0.0
C1210 C 0.89715 0.77982 0.30331 0.0
C1211 C 0.89416 0.8133 0.29171 0.0
C1212 C 0.9053 0.75337 0.28125 0.0
C1213 C 0.91118 0.75936 0.2467 0.0
H1214 H 0.89279 0.77396 0.32967 0.0
H1215 H 0.90711 0.72802 0.2915 0.0
S1216 S 0.90716 0.84273 0.20365 0.0
N1217 N 0.89822 0.85121 0.24351 0.0
N1218 N 0.91347 0.80146 0.20187 0.0
C1219 C 0.90843 0.79278 0.23471 0.0
C1220 C 0.89985 0.81975 0.25722 0.0
C1221 C 0.28365 0.63185 0.22024 0.0
C1222 C 0.31751 0.63226 0.23105 0.0
C1223 C 0.25742 0.62329 0.24241 0.0
C1224 C 0.26405 0.61431 0.27619 0.0
H1225 H 0.27735 0.63869 0.1945 0.0
H1226 H 0.23172 0.6236 0.23287 0.0
S1227 S 0.34863 0.61046 0.31676 0.0
N1228 N 0.35648 0.62232 0.27752 0.0
N1229 N 0.30715 0.60603 0.31932 0.0
C1230 C 0.29787 0.61423 0.28729 0.0
C1231 C 0.32461 0.62334 0.26472 0.0
C1232 C 0.14625 0.75164 0.75816 0.0
C1233 C 0.11782 0.7576 0.77866 0.0
C1234 C 0.1581 0.77601 0.73545 0.0
C1235 C 0.14186 0.80749 0.73167 0.0
H1236 H 0.15988 0.7279 0.75984 0.0
H1237 H 0.18048 0.77003 0.72093 0.0
S1238 S 0.06584 0.83566 0.77914 0.0
N1239 N 0.07372 0.79744 0.79415 0.0
N1240 N 0.09528 0.84312 0.75047 0.0
C1241 C 0.11341 0.814 0.75221 0.0
C1242 C 0.10157 0.78911 0.77587 0.0
C1243 C 0.27988 0.36867 0.78576 0.0
C1244 C 0.31085 0.38555 0.79083 0.0
C1245 C 0.25525 0.38142 0.76387 0.0
C1246 C 0.2605 0.41141 0.74552 0.0
H1247 H 0.27455 0.34509 0.79857 0.0
H1248 H 0.23194 0.36726 0.76106 0.0
S1249 S 0.33686 0.46572 0.74926 0.0
N1250 N 0.34515 0.43445 0.77574 0.0
N1251 N 0.29895 0.45779 0.73348 0.0
C1252 C 0.29146 0.4284 0.74962 0.0
C1253 C 0.31659 0.41562 0.77249 0.0
C1254 C 0.91865 0.26832 0.74327 0.0
C1255 C 0.92022 0.26239 0.77831 0.0
C1256 C 0.9061 0.24381 0.72102 0.0
C1257 C 0.89458 0.21232 0.7328 0.0
H1258 H 0.92642 0.2925 0.73293 0.0
H1259 H 0.90463 0.24979 0.69435 0.0
S1260 S 0.89286 0.18413 0.82224 0.0
N1261 N 0.90945 0.22247 0.82379 0.0
N1262 N 0.88545 0.17644 0.78189 0.0
C1263 C 0.89685 0.20557 0.76767 0.0
C1264 C 0.90979 0.2306 0.79044 0.0
C1265 C 0.70959 0.62591 0.76175 0.0
C1266 C 0.71593 0.6357 0.79533 0.0
C1267 C 0.73621 0.61636 0.74013 0.0
C1268 C 0.7701 0.61667 0.75126 0.0
H1269 H 0.68383 0.62488 0.75246 0.0
H1270 H 0.73016 0.60867 0.71457 0.0
S1271 S 0.79994 0.64302 0.8364 0.0
N1272 N 0.75842 0.64701 0.8381 0.0
N1273 N 0.80831 0.62917 0.79799 0.0
C1274 C 0.77665 0.62727 0.78464 0.0
C1275 C 0.74962 0.63675 0.80652 0.0
C1276 C 0.24078 0.11867 0.23802 0.0
C1277 C 0.25229 0.11908 0.2717 0.0
C1278 C 0.2623 0.12745 0.21115 0.0
C1279 C 0.29625 0.13659 0.21688 0.0
H1280 H 0.21486 0.11181 0.23233 0.0
H1281 H 0.25242 0.12676 0.18564 0.0
S1282 S 0.33879 0.14269 0.30017 0.0
N1283 N 0.30002 0.13003 0.30913 0.0
N1284 N 0.34009 0.14652 0.25867 0.0
C1285 C 0.30808 0.13713 0.25034 0.0
C1286 C 0.28621 0.12842 0.27771 0.0
C1287 C 0.63563 0.26714 0.31433 0.0
C1288 C 0.64207 0.23264 0.3084 0.0
C1289 C 0.62589 0.28886 0.28789 0.0
C1290 C 0.62275 0.27693 0.25449 0.0
H1291 H 0.63739 0.27721 0.33971 0.0
H1292 H 0.62107 0.31522 0.29364 0.0
S1293 S 0.63848 0.18888 0.22567 0.0
N1294 N 0.64572 0.1878 0.26674 0.0
N1295 N 0.62768 0.2283 0.21707 0.0
C1296 C 0.62971 0.24254 0.24826 0.0
C1297 C 0.63928 0.22049 0.27519 0.0
C1298 C 0.79481 0.91169 0.23949 0.0
C1299 C 0.78323 0.91254 0.27314 0.0
C1300 C 0.77299 0.90287 0.21278 0.0
C1301 C 0.73876 0.89516 0.21876 0.0
H1302 H 0.82098 0.91748 0.23378 0.0
H1303 H 0.78275 0.90267 0.18722 0.0
S1304 S 0.69602 0.89282 0.30208 0.0
N1305 N 0.73524 0.90426 0.31078 0.0
N1306 N 0.69461 0.88786 0.2607 0.0
C1307 C 0.72697 0.89576 0.25221 0.0
C1308 C 0.74911 0.90439 0.27936 0.0
C1309 C 0.41331 0.73541 0.28565 0.0
C1310 C 0.41297 0.74635 0.25175 0.0
C1311 C 0.4039 0.75728 0.31214 0.0
C1312 C 0.39432 0.791 0.30574 0.0
H1313 H 0.42056 0.7097 0.29175 0.0
H1314 H 0.40468 0.74796 0.33786 0.0
S1315 S 0.38821 0.83194 0.22162 0.0
N1316 N 0.40152 0.79323 0.21346 0.0
N1317 N 0.38397 0.83387 0.26305 0.0
C1318 C 0.39372 0.80214 0.27204 0.0
C1319 C 0.40299 0.77995 0.24512 0.0
C1320 C 0.2966 0.91925 0.78196 0.0
C1321 C 0.28714 0.89745 0.80853 0.0
C1322 C 0.27419 0.92712 0.75566 0.0
C1323 C 0.24111 0.91426 0.75529 0.0
H1324 H 0.32183 0.92986 0.78109 0.0
H1325 H 0.28294 0.94314 0.73522 0.0
S1326 S 0.20327 0.85574 0.81784 0.0
N1327 N 0.24206 0.86243 0.83193 0.0
N1328 N 0.19958 0.87883 0.78323 0.0
C1329 C 0.2307 0.89339 0.78201 0.0
C1330 C 0.25378 0.88464 0.80851 0.0
C1331 C 0.41511 0.29063 0.7321 0.0
C1332 C 0.41253 0.27973 0.76589 0.0
C1333 C 0.40671 0.26896 0.70513 0.0
C1334 C 0.39577 0.23557 0.71102 0.0
H1335 H 0.42353 0.31609 0.72642 0.0
H1336 H 0.40917 0.27819 0.67949 0.0
S1337 S 0.38267 0.19515 0.79458 0.0
N1338 N 0.39701 0.23331 0.80346 0.0
N1339 N 0.38103 0.1933 0.75299 0.0
C1340 C 0.39269 0.22455 0.74459 0.0
C1341 C 0.40112 0.24643 0.77195 0.0
C1342 C 0.79661 0.11887 0.7915 0.0
C1343 C 0.78371 0.11598 0.75843 0.0
C1344 C 0.77547 0.12792 0.81866 0.0
C1345 C 0.74072 0.13393 0.81367 0.0
H1346 H 0.8232 0.11438 0.79641 0.0
H1347 H 0.78617 0.12964 0.84379 0.0
S1348 S 0.69467 0.13126 0.73208 0.0
N1349 N 0.73389 0.12081 0.7224 0.0
N1350 N 0.69476 0.13795 0.77321 0.0
C1351 C 0.72769 0.13153 0.78077 0.0
C1352 C 0.74903 0.12252 0.75323 0.0
C1353 C 0.61717 0.73539 0.74065 0.0
C1354 C 0.61762 0.74699 0.77431 0.0
C1355 C 0.62642 0.75673 0.71367 0.0
C1356 C 0.63586 0.79062 0.71929 0.0
H1357 H 0.61007 0.70951 0.7351 0.0
H1358 H 0.62571 0.74683 0.68818 0.0
S1359 S 0.64181 0.83335 0.80247 0.0
N1360 N 0.62884 0.79469 0.81155 0.0
N1361 N 0.6459 0.83448 0.76098 0.0
C1362 C 0.63639 0.8025 0.75274 0.0
C1363 C 0.62738 0.78078 0.78018 0.0
C1364 C 0.23274 0.24848 0.10252 0.0
C1365 C 0.26002 0.23937 0.12349 0.0
C1366 C 0.20783 0.27136 0.11391 0.0
C1367 C 0.20961 0.28553 0.14651 0.0
H1368 H 0.23161 0.23931 0.07676 0.0
H1369 H 0.188 0.27921 0.09672 0.0
S1370 S 0.27241 0.26442 0.21291 0.0
N1371 N 0.28499 0.24293 0.17946 0.0
N1372 N 0.23796 0.2848 0.20096 0.0
C1373 C 0.23541 0.27451 0.16831 0.0
C1374 C 0.2607 0.25172 0.15673 0.0
C1375 C 0.23502 0.79804 0.90266 0.0
C1376 C 0.26866 0.7862 0.90307 0.0
C1377 C 0.20789 0.77625 0.8949 0.0
C1378 C 0.21348 0.7418 0.88787 0.0
H1379 H 0.2296 0.82431 0.90828 0.0
H1380 H 0.18235 0.78614 0.89521 0.0
S1381 S 0.29654 0.69847 0.88392 0.0
N1382 N 0.30581 0.73779 0.89445 0.0
N1383 N 0.25497 0.69729 0.88011 0.0
C1384 C 0.24691 0.72985 0.88764 0.0
C1385 C 0.27445 0.75193 0.89516 0.0
C1386 C 0.27339 0.26992 0.64736 0.0
C1387 C 0.2883 0.2669 0.61523 0.0
C1388 C 0.25264 0.29758 0.65531 0.0
C1389 C 0.24542 0.32244 0.63105 0.0
H1390 H 0.27768 0.25069 0.66642 0.0
H1391 H 0.24123 0.29903 0.68014 0.0
S1392 S 0.27834 0.32644 0.54361 0.0
N1393 N 0.29522 0.2916 0.55944 0.0
N1394 N 0.25504 0.34293 0.5741 0.0
C1395 C 0.26038 0.31992 0.59903 0.0
C1396 C 0.28221 0.29229 0.5912 0.0
C1397 C 0.78576 0.28465 0.86163 0.0
C1398 C 0.81613 0.28936 0.87971 0.0
C1399 C 0.75982 0.26412 0.87403 0.0
C1400 C 0.7632 0.24676 0.90478 0.0
H1401 H 0.78186 0.29674 0.83742 0.0
H1402 H 0.737 0.26154 0.85904 0.0
S1403 S 0.83731 0.24976 0.96215 0.0
N1404 N 0.84781 0.27487 0.93045 0.0
N1405 N 0.79925 0.23499 0.9531 0.0
C1406 C 0.79357 0.25036 0.92293 0.0
C1407 C 0.81999 0.27191 0.91054 0.0
C1408 C 0.75048 0.73233 0.60511 0.0
C1409 C 0.7419 0.75998 0.62572 0.0
C1410 C 0.77424 0.70812 0.61616 0.0
C1411 C 0.78994 0.71102 0.64801 0.0
H1412 H 0.74002 0.73027 0.5799 0.0
H1413 H 0.78132 0.68773 0.59933 0.0
S1414 S 0.77101 0.7753 0.71351 0.0
N1415 N 0.74767 0.78654 0.68078 0.0
N1416 N 0.79148 0.74094 0.70157 0.0
C1417 C 0.77975 0.73735 0.66949 0.0
C1418 C 0.75592 0.76187 0.6583 0.0
C1419 C 0.77722 0.73906 0.16222 0.0
C1420 C 0.80847 0.73602 0.14541 0.0
C1421 C 0.7525 0.76188 0.15131 0.0
C1422 C 0.75796 0.78313 0.12337 0.0
H1423 H 0.77176 0.72393 0.18433 0.0
H1424 H 0.72895 0.76307 0.16527 0.0
S1425 S 0.83495 0.78526 0.06996 0.0
N1426 N 0.84312 0.75599 0.09865 0.0
N1427 N 0.79681 0.79985 0.07887 0.0
C1428 C 0.78914 0.78091 0.10647 0.0
C1429 C 0.81434 0.75718 0.11732 0.0
C1430 C 0.27515 0.70579 0.39543 0.0
C1431 C 0.24079 0.71188 0.38816 0.0
C1432 C 0.29701 0.73238 0.4047 0.0
C1433 C 0.28535 0.76601 0.40652 0.0
H1434 H 0.285 0.68025 0.39444 0.0
H1435 H 0.32327 0.7266 0.41003 0.0
S1436 S 0.19779 0.79532 0.38863 0.0
N1437 N 0.19651 0.75408 0.38237 0.0
N1438 N 0.23707 0.80373 0.40002 0.0
C1439 C 0.25107 0.77232 0.39903 0.0
C1440 C 0.22894 0.74536 0.38979 0.0
C1441 C 0.77218 0.26501 0.42154 0.0
C1442 C 0.73689 0.26765 0.41808 0.0
C1443 C 0.79365 0.29088 0.41059 0.0
C1444 C 0.78078 0.32037 0.39547 0.0
H1445 H 0.78344 0.24214 0.43166 0.0
H1446 H 0.82073 0.28717 0.41256 0.0
S1447 S 0.69014 0.34055 0.38205 0.0
N1448 N 0.68973 0.30296 0.40037 0.0
N1449 N 0.73038 0.35151 0.37897 0.0
C1450 C 0.74545 0.32428 0.39352 0.0
C1451 C 0.72341 0.29789 0.40504 0.0
loop_
_geom_bond_atom_site_label_1
_geom_bond_atom_site_label_2
_geom_bond_distance
_geom_bond_site_symmetry_2
_ccdc_geom_bond_type
Co0 N4 2.148 . S
Co0 N10 2.128 . S
Co0 N20 2.194 . S
Co0 O25 2.351 . S
Co0 O26 2.155 . S
Co0 O27 2.096 . S
C1 N4 1.301 . S
C1 N5 1.328 . S
C1 H6 0.930 . S
C2 C3 1.333 . S
C2 N4 1.317 . S
C2 H7 0.930 . S
C3 C2 1.333 . S
C3 N5 1.350 . S
C3 H29 0.931 . S
N4 Co0 2.148 . S
N4 C1 1.301 . S
N4 C2 1.317 . S
N5 C1 1.328 . S
N5 C3 1.350 . S
H6 C1 0.930 . S
H7 C2 0.930 . S
C8 O9 1.224 . S
C8 O27 1.247 . S
O9 C8 1.224 . S
N10 Co0 2.128 . S
N10 C11 1.355 . S
N10 C13 1.311 . S
C11 N10 1.355 . S
C11 C12 1.363 1_455 S
C11 H23 0.929 . S
C12 C11 1.363 1_655 S
C12 N14 1.375 . S
C12 H30 0.931 . S
C13 N10 1.311 . S
C13 N14 1.347 1_455 S
C13 H24 0.929 . S
N14 C12 1.375 . S
N14 C13 1.347 1_655 S
C15 C18 1.365 . S
C15 N20 1.328 . S
C15 H21 0.929 . S
C16 C17 1.362 . S
C16 C19 1.378 . S
C16 H31 0.929 . S
C17 C16 1.362 . S
C17 C18 1.366 . S
C18 C15 1.365 . S
C18 C17 1.366 . S
C18 H32 0.930 . S
C19 C16 1.378 . S
C19 N20 1.315 . S
C19 H22 0.930 . S
N20 Co0 2.194 . S
N20 C15 1.328 . S
N20 C19 1.315 . S
H21 C15 0.929 . S
H22 C19 0.930 . S
H23 C11 0.929 . S
H24 C13 0.929 . S
O25 Co0 2.351 . S
O25 C28 1.244 . S
O26 Co0 2.155 . S
O26 C28 1.240 . S
O27 Co0 2.096 . S
O27 C8 1.247 . S
C28 O25 1.244 . S
C28 O26 1.240 . S
H29 C3 0.931 . S
H30 C12 0.931 . S
H31 C16 0.929 . S
H32 C18 0.930 . S
Co33 N37 2.148 . S
Co33 N43 2.128 . S
Co33 N53 2.194 . S
Co33 O58 2.351 . S
Co33 O59 2.155 . S
Co33 O60 2.096 . S
C34 N37 1.301 . S
C34 N38 1.328 . S
C34 H39 0.930 . S
C35 C36 1.333 . S
C35 N37 1.317 . S
C35 H40 0.930 . S
C36 C35 1.333 . S
C36 N38 1.350 . S
C36 H62 0.931 . S
N37 Co33 2.148 . S
N37 C34 1.301 . S
N37 C35 1.317 . S
N38 C34 1.328 . S
N38 C36 1.350 . S
H39 C34 0.930 . S
H40 C35 0.930 . S
C41 O42 1.224 . S
C41 O60 1.247 . S
O42 C41 1.224 . S
N43 Co33 2.128 . S
N43 C44 1.355 . S
N43 C46 1.311 . S
C44 N43 1.355 . S
C44 C45 1.363 . S
C44 H56 0.929 . S
C45 C44 1.363 . S
C45 N47 1.375 . S
C45 H63 0.931 . S
C46 N43 1.311 . S
C46 N47 1.347 . S
C46 H57 0.929 . S
N47 C45 1.375 . S
N47 C46 1.347 . S
C48 C51 1.365 . S
C48 N53 1.328 . S
C48 H54 0.929 . S
C49 C50 1.362 . S
C49 C52 1.378 . S
C49 H64 0.929 . S
C50 C49 1.362 . S
C50 C51 1.366 . S
C51 C48 1.365 . S
C51 C50 1.366 . S
C51 H65 0.930 . S
C52 C49 1.378 . S
C52 N53 1.315 . S
C52 H55 0.930 . S
N53 Co33 2.194 . S
N53 C48 1.328 . S
N53 C52 1.315 . S
H54 C48 0.929 . S
H55 C52 0.930 . S
H56 C44 0.929 . S
H57 C46 0.929 . S
O58 Co33 2.351 . S
O58 C61 1.244 . S
O59 Co33 2.155 . S
O59 C61 1.240 . S
O60 Co33 2.096 . S
O60 C41 1.247 . S
C61 O58 1.244 . S
C61 O59 1.240 . S
H62 C36 0.931 . S
H63 C45 0.931 . S
H64 C49 0.929 . S
H65 C51 0.930 . S
Co66 N70 2.148 . S
Co66 N76 2.128 . S
Co66 N86 2.194 . S
Co66 O91 2.351 . S
Co66 O92 2.155 . S
Co66 O93 2.096 . S
C67 N70 1.301 . S
C67 N71 1.328 . S
C67 H72 0.930 . S
C68 C69 1.333 . S
C68 N70 1.317 . S
C68 H73 0.930 . S
C69 C68 1.333 . S
C69 N71 1.350 . S
C69 H95 0.931 . S
N70 Co66 2.148 . S
N70 C67 1.301 . S
N70 C68 1.317 . S
N71 C67 1.328 . S
N71 C69 1.350 . S
H72 C67 0.930 . S
H73 C68 0.930 . S
C74 O75 1.224 . S
C74 O93 1.247 . S
O75 C74 1.224 . S
N76 Co66 2.128 . S
N76 C77 1.355 . S
N76 C79 1.311 . S
C77 N76 1.355 . S
C77 C78 1.363 1_655 S
C77 H89 0.929 . S
C78 C77 1.363 1_455 S
C78 N80 1.375 . S
C78 H96 0.931 . S
C79 N76 1.311 . S
C79 N80 1.347 1_655 S
C79 H90 0.929 . S
N80 C78 1.375 . S
N80 C79 1.347 1_455 S
C81 C84 1.365 . S
C81 N86 1.328 . S
C81 H87 0.929 . S
C82 C83 1.362 . S
C82 C85 1.378 . S
C82 H97 0.929 . S
C83 C82 1.362 . S
C83 C84 1.366 . S
C84 C81 1.365 . S
C84 C83 1.366 . S
C84 H98 0.930 . S
C85 C82 1.378 . S
C85 N86 1.315 . S
C85 H88 0.930 . S
N86 Co66 2.194 . S
N86 C81 1.328 . S
N86 C85 1.315 . S
H87 C81 0.929 . S
H88 C85 0.930 . S
H89 C77 0.929 . S
H90 C79 0.929 . S
O91 Co66 2.351 . S
O91 C94 1.244 . S
O92 Co66 2.155 . S
O92 C94 1.240 . S
O93 Co66 2.096 . S
O93 C74 1.247 . S
C94 O91 1.244 . S
C94 O92 1.240 . S
H95 C69 0.931 . S
H96 C78 0.931 . S
H97 C82 0.929 . S
H98 C84 0.930 . S
Co99 N103 2.148 . S
Co99 N109 2.128 . S
Co99 N119 2.194 . S
Co99 O124 2.351 . S
Co99 O125 2.155 . S
Co99 O126 2.096 . S
C100 N103 1.301 . S
C100 N104 1.328 . S
C100 H105 0.930 . S
C101 C102 1.333 . S
C101 N103 1.317 . S
C101 H106 0.930 . S
C102 C101 1.333 . S
C102 N104 1.350 . S
C102 H128 0.931 . S
N103 Co99 2.148 . S
N103 C100 1.301 . S
N103 C101 1.317 . S
N104 C100 1.328 . S
N104 C102 1.350 . S
H105 C100 0.930 . S
H106 C101 0.930 . S
C107 O108 1.224 . S
C107 O126 1.247 . S
O108 C107 1.224 . S
N109 Co99 2.128 . S
N109 C110 1.355 . S
N109 C112 1.311 . S
C110 N109 1.355 . S
C110 C111 1.363 . S
C110 H122 0.929 . S
C111 C110 1.363 . S
C111 N113 1.375 . S
C111 H129 0.931 . S
C112 N109 1.311 . S
C112 N113 1.347 . S
C112 H123 0.929 . S
N113 C111 1.375 . S
N113 C112 1.347 . S
C114 C117 1.365 . S
C114 N119 1.328 . S
C114 H120 0.929 . S
C115 C116 1.362 . S
C115 C118 1.378 . S
C115 H130 0.929 . S
C116 C115 1.362 . S
C116 C117 1.366 . S
C117 C114 1.365 . S
C117 C116 1.366 . S
C117 H131 0.930 . S
C118 C115 1.378 . S
C118 N119 1.315 . S
C118 H121 0.930 . S
N119 Co99 2.194 . S
N119 C114 1.328 . S
N119 C118 1.315 . S
H120 C114 0.929 . S
H121 C118 0.930 . S
H122 C110 0.929 . S
H123 C112 0.929 . S
O124 Co99 2.351 . S
O124 C127 1.244 . S
O125 Co99 2.155 . S
O125 C127 1.240 . S
O126 Co99 2.096 . S
O126 C107 1.247 . S
C127 O124 1.244 . S
C127 O125 1.240 . S
H128 C102 0.931 . S
H129 C111 0.931 . S
H130 C115 0.929 . S
H131 C117 0.930 . S
Co132 N136 2.148 . S
Co132 N142 2.128 . S
Co132 N152 2.194 . S
Co132 O157 2.351 . S
Co132 O158 2.155 . S
Co132 O159 2.096 . S
C133 N136 1.301 . S
C133 N137 1.328 . S
C133 H138 0.930 . S
C134 C135 1.333 . S
C134 N136 1.317 . S
C134 H139 0.930 . S
C135 C134 1.333 . S
C135 N137 1.350 . S
C135 H161 0.931 . S
N136 Co132 2.148 . S
N136 C133 1.301 . S
N136 C134 1.317 . S
N137 C133 1.328 . S
N137 C135 1.350 . S
H138 C133 0.930 . S
H139 C134 0.930 . S
C140 O141 1.224 . S
C140 O159 1.247 . S
O141 C140 1.224 . S
N142 Co132 2.128 . S
N142 C143 1.355 . S
N142 C145 1.311 . S
C143 N142 1.355 . S
C143 C144 1.363 1_455 S
C143 H155 0.929 . S
C144 C143 1.363 1_655 S
C144 N146 1.375 . S
C144 H162 0.931 . S
C145 N142 1.311 . S
C145 N146 1.347 1_455 S
C145 H156 0.929 . S
N146 C144 1.375 . S
N146 C145 1.347 1_655 S
C147 C150 1.365 . S
C147 N152 1.328 . S
C147 H153 0.929 . S
C148 C149 1.362 . S
C148 C151 1.378 . S
C148 H163 0.929 . S
C149 C148 1.362 . S
C149 C150 1.366 . S
C150 C147 1.365 . S
C150 C149 1.366 . S
C150 H164 0.930 . S
C151 C148 1.378 . S
C151 N152 1.315 . S
C151 H154 0.930 . S
N152 Co132 2.194 . S
N152 C147 1.328 . S
N152 C151 1.315 . S
H153 C147 0.929 . S
H154 C151 0.930 . S
H155 C143 0.929 . S
H156 C145 0.929 . S
O157 Co132 2.351 . S
O157 C160 1.244 . S
O158 Co132 2.155 . S
O158 C160 1.240 . S
O159 Co132 2.096 . S
O159 C140 1.247 . S
C160 O157 1.244 . S
C160 O158 1.240 . S
H161 C135 0.931 . S
H162 C144 0.931 . S
H163 C148 0.929 . S
H164 C150 0.930 . S
Co165 N169 2.148 . S
Co165 N175 2.128 . S
Co165 N185 2.194 . S
Co165 O190 2.351 . S
Co165 O191 2.155 . S
Co165 O192 2.096 . S
C166 N169 1.301 . S
C166 N170 1.328 . S
C166 H171 0.930 . S
C167 C168 1.333 . S
C167 N169 1.317 . S
C167 H172 0.930 . S
C168 C167 1.333 . S
C168 N170 1.350 . S
C168 H194 0.931 . S
N169 Co165 2.148 . S
N169 C166 1.301 . S
N169 C167 1.317 . S
N170 C166 1.328 . S
N170 C168 1.350 . S
H171 C166 0.930 . S
H172 C167 0.930 . S
C173 O174 1.224 . S
C173 O192 1.247 . S
O174 C173 1.224 . S
N175 Co165 2.128 . S
N175 C176 1.355 . S
N175 C178 1.311 . S
C176 N175 1.355 . S
C176 C177 1.363 . S
C176 H188 0.929 . S
C177 C176 1.363 . S
C177 N179 1.375 . S
C177 H195 0.931 . S
C178 N175 1.311 . S
C178 N179 1.347 . S
C178 H189 0.929 . S
N179 C177 1.375 . S
N179 C178 1.347 . S
C180 C183 1.365 . S
C180 N185 1.328 . S
C180 H186 0.929 . S
C181 C182 1.362 . S
C181 C184 1.378 . S
C181 H196 0.929 . S
C182 C181 1.362 . S
C182 C183 1.366 . S
C183 C180 1.365 . S
C183 C182 1.366 . S
C183 H197 0.930 . S
C184 C181 1.378 . S
C184 N185 1.315 . S
C184 H187 0.930 . S
N185 Co165 2.194 . S
N185 C180 1.328 . S
N185 C184 1.315 . S
H186 C180 0.929 . S
H187 C184 0.930 . S
H188 C176 0.929 . S
H189 C178 0.929 . S
O190 Co165 2.351 . S
O190 C193 1.244 . S
O191 Co165 2.155 . S
O191 C193 1.240 . S
O192 Co165 2.096 . S
O192 C173 1.247 . S
C193 O190 1.244 . S
C193 O191 1.240 . S
H194 C168 0.931 . S
H195 C177 0.931 . S
H196 C181 0.929 . S
H197 C183 0.930 . S
Co198 N202 2.148 . S
Co198 N208 2.128 . S
Co198 N218 2.194 . S
Co198 O223 2.351 . S
Co198 O224 2.155 . S
Co198 O225 2.096 . S
C199 N202 1.301 . S
C199 N203 1.328 . S
C199 H204 0.930 . S
C200 C201 1.333 . S
C200 N202 1.317 . S
C200 H205 0.930 . S
C201 C200 1.333 . S
C201 N203 1.350 . S
C201 H227 0.931 . S
N202 Co198 2.148 . S
N202 C199 1.301 . S
N202 C200 1.317 . S
N203 C199 1.328 . S
N203 C201 1.350 . S
H204 C199 0.930 . S
H205 C200 0.930 . S
C206 O207 1.224 . S
C206 O225 1.247 . S
O207 C206 1.224 . S
N208 Co198 2.128 . S
N208 C209 1.355 . S
N208 C211 1.311 . S
C209 N208 1.355 . S
C209 C210 1.363 1_655 S
C209 H221 0.929 . S
C210 C209 1.363 1_455 S
C210 N212 1.375 . S
C210 H228 0.931 . S
C211 N208 1.311 . S
C211 N212 1.347 1_655 S
C211 H222 0.929 . S
N212 C210 1.375 . S
N212 C211 1.347 1_455 S
C213 C216 1.365 . S
C213 N218 1.328 . S
C213 H219 0.929 . S
C214 C215 1.362 . S
C214 C217 1.378 . S
C214 H229 0.929 . S
C215 C214 1.362 . S
C215 C216 1.366 . S
C216 C213 1.365 . S
C216 C215 1.366 . S
C216 H230 0.930 . S
C217 C214 1.378 . S
C217 N218 1.315 . S
C217 H220 0.930 . S
N218 Co198 2.194 . S
N218 C213 1.328 . S
N218 C217 1.315 . S
H219 C213 0.929 . S
H220 C217 0.930 . S
H221 C209 0.929 . S
H222 C211 0.929 . S
O223 Co198 2.351 . S
O223 C226 1.244 . S
O224 Co198 2.155 . S
O224 C226 1.240 . S
O225 Co198 2.096 . S
O225 C206 1.247 . S
C226 O223 1.244 . S
C226 O224 1.240 . S
H227 C201 0.931 . S
H228 C210 0.931 . S
H229 C214 0.929 . S
H230 C216 0.930 . S
Co231 N235 2.148 . S
Co231 N241 2.128 . S
Co231 N251 2.194 . S
Co231 O256 2.351 . S
Co231 O257 2.155 . S
Co231 O258 2.096 . S
C232 N235 1.301 . S
C232 N236 1.328 . S
C232 H237 0.930 . S
C233 C234 1.333 . S
C233 N235 1.317 . S
C233 H238 0.930 . S
C234 C233 1.333 . S
C234 N236 1.350 . S
C234 H260 0.931 . S
N235 Co231 2.148 . S
N235 C232 1.301 . S
N235 C233 1.317 . S
N236 C232 1.328 . S
N236 C234 1.350 . S
H237 C232 0.930 . S
H238 C233 0.930 . S
C239 O240 1.224 . S
C239 O258 1.247 . S
O240 C239 1.224 . S
N241 Co231 2.128 . S
N241 C242 1.355 . S
N241 C244 1.311 . S
C242 N241 1.355 . S
C242 C243 1.363 . S
C242 H254 0.929 . S
C243 C242 1.363 . S
C243 N245 1.375 . S
C243 H261 0.931 . S
C244 N241 1.311 . S
C244 N245 1.347 . S
C244 H255 0.929 . S
N245 C243 1.375 . S
N245 C244 1.347 . S
C246 C249 1.365 . S
C246 N251 1.328 . S
C246 H252 0.929 . S
C247 C248 1.362 . S
C247 C250 1.378 . S
C247 H262 0.929 . S
C248 C247 1.362 . S
C248 C249 1.366 . S
C249 C246 1.365 . S
C249 C248 1.366 . S
C249 H263 0.930 . S
C250 C247 1.378 . S
C250 N251 1.315 . S
C250 H253 0.930 . S
N251 Co231 2.194 . S
N251 C246 1.328 . S
N251 C250 1.315 . S
H252 C246 0.929 . S
H253 C250 0.930 . S
H254 C242 0.929 . S
H255 C244 0.929 . S
O256 Co231 2.351 . S
O256 C259 1.244 . S
O257 Co231 2.155 . S
O257 C259 1.240 . S
O258 Co231 2.096 . S
O258 C239 1.247 . S
C259 O256 1.244 . S
C259 O257 1.240 . S
H260 C234 0.931 . S
H261 C243 0.931 . S
H262 C247 0.929 . S
H263 C249 0.930 . S
Co264 N268 2.148 . S
Co264 N274 2.128 . S
Co264 N284 2.194 . S
Co264 O289 2.351 . S
Co264 O290 2.155 . S
Co264 O291 2.096 . S
C265 N268 1.301 . S
C265 N269 1.328 . S
C265 H270 0.930 . S
C266 C267 1.333 . S
C266 N268 1.317 . S
C266 H271 0.930 . S
C267 C266 1.333 . S
C267 N269 1.350 . S
C267 H293 0.931 . S
N268 Co264 2.148 . S
N268 C265 1.301 . S
N268 C266 1.317 . S
N269 C265 1.328 . S
N269 C267 1.350 . S
H270 C265 0.930 . S
H271 C266 0.930 . S
C272 O273 1.224 . S
C272 O291 1.247 . S
O273 C272 1.224 . S
N274 Co264 2.128 . S
N274 C275 1.355 . S
N274 C277 1.311 . S
C275 N274 1.355 . S
C275 C276 1.363 1_545 S
C275 H287 0.929 . S
C276 C275 1.363 1_565 S
C276 N278 1.375 . S
C276 H294 0.931 . S
C277 N274 1.311 . S
C277 N278 1.347 1_545 S
C277 H288 0.929 . S
N278 C276 1.375 . S
N278 C277 1.347 1_565 S
C279 C282 1.365 . S
C279 N284 1.328 . S
C279 H285 0.929 . S
C280 C281 1.362 . S
C280 C283 1.378 . S
C280 H295 0.929 . S
C281 C280 1.362 . S
C281 C282 1.366 . S
C282 C279 1.365 . S
C282 C281 1.366 . S
C282 H296 0.930 . S
C283 C280 1.378 . S
C283 N284 1.315 . S
C283 H286 0.930 . S
N284 Co264 2.194 . S
N284 C279 1.328 . S
N284 C283 1.315 . S
H285 C279 0.929 . S
H286 C283 0.930 . S
H287 C275 0.929 . S
H288 C277 0.929 . S
O289 Co264 2.351 . S
O289 C292 1.244 . S
O290 Co264 2.155 . S
O290 C292 1.240 . S
O291 Co264 2.096 . S
O291 C272 1.247 . S
C292 O289 1.244 . S
C292 O290 1.240 . S
H293 C267 0.931 . S
H294 C276 0.931 . S
H295 C280 0.929 . S
H296 C282 0.930 . S
Co297 N301 2.148 . S
Co297 N307 2.128 . S
Co297 N317 2.194 . S
Co297 O322 2.351 . S
Co297 O323 2.155 . S
Co297 O324 2.096 . S
C298 N301 1.301 . S
C298 N302 1.328 . S
C298 H303 0.930 . S
C299 C300 1.333 . S
C299 N301 1.317 . S
C299 H304 0.930 . S
C300 C299 1.333 . S
C300 N302 1.350 . S
C300 H326 0.931 . S
N301 Co297 2.148 . S
N301 C298 1.301 . S
N301 C299 1.317 . S
N302 C298 1.328 . S
N302 C300 1.350 . S
H303 C298 0.930 . S
H304 C299 0.930 . S
C305 O306 1.224 . S
C305 O324 1.247 . S
O306 C305 1.224 . S
N307 Co297 2.128 . S
N307 C308 1.355 . S
N307 C310 1.311 . S
C308 N307 1.355 . S
C308 C309 1.363 . S
C308 H320 0.929 . S
C309 C308 1.363 . S
C309 N311 1.375 . S
C309 H327 0.931 . S
C310 N307 1.311 . S
C310 N311 1.347 . S
C310 H321 0.929 . S
N311 C309 1.375 . S
N311 C310 1.347 . S
C312 C315 1.365 . S
C312 N317 1.328 . S
C312 H318 0.929 . S
C313 C314 1.362 . S
C313 C316 1.378 . S
C313 H328 0.929 . S
C314 C313 1.362 . S
C314 C315 1.366 . S
C315 C312 1.365 . S
C315 C314 1.366 . S
C315 H329 0.930 . S
C316 C313 1.378 . S
C316 N317 1.315 . S
C316 H319 0.930 . S
N317 Co297 2.194 . S
N317 C312 1.328 . S
N317 C316 1.315 . S
H318 C312 0.929 . S
H319 C316 0.930 . S
H320 C308 0.929 . S
H321 C310 0.929 . S
O322 Co297 2.351 . S
O322 C325 1.244 . S
O323 Co297 2.155 . S
O323 C325 1.240 . S
O324 Co297 2.096 . S
O324 C305 1.247 . S
C325 O322 1.244 . S
C325 O323 1.240 . S
H326 C300 0.931 . S
H327 C309 0.931 . S
H328 C313 0.929 . S
H329 C315 0.930 . S
Co330 N334 2.148 . S
Co330 N340 2.128 . S
Co330 N350 2.194 . S
Co330 O355 2.351 . S
Co330 O356 2.155 . S
Co330 O357 2.096 . S
C331 N334 1.301 . S
C331 N335 1.328 . S
C331 H336 0.930 . S
C332 C333 1.333 . S
C332 N334 1.317 . S
C332 H337 0.930 . S
C333 C332 1.333 . S
C333 N335 1.350 . S
C333 H359 0.931 . S
N334 Co330 2.148 . S
N334 C331 1.301 . S
N334 C332 1.317 . S
N335 C331 1.328 . S
N335 C333 1.350 . S
H336 C331 0.930 . S
H337 C332 0.930 . S
C338 O339 1.224 . S
C338 O357 1.247 . S
O339 C338 1.224 . S
N340 Co330 2.128 . S
N340 C341 1.355 . S
N340 C343 1.311 . S
C341 N340 1.355 . S
C341 C342 1.363 1_565 S
C341 H353 0.929 . S
C342 C341 1.363 1_545 S
C342 N344 1.375 . S
C342 H360 0.931 . S
C343 N340 1.311 . S
C343 N344 1.347 1_565 S
C343 H354 0.929 . S
N344 C342 1.375 . S
N344 C343 1.347 1_545 S
C345 C348 1.365 . S
C345 N350 1.328 . S
C345 H351 0.929 . S
C346 C347 1.362 . S
C346 C349 1.378 . S
C346 H361 0.929 . S
C347 C346 1.362 . S
C347 C348 1.366 . S
C348 C345 1.365 . S
C348 C347 1.366 . S
C348 H362 0.930 . S
C349 C346 1.378 . S
C349 N350 1.315 . S
C349 H352 0.930 . S
N350 Co330 2.194 . S
N350 C345 1.328 . S
N350 C349 1.315 . S
H351 C345 0.929 . S
H352 C349 0.930 . S
H353 C341 0.929 . S
H354 C343 0.929 . S
O355 Co330 2.351 . S
O355 C358 1.244 . S
O356 Co330 2.155 . S
O356 C358 1.240 . S
O357 Co330 2.096 . S
O357 C338 1.247 . S
C358 O355 1.244 . S
C358 O356 1.240 . S
H359 C333 0.931 . S
H360 C342 0.931 . S
H361 C346 0.929 . S
H362 C348 0.930 . S
Co363 N367 2.148 . S
Co363 N373 2.128 . S
Co363 N383 2.194 . S
Co363 O388 2.351 . S
Co363 O389 2.155 . S
Co363 O390 2.096 . S
C364 N367 1.301 . S
C364 N368 1.328 . S
C364 H369 0.930 . S
C365 C366 1.333 . S
C365 N367 1.317 . S
C365 H370 0.930 . S
C366 C365 1.333 . S
C366 N368 1.350 . S
C366 H392 0.931 . S
N367 Co363 2.148 . S
N367 C364 1.301 . S
N367 C365 1.317 . S
N368 C364 1.328 . S
N368 C366 1.350 . S
H369 C364 0.930 . S
H370 C365 0.930 . S
C371 O372 1.224 . S
C371 O390 1.247 . S
O372 C371 1.224 . S
N373 Co363 2.128 . S
N373 C374 1.355 . S
N373 C376 1.311 . S
C374 N373 1.355 . S
C374 C375 1.363 . S
C374 H386 0.929 . S
C375 C374 1.363 . S
C375 N377 1.375 . S
C375 H393 0.931 . S
C376 N373 1.311 . S
C376 N377 1.347 . S
C376 H387 0.929 . S
N377 C375 1.375 . S
N377 C376 1.347 . S
C378 C381 1.365 . S
C378 N383 1.328 . S
C378 H384 0.929 . S
C379 C380 1.362 . S
C379 C382 1.378 . S
C379 H394 0.929 . S
C380 C379 1.362 . S
C380 C381 1.366 . S
C381 C378 1.365 . S
C381 C380 1.366 . S
C381 H395 0.930 . S
C382 C379 1.378 . S
C382 N383 1.315 . S
C382 H385 0.930 . S
N383 Co363 2.194 . S
N383 C378 1.328 . S
N383 C382 1.315 . S
H384 C378 0.929 . S
H385 C382 0.930 . S
H386 C374 0.929 . S
H387 C376 0.929 . S
O388 Co363 2.351 . S
O388 C391 1.244 . S
O389 Co363 2.155 . S
O389 C391 1.240 . S
O390 Co363 2.096 . S
O390 C371 1.247 . S
C391 O388 1.244 . S
C391 O389 1.240 . S
H392 C366 0.931 . S
H393 C375 0.931 . S
H394 C379 0.929 . S
H395 C381 0.930 . S
Co396 N400 2.148 . S
Co396 N406 2.128 . S
Co396 N416 2.194 . S
Co396 O421 2.351 . S
Co396 O422 2.155 . S
Co396 O423 2.096 . S
C397 N400 1.301 . S
C397 N401 1.328 . S
C397 H402 0.930 . S
C398 C399 1.333 . S
C398 N400 1.317 . S
C398 H403 0.930 . S
C399 C398 1.333 . S
C399 N401 1.350 . S
C399 H425 0.931 . S
N400 Co396 2.148 . S
N400 C397 1.301 . S
N400 C398 1.317 . S
N401 C397 1.328 . S
N401 C399 1.350 . S
H402 C397 0.930 . S
H403 C398 0.930 . S
C404 O405 1.224 . S
C404 O423 1.247 . S
O405 C404 1.224 . S
N406 Co396 2.128 . S
N406 C407 1.355 . S
N406 C409 1.311 . S
C407 N406 1.355 . S
C407 C408 1.363 1_565 S
C407 H419 0.929 . S
C408 C407 1.363 1_545 S
C408 N410 1.375 . S
C408 H426 0.931 . S
C409 N406 1.311 . S
C409 N410 1.347 1_565 S
C409 H420 0.929 . S
N410 C408 1.375 . S
N410 C409 1.347 1_545 S
C411 C414 1.365 . S
C411 N416 1.328 . S
C411 H417 0.929 . S
C412 C413 1.362 . S
C412 C415 1.378 . S
C412 H427 0.929 . S
C413 C412 1.362 . S
C413 C414 1.366 . S
C414 C411 1.365 . S
C414 C413 1.366 . S
C414 H428 0.930 . S
C415 C412 1.378 . S
C415 N416 1.315 . S
C415 H418 0.930 . S
N416 Co396 2.194 . S
N416 C411 1.328 . S
N416 C415 1.315 . S
H417 C411 0.929 . S
H418 C415 0.930 . S
H419 C407 0.929 . S
H420 C409 0.929 . S
O421 Co396 2.351 . S
O421 C424 1.244 . S
O422 Co396 2.155 . S
O422 C424 1.240 . S
O423 Co396 2.096 . S
O423 C404 1.247 . S
C424 O421 1.244 . S
C424 O422 1.240 . S
H425 C399 0.931 . S
H426 C408 0.931 . S
H427 C412 0.929 . S
H428 C414 0.930 . S
Co429 N433 2.148 . S
Co429 N439 2.128 . S
Co429 N449 2.194 . S
Co429 O454 2.351 . S
Co429 O455 2.155 . S
Co429 O456 2.096 . S
C430 N433 1.301 . S
C430 N434 1.328 . S
C430 H435 0.930 . S
C431 C432 1.333 . S
C431 N433 1.317 . S
C431 H436 0.930 . S
C432 C431 1.333 . S
C432 N434 1.350 . S
C432 H458 0.931 . S
N433 Co429 2.148 . S
N433 C430 1.301 . S
N433 C431 1.317 . S
N434 C430 1.328 . S
N434 C432 1.350 . S
H435 C430 0.930 . S
H436 C431 0.930 . S
C437 O438 1.224 . S
C437 O456 1.247 . S
O438 C437 1.224 . S
N439 Co429 2.128 . S
N439 C440 1.355 . S
N439 C442 1.311 . S
C440 N439 1.355 . S
C440 C441 1.363 . S
C440 H452 0.929 . S
C441 C440 1.363 . S
C441 N443 1.375 . S
C441 H459 0.931 . S
C442 N439 1.311 . S
C442 N443 1.347 . S
C442 H453 0.929 . S
N443 C441 1.375 . S
N443 C442 1.347 . S
C444 C447 1.365 . S
C444 N449 1.328 . S
C444 H450 0.929 . S
C445 C446 1.362 . S
C445 C448 1.378 . S
C445 H460 0.929 . S
C446 C445 1.362 . S
C446 C447 1.366 . S
C447 C444 1.365 . S
C447 C446 1.366 . S
C447 H461 0.930 . S
C448 C445 1.378 . S
C448 N449 1.315 . S
C448 H451 0.930 . S
N449 Co429 2.194 . S
N449 C444 1.328 . S
N449 C448 1.315 . S
H450 C444 0.929 . S
H451 C448 0.930 . S
H452 C440 0.929 . S
H453 C442 0.929 . S
O454 Co429 2.351 . S
O454 C457 1.244 . S
O455 Co429 2.155 . S
O455 C457 1.240 . S
O456 Co429 2.096 . S
O456 C437 1.247 . S
C457 O454 1.244 . S
C457 O455 1.240 . S
H458 C432 0.931 . S
H459 C441 0.931 . S
H460 C445 0.929 . S
H461 C447 0.930 . S
Co462 N466 2.148 . S
Co462 N472 2.128 . S
Co462 N482 2.194 . S
Co462 O487 2.351 . S
Co462 O488 2.155 . S
Co462 O489 2.096 . S
C463 N466 1.301 . S
C463 N467 1.328 . S
C463 H468 0.930 . S
C464 C465 1.333 . S
C464 N466 1.317 . S
C464 H469 0.930 . S
C465 C464 1.333 . S
C465 N467 1.350 . S
C465 H491 0.931 . S
N466 Co462 2.148 . S
N466 C463 1.301 . S
N466 C464 1.317 . S
N467 C463 1.328 . S
N467 C465 1.350 . S
H468 C463 0.930 . S
H469 C464 0.930 . S
C470 O471 1.224 . S
C470 O489 1.247 . S
O471 C470 1.224 . S
N472 Co462 2.128 . S
N472 C473 1.355 . S
N472 C475 1.311 . S
C473 N472 1.355 . S
C473 C474 1.363 1_545 S
C473 H485 0.929 . S
C474 C473 1.363 1_565 S
C474 N476 1.375 . S
C474 H492 0.931 . S
C475 N472 1.311 . S
C475 N476 1.347 1_545 S
C475 H486 0.929 . S
N476 C474 1.375 . S
N476 C475 1.347 1_565 S
C477 C480 1.365 . S
C477 N482 1.328 . S
C477 H483 0.929 . S
C478 C479 1.362 . S
C478 C481 1.378 . S
C478 H493 0.929 . S
C479 C478 1.362 . S
C479 C480 1.366 . S
C480 C477 1.365 . S
C480 C479 1.366 . S
C480 H494 0.930 . S
C481 C478 1.378 . S
C481 N482 1.315 . S
C481 H484 0.930 . S
N482 Co462 2.194 . S
N482 C477 1.328 . S
N482 C481 1.315 . S
H483 C477 0.929 . S
H484 C481 0.930 . S
H485 C473 0.929 . S
H486 C475 0.929 . S
O487 Co462 2.351 . S
O487 C490 1.244 . S
O488 Co462 2.155 . S
O488 C490 1.240 . S
O489 Co462 2.096 . S
O489 C470 1.247 . S
C490 O487 1.244 . S
C490 O488 1.240 . S
H491 C465 0.931 . S
H492 C474 0.931 . S
H493 C478 0.929 . S
H494 C480 0.930 . S
Co495 N499 2.148 . S
Co495 N505 2.128 . S
Co495 N515 2.194 . S
Co495 O520 2.351 . S
Co495 O521 2.155 . S
Co495 O522 2.096 . S
C496 N499 1.301 . S
C496 N500 1.328 . S
C496 H501 0.930 . S
C497 C498 1.333 . S
C497 N499 1.317 . S
C497 H502 0.930 . S
C498 C497 1.333 . S
C498 N500 1.350 . S
C498 H524 0.931 . S
N499 Co495 2.148 . S
N499 C496 1.301 . S
N499 C497 1.317 . S
N500 C496 1.328 . S
N500 C498 1.350 . S
H501 C496 0.930 . S
H502 C497 0.930 . S
C503 O504 1.224 . S
C503 O522 1.247 . S
O504 C503 1.224 . S
N505 Co495 2.128 . S
N505 C506 1.355 . S
N505 C508 1.311 . S
C506 N505 1.355 . S
C506 C507 1.363 . S
C506 H518 0.929 . S
C507 C506 1.363 . S
C507 N509 1.375 . S
C507 H525 0.931 . S
C508 N505 1.311 . S
C508 N509 1.347 . S
C508 H519 0.929 . S
N509 C507 1.375 . S
N509 C508 1.347 . S
C510 C513 1.365 . S
C510 N515 1.328 . S
C510 H516 0.929 . S
C511 C512 1.362 . S
C511 C514 1.378 . S
C511 H526 0.929 . S
C512 C511 1.362 . S
C512 C513 1.366 . S
C513 C510 1.365 . S
C513 C512 1.366 . S
C513 H527 0.930 . S
C514 C511 1.378 . S
C514 N515 1.315 . S
C514 H517 0.930 . S
N515 Co495 2.194 . S
N515 C510 1.328 . S
N515 C514 1.315 . S
H516 C510 0.929 . S
H517 C514 0.930 . S
H518 C506 0.929 . S
H519 C508 0.929 . S
O520 Co495 2.351 . S
O520 C523 1.244 . S
O521 Co495 2.155 . S
O521 C523 1.240 . S
O522 Co495 2.096 . S
O522 C503 1.247 . S
C523 O520 1.244 . S
C523 O521 1.240 . S
H524 C498 0.931 . S
H525 C507 0.931 . S
H526 C511 0.929 . S
H527 C513 0.930 . S
Co528 N532 2.148 . S
Co528 N538 2.128 . S
Co528 N548 2.194 . S
Co528 O553 2.351 . S
Co528 O554 2.155 . S
Co528 O555 2.096 . S
C529 N532 1.301 . S
C529 N533 1.328 . S
C529 H534 0.930 . S
C530 C531 1.333 . S
C530 N532 1.317 . S
C530 H535 0.930 . S
C531 C530 1.333 . S
C531 N533 1.350 . S
C531 H557 0.931 . S
N532 Co528 2.148 . S
N532 C529 1.301 . S
N532 C530 1.317 . S
N533 C529 1.328 . S
N533 C531 1.350 . S
H534 C529 0.930 . S
H535 C530 0.930 . S
C536 O537 1.224 . S
C536 O555 1.247 . S
O537 C536 1.224 . S
N538 Co528 2.128 . S
N538 C539 1.355 . S
N538 C541 1.311 . S
C539 N538 1.355 . S
C539 C540 1.363 1_554 S
C539 H551 0.929 . S
C540 C539 1.363 1_556 S
C540 N542 1.375 . S
C540 H558 0.931 . S
C541 N538 1.311 . S
C541 N542 1.347 1_554 S
C541 H552 0.929 . S
N542 C540 1.375 . S
N542 C541 1.347 1_556 S
C543 C546 1.365 . S
C543 N548 1.328 . S
C543 H549 0.929 . S
C544 C545 1.362 . S
C544 C547 1.378 . S
C544 H559 0.929 . S
C545 C544 1.362 . S
C545 C546 1.366 . S
C546 C543 1.365 . S
C546 C545 1.366 . S
C546 H560 0.930 . S
C547 C544 1.378 . S
C547 N548 1.315 . S
C547 H550 0.930 . S
N548 Co528 2.194 . S
N548 C543 1.328 . S
N548 C547 1.315 . S
H549 C543 0.929 . S
H550 C547 0.930 . S
H551 C539 0.929 . S
H552 C541 0.929 . S
O553 Co528 2.351 . S
O553 C556 1.244 . S
O554 Co528 2.155 . S
O554 C556 1.240 . S
O555 Co528 2.096 . S
O555 C536 1.247 . S
C556 O553 1.244 . S
C556 O554 1.240 . S
H557 C531 0.931 . S
H558 C540 0.931 . S
H559 C544 0.929 . S
H560 C546 0.930 . S
Co561 N565 2.148 . S
Co561 N571 2.128 . S
Co561 N581 2.194 . S
Co561 O586 2.351 . S
Co561 O587 2.155 . S
Co561 O588 2.096 . S
C562 N565 1.301 . S
C562 N566 1.328 . S
C562 H567 0.930 . S
C563 C564 1.333 . S
C563 N565 1.317 . S
C563 H568 0.930 . S
C564 C563 1.333 . S
C564 N566 1.350 . S
C564 H590 0.931 . S
N565 Co561 2.148 . S
N565 C562 1.301 . S
N565 C563 1.317 . S
N566 C562 1.328 . S
N566 C564 1.350 . S
H567 C562 0.930 . S
H568 C563 0.930 . S
C569 O570 1.224 . S
C569 O588 1.247 . S
O570 C569 1.224 . S
N571 Co561 2.128 . S
N571 C572 1.355 . S
N571 C574 1.311 . S
C572 N571 1.355 . S
C572 C573 1.363 1_556 S
C572 H584 0.929 . S
C573 C572 1.363 1_554 S
C573 N575 1.375 . S
C573 H591 0.931 . S
C574 N571 1.311 . S
C574 N575 1.347 1_556 S
C574 H585 0.929 . S
N575 C573 1.375 . S
N575 C574 1.347 1_554 S
C576 C579 1.365 . S
C576 N581 1.328 . S
C576 H582 0.929 . S
C577 C578 1.362 . S
C577 C580 1.378 . S
C577 H592 0.929 . S
C578 C577 1.362 . S
C578 C579 1.366 . S
C579 C576 1.365 . S
C579 C578 1.366 . S
C579 H593 0.930 . S
C580 C577 1.378 . S
C580 N581 1.315 . S
C580 H583 0.930 . S
N581 Co561 2.194 . S
N581 C576 1.328 . S
N581 C580 1.315 . S
H582 C576 0.929 . S
H583 C580 0.930 . S
H584 C572 0.929 . S
H585 C574 0.929 . S
O586 Co561 2.351 . S
O586 C589 1.244 . S
O587 Co561 2.155 . S
O587 C589 1.240 . S
O588 Co561 2.096 . S
O588 C569 1.247 . S
C589 O586 1.244 . S
C589 O587 1.240 . S
H590 C564 0.931 . S
H591 C573 0.931 . S
H592 C577 0.929 . S
H593 C579 0.930 . S
Co594 N598 2.148 . S
Co594 N604 2.128 . S
Co594 N614 2.194 . S
Co594 O619 2.351 . S
Co594 O620 2.155 . S
Co594 O621 2.096 . S
C595 N598 1.301 . S
C595 N599 1.328 . S
C595 H600 0.930 . S
C596 C597 1.333 . S
C596 N598 1.317 . S
C596 H601 0.930 . S
C597 C596 1.333 . S
C597 N599 1.350 . S
C597 H623 0.931 . S
N598 Co594 2.148 . S
N598 C595 1.301 . S
N598 C596 1.317 . S
N599 C595 1.328 . S
N599 C597 1.350 . S
H600 C595 0.930 . S
H601 C596 0.930 . S
C602 O603 1.224 . S
C602 O621 1.247 . S
O603 C602 1.224 . S
N604 Co594 2.128 . S
N604 C605 1.355 . S
N604 C607 1.311 . S
C605 N604 1.355 . S
C605 C606 1.363 . S
C605 H617 0.929 . S
C606 C605 1.363 . S
C606 N608 1.375 . S
C606 H624 0.931 . S
C607 N604 1.311 . S
C607 N608 1.347 . S
C607 H618 0.929 . S
N608 C606 1.375 . S
N608 C607 1.347 . S
C609 C612 1.365 . S
C609 N614 1.328 . S
C609 H615 0.929 . S
C610 C611 1.362 . S
C610 C613 1.378 . S
C610 H625 0.929 . S
C611 C610 1.362 . S
C611 C612 1.366 . S
C612 C609 1.365 . S
C612 C611 1.366 . S
C612 H626 0.930 . S
C613 C610 1.378 . S
C613 N614 1.315 . S
C613 H616 0.930 . S
N614 Co594 2.194 . S
N614 C609 1.328 . S
N614 C613 1.315 . S
H615 C609 0.929 . S
H616 C613 0.930 . S
H617 C605 0.929 . S
H618 C607 0.929 . S
O619 Co594 2.351 . S
O619 C622 1.244 . S
O620 Co594 2.155 . S
O620 C622 1.240 . S
O621 Co594 2.096 . S
O621 C602 1.247 . S
C622 O619 1.244 . S
C622 O620 1.240 . S
H623 C597 0.931 . S
H624 C606 0.931 . S
H625 C610 0.929 . S
H626 C612 0.930 . S
Co627 N631 2.148 . S
Co627 N637 2.128 . S
Co627 N647 2.194 . S
Co627 O652 2.351 . S
Co627 O653 2.155 . S
Co627 O654 2.096 . S
C628 N631 1.301 . S
C628 N632 1.328 . S
C628 H633 0.930 . S
C629 C630 1.333 . S
C629 N631 1.317 . S
C629 H634 0.930 . S
C630 C629 1.333 . S
C630 N632 1.350 . S
C630 H656 0.931 . S
N631 Co627 2.148 . S
N631 C628 1.301 . S
N631 C629 1.317 . S
N632 C628 1.328 . S
N632 C630 1.350 . S
H633 C628 0.930 . S
H634 C629 0.930 . S
C635 O636 1.224 . S
C635 O654 1.247 . S
O636 C635 1.224 . S
N637 Co627 2.128 . S
N637 C638 1.355 . S
N637 C640 1.311 . S
C638 N637 1.355 . S
C638 C639 1.363 1_556 S
C638 H650 0.929 . S
C639 C638 1.363 1_554 S
C639 N641 1.375 . S
C639 H657 0.931 . S
C640 N637 1.311 . S
C640 N641 1.347 1_556 S
C640 H651 0.929 . S
N641 C639 1.375 . S
N641 C640 1.347 1_554 S
C642 C645 1.365 . S
C642 N647 1.328 . S
C642 H648 0.929 . S
C643 C644 1.362 . S
C643 C646 1.378 . S
C643 H658 0.929 . S
C644 C643 1.362 . S
C644 C645 1.366 . S
C645 C642 1.365 . S
C645 C644 1.366 . S
C645 H659 0.930 . S
C646 C643 1.378 . S
C646 N647 1.315 . S
C646 H649 0.930 . S
N647 Co627 2.194 . S
N647 C642 1.328 . S
N647 C646 1.315 . S
H648 C642 0.929 . S
H649 C646 0.930 . S
H650 C638 0.929 . S
H651 C640 0.929 . S
O652 Co627 2.351 . S
O652 C655 1.244 . S
O653 Co627 2.155 . S
O653 C655 1.240 . S
O654 Co627 2.096 . S
O654 C635 1.247 . S
C655 O652 1.244 . S
C655 O653 1.240 . S
H656 C630 0.931 . S
H657 C639 0.931 . S
H658 C643 0.929 . S
H659 C645 0.930 . S
Co660 N664 2.148 . S
Co660 N670 2.128 . S
Co660 N680 2.194 . S
Co660 O685 2.351 . S
Co660 O686 2.155 . S
Co660 O687 2.096 . S
C661 N664 1.301 . S
C661 N665 1.328 . S
C661 H666 0.930 . S
C662 C663 1.333 . S
C662 N664 1.317 . S
C662 H667 0.930 . S
C663 C662 1.333 . S
C663 N665 1.350 . S
C663 H689 0.931 . S
N664 Co660 2.148 . S
N664 C661 1.301 . S
N664 C662 1.317 . S
N665 C661 1.328 . S
N665 C663 1.350 . S
H666 C661 0.930 . S
H667 C662 0.930 . S
C668 O669 1.224 . S
C668 O687 1.247 . S
O669 C668 1.224 . S
N670 Co660 2.128 . S
N670 C671 1.355 . S
N670 C673 1.311 . S
C671 N670 1.355 . S
C671 C672 1.363 . S
C671 H683 0.929 . S
C672 C671 1.363 . S
C672 N674 1.375 . S
C672 H690 0.931 . S
C673 N670 1.311 . S
C673 N674 1.347 . S
C673 H684 0.929 . S
N674 C672 1.375 . S
N674 C673 1.347 . S
C675 C678 1.365 . S
C675 N680 1.328 . S
C675 H681 0.929 . S
C676 C677 1.362 . S
C676 C679 1.378 . S
C676 H691 0.929 . S
C677 C676 1.362 . S
C677 C678 1.366 . S
C678 C675 1.365 . S
C678 C677 1.366 . S
C678 H692 0.930 . S
C679 C676 1.378 . S
C679 N680 1.315 . S
C679 H682 0.930 . S
N680 Co660 2.194 . S
N680 C675 1.328 . S
N680 C679 1.315 . S
H681 C675 0.929 . S
H682 C679 0.930 . S
H683 C671 0.929 . S
H684 C673 0.929 . S
O685 Co660 2.351 . S
O685 C688 1.244 . S
O686 Co660 2.155 . S
O686 C688 1.240 . S
O687 Co660 2.096 . S
O687 C668 1.247 . S
C688 O685 1.244 . S
C688 O686 1.240 . S
H689 C663 0.931 . S
H690 C672 0.931 . S
H691 C676 0.929 . S
H692 C678 0.930 . S
Co693 N697 2.148 . S
Co693 N703 2.128 . S
Co693 N713 2.194 . S
Co693 O718 2.351 . S
Co693 O719 2.155 . S
Co693 O720 2.096 . S
C694 N697 1.301 . S
C694 N698 1.328 . S
C694 H699 0.930 . S
C695 C696 1.333 . S
C695 N697 1.317 . S
C695 H700 0.930 . S
C696 C695 1.333 . S
C696 N698 1.350 . S
C696 H722 0.931 . S
N697 Co693 2.148 . S
N697 C694 1.301 . S
N697 C695 1.317 . S
N698 C694 1.328 . S
N698 C696 1.350 . S
H699 C694 0.930 . S
H700 C695 0.930 . S
C701 O702 1.224 . S
C701 O720 1.247 . S
O702 C701 1.224 . S
N703 Co693 2.128 . S
N703 C704 1.355 . S
N703 C706 1.311 . S
C704 N703 1.355 . S
C704 C705 1.363 1_554 S
C704 H716 0.929 . S
C705 C704 1.363 1_556 S
C705 N707 1.375 . S
C705 H723 0.931 . S
C706 N703 1.311 . S
C706 N707 1.347 1_554 S
C706 H717 0.929 . S
N707 C705 1.375 . S
N707 C706 1.347 1_556 S
C708 C711 1.365 . S
C708 N713 1.328 . S
C708 H714 0.929 . S
C709 C710 1.362 . S
C709 C712 1.378 . S
C709 H724 0.929 . S
C710 C709 1.362 . S
C710 C711 1.366 . S
C711 C708 1.365 . S
C711 C710 1.366 . S
C711 H725 0.930 . S
C712 C709 1.378 . S
C712 N713 1.315 . S
C712 H715 0.930 . S
N713 Co693 2.194 . S
N713 C708 1.328 . S
N713 C712 1.315 . S
H714 C708 0.929 . S
H715 C712 0.930 . S
H716 C704 0.929 . S
H717 C706 0.929 . S
O718 Co693 2.351 . S
O718 C721 1.244 . S
O719 Co693 2.155 . S
O719 C721 1.240 . S
O720 Co693 2.096 . S
O720 C701 1.247 . S
C721 O718 1.244 . S
C721 O719 1.240 . S
H722 C696 0.931 . S
H723 C705 0.931 . S
H724 C709 0.929 . S
H725 C711 0.930 . S
Co726 N730 2.148 . S
Co726 N736 2.128 . S
Co726 N746 2.194 . S
Co726 O751 2.351 . S
Co726 O752 2.155 . S
Co726 O753 2.096 . S
C727 N730 1.301 . S
C727 N731 1.328 . S
C727 H732 0.930 . S
C728 C729 1.333 . S
C728 N730 1.317 . S
C728 H733 0.930 . S
C729 C728 1.333 . S
C729 N731 1.350 . S
C729 H755 0.931 . S
N730 Co726 2.148 . S
N730 C727 1.301 . S
N730 C728 1.317 . S
N731 C727 1.328 . S
N731 C729 1.350 . S
H732 C727 0.930 . S
H733 C728 0.930 . S
C734 O735 1.224 . S
C734 O753 1.247 . S
O735 C734 1.224 . S
N736 Co726 2.128 . S
N736 C737 1.355 . S
N736 C739 1.311 . S
C737 N736 1.355 . S
C737 C738 1.363 . S
C737 H749 0.929 . S
C738 C737 1.363 . S
C738 N740 1.375 . S
C738 H756 0.931 . S
C739 N736 1.311 . S
C739 N740 1.347 . S
C739 H750 0.929 . S
N740 C738 1.375 . S
N740 C739 1.347 . S
C741 C744 1.365 . S
C741 N746 1.328 . S
C741 H747 0.929 . S
C742 C743 1.362 . S
C742 C745 1.378 . S
C742 H757 0.929 . S
C743 C742 1.362 . S
C743 C744 1.366 . S
C744 C741 1.365 . S
C744 C743 1.366 . S
C744 H758 0.930 . S
C745 C742 1.378 . S
C745 N746 1.315 . S
C745 H748 0.930 . S
N746 Co726 2.194 . S
N746 C741 1.328 . S
N746 C745 1.315 . S
H747 C741 0.929 . S
H748 C745 0.930 . S
H749 C737 0.929 . S
H750 C739 0.929 . S
O751 Co726 2.351 . S
O751 C754 1.244 . S
O752 Co726 2.155 . S
O752 C754 1.240 . S
O753 Co726 2.096 . S
O753 C734 1.247 . S
C754 O751 1.244 . S
C754 O752 1.240 . S
H755 C729 0.931 . S
H756 C738 0.931 . S
H757 C742 0.929 . S
H758 C744 0.930 . S
Co759 N763 2.148 . S
Co759 N769 2.128 . S
Co759 N779 2.194 . S
Co759 O784 2.351 . S
Co759 O785 2.155 . S
Co759 O786 2.096 . S
C760 N763 1.301 . S
C760 N764 1.328 . S
C760 H765 0.930 . S
C761 C762 1.333 . S
C761 N763 1.317 . S
C761 H766 0.930 . S
C762 C761 1.333 . S
C762 N764 1.350 . S
C762 H788 0.931 . S
N763 Co759 2.148 . S
N763 C760 1.301 . S
N763 C761 1.317 . S
N764 C760 1.328 . S
N764 C762 1.350 . S
H765 C760 0.930 . S
H766 C761 0.930 . S
C767 O768 1.224 . S
C767 O786 1.247 . S
O768 C767 1.224 . S
N769 Co759 2.128 . S
N769 C770 1.355 . S
N769 C772 1.311 . S
C770 N769 1.355 . S
C770 C771 1.363 . S
C770 H782 0.929 . S
C771 C770 1.363 . S
C771 N773 1.375 . S
C771 H789 0.931 . S
C772 N769 1.311 . S
C772 N773 1.347 . S
C772 H783 0.929 . S
N773 C771 1.375 . S
N773 C772 1.347 . S
C774 C777 1.365 . S
C774 N779 1.328 . S
C774 H780 0.929 . S
C775 C776 1.362 . S
C775 C778 1.378 . S
C775 H790 0.929 . S
C776 C775 1.362 . S
C776 C777 1.366 . S
C777 C774 1.365 . S
C777 C776 1.366 . S
C777 H791 0.930 . S
C778 C775 1.378 . S
C778 N779 1.315 . S
C778 H781 0.930 . S
N779 Co759 2.194 . S
N779 C774 1.328 . S
N779 C778 1.315 . S
H780 C774 0.929 . S
H781 C778 0.930 . S
H782 C770 0.929 . S
H783 C772 0.929 . S
O784 Co759 2.351 . S
O784 C787 1.244 . S
O785 Co759 2.155 . S
O785 C787 1.240 . S
O786 Co759 2.096 . S
O786 C767 1.247 . S
C787 O784 1.244 . S
C787 O785 1.240 . S
H788 C762 0.931 . S
H789 C771 0.931 . S
H790 C775 0.929 . S
H791 C777 0.930 . S
C792 C793 1.369 . S
C792 C794 1.419 . S
C792 H796 0.930 . S
C793 C792 1.369 . S
C793 C802 1.429 . S
C794 C792 1.419 . S
C794 C795 1.363 . S
C794 H797 0.929 . S
C795 C794 1.363 . S
C795 C801 1.428 . S
H796 C792 0.930 . S
H797 C794 0.929 . S
S798 N799 1.613 . S
S798 N800 1.610 . S
N799 S798 1.613 . S
N799 C802 1.350 . S
N800 S798 1.610 . S
N800 C801 1.351 . S
C801 C795 1.428 . S
C801 N800 1.351 . S
C801 C802 1.434 . S
C802 C793 1.429 . S
C802 N799 1.350 . S
C802 C801 1.434 . S
C803 C804 1.369 . S
C803 C805 1.419 . S
C803 H807 0.930 . S
C804 C803 1.369 . S
C804 C813 1.429 . S
C805 C803 1.419 . S
C805 C806 1.363 . S
C805 H808 0.929 . S
C806 C805 1.363 . S
C806 C812 1.428 . S
H807 C803 0.930 . S
H808 C805 0.929 . S
S809 N810 1.613 . S
S809 N811 1.610 . S
N810 S809 1.613 . S
N810 C813 1.350 . S
N811 S809 1.610 . S
N811 C812 1.351 . S
C812 C806 1.428 . S
C812 N811 1.351 . S
C812 C813 1.434 . S
C813 C804 1.429 . S
C813 N810 1.350 . S
C813 C812 1.434 . S
C814 C815 1.369 . S
C814 C816 1.419 . S
C814 H818 0.930 . S
C815 C814 1.369 . S
C815 C824 1.429 . S
C816 C814 1.419 . S
C816 C817 1.363 . S
C816 H819 0.929 . S
C817 C816 1.363 . S
C817 C823 1.428 . S
H818 C814 0.930 . S
H819 C816 0.929 . S
S820 N821 1.613 . S
S820 N822 1.610 . S
N821 S820 1.613 . S
N821 C824 1.350 . S
N822 S820 1.610 . S
N822 C823 1.351 . S
C823 C817 1.428 . S
C823 N822 1.351 . S
C823 C824 1.434 . S
C824 C815 1.429 . S
C824 N821 1.350 . S
C824 C823 1.434 . S
C825 C826 1.369 . S
C825 C827 1.419 . S
C825 H829 0.930 . S
C826 C825 1.369 . S
C826 C835 1.429 . S
C827 C825 1.419 . S
C827 C828 1.363 . S
C827 H830 0.929 . S
C828 C827 1.363 . S
C828 C834 1.428 . S
H829 C825 0.930 . S
H830 C827 0.929 . S
S831 N832 1.613 . S
S831 N833 1.610 . S
N832 S831 1.613 . S
N832 C835 1.350 . S
N833 S831 1.610 . S
N833 C834 1.351 . S
C834 C828 1.428 . S
C834 N833 1.351 . S
C834 C835 1.434 . S
C835 C826 1.429 . S
C835 N832 1.350 . S
C835 C834 1.434 . S
C836 C837 1.369 . S
C836 C838 1.419 . S
C836 H840 0.930 . S
C837 C836 1.369 . S
C837 C846 1.429 . S
C838 C836 1.419 . S
C838 C839 1.363 . S
C838 H841 0.929 . S
C839 C838 1.363 . S
C839 C845 1.428 . S
H840 C836 0.930 . S
H841 C838 0.929 . S
S842 N843 1.613 . S
S842 N844 1.610 . S
N843 S842 1.613 . S
N843 C846 1.350 . S
N844 S842 1.610 . S
N844 C845 1.351 . S
C845 C839 1.428 . S
C845 N844 1.351 . S
C845 C846 1.434 . S
C846 C837 1.429 . S
C846 N843 1.350 . S
C846 C845 1.434 . S
C847 C848 1.369 . S
C847 C849 1.419 . S
C847 H851 0.930 . S
C848 C847 1.369 . S
C848 C857 1.429 . S
C849 C847 1.419 . S
C849 C850 1.363 . S
C849 H852 0.929 . S
C850 C849 1.363 . S
C850 C856 1.428 . S
H851 C847 0.930 . S
H852 C849 0.929 . S
S853 N854 1.613 . S
S853 N855 1.610 . S
N854 S853 1.613 . S
N854 C857 1.350 . S
N855 S853 1.610 . S
N855 C856 1.351 . S
C856 C850 1.428 . S
C856 N855 1.351 . S
C856 C857 1.434 . S
C857 C848 1.429 . S
C857 N854 1.350 . S
C857 C856 1.434 . S
C858 C859 1.369 . S
C858 C860 1.419 . S
C858 H862 0.930 . S
C859 C858 1.369 . S
C859 C868 1.429 . S
C860 C858 1.419 . S
C860 C861 1.363 . S
C860 H863 0.929 . S
C861 C860 1.363 . S
C861 C867 1.428 . S
H862 C858 0.930 . S
H863 C860 0.929 . S
S864 N865 1.613 . S
S864 N866 1.610 . S
N865 S864 1.613 . S
N865 C868 1.350 . S
N866 S864 1.610 . S
N866 C867 1.351 . S
C867 C861 1.428 . S
C867 N866 1.351 . S
C867 C868 1.434 . S
C868 C859 1.429 . S
C868 N865 1.350 . S
C868 C867 1.434 . S
C869 C870 1.369 . S
C869 C871 1.419 . S
C869 H873 0.930 . S
C870 C869 1.369 . S
C870 C879 1.429 . S
C871 C869 1.419 . S
C871 C872 1.363 . S
C871 H874 0.929 . S
C872 C871 1.363 . S
C872 C878 1.428 . S
H873 C869 0.930 . S
H874 C871 0.929 . S
S875 N876 1.613 . S
S875 N877 1.610 . S
N876 S875 1.613 . S
N876 C879 1.350 . S
N877 S875 1.610 . S
N877 C878 1.351 . S
C878 C872 1.428 . S
C878 N877 1.351 . S
C878 C879 1.434 . S
C879 C870 1.429 . S
C879 N876 1.350 . S
C879 C878 1.434 . S
C880 C881 1.369 . S
C880 C882 1.419 . S
C880 H884 0.930 . S
C881 C880 1.369 . S
C881 C890 1.429 . S
C882 C880 1.419 . S
C882 C883 1.363 . S
C882 H885 0.929 . S
C883 C882 1.363 . S
C883 C889 1.428 . S
H884 C880 0.930 . S
H885 C882 0.929 . S
S886 N887 1.613 . S
S886 N888 1.610 . S
N887 S886 1.613 . S
N887 C890 1.350 . S
N888 S886 1.610 . S
N888 C889 1.351 . S
C889 C883 1.428 . S
C889 N888 1.351 . S
C889 C890 1.434 . S
C890 C881 1.429 . S
C890 N887 1.350 . S
C890 C889 1.434 . S
C891 C892 1.369 . S
C891 C893 1.419 . S
C891 H895 0.930 . S
C892 C891 1.369 . S
C892 C901 1.429 . S
C893 C891 1.419 . S
C893 C894 1.363 . S
C893 H896 0.929 . S
C894 C893 1.363 . S
C894 C900 1.428 . S
H895 C891 0.930 . S
H896 C893 0.929 . S
S897 N898 1.613 . S
S897 N899 1.610 1_554 S
N898 S897 1.613 . S
N898 C901 1.350 . S
N899 S897 1.610 1_556 S
N899 C900 1.351 1_556 S
C900 C894 1.428 . S
C900 N899 1.351 1_554 S
C900 C901 1.434 . S
C901 C892 1.429 . S
C901 N898 1.350 . S
C901 C900 1.434 . S
C902 C903 1.369 . S
C902 C904 1.419 . S
C902 H906 0.930 . S
C903 C902 1.369 . S
C903 C912 1.429 . S
C904 C902 1.419 . S
C904 C905 1.363 . S
C904 H907 0.929 . S
C905 C904 1.363 . S
C905 C911 1.428 . S
H906 C902 0.930 . S
H907 C904 0.929 . S
S908 N909 1.613 . S
S908 N910 1.610 . S
N909 S908 1.613 . S
N909 C912 1.350 . S
N910 S908 1.610 . S
N910 C911 1.351 . S
C911 C905 1.428 . S
C911 N910 1.351 . S
C911 C912 1.434 . S
C912 C903 1.429 . S
C912 N909 1.350 . S
C912 C911 1.434 . S
C913 C914 1.369 . S
C913 C915 1.419 . S
C913 H917 0.930 . S
C914 C913 1.369 . S
C914 C923 1.429 . S
C915 C913 1.419 . S
C915 C916 1.363 . S
C915 H918 0.929 . S
C916 C915 1.363 . S
C916 C922 1.428 . S
H917 C913 0.930 . S
H918 C915 0.929 . S
S919 N920 1.613 . S
S919 N921 1.610 . S
N920 S919 1.613 . S
N920 C923 1.350 . S
N921 S919 1.610 . S
N921 C922 1.351 . S
C922 C916 1.428 . S
C922 N921 1.351 . S
C922 C923 1.434 . S
C923 C914 1.429 . S
C923 N920 1.350 . S
C923 C922 1.434 . S
C924 C925 1.369 . S
C924 C926 1.419 . S
C924 H928 0.930 . S
C925 C924 1.369 . S
C925 C934 1.429 . S
C926 C924 1.419 . S
C926 C927 1.363 . S
C926 H929 0.929 . S
C927 C926 1.363 . S
C927 C933 1.428 . S
H928 C924 0.930 . S
H929 C926 0.929 . S
S930 N931 1.613 . S
S930 N932 1.610 . S
N931 S930 1.613 . S
N931 C934 1.350 . S
N932 S930 1.610 . S
N932 C933 1.351 . S
C933 C927 1.428 . S
C933 N932 1.351 . S
C933 C934 1.434 . S
C934 C925 1.429 . S
C934 N931 1.350 . S
C934 C933 1.434 . S
C935 C936 1.369 . S
C935 C937 1.419 . S
C935 H939 0.930 . S
C936 C935 1.369 . S
C936 C945 1.429 . S
C937 C935 1.419 . S
C937 C938 1.363 . S
C937 H940 0.929 . S
C938 C937 1.363 . S
C938 C944 1.428 . S
H939 C935 0.930 . S
H940 C937 0.929 . S
S941 N942 1.613 . S
S941 N943 1.610 . S
N942 S941 1.613 . S
N942 C945 1.350 . S
N943 S941 1.610 . S
N943 C944 1.351 . S
C944 C938 1.428 . S
C944 N943 1.351 . S
C944 C945 1.434 . S
C945 C936 1.429 . S
C945 N942 1.350 . S
C945 C944 1.434 . S
C946 C947 1.369 . S
C946 C948 1.419 . S
C946 H950 0.930 . S
C947 C946 1.369 . S
C947 C956 1.429 . S
C948 C946 1.419 . S
C948 C949 1.363 . S
C948 H951 0.929 . S
C949 C948 1.363 . S
C949 C955 1.428 . S
H950 C946 0.930 . S
H951 C948 0.929 . S
S952 N953 1.613 . S
S952 N954 1.610 . S
N953 S952 1.613 . S
N953 C956 1.350 . S
N954 S952 1.610 . S
N954 C955 1.351 . S
C955 C949 1.428 . S
C955 N954 1.351 . S
C955 C956 1.434 . S
C956 C947 1.429 . S
C956 N953 1.350 . S
C956 C955 1.434 . S
C957 C958 1.369 . S
C957 C959 1.419 . S
C957 H961 0.930 . S
C958 C957 1.369 . S
C958 C967 1.429 . S
C959 C957 1.419 . S
C959 C960 1.363 . S
C959 H962 0.929 . S
C960 C959 1.363 . S
C960 C966 1.428 . S
H961 C957 0.930 . S
H962 C959 0.929 . S
S963 N964 1.613 . S
S963 N965 1.610 . S
N964 S963 1.613 . S
N964 C967 1.350 . S
N965 S963 1.610 . S
N965 C966 1.351 . S
C966 C960 1.428 . S
C966 N965 1.351 . S
C966 C967 1.434 . S
C967 C958 1.429 . S
C967 N964 1.350 . S
C967 C966 1.434 . S
C968 C969 1.369 . S
C968 C970 1.419 . S
C968 H972 0.930 . S
C969 C968 1.369 . S
C969 C978 1.429 . S
C970 C968 1.419 . S
C970 C971 1.363 . S
C970 H973 0.929 . S
C971 C970 1.363 . S
C971 C977 1.428 . S
H972 C968 0.930 . S
H973 C970 0.929 . S
S974 N975 1.613 . S
S974 N976 1.610 . S
N975 S974 1.613 . S
N975 C978 1.350 . S
N976 S974 1.610 . S
N976 C977 1.351 . S
C977 C971 1.428 . S
C977 N976 1.351 . S
C977 C978 1.434 . S
C978 C969 1.429 . S
C978 N975 1.350 . S
C978 C977 1.434 . S
C979 C980 1.369 . S
C979 C981 1.419 . S
C979 H983 0.930 . S
C980 C979 1.369 . S
C980 C989 1.429 . S
C981 C979 1.419 . S
C981 C982 1.363 . S
C981 H984 0.929 . S
C982 C981 1.363 . S
C982 C988 1.428 . S
H983 C979 0.930 . S
H984 C981 0.929 . S
S985 N986 1.613 . S
S985 N987 1.610 . S
N986 S985 1.613 . S
N986 C989 1.350 . S
N987 S985 1.610 . S
N987 C988 1.351 . S
C988 C982 1.428 . S
C988 N987 1.351 . S
C988 C989 1.434 . S
C989 C980 1.429 . S
C989 N986 1.350 . S
C989 C988 1.434 . S
C990 C991 1.369 . S
C990 C992 1.419 . S
C990 H994 0.930 . S
C991 C990 1.369 . S
C991 C1000 1.429 . S
C992 C990 1.419 . S
C992 C993 1.363 . S
C992 H995 0.929 . S
C993 C992 1.363 . S
C993 C999 1.428 . S
H994 C990 0.930 . S
H995 C992 0.929 . S
S996 N997 1.613 1_545 S
S996 N998 1.610 . S
N997 S996 1.613 1_565 S
N997 C1000 1.350 1_565 S
N998 S996 1.610 . S
N998 C999 1.351 . S
C999 C993 1.428 . S
C999 N998 1.351 . S
C999 C1000 1.434 . S
C1000 C991 1.429 . S
C1000 N997 1.350 1_545 S
C1000 C999 1.434 . S
C1001 C1002 1.369 . S
C1001 C1003 1.419 . S
C1001 H1005 0.930 . S
C1002 C1001 1.369 . S
C1002 C1011 1.429 . S
C1003 C1001 1.419 . S
C1003 C1004 1.363 . S
C1003 H1006 0.929 . S
C1004 C1003 1.363 . S
C1004 C1010 1.428 . S
H1005 C1001 0.930 . S
H1006 C1003 0.929 . S
S1007 N1008 1.613 . S
S1007 N1009 1.610 . S
N1008 S1007 1.613 . S
N1008 C1011 1.350 . S
N1009 S1007 1.610 . S
N1009 C1010 1.351 . S
C1010 C1004 1.428 . S
C1010 N1009 1.351 . S
C1010 C1011 1.434 . S
C1011 C1002 1.429 . S
C1011 N1008 1.350 . S
C1011 C1010 1.434 . S
C1012 C1013 1.369 . S
C1012 C1014 1.419 . S
C1012 H1016 0.930 . S
C1013 C1012 1.369 . S
C1013 C1022 1.429 . S
C1014 C1012 1.419 . S
C1014 C1015 1.363 . S
C1014 H1017 0.929 . S
C1015 C1014 1.363 . S
C1015 C1021 1.428 . S
H1016 C1012 0.930 . S
H1017 C1014 0.929 . S
S1018 N1019 1.613 . S
S1018 N1020 1.610 . S
N1019 S1018 1.613 . S
N1019 C1022 1.350 . S
N1020 S1018 1.610 . S
N1020 C1021 1.351 . S
C1021 C1015 1.428 . S
C1021 N1020 1.351 . S
C1021 C1022 1.434 . S
C1022 C1013 1.429 . S
C1022 N1019 1.350 . S
C1022 C1021 1.434 . S
C1023 C1024 1.369 . S
C1023 C1025 1.419 . S
C1023 H1027 0.930 . S
C1024 C1023 1.369 . S
C1024 C1033 1.429 . S
C1025 C1023 1.419 . S
C1025 C1026 1.363 . S
C1025 H1028 0.929 . S
C1026 C1025 1.363 . S
C1026 C1032 1.428 . S
H1027 C1023 0.930 . S
H1028 C1025 0.929 . S
S1029 N1030 1.613 . S
S1029 N1031 1.610 . S
N1030 S1029 1.613 . S
N1030 C1033 1.350 . S
N1031 S1029 1.610 . S
N1031 C1032 1.351 . S
C1032 C1026 1.428 . S
C1032 N1031 1.351 . S
C1032 C1033 1.434 . S
C1033 C1024 1.429 . S
C1033 N1030 1.350 . S
C1033 C1032 1.434 . S
C1034 C1035 1.369 . S
C1034 C1036 1.419 . S
C1034 H1038 0.930 . S
C1035 C1034 1.369 . S
C1035 C1044 1.429 . S
C1036 C1034 1.419 . S
C1036 C1037 1.363 . S
C1036 H1039 0.929 . S
C1037 C1036 1.363 . S
C1037 C1043 1.428 . S
H1038 C1034 0.930 . S
H1039 C1036 0.929 . S
S1040 N1041 1.618 . S
S1040 N1042 1.610 . S
N1041 S1040 1.618 . S
N1041 C1044 1.367 . S
N1042 S1040 1.610 . S
N1042 C1043 1.351 . S
C1043 C1037 1.428 . S
C1043 N1042 1.351 . S
C1043 C1044 1.434 . S
C1044 C1035 1.429 . S
C1044 N1041 1.367 . S
C1044 C1043 1.434 . S
C1045 C1046 1.369 . S
C1045 C1047 1.419 . S
C1045 H1049 0.930 . S
C1046 C1045 1.369 . S
C1046 C1055 1.429 . S
C1047 C1045 1.419 . S
C1047 C1048 1.363 . S
C1047 H1050 0.929 . S
C1048 C1047 1.363 . S
C1048 C1054 1.428 . S
H1049 C1045 0.930 . S
H1050 C1047 0.929 . S
S1051 N1052 1.613 . S
S1051 N1053 1.610 . S
N1052 S1051 1.613 . S
N1052 C1055 1.350 . S
N1053 S1051 1.610 . S
N1053 C1054 1.351 . S
C1054 C1048 1.428 . S
C1054 N1053 1.351 . S
C1054 C1055 1.434 . S
C1055 C1046 1.429 . S
C1055 N1052 1.350 . S
C1055 C1054 1.434 . S
C1056 C1057 1.369 1_455 S
C1056 C1058 1.419 1_556 S
C1056 H1060 0.930 . S
C1057 C1056 1.369 1_655 S
C1057 C1066 1.429 . S
C1058 C1056 1.419 1_554 S
C1058 C1059 1.363 . S
C1058 H1061 0.929 . S
C1059 C1058 1.363 . S
C1059 C1065 1.428 1_455 S
H1060 C1056 0.930 . S
H1061 C1058 0.929 . S
S1062 N1063 1.613 1_554 S
S1062 N1064 1.610 . S
N1063 S1062 1.613 1_556 S
N1063 C1066 1.350 . S
N1064 S1062 1.610 . S
N1064 C1065 1.351 . S
C1065 C1059 1.428 1_655 S
C1065 N1064 1.351 . S
C1065 C1066 1.434 1_554 S
C1066 C1057 1.429 . S
C1066 N1063 1.350 . S
C1066 C1065 1.434 1_556 S
C1067 C1068 1.369 . S
C1067 C1069 1.419 . S
C1067 H1071 0.930 . S
C1068 C1067 1.369 . S
C1068 C1077 1.429 . S
C1069 C1067 1.419 . S
C1069 C1070 1.363 . S
C1069 H1072 0.929 . S
C1070 C1069 1.363 . S
C1070 C1076 1.428 . S
H1071 C1067 0.930 . S
H1072 C1069 0.929 . S
S1073 N1074 1.613 . S
S1073 N1075 1.610 . S
N1074 S1073 1.613 . S
N1074 C1077 1.350 . S
N1075 S1073 1.610 . S
N1075 C1076 1.351 . S
C1076 C1070 1.428 . S
C1076 N1075 1.351 . S
C1076 C1077 1.434 . S
C1077 C1068 1.429 . S
C1077 N1074 1.350 . S
C1077 C1076 1.434 . S
C1078 C1079 1.369 1_655 S
C1078 C1080 1.419 1_556 S
C1078 H1082 0.930 . S
C1079 C1078 1.369 1_455 S
C1079 C1088 1.429 . S
C1080 C1078 1.419 1_554 S
C1080 C1081 1.363 . S
C1080 H1083 0.929 . S
C1081 C1080 1.363 . S
C1081 C1087 1.428 1_655 S
H1082 C1078 0.930 . S
H1083 C1080 0.929 . S
S1084 N1085 1.613 1_554 S
S1084 N1086 1.610 . S
N1085 S1084 1.613 1_556 S
N1085 C1088 1.350 . S
N1086 S1084 1.610 . S
N1086 C1087 1.351 . S
C1087 C1081 1.428 1_455 S
C1087 N1086 1.351 . S
C1087 C1088 1.434 1_554 S
C1088 C1079 1.429 . S
C1088 N1085 1.350 . S
C1088 C1087 1.434 1_556 S
C1089 C1090 1.369 . S
C1089 C1091 1.419 . S
C1089 H1093 0.930 . S
C1090 C1089 1.369 . S
C1090 C1099 1.429 . S
C1091 C1089 1.419 . S
C1091 C1092 1.363 . S
C1091 H1094 0.929 . S
C1092 C1091 1.363 . S
C1092 C1098 1.428 . S
H1093 C1089 0.930 . S
H1094 C1091 0.929 . S
S1095 N1096 1.613 . S
S1095 N1097 1.610 . S
N1096 S1095 1.613 . S
N1096 C1099 1.350 . S
N1097 S1095 1.610 . S
N1097 C1098 1.351 . S
C1098 C1092 1.428 . S
C1098 N1097 1.351 . S
C1098 C1099 1.434 . S
C1099 C1090 1.429 . S
C1099 N1096 1.350 . S
C1099 C1098 1.434 . S
C1100 C1101 1.369 . S
C1100 C1102 1.419 1_655 S
C1100 H1104 0.930 . S
C1101 C1100 1.369 . S
C1101 C1110 1.429 1_565 S
C1102 C1100 1.419 1_455 S
C1102 C1103 1.363 1_565 S
C1102 H1105 0.929 . S
C1103 C1102 1.363 1_545 S
C1103 C1109 1.428 . S
H1104 C1100 0.930 . S
H1105 C1102 0.929 . S
S1106 N1107 1.613 . S
S1106 N1108 1.610 1_655 S
N1107 S1106 1.613 . S
N1107 C1110 1.350 . S
N1108 S1106 1.610 1_455 S
N1108 C1109 1.351 . S
C1109 C1103 1.428 . S
C1109 N1108 1.351 . S
C1109 C1110 1.434 1_455 S
C1110 C1101 1.429 1_545 S
C1110 N1107 1.350 . S
C1110 C1109 1.434 1_655 S
C1111 C1112 1.369 . S
C1111 C1113 1.419 . S
C1111 H1115 0.930 . S
C1112 C1111 1.369 . S
C1112 C1121 1.429 . S
C1113 C1111 1.419 . S
C1113 C1114 1.363 . S
C1113 H1116 0.929 . S
C1114 C1113 1.363 . S
C1114 C1120 1.428 . S
H1115 C1111 0.930 . S
H1116 C1113 0.929 . S
S1117 N1118 1.613 . S
S1117 N1119 1.610 . S
N1118 S1117 1.613 . S
N1118 C1121 1.350 . S
N1119 S1117 1.610 . S
N1119 C1120 1.351 . S
C1120 C1114 1.428 . S
C1120 N1119 1.351 . S
C1120 C1121 1.434 . S
C1121 C1112 1.429 . S
C1121 N1118 1.350 . S
C1121 C1120 1.434 . S
C1122 C1123 1.369 . S
C1122 C1124 1.419 1_455 S
C1122 H1126 0.930 . S
C1123 C1122 1.369 . S
C1123 C1132 1.429 1_565 S
C1124 C1122 1.419 1_655 S
C1124 C1125 1.363 1_565 S
C1124 H1127 0.929 . S
C1125 C1124 1.363 1_545 S
C1125 C1131 1.428 . S
H1126 C1122 0.930 . S
H1127 C1124 0.929 . S
S1128 N1129 1.613 . S
S1128 N1130 1.610 1_455 S
N1129 S1128 1.613 . S
N1129 C1132 1.350 . S
N1130 S1128 1.610 1_655 S
N1130 C1131 1.351 . S
C1131 C1125 1.428 . S
C1131 N1130 1.351 . S
C1131 C1132 1.434 1_655 S
C1132 C1123 1.429 1_545 S
C1132 N1129 1.350 . S
C1132 C1131 1.434 1_455 S
C1133 C1134 1.369 . S
C1133 C1135 1.419 . S
C1133 H1137 0.930 . S
C1134 C1133 1.369 . S
C1134 C1143 1.429 . S
C1135 C1133 1.419 . S
C1135 C1136 1.363 . S
C1135 H1138 0.929 . S
C1136 C1135 1.363 . S
C1136 C1142 1.428 . S
H1137 C1133 0.930 . S
H1138 C1135 0.929 . S
S1139 N1140 1.613 . S
S1139 N1141 1.610 . S
N1140 S1139 1.613 . S
N1140 C1143 1.350 . S
N1141 S1139 1.610 . S
N1141 C1142 1.351 . S
C1142 C1136 1.428 . S
C1142 N1141 1.351 . S
C1142 C1143 1.434 . S
C1143 C1134 1.429 . S
C1143 N1140 1.350 . S
C1143 C1142 1.434 . S
C1144 C1145 1.369 1_556 S
C1144 C1146 1.419 1_545 S
C1144 H1148 0.930 . S
C1145 C1144 1.369 1_554 S
C1145 C1154 1.429 . S
C1146 C1144 1.419 1_565 S
C1146 C1147 1.363 . S
C1146 H1149 0.929 . S
C1147 C1146 1.363 . S
C1147 C1153 1.428 1_556 S
H1148 C1144 0.930 . S
H1149 C1146 0.929 . S
S1150 N1151 1.613 1_565 S
S1150 N1152 1.610 . S
N1151 S1150 1.613 1_545 S
N1151 C1154 1.350 . S
N1152 S1150 1.610 . S
N1152 C1153 1.351 . S
C1153 C1147 1.428 1_554 S
C1153 N1152 1.351 . S
C1153 C1154 1.434 1_565 S
C1154 C1145 1.429 . S
C1154 N1151 1.350 . S
C1154 C1153 1.434 1_545 S
C1155 C1156 1.369 . S
C1155 C1157 1.419 . S
C1155 H1159 0.930 . S
C1156 C1155 1.369 . S
C1156 C1165 1.429 . S
C1157 C1155 1.419 . S
C1157 C1158 1.363 . S
C1157 H1160 0.929 . S
C1158 C1157 1.363 . S
C1158 C1164 1.428 . S
H1159 C1155 0.930 . S
H1160 C1157 0.929 . S
S1161 N1162 1.613 . S
S1161 N1163 1.610 . S
N1162 S1161 1.613 . S
N1162 C1165 1.350 . S
N1163 S1161 1.610 . S
N1163 C1164 1.351 . S
C1164 C1158 1.428 . S
C1164 N1163 1.351 . S
C1164 C1165 1.434 . S
C1165 C1156 1.429 . S
C1165 N1162 1.350 . S
C1165 C1164 1.434 . S
C1166 C1167 1.369 1_554 S
C1166 C1168 1.419 1_545 S
C1166 H1170 0.930 . S
C1167 C1166 1.369 1_556 S
C1167 C1176 1.429 . S
C1168 C1166 1.419 1_565 S
C1168 C1169 1.363 . S
C1168 H1171 0.929 . S
C1169 C1168 1.363 . S
C1169 C1175 1.428 1_554 S
H1170 C1166 0.930 . S
H1171 C1168 0.929 . S
S1172 N1173 1.613 1_565 S
S1172 N1174 1.610 . S
N1173 S1172 1.613 1_545 S
N1173 C1176 1.350 . S
N1174 S1172 1.610 . S
N1174 C1175 1.351 . S
C1175 C1169 1.428 1_556 S
C1175 N1174 1.351 . S
C1175 C1176 1.434 1_565 S
C1176 C1167 1.429 . S
C1176 N1173 1.350 . S
C1176 C1175 1.434 1_545 S
C1177 C1178 1.369 . S
C1177 C1179 1.419 . S
C1177 H1181 0.930 . S
C1178 C1177 1.369 . S
C1178 C1187 1.429 . S
C1179 C1177 1.419 . S
C1179 C1180 1.363 . S
C1179 H1182 0.929 . S
C1180 C1179 1.363 . S
C1180 C1186 1.428 . S
H1181 C1177 0.930 . S
H1182 C1179 0.929 . S
S1183 N1184 1.613 . S
S1183 N1185 1.610 . S
N1184 S1183 1.613 . S
N1184 C1187 1.350 . S
N1185 S1183 1.610 . S
N1185 C1186 1.351 . S
C1186 C1180 1.428 . S
C1186 N1185 1.351 . S
C1186 C1187 1.434 . S
C1187 C1178 1.429 . S
C1187 N1184 1.350 . S
C1187 C1186 1.434 . S
C1188 C1189 1.369 . S
C1188 C1190 1.419 . S
C1188 H1192 0.930 . S
C1189 C1188 1.369 . S
C1189 C1198 1.429 . S
C1190 C1188 1.419 . S
C1190 C1191 1.363 . S
C1190 H1193 0.929 . S
C1191 C1190 1.363 . S
C1191 C1197 1.428 . S
H1192 C1188 0.930 . S
H1193 C1190 0.929 . S
S1194 N1195 1.613 . S
S1194 N1196 1.610 . S
N1195 S1194 1.613 . S
N1195 C1198 1.350 . S
N1196 S1194 1.610 . S
N1196 C1197 1.351 . S
C1197 C1191 1.428 . S
C1197 N1196 1.351 . S
C1197 C1198 1.434 . S
C1198 C1189 1.429 . S
C1198 N1195 1.350 . S
C1198 C1197 1.434 . S
C1199 C1200 1.369 . S
C1199 C1201 1.419 . S
C1199 H1203 0.930 . S
C1200 C1199 1.369 . S
C1200 C1209 1.429 . S
C1201 C1199 1.419 . S
C1201 C1202 1.363 . S
C1201 H1204 0.929 . S
C1202 C1201 1.363 . S
C1202 C1208 1.428 . S
H1203 C1199 0.930 . S
H1204 C1201 0.929 . S
S1205 N1206 1.613 . S
S1205 N1207 1.610 . S
N1206 S1205 1.613 . S
N1206 C1209 1.350 . S
N1207 S1205 1.610 . S
N1207 C1208 1.351 . S
C1208 C1202 1.428 . S
C1208 N1207 1.351 . S
C1208 C1209 1.434 . S
C1209 C1200 1.429 . S
C1209 N1206 1.350 . S
C1209 C1208 1.434 . S
C1210 C1211 1.369 . S
C1210 C1212 1.419 . S
C1210 H1214 0.930 . S
C1211 C1210 1.369 . S
C1211 C1220 1.429 . S
C1212 C1210 1.419 . S
C1212 C1213 1.363 . S
C1212 H1215 0.929 . S
C1213 C1212 1.363 . S
C1213 C1219 1.428 . S
H1214 C1210 0.930 . S
H1215 C1212 0.929 . S
S1216 N1217 1.613 . S
S1216 N1218 1.610 . S
N1217 S1216 1.613 . S
N1217 C1220 1.350 . S
N1218 S1216 1.610 . S
N1218 C1219 1.351 . S
C1219 C1213 1.428 . S
C1219 N1218 1.351 . S
C1219 C1220 1.434 . S
C1220 C1211 1.429 . S
C1220 N1217 1.350 . S
C1220 C1219 1.434 . S
C1221 C1222 1.369 . S
C1221 C1223 1.419 . S
C1221 H1225 0.930 . S
C1222 C1221 1.369 . S
C1222 C1231 1.429 . S
C1223 C1221 1.419 . S
C1223 C1224 1.363 . S
C1223 H1226 0.929 . S
C1224 C1223 1.363 . S
C1224 C1230 1.428 . S
H1225 C1221 0.930 . S
H1226 C1223 0.929 . S
S1227 N1228 1.613 . S
S1227 N1229 1.610 . S
N1228 S1227 1.613 . S
N1228 C1231 1.350 . S
N1229 S1227 1.610 . S
N1229 C1230 1.351 . S
C1230 C1224 1.428 . S
C1230 N1229 1.351 . S
C1230 C1231 1.434 . S
C1231 C1222 1.429 . S
C1231 N1228 1.350 . S
C1231 C1230 1.434 . S
C1232 C1233 1.369 . S
C1232 C1234 1.419 . S
C1232 H1236 0.930 . S
C1233 C1232 1.369 . S
C1233 C1242 1.429 . S
C1234 C1232 1.419 . S
C1234 C1235 1.363 . S
C1234 H1237 0.929 . S
C1235 C1234 1.363 . S
C1235 C1241 1.428 . S
H1236 C1232 0.930 . S
H1237 C1234 0.929 . S
S1238 N1239 1.613 . S
S1238 N1240 1.610 . S
N1239 S1238 1.613 . S
N1239 C1242 1.350 . S
N1240 S1238 1.610 . S
N1240 C1241 1.351 . S
C1241 C1235 1.428 . S
C1241 N1240 1.351 . S
C1241 C1242 1.434 . S
C1242 C1233 1.429 . S
C1242 N1239 1.350 . S
C1242 C1241 1.434 . S
C1243 C1244 1.369 . S
C1243 C1245 1.419 . S
C1243 H1247 0.930 . S
C1244 C1243 1.369 . S
C1244 C1253 1.429 . S
C1245 C1243 1.419 . S
C1245 C1246 1.363 . S
C1245 H1248 0.929 . S
C1246 C1245 1.363 . S
C1246 C1252 1.428 . S
H1247 C1243 0.930 . S
H1248 C1245 0.929 . S
S1249 N1250 1.613 . S
S1249 N1251 1.610 . S
N1250 S1249 1.613 . S
N1250 C1253 1.350 . S
N1251 S1249 1.610 . S
N1251 C1252 1.351 . S
C1252 C1246 1.428 . S
C1252 N1251 1.351 . S
C1252 C1253 1.434 . S
C1253 C1244 1.429 . S
C1253 N1250 1.350 . S
C1253 C1252 1.434 . S
C1254 C1255 1.369 . S
C1254 C1256 1.419 . S
C1254 H1258 0.930 . S
C1255 C1254 1.369 . S
C1255 C1264 1.429 . S
C1256 C1254 1.419 . S
C1256 C1257 1.363 . S
C1256 H1259 0.929 . S
C1257 C1256 1.363 . S
C1257 C1263 1.428 . S
H1258 C1254 0.930 . S
H1259 C1256 0.929 . S
S1260 N1261 1.613 . S
S1260 N1262 1.610 . S
N1261 S1260 1.613 . S
N1261 C1264 1.350 . S
N1262 S1260 1.610 . S
N1262 C1263 1.351 . S
C1263 C1257 1.428 . S
C1263 N1262 1.351 . S
C1263 C1264 1.434 . S
C1264 C1255 1.429 . S
C1264 N1261 1.350 . S
C1264 C1263 1.434 . S
C1265 C1266 1.369 . S
C1265 C1267 1.419 . S
C1265 H1269 0.930 . S
C1266 C1265 1.369 . S
C1266 C1275 1.429 . S
C1267 C1265 1.419 . S
C1267 C1268 1.363 . S
C1267 H1270 0.929 . S
C1268 C1267 1.363 . S
C1268 C1274 1.428 . S
H1269 C1265 0.930 . S
H1270 C1267 0.929 . S
S1271 N1272 1.613 . S
S1271 N1273 1.610 . S
N1272 S1271 1.613 . S
N1272 C1275 1.350 . S
N1273 S1271 1.610 . S
N1273 C1274 1.351 . S
C1274 C1268 1.428 . S
C1274 N1273 1.351 . S
C1274 C1275 1.434 . S
C1275 C1266 1.429 . S
C1275 N1272 1.350 . S
C1275 C1274 1.434 . S
C1276 C1277 1.369 . S
C1276 C1278 1.419 . S
C1276 H1280 0.930 . S
C1277 C1276 1.369 . S
C1277 C1286 1.429 . S
C1278 C1276 1.419 . S
C1278 C1279 1.363 . S
C1278 H1281 0.929 . S
C1279 C1278 1.363 . S
C1279 C1285 1.428 . S
H1280 C1276 0.930 . S
H1281 C1278 0.929 . S
S1282 N1283 1.613 . S
S1282 N1284 1.610 . S
N1283 S1282 1.613 . S
N1283 C1286 1.350 . S
N1284 S1282 1.610 . S
N1284 C1285 1.351 . S
C1285 C1279 1.428 . S
C1285 N1284 1.351 . S
C1285 C1286 1.434 . S
C1286 C1277 1.429 . S
C1286 N1283 1.350 . S
C1286 C1285 1.434 . S
C1287 C1288 1.369 . S
C1287 C1289 1.419 . S
C1287 H1291 0.930 . S
C1288 C1287 1.369 . S
C1288 C1297 1.429 . S
C1289 C1287 1.419 . S
C1289 C1290 1.363 . S
C1289 H1292 0.929 . S
C1290 C1289 1.363 . S
C1290 C1296 1.428 . S
H1291 C1287 0.930 . S
H1292 C1289 0.929 . S
S1293 N1294 1.613 . S
S1293 N1295 1.610 . S
N1294 S1293 1.613 . S
N1294 C1297 1.350 . S
N1295 S1293 1.610 . S
N1295 C1296 1.351 . S
C1296 C1290 1.428 . S
C1296 N1295 1.351 . S
C1296 C1297 1.434 . S
C1297 C1288 1.429 . S
C1297 N1294 1.350 . S
C1297 C1296 1.434 . S
C1298 C1299 1.369 . S
C1298 C1300 1.419 . S
C1298 H1302 0.930 . S
C1299 C1298 1.369 . S
C1299 C1308 1.429 . S
C1300 C1298 1.419 . S
C1300 C1301 1.363 . S
C1300 H1303 0.929 . S
C1301 C1300 1.363 . S
C1301 C1307 1.428 . S
H1302 C1298 0.930 . S
H1303 C1300 0.929 . S
S1304 N1305 1.613 . S
S1304 N1306 1.610 . S
N1305 S1304 1.613 . S
N1305 C1308 1.350 . S
N1306 S1304 1.610 . S
N1306 C1307 1.351 . S
C1307 C1301 1.428 . S
C1307 N1306 1.351 . S
C1307 C1308 1.434 . S
C1308 C1299 1.429 . S
C1308 N1305 1.350 . S
C1308 C1307 1.434 . S
C1309 C1310 1.369 . S
C1309 C1311 1.419 . S
C1309 H1313 0.930 . S
C1310 C1309 1.369 . S
C1310 C1319 1.429 . S
C1311 C1309 1.419 . S
C1311 C1312 1.363 . S
C1311 H1314 0.929 . S
C1312 C1311 1.363 . S
C1312 C1318 1.428 . S
H1313 C1309 0.930 . S
H1314 C1311 0.929 . S
S1315 N1316 1.613 . S
S1315 N1317 1.610 . S
N1316 S1315 1.613 . S
N1316 C1319 1.350 . S
N1317 S1315 1.610 . S
N1317 C1318 1.351 . S
C1318 C1312 1.428 . S
C1318 N1317 1.351 . S
C1318 C1319 1.434 . S
C1319 C1310 1.429 . S
C1319 N1316 1.350 . S
C1319 C1318 1.434 . S
C1320 C1321 1.369 . S
C1320 C1322 1.419 . S
C1320 H1324 0.930 . S
C1321 C1320 1.369 . S
C1321 C1330 1.429 . S
C1322 C1320 1.419 . S
C1322 C1323 1.363 . S
C1322 H1325 0.929 . S
C1323 C1322 1.363 . S
C1323 C1329 1.428 . S
H1324 C1320 0.930 . S
H1325 C1322 0.929 . S
S1326 N1327 1.613 . S
S1326 N1328 1.610 . S
N1327 S1326 1.613 . S
N1327 C1330 1.350 . S
N1328 S1326 1.610 . S
N1328 C1329 1.351 . S
C1329 C1323 1.428 . S
C1329 N1328 1.351 . S
C1329 C1330 1.434 . S
C1330 C1321 1.429 . S
C1330 N1327 1.350 . S
C1330 C1329 1.434 . S
C1331 C1332 1.369 . S
C1331 C1333 1.419 . S
C1331 H1335 0.930 . S
C1332 C1331 1.369 . S
C1332 C1341 1.429 . S
C1333 C1331 1.419 . S
C1333 C1334 1.363 . S
C1333 H1336 0.929 . S
C1334 C1333 1.363 . S
C1334 C1340 1.428 . S
H1335 C1331 0.930 . S
H1336 C1333 0.929 . S
S1337 N1338 1.613 . S
S1337 N1339 1.610 . S
N1338 S1337 1.613 . S
N1338 C1341 1.350 . S
N1339 S1337 1.610 . S
N1339 C1340 1.351 . S
C1340 C1334 1.428 . S
C1340 N1339 1.351 . S
C1340 C1341 1.434 . S
C1341 C1332 1.429 . S
C1341 N1338 1.350 . S
C1341 C1340 1.434 . S
C1342 C1343 1.369 . S
C1342 C1344 1.419 . S
C1342 H1346 0.930 . S
C1343 C1342 1.369 . S
C1343 C1352 1.429 . S
C1344 C1342 1.419 . S
C1344 C1345 1.363 . S
C1344 H1347 0.929 . S
C1345 C1344 1.363 . S
C1345 C1351 1.428 . S
H1346 C1342 0.930 . S
H1347 C1344 0.929 . S
S1348 N1349 1.613 . S
S1348 N1350 1.610 . S
N1349 S1348 1.613 . S
N1349 C1352 1.350 . S
N1350 S1348 1.610 . S
N1350 C1351 1.351 . S
C1351 C1345 1.428 . S
C1351 N1350 1.351 . S
C1351 C1352 1.434 . S
C1352 C1343 1.429 . S
C1352 N1349 1.350 . S
C1352 C1351 1.434 . S
C1353 C1354 1.369 . S
C1353 C1355 1.419 . S
C1353 H1357 0.930 . S
C1354 C1353 1.369 . S
C1354 C1363 1.429 . S
C1355 C1353 1.419 . S
C1355 C1356 1.363 . S
C1355 H1358 0.929 . S
C1356 C1355 1.363 . S
C1356 C1362 1.428 . S
H1357 C1353 0.930 . S
H1358 C1355 0.929 . S
S1359 N1360 1.613 . S
S1359 N1361 1.610 . S
N1360 S1359 1.613 . S
N1360 C1363 1.350 . S
N1361 S1359 1.610 . S
N1361 C1362 1.351 . S
C1362 C1356 1.428 . S
C1362 N1361 1.351 . S
C1362 C1363 1.434 . S
C1363 C1354 1.429 . S
C1363 N1360 1.350 . S
C1363 C1362 1.434 . S
C1364 C1365 1.369 . S
C1364 C1366 1.419 . S
C1364 H1368 0.930 . S
C1365 C1364 1.369 . S
C1365 C1374 1.429 . S
C1366 C1364 1.419 . S
C1366 C1367 1.363 . S
C1366 H1369 0.929 . S
C1367 C1366 1.363 . S
C1367 C1373 1.428 . S
H1368 C1364 0.930 . S
H1369 C1366 0.929 . S
S1370 N1371 1.613 . S
S1370 N1372 1.610 . S
N1371 S1370 1.613 . S
N1371 C1374 1.350 . S
N1372 S1370 1.610 . S
N1372 C1373 1.351 . S
C1373 C1367 1.428 . S
C1373 N1372 1.351 . S
C1373 C1374 1.434 . S
C1374 C1365 1.429 . S
C1374 N1371 1.350 . S
C1374 C1373 1.434 . S
C1375 C1376 1.369 . S
C1375 C1377 1.419 . S
C1375 H1379 0.930 . S
C1376 C1375 1.369 . S
C1376 C1385 1.429 . S
C1377 C1375 1.419 . S
C1377 C1378 1.363 . S
C1377 H1380 0.929 . S
C1378 C1377 1.363 . S
C1378 C1384 1.428 . S
H1379 C1375 0.930 . S
H1380 C1377 0.929 . S
S1381 N1382 1.613 . S
S1381 N1383 1.610 . S
N1382 S1381 1.613 . S
N1382 C1385 1.350 . S
N1383 S1381 1.610 . S
N1383 C1384 1.351 . S
C1384 C1378 1.428 . S
C1384 N1383 1.351 . S
C1384 C1385 1.434 . S
C1385 C1376 1.429 . S
C1385 N1382 1.350 . S
C1385 C1384 1.434 . S
C1386 C1387 1.369 . S
C1386 C1388 1.419 . S
C1386 H1390 0.930 . S
C1387 C1386 1.369 . S
C1387 C1396 1.429 . S
C1388 C1386 1.419 . S
C1388 C1389 1.363 . S
C1388 H1391 0.929 . S
C1389 C1388 1.363 . S
C1389 C1395 1.428 . S
H1390 C1386 0.930 . S
H1391 C1388 0.929 . S
S1392 N1393 1.613 . S
S1392 N1394 1.610 . S
N1393 S1392 1.613 . S
N1393 C1396 1.350 . S
N1394 S1392 1.610 . S
N1394 C1395 1.351 . S
C1395 C1389 1.428 . S
C1395 N1394 1.351 . S
C1395 C1396 1.434 . S
C1396 C1387 1.429 . S
C1396 N1393 1.350 . S
C1396 C1395 1.434 . S
C1397 C1398 1.369 . S
C1397 C1399 1.419 . S
C1397 H1401 0.930 . S
C1398 C1397 1.369 . S
C1398 C1407 1.429 . S
C1399 C1397 1.419 . S
C1399 C1400 1.363 . S
C1399 H1402 0.929 . S
C1400 C1399 1.363 . S
C1400 C1406 1.428 . S
H1401 C1397 0.930 . S
H1402 C1399 0.929 . S
S1403 N1404 1.613 . S
S1403 N1405 1.610 . S
N1404 S1403 1.613 . S
N1404 C1407 1.350 . S
N1405 S1403 1.610 . S
N1405 C1406 1.351 . S
C1406 C1400 1.428 . S
C1406 N1405 1.351 . S
C1406 C1407 1.434 . S
C1407 C1398 1.429 . S
C1407 N1404 1.350 . S
C1407 C1406 1.434 . S
C1408 C1409 1.369 . S
C1408 C1410 1.419 . S
C1408 H1412 0.930 . S
C1409 C1408 1.369 . S
C1409 C1418 1.429 . S
C1410 C1408 1.419 . S
C1410 C1411 1.363 . S
C1410 H1413 0.929 . S
C1411 C1410 1.363 . S
C1411 C1417 1.428 . S
H1412 C1408 0.930 . S
H1413 C1410 0.929 . S
S1414 N1415 1.613 . S
S1414 N1416 1.610 . S
N1415 S1414 1.613 . S
N1415 C1418 1.350 . S
N1416 S1414 1.610 . S
N1416 C1417 1.351 . S
C1417 C1411 1.428 . S
C1417 N1416 1.351 . S
C1417 C1418 1.434 . S
C1418 C1409 1.429 . S
C1418 N1415 1.350 . S
C1418 C1417 1.434 . S
C1419 C1420 1.369 . S
C1419 C1421 1.419 . S
C1419 H1423 0.930 . S
C1420 C1419 1.369 . S
C1420 C1429 1.429 . S
C1421 C1419 1.419 . S
C1421 C1422 1.363 . S
C1421 H1424 0.929 . S
C1422 C1421 1.363 . S
C1422 C1428 1.428 . S
H1423 C1419 0.930 . S
H1424 C1421 0.929 . S
S1425 N1426 1.613 . S
S1425 N1427 1.610 . S
N1426 S1425 1.613 . S
N1426 C1429 1.350 . S
N1427 S1425 1.610 . S
N1427 C1428 1.351 . S
C1428 C1422 1.428 . S
C1428 N1427 1.351 . S
C1428 C1429 1.434 . S
C1429 C1420 1.429 . S
C1429 N1426 1.350 . S
C1429 C1428 1.434 . S
C1430 C1431 1.369 . S
C1430 C1432 1.419 . S
C1430 H1434 0.930 . S
C1431 C1430 1.369 . S
C1431 C1440 1.429 . S
C1432 C1430 1.419 . S
C1432 C1433 1.363 . S
C1432 H1435 0.929 . S
C1433 C1432 1.363 . S
C1433 C1439 1.428 . S
H1434 C1430 0.930 . S
H1435 C1432 0.929 . S
S1436 N1437 1.613 . S
S1436 N1438 1.610 . S
N1437 S1436 1.613 . S
N1437 C1440 1.350 . S
N1438 S1436 1.610 . S
N1438 C1439 1.351 . S
C1439 C1433 1.428 . S
C1439 N1438 1.351 . S
C1439 C1440 1.434 . S
C1440 C1431 1.429 . S
C1440 N1437 1.350 . S
C1440 C1439 1.434 . S
C1441 C1442 1.369 . S
C1441 C1443 1.419 . S
C1441 H1445 0.930 . S
C1442 C1441 1.369 . S
C1442 C1451 1.429 . S
C1443 C1441 1.419 . S
C1443 C1444 1.363 . S
C1443 H1446 0.929 . S
C1444 C1443 1.363 . S
C1444 C1450 1.428 . S
H1445 C1441 0.930 . S
H1446 C1443 0.929 . S
S1447 N1448 1.613 . S
S1447 N1449 1.610 . S
N1448 S1447 1.613 . S
N1448 C1451 1.350 . S
N1449 S1447 1.610 . S
N1449 C1450 1.351 . S
C1450 C1444 1.428 . S
C1450 N1449 1.351 . S
C1450 C1451 1.434 . S
C1451 C1442 1.429 . S
C1451 N1448 1.350 . S
C1451 C1450 1.434 . S
C793 N113 1.429 . S
C795 C8 1.448 . S
C804 N14 1.423 . S
C806 C41 1.450 . S
C815 N47 1.425 . S
C817 C74 1.451 . S
C826 C107 1.449 . S
C828 N80 1.430 . S
C837 N179 1.423 . S
C839 C140 1.450 . S
C848 N212 1.424 . S
C850 C173 1.449 . S
C859 C206 1.448 . S
C861 N245 1.428 . S
C870 N146 1.424 . S
C872 C239 1.451 . S
C881 C272 1.448 . S
C883 N608 1.428 . S
C892 C305 1.451 . S
C894 N641 1.428 . S
C903 N674 1.424 . S
C905 C338 1.451 . S
C914 N575 1.426 . S
C916 C371 1.449 . S
C925 N740 1.428 . S
C927 C404 1.451 . S
C936 C437 1.448 . S
C938 N542 1.427 . S
C947 C470 1.451 . S
C949 N773 1.428 . S
C958 N707 1.430 . S
C960 C503 1.450 . S
C969 N311 1.424 . S
C971 C536 1.449 . S
C980 C569 1.451 . S
C982 N509 1.429 . S
C991 N410 1.427 . S
C993 C602 1.451 . S
C1002 N443 1.431 . S
C1004 C635 1.450 . S
C1013 N476 1.428 . S
C1015 C668 1.448 . S
C1024 N377 1.423 . S
C1026 C701 1.450 . S
C1035 N278 1.429 . S
C1037 C734 1.451 . S
C1046 N344 1.426 . S
C1048 C767 1.448 . S
C1057 C215 1.588 . S
C1059 C17 1.588 . S
C1068 C50 1.589 . S
C1070 C248 1.586 . S
C1079 C149 1.586 . S
C1081 C83 1.588 . S
C1090 C182 1.586 . S
C1092 C116 1.589 . S
C1101 C347 1.589 . S
C1103 C281 1.586 . S
C1112 C314 1.587 . S
C1114 C380 1.587 . S
C1123 C413 1.588 . S
C1125 C479 1.586 . S
C1134 C512 1.586 . S
C1136 C446 1.589 . S
C1145 C545 1.588 . S
C1147 C578 1.588 . S
C1156 C611 1.586 . S
C1158 C776 1.589 . S
C1167 C644 1.586 . S
C1169 C710 1.588 . S
C1178 C743 1.587 . S
C1180 C677 1.587 . S
C1189 C28 1.323 . S
C1191 N269 1.354 . S
C1200 C61 1.325 . S
C1202 N302 1.356 . S
C1211 N335 1.356 . S
C1213 C94 1.330 . S
C1222 N368 1.357 . S
C1224 C127 1.327 . S
C1233 C160 1.325 . S
C1235 N401 1.356 . S
C1244 N434 1.357 . S
C1246 C193 1.329 . S
C1255 C226 1.329 . S
C1257 N467 1.355 . S
C1266 N500 1.354 . S
C1268 C259 1.325 . S
C1277 C292 1.323 . S
C1279 N533 1.354 . S
C1288 N764 1.354 . S
C1290 C325 1.323 . S
C1299 C358 1.323 . S
C1301 N698 1.354 . S
C1310 C391 1.323 . S
C1312 N731 1.355 . S
C1321 N566 1.354 . S
C1323 C424 1.326 . S
C1332 C457 1.322 . S
C1334 N599 1.355 . S
C1343 C490 1.325 . S
C1345 N632 1.354 . S
C1354 C523 1.322 . S
C1356 N665 1.355 . S
C1365 C556 1.322 . S
C1367 N5 1.354 . S
C1376 C589 1.322 . S
C1378 N137 1.355 . S
C1387 C622 1.324 . S
C1389 N170 1.356 . S
C1398 N203 1.356 . S
C1400 C655 1.329 . S
C1409 C688 1.323 . S
C1411 N236 1.354 . S
C1420 N71 1.356 . S
C1422 C721 1.330 . S
C1431 N104 1.354 . S
C1433 C754 1.325 . S
C1442 C787 1.324 . S
C1444 N38 1.354 . S
