# Generated by pormake.
# Topology wjr, (5)-cn, num edge types: 1
# Building blocks:
#     Node 0, Type 0, BuildingBlock: XOMCOT_clean_sbu_0, # of connection points: 5
#     Node 1, Type 0, BuildingBlock: XOMCOT_clean_sbu_0, # of connection points: 5
#     Node 2, Type 0, BuildingBlock: XOMCOT_clean_sbu_0, # of connection points: 5
#     Node 3, Type 0, BuildingBlock: XOMCOT_clean_sbu_0, # of connection points: 5
#     Node 4, Type 0, BuildingBlock: XOMCOT_clean_sbu_0, # of connection points: 5
#     Node 5, Type 0, BuildingBlock: XOMCOT_clean_sbu_0, # of connection points: 5
#     Node 6, Type 0, BuildingBlock: XOMCOT_clean_sbu_0, # of connection points: 5
#     Node 7, Type 0, BuildingBlock: XOMCOT_clean_sbu_0, # of connection points: 5
#     Node 8, Type 0, BuildingBlock: XOMCOT_clean_sbu_0, # of connection points: 5
#     Node 9, Type 0, BuildingBlock: XOMCOT_clean_sbu_0, # of connection points: 5
#     Node 10, Type 0, BuildingBlock: XOMCOT_clean_sbu_0, # of connection points: 5
#     Node 11, Type 0, BuildingBlock: XOMCOT_clean_sbu_0, # of connection points: 5
#     Node 12, Type 0, BuildingBlock: XOMCOT_clean_sbu_0, # of connection points: 5
#     Node 13, Type 0, BuildingBlock: XOMCOT_clean_sbu_0, # of connection points: 5
#     Node 14, Type 0, BuildingBlock: XOMCOT_clean_sbu_0, # of connection points: 5
#     Node 15, Type 0, BuildingBlock: XOMCOT_clean_sbu_0, # of connection points: 5
#     Node 16, Type 0, BuildingBlock: XOMCOT_clean_sbu_0, # of connection points: 5
#     Node 17, Type 0, BuildingBlock: XOMCOT_clean_sbu_0, # of connection points: 5
#     Node 18, Type 0, BuildingBlock: XOMCOT_clean_sbu_0, # of connection points: 5
#     Node 19, Type 0, BuildingBlock: XOMCOT_clean_sbu_0, # of connection points: 5
#     Node 20, Type 0, BuildingBlock: XOMCOT_clean_sbu_0, # of connection points: 5
#     Node 21, Type 0, BuildingBlock: XOMCOT_clean_sbu_0, # of connection points: 5
#     Node 22, Type 0, BuildingBlock: XOMCOT_clean_sbu_0, # of connection points: 5
#     Node 23, Type 0, BuildingBlock: XOMCOT_clean_sbu_0, # of connection points: 5
#     Edge 24, Type (0, 0), BuildingBlock: KIFKEQ_clean_linker_1, # of connection points: 2
#     Edge 25, Type (0, 0), BuildingBlock: KIFKEQ_clean_linker_1, # of connection points: 2
#     Edge 26, Type (0, 0), BuildingBlock: KIFKEQ_clean_linker_1, # of connection points: 2
#     Edge 27, Type (0, 0), BuildingBlock: KIFKEQ_clean_linker_1, # of connection points: 2
#     Edge 28, Type (0, 0), BuildingBlock: KIFKEQ_clean_linker_1, # of connection points: 2
#     Edge 29, Type (0, 0), BuildingBlock: KIFKEQ_clean_linker_1, # of connection points: 2
#     Edge 30, Type (0, 0), BuildingBlock: KIFKEQ_clean_linker_1, # of connection points: 2
#     Edge 31, Type (0, 0), BuildingBlock: KIFKEQ_clean_linker_1, # of connection points: 2
#     Edge 32, Type (0, 0), BuildingBlock: KIFKEQ_clean_linker_1, # of connection points: 2
#     Edge 33, Type (0, 0), BuildingBlock: KIFKEQ_clean_linker_1, # of connection points: 2
#     Edge 34, Type (0, 0), BuildingBlock: KIFKEQ_clean_linker_1, # of connection points: 2
#     Edge 35, Type (0, 0), BuildingBlock: KIFKEQ_clean_linker_1, # of connection points: 2
#     Edge 36, Type (0, 0), BuildingBlock: KIFKEQ_clean_linker_1, # of connection points: 2
#     Edge 37, Type (0, 0), BuildingBlock: KIFKEQ_clean_linker_1, # of connection points: 2
#     Edge 38, Type (0, 0), BuildingBlock: KIFKEQ_clean_linker_1, # of connection points: 2
#     Edge 39, Type (0, 0), BuildingBlock: KIFKEQ_clean_linker_1, # of connection points: 2
#     Edge 40, Type (0, 0), BuildingBlock: KIFKEQ_clean_linker_1, # of connection points: 2
#     Edge 41, Type (0, 0), BuildingBlock: KIFKEQ_clean_linker_1, # of connection points: 2
#     Edge 42, Type (0, 0), BuildingBlock: KIFKEQ_clean_linker_1, # of connection points: 2
#     Edge 43, Type (0, 0), BuildingBlock: KIFKEQ_clean_linker_1, # of connection points: 2
#     Edge 44, Type (0, 0), BuildingBlock: KIFKEQ_clean_linker_1, # of connection points: 2
#     Edge 45, Type (0, 0), BuildingBlock: KIFKEQ_clean_linker_1, # of connection points: 2
#     Edge 46, Type (0, 0), BuildingBlock: KIFKEQ_clean_linker_1, # of connection points: 2
#     Edge 47, Type (0, 0), BuildingBlock: KIFKEQ_clean_linker_1, # of connection points: 2
#     Edge 48, Type (0, 0), BuildingBlock: KIFKEQ_clean_linker_1, # of connection points: 2
#     Edge 49, Type (0, 0), BuildingBlock: KIFKEQ_clean_linker_1, # of connection points: 2
#     Edge 50, Type (0, 0), BuildingBlock: KIFKEQ_clean_linker_1, # of connection points: 2
#     Edge 51, Type (0, 0), BuildingBlock: KIFKEQ_clean_linker_1, # of connection points: 2
#     Edge 52, Type (0, 0), BuildingBlock: KIFKEQ_clean_linker_1, # of connection points: 2
#     Edge 53, Type (0, 0), BuildingBlock: KIFKEQ_clean_linker_1, # of connection points: 2
#     Edge 54, Type (0, 0), BuildingBlock: KIFKEQ_clean_linker_1, # of connection points: 2
#     Edge 55, Type (0, 0), BuildingBlock: KIFKEQ_clean_linker_1, # of connection points: 2
#     Edge 56, Type (0, 0), BuildingBlock: KIFKEQ_clean_linker_1, # of connection points: 2
#     Edge 57, Type (0, 0), BuildingBlock: KIFKEQ_clean_linker_1, # of connection points: 2
#     Edge 58, Type (0, 0), BuildingBlock: KIFKEQ_clean_linker_1, # of connection points: 2
#     Edge 59, Type (0, 0), BuildingBlock: KIFKEQ_clean_linker_1, # of connection points: 2
#     Edge 60, Type (0, 0), BuildingBlock: KIFKEQ_clean_linker_1, # of connection points: 2
#     Edge 61, Type (0, 0), BuildingBlock: KIFKEQ_clean_linker_1, # of connection points: 2
#     Edge 62, Type (0, 0), BuildingBlock: KIFKEQ_clean_linker_1, # of connection points: 2
#     Edge 63, Type (0, 0), BuildingBlock: KIFKEQ_clean_linker_1, # of connection points: 2
#     Edge 64, Type (0, 0), BuildingBlock: KIFKEQ_clean_linker_1, # of connection points: 2
#     Edge 65, Type (0, 0), BuildingBlock: KIFKEQ_clean_linker_1, # of connection points: 2
#     Edge 66, Type (0, 0), BuildingBlock: KIFKEQ_clean_linker_1, # of connection points: 2
#     Edge 67, Type (0, 0), BuildingBlock: KIFKEQ_clean_linker_1, # of connection points: 2
#     Edge 68, Type (0, 0), BuildingBlock: KIFKEQ_clean_linker_1, # of connection points: 2
#     Edge 69, Type (0, 0), BuildingBlock: KIFKEQ_clean_linker_1, # of connection points: 2
#     Edge 70, Type (0, 0), BuildingBlock: KIFKEQ_clean_linker_1, # of connection points: 2
#     Edge 71, Type (0, 0), BuildingBlock: KIFKEQ_clean_linker_1, # of connection points: 2
#     Edge 72, Type (0, 0), BuildingBlock: KIFKEQ_clean_linker_1, # of connection points: 2
#     Edge 73, Type (0, 0), BuildingBlock: KIFKEQ_clean_linker_1, # of connection points: 2
#     Edge 74, Type (0, 0), BuildingBlock: KIFKEQ_clean_linker_1, # of connection points: 2
#     Edge 75, Type (0, 0), BuildingBlock: KIFKEQ_clean_linker_1, # of connection points: 2
#     Edge 76, Type (0, 0), BuildingBlock: KIFKEQ_clean_linker_1, # of connection points: 2
#     Edge 77, Type (0, 0), BuildingBlock: KIFKEQ_clean_linker_1, # of connection points: 2
#     Edge 78, Type (0, 0), BuildingBlock: KIFKEQ_clean_linker_1, # of connection points: 2
#     Edge 79, Type (0, 0), BuildingBlock: KIFKEQ_clean_linker_1, # of connection points: 2
#     Edge 80, Type (0, 0), BuildingBlock: KIFKEQ_clean_linker_1, # of connection points: 2
#     Edge 81, Type (0, 0), BuildingBlock: KIFKEQ_clean_linker_1, # of connection points: 2
#     Edge 82, Type (0, 0), BuildingBlock: KIFKEQ_clean_linker_1, # of connection points: 2
#     Edge 83, Type (0, 0), BuildingBlock: KIFKEQ_clean_linker_1, # of connection points: 2
# Relax obj value: 0.387
# Max RMSD: 0.201
# Mean RMSD: 0.201
data_MOF--net-wjr--node1-XOMCOT_clean_sbu_0--edge1-KIFKEQ_clean_linker_1
_symmetry_space_group_name_H-M    P1
_symmetry_Int_Tables_number       1
_symmetry_cell_setting            triclinic
loop_
_symmetry_equiv_pos_as_xyz
'x, y, z'
_cell_length_a     66.392613
_cell_length_b     66.419353
_cell_length_c     51.399308
_cell_angle_alpha  90.014549
_cell_angle_beta   90.011354
_cell_angle_gamma 119.84571
loop_
_atom_site_label
_atom_site_type_symbol
_atom_site_fract_x
_atom_site_fract_y
_atom_site_fract_z
_atom_type_partial_charge
Co0 Co 0.47215 0.11049 0.19824 0.0
C1 C 0.45796 0.14459 0.21583 0.0
C2 C 0.45264 0.11906 0.24463 0.0
C3 C 0.44686 0.1344 0.25535 0.0
N4 N 0.45924 0.12516 0.21974 0.0
N5 N 0.45025 0.15049 0.23728 0.0
H6 H 0.46311 0.1546 0.1981 0.0
H7 H 0.45281 0.10481 0.25462 0.0
C8 C 0.42498 0.07169 0.21438 0.0
O9 O 0.41551 0.08445 0.20877 0.0
N10 N 0.48523 0.0957 0.17753 0.0
C11 C 0.49851 0.1043 0.15611 0.0
C12 C 0.50346 0.08785 0.14661 0.0
C13 C 0.48226 0.07432 0.18085 0.0
N14 N 0.4931 0.06902 0.16214 0.0
C15 C 0.4648 0.13166 0.15344 0.0
C16 C 0.43347 0.09075 0.12931 0.0
C17 C 0.44401 0.11116 0.11441 0.0
C18 C 0.45924 0.13197 0.12721 0.0
C19 C 0.44001 0.09109 0.1552 0.0
N20 N 0.45573 0.11133 0.16705 0.0
H21 H 0.47817 0.14759 0.16195 0.0
H22 H 0.43389 0.07459 0.16462 0.0
H23 H 0.50393 0.12119 0.14779 0.0
H24 H 0.47252 0.0629 0.19671 0.0
O25 O 0.50091 0.13985 0.1944 0.0
O26 O 0.49313 0.11435 0.22611 0.0
O27 O 0.44642 0.07913 0.20961 0.0
C28 C 0.5077 0.13395 0.21535 0.0
H29 H 0.44168 0.13437 0.27532 0.0
H30 H 0.51344 0.08942 0.12932 0.0
H31 H 0.42128 0.07423 0.12069 0.0
H32 H 0.46828 0.14821 0.11671 0.0
Co33 Co 0.35419 0.46713 0.18754 0.0
C34 C 0.30547 0.45228 0.20469 0.0
C35 C 0.32464 0.44378 0.23181 0.0
C36 C 0.30333 0.43724 0.24238 0.0
N37 N 0.3259 0.45274 0.20793 0.0
N38 N 0.29128 0.44259 0.22538 0.0
H39 H 0.30118 0.45939 0.18814 0.0
H40 H 0.33866 0.44276 0.24128 0.0
C41 C 0.34504 0.41864 0.19856 0.0
O42 O 0.32285 0.40995 0.19338 0.0
N43 N 0.38277 0.48165 0.16825 0.0
C44 C 0.38747 0.49414 0.14622 0.0
C45 C 0.40979 0.50067 0.13863 0.0
C46 C 0.40215 0.48094 0.174 0.0
N47 N 0.41898 0.49229 0.15611 0.0
C48 C 0.32576 0.4625 0.143 0.0
C49 C 0.33736 0.43419 0.11503 0.0
C50 C 0.32558 0.44391 0.10231 0.0
C51 C 0.31907 0.45762 0.11682 0.0
C52 C 0.34351 0.43929 0.14115 0.0
N53 N 0.33794 0.45348 0.15492 0.0
H54 H 0.32282 0.47511 0.15293 0.0
H55 H 0.35467 0.43347 0.14933 0.0
H56 H 0.37543 0.49796 0.13622 0.0
H57 H 0.40385 0.47242 0.19109 0.0
O58 O 0.35423 0.4965 0.18729 0.0
O59 O 0.37028 0.48511 0.21757 0.0
O60 O 0.35924 0.44027 0.19546 0.0
C61 C 0.36604 0.50094 0.20887 0.0
H62 H 0.29759 0.43016 0.26168 0.0
H63 H 0.41833 0.51041 0.12129 0.0
H64 H 0.34297 0.42374 0.10445 0.0
H65 H 0.31047 0.46594 0.10752 0.0
Co66 Co 0.88351 0.3573 0.20247 0.0
C67 C 0.85149 0.30771 0.21568 0.0
C68 C 0.87623 0.32619 0.24586 0.0
C69 C 0.86162 0.30398 0.25434 0.0
N70 N 0.87013 0.32844 0.22148 0.0
N71 N 0.84604 0.29241 0.23538 0.0
H72 H 0.84166 0.30398 0.1979 0.0
H73 H 0.88995 0.34003 0.25703 0.0
C74 C 0.92372 0.35002 0.21558 0.0
O75 O 0.91198 0.32829 0.20787 0.0
N76 N 0.89659 0.38615 0.18375 0.0
C77 C 0.88615 0.39103 0.16423 0.0
C78 C 0.90125 0.41282 0.15492 0.0
C79 C 0.91785 0.4049 0.18612 0.0
N80 N 0.92116 0.42145 0.16865 0.0
C81 C 0.86252 0.33165 0.15585 0.0
C82 C 0.90355 0.34264 0.13089 0.0
C83 C 0.88302 0.33289 0.11621 0.0
C84 C 0.86218 0.3267 0.12931 0.0
C85 C 0.90321 0.3478 0.15714 0.0
N86 N 0.88289 0.3424 0.16947 0.0
H87 H 0.84654 0.3286 0.1648 0.0
H88 H 0.91971 0.35796 0.16662 0.0
H89 H 0.86889 0.37937 0.15695 0.0
H90 H 0.93059 0.40645 0.2003 0.0
O91 O 0.85341 0.35579 0.20129 0.0
O92 O 0.8796 0.37201 0.23262 0.0
O93 O 0.91555 0.36364 0.21227 0.0
C94 C 0.85962 0.36729 0.22314 0.0
H95 H 0.86173 0.29725 0.27349 0.0
H96 H 0.89805 0.42139 0.13886 0.0
H97 H 0.92011 0.34755 0.1219 0.0
H98 H 0.84589 0.31964 0.11889 0.0
Co99 Co 0.52068 0.8811 0.1933 0.0
C100 C 0.53258 0.84604 0.21349 0.0
C101 C 0.54428 0.87584 0.23809 0.0
C102 C 0.54841 0.86004 0.25058 0.0
N103 N 0.53483 0.8674 0.21456 0.0
N104 N 0.54091 0.84123 0.23522 0.0
H105 H 0.52344 0.83352 0.19834 0.0
H106 H 0.54673 0.89186 0.24641 0.0
C107 C 0.56849 0.92131 0.20523 0.0
O108 O 0.57807 0.9087 0.19932 0.0
N109 N 0.50629 0.89495 0.17321 0.0
C110 C 0.49292 0.88636 0.15184 0.0
C111 C 0.48697 0.90239 0.14322 0.0
C112 C 0.50821 0.91579 0.17745 0.0
N113 N 0.49681 0.92089 0.1593 0.0
C114 C 0.52874 0.85881 0.14952 0.0
C115 C 0.55451 0.89931 0.12163 0.0
C116 C 0.54635 0.87805 0.10887 0.0
C117 C 0.53405 0.85759 0.12334 0.0
C118 C 0.54909 0.89979 0.14776 0.0
N119 N 0.53599 0.87972 0.16143 0.0
H120 H 0.51699 0.84289 0.15934 0.0
H121 H 0.55351 0.91641 0.15599 0.0
H122 H 0.48817 0.86983 0.14294 0.0
H123 H 0.51767 0.92697 0.19358 0.0
O124 O 0.49191 0.8515 0.19125 0.0
O125 O 0.50107 0.87802 0.2222 0.0
O126 O 0.54665 0.91302 0.20257 0.0
C127 C 0.48605 0.85811 0.21243 0.0
H128 H 0.5556 0.86194 0.26992 0.0
H129 H 0.47679 0.90085 0.12612 0.0
H130 H 0.56378 0.9155 0.11103 0.0
H131 H 0.52695 0.8408 0.11397 0.0
Co132 Co 0.64037 0.53193 0.19218 0.0
C133 C 0.68667 0.54243 0.21296 0.0
C134 C 0.66673 0.55035 0.23967 0.0
C135 C 0.68609 0.55316 0.2524 0.0
N136 N 0.66711 0.54384 0.21488 0.0
N137 N 0.69853 0.54809 0.23567 0.0
H138 H 0.69136 0.53593 0.19612 0.0
H139 H 0.65266 0.5518 0.2483 0.0
C140 C 0.65121 0.58051 0.2066 0.0
O141 O 0.67365 0.58831 0.20496 0.0
N142 N 0.61317 0.51974 0.17056 0.0
C143 C 0.60934 0.50861 0.1476 0.0
C144 C 0.5874 0.50272 0.13911 0.0
C145 C 0.59359 0.52019 0.17596 0.0
N146 N 0.57757 0.50997 0.15705 0.0
C147 C 0.66872 0.53432 0.14879 0.0
C148 C 0.6654 0.5687 0.12234 0.0
C149 C 0.67291 0.55539 0.10853 0.0
C150 C 0.67544 0.5386 0.12257 0.0
C151 C 0.65812 0.56333 0.14816 0.0
N152 N 0.65928 0.54594 0.16106 0.0
H153 H 0.66909 0.52005 0.15838 0.0
H154 H 0.64975 0.57205 0.15664 0.0
H155 H 0.62148 0.5048 0.13784 0.0
H156 H 0.59118 0.52793 0.19336 0.0
O157 O 0.63828 0.50156 0.19184 0.0
O158 O 0.6216 0.51341 0.22067 0.0
O159 O 0.63667 0.55964 0.2001 0.0
C160 C 0.62534 0.49708 0.2125 0.0
H161 H 0.69034 0.55782 0.27266 0.0
H162 H 0.57912 0.49338 0.12144 0.0
H163 H 0.66376 0.58239 0.11293 0.0
H164 H 0.68092 0.52759 0.11307 0.0
Co165 Co 0.10865 0.63595 0.19093 0.0
C166 C 0.1457 0.68125 0.21223 0.0
C167 C 0.11938 0.66043 0.24006 0.0
C168 C 0.13646 0.67943 0.25269 0.0
N169 N 0.12501 0.66158 0.21468 0.0
N170 N 0.15299 0.69242 0.23523 0.0
H171 H 0.15591 0.68664 0.19462 0.0
H172 H 0.10425 0.64616 0.24898 0.0
C173 C 0.07314 0.64855 0.20947 0.0
O174 O 0.08849 0.67076 0.20766 0.0
N175 N 0.09221 0.6099 0.16812 0.0
C176 C 0.09968 0.60532 0.14571 0.0
C177 C 0.08273 0.58398 0.13669 0.0
C178 C 0.07113 0.59153 0.17256 0.0
N179 N 0.06483 0.5755 0.15362 0.0
C180 C 0.13343 0.66575 0.14817 0.0
C181 C 0.09505 0.66338 0.12429 0.0
C182 C 0.1155 0.67146 0.10969 0.0
C183 C 0.13514 0.67343 0.12243 0.0
C184 C 0.09391 0.65536 0.14968 0.0
N185 N 0.11283 0.65616 0.16132 0.0
H186 H 0.14824 0.66558 0.15657 0.0
H187 H 0.07708 0.64663 0.15873 0.0
H188 H 0.11637 0.61648 0.13682 0.0
H189 H 0.06099 0.58956 0.18982 0.0
O190 O 0.1363 0.63296 0.18743 0.0
O191 O 0.10878 0.61536 0.21718 0.0
O192 O 0.07818 0.63329 0.20176 0.0
C193 C 0.12819 0.61886 0.20718 0.0
H194 H 0.13702 0.68314 0.27328 0.0
H195 H 0.08352 0.57536 0.11917 0.0
H196 H 0.07947 0.6619 0.11574 0.0
H197 H 0.15132 0.67919 0.11213 0.0
Co198 Co 0.88642 0.53176 0.32529 0.0
C199 C 0.85151 0.54465 0.30756 0.0
C200 C 0.88156 0.55791 0.28308 0.0
C201 C 0.86542 0.5618 0.27101 0.0
N202 N 0.87311 0.54747 0.30621 0.0
N203 N 0.84651 0.55334 0.2863 0.0
H204 H 0.83891 0.53462 0.32233 0.0
H205 H 0.89768 0.56084 0.27454 0.0
C206 C 0.92714 0.58045 0.31685 0.0
O207 O 0.91432 0.58998 0.32182 0.0
N208 N 0.9 0.5159 0.34289 0.0
C209 C 0.89155 0.50085 0.36285 0.0
C210 C 0.90636 0.49221 0.36721 0.0
C211 C 0.91945 0.51614 0.33528 0.0
N212 N 0.9239 0.50184 0.34974 0.0
C213 C 0.86177 0.53367 0.37017 0.0
C214 C 0.90045 0.56178 0.39993 0.0
C215 C 0.87862 0.55077 0.41195 0.0
C216 C 0.85908 0.53693 0.39659 0.0
C217 C 0.90245 0.55768 0.37357 0.0
N218 N 0.88326 0.54371 0.35892 0.0
H219 H 0.84662 0.52161 0.35934 0.0
H220 H 0.91966 0.56437 0.36576 0.0
H221 H 0.87556 0.49611 0.37306 0.0
H222 H 0.92986 0.52647 0.31914 0.0
O223 O 0.85698 0.50276 0.32399 0.0
O224 O 0.88455 0.51501 0.294 0.0
O225 O 0.91867 0.55855 0.31897 0.0
C226 C 0.86436 0.49892 0.30208 0.0
H227 H 0.86696 0.56911 0.2518 0.0
H228 H 0.90399 0.47946 0.38177 0.0
H229 H 0.91605 0.57211 0.41124 0.0
H230 H 0.84192 0.5279 0.40519 0.0
Co231 Co 0.35176 0.88199 0.33085 0.0
C232 C 0.30907 0.84448 0.30568 0.0
C233 C 0.30286 0.86912 0.32594 0.0
C234 C 0.28244 0.85291 0.31446 0.0
N235 N 0.31957 0.86391 0.32031 0.0
N236 N 0.28642 0.83747 0.30176 0.0
H237 H 0.3177 0.83573 0.2977 0.0
H238 H 0.3054 0.88381 0.33752 0.0
C239 C 0.34668 0.91523 0.29894 0.0
O240 O 0.33821 0.89841 0.28168 0.0
N241 N 0.38355 0.90004 0.34183 0.0
C242 C 0.39311 0.89571 0.36266 0.0
C243 C 0.41571 0.91337 0.36501 0.0
C244 C 0.4004 0.91995 0.33146 0.0
N245 N 0.42018 0.92851 0.3454 0.0
C246 C 0.33043 0.86185 0.37924 0.0
C247 C 0.34389 0.90302 0.40552 0.0
C248 C 0.33308 0.88207 0.41943 0.0
C249 C 0.32595 0.86128 0.40585 0.0
C250 C 0.34835 0.90285 0.37891 0.0
N251 N 0.34192 0.88243 0.36627 0.0
H252 H 0.32536 0.84576 0.3691 0.0
H253 H 0.35793 0.9192 0.36881 0.0
H254 H 0.38409 0.88101 0.37555 0.0
H255 H 0.39802 0.92838 0.31467 0.0
O256 O 0.35501 0.8545 0.33247 0.0
O257 O 0.36209 0.87688 0.29773 0.0
O258 O 0.35182 0.91142 0.32167 0.0
C259 C 0.36235 0.85934 0.30854 0.0
H260 H 0.26587 0.85229 0.31576 0.0
H261 H 0.42787 0.91511 0.38008 0.0
H262 H 0.34989 0.91945 0.41536 0.0
H263 H 0.31737 0.84474 0.41585 0.0
Co264 Co 0.46493 0.35491 0.31924 0.0
C265 C 0.4524 0.30787 0.29928 0.0
C266 C 0.44128 0.32625 0.27424 0.0
C267 C 0.43678 0.30607 0.26205 0.0
N268 N 0.45067 0.32725 0.29782 0.0
N269 N 0.44391 0.29458 0.27772 0.0
H270 H 0.46118 0.30429 0.3147 0.0
H271 H 0.43891 0.33987 0.26589 0.0
C272 C 0.41632 0.34585 0.30912 0.0
O273 O 0.40775 0.32357 0.3135 0.0
N274 N 0.47944 0.38287 0.33966 0.0
C275 C 0.49096 0.3864 0.36233 0.0
C276 C 0.49719 0.40829 0.37126 0.0
C277 C 0.47923 0.40265 0.33475 0.0
N278 N 0.48985 0.41838 0.35382 0.0
C279 C 0.46084 0.32556 0.36263 0.0
C280 C 0.43301 0.3368 0.39208 0.0
C281 C 0.44352 0.32551 0.40419 0.0
C282 C 0.45684 0.31903 0.38892 0.0
C283 C 0.43726 0.34284 0.36585 0.0
N284 N 0.45141 0.33767 0.35141 0.0
H285 H 0.47336 0.32285 0.35216 0.0
H286 H 0.43104 0.35384 0.35823 0.0
H287 H 0.49424 0.37383 0.3719 0.0
H288 H 0.47095 0.40525 0.31796 0.0
O289 O 0.49442 0.35517 0.31854 0.0
O290 O 0.4827 0.37188 0.28955 0.0
O291 O 0.43795 0.36005 0.31236 0.0
C292 C 0.49871 0.36753 0.29741 0.0
H293 H 0.4295 0.30067 0.24277 0.0
H294 H 0.50641 0.41621 0.38911 0.0
H295 H 0.42278 0.34233 0.40325 0.0
H296 H 0.4657 0.31075 0.39771 0.0
Co297 Co 0.11229 0.46683 0.32648 0.0
C298 C 0.14523 0.45532 0.29992 0.0
C299 C 0.12255 0.42844 0.32611 0.0
C300 C 0.13671 0.4216 0.31424 0.0
N301 N 0.12782 0.44959 0.31715 0.0
N302 N 0.15094 0.43851 0.29778 0.0
H303 H 0.15348 0.47124 0.28885 0.0
H304 H 0.10967 0.41875 0.34071 0.0
C305 C 0.06696 0.41895 0.32618 0.0
O306 O 0.06976 0.41177 0.34896 0.0
N307 N 0.09674 0.48391 0.33552 0.0
C308 C 0.10566 0.5033 0.35021 0.0
C309 C 0.08917 0.5099 0.35295 0.0
C310 C 0.07493 0.47887 0.32962 0.0
N311 N 0.06991 0.49444 0.34016 0.0
C312 C 0.13156 0.4621 0.37463 0.0
C313 C 0.09266 0.44978 0.40482 0.0
C314 C 0.11298 0.45308 0.41701 0.0
C315 C 0.13255 0.45904 0.40149 0.0
C316 C 0.09235 0.45279 0.37797 0.0
N317 N 0.11154 0.45864 0.36309 0.0
H318 H 0.14709 0.46782 0.3631 0.0
H319 H 0.07664 0.45072 0.3692 0.0
H320 H 0.12278 0.51176 0.35883 0.0
H321 H 0.0629 0.46408 0.31812 0.0
O322 O 0.14146 0.49622 0.32602 0.0
O323 O 0.11783 0.48016 0.29234 0.0
O324 O 0.08164 0.43883 0.31718 0.0
C325 C 0.1363 0.49781 0.30186 0.0
H326 H 0.13692 0.40566 0.31794 0.0
H327 H 0.09089 0.52445 0.36421 0.0
H328 H 0.07711 0.44511 0.41599 0.0
H329 H 0.14874 0.46221 0.41015 0.0
Co330 Co 0.64184 0.11218 0.32209 0.0
C331 C 0.68558 0.14165 0.29279 0.0
C332 C 0.69059 0.12232 0.32294 0.0
C333 C 0.7114 0.1356 0.31052 0.0
N334 N 0.67426 0.126 0.31184 0.0
N335 N 0.70823 0.14778 0.29163 0.0
H336 H 0.67765 0.14876 0.28017 0.0
H337 H 0.68807 0.11161 0.33975 0.0
C338 C 0.64373 0.06715 0.31362 0.0
O339 O 0.65903 0.0711 0.33194 0.0
N340 N 0.60979 0.09852 0.33236 0.0
C341 C 0.60175 0.1059 0.35204 0.0
C342 C 0.57821 0.09137 0.35398 0.0
C343 C 0.59113 0.07978 0.32237 0.0
N344 N 0.57148 0.0749 0.33534 0.0
C345 C 0.66405 0.12815 0.37093 0.0
C346 C 0.64024 0.08639 0.39723 0.0
C347 C 0.65471 0.10664 0.41126 0.0
C348 C 0.66698 0.12763 0.39774 0.0
C349 C 0.63752 0.08773 0.37038 0.0
N350 N 0.6494 0.10845 0.35761 0.0
H351 H 0.67294 0.14461 0.36086 0.0
H352 H 0.62495 0.07237 0.36012 0.0
H353 H 0.6124 0.12051 0.36453 0.0
H354 H 0.59201 0.0699 0.30613 0.0
O355 O 0.64431 0.14248 0.32535 0.0
O356 O 0.63425 0.12095 0.28952 0.0
O357 O 0.63596 0.08101 0.30973 0.0
C358 C 0.63701 0.13945 0.30135 0.0
H359 H 0.72787 0.13712 0.3159 0.0
H360 H 0.56715 0.09242 0.36873 0.0
H361 H 0.63013 0.06994 0.40713 0.0
H362 H 0.67828 0.14364 0.40793 0.0
Co363 Co 0.52567 0.63791 0.32782 0.0
C364 C 0.53621 0.68416 0.30668 0.0
C365 C 0.54542 0.66476 0.28077 0.0
C366 C 0.54929 0.68459 0.26826 0.0
N367 N 0.53762 0.66461 0.30503 0.0
N368 N 0.54343 0.69676 0.2845 0.0
H369 H 0.52936 0.68877 0.32321 0.0
H370 H 0.54724 0.65082 0.27233 0.0
C371 C 0.57459 0.64928 0.31508 0.0
O372 O 0.58214 0.67154 0.31831 0.0
N373 N 0.51354 0.61072 0.34941 0.0
C374 C 0.50437 0.60741 0.3735 0.0
C375 C 0.49841 0.58533 0.38156 0.0
C376 C 0.51261 0.59068 0.3429 0.0
N377 N 0.50351 0.57495 0.36217 0.0
C378 C 0.52892 0.6676 0.37002 0.0
C379 C 0.56137 0.66242 0.39852 0.0
C380 C 0.54932 0.67214 0.41067 0.0
C381 C 0.53342 0.67533 0.39582 0.0
C382 C 0.5561 0.65457 0.3728 0.0
N383 N 0.53979 0.65688 0.35885 0.0
H384 H 0.51509 0.66838 0.35993 0.0
H385 H 0.56364 0.64467 0.36528 0.0
H386 H 0.50221 0.62009 0.38448 0.0
H387 H 0.51877 0.58779 0.32454 0.0
O388 O 0.49543 0.63594 0.32852 0.0
O389 O 0.50687 0.61903 0.2994 0.0
O390 O 0.55346 0.63434 0.31996 0.0
C391 C 0.49069 0.62282 0.30801 0.0
H392 H 0.55478 0.68904 0.24825 0.0
H393 H 0.49067 0.57739 0.40001 0.0
H394 H 0.57337 0.6591 0.40946 0.0
H395 H 0.52359 0.68261 0.40452 0.0
Co396 Co 0.52066 0.88046 0.82769 0.0
C397 C 0.53306 0.84532 0.80857 0.0
C398 C 0.54101 0.87292 0.7816 0.0
C399 C 0.54524 0.857 0.76963 0.0
N400 N 0.53375 0.86593 0.80616 0.0
N401 N 0.54008 0.83956 0.78646 0.0
H402 H 0.52612 0.834 0.8252 0.0
H403 H 0.54204 0.88808 0.7725 0.0
C404 C 0.56781 0.91985 0.81202 0.0
O405 O 0.57742 0.90702 0.81644 0.0
N406 N 0.50734 0.89533 0.84787 0.0
C407 C 0.49858 0.89031 0.87217 0.0
C408 C 0.49223 0.9064 0.87931 0.0
C409 C 0.50573 0.91386 0.84031 0.0
N410 N 0.49668 0.92103 0.85916 0.0
C411 C 0.52834 0.85887 0.87193 0.0
C412 C 0.55915 0.8995 0.89693 0.0
C413 C 0.54894 0.87877 0.91133 0.0
C414 C 0.53398 0.85814 0.89805 0.0
C415 C 0.55254 0.89956 0.87113 0.0
N416 N 0.53699 0.87946 0.85891 0.0
H417 H 0.5152 0.84301 0.86309 0.0
H418 H 0.55848 0.91618 0.86207 0.0
H419 H 0.4973 0.87629 0.88403 0.0
H420 H 0.51176 0.92238 0.82168 0.0
O421 O 0.49192 0.85113 0.83143 0.0
O422 O 0.49992 0.8766 0.79959 0.0
O423 O 0.54633 0.91205 0.81694 0.0
C424 C 0.48529 0.85701 0.81033 0.0
H425 H 0.55095 0.85783 0.74974 0.0
H426 H 0.48507 0.90741 0.89787 0.0
H427 H 0.57119 0.91592 0.90586 0.0
H428 H 0.52522 0.84166 0.90812 0.0
Co429 Co 0.64034 0.52808 0.827 0.0
C430 C 0.68662 0.53875 0.80579 0.0
C431 C 0.66699 0.54769 0.77986 0.0
C432 C 0.68635 0.55071 0.76692 0.0
N433 N 0.66721 0.54048 0.80436 0.0
N434 N 0.6986 0.545 0.78318 0.0
H435 H 0.69111 0.5315 0.82205 0.0
H436 H 0.65297 0.54938 0.77147 0.0
C437 C 0.65035 0.57628 0.81319 0.0
O438 O 0.67263 0.58438 0.81714 0.0
N439 N 0.61304 0.51536 0.84849 0.0
C440 C 0.60989 0.50534 0.87208 0.0
C441 C 0.58787 0.49907 0.88063 0.0
C442 C 0.59295 0.51464 0.84272 0.0
N443 N 0.57733 0.50486 0.86206 0.0
C444 C 0.67078 0.53389 0.86987 0.0
C445 C 0.66071 0.56336 0.89777 0.0
C446 C 0.6717 0.55285 0.91057 0.0
C447 C 0.67766 0.53874 0.89603 0.0
C448 C 0.65435 0.55828 0.87168 0.0
N449 N 0.65879 0.54319 0.85807 0.0
H450 H 0.67303 0.52078 0.8601 0.0
H451 H 0.64357 0.56458 0.86358 0.0
H452 H 0.62267 0.50283 0.88236 0.0
H453 H 0.58993 0.5214 0.82488 0.0
O454 O 0.63949 0.49835 0.82852 0.0
O455 O 0.62203 0.50863 0.79879 0.0
O456 O 0.6357 0.55506 0.81814 0.0
C457 C 0.62641 0.493 0.80786 0.0
H458 H 0.69066 0.55589 0.7468 0.0
H459 H 0.58007 0.49062 0.89886 0.0
H460 H 0.65562 0.57423 0.90837 0.0
H461 H 0.68573 0.5299 0.90533 0.0
Co462 Co 0.1077 0.64046 0.82856 0.0
C463 C 0.14047 0.68812 0.8087 0.0
C464 C 0.11104 0.6688 0.78394 0.0
C465 C 0.12603 0.6891 0.77156 0.0
N466 N 0.11978 0.66827 0.80749 0.0
N467 N 0.14456 0.70117 0.78709 0.0
H468 H 0.1532 0.69219 0.82377 0.0
H469 H 0.09543 0.65469 0.7756 0.0
C470 C 0.06606 0.64611 0.81798 0.0
O471 O 0.07831 0.66841 0.82317 0.0
N472 N 0.09541 0.61219 0.84825 0.0
C473 C 0.10198 0.6087 0.87187 0.0
C474 C 0.08738 0.5859 0.87893 0.0
C475 C 0.07752 0.59161 0.84094 0.0
N476 N 0.07224 0.57532 0.85932 0.0
C477 C 0.13077 0.67101 0.87161 0.0
C478 C 0.09137 0.65733 0.90127 0.0
C479 C 0.11313 0.67124 0.91297 0.0
C480 C 0.13296 0.67867 0.89737 0.0
C481 C 0.08993 0.65036 0.87531 0.0
N482 N 0.10949 0.65697 0.86077 0.0
H483 H 0.14637 0.67489 0.86123 0.0
H484 H 0.07307 0.63788 0.86788 0.0
H485 H 0.11599 0.62186 0.88336 0.0
H486 H 0.06804 0.5888 0.82291 0.0
O487 O 0.13799 0.6426 0.82918 0.0
O488 O 0.11093 0.62469 0.79891 0.0
O489 O 0.07496 0.63307 0.82082 0.0
C490 C 0.13137 0.63041 0.80784 0.0
H491 H 0.12389 0.69415 0.75218 0.0
H492 H 0.08768 0.57777 0.89706 0.0
H493 H 0.0755 0.65045 0.91248 0.0
H494 H 0.15019 0.68948 0.90526 0.0
Co495 Co 0.47512 0.11677 0.83018 0.0
C496 C 0.46744 0.14995 0.79831 0.0
C497 C 0.43946 0.13093 0.82495 0.0
C498 C 0.43462 0.14556 0.81085 0.0
N499 N 0.46002 0.1335 0.81707 0.0
N500 N 0.45223 0.15751 0.79416 0.0
H501 H 0.48362 0.15647 0.78786 0.0
H502 H 0.42898 0.11996 0.84064 0.0
C503 C 0.42701 0.07419 0.81889 0.0
O504 O 0.41577 0.07892 0.83663 0.0
N505 N 0.49003 0.1002 0.84324 0.0
C506 C 0.50367 0.10616 0.86454 0.0
C507 C 0.50808 0.08852 0.87028 0.0
C508 C 0.48668 0.07924 0.83594 0.0
N509 N 0.49739 0.07171 0.85231 0.0
C510 C 0.46569 0.13336 0.8774 0.0
C511 C 0.44537 0.09135 0.90342 0.0
C512 C 0.45028 0.11149 0.91724 0.0
C513 C 0.46002 0.13262 0.90374 0.0
C514 C 0.451 0.09279 0.87704 0.0
N515 N 0.46124 0.11364 0.86439 0.0
H516 H 0.47451 0.14995 0.86759 0.0
H517 H 0.44831 0.07729 0.86714 0.0
H518 H 0.50894 0.12169 0.87594 0.0
H519 H 0.47557 0.06911 0.82003 0.0
O520 O 0.50424 0.14555 0.83553 0.0
O521 O 0.49387 0.12442 0.79937 0.0
O522 O 0.44891 0.08693 0.81602 0.0
C523 C 0.50964 0.14213 0.81218 0.0
H524 H 0.41981 0.14802 0.8135 0.0
H525 H 0.51773 0.08771 0.88685 0.0
H526 H 0.43791 0.07469 0.91312 0.0
H527 H 0.46442 0.14864 0.91378 0.0
Co528 Co 0.35678 0.46532 0.82395 0.0
C529 C 0.31157 0.45644 0.80147 0.0
C530 C 0.3324 0.44994 0.77463 0.0
C531 C 0.31296 0.44686 0.7618 0.0
N532 N 0.33141 0.45558 0.7996 0.0
N533 N 0.29991 0.45109 0.77861 0.0
H534 H 0.30631 0.46197 0.81864 0.0
H535 H 0.34666 0.44871 0.76615 0.0
C536 C 0.34565 0.41736 0.80641 0.0
O537 O 0.32325 0.40991 0.80748 0.0
N538 N 0.38265 0.47535 0.84735 0.0
C539 C 0.38494 0.48351 0.87184 0.0
C540 C 0.40654 0.48885 0.88104 0.0
C541 C 0.40285 0.47623 0.84176 0.0
N542 N 0.41769 0.48436 0.86198 0.0
C543 C 0.32621 0.46069 0.86574 0.0
C544 C 0.32832 0.42504 0.89079 0.0
C545 C 0.3207 0.43807 0.90499 0.0
C546 C 0.31865 0.4554 0.89157 0.0
C547 C 0.33641 0.43136 0.86533 0.0
N548 N 0.33599 0.44948 0.85323 0.0
H549 H 0.32647 0.47553 0.85689 0.0
H550 H 0.34502 0.42293 0.8567 0.0
H551 H 0.37202 0.4857 0.88224 0.0
H552 H 0.40658 0.471 0.82326 0.0
O553 O 0.35937 0.49577 0.82676 0.0
O554 O 0.37758 0.48576 0.79779 0.0
O555 O 0.36027 0.43781 0.81416 0.0
C556 C 0.37381 0.50165 0.80735 0.0
H557 H 0.30898 0.44218 0.74152 0.0
H558 H 0.41372 0.49597 0.89996 0.0
H559 H 0.32962 0.41099 0.89975 0.0
H560 H 0.31313 0.46623 0.90142 0.0
Co561 Co 0.88174 0.35654 0.8301 0.0
C562 C 0.8478 0.31216 0.8043 0.0
C563 C 0.87321 0.30866 0.82649 0.0
C564 C 0.85838 0.28758 0.81539 0.0
N565 N 0.86677 0.32421 0.81944 0.0
N566 N 0.84243 0.28983 0.80151 0.0
H567 H 0.83799 0.31933 0.79546 0.0
H568 H 0.88706 0.31193 0.83974 0.0
C569 C 0.92791 0.35542 0.8248 0.0
O570 O 0.92596 0.34385 0.84622 0.0
N571 N 0.89656 0.38862 0.84082 0.0
C572 C 0.88902 0.39694 0.86016 0.0
C573 C 0.90588 0.41939 0.86539 0.0
C574 C 0.91763 0.40621 0.83408 0.0
N575 N 0.92372 0.42507 0.84899 0.0
C576 C 0.86466 0.33132 0.8777 0.0
C577 C 0.90465 0.35723 0.90648 0.0
C578 C 0.88463 0.34038 0.91919 0.0
C579 C 0.86457 0.32699 0.90436 0.0
C580 C 0.90407 0.36082 0.87981 0.0
N581 N 0.88424 0.348 0.86571 0.0
H582 H 0.84872 0.32183 0.86677 0.0
H583 H 0.9194 0.37458 0.87065 0.0
H584 H 0.87303 0.38687 0.87084 0.0
H585 H 0.92894 0.40481 0.81994 0.0
O586 O 0.85208 0.35577 0.83246 0.0
O587 O 0.87438 0.36505 0.79728 0.0
O588 O 0.91258 0.36075 0.81831 0.0
C589 C 0.85601 0.3632 0.80846 0.0
H590 H 0.85874 0.27161 0.81814 0.0
H591 H 0.90556 0.43037 0.88077 0.0
H592 H 0.92053 0.36794 0.91719 0.0
H593 H 0.84862 0.31408 0.9135 0.0
Co594 Co 0.11171 0.47175 0.69816 0.0
C595 C 0.14641 0.45878 0.71654 0.0
C596 C 0.12003 0.45208 0.74476 0.0
C597 C 0.13584 0.44708 0.75583 0.0
N598 N 0.12635 0.45897 0.71997 0.0
N599 N 0.15246 0.45139 0.73812 0.0
H600 H 0.15683 0.46462 0.69914 0.0
H601 H 0.10535 0.45161 0.75448 0.0
C602 C 0.07264 0.42451 0.71437 0.0
O603 O 0.08582 0.41515 0.71091 0.0
N604 N 0.09704 0.48479 0.6772 0.0
C605 C 0.10363 0.49468 0.65353 0.0
C606 C 0.08725 0.49998 0.64464 0.0
C607 C 0.07719 0.48467 0.68271 0.0
N608 N 0.07077 0.49371 0.66309 0.0
C609 C 0.13407 0.46534 0.65379 0.0
C610 C 0.09372 0.43392 0.62874 0.0
C611 C 0.1143 0.44522 0.6142 0.0
C612 C 0.13486 0.46034 0.62745 0.0
C613 C 0.09358 0.43974 0.65484 0.0
N614 N 0.1135 0.45575 0.66703 0.0
H615 H 0.14973 0.47884 0.66261 0.0
H616 H 0.07692 0.43293 0.66409 0.0
H617 H 0.119 0.49746 0.64323 0.0
H618 H 0.06728 0.47747 0.70035 0.0
O619 O 0.14089 0.50086 0.69519 0.0
O620 O 0.11454 0.49209 0.72621 0.0
O621 O 0.08009 0.44574 0.70848 0.0
C622 C 0.13428 0.50708 0.71607 0.0
H623 H 0.13578 0.44192 0.77581 0.0
H624 H 0.08735 0.50774 0.62609 0.0
H625 H 0.0774 0.42177 0.61966 0.0
H626 H 0.15119 0.46983 0.61718 0.0
Co627 Co 0.63791 0.11162 0.69782 0.0
C628 C 0.68357 0.14729 0.71969 0.0
C629 C 0.68531 0.11881 0.70248 0.0
C630 C 0.70688 0.13431 0.71199 0.0
N631 N 0.67055 0.12677 0.70743 0.0
N632 N 0.70574 0.15218 0.72276 0.0
H633 H 0.67716 0.1585 0.72634 0.0
H634 H 0.68114 0.10327 0.69187 0.0
C635 C 0.63793 0.06501 0.70287 0.0
O636 O 0.64785 0.06612 0.68042 0.0
N637 N 0.60545 0.0965 0.6885 0.0
C638 C 0.59603 0.10362 0.67003 0.0
C639 C 0.57319 0.08685 0.66681 0.0
C640 C 0.58822 0.07576 0.69663 0.0
N641 N 0.56828 0.06921 0.68341 0.0
C642 C 0.66313 0.12693 0.65 0.0
C643 C 0.63483 0.08765 0.62123 0.0
C644 C 0.65286 0.10686 0.60843 0.0
C645 C 0.66742 0.1265 0.62345 0.0
C646 C 0.63149 0.08862 0.64793 0.0
N647 N 0.64549 0.10811 0.66205 0.0
H648 H 0.67365 0.14274 0.6608 0.0
H649 H 0.6171 0.07382 0.6571 0.0
H650 H 0.60546 0.11933 0.6587 0.0
H651 H 0.59049 0.06543 0.71131 0.0
O652 O 0.63877 0.14119 0.69455 0.0
O653 O 0.63043 0.12014 0.73065 0.0
O654 O 0.63394 0.08106 0.71025 0.0
C655 C 0.63201 0.13814 0.71879 0.0
H656 H 0.72239 0.1329 0.71042 0.0
H657 H 0.5616 0.08721 0.65227 0.0
H658 H 0.6227 0.07224 0.61065 0.0
H659 H 0.68179 0.14172 0.61477 0.0
Co660 Co 0.53185 0.64104 0.6932 0.0
C661 C 0.54323 0.68732 0.71411 0.0
C662 C 0.55886 0.67135 0.73609 0.0
C663 C 0.56252 0.69096 0.74906 0.0
N664 N 0.54726 0.66928 0.71376 0.0
N665 N 0.55254 0.70092 0.73531 0.0
H666 H 0.53237 0.68961 0.70028 0.0
H667 H 0.56278 0.65848 0.7436 0.0
C668 C 0.58059 0.64915 0.70017 0.0
O669 O 0.58953 0.6713 0.69468 0.0
N670 N 0.51613 0.61258 0.67379 0.0
C671 C 0.50121 0.60772 0.65387 0.0
C672 C 0.4939 0.5854 0.64557 0.0
C673 C 0.51765 0.59335 0.67749 0.0
N674 N 0.50436 0.57651 0.6604 0.0
C675 C 0.53636 0.67105 0.65032 0.0
C676 C 0.56106 0.65747 0.61861 0.0
C677 C 0.55265 0.6713 0.6078 0.0
C678 C 0.54075 0.67865 0.62444 0.0
C679 C 0.55673 0.65069 0.64469 0.0
N680 N 0.54436 0.65731 0.66031 0.0
H681 H 0.52501 0.67486 0.66159 0.0
H682 H 0.56165 0.63839 0.65152 0.0
H683 H 0.49615 0.61961 0.64589 0.0
H684 H 0.52802 0.59162 0.69262 0.0
O685 O 0.50272 0.64144 0.69494 0.0
O686 O 0.51502 0.62508 0.72381 0.0
O687 O 0.55869 0.63545 0.69887 0.0
C688 C 0.49902 0.62962 0.71639 0.0
H689 H 0.57031 0.69639 0.76812 0.0
H690 H 0.48215 0.57658 0.62958 0.0
H691 H 0.56962 0.65053 0.6067 0.0
H692 H 0.53392 0.68941 0.61736 0.0
Co693 Co 0.88333 0.52268 0.69212 0.0
C694 C 0.84842 0.53483 0.71261 0.0
C695 C 0.87684 0.5435 0.73859 0.0
C696 C 0.86088 0.54727 0.75129 0.0
N697 N 0.86932 0.53603 0.71418 0.0
N698 N 0.843 0.54173 0.735 0.0
H699 H 0.83657 0.52745 0.69649 0.0
H700 H 0.89233 0.54482 0.74716 0.0
C701 C 0.92245 0.57025 0.70593 0.0
O702 O 0.90901 0.57907 0.70089 0.0
N703 N 0.8975 0.50903 0.67137 0.0
C704 C 0.89117 0.49933 0.64757 0.0
C705 C 0.90709 0.49309 0.63941 0.0
C706 C 0.91665 0.50809 0.67768 0.0
N707 N 0.92291 0.49854 0.65848 0.0
C708 C 0.86072 0.53087 0.64881 0.0
C709 C 0.90111 0.55801 0.62121 0.0
C710 C 0.87981 0.54936 0.60838 0.0
C711 C 0.85939 0.53639 0.62274 0.0
C712 C 0.9017 0.55249 0.64733 0.0
N713 N 0.8817 0.53859 0.6608 0.0
H714 H 0.84491 0.51851 0.65837 0.0
H715 H 0.91843 0.55739 0.65562 0.0
H716 H 0.87635 0.49738 0.63671 0.0
H717 H 0.92619 0.51488 0.69564 0.0
O718 O 0.85386 0.49377 0.68961 0.0
O719 O 0.88042 0.50248 0.72039 0.0
O720 O 0.91518 0.54873 0.70184 0.0
C721 C 0.86048 0.4876 0.71055 0.0
H722 H 0.86191 0.55281 0.77129 0.0
H723 H 0.90711 0.48524 0.62095 0.0
H724 H 0.91728 0.56779 0.61067 0.0
H725 H 0.84259 0.52891 0.61332 0.0
Co726 Co 0.35327 0.88373 0.70337 0.0
C727 C 0.3048 0.85107 0.72034 0.0
C728 C 0.32131 0.8818 0.74363 0.0
C729 C 0.30028 0.86682 0.75468 0.0
N730 N 0.32398 0.8723 0.72161 0.0
N731 N 0.2899 0.84741 0.74009 0.0
H732 H 0.30248 0.83791 0.70652 0.0
H733 H 0.33452 0.89774 0.75237 0.0
C734 C 0.3508 0.92752 0.71182 0.0
O735 O 0.32936 0.91737 0.70306 0.0
N736 N 0.38284 0.89519 0.6865 0.0
C737 C 0.38757 0.88785 0.66408 0.0
C738 C 0.41076 0.90212 0.65838 0.0
C739 C 0.40306 0.91322 0.69449 0.0
N740 N 0.42035 0.91794 0.67761 0.0
C741 C 0.32415 0.86461 0.65824 0.0
C742 C 0.34528 0.9049 0.62914 0.0
C743 C 0.3295 0.8841 0.6167 0.0
C744 C 0.31824 0.86396 0.63202 0.0
C745 C 0.35024 0.9049 0.65559 0.0
N746 N 0.33999 0.88485 0.66984 0.0
H747 H 0.31726 0.84842 0.66846 0.0
H748 H 0.36397 0.92074 0.6639 0.0
H749 H 0.37492 0.87365 0.65235 0.0
H750 H 0.40485 0.92331 0.71176 0.0
O751 O 0.34913 0.8527 0.70165 0.0
O752 O 0.36575 0.8777 0.73414 0.0
O753 O 0.3621 0.91662 0.7122 0.0
C754 C 0.35976 0.85757 0.72403 0.0
H755 H 0.29401 0.86936 0.77313 0.0
H756 H 0.41976 0.90124 0.64124 0.0
H757 H 0.35502 0.92086 0.61829 0.0
H758 H 0.30573 0.84745 0.62365 0.0
Co759 Co 0.46935 0.35632 0.68622 0.0
C760 C 0.4601 0.3098 0.70388 0.0
C761 C 0.45097 0.3276 0.73227 0.0
C762 C 0.44916 0.3081 0.74365 0.0
N763 N 0.45764 0.32864 0.70729 0.0
N764 N 0.45496 0.29702 0.72583 0.0
H765 H 0.46724 0.30643 0.68664 0.0
H766 H 0.44897 0.34093 0.74203 0.0
C767 C 0.42042 0.34449 0.70111 0.0
O768 O 0.41279 0.32213 0.69889 0.0
N769 N 0.48141 0.38422 0.66592 0.0
C770 C 0.49475 0.38964 0.64445 0.0
C771 C 0.50028 0.41161 0.63658 0.0
C772 C 0.47908 0.40282 0.67096 0.0
N773 N 0.49035 0.41979 0.65326 0.0
C774 C 0.46766 0.32992 0.64121 0.0
C775 C 0.43217 0.33244 0.61624 0.0
C776 C 0.44546 0.32529 0.60179 0.0
C777 C 0.46292 0.3233 0.61502 0.0
C778 C 0.43794 0.33956 0.64206 0.0
N779 N 0.45573 0.33861 0.6543 0.0
H780 H 0.48233 0.32989 0.6502 0.0
H781 H 0.42905 0.3475 0.65116 0.0
H782 H 0.50028 0.37852 0.63534 0.0
H783 H 0.46993 0.40417 0.68768 0.0
O784 O 0.49991 0.35885 0.68539 0.0
O785 O 0.48754 0.37409 0.71549 0.0
O786 O 0.4413 0.35928 0.69492 0.0
C787 C 0.50405 0.37094 0.70668 0.0
H788 H 0.44495 0.30299 0.76381 0.0
H789 H 0.51072 0.42081 0.61986 0.0
H790 H 0.41812 0.3338 0.60737 0.0
H791 H 0.474 0.31824 0.60491 0.0
H792 H 0.52743 0.06318 0.14196 0.0
H793 H 0.45884 0.02623 0.17567 0.0
H794 H 0.52806 0.02679 0.13849 0.0
H795 H 0.45961 0.98995 0.17263 0.0
H796 H 0.46161 0.92633 0.14096 0.0
H797 H 0.4604 0.96258 0.13905 0.0
H798 H 0.52961 -0.00037 0.1713 0.0
H799 H 0.53092 0.96364 0.17281 0.0
C800 C 0.51244 0.04726 0.14842 0.0
C801 C 0.49317 0.04754 0.15924 0.0
C802 C 0.51286 0.0265 0.14661 0.0
C803 C 0.4939 0.0056 0.15535 0.0
C804 C 0.47438 0.00578 0.16556 0.0
C805 C 0.47406 0.02657 0.16758 0.0
C806 C 0.4766 0.94229 0.14735 0.0
C807 C 0.49627 0.94219 0.1572 0.0
C808 C 0.47586 0.96295 0.14644 0.0
C809 C 0.49491 0.98386 0.15504 0.0
C810 C 0.51476 0.9838 0.16433 0.0
C811 C 0.5154 0.96317 0.16548 0.0
H812 H 0.55347 0.5098 0.11458 0.0
H813 H 0.54985 0.50362 0.19828 0.0
H814 H 0.51453 0.5052 0.11377 0.0
H815 H 0.51111 0.49927 0.19752 0.0
H816 H 0.4328 0.46509 0.18099 0.0
H817 H 0.47135 0.4694 0.18093 0.0
H818 H 0.49554 0.52829 0.12948 0.0
H819 H 0.4571 0.52451 0.12999 0.0
C820 C 0.5443 0.50736 0.13275 0.0
C821 C 0.55465 0.50709 0.15648 0.0
C822 C 0.52215 0.50494 0.13231 0.0
C823 C 0.50988 0.50189 0.15558 0.0
C824 C 0.52016 0.50144 0.17929 0.0
C825 C 0.54237 0.50413 0.17974 0.0
C826 C 0.4463 0.47917 0.16991 0.0
C827 C 0.44175 0.49456 0.15564 0.0
C828 C 0.46839 0.48155 0.16981 0.0
C829 C 0.48638 0.49919 0.15524 0.0
C830 C 0.48187 0.51438 0.14068 0.0
C831 C 0.45982 0.51216 0.14096 0.0
H832 H 0.05917 0.53517 0.13408 0.0
H833 H 0.02294 0.56613 0.17152 0.0
H834 H 0.02377 0.49719 0.13569 0.0
H835 H 0.98783 0.52828 0.17365 0.0
H836 H 0.92348 0.46085 0.15105 0.0
H837 H 0.95843 0.49831 0.14443 0.0
H838 H 0.00047 0.46958 0.17145 0.0
H839 H 0.96551 0.43191 0.17744 0.0
C840 C 0.04358 0.53387 0.14237 0.0
C841 C 0.04377 0.5535 0.1528 0.0
C842 C 0.02344 0.51217 0.14353 0.0
C843 C 0.00314 0.50984 0.15489 0.0
C844 C 0.00319 0.52961 0.16462 0.0
C845 C 0.02331 0.55121 0.16363 0.0
C846 C 0.94019 0.46248 0.15531 0.0
C847 C 0.94178 0.4435 0.16484 0.0
C848 C 0.96016 0.48394 0.1517 0.0
C849 C 0.98211 0.4868 0.15743 0.0
C850 C 0.98375 0.46777 0.16664 0.0
C851 C 0.96375 0.44632 0.17039 0.0
H852 H 0.06353 0.53113 0.3351 0.0
H853 H 0.02724 0.45672 0.34442 0.0
H854 H 0.0265 0.5308 0.33629 0.0
H855 H 0.99007 0.45639 0.34607 0.0
H856 H 0.93862 0.48032 0.38386 0.0
H857 H 0.97313 0.4764 0.37987 0.0
H858 H 0.98864 0.51127 0.30572 0.0
H859 H 0.95396 0.5144 0.30876 0.0
C860 C 0.04757 0.51474 0.33737 0.0
C861 C 0.04809 0.49396 0.3396 0.0
C862 C 0.02648 0.51453 0.33796 0.0
C863 C 0.00559 0.49357 0.34131 0.0
C864 C 0.00604 0.47274 0.34356 0.0
C865 C 0.02716 0.47291 0.34241 0.0
C866 C 0.94905 0.48682 0.36647 0.0
C867 C 0.94343 0.49805 0.34689 0.0
C868 C 0.96883 0.48456 0.36425 0.0
C869 C 0.9835 0.49374 0.34261 0.0
C870 C 0.97767 0.50432 0.32275 0.0
C871 C 0.95778 0.50625 0.3247 0.0
H872 H 0.44678 0.95831 0.38264 0.0
H873 H 0.44068 0.94767 0.29956 0.0
H874 H 0.48272 0.99515 0.37656 0.0
H875 H 0.47707 0.9846 0.29341 0.0
H876 H 0.55971 0.03426 0.31035 0.0
H877 H 0.52156 -0.00064 0.30961 0.0
H878 H 0.49303 0.03503 0.35279 0.0
H879 H 0.53074 0.07026 0.35272 0.0
C880 C 0.45325 0.96387 0.3631 0.0
C881 C 0.44113 0.95022 0.34156 0.0
C882 C 0.47363 0.98497 0.3596 0.0
C883 C 0.48249 0.99262 0.33453 0.0
C884 C 0.47049 0.97897 0.31291 0.0
C885 C 0.44975 0.95801 0.3164 0.0
C886 C 0.54528 0.03497 0.31914 0.0
C887 C 0.54855 0.05509 0.33206 0.0
C888 C 0.52344 0.01492 0.31871 0.0
C889 C 0.50457 0.01457 0.3314 0.0
C890 C 0.50747 0.03488 0.34316 0.0
C891 C 0.52916 0.05498 0.34327 0.0
H892 H 0.4839 0.43822 0.3966 0.0
H893 H 0.5005 0.44906 0.31494 0.0
H894 H 0.48585 0.47583 0.39925 0.0
H895 H 0.50393 0.48727 0.31755 0.0
H896 H 0.48688 0.54458 0.32262 0.0
H897 H 0.48262 0.50599 0.32116 0.0
H898 H 0.51031 0.51576 0.39932 0.0
H899 H 0.51307 0.5538 0.40098 0.0
C900 C 0.48833 0.44893 0.37933 0.0
C901 C 0.492 0.44089 0.35557 0.0
C902 C 0.48957 0.47051 0.3808 0.0
C903 C 0.49499 0.4847 0.3586 0.0
C904 C 0.49911 0.47667 0.33492 0.0
C905 C 0.49735 0.45489 0.33339 0.0
C906 C 0.49188 0.53827 0.33945 0.0
C907 C 0.50029 0.55197 0.36188 0.0
C908 C 0.48966 0.51627 0.33861 0.0
C909 C 0.49635 0.50772 0.36002 0.0
C910 C 0.50461 0.52151 0.3826 0.0
C911 C 0.50631 0.54333 0.38359 0.0
H912 H 0.48705 0.04378 0.89378 0.0
H913 H 0.50272 0.04893 0.81195 0.0
H914 H 0.4841 0.00578 0.89537 0.0
H915 H 0.50145 0.01152 0.81348 0.0
H916 H 0.48155 0.936 0.81899 0.0
H917 H 0.47935 0.97159 0.81705 0.0
H918 H 0.5065 0.98838 0.89551 0.0
H919 H 0.50717 0.95213 0.89763 0.0
C920 C 0.49013 0.03674 0.8762 0.0
C921 C 0.49529 0.04917 0.85281 0.0
C922 C 0.48861 0.01504 0.87706 0.0
C923 C 0.49284 0.00552 0.85464 0.0
C924 C 0.49773 0.018 0.83109 0.0
C925 C 0.49865 0.03949 0.83015 0.0
C926 C 0.48679 0.94733 0.83581 0.0
C927 C 0.4944 0.9414 0.8585 0.0
C928 C 0.48574 0.96781 0.83469 0.0
C929 C 0.49281 0.98308 0.85609 0.0
C930 C 0.50037 0.97694 0.87882 0.0
C931 C 0.50088 0.95621 0.88009 0.0
H932 H 0.43826 0.47556 0.90212 0.0
H933 H 0.44913 0.50119 0.8234 0.0
H934 H 0.47699 0.47983 0.90256 0.0
H935 H 0.48824 0.50671 0.82398 0.0
H936 H 0.54726 0.49162 0.82211 0.0
H937 H 0.50819 0.48622 0.82262 0.0
H938 H 0.51685 0.50629 0.90376 0.0
H939 H 0.55551 0.51045 0.90326 0.0
C940 C 0.44917 0.48243 0.88507 0.0
C941 C 0.44082 0.48791 0.86268 0.0
C942 C 0.47137 0.48499 0.88529 0.0
C943 C 0.4858 0.49352 0.86324 0.0
C944 C 0.47748 0.49952 0.84107 0.0
C945 C 0.45515 0.49651 0.84073 0.0
C946 C 0.54069 0.49483 0.83998 0.0
C947 C 0.55425 0.50145 0.86262 0.0
C948 C 0.51838 0.4919 0.84031 0.0
C949 C 0.50933 0.496 0.86319 0.0
C950 C 0.52302 0.5026 0.88589 0.0
C951 C 0.54519 0.50509 0.88565 0.0
H952 H 0.94763 0.4533 0.80944 0.0
H953 H 0.95006 0.44223 0.89161 0.0
H954 H 0.98492 0.48928 0.81224 0.0
H955 H 0.98807 0.47709 0.89455 0.0
H956 H 0.04124 0.55408 0.89755 0.0
H957 H 0.00557 0.51676 0.89494 0.0
H958 H 0.02455 0.50684 0.81732 0.0
H959 H 0.05936 0.54505 0.8197 0.0
C960 C 0.95648 0.45855 0.828 0.0
C961 C 0.94611 0.44545 0.85036 0.0
C962 C 0.97791 0.47899 0.82968 0.0
C963 C 0.98964 0.48632 0.8537 0.0
C964 C 0.9794 0.4725 0.87587 0.0
C965 C 0.95772 0.45246 0.87425 0.0
C966 C 0.03776 0.54367 0.88014 0.0
C967 C 0.05282 0.55222 0.85883 0.0
C968 C 0.01739 0.52222 0.87858 0.0
C969 C 0.01197 0.50862 0.85584 0.0
C970 C 0.02773 0.51696 0.8349 0.0
C971 C 0.04778 0.53869 0.83627 0.0
H972 H 0.93944 0.48455 0.69798 0.0
H973 H 0.95219 0.50762 0.61827 0.0
H974 H 0.97512 0.48257 0.69847 0.0
H975 H 0.98866 0.50704 0.61886 0.0
H976 H 0.04306 0.48444 0.62128 0.0
H977 H 0.00618 0.48412 0.61952 0.0
H978 H 0.01515 0.50641 0.69992 0.0
H979 H 0.05129 0.50538 0.70173 0.0
C980 C 0.95007 0.4893 0.68061 0.0
C981 C 0.94323 0.49621 0.6581 0.0
C982 C 0.9706 0.48839 0.68088 0.0
C983 C 0.98502 0.49491 0.65879 0.0
C984 C 0.97789 0.50155 0.63612 0.0
C985 C 0.95707 0.50197 0.63572 0.0
C986 C 0.03707 0.48936 0.63844 0.0
C987 C 0.04983 0.49489 0.66165 0.0
C988 C 0.016 0.48926 0.63748 0.0
C989 C 0.00752 0.49513 0.65961 0.0
C990 C 0.02074 0.5012 0.68266 0.0
C991 C 0.04153 0.50082 0.68372 0.0
H992 H 0.52609 0.0585 0.66365 0.0
H993 H 0.56198 0.02892 0.7052 0.0
H994 H 0.49146 0.02045 0.66184 0.0
H995 H 0.52683 0.99113 0.70417 0.0
H996 H 0.4469 0.93661 0.72022 0.0
H997 H 0.4839 0.97319 0.72247 0.0
H998 H 0.48199 0.98102 0.63927 0.0
H999 H 0.44513 0.94441 0.63706 0.0
C1000 C 0.52676 0.04404 0.67236 0.0
C1001 C 0.54714 0.047 0.6843 0.0
C1002 C 0.50684 0.02223 0.67133 0.0
C1003 C 0.50667 0.00293 0.68261 0.0
C1004 C 0.52662 0.00583 0.69534 0.0
C1005 C 0.54672 0.0276 0.69602 0.0
C1006 C 0.4546 0.94607 0.70244 0.0
C1007 C 0.44325 0.93781 0.67848 0.0
C1008 C 0.47572 0.96686 0.7037 0.0
C1009 C 0.48557 0.97989 0.68106 0.0
C1010 C 0.47458 0.9713 0.65701 0.0
C1011 C 0.45367 0.95032 0.6557 0.0
H1012 H 0.52601 0.45992 0.63496 0.0
H1013 H 0.4583 0.43036 0.67067 0.0
H1014 H 0.52911 0.49811 0.63529 0.0
H1015 H 0.46161 0.46863 0.67153 0.0
H1016 H 0.46682 0.5369 0.64393 0.0
H1017 H 0.46317 0.4985 0.64069 0.0
H1018 H 0.53327 0.52666 0.66933 0.0
H1019 H 0.53708 0.56504 0.67201 0.0
C1020 C 0.51174 0.46156 0.64271 0.0
C1021 C 0.49195 0.44218 0.65285 0.0
C1022 C 0.5136 0.48344 0.64312 0.0
C1023 C 0.49562 0.48632 0.65351 0.0
C1024 C 0.47566 0.46688 0.66324 0.0
C1025 C 0.47387 0.44504 0.663 0.0
C1026 C 0.48149 0.53489 0.64929 0.0
C1027 C 0.5022 0.55394 0.65828 0.0
C1028 C 0.47933 0.51291 0.64766 0.0
C1029 C 0.49794 0.50963 0.65477 0.0
C1030 C 0.51872 0.52873 0.66351 0.0
C1031 C 0.52081 0.55064 0.66531 0.0
H1032 H 0.44678 0.27928 0.2297 0.0
H1033 H 0.44259 0.26266 0.31148 0.0
H1034 H 0.44725 0.24385 0.21901 0.0
H1035 H 0.44388 0.2275 0.3008 0.0
H1036 H 0.421 0.15471 0.27044 0.0
H1037 H 0.41926 0.18972 0.28002 0.0
H1038 H 0.47298 0.22746 0.22313 0.0
H1039 H 0.47475 0.19239 0.2136 0.0
C1040 C 0.44585 0.26803 0.24542 0.0
C1041 C 0.44449 0.27373 0.27147 0.0
C1042 C 0.44641 0.24785 0.23928 0.0
C1043 C 0.44558 0.23287 0.25904 0.0
C1044 C 0.44428 0.23857 0.28511 0.0
C1045 C 0.44378 0.25882 0.29126 0.0
C1046 C 0.43249 0.17049 0.26004 0.0
C1047 C 0.44811 0.17079 0.24137 0.0
C1048 C 0.43152 0.19055 0.26556 0.0
C1049 C 0.44612 0.21139 0.2525 0.0
C1050 C 0.46135 0.2116 0.23336 0.0
C1051 C 0.46233 0.19149 0.22784 0.0
H1052 H 0.25649 0.40924 0.2535 0.0
H1053 H 0.27543 0.47093 0.20839 0.0
H1054 H 0.22085 0.40801 0.26697 0.0
H1055 H 0.23912 0.4693 0.22115 0.0
H1056 H 0.19163 0.47616 0.28389 0.0
H1057 H 0.22397 0.47624 0.26132 0.0
H1058 H 0.18357 0.40166 0.25337 0.0
H1059 H 0.15143 0.40163 0.27629 0.0
C1060 C 0.25284 0.42238 0.24619 0.0
C1061 C 0.26887 0.44032 0.23015 0.0
C1062 C 0.23226 0.42153 0.25366 0.0
C1063 C 0.22713 0.4386 0.24521 0.0
C1064 C 0.2427 0.45603 0.22822 0.0
C1065 C 0.26336 0.45684 0.22068 0.0
C1066 C 0.18954 0.45985 0.27692 0.0
C1067 C 0.16912 0.43885 0.28218 0.0
C1068 C 0.20804 0.45989 0.26389 0.0
C1069 C 0.20645 0.43892 0.25574 0.0
C1070 C 0.18555 0.41806 0.25986 0.0
C1071 C 0.16714 0.41802 0.27302 0.0
H1072 H 0.80412 0.27589 0.21181 0.0
H1073 H 0.84312 0.2568 0.26353 0.0
H1074 H 0.76954 0.23818 0.21905 0.0
H1075 H 0.80853 0.21962 0.27157 0.0
H1076 H 0.74713 0.14932 0.27359 0.0
H1077 H 0.78042 0.18258 0.25369 0.0
H1078 H 0.74344 0.22079 0.2558 0.0
H1079 H 0.71013 0.18741 0.27528 0.0
C1080 C 0.80542 0.26352 0.22439 0.0
C1081 C 0.8263 0.26939 0.23732 0.0
C1082 C 0.78556 0.24201 0.22873 0.0
C1083 C 0.78624 0.22595 0.24599 0.0
C1084 C 0.80742 0.23146 0.25793 0.0
C1085 C 0.8272 0.25291 0.25362 0.0
C1086 C 0.74607 0.16475 0.26944 0.0
C1087 C 0.7262 0.16591 0.27628 0.0
C1088 C 0.7651 0.18378 0.25809 0.0
C1089 C 0.76471 0.20444 0.25351 0.0
C1090 C 0.74425 0.20507 0.25883 0.0
C1091 C 0.72515 0.18595 0.27005 0.0
H1092 H 0.53644 0.82327 0.28352 0.0
H1093 H 0.54299 0.81039 0.20246 0.0
H1094 H 0.5369 0.78811 0.29551 0.0
H1095 H 0.54274 0.7746 0.21444 0.0
H1096 H 0.57077 0.72963 0.24974 0.0
H1097 H 0.56892 0.76401 0.23716 0.0
H1098 H 0.51321 0.7458 0.29206 0.0
H1099 H 0.51496 0.71129 0.30455 0.0
C1100 C 0.538 0.81293 0.26823 0.0
C1101 C 0.53995 0.81975 0.24203 0.0
C1102 C 0.53797 0.79261 0.27511 0.0
C1103 C 0.53991 0.77862 0.25595 0.0
C1104 C 0.54148 0.78519 0.22967 0.0
C1105 C 0.54141 0.80553 0.22278 0.0
C1106 C 0.55802 0.73286 0.25901 0.0
C1107 C 0.54299 0.71767 0.27812 0.0
C1108 C 0.55692 0.75253 0.25174 0.0
C1109 C 0.54082 0.75753 0.26349 0.0
C1110 C 0.52596 0.74252 0.28282 0.0
C1111 C 0.52702 0.72279 0.29006 0.0
H1112 H 0.70656 0.53189 0.28016 0.0
H1113 H 0.7364 0.56135 0.20564 0.0
H1114 H 0.74179 0.53153 0.29237 0.0
H1115 H 0.7723 0.56208 0.21806 0.0
H1116 H 0.82657 0.54267 0.23888 0.0
H1117 H 0.78986 0.53964 0.22616 0.0
H1118 H 0.78032 0.55637 0.30491 0.0
H1119 H 0.81673 0.55834 0.31766 0.0
C1120 C 0.72084 0.53846 0.26648 0.0
C1121 C 0.71892 0.5468 0.24204 0.0
C1122 C 0.7411 0.5384 0.2735 0.0
C1123 C 0.7601 0.54701 0.25637 0.0
C1124 C 0.75796 0.55501 0.23166 0.0
C1125 C 0.73748 0.55469 0.2245 0.0
C1126 C 0.81657 0.54572 0.25341 0.0
C1127 C 0.82448 0.55092 0.27921 0.0
C1128 C 0.79557 0.54408 0.24612 0.0
C1129 C 0.7821 0.54794 0.2644 0.0
C1130 C 0.78999 0.55292 0.29034 0.0
C1131 C 0.81087 0.55418 0.29771 0.0
H1132 H 0.28599 0.79672 0.29689 0.0
H1133 H 0.24899 0.83229 0.27516 0.0
H1134 H 0.25592 0.7613 0.27634 0.0
H1135 H 0.2187 0.79673 0.25492 0.0
H1136 H 0.1755 0.73123 0.20598 0.0
H1137 H 0.21074 0.76739 0.21832 0.0
H1138 H 0.21432 0.73527 0.28992 0.0
H1139 H 0.17943 0.69951 0.27757 0.0
C1140 C 0.27163 0.79707 0.28737 0.0
C1141 C 0.26971 0.81719 0.28784 0.0
C1142 C 0.25438 0.77678 0.27574 0.0
C1143 C 0.23498 0.77629 0.26414 0.0
C1144 C 0.23357 0.79669 0.26355 0.0
C1145 C 0.25072 0.81692 0.27541 0.0
C1146 C 0.18413 0.73195 0.22411 0.0
C1147 C 0.17475 0.7128 0.24098 0.0
C1148 C 0.20412 0.75256 0.23123 0.0
C1149 C 0.2152 0.75408 0.25508 0.0
C1150 C 0.20628 0.73454 0.27134 0.0
C1151 C 0.18621 0.71417 0.26442 0.0
H1152 H 0.53081 0.81787 0.73998 0.0
H1153 H 0.54887 0.81306 0.81951 0.0
H1154 H 0.53318 0.7836 0.72876 0.0
H1155 H 0.55071 0.77806 0.80838 0.0
H1156 H 0.58102 0.73621 0.76717 0.0
H1157 H 0.5763 0.76863 0.78151 0.0
H1158 H 0.51305 0.74171 0.73674 0.0
H1159 H 0.5176 0.70925 0.7226 0.0
C1160 C 0.53528 0.80944 0.7551 0.0
C1161 C 0.53994 0.8183 0.78058 0.0
C1162 C 0.53636 0.78962 0.74873 0.0
C1163 C 0.54215 0.77814 0.76767 0.0
C1164 C 0.54641 0.7867 0.79332 0.0
C1165 C 0.54517 0.80655 0.79976 0.0
C1166 C 0.566 0.73709 0.76057 0.0
C1167 C 0.54981 0.72019 0.74354 0.0
C1168 C 0.56326 0.75562 0.76887 0.0
C1169 C 0.54432 0.75772 0.76024 0.0
C1170 C 0.52801 0.74073 0.74344 0.0
C1171 C 0.53071 0.72217 0.7352 0.0
H1172 H 0.81699 0.55232 0.70365 0.0
H1173 H 0.82063 0.52928 0.78103 0.0
H1174 H 0.78169 0.55301 0.71551 0.0
H1175 H 0.78501 0.52902 0.79278 0.0
H1176 H 0.73521 0.5549 0.81415 0.0
H1177 H 0.77033 0.55393 0.80217 0.0
H1178 H 0.74202 0.52958 0.72533 0.0
H1179 H 0.70753 0.53148 0.7372 0.0
C1180 C 0.81001 0.54713 0.72308 0.0
C1181 C 0.82158 0.54097 0.74148 0.0
C1182 C 0.78976 0.54742 0.72992 0.0
C1183 C 0.78049 0.54118 0.75521 0.0
C1184 C 0.79189 0.53449 0.77336 0.0
C1185 C 0.81226 0.53453 0.76662 0.0
C1186 C 0.73659 0.54928 0.79478 0.0
C1187 C 0.71883 0.54347 0.77655 0.0
C1188 C 0.75662 0.54862 0.78788 0.0
C1189 C 0.75911 0.54175 0.76269 0.0
C1190 C 0.74102 0.53548 0.74468 0.0
C1191 C 0.72119 0.53648 0.75148 0.0
H1192 H 0.25447 0.84318 0.77019 0.0
H1193 H 0.27713 0.80343 0.72447 0.0
H1194 H 0.21942 0.80747 0.78225 0.0
H1195 H 0.24182 0.76793 0.73607 0.0
H1196 H 0.16361 0.71431 0.73929 0.0
H1197 H 0.19893 0.75004 0.72782 0.0
H1198 H 0.20877 0.77113 0.80845 0.0
H1199 H 0.17309 0.73535 0.8199 0.0
C1200 C 0.2521 0.82689 0.76279 0.0
C1201 C 0.26875 0.82631 0.74636 0.0
C1202 C 0.23199 0.80645 0.76971 0.0
C1203 C 0.22797 0.78497 0.76014 0.0
C1204 C 0.2444 0.78431 0.74351 0.0
C1205 C 0.26462 0.80473 0.73676 0.0
C1206 C 0.17319 0.72665 0.75453 0.0
C1207 C 0.16555 0.72215 0.78048 0.0
C1208 C 0.19353 0.74697 0.748 0.0
C1209 C 0.20655 0.76332 0.76724 0.0
C1210 C 0.19893 0.75887 0.79321 0.0
C1211 C 0.17868 0.73838 0.79979 0.0
H1212 H 0.41878 0.16042 0.76758 0.0
H1213 H 0.49219 0.1973 0.78431 0.0
H1214 H 0.42249 0.19475 0.74555 0.0
H1215 H 0.49594 0.23173 0.76236 0.0
H1216 H 0.47624 0.29128 0.7672 0.0
H1217 H 0.47844 0.25671 0.77836 0.0
H1218 H 0.44269 0.22389 0.70708 0.0
H1219 H 0.44086 0.25899 0.69577 0.0
C1220 C 0.43576 0.17577 0.76611 0.0
C1221 C 0.45515 0.17634 0.77782 0.0
C1222 C 0.43793 0.1953 0.75333 0.0
C1223 C 0.45949 0.21587 0.75237 0.0
C1224 C 0.47912 0.21607 0.76291 0.0
C1225 C 0.47701 0.19639 0.77534 0.0
C1226 C 0.46914 0.27677 0.75381 0.0
C1227 C 0.45819 0.27756 0.73079 0.0
C1228 C 0.47058 0.25711 0.76003 0.0
C1229 C 0.46077 0.23768 0.74354 0.0
C1230 C 0.45039 0.23869 0.72008 0.0
C1231 C 0.44938 0.25865 0.71359 0.0
H1232 H 0.15771 0.42213 0.77018 0.0
H1233 H 0.19479 0.47899 0.71671 0.0
H1234 H 0.19357 0.42203 0.78002 0.0
H1235 H 0.23075 0.47915 0.72671 0.0
H1236 H 0.28579 0.45756 0.73135 0.0
H1237 H 0.24971 0.45667 0.72099 0.0
H1238 H 0.23016 0.44536 0.80212 0.0
H1239 H 0.26589 0.4451 0.81234 0.0
C1240 C 0.17357 0.43466 0.7606 0.0
C1241 C 0.17343 0.45057 0.74268 0.0
C1242 C 0.19413 0.43468 0.76631 0.0
C1243 C 0.21507 0.45067 0.75428 0.0
C1244 C 0.21487 0.46639 0.73607 0.0
C1245 C 0.19426 0.46629 0.73028 0.0
C1246 C 0.27373 0.45458 0.74699 0.0
C1247 C 0.27874 0.45122 0.7727 0.0
C1248 C 0.25313 0.45439 0.74106 0.0
C1249 C 0.23703 0.45095 0.7607 0.0
C1250 C 0.24206 0.44776 0.78646 0.0
C1251 C 0.26268 0.44789 0.79239 0.0
H1252 H 0.71327 0.19613 0.72109 0.0
H1253 H 0.74087 0.15401 0.75068 0.0
H1254 H 0.74676 0.23086 0.73873 0.0
H1255 H 0.77389 0.18834 0.76898 0.0
H1256 H 0.84171 0.25449 0.77518 0.0
H1257 H 0.80819 0.22177 0.75509 0.0
H1258 H 0.76525 0.25076 0.77816 0.0
H1259 H 0.79919 0.28391 0.79752 0.0
C1260 C 0.72637 0.19431 0.73169 0.0
C1261 C 0.72463 0.17247 0.73439 0.0
C1262 C 0.74553 0.21416 0.7418 0.0
C1263 C 0.76318 0.21245 0.75502 0.0
C1264 C 0.76099 0.19042 0.75829 0.0
C1265 C 0.74203 0.17071 0.74794 0.0
C1266 C 0.8251 0.25385 0.77582 0.0
C1267 C 0.82295 0.27157 0.78802 0.0
C1268 C 0.80586 0.23508 0.76445 0.0
C1269 C 0.78391 0.23342 0.76537 0.0
C1270 C 0.78191 0.25156 0.77692 0.0
C1271 C 0.8013 0.27053 0.78802 0.0
H1272 H 0.37765 0.04577 0.22108 0.0
H1273 H 0.44178 0.04666 0.23857 0.0
H1274 H 0.35598 0.00879 0.24441 0.0
H1275 H 0.42025 0.01016 0.26185 0.0
H1276 H 0.37849 0.95606 0.32175 0.0
H1277 H 0.39562 0.99491 0.30286 0.0
H1278 H 0.34875 0.96725 0.23755 0.0
H1279 H 0.33169 0.92839 0.25628 0.0
C1280 C 0.38711 0.03813 0.22989 0.0
C1281 C 0.41142 0.04911 0.22785 0.0
C1282 C 0.37472 0.01701 0.24324 0.0
C1283 C 0.38647 0.00676 0.25518 0.0
C1284 C 0.41075 0.01784 0.25323 0.0
C1285 C 0.42306 0.03866 0.23962 0.0
C1286 C 0.37147 0.95834 0.30368 0.0
C1287 C 0.35388 0.93913 0.29038 0.0
C1288 C 0.38139 0.98054 0.29278 0.0
C1289 C 0.37367 0.98403 0.26861 0.0
C1290 C 0.35499 0.9651 0.25623 0.0
C1291 C 0.34529 0.94284 0.26693 0.0
H1292 H 0.38979 0.42847 0.20359 0.0
H1293 H 0.31958 0.37724 0.22439 0.0
H1294 H 0.40467 0.40923 0.23132 0.0
H1295 H 0.33462 0.35804 0.25267 0.0
H1296 H 0.37524 0.32085 0.28252 0.0
H1297 H 0.35635 0.33641 0.25453 0.0
H1298 H 0.40689 0.40597 0.27826 0.0
H1299 H 0.42585 0.39058 0.3057 0.0
C1300 C 0.37749 0.41295 0.21392 0.0
C1301 C 0.3535 0.40452 0.21196 0.0
C1302 C 0.38604 0.40202 0.23002 0.0
C1303 C 0.37085 0.38242 0.24471 0.0
C1304 C 0.34677 0.37314 0.24166 0.0
C1305 C 0.33816 0.38411 0.22541 0.0
C1306 C 0.38201 0.33942 0.28211 0.0
C1307 C 0.40219 0.35449 0.29611 0.0
C1308 C 0.37123 0.34834 0.26602 0.0
C1309 C 0.38045 0.37246 0.26369 0.0
C1310 C 0.39974 0.38734 0.279 0.0
C1311 C 0.4105 0.37849 0.29494 0.0
H1312 H 0.0224 0.39132 0.34323 0.0
H1313 H 0.06429 0.4147 0.27367 0.0
H1314 H 0.98716 0.37217 0.31625 0.0
H1315 H 0.0292 0.39493 0.24688 0.0
H1316 H 0.95457 0.33375 0.21573 0.0
H1317 H 0.98937 0.34737 0.24318 0.0
H1318 H 0.97496 0.39753 0.27909 0.0
H1319 H 0.94089 0.38468 0.25135 0.0
C1320 C 0.02408 0.39182 0.32225 0.0
C1321 C 0.04599 0.40449 0.31049 0.0
C1322 C 0.004 0.38097 0.30687 0.0
C1323 C 0.00563 0.38208 0.27958 0.0
C1324 C 0.02759 0.3937 0.26788 0.0
C1325 C 0.04757 0.40505 0.28319 0.0
C1326 C 0.95894 0.34775 0.2294 0.0
C1327 C 0.94513 0.35828 0.23122 0.0
C1328 C 0.97873 0.35544 0.2451 0.0
C1329 C 0.98453 0.37326 0.26335 0.0
C1330 C 0.97063 0.38359 0.26533 0.0
C1331 C 0.95129 0.37636 0.24926 0.0
H1332 H 0.55415 0.95216 0.21662 0.0
H1333 H 0.61332 0.94197 0.22393 0.0
H1334 H 0.57394 0.9873 0.24209 0.0
H1335 H 0.6337 0.97804 0.24908 0.0
H1336 H 0.6203 0.05965 0.2681 0.0
H1337 H 0.60511 0.02602 0.23997 0.0
H1338 H 0.63205 0.99385 0.29182 0.0
H1339 H 0.64815 0.02827 0.31988 0.0
C1340 C 0.57157 0.95759 0.22333 0.0
C1341 C 0.5821 0.94416 0.2182 0.0
C1342 C 0.58303 0.97792 0.23788 0.0
C1343 C 0.60548 0.9856 0.24762 0.0
C1344 C 0.61632 0.97248 0.24208 0.0
C1345 C 0.60475 0.95196 0.22745 0.0
C1346 C 0.62309 0.04548 0.27361 0.0
C1347 C 0.63521 0.04655 0.29648 0.0
C1348 C 0.61428 0.0261 0.25743 0.0
C1349 C 0.61705 0.00705 0.26377 0.0
C1350 C 0.62974 0.0083 0.28627 0.0
C1351 C 0.63881 0.02793 0.30245 0.0
H1352 H 0.56551 0.60476 0.30968 0.0
H1353 H 0.61652 0.67545 0.29029 0.0
H1354 H 0.58581 0.59064 0.28257 0.0
H1355 H 0.63689 0.6611 0.26281 0.0
H1356 H 0.67538 0.62047 0.23544 0.0
H1357 H 0.65894 0.6389 0.26289 0.0
H1358 H 0.59033 0.58999 0.23489 0.0
H1359 H 0.60653 0.5716 0.20779 0.0
C1360 C 0.58121 0.61734 0.29984 0.0
C1361 C 0.58924 0.64125 0.30197 0.0
C1362 C 0.59276 0.60921 0.28413 0.0
C1363 C 0.61267 0.62474 0.27009 0.0
C1364 C 0.62154 0.64872 0.27333 0.0
C1365 C 0.6099 0.65692 0.2891 0.0
C1366 C 0.65685 0.61396 0.2348 0.0
C1367 C 0.64225 0.59439 0.21964 0.0
C1368 C 0.64744 0.62449 0.25056 0.0
C1369 C 0.62329 0.61556 0.25148 0.0
C1370 C 0.60894 0.59689 0.23514 0.0
C1371 C 0.61828 0.58645 0.21944 0.0
H1372 H 0.94584 0.62269 0.292 0.0
H1373 H 0.96079 0.56861 0.31351 0.0
H1374 H 0.98112 0.64095 0.26528 0.0
H1375 H 0.99579 0.58679 0.28722 0.0
H1376 H 0.03653 0.60446 0.21292 0.0
H1377 H 0.00224 0.59044 0.2401 0.0
H1378 H 0.02475 0.6605 0.26534 0.0
H1379 H 0.05928 0.67473 0.23775 0.0
C1380 C 0.95688 0.61498 0.2915 0.0
C1381 C 0.95035 0.59404 0.30464 0.0
C1382 C 0.97704 0.6254 0.27613 0.0
C1383 C 0.99097 0.61502 0.27365 0.0
C1384 C 0.98511 0.59489 0.28811 0.0
C1385 C 0.96509 0.58454 0.30335 0.0
C1386 C 0.03416 0.61698 0.22404 0.0
C1387 C 0.05083 0.64072 0.22331 0.0
C1388 C 0.01454 0.60889 0.23981 0.0
C1389 C 0.01099 0.62429 0.25532 0.0
C1390 C 0.02701 0.64819 0.25366 0.0
C1391 C 0.04678 0.65633 0.23783 0.0
H1392 H 0.6109 0.9393 0.789 0.0
H1393 H 0.554 0.95171 0.8045 0.0
H1394 H 0.63024 0.97528 0.76362 0.0
H1395 H 0.5729 0.98699 0.77895 0.0
H1396 H 0.63924 0.02481 0.69356 0.0
H1397 H 0.6246 0.99065 0.72173 0.0
H1398 H 0.60609 0.02561 0.77982 0.0
H1399 H 0.62011 0.05926 0.75177 0.0
C1400 C 0.60264 0.94978 0.78723 0.0
C1401 C 0.58091 0.94262 0.79881 0.0
C1402 C 0.6136 0.97025 0.7725 0.0
C1403 C 0.60312 0.98401 0.76925 0.0
C1404 C 0.58166 0.97703 0.78134 0.0
C1405 C 0.57073 0.95667 0.79593 0.0
C1406 C 0.63216 0.02522 0.71241 0.0
C1407 C 0.63063 0.0447 0.72023 0.0
C1408 C 0.62392 0.00571 0.72862 0.0
C1409 C 0.61399 0.00533 0.75293 0.0
C1410 C 0.61323 0.02514 0.76103 0.0
C1411 C 0.62137 0.04451 0.74491 0.0
H1412 H 0.67625 0.61706 0.78635 0.0
H1413 H 0.60572 0.56679 0.80724 0.0
H1414 H 0.66172 0.63614 0.75719 0.0
H1415 H 0.59136 0.58593 0.77861 0.0
H1416 H 0.57066 0.60434 0.70381 0.0
H1417 H 0.58926 0.58877 0.73159 0.0
H1418 H 0.64059 0.6583 0.75449 0.0
H1419 H 0.62202 0.67401 0.72618 0.0
C1420 C 0.6577 0.61036 0.78513 0.0
C1421 C 0.64214 0.59027 0.79895 0.0
C1422 C 0.64939 0.62126 0.76838 0.0
C1423 C 0.62537 0.61225 0.76513 0.0
C1424 C 0.60995 0.59294 0.78007 0.0
C1425 C 0.61821 0.58207 0.7967 0.0
C1426 C 0.58612 0.61637 0.71445 0.0
C1427 C 0.59473 0.6404 0.71297 0.0
C1428 C 0.59668 0.60743 0.73057 0.0
C1429 C 0.61607 0.62226 0.74579 0.0
C1430 C 0.62563 0.64641 0.74308 0.0
C1431 C 0.61505 0.65541 0.72679 0.0
H1432 H 0.04795 0.66949 0.79169 0.0
H1433 H 0.03314 0.60058 0.81317 0.0
H1434 H 0.0137 0.65271 0.76353 0.0
H1435 H -0.00124 0.58388 0.78575 0.0
H1436 H 0.9571 0.56 0.7123 0.0
H1437 H 0.99109 0.57949 0.74013 0.0
H1438 H 0.97166 0.63061 0.76077 0.0
H1439 H 0.93781 0.61134 0.73221 0.0
C1440 C 0.03711 0.65079 0.79087 0.0
C1441 C 0.04337 0.63637 0.80451 0.0
C1442 C 0.01749 0.64115 0.77468 0.0
C1443 C 0.00369 0.61692 0.77192 0.0
C1444 C 0.00933 0.6026 0.78675 0.0
C1445 C 0.02894 0.61219 0.80272 0.0
C1446 C 0.96019 0.57555 0.72252 0.0
C1447 C 0.94465 0.58403 0.72012 0.0
C1448 C 0.97958 0.58662 0.73873 0.0
C1449 C 0.9839 0.60638 0.75318 0.0
C1450 C 0.96891 0.61547 0.74992 0.0
C1451 C 0.94951 0.60443 0.73351 0.0
H1452 H 0.38177 0.03836 0.82233 0.0
H1453 H 0.44402 0.06388 0.77589 0.0
H1454 H 0.36252 0.00397 0.7944 0.0
H1455 H 0.42474 0.0302 0.74787 0.0
H1456 H 0.39572 0.95435 0.72699 0.0
H1457 H 0.41273 0.99001 0.75183 0.0
H1458 H 0.3473 0.98929 0.75043 0.0
H1459 H 0.32988 0.95281 0.72585 0.0
C1460 C 0.39126 0.03676 0.80609 0.0
C1461 C 0.41453 0.05374 0.8016 0.0
C1462 C 0.38019 0.01715 0.78997 0.0
C1463 C 0.39216 0.01421 0.76902 0.0
C1464 C 0.41514 0.03162 0.76413 0.0
C1465 C 0.42619 0.05103 0.78022 0.0
C1466 C 0.3849 0.96178 0.73174 0.0
C1467 C 0.36138 0.95064 0.72443 0.0
C1468 C 0.39474 0.98239 0.74592 0.0
C1469 C 0.38141 0.99259 0.75313 0.0
C1470 C 0.35798 0.98175 0.7454 0.0
C1471 C 0.34807 0.961 0.7311 0.0
H1472 H 0.39058 0.42711 0.80326 0.0
H1473 H 0.32106 0.37635 0.77934 0.0
H1474 H 0.40625 0.40782 0.77687 0.0
H1475 H 0.337 0.35698 0.75264 0.0
H1476 H 0.37947 0.31953 0.72814 0.0
H1477 H 0.35958 0.33515 0.75448 0.0
H1478 H 0.4092 0.40442 0.72914 0.0
H1479 H 0.42897 0.38904 0.70308 0.0
C1480 C 0.37857 0.41169 0.79256 0.0
C1481 C 0.35454 0.40344 0.79326 0.0
C1482 C 0.38761 0.40072 0.77727 0.0
C1483 C 0.3729 0.38114 0.76226 0.0
C1484 C 0.34876 0.37207 0.76395 0.0
C1485 C 0.33966 0.38316 0.77926 0.0
C1486 C 0.38587 0.33804 0.72786 0.0
C1487 C 0.406 0.35305 0.71375 0.0
C1488 C 0.37449 0.34697 0.74298 0.0
C1489 C 0.38312 0.37105 0.74431 0.0
C1490 C 0.40247 0.38584 0.72905 0.0
C1491 C 0.41373 0.37697 0.71398 0.0
H1492 H 0.05374 0.38215 0.73899 0.0
H1493 H 0.04016 0.43776 0.72051 0.0
H1494 H 0.01791 0.36316 0.76463 0.0
H1495 H 0.00509 0.41931 0.74643 0.0
H1496 H 0.96828 0.35436 0.83399 0.0
H1497 H 0.00228 0.36879 0.80557 0.0
H1498 H 0.96683 0.38669 0.74743 0.0
H1499 H 0.93343 0.37302 0.77583 0.0
C1500 C 0.04304 0.3902 0.74015 0.0
C1501 C 0.04985 0.41148 0.72766 0.0
C1502 C 0.02264 0.37945 0.75506 0.0
C1503 C 0.00861 0.3897 0.75765 0.0
C1504 C 0.01523 0.41069 0.74461 0.0
C1505 C 0.0355 0.42138 0.7298 0.0
C1506 C 0.96776 0.3613 0.81509 0.0
C1507 C 0.94822 0.36279 0.80737 0.0
C1508 C 0.98718 0.36943 0.79872 0.0
C1509 C 0.9874 0.37912 0.77428 0.0
C1510 C 0.96751 0.37982 0.76631 0.0
C1511 C 0.94827 0.37187 0.78264 0.0
H1512 H 0.52492 0.16137 0.25824 0.0
H1513 H 0.54393 0.13319 0.19348 0.0
H1514 H 0.56291 0.17452 0.27811 0.0
H1515 H 0.58087 0.1442 0.2138 0.0
H1516 H 0.64312 0.15649 0.25212 0.0
H1517 H 0.61704 0.16637 0.22926 0.0
H1518 H 0.57977 0.15808 0.30127 0.0
H1519 H 0.60731 0.15065 0.32403 0.0
C1520 C 0.53756 0.15849 0.24807 0.0
C1521 C 0.53182 0.14653 0.22436 0.0
C1522 C 0.55922 0.16567 0.25956 0.0
C1523 C 0.57515 0.16011 0.24804 0.0
C1524 C 0.56962 0.14932 0.22336 0.0
C1525 C 0.54828 0.1428 0.21161 0.0
C1526 C 0.62998 0.15797 0.26311 0.0
C1527 C 0.62711 0.15281 0.28973 0.0
C1528 C 0.61467 0.16316 0.24998 0.0
C1529 C 0.59547 0.16212 0.263 0.0
C1530 C 0.59417 0.1592 0.29026 0.0
C1531 C 0.61004 0.1549 0.30351 0.0
H1532 H 0.45455 0.58315 0.32529 0.0
H1533 H 0.4756 0.63376 0.26393 0.0
H1534 H 0.41973 0.55709 0.30115 0.0
H1535 H 0.43989 0.60841 0.24 0.0
H1536 H 0.39954 0.54175 0.18949 0.0
H1537 H 0.42639 0.57537 0.21502 0.0
H1538 H 0.38385 0.54465 0.28335 0.0
H1539 H 0.35819 0.51032 0.25783 0.0
C1540 C 0.45107 0.58902 0.30704 0.0
C1541 C 0.46743 0.6104 0.29648 0.0
C1542 C 0.43102 0.57414 0.29311 0.0
C1543 C 0.42679 0.58042 0.26832 0.0
C1544 C 0.44264 0.60268 0.25869 0.0
C1545 C 0.46295 0.61738 0.27249 0.0
C1546 C 0.39558 0.54269 0.20976 0.0
C1547 C 0.37686 0.52366 0.22177 0.0
C1548 C 0.41099 0.56198 0.22454 0.0
C1549 C 0.40772 0.56271 0.25159 0.0
C1550 C 0.38747 0.5445 0.26284 0.0
C1551 C 0.37248 0.52497 0.24819 0.0
H1552 H 0.83308 0.45658 0.32223 0.0
H1553 H 0.86891 0.4904 0.25145 0.0
H1554 H 0.82093 0.41869 0.30237 0.0
H1555 H 0.85683 0.45282 0.23167 0.0
H1556 H 0.83534 0.38482 0.19834 0.0
H1557 H 0.8262 0.41346 0.21659 0.0
H1558 H 0.84781 0.40348 0.29249 0.0
H1559 H 0.85697 0.3752 0.27425 0.0
C1560 C 0.83767 0.45589 0.30215 0.0
C1561 C 0.85218 0.47638 0.28846 0.0
C1562 C 0.83079 0.43422 0.29083 0.0
C1563 C 0.83806 0.43275 0.26552 0.0
C1564 C 0.85073 0.45328 0.25108 0.0
C1565 C 0.85783 0.47486 0.26249 0.0
C1566 C 0.83711 0.38804 0.21911 0.0
C1567 C 0.84701 0.37801 0.2349 0.0
C1568 C 0.83207 0.40454 0.22952 0.0
C1569 C 0.83655 0.41093 0.25591 0.0
C1570 C 0.84399 0.39888 0.27214 0.0
C1571 C 0.84934 0.38272 0.26169 0.0
H1572 H 0.39476 0.85015 0.32786 0.0
H1573 H 0.35526 0.8436 0.25874 0.0
H1574 H 0.42057 0.84157 0.30287 0.0
H1575 H 0.37956 0.83269 0.23376 0.0
H1576 H 0.47002 0.83198 0.25634 0.0
H1577 H 0.43391 0.82215 0.27899 0.0
H1578 H 0.41483 0.85214 0.21535 0.0
H1579 H 0.44973 0.85981 0.19236 0.0
C1580 C 0.39101 0.84575 0.30745 0.0
C1581 C 0.37326 0.84769 0.29509 0.0
C1582 C 0.40579 0.84071 0.29296 0.0
C1583 C 0.40271 0.83687 0.26587 0.0
C1584 C 0.38323 0.83642 0.25425 0.0
C1585 C 0.36901 0.84232 0.26859 0.0
C1586 C 0.45741 0.83537 0.2469 0.0
C1587 C 0.46229 0.84628 0.22258 0.0
C1588 C 0.43689 0.83018 0.26002 0.0
C1589 C 0.42137 0.83677 0.24951 0.0
C1590 C 0.42583 0.84634 0.22423 0.0
C1591 C 0.44596 0.85086 0.21089 0.0
H1592 H 0.61438 0.48896 0.26344 0.0
H1593 H 0.61018 0.45409 0.19111 0.0
H1594 H 0.58833 0.45192 0.28384 0.0
H1595 H 0.58372 0.41663 0.21159 0.0
H1596 H 0.50621 0.37635 0.24599 0.0
H1597 H 0.5427 0.40363 0.22529 0.0
H1598 H 0.57876 0.41196 0.29793 0.0
H1599 H 0.54192 0.38431 0.31869 0.0
C1600 C 0.60833 0.47323 0.25211 0.0
C1601 C 0.61403 0.47434 0.22565 0.0
C1602 C 0.59356 0.45195 0.26387 0.0
C1603 C 0.58385 0.43133 0.2493 0.0
C1604 C 0.59089 0.43227 0.22326 0.0
C1605 C 0.60606 0.45364 0.21157 0.0
C1606 C 0.52207 0.38338 0.25729 0.0
C1607 C 0.52129 0.37845 0.28395 0.0
C1608 C 0.54303 0.39891 0.24539 0.0
C1609 C 0.5636 0.41014 0.26003 0.0
C1610 C 0.56313 0.40365 0.28622 0.0
C1611 C 0.54212 0.38775 0.29806 0.0
H1612 H 0.16449 0.63156 0.24071 0.0
H1613 H 0.11354 0.57455 0.19497 0.0
H1614 H 0.17574 0.60538 0.26182 0.0
H1615 H 0.12408 0.54834 0.21602 0.0
H1616 H 0.15245 0.54179 0.31976 0.0
H1617 H 0.15779 0.57468 0.29346 0.0
H1618 H 0.15109 0.53563 0.22353 0.0
H1619 H 0.14458 0.50247 0.25001 0.0
C1620 C 0.15623 0.61354 0.23471 0.0
C1621 C 0.13844 0.60496 0.21607 0.0
C1622 C 0.16245 0.59851 0.24691 0.0
C1623 C 0.15089 0.57468 0.24066 0.0
C1624 C 0.1338 0.56658 0.22103 0.0
C1625 C 0.12762 0.58154 0.20898 0.0
C1626 C 0.15308 0.54064 0.29878 0.0
C1627 C 0.14789 0.51958 0.28686 0.0
C1628 C 0.15609 0.55949 0.28362 0.0
C1629 C 0.15424 0.55763 0.2563 0.0
C1630 C 0.1519 0.53745 0.24451 0.0
C1631 C 0.14845 0.51852 0.25964 0.0
H1632 H 0.4486 0.85629 0.83288 0.0
H1633 H 0.46882 0.83122 0.76626 0.0
H1634 H 0.41219 0.84656 0.81207 0.0
H1635 H 0.4313 0.81921 0.74582 0.0
H1636 H 0.38984 0.84718 0.70127 0.0
H1637 H 0.41598 0.83761 0.72377 0.0
H1638 H 0.37657 0.8264 0.79478 0.0
H1639 H 0.35197 0.83846 0.77228 0.0
C1640 C 0.44458 0.84754 0.81421 0.0
C1641 C 0.46127 0.84444 0.80108 0.0
C1642 C 0.42355 0.84178 0.80214 0.0
C1643 C 0.4186 0.83238 0.77677 0.0
C1644 C 0.43461 0.82712 0.76489 0.0
C1645 C 0.45599 0.83361 0.7767 0.0
C1646 C 0.38637 0.84186 0.72147 0.0
C1647 C 0.36909 0.84359 0.73516 0.0
C1648 C 0.40139 0.83628 0.73456 0.0
C1649 C 0.39905 0.8318 0.76157 0.0
C1650 C 0.37971 0.8307 0.77433 0.0
C1651 C 0.36526 0.83716 0.7614 0.0
H1652 H 0.51364 0.36194 0.75498 0.0
H1653 H 0.54447 0.40612 0.68842 0.0
H1654 H 0.54814 0.38662 0.78082 0.0
H1655 H 0.57827 0.43197 0.71436 0.0
H1656 H 0.588 0.45575 0.82596 0.0
H1657 H 0.56156 0.42165 0.80103 0.0
H1658 H 0.61159 0.44404 0.73823 0.0
H1659 H 0.63723 0.47905 0.76297 0.0
C1660 C 0.52816 0.37673 0.7458 0.0
C1661 C 0.52668 0.38214 0.71979 0.0
C1662 C 0.54781 0.39112 0.76065 0.0
C1663 C 0.566 0.41176 0.75004 0.0
C1664 C 0.56495 0.41621 0.72335 0.0
C1665 C 0.54554 0.40142 0.70835 0.0
C1666 C 0.59359 0.45284 0.80721 0.0
C1667 C 0.61464 0.46969 0.79642 0.0
C1668 C 0.57844 0.43323 0.79277 0.0
C1669 C 0.58414 0.42997 0.76725 0.0
C1670 C 0.60624 0.4461 0.75746 0.0
C1671 C 0.62116 0.46598 0.77175 0.0
H1672 H 0.15949 0.52283 0.76054 0.0
H1673 H 0.13414 0.54388 0.69484 0.0
H1674 H 0.16977 0.55927 0.78264 0.0
H1675 H 0.14236 0.57926 0.71724 0.0
H1676 H 0.15062 0.63896 0.75971 0.0
H1677 H 0.16242 0.61467 0.73601 0.0
H1678 H 0.14922 0.57246 0.80503 0.0
H1679 H 0.1396 0.5981 0.82879 0.0
C1680 C 0.15675 0.53566 0.75062 0.0
C1681 C 0.14634 0.53089 0.72601 0.0
C1682 C 0.16223 0.55639 0.76339 0.0
C1683 C 0.15644 0.57225 0.7522 0.0
C1684 C 0.14749 0.56794 0.72663 0.0
C1685 C 0.14266 0.54754 0.71364 0.0
C1686 C 0.15133 0.62505 0.76991 0.0
C1687 C 0.14445 0.62038 0.79598 0.0
C1688 C 0.15769 0.61084 0.75629 0.0
C1689 C 0.15621 0.591 0.76819 0.0
C1690 C 0.15094 0.58755 0.79499 0.0
C1691 C 0.14533 0.60224 0.80877 0.0
H1692 H 0.54741 0.14408 0.83387 0.0
H1693 H 0.52467 0.1662 0.76681 0.0
H1694 H 0.58239 0.15168 0.81123 0.0
H1695 H 0.56093 0.17643 0.74459 0.0
H1696 H 0.60082 0.14839 0.69818 0.0
H1697 H 0.57549 0.15805 0.72219 0.0
H1698 H 0.6167 0.16862 0.79163 0.0
H1699 H 0.64038 0.15635 0.76764 0.0
C1700 C 0.55063 0.15185 0.81469 0.0
C1701 C 0.53347 0.15458 0.80204 0.0
C1702 C 0.57085 0.15631 0.80149 0.0
C1703 C 0.57468 0.16422 0.77546 0.0
C1704 C 0.55845 0.16943 0.76407 0.0
C1705 C 0.5378 0.16407 0.77696 0.0
C1706 C 0.60479 0.15345 0.71841 0.0
C1707 C 0.62238 0.15151 0.73114 0.0
C1708 C 0.59022 0.15911 0.7324 0.0
C1709 C 0.59334 0.16364 0.75941 0.0
C1710 C 0.61284 0.16429 0.77127 0.0
C1711 C 0.62681 0.1577 0.75745 0.0
H1712 H 0.4177 0.53033 0.82145 0.0
H1713 H 0.36278 0.52611 0.77301 0.0
H1714 H 0.44515 0.56682 0.80118 0.0
H1715 H 0.39021 0.5634 0.75273 0.0
H1716 H 0.45551 0.60273 0.69713 0.0
H1717 H 0.42157 0.57566 0.72242 0.0
H1718 H 0.45932 0.60642 0.79353 0.0
H1719 H 0.4935 0.63234 0.76803 0.0
C1720 C 0.41143 0.53781 0.80703 0.0
C1721 C 0.38825 0.52577 0.79892 0.0
C1722 C 0.4271 0.55882 0.79542 0.0
C1723 C 0.41997 0.56826 0.77527 0.0
C1724 C 0.39634 0.55661 0.76805 0.0
C1725 C 0.38059 0.53544 0.77977 0.0
C1726 C 0.45614 0.6042 0.71815 0.0
C1727 C 0.477 0.61942 0.73074 0.0
C1728 C 0.43671 0.58868 0.73272 0.0
C1729 C 0.43784 0.58842 0.76011 0.0
C1730 C 0.45802 0.60562 0.77251 0.0
C1731 C 0.47753 0.62067 0.75796 0.0
H1732 H 0.83294 0.47245 0.75349 0.0
H1733 H 0.86206 0.45059 0.69232 0.0
H1734 H 0.82099 0.4361 0.77677 0.0
H1735 H 0.85193 0.41521 0.7159 0.0
H1736 H 0.83867 0.35464 0.75938 0.0
H1737 H 0.82922 0.37969 0.73372 0.0
H1738 H 0.83895 0.4216 0.80219 0.0
H1739 H 0.84627 0.39523 0.82785 0.0
C1740 C 0.83616 0.45947 0.74476 0.0
C1741 C 0.84803 0.46395 0.72104 0.0
C1742 C 0.82969 0.43878 0.75824 0.0
C1743 C 0.83573 0.42258 0.74865 0.0
C1744 C 0.84645 0.42675 0.72398 0.0
C1745 C 0.85239 0.44714 0.71033 0.0
C1746 C 0.83765 0.36862 0.76902 0.0
C1747 C 0.8431 0.37305 0.79551 0.0
C1748 C 0.83267 0.3833 0.75427 0.0
C1749 C 0.8341 0.40336 0.76546 0.0
C1750 C 0.8375 0.40643 0.79261 0.0
C1751 C 0.84171 0.39125 0.80751 0.0
H1752 H 0.43735 0.07584 0.08129 0.0
H1753 H 0.44528 0.14455 0.08104 0.0
H1754 H 0.4358 0.07501 0.03444 0.0
H1755 H 0.44592 0.14451 0.03369 0.0
H1756 H 0.43016 0.13131 0.94666 0.0
H1757 H 0.42601 0.13038 0.99403 0.0
H1758 H 0.46101 0.09033 0.99972 0.0
H1759 H 0.46412 0.0905 0.95268 0.0
C1760 C 0.43851 0.09076 0.0714 0.0
C1761 C 0.44138 0.11027 0.08538 0.0
C1762 C 0.43814 0.09046 0.04424 0.0
C1763 C 0.44118 0.10985 0.02999 0.0
C1764 C 0.44341 0.12916 0.04385 0.0
C1765 C 0.44338 0.12931 0.07115 0.0
C1766 C 0.4368 0.12221 0.95816 0.0
C1767 C 0.44721 0.11075 0.94596 0.0
C1768 C 0.43455 0.12177 0.98533 0.0
C1769 C 0.443 0.11013 1.00094 0.0
C1770 C 0.45364 0.09891 0.98853 0.0
C1771 C 0.45555 0.09907 0.96147 0.0
H1772 H 0.2864 0.43122 0.07279 0.0
H1773 H 0.35929 0.45334 0.06689 0.0
H1774 H 0.28288 0.4276 0.02526 0.0
H1775 H 0.35626 0.45087 0.01987 0.0
H1776 H 0.34415 0.42539 0.93938 0.0
H1777 H 0.34261 0.42448 0.98613 0.0
H1778 H 0.29193 0.44721 0.98465 0.0
H1779 H 0.29174 0.44597 0.93725 0.0
C1780 C 0.30166 0.43542 0.06128 0.0
C1781 C 0.32302 0.44215 0.07353 0.0
C1782 C 0.29972 0.43347 0.03404 0.0
C1783 C 0.3192 0.43856 0.0185 0.0
C1784 C 0.34065 0.44598 0.03099 0.0
C1785 C 0.34247 0.44756 0.05804 0.0
C1786 C 0.33201 0.42948 0.94869 0.0
C1787 C 0.31802 0.43571 0.93403 0.0
C1788 C 0.33155 0.42948 0.97584 0.0
C1789 C 0.31756 0.43631 0.98946 0.0
C1790 C 0.30295 0.44183 0.97497 0.0
C1791 C 0.30309 0.44141 0.94764 0.0
H1792 H 0.91722 0.36344 0.08348 0.0
H1793 H 0.85044 0.30044 0.08267 0.0
H1794 H 0.91802 0.36342 0.03653 0.0
H1795 H 0.85047 0.30151 0.03522 0.0
H1796 H 0.867 0.30049 0.94832 0.0
H1797 H 0.86697 0.2972 0.99577 0.0
H1798 H 0.90046 0.37192 1.00213 0.0
H1799 H 0.90111 0.37507 0.95504 0.0
C1800 C 0.90275 0.34937 0.07339 0.0
C1801 C 0.8838 0.33184 0.08717 0.0
C1802 C 0.90302 0.34965 0.04625 0.0
C1803 C 0.88416 0.33269 0.0319 0.0
C1804 C 0.86538 0.31482 0.04555 0.0
C1805 C 0.86524 0.31437 0.07284 0.0
C1806 C 0.87436 0.31615 0.95997 0.0
C1807 C 0.88432 0.33805 0.94797 0.0
C1808 C 0.87427 0.31429 0.98716 0.0
C1809 C 0.88393 0.3343 1.00292 0.0
C1810 C 0.89346 0.35613 0.99075 0.0
C1811 C 0.89378 0.35798 0.96369 0.0
H1812 H 0.56409 0.85632 0.0786 0.0
H1813 H 0.5312 0.89815 0.07426 0.0
H1814 H 0.56704 0.85693 0.03098 0.0
H1815 H 0.53283 0.89783 0.02714 0.0
H1816 H 0.55565 0.9134 0.94562 0.0
H1817 H 0.55752 0.9134 0.99238 0.0
H1818 H 0.54745 0.84392 0.991 0.0
H1819 H 0.54789 0.84478 0.94364 0.0
C1820 C 0.55736 0.86549 0.06739 0.0
C1821 C 0.54777 0.8775 0.08006 0.0
C1822 C 0.55891 0.86576 0.0401 0.0
C1823 C 0.55049 0.87772 0.02493 0.0
C1824 C 0.54027 0.8891 0.03789 0.0
C1825 C 0.53915 0.88917 0.065 0.0
C1826 C 0.55456 0.89831 0.95498 0.0
C1827 C 0.55166 0.87909 0.94037 0.0
C1828 C 0.55509 0.8981 0.98213 0.0
C1829 C 0.55211 0.87846 0.99582 0.0
C1830 C 0.54986 0.85944 0.98132 0.0
C1831 C 0.54977 0.85981 0.954 0.0
H1832 H 0.64927 0.56746 0.07364 0.0
H1833 H 0.70177 0.54704 0.07651 0.0
H1834 H 0.65152 0.56891 0.02696 0.0
H1835 H 0.70227 0.54628 0.0291 0.0
H1836 H 0.70998 0.56414 0.9413 0.0
H1837 H 0.71221 0.56635 0.98898 0.0
H1838 H 0.63894 0.54405 0.99215 0.0
H1839 H 0.63726 0.5431 0.94504 0.0
C1840 C 0.66154 0.56346 0.06451 0.0
C1841 C 0.67545 0.55727 0.0794 0.0
C1842 C 0.66241 0.56376 0.03736 0.0
C1843 C 0.67672 0.55724 0.02388 0.0
C1844 C 0.69105 0.55149 0.03862 0.0
C1845 C 0.69051 0.55162 0.06597 0.0
C1846 C 0.69448 0.55988 0.95236 0.0
C1847 C 0.67356 0.5539 0.93947 0.0
C1848 C 0.69567 0.561 0.9797 0.0
C1849 C 0.67585 0.55576 0.99471 0.0
C1850 C 0.65483 0.54905 0.98154 0.0
C1851 C 0.65377 0.54836 0.95441 0.0
H1852 H 0.14698 0.67451 0.94658 0.0
H1853 H 0.08363 0.67796 0.94506 0.0
H1854 H 0.14836 0.67834 0.99368 0.0
H1855 H 0.08467 0.68079 0.99244 0.0
H1856 H 0.07965 0.64819 0.075 0.0
H1857 H 0.08008 0.6521 0.0281 0.0
H1858 H 0.15204 0.70574 0.03096 0.0
H1859 H 0.15153 0.70274 0.07839 0.0
C1860 C 0.13357 0.67656 0.95608 0.0
C1861 C 0.11513 0.67585 0.94169 0.0
C1862 C 0.13435 0.67865 0.98322 0.0
C1863 C 0.11658 0.67976 0.99681 0.0
C1864 C 0.09849 0.67971 0.98253 0.0
C1865 C 0.09787 0.67796 0.95533 0.0
C1866 C 0.09546 0.6614 0.06598 0.0
C1867 C 0.11554 0.67525 0.0809 0.0
C1868 C 0.09569 0.66351 0.0389 0.0
C1869 C 0.11607 0.67923 0.02579 0.0
C1870 C 0.1361 0.69333 0.04052 0.0
C1871 C 0.1358 0.6915 0.06774 0.0
H1872 H 0.8966 0.589 0.4439 0.0
H1873 H 0.85676 0.51415 0.44506 0.0
H1874 H 0.89563 0.58956 0.49177 0.0
H1875 H 0.85639 0.51478 0.49272 0.0
H1876 H 0.89987 0.53458 0.57304 0.0
H1877 H 0.89797 0.53548 0.52549 0.0
H1878 H 0.85655 0.5688 0.53091 0.0
H1879 H 0.85782 0.56723 0.57882 0.0
C1880 C 0.88749 0.57273 0.45437 0.0
C1881 C 0.87663 0.55154 0.44075 0.0
C1882 C 0.88688 0.57307 0.48167 0.0
C1883 C 0.87589 0.55221 0.49581 0.0
C1884 C 0.86488 0.53108 0.48222 0.0
C1885 C 0.86502 0.53075 0.45499 0.0
C1886 C 0.89046 0.5422 0.56409 0.0
C1887 C 0.8791 0.55096 0.57957 0.0
C1888 C 0.8893 0.54263 0.53694 0.0
C1889 C 0.87717 0.55225 0.52464 0.0
C1890 C 0.86608 0.56137 0.54002 0.0
C1891 C 0.86676 0.56044 0.56731 0.0
H1892 H 0.31564 0.90425 0.44911 0.0
H1893 H 0.34577 0.85995 0.45462 0.0
H1894 H 0.31217 0.90386 0.49651 0.0
H1895 H 0.34349 0.86038 0.50173 0.0
H1896 H 0.32104 0.84789 0.584 0.0
H1897 H 0.31905 0.84665 0.53712 0.0
H1898 H 0.3324 0.91732 0.5357 0.0
H1899 H 0.33213 0.91781 0.58298 0.0
C1900 C 0.32163 0.89454 0.46052 0.0
C1901 C 0.33075 0.88194 0.44819 0.0
C1902 C 0.31978 0.8944 0.48772 0.0
C1903 C 0.32739 0.88196 0.50322 0.0
C1904 C 0.33679 0.86962 0.49066 0.0
C1905 C 0.33825 0.86946 0.46356 0.0
C1906 C 0.32286 0.86301 0.57393 0.0
C1907 C 0.32676 0.88298 0.58769 0.0
C1908 C 0.32223 0.86246 0.54676 0.0
C1909 C 0.326 0.88203 0.5323 0.0
C1910 C 0.32929 0.90182 0.54598 0.0
C1911 C 0.32949 0.90222 0.57326 0.0
H1912 H 0.43234 0.28722 0.43472 0.0
H1913 H 0.45485 0.36025 0.43871 0.0
H1914 H 0.43112 0.28516 0.48244 0.0
H1915 H 0.45478 0.35868 0.48582 0.0
H1916 H 0.43237 0.34858 0.56769 0.0
H1917 H 0.42992 0.3461 0.52099 0.0
H1918 H 0.45263 0.29539 0.52192 0.0
H1919 H 0.453 0.29623 0.56936 0.0
C1920 C 0.43714 0.30282 0.44584 0.0
C1921 C 0.44325 0.32378 0.43305 0.0
C1922 C 0.43658 0.30172 0.47317 0.0
C1923 C 0.44247 0.32167 0.48823 0.0
C1924 C 0.44931 0.34273 0.47515 0.0
C1925 C 0.4495 0.34371 0.44803 0.0
C1926 C 0.43619 0.33629 0.55827 0.0
C1927 C 0.44281 0.32253 0.57278 0.0
C1928 C 0.43529 0.33527 0.53115 0.0
C1929 C 0.44154 0.3209 0.51736 0.0
C1930 C 0.44762 0.30666 0.53174 0.0
C1931 C 0.44815 0.30738 0.55906 0.0
H1932 H 0.13179 0.43157 0.4458 0.0
H1933 H 0.09655 0.47108 0.45345 0.0
H1934 H 0.13198 0.42799 0.4932 0.0
H1935 H 0.09722 0.46809 0.50049 0.0
H1936 H 0.07987 0.44092 0.58128 0.0
H1937 H 0.07959 0.44109 0.53429 0.0
H1938 H 0.14798 0.44838 0.53326 0.0
H1939 H 0.14762 0.44657 0.58071 0.0
C1940 C 0.12426 0.43964 0.45762 0.0
C1941 C 0.1139 0.45137 0.44584 0.0
C1942 C 0.12441 0.43765 0.4848 0.0
C1943 C 0.11437 0.4475 0.50082 0.0
C1944 C 0.10453 0.45968 0.48891 0.0
C1945 C 0.1042 0.46149 0.46185 0.0
C1946 C 0.09466 0.4419 0.57123 0.0
C1947 C 0.11373 0.4436 0.58511 0.0
C1948 C 0.09468 0.44248 0.54407 0.0
C1949 C 0.11391 0.44514 0.52979 0.0
C1950 C 0.13279 0.44623 0.54353 0.0
C1951 C 0.13269 0.44544 0.57082 0.0
H1952 H 0.66381 0.07886 0.4428 0.0
H1953 H 0.64697 0.13372 0.4445 0.0
H1954 H 0.66555 0.07929 0.49037 0.0
H1955 H 0.64734 0.13344 0.49174 0.0
H1956 H 0.668 0.14382 0.57479 0.0
H1957 H 0.67076 0.14385 0.52795 0.0
H1958 H 0.64403 0.06972 0.52872 0.0
H1959 H 0.64349 0.07007 0.57593 0.0
C1960 C 0.66032 0.09088 0.45344 0.0
C1961 C 0.6555 0.10642 0.44007 0.0
C1962 C 0.66116 0.09107 0.4807 0.0
C1963 C 0.65676 0.10653 0.49515 0.0
C1964 C 0.65153 0.12175 0.48151 0.0
C1965 C 0.65113 0.12183 0.45436 0.0
C1966 C 0.66329 0.12756 0.56519 0.0
C1967 C 0.65546 0.10692 0.5795 0.0
C1968 C 0.66442 0.1275 0.53806 0.0
C1969 C 0.65724 0.10672 0.52424 0.0
C1970 C 0.64987 0.08614 0.53851 0.0
C1971 C 0.64918 0.08627 0.56574 0.0
H1972 H 0.587 0.67649 0.57344 0.0
H1973 H 0.52185 0.6764 0.5762 0.0
H1974 H 0.58671 0.67847 0.52637 0.0
H1975 H 0.52284 0.68081 0.5295 0.0
H1976 H 0.51379 0.65697 0.44531 0.0
H1977 H 0.51582 0.65926 0.49241 0.0
H1978 H 0.59083 0.69852 0.48821 0.0
H1979 H 0.58855 0.69497 0.44082 0.0
C1980 C 0.5727 0.67715 0.56417 0.0
C1981 C 0.55429 0.67592 0.57904 0.0
C1982 C 0.57275 0.67871 0.53697 0.0
C1983 C 0.55461 0.67955 0.52372 0.0
C1984 C 0.53685 0.67958 0.5387 0.0
C1985 C 0.53655 0.67754 0.56582 0.0
C1986 C 0.53071 0.66638 0.45445 0.0
C1987 C 0.551 0.6759 0.43933 0.0
C1988 C 0.53193 0.66781 0.48161 0.0
C1989 C 0.55352 0.67918 0.49452 0.0
C1990 C 0.57386 0.68925 0.47923 0.0
C1991 C 0.57261 0.68742 0.452 0.0
loop_
_geom_bond_atom_site_label_1
_geom_bond_atom_site_label_2
_geom_bond_distance
_geom_bond_site_symmetry_2
_ccdc_geom_bond_type
Co0 N4 2.148 . S
Co0 N10 2.128 . S
Co0 N20 2.194 . S
Co0 O25 2.351 . S
Co0 O26 2.155 . S
Co0 O27 2.096 . S
C1 N4 1.301 . S
C1 N5 1.328 . S
C1 H6 0.930 . S
C2 C3 1.333 . S
C2 N4 1.317 . S
C2 H7 0.930 . S
C3 C2 1.333 . S
C3 N5 1.350 . S
C3 H29 0.931 . S
N4 Co0 2.148 . S
N4 C1 1.301 . S
N4 C2 1.317 . S
N5 C1 1.328 . S
N5 C3 1.350 . S
H6 C1 0.930 . S
H7 C2 0.930 . S
C8 O9 1.224 . S
C8 O27 1.247 . S
O9 C8 1.224 . S
N10 Co0 2.128 . S
N10 C11 1.355 . S
N10 C13 1.311 . S
C11 N10 1.355 . S
C11 C12 1.363 . S
C11 H23 0.929 . S
C12 C11 1.363 . S
C12 N14 1.375 . S
C12 H30 0.931 . S
C13 N10 1.311 . S
C13 N14 1.347 . S
C13 H24 0.929 . S
N14 C12 1.375 . S
N14 C13 1.347 . S
C15 C18 1.365 . S
C15 N20 1.328 . S
C15 H21 0.929 . S
C16 C17 1.362 . S
C16 C19 1.378 . S
C16 H31 0.929 . S
C17 C16 1.362 . S
C17 C18 1.366 . S
C18 C15 1.365 . S
C18 C17 1.366 . S
C18 H32 0.930 . S
C19 C16 1.378 . S
C19 N20 1.315 . S
C19 H22 0.930 . S
N20 Co0 2.194 . S
N20 C15 1.328 . S
N20 C19 1.315 . S
H21 C15 0.929 . S
H22 C19 0.930 . S
H23 C11 0.929 . S
H24 C13 0.929 . S
O25 Co0 2.351 . S
O25 C28 1.244 . S
O26 Co0 2.155 . S
O26 C28 1.240 . S
O27 Co0 2.096 . S
O27 C8 1.247 . S
C28 O25 1.244 . S
C28 O26 1.240 . S
H29 C3 0.931 . S
H30 C12 0.931 . S
H31 C16 0.929 . S
H32 C18 0.930 . S
Co33 N37 2.148 . S
Co33 N43 2.128 . S
Co33 N53 2.194 . S
Co33 O58 2.351 . S
Co33 O59 2.155 . S
Co33 O60 2.096 . S
C34 N37 1.301 . S
C34 N38 1.328 . S
C34 H39 0.930 . S
C35 C36 1.333 . S
C35 N37 1.317 . S
C35 H40 0.930 . S
C36 C35 1.333 . S
C36 N38 1.350 . S
C36 H62 0.931 . S
N37 Co33 2.148 . S
N37 C34 1.301 . S
N37 C35 1.317 . S
N38 C34 1.328 . S
N38 C36 1.350 . S
H39 C34 0.930 . S
H40 C35 0.930 . S
C41 O42 1.224 . S
C41 O60 1.247 . S
O42 C41 1.224 . S
N43 Co33 2.128 . S
N43 C44 1.355 . S
N43 C46 1.311 . S
C44 N43 1.355 . S
C44 C45 1.363 . S
C44 H56 0.929 . S
C45 C44 1.363 . S
C45 N47 1.375 . S
C45 H63 0.931 . S
C46 N43 1.311 . S
C46 N47 1.347 . S
C46 H57 0.929 . S
N47 C45 1.375 . S
N47 C46 1.347 . S
C48 C51 1.365 . S
C48 N53 1.328 . S
C48 H54 0.929 . S
C49 C50 1.362 . S
C49 C52 1.378 . S
C49 H64 0.929 . S
C50 C49 1.362 . S
C50 C51 1.366 . S
C51 C48 1.365 . S
C51 C50 1.366 . S
C51 H65 0.930 . S
C52 C49 1.378 . S
C52 N53 1.315 . S
C52 H55 0.930 . S
N53 Co33 2.194 . S
N53 C48 1.328 . S
N53 C52 1.315 . S
H54 C48 0.929 . S
H55 C52 0.930 . S
H56 C44 0.929 . S
H57 C46 0.929 . S
O58 Co33 2.351 . S
O58 C61 1.244 . S
O59 Co33 2.155 . S
O59 C61 1.240 . S
O60 Co33 2.096 . S
O60 C41 1.247 . S
C61 O58 1.244 . S
C61 O59 1.240 . S
H62 C36 0.931 . S
H63 C45 0.931 . S
H64 C49 0.929 . S
H65 C51 0.930 . S
Co66 N70 2.148 . S
Co66 N76 2.128 . S
Co66 N86 2.194 . S
Co66 O91 2.351 . S
Co66 O92 2.155 . S
Co66 O93 2.096 . S
C67 N70 1.301 . S
C67 N71 1.328 . S
C67 H72 0.930 . S
C68 C69 1.333 . S
C68 N70 1.317 . S
C68 H73 0.930 . S
C69 C68 1.333 . S
C69 N71 1.350 . S
C69 H95 0.931 . S
N70 Co66 2.148 . S
N70 C67 1.301 . S
N70 C68 1.317 . S
N71 C67 1.328 . S
N71 C69 1.350 . S
H72 C67 0.930 . S
H73 C68 0.930 . S
C74 O75 1.224 . S
C74 O93 1.247 . S
O75 C74 1.224 . S
N76 Co66 2.128 . S
N76 C77 1.355 . S
N76 C79 1.311 . S
C77 N76 1.355 . S
C77 C78 1.363 . S
C77 H89 0.929 . S
C78 C77 1.363 . S
C78 N80 1.375 . S
C78 H96 0.931 . S
C79 N76 1.311 . S
C79 N80 1.347 . S
C79 H90 0.929 . S
N80 C78 1.375 . S
N80 C79 1.347 . S
C81 C84 1.365 . S
C81 N86 1.328 . S
C81 H87 0.929 . S
C82 C83 1.362 . S
C82 C85 1.378 . S
C82 H97 0.929 . S
C83 C82 1.362 . S
C83 C84 1.366 . S
C84 C81 1.365 . S
C84 C83 1.366 . S
C84 H98 0.930 . S
C85 C82 1.378 . S
C85 N86 1.315 . S
C85 H88 0.930 . S
N86 Co66 2.194 . S
N86 C81 1.328 . S
N86 C85 1.315 . S
H87 C81 0.929 . S
H88 C85 0.930 . S
H89 C77 0.929 . S
H90 C79 0.929 . S
O91 Co66 2.351 . S
O91 C94 1.244 . S
O92 Co66 2.155 . S
O92 C94 1.240 . S
O93 Co66 2.096 . S
O93 C74 1.247 . S
C94 O91 1.244 . S
C94 O92 1.240 . S
H95 C69 0.931 . S
H96 C78 0.931 . S
H97 C82 0.929 . S
H98 C84 0.930 . S
Co99 N103 2.148 . S
Co99 N109 2.128 . S
Co99 N119 2.194 . S
Co99 O124 2.351 . S
Co99 O125 2.155 . S
Co99 O126 2.096 . S
C100 N103 1.301 . S
C100 N104 1.328 . S
C100 H105 0.930 . S
C101 C102 1.333 . S
C101 N103 1.317 . S
C101 H106 0.930 . S
C102 C101 1.333 . S
C102 N104 1.350 . S
C102 H128 0.931 . S
N103 Co99 2.148 . S
N103 C100 1.301 . S
N103 C101 1.317 . S
N104 C100 1.328 . S
N104 C102 1.350 . S
H105 C100 0.930 . S
H106 C101 0.930 . S
C107 O108 1.224 . S
C107 O126 1.247 . S
O108 C107 1.224 . S
N109 Co99 2.128 . S
N109 C110 1.355 . S
N109 C112 1.311 . S
C110 N109 1.355 . S
C110 C111 1.363 . S
C110 H122 0.929 . S
C111 C110 1.363 . S
C111 N113 1.375 . S
C111 H129 0.931 . S
C112 N109 1.311 . S
C112 N113 1.347 . S
C112 H123 0.929 . S
N113 C111 1.375 . S
N113 C112 1.347 . S
C114 C117 1.365 . S
C114 N119 1.328 . S
C114 H120 0.929 . S
C115 C116 1.362 . S
C115 C118 1.378 . S
C115 H130 0.929 . S
C116 C115 1.362 . S
C116 C117 1.366 . S
C117 C114 1.365 . S
C117 C116 1.366 . S
C117 H131 0.930 . S
C118 C115 1.378 . S
C118 N119 1.315 . S
C118 H121 0.930 . S
N119 Co99 2.194 . S
N119 C114 1.328 . S
N119 C118 1.315 . S
H120 C114 0.929 . S
H121 C118 0.930 . S
H122 C110 0.929 . S
H123 C112 0.929 . S
O124 Co99 2.351 . S
O124 C127 1.244 . S
O125 Co99 2.155 . S
O125 C127 1.240 . S
O126 Co99 2.096 . S
O126 C107 1.247 . S
C127 O124 1.244 . S
C127 O125 1.240 . S
H128 C102 0.931 . S
H129 C111 0.931 . S
H130 C115 0.929 . S
H131 C117 0.930 . S
Co132 N136 2.148 . S
Co132 N142 2.128 . S
Co132 N152 2.194 . S
Co132 O157 2.351 . S
Co132 O158 2.155 . S
Co132 O159 2.096 . S
C133 N136 1.301 . S
C133 N137 1.328 . S
C133 H138 0.930 . S
C134 C135 1.333 . S
C134 N136 1.317 . S
C134 H139 0.930 . S
C135 C134 1.333 . S
C135 N137 1.350 . S
C135 H161 0.931 . S
N136 Co132 2.148 . S
N136 C133 1.301 . S
N136 C134 1.317 . S
N137 C133 1.328 . S
N137 C135 1.350 . S
H138 C133 0.930 . S
H139 C134 0.930 . S
C140 O141 1.224 . S
C140 O159 1.247 . S
O141 C140 1.224 . S
N142 Co132 2.128 . S
N142 C143 1.355 . S
N142 C145 1.311 . S
C143 N142 1.355 . S
C143 C144 1.363 . S
C143 H155 0.929 . S
C144 C143 1.363 . S
C144 N146 1.375 . S
C144 H162 0.931 . S
C145 N142 1.311 . S
C145 N146 1.347 . S
C145 H156 0.929 . S
N146 C144 1.375 . S
N146 C145 1.347 . S
C147 C150 1.365 . S
C147 N152 1.328 . S
C147 H153 0.929 . S
C148 C149 1.362 . S
C148 C151 1.378 . S
C148 H163 0.929 . S
C149 C148 1.362 . S
C149 C150 1.366 . S
C150 C147 1.365 . S
C150 C149 1.366 . S
C150 H164 0.930 . S
C151 C148 1.378 . S
C151 N152 1.315 . S
C151 H154 0.930 . S
N152 Co132 2.194 . S
N152 C147 1.328 . S
N152 C151 1.315 . S
H153 C147 0.929 . S
H154 C151 0.930 . S
H155 C143 0.929 . S
H156 C145 0.929 . S
O157 Co132 2.351 . S
O157 C160 1.244 . S
O158 Co132 2.155 . S
O158 C160 1.240 . S
O159 Co132 2.096 . S
O159 C140 1.247 . S
C160 O157 1.244 . S
C160 O158 1.240 . S
H161 C135 0.931 . S
H162 C144 0.931 . S
H163 C148 0.929 . S
H164 C150 0.930 . S
Co165 N169 2.148 . S
Co165 N175 2.128 . S
Co165 N185 2.194 . S
Co165 O190 2.351 . S
Co165 O191 2.155 . S
Co165 O192 2.096 . S
C166 N169 1.301 . S
C166 N170 1.328 . S
C166 H171 0.930 . S
C167 C168 1.333 . S
C167 N169 1.317 . S
C167 H172 0.930 . S
C168 C167 1.333 . S
C168 N170 1.350 . S
C168 H194 0.931 . S
N169 Co165 2.148 . S
N169 C166 1.301 . S
N169 C167 1.317 . S
N170 C166 1.328 . S
N170 C168 1.350 . S
H171 C166 0.930 . S
H172 C167 0.930 . S
C173 O174 1.224 . S
C173 O192 1.247 . S
O174 C173 1.224 . S
N175 Co165 2.128 . S
N175 C176 1.355 . S
N175 C178 1.311 . S
C176 N175 1.355 . S
C176 C177 1.363 . S
C176 H188 0.929 . S
C177 C176 1.363 . S
C177 N179 1.375 . S
C177 H195 0.931 . S
C178 N175 1.311 . S
C178 N179 1.347 . S
C178 H189 0.929 . S
N179 C177 1.375 . S
N179 C178 1.347 . S
C180 C183 1.365 . S
C180 N185 1.328 . S
C180 H186 0.929 . S
C181 C182 1.362 . S
C181 C184 1.378 . S
C181 H196 0.929 . S
C182 C181 1.362 . S
C182 C183 1.366 . S
C183 C180 1.365 . S
C183 C182 1.366 . S
C183 H197 0.930 . S
C184 C181 1.378 . S
C184 N185 1.315 . S
C184 H187 0.930 . S
N185 Co165 2.194 . S
N185 C180 1.328 . S
N185 C184 1.315 . S
H186 C180 0.929 . S
H187 C184 0.930 . S
H188 C176 0.929 . S
H189 C178 0.929 . S
O190 Co165 2.351 . S
O190 C193 1.244 . S
O191 Co165 2.155 . S
O191 C193 1.240 . S
O192 Co165 2.096 . S
O192 C173 1.247 . S
C193 O190 1.244 . S
C193 O191 1.240 . S
H194 C168 0.931 . S
H195 C177 0.931 . S
H196 C181 0.929 . S
H197 C183 0.930 . S
Co198 N202 2.148 . S
Co198 N208 2.128 . S
Co198 N218 2.194 . S
Co198 O223 2.351 . S
Co198 O224 2.155 . S
Co198 O225 2.096 . S
C199 N202 1.301 . S
C199 N203 1.328 . S
C199 H204 0.930 . S
C200 C201 1.333 . S
C200 N202 1.317 . S
C200 H205 0.930 . S
C201 C200 1.333 . S
C201 N203 1.350 . S
C201 H227 0.931 . S
N202 Co198 2.148 . S
N202 C199 1.301 . S
N202 C200 1.317 . S
N203 C199 1.328 . S
N203 C201 1.350 . S
H204 C199 0.930 . S
H205 C200 0.930 . S
C206 O207 1.224 . S
C206 O225 1.247 . S
O207 C206 1.224 . S
N208 Co198 2.128 . S
N208 C209 1.355 . S
N208 C211 1.311 . S
C209 N208 1.355 . S
C209 C210 1.363 . S
C209 H221 0.929 . S
C210 C209 1.363 . S
C210 N212 1.375 . S
C210 H228 0.931 . S
C211 N208 1.311 . S
C211 N212 1.347 . S
C211 H222 0.929 . S
N212 C210 1.375 . S
N212 C211 1.347 . S
C213 C216 1.365 . S
C213 N218 1.328 . S
C213 H219 0.929 . S
C214 C215 1.362 . S
C214 C217 1.378 . S
C214 H229 0.929 . S
C215 C214 1.362 . S
C215 C216 1.366 . S
C216 C213 1.365 . S
C216 C215 1.366 . S
C216 H230 0.930 . S
C217 C214 1.378 . S
C217 N218 1.315 . S
C217 H220 0.930 . S
N218 Co198 2.194 . S
N218 C213 1.328 . S
N218 C217 1.315 . S
H219 C213 0.929 . S
H220 C217 0.930 . S
H221 C209 0.929 . S
H222 C211 0.929 . S
O223 Co198 2.351 . S
O223 C226 1.244 . S
O224 Co198 2.155 . S
O224 C226 1.240 . S
O225 Co198 2.096 . S
O225 C206 1.247 . S
C226 O223 1.244 . S
C226 O224 1.240 . S
H227 C201 0.931 . S
H228 C210 0.931 . S
H229 C214 0.929 . S
H230 C216 0.930 . S
Co231 N235 2.148 . S
Co231 N241 2.128 . S
Co231 N251 2.194 . S
Co231 O256 2.351 . S
Co231 O257 2.155 . S
Co231 O258 2.096 . S
C232 N235 1.301 . S
C232 N236 1.328 . S
C232 H237 0.930 . S
C233 C234 1.333 . S
C233 N235 1.317 . S
C233 H238 0.930 . S
C234 C233 1.333 . S
C234 N236 1.350 . S
C234 H260 0.931 . S
N235 Co231 2.148 . S
N235 C232 1.301 . S
N235 C233 1.317 . S
N236 C232 1.328 . S
N236 C234 1.350 . S
H237 C232 0.930 . S
H238 C233 0.930 . S
C239 O240 1.224 . S
C239 O258 1.247 . S
O240 C239 1.224 . S
N241 Co231 2.128 . S
N241 C242 1.355 . S
N241 C244 1.311 . S
C242 N241 1.355 . S
C242 C243 1.363 . S
C242 H254 0.929 . S
C243 C242 1.363 . S
C243 N245 1.375 . S
C243 H261 0.931 . S
C244 N241 1.311 . S
C244 N245 1.347 . S
C244 H255 0.929 . S
N245 C243 1.375 . S
N245 C244 1.347 . S
C246 C249 1.365 . S
C246 N251 1.328 . S
C246 H252 0.929 . S
C247 C248 1.362 . S
C247 C250 1.378 . S
C247 H262 0.929 . S
C248 C247 1.362 . S
C248 C249 1.366 . S
C249 C246 1.365 . S
C249 C248 1.366 . S
C249 H263 0.930 . S
C250 C247 1.378 . S
C250 N251 1.315 . S
C250 H253 0.930 . S
N251 Co231 2.194 . S
N251 C246 1.328 . S
N251 C250 1.315 . S
H252 C246 0.929 . S
H253 C250 0.930 . S
H254 C242 0.929 . S
H255 C244 0.929 . S
O256 Co231 2.351 . S
O256 C259 1.244 . S
O257 Co231 2.155 . S
O257 C259 1.240 . S
O258 Co231 2.096 . S
O258 C239 1.247 . S
C259 O256 1.244 . S
C259 O257 1.240 . S
H260 C234 0.931 . S
H261 C243 0.931 . S
H262 C247 0.929 . S
H263 C249 0.930 . S
Co264 N268 2.148 . S
Co264 N274 2.128 . S
Co264 N284 2.194 . S
Co264 O289 2.351 . S
Co264 O290 2.155 . S
Co264 O291 2.096 . S
C265 N268 1.301 . S
C265 N269 1.328 . S
C265 H270 0.930 . S
C266 C267 1.333 . S
C266 N268 1.317 . S
C266 H271 0.930 . S
C267 C266 1.333 . S
C267 N269 1.350 . S
C267 H293 0.931 . S
N268 Co264 2.148 . S
N268 C265 1.301 . S
N268 C266 1.317 . S
N269 C265 1.328 . S
N269 C267 1.350 . S
H270 C265 0.930 . S
H271 C266 0.930 . S
C272 O273 1.224 . S
C272 O291 1.247 . S
O273 C272 1.224 . S
N274 Co264 2.128 . S
N274 C275 1.355 . S
N274 C277 1.311 . S
C275 N274 1.355 . S
C275 C276 1.363 . S
C275 H287 0.929 . S
C276 C275 1.363 . S
C276 N278 1.375 . S
C276 H294 0.931 . S
C277 N274 1.311 . S
C277 N278 1.347 . S
C277 H288 0.929 . S
N278 C276 1.375 . S
N278 C277 1.347 . S
C279 C282 1.365 . S
C279 N284 1.328 . S
C279 H285 0.929 . S
C280 C281 1.362 . S
C280 C283 1.378 . S
C280 H295 0.929 . S
C281 C280 1.362 . S
C281 C282 1.366 . S
C282 C279 1.365 . S
C282 C281 1.366 . S
C282 H296 0.930 . S
C283 C280 1.378 . S
C283 N284 1.315 . S
C283 H286 0.930 . S
N284 Co264 2.194 . S
N284 C279 1.328 . S
N284 C283 1.315 . S
H285 C279 0.929 . S
H286 C283 0.930 . S
H287 C275 0.929 . S
H288 C277 0.929 . S
O289 Co264 2.351 . S
O289 C292 1.244 . S
O290 Co264 2.155 . S
O290 C292 1.240 . S
O291 Co264 2.096 . S
O291 C272 1.247 . S
C292 O289 1.244 . S
C292 O290 1.240 . S
H293 C267 0.931 . S
H294 C276 0.931 . S
H295 C280 0.929 . S
H296 C282 0.930 . S
Co297 N301 2.148 . S
Co297 N307 2.128 . S
Co297 N317 2.194 . S
Co297 O322 2.351 . S
Co297 O323 2.155 . S
Co297 O324 2.096 . S
C298 N301 1.301 . S
C298 N302 1.328 . S
C298 H303 0.930 . S
C299 C300 1.333 . S
C299 N301 1.317 . S
C299 H304 0.930 . S
C300 C299 1.333 . S
C300 N302 1.350 . S
C300 H326 0.931 . S
N301 Co297 2.148 . S
N301 C298 1.301 . S
N301 C299 1.317 . S
N302 C298 1.328 . S
N302 C300 1.350 . S
H303 C298 0.930 . S
H304 C299 0.930 . S
C305 O306 1.224 . S
C305 O324 1.247 . S
O306 C305 1.224 . S
N307 Co297 2.128 . S
N307 C308 1.355 . S
N307 C310 1.311 . S
C308 N307 1.355 . S
C308 C309 1.363 . S
C308 H320 0.929 . S
C309 C308 1.363 . S
C309 N311 1.375 . S
C309 H327 0.931 . S
C310 N307 1.311 . S
C310 N311 1.347 . S
C310 H321 0.929 . S
N311 C309 1.375 . S
N311 C310 1.347 . S
C312 C315 1.365 . S
C312 N317 1.328 . S
C312 H318 0.929 . S
C313 C314 1.362 . S
C313 C316 1.378 . S
C313 H328 0.929 . S
C314 C313 1.362 . S
C314 C315 1.366 . S
C315 C312 1.365 . S
C315 C314 1.366 . S
C315 H329 0.930 . S
C316 C313 1.378 . S
C316 N317 1.315 . S
C316 H319 0.930 . S
N317 Co297 2.194 . S
N317 C312 1.328 . S
N317 C316 1.315 . S
H318 C312 0.929 . S
H319 C316 0.930 . S
H320 C308 0.929 . S
H321 C310 0.929 . S
O322 Co297 2.351 . S
O322 C325 1.244 . S
O323 Co297 2.155 . S
O323 C325 1.240 . S
O324 Co297 2.096 . S
O324 C305 1.247 . S
C325 O322 1.244 . S
C325 O323 1.240 . S
H326 C300 0.931 . S
H327 C309 0.931 . S
H328 C313 0.929 . S
H329 C315 0.930 . S
Co330 N334 2.148 . S
Co330 N340 2.128 . S
Co330 N350 2.194 . S
Co330 O355 2.351 . S
Co330 O356 2.155 . S
Co330 O357 2.096 . S
C331 N334 1.301 . S
C331 N335 1.328 . S
C331 H336 0.930 . S
C332 C333 1.333 . S
C332 N334 1.317 . S
C332 H337 0.930 . S
C333 C332 1.333 . S
C333 N335 1.350 . S
C333 H359 0.931 . S
N334 Co330 2.148 . S
N334 C331 1.301 . S
N334 C332 1.317 . S
N335 C331 1.328 . S
N335 C333 1.350 . S
H336 C331 0.930 . S
H337 C332 0.930 . S
C338 O339 1.224 . S
C338 O357 1.247 . S
O339 C338 1.224 . S
N340 Co330 2.128 . S
N340 C341 1.355 . S
N340 C343 1.311 . S
C341 N340 1.355 . S
C341 C342 1.363 . S
C341 H353 0.929 . S
C342 C341 1.363 . S
C342 N344 1.375 . S
C342 H360 0.931 . S
C343 N340 1.311 . S
C343 N344 1.347 . S
C343 H354 0.929 . S
N344 C342 1.375 . S
N344 C343 1.347 . S
C345 C348 1.365 . S
C345 N350 1.328 . S
C345 H351 0.929 . S
C346 C347 1.362 . S
C346 C349 1.378 . S
C346 H361 0.929 . S
C347 C346 1.362 . S
C347 C348 1.366 . S
C348 C345 1.365 . S
C348 C347 1.366 . S
C348 H362 0.930 . S
C349 C346 1.378 . S
C349 N350 1.315 . S
C349 H352 0.930 . S
N350 Co330 2.194 . S
N350 C345 1.328 . S
N350 C349 1.315 . S
H351 C345 0.929 . S
H352 C349 0.930 . S
H353 C341 0.929 . S
H354 C343 0.929 . S
O355 Co330 2.351 . S
O355 C358 1.244 . S
O356 Co330 2.155 . S
O356 C358 1.240 . S
O357 Co330 2.096 . S
O357 C338 1.247 . S
C358 O355 1.244 . S
C358 O356 1.240 . S
H359 C333 0.931 . S
H360 C342 0.931 . S
H361 C346 0.929 . S
H362 C348 0.930 . S
Co363 N367 2.148 . S
Co363 N373 2.128 . S
Co363 N383 2.194 . S
Co363 O388 2.351 . S
Co363 O389 2.155 . S
Co363 O390 2.096 . S
C364 N367 1.301 . S
C364 N368 1.328 . S
C364 H369 0.930 . S
C365 C366 1.333 . S
C365 N367 1.317 . S
C365 H370 0.930 . S
C366 C365 1.333 . S
C366 N368 1.350 . S
C366 H392 0.931 . S
N367 Co363 2.148 . S
N367 C364 1.301 . S
N367 C365 1.317 . S
N368 C364 1.328 . S
N368 C366 1.350 . S
H369 C364 0.930 . S
H370 C365 0.930 . S
C371 O372 1.224 . S
C371 O390 1.247 . S
O372 C371 1.224 . S
N373 Co363 2.128 . S
N373 C374 1.355 . S
N373 C376 1.311 . S
C374 N373 1.355 . S
C374 C375 1.363 . S
C374 H386 0.929 . S
C375 C374 1.363 . S
C375 N377 1.375 . S
C375 H393 0.931 . S
C376 N373 1.311 . S
C376 N377 1.347 . S
C376 H387 0.929 . S
N377 C375 1.375 . S
N377 C376 1.347 . S
C378 C381 1.365 . S
C378 N383 1.328 . S
C378 H384 0.929 . S
C379 C380 1.362 . S
C379 C382 1.378 . S
C379 H394 0.929 . S
C380 C379 1.362 . S
C380 C381 1.366 . S
C381 C378 1.365 . S
C381 C380 1.366 . S
C381 H395 0.930 . S
C382 C379 1.378 . S
C382 N383 1.315 . S
C382 H385 0.930 . S
N383 Co363 2.194 . S
N383 C378 1.328 . S
N383 C382 1.315 . S
H384 C378 0.929 . S
H385 C382 0.930 . S
H386 C374 0.929 . S
H387 C376 0.929 . S
O388 Co363 2.351 . S
O388 C391 1.244 . S
O389 Co363 2.155 . S
O389 C391 1.240 . S
O390 Co363 2.096 . S
O390 C371 1.247 . S
C391 O388 1.244 . S
C391 O389 1.240 . S
H392 C366 0.931 . S
H393 C375 0.931 . S
H394 C379 0.929 . S
H395 C381 0.930 . S
Co396 N400 2.148 . S
Co396 N406 2.128 . S
Co396 N416 2.194 . S
Co396 O421 2.351 . S
Co396 O422 2.155 . S
Co396 O423 2.096 . S
C397 N400 1.301 . S
C397 N401 1.328 . S
C397 H402 0.930 . S
C398 C399 1.333 . S
C398 N400 1.317 . S
C398 H403 0.930 . S
C399 C398 1.333 . S
C399 N401 1.350 . S
C399 H425 0.931 . S
N400 Co396 2.148 . S
N400 C397 1.301 . S
N400 C398 1.317 . S
N401 C397 1.328 . S
N401 C399 1.350 . S
H402 C397 0.930 . S
H403 C398 0.930 . S
C404 O405 1.224 . S
C404 O423 1.247 . S
O405 C404 1.224 . S
N406 Co396 2.128 . S
N406 C407 1.355 . S
N406 C409 1.311 . S
C407 N406 1.355 . S
C407 C408 1.363 . S
C407 H419 0.929 . S
C408 C407 1.363 . S
C408 N410 1.375 . S
C408 H426 0.931 . S
C409 N406 1.311 . S
C409 N410 1.347 . S
C409 H420 0.929 . S
N410 C408 1.375 . S
N410 C409 1.347 . S
C411 C414 1.365 . S
C411 N416 1.328 . S
C411 H417 0.929 . S
C412 C413 1.362 . S
C412 C415 1.378 . S
C412 H427 0.929 . S
C413 C412 1.362 . S
C413 C414 1.366 . S
C414 C411 1.365 . S
C414 C413 1.366 . S
C414 H428 0.930 . S
C415 C412 1.378 . S
C415 N416 1.315 . S
C415 H418 0.930 . S
N416 Co396 2.194 . S
N416 C411 1.328 . S
N416 C415 1.315 . S
H417 C411 0.929 . S
H418 C415 0.930 . S
H419 C407 0.929 . S
H420 C409 0.929 . S
O421 Co396 2.351 . S
O421 C424 1.244 . S
O422 Co396 2.155 . S
O422 C424 1.240 . S
O423 Co396 2.096 . S
O423 C404 1.247 . S
C424 O421 1.244 . S
C424 O422 1.240 . S
H425 C399 0.931 . S
H426 C408 0.931 . S
H427 C412 0.929 . S
H428 C414 0.930 . S
Co429 N433 2.148 . S
Co429 N439 2.128 . S
Co429 N449 2.194 . S
Co429 O454 2.351 . S
Co429 O455 2.155 . S
Co429 O456 2.096 . S
C430 N433 1.301 . S
C430 N434 1.328 . S
C430 H435 0.930 . S
C431 C432 1.333 . S
C431 N433 1.317 . S
C431 H436 0.930 . S
C432 C431 1.333 . S
C432 N434 1.350 . S
C432 H458 0.931 . S
N433 Co429 2.148 . S
N433 C430 1.301 . S
N433 C431 1.317 . S
N434 C430 1.328 . S
N434 C432 1.350 . S
H435 C430 0.930 . S
H436 C431 0.930 . S
C437 O438 1.224 . S
C437 O456 1.247 . S
O438 C437 1.224 . S
N439 Co429 2.128 . S
N439 C440 1.355 . S
N439 C442 1.311 . S
C440 N439 1.355 . S
C440 C441 1.363 . S
C440 H452 0.929 . S
C441 C440 1.363 . S
C441 N443 1.375 . S
C441 H459 0.931 . S
C442 N439 1.311 . S
C442 N443 1.347 . S
C442 H453 0.929 . S
N443 C441 1.375 . S
N443 C442 1.347 . S
C444 C447 1.365 . S
C444 N449 1.328 . S
C444 H450 0.929 . S
C445 C446 1.362 . S
C445 C448 1.378 . S
C445 H460 0.929 . S
C446 C445 1.362 . S
C446 C447 1.366 . S
C447 C444 1.365 . S
C447 C446 1.366 . S
C447 H461 0.930 . S
C448 C445 1.378 . S
C448 N449 1.315 . S
C448 H451 0.930 . S
N449 Co429 2.194 . S
N449 C444 1.328 . S
N449 C448 1.315 . S
H450 C444 0.929 . S
H451 C448 0.930 . S
H452 C440 0.929 . S
H453 C442 0.929 . S
O454 Co429 2.351 . S
O454 C457 1.244 . S
O455 Co429 2.155 . S
O455 C457 1.240 . S
O456 Co429 2.096 . S
O456 C437 1.247 . S
C457 O454 1.244 . S
C457 O455 1.240 . S
H458 C432 0.931 . S
H459 C441 0.931 . S
H460 C445 0.929 . S
H461 C447 0.930 . S
Co462 N466 2.148 . S
Co462 N472 2.128 . S
Co462 N482 2.194 . S
Co462 O487 2.351 . S
Co462 O488 2.155 . S
Co462 O489 2.096 . S
C463 N466 1.301 . S
C463 N467 1.328 . S
C463 H468 0.930 . S
C464 C465 1.333 . S
C464 N466 1.317 . S
C464 H469 0.930 . S
C465 C464 1.333 . S
C465 N467 1.350 . S
C465 H491 0.931 . S
N466 Co462 2.148 . S
N466 C463 1.301 . S
N466 C464 1.317 . S
N467 C463 1.328 . S
N467 C465 1.350 . S
H468 C463 0.930 . S
H469 C464 0.930 . S
C470 O471 1.224 . S
C470 O489 1.247 . S
O471 C470 1.224 . S
N472 Co462 2.128 . S
N472 C473 1.355 . S
N472 C475 1.311 . S
C473 N472 1.355 . S
C473 C474 1.363 . S
C473 H485 0.929 . S
C474 C473 1.363 . S
C474 N476 1.375 . S
C474 H492 0.931 . S
C475 N472 1.311 . S
C475 N476 1.347 . S
C475 H486 0.929 . S
N476 C474 1.375 . S
N476 C475 1.347 . S
C477 C480 1.365 . S
C477 N482 1.328 . S
C477 H483 0.929 . S
C478 C479 1.362 . S
C478 C481 1.378 . S
C478 H493 0.929 . S
C479 C478 1.362 . S
C479 C480 1.366 . S
C480 C477 1.365 . S
C480 C479 1.366 . S
C480 H494 0.930 . S
C481 C478 1.378 . S
C481 N482 1.315 . S
C481 H484 0.930 . S
N482 Co462 2.194 . S
N482 C477 1.328 . S
N482 C481 1.315 . S
H483 C477 0.929 . S
H484 C481 0.930 . S
H485 C473 0.929 . S
H486 C475 0.929 . S
O487 Co462 2.351 . S
O487 C490 1.244 . S
O488 Co462 2.155 . S
O488 C490 1.240 . S
O489 Co462 2.096 . S
O489 C470 1.247 . S
C490 O487 1.244 . S
C490 O488 1.240 . S
H491 C465 0.931 . S
H492 C474 0.931 . S
H493 C478 0.929 . S
H494 C480 0.930 . S
Co495 N499 2.148 . S
Co495 N505 2.128 . S
Co495 N515 2.194 . S
Co495 O520 2.351 . S
Co495 O521 2.155 . S
Co495 O522 2.096 . S
C496 N499 1.301 . S
C496 N500 1.328 . S
C496 H501 0.930 . S
C497 C498 1.333 . S
C497 N499 1.317 . S
C497 H502 0.930 . S
C498 C497 1.333 . S
C498 N500 1.350 . S
C498 H524 0.931 . S
N499 Co495 2.148 . S
N499 C496 1.301 . S
N499 C497 1.317 . S
N500 C496 1.328 . S
N500 C498 1.350 . S
H501 C496 0.930 . S
H502 C497 0.930 . S
C503 O504 1.224 . S
C503 O522 1.247 . S
O504 C503 1.224 . S
N505 Co495 2.128 . S
N505 C506 1.355 . S
N505 C508 1.311 . S
C506 N505 1.355 . S
C506 C507 1.363 . S
C506 H518 0.929 . S
C507 C506 1.363 . S
C507 N509 1.375 . S
C507 H525 0.931 . S
C508 N505 1.311 . S
C508 N509 1.347 . S
C508 H519 0.929 . S
N509 C507 1.375 . S
N509 C508 1.347 . S
C510 C513 1.365 . S
C510 N515 1.328 . S
C510 H516 0.929 . S
C511 C512 1.362 . S
C511 C514 1.378 . S
C511 H526 0.929 . S
C512 C511 1.362 . S
C512 C513 1.366 . S
C513 C510 1.365 . S
C513 C512 1.366 . S
C513 H527 0.930 . S
C514 C511 1.378 . S
C514 N515 1.315 . S
C514 H517 0.930 . S
N515 Co495 2.194 . S
N515 C510 1.328 . S
N515 C514 1.315 . S
H516 C510 0.929 . S
H517 C514 0.930 . S
H518 C506 0.929 . S
H519 C508 0.929 . S
O520 Co495 2.351 . S
O520 C523 1.244 . S
O521 Co495 2.155 . S
O521 C523 1.240 . S
O522 Co495 2.096 . S
O522 C503 1.247 . S
C523 O520 1.244 . S
C523 O521 1.240 . S
H524 C498 0.931 . S
H525 C507 0.931 . S
H526 C511 0.929 . S
H527 C513 0.930 . S
Co528 N532 2.148 . S
Co528 N538 2.128 . S
Co528 N548 2.194 . S
Co528 O553 2.351 . S
Co528 O554 2.155 . S
Co528 O555 2.096 . S
C529 N532 1.301 . S
C529 N533 1.328 . S
C529 H534 0.930 . S
C530 C531 1.333 . S
C530 N532 1.317 . S
C530 H535 0.930 . S
C531 C530 1.333 . S
C531 N533 1.350 . S
C531 H557 0.931 . S
N532 Co528 2.148 . S
N532 C529 1.301 . S
N532 C530 1.317 . S
N533 C529 1.328 . S
N533 C531 1.350 . S
H534 C529 0.930 . S
H535 C530 0.930 . S
C536 O537 1.224 . S
C536 O555 1.247 . S
O537 C536 1.224 . S
N538 Co528 2.128 . S
N538 C539 1.355 . S
N538 C541 1.311 . S
C539 N538 1.355 . S
C539 C540 1.363 . S
C539 H551 0.929 . S
C540 C539 1.363 . S
C540 N542 1.375 . S
C540 H558 0.931 . S
C541 N538 1.311 . S
C541 N542 1.347 . S
C541 H552 0.929 . S
N542 C540 1.375 . S
N542 C541 1.347 . S
C543 C546 1.365 . S
C543 N548 1.328 . S
C543 H549 0.929 . S
C544 C545 1.362 . S
C544 C547 1.378 . S
C544 H559 0.929 . S
C545 C544 1.362 . S
C545 C546 1.366 . S
C546 C543 1.365 . S
C546 C545 1.366 . S
C546 H560 0.930 . S
C547 C544 1.378 . S
C547 N548 1.315 . S
C547 H550 0.930 . S
N548 Co528 2.194 . S
N548 C543 1.328 . S
N548 C547 1.315 . S
H549 C543 0.929 . S
H550 C547 0.930 . S
H551 C539 0.929 . S
H552 C541 0.929 . S
O553 Co528 2.351 . S
O553 C556 1.244 . S
O554 Co528 2.155 . S
O554 C556 1.240 . S
O555 Co528 2.096 . S
O555 C536 1.247 . S
C556 O553 1.244 . S
C556 O554 1.240 . S
H557 C531 0.931 . S
H558 C540 0.931 . S
H559 C544 0.929 . S
H560 C546 0.930 . S
Co561 N565 2.148 . S
Co561 N571 2.128 . S
Co561 N581 2.194 . S
Co561 O586 2.351 . S
Co561 O587 2.155 . S
Co561 O588 2.096 . S
C562 N565 1.301 . S
C562 N566 1.328 . S
C562 H567 0.930 . S
C563 C564 1.333 . S
C563 N565 1.317 . S
C563 H568 0.930 . S
C564 C563 1.333 . S
C564 N566 1.350 . S
C564 H590 0.931 . S
N565 Co561 2.148 . S
N565 C562 1.301 . S
N565 C563 1.317 . S
N566 C562 1.328 . S
N566 C564 1.350 . S
H567 C562 0.930 . S
H568 C563 0.930 . S
C569 O570 1.224 . S
C569 O588 1.247 . S
O570 C569 1.224 . S
N571 Co561 2.128 . S
N571 C572 1.355 . S
N571 C574 1.311 . S
C572 N571 1.355 . S
C572 C573 1.363 . S
C572 H584 0.929 . S
C573 C572 1.363 . S
C573 N575 1.375 . S
C573 H591 0.931 . S
C574 N571 1.311 . S
C574 N575 1.347 . S
C574 H585 0.929 . S
N575 C573 1.375 . S
N575 C574 1.347 . S
C576 C579 1.365 . S
C576 N581 1.328 . S
C576 H582 0.929 . S
C577 C578 1.362 . S
C577 C580 1.378 . S
C577 H592 0.929 . S
C578 C577 1.362 . S
C578 C579 1.366 . S
C579 C576 1.365 . S
C579 C578 1.366 . S
C579 H593 0.930 . S
C580 C577 1.378 . S
C580 N581 1.315 . S
C580 H583 0.930 . S
N581 Co561 2.194 . S
N581 C576 1.328 . S
N581 C580 1.315 . S
H582 C576 0.929 . S
H583 C580 0.930 . S
H584 C572 0.929 . S
H585 C574 0.929 . S
O586 Co561 2.351 . S
O586 C589 1.244 . S
O587 Co561 2.155 . S
O587 C589 1.240 . S
O588 Co561 2.096 . S
O588 C569 1.247 . S
C589 O586 1.244 . S
C589 O587 1.240 . S
H590 C564 0.931 . S
H591 C573 0.931 . S
H592 C577 0.929 . S
H593 C579 0.930 . S
Co594 N598 2.148 . S
Co594 N604 2.128 . S
Co594 N614 2.194 . S
Co594 O619 2.351 . S
Co594 O620 2.155 . S
Co594 O621 2.096 . S
C595 N598 1.301 . S
C595 N599 1.328 . S
C595 H600 0.930 . S
C596 C597 1.333 . S
C596 N598 1.317 . S
C596 H601 0.930 . S
C597 C596 1.333 . S
C597 N599 1.350 . S
C597 H623 0.931 . S
N598 Co594 2.148 . S
N598 C595 1.301 . S
N598 C596 1.317 . S
N599 C595 1.328 . S
N599 C597 1.350 . S
H600 C595 0.930 . S
H601 C596 0.930 . S
C602 O603 1.224 . S
C602 O621 1.247 . S
O603 C602 1.224 . S
N604 Co594 2.128 . S
N604 C605 1.355 . S
N604 C607 1.311 . S
C605 N604 1.355 . S
C605 C606 1.363 . S
C605 H617 0.929 . S
C606 C605 1.363 . S
C606 N608 1.375 . S
C606 H624 0.931 . S
C607 N604 1.311 . S
C607 N608 1.347 . S
C607 H618 0.929 . S
N608 C606 1.375 . S
N608 C607 1.347 . S
C609 C612 1.365 . S
C609 N614 1.328 . S
C609 H615 0.929 . S
C610 C611 1.362 . S
C610 C613 1.378 . S
C610 H625 0.929 . S
C611 C610 1.362 . S
C611 C612 1.366 . S
C612 C609 1.365 . S
C612 C611 1.366 . S
C612 H626 0.930 . S
C613 C610 1.378 . S
C613 N614 1.315 . S
C613 H616 0.930 . S
N614 Co594 2.194 . S
N614 C609 1.328 . S
N614 C613 1.315 . S
H615 C609 0.929 . S
H616 C613 0.930 . S
H617 C605 0.929 . S
H618 C607 0.929 . S
O619 Co594 2.351 . S
O619 C622 1.244 . S
O620 Co594 2.155 . S
O620 C622 1.240 . S
O621 Co594 2.096 . S
O621 C602 1.247 . S
C622 O619 1.244 . S
C622 O620 1.240 . S
H623 C597 0.931 . S
H624 C606 0.931 . S
H625 C610 0.929 . S
H626 C612 0.930 . S
Co627 N631 2.148 . S
Co627 N637 2.128 . S
Co627 N647 2.194 . S
Co627 O652 2.351 . S
Co627 O653 2.155 . S
Co627 O654 2.096 . S
C628 N631 1.301 . S
C628 N632 1.328 . S
C628 H633 0.930 . S
C629 C630 1.333 . S
C629 N631 1.317 . S
C629 H634 0.930 . S
C630 C629 1.333 . S
C630 N632 1.350 . S
C630 H656 0.931 . S
N631 Co627 2.148 . S
N631 C628 1.301 . S
N631 C629 1.317 . S
N632 C628 1.328 . S
N632 C630 1.350 . S
H633 C628 0.930 . S
H634 C629 0.930 . S
C635 O636 1.224 . S
C635 O654 1.247 . S
O636 C635 1.224 . S
N637 Co627 2.128 . S
N637 C638 1.355 . S
N637 C640 1.311 . S
C638 N637 1.355 . S
C638 C639 1.363 . S
C638 H650 0.929 . S
C639 C638 1.363 . S
C639 N641 1.375 . S
C639 H657 0.931 . S
C640 N637 1.311 . S
C640 N641 1.347 . S
C640 H651 0.929 . S
N641 C639 1.375 . S
N641 C640 1.347 . S
C642 C645 1.365 . S
C642 N647 1.328 . S
C642 H648 0.929 . S
C643 C644 1.362 . S
C643 C646 1.378 . S
C643 H658 0.929 . S
C644 C643 1.362 . S
C644 C645 1.366 . S
C645 C642 1.365 . S
C645 C644 1.366 . S
C645 H659 0.930 . S
C646 C643 1.378 . S
C646 N647 1.315 . S
C646 H649 0.930 . S
N647 Co627 2.194 . S
N647 C642 1.328 . S
N647 C646 1.315 . S
H648 C642 0.929 . S
H649 C646 0.930 . S
H650 C638 0.929 . S
H651 C640 0.929 . S
O652 Co627 2.351 . S
O652 C655 1.244 . S
O653 Co627 2.155 . S
O653 C655 1.240 . S
O654 Co627 2.096 . S
O654 C635 1.247 . S
C655 O652 1.244 . S
C655 O653 1.240 . S
H656 C630 0.931 . S
H657 C639 0.931 . S
H658 C643 0.929 . S
H659 C645 0.930 . S
Co660 N664 2.148 . S
Co660 N670 2.128 . S
Co660 N680 2.194 . S
Co660 O685 2.351 . S
Co660 O686 2.155 . S
Co660 O687 2.096 . S
C661 N664 1.301 . S
C661 N665 1.328 . S
C661 H666 0.930 . S
C662 C663 1.333 . S
C662 N664 1.317 . S
C662 H667 0.930 . S
C663 C662 1.333 . S
C663 N665 1.350 . S
C663 H689 0.931 . S
N664 Co660 2.148 . S
N664 C661 1.301 . S
N664 C662 1.317 . S
N665 C661 1.328 . S
N665 C663 1.350 . S
H666 C661 0.930 . S
H667 C662 0.930 . S
C668 O669 1.224 . S
C668 O687 1.247 . S
O669 C668 1.224 . S
N670 Co660 2.128 . S
N670 C671 1.355 . S
N670 C673 1.311 . S
C671 N670 1.355 . S
C671 C672 1.363 . S
C671 H683 0.929 . S
C672 C671 1.363 . S
C672 N674 1.375 . S
C672 H690 0.931 . S
C673 N670 1.311 . S
C673 N674 1.347 . S
C673 H684 0.929 . S
N674 C672 1.375 . S
N674 C673 1.347 . S
C675 C678 1.365 . S
C675 N680 1.328 . S
C675 H681 0.929 . S
C676 C677 1.362 . S
C676 C679 1.378 . S
C676 H691 0.929 . S
C677 C676 1.362 . S
C677 C678 1.366 . S
C678 C675 1.365 . S
C678 C677 1.366 . S
C678 H692 0.930 . S
C679 C676 1.378 . S
C679 N680 1.315 . S
C679 H682 0.930 . S
N680 Co660 2.194 . S
N680 C675 1.328 . S
N680 C679 1.315 . S
H681 C675 0.929 . S
H682 C679 0.930 . S
H683 C671 0.929 . S
H684 C673 0.929 . S
O685 Co660 2.351 . S
O685 C688 1.244 . S
O686 Co660 2.155 . S
O686 C688 1.240 . S
O687 Co660 2.096 . S
O687 C668 1.247 . S
C688 O685 1.244 . S
C688 O686 1.240 . S
H689 C663 0.931 . S
H690 C672 0.931 . S
H691 C676 0.929 . S
H692 C678 0.930 . S
Co693 N697 2.148 . S
Co693 N703 2.128 . S
Co693 N713 2.194 . S
Co693 O718 2.351 . S
Co693 O719 2.155 . S
Co693 O720 2.096 . S
C694 N697 1.301 . S
C694 N698 1.328 . S
C694 H699 0.930 . S
C695 C696 1.333 . S
C695 N697 1.317 . S
C695 H700 0.930 . S
C696 C695 1.333 . S
C696 N698 1.350 . S
C696 H722 0.931 . S
N697 Co693 2.148 . S
N697 C694 1.301 . S
N697 C695 1.317 . S
N698 C694 1.328 . S
N698 C696 1.350 . S
H699 C694 0.930 . S
H700 C695 0.930 . S
C701 O702 1.224 . S
C701 O720 1.247 . S
O702 C701 1.224 . S
N703 Co693 2.128 . S
N703 C704 1.355 . S
N703 C706 1.311 . S
C704 N703 1.355 . S
C704 C705 1.363 . S
C704 H716 0.929 . S
C705 C704 1.363 . S
C705 N707 1.375 . S
C705 H723 0.931 . S
C706 N703 1.311 . S
C706 N707 1.347 . S
C706 H717 0.929 . S
N707 C705 1.375 . S
N707 C706 1.347 . S
C708 C711 1.365 . S
C708 N713 1.328 . S
C708 H714 0.929 . S
C709 C710 1.362 . S
C709 C712 1.378 . S
C709 H724 0.929 . S
C710 C709 1.362 . S
C710 C711 1.366 . S
C711 C708 1.365 . S
C711 C710 1.366 . S
C711 H725 0.930 . S
C712 C709 1.378 . S
C712 N713 1.315 . S
C712 H715 0.930 . S
N713 Co693 2.194 . S
N713 C708 1.328 . S
N713 C712 1.315 . S
H714 C708 0.929 . S
H715 C712 0.930 . S
H716 C704 0.929 . S
H717 C706 0.929 . S
O718 Co693 2.351 . S
O718 C721 1.244 . S
O719 Co693 2.155 . S
O719 C721 1.240 . S
O720 Co693 2.096 . S
O720 C701 1.247 . S
C721 O718 1.244 . S
C721 O719 1.240 . S
H722 C696 0.931 . S
H723 C705 0.931 . S
H724 C709 0.929 . S
H725 C711 0.930 . S
Co726 N730 2.148 . S
Co726 N736 2.128 . S
Co726 N746 2.194 . S
Co726 O751 2.351 . S
Co726 O752 2.155 . S
Co726 O753 2.096 . S
C727 N730 1.301 . S
C727 N731 1.328 . S
C727 H732 0.930 . S
C728 C729 1.333 . S
C728 N730 1.317 . S
C728 H733 0.930 . S
C729 C728 1.333 . S
C729 N731 1.350 . S
C729 H755 0.931 . S
N730 Co726 2.148 . S
N730 C727 1.301 . S
N730 C728 1.317 . S
N731 C727 1.328 . S
N731 C729 1.350 . S
H732 C727 0.930 . S
H733 C728 0.930 . S
C734 O735 1.224 . S
C734 O753 1.247 . S
O735 C734 1.224 . S
N736 Co726 2.128 . S
N736 C737 1.355 . S
N736 C739 1.311 . S
C737 N736 1.355 . S
C737 C738 1.363 . S
C737 H749 0.929 . S
C738 C737 1.363 . S
C738 N740 1.375 . S
C738 H756 0.931 . S
C739 N736 1.311 . S
C739 N740 1.347 . S
C739 H750 0.929 . S
N740 C738 1.375 . S
N740 C739 1.347 . S
C741 C744 1.365 . S
C741 N746 1.328 . S
C741 H747 0.929 . S
C742 C743 1.362 . S
C742 C745 1.378 . S
C742 H757 0.929 . S
C743 C742 1.362 . S
C743 C744 1.366 . S
C744 C741 1.365 . S
C744 C743 1.366 . S
C744 H758 0.930 . S
C745 C742 1.378 . S
C745 N746 1.315 . S
C745 H748 0.930 . S
N746 Co726 2.194 . S
N746 C741 1.328 . S
N746 C745 1.315 . S
H747 C741 0.929 . S
H748 C745 0.930 . S
H749 C737 0.929 . S
H750 C739 0.929 . S
O751 Co726 2.351 . S
O751 C754 1.244 . S
O752 Co726 2.155 . S
O752 C754 1.240 . S
O753 Co726 2.096 . S
O753 C734 1.247 . S
C754 O751 1.244 . S
C754 O752 1.240 . S
H755 C729 0.931 . S
H756 C738 0.931 . S
H757 C742 0.929 . S
H758 C744 0.930 . S
Co759 N763 2.148 . S
Co759 N769 2.128 . S
Co759 N779 2.194 . S
Co759 O784 2.351 . S
Co759 O785 2.155 . S
Co759 O786 2.096 . S
C760 N763 1.301 . S
C760 N764 1.328 . S
C760 H765 0.930 . S
C761 C762 1.333 . S
C761 N763 1.317 . S
C761 H766 0.930 . S
C762 C761 1.333 . S
C762 N764 1.350 . S
C762 H788 0.931 . S
N763 Co759 2.148 . S
N763 C760 1.301 . S
N763 C761 1.317 . S
N764 C760 1.328 . S
N764 C762 1.350 . S
H765 C760 0.930 . S
H766 C761 0.930 . S
C767 O768 1.224 . S
C767 O786 1.247 . S
O768 C767 1.224 . S
N769 Co759 2.128 . S
N769 C770 1.355 . S
N769 C772 1.311 . S
C770 N769 1.355 . S
C770 C771 1.363 . S
C770 H782 0.929 . S
C771 C770 1.363 . S
C771 N773 1.375 . S
C771 H789 0.931 . S
C772 N769 1.311 . S
C772 N773 1.347 . S
C772 H783 0.929 . S
N773 C771 1.375 . S
N773 C772 1.347 . S
C774 C777 1.365 . S
C774 N779 1.328 . S
C774 H780 0.929 . S
C775 C776 1.362 . S
C775 C778 1.378 . S
C775 H790 0.929 . S
C776 C775 1.362 . S
C776 C777 1.366 . S
C777 C774 1.365 . S
C777 C776 1.366 . S
C777 H791 0.930 . S
C778 C775 1.378 . S
C778 N779 1.315 . S
C778 H781 0.930 . S
N779 Co759 2.194 . S
N779 C774 1.328 . S
N779 C778 1.315 . S
H780 C774 0.929 . S
H781 C778 0.930 . S
H782 C770 0.929 . S
H783 C772 0.929 . S
O784 Co759 2.351 . S
O784 C787 1.244 . S
O785 Co759 2.155 . S
O785 C787 1.240 . S
O786 Co759 2.096 . S
O786 C767 1.247 . S
C787 O784 1.244 . S
C787 O785 1.240 . S
H788 C762 0.931 . S
H789 C771 0.931 . S
H790 C775 0.929 . S
H791 C777 0.930 . S
H792 C800 0.950 . S
H793 C805 0.950 . S
H794 C802 0.950 . S
H795 C804 0.950 1_565 S
H796 C806 0.950 . S
H797 C808 0.950 . S
H798 C810 0.950 1_545 S
H799 C811 0.950 . S
C800 H792 0.950 . S
C800 C801 1.386 . S
C800 C802 1.391 . S
C801 C800 1.386 . S
C801 C805 1.393 . S
C802 H794 0.950 . S
C802 C800 1.391 . S
C802 C803 1.400 . S
C803 C802 1.400 . S
C803 C804 1.398 . S
C803 C809 1.491 1_545 S
C804 H795 0.950 1_545 S
C804 C803 1.398 . S
C804 C805 1.391 . S
C805 H793 0.950 . S
C805 C801 1.393 . S
C805 C804 1.391 . S
C806 H796 0.950 . S
C806 C807 1.386 . S
C806 C808 1.391 . S
C807 C806 1.386 . S
C807 C811 1.393 . S
C808 H797 0.950 . S
C808 C806 1.391 . S
C808 C809 1.400 . S
C809 C803 1.491 1_565 S
C809 C808 1.400 . S
C809 C810 1.398 . S
C810 H798 0.950 1_565 S
C810 C809 1.398 . S
C810 C811 1.391 . S
C811 H799 0.950 . S
C811 C807 1.393 . S
C811 C810 1.391 . S
H812 C820 0.950 . S
H813 C825 0.950 . S
H814 C822 0.950 . S
H815 C824 0.950 . S
H816 C826 0.950 . S
H817 C828 0.950 . S
H818 C830 0.950 . S
H819 C831 0.950 . S
C820 H812 0.950 . S
C820 C821 1.386 . S
C820 C822 1.391 . S
C821 C820 1.386 . S
C821 C825 1.393 . S
C822 H814 0.950 . S
C822 C820 1.391 . S
C822 C823 1.400 . S
C823 C822 1.400 . S
C823 C824 1.398 . S
C823 C829 1.491 . S
C824 H815 0.950 . S
C824 C823 1.398 . S
C824 C825 1.391 . S
C825 H813 0.950 . S
C825 C821 1.393 . S
C825 C824 1.391 . S
C826 H816 0.950 . S
C826 C827 1.386 . S
C826 C828 1.391 . S
C827 C826 1.386 . S
C827 C831 1.393 . S
C828 H817 0.950 . S
C828 C826 1.391 . S
C828 C829 1.400 . S
C829 C823 1.491 . S
C829 C828 1.400 . S
C829 C830 1.398 . S
C830 H818 0.950 . S
C830 C829 1.398 . S
C830 C831 1.391 . S
C831 H819 0.950 . S
C831 C827 1.393 . S
C831 C830 1.391 . S
H832 C840 0.950 . S
H833 C845 0.950 . S
H834 C842 0.950 . S
H835 C844 0.950 1_655 S
H836 C846 0.950 . S
H837 C848 0.950 . S
H838 C850 0.950 1_455 S
H839 C851 0.950 . S
C840 H832 0.950 . S
C840 C841 1.386 . S
C840 C842 1.391 . S
C841 C840 1.386 . S
C841 C845 1.393 . S
C842 H834 0.950 . S
C842 C840 1.391 . S
C842 C843 1.400 . S
C843 C842 1.400 . S
C843 C844 1.398 . S
C843 C849 1.491 1_455 S
C844 H835 0.950 1_455 S
C844 C843 1.398 . S
C844 C845 1.391 . S
C845 H833 0.950 . S
C845 C841 1.393 . S
C845 C844 1.391 . S
C846 H836 0.950 . S
C846 C847 1.386 . S
C846 C848 1.391 . S
C847 C846 1.386 . S
C847 C851 1.393 . S
C848 H837 0.950 . S
C848 C846 1.391 . S
C848 C849 1.400 . S
C849 C843 1.491 1_655 S
C849 C848 1.400 . S
C849 C850 1.398 . S
C850 H838 0.950 1_655 S
C850 C849 1.398 . S
C850 C851 1.391 . S
C851 H839 0.950 . S
C851 C847 1.393 . S
C851 C850 1.391 . S
H852 C860 0.950 . S
H853 C865 0.950 . S
H854 C862 0.950 . S
H855 C864 0.950 1_655 S
H856 C866 0.950 . S
H857 C868 0.950 . S
H858 C870 0.950 1_455 S
H859 C871 0.950 . S
C860 H852 0.950 . S
C860 C861 1.386 . S
C860 C862 1.391 . S
C861 C860 1.386 . S
C861 C865 1.393 . S
C862 H854 0.950 . S
C862 C860 1.391 . S
C862 C863 1.400 . S
C863 C862 1.400 . S
C863 C864 1.398 . S
C863 C869 1.491 1_455 S
C864 H855 0.950 1_455 S
C864 C863 1.398 . S
C864 C865 1.391 . S
C865 H853 0.950 . S
C865 C861 1.393 . S
C865 C864 1.391 . S
C866 H856 0.950 . S
C866 C867 1.386 . S
C866 C868 1.391 . S
C867 C866 1.386 . S
C867 C871 1.393 . S
C868 H857 0.950 . S
C868 C866 1.391 . S
C868 C869 1.400 . S
C869 C863 1.491 1_655 S
C869 C868 1.400 . S
C869 C870 1.398 . S
C870 H858 0.950 1_655 S
C870 C869 1.398 . S
C870 C871 1.391 . S
C871 H859 0.950 . S
C871 C867 1.393 . S
C871 C870 1.391 . S
H872 C880 0.950 . S
H873 C885 0.950 . S
H874 C882 0.950 1_545 S
H875 C884 0.950 . S
H876 C886 0.950 . S
H877 C888 0.950 1_565 S
H878 C890 0.950 . S
H879 C891 0.950 . S
C880 H872 0.950 . S
C880 C881 1.386 . S
C880 C882 1.391 . S
C881 C880 1.386 . S
C881 C885 1.393 . S
C882 H874 0.950 1_565 S
C882 C880 1.391 . S
C882 C883 1.400 . S
C883 C882 1.400 . S
C883 C884 1.398 . S
C883 C889 1.491 1_565 S
C884 H875 0.950 . S
C884 C883 1.398 . S
C884 C885 1.391 . S
C885 H873 0.950 . S
C885 C881 1.393 . S
C885 C884 1.391 . S
C886 H876 0.950 . S
C886 C887 1.386 . S
C886 C888 1.391 . S
C887 C886 1.386 . S
C887 C891 1.393 . S
C888 H877 0.950 1_545 S
C888 C886 1.391 . S
C888 C889 1.400 . S
C889 C883 1.491 1_545 S
C889 C888 1.400 . S
C889 C890 1.398 . S
C890 H878 0.950 . S
C890 C889 1.398 . S
C890 C891 1.391 . S
C891 H879 0.950 . S
C891 C887 1.393 . S
C891 C890 1.391 . S
H892 C900 0.950 . S
H893 C905 0.950 . S
H894 C902 0.950 . S
H895 C904 0.950 . S
H896 C906 0.950 . S
H897 C908 0.950 . S
H898 C910 0.950 . S
H899 C911 0.950 . S
C900 H892 0.950 . S
C900 C901 1.386 . S
C900 C902 1.391 . S
C901 C900 1.386 . S
C901 C905 1.393 . S
C902 H894 0.950 . S
C902 C900 1.391 . S
C902 C903 1.400 . S
C903 C902 1.400 . S
C903 C904 1.398 . S
C903 C909 1.491 . S
C904 H895 0.950 . S
C904 C903 1.398 . S
C904 C905 1.391 . S
C905 H893 0.950 . S
C905 C901 1.393 . S
C905 C904 1.391 . S
C906 H896 0.950 . S
C906 C907 1.386 . S
C906 C908 1.391 . S
C907 C906 1.386 . S
C907 C911 1.393 . S
C908 H897 0.950 . S
C908 C906 1.391 . S
C908 C909 1.400 . S
C909 C903 1.491 . S
C909 C908 1.400 . S
C909 C910 1.398 . S
C910 H898 0.950 . S
C910 C909 1.398 . S
C910 C911 1.391 . S
C911 H899 0.950 . S
C911 C907 1.393 . S
C911 C910 1.391 . S
H912 C920 0.950 . S
H913 C925 0.950 . S
H914 C922 0.950 . S
H915 C924 0.950 1_565 S
H916 C926 0.950 . S
H917 C928 0.950 . S
H918 C930 0.950 1_545 S
H919 C931 0.950 . S
C920 H912 0.950 . S
C920 C921 1.386 . S
C920 C922 1.391 . S
C921 C920 1.386 . S
C921 C925 1.393 . S
C922 H914 0.950 . S
C922 C920 1.391 . S
C922 C923 1.400 . S
C923 C922 1.400 . S
C923 C924 1.398 . S
C923 C929 1.491 1_545 S
C924 H915 0.950 1_545 S
C924 C923 1.398 . S
C924 C925 1.391 . S
C925 H913 0.950 . S
C925 C921 1.393 . S
C925 C924 1.391 . S
C926 H916 0.950 . S
C926 C927 1.386 . S
C926 C928 1.391 . S
C927 C926 1.386 . S
C927 C931 1.393 . S
C928 H917 0.950 . S
C928 C926 1.391 . S
C928 C929 1.400 . S
C929 C923 1.491 1_565 S
C929 C928 1.400 . S
C929 C930 1.398 . S
C930 H918 0.950 1_565 S
C930 C929 1.398 . S
C930 C931 1.391 . S
C931 H919 0.950 . S
C931 C927 1.393 . S
C931 C930 1.391 . S
H932 C940 0.950 . S
H933 C945 0.950 . S
H934 C942 0.950 . S
H935 C944 0.950 . S
H936 C946 0.950 . S
H937 C948 0.950 . S
H938 C950 0.950 . S
H939 C951 0.950 . S
C940 H932 0.950 . S
C940 C941 1.386 . S
C940 C942 1.391 . S
C941 C940 1.386 . S
C941 C945 1.393 . S
C942 H934 0.950 . S
C942 C940 1.391 . S
C942 C943 1.400 . S
C943 C942 1.400 . S
C943 C944 1.398 . S
C943 C949 1.491 . S
C944 H935 0.950 . S
C944 C943 1.398 . S
C944 C945 1.391 . S
C945 H933 0.950 . S
C945 C941 1.393 . S
C945 C944 1.391 . S
C946 H936 0.950 . S
C946 C947 1.386 . S
C946 C948 1.391 . S
C947 C946 1.386 . S
C947 C951 1.393 . S
C948 H937 0.950 . S
C948 C946 1.391 . S
C948 C949 1.400 . S
C949 C943 1.491 . S
C949 C948 1.400 . S
C949 C950 1.398 . S
C950 H938 0.950 . S
C950 C949 1.398 . S
C950 C951 1.391 . S
C951 H939 0.950 . S
C951 C947 1.393 . S
C951 C950 1.391 . S
H952 C960 0.950 . S
H953 C965 0.950 . S
H954 C962 0.950 . S
H955 C964 0.950 . S
H956 C966 0.950 . S
H957 C968 0.950 . S
H958 C970 0.950 . S
H959 C971 0.950 . S
C960 H952 0.950 . S
C960 C961 1.386 . S
C960 C962 1.391 . S
C961 C960 1.386 . S
C961 C965 1.393 . S
C962 H954 0.950 . S
C962 C960 1.391 . S
C962 C963 1.400 . S
C963 C962 1.400 . S
C963 C964 1.398 . S
C963 C969 1.491 1_655 S
C964 H955 0.950 . S
C964 C963 1.398 . S
C964 C965 1.391 . S
C965 H953 0.950 . S
C965 C961 1.393 . S
C965 C964 1.391 . S
C966 H956 0.950 . S
C966 C967 1.386 . S
C966 C968 1.391 . S
C967 C966 1.386 . S
C967 C971 1.393 . S
C968 H957 0.950 . S
C968 C966 1.391 . S
C968 C969 1.400 . S
C969 C963 1.491 1_455 S
C969 C968 1.400 . S
C969 C970 1.398 . S
C970 H958 0.950 . S
C970 C969 1.398 . S
C970 C971 1.391 . S
C971 H959 0.950 . S
C971 C967 1.393 . S
C971 C970 1.391 . S
H972 C980 0.950 . S
H973 C985 0.950 . S
H974 C982 0.950 . S
H975 C984 0.950 . S
H976 C986 0.950 . S
H977 C988 0.950 . S
H978 C990 0.950 . S
H979 C991 0.950 . S
C980 H972 0.950 . S
C980 C981 1.386 . S
C980 C982 1.391 . S
C981 C980 1.386 . S
C981 C985 1.393 . S
C982 H974 0.950 . S
C982 C980 1.391 . S
C982 C983 1.400 . S
C983 C982 1.400 . S
C983 C984 1.398 . S
C983 C989 1.491 1_655 S
C984 H975 0.950 . S
C984 C983 1.398 . S
C984 C985 1.391 . S
C985 H973 0.950 . S
C985 C981 1.393 . S
C985 C984 1.391 . S
C986 H976 0.950 . S
C986 C987 1.386 . S
C986 C988 1.391 . S
C987 C986 1.386 . S
C987 C991 1.393 . S
C988 H977 0.950 . S
C988 C986 1.391 . S
C988 C989 1.400 . S
C989 C983 1.491 1_455 S
C989 C988 1.400 . S
C989 C990 1.398 . S
C990 H978 0.950 . S
C990 C989 1.398 . S
C990 C991 1.391 . S
C991 H979 0.950 . S
C991 C987 1.393 . S
C991 C990 1.391 . S
H992 C1000 0.950 . S
H993 C1005 0.950 . S
H994 C1002 0.950 . S
H995 C1004 0.950 1_565 S
H996 C1006 0.950 . S
H997 C1008 0.950 . S
H998 C1010 0.950 1_545 S
H999 C1011 0.950 . S
C1000 H992 0.950 . S
C1000 C1001 1.386 . S
C1000 C1002 1.391 . S
C1001 C1000 1.386 . S
C1001 C1005 1.393 . S
C1002 H994 0.950 . S
C1002 C1000 1.391 . S
C1002 C1003 1.400 . S
C1003 C1002 1.400 . S
C1003 C1004 1.398 . S
C1003 C1009 1.491 1_545 S
C1004 H995 0.950 1_545 S
C1004 C1003 1.398 . S
C1004 C1005 1.391 . S
C1005 H993 0.950 . S
C1005 C1001 1.393 . S
C1005 C1004 1.391 . S
C1006 H996 0.950 . S
C1006 C1007 1.386 . S
C1006 C1008 1.391 . S
C1007 C1006 1.386 . S
C1007 C1011 1.393 . S
C1008 H997 0.950 . S
C1008 C1006 1.391 . S
C1008 C1009 1.400 . S
C1009 C1003 1.491 1_565 S
C1009 C1008 1.400 . S
C1009 C1010 1.398 . S
C1010 H998 0.950 1_565 S
C1010 C1009 1.398 . S
C1010 C1011 1.391 . S
C1011 H999 0.950 . S
C1011 C1007 1.393 . S
C1011 C1010 1.391 . S
H1012 C1020 0.950 . S
H1013 C1025 0.950 . S
H1014 C1022 0.950 . S
H1015 C1024 0.950 . S
H1016 C1026 0.950 . S
H1017 C1028 0.950 . S
H1018 C1030 0.950 . S
H1019 C1031 0.950 . S
C1020 H1012 0.950 . S
C1020 C1021 1.386 . S
C1020 C1022 1.391 . S
C1021 C1020 1.386 . S
C1021 C1025 1.393 . S
C1022 H1014 0.950 . S
C1022 C1020 1.391 . S
C1022 C1023 1.400 . S
C1023 C1022 1.400 . S
C1023 C1024 1.398 . S
C1023 C1029 1.491 . S
C1024 H1015 0.950 . S
C1024 C1023 1.398 . S
C1024 C1025 1.391 . S
C1025 H1013 0.950 . S
C1025 C1021 1.393 . S
C1025 C1024 1.391 . S
C1026 H1016 0.950 . S
C1026 C1027 1.386 . S
C1026 C1028 1.391 . S
C1027 C1026 1.386 . S
C1027 C1031 1.393 . S
C1028 H1017 0.950 . S
C1028 C1026 1.391 . S
C1028 C1029 1.400 . S
C1029 C1023 1.491 . S
C1029 C1028 1.400 . S
C1029 C1030 1.398 . S
C1030 H1018 0.950 . S
C1030 C1029 1.398 . S
C1030 C1031 1.391 . S
C1031 H1019 0.950 . S
C1031 C1027 1.393 . S
C1031 C1030 1.391 . S
H1032 C1040 0.950 . S
H1033 C1045 0.950 . S
H1034 C1042 0.950 . S
H1035 C1044 0.950 . S
H1036 C1046 0.950 . S
H1037 C1048 0.950 . S
H1038 C1050 0.950 . S
H1039 C1051 0.950 . S
C1040 H1032 0.950 . S
C1040 C1041 1.386 . S
C1040 C1042 1.391 . S
C1041 C1040 1.386 . S
C1041 C1045 1.393 . S
C1042 H1034 0.950 . S
C1042 C1040 1.391 . S
C1042 C1043 1.400 . S
C1043 C1042 1.400 . S
C1043 C1044 1.398 . S
C1043 C1049 1.491 . S
C1044 H1035 0.950 . S
C1044 C1043 1.398 . S
C1044 C1045 1.391 . S
C1045 H1033 0.950 . S
C1045 C1041 1.393 . S
C1045 C1044 1.391 . S
C1046 H1036 0.950 . S
C1046 C1047 1.386 . S
C1046 C1048 1.391 . S
C1047 C1046 1.386 . S
C1047 C1051 1.393 . S
C1048 H1037 0.950 . S
C1048 C1046 1.391 . S
C1048 C1049 1.400 . S
C1049 C1043 1.491 . S
C1049 C1048 1.400 . S
C1049 C1050 1.398 . S
C1050 H1038 0.950 . S
C1050 C1049 1.398 . S
C1050 C1051 1.391 . S
C1051 H1039 0.950 . S
C1051 C1047 1.393 . S
C1051 C1050 1.391 . S
H1052 C1060 0.950 . S
H1053 C1065 0.950 . S
H1054 C1062 0.950 . S
H1055 C1064 0.950 . S
H1056 C1066 0.950 . S
H1057 C1068 0.950 . S
H1058 C1070 0.950 . S
H1059 C1071 0.950 . S
C1060 H1052 0.950 . S
C1060 C1061 1.386 . S
C1060 C1062 1.391 . S
C1061 C1060 1.386 . S
C1061 C1065 1.393 . S
C1062 H1054 0.950 . S
C1062 C1060 1.391 . S
C1062 C1063 1.400 . S
C1063 C1062 1.400 . S
C1063 C1064 1.398 . S
C1063 C1069 1.491 . S
C1064 H1055 0.950 . S
C1064 C1063 1.398 . S
C1064 C1065 1.391 . S
C1065 H1053 0.950 . S
C1065 C1061 1.393 . S
C1065 C1064 1.391 . S
C1066 H1056 0.950 . S
C1066 C1067 1.386 . S
C1066 C1068 1.391 . S
C1067 C1066 1.386 . S
C1067 C1071 1.393 . S
C1068 H1057 0.950 . S
C1068 C1066 1.391 . S
C1068 C1069 1.400 . S
C1069 C1063 1.491 . S
C1069 C1068 1.400 . S
C1069 C1070 1.398 . S
C1070 H1058 0.950 . S
C1070 C1069 1.398 . S
C1070 C1071 1.391 . S
C1071 H1059 0.950 . S
C1071 C1067 1.393 . S
C1071 C1070 1.391 . S
H1072 C1080 0.950 . S
H1073 C1085 0.950 . S
H1074 C1082 0.950 . S
H1075 C1084 0.950 . S
H1076 C1086 0.950 . S
H1077 C1088 0.950 . S
H1078 C1090 0.950 . S
H1079 C1091 0.950 . S
C1080 H1072 0.950 . S
C1080 C1081 1.386 . S
C1080 C1082 1.391 . S
C1081 C1080 1.386 . S
C1081 C1085 1.393 . S
C1082 H1074 0.950 . S
C1082 C1080 1.391 . S
C1082 C1083 1.400 . S
C1083 C1082 1.400 . S
C1083 C1084 1.398 . S
C1083 C1089 1.491 . S
C1084 H1075 0.950 . S
C1084 C1083 1.398 . S
C1084 C1085 1.391 . S
C1085 H1073 0.950 . S
C1085 C1081 1.393 . S
C1085 C1084 1.391 . S
C1086 H1076 0.950 . S
C1086 C1087 1.386 . S
C1086 C1088 1.391 . S
C1087 C1086 1.386 . S
C1087 C1091 1.393 . S
C1088 H1077 0.950 . S
C1088 C1086 1.391 . S
C1088 C1089 1.400 . S
C1089 C1083 1.491 . S
C1089 C1088 1.400 . S
C1089 C1090 1.398 . S
C1090 H1078 0.950 . S
C1090 C1089 1.398 . S
C1090 C1091 1.391 . S
C1091 H1079 0.950 . S
C1091 C1087 1.393 . S
C1091 C1090 1.391 . S
H1092 C1100 0.950 . S
H1093 C1105 0.950 . S
H1094 C1102 0.950 . S
H1095 C1104 0.950 . S
H1096 C1106 0.950 . S
H1097 C1108 0.950 . S
H1098 C1110 0.950 . S
H1099 C1111 0.950 . S
C1100 H1092 0.950 . S
C1100 C1101 1.386 . S
C1100 C1102 1.391 . S
C1101 C1100 1.386 . S
C1101 C1105 1.393 . S
C1102 H1094 0.950 . S
C1102 C1100 1.391 . S
C1102 C1103 1.400 . S
C1103 C1102 1.400 . S
C1103 C1104 1.398 . S
C1103 C1109 1.491 . S
C1104 H1095 0.950 . S
C1104 C1103 1.398 . S
C1104 C1105 1.391 . S
C1105 H1093 0.950 . S
C1105 C1101 1.393 . S
C1105 C1104 1.391 . S
C1106 H1096 0.950 . S
C1106 C1107 1.386 . S
C1106 C1108 1.391 . S
C1107 C1106 1.386 . S
C1107 C1111 1.393 . S
C1108 H1097 0.950 . S
C1108 C1106 1.391 . S
C1108 C1109 1.400 . S
C1109 C1103 1.491 . S
C1109 C1108 1.400 . S
C1109 C1110 1.398 . S
C1110 H1098 0.950 . S
C1110 C1109 1.398 . S
C1110 C1111 1.391 . S
C1111 H1099 0.950 . S
C1111 C1107 1.393 . S
C1111 C1110 1.391 . S
H1112 C1120 0.950 . S
H1113 C1125 0.950 . S
H1114 C1122 0.950 . S
H1115 C1124 0.950 . S
H1116 C1126 0.950 . S
H1117 C1128 0.950 . S
H1118 C1130 0.950 . S
H1119 C1131 0.950 . S
C1120 H1112 0.950 . S
C1120 C1121 1.386 . S
C1120 C1122 1.391 . S
C1121 C1120 1.386 . S
C1121 C1125 1.393 . S
C1122 H1114 0.950 . S
C1122 C1120 1.391 . S
C1122 C1123 1.400 . S
C1123 C1122 1.400 . S
C1123 C1124 1.398 . S
C1123 C1129 1.491 . S
C1124 H1115 0.950 . S
C1124 C1123 1.398 . S
C1124 C1125 1.391 . S
C1125 H1113 0.950 . S
C1125 C1121 1.393 . S
C1125 C1124 1.391 . S
C1126 H1116 0.950 . S
C1126 C1127 1.386 . S
C1126 C1128 1.391 . S
C1127 C1126 1.386 . S
C1127 C1131 1.393 . S
C1128 H1117 0.950 . S
C1128 C1126 1.391 . S
C1128 C1129 1.400 . S
C1129 C1123 1.491 . S
C1129 C1128 1.400 . S
C1129 C1130 1.398 . S
C1130 H1118 0.950 . S
C1130 C1129 1.398 . S
C1130 C1131 1.391 . S
C1131 H1119 0.950 . S
C1131 C1127 1.393 . S
C1131 C1130 1.391 . S
H1132 C1140 0.950 . S
H1133 C1145 0.950 . S
H1134 C1142 0.950 . S
H1135 C1144 0.950 . S
H1136 C1146 0.950 . S
H1137 C1148 0.950 . S
H1138 C1150 0.950 . S
H1139 C1151 0.950 . S
C1140 H1132 0.950 . S
C1140 C1141 1.386 . S
C1140 C1142 1.391 . S
C1141 C1140 1.386 . S
C1141 C1145 1.393 . S
C1142 H1134 0.950 . S
C1142 C1140 1.391 . S
C1142 C1143 1.400 . S
C1143 C1142 1.400 . S
C1143 C1144 1.398 . S
C1143 C1149 1.491 . S
C1144 H1135 0.950 . S
C1144 C1143 1.398 . S
C1144 C1145 1.391 . S
C1145 H1133 0.950 . S
C1145 C1141 1.393 . S
C1145 C1144 1.391 . S
C1146 H1136 0.950 . S
C1146 C1147 1.386 . S
C1146 C1148 1.391 . S
C1147 C1146 1.386 . S
C1147 C1151 1.393 . S
C1148 H1137 0.950 . S
C1148 C1146 1.391 . S
C1148 C1149 1.400 . S
C1149 C1143 1.491 . S
C1149 C1148 1.400 . S
C1149 C1150 1.398 . S
C1150 H1138 0.950 . S
C1150 C1149 1.398 . S
C1150 C1151 1.391 . S
C1151 H1139 0.950 . S
C1151 C1147 1.393 . S
C1151 C1150 1.391 . S
H1152 C1160 0.950 . S
H1153 C1165 0.950 . S
H1154 C1162 0.950 . S
H1155 C1164 0.950 . S
H1156 C1166 0.950 . S
H1157 C1168 0.950 . S
H1158 C1170 0.950 . S
H1159 C1171 0.950 . S
C1160 H1152 0.950 . S
C1160 C1161 1.386 . S
C1160 C1162 1.391 . S
C1161 C1160 1.386 . S
C1161 C1165 1.393 . S
C1162 H1154 0.950 . S
C1162 C1160 1.391 . S
C1162 C1163 1.400 . S
C1163 C1162 1.400 . S
C1163 C1164 1.398 . S
C1163 C1169 1.491 . S
C1164 H1155 0.950 . S
C1164 C1163 1.398 . S
C1164 C1165 1.391 . S
C1165 H1153 0.950 . S
C1165 C1161 1.393 . S
C1165 C1164 1.391 . S
C1166 H1156 0.950 . S
C1166 C1167 1.386 . S
C1166 C1168 1.391 . S
C1167 C1166 1.386 . S
C1167 C1171 1.393 . S
C1168 H1157 0.950 . S
C1168 C1166 1.391 . S
C1168 C1169 1.400 . S
C1169 C1163 1.491 . S
C1169 C1168 1.400 . S
C1169 C1170 1.398 . S
C1170 H1158 0.950 . S
C1170 C1169 1.398 . S
C1170 C1171 1.391 . S
C1171 H1159 0.950 . S
C1171 C1167 1.393 . S
C1171 C1170 1.391 . S
H1172 C1180 0.950 . S
H1173 C1185 0.950 . S
H1174 C1182 0.950 . S
H1175 C1184 0.950 . S
H1176 C1186 0.950 . S
H1177 C1188 0.950 . S
H1178 C1190 0.950 . S
H1179 C1191 0.950 . S
C1180 H1172 0.950 . S
C1180 C1181 1.386 . S
C1180 C1182 1.391 . S
C1181 C1180 1.386 . S
C1181 C1185 1.393 . S
C1182 H1174 0.950 . S
C1182 C1180 1.391 . S
C1182 C1183 1.400 . S
C1183 C1182 1.400 . S
C1183 C1184 1.398 . S
C1183 C1189 1.491 . S
C1184 H1175 0.950 . S
C1184 C1183 1.398 . S
C1184 C1185 1.391 . S
C1185 H1173 0.950 . S
C1185 C1181 1.393 . S
C1185 C1184 1.391 . S
C1186 H1176 0.950 . S
C1186 C1187 1.386 . S
C1186 C1188 1.391 . S
C1187 C1186 1.386 . S
C1187 C1191 1.393 . S
C1188 H1177 0.950 . S
C1188 C1186 1.391 . S
C1188 C1189 1.400 . S
C1189 C1183 1.491 . S
C1189 C1188 1.400 . S
C1189 C1190 1.398 . S
C1190 H1178 0.950 . S
C1190 C1189 1.398 . S
C1190 C1191 1.391 . S
C1191 H1179 0.950 . S
C1191 C1187 1.393 . S
C1191 C1190 1.391 . S
H1192 C1200 0.950 . S
H1193 C1205 0.950 . S
H1194 C1202 0.950 . S
H1195 C1204 0.950 . S
H1196 C1206 0.950 . S
H1197 C1208 0.950 . S
H1198 C1210 0.950 . S
H1199 C1211 0.950 . S
C1200 H1192 0.950 . S
C1200 C1201 1.386 . S
C1200 C1202 1.391 . S
C1201 C1200 1.386 . S
C1201 C1205 1.393 . S
C1202 H1194 0.950 . S
C1202 C1200 1.391 . S
C1202 C1203 1.400 . S
C1203 C1202 1.400 . S
C1203 C1204 1.398 . S
C1203 C1209 1.491 . S
C1204 H1195 0.950 . S
C1204 C1203 1.398 . S
C1204 C1205 1.391 . S
C1205 H1193 0.950 . S
C1205 C1201 1.393 . S
C1205 C1204 1.391 . S
C1206 H1196 0.950 . S
C1206 C1207 1.386 . S
C1206 C1208 1.391 . S
C1207 C1206 1.386 . S
C1207 C1211 1.393 . S
C1208 H1197 0.950 . S
C1208 C1206 1.391 . S
C1208 C1209 1.400 . S
C1209 C1203 1.491 . S
C1209 C1208 1.400 . S
C1209 C1210 1.398 . S
C1210 H1198 0.950 . S
C1210 C1209 1.398 . S
C1210 C1211 1.391 . S
C1211 H1199 0.950 . S
C1211 C1207 1.393 . S
C1211 C1210 1.391 . S
H1212 C1220 0.950 . S
H1213 C1225 0.950 . S
H1214 C1222 0.950 . S
H1215 C1224 0.950 . S
H1216 C1226 0.950 . S
H1217 C1228 0.950 . S
H1218 C1230 0.950 . S
H1219 C1231 0.950 . S
C1220 H1212 0.950 . S
C1220 C1221 1.386 . S
C1220 C1222 1.391 . S
C1221 C1220 1.386 . S
C1221 C1225 1.393 . S
C1222 H1214 0.950 . S
C1222 C1220 1.391 . S
C1222 C1223 1.400 . S
C1223 C1222 1.400 . S
C1223 C1224 1.398 . S
C1223 C1229 1.491 . S
C1224 H1215 0.950 . S
C1224 C1223 1.398 . S
C1224 C1225 1.391 . S
C1225 H1213 0.950 . S
C1225 C1221 1.393 . S
C1225 C1224 1.391 . S
C1226 H1216 0.950 . S
C1226 C1227 1.386 . S
C1226 C1228 1.391 . S
C1227 C1226 1.386 . S
C1227 C1231 1.393 . S
C1228 H1217 0.950 . S
C1228 C1226 1.391 . S
C1228 C1229 1.400 . S
C1229 C1223 1.491 . S
C1229 C1228 1.400 . S
C1229 C1230 1.398 . S
C1230 H1218 0.950 . S
C1230 C1229 1.398 . S
C1230 C1231 1.391 . S
C1231 H1219 0.950 . S
C1231 C1227 1.393 . S
C1231 C1230 1.391 . S
H1232 C1240 0.950 . S
H1233 C1245 0.950 . S
H1234 C1242 0.950 . S
H1235 C1244 0.950 . S
H1236 C1246 0.950 . S
H1237 C1248 0.950 . S
H1238 C1250 0.950 . S
H1239 C1251 0.950 . S
C1240 H1232 0.950 . S
C1240 C1241 1.386 . S
C1240 C1242 1.391 . S
C1241 C1240 1.386 . S
C1241 C1245 1.393 . S
C1242 H1234 0.950 . S
C1242 C1240 1.391 . S
C1242 C1243 1.400 . S
C1243 C1242 1.400 . S
C1243 C1244 1.398 . S
C1243 C1249 1.491 . S
C1244 H1235 0.950 . S
C1244 C1243 1.398 . S
C1244 C1245 1.391 . S
C1245 H1233 0.950 . S
C1245 C1241 1.393 . S
C1245 C1244 1.391 . S
C1246 H1236 0.950 . S
C1246 C1247 1.386 . S
C1246 C1248 1.391 . S
C1247 C1246 1.386 . S
C1247 C1251 1.393 . S
C1248 H1237 0.950 . S
C1248 C1246 1.391 . S
C1248 C1249 1.400 . S
C1249 C1243 1.491 . S
C1249 C1248 1.400 . S
C1249 C1250 1.398 . S
C1250 H1238 0.950 . S
C1250 C1249 1.398 . S
C1250 C1251 1.391 . S
C1251 H1239 0.950 . S
C1251 C1247 1.393 . S
C1251 C1250 1.391 . S
H1252 C1260 0.950 . S
H1253 C1265 0.950 . S
H1254 C1262 0.950 . S
H1255 C1264 0.950 . S
H1256 C1266 0.950 . S
H1257 C1268 0.950 . S
H1258 C1270 0.950 . S
H1259 C1271 0.950 . S
C1260 H1252 0.950 . S
C1260 C1261 1.386 . S
C1260 C1262 1.391 . S
C1261 C1260 1.386 . S
C1261 C1265 1.393 . S
C1262 H1254 0.950 . S
C1262 C1260 1.391 . S
C1262 C1263 1.400 . S
C1263 C1262 1.400 . S
C1263 C1264 1.398 . S
C1263 C1269 1.491 . S
C1264 H1255 0.950 . S
C1264 C1263 1.398 . S
C1264 C1265 1.391 . S
C1265 H1253 0.950 . S
C1265 C1261 1.393 . S
C1265 C1264 1.391 . S
C1266 H1256 0.950 . S
C1266 C1267 1.386 . S
C1266 C1268 1.391 . S
C1267 C1266 1.386 . S
C1267 C1271 1.393 . S
C1268 H1257 0.950 . S
C1268 C1266 1.391 . S
C1268 C1269 1.400 . S
C1269 C1263 1.491 . S
C1269 C1268 1.400 . S
C1269 C1270 1.398 . S
C1270 H1258 0.950 . S
C1270 C1269 1.398 . S
C1270 C1271 1.391 . S
C1271 H1259 0.950 . S
C1271 C1267 1.393 . S
C1271 C1270 1.391 . S
H1272 C1280 0.950 . S
H1273 C1285 0.950 . S
H1274 C1282 0.950 . S
H1275 C1284 0.950 1_565 S
H1276 C1286 0.950 . S
H1277 C1288 0.950 . S
H1278 C1290 0.950 1_545 S
H1279 C1291 0.950 . S
C1280 H1272 0.950 . S
C1280 C1281 1.386 . S
C1280 C1282 1.391 . S
C1281 C1280 1.386 . S
C1281 C1285 1.393 . S
C1282 H1274 0.950 . S
C1282 C1280 1.391 . S
C1282 C1283 1.400 . S
C1283 C1282 1.400 . S
C1283 C1284 1.398 . S
C1283 C1289 1.491 1_545 S
C1284 H1275 0.950 1_545 S
C1284 C1283 1.398 . S
C1284 C1285 1.391 . S
C1285 H1273 0.950 . S
C1285 C1281 1.393 . S
C1285 C1284 1.391 . S
C1286 H1276 0.950 . S
C1286 C1287 1.386 . S
C1286 C1288 1.391 . S
C1287 C1286 1.386 . S
C1287 C1291 1.393 . S
C1288 H1277 0.950 . S
C1288 C1286 1.391 . S
C1288 C1289 1.400 . S
C1289 C1283 1.491 1_565 S
C1289 C1288 1.400 . S
C1289 C1290 1.398 . S
C1290 H1278 0.950 1_565 S
C1290 C1289 1.398 . S
C1290 C1291 1.391 . S
C1291 H1279 0.950 . S
C1291 C1287 1.393 . S
C1291 C1290 1.391 . S
H1292 C1300 0.950 . S
H1293 C1305 0.950 . S
H1294 C1302 0.950 . S
H1295 C1304 0.950 . S
H1296 C1306 0.950 . S
H1297 C1308 0.950 . S
H1298 C1310 0.950 . S
H1299 C1311 0.950 . S
C1300 H1292 0.950 . S
C1300 C1301 1.386 . S
C1300 C1302 1.391 . S
C1301 C1300 1.386 . S
C1301 C1305 1.393 . S
C1302 H1294 0.950 . S
C1302 C1300 1.391 . S
C1302 C1303 1.400 . S
C1303 C1302 1.400 . S
C1303 C1304 1.398 . S
C1303 C1309 1.491 . S
C1304 H1295 0.950 . S
C1304 C1303 1.398 . S
C1304 C1305 1.391 . S
C1305 H1293 0.950 . S
C1305 C1301 1.393 . S
C1305 C1304 1.391 . S
C1306 H1296 0.950 . S
C1306 C1307 1.386 . S
C1306 C1308 1.391 . S
C1307 C1306 1.386 . S
C1307 C1311 1.393 . S
C1308 H1297 0.950 . S
C1308 C1306 1.391 . S
C1308 C1309 1.400 . S
C1309 C1303 1.491 . S
C1309 C1308 1.400 . S
C1309 C1310 1.398 . S
C1310 H1298 0.950 . S
C1310 C1309 1.398 . S
C1310 C1311 1.391 . S
C1311 H1299 0.950 . S
C1311 C1307 1.393 . S
C1311 C1310 1.391 . S
H1312 C1320 0.950 . S
H1313 C1325 0.950 . S
H1314 C1322 0.950 1_655 S
H1315 C1324 0.950 . S
H1316 C1326 0.950 . S
H1317 C1328 0.950 1_455 S
H1318 C1330 0.950 . S
H1319 C1331 0.950 . S
C1320 H1312 0.950 . S
C1320 C1321 1.386 . S
C1320 C1322 1.391 . S
C1321 C1320 1.386 . S
C1321 C1325 1.393 . S
C1322 H1314 0.950 1_455 S
C1322 C1320 1.391 . S
C1322 C1323 1.400 . S
C1323 C1322 1.400 . S
C1323 C1324 1.398 . S
C1323 C1329 1.491 1_455 S
C1324 H1315 0.950 . S
C1324 C1323 1.398 . S
C1324 C1325 1.391 . S
C1325 H1313 0.950 . S
C1325 C1321 1.393 . S
C1325 C1324 1.391 . S
C1326 H1316 0.950 . S
C1326 C1327 1.386 . S
C1326 C1328 1.391 . S
C1327 C1326 1.386 . S
C1327 C1331 1.393 . S
C1328 H1317 0.950 1_655 S
C1328 C1326 1.391 . S
C1328 C1329 1.400 . S
C1329 C1323 1.491 1_655 S
C1329 C1328 1.400 . S
C1329 C1330 1.398 . S
C1330 H1318 0.950 . S
C1330 C1329 1.398 . S
C1330 C1331 1.391 . S
C1331 H1319 0.950 . S
C1331 C1327 1.393 . S
C1331 C1330 1.391 . S
H1332 C1340 0.950 . S
H1333 C1345 0.950 . S
H1334 C1342 0.950 . S
H1335 C1344 0.952 1_545 S
H1336 C1346 0.950 . S
H1337 C1348 0.950 . S
H1338 C1350 0.952 1_565 S
H1339 C1351 0.950 . S
C1340 H1332 0.950 . S
C1340 C1341 1.386 . S
C1340 C1342 1.391 . S
C1341 C1340 1.386 . S
C1341 C1345 1.393 . S
C1342 H1334 0.950 . S
C1342 C1340 1.391 . S
C1342 C1343 1.400 . S
C1343 C1342 1.400 . S
C1343 C1344 1.398 . S
C1343 C1349 1.491 1_565 S
C1344 H1335 0.952 1_565 S
C1344 C1343 1.398 . S
C1344 C1345 1.391 . S
C1345 H1333 0.950 . S
C1345 C1341 1.393 . S
C1345 C1344 1.391 . S
C1346 H1336 0.950 . S
C1346 C1347 1.386 . S
C1346 C1348 1.391 . S
C1347 C1346 1.386 . S
C1347 C1351 1.393 . S
C1348 H1337 0.950 . S
C1348 C1346 1.391 . S
C1348 C1349 1.400 . S
C1349 C1343 1.491 1_545 S
C1349 C1348 1.400 . S
C1349 C1350 1.398 . S
C1350 H1338 0.952 1_545 S
C1350 C1349 1.398 . S
C1350 C1351 1.391 . S
C1351 H1339 0.950 . S
C1351 C1347 1.393 . S
C1351 C1350 1.391 . S
H1352 C1360 0.950 . S
H1353 C1365 0.950 . S
H1354 C1362 0.950 . S
H1355 C1364 0.950 . S
H1356 C1366 0.950 . S
H1357 C1368 0.950 . S
H1358 C1370 0.950 . S
H1359 C1371 0.950 . S
C1360 H1352 0.950 . S
C1360 C1361 1.386 . S
C1360 C1362 1.391 . S
C1361 C1360 1.386 . S
C1361 C1365 1.393 . S
C1362 H1354 0.950 . S
C1362 C1360 1.391 . S
C1362 C1363 1.400 . S
C1363 C1362 1.400 . S
C1363 C1364 1.398 . S
C1363 C1369 1.491 . S
C1364 H1355 0.950 . S
C1364 C1363 1.398 . S
C1364 C1365 1.391 . S
C1365 H1353 0.950 . S
C1365 C1361 1.393 . S
C1365 C1364 1.391 . S
C1366 H1356 0.950 . S
C1366 C1367 1.386 . S
C1366 C1368 1.391 . S
C1367 C1366 1.386 . S
C1367 C1371 1.393 . S
C1368 H1357 0.950 . S
C1368 C1366 1.391 . S
C1368 C1369 1.400 . S
C1369 C1363 1.491 . S
C1369 C1368 1.400 . S
C1369 C1370 1.398 . S
C1370 H1358 0.950 . S
C1370 C1369 1.398 . S
C1370 C1371 1.391 . S
C1371 H1359 0.950 . S
C1371 C1367 1.393 . S
C1371 C1370 1.391 . S
H1372 C1380 0.950 . S
H1373 C1385 0.950 . S
H1374 C1382 0.950 . S
H1375 C1384 0.949 1_455 S
H1376 C1386 0.950 . S
H1377 C1388 0.950 . S
H1378 C1390 0.949 1_655 S
H1379 C1391 0.950 . S
C1380 H1372 0.950 . S
C1380 C1381 1.386 . S
C1380 C1382 1.391 . S
C1381 C1380 1.386 . S
C1381 C1385 1.393 . S
C1382 H1374 0.950 . S
C1382 C1380 1.391 . S
C1382 C1383 1.400 . S
C1383 C1382 1.400 . S
C1383 C1384 1.398 . S
C1383 C1389 1.491 1_655 S
C1384 H1375 0.949 1_655 S
C1384 C1383 1.398 . S
C1384 C1385 1.391 . S
C1385 H1373 0.950 . S
C1385 C1381 1.393 . S
C1385 C1384 1.391 . S
C1386 H1376 0.950 . S
C1386 C1387 1.386 . S
C1386 C1388 1.391 . S
C1387 C1386 1.386 . S
C1387 C1391 1.393 . S
C1388 H1377 0.950 . S
C1388 C1386 1.391 . S
C1388 C1389 1.400 . S
C1389 C1383 1.491 1_455 S
C1389 C1388 1.400 . S
C1389 C1390 1.398 . S
C1390 H1378 0.949 1_455 S
C1390 C1389 1.398 . S
C1390 C1391 1.391 . S
C1391 H1379 0.950 . S
C1391 C1387 1.393 . S
C1391 C1390 1.391 . S
H1392 C1400 0.950 . S
H1393 C1405 0.950 . S
H1394 C1402 0.950 1_545 S
H1395 C1404 0.950 . S
H1396 C1406 0.950 . S
H1397 C1408 0.950 1_565 S
H1398 C1410 0.950 . S
H1399 C1411 0.950 . S
C1400 H1392 0.950 . S
C1400 C1401 1.386 . S
C1400 C1402 1.391 . S
C1401 C1400 1.386 . S
C1401 C1405 1.393 . S
C1402 H1394 0.950 1_565 S
C1402 C1400 1.391 . S
C1402 C1403 1.400 . S
C1403 C1402 1.400 . S
C1403 C1404 1.398 . S
C1403 C1409 1.491 1_565 S
C1404 H1395 0.950 . S
C1404 C1403 1.398 . S
C1404 C1405 1.391 . S
C1405 H1393 0.950 . S
C1405 C1401 1.393 . S
C1405 C1404 1.391 . S
C1406 H1396 0.950 . S
C1406 C1407 1.386 . S
C1406 C1408 1.391 . S
C1407 C1406 1.386 . S
C1407 C1411 1.393 . S
C1408 H1397 0.950 1_545 S
C1408 C1406 1.391 . S
C1408 C1409 1.400 . S
C1409 C1403 1.491 1_545 S
C1409 C1408 1.400 . S
C1409 C1410 1.398 . S
C1410 H1398 0.950 . S
C1410 C1409 1.398 . S
C1410 C1411 1.391 . S
C1411 H1399 0.950 . S
C1411 C1407 1.393 . S
C1411 C1410 1.391 . S
H1412 C1420 0.950 . S
H1413 C1425 0.950 . S
H1414 C1422 0.950 . S
H1415 C1424 0.950 . S
H1416 C1426 0.950 . S
H1417 C1428 0.950 . S
H1418 C1430 0.950 . S
H1419 C1431 0.950 . S
C1420 H1412 0.950 . S
C1420 C1421 1.386 . S
C1420 C1422 1.391 . S
C1421 C1420 1.386 . S
C1421 C1425 1.393 . S
C1422 H1414 0.950 . S
C1422 C1420 1.391 . S
C1422 C1423 1.400 . S
C1423 C1422 1.400 . S
C1423 C1424 1.398 . S
C1423 C1429 1.491 . S
C1424 H1415 0.950 . S
C1424 C1423 1.398 . S
C1424 C1425 1.391 . S
C1425 H1413 0.950 . S
C1425 C1421 1.393 . S
C1425 C1424 1.391 . S
C1426 H1416 0.950 . S
C1426 C1427 1.386 . S
C1426 C1428 1.391 . S
C1427 C1426 1.386 . S
C1427 C1431 1.393 . S
C1428 H1417 0.950 . S
C1428 C1426 1.391 . S
C1428 C1429 1.400 . S
C1429 C1423 1.491 . S
C1429 C1428 1.400 . S
C1429 C1430 1.398 . S
C1430 H1418 0.950 . S
C1430 C1429 1.398 . S
C1430 C1431 1.391 . S
C1431 H1419 0.950 . S
C1431 C1427 1.393 . S
C1431 C1430 1.391 . S
H1432 C1440 0.950 . S
H1433 C1445 0.950 . S
H1434 C1442 0.950 . S
H1435 C1444 0.950 . S
H1436 C1446 0.950 . S
H1437 C1448 0.950 . S
H1438 C1450 0.950 . S
H1439 C1451 0.950 . S
C1440 H1432 0.950 . S
C1440 C1441 1.386 . S
C1440 C1442 1.391 . S
C1441 C1440 1.386 . S
C1441 C1445 1.393 . S
C1442 H1434 0.950 . S
C1442 C1440 1.391 . S
C1442 C1443 1.400 . S
C1443 C1442 1.400 . S
C1443 C1444 1.398 . S
C1443 C1449 1.491 1_455 S
C1444 H1435 0.950 . S
C1444 C1443 1.398 . S
C1444 C1445 1.391 . S
C1445 H1433 0.950 . S
C1445 C1441 1.393 . S
C1445 C1444 1.391 . S
C1446 H1436 0.950 . S
C1446 C1447 1.386 . S
C1446 C1448 1.391 . S
C1447 C1446 1.386 . S
C1447 C1451 1.393 . S
C1448 H1437 0.950 . S
C1448 C1446 1.391 . S
C1448 C1449 1.400 . S
C1449 C1443 1.491 1_655 S
C1449 C1448 1.400 . S
C1449 C1450 1.398 . S
C1450 H1438 0.950 . S
C1450 C1449 1.398 . S
C1450 C1451 1.391 . S
C1451 H1439 0.950 . S
C1451 C1447 1.393 . S
C1451 C1450 1.391 . S
H1452 C1460 0.950 . S
H1453 C1465 0.950 . S
H1454 C1462 0.950 . S
H1455 C1464 0.950 . S
H1456 C1466 0.950 . S
H1457 C1468 0.950 . S
H1458 C1470 0.950 . S
H1459 C1471 0.950 . S
C1460 H1452 0.950 . S
C1460 C1461 1.386 . S
C1460 C1462 1.391 . S
C1461 C1460 1.386 . S
C1461 C1465 1.393 . S
C1462 H1454 0.950 . S
C1462 C1460 1.391 . S
C1462 C1463 1.400 . S
C1463 C1462 1.400 . S
C1463 C1464 1.398 . S
C1463 C1469 1.491 1_545 S
C1464 H1455 0.950 . S
C1464 C1463 1.398 . S
C1464 C1465 1.391 . S
C1465 H1453 0.950 . S
C1465 C1461 1.393 . S
C1465 C1464 1.391 . S
C1466 H1456 0.950 . S
C1466 C1467 1.386 . S
C1466 C1468 1.391 . S
C1467 C1466 1.386 . S
C1467 C1471 1.393 . S
C1468 H1457 0.950 . S
C1468 C1466 1.391 . S
C1468 C1469 1.400 . S
C1469 C1463 1.491 1_565 S
C1469 C1468 1.400 . S
C1469 C1470 1.398 . S
C1470 H1458 0.950 . S
C1470 C1469 1.398 . S
C1470 C1471 1.391 . S
C1471 H1459 0.950 . S
C1471 C1467 1.393 . S
C1471 C1470 1.391 . S
H1472 C1480 0.950 . S
H1473 C1485 0.950 . S
H1474 C1482 0.950 . S
H1475 C1484 0.950 . S
H1476 C1486 0.950 . S
H1477 C1488 0.950 . S
H1478 C1490 0.950 . S
H1479 C1491 0.950 . S
C1480 H1472 0.950 . S
C1480 C1481 1.386 . S
C1480 C1482 1.391 . S
C1481 C1480 1.386 . S
C1481 C1485 1.393 . S
C1482 H1474 0.950 . S
C1482 C1480 1.391 . S
C1482 C1483 1.400 . S
C1483 C1482 1.400 . S
C1483 C1484 1.398 . S
C1483 C1489 1.491 . S
C1484 H1475 0.950 . S
C1484 C1483 1.398 . S
C1484 C1485 1.391 . S
C1485 H1473 0.950 . S
C1485 C1481 1.393 . S
C1485 C1484 1.391 . S
C1486 H1476 0.950 . S
C1486 C1487 1.386 . S
C1486 C1488 1.391 . S
C1487 C1486 1.386 . S
C1487 C1491 1.393 . S
C1488 H1477 0.950 . S
C1488 C1486 1.391 . S
C1488 C1489 1.400 . S
C1489 C1483 1.491 . S
C1489 C1488 1.400 . S
C1489 C1490 1.398 . S
C1490 H1478 0.950 . S
C1490 C1489 1.398 . S
C1490 C1491 1.391 . S
C1491 H1479 0.950 . S
C1491 C1487 1.393 . S
C1491 C1490 1.391 . S
H1492 C1500 0.950 . S
H1493 C1505 0.950 . S
H1494 C1502 0.938 1_655 S
H1495 C1504 0.950 . S
H1496 C1506 0.950 . S
H1497 C1508 0.938 1_455 S
H1498 C1510 0.950 . S
H1499 C1511 0.950 . S
C1500 H1492 0.950 . S
C1500 C1501 1.386 . S
C1500 C1502 1.391 . S
C1501 C1500 1.386 . S
C1501 C1505 1.393 . S
C1502 H1494 0.938 1_455 S
C1502 C1500 1.391 . S
C1502 C1503 1.400 . S
C1503 C1502 1.400 . S
C1503 C1504 1.398 . S
C1503 C1509 1.491 1_455 S
C1504 H1495 0.950 . S
C1504 C1503 1.398 . S
C1504 C1505 1.391 . S
C1505 H1493 0.950 . S
C1505 C1501 1.393 . S
C1505 C1504 1.391 . S
C1506 H1496 0.950 . S
C1506 C1507 1.386 . S
C1506 C1508 1.391 . S
C1507 C1506 1.386 . S
C1507 C1511 1.393 . S
C1508 H1497 0.938 1_655 S
C1508 C1506 1.391 . S
C1508 C1509 1.400 . S
C1509 C1503 1.491 1_655 S
C1509 C1508 1.400 . S
C1509 C1510 1.398 . S
C1510 H1498 0.950 . S
C1510 C1509 1.398 . S
C1510 C1511 1.391 . S
C1511 H1499 0.950 . S
C1511 C1507 1.393 . S
C1511 C1510 1.391 . S
H1512 C1520 0.950 . S
H1513 C1525 0.950 . S
H1514 C1522 0.950 . S
H1515 C1524 0.950 . S
H1516 C1526 0.950 . S
H1517 C1528 0.950 . S
H1518 C1530 0.950 . S
H1519 C1531 0.950 . S
C1520 H1512 0.950 . S
C1520 C1521 1.386 . S
C1520 C1522 1.391 . S
C1521 C1520 1.386 . S
C1521 C1525 1.393 . S
C1522 H1514 0.950 . S
C1522 C1520 1.391 . S
C1522 C1523 1.400 . S
C1523 C1522 1.400 . S
C1523 C1524 1.398 . S
C1523 C1529 1.491 . S
C1524 H1515 0.950 . S
C1524 C1523 1.398 . S
C1524 C1525 1.391 . S
C1525 H1513 0.950 . S
C1525 C1521 1.393 . S
C1525 C1524 1.391 . S
C1526 H1516 0.950 . S
C1526 C1527 1.386 . S
C1526 C1528 1.391 . S
C1527 C1526 1.386 . S
C1527 C1531 1.393 . S
C1528 H1517 0.950 . S
C1528 C1526 1.391 . S
C1528 C1529 1.400 . S
C1529 C1523 1.491 . S
C1529 C1528 1.400 . S
C1529 C1530 1.398 . S
C1530 H1518 0.950 . S
C1530 C1529 1.398 . S
C1530 C1531 1.391 . S
C1531 H1519 0.950 . S
C1531 C1527 1.393 . S
C1531 C1530 1.391 . S
H1532 C1540 0.950 . S
H1533 C1545 0.950 . S
H1534 C1542 0.950 . S
H1535 C1544 0.950 . S
H1536 C1546 0.950 . S
H1537 C1548 0.950 . S
H1538 C1550 0.950 . S
H1539 C1551 0.950 . S
C1540 H1532 0.950 . S
C1540 C1541 1.386 . S
C1540 C1542 1.391 . S
C1541 C1540 1.386 . S
C1541 C1545 1.393 . S
C1542 H1534 0.950 . S
C1542 C1540 1.391 . S
C1542 C1543 1.400 . S
C1543 C1542 1.400 . S
C1543 C1544 1.398 . S
C1543 C1549 1.491 . S
C1544 H1535 0.950 . S
C1544 C1543 1.398 . S
C1544 C1545 1.391 . S
C1545 H1533 0.950 . S
C1545 C1541 1.393 . S
C1545 C1544 1.391 . S
C1546 H1536 0.950 . S
C1546 C1547 1.386 . S
C1546 C1548 1.391 . S
C1547 C1546 1.386 . S
C1547 C1551 1.393 . S
C1548 H1537 0.950 . S
C1548 C1546 1.391 . S
C1548 C1549 1.400 . S
C1549 C1543 1.491 . S
C1549 C1548 1.400 . S
C1549 C1550 1.398 . S
C1550 H1538 0.950 . S
C1550 C1549 1.398 . S
C1550 C1551 1.391 . S
C1551 H1539 0.950 . S
C1551 C1547 1.393 . S
C1551 C1550 1.391 . S
H1552 C1560 0.950 . S
H1553 C1565 0.950 . S
H1554 C1562 0.950 . S
H1555 C1564 0.950 . S
H1556 C1566 0.950 . S
H1557 C1568 0.950 . S
H1558 C1570 0.950 . S
H1559 C1571 0.950 . S
C1560 H1552 0.950 . S
C1560 C1561 1.386 . S
C1560 C1562 1.391 . S
C1561 C1560 1.386 . S
C1561 C1565 1.393 . S
C1562 H1554 0.950 . S
C1562 C1560 1.391 . S
C1562 C1563 1.400 . S
C1563 C1562 1.400 . S
C1563 C1564 1.398 . S
C1563 C1569 1.491 . S
C1564 H1555 0.950 . S
C1564 C1563 1.398 . S
C1564 C1565 1.391 . S
C1565 H1553 0.950 . S
C1565 C1561 1.393 . S
C1565 C1564 1.391 . S
C1566 H1556 0.950 . S
C1566 C1567 1.386 . S
C1566 C1568 1.391 . S
C1567 C1566 1.386 . S
C1567 C1571 1.393 . S
C1568 H1557 0.950 . S
C1568 C1566 1.391 . S
C1568 C1569 1.400 . S
C1569 C1563 1.491 . S
C1569 C1568 1.400 . S
C1569 C1570 1.398 . S
C1570 H1558 0.950 . S
C1570 C1569 1.398 . S
C1570 C1571 1.391 . S
C1571 H1559 0.950 . S
C1571 C1567 1.393 . S
C1571 C1570 1.391 . S
H1572 C1580 0.950 . S
H1573 C1585 0.950 . S
H1574 C1582 0.950 . S
H1575 C1584 0.950 . S
H1576 C1586 0.950 . S
H1577 C1588 0.950 . S
H1578 C1590 0.950 . S
H1579 C1591 0.950 . S
C1580 H1572 0.950 . S
C1580 C1581 1.386 . S
C1580 C1582 1.391 . S
C1581 C1580 1.386 . S
C1581 C1585 1.393 . S
C1582 H1574 0.950 . S
C1582 C1580 1.391 . S
C1582 C1583 1.400 . S
C1583 C1582 1.400 . S
C1583 C1584 1.398 . S
C1583 C1589 1.491 . S
C1584 H1575 0.950 . S
C1584 C1583 1.398 . S
C1584 C1585 1.391 . S
C1585 H1573 0.950 . S
C1585 C1581 1.393 . S
C1585 C1584 1.391 . S
C1586 H1576 0.950 . S
C1586 C1587 1.386 . S
C1586 C1588 1.391 . S
C1587 C1586 1.386 . S
C1587 C1591 1.393 . S
C1588 H1577 0.950 . S
C1588 C1586 1.391 . S
C1588 C1589 1.400 . S
C1589 C1583 1.491 . S
C1589 C1588 1.400 . S
C1589 C1590 1.398 . S
C1590 H1578 0.950 . S
C1590 C1589 1.398 . S
C1590 C1591 1.391 . S
C1591 H1579 0.950 . S
C1591 C1587 1.393 . S
C1591 C1590 1.391 . S
H1592 C1600 0.950 . S
H1593 C1605 0.950 . S
H1594 C1602 0.950 . S
H1595 C1604 0.950 . S
H1596 C1606 0.950 . S
H1597 C1608 0.950 . S
H1598 C1610 0.950 . S
H1599 C1611 0.950 . S
C1600 H1592 0.950 . S
C1600 C1601 1.386 . S
C1600 C1602 1.391 . S
C1601 C1600 1.386 . S
C1601 C1605 1.393 . S
C1602 H1594 0.950 . S
C1602 C1600 1.391 . S
C1602 C1603 1.400 . S
C1603 C1602 1.400 . S
C1603 C1604 1.398 . S
C1603 C1609 1.491 . S
C1604 H1595 0.950 . S
C1604 C1603 1.398 . S
C1604 C1605 1.391 . S
C1605 H1593 0.950 . S
C1605 C1601 1.393 . S
C1605 C1604 1.391 . S
C1606 H1596 0.950 . S
C1606 C1607 1.386 . S
C1606 C1608 1.391 . S
C1607 C1606 1.386 . S
C1607 C1611 1.393 . S
C1608 H1597 0.950 . S
C1608 C1606 1.391 . S
C1608 C1609 1.400 . S
C1609 C1603 1.491 . S
C1609 C1608 1.400 . S
C1609 C1610 1.398 . S
C1610 H1598 0.950 . S
C1610 C1609 1.398 . S
C1610 C1611 1.391 . S
C1611 H1599 0.950 . S
C1611 C1607 1.393 . S
C1611 C1610 1.391 . S
H1612 C1620 0.950 . S
H1613 C1625 0.950 . S
H1614 C1622 0.950 . S
H1615 C1624 0.950 . S
H1616 C1626 0.950 . S
H1617 C1628 0.950 . S
H1618 C1630 0.950 . S
H1619 C1631 0.950 . S
C1620 H1612 0.950 . S
C1620 C1621 1.386 . S
C1620 C1622 1.391 . S
C1621 C1620 1.386 . S
C1621 C1625 1.393 . S
C1622 H1614 0.950 . S
C1622 C1620 1.391 . S
C1622 C1623 1.400 . S
C1623 C1622 1.400 . S
C1623 C1624 1.398 . S
C1623 C1629 1.491 . S
C1624 H1615 0.950 . S
C1624 C1623 1.398 . S
C1624 C1625 1.391 . S
C1625 H1613 0.950 . S
C1625 C1621 1.393 . S
C1625 C1624 1.391 . S
C1626 H1616 0.950 . S
C1626 C1627 1.386 . S
C1626 C1628 1.391 . S
C1627 C1626 1.386 . S
C1627 C1631 1.393 . S
C1628 H1617 0.950 . S
C1628 C1626 1.391 . S
C1628 C1629 1.400 . S
C1629 C1623 1.491 . S
C1629 C1628 1.400 . S
C1629 C1630 1.398 . S
C1630 H1618 0.950 . S
C1630 C1629 1.398 . S
C1630 C1631 1.391 . S
C1631 H1619 0.950 . S
C1631 C1627 1.393 . S
C1631 C1630 1.391 . S
H1632 C1640 0.950 . S
H1633 C1645 0.950 . S
H1634 C1642 0.950 . S
H1635 C1644 0.950 . S
H1636 C1646 0.950 . S
H1637 C1648 0.950 . S
H1638 C1650 0.950 . S
H1639 C1651 0.950 . S
C1640 H1632 0.950 . S
C1640 C1641 1.386 . S
C1640 C1642 1.391 . S
C1641 C1640 1.386 . S
C1641 C1645 1.393 . S
C1642 H1634 0.950 . S
C1642 C1640 1.391 . S
C1642 C1643 1.400 . S
C1643 C1642 1.400 . S
C1643 C1644 1.398 . S
C1643 C1649 1.491 . S
C1644 H1635 0.950 . S
C1644 C1643 1.398 . S
C1644 C1645 1.391 . S
C1645 H1633 0.950 . S
C1645 C1641 1.393 . S
C1645 C1644 1.391 . S
C1646 H1636 0.950 . S
C1646 C1647 1.386 . S
C1646 C1648 1.391 . S
C1647 C1646 1.386 . S
C1647 C1651 1.393 . S
C1648 H1637 0.950 . S
C1648 C1646 1.391 . S
C1648 C1649 1.400 . S
C1649 C1643 1.491 . S
C1649 C1648 1.400 . S
C1649 C1650 1.398 . S
C1650 H1638 0.950 . S
C1650 C1649 1.398 . S
C1650 C1651 1.391 . S
C1651 H1639 0.950 . S
C1651 C1647 1.393 . S
C1651 C1650 1.391 . S
H1652 C1660 0.950 . S
H1653 C1665 0.950 . S
H1654 C1662 0.950 . S
H1655 C1664 0.950 . S
H1656 C1666 0.950 . S
H1657 C1668 0.950 . S
H1658 C1670 0.950 . S
H1659 C1671 0.950 . S
C1660 H1652 0.950 . S
C1660 C1661 1.386 . S
C1660 C1662 1.391 . S
C1661 C1660 1.386 . S
C1661 C1665 1.393 . S
C1662 H1654 0.950 . S
C1662 C1660 1.391 . S
C1662 C1663 1.400 . S
C1663 C1662 1.400 . S
C1663 C1664 1.398 . S
C1663 C1669 1.491 . S
C1664 H1655 0.950 . S
C1664 C1663 1.398 . S
C1664 C1665 1.391 . S
C1665 H1653 0.950 . S
C1665 C1661 1.393 . S
C1665 C1664 1.391 . S
C1666 H1656 0.950 . S
C1666 C1667 1.386 . S
C1666 C1668 1.391 . S
C1667 C1666 1.386 . S
C1667 C1671 1.393 . S
C1668 H1657 0.950 . S
C1668 C1666 1.391 . S
C1668 C1669 1.400 . S
C1669 C1663 1.491 . S
C1669 C1668 1.400 . S
C1669 C1670 1.398 . S
C1670 H1658 0.950 . S
C1670 C1669 1.398 . S
C1670 C1671 1.391 . S
C1671 H1659 0.950 . S
C1671 C1667 1.393 . S
C1671 C1670 1.391 . S
H1672 C1680 0.950 . S
H1673 C1685 0.950 . S
H1674 C1682 0.950 . S
H1675 C1684 0.950 . S
H1676 C1686 0.950 . S
H1677 C1688 0.950 . S
H1678 C1690 0.950 . S
H1679 C1691 0.950 . S
C1680 H1672 0.950 . S
C1680 C1681 1.386 . S
C1680 C1682 1.391 . S
C1681 C1680 1.386 . S
C1681 C1685 1.393 . S
C1682 H1674 0.950 . S
C1682 C1680 1.391 . S
C1682 C1683 1.400 . S
C1683 C1682 1.400 . S
C1683 C1684 1.398 . S
C1683 C1689 1.491 . S
C1684 H1675 0.950 . S
C1684 C1683 1.398 . S
C1684 C1685 1.391 . S
C1685 H1673 0.950 . S
C1685 C1681 1.393 . S
C1685 C1684 1.391 . S
C1686 H1676 0.950 . S
C1686 C1687 1.386 . S
C1686 C1688 1.391 . S
C1687 C1686 1.386 . S
C1687 C1691 1.393 . S
C1688 H1677 0.950 . S
C1688 C1686 1.391 . S
C1688 C1689 1.400 . S
C1689 C1683 1.491 . S
C1689 C1688 1.400 . S
C1689 C1690 1.398 . S
C1690 H1678 0.950 . S
C1690 C1689 1.398 . S
C1690 C1691 1.391 . S
C1691 H1679 0.950 . S
C1691 C1687 1.393 . S
C1691 C1690 1.391 . S
H1692 C1700 0.950 . S
H1693 C1705 0.950 . S
H1694 C1702 0.950 . S
H1695 C1704 0.950 . S
H1696 C1706 0.950 . S
H1697 C1708 0.950 . S
H1698 C1710 0.950 . S
H1699 C1711 0.950 . S
C1700 H1692 0.950 . S
C1700 C1701 1.386 . S
C1700 C1702 1.391 . S
C1701 C1700 1.386 . S
C1701 C1705 1.393 . S
C1702 H1694 0.950 . S
C1702 C1700 1.391 . S
C1702 C1703 1.400 . S
C1703 C1702 1.400 . S
C1703 C1704 1.398 . S
C1703 C1709 1.491 . S
C1704 H1695 0.950 . S
C1704 C1703 1.398 . S
C1704 C1705 1.391 . S
C1705 H1693 0.950 . S
C1705 C1701 1.393 . S
C1705 C1704 1.391 . S
C1706 H1696 0.950 . S
C1706 C1707 1.386 . S
C1706 C1708 1.391 . S
C1707 C1706 1.386 . S
C1707 C1711 1.393 . S
C1708 H1697 0.950 . S
C1708 C1706 1.391 . S
C1708 C1709 1.400 . S
C1709 C1703 1.491 . S
C1709 C1708 1.400 . S
C1709 C1710 1.398 . S
C1710 H1698 0.950 . S
C1710 C1709 1.398 . S
C1710 C1711 1.391 . S
C1711 H1699 0.950 . S
C1711 C1707 1.393 . S
C1711 C1710 1.391 . S
H1712 C1720 0.950 . S
H1713 C1725 0.950 . S
H1714 C1722 0.950 . S
H1715 C1724 0.950 . S
H1716 C1726 0.950 . S
H1717 C1728 0.950 . S
H1718 C1730 0.950 . S
H1719 C1731 0.950 . S
C1720 H1712 0.950 . S
C1720 C1721 1.386 . S
C1720 C1722 1.391 . S
C1721 C1720 1.386 . S
C1721 C1725 1.393 . S
C1722 H1714 0.950 . S
C1722 C1720 1.391 . S
C1722 C1723 1.400 . S
C1723 C1722 1.400 . S
C1723 C1724 1.398 . S
C1723 C1729 1.491 . S
C1724 H1715 0.950 . S
C1724 C1723 1.398 . S
C1724 C1725 1.391 . S
C1725 H1713 0.950 . S
C1725 C1721 1.393 . S
C1725 C1724 1.391 . S
C1726 H1716 0.950 . S
C1726 C1727 1.386 . S
C1726 C1728 1.391 . S
C1727 C1726 1.386 . S
C1727 C1731 1.393 . S
C1728 H1717 0.950 . S
C1728 C1726 1.391 . S
C1728 C1729 1.400 . S
C1729 C1723 1.491 . S
C1729 C1728 1.400 . S
C1729 C1730 1.398 . S
C1730 H1718 0.950 . S
C1730 C1729 1.398 . S
C1730 C1731 1.391 . S
C1731 H1719 0.950 . S
C1731 C1727 1.393 . S
C1731 C1730 1.391 . S
H1732 C1740 0.950 . S
H1733 C1745 0.950 . S
H1734 C1742 0.950 . S
H1735 C1744 0.950 . S
H1736 C1746 0.950 . S
H1737 C1748 0.950 . S
H1738 C1750 0.950 . S
H1739 C1751 0.950 . S
C1740 H1732 0.950 . S
C1740 C1741 1.386 . S
C1740 C1742 1.391 . S
C1741 C1740 1.386 . S
C1741 C1745 1.393 . S
C1742 H1734 0.950 . S
C1742 C1740 1.391 . S
C1742 C1743 1.400 . S
C1743 C1742 1.400 . S
C1743 C1744 1.398 . S
C1743 C1749 1.491 . S
C1744 H1735 0.950 . S
C1744 C1743 1.398 . S
C1744 C1745 1.391 . S
C1745 H1733 0.950 . S
C1745 C1741 1.393 . S
C1745 C1744 1.391 . S
C1746 H1736 0.950 . S
C1746 C1747 1.386 . S
C1746 C1748 1.391 . S
C1747 C1746 1.386 . S
C1747 C1751 1.393 . S
C1748 H1737 0.950 . S
C1748 C1746 1.391 . S
C1748 C1749 1.400 . S
C1749 C1743 1.491 . S
C1749 C1748 1.400 . S
C1749 C1750 1.398 . S
C1750 H1738 0.950 . S
C1750 C1749 1.398 . S
C1750 C1751 1.391 . S
C1751 H1739 0.950 . S
C1751 C1747 1.393 . S
C1751 C1750 1.391 . S
H1752 C1760 0.950 . S
H1753 C1765 0.950 . S
H1754 C1762 0.950 . S
H1755 C1764 0.950 . S
H1756 C1766 0.950 . S
H1757 C1768 0.950 . S
H1758 C1770 0.950 . S
H1759 C1771 0.950 . S
C1760 H1752 0.950 . S
C1760 C1761 1.386 . S
C1760 C1762 1.391 . S
C1761 C1760 1.386 . S
C1761 C1765 1.393 . S
C1762 H1754 0.950 . S
C1762 C1760 1.391 . S
C1762 C1763 1.400 . S
C1763 C1762 1.400 . S
C1763 C1764 1.398 . S
C1763 C1769 1.491 1_554 S
C1764 H1755 0.950 . S
C1764 C1763 1.398 . S
C1764 C1765 1.391 . S
C1765 H1753 0.950 . S
C1765 C1761 1.393 . S
C1765 C1764 1.391 . S
C1766 H1756 0.950 . S
C1766 C1767 1.386 . S
C1766 C1768 1.391 . S
C1767 C1766 1.386 . S
C1767 C1771 1.393 . S
C1768 H1757 0.950 . S
C1768 C1766 1.391 . S
C1768 C1769 1.400 . S
C1769 C1763 1.491 1_556 S
C1769 C1768 1.400 . S
C1769 C1770 1.398 . S
C1770 H1758 0.950 . S
C1770 C1769 1.398 . S
C1770 C1771 1.391 . S
C1771 H1759 0.950 . S
C1771 C1767 1.393 . S
C1771 C1770 1.391 . S
H1772 C1780 0.950 . S
H1773 C1785 0.950 . S
H1774 C1782 0.950 . S
H1775 C1784 0.950 . S
H1776 C1786 0.950 . S
H1777 C1788 0.950 . S
H1778 C1790 0.950 . S
H1779 C1791 0.950 . S
C1780 H1772 0.950 . S
C1780 C1781 1.386 . S
C1780 C1782 1.391 . S
C1781 C1780 1.386 . S
C1781 C1785 1.393 . S
C1782 H1774 0.950 . S
C1782 C1780 1.391 . S
C1782 C1783 1.400 . S
C1783 C1782 1.400 . S
C1783 C1784 1.398 . S
C1783 C1789 1.491 1_554 S
C1784 H1775 0.950 . S
C1784 C1783 1.398 . S
C1784 C1785 1.391 . S
C1785 H1773 0.950 . S
C1785 C1781 1.393 . S
C1785 C1784 1.391 . S
C1786 H1776 0.950 . S
C1786 C1787 1.386 . S
C1786 C1788 1.391 . S
C1787 C1786 1.386 . S
C1787 C1791 1.393 . S
C1788 H1777 0.950 . S
C1788 C1786 1.391 . S
C1788 C1789 1.400 . S
C1789 C1783 1.491 1_556 S
C1789 C1788 1.400 . S
C1789 C1790 1.398 . S
C1790 H1778 0.950 . S
C1790 C1789 1.398 . S
C1790 C1791 1.391 . S
C1791 H1779 0.950 . S
C1791 C1787 1.393 . S
C1791 C1790 1.391 . S
H1792 C1800 0.950 . S
H1793 C1805 0.950 . S
H1794 C1802 0.950 . S
H1795 C1804 0.950 . S
H1796 C1806 0.950 . S
H1797 C1808 0.950 . S
H1798 C1810 0.950 . S
H1799 C1811 0.950 . S
C1800 H1792 0.950 . S
C1800 C1801 1.386 . S
C1800 C1802 1.391 . S
C1801 C1800 1.386 . S
C1801 C1805 1.393 . S
C1802 H1794 0.950 . S
C1802 C1800 1.391 . S
C1802 C1803 1.400 . S
C1803 C1802 1.400 . S
C1803 C1804 1.398 . S
C1803 C1809 1.491 1_554 S
C1804 H1795 0.950 . S
C1804 C1803 1.398 . S
C1804 C1805 1.391 . S
C1805 H1793 0.950 . S
C1805 C1801 1.393 . S
C1805 C1804 1.391 . S
C1806 H1796 0.950 . S
C1806 C1807 1.386 . S
C1806 C1808 1.391 . S
C1807 C1806 1.386 . S
C1807 C1811 1.393 . S
C1808 H1797 0.950 . S
C1808 C1806 1.391 . S
C1808 C1809 1.400 . S
C1809 C1803 1.491 1_556 S
C1809 C1808 1.400 . S
C1809 C1810 1.398 . S
C1810 H1798 0.950 . S
C1810 C1809 1.398 . S
C1810 C1811 1.391 . S
C1811 H1799 0.950 . S
C1811 C1807 1.393 . S
C1811 C1810 1.391 . S
H1812 C1820 0.950 . S
H1813 C1825 0.950 . S
H1814 C1822 0.950 . S
H1815 C1824 0.950 . S
H1816 C1826 0.950 . S
H1817 C1828 0.950 . S
H1818 C1830 0.950 . S
H1819 C1831 0.950 . S
C1820 H1812 0.950 . S
C1820 C1821 1.386 . S
C1820 C1822 1.391 . S
C1821 C1820 1.386 . S
C1821 C1825 1.393 . S
C1822 H1814 0.950 . S
C1822 C1820 1.391 . S
C1822 C1823 1.400 . S
C1823 C1822 1.400 . S
C1823 C1824 1.398 . S
C1823 C1829 1.491 1_554 S
C1824 H1815 0.950 . S
C1824 C1823 1.398 . S
C1824 C1825 1.391 . S
C1825 H1813 0.950 . S
C1825 C1821 1.393 . S
C1825 C1824 1.391 . S
C1826 H1816 0.950 . S
C1826 C1827 1.386 . S
C1826 C1828 1.391 . S
C1827 C1826 1.386 . S
C1827 C1831 1.393 . S
C1828 H1817 0.950 . S
C1828 C1826 1.391 . S
C1828 C1829 1.400 . S
C1829 C1823 1.491 1_556 S
C1829 C1828 1.400 . S
C1829 C1830 1.398 . S
C1830 H1818 0.950 . S
C1830 C1829 1.398 . S
C1830 C1831 1.391 . S
C1831 H1819 0.950 . S
C1831 C1827 1.393 . S
C1831 C1830 1.391 . S
H1832 C1840 0.950 . S
H1833 C1845 0.950 . S
H1834 C1842 0.950 . S
H1835 C1844 0.950 . S
H1836 C1846 0.950 . S
H1837 C1848 0.950 . S
H1838 C1850 0.950 . S
H1839 C1851 0.950 . S
C1840 H1832 0.950 . S
C1840 C1841 1.386 . S
C1840 C1842 1.391 . S
C1841 C1840 1.386 . S
C1841 C1845 1.393 . S
C1842 H1834 0.950 . S
C1842 C1840 1.391 . S
C1842 C1843 1.400 . S
C1843 C1842 1.400 . S
C1843 C1844 1.398 . S
C1843 C1849 1.491 1_554 S
C1844 H1835 0.950 . S
C1844 C1843 1.398 . S
C1844 C1845 1.391 . S
C1845 H1833 0.950 . S
C1845 C1841 1.393 . S
C1845 C1844 1.391 . S
C1846 H1836 0.950 . S
C1846 C1847 1.386 . S
C1846 C1848 1.391 . S
C1847 C1846 1.386 . S
C1847 C1851 1.393 . S
C1848 H1837 0.950 . S
C1848 C1846 1.391 . S
C1848 C1849 1.400 . S
C1849 C1843 1.491 1_556 S
C1849 C1848 1.400 . S
C1849 C1850 1.398 . S
C1850 H1838 0.950 . S
C1850 C1849 1.398 . S
C1850 C1851 1.391 . S
C1851 H1839 0.950 . S
C1851 C1847 1.393 . S
C1851 C1850 1.391 . S
H1852 C1860 0.950 . S
H1853 C1865 0.950 . S
H1854 C1862 0.950 . S
H1855 C1864 0.950 . S
H1856 C1866 0.950 . S
H1857 C1868 0.950 . S
H1858 C1870 0.950 . S
H1859 C1871 0.950 . S
C1860 H1852 0.950 . S
C1860 C1861 1.386 . S
C1860 C1862 1.391 . S
C1861 C1860 1.386 . S
C1861 C1865 1.393 . S
C1862 H1854 0.950 . S
C1862 C1860 1.391 . S
C1862 C1863 1.400 . S
C1863 C1862 1.400 . S
C1863 C1864 1.398 . S
C1863 C1869 1.491 1_556 S
C1864 H1855 0.950 . S
C1864 C1863 1.398 . S
C1864 C1865 1.391 . S
C1865 H1853 0.950 . S
C1865 C1861 1.393 . S
C1865 C1864 1.391 . S
C1866 H1856 0.950 . S
C1866 C1867 1.386 . S
C1866 C1868 1.391 . S
C1867 C1866 1.386 . S
C1867 C1871 1.393 . S
C1868 H1857 0.950 . S
C1868 C1866 1.391 . S
C1868 C1869 1.400 . S
C1869 C1863 1.491 1_554 S
C1869 C1868 1.400 . S
C1869 C1870 1.398 . S
C1870 H1858 0.950 . S
C1870 C1869 1.398 . S
C1870 C1871 1.391 . S
C1871 H1859 0.950 . S
C1871 C1867 1.393 . S
C1871 C1870 1.391 . S
H1872 C1880 0.950 . S
H1873 C1885 0.950 . S
H1874 C1882 0.950 . S
H1875 C1884 0.950 . S
H1876 C1886 0.950 . S
H1877 C1888 0.950 . S
H1878 C1890 0.950 . S
H1879 C1891 0.950 . S
C1880 H1872 0.950 . S
C1880 C1881 1.386 . S
C1880 C1882 1.391 . S
C1881 C1880 1.386 . S
C1881 C1885 1.393 . S
C1882 H1874 0.950 . S
C1882 C1880 1.391 . S
C1882 C1883 1.400 . S
C1883 C1882 1.400 . S
C1883 C1884 1.398 . S
C1883 C1889 1.491 . S
C1884 H1875 0.950 . S
C1884 C1883 1.398 . S
C1884 C1885 1.391 . S
C1885 H1873 0.950 . S
C1885 C1881 1.393 . S
C1885 C1884 1.391 . S
C1886 H1876 0.950 . S
C1886 C1887 1.386 . S
C1886 C1888 1.391 . S
C1887 C1886 1.386 . S
C1887 C1891 1.393 . S
C1888 H1877 0.950 . S
C1888 C1886 1.391 . S
C1888 C1889 1.400 . S
C1889 C1883 1.491 . S
C1889 C1888 1.400 . S
C1889 C1890 1.398 . S
C1890 H1878 0.950 . S
C1890 C1889 1.398 . S
C1890 C1891 1.391 . S
C1891 H1879 0.950 . S
C1891 C1887 1.393 . S
C1891 C1890 1.391 . S
H1892 C1900 0.950 . S
H1893 C1905 0.950 . S
H1894 C1902 0.950 . S
H1895 C1904 0.950 . S
H1896 C1906 0.950 . S
H1897 C1908 0.950 . S
H1898 C1910 0.950 . S
H1899 C1911 0.950 . S
C1900 H1892 0.950 . S
C1900 C1901 1.386 . S
C1900 C1902 1.391 . S
C1901 C1900 1.386 . S
C1901 C1905 1.393 . S
C1902 H1894 0.950 . S
C1902 C1900 1.391 . S
C1902 C1903 1.400 . S
C1903 C1902 1.400 . S
C1903 C1904 1.398 . S
C1903 C1909 1.491 . S
C1904 H1895 0.950 . S
C1904 C1903 1.398 . S
C1904 C1905 1.391 . S
C1905 H1893 0.950 . S
C1905 C1901 1.393 . S
C1905 C1904 1.391 . S
C1906 H1896 0.950 . S
C1906 C1907 1.386 . S
C1906 C1908 1.391 . S
C1907 C1906 1.386 . S
C1907 C1911 1.393 . S
C1908 H1897 0.950 . S
C1908 C1906 1.391 . S
C1908 C1909 1.400 . S
C1909 C1903 1.491 . S
C1909 C1908 1.400 . S
C1909 C1910 1.398 . S
C1910 H1898 0.950 . S
C1910 C1909 1.398 . S
C1910 C1911 1.391 . S
C1911 H1899 0.950 . S
C1911 C1907 1.393 . S
C1911 C1910 1.391 . S
H1912 C1920 0.950 . S
H1913 C1925 0.950 . S
H1914 C1922 0.950 . S
H1915 C1924 0.950 . S
H1916 C1926 0.950 . S
H1917 C1928 0.950 . S
H1918 C1930 0.950 . S
H1919 C1931 0.950 . S
C1920 H1912 0.950 . S
C1920 C1921 1.386 . S
C1920 C1922 1.391 . S
C1921 C1920 1.386 . S
C1921 C1925 1.393 . S
C1922 H1914 0.950 . S
C1922 C1920 1.391 . S
C1922 C1923 1.400 . S
C1923 C1922 1.400 . S
C1923 C1924 1.398 . S
C1923 C1929 1.491 . S
C1924 H1915 0.950 . S
C1924 C1923 1.398 . S
C1924 C1925 1.391 . S
C1925 H1913 0.950 . S
C1925 C1921 1.393 . S
C1925 C1924 1.391 . S
C1926 H1916 0.950 . S
C1926 C1927 1.386 . S
C1926 C1928 1.391 . S
C1927 C1926 1.386 . S
C1927 C1931 1.393 . S
C1928 H1917 0.950 . S
C1928 C1926 1.391 . S
C1928 C1929 1.400 . S
C1929 C1923 1.491 . S
C1929 C1928 1.400 . S
C1929 C1930 1.398 . S
C1930 H1918 0.950 . S
C1930 C1929 1.398 . S
C1930 C1931 1.391 . S
C1931 H1919 0.950 . S
C1931 C1927 1.393 . S
C1931 C1930 1.391 . S
H1932 C1940 0.950 . S
H1933 C1945 0.950 . S
H1934 C1942 0.950 . S
H1935 C1944 0.950 . S
H1936 C1946 0.950 . S
H1937 C1948 0.950 . S
H1938 C1950 0.950 . S
H1939 C1951 0.950 . S
C1940 H1932 0.950 . S
C1940 C1941 1.386 . S
C1940 C1942 1.391 . S
C1941 C1940 1.386 . S
C1941 C1945 1.393 . S
C1942 H1934 0.950 . S
C1942 C1940 1.391 . S
C1942 C1943 1.400 . S
C1943 C1942 1.400 . S
C1943 C1944 1.398 . S
C1943 C1949 1.491 . S
C1944 H1935 0.950 . S
C1944 C1943 1.398 . S
C1944 C1945 1.391 . S
C1945 H1933 0.950 . S
C1945 C1941 1.393 . S
C1945 C1944 1.391 . S
C1946 H1936 0.950 . S
C1946 C1947 1.386 . S
C1946 C1948 1.391 . S
C1947 C1946 1.386 . S
C1947 C1951 1.393 . S
C1948 H1937 0.950 . S
C1948 C1946 1.391 . S
C1948 C1949 1.400 . S
C1949 C1943 1.491 . S
C1949 C1948 1.400 . S
C1949 C1950 1.398 . S
C1950 H1938 0.950 . S
C1950 C1949 1.398 . S
C1950 C1951 1.391 . S
C1951 H1939 0.950 . S
C1951 C1947 1.393 . S
C1951 C1950 1.391 . S
H1952 C1960 0.950 . S
H1953 C1965 0.950 . S
H1954 C1962 0.950 . S
H1955 C1964 0.950 . S
H1956 C1966 0.950 . S
H1957 C1968 0.950 . S
H1958 C1970 0.950 . S
H1959 C1971 0.950 . S
C1960 H1952 0.950 . S
C1960 C1961 1.386 . S
C1960 C1962 1.391 . S
C1961 C1960 1.386 . S
C1961 C1965 1.393 . S
C1962 H1954 0.950 . S
C1962 C1960 1.391 . S
C1962 C1963 1.400 . S
C1963 C1962 1.400 . S
C1963 C1964 1.398 . S
C1963 C1969 1.491 . S
C1964 H1955 0.950 . S
C1964 C1963 1.398 . S
C1964 C1965 1.391 . S
C1965 H1953 0.950 . S
C1965 C1961 1.393 . S
C1965 C1964 1.391 . S
C1966 H1956 0.950 . S
C1966 C1967 1.386 . S
C1966 C1968 1.391 . S
C1967 C1966 1.386 . S
C1967 C1971 1.393 . S
C1968 H1957 0.950 . S
C1968 C1966 1.391 . S
C1968 C1969 1.400 . S
C1969 C1963 1.491 . S
C1969 C1968 1.400 . S
C1969 C1970 1.398 . S
C1970 H1958 0.950 . S
C1970 C1969 1.398 . S
C1970 C1971 1.391 . S
C1971 H1959 0.950 . S
C1971 C1967 1.393 . S
C1971 C1970 1.391 . S
H1972 C1980 0.950 . S
H1973 C1985 0.950 . S
H1974 C1982 0.950 . S
H1975 C1984 0.950 . S
H1976 C1986 0.950 . S
H1977 C1988 0.950 . S
H1978 C1990 0.950 . S
H1979 C1991 0.950 . S
C1980 H1972 0.950 . S
C1980 C1981 1.386 . S
C1980 C1982 1.391 . S
C1981 C1980 1.386 . S
C1981 C1985 1.393 . S
C1982 H1974 0.950 . S
C1982 C1980 1.391 . S
C1982 C1983 1.400 . S
C1983 C1982 1.400 . S
C1983 C1984 1.398 . S
C1983 C1989 1.491 . S
C1984 H1975 0.950 . S
C1984 C1983 1.398 . S
C1984 C1985 1.391 . S
C1985 H1973 0.950 . S
C1985 C1981 1.393 . S
C1985 C1984 1.391 . S
C1986 H1976 0.950 . S
C1986 C1987 1.386 . S
C1986 C1988 1.391 . S
C1987 C1986 1.386 . S
C1987 C1991 1.393 . S
C1988 H1977 0.950 . S
C1988 C1986 1.391 . S
C1988 C1989 1.400 . S
C1989 C1983 1.491 . S
C1989 C1988 1.400 . S
C1989 C1990 1.398 . S
C1990 H1978 0.950 . S
C1990 C1989 1.398 . S
C1990 C1991 1.391 . S
C1991 H1979 0.950 . S
C1991 C1987 1.393 . S
C1991 C1990 1.391 . S
C801 N14 0.676 . S
C807 N113 0.677 . S
C821 N146 0.645 . S
C827 N47 0.643 . S
C841 N179 0.673 . S
C847 N80 0.675 . S
C861 N311 0.673 . S
C867 N212 0.675 . S
C881 N245 0.640 . S
C887 N344 0.638 . S
C901 N278 0.627 . S
C907 N377 0.628 . S
C921 N509 0.678 . S
C927 N410 0.677 . S
C941 N542 0.681 . S
C947 N443 0.680 . S
C961 N575 0.626 . S
C967 N476 0.626 . S
C981 N707 0.631 . S
C987 N608 0.630 . S
C1001 N641 0.669 . S
C1007 N740 0.668 . S
C1021 N773 0.673 . S
C1027 N674 0.672 . S
C1041 N269 1.408 . S
C1047 N5 1.405 . S
C1061 N38 1.382 . S
C1067 N302 1.389 . S
C1081 N71 1.408 . S
C1087 N335 1.400 . S
C1101 N104 1.408 . S
C1107 N368 1.405 . S
C1121 N137 1.407 . S
C1127 N203 1.396 . S
C1141 N236 1.397 . S
C1147 N170 1.407 . S
C1161 N401 1.382 . S
C1167 N665 1.388 . S
C1181 N698 1.395 . S
C1187 N434 1.384 . S
C1201 N731 1.401 . S
C1207 N467 1.408 . S
C1221 N500 1.400 . S
C1227 N764 1.408 . S
C1241 N599 1.404 . S
C1247 N533 1.408 . S
C1261 N632 1.384 . S
C1267 N566 1.395 . S
C1281 C8 1.486 . S
C1287 C239 1.467 . S
C1301 C41 1.468 . S
C1307 C272 1.486 . S
C1321 C305 1.466 . S
C1327 C74 1.488 . S
C1341 C107 1.488 . S
C1347 C338 1.467 . S
C1361 C371 1.484 . S
C1367 C140 1.471 . S
C1381 C206 1.485 . S
C1387 C173 1.468 . S
C1401 C404 1.488 . S
C1407 C635 1.467 . S
C1421 C437 1.486 . S
C1427 C668 1.468 . S
C1441 C470 1.484 . S
C1447 C701 1.471 . S
C1461 C503 1.481 . S
C1467 C734 1.474 . S
C1481 C536 1.484 . S
C1487 C767 1.469 . S
C1501 C602 1.486 . S
C1507 C569 1.468 . S
C1521 C28 0.582 . S
C1527 C358 0.633 . S
C1541 C391 0.642 . S
C1547 C61 0.571 . S
C1561 C226 0.637 . S
C1567 C94 0.578 . S
C1581 C259 0.613 . S
C1587 C127 0.603 . S
C1601 C160 0.595 . S
C1607 C292 0.621 . S
C1621 C193 0.605 . S
C1627 C325 0.610 . S
C1641 C424 0.576 . S
C1647 C754 0.638 . S
C1661 C787 0.607 . S
C1667 C457 0.610 . S
C1681 C622 0.642 . S
C1687 C490 0.571 . S
C1701 C523 0.572 . S
C1707 C655 0.641 . S
C1721 C556 0.575 . S
C1727 C688 0.639 . S
C1741 C721 0.638 . S
C1747 C589 0.577 . S
C1761 C17 1.437 . S
C1767 C512 1.433 . S
C1781 C50 1.434 . S
C1787 C545 1.436 . S
C1801 C83 1.434 . S
C1807 C578 1.436 . S
C1821 C116 1.432 . S
C1827 C413 1.438 . S
C1841 C149 1.439 . S
C1847 C446 1.431 . S
C1861 C479 1.440 . S
C1867 C182 1.431 . S
C1881 C215 1.437 . S
C1887 C710 1.433 . S
C1901 C248 1.440 . S
C1907 C743 1.431 . S
C1921 C281 1.437 . S
C1927 C776 1.434 . S
C1941 C314 1.434 . S
C1947 C611 1.436 . S
C1961 C347 1.440 . S
C1967 C644 1.431 . S
C1981 C677 1.430 . S
C1987 C380 1.440 . S
