# Generated by pormake.
# Topology uoz, (4)-cn, num edge types: 1
# Building blocks:
#     Node 0, Type 0, BuildingBlock: UXUYUI_clean_sbu_0, # of connection points: 4
#     Node 1, Type 0, BuildingBlock: UXUYUI_clean_sbu_0, # of connection points: 4
#     Node 2, Type 0, BuildingBlock: UXUYUI_clean_sbu_0, # of connection points: 4
#     Node 3, Type 0, BuildingBlock: UXUYUI_clean_sbu_0, # of connection points: 4
#     Node 4, Type 0, BuildingBlock: UXUYUI_clean_sbu_0, # of connection points: 4
#     Node 5, Type 0, BuildingBlock: UXUYUI_clean_sbu_0, # of connection points: 4
#     Node 6, Type 0, BuildingBlock: UXUYUI_clean_sbu_0, # of connection points: 4
#     Node 7, Type 0, BuildingBlock: UXUYUI_clean_sbu_0, # of connection points: 4
#     Node 8, Type 0, BuildingBlock: UXUYUI_clean_sbu_0, # of connection points: 4
#     Node 9, Type 0, BuildingBlock: UXUYUI_clean_sbu_0, # of connection points: 4
#     Node 10, Type 0, BuildingBlock: UXUYUI_clean_sbu_0, # of connection points: 4
#     Node 11, Type 0, BuildingBlock: UXUYUI_clean_sbu_0, # of connection points: 4
#     Node 12, Type 0, BuildingBlock: UXUYUI_clean_sbu_0, # of connection points: 4
#     Node 13, Type 0, BuildingBlock: UXUYUI_clean_sbu_0, # of connection points: 4
#     Node 14, Type 0, BuildingBlock: UXUYUI_clean_sbu_0, # of connection points: 4
#     Node 15, Type 0, BuildingBlock: UXUYUI_clean_sbu_0, # of connection points: 4
#     Edge 16, Type (0, 0), BuildingBlock: EZIPEK_clean_linker_0, # of connection points: 2
#     Edge 17, Type (0, 0), BuildingBlock: EZIPEK_clean_linker_0, # of connection points: 2
#     Edge 18, Type (0, 0), BuildingBlock: EZIPEK_clean_linker_0, # of connection points: 2
#     Edge 19, Type (0, 0), BuildingBlock: EZIPEK_clean_linker_0, # of connection points: 2
#     Edge 20, Type (0, 0), BuildingBlock: EZIPEK_clean_linker_0, # of connection points: 2
#     Edge 21, Type (0, 0), BuildingBlock: EZIPEK_clean_linker_0, # of connection points: 2
#     Edge 22, Type (0, 0), BuildingBlock: EZIPEK_clean_linker_0, # of connection points: 2
#     Edge 23, Type (0, 0), BuildingBlock: EZIPEK_clean_linker_0, # of connection points: 2
#     Edge 24, Type (0, 0), BuildingBlock: EZIPEK_clean_linker_0, # of connection points: 2
#     Edge 25, Type (0, 0), BuildingBlock: EZIPEK_clean_linker_0, # of connection points: 2
#     Edge 26, Type (0, 0), BuildingBlock: EZIPEK_clean_linker_0, # of connection points: 2
#     Edge 27, Type (0, 0), BuildingBlock: EZIPEK_clean_linker_0, # of connection points: 2
#     Edge 28, Type (0, 0), BuildingBlock: EZIPEK_clean_linker_0, # of connection points: 2
#     Edge 29, Type (0, 0), BuildingBlock: EZIPEK_clean_linker_0, # of connection points: 2
#     Edge 30, Type (0, 0), BuildingBlock: EZIPEK_clean_linker_0, # of connection points: 2
#     Edge 31, Type (0, 0), BuildingBlock: EZIPEK_clean_linker_0, # of connection points: 2
#     Edge 32, Type (0, 0), BuildingBlock: EZIPEK_clean_linker_0, # of connection points: 2
#     Edge 33, Type (0, 0), BuildingBlock: EZIPEK_clean_linker_0, # of connection points: 2
#     Edge 34, Type (0, 0), BuildingBlock: EZIPEK_clean_linker_0, # of connection points: 2
#     Edge 35, Type (0, 0), BuildingBlock: EZIPEK_clean_linker_0, # of connection points: 2
#     Edge 36, Type (0, 0), BuildingBlock: EZIPEK_clean_linker_0, # of connection points: 2
#     Edge 37, Type (0, 0), BuildingBlock: EZIPEK_clean_linker_0, # of connection points: 2
#     Edge 38, Type (0, 0), BuildingBlock: EZIPEK_clean_linker_0, # of connection points: 2
#     Edge 39, Type (0, 0), BuildingBlock: EZIPEK_clean_linker_0, # of connection points: 2
#     Edge 40, Type (0, 0), BuildingBlock: EZIPEK_clean_linker_0, # of connection points: 2
#     Edge 41, Type (0, 0), BuildingBlock: EZIPEK_clean_linker_0, # of connection points: 2
#     Edge 42, Type (0, 0), BuildingBlock: EZIPEK_clean_linker_0, # of connection points: 2
#     Edge 43, Type (0, 0), BuildingBlock: EZIPEK_clean_linker_0, # of connection points: 2
#     Edge 44, Type (0, 0), BuildingBlock: EZIPEK_clean_linker_0, # of connection points: 2
#     Edge 45, Type (0, 0), BuildingBlock: EZIPEK_clean_linker_0, # of connection points: 2
#     Edge 46, Type (0, 0), BuildingBlock: EZIPEK_clean_linker_0, # of connection points: 2
#     Edge 47, Type (0, 0), BuildingBlock: EZIPEK_clean_linker_0, # of connection points: 2
# Relax obj value: 0.206
# Max RMSD: 0.135
# Mean RMSD: 0.135
data_MOF--net-uoz--node1-UXUYUI_clean_sbu_0--edge1-EZIPEK_clean_linker_0
_symmetry_space_group_name_H-M    P1
_symmetry_Int_Tables_number       1
_symmetry_cell_setting            triclinic
loop_
_symmetry_equiv_pos_as_xyz
'x, y, z'
_cell_length_a     70.837727
_cell_length_b     70.779887
_cell_length_c     27.14889
_cell_angle_alpha  89.997663
_cell_angle_beta   89.943625
_cell_angle_gamma 89.963824
loop_
_atom_site_label
_atom_site_type_symbol
_atom_site_fract_x
_atom_site_fract_y
_atom_site_fract_z
_atom_type_partial_charge
Li0 Li 0.9889 0.60054 0.3146 0.0
Li1 Li 0.02321 0.59923 0.32031 0.0
Li2 Li 0.00569 0.5734 0.27952 0.0
Li3 Li 0.005 0.57665 0.36739 0.0
C4 C 0.99979 0.60423 0.21633 0.0
N5 N 0.98492 0.61185 0.12447 0.0
C6 C 0.00849 0.61746 0.18562 0.0
C7 C 0.98349 0.59493 0.20048 0.0
C8 C 1.00072 0.62114 0.13931 0.0
C9 C 0.97623 0.59892 0.15382 0.0
C10 C 0.01473 0.61878 0.39827 0.0
C11 C 0.04219 0.6287 0.44384 0.0
N12 N 0.03567 0.64678 0.4433 0.0
C13 C 0.00819 0.63741 0.39861 0.0
C14 C 0.03176 0.61433 0.42148 0.0
C15 C 0.01902 0.65138 0.42142 0.0
C16 C 0.95114 0.61198 0.28703 0.0
N17 N 0.969 0.6179 0.29732 0.0
C18 C 0.96245 0.64827 0.26225 0.0
C19 C 0.97473 0.63572 0.28583 0.0
C20 C 0.94419 0.64232 0.25 0.0
C21 C 0.9384 0.62409 0.26342 0.0
H22 H 0.94704 0.59758 0.29443 0.0
H23 H 0.98922 0.63981 0.29233 0.0
C24 C 0.06162 0.60666 0.297 0.0
N25 N 0.04468 0.61482 0.30751 0.0
C26 C 0.07589 0.61719 0.27417 0.0
C27 C 0.05529 0.64443 0.27528 0.0
C28 C 0.04139 0.63338 0.29773 0.0
C29 C 0.07255 0.63617 0.26208 0.0
H30 H 0.0636 0.59171 0.30333 0.0
H31 H 0.02754 0.63928 0.30427 0.0
C32 C 0.96643 0.57068 0.34658 0.0
N33 N 0.93293 0.56628 0.39755 0.0
C34 C 0.96314 0.58097 0.38973 0.0
C35 C 0.9527 0.55814 0.32943 0.0
C36 C 0.94612 0.57854 0.41495 0.0
C37 C 0.93585 0.55613 0.35569 0.0
C38 C 0.03632 0.55705 0.34704 0.0
C39 C 0.03097 0.53849 0.33649 0.0
C40 C 0.05079 0.56044 0.38083 0.0
C41 C 0.04009 0.52358 0.36039 0.0
C42 C 0.05956 0.54515 0.40396 0.0
N43 N 0.05409 0.52719 0.39332 0.0
C44 C 0.01807 0.5609 0.1879 0.0
C45 C 0.99499 0.54135 0.22586 0.0
C46 C 0.01849 0.54924 0.1466 0.0
N47 N 0.00635 0.5568 0.22608 0.0
C48 C 0.99513 0.52917 0.18556 0.0
C49 C 0.00692 0.53321 0.14545 0.0
H50 H 0.02693 0.57332 0.18947 0.0
H51 H 0.98589 0.53853 0.257 0.0
C52 C 0.01134 0.5636 0.46887 0.0
N53 N 1.00359 0.55981 0.42405 0.0
C54 C 0.01118 0.54983 0.5062 0.0
C55 C 0.99489 0.5287 0.4509 0.0
C56 C 0.99538 0.54278 0.4148 0.0
C57 C 1.00299 0.53208 0.49711 0.0
H58 H 0.01801 0.57711 0.47534 0.0
H59 H 0.98967 0.53988 0.37868 0.0
O60 O 0.00744 0.60021 0.26137 0.0
O61 O 0.00449 0.60495 0.37549 0.0
O62 O 0.98298 0.57271 0.32109 0.0
O63 O 0.02748 0.57184 0.32421 0.0
H64 H 0.02114 0.62475 0.19738 0.0
H65 H 0.97657 0.58465 0.22385 0.0
H66 H 0.00731 0.63134 0.1151 0.0
H67 H 0.96366 0.59179 0.14099 0.0
H68 H 0.05547 0.62548 0.46161 0.0
H69 H 0.9949 0.64104 0.38148 0.0
H70 H 0.03691 0.59996 0.42183 0.0
H71 H 0.01419 0.66588 0.42175 0.0
H72 H 0.96739 0.66219 0.25186 0.0
H73 H 0.92443 0.61906 0.25398 0.0
H74 H 0.08903 0.6104 0.26393 0.0
H75 H 0.05224 0.65899 0.26583 0.0
H76 H 0.97357 0.59069 0.40379 0.0
H77 H 0.95501 0.55009 0.29607 0.0
H78 H 0.94339 0.58639 0.44839 0.0
H79 H 0.92508 0.5465 0.34278 0.0
H80 H 0.01978 0.53562 0.3105 0.0
H81 H 0.05525 0.5747 0.38899 0.0
H82 H 0.03601 0.50915 0.35284 0.0
H83 H 0.07076 0.54755 0.4303 0.0
H84 H 0.02773 0.5526 0.11603 0.0
H85 H 0.98612 0.51681 0.18543 0.0
H86 H 0.01766 0.55285 0.54144 0.0
H87 H 0.98857 0.51515 0.44252 0.0
Li88 Li 0.68008 0.7557 0.62175 0.0
Li89 Li 0.65739 0.77528 0.56933 0.0
Li90 Li 0.65557 0.73993 0.57029 0.0
Li91 Li 0.68214 0.75588 0.53269 0.0
C92 C 0.64563 0.74804 0.66815 0.0
N93 N 0.63452 0.72824 0.75095 0.0
C94 C 0.6326 0.75593 0.70089 0.0
C95 C 0.653 0.73006 0.67747 0.0
C96 C 0.62716 0.7457 0.74256 0.0
C97 C 0.64721 0.72028 0.71954 0.0
C98 C 0.69931 0.78729 0.55457 0.0
C99 C 0.71035 0.8061 0.48628 0.0
N100 N 0.72824 0.80497 0.5042 0.0
C101 C 0.71779 0.78638 0.57241 0.0
C102 C 0.69552 0.79729 0.51127 0.0
C103 C 0.73222 0.79539 0.54636 0.0
C104 C 0.71384 0.74725 0.66927 0.0
N105 N 0.69633 0.75431 0.67876 0.0
C106 C 0.7049 0.75991 0.76297 0.0
C107 C 0.6916 0.76051 0.72463 0.0
C108 C 0.72319 0.75302 0.75372 0.0
C109 C 0.72754 0.74654 0.70624 0.0
H110 H 0.71728 0.74251 0.63246 0.0
H111 H 0.67763 0.76614 0.73132 0.0
C112 C 0.62456 0.79503 0.54242 0.0
N113 N 0.64266 0.79749 0.55793 0.0
C114 C 0.61457 0.81008 0.52154 0.0
C115 C 0.64165 0.83015 0.5355 0.0
C116 C 0.65111 0.81473 0.55623 0.0
C117 C 0.62337 0.82772 0.5167 0.0
H118 H 0.61835 0.78107 0.54322 0.0
H119 H 0.66557 0.81626 0.5683 0.0
C120 C 0.68847 0.71671 0.56012 0.0
N121 N 0.69966 0.68167 0.52608 0.0
C122 C 0.68587 0.71189 0.51069 0.0
C123 C 0.69687 0.70377 0.5922 0.0
C124 C 0.69159 0.69409 0.49419 0.0
C125 C 0.7024 0.6861 0.57431 0.0
C126 C 0.64953 0.75751 0.467 0.0
C127 C 0.64627 0.74045 0.44242 0.0
C128 C 0.64633 0.77459 0.44246 0.0
C129 C 0.63989 0.74077 0.39378 0.0
C130 C 0.63997 0.77431 0.39377 0.0
N131 N 0.6369 0.75755 0.37065 0.0
C132 C 0.62104 0.72632 0.53874 0.0
C133 C 0.642 0.70144 0.55959 0.0
C134 C 0.60871 0.71362 0.51612 0.0
N135 N 0.63764 0.72017 0.55823 0.0
C136 C 0.62997 0.68821 0.53758 0.0
C137 C 0.61343 0.69441 0.51413 0.0
H138 H 0.61803 0.7413 0.53768 0.0
H139 H 0.65519 0.69682 0.5754 0.0
C140 C 0.71772 0.74792 0.4938 0.0
N141 N 0.70034 0.7545 0.48121 0.0
C142 C 0.73204 0.74689 0.45861 0.0
C143 C 0.71023 0.75928 0.39813 0.0
C144 C 0.69642 0.76023 0.43453 0.0
C145 C 0.72822 0.7526 0.41024 0.0
H146 H 0.72048 0.74366 0.53137 0.0
H147 H 0.68277 0.76587 0.42549 0.0
O148 O 0.65118 0.75799 0.62746 0.0
O149 O 0.68506 0.77812 0.57877 0.0
O150 O 0.68297 0.73403 0.57725 0.0
O151 O 0.65549 0.75753 0.51501 0.0
H152 H 0.62679 0.76985 0.69419 0.0
H153 H 0.6631 0.72369 0.65265 0.0
H154 H 0.6171 0.75165 0.76826 0.0
H155 H 0.65281 0.70637 0.72723 0.0
H156 H 0.70765 0.81373 0.45249 0.0
H157 H 0.72096 0.77874 0.60587 0.0
H158 H 0.68135 0.79791 0.49656 0.0
H159 H 0.7466 0.79474 0.55963 0.0
H160 H 0.70106 0.765 0.79925 0.0
H161 H 0.74149 0.74115 0.69778 0.0
H162 H 0.60051 0.80777 0.5071 0.0
H163 H 0.64882 0.8436 0.53213 0.0
H164 H 0.6796 0.7218 0.48529 0.0
H165 H 0.699 0.70731 0.63059 0.0
H166 H 0.68965 0.69017 0.45602 0.0
H167 H 0.70886 0.67591 0.59875 0.0
H168 H 0.64851 0.72706 0.46063 0.0
H169 H 0.64901 0.78793 0.46049 0.0
H170 H 0.63727 0.72766 0.37444 0.0
H171 H 0.63753 0.78742 0.37431 0.0
H172 H 0.59603 0.71884 0.49845 0.0
H173 H 0.63392 0.67343 0.53691 0.0
H174 H 0.7459 0.7418 0.4689 0.0
H175 H 0.70701 0.76394 0.36106 0.0
Li176 Li 0.50434 0.43181 0.78302 0.0
Li177 Li 0.50349 0.42994 0.87334 0.0
Li178 Li 0.52174 0.40509 0.8184 0.0
Li179 Li 0.48702 0.40682 0.81987 0.0
C180 C 0.53603 0.44757 0.80875 0.0
N181 N 0.55423 0.4777 0.76479 0.0
C182 C 0.53315 0.46592 0.82627 0.0
C183 C 0.54821 0.44453 0.76899 0.0
C184 C 0.54248 0.48096 0.80352 0.0
C185 C 0.55726 0.45995 0.74723 0.0
C186 C 0.46402 0.43922 0.82386 0.0
C187 C 0.43416 0.44614 0.86274 0.0
N188 N 0.42638 0.44924 0.81768 0.0
C189 C 0.45575 0.44261 0.77796 0.0
C190 C 0.45317 0.44109 0.86666 0.0
C191 C 0.43669 0.44759 0.7756 0.0
C192 C 0.51379 0.44576 0.68828 0.0
N193 N 0.50479 0.44965 0.73134 0.0
C194 C 0.49569 0.48009 0.70215 0.0
C195 C 0.49608 0.4665 0.73923 0.0
C196 C 0.50438 0.47612 0.65701 0.0
C197 C 0.51365 0.45887 0.65012 0.0
H198 H 0.52129 0.43261 0.68372 0.0
H199 H 0.48943 0.46933 0.77433 0.0
C200 C 0.51565 0.44462 0.96874 0.0
N201 N 0.50381 0.44683 0.92966 0.0
C202 C 0.51685 0.45869 0.00517 0.0
C203 C 0.49345 0.4768 0.96105 0.0
C204 C 0.49288 0.46258 0.92534 0.0
C205 C 0.5057 0.47508 1.00132 0.0
H206 H 0.52455 0.43223 0.97091 0.0
H207 H 0.48415 0.46448 0.89312 0.0
C208 C 0.5007 0.40169 0.71567 0.0
N209 N 0.49382 0.39453 0.61725 0.0
C210 C 0.48289 0.40529 0.69566 0.0
C211 C 0.51498 0.39433 0.68568 0.0
C212 C 0.47971 0.40164 0.64579 0.0
C213 C 0.51123 0.39082 0.63603 0.0
C214 C 0.4927 0.38827 0.8995 0.0
C215 C 0.4958 0.36892 0.89314 0.0
C216 C 0.47713 0.39447 0.92667 0.0
C217 C 0.48307 0.35606 0.91368 0.0
C218 C 0.46473 0.38117 0.94661 0.0
N219 N 0.46792 0.3624 0.9397 0.0
C220 C 0.56045 0.3942 0.80107 0.0
C221 C 0.53692 0.37097 0.78749 0.0
C222 C 0.57399 0.38288 0.77758 0.0
N223 N 0.54222 0.38826 0.80439 0.0
C224 C 0.54994 0.35925 0.76381 0.0
C225 C 0.56857 0.36543 0.75749 0.0
H226 H 0.56425 0.40813 0.81403 0.0
H227 H 0.52224 0.36684 0.78922 0.0
C228 C 0.44755 0.39428 0.80869 0.0
N229 N 0.46622 0.38977 0.80607 0.0
C230 C 0.43404 0.38275 0.78605 0.0
C231 C 0.45896 0.36135 0.76203 0.0
C232 C 0.47197 0.37335 0.78463 0.0
C233 C 0.43984 0.36635 0.76131 0.0
H234 H 0.44308 0.40715 0.82621 0.0
H235 H 0.48686 0.37009 0.78261 0.0
O236 O 0.52656 0.43273 0.82956 0.0
O237 O 0.48272 0.43453 0.82703 0.0
O238 O 0.50422 0.4053 0.76434 0.0
O239 O 0.50457 0.40112 0.87825 0.0
H240 H 0.52371 0.46854 0.85682 0.0
H241 H 0.55032 0.43047 0.75435 0.0
H242 H 0.54033 0.49524 0.81657 0.0
H243 H 0.5666 0.45783 0.71616 0.0
H244 H 0.42559 0.44757 0.89553 0.0
H245 H 0.46395 0.44149 0.74449 0.0
H246 H 0.45933 0.43858 0.90251 0.0
H247 H 0.43011 0.4502 0.74032 0.0
H248 H 0.48861 0.49346 0.70834 0.0
H249 H 0.52072 0.45567 0.61571 0.0
H250 H 0.52658 0.45696 0.0356 0.0
H251 H 0.48477 0.48929 0.95661 0.0
H252 H 0.47162 0.41075 0.71839 0.0
H253 H 0.5289 0.39163 0.7004 0.0
H254 H 0.46602 0.40443 0.62977 0.0
H255 H 0.52218 0.3852 0.61238 0.0
H256 H 0.50781 0.36391 0.87226 0.0
H257 H 0.47459 0.40941 0.93194 0.0
H258 H 0.48521 0.34104 0.90882 0.0
H259 H 0.45254 0.38577 0.96747 0.0
H260 H 0.58828 0.38803 0.77309 0.0
H261 H 0.54533 0.34591 0.74846 0.0
H262 H 0.41932 0.3869 0.78635 0.0
H263 H 0.46387 0.34876 0.74328 0.0
Li264 Li 0.82621 0.25261 0.11437 0.0
Li265 Li 0.85122 0.23386 0.06098 0.0
Li266 Li 0.85105 0.26892 0.06187 0.0
Li267 Li 0.82544 0.2524 0.02587 0.0
C268 C 0.86811 0.26199 0.14393 0.0
N269 N 0.89435 0.28527 0.18824 0.0
C270 C 0.88734 0.2578 0.14051 0.0
C271 C 0.86219 0.27795 0.17001 0.0
C272 C 0.9004 0.26976 0.16315 0.0
C273 C 0.87568 0.28956 0.19213 0.0
C274 C 0.81086 0.21861 0.0459 0.0
C275 C 0.80231 0.20037 0.97423 0.0
N276 N 0.78532 0.19643 0.9952 0.0
C277 C 0.79341 0.21418 0.06698 0.0
C278 C 0.81544 0.21146 0.99939 0.0
C279 C 0.78066 0.20301 0.04069 0.0
C280 C 0.79071 0.25291 0.15946 0.0
N281 N 0.80941 0.25268 0.17097 0.0
C282 C 0.8018 0.25261 0.25721 0.0
C283 C 0.81517 0.25252 0.21884 0.0
C284 C 0.78242 0.25286 0.24602 0.0
C285 C 0.77695 0.253 0.19644 0.0
H286 H 0.78645 0.25302 0.12124 0.0
H287 H 0.83009 0.25234 0.22728 0.0
C288 C 0.88499 0.21511 0.03492 0.0
N289 N 0.86682 0.21214 0.04932 0.0
C290 C 0.89548 0.20047 0.01356 0.0
C291 C 0.86862 0.17981 0.02401 0.0
C292 C 0.85873 0.19477 0.04565 0.0
C293 C 0.88704 0.18275 0.00649 0.0
H294 H 0.8909 0.22918 0.03687 0.0
H295 H 0.84421 0.1928 0.05677 0.0
C296 C 0.81196 0.28677 0.04646 0.0
N297 N 0.78726 0.31008 0.99624 0.0
C298 C 0.81685 0.29398 1.00026 0.0
C299 C 0.79464 0.29173 0.06754 0.0
C300 C 0.80414 0.30564 0.97531 0.0
C301 C 0.78232 0.30347 0.04148 0.0
C302 C 0.85888 0.25175 0.95963 0.0
C303 C 0.86237 0.26888 0.93557 0.0
C304 C 0.86226 0.23475 0.93481 0.0
C305 C 0.86916 0.26872 0.88725 0.0
C306 C 0.869 0.2352 0.88644 0.0
N307 N 0.87229 0.25202 0.86388 0.0
C308 C 0.88548 0.28528 0.03414 0.0
C309 C 0.86134 0.30779 0.04924 0.0
C310 C 0.89683 0.29909 0.0123 0.0
N311 N 0.86789 0.28972 0.05072 0.0
C312 C 0.87227 0.32208 0.02776 0.0
C313 C 0.88998 0.31759 0.0077 0.0
H314 H 0.89013 0.27072 0.03455 0.0
H315 H 0.84721 0.3109 0.06191 0.0
C316 C 0.78865 0.25308 0.98829 0.0
N317 N 0.80709 0.25277 0.9742 0.0
C318 C 0.77437 0.25316 0.95304 0.0
C319 C 0.79829 0.25272 0.8894 0.0
C320 C 0.81208 0.25263 0.9258 0.0
C321 C 0.77927 0.25295 0.90312 0.0
H322 H 0.78507 0.25318 0.027 0.0
H323 H 0.82665 0.25238 0.91503 0.0
O324 O 0.85514 0.25083 0.12079 0.0
O325 O 0.82339 0.22992 0.07051 0.0
O326 O 0.82405 0.27492 0.07086 0.0
O327 O 0.85208 0.25159 0.00694 0.0
H328 H 0.89213 0.24552 0.12031 0.0
H329 H 0.84733 0.28143 0.17265 0.0
H330 H 0.91534 0.26675 0.16067 0.0
H331 H 0.87132 0.30202 0.21225 0.0
H332 H 0.8056 0.19495 0.93796 0.0
H333 H 0.78974 0.21925 0.10329 0.0
H334 H 0.82887 0.21474 0.98255 0.0
H335 H 0.76707 0.19956 0.05647 0.0
H336 H 0.80651 0.25251 0.29515 0.0
H337 H 0.76215 0.2532 0.18645 0.0
H338 H 0.90962 0.20321 1.00016 0.0
H339 H 0.8617 0.16631 0.01899 0.0
H340 H 0.83019 0.29034 0.9835 0.0
H341 H 0.79075 0.28664 0.10366 0.0
H342 H 0.80767 0.31111 0.93926 0.0
H343 H 0.76883 0.30732 0.05725 0.0
H344 H 0.85978 0.28219 0.95373 0.0
H345 H 0.85957 0.22134 0.9524 0.0
H346 H 0.87187 0.28187 0.86824 0.0
H347 H 0.87155 0.22216 0.86674 0.0
H348 H 0.91041 0.2952 0.99698 0.0
H349 H 0.86662 0.33625 0.02461 0.0
H350 H 0.75971 0.2533 0.96445 0.0
H351 H 0.80237 0.25254 0.85093 0.0
Li352 Li 0.00414 0.42848 0.77484 0.0
Li353 Li 1.00358 0.43323 0.86547 0.0
Li354 Li 0.02048 0.40633 0.83161 0.0
Li355 Li 0.98609 0.40622 0.83415 0.0
C356 C 0.04432 0.43561 0.82571 0.0
N357 N 0.08295 0.43826 0.838 0.0
C358 C 0.05177 0.44376 0.86838 0.0
C359 C 0.05652 0.42897 0.78911 0.0
C360 C 0.07134 0.44493 0.87394 0.0
C361 C 0.07601 0.43038 0.79607 0.0
C362 C 0.97226 0.44916 0.83515 0.0
C363 C 0.95376 0.46507 0.89723 0.0
N364 N 0.95449 0.48123 0.87018 0.0
C365 C 0.97277 0.46591 0.80789 0.0
C366 C 0.9626 0.44869 0.88008 0.0
C367 C 0.9637 0.48197 0.82624 0.0
C368 C 0.98927 0.44461 0.68454 0.0
N369 N 0.00442 0.4436 0.71532 0.0
C370 C 0.01943 0.46918 0.67257 0.0
C371 C 0.01941 0.45544 0.7096 0.0
C372 C 0.00382 0.4709 0.64123 0.0
C373 C 0.9887 0.45822 0.64691 0.0
H374 H 0.97732 0.43538 0.69047 0.0
H375 H 0.0311 0.45472 0.73504 0.0
C376 C 0.00401 0.44728 0.96215 0.0
N377 N 0.00461 0.45227 0.91388 0.0
C378 C 0.0045 0.46109 0.99855 0.0
C379 C 0.00729 0.48489 0.93489 0.0
C380 C 0.00653 0.47059 0.89963 0.0
C381 C 0.00605 0.48008 0.98485 0.0
H382 H 1.00339 0.4326 0.97244 0.0
H383 H 0.00754 0.47403 0.86092 0.0
C384 C 0.01146 0.38814 0.74302 0.0
N385 N 0.02888 0.36457 0.67578 0.0
C386 C 0.00783 0.36873 0.74373 0.0
C387 C 0.02371 0.3956 0.70768 0.0
C388 C 0.01684 0.35704 0.70952 0.0
C389 C 0.03246 0.38344 0.67415 0.0
C390 C 0.99839 0.3944 0.924 0.0
C391 C 0.00657 0.3764 0.9251 0.0
C392 C 0.98449 0.39903 0.95857 0.0
C393 C 1.00095 0.3635 0.96119 0.0
C394 C 0.97947 0.38584 0.99452 0.0
N395 N 0.98769 0.36848 0.99501 0.0
C396 C 0.04941 0.39652 0.89323 0.0
C397 C 0.04871 0.37562 0.82506 0.0
C398 C 0.06301 0.3855 0.91663 0.0
N399 N 0.0423 0.39135 0.84865 0.0
C400 C 0.06215 0.36394 0.84769 0.0
C401 C 0.06909 0.36869 0.89455 0.0
H402 H 0.04368 0.4087 0.91202 0.0
H403 H 0.04285 0.37159 0.78999 0.0
C404 C 0.94739 0.39801 0.85843 0.0
N405 N 0.9646 0.39035 0.84836 0.0
C406 C 0.93323 0.38702 0.88036 0.0
C407 C 0.9545 0.36033 0.87929 0.0
C408 C 0.96807 0.3717 0.85655 0.0
C409 C 0.93705 0.36814 0.89271 0.0
H410 H 0.94492 0.41285 0.85164 0.0
H411 H 0.98185 0.36593 0.84844 0.0
O412 O 0.02518 0.43406 0.81992 0.0
O413 O 0.98145 0.43341 0.81839 0.0
O414 O 1.00265 0.39982 0.77589 0.0
O415 O 0.00408 0.40745 0.88971 0.0
H416 H 0.04259 0.44894 0.8972 0.0
H417 H 0.05104 0.42266 0.75585 0.0
H418 H 0.0773 0.4511 0.9069 0.0
H419 H 0.08561 0.4252 0.76816 0.0
H420 H 0.94639 0.46496 0.93215 0.0
H421 H 0.98025 0.46658 0.77321 0.0
H422 H 0.96225 0.43592 0.90191 0.0
H423 H 0.96405 0.49505 0.80564 0.0
H424 H 0.03129 0.47875 0.66931 0.0
H425 H 0.9764 0.45921 0.62339 0.0
H426 H 0.00387 0.45702 0.037 0.0
H427 H 0.00878 0.49948 0.9235 0.0
H428 H 0.99824 0.36275 0.77051 0.0
H429 H 0.02635 0.41063 0.70598 0.0
H430 H 0.01425 0.34198 0.7098 0.0
H431 H 0.04204 0.38902 0.64672 0.0
H432 H 0.01694 0.37223 0.89804 0.0
H433 H 0.97764 0.41269 0.95778 0.0
H434 H 0.00715 0.34954 0.96232 0.0
H435 H 0.96901 0.3894 0.02205 0.0
H436 H 0.06801 0.38952 0.95284 0.0
H437 H 0.06656 0.351 0.82974 0.0
H438 H 0.91982 0.3934 0.88992 0.0
H439 H 0.95783 0.34577 0.88798 0.0
Li440 Li 0.85126 0.73625 0.08274 0.0
Li441 Li 0.82596 0.75213 0.1238 0.0
Li442 Li 0.82661 0.75192 0.033 0.0
Li443 Li 0.85123 0.77094 0.08564 0.0
C444 C 0.8174 0.71272 0.07345 0.0
N445 N 0.80413 0.67628 0.06184 0.0
C446 C 0.81061 0.70264 0.11407 0.0
C447 C 0.81715 0.70436 0.02682 0.0
C448 C 0.80405 0.6842 0.10748 0.0
C449 C 0.81046 0.6859 0.02173 0.0
C450 C 0.85828 0.74519 0.18336 0.0
C451 C 0.87631 0.74632 0.2586 0.0
N452 N 0.86846 0.72966 0.27285 0.0
C453 C 0.85049 0.72802 0.19859 0.0
C454 C 0.87132 0.75441 0.21352 0.0
C455 C 0.85578 0.72041 0.244 0.0
C456 C 0.88732 0.72157 0.10056 0.0
N457 N 0.86915 0.71597 0.09322 0.0
C458 C 0.87629 0.68526 0.12532 0.0
C459 C 0.86361 0.69801 0.10391 0.0
C460 C 0.89484 0.691 0.1352 0.0
C461 C 0.90055 0.70916 0.12094 0.0
H462 H 0.89124 0.73609 0.09381 0.0
H463 H 0.84911 0.69387 0.09909 0.0
C464 C 0.79138 0.74497 0.1697 0.0
N465 N 0.80913 0.75152 0.17777 0.0
C466 C 0.77826 0.74472 0.20797 0.0
C467 C 0.80203 0.75787 0.26205 0.0
C468 C 0.81462 0.75804 0.22264 0.0
C469 C 0.78365 0.75121 0.25463 0.0
H470 H 0.7874 0.74015 0.13335 0.0
H471 H 0.82865 0.76369 0.22766 0.0
C472 C 0.86918 0.74563 0.99957 0.0
N473 N 0.89763 0.72772 0.94787 0.0
C474 C 0.88744 0.7531 0.99947 0.0
C475 C 0.86533 0.72923 0.97283 0.0
C476 C 0.90165 0.74379 0.97326 0.0
C477 C 0.87992 0.72033 0.94708 0.0
C478 C 0.80919 0.78395 0.10251 0.0
C479 C 0.79059 0.78309 0.08556 0.0
C480 C 0.81331 0.7941 0.14535 0.0
C481 C 0.77637 0.7923 0.11199 0.0
C482 C 0.7987 0.80312 0.17074 0.0
N483 N 0.78069 0.80203 0.15369 0.0
C484 C 0.79196 0.74469 0.98718 0.0
C485 C 0.81416 0.758 0.93184 0.0
C486 C 0.77803 0.74467 0.95072 0.0
N487 N 0.80958 0.75142 0.97743 0.0
C488 C 0.80062 0.75815 0.89406 0.0
C489 C 0.78225 0.75156 0.90356 0.0
H490 H 0.78862 0.73963 0.02377 0.0
H491 H 0.82823 0.76334 0.92497 0.0
C492 C 0.88483 0.78842 0.11184 0.0
N493 N 0.86679 0.79239 0.09823 0.0
C494 C 0.89599 0.80223 0.13418 0.0
C495 C 0.87001 0.82422 0.12678 0.0
C496 C 0.85939 0.81001 0.10397 0.0
C497 C 0.88835 0.82017 0.14318 0.0
H498 H 0.89013 0.77414 0.10838 0.0
H499 H 0.84491 0.81272 0.09364 0.0
O500 O 0.82376 0.73083 0.07917 0.0
O501 O 0.85276 0.75326 0.13989 0.0
O502 O 0.85509 0.75448 0.02523 0.0
O503 O 0.82323 0.77455 0.07798 0.0
H504 H 0.81042 0.70894 0.15036 0.0
H505 H 0.8219 0.71208 0.99479 0.0
H506 H 0.79887 0.67621 0.13863 0.0
H507 H 0.81023 0.67925 0.98587 0.0
H508 H 0.88635 0.75333 0.28238 0.0
H509 H 0.84035 0.72076 0.17577 0.0
H510 H 0.87739 0.76779 0.2025 0.0
H511 H 0.84981 0.70716 0.25628 0.0
H512 H 0.87146 0.67134 0.13608 0.0
H513 H 0.91474 0.71406 0.12847 0.0
H514 H 0.76407 0.73964 0.20131 0.0
H515 H 0.80645 0.76312 0.2977 0.0
H516 H 0.8906 0.76593 0.01944 0.0
H517 H 0.85124 0.72342 0.97202 0.0
H518 H 0.91587 0.74935 0.97305 0.0
H519 H 0.87715 0.70756 0.9264 0.0
H520 H 0.78715 0.77534 0.05247 0.0
H521 H 0.82758 0.79464 0.1595 0.0
H522 H 0.76191 0.79169 0.09938 0.0
H523 H 0.80166 0.81086 0.20421 0.0
H524 H 0.76403 0.73949 0.95933 0.0
H525 H 0.80435 0.76355 0.85802 0.0
H526 H 0.91004 0.79866 0.14682 0.0
H527 H 0.86373 0.83794 0.13345 0.0
Li528 Li 0.48758 0.59822 0.33926 0.0
Li529 Li 0.52238 0.59986 0.33984 0.0
Li530 Li 0.50592 0.57754 0.27969 0.0
Li531 Li 0.506 0.57221 0.36667 0.0
C532 C 0.49495 0.6133 0.2439 0.0
N533 N 0.47505 0.62673 0.16373 0.0
C534 C 0.50167 0.62883 0.21738 0.0
C535 C 0.4781 0.60461 0.2297 0.0
C536 C 0.4914 0.63541 0.17695 0.0
C537 C 0.46825 0.6116 0.18905 0.0
C538 C 0.50435 0.61461 0.41946 0.0
C539 C 0.5056 0.63307 0.49413 0.0
N540 N 0.50337 0.64912 0.46721 0.0
C541 C 0.50226 0.63134 0.39252 0.0
C542 C 0.50617 0.61551 0.47069 0.0
C543 C 0.50174 0.64862 0.41733 0.0
C544 C 0.45814 0.6074 0.40148 0.0
N545 N 0.46509 0.61214 0.35658 0.0
C546 C 0.44238 0.6371 0.35034 0.0
C547 C 0.45788 0.62708 0.3315 0.0
C548 C 0.43344 0.63141 0.39479 0.0
C549 C 0.4428 0.61706 0.42164 0.0
H550 H 0.46508 0.59651 0.42277 0.0
H551 H 0.46456 0.63177 0.29787 0.0
C552 C 0.54741 0.6325 0.33345 0.0
N553 N 0.54277 0.61637 0.35796 0.0
C554 C 0.5598 0.64559 0.35496 0.0
C555 C 0.56274 0.62494 0.42543 0.0
C556 C 0.55022 0.61245 0.40299 0.0
C557 C 0.56736 0.6419 0.40187 0.0
H558 H 0.54079 0.63563 0.2985 0.0
H559 H 0.54547 0.60017 0.42304 0.0
C560 C 0.47603 0.55448 0.33585 0.0
N561 N 0.46083 0.52045 0.36633 0.0
C562 C 0.48263 0.53748 0.31598 0.0
C563 C 0.46159 0.55415 0.37097 0.0
C564 C 0.47477 0.52044 0.33184 0.0
C565 C 0.45415 0.5368 0.38604 0.0
C566 C 0.53963 0.55799 0.3332 0.0
C567 C 0.53886 0.54157 0.30454 0.0
C568 C 0.55217 0.55883 0.37286 0.0
C569 C 0.55055 0.5263 0.31619 0.0
C570 C 0.56358 0.54324 0.38346 0.0
N571 N 0.56255 0.52744 0.35512 0.0
C572 C 0.52276 0.56051 0.19373 0.0
C573 C 0.48964 0.55673 0.20055 0.0
C574 C 0.52348 0.54699 0.15597 0.0
N575 N 0.50611 0.56452 0.21658 0.0
C576 C 0.48969 0.54336 0.16254 0.0
C577 C 0.50685 0.53784 0.14099 0.0
H578 H 0.5357 0.56672 0.20731 0.0
H579 H 0.47658 0.55994 0.21941 0.0
C580 C 0.49891 0.55967 0.46133 0.0
N581 N 0.50574 0.55359 0.41727 0.0
C582 C 0.49808 0.54744 0.50141 0.0
C583 C 0.5108 0.52266 0.44971 0.0
C584 C 0.51127 0.53535 0.41057 0.0
C585 C 0.50427 0.52882 0.49561 0.0
H586 H 0.49392 0.574 0.46521 0.0
H587 H 0.51574 0.5305 0.37488 0.0
O588 O 0.50494 0.6067 0.28341 0.0
O589 O 0.50494 0.59745 0.39603 0.0
O590 O 0.48383 0.5713 0.32148 0.0
O591 O 0.5285 0.57324 0.3218 0.0
H592 H 0.51469 0.63571 0.22794 0.0
H593 H 0.47255 0.59275 0.25009 0.0
H594 H 0.49643 0.64741 0.15607 0.0
H595 H 0.45517 0.60504 0.17771 0.0
H596 H 0.50697 0.63395 0.53375 0.0
H597 H 0.50106 0.63106 0.35287 0.0
H598 H 0.5081 0.60279 0.49219 0.0
H599 H 0.50006 0.66163 0.39691 0.0
H600 H 0.43829 0.64965 0.33058 0.0
H601 H 0.4391 0.61352 0.45903 0.0
H602 H 0.56293 0.65871 0.33612 0.0
H603 H 0.56807 0.62182 0.46192 0.0
H604 H 0.49399 0.53738 0.28938 0.0
H605 H 0.45622 0.56711 0.38659 0.0
H606 H 0.47986 0.50719 0.31701 0.0
H607 H 0.44305 0.53635 0.41342 0.0
H608 H 0.52902 0.54033 0.27446 0.0
H609 H 0.55307 0.5713 0.39545 0.0
H610 H 0.54996 0.5135 0.2945 0.0
H611 H 0.57326 0.54372 0.41421 0.0
H612 H 0.53697 0.5431 0.14011 0.0
H613 H 0.47658 0.53666 0.1518 0.0
H614 H 0.49275 0.55241 0.5365 0.0
H615 H 0.51537 0.5082 0.44429 0.0
Li616 Li 0.65588 0.2697 0.57918 0.0
Li617 Li 0.68122 0.2521 0.61766 0.0
Li618 Li 0.67987 0.25275 0.52834 0.0
Li619 Li 0.65579 0.23411 0.57969 0.0
C620 C 0.68903 0.29169 0.58935 0.0
N621 N 0.69975 0.32731 0.62012 0.0
C622 C 0.6874 0.29676 0.63892 0.0
C623 C 0.69621 0.30471 0.55545 0.0
C624 C 0.69288 0.31484 0.65375 0.0
C625 C 0.70153 0.32266 0.57173 0.0
C626 C 0.64867 0.25262 0.68214 0.0
C627 C 0.6375 0.23698 0.75561 0.0
N628 N 0.63637 0.25398 0.77879 0.0
C629 C 0.64732 0.26994 0.70671 0.0
C630 C 0.64363 0.23601 0.70675 0.0
C631 C 0.6411 0.27032 0.75554 0.0
C632 C 0.62206 0.28487 0.61159 0.0
N633 N 0.63878 0.29036 0.59147 0.0
C634 C 0.63237 0.32262 0.61236 0.0
C635 C 0.64378 0.30893 0.5898 0.0
C636 C 0.61576 0.31704 0.63647 0.0
C637 C 0.61031 0.29804 0.63466 0.0
H638 H 0.61849 0.27002 0.61283 0.0
H639 H 0.65701 0.31308 0.57336 0.0
C640 C 0.71565 0.2603 0.66361 0.0
N641 N 0.69857 0.25201 0.67099 0.0
C642 C 0.72894 0.26071 0.70142 0.0
C643 C 0.70697 0.24365 0.75323 0.0
C644 C 0.69415 0.24354 0.71446 0.0
C645 C 0.72449 0.25238 0.74672 0.0
H646 H 0.71893 0.26656 0.62828 0.0
H647 H 0.68089 0.23634 0.71883 0.0
C648 C 0.64611 0.26208 0.48069 0.0
N649 N 0.63655 0.28225 0.39723 0.0
C650 C 0.63335 0.25453 0.44678 0.0
C651 C 0.65401 0.27988 0.4722 0.0
C652 C 0.62869 0.26495 0.40479 0.0
C653 C 0.64899 0.28985 0.42978 0.0
C654 C 0.69809 0.22075 0.59337 0.0
C655 C 0.7165 0.22319 0.57589 0.0
C656 C 0.69487 0.20928 0.63445 0.0
C657 C 0.7314 0.21417 0.6 0.0
C658 C 0.71016 0.20051 0.65755 0.0
N659 N 0.72795 0.20312 0.64 0.0
C660 C 0.71307 0.26269 0.47821 0.0
C661 C 0.69263 0.24449 0.42811 0.0
C662 C 0.72682 0.26294 0.44119 0.0
N663 N 0.6964 0.25349 0.47134 0.0
C664 C 0.70606 0.24439 0.38994 0.0
C665 C 0.72346 0.25359 0.39655 0.0
H666 H 0.71591 0.26945 0.51314 0.0
H667 H 0.67937 0.23712 0.42356 0.0
C668 C 0.62135 0.21718 0.60351 0.0
N669 N 0.6395 0.21297 0.5912 0.0
C670 C 0.60981 0.20353 0.6254 0.0
C671 C 0.63548 0.18114 0.61919 0.0
C672 C 0.64653 0.19521 0.59716 0.0
C673 C 0.61709 0.18547 0.63477 0.0
H674 H 0.61628 0.23152 0.59947 0.0
H675 H 0.66104 0.19226 0.58751 0.0
O676 O 0.68368 0.2741 0.57382 0.0
O677 O 0.65442 0.25191 0.63395 0.0
O678 O 0.65093 0.25195 0.5217 0.0
O679 O 0.68338 0.22988 0.57104 0.0
H680 H 0.68211 0.28683 0.66572 0.0
H681 H 0.69753 0.30103 0.5169 0.0
H682 H 0.69168 0.31894 0.69201 0.0
H683 H 0.70704 0.33289 0.54587 0.0
H684 H 0.6337 0.22422 0.77516 0.0
H685 H 0.65084 0.28299 0.68828 0.0
H686 H 0.64481 0.22246 0.68868 0.0
H687 H 0.64 0.28363 0.77494 0.0
H688 H 0.63689 0.33724 0.613 0.0
H689 H 0.59755 0.29332 0.65289 0.0
H690 H 0.74251 0.26739 0.69547 0.0
H691 H 0.70335 0.23688 0.78776 0.0
H692 H 0.62715 0.24075 0.45282 0.0
H693 H 0.6639 0.28595 0.49797 0.0
H694 H 0.61885 0.25929 0.37819 0.0
H695 H 0.655 0.30364 0.42274 0.0
H696 H 0.71926 0.23202 0.54423 0.0
H697 H 0.68077 0.20754 0.64911 0.0
H698 H 0.74573 0.21598 0.58697 0.0
H699 H 0.70789 0.19175 0.68966 0.0
H700 H 0.7401 0.27011 0.4476 0.0
H701 H 0.70302 0.23702 0.35591 0.0
H702 H 0.59569 0.2073 0.63722 0.0
H703 H 0.64147 0.1673 0.62599 0.0
Li704 Li 0.3248 0.25366 0.62017 0.0
Li705 Li 0.35071 0.23628 0.58348 0.0
Li706 Li 0.35081 0.27175 0.58518 0.0
Li707 Li 0.32741 0.25341 0.53148 0.0
C708 C 0.3566 0.25307 0.68753 0.0
N709 N 0.36733 0.25182 0.78539 0.0
C710 C 0.35821 0.23572 0.71187 0.0
C711 C 0.3607 0.26976 0.7129 0.0
C712 C 0.36361 0.2354 0.76133 0.0
C713 C 0.36599 0.26884 0.76241 0.0
C714 C 0.31778 0.21426 0.5925 0.0
C715 C 0.30576 0.18293 0.57696 0.0
N716 N 0.30722 0.1789 0.6258 0.0
C717 C 0.3191 0.20981 0.64253 0.0
C718 C 0.31101 0.20073 0.55941 0.0
C719 C 0.31371 0.19187 0.65865 0.0
C720 C 0.28926 0.24601 0.66024 0.0
N721 N 0.30643 0.2535 0.67121 0.0
C722 C 0.29651 0.26051 0.75314 0.0
C723 C 0.31017 0.2609 0.71636 0.0
C724 C 0.27886 0.25262 0.7429 0.0
C725 C 0.27512 0.2454 0.69593 0.0
H726 H 0.2866 0.24053 0.62371 0.0
H727 H 0.32357 0.26743 0.72371 0.0
C728 C 0.38456 0.22161 0.61585 0.0
N729 N 0.36789 0.21582 0.59613 0.0
C730 C 0.39657 0.20867 0.63873 0.0
C731 C 0.37478 0.18372 0.61746 0.0
C732 C 0.36313 0.19719 0.59493 0.0
C733 C 0.39141 0.18959 0.64095 0.0
H734 H 0.38791 0.23651 0.61678 0.0
H735 H 0.34992 0.19281 0.57885 0.0
C736 C 0.30812 0.28504 0.59461 0.0
N737 N 0.2771 0.3023 0.63702 0.0
C738 C 0.29027 0.28305 0.57337 0.0
C739 C 0.31021 0.29589 0.6373 0.0
C740 C 0.27476 0.29188 0.59539 0.0
C741 C 0.29435 0.30446 0.65824 0.0
C742 C 0.36181 0.2442 0.48639 0.0
C743 C 0.37587 0.25134 0.45545 0.0
C744 C 0.35335 0.22687 0.47542 0.0
C745 C 0.38124 0.241 0.41388 0.0
C746 C 0.35911 0.21696 0.43351 0.0
N747 N 0.37281 0.22417 0.40386 0.0
C748 C 0.38564 0.28801 0.60734 0.0
C749 C 0.36043 0.31007 0.60867 0.0
C750 C 0.39768 0.30108 0.62973 0.0
N751 N 0.36729 0.29254 0.59841 0.0
C752 C 0.37194 0.32352 0.63166 0.0
C753 C 0.39065 0.31884 0.64352 0.0
H754 H 0.39058 0.27383 0.59994 0.0
H755 H 0.34576 0.31327 0.60166 0.0
C756 C 0.29541 0.24256 0.47838 0.0
N757 N 0.31147 0.25296 0.47368 0.0
C758 C 0.2818 0.24252 0.44113 0.0
C759 C 0.3014 0.26387 0.39424 0.0
C760 C 0.31476 0.26345 0.43249 0.0
C761 C 0.28463 0.25341 0.3987 0.0
H762 H 0.29285 0.23475 0.51192 0.0
H763 H 0.32749 0.27182 0.42982 0.0
O764 O 0.35137 0.25373 0.63897 0.0
O765 O 0.32302 0.23172 0.57572 0.0
O766 O 0.32339 0.27613 0.57424 0.0
O767 O 0.35637 0.25423 0.52705 0.0
H768 H 0.35544 0.22261 0.69285 0.0
H769 H 0.3594 0.28332 0.69491 0.0
H770 H 0.36484 0.22208 0.78062 0.0
H771 H 0.36893 0.28165 0.78269 0.0
H772 H 0.30057 0.17231 0.55174 0.0
H773 H 0.32411 0.22011 0.66871 0.0
H774 H 0.30997 0.20389 0.5205 0.0
H775 H 0.31467 0.18826 0.69728 0.0
H776 H 0.29959 0.26639 0.78909 0.0
H777 H 0.26149 0.23935 0.68719 0.0
H778 H 0.40933 0.21361 0.65652 0.0
H779 H 0.37047 0.16904 0.61846 0.0
H780 H 0.28838 0.27473 0.54036 0.0
H781 H 0.32386 0.29727 0.65481 0.0
H782 H 0.26085 0.29041 0.57943 0.0
H783 H 0.29573 0.31272 0.69156 0.0
H784 H 0.38255 0.26475 0.46347 0.0
H785 H 0.34247 0.2211 0.49889 0.0
H786 H 0.3921 0.24636 0.38957 0.0
H787 H 0.35268 0.20354 0.42457 0.0
H788 H 0.41203 0.29704 0.63867 0.0
H789 H 0.36612 0.33711 0.64194 0.0
H790 H 0.26897 0.23439 0.44584 0.0
H791 H 0.30398 0.27247 0.36193 0.0
Li792 Li 0.15633 0.76815 0.0822 0.0
Li793 Li 0.18276 0.75325 0.12312 0.0
Li794 Li 0.18183 0.75242 0.03386 0.0
Li795 Li 0.15892 0.73271 0.08615 0.0
C796 C 0.18717 0.79311 0.08932 0.0
N797 N 0.19425 0.83036 0.11346 0.0
C798 C 0.18531 0.79922 0.13803 0.0
C799 C 0.19278 0.80591 0.05293 0.0
C800 C 0.18892 0.81811 0.14949 0.0
C801 C 0.19625 0.82469 0.06586 0.0
C802 C 0.14992 0.75221 0.18635 0.0
C803 C 0.13919 0.73711 0.261 0.0
N804 N 0.13683 0.75437 0.28216 0.0
C805 C 0.14729 0.76979 0.20881 0.0
C806 C 0.14574 0.73573 0.21259 0.0
C807 C 0.14069 0.77059 0.25727 0.0
C808 C 0.12097 0.77926 0.1096 0.0
N809 N 0.13706 0.787 0.09169 0.0
C810 C 0.1249 0.81799 0.10755 0.0
C811 C 0.13928 0.80605 0.0903 0.0
C812 C 0.10755 0.81055 0.12517 0.0
C813 C 0.10648 0.7906 0.12788 0.0
H814 H 0.1199 0.76406 0.11268 0.0
H815 H 0.15246 0.81204 0.07785 0.0
C816 C 0.21607 0.76493 0.16955 0.0
N817 N 0.19972 0.75526 0.17686 0.0
C818 C 0.22921 0.7665 0.20751 0.0
C819 C 0.20856 0.74788 0.25939 0.0
C820 C 0.19584 0.7467 0.22053 0.0
C821 C 0.22539 0.75788 0.25283 0.0
H822 H 0.21894 0.77125 0.13406 0.0
H823 H 0.18317 0.73848 0.22489 0.0
C824 C 0.14787 0.75814 0.98387 0.0
N825 N 0.1375 0.77578 0.89724 0.0
C826 C 0.13703 0.74849 0.94904 0.0
C827 C 0.15343 0.77675 0.9747 0.0
C828 C 0.13193 0.75766 0.90544 0.0
C829 C 0.14804 0.78542 0.93068 0.0
C830 C 0.20166 0.72235 0.10314 0.0
C831 C 0.22009 0.72524 0.08641 0.0
C832 C 0.19852 0.71128 0.14501 0.0
C833 C 0.23512 0.71703 0.11195 0.0
C834 C 0.21392 0.70332 0.16954 0.0
N835 N 0.23174 0.70632 0.15262 0.0
C836 C 0.21517 0.76276 0.98551 0.0
C837 C 0.19532 0.74444 0.9341 0.0
C838 C 0.2293 0.76302 0.94948 0.0
N839 N 0.19865 0.75341 0.97761 0.0
C840 C 0.20908 0.74447 0.89675 0.0
C841 C 0.22642 0.75368 0.90456 0.0
H842 H 0.21758 0.76961 0.02056 0.0
H843 H 0.18217 0.73697 0.92872 0.0
C844 C 0.12522 0.71458 0.10838 0.0
N845 N 0.14373 0.71089 0.09896 0.0
C846 C 0.11383 0.70095 0.13079 0.0
C847 C 0.14044 0.67954 0.131 0.0
C848 C 0.15134 0.69359 0.10833 0.0
C849 C 0.12162 0.68344 0.14368 0.0
H850 H 0.11966 0.72856 0.10148 0.0
H851 H 0.16611 0.69104 0.10085 0.0
O852 O 0.18369 0.7747 0.0771 0.0
O853 O 0.15605 0.75109 0.13857 0.0
O854 O 0.15313 0.74927 0.02644 0.0
O855 O 0.18678 0.7305 0.07903 0.0
H856 H 0.18123 0.78948 0.16673 0.0
H857 H 0.19436 0.80138 0.01506 0.0
H858 H 0.1875 0.82303 0.18703 0.0
H859 H 0.20053 0.83477 0.03805 0.0
H860 H 0.13603 0.72447 0.28181 0.0
H861 H 0.15012 0.78273 0.189 0.0
H862 H 0.14784 0.722 0.19605 0.0
H863 H 0.13859 0.78411 0.27503 0.0
H864 H 0.12795 0.83294 0.10893 0.0
H865 H 0.0953 0.78313 0.14607 0.0
H866 H 0.24227 0.77412 0.20151 0.0
H867 H 0.20548 0.74085 0.29392 0.0
H868 H 0.13265 0.73406 0.9556 0.0
H869 H 0.16179 0.78444 1.00121 0.0
H870 H 0.12356 0.75036 0.87811 0.0
H871 H 0.15225 0.79982 0.9231 0.0
H872 H 0.22279 0.73374 0.0541 0.0
H873 H 0.18438 0.70922 0.15911 0.0
H874 H 0.24946 0.71917 0.09946 0.0
H875 H 0.21171 0.69486 0.20223 0.0
H876 H 0.24248 0.77023 0.95683 0.0
H877 H 0.20638 0.73713 0.86248 0.0
H878 H 0.09937 0.70437 0.14027 0.0
H879 H 0.14681 0.66612 0.14052 0.0
Li880 Li 0.18118 0.25389 0.12005 0.0
Li881 Li 0.15752 0.27133 0.06704 0.0
Li882 Li 0.15736 0.2374 0.06759 0.0
Li883 Li 0.18303 0.2536 0.03245 0.0
C884 C 0.13932 0.24354 0.14681 0.0
N885 N 0.11256 0.2194 0.18568 0.0
C886 C 0.12015 0.24799 0.14328 0.0
C887 C 0.14491 0.22689 0.1703 0.0
C888 C 0.10683 0.23558 0.16313 0.0
C889 C 0.13116 0.21485 0.18967 0.0
C890 C 0.18823 0.29206 0.1016 0.0
C891 C 0.20378 0.32205 0.11291 0.0
N892 N 0.1942 0.32453 0.15588 0.0
C893 C 0.17854 0.29489 0.14591 0.0
C894 C 0.20097 0.30571 0.08499 0.0
C895 C 0.18177 0.31141 0.17279 0.0
C896 C 0.21558 0.26069 0.16656 0.0
N897 N 0.19781 0.25445 0.17673 0.0
C898 C 0.20658 0.2487 0.26078 0.0
C899 C 0.19305 0.24864 0.22294 0.0
C900 C 0.22508 0.25476 0.25071 0.0
C901 C 0.22948 0.26093 0.20306 0.0
H902 H 0.21906 0.26522 0.1296 0.0
H903 H 0.17886 0.24378 0.23035 0.0
C904 C 0.12362 0.28657 0.03649 0.0
N905 N 0.14083 0.29215 0.05324 0.0
C906 C 0.1116 0.29942 0.01331 0.0
C907 C 0.13468 0.32394 0.02752 0.0
C908 C 0.14644 0.31051 0.0498 0.0
C909 C 0.11727 0.31826 0.00772 0.0
H910 H 0.11974 0.27182 0.03824 0.0
H911 H 0.16037 0.31461 0.0617 0.0
C912 C 0.19762 0.22092 0.05364 0.0
N913 N 0.22481 0.20078 1.00281 0.0
C914 C 0.19239 0.20867 0.01564 0.0
C915 C 0.21667 0.22282 0.066 0.0
C916 C 0.20635 0.19863 0.99035 0.0
C917 C 0.23021 0.21255 0.03978 0.0
C918 C 0.15475 0.2639 0.96783 0.0
C919 C 0.14198 0.25761 0.93222 0.0
C920 C 0.16522 0.28033 0.95925 0.0
C921 C 0.13988 0.26787 0.88862 0.0
C922 C 0.16277 0.29014 0.9151 0.0
N923 N 0.15024 0.28378 0.88101 0.0
C924 C 0.12414 0.22236 0.03188 0.0
C925 C 0.14498 0.19841 0.05977 0.0
C926 C 0.11241 0.20895 0.01008 0.0
N927 N 0.1403 0.21698 0.05495 0.0
C928 C 0.1336 0.18445 0.03835 0.0
C929 C 0.11741 0.18982 0.01203 0.0
H930 H 0.12091 0.23721 0.02805 0.0
H931 H 0.15805 0.19453 0.0777 0.0
C932 C 0.21691 0.26244 0.98398 0.0
N933 N 0.20029 0.25303 0.97977 0.0
C934 C 0.22973 0.26236 0.945 0.0
C935 C 0.20804 0.24281 0.89859 0.0
C936 C 0.19562 0.24334 0.93829 0.0
C937 C 0.22521 0.25245 0.90196 0.0
H938 H 0.22015 0.26998 0.01758 0.0
H939 H 0.18227 0.23599 0.93621 0.0
O940 O 0.15255 0.25517 0.12624 0.0
O941 O 0.18554 0.27597 0.07456 0.0
O942 O 0.18418 0.23119 0.07811 0.0
O943 O 0.15689 0.25392 0.0107 0.0
H944 H 0.11561 0.26083 0.12523 0.0
H945 H 0.1597 0.22316 0.17279 0.0
H946 H 0.09193 0.23879 0.16053 0.0
H947 H 0.13527 0.20185 0.20766 0.0
H948 H 0.21358 0.33275 0.10044 0.0
H949 H 0.16869 0.2845 0.1596 0.0
H950 H 0.20859 0.30371 0.05079 0.0
H951 H 0.17438 0.31378 0.20714 0.0
H952 H 0.20275 0.24386 0.29728 0.0
H953 H 0.24359 0.2657 0.19408 0.0
H954 H 0.0983 0.29456 0.99829 0.0
H955 H 0.13946 0.33839 0.02367 0.0
H956 H 0.17776 0.20724 0.00498 0.0
H957 H 0.22099 0.23219 0.09529 0.0
H958 H 0.20251 0.18923 0.96059 0.0
H959 H 0.24501 0.21397 0.04878 0.0
H960 H 0.13378 0.24491 0.93821 0.0
H961 H 0.17516 0.28547 0.98627 0.0
H962 H 0.13003 0.26318 0.86078 0.0
H963 H 0.17079 0.30285 0.90799 0.0
H964 H 0.10001 0.2135 0.98998 0.0
H965 H 0.13781 0.16976 0.04033 0.0
H966 H 0.24298 0.26989 0.94828 0.0
H967 H 0.20431 0.23505 0.86561 0.0
Li968 Li 0.35071 0.73435 0.56342 0.0
Li969 Li 0.32926 0.75161 0.62335 0.0
Li970 Li 0.32441 0.75321 0.53355 0.0
Li971 Li 0.35269 0.76894 0.56937 0.0
C972 C 0.30838 0.72025 0.55955 0.0
N973 N 0.27773 0.70059 0.52296 0.0
C974 C 0.29271 0.71676 0.58954 0.0
C975 C 0.30856 0.71346 0.5112 0.0
C976 C 0.27734 0.70685 0.57031 0.0
C977 C 0.29291 0.70364 0.4933 0.0
C978 C 0.36451 0.75854 0.66554 0.0
C979 C 0.36659 0.78597 0.71791 0.0
N980 N 0.37633 0.77564 0.75163 0.0
C981 C 0.37457 0.74819 0.70063 0.0
C982 C 0.3605 0.77758 0.67416 0.0
C983 C 0.38041 0.75709 0.74395 0.0
C984 C 0.38463 0.71434 0.54079 0.0
N985 N 0.36561 0.71246 0.54637 0.0
C986 C 0.36663 0.68163 0.51019 0.0
C987 C 0.35663 0.69629 0.53287 0.0
C988 C 0.38606 0.6836 0.50168 0.0
C989 C 0.39521 0.69997 0.51838 0.0
H990 H 0.39143 0.72739 0.55145 0.0
H991 H 0.34157 0.69503 0.53781 0.0
C992 C 0.2952 0.7569 0.67104 0.0
N993 N 0.31337 0.75211 0.68153 0.0
C994 C 0.28146 0.75727 0.70799 0.0
C995 C 0.30533 0.74819 0.76685 0.0
C996 C 0.31869 0.74785 0.72845 0.0
C997 C 0.28641 0.75282 0.75659 0.0
H998 H 0.2913 0.76017 0.63348 0.0
H999 H 0.33318 0.74406 0.73608 0.0
C1000 C 0.36205 0.74776 0.47242 0.0
N1001 N 0.38531 0.73807 0.39453 0.0
C1002 C 0.38084 0.75377 0.4715 0.0
C1003 C 0.35518 0.73659 0.43392 0.0
C1004 C 0.39237 0.74871 0.43188 0.0
C1005 C 0.36711 0.73196 0.39475 0.0
C1006 C 0.31718 0.79114 0.58531 0.0
C1007 C 0.31066 0.80045 0.54321 0.0
C1008 C 0.3147 0.79948 0.63155 0.0
C1009 C 0.30197 0.81807 0.54803 0.0
C1010 C 0.30591 0.81711 0.63483 0.0
N1011 N 0.29979 0.82597 0.59335 0.0
C1012 C 0.28711 0.75455 0.49711 0.0
C1013 C 0.31128 0.761 0.43882 0.0
C1014 C 0.27338 0.75581 0.46053 0.0
N1015 N 0.30566 0.75653 0.48524 0.0
C1016 C 0.29805 0.76239 0.40115 0.0
C1017 C 0.27898 0.75943 0.41196 0.0
H1018 H 0.28306 0.7516 0.53473 0.0
H1019 H 0.32603 0.76335 0.431 0.0
C1020 C 0.38719 0.79073 0.56928 0.0
N1021 N 0.36882 0.78997 0.5547 0.0
C1022 C 0.39973 0.80327 0.54624 0.0
C1023 C 0.37395 0.81472 0.49617 0.0
C1024 C 0.36202 0.80183 0.51951 0.0
C1025 C 0.39315 0.81508 0.50839 0.0
H1026 H 0.39242 0.78069 0.59601 0.0
H1027 H 0.34763 0.80039 0.50708 0.0
O1028 O 0.32345 0.73021 0.57752 0.0
O1029 O 0.35845 0.74989 0.62337 0.0
O1030 O 0.35029 0.7533 0.5099 0.0
O1031 O 0.32542 0.7737 0.58146 0.0
H1032 H 0.29244 0.72153 0.62734 0.0
H1033 H 0.32058 0.71593 0.48758 0.0
H1034 H 0.26509 0.70412 0.59308 0.0
H1035 H 0.29281 0.69848 0.45579 0.0
H1036 H 0.36357 0.80071 0.72504 0.0
H1037 H 0.37775 0.73341 0.69452 0.0
H1038 H 0.35287 0.78584 0.6473 0.0
H1039 H 0.38818 0.74924 0.77149 0.0
H1040 H 0.35917 0.66916 0.4978 0.0
H1041 H 0.41019 0.70192 0.51223 0.0
H1042 H 0.26704 0.7609 0.69869 0.0
H1043 H 0.30965 0.74472 0.80401 0.0
H1044 H 0.38653 0.76218 0.50108 0.0
H1045 H 0.34073 0.73174 0.43382 0.0
H1046 H 0.40693 0.75331 0.43075 0.0
H1047 H 0.36192 0.72344 0.36458 0.0
H1048 H 0.31236 0.79419 0.50715 0.0
H1049 H 0.31942 0.79239 0.66464 0.0
H1050 H 0.29692 0.82545 0.51573 0.0
H1051 H 0.30392 0.82372 0.67038 0.0
H1052 H 0.25866 0.7536 0.46967 0.0
H1053 H 0.30264 0.76541 0.3639 0.0
H1054 H 0.41453 0.80314 0.55616 0.0
H1055 H 0.36851 0.82353 0.46678 0.0
Li1056 Li 0.52108 0.09768 0.81373 0.0
Li1057 Li 0.48685 0.10151 0.81636 0.0
Li1058 Li 0.50421 0.07561 0.86756 0.0
Li1059 Li 0.50152 0.07383 0.77858 0.0
C1060 C 0.51411 0.12032 0.88972 0.0
N1061 N 0.53248 0.15267 0.92058 0.0
C1062 C 0.50509 0.13786 0.88696 0.0
C1063 C 0.53237 0.11921 0.90904 0.0
C1064 C 0.51463 0.15405 0.90255 0.0
C1065 C 0.54146 0.13573 0.92416 0.0
C1066 C 0.51198 0.10236 0.71404 0.0
C1067 C 0.51397 0.1171 0.63411 0.0
N1068 N 0.52909 0.10603 0.62303 0.0
C1069 C 0.5276 0.09119 0.70192 0.0
C1070 C 0.5051 0.11543 0.67989 0.0
C1071 C 0.53603 0.09323 0.65571 0.0
C1072 C 0.56035 0.10627 0.78878 0.0
N1073 N 0.54273 0.11323 0.79754 0.0
C1074 C 0.55143 0.14311 0.76279 0.0
C1075 C 0.53822 0.13137 0.7856 0.0
C1076 C 0.56937 0.13602 0.75138 0.0
C1077 C 0.57397 0.11751 0.76545 0.0
H1078 H 0.56359 0.09175 0.79719 0.0
H1079 H 0.52397 0.13639 0.79121 0.0
C1080 C 0.4484 0.115 0.80942 0.0
N1081 N 0.46703 0.11927 0.80438 0.0
C1082 C 0.43468 0.1264 0.78702 0.0
C1083 C 0.45954 0.14686 0.75741 0.0
C1084 C 0.47273 0.13507 0.78003 0.0
C1085 C 0.44033 0.14223 0.75956 0.0
H1086 H 0.44426 0.10211 0.82792 0.0
H1087 H 0.48764 0.13789 0.7757 0.0
C1088 C 0.5412 0.06314 0.83237 0.0
N1089 N 0.57606 0.04914 0.85973 0.0
C1090 C 0.55213 0.053 0.7986 0.0
C1091 C 0.54788 0.06596 0.8802 0.0
C1092 C 0.56976 0.0461 0.81309 0.0
C1093 C 0.56556 0.05881 0.8933 0.0
C1094 C 0.46747 0.06319 0.80292 0.0
C1095 C 0.46431 0.04459 0.81807 0.0
C1096 C 0.45781 0.07028 0.76199 0.0
C1097 C 0.45169 0.03331 0.79165 0.0
C1098 C 0.4453 0.05857 0.73659 0.0
N1099 N 0.44254 0.04047 0.75178 0.0
C1100 C 0.50489 0.06348 0.97145 0.0
C1101 C 0.50448 0.03996 0.90942 0.0
C1102 C 0.50539 0.04951 0.00827 0.0
N1103 N 0.50438 0.05845 0.92306 0.0
C1104 C 0.50462 0.02562 0.9448 0.0
C1105 C 0.50515 0.03028 0.99498 0.0
H1106 H 0.50505 0.07828 0.98147 0.0
H1107 H 0.50451 0.03633 0.87072 0.0
C1108 C 0.49118 0.06139 0.68343 0.0
N1109 N 0.49907 0.05624 0.72706 0.0
C1110 C 0.49007 0.04844 0.64498 0.0
C1111 C 0.50487 0.02507 0.69754 0.0
C1112 C 0.50569 0.03849 0.735 0.0
C1113 C 0.49712 0.03017 0.65202 0.0
H1114 H 0.48584 0.07557 0.67844 0.0
H1115 H 0.51177 0.03486 0.77029 0.0
O1116 O 0.50501 0.10438 0.87393 0.0
O1117 O 0.50314 0.10023 0.75858 0.0
O1118 O 0.52384 0.0698 0.81877 0.0
O1119 O 0.48016 0.07434 0.8274 0.0
H1120 H 0.49084 0.13896 0.87307 0.0
H1121 H 0.53958 0.10582 0.9117 0.0
H1122 H 0.50784 0.16771 0.90036 0.0
H1123 H 0.55566 0.13509 0.93868 0.0
H1124 H 0.50878 0.12714 0.60731 0.0
H1125 H 0.53307 0.08095 0.72772 0.0
H1126 H 0.49294 0.12409 0.68847 0.0
H1127 H 0.54808 0.08464 0.64583 0.0
H1128 H 0.54741 0.15727 0.75195 0.0
H1129 H 0.58769 0.11161 0.75678 0.0
H1130 H 0.41993 0.12244 0.7891 0.0
H1131 H 0.46433 0.15894 0.73636 0.0
H1132 H 0.54709 0.05054 0.76153 0.0
H1133 H 0.53946 0.07341 0.90709 0.0
H1134 H 0.57842 0.03831 0.78727 0.0
H1135 H 0.57091 0.0609 0.9302 0.0
H1136 H 0.47147 0.03889 0.84989 0.0
H1137 H 0.46032 0.08453 0.74919 0.0
H1138 H 0.44917 0.01887 0.80287 0.0
H1139 H 0.43789 0.06382 0.70457 0.0
H1140 H 0.50593 0.05363 0.04666 0.0
H1141 H 0.50454 0.01099 0.9331 0.0
H1142 H 0.48402 0.05264 0.61002 0.0
H1143 H 0.51041 0.011 0.70364 0.0
Li1144 Li 1.00306 0.93182 0.2834 0.0
Li1145 Li 1.00307 0.92883 0.37145 0.0
Li1146 Li 0.01895 0.9036 0.31414 0.0
Li1147 Li 0.98465 0.90739 0.31924 0.0
C1148 C 0.03673 0.94376 0.30372 0.0
N1149 N 0.05767 0.97062 0.25408 0.0
C1150 C 0.03508 0.96284 0.31624 0.0
C1151 C 0.04912 0.93831 0.26622 0.0
C1152 C 0.04576 0.97622 0.29061 0.0
C1153 C 0.05957 0.95212 0.24151 0.0
C1154 C 0.96463 0.94003 0.34791 0.0
C1155 C 0.94285 0.94035 0.4162 0.0
N1156 N 0.93035 0.95032 0.38845 0.0
C1157 C 0.95166 0.95044 0.32021 0.0
C1158 C 0.96028 0.93507 0.39641 0.0
C1159 C 0.93437 0.95544 0.3413 0.0
C1160 C 0.01295 0.94517 0.18967 0.0
N1161 N 0.00414 0.94977 0.23253 0.0
C1162 C 0.99583 0.98013 0.20149 0.0
C1163 C 0.99576 0.96684 0.23934 0.0
C1164 C 0.00452 0.97555 0.15671 0.0
C1165 C 0.01326 0.95797 0.15081 0.0
H1166 H 0.01963 0.93151 0.18569 0.0
H1167 H 0.98899 0.97004 0.27407 0.0
C1168 C 0.0138 0.94134 0.4713 0.0
N1169 N 0.00482 0.9455 0.42828 0.0
C1170 C 0.01516 0.95502 0.50876 0.0
C1171 C 0.99778 0.97673 0.45736 0.0
C1172 C 0.99706 0.96287 0.42083 0.0
C1173 C 0.00702 0.97299 0.50191 0.0
H1174 H 0.02014 0.92757 0.47627 0.0
H1175 H 0.99048 0.96613 0.38595 0.0
C1176 C 0.99071 0.90537 0.21724 0.0
N1177 N 0.97111 0.90505 0.12919 0.0
C1178 C 0.97436 0.91625 0.2117 0.0
C1179 C 0.9971 0.89437 0.17783 0.0
C1180 C 0.96467 0.91592 0.16694 0.0
C1181 C 0.98696 0.89434 0.13371 0.0
C1182 C 0.99476 0.88303 0.38976 0.0
C1183 C 0.00474 0.8662 0.38273 0.0
C1184 C 0.97699 0.88252 0.41223 0.0
C1185 C 0.9966 0.8491 0.39718 0.0
C1186 C 0.96931 0.86513 0.4261 0.0
N1187 N 0.97918 0.84892 0.4183 0.0
C1188 C 0.05685 0.88675 0.30154 0.0
C1189 C 0.03019 0.87183 0.26613 0.0
C1190 C 0.069 0.87425 0.27654 0.0
N1191 N 0.03782 0.88547 0.29515 0.0
C1192 C 0.04169 0.85953 0.23966 0.0
C1193 C 0.06136 0.86085 0.24384 0.0
H1194 H 0.06264 0.8979 0.32419 0.0
H1195 H 0.01505 0.87104 0.26185 0.0
C1196 C 0.94485 0.89815 0.30165 0.0
N1197 N 0.96288 0.89164 0.30573 0.0
C1198 C 0.93096 0.887 0.27922 0.0
C1199 C 0.95414 0.86232 0.26813 0.0
C1200 C 0.96757 0.87396 0.29023 0.0
C1201 C 0.93575 0.86905 0.26123 0.0
H1202 H 0.94138 0.91233 0.31292 0.0
H1203 H 0.98207 0.8693 0.29234 0.0
O1204 O 0.02594 0.93052 0.32722 0.0
O1205 O 0.98166 0.93516 0.32775 0.0
O1206 O 1.00082 0.906 0.26026 0.0
O1207 O 1.0025 0.89986 0.37511 0.0
H1208 H 0.0255 0.9673 0.34501 0.0
H1209 H 0.05041 0.92362 0.2557 0.0
H1210 H 0.04453 0.99105 0.29966 0.0
H1211 H 0.06911 0.94813 0.21216 0.0
H1212 H 0.93929 0.9366 0.45371 0.0
H1213 H 0.95488 0.95453 0.28271 0.0
H1214 H 0.97035 0.92749 0.41878 0.0
H1215 H 0.92415 0.96341 0.3202 0.0
H1216 H 0.98905 0.9937 0.20676 0.0
H1217 H 0.02013 0.95421 0.11651 0.0
H1218 H 0.02253 0.95167 0.54259 0.0
H1219 H 0.99146 0.99043 0.45056 0.0
H1220 H 0.96926 0.92502 0.24141 0.0
H1221 H 0.00987 0.88609 0.18098 0.0
H1222 H 0.95203 0.9243 0.16222 0.0
H1223 H 0.99176 0.88589 0.10295 0.0
H1224 H 0.01866 0.86631 0.36647 0.0
H1225 H 0.96903 0.8953 0.41824 0.0
H1226 H 0.00414 0.83597 0.39168 0.0
H1227 H 0.95549 0.86453 0.44299 0.0
H1228 H 0.08413 0.87558 0.28084 0.0
H1229 H 0.03526 0.84933 0.21511 0.0
H1230 H 0.91687 0.89261 0.27405 0.0
H1231 H 0.95829 0.84859 0.25422 0.0
Li1232 Li 0.50523 0.92836 0.2761 0.0
Li1233 Li 0.50071 0.93325 0.36343 0.0
Li1234 Li 0.5229 0.90859 0.34048 0.0
Li1235 Li 0.48833 0.90376 0.33194 0.0
C1236 C 0.53209 0.95186 0.34518 0.0
N1237 N 0.54661 0.98417 0.3878 0.0
C1238 C 0.52468 0.96956 0.33298 0.0
C1239 C 0.54693 0.9506 0.37889 0.0
C1240 C 0.53219 0.98573 0.355 0.0
C1241 C 0.55406 0.9671 0.40011 0.0
C1242 C 0.46729 0.94402 0.3138 0.0
C1243 C 0.43724 0.95611 0.34156 0.0
N1244 N 0.44004 0.97204 0.31451 0.0
C1245 C 0.46983 0.96053 0.28619 0.0
C1246 C 0.4508 0.94177 0.34155 0.0
C1247 C 0.45591 0.97451 0.28703 0.0
C1248 C 0.49238 0.94221 0.18115 0.0
N1249 N 0.50678 0.9421 0.21437 0.0
C1250 C 0.52188 0.96775 0.17219 0.0
C1251 C 0.52165 0.95413 0.20953 0.0
C1252 C 0.50682 0.96881 0.13879 0.0
C1253 C 0.49219 0.95545 0.14263 0.0
H1254 H 0.48056 0.93273 0.18611 0.0
H1255 H 0.53297 0.95379 0.23616 0.0
C1256 C 0.50822 0.9481 0.45526 0.0
N1257 N 0.4979 0.95176 0.41411 0.0
C1258 C 0.50793 0.96057 0.49487 0.0
C1259 C 0.48653 0.98057 0.44899 0.0
C1260 C 0.48726 0.9677 0.41021 0.0
C1261 C 0.49697 0.97695 0.49167 0.0
H1262 H 0.51689 0.93554 0.45702 0.0
H1263 H 0.47964 0.97075 0.37698 0.0
C1264 C 0.5194 0.88761 0.25386 0.0
N1265 N 0.5419 0.86319 0.20043 0.0
C1266 C 0.51903 0.86825 0.26383 0.0
C1267 C 0.53111 0.89457 0.2166 0.0
C1268 C 0.53055 0.85613 0.23645 0.0
C1269 C 0.5424 0.88199 0.19001 0.0
C1270 C 0.49376 0.90306 0.43303 0.0
C1271 C 0.50033 0.88846 0.4632 0.0
C1272 C 0.47706 0.91246 0.44539 0.0
C1273 C 0.49007 0.88353 0.50525 0.0
C1274 C 0.46729 0.90723 0.48795 0.0
N1275 N 0.47392 0.89296 0.51669 0.0
C1276 C 0.54812 0.898 0.4126 0.0
C1277 C 0.55793 0.88621 0.33556 0.0
C1278 C 0.56351 0.88956 0.43584 0.0
N1279 N 0.54564 0.89642 0.36323 0.0
C1280 C 0.57359 0.87748 0.35748 0.0
C1281 C 0.57756 0.88002 0.40831 0.0
H1282 H 0.5379 0.9057 0.43433 0.0
H1283 H 0.55552 0.88449 0.29661 0.0
C1284 C 0.45073 0.88788 0.33776 0.0
N1285 N 0.46953 0.88473 0.34385 0.0
C1286 C 0.4375 0.87581 0.35984 0.0
C1287 C 0.46325 0.85707 0.39184 0.0
C1288 C 0.47591 0.86925 0.3685 0.0
C1289 C 0.44384 0.86063 0.38882 0.0
H1290 H 0.44598 0.90027 0.31805 0.0
H1291 H 0.49093 0.86715 0.37308 0.0
O1292 O 0.52477 0.93583 0.32448 0.0
O1293 O 0.48058 0.92995 0.31246 0.0
O1294 O 0.50813 0.89967 0.27992 0.0
O1295 O 0.50358 0.90798 0.39147 0.0
H1296 H 0.5131 0.97079 0.30725 0.0
H1297 H 0.55287 0.93703 0.38864 0.0
H1298 H 0.52651 0.9995 0.34615 0.0
H1299 H 0.5655 0.96633 0.42637 0.0
H1300 H 0.42445 0.95455 0.36301 0.0
H1301 H 0.48254 0.96276 0.26506 0.0
H1302 H 0.44844 0.92912 0.36293 0.0
H1303 H 0.45776 0.98736 0.26602 0.0
H1304 H 0.53344 0.97773 0.17027 0.0
H1305 H 0.48037 0.95582 0.11739 0.0
H1306 H 0.51627 0.95761 0.52739 0.0
H1307 H 0.47815 0.99331 0.44559 0.0
H1308 H 0.50998 0.86266 0.29246 0.0
H1309 H 0.53151 0.90953 0.20843 0.0
H1310 H 0.53047 0.84111 0.24382 0.0
H1311 H 0.55157 0.88716 0.16114 0.0
H1312 H 0.51311 0.88087 0.45394 0.0
H1313 H 0.47178 0.92376 0.42255 0.0
H1314 H 0.49495 0.87221 0.52877 0.0
H1315 H 0.45439 0.91446 0.498 0.0
H1316 H 0.56376 0.89025 0.47552 0.0
H1317 H 0.58183 0.86838 0.33408 0.0
H1318 H 0.42257 0.87885 0.35664 0.0
H1319 H 0.46857 0.84543 0.41373 0.0
Li1320 Li 0.02272 0.09989 0.83835 0.0
Li1321 Li 0.98766 0.09819 0.83874 0.0
Li1322 Li 0.00662 0.07199 0.86738 0.0
Li1323 Li 0.0061 0.07636 0.77984 0.0
C1324 C 0.0091 0.11022 0.93022 0.0
N1325 N 0.01673 0.13615 0.00372 0.0
C1326 C 1.00159 0.12847 0.92776 0.0
C1327 C 0.02042 0.10515 0.97027 0.0
C1328 C 0.00567 0.14139 0.96516 0.0
C1329 C 0.02407 0.11844 0.00708 0.0
C1330 C 0.99535 0.11671 0.75009 0.0
C1331 C 0.97166 0.1207 0.68725 0.0
N1332 N 0.9755 0.13953 0.68585 0.0
C1333 C 0.99909 0.13608 0.74804 0.0
C1334 C 0.98155 0.10893 0.7195 0.0
C1335 C 0.98888 0.14738 0.71531 0.0
C1336 C 0.06099 0.11022 0.86032 0.0
N1337 N 0.04329 0.11701 0.85185 0.0
C1338 C 0.05211 0.14731 0.88351 0.0
C1339 C 0.03897 0.13542 0.86087 0.0
C1340 C 0.06995 0.14022 0.89594 0.0
C1341 C 0.07464 0.12167 0.88259 0.0
H1342 H 0.0643 0.09569 0.85195 0.0
H1343 H 0.02493 0.1406 0.8532 0.0
C1344 C 0.95969 0.10773 0.90383 0.0
N1345 N 0.96511 0.11184 0.8571 0.0
C1346 C 0.94445 0.11699 0.92563 0.0
C1347 C 0.94063 0.13511 0.85159 0.0
C1348 C 0.95616 0.12557 0.83115 0.0
C1349 C 0.93346 0.1301 0.8987 0.0
H1350 H 0.96775 0.09763 0.9251 0.0
H1351 H 0.9613 0.1296 0.79525 0.0
C1352 C 0.04105 0.06034 0.84436 0.0
N1353 N 0.06493 0.03476 0.88956 0.0
C1354 C 0.04615 0.04364 0.82025 0.0
C1355 C 0.04819 0.06404 0.89137 0.0
C1356 C 0.05824 0.03089 0.84371 0.0
C1357 C 0.06019 0.05093 0.91365 0.0
C1358 C 0.97596 0.05443 0.83752 0.0
C1359 C 0.98206 0.03718 0.81809 0.0
C1360 C 0.96167 0.05467 0.87306 0.0
C1361 C 0.97382 0.02043 0.83478 0.0
C1362 C 0.95384 0.0376 0.88893 0.0
N1363 N 0.96003 0.02098 0.86962 0.0
C1364 C 0.99923 0.05908 0.96216 0.0
C1365 C 0.01167 0.03523 0.90997 0.0
C1366 C 0.99847 0.04651 1.00151 0.0
N1367 N 0.00611 0.05338 0.91783 0.0
C1368 C 0.01126 0.02219 0.94836 0.0
C1369 C 0.00473 0.02796 0.99462 0.0
H1370 H 0.99423 0.07339 0.96689 0.0
H1371 H 0.0163 0.0308 0.87391 0.0
C1372 C 0.02358 0.05645 0.70034 0.0
N1373 N 0.00662 0.06213 0.71873 0.0
C1374 C 0.02449 0.04255 0.6636 0.0
C1375 C 0.99042 0.04163 0.66249 0.0
C1376 C 0.99017 0.05528 0.69989 0.0
C1377 C 0.00775 0.03469 0.64492 0.0
H1378 H 0.03647 0.06199 0.716 0.0
H1379 H 0.97685 0.05961 0.71576 0.0
O1380 O 0.00509 0.09726 0.8942 0.0
O1381 O 0.00519 0.10544 0.78188 0.0
O1382 O 0.02907 0.07296 0.82229 0.0
O1383 O 0.98414 0.07096 0.82237 0.0
H1384 H 0.99298 0.13277 0.89687 0.0
H1385 H 0.02622 0.09107 0.97322 0.0
H1386 H 1.00008 0.1556 0.96345 0.0
H1387 H 0.0328 0.11469 0.03826 0.0
H1388 H 0.96089 0.11489 0.66344 0.0
H1389 H 0.00976 0.14231 0.77143 0.0
H1390 H 0.97838 0.09402 0.72102 0.0
H1391 H 0.9916 0.1624 0.71334 0.0
H1392 H 0.04815 0.16164 0.89302 0.0
H1393 H 0.08839 0.11588 0.89133 0.0
H1394 H 0.94211 0.11412 0.96412 0.0
H1395 H 0.93507 0.14679 0.83066 0.0
H1396 H 0.04063 0.04035 0.78419 0.0
H1397 H 0.04435 0.07684 0.91059 0.0
H1398 H 0.06222 0.01788 0.82558 0.0
H1399 H 0.0657 0.05358 0.95015 0.0
H1400 H 0.99334 0.03665 0.79128 0.0
H1401 H 0.95674 0.06785 0.88845 0.0
H1402 H 0.97851 0.00698 0.82032 0.0
H1403 H 0.94286 0.03757 0.91663 0.0
H1404 H 0.99316 0.05117 0.03691 0.0
H1405 H 0.01592 0.00781 0.94214 0.0
H1406 H 0.03811 0.03757 0.65092 0.0
H1407 H 0.97723 0.03591 0.64898 0.0
C1408 C 0.11164 0.67054 0.22609 0.0
C1409 C 0.11038 0.66991 0.17384 0.0
C1410 C 0.0847 0.64673 0.17947 0.0
C1411 C 0.08631 0.64699 0.23166 0.0
N1412 N 0.10305 0.65649 0.30466 0.0
N1413 N 0.09826 0.65536 0.10031 0.0
C1414 C 0.10036 0.65808 0.25496 0.0
C1415 C 0.09767 0.65735 0.15039 0.0
N1416 N 0.12317 0.68353 0.24808 0.0
N1417 N 0.07039 0.63678 0.15782 0.0
H1418 H 0.10741 0.66312 0.078 0.0
H1419 H 0.09081 0.64506 0.08109 0.0
H1420 H 0.06104 0.62829 0.17764 0.0
H1421 H 0.06698 0.63775 0.12063 0.0
H1422 H 0.1231 0.68637 0.28569 0.0
H1423 H 0.13214 0.69241 0.22829 0.0
H1424 H 0.11432 0.66259 0.32338 0.0
H1425 H 0.09474 0.64783 0.32697 0.0
C1426 C 0.60696 0.85838 0.40933 0.0
C1427 C 0.59454 0.87094 0.43395 0.0
C1428 C 0.60604 0.85881 0.51308 0.0
C1429 C 0.6142 0.84318 0.48827 0.0
N1430 N 0.62379 0.82868 0.41153 0.0
N1431 N 0.59633 0.89137 0.50463 0.0
C1432 C 0.61512 0.84315 0.43596 0.0
C1433 C 0.59802 0.87372 0.48495 0.0
N1434 N 0.61372 0.863 0.36388 0.0
N1435 N 0.60543 0.85927 0.56332 0.0
H1436 H 0.5933 0.90308 0.48257 0.0
H1437 H 0.60035 0.89467 0.54053 0.0
H1438 H 0.61129 0.84868 0.58528 0.0
H1439 H 0.5979 0.86949 0.5828 0.0
H1440 H 0.62411 0.85521 0.34574 0.0
H1441 H 0.61107 0.87624 0.34835 0.0
H1442 H 0.623 0.82711 0.37339 0.0
H1443 H 0.63082 0.81773 0.42953 0.0
C1444 C 0.42498 0.35804 0.68003 0.0
C1445 C 0.42624 0.35502 0.73172 0.0
C1446 C 0.40391 0.3286 0.72565 0.0
C1447 C 0.40241 0.3318 0.67406 0.0
N1448 N 0.40936 0.35071 0.60261 0.0
N1449 N 0.41537 0.33941 0.80522 0.0
C1450 C 0.41231 0.3469 0.6514 0.0
C1451 C 0.41521 0.34088 0.75497 0.0
N1452 N 0.43627 0.37133 0.65828 0.0
N1453 N 0.39479 0.31353 0.74636 0.0
H1454 H 0.42398 0.34772 0.82762 0.0
H1455 H 0.40622 0.33087 0.82526 0.0
H1456 H 0.38556 0.30491 0.72671 0.0
H1457 H 0.39697 0.30889 0.78225 0.0
H1458 H 0.43787 0.37284 0.6204 0.0
H1459 H 0.44488 0.38046 0.6783 0.0
H1460 H 0.41445 0.36266 0.58469 0.0
H1461 H 0.40076 0.34241 0.58019 0.0
C1462 C 0.9029 0.1509 1.00035 0.0
C1463 C 0.8967 0.16775 0.97716 0.0
C1464 C 0.90625 0.15445 0.89727 0.0
C1465 C 0.91649 0.14012 0.92215 0.0
N1466 N 0.90925 0.11789 0.98659 0.0
N1467 N 0.89089 0.18495 0.90167 0.0
C1468 C 0.91058 0.13616 0.97108 0.0
C1469 C 0.89786 0.16934 0.92498 0.0
N1470 N 0.90189 0.149 0.05031 0.0
N1471 N 0.90167 0.15203 0.8489 0.0
H1472 H 0.88348 0.19555 0.91998 0.0
H1473 H 0.89339 0.18774 0.86454 0.0
H1474 H 0.90454 0.13936 0.83063 0.0
H1475 H 0.89276 0.16109 0.82958 0.0
H1476 H 0.90789 0.13757 0.06885 0.0
H1477 H 0.89646 0.15949 0.07328 0.0
H1478 H 0.90339 0.11409 0.02042 0.0
H1479 H 0.91147 0.10662 0.96242 0.0
C1480 C 0.10034 0.35214 0.9071 0.0
C1481 C 0.0815 0.35551 0.92262 0.0
C1482 C 0.0871 0.33661 0.99703 0.0
C1483 C 0.10525 0.33166 0.97909 0.0
N1484 N 0.1277 0.33171 0.91204 0.0
N1485 N 0.05567 0.3476 0.97695 0.0
C1486 C 0.1115 0.3386 0.9327 0.0
C1487 C 0.07451 0.34678 0.9661 0.0
N1488 N 0.10778 0.36229 0.86892 0.0
N1489 N 0.08207 0.33211 0.04421 0.0
H1490 H 0.04587 0.35446 0.95455 0.0
H1491 H 0.04949 0.3399 0.00539 0.0
H1492 H 0.09104 0.32495 0.0683 0.0
H1493 H 0.06978 0.33705 0.06093 0.0
H1494 H 0.12203 0.36189 0.85944 0.0
H1495 H 0.10008 0.37237 0.84941 0.0
H1496 H 0.13185 0.33472 0.87606 0.0
H1497 H 0.13614 0.32158 0.92911 0.0
C1498 C 0.9096 0.84516 0.25484 0.0
C1499 C 0.92216 0.85787 0.23127 0.0
C1500 C 0.91024 0.848 0.15018 0.0
C1501 C 0.89907 0.834 0.17354 0.0
N1502 N 0.8884 0.81834 0.2474 0.0
N1503 N 0.93552 0.87101 0.15709 0.0
C1504 C 0.89874 0.83241 0.22576 0.0
C1505 C 0.92268 0.85928 0.17904 0.0
N1506 N 0.90794 0.84548 0.30503 0.0
N1507 N 0.90878 0.85061 0.10041 0.0
H1508 H 0.94428 0.88003 0.17697 0.0
H1509 H 0.93831 0.87114 0.11946 0.0
H1510 H 0.90025 0.84222 0.07803 0.0
H1511 H 0.91492 0.86183 0.08155 0.0
H1512 H 0.8977 0.83806 0.32453 0.0
H1513 H 0.91605 0.8543 0.32738 0.0
H1514 H 0.88926 0.81484 0.28455 0.0
H1515 H 0.87952 0.80936 0.22764 0.0
C1516 C 0.40041 0.65115 0.49285 0.0
C1517 C 0.39631 0.66908 0.47211 0.0
C1518 C 0.40808 0.65764 0.39239 0.0
C1519 C 0.41637 0.64187 0.41631 0.0
N1520 N 0.40563 0.6183 0.47376 0.0
N1521 N 0.39524 0.68913 0.4001 0.0
C1522 C 0.40842 0.63687 0.46257 0.0
C1523 C 0.39982 0.67225 0.42121 0.0
N1524 N 0.39704 0.64777 0.54157 0.0
N1525 N 0.40501 0.65701 0.34284 0.0
H1526 H 0.38833 0.69985 0.41925 0.0
H1527 H 0.39939 0.69281 0.36451 0.0
H1528 H 0.40752 0.64472 0.3226 0.0
H1529 H 0.39746 0.66732 0.32377 0.0
H1530 H 0.40152 0.63546 0.55914 0.0
H1531 H 0.39116 0.65785 0.56506 0.0
H1532 H 0.39831 0.61383 0.50499 0.0
H1533 H 0.40824 0.60765 0.44798 0.0
C1534 C 0.59327 0.15918 0.64042 0.0
C1535 C 0.60591 0.17169 0.66436 0.0
C1536 C 0.59652 0.15883 0.74497 0.0
C1537 C 0.58266 0.14758 0.72131 0.0
N1538 N 0.56671 0.13766 0.64731 0.0
N1539 N 0.619 0.18462 0.73903 0.0
C1540 C 0.58079 0.14787 0.66917 0.0
C1541 C 0.60746 0.17176 0.71658 0.0
N1542 N 0.59348 0.15791 0.59015 0.0
N1543 N 0.59933 0.15694 0.79457 0.0
H1544 H 0.62781 0.19374 0.71952 0.0
H1545 H 0.61916 0.18709 0.77681 0.0
H1546 H 0.59117 0.14806 0.81665 0.0
H1547 H 0.61049 0.16312 0.81351 0.0
H1548 H 0.58613 0.14771 0.57032 0.0
H1549 H 0.60217 0.16627 0.56805 0.0
H1550 H 0.56302 0.13889 0.61036 0.0
H1551 H 0.55786 0.12861 0.66687 0.0
C1552 C 0.92277 0.35848 0.97393 0.0
C1553 C 0.92334 0.35664 0.92178 0.0
C1554 C 0.89957 0.33143 0.92614 0.0
C1555 C 0.90076 0.33175 0.97838 0.0
N1556 N 0.91452 0.34429 0.05252 0.0
N1557 N 0.91321 0.34086 0.84779 0.0
C1558 C 0.91256 0.34502 1.00245 0.0
C1559 C 0.91194 0.34299 0.89774 0.0
N1560 N 0.9318 0.37325 0.99613 0.0
N1561 N 0.88626 0.32039 0.90379 0.0
H1562 H 0.92129 0.34975 0.82555 0.0
H1563 H 0.90712 0.32969 0.82859 0.0
H1564 H 0.87699 0.31178 0.92343 0.0
H1565 H 0.8833 0.32087 0.86627 0.0
H1566 H 0.93037 0.37655 0.0333 0.0
H1567 H 0.93955 0.38326 0.97659 0.0
H1568 H 0.92456 0.35201 0.07194 0.0
H1569 H 0.90694 0.33492 0.07464 0.0
C1570 C 0.42629 0.15087 0.67762 0.0
C1571 C 0.42652 0.15319 0.72963 0.0
C1572 C 0.40127 0.1768 0.72333 0.0
C1573 C 0.40276 0.17619 0.67116 0.0
N1574 N 0.41786 0.16409 0.59813 0.0
N1575 N 0.41575 0.16964 0.80212 0.0
C1576 C 0.41553 0.16353 0.6481 0.0
C1577 C 0.41434 0.16644 0.7526 0.0
N1578 N 0.43604 0.13626 0.65659 0.0
N1579 N 0.38707 0.18697 0.74482 0.0
H1580 H 0.42497 0.16215 0.82482 0.0
H1581 H 0.40883 0.18063 0.82014 0.0
H1582 H 0.37718 0.19462 0.7245 0.0
H1583 H 0.38401 0.18649 0.78232 0.0
H1584 H 0.43491 0.13261 0.61957 0.0
H1585 H 0.44401 0.12666 0.67703 0.0
H1586 H 0.42849 0.15681 0.57962 0.0
H1587 H 0.40999 0.17294 0.57529 0.0
C1588 C 0.5713 0.66522 0.47095 0.0
C1589 C 0.57893 0.65622 0.42856 0.0
C1590 C 0.60842 0.67393 0.43932 0.0
C1591 C 0.6016 0.68109 0.48491 0.0
N1592 N 0.5776 0.68138 0.54791 0.0
N1593 N 0.60568 0.64988 0.37611 0.0
C1594 C 0.5833 0.67615 0.50176 0.0
C1595 C 0.59775 0.66002 0.41365 0.0
N1596 N 0.55244 0.66377 0.48092 0.0
N1597 N 0.62479 0.68088 0.41966 0.0
H1598 H 0.59831 0.63964 0.35631 0.0
H1599 H 0.61998 0.65051 0.36725 0.0
H1600 H 0.63293 0.69118 0.43701 0.0
H1601 H 0.6294 0.6777 0.38418 0.0
H1602 H 0.54568 0.67153 0.50837 0.0
H1603 H 0.54315 0.6562 0.45864 0.0
H1604 H 0.56524 0.67648 0.5643 0.0
H1605 H 0.58604 0.68931 0.57165 0.0
C1606 C 0.07795 0.81675 0.17816 0.0
C1607 C 0.09217 0.82355 0.14598 0.0
C1608 C 0.08357 0.85592 0.17143 0.0
C1609 C 0.07335 0.84835 0.21217 0.0
N1610 N 0.06265 0.82072 0.25653 0.0
N1611 N 0.09763 0.84966 0.0914 0.0
C1612 C 0.07129 0.8285 0.21644 0.0
C1613 C 0.09214 0.84333 0.1367 0.0
N1614 N 0.06771 0.80117 0.16585 0.0
N1615 N 0.08499 0.87504 0.16553 0.0
H1616 H 0.10105 0.84031 0.063 0.0
H1617 H 0.09647 0.86364 0.07988 0.0
H1618 H 0.07773 0.88471 0.18742 0.0
H1619 H 0.09417 0.88136 0.14051 0.0
H1620 H 0.05622 0.79651 0.1866 0.0
H1621 H 0.0686 0.79529 0.13063 0.0
H1622 H 0.06194 0.80612 0.26169 0.0
H1623 H 0.05788 0.82878 0.28624 0.0
C1624 C 0.92105 0.66921 0.24438 0.0
C1625 C 0.93155 0.65481 0.22056 0.0
C1626 C 0.91739 0.6635 0.141 0.0
C1627 C 0.90774 0.67864 0.16434 0.0
N1628 N 0.90197 0.69753 0.23681 0.0
N1629 N 0.942 0.63968 0.14582 0.0
C1630 C 0.91007 0.68198 0.21565 0.0
C1631 C 0.93032 0.65232 0.16871 0.0
N1632 N 0.92113 0.6703 0.29469 0.0
N1633 N 0.91401 0.65971 0.09241 0.0
H1634 H 0.95145 0.63112 0.16498 0.0
H1635 H 0.94339 0.63856 0.10777 0.0
H1636 H 0.90539 0.66815 0.07036 0.0
H1637 H 0.91877 0.6476 0.07454 0.0
H1638 H 0.91219 0.67904 0.31488 0.0
H1639 H 0.92925 0.66139 0.31681 0.0
H1640 H 0.90491 0.7021 0.27242 0.0
H1641 H 0.89317 0.70675 0.21765 0.0
C1642 C 0.09671 0.16349 0.90228 0.0
C1643 C 0.08316 0.15185 0.92589 0.0
C1644 C 0.09233 0.16471 0.0065 0.0
C1645 C 0.10637 0.1758 0.98308 0.0
N1646 N 0.1244 0.18345 0.91039 0.0
N1647 N 0.07019 0.13865 1.00044 0.0
C1648 C 0.1093 0.17448 0.9314 0.0
C1649 C 0.08164 0.15163 0.97808 0.0
N1650 N 0.09715 0.16443 0.85198 0.0
N1651 N 0.08877 0.16717 0.0556 0.0
H1652 H 0.06206 0.12897 0.98076 0.0
H1653 H 0.06986 0.13639 0.03831 0.0
H1654 H 0.09661 0.1763 0.07774 0.0
H1655 H 0.0773 0.16119 0.07379 0.0
H1656 H 0.10512 0.17424 0.83242 0.0
H1657 H 0.08854 0.15614 0.82955 0.0
H1658 H 0.12851 0.18152 0.87392 0.0
H1659 H 0.13384 0.19171 0.93051 0.0
C1660 C 0.59083 0.34227 0.64462 0.0
C1661 C 0.60474 0.33067 0.6669 0.0
C1662 C 0.59523 0.34204 0.74885 0.0
C1663 C 0.58183 0.3542 0.72643 0.0
N1664 N 0.56909 0.36861 0.65315 0.0
N1665 N 0.62268 0.32184 0.73873 0.0
C1666 C 0.58031 0.35513 0.67428 0.0
C1667 C 0.6077 0.33128 0.71864 0.0
N1668 N 0.58728 0.34055 0.59533 0.0
N1669 N 0.59556 0.34028 0.79899 0.0
H1670 H 0.63201 0.31373 0.71781 0.0
H1671 H 0.62682 0.32324 0.77532 0.0
H1672 H 0.58693 0.34823 0.82225 0.0
H1673 H 0.60341 0.33007 0.8175 0.0
H1674 H 0.57588 0.34692 0.57775 0.0
H1675 H 0.59504 0.33165 0.57231 0.0
H1676 H 0.5688 0.37135 0.6155 0.0
H1677 H 0.56115 0.37821 0.67369 0.0
C1678 C 0.41266 0.81969 0.43183 0.0
C1679 C 0.40648 0.82661 0.47833 0.0
C1680 C 0.4236 0.85634 0.46436 0.0
C1681 C 0.43039 0.84913 0.41872 0.0
N1682 N 0.43295 0.82367 0.36026 0.0
N1683 N 0.40728 0.85037 0.54171 0.0
C1684 C 0.42533 0.83071 0.40281 0.0
C1685 C 0.4123 0.84464 0.49538 0.0
N1686 N 0.40612 0.80265 0.41517 0.0
N1687 N 0.42777 0.87451 0.47765 0.0
H1688 H 0.39847 0.84247 0.56462 0.0
H1689 H 0.41264 0.86233 0.55897 0.0
H1690 H 0.43661 0.88323 0.45707 0.0
H1691 H 0.42172 0.88147 0.50748 0.0
H1692 H 0.40814 0.79765 0.37953 0.0
H1693 H 0.39777 0.79367 0.43644 0.0
H1694 H 0.43177 0.80966 0.34914 0.0
H1695 H 0.44137 0.8317 0.33669 0.0
C1696 C 0.02277 0.50809 0.09546 0.0
C1697 C 0.00726 0.52052 0.10232 0.0
C1698 C 0.99111 0.50673 0.03131 0.0
C1699 C 0.00687 0.49477 0.02338 0.0
N1700 N 0.03928 0.4867 0.04055 0.0
N1701 N 0.97721 0.53281 0.07318 0.0
C1702 C 0.0232 0.49623 0.05333 0.0
C1703 C 0.99176 0.5203 0.06926 0.0
N1704 N 0.03664 0.50699 0.13037 0.0
N1705 N 0.97528 0.50515 1.00287 0.0
H1706 H 0.97654 0.54362 0.09928 0.0
H1707 H 0.97654 0.54362 0.09928 0.0
H1708 H 0.97379 0.49507 0.97513 0.0
H1709 H 0.96344 0.51373 0.008 0.0
H1710 H 0.04713 0.49667 0.1303 0.0
H1711 H 0.03686 0.51543 0.16185 0.0
H1712 H 0.05223 0.48872 0.05786 0.0
H1713 H 0.04014 0.47801 0.0096 0.0
C1714 C 0.76396 0.73426 0.31726 0.0
C1715 C 0.76986 0.7515 0.29553 0.0
C1716 C 0.75071 0.76932 0.35435 0.0
C1717 C 0.74314 0.75209 0.37219 0.0
N1718 N 0.74028 0.71819 0.36612 0.0
N1719 N 0.76664 0.78532 0.28744 0.0
C1720 C 0.74916 0.73452 0.35252 0.0
C1721 C 0.76266 0.76903 0.31247 0.0
N1722 N 0.77284 0.71774 0.3052 0.0
N1723 N 0.74686 0.78589 0.37823 0.0
H1724 H 0.7752 0.78569 0.2562 0.0
H1725 H 0.76012 0.7982 0.29498 0.0
H1726 H 0.73827 0.78663 0.4094 0.0
H1727 H 0.75355 0.79861 0.36996 0.0
H1728 H 0.77049 0.70505 0.32364 0.0
H1729 H 0.78381 0.71701 0.27961 0.0
H1730 H 0.74267 0.70524 0.34894 0.0
H1731 H 0.72935 0.71779 0.39185 0.0
C1732 C 0.48823 0.50345 0.5441 0.0
C1733 C 0.50391 0.5157 0.53774 0.0
C1734 C 0.51946 0.50232 0.6101 0.0
C1735 C 0.5039 0.49005 0.61669 0.0
N1736 N 0.47276 0.47946 0.5941 0.0
N1737 N 0.53466 0.52678 0.56503 0.0
C1738 C 0.48803 0.49075 0.5848 0.0
C1739 C 0.51944 0.51521 0.57065 0.0
N1740 N 0.47384 0.50372 0.51047 0.0
N1741 N 0.53445 0.50179 0.64177 0.0
H1742 H 0.53612 0.53672 0.53689 0.0
H1743 H 0.53612 0.53672 0.53689 0.0
H1744 H 0.53513 0.49271 0.67198 0.0
H1745 H 0.54616 0.51062 0.63786 0.0
H1746 H 0.46276 0.4941 0.50979 0.0
H1747 H 0.47327 0.51329 0.48129 0.0
H1748 H 0.46 0.48026 0.57534 0.0
H1749 H 0.47245 0.46958 0.62259 0.0
C1750 C 0.75535 0.26975 0.85148 0.0
C1751 C 0.76456 0.25271 0.86475 0.0
C1752 C 0.74849 0.23581 0.79843 0.0
C1753 C 0.73829 0.25252 0.78737 0.0
N1754 N 0.72942 0.28449 0.80774 0.0
N1755 N 0.76777 0.2189 0.85751 0.0
C1756 C 0.74097 0.26926 0.81517 0.0
C1757 C 0.7605 0.23552 0.84017 0.0
N1758 N 0.76079 0.28646 0.87244 0.0
N1759 N 0.74717 0.22044 0.76807 0.0
H1760 H 0.7767 0.21818 0.888 0.0
H1761 H 0.76374 0.20568 0.84439 0.0
H1762 H 0.73846 0.22011 0.73713 0.0
H1763 H 0.7558 0.20859 0.77112 0.0
H1764 H 0.75612 0.2996 0.86029 0.0
H1765 H 0.7711 0.28733 0.89976 0.0
H1766 H 0.72932 0.29634 0.83044 0.0
H1767 H 0.71881 0.2847 0.78112 0.0
C1768 C 0.23765 0.26671 0.82436 0.0
C1769 C 0.2385 0.25216 0.86018 0.0
C1770 C 0.26407 0.23661 0.81508 0.0
C1771 C 0.26433 0.25203 0.78176 0.0
N1772 N 0.25299 0.2826 0.75605 0.0
N1773 N 0.25325 0.22423 0.8935 0.0
C1774 C 0.25152 0.26731 0.78664 0.0
C1775 C 0.25189 0.23732 0.85656 0.0
N1776 N 0.22336 0.27971 0.82599 0.0
N1777 N 0.27524 0.22118 0.80645 0.0
H1778 H 0.24421 0.22404 0.92387 0.0
H1779 H 0.26405 0.21431 0.89596 0.0
H1780 H 0.28463 0.22035 0.77688 0.0
H1781 H 0.27429 0.20863 0.82626 0.0
H1782 H 0.22069 0.28941 0.79805 0.0
H1783 H 0.21322 0.27999 0.85388 0.0
H1784 H 0.24558 0.29515 0.76119 0.0
H1785 H 0.2626 0.28325 0.72695 0.0
C1786 C 0.26302 0.74244 0.34326 0.0
C1787 C 0.26504 0.75912 0.3717 0.0
C1788 C 0.2403 0.77473 0.32382 0.0
C1789 C 0.23935 0.75857 0.29306 0.0
N1790 N 0.25151 0.72823 0.2679 0.0
N1791 N 0.25776 0.79192 0.38623 0.0
C1792 C 0.2512 0.74273 0.30119 0.0
C1793 C 0.25427 0.77552 0.36123 0.0
N1794 N 0.27204 0.72621 0.35729 0.0
N1795 N 0.22751 0.78904 0.31811 0.0
H1796 H 0.26763 0.79287 0.41461 0.0
H1797 H 0.25188 0.8049 0.3767 0.0
H1798 H 0.21728 0.78908 0.29048 0.0
H1799 H 0.22611 0.80023 0.34272 0.0
H1800 H 0.26948 0.71308 0.34136 0.0
H1801 H 0.28104 0.7255 0.38762 0.0
H1802 H 0.26131 0.71727 0.26884 0.0
H1803 H 0.24292 0.7279 0.23674 0.0
C1804 C 0.51128 0.00461 0.53475 0.0
C1805 C 0.49694 0.99064 0.53256 0.0
C1806 C 0.48236 0.00314 0.60745 0.0
C1807 C 0.49707 0.01659 0.61089 0.0
N1808 N 0.52686 0.02901 0.58261 0.0
N1809 N 0.46872 0.97647 0.56768 0.0
C1810 C 0.5119 0.01707 0.57575 0.0
C1811 C 0.48257 0.98982 0.5689 0.0
N1812 N 0.5239 0.00629 0.49682 0.0
N1813 N 0.46806 1.0029 0.6413 0.0
H1814 H 0.46767 0.96596 0.54084 0.0
H1815 H 0.46767 0.96596 0.54084 0.0
H1816 H 0.46714 0.01251 0.67036 0.0
H1817 H 0.45702 0.99315 0.63981 0.0
H1818 H 0.5334 0.01741 0.49325 0.0
H1819 H 0.52406 0.99717 0.46666 0.0
H1820 H 0.53914 0.02864 0.56159 0.0
H1821 H 0.52763 0.03858 0.61177 0.0
C1822 C 0.02014 0.01389 0.06872 0.0
C1823 C 0.00451 0.01456 0.03614 0.0
C1824 C 0.98848 0.98982 0.08355 0.0
C1825 C 0.00433 0.9891 0.11549 0.0
N1826 N 0.03513 1.00043 0.13981 0.0
N1827 N 0.97435 1.00274 0.00908 0.0
C1828 C 0.02007 1.00109 0.10838 0.0
C1829 C 0.98876 1.00242 0.04267 0.0
N1830 N 0.03551 0.02524 0.06266 0.0
N1831 N 0.97313 0.97865 0.09302 0.0
H1832 H 0.97389 0.01221 0.97966 0.0
H1833 H 0.96318 0.99325 0.00862 0.0
H1834 H 0.97277 0.9688 0.12161 0.0
H1835 H 0.96038 0.97948 0.07424 0.0
H1836 H 0.03704 0.03508 0.0343 0.0
H1837 H 0.03704 0.03508 0.0343 0.0
H1838 H 0.04696 0.00907 0.13555 0.0
H1839 H 0.03577 0.99138 0.17011 0.0
C1840 C 0.01457 0.48525 0.56086 0.0
C1841 C 1.0032 0.48643 0.60382 0.0
C1842 C 0.99086 0.51714 0.57571 0.0
C1843 C 1.00342 0.51667 0.5349 0.0
N1844 N 0.02945 0.50179 0.49282 0.0
N1845 N 0.98274 0.50477 0.65641 0.0
C1846 C 0.0159 0.50112 0.52866 0.0
C1847 C 0.99193 0.50274 0.61241 0.0
N1848 N 0.02371 0.46874 0.55008 0.0
N1849 N 0.97749 0.53103 0.57859 0.0
H1850 H 0.98305 0.49454 0.68404 0.0
H1851 H 0.97605 0.51721 0.6672 0.0
H1852 H 0.9764 0.5419 0.55278 0.0
H1853 H 0.96656 0.53099 0.60425 0.0
H1854 H 0.03055 0.46623 0.51676 0.0
H1855 H 0.02308 0.45686 0.57278 0.0
H1856 H 0.04026 0.4919 0.48958 0.0
H1857 H 0.0309 0.51318 0.46879 0.0
C1858 C 0.76049 0.73487 0.84407 0.0
C1859 C 0.76727 0.75202 0.86467 0.0
C1860 C 0.746 0.76992 0.81028 0.0
C1861 C 0.73798 0.75274 0.79313 0.0
N1862 N 0.7353 0.71889 0.80023 0.0
N1863 N 0.76405 0.78576 0.87393 0.0
C1864 C 0.7446 0.73521 0.8119 0.0
C1865 C 0.75934 0.76953 0.84958 0.0
N1866 N 0.76964 0.71829 0.85399 0.0
N1867 N 0.74144 0.78659 0.7878 0.0
H1868 H 0.77368 0.78609 0.90294 0.0
H1869 H 0.75719 0.7986 0.86831 0.0
H1870 H 0.73185 0.7875 0.75876 0.0
H1871 H 0.74837 0.79926 0.79497 0.0
H1872 H 0.76666 0.70564 0.83602 0.0
H1873 H 0.78139 0.71749 0.87701 0.0
H1874 H 0.73818 0.70594 0.81678 0.0
H1875 H 0.7235 0.71859 0.77729 0.0
C1876 C 0.51245 0.52456 0.05547 0.0
C1877 C 0.50747 0.5216 0.10556 0.0
C1878 C 0.50075 0.48821 0.08726 0.0
C1879 C 0.50713 0.49082 0.03812 0.0
N1880 N 0.52302 0.51057 0.97869 0.0
N1881 N 0.50114 0.49959 0.17146 0.0
C1882 C 0.51417 0.50875 0.0232 0.0
C1883 C 0.50288 0.5031 0.12214 0.0
N1884 N 0.51484 0.54253 0.03816 0.0
N1885 N 0.49192 0.47178 0.10025 0.0
H1886 H 0.50299 0.50998 0.19828 0.0
H1887 H 0.49974 0.48604 0.186 0.0
H1888 H 0.48988 0.46061 0.0758 0.0
H1889 H 0.48511 0.4699 0.13393 0.0
H1890 H 0.51645 0.5457 1.00093 0.0
H1891 H 0.51354 0.55446 0.06045 0.0
H1892 H 0.53011 0.52277 0.96788 0.0
H1893 H 0.5249 0.49927 0.95451 0.0
C1894 C 0.76318 0.23624 0.3116 0.0
C1895 C 0.7677 0.25309 0.28572 0.0
C1896 C 0.74192 0.26965 0.32877 0.0
C1897 C 0.73841 0.25323 0.35744 0.0
N1898 N 0.7476 0.2218 0.38185 0.0
N1899 N 0.76344 0.28662 0.27494 0.0
C1900 C 0.74957 0.23676 0.3504 0.0
C1901 C 0.75763 0.27003 0.29581 0.0
N1902 N 0.77145 0.21958 0.298 0.0
N1903 N 0.72988 0.2847 0.33199 0.0
H1904 H 0.77483 0.28744 0.25067 0.0
H1905 H 0.75805 0.29978 0.28476 0.0
H1906 H 0.7183 0.28495 0.35574 0.0
H1907 H 0.73039 0.29627 0.30834 0.0
H1908 H 0.76722 0.20647 0.31144 0.0
H1909 H 0.78161 0.21865 0.27026 0.0
H1910 H 0.75674 0.21027 0.3823 0.0
H1911 H 0.73771 0.22156 0.41033 0.0
C1912 C 0.26871 0.23962 0.32384 0.0
C1913 C 0.26968 0.25412 0.35989 0.0
C1914 C 0.24189 0.26954 0.32311 0.0
C1915 C 0.2401 0.25431 0.28938 0.0
N1916 N 0.25013 0.22361 0.26128 0.0
N1917 N 0.25598 0.28159 0.39837 0.0
C1918 C 0.25308 0.239 0.29076 0.0
C1919 C 0.25593 0.26874 0.36073 0.0
N1920 N 0.283 0.22669 0.32055 0.0
N1921 N 0.23049 0.28503 0.31824 0.0
H1922 H 0.26628 0.28176 0.42581 0.0
H1923 H 0.24515 0.29125 0.40451 0.0
H1924 H 0.21981 0.28593 0.29193 0.0
H1925 H 0.23243 0.29753 0.33781 0.0
H1926 H 0.2843 0.217 0.2919 0.0
H1927 H 0.29449 0.22655 0.34458 0.0
H1928 H 0.25778 0.2111 0.26412 0.0
H1929 H 0.23901 0.22276 0.23624 0.0
C1930 C 0.26518 0.7358 0.81729 0.0
C1931 C 0.27159 0.753 0.7961 0.0
C1932 C 0.24701 0.77027 0.84186 0.0
C1933 C 0.24176 0.75334 0.86644 0.0
N1934 N 0.24837 0.7206 0.88432 0.0
N1935 N 0.27093 0.78705 0.79516 0.0
C1936 C 0.25156 0.73626 0.85603 0.0
C1937 C 0.26315 0.77038 0.81043 0.0
N1938 N 0.27153 0.71894 0.79915 0.0
N1939 N 0.23617 0.78612 0.84718 0.0
H1940 H 0.28286 0.78771 0.77267 0.0
H1941 H 0.26666 0.80019 0.80844 0.0
H1942 H 0.22413 0.78654 0.86932 0.0
H1943 H 0.23807 0.7983 0.82623 0.0
H1944 H 0.26581 0.70595 0.80926 0.0
H1945 H 0.28141 0.71795 0.77075 0.0
H1946 H 0.25653 0.70839 0.88205 0.0
H1947 H 0.23866 0.72037 0.91322 0.0
C1948 C 0.5203 0.98576 0.06461 0.0
C1949 C 0.50613 0.98444 0.10149 0.0
C1950 C 0.49046 0.01241 0.06639 0.0
C1951 C 0.50572 0.01489 0.03298 0.0
N1952 N 0.53719 0.00604 0.00778 0.0
N1953 N 0.47994 0.99909 0.14389 0.0
C1954 C 0.52123 1.00215 0.03425 0.0
C1955 C 0.49181 0.9985 0.1042 0.0
N1956 N 0.53252 0.97107 0.05738 0.0
N1957 N 0.47434 0.02282 0.06099 0.0
H1958 H 0.4807 0.98952 0.17302 0.0
H1959 H 0.47057 0.01018 0.15027 0.0
H1960 H 0.47261 0.03289 0.03334 0.0
H1961 H 0.46206 0.02019 0.08098 0.0
H1962 H 0.54188 0.97042 0.0278 0.0
H1963 H 0.53203 0.95866 0.07806 0.0
H1964 H 0.54962 0.99828 0.01114 0.0
H1965 H 0.53866 0.01816 0.98624 0.0
C1966 C 0.01616 0.02112 0.56127 0.0
C1967 C 0.00834 0.01858 0.60901 0.0
C1968 C 0.99911 0.98619 0.58639 0.0
C1969 C 0.00839 0.98819 0.54027 0.0
N1970 N 0.02958 0.0062 0.4889 0.0
N1971 N 0.99648 0.99707 0.67075 0.0
C1972 C 0.01808 0.00527 0.52927 0.0
C1973 C 1.00102 1.00061 0.62269 0.0
N1974 N 0.02106 0.0388 0.54558 0.0
N1975 N 0.98777 0.97093 0.59494 0.0
H1976 H 0.99815 0.00703 0.69871 0.0
H1977 H 0.9929 0.98368 0.68367 0.0
H1978 H 0.98568 0.96021 0.56918 0.0
H1979 H 0.97906 0.96979 0.62575 0.0
H1980 H 0.02495 0.04177 0.50939 0.0
H1981 H 0.01949 0.05082 0.56738 0.0
H1982 H 0.03844 0.01762 0.4817 0.0
H1983 H 0.03174 0.99476 0.46532 0.0
loop_
_geom_bond_atom_site_label_1
_geom_bond_atom_site_label_2
_geom_bond_distance
_geom_bond_site_symmetry_2
_ccdc_geom_bond_type
Li0 N17 1.990 . S
Li0 O60 1.919 1_655 S
Li0 O61 1.996 . S
Li0 O62 1.961 . S
Li1 N25 1.990 . S
Li1 O60 2.005 . S
Li1 O61 1.928 1_455 S
Li1 O63 1.961 . S
Li2 N47 1.993 . S
Li2 O60 1.958 1_655 S
Li2 O62 1.988 . S
Li2 O63 1.936 1_655 S
Li3 N53 1.994 . S
Li3 O61 1.958 1_455 S
Li3 O62 1.926 1_455 S
Li3 O63 1.998 . S
C4 C6 1.348 . S
C4 C7 1.356 1_455 S
C4 O60 1.324 . S
N5 C8 1.314 1_655 S
N5 C9 1.279 . S
C6 C4 1.348 . S
C6 C8 1.353 . S
C6 H64 0.929 . S
C7 C4 1.356 1_655 S
C7 C9 1.358 . S
C7 H65 0.930 . S
C8 N5 1.314 1_455 S
C8 C6 1.353 . S
C8 H66 0.930 . S
C9 N5 1.279 . S
C9 C7 1.358 . S
C9 H67 0.930 . S
C10 C13 1.348 1_455 S
C10 C14 1.356 . S
C10 O61 1.324 1_455 S
C11 N12 1.279 . S
C11 C14 1.358 . S
C11 H68 0.930 . S
N12 C11 1.279 . S
N12 C15 1.314 1_455 S
C13 C10 1.348 1_655 S
C13 C15 1.353 . S
C13 H69 0.929 . S
C14 C10 1.356 . S
C14 C11 1.358 . S
C14 H70 0.930 . S
C15 N12 1.314 1_655 S
C15 C13 1.353 . S
C15 H71 0.930 . S
C16 N17 1.314 . S
C16 C21 1.353 . S
C16 H22 0.930 . S
N17 Li0 1.990 . S
N17 C16 1.314 . S
N17 C19 1.279 . S
C18 C19 1.358 . S
C18 C20 1.356 . S
C18 H72 0.930 . S
C19 N17 1.279 . S
C19 C18 1.358 . S
C19 H23 0.930 . S
C20 C18 1.356 . S
C20 C21 1.348 . S
C21 C16 1.353 . S
C21 C20 1.348 . S
C21 H73 0.929 . S
H22 C16 0.930 . S
H23 C19 0.930 . S
C24 N25 1.314 . S
C24 C26 1.353 . S
C24 H30 0.930 . S
N25 Li1 1.990 . S
N25 C24 1.314 . S
N25 C28 1.279 . S
C26 C24 1.353 . S
C26 C29 1.348 . S
C26 H74 0.929 . S
C27 C28 1.358 . S
C27 C29 1.356 . S
C27 H75 0.930 . S
C28 N25 1.279 . S
C28 C27 1.358 . S
C28 H31 0.930 . S
C29 C26 1.348 . S
C29 C27 1.356 . S
H30 C24 0.930 . S
H31 C28 0.930 . S
C32 C34 1.348 . S
C32 C35 1.356 . S
C32 O62 1.325 . S
N33 C36 1.314 . S
N33 C37 1.279 . S
C34 C32 1.348 . S
C34 C36 1.353 . S
C34 H76 0.929 . S
C35 C32 1.356 . S
C35 C37 1.358 . S
C35 H77 0.930 . S
C36 N33 1.314 . S
C36 C34 1.353 . S
C36 H78 0.930 . S
C37 N33 1.279 . S
C37 C35 1.358 . S
C37 H79 0.930 . S
C38 C39 1.348 . S
C38 C40 1.356 . S
C38 O63 1.325 . S
C39 C38 1.348 . S
C39 C41 1.353 . S
C39 H80 0.929 . S
C40 C38 1.356 . S
C40 C42 1.358 . S
C40 H81 0.930 . S
C41 C39 1.353 . S
C41 N43 1.314 . S
C41 H82 0.930 . S
C42 C40 1.358 . S
C42 N43 1.279 . S
C42 H83 0.930 . S
N43 C41 1.314 . S
N43 C42 1.279 . S
C44 C46 1.353 . S
C44 N47 1.314 1_455 S
C44 H50 0.930 . S
C45 N47 1.279 . S
C45 C48 1.358 . S
C45 H51 0.930 . S
C46 C44 1.353 . S
C46 C49 1.348 . S
C46 H84 0.929 . S
N47 Li2 1.993 . S
N47 C44 1.314 1_655 S
N47 C45 1.279 . S
C48 C45 1.358 . S
C48 C49 1.356 1_655 S
C48 H85 0.930 . S
C49 C46 1.348 . S
C49 C48 1.356 1_455 S
H50 C44 0.930 . S
H51 C45 0.930 . S
C52 N53 1.314 1_655 S
C52 C54 1.353 . S
C52 H58 0.930 . S
N53 Li3 1.994 . S
N53 C52 1.314 1_455 S
N53 C56 1.279 . S
C54 C52 1.353 . S
C54 C57 1.348 1_655 S
C54 H86 0.929 . S
C55 C56 1.358 . S
C55 C57 1.356 . S
C55 H87 0.930 . S
C56 N53 1.279 . S
C56 C55 1.358 . S
C56 H59 0.930 . S
C57 C54 1.348 1_455 S
C57 C55 1.356 . S
H58 C52 0.930 . S
H59 C56 0.930 . S
O60 Li0 1.919 1_455 S
O60 Li1 2.005 . S
O60 Li2 1.958 1_455 S
O60 C4 1.324 . S
O61 Li0 1.996 . S
O61 Li1 1.928 1_655 S
O61 Li3 1.958 1_655 S
O61 C10 1.324 1_655 S
O62 Li0 1.961 . S
O62 Li2 1.988 . S
O62 Li3 1.926 1_655 S
O62 C32 1.325 . S
O63 Li1 1.961 . S
O63 Li2 1.936 1_455 S
O63 Li3 1.998 . S
O63 C38 1.325 . S
H64 C6 0.929 . S
H65 C7 0.930 . S
H66 C8 0.930 . S
H67 C9 0.930 . S
H68 C11 0.930 . S
H69 C13 0.929 . S
H70 C14 0.930 . S
H71 C15 0.930 . S
H72 C18 0.930 . S
H73 C21 0.929 . S
H74 C26 0.929 . S
H75 C27 0.930 . S
H76 C34 0.929 . S
H77 C35 0.930 . S
H78 C36 0.930 . S
H79 C37 0.930 . S
H80 C39 0.929 . S
H81 C40 0.930 . S
H82 C41 0.930 . S
H83 C42 0.930 . S
H84 C46 0.929 . S
H85 C48 0.930 . S
H86 C54 0.929 . S
H87 C55 0.930 . S
Li88 N105 1.990 . S
Li88 O148 1.956 . S
Li88 O149 1.970 . S
Li88 O150 1.961 . S
Li89 N113 1.990 . S
Li89 O148 1.970 . S
Li89 O149 1.956 . S
Li89 O151 1.961 . S
Li90 N135 1.990 . S
Li90 O148 1.961 . S
Li90 O150 1.956 . S
Li90 O151 1.970 . S
Li91 N141 1.990 . S
Li91 O149 1.961 . S
Li91 O150 1.970 . S
Li91 O151 1.956 . S
C92 C94 1.348 . S
C92 C95 1.356 . S
C92 O148 1.325 . S
N93 C96 1.314 . S
N93 C97 1.279 . S
C94 C92 1.348 . S
C94 C96 1.353 . S
C94 H152 0.929 . S
C95 C92 1.356 . S
C95 C97 1.358 . S
C95 H153 0.930 . S
C96 N93 1.314 . S
C96 C94 1.353 . S
C96 H154 0.930 . S
C97 N93 1.279 . S
C97 C95 1.358 . S
C97 H155 0.930 . S
C98 C101 1.348 . S
C98 C102 1.356 . S
C98 O149 1.325 . S
C99 N100 1.279 . S
C99 C102 1.358 . S
C99 H156 0.930 . S
N100 C99 1.279 . S
N100 C103 1.314 . S
C101 C98 1.348 . S
C101 C103 1.353 . S
C101 H157 0.929 . S
C102 C98 1.356 . S
C102 C99 1.358 . S
C102 H158 0.930 . S
C103 N100 1.314 . S
C103 C101 1.353 . S
C103 H159 0.930 . S
C104 N105 1.314 . S
C104 C109 1.353 . S
C104 H110 0.930 . S
N105 Li88 1.990 . S
N105 C104 1.314 . S
N105 C107 1.279 . S
C106 C107 1.358 . S
C106 C108 1.356 . S
C106 H160 0.930 . S
C107 N105 1.279 . S
C107 C106 1.358 . S
C107 H111 0.930 . S
C108 C106 1.356 . S
C108 C109 1.348 . S
C109 C104 1.353 . S
C109 C108 1.348 . S
C109 H161 0.929 . S
H110 C104 0.930 . S
H111 C107 0.930 . S
C112 N113 1.314 . S
C112 C114 1.353 . S
C112 H118 0.930 . S
N113 Li89 1.990 . S
N113 C112 1.314 . S
N113 C116 1.279 . S
C114 C112 1.353 . S
C114 C117 1.348 . S
C114 H162 0.929 . S
C115 C116 1.358 . S
C115 C117 1.356 . S
C115 H163 0.930 . S
C116 N113 1.279 . S
C116 C115 1.358 . S
C116 H119 0.930 . S
C117 C114 1.348 . S
C117 C115 1.356 . S
H118 C112 0.930 . S
H119 C116 0.930 . S
C120 C122 1.348 . S
C120 C123 1.356 . S
C120 O150 1.325 . S
N121 C124 1.314 . S
N121 C125 1.279 . S
C122 C120 1.348 . S
C122 C124 1.353 . S
C122 H164 0.929 . S
C123 C120 1.356 . S
C123 C125 1.358 . S
C123 H165 0.930 . S
C124 N121 1.314 . S
C124 C122 1.353 . S
C124 H166 0.930 . S
C125 N121 1.279 . S
C125 C123 1.358 . S
C125 H167 0.930 . S
C126 C127 1.348 . S
C126 C128 1.356 . S
C126 O151 1.325 . S
C127 C126 1.348 . S
C127 C129 1.353 . S
C127 H168 0.929 . S
C128 C126 1.356 . S
C128 C130 1.358 . S
C128 H169 0.930 . S
C129 C127 1.353 . S
C129 N131 1.314 . S
C129 H170 0.930 . S
C130 C128 1.358 . S
C130 N131 1.279 . S
C130 H171 0.930 . S
N131 C129 1.314 . S
N131 C130 1.279 . S
C132 C134 1.353 . S
C132 N135 1.314 . S
C132 H138 0.930 . S
C133 N135 1.279 . S
C133 C136 1.358 . S
C133 H139 0.930 . S
C134 C132 1.353 . S
C134 C137 1.348 . S
C134 H172 0.929 . S
N135 Li90 1.990 . S
N135 C132 1.314 . S
N135 C133 1.279 . S
C136 C133 1.358 . S
C136 C137 1.356 . S
C136 H173 0.930 . S
C137 C134 1.348 . S
C137 C136 1.356 . S
H138 C132 0.930 . S
H139 C133 0.930 . S
C140 N141 1.314 . S
C140 C142 1.353 . S
C140 H146 0.930 . S
N141 Li91 1.990 . S
N141 C140 1.314 . S
N141 C144 1.279 . S
C142 C140 1.353 . S
C142 C145 1.348 . S
C142 H174 0.929 . S
C143 C144 1.358 . S
C143 C145 1.356 . S
C143 H175 0.930 . S
C144 N141 1.279 . S
C144 C143 1.358 . S
C144 H147 0.930 . S
C145 C142 1.348 . S
C145 C143 1.356 . S
H146 C140 0.930 . S
H147 C144 0.930 . S
O148 Li88 1.956 . S
O148 Li89 1.970 . S
O148 Li90 1.961 . S
O148 C92 1.325 . S
O149 Li88 1.970 . S
O149 Li89 1.956 . S
O149 Li91 1.961 . S
O149 C98 1.325 . S
O150 Li88 1.961 . S
O150 Li90 1.956 . S
O150 Li91 1.970 . S
O150 C120 1.325 . S
O151 Li89 1.961 . S
O151 Li90 1.970 . S
O151 Li91 1.956 . S
O151 C126 1.325 . S
H152 C94 0.929 . S
H153 C95 0.930 . S
H154 C96 0.930 . S
H155 C97 0.930 . S
H156 C99 0.930 . S
H157 C101 0.929 . S
H158 C102 0.930 . S
H159 C103 0.930 . S
H160 C106 0.930 . S
H161 C109 0.929 . S
H162 C114 0.929 . S
H163 C115 0.930 . S
H164 C122 0.929 . S
H165 C123 0.930 . S
H166 C124 0.930 . S
H167 C125 0.930 . S
H168 C127 0.929 . S
H169 C128 0.930 . S
H170 C129 0.930 . S
H171 C130 0.930 . S
H172 C134 0.929 . S
H173 C136 0.930 . S
H174 C142 0.929 . S
H175 C143 0.930 . S
Li176 N193 1.990 . S
Li176 O236 1.956 . S
Li176 O237 1.970 . S
Li176 O238 1.961 . S
Li177 N201 1.990 . S
Li177 O236 1.970 . S
Li177 O237 1.956 . S
Li177 O239 1.961 . S
Li178 N223 1.990 . S
Li178 O236 1.961 . S
Li178 O238 1.956 . S
Li178 O239 1.970 . S
Li179 N229 1.990 . S
Li179 O237 1.961 . S
Li179 O238 1.970 . S
Li179 O239 1.956 . S
C180 C182 1.348 . S
C180 C183 1.356 . S
C180 O236 1.325 . S
N181 C184 1.314 . S
N181 C185 1.279 . S
C182 C180 1.348 . S
C182 C184 1.353 . S
C182 H240 0.929 . S
C183 C180 1.356 . S
C183 C185 1.358 . S
C183 H241 0.930 . S
C184 N181 1.314 . S
C184 C182 1.353 . S
C184 H242 0.930 . S
C185 N181 1.279 . S
C185 C183 1.358 . S
C185 H243 0.930 . S
C186 C189 1.348 . S
C186 C190 1.356 . S
C186 O237 1.325 . S
C187 N188 1.279 . S
C187 C190 1.358 . S
C187 H244 0.930 . S
N188 C187 1.279 . S
N188 C191 1.314 . S
C189 C186 1.348 . S
C189 C191 1.353 . S
C189 H245 0.929 . S
C190 C186 1.356 . S
C190 C187 1.358 . S
C190 H246 0.930 . S
C191 N188 1.314 . S
C191 C189 1.353 . S
C191 H247 0.930 . S
C192 N193 1.314 . S
C192 C197 1.353 . S
C192 H198 0.930 . S
N193 Li176 1.990 . S
N193 C192 1.314 . S
N193 C195 1.279 . S
C194 C195 1.358 . S
C194 C196 1.356 . S
C194 H248 0.930 . S
C195 N193 1.279 . S
C195 C194 1.358 . S
C195 H199 0.930 . S
C196 C194 1.356 . S
C196 C197 1.348 . S
C197 C192 1.353 . S
C197 C196 1.348 . S
C197 H249 0.929 . S
H198 C192 0.930 . S
H199 C195 0.930 . S
C200 N201 1.314 . S
C200 C202 1.353 . S
C200 H206 0.930 . S
N201 Li177 1.990 . S
N201 C200 1.314 . S
N201 C204 1.279 . S
C202 C200 1.353 . S
C202 C205 1.348 . S
C202 H250 0.929 . S
C203 C204 1.358 . S
C203 C205 1.356 . S
C203 H251 0.930 . S
C204 N201 1.279 . S
C204 C203 1.358 . S
C204 H207 0.930 . S
C205 C202 1.348 . S
C205 C203 1.356 . S
H206 C200 0.930 . S
H207 C204 0.930 . S
C208 C210 1.348 . S
C208 C211 1.356 . S
C208 O238 1.325 . S
N209 C212 1.314 . S
N209 C213 1.279 . S
C210 C208 1.348 . S
C210 C212 1.353 . S
C210 H252 0.929 . S
C211 C208 1.356 . S
C211 C213 1.358 . S
C211 H253 0.930 . S
C212 N209 1.314 . S
C212 C210 1.353 . S
C212 H254 0.930 . S
C213 N209 1.279 . S
C213 C211 1.358 . S
C213 H255 0.930 . S
C214 C215 1.348 . S
C214 C216 1.356 . S
C214 O239 1.325 . S
C215 C214 1.348 . S
C215 C217 1.353 . S
C215 H256 0.929 . S
C216 C214 1.356 . S
C216 C218 1.358 . S
C216 H257 0.930 . S
C217 C215 1.353 . S
C217 N219 1.314 . S
C217 H258 0.930 . S
C218 C216 1.358 . S
C218 N219 1.279 . S
C218 H259 0.930 . S
N219 C217 1.314 . S
N219 C218 1.279 . S
C220 C222 1.353 . S
C220 N223 1.314 . S
C220 H226 0.930 . S
C221 N223 1.279 . S
C221 C224 1.358 . S
C221 H227 0.930 . S
C222 C220 1.353 . S
C222 C225 1.348 . S
C222 H260 0.929 . S
N223 Li178 1.990 . S
N223 C220 1.314 . S
N223 C221 1.279 . S
C224 C221 1.358 . S
C224 C225 1.356 . S
C224 H261 0.930 . S
C225 C222 1.348 . S
C225 C224 1.356 . S
H226 C220 0.930 . S
H227 C221 0.930 . S
C228 N229 1.314 . S
C228 C230 1.353 . S
C228 H234 0.930 . S
N229 Li179 1.990 . S
N229 C228 1.314 . S
N229 C232 1.279 . S
C230 C228 1.353 . S
C230 C233 1.348 . S
C230 H262 0.929 . S
C231 C232 1.358 . S
C231 C233 1.356 . S
C231 H263 0.930 . S
C232 N229 1.279 . S
C232 C231 1.358 . S
C232 H235 0.930 . S
C233 C230 1.348 . S
C233 C231 1.356 . S
H234 C228 0.930 . S
H235 C232 0.930 . S
O236 Li176 1.956 . S
O236 Li177 1.970 . S
O236 Li178 1.961 . S
O236 C180 1.325 . S
O237 Li176 1.970 . S
O237 Li177 1.956 . S
O237 Li179 1.961 . S
O237 C186 1.325 . S
O238 Li176 1.961 . S
O238 Li178 1.956 . S
O238 Li179 1.970 . S
O238 C208 1.325 . S
O239 Li177 1.961 . S
O239 Li178 1.970 . S
O239 Li179 1.956 . S
O239 C214 1.325 . S
H240 C182 0.929 . S
H241 C183 0.930 . S
H242 C184 0.930 . S
H243 C185 0.930 . S
H244 C187 0.930 . S
H245 C189 0.929 . S
H246 C190 0.930 . S
H247 C191 0.930 . S
H248 C194 0.930 . S
H249 C197 0.929 . S
H250 C202 0.929 . S
H251 C203 0.930 . S
H252 C210 0.929 . S
H253 C211 0.930 . S
H254 C212 0.930 . S
H255 C213 0.930 . S
H256 C215 0.929 . S
H257 C216 0.930 . S
H258 C217 0.930 . S
H259 C218 0.930 . S
H260 C222 0.929 . S
H261 C224 0.930 . S
H262 C230 0.929 . S
H263 C231 0.930 . S
Li264 N281 1.990 . S
Li264 O324 1.956 . S
Li264 O325 1.970 . S
Li264 O326 1.961 . S
Li265 N289 1.990 . S
Li265 O324 1.970 . S
Li265 O325 1.956 . S
Li265 O327 1.961 1_554 S
Li266 N311 1.990 . S
Li266 O324 1.961 . S
Li266 O326 1.956 . S
Li266 O327 1.970 1_554 S
Li267 N317 1.990 . S
Li267 O325 1.961 1_556 S
Li267 O326 1.970 1_556 S
Li267 O327 1.956 . S
C268 C270 1.348 . S
C268 C271 1.356 . S
C268 O324 1.325 . S
N269 C272 1.314 . S
N269 C273 1.279 . S
C270 C268 1.348 . S
C270 C272 1.353 . S
C270 H328 0.929 . S
C271 C268 1.356 . S
C271 C273 1.358 . S
C271 H329 0.930 . S
C272 N269 1.314 . S
C272 C270 1.353 . S
C272 H330 0.930 . S
C273 N269 1.279 . S
C273 C271 1.358 . S
C273 H331 0.930 . S
C274 C277 1.348 . S
C274 C278 1.356 1_554 S
C274 O325 1.325 . S
C275 N276 1.279 1_556 S
C275 C278 1.358 . S
C275 H332 0.930 . S
N276 C275 1.279 1_554 S
N276 C279 1.314 . S
C277 C274 1.348 . S
C277 C279 1.353 . S
C277 H333 0.929 . S
C278 C274 1.356 1_556 S
C278 C275 1.358 . S
C278 H334 0.930 . S
C279 N276 1.314 . S
C279 C277 1.353 . S
C279 H335 0.930 . S
C280 N281 1.314 . S
C280 C285 1.353 . S
C280 H286 0.930 . S
N281 Li264 1.990 . S
N281 C280 1.314 . S
N281 C283 1.279 . S
C282 C283 1.358 . S
C282 C284 1.356 . S
C282 H336 0.930 . S
C283 N281 1.279 . S
C283 C282 1.358 . S
C283 H287 0.930 . S
C284 C282 1.356 . S
C284 C285 1.348 . S
C285 C280 1.353 . S
C285 C284 1.348 . S
C285 H337 0.929 . S
H286 C280 0.930 . S
H287 C283 0.930 . S
C288 N289 1.314 1_556 S
C288 C290 1.353 . S
C288 H294 0.930 . S
N289 Li265 1.990 . S
N289 C288 1.314 1_554 S
N289 C292 1.279 . S
C290 C288 1.353 . S
C290 C293 1.348 . S
C290 H338 0.929 . S
C291 C292 1.358 . S
C291 C293 1.356 1_554 S
C291 H339 0.930 . S
C292 N289 1.279 . S
C292 C291 1.358 . S
C292 H295 0.930 . S
C293 C290 1.348 . S
C293 C291 1.356 1_556 S
H294 C288 0.930 . S
H295 C292 0.930 . S
C296 C298 1.348 1_554 S
C296 C299 1.356 . S
C296 O326 1.325 . S
N297 C300 1.314 . S
N297 C301 1.279 . S
C298 C296 1.348 1_556 S
C298 C300 1.353 1_556 S
C298 H340 0.929 . S
C299 C296 1.356 . S
C299 C301 1.358 . S
C299 H341 0.930 . S
C300 N297 1.314 . S
C300 C298 1.353 1_554 S
C300 H342 0.930 1_554 S
C301 N297 1.279 . S
C301 C299 1.358 . S
C301 H343 0.930 . S
C302 C303 1.348 . S
C302 C304 1.356 . S
C302 O327 1.325 . S
C303 C302 1.348 . S
C303 C305 1.353 . S
C303 H344 0.929 . S
C304 C302 1.356 . S
C304 C306 1.358 . S
C304 H345 0.930 . S
C305 C303 1.353 . S
C305 N307 1.314 . S
C305 H346 0.930 . S
C306 C304 1.358 . S
C306 N307 1.279 . S
C306 H347 0.930 . S
N307 C305 1.314 . S
N307 C306 1.279 . S
C308 C310 1.353 . S
C308 N311 1.314 . S
C308 H314 0.930 . S
C309 N311 1.279 . S
C309 C312 1.358 1_554 S
C309 H315 0.930 . S
C310 C308 1.353 . S
C310 C313 1.348 1_554 S
C310 H348 0.929 . S
N311 Li266 1.990 . S
N311 C308 1.314 . S
N311 C309 1.279 . S
C312 C309 1.358 1_556 S
C312 C313 1.356 . S
C312 H349 0.930 . S
C313 C310 1.348 1_556 S
C313 C312 1.356 . S
H314 C308 0.930 . S
H315 C309 0.930 . S
C316 N317 1.314 . S
C316 C318 1.353 . S
C316 H322 0.930 . S
N317 Li267 1.990 . S
N317 C316 1.314 . S
N317 C320 1.279 . S
C318 C316 1.353 . S
C318 C321 1.348 . S
C318 H350 0.929 . S
C319 C320 1.358 . S
C319 C321 1.356 . S
C319 H351 0.930 . S
C320 N317 1.279 . S
C320 C319 1.358 . S
C320 H323 0.930 . S
C321 C318 1.348 . S
C321 C319 1.356 . S
H322 C316 0.930 . S
H323 C320 0.930 . S
O324 Li264 1.956 . S
O324 Li265 1.970 . S
O324 Li266 1.961 . S
O324 C268 1.325 . S
O325 Li264 1.970 . S
O325 Li265 1.956 . S
O325 Li267 1.961 1_554 S
O325 C274 1.325 . S
O326 Li264 1.961 . S
O326 Li266 1.956 . S
O326 Li267 1.970 1_554 S
O326 C296 1.325 . S
O327 Li265 1.961 1_556 S
O327 Li266 1.970 1_556 S
O327 Li267 1.956 . S
O327 C302 1.325 . S
H328 C270 0.929 . S
H329 C271 0.930 . S
H330 C272 0.930 . S
H331 C273 0.930 . S
H332 C275 0.930 . S
H333 C277 0.929 . S
H334 C278 0.930 . S
H335 C279 0.930 . S
H336 C282 0.930 . S
H337 C285 0.929 . S
H338 C290 0.929 . S
H339 C291 0.930 . S
H340 C298 0.929 . S
H341 C299 0.930 . S
H342 C300 0.930 1_556 S
H343 C301 0.930 . S
H344 C303 0.929 . S
H345 C304 0.930 . S
H346 C305 0.930 . S
H347 C306 0.930 . S
H348 C310 0.929 . S
H349 C312 0.930 . S
H350 C318 0.929 . S
H351 C319 0.930 . S
Li352 N369 1.994 . S
Li352 O412 1.998 . S
Li352 O413 1.926 1_455 S
Li352 O414 1.958 1_455 S
Li353 N377 1.993 . S
Li353 O412 1.936 1_655 S
Li353 O413 1.988 . S
Li353 O415 1.958 1_655 S
Li354 N399 1.990 . S
Li354 O412 1.961 . S
Li354 O414 1.928 1_455 S
Li354 O415 2.005 . S
Li355 N405 1.990 . S
Li355 O413 1.961 . S
Li355 O414 1.996 . S
Li355 O415 1.919 1_655 S
C356 C358 1.348 . S
C356 C359 1.356 . S
C356 O412 1.325 . S
N357 C360 1.314 . S
N357 C361 1.279 . S
C358 C356 1.348 . S
C358 C360 1.353 . S
C358 H416 0.929 . S
C359 C356 1.356 . S
C359 C361 1.358 . S
C359 H417 0.930 . S
C360 N357 1.314 . S
C360 C358 1.353 . S
C360 H418 0.930 . S
C361 N357 1.279 . S
C361 C359 1.358 . S
C361 H419 0.930 . S
C362 C365 1.348 . S
C362 C366 1.356 . S
C362 O413 1.325 . S
C363 N364 1.279 . S
C363 C366 1.358 . S
C363 H420 0.930 . S
N364 C363 1.279 . S
N364 C367 1.314 . S
C365 C362 1.348 . S
C365 C367 1.353 . S
C365 H421 0.929 . S
C366 C362 1.356 . S
C366 C363 1.358 . S
C366 H422 0.930 . S
C367 N364 1.314 . S
C367 C365 1.353 . S
C367 H423 0.930 . S
C368 N369 1.314 1_655 S
C368 C373 1.353 . S
C368 H374 0.930 . S
N369 Li352 1.994 . S
N369 C368 1.314 1_455 S
N369 C371 1.279 . S
C370 C371 1.358 . S
C370 C372 1.356 . S
C370 H424 0.930 . S
C371 N369 1.279 . S
C371 C370 1.358 . S
C371 H375 0.930 . S
C372 C370 1.356 . S
C372 C373 1.348 1_455 S
C373 C368 1.353 . S
C373 C372 1.348 1_655 S
C373 H425 0.929 . S
H374 C368 0.930 . S
H375 C371 0.930 . S
C376 N377 1.314 1_454 S
C376 C378 1.353 . S
C376 H382 0.930 . S
N377 Li353 1.993 . S
N377 C376 1.314 1_656 S
N377 C380 1.279 . S
C378 C376 1.353 . S
C378 C381 1.348 . S
C378 H426 0.929 . S
C379 C380 1.358 1_554 S
C379 C381 1.356 1_655 S
C379 H427 0.930 1_554 S
C380 N377 1.279 . S
C380 C379 1.358 1_556 S
C380 H383 0.930 . S
C381 C378 1.348 . S
C381 C379 1.356 1_455 S
H382 C376 0.930 . S
H383 C380 0.930 . S
C384 C386 1.348 1_455 S
C384 C387 1.356 . S
C384 O414 1.324 1_455 S
N385 C388 1.314 1_455 S
N385 C389 1.279 . S
C386 C384 1.348 1_655 S
C386 C388 1.353 . S
C386 H428 0.929 . S
C387 C384 1.356 . S
C387 C389 1.358 . S
C387 H429 0.930 . S
C388 N385 1.314 1_655 S
C388 C386 1.353 . S
C388 H430 0.930 . S
C389 N385 1.279 . S
C389 C387 1.358 . S
C389 H431 0.930 . S
C390 C391 1.348 . S
C390 C392 1.356 1_456 S
C390 O415 1.324 . S
C391 C390 1.348 . S
C391 C393 1.353 1_556 S
C391 H432 0.929 . S
C392 C390 1.356 1_654 S
C392 C394 1.358 . S
C392 H433 0.930 . S
C393 C391 1.353 1_554 S
C393 N395 1.314 1_455 S
C393 H434 0.930 . S
C394 C392 1.358 . S
C394 N395 1.279 . S
C394 H435 0.930 . S
N395 C393 1.314 1_655 S
N395 C394 1.279 . S
C396 C398 1.353 . S
C396 N399 1.314 . S
C396 H402 0.930 . S
C397 N399 1.279 . S
C397 C400 1.358 . S
C397 H403 0.930 . S
C398 C396 1.353 . S
C398 C401 1.348 . S
C398 H436 0.929 . S
N399 Li354 1.990 . S
N399 C396 1.314 . S
N399 C397 1.279 . S
C400 C397 1.358 . S
C400 C401 1.356 . S
C400 H437 0.930 . S
C401 C398 1.348 . S
C401 C400 1.356 . S
H402 C396 0.930 . S
H403 C397 0.930 . S
C404 N405 1.314 . S
C404 C406 1.353 . S
C404 H410 0.930 . S
N405 Li355 1.990 . S
N405 C404 1.314 . S
N405 C408 1.279 . S
C406 C404 1.353 . S
C406 C409 1.348 . S
C406 H438 0.929 . S
C407 C408 1.358 . S
C407 C409 1.356 . S
C407 H439 0.930 . S
C408 N405 1.279 . S
C408 C407 1.358 . S
C408 H411 0.930 . S
C409 C406 1.348 . S
C409 C407 1.356 . S
H410 C404 0.930 . S
H411 C408 0.930 . S
O412 Li352 1.998 . S
O412 Li353 1.936 1_455 S
O412 Li354 1.961 . S
O412 C356 1.325 . S
O413 Li352 1.926 1_655 S
O413 Li353 1.988 . S
O413 Li355 1.961 . S
O413 C362 1.325 . S
O414 Li352 1.958 1_655 S
O414 Li354 1.928 1_655 S
O414 Li355 1.996 . S
O414 C384 1.324 1_655 S
O415 Li353 1.958 1_455 S
O415 Li354 2.005 . S
O415 Li355 1.919 1_455 S
O415 C390 1.324 . S
H416 C358 0.929 . S
H417 C359 0.930 . S
H418 C360 0.930 . S
H419 C361 0.930 . S
H420 C363 0.930 . S
H421 C365 0.929 . S
H422 C366 0.930 . S
H423 C367 0.930 . S
H424 C370 0.930 . S
H425 C373 0.929 . S
H426 C378 0.929 . S
H427 C379 0.930 1_556 S
H428 C386 0.929 . S
H429 C387 0.930 . S
H430 C388 0.930 . S
H431 C389 0.930 . S
H432 C391 0.929 . S
H433 C392 0.930 . S
H434 C393 0.930 . S
H435 C394 0.930 . S
H436 C398 0.929 . S
H437 C400 0.930 . S
H438 C406 0.929 . S
H439 C407 0.930 . S
Li440 N457 1.990 . S
Li440 O500 1.956 . S
Li440 O501 1.970 . S
Li440 O502 1.961 . S
Li441 N465 1.990 . S
Li441 O500 1.970 . S
Li441 O501 1.956 . S
Li441 O503 1.961 . S
Li442 N487 2.008 . S
Li442 O500 1.961 . S
Li442 O502 1.956 . S
Li442 O503 1.970 . S
Li443 N493 1.990 . S
Li443 O501 1.961 . S
Li443 O502 1.970 . S
Li443 O503 1.956 . S
C444 C446 1.348 . S
C444 C447 1.356 . S
C444 O500 1.325 . S
N445 C448 1.314 . S
N445 C449 1.279 . S
C446 C444 1.348 . S
C446 C448 1.353 . S
C446 H504 0.929 . S
C447 C444 1.356 . S
C447 C449 1.358 . S
C447 H505 0.930 . S
C448 N445 1.314 . S
C448 C446 1.353 . S
C448 H506 0.930 . S
C449 N445 1.279 . S
C449 C447 1.358 . S
C449 H507 0.930 . S
C450 C453 1.348 . S
C450 C454 1.356 . S
C450 O501 1.325 . S
C451 N452 1.279 . S
C451 C454 1.358 . S
C451 H508 0.930 . S
N452 C451 1.279 . S
N452 C455 1.314 . S
C453 C450 1.348 . S
C453 C455 1.353 . S
C453 H509 0.929 . S
C454 C450 1.356 . S
C454 C451 1.358 . S
C454 H510 0.930 . S
C455 N452 1.314 . S
C455 C453 1.353 . S
C455 H511 0.930 . S
C456 N457 1.314 . S
C456 C461 1.353 . S
C456 H462 0.930 . S
N457 Li440 1.990 . S
N457 C456 1.314 . S
N457 C459 1.279 . S
C458 C459 1.358 . S
C458 C460 1.356 . S
C458 H512 0.930 . S
C459 N457 1.279 . S
C459 C458 1.358 . S
C459 H463 0.930 . S
C460 C458 1.356 . S
C460 C461 1.348 . S
C461 C456 1.353 . S
C461 C460 1.348 . S
C461 H513 0.929 . S
H462 C456 0.930 . S
H463 C459 0.930 . S
C464 N465 1.314 . S
C464 C466 1.353 . S
C464 H470 0.930 . S
N465 Li441 1.990 . S
N465 C464 1.314 . S
N465 C468 1.279 . S
C466 C464 1.353 . S
C466 C469 1.348 . S
C466 H514 0.929 . S
C467 C468 1.358 . S
C467 C469 1.356 . S
C467 H515 0.930 . S
C468 N465 1.279 . S
C468 C467 1.358 . S
C468 H471 0.930 . S
C469 C466 1.348 . S
C469 C467 1.356 . S
H470 C464 0.930 . S
H471 C468 0.930 . S
C472 C474 1.348 . S
C472 C475 1.356 . S
C472 O502 1.325 . S
N473 C476 1.314 . S
N473 C477 1.279 . S
C474 C472 1.348 . S
C474 C476 1.353 1_554 S
C474 H516 0.929 . S
C475 C472 1.356 . S
C475 C477 1.358 1_554 S
C475 H517 0.930 . S
C476 N473 1.314 . S
C476 C474 1.353 1_556 S
C476 H518 0.930 . S
C477 N473 1.279 . S
C477 C475 1.358 1_556 S
C477 H519 0.930 . S
C478 C479 1.348 . S
C478 C480 1.356 . S
C478 O503 1.325 . S
C479 C478 1.348 . S
C479 C481 1.353 . S
C479 H520 0.929 . S
C480 C478 1.356 . S
C480 C482 1.358 . S
C480 H521 0.930 . S
C481 C479 1.353 . S
C481 N483 1.314 . S
C481 H522 0.930 . S
C482 C480 1.358 . S
C482 N483 1.279 . S
C482 H523 0.930 . S
N483 C481 1.314 . S
N483 C482 1.279 . S
C484 C486 1.353 . S
C484 N487 1.312 1_556 S
C484 H490 0.930 1_556 S
C485 N487 1.263 1_556 S
C485 C488 1.358 . S
C485 H491 0.930 . S
C486 C484 1.353 . S
C486 C489 1.348 . S
C486 H524 0.929 . S
N487 Li442 2.008 . S
N487 C484 1.312 1_554 S
N487 C485 1.263 1_554 S
C488 C485 1.358 . S
C488 C489 1.356 . S
C488 H525 0.930 . S
C489 C486 1.348 . S
C489 C488 1.356 . S
H490 C484 0.930 1_554 S
H491 C485 0.930 . S
C492 N493 1.314 . S
C492 C494 1.353 . S
C492 H498 0.930 . S
N493 Li443 1.990 . S
N493 C492 1.314 . S
N493 C496 1.279 . S
C494 C492 1.353 . S
C494 C497 1.348 . S
C494 H526 0.929 . S
C495 C496 1.358 . S
C495 C497 1.356 . S
C495 H527 0.930 . S
C496 N493 1.279 . S
C496 C495 1.358 . S
C496 H499 0.930 . S
C497 C494 1.348 . S
C497 C495 1.356 . S
H498 C492 0.930 . S
H499 C496 0.930 . S
O500 Li440 1.956 . S
O500 Li441 1.970 . S
O500 Li442 1.961 . S
O500 C444 1.325 . S
O501 Li440 1.970 . S
O501 Li441 1.956 . S
O501 Li443 1.961 . S
O501 C450 1.325 . S
O502 Li440 1.961 . S
O502 Li442 1.956 . S
O502 Li443 1.970 . S
O502 C472 1.325 . S
O503 Li441 1.961 . S
O503 Li442 1.970 . S
O503 Li443 1.956 . S
O503 C478 1.325 . S
H504 C446 0.929 . S
H505 C447 0.930 . S
H506 C448 0.930 . S
H507 C449 0.930 . S
H508 C451 0.930 . S
H509 C453 0.929 . S
H510 C454 0.930 . S
H511 C455 0.930 . S
H512 C458 0.930 . S
H513 C461 0.929 . S
H514 C466 0.929 . S
H515 C467 0.930 . S
H516 C474 0.929 . S
H517 C475 0.930 . S
H518 C476 0.930 . S
H519 C477 0.930 . S
H520 C479 0.929 . S
H521 C480 0.930 . S
H522 C481 0.930 . S
H523 C482 0.930 . S
H524 C486 0.929 . S
H525 C488 0.930 . S
H526 C494 0.929 . S
H527 C495 0.930 . S
Li528 N545 1.990 . S
Li528 O588 1.956 . S
Li528 O589 1.970 . S
Li528 O590 1.961 . S
Li529 N553 1.990 . S
Li529 O588 1.970 . S
Li529 O589 1.956 . S
Li529 O591 1.961 . S
Li530 N575 1.990 . S
Li530 O588 1.961 . S
Li530 O590 1.956 . S
Li530 O591 1.970 . S
Li531 N581 1.990 . S
Li531 O589 1.961 . S
Li531 O590 1.970 . S
Li531 O591 1.956 . S
C532 C534 1.348 . S
C532 C535 1.356 . S
C532 O588 1.325 . S
N533 C536 1.314 . S
N533 C537 1.279 . S
C534 C532 1.348 . S
C534 C536 1.353 . S
C534 H592 0.929 . S
C535 C532 1.356 . S
C535 C537 1.358 . S
C535 H593 0.930 . S
C536 N533 1.314 . S
C536 C534 1.353 . S
C536 H594 0.930 . S
C537 N533 1.279 . S
C537 C535 1.358 . S
C537 H595 0.930 . S
C538 C541 1.348 . S
C538 C542 1.356 . S
C538 O589 1.325 . S
C539 N540 1.279 . S
C539 C542 1.358 . S
C539 H596 0.930 . S
N540 C539 1.279 . S
N540 C543 1.314 . S
C541 C538 1.348 . S
C541 C543 1.353 . S
C541 H597 0.929 . S
C542 C538 1.356 . S
C542 C539 1.358 . S
C542 H598 0.930 . S
C543 N540 1.314 . S
C543 C541 1.353 . S
C543 H599 0.930 . S
C544 N545 1.314 . S
C544 C549 1.353 . S
C544 H550 0.930 . S
N545 Li528 1.990 . S
N545 C544 1.314 . S
N545 C547 1.279 . S
C546 C547 1.358 . S
C546 C548 1.356 . S
C546 H600 0.930 . S
C547 N545 1.279 . S
C547 C546 1.358 . S
C547 H551 0.930 . S
C548 C546 1.356 . S
C548 C549 1.348 . S
C549 C544 1.353 . S
C549 C548 1.348 . S
C549 H601 0.929 . S
H550 C544 0.930 . S
H551 C547 0.930 . S
C552 N553 1.314 . S
C552 C554 1.353 . S
C552 H558 0.930 . S
N553 Li529 1.990 . S
N553 C552 1.314 . S
N553 C556 1.279 . S
C554 C552 1.353 . S
C554 C557 1.348 . S
C554 H602 0.929 . S
C555 C556 1.358 . S
C555 C557 1.356 . S
C555 H603 0.930 . S
C556 N553 1.279 . S
C556 C555 1.358 . S
C556 H559 0.930 . S
C557 C554 1.348 . S
C557 C555 1.356 . S
H558 C552 0.930 . S
H559 C556 0.930 . S
C560 C562 1.348 . S
C560 C563 1.356 . S
C560 O590 1.325 . S
N561 C564 1.314 . S
N561 C565 1.279 . S
C562 C560 1.348 . S
C562 C564 1.353 . S
C562 H604 0.929 . S
C563 C560 1.356 . S
C563 C565 1.358 . S
C563 H605 0.930 . S
C564 N561 1.314 . S
C564 C562 1.353 . S
C564 H606 0.930 . S
C565 N561 1.279 . S
C565 C563 1.358 . S
C565 H607 0.930 . S
C566 C567 1.348 . S
C566 C568 1.356 . S
C566 O591 1.325 . S
C567 C566 1.348 . S
C567 C569 1.353 . S
C567 H608 0.929 . S
C568 C566 1.356 . S
C568 C570 1.358 . S
C568 H609 0.930 . S
C569 C567 1.353 . S
C569 N571 1.314 . S
C569 H610 0.930 . S
C570 C568 1.358 . S
C570 N571 1.279 . S
C570 H611 0.930 . S
N571 C569 1.314 . S
N571 C570 1.279 . S
C572 C574 1.353 . S
C572 N575 1.314 . S
C572 H578 0.930 . S
C573 N575 1.279 . S
C573 C576 1.358 . S
C573 H579 0.930 . S
C574 C572 1.353 . S
C574 C577 1.348 . S
C574 H612 0.929 . S
N575 Li530 1.990 . S
N575 C572 1.314 . S
N575 C573 1.279 . S
C576 C573 1.358 . S
C576 C577 1.356 . S
C576 H613 0.930 . S
C577 C574 1.348 . S
C577 C576 1.356 . S
H578 C572 0.930 . S
H579 C573 0.930 . S
C580 N581 1.314 . S
C580 C582 1.353 . S
C580 H586 0.930 . S
N581 Li531 1.990 . S
N581 C580 1.314 . S
N581 C584 1.279 . S
C582 C580 1.353 . S
C582 C585 1.348 . S
C582 H614 0.929 . S
C583 C584 1.358 . S
C583 C585 1.356 . S
C583 H615 0.930 . S
C584 N581 1.279 . S
C584 C583 1.358 . S
C584 H587 0.930 . S
C585 C582 1.348 . S
C585 C583 1.356 . S
H586 C580 0.930 . S
H587 C584 0.930 . S
O588 Li528 1.956 . S
O588 Li529 1.970 . S
O588 Li530 1.961 . S
O588 C532 1.325 . S
O589 Li528 1.970 . S
O589 Li529 1.956 . S
O589 Li531 1.961 . S
O589 C538 1.325 . S
O590 Li528 1.961 . S
O590 Li530 1.956 . S
O590 Li531 1.970 . S
O590 C560 1.325 . S
O591 Li529 1.961 . S
O591 Li530 1.970 . S
O591 Li531 1.956 . S
O591 C566 1.325 . S
H592 C534 0.929 . S
H593 C535 0.930 . S
H594 C536 0.930 . S
H595 C537 0.930 . S
H596 C539 0.930 . S
H597 C541 0.929 . S
H598 C542 0.930 . S
H599 C543 0.930 . S
H600 C546 0.930 . S
H601 C549 0.929 . S
H602 C554 0.929 . S
H603 C555 0.930 . S
H604 C562 0.929 . S
H605 C563 0.930 . S
H606 C564 0.930 . S
H607 C565 0.930 . S
H608 C567 0.929 . S
H609 C568 0.930 . S
H610 C569 0.930 . S
H611 C570 0.930 . S
H612 C574 0.929 . S
H613 C576 0.930 . S
H614 C582 0.929 . S
H615 C583 0.930 . S
Li616 N633 1.990 . S
Li616 O676 1.956 . S
Li616 O677 1.970 . S
Li616 O678 1.961 . S
Li617 N641 1.990 . S
Li617 O676 1.970 . S
Li617 O677 1.956 . S
Li617 O679 1.961 . S
Li618 N663 1.990 . S
Li618 O676 1.961 . S
Li618 O678 1.956 . S
Li618 O679 1.970 . S
Li619 N669 1.990 . S
Li619 O677 1.961 . S
Li619 O678 1.970 . S
Li619 O679 1.956 . S
C620 C622 1.348 . S
C620 C623 1.356 . S
C620 O676 1.325 . S
N621 C624 1.314 . S
N621 C625 1.279 . S
C622 C620 1.348 . S
C622 C624 1.353 . S
C622 H680 0.929 . S
C623 C620 1.356 . S
C623 C625 1.358 . S
C623 H681 0.930 . S
C624 N621 1.314 . S
C624 C622 1.353 . S
C624 H682 0.930 . S
C625 N621 1.279 . S
C625 C623 1.358 . S
C625 H683 0.930 . S
C626 C629 1.348 . S
C626 C630 1.356 . S
C626 O677 1.325 . S
C627 N628 1.279 . S
C627 C630 1.358 . S
C627 H684 0.930 . S
N628 C627 1.279 . S
N628 C631 1.314 . S
C629 C626 1.348 . S
C629 C631 1.353 . S
C629 H685 0.929 . S
C630 C626 1.356 . S
C630 C627 1.358 . S
C630 H686 0.930 . S
C631 N628 1.314 . S
C631 C629 1.353 . S
C631 H687 0.930 . S
C632 N633 1.314 . S
C632 C637 1.353 . S
C632 H638 0.930 . S
N633 Li616 1.990 . S
N633 C632 1.314 . S
N633 C635 1.279 . S
C634 C635 1.358 . S
C634 C636 1.356 . S
C634 H688 0.930 . S
C635 N633 1.279 . S
C635 C634 1.358 . S
C635 H639 0.930 . S
C636 C634 1.356 . S
C636 C637 1.348 . S
C637 C632 1.353 . S
C637 C636 1.348 . S
C637 H689 0.929 . S
H638 C632 0.930 . S
H639 C635 0.930 . S
C640 N641 1.314 . S
C640 C642 1.353 . S
C640 H646 0.930 . S
N641 Li617 1.990 . S
N641 C640 1.314 . S
N641 C644 1.279 . S
C642 C640 1.353 . S
C642 C645 1.348 . S
C642 H690 0.929 . S
C643 C644 1.358 . S
C643 C645 1.356 . S
C643 H691 0.930 . S
C644 N641 1.279 . S
C644 C643 1.358 . S
C644 H647 0.930 . S
C645 C642 1.348 . S
C645 C643 1.356 . S
H646 C640 0.930 . S
H647 C644 0.930 . S
C648 C650 1.348 . S
C648 C651 1.356 . S
C648 O678 1.325 . S
N649 C652 1.314 . S
N649 C653 1.279 . S
C650 C648 1.348 . S
C650 C652 1.353 . S
C650 H692 0.929 . S
C651 C648 1.356 . S
C651 C653 1.358 . S
C651 H693 0.930 . S
C652 N649 1.314 . S
C652 C650 1.353 . S
C652 H694 0.930 . S
C653 N649 1.279 . S
C653 C651 1.358 . S
C653 H695 0.930 . S
C654 C655 1.348 . S
C654 C656 1.356 . S
C654 O679 1.325 . S
C655 C654 1.348 . S
C655 C657 1.353 . S
C655 H696 0.929 . S
C656 C654 1.356 . S
C656 C658 1.358 . S
C656 H697 0.930 . S
C657 C655 1.353 . S
C657 N659 1.314 . S
C657 H698 0.930 . S
C658 C656 1.358 . S
C658 N659 1.279 . S
C658 H699 0.930 . S
N659 C657 1.314 . S
N659 C658 1.279 . S
C660 C662 1.353 . S
C660 N663 1.314 . S
C660 H666 0.930 . S
C661 N663 1.279 . S
C661 C664 1.358 . S
C661 H667 0.930 . S
C662 C660 1.353 . S
C662 C665 1.348 . S
C662 H700 0.929 . S
N663 Li618 1.990 . S
N663 C660 1.314 . S
N663 C661 1.279 . S
C664 C661 1.358 . S
C664 C665 1.356 . S
C664 H701 0.930 . S
C665 C662 1.348 . S
C665 C664 1.356 . S
H666 C660 0.930 . S
H667 C661 0.930 . S
C668 N669 1.314 . S
C668 C670 1.353 . S
C668 H674 0.930 . S
N669 Li619 1.990 . S
N669 C668 1.314 . S
N669 C672 1.279 . S
C670 C668 1.353 . S
C670 C673 1.348 . S
C670 H702 0.929 . S
C671 C672 1.358 . S
C671 C673 1.356 . S
C671 H703 0.930 . S
C672 N669 1.279 . S
C672 C671 1.358 . S
C672 H675 0.930 . S
C673 C670 1.348 . S
C673 C671 1.356 . S
H674 C668 0.930 . S
H675 C672 0.930 . S
O676 Li616 1.956 . S
O676 Li617 1.970 . S
O676 Li618 1.961 . S
O676 C620 1.325 . S
O677 Li616 1.970 . S
O677 Li617 1.956 . S
O677 Li619 1.961 . S
O677 C626 1.325 . S
O678 Li616 1.961 . S
O678 Li618 1.956 . S
O678 Li619 1.970 . S
O678 C648 1.325 . S
O679 Li617 1.961 . S
O679 Li618 1.970 . S
O679 Li619 1.956 . S
O679 C654 1.325 . S
H680 C622 0.929 . S
H681 C623 0.930 . S
H682 C624 0.930 . S
H683 C625 0.930 . S
H684 C627 0.930 . S
H685 C629 0.929 . S
H686 C630 0.930 . S
H687 C631 0.930 . S
H688 C634 0.930 . S
H689 C637 0.929 . S
H690 C642 0.929 . S
H691 C643 0.930 . S
H692 C650 0.929 . S
H693 C651 0.930 . S
H694 C652 0.930 . S
H695 C653 0.930 . S
H696 C655 0.929 . S
H697 C656 0.930 . S
H698 C657 0.930 . S
H699 C658 0.930 . S
H700 C662 0.929 . S
H701 C664 0.930 . S
H702 C670 0.929 . S
H703 C671 0.930 . S
Li704 N721 1.990 . S
Li704 O764 1.956 . S
Li704 O765 1.970 . S
Li704 O766 1.961 . S
Li705 N729 1.990 . S
Li705 O764 1.970 . S
Li705 O765 1.956 . S
Li705 O767 1.961 . S
Li706 N751 1.990 . S
Li706 O764 1.961 . S
Li706 O766 1.956 . S
Li706 O767 1.970 . S
Li707 N757 1.990 . S
Li707 O765 1.961 . S
Li707 O766 1.970 . S
Li707 O767 1.956 . S
C708 C710 1.348 . S
C708 C711 1.356 . S
C708 O764 1.325 . S
N709 C712 1.314 . S
N709 C713 1.279 . S
C710 C708 1.348 . S
C710 C712 1.353 . S
C710 H768 0.929 . S
C711 C708 1.356 . S
C711 C713 1.358 . S
C711 H769 0.930 . S
C712 N709 1.314 . S
C712 C710 1.353 . S
C712 H770 0.930 . S
C713 N709 1.279 . S
C713 C711 1.358 . S
C713 H771 0.930 . S
C714 C717 1.348 . S
C714 C718 1.356 . S
C714 O765 1.325 . S
C715 N716 1.279 . S
C715 C718 1.358 . S
C715 H772 0.930 . S
N716 C715 1.279 . S
N716 C719 1.314 . S
C717 C714 1.348 . S
C717 C719 1.353 . S
C717 H773 0.929 . S
C718 C714 1.356 . S
C718 C715 1.358 . S
C718 H774 0.930 . S
C719 N716 1.314 . S
C719 C717 1.353 . S
C719 H775 0.930 . S
C720 N721 1.314 . S
C720 C725 1.353 . S
C720 H726 0.930 . S
N721 Li704 1.990 . S
N721 C720 1.314 . S
N721 C723 1.279 . S
C722 C723 1.358 . S
C722 C724 1.356 . S
C722 H776 0.930 . S
C723 N721 1.279 . S
C723 C722 1.358 . S
C723 H727 0.930 . S
C724 C722 1.356 . S
C724 C725 1.348 . S
C725 C720 1.353 . S
C725 C724 1.348 . S
C725 H777 0.929 . S
H726 C720 0.930 . S
H727 C723 0.930 . S
C728 N729 1.314 . S
C728 C730 1.353 . S
C728 H734 0.930 . S
N729 Li705 1.990 . S
N729 C728 1.314 . S
N729 C732 1.279 . S
C730 C728 1.353 . S
C730 C733 1.348 . S
C730 H778 0.929 . S
C731 C732 1.358 . S
C731 C733 1.356 . S
C731 H779 0.930 . S
C732 N729 1.279 . S
C732 C731 1.358 . S
C732 H735 0.930 . S
C733 C730 1.348 . S
C733 C731 1.356 . S
H734 C728 0.930 . S
H735 C732 0.930 . S
C736 C738 1.348 . S
C736 C739 1.356 . S
C736 O766 1.325 . S
N737 C740 1.314 . S
N737 C741 1.279 . S
C738 C736 1.348 . S
C738 C740 1.353 . S
C738 H780 0.929 . S
C739 C736 1.356 . S
C739 C741 1.358 . S
C739 H781 0.930 . S
C740 N737 1.314 . S
C740 C738 1.353 . S
C740 H782 0.930 . S
C741 N737 1.279 . S
C741 C739 1.358 . S
C741 H783 0.930 . S
C742 C743 1.348 . S
C742 C744 1.356 . S
C742 O767 1.325 . S
C743 C742 1.348 . S
C743 C745 1.353 . S
C743 H784 0.929 . S
C744 C742 1.356 . S
C744 C746 1.358 . S
C744 H785 0.930 . S
C745 C743 1.353 . S
C745 N747 1.314 . S
C745 H786 0.930 . S
C746 C744 1.358 . S
C746 N747 1.279 . S
C746 H787 0.930 . S
N747 C745 1.314 . S
N747 C746 1.279 . S
C748 C750 1.353 . S
C748 N751 1.314 . S
C748 H754 0.930 . S
C749 N751 1.279 . S
C749 C752 1.358 . S
C749 H755 0.930 . S
C750 C748 1.353 . S
C750 C753 1.348 . S
C750 H788 0.929 . S
N751 Li706 1.990 . S
N751 C748 1.314 . S
N751 C749 1.279 . S
C752 C749 1.358 . S
C752 C753 1.356 . S
C752 H789 0.930 . S
C753 C750 1.348 . S
C753 C752 1.356 . S
H754 C748 0.930 . S
H755 C749 0.930 . S
C756 N757 1.314 . S
C756 C758 1.353 . S
C756 H762 0.930 . S
N757 Li707 1.990 . S
N757 C756 1.314 . S
N757 C760 1.279 . S
C758 C756 1.353 . S
C758 C761 1.348 . S
C758 H790 0.929 . S
C759 C760 1.358 . S
C759 C761 1.356 . S
C759 H791 0.930 . S
C760 N757 1.279 . S
C760 C759 1.358 . S
C760 H763 0.930 . S
C761 C758 1.348 . S
C761 C759 1.356 . S
H762 C756 0.930 . S
H763 C760 0.930 . S
O764 Li704 1.956 . S
O764 Li705 1.970 . S
O764 Li706 1.961 . S
O764 C708 1.325 . S
O765 Li704 1.970 . S
O765 Li705 1.956 . S
O765 Li707 1.961 . S
O765 C714 1.325 . S
O766 Li704 1.961 . S
O766 Li706 1.956 . S
O766 Li707 1.970 . S
O766 C736 1.325 . S
O767 Li705 1.961 . S
O767 Li706 1.970 . S
O767 Li707 1.956 . S
O767 C742 1.325 . S
H768 C710 0.929 . S
H769 C711 0.930 . S
H770 C712 0.930 . S
H771 C713 0.930 . S
H772 C715 0.930 . S
H773 C717 0.929 . S
H774 C718 0.930 . S
H775 C719 0.930 . S
H776 C722 0.930 . S
H777 C725 0.929 . S
H778 C730 0.929 . S
H779 C731 0.930 . S
H780 C738 0.929 . S
H781 C739 0.930 . S
H782 C740 0.930 . S
H783 C741 0.930 . S
H784 C743 0.929 . S
H785 C744 0.930 . S
H786 C745 0.930 . S
H787 C746 0.930 . S
H788 C750 0.929 . S
H789 C752 0.930 . S
H790 C758 0.929 . S
H791 C759 0.930 . S
Li792 N809 1.990 . S
Li792 O852 1.956 . S
Li792 O853 1.970 . S
Li792 O854 1.961 . S
Li793 N817 1.990 . S
Li793 O852 1.970 . S
Li793 O853 1.956 . S
Li793 O855 1.961 . S
Li794 N839 2.008 . S
Li794 O852 1.961 . S
Li794 O854 1.956 . S
Li794 O855 1.970 . S
Li795 N845 1.990 . S
Li795 O853 1.961 . S
Li795 O854 1.970 . S
Li795 O855 1.956 . S
C796 C798 1.348 . S
C796 C799 1.356 . S
C796 O852 1.325 . S
N797 C800 1.314 . S
N797 C801 1.279 . S
C798 C796 1.348 . S
C798 C800 1.353 . S
C798 H856 0.929 . S
C799 C796 1.356 . S
C799 C801 1.358 . S
C799 H857 0.930 . S
C800 N797 1.314 . S
C800 C798 1.353 . S
C800 H858 0.930 . S
C801 N797 1.279 . S
C801 C799 1.358 . S
C801 H859 0.930 . S
C802 C805 1.348 . S
C802 C806 1.356 . S
C802 O853 1.325 . S
C803 N804 1.279 . S
C803 C806 1.358 . S
C803 H860 0.930 . S
N804 C803 1.279 . S
N804 C807 1.314 . S
C805 C802 1.348 . S
C805 C807 1.353 . S
C805 H861 0.929 . S
C806 C802 1.356 . S
C806 C803 1.358 . S
C806 H862 0.930 . S
C807 N804 1.314 . S
C807 C805 1.353 . S
C807 H863 0.930 . S
C808 N809 1.314 . S
C808 C813 1.353 . S
C808 H814 0.930 . S
N809 Li792 1.990 . S
N809 C808 1.314 . S
N809 C811 1.279 . S
C810 C811 1.358 . S
C810 C812 1.356 . S
C810 H864 0.930 . S
C811 N809 1.279 . S
C811 C810 1.358 . S
C811 H815 0.930 . S
C812 C810 1.356 . S
C812 C813 1.348 . S
C813 C808 1.353 . S
C813 C812 1.348 . S
C813 H865 0.929 . S
H814 C808 0.930 . S
H815 C811 0.930 . S
C816 N817 1.314 . S
C816 C818 1.353 . S
C816 H822 0.930 . S
N817 Li793 1.990 . S
N817 C816 1.314 . S
N817 C820 1.279 . S
C818 C816 1.353 . S
C818 C821 1.348 . S
C818 H866 0.929 . S
C819 C820 1.358 . S
C819 C821 1.356 . S
C819 H867 0.930 . S
C820 N817 1.279 . S
C820 C819 1.358 . S
C820 H823 0.930 . S
C821 C818 1.348 . S
C821 C819 1.356 . S
H822 C816 0.930 . S
H823 C820 0.930 . S
C824 C826 1.348 . S
C824 C827 1.356 . S
C824 O854 1.325 . S
N825 C828 1.314 . S
N825 C829 1.279 . S
C826 C824 1.348 . S
C826 C828 1.353 1_554 S
C826 H868 0.929 . S
C827 C824 1.356 . S
C827 C829 1.358 1_554 S
C827 H869 0.930 . S
C828 N825 1.314 . S
C828 C826 1.353 1_556 S
C828 H870 0.930 . S
C829 N825 1.279 . S
C829 C827 1.358 1_556 S
C829 H871 0.930 . S
C830 C831 1.348 . S
C830 C832 1.356 . S
C830 O855 1.325 . S
C831 C830 1.348 . S
C831 C833 1.353 . S
C831 H872 0.929 . S
C832 C830 1.356 . S
C832 C834 1.358 . S
C832 H873 0.930 . S
C833 C831 1.353 . S
C833 N835 1.314 . S
C833 H874 0.930 . S
C834 C832 1.358 . S
C834 N835 1.279 . S
C834 H875 0.930 . S
N835 C833 1.314 . S
N835 C834 1.279 . S
C836 C838 1.353 . S
C836 N839 1.312 1_556 S
C836 H842 0.930 1_556 S
C837 N839 1.263 1_556 S
C837 C840 1.358 . S
C837 H843 0.930 . S
C838 C836 1.353 . S
C838 C841 1.348 . S
C838 H876 0.929 . S
N839 Li794 2.008 . S
N839 C836 1.312 1_554 S
N839 C837 1.263 1_554 S
C840 C837 1.358 . S
C840 C841 1.356 . S
C840 H877 0.930 . S
C841 C838 1.348 . S
C841 C840 1.356 . S
H842 C836 0.930 1_554 S
H843 C837 0.930 . S
C844 N845 1.314 . S
C844 C846 1.353 . S
C844 H850 0.930 . S
N845 Li795 1.990 . S
N845 C844 1.314 . S
N845 C848 1.279 . S
C846 C844 1.353 . S
C846 C849 1.348 . S
C846 H878 0.929 . S
C847 C848 1.358 . S
C847 C849 1.356 . S
C847 H879 0.930 . S
C848 N845 1.279 . S
C848 C847 1.358 . S
C848 H851 0.930 . S
C849 C846 1.348 . S
C849 C847 1.356 . S
H850 C844 0.930 . S
H851 C848 0.930 . S
O852 Li792 1.956 . S
O852 Li793 1.970 . S
O852 Li794 1.961 . S
O852 C796 1.325 . S
O853 Li792 1.970 . S
O853 Li793 1.956 . S
O853 Li795 1.961 . S
O853 C802 1.325 . S
O854 Li792 1.961 . S
O854 Li794 1.956 . S
O854 Li795 1.970 . S
O854 C824 1.325 . S
O855 Li793 1.961 . S
O855 Li794 1.970 . S
O855 Li795 1.956 . S
O855 C830 1.325 . S
H856 C798 0.929 . S
H857 C799 0.930 . S
H858 C800 0.930 . S
H859 C801 0.930 . S
H860 C803 0.930 . S
H861 C805 0.929 . S
H862 C806 0.930 . S
H863 C807 0.930 . S
H864 C810 0.930 . S
H865 C813 0.929 . S
H866 C818 0.929 . S
H867 C819 0.930 . S
H868 C826 0.929 . S
H869 C827 0.930 . S
H870 C828 0.930 . S
H871 C829 0.930 . S
H872 C831 0.929 . S
H873 C832 0.930 . S
H874 C833 0.930 . S
H875 C834 0.930 . S
H876 C838 0.929 . S
H877 C840 0.930 . S
H878 C846 0.929 . S
H879 C847 0.930 . S
Li880 N897 1.990 . S
Li880 O940 1.956 . S
Li880 O941 1.970 . S
Li880 O942 1.961 . S
Li881 N905 1.990 . S
Li881 O940 1.970 . S
Li881 O941 1.956 . S
Li881 O943 1.961 1_554 S
Li882 N927 1.990 . S
Li882 O940 1.961 . S
Li882 O942 1.956 . S
Li882 O943 1.970 1_554 S
Li883 N933 1.990 . S
Li883 O941 1.961 1_556 S
Li883 O942 1.970 1_556 S
Li883 O943 1.956 . S
C884 C886 1.348 . S
C884 C887 1.356 . S
C884 O940 1.325 . S
N885 C888 1.314 . S
N885 C889 1.279 . S
C886 C884 1.348 . S
C886 C888 1.353 . S
C886 H944 0.929 . S
C887 C884 1.356 . S
C887 C889 1.358 . S
C887 H945 0.930 . S
C888 N885 1.314 . S
C888 C886 1.353 . S
C888 H946 0.930 . S
C889 N885 1.279 . S
C889 C887 1.358 . S
C889 H947 0.930 . S
C890 C893 1.348 . S
C890 C894 1.356 1_554 S
C890 O941 1.325 . S
C891 N892 1.279 1_556 S
C891 C894 1.358 . S
C891 H948 0.930 . S
N892 C891 1.279 1_554 S
N892 C895 1.314 . S
C893 C890 1.348 . S
C893 C895 1.353 . S
C893 H949 0.929 . S
C894 C890 1.356 1_556 S
C894 C891 1.358 . S
C894 H950 0.930 . S
C895 N892 1.314 . S
C895 C893 1.353 . S
C895 H951 0.930 . S
C896 N897 1.314 . S
C896 C901 1.353 . S
C896 H902 0.930 . S
N897 Li880 1.990 . S
N897 C896 1.314 . S
N897 C899 1.279 . S
C898 C899 1.358 . S
C898 C900 1.356 . S
C898 H952 0.930 . S
C899 N897 1.279 . S
C899 C898 1.358 . S
C899 H903 0.930 . S
C900 C898 1.356 . S
C900 C901 1.348 . S
C901 C896 1.353 . S
C901 C900 1.348 . S
C901 H953 0.929 . S
H902 C896 0.930 . S
H903 C899 0.930 . S
C904 N905 1.314 1_556 S
C904 C906 1.353 . S
C904 H910 0.930 . S
N905 Li881 1.990 . S
N905 C904 1.314 1_554 S
N905 C908 1.279 . S
C906 C904 1.353 . S
C906 C909 1.348 . S
C906 H954 0.929 . S
C907 C908 1.358 . S
C907 C909 1.356 1_554 S
C907 H955 0.930 . S
C908 N905 1.279 . S
C908 C907 1.358 . S
C908 H911 0.930 . S
C909 C906 1.348 . S
C909 C907 1.356 1_556 S
H910 C904 0.930 . S
H911 C908 0.930 . S
C912 C914 1.348 1_554 S
C912 C915 1.356 . S
C912 O942 1.325 . S
N913 C916 1.314 . S
N913 C917 1.279 . S
C914 C912 1.348 1_556 S
C914 C916 1.353 1_556 S
C914 H956 0.929 . S
C915 C912 1.356 . S
C915 C917 1.358 . S
C915 H957 0.930 . S
C916 N913 1.314 . S
C916 C914 1.353 1_554 S
C916 H958 0.930 1_554 S
C917 N913 1.279 . S
C917 C915 1.358 . S
C917 H959 0.930 . S
C918 C919 1.348 . S
C918 C920 1.356 . S
C918 O943 1.325 . S
C919 C918 1.348 . S
C919 C921 1.353 . S
C919 H960 0.929 . S
C920 C918 1.356 . S
C920 C922 1.358 . S
C920 H961 0.930 . S
C921 C919 1.353 . S
C921 N923 1.314 . S
C921 H962 0.930 . S
C922 C920 1.358 . S
C922 N923 1.279 . S
C922 H963 0.930 . S
N923 C921 1.314 . S
N923 C922 1.279 . S
C924 C926 1.353 . S
C924 N927 1.314 . S
C924 H930 0.930 . S
C925 N927 1.279 . S
C925 C928 1.358 1_554 S
C925 H931 0.930 . S
C926 C924 1.353 . S
C926 C929 1.348 1_554 S
C926 H964 0.929 . S
N927 Li882 1.990 . S
N927 C924 1.314 . S
N927 C925 1.279 . S
C928 C925 1.358 1_556 S
C928 C929 1.356 . S
C928 H965 0.930 . S
C929 C926 1.348 1_556 S
C929 C928 1.356 . S
H930 C924 0.930 . S
H931 C925 0.930 . S
C932 N933 1.314 . S
C932 C934 1.353 . S
C932 H938 0.930 . S
N933 Li883 1.990 . S
N933 C932 1.314 . S
N933 C936 1.279 . S
C934 C932 1.353 . S
C934 C937 1.348 . S
C934 H966 0.929 . S
C935 C936 1.358 . S
C935 C937 1.356 . S
C935 H967 0.930 . S
C936 N933 1.279 . S
C936 C935 1.358 . S
C936 H939 0.930 . S
C937 C934 1.348 . S
C937 C935 1.356 . S
H938 C932 0.930 . S
H939 C936 0.930 . S
O940 Li880 1.956 . S
O940 Li881 1.970 . S
O940 Li882 1.961 . S
O940 C884 1.325 . S
O941 Li880 1.970 . S
O941 Li881 1.956 . S
O941 Li883 1.961 1_554 S
O941 C890 1.325 . S
O942 Li880 1.961 . S
O942 Li882 1.956 . S
O942 Li883 1.970 1_554 S
O942 C912 1.325 . S
O943 Li881 1.961 1_556 S
O943 Li882 1.970 1_556 S
O943 Li883 1.956 . S
O943 C918 1.325 . S
H944 C886 0.929 . S
H945 C887 0.930 . S
H946 C888 0.930 . S
H947 C889 0.930 . S
H948 C891 0.930 . S
H949 C893 0.929 . S
H950 C894 0.930 . S
H951 C895 0.930 . S
H952 C898 0.930 . S
H953 C901 0.929 . S
H954 C906 0.929 . S
H955 C907 0.930 . S
H956 C914 0.929 . S
H957 C915 0.930 . S
H958 C916 0.930 1_556 S
H959 C917 0.930 . S
H960 C919 0.929 . S
H961 C920 0.930 . S
H962 C921 0.930 . S
H963 C922 0.930 . S
H964 C926 0.929 . S
H965 C928 0.930 . S
H966 C934 0.929 . S
H967 C935 0.930 . S
Li968 N985 1.990 . S
Li968 O1028 1.956 . S
Li968 O1029 1.970 . S
Li968 O1030 1.961 . S
Li969 N993 1.990 . S
Li969 O1028 1.970 . S
Li969 O1029 1.956 . S
Li969 O1031 1.961 . S
Li970 N1015 1.990 . S
Li970 O1028 1.961 . S
Li970 O1030 1.956 . S
Li970 O1031 1.970 . S
Li971 N1021 1.990 . S
Li971 O1029 1.961 . S
Li971 O1030 1.970 . S
Li971 O1031 1.956 . S
C972 C974 1.348 . S
C972 C975 1.356 . S
C972 O1028 1.325 . S
N973 C976 1.314 . S
N973 C977 1.279 . S
C974 C972 1.348 . S
C974 C976 1.353 . S
C974 H1032 0.929 . S
C975 C972 1.356 . S
C975 C977 1.358 . S
C975 H1033 0.930 . S
C976 N973 1.314 . S
C976 C974 1.353 . S
C976 H1034 0.930 . S
C977 N973 1.279 . S
C977 C975 1.358 . S
C977 H1035 0.930 . S
C978 C981 1.348 . S
C978 C982 1.356 . S
C978 O1029 1.325 . S
C979 N980 1.279 . S
C979 C982 1.358 . S
C979 H1036 0.930 . S
N980 C979 1.279 . S
N980 C983 1.314 . S
C981 C978 1.348 . S
C981 C983 1.353 . S
C981 H1037 0.929 . S
C982 C978 1.356 . S
C982 C979 1.358 . S
C982 H1038 0.930 . S
C983 N980 1.314 . S
C983 C981 1.353 . S
C983 H1039 0.930 . S
C984 N985 1.314 . S
C984 C989 1.353 . S
C984 H990 0.930 . S
N985 Li968 1.990 . S
N985 C984 1.314 . S
N985 C987 1.279 . S
C986 C987 1.358 . S
C986 C988 1.356 . S
C986 H1040 0.930 . S
C987 N985 1.279 . S
C987 C986 1.358 . S
C987 H991 0.930 . S
C988 C986 1.356 . S
C988 C989 1.348 . S
C989 C984 1.353 . S
C989 C988 1.348 . S
C989 H1041 0.929 . S
H990 C984 0.930 . S
H991 C987 0.930 . S
C992 N993 1.314 . S
C992 C994 1.353 . S
C992 H998 0.930 . S
N993 Li969 1.990 . S
N993 C992 1.314 . S
N993 C996 1.279 . S
C994 C992 1.353 . S
C994 C997 1.348 . S
C994 H1042 0.929 . S
C995 C996 1.358 . S
C995 C997 1.356 . S
C995 H1043 0.930 . S
C996 N993 1.279 . S
C996 C995 1.358 . S
C996 H999 0.930 . S
C997 C994 1.348 . S
C997 C995 1.356 . S
H998 C992 0.930 . S
H999 C996 0.930 . S
C1000 C1002 1.348 . S
C1000 C1003 1.356 . S
C1000 O1030 1.325 . S
N1001 C1004 1.314 . S
N1001 C1005 1.279 . S
C1002 C1000 1.348 . S
C1002 C1004 1.353 . S
C1002 H1044 0.929 . S
C1003 C1000 1.356 . S
C1003 C1005 1.358 . S
C1003 H1045 0.930 . S
C1004 N1001 1.314 . S
C1004 C1002 1.353 . S
C1004 H1046 0.930 . S
C1005 N1001 1.279 . S
C1005 C1003 1.358 . S
C1005 H1047 0.930 . S
C1006 C1007 1.348 . S
C1006 C1008 1.356 . S
C1006 O1031 1.325 . S
C1007 C1006 1.348 . S
C1007 C1009 1.353 . S
C1007 H1048 0.929 . S
C1008 C1006 1.356 . S
C1008 C1010 1.358 . S
C1008 H1049 0.930 . S
C1009 C1007 1.353 . S
C1009 N1011 1.314 . S
C1009 H1050 0.930 . S
C1010 C1008 1.358 . S
C1010 N1011 1.279 . S
C1010 H1051 0.930 . S
N1011 C1009 1.314 . S
N1011 C1010 1.279 . S
C1012 C1014 1.353 . S
C1012 N1015 1.314 . S
C1012 H1018 0.930 . S
C1013 N1015 1.279 . S
C1013 C1016 1.358 . S
C1013 H1019 0.930 . S
C1014 C1012 1.353 . S
C1014 C1017 1.348 . S
C1014 H1052 0.929 . S
N1015 Li970 1.990 . S
N1015 C1012 1.314 . S
N1015 C1013 1.279 . S
C1016 C1013 1.358 . S
C1016 C1017 1.356 . S
C1016 H1053 0.930 . S
C1017 C1014 1.348 . S
C1017 C1016 1.356 . S
H1018 C1012 0.930 . S
H1019 C1013 0.930 . S
C1020 N1021 1.314 . S
C1020 C1022 1.353 . S
C1020 H1026 0.930 . S
N1021 Li971 1.990 . S
N1021 C1020 1.314 . S
N1021 C1024 1.279 . S
C1022 C1020 1.353 . S
C1022 C1025 1.348 . S
C1022 H1054 0.929 . S
C1023 C1024 1.358 . S
C1023 C1025 1.356 . S
C1023 H1055 0.930 . S
C1024 N1021 1.279 . S
C1024 C1023 1.358 . S
C1024 H1027 0.930 . S
C1025 C1022 1.348 . S
C1025 C1023 1.356 . S
H1026 C1020 0.930 . S
H1027 C1024 0.930 . S
O1028 Li968 1.956 . S
O1028 Li969 1.970 . S
O1028 Li970 1.961 . S
O1028 C972 1.325 . S
O1029 Li968 1.970 . S
O1029 Li969 1.956 . S
O1029 Li971 1.961 . S
O1029 C978 1.325 . S
O1030 Li968 1.961 . S
O1030 Li970 1.956 . S
O1030 Li971 1.970 . S
O1030 C1000 1.325 . S
O1031 Li969 1.961 . S
O1031 Li970 1.970 . S
O1031 Li971 1.956 . S
O1031 C1006 1.325 . S
H1032 C974 0.929 . S
H1033 C975 0.930 . S
H1034 C976 0.930 . S
H1035 C977 0.930 . S
H1036 C979 0.930 . S
H1037 C981 0.929 . S
H1038 C982 0.930 . S
H1039 C983 0.930 . S
H1040 C986 0.930 . S
H1041 C989 0.929 . S
H1042 C994 0.929 . S
H1043 C995 0.930 . S
H1044 C1002 0.929 . S
H1045 C1003 0.930 . S
H1046 C1004 0.930 . S
H1047 C1005 0.930 . S
H1048 C1007 0.929 . S
H1049 C1008 0.930 . S
H1050 C1009 0.930 . S
H1051 C1010 0.930 . S
H1052 C1014 0.929 . S
H1053 C1016 0.930 . S
H1054 C1022 0.929 . S
H1055 C1023 0.930 . S
Li1056 N1073 1.990 . S
Li1056 O1116 1.956 . S
Li1056 O1117 1.970 . S
Li1056 O1118 1.961 . S
Li1057 N1081 1.990 . S
Li1057 O1116 1.970 . S
Li1057 O1117 1.956 . S
Li1057 O1119 1.961 . S
Li1058 N1103 1.990 . S
Li1058 O1116 1.961 . S
Li1058 O1118 1.956 . S
Li1058 O1119 1.970 . S
Li1059 N1109 1.990 . S
Li1059 O1117 1.961 . S
Li1059 O1118 1.970 . S
Li1059 O1119 1.956 . S
C1060 C1062 1.348 . S
C1060 C1063 1.356 . S
C1060 O1116 1.325 . S
N1061 C1064 1.314 . S
N1061 C1065 1.279 . S
C1062 C1060 1.348 . S
C1062 C1064 1.353 . S
C1062 H1120 0.929 . S
C1063 C1060 1.356 . S
C1063 C1065 1.358 . S
C1063 H1121 0.930 . S
C1064 N1061 1.314 . S
C1064 C1062 1.353 . S
C1064 H1122 0.930 . S
C1065 N1061 1.279 . S
C1065 C1063 1.358 . S
C1065 H1123 0.930 . S
C1066 C1069 1.348 . S
C1066 C1070 1.356 . S
C1066 O1117 1.325 . S
C1067 N1068 1.279 . S
C1067 C1070 1.358 . S
C1067 H1124 0.930 . S
N1068 C1067 1.279 . S
N1068 C1071 1.314 . S
C1069 C1066 1.348 . S
C1069 C1071 1.353 . S
C1069 H1125 0.929 . S
C1070 C1066 1.356 . S
C1070 C1067 1.358 . S
C1070 H1126 0.930 . S
C1071 N1068 1.314 . S
C1071 C1069 1.353 . S
C1071 H1127 0.930 . S
C1072 N1073 1.314 . S
C1072 C1077 1.353 . S
C1072 H1078 0.930 . S
N1073 Li1056 1.990 . S
N1073 C1072 1.314 . S
N1073 C1075 1.279 . S
C1074 C1075 1.358 . S
C1074 C1076 1.356 . S
C1074 H1128 0.930 . S
C1075 N1073 1.279 . S
C1075 C1074 1.358 . S
C1075 H1079 0.930 . S
C1076 C1074 1.356 . S
C1076 C1077 1.348 . S
C1077 C1072 1.353 . S
C1077 C1076 1.348 . S
C1077 H1129 0.929 . S
H1078 C1072 0.930 . S
H1079 C1075 0.930 . S
C1080 N1081 1.314 . S
C1080 C1082 1.353 . S
C1080 H1086 0.930 . S
N1081 Li1057 1.990 . S
N1081 C1080 1.314 . S
N1081 C1084 1.279 . S
C1082 C1080 1.353 . S
C1082 C1085 1.348 . S
C1082 H1130 0.929 . S
C1083 C1084 1.358 . S
C1083 C1085 1.356 . S
C1083 H1131 0.930 . S
C1084 N1081 1.279 . S
C1084 C1083 1.358 . S
C1084 H1087 0.930 . S
C1085 C1082 1.348 . S
C1085 C1083 1.356 . S
H1086 C1080 0.930 . S
H1087 C1084 0.930 . S
C1088 C1090 1.348 . S
C1088 C1091 1.356 . S
C1088 O1118 1.325 . S
N1089 C1092 1.314 . S
N1089 C1093 1.279 . S
C1090 C1088 1.348 . S
C1090 C1092 1.353 . S
C1090 H1132 0.929 . S
C1091 C1088 1.356 . S
C1091 C1093 1.358 . S
C1091 H1133 0.930 . S
C1092 N1089 1.314 . S
C1092 C1090 1.353 . S
C1092 H1134 0.930 . S
C1093 N1089 1.279 . S
C1093 C1091 1.358 . S
C1093 H1135 0.930 . S
C1094 C1095 1.348 . S
C1094 C1096 1.356 . S
C1094 O1119 1.325 . S
C1095 C1094 1.348 . S
C1095 C1097 1.353 . S
C1095 H1136 0.929 . S
C1096 C1094 1.356 . S
C1096 C1098 1.358 . S
C1096 H1137 0.930 . S
C1097 C1095 1.353 . S
C1097 N1099 1.314 . S
C1097 H1138 0.930 . S
C1098 C1096 1.358 . S
C1098 N1099 1.279 . S
C1098 H1139 0.930 . S
N1099 C1097 1.314 . S
N1099 C1098 1.279 . S
C1100 C1102 1.353 . S
C1100 N1103 1.314 . S
C1100 H1106 0.930 . S
C1101 N1103 1.279 . S
C1101 C1104 1.358 . S
C1101 H1107 0.930 . S
C1102 C1100 1.353 . S
C1102 C1105 1.348 . S
C1102 H1140 0.929 . S
N1103 Li1058 1.990 . S
N1103 C1100 1.314 . S
N1103 C1101 1.279 . S
C1104 C1101 1.358 . S
C1104 C1105 1.356 . S
C1104 H1141 0.930 . S
C1105 C1102 1.348 . S
C1105 C1104 1.356 . S
H1106 C1100 0.930 . S
H1107 C1101 0.930 . S
C1108 N1109 1.314 . S
C1108 C1110 1.353 . S
C1108 H1114 0.930 . S
N1109 Li1059 1.990 . S
N1109 C1108 1.314 . S
N1109 C1112 1.279 . S
C1110 C1108 1.353 . S
C1110 C1113 1.348 . S
C1110 H1142 0.929 . S
C1111 C1112 1.358 . S
C1111 C1113 1.356 . S
C1111 H1143 0.930 1_545 S
C1112 N1109 1.279 . S
C1112 C1111 1.358 . S
C1112 H1115 0.930 . S
C1113 C1110 1.348 . S
C1113 C1111 1.356 . S
H1114 C1108 0.930 . S
H1115 C1112 0.930 . S
O1116 Li1056 1.956 . S
O1116 Li1057 1.970 . S
O1116 Li1058 1.961 . S
O1116 C1060 1.325 . S
O1117 Li1056 1.970 . S
O1117 Li1057 1.956 . S
O1117 Li1059 1.961 . S
O1117 C1066 1.325 . S
O1118 Li1056 1.961 . S
O1118 Li1058 1.956 . S
O1118 Li1059 1.970 . S
O1118 C1088 1.325 . S
O1119 Li1057 1.961 . S
O1119 Li1058 1.970 . S
O1119 Li1059 1.956 . S
O1119 C1094 1.325 . S
H1120 C1062 0.929 . S
H1121 C1063 0.930 . S
H1122 C1064 0.930 . S
H1123 C1065 0.930 . S
H1124 C1067 0.930 . S
H1125 C1069 0.929 . S
H1126 C1070 0.930 . S
H1127 C1071 0.930 . S
H1128 C1074 0.930 . S
H1129 C1077 0.929 . S
H1130 C1082 0.929 . S
H1131 C1083 0.930 . S
H1132 C1090 0.929 . S
H1133 C1091 0.930 . S
H1134 C1092 0.930 . S
H1135 C1093 0.930 . S
H1136 C1095 0.929 . S
H1137 C1096 0.930 . S
H1138 C1097 0.930 . S
H1139 C1098 0.930 . S
H1140 C1102 0.929 . S
H1141 C1104 0.930 . S
H1142 C1110 0.929 . S
H1143 C1111 0.930 1_565 S
Li1144 N1161 1.994 . S
Li1144 O1204 1.998 . S
Li1144 O1205 1.926 1_455 S
Li1144 O1206 1.958 1_455 S
Li1145 N1169 1.993 . S
Li1145 O1204 1.936 1_655 S
Li1145 O1205 1.988 . S
Li1145 O1207 1.958 1_655 S
Li1146 N1191 1.990 . S
Li1146 O1204 1.961 . S
Li1146 O1206 1.929 1_455 S
Li1146 O1207 2.005 . S
Li1147 N1197 1.990 . S
Li1147 O1205 1.961 . S
Li1147 O1206 1.996 . S
Li1147 O1207 1.919 1_655 S
C1148 C1150 1.348 . S
C1148 C1151 1.356 . S
C1148 O1204 1.325 . S
N1149 C1152 1.314 . S
N1149 C1153 1.279 . S
C1150 C1148 1.348 . S
C1150 C1152 1.353 . S
C1150 H1208 0.929 . S
C1151 C1148 1.356 . S
C1151 C1153 1.358 . S
C1151 H1209 0.930 . S
C1152 N1149 1.314 . S
C1152 C1150 1.353 . S
C1152 H1210 0.930 . S
C1153 N1149 1.279 . S
C1153 C1151 1.358 . S
C1153 H1211 0.930 . S
C1154 C1157 1.348 . S
C1154 C1158 1.356 . S
C1154 O1205 1.325 . S
C1155 N1156 1.279 . S
C1155 C1158 1.358 . S
C1155 H1212 0.930 . S
N1156 C1155 1.279 . S
N1156 C1159 1.314 . S
C1157 C1154 1.348 . S
C1157 C1159 1.353 . S
C1157 H1213 0.929 . S
C1158 C1154 1.356 . S
C1158 C1155 1.358 . S
C1158 H1214 0.930 . S
C1159 N1156 1.314 . S
C1159 C1157 1.353 . S
C1159 H1215 0.930 . S
C1160 N1161 1.314 1_655 S
C1160 C1165 1.353 . S
C1160 H1166 0.930 . S
N1161 Li1144 1.994 . S
N1161 C1160 1.314 1_455 S
N1161 C1163 1.279 . S
C1162 C1163 1.358 . S
C1162 C1164 1.356 . S
C1162 H1216 0.930 1_565 S
C1163 N1161 1.279 . S
C1163 C1162 1.358 . S
C1163 H1167 0.930 . S
C1164 C1162 1.356 . S
C1164 C1165 1.348 1_455 S
C1165 C1160 1.353 . S
C1165 C1164 1.348 1_655 S
C1165 H1217 0.929 . S
H1166 C1160 0.930 . S
H1167 C1163 0.930 . S
C1168 N1169 1.314 1_455 S
C1168 C1170 1.353 . S
C1168 H1174 0.930 . S
N1169 Li1145 1.993 . S
N1169 C1168 1.314 1_655 S
N1169 C1172 1.279 . S
C1170 C1168 1.353 . S
C1170 C1173 1.348 . S
C1170 H1218 0.929 . S
C1171 C1172 1.358 . S
C1171 C1173 1.356 1_655 S
C1171 H1219 0.930 . S
C1172 N1169 1.279 . S
C1172 C1171 1.358 . S
C1172 H1175 0.930 . S
C1173 C1170 1.348 . S
C1173 C1171 1.356 1_455 S
H1174 C1168 0.930 . S
H1175 C1172 0.930 . S
C1176 C1178 1.348 1_455 S
C1176 C1179 1.356 . S
C1176 O1206 1.324 1_455 S
N1177 C1180 1.314 1_455 S
N1177 C1181 1.279 . S
C1178 C1176 1.348 1_655 S
C1178 C1180 1.353 . S
C1178 H1220 0.929 . S
C1179 C1176 1.356 . S
C1179 C1181 1.358 . S
C1179 H1221 0.930 . S
C1180 N1177 1.314 1_655 S
C1180 C1178 1.353 . S
C1180 H1222 0.930 . S
C1181 N1177 1.279 . S
C1181 C1179 1.358 . S
C1181 H1223 0.930 . S
C1182 C1183 1.348 . S
C1182 C1184 1.356 1_455 S
C1182 O1207 1.324 . S
C1183 C1182 1.348 . S
C1183 C1185 1.353 . S
C1183 H1224 0.929 . S
C1184 C1182 1.356 1_655 S
C1184 C1186 1.358 . S
C1184 H1225 0.930 . S
C1185 C1183 1.353 . S
C1185 N1187 1.314 1_455 S
C1185 H1226 0.930 . S
C1186 C1184 1.358 . S
C1186 N1187 1.279 . S
C1186 H1227 0.930 . S
N1187 C1185 1.314 1_655 S
N1187 C1186 1.279 . S
C1188 C1190 1.353 . S
C1188 N1191 1.314 . S
C1188 H1194 0.930 . S
C1189 N1191 1.279 . S
C1189 C1192 1.358 . S
C1189 H1195 0.930 . S
C1190 C1188 1.353 . S
C1190 C1193 1.348 . S
C1190 H1228 0.929 . S
N1191 Li1146 1.990 . S
N1191 C1188 1.314 . S
N1191 C1189 1.279 . S
C1192 C1189 1.358 . S
C1192 C1193 1.356 . S
C1192 H1229 0.930 . S
C1193 C1190 1.348 . S
C1193 C1192 1.356 . S
H1194 C1188 0.930 . S
H1195 C1189 0.930 . S
C1196 N1197 1.314 . S
C1196 C1198 1.353 . S
C1196 H1202 0.930 . S
N1197 Li1147 1.990 . S
N1197 C1196 1.314 . S
N1197 C1200 1.279 . S
C1198 C1196 1.353 . S
C1198 C1201 1.348 . S
C1198 H1230 0.929 . S
C1199 C1200 1.358 . S
C1199 C1201 1.356 . S
C1199 H1231 0.930 . S
C1200 N1197 1.279 . S
C1200 C1199 1.358 . S
C1200 H1203 0.930 . S
C1201 C1198 1.348 . S
C1201 C1199 1.356 . S
H1202 C1196 0.930 . S
H1203 C1200 0.930 . S
O1204 Li1144 1.998 . S
O1204 Li1145 1.936 1_455 S
O1204 Li1146 1.961 . S
O1204 C1148 1.325 . S
O1205 Li1144 1.926 1_655 S
O1205 Li1145 1.988 . S
O1205 Li1147 1.961 . S
O1205 C1154 1.325 . S
O1206 Li1144 1.958 1_655 S
O1206 Li1146 1.929 1_655 S
O1206 Li1147 1.996 . S
O1206 C1176 1.324 1_655 S
O1207 Li1145 1.958 1_455 S
O1207 Li1146 2.005 . S
O1207 Li1147 1.919 1_455 S
O1207 C1182 1.324 . S
H1208 C1150 0.929 . S
H1209 C1151 0.930 . S
H1210 C1152 0.930 . S
H1211 C1153 0.930 . S
H1212 C1155 0.930 . S
H1213 C1157 0.929 . S
H1214 C1158 0.930 . S
H1215 C1159 0.930 . S
H1216 C1162 0.930 1_545 S
H1217 C1165 0.929 . S
H1218 C1170 0.929 . S
H1219 C1171 0.930 . S
H1220 C1178 0.929 . S
H1221 C1179 0.930 . S
H1222 C1180 0.930 . S
H1223 C1181 0.930 . S
H1224 C1183 0.929 . S
H1225 C1184 0.930 . S
H1226 C1185 0.930 . S
H1227 C1186 0.930 . S
H1228 C1190 0.929 . S
H1229 C1192 0.930 . S
H1230 C1198 0.929 . S
H1231 C1199 0.930 . S
Li1232 N1249 1.990 . S
Li1232 O1292 1.956 . S
Li1232 O1293 1.970 . S
Li1232 O1294 1.961 . S
Li1233 N1257 1.990 . S
Li1233 O1292 1.970 . S
Li1233 O1293 1.956 . S
Li1233 O1295 1.961 . S
Li1234 N1279 1.990 . S
Li1234 O1292 1.961 . S
Li1234 O1294 1.956 . S
Li1234 O1295 1.970 . S
Li1235 N1285 1.990 . S
Li1235 O1293 1.961 . S
Li1235 O1294 1.970 . S
Li1235 O1295 1.956 . S
C1236 C1238 1.348 . S
C1236 C1239 1.356 . S
C1236 O1292 1.325 . S
N1237 C1240 1.314 . S
N1237 C1241 1.279 . S
C1238 C1236 1.348 . S
C1238 C1240 1.353 . S
C1238 H1296 0.929 . S
C1239 C1236 1.356 . S
C1239 C1241 1.358 . S
C1239 H1297 0.930 . S
C1240 N1237 1.314 . S
C1240 C1238 1.353 . S
C1240 H1298 0.930 . S
C1241 N1237 1.279 . S
C1241 C1239 1.358 . S
C1241 H1299 0.930 . S
C1242 C1245 1.348 . S
C1242 C1246 1.356 . S
C1242 O1293 1.325 . S
C1243 N1244 1.279 . S
C1243 C1246 1.358 . S
C1243 H1300 0.930 . S
N1244 C1243 1.279 . S
N1244 C1247 1.314 . S
C1245 C1242 1.348 . S
C1245 C1247 1.353 . S
C1245 H1301 0.929 . S
C1246 C1242 1.356 . S
C1246 C1243 1.358 . S
C1246 H1302 0.930 . S
C1247 N1244 1.314 . S
C1247 C1245 1.353 . S
C1247 H1303 0.930 . S
C1248 N1249 1.314 . S
C1248 C1253 1.353 . S
C1248 H1254 0.930 . S
N1249 Li1232 1.990 . S
N1249 C1248 1.314 . S
N1249 C1251 1.279 . S
C1250 C1251 1.358 . S
C1250 C1252 1.356 . S
C1250 H1304 0.930 . S
C1251 N1249 1.279 . S
C1251 C1250 1.358 . S
C1251 H1255 0.930 . S
C1252 C1250 1.356 . S
C1252 C1253 1.348 . S
C1253 C1248 1.353 . S
C1253 C1252 1.348 . S
C1253 H1305 0.929 . S
H1254 C1248 0.930 . S
H1255 C1251 0.930 . S
C1256 N1257 1.314 . S
C1256 C1258 1.353 . S
C1256 H1262 0.930 . S
N1257 Li1233 1.990 . S
N1257 C1256 1.314 . S
N1257 C1260 1.279 . S
C1258 C1256 1.353 . S
C1258 C1261 1.348 . S
C1258 H1306 0.929 . S
C1259 C1260 1.358 . S
C1259 C1261 1.356 . S
C1259 H1307 0.930 1_565 S
C1260 N1257 1.279 . S
C1260 C1259 1.358 . S
C1260 H1263 0.930 . S
C1261 C1258 1.348 . S
C1261 C1259 1.356 . S
H1262 C1256 0.930 . S
H1263 C1260 0.930 . S
C1264 C1266 1.348 . S
C1264 C1267 1.356 . S
C1264 O1294 1.325 . S
N1265 C1268 1.314 . S
N1265 C1269 1.279 . S
C1266 C1264 1.348 . S
C1266 C1268 1.353 . S
C1266 H1308 0.929 . S
C1267 C1264 1.356 . S
C1267 C1269 1.358 . S
C1267 H1309 0.930 . S
C1268 N1265 1.314 . S
C1268 C1266 1.353 . S
C1268 H1310 0.930 . S
C1269 N1265 1.279 . S
C1269 C1267 1.358 . S
C1269 H1311 0.930 . S
C1270 C1271 1.348 . S
C1270 C1272 1.356 . S
C1270 O1295 1.325 . S
C1271 C1270 1.348 . S
C1271 C1273 1.353 . S
C1271 H1312 0.929 . S
C1272 C1270 1.356 . S
C1272 C1274 1.358 . S
C1272 H1313 0.930 . S
C1273 C1271 1.353 . S
C1273 N1275 1.314 . S
C1273 H1314 0.930 . S
C1274 C1272 1.358 . S
C1274 N1275 1.279 . S
C1274 H1315 0.930 . S
N1275 C1273 1.314 . S
N1275 C1274 1.279 . S
C1276 C1278 1.353 . S
C1276 N1279 1.314 . S
C1276 H1282 0.930 . S
C1277 N1279 1.279 . S
C1277 C1280 1.358 . S
C1277 H1283 0.930 . S
C1278 C1276 1.353 . S
C1278 C1281 1.348 . S
C1278 H1316 0.929 . S
N1279 Li1234 1.990 . S
N1279 C1276 1.314 . S
N1279 C1277 1.279 . S
C1280 C1277 1.358 . S
C1280 C1281 1.356 . S
C1280 H1317 0.930 . S
C1281 C1278 1.348 . S
C1281 C1280 1.356 . S
H1282 C1276 0.930 . S
H1283 C1277 0.930 . S
C1284 N1285 1.314 . S
C1284 C1286 1.353 . S
C1284 H1290 0.930 . S
N1285 Li1235 1.990 . S
N1285 C1284 1.314 . S
N1285 C1288 1.279 . S
C1286 C1284 1.353 . S
C1286 C1289 1.348 . S
C1286 H1318 0.929 . S
C1287 C1288 1.358 . S
C1287 C1289 1.356 . S
C1287 H1319 0.930 . S
C1288 N1285 1.279 . S
C1288 C1287 1.358 . S
C1288 H1291 0.930 . S
C1289 C1286 1.348 . S
C1289 C1287 1.356 . S
H1290 C1284 0.930 . S
H1291 C1288 0.930 . S
O1292 Li1232 1.956 . S
O1292 Li1233 1.970 . S
O1292 Li1234 1.961 . S
O1292 C1236 1.325 . S
O1293 Li1232 1.970 . S
O1293 Li1233 1.956 . S
O1293 Li1235 1.961 . S
O1293 C1242 1.325 . S
O1294 Li1232 1.961 . S
O1294 Li1234 1.956 . S
O1294 Li1235 1.970 . S
O1294 C1264 1.325 . S
O1295 Li1233 1.961 . S
O1295 Li1234 1.970 . S
O1295 Li1235 1.956 . S
O1295 C1270 1.325 . S
H1296 C1238 0.929 . S
H1297 C1239 0.930 . S
H1298 C1240 0.930 . S
H1299 C1241 0.930 . S
H1300 C1243 0.930 . S
H1301 C1245 0.929 . S
H1302 C1246 0.930 . S
H1303 C1247 0.930 . S
H1304 C1250 0.930 . S
H1305 C1253 0.929 . S
H1306 C1258 0.929 . S
H1307 C1259 0.930 1_545 S
H1308 C1266 0.929 . S
H1309 C1267 0.930 . S
H1310 C1268 0.930 . S
H1311 C1269 0.930 . S
H1312 C1271 0.929 . S
H1313 C1272 0.930 . S
H1314 C1273 0.930 . S
H1315 C1274 0.930 . S
H1316 C1278 0.929 . S
H1317 C1280 0.930 . S
H1318 C1286 0.929 . S
H1319 C1287 0.930 . S
Li1320 N1337 1.990 . S
Li1320 O1380 1.929 1_455 S
Li1320 O1381 2.005 . S
Li1320 O1382 1.961 . S
Li1321 N1345 1.990 . S
Li1321 O1380 1.996 . S
Li1321 O1381 1.919 1_655 S
Li1321 O1383 1.961 . S
Li1322 N1367 1.994 . S
Li1322 O1380 1.958 1_455 S
Li1322 O1382 1.998 . S
Li1322 O1383 1.926 1_455 S
Li1323 N1373 1.993 . S
Li1323 O1381 1.958 1_655 S
Li1323 O1382 1.936 1_655 S
Li1323 O1383 1.988 . S
C1324 C1326 1.348 1_455 S
C1324 C1327 1.356 1_556 S
C1324 O1380 1.324 1_455 S
N1325 C1328 1.314 1_455 S
N1325 C1329 1.279 . S
C1326 C1324 1.348 1_655 S
C1326 C1328 1.353 1_556 S
C1326 H1384 0.929 . S
C1327 C1324 1.356 1_554 S
C1327 C1329 1.358 . S
C1327 H1385 0.930 . S
C1328 N1325 1.314 1_655 S
C1328 C1326 1.353 1_554 S
C1328 H1386 0.930 . S
C1329 N1325 1.279 . S
C1329 C1327 1.358 . S
C1329 H1387 0.930 . S
C1330 C1333 1.348 . S
C1330 C1334 1.356 1_455 S
C1330 O1381 1.324 . S
C1331 N1332 1.279 . S
C1331 C1334 1.358 . S
C1331 H1388 0.930 . S
N1332 C1331 1.279 . S
N1332 C1335 1.314 1_655 S
C1333 C1330 1.348 . S
C1333 C1335 1.353 . S
C1333 H1389 0.929 . S
C1334 C1330 1.356 1_655 S
C1334 C1331 1.358 . S
C1334 H1390 0.930 . S
C1335 N1332 1.314 1_455 S
C1335 C1333 1.353 . S
C1335 H1391 0.930 . S
C1336 N1337 1.314 . S
C1336 C1341 1.353 . S
C1336 H1342 0.930 . S
N1337 Li1320 1.990 . S
N1337 C1336 1.314 . S
N1337 C1339 1.279 . S
C1338 C1339 1.358 . S
C1338 C1340 1.356 . S
C1338 H1392 0.930 . S
C1339 N1337 1.279 . S
C1339 C1338 1.358 . S
C1339 H1343 0.930 . S
C1340 C1338 1.356 . S
C1340 C1341 1.348 . S
C1341 C1336 1.353 . S
C1341 C1340 1.348 . S
C1341 H1393 0.929 . S
H1342 C1336 0.930 . S
H1343 C1339 0.930 . S
C1344 N1345 1.314 . S
C1344 C1346 1.353 . S
C1344 H1350 0.930 . S
N1345 Li1321 1.990 . S
N1345 C1344 1.314 . S
N1345 C1348 1.279 . S
C1346 C1344 1.353 . S
C1346 C1349 1.348 . S
C1346 H1394 0.929 . S
C1347 C1348 1.358 . S
C1347 C1349 1.356 . S
C1347 H1395 0.930 . S
C1348 N1345 1.279 . S
C1348 C1347 1.358 . S
C1348 H1351 0.930 . S
C1349 C1346 1.348 . S
C1349 C1347 1.356 . S
H1350 C1344 0.930 . S
H1351 C1348 0.930 . S
C1352 C1354 1.348 . S
C1352 C1355 1.356 . S
C1352 O1382 1.325 . S
N1353 C1356 1.314 . S
N1353 C1357 1.279 . S
C1354 C1352 1.348 . S
C1354 C1356 1.353 . S
C1354 H1396 0.929 . S
C1355 C1352 1.356 . S
C1355 C1357 1.358 . S
C1355 H1397 0.930 . S
C1356 N1353 1.314 . S
C1356 C1354 1.353 . S
C1356 H1398 0.930 . S
C1357 N1353 1.279 . S
C1357 C1355 1.358 . S
C1357 H1399 0.930 . S
C1358 C1359 1.348 . S
C1358 C1360 1.356 . S
C1358 O1383 1.325 . S
C1359 C1358 1.348 . S
C1359 C1361 1.353 . S
C1359 H1400 0.929 . S
C1360 C1358 1.356 . S
C1360 C1362 1.358 . S
C1360 H1401 0.930 . S
C1361 C1359 1.353 . S
C1361 N1363 1.314 . S
C1361 H1402 0.930 . S
C1362 C1360 1.358 . S
C1362 N1363 1.279 . S
C1362 H1403 0.930 . S
N1363 C1361 1.314 . S
N1363 C1362 1.279 . S
C1364 C1366 1.353 . S
C1364 N1367 1.314 1_654 S
C1364 H1370 0.930 . S
C1365 N1367 1.279 . S
C1365 C1368 1.358 1_556 S
C1365 H1371 0.930 . S
C1366 C1364 1.353 . S
C1366 C1369 1.348 1_655 S
C1366 H1404 0.929 . S
N1367 Li1322 1.994 . S
N1367 C1364 1.314 1_456 S
N1367 C1365 1.279 . S
C1368 C1365 1.358 1_554 S
C1368 C1369 1.356 . S
C1368 H1405 0.930 1_544 S
C1369 C1366 1.348 1_455 S
C1369 C1368 1.356 . S
H1370 C1364 0.930 . S
H1371 C1365 0.930 . S
C1372 N1373 1.314 1_455 S
C1372 C1374 1.353 . S
C1372 H1378 0.930 . S
N1373 Li1323 1.993 . S
N1373 C1372 1.314 1_655 S
N1373 C1376 1.279 . S
C1374 C1372 1.353 . S
C1374 C1377 1.348 . S
C1374 H1406 0.929 . S
C1375 C1376 1.358 . S
C1375 C1377 1.356 1_655 S
C1375 H1407 0.930 . S
C1376 N1373 1.279 . S
C1376 C1375 1.358 . S
C1376 H1379 0.930 . S
C1377 C1374 1.348 . S
C1377 C1375 1.356 1_455 S
H1378 C1372 0.930 . S
H1379 C1376 0.930 . S
O1380 Li1320 1.929 1_655 S
O1380 Li1321 1.996 . S
O1380 Li1322 1.958 1_655 S
O1380 C1324 1.324 1_655 S
O1381 Li1320 2.005 . S
O1381 Li1321 1.919 1_455 S
O1381 Li1323 1.958 1_455 S
O1381 C1330 1.324 . S
O1382 Li1320 1.961 . S
O1382 Li1322 1.998 . S
O1382 Li1323 1.936 1_455 S
O1382 C1352 1.325 . S
O1383 Li1321 1.961 . S
O1383 Li1322 1.926 1_655 S
O1383 Li1323 1.988 . S
O1383 C1358 1.325 . S
H1384 C1326 0.929 . S
H1385 C1327 0.930 . S
H1386 C1328 0.930 . S
H1387 C1329 0.930 . S
H1388 C1331 0.930 . S
H1389 C1333 0.929 . S
H1390 C1334 0.930 . S
H1391 C1335 0.930 . S
H1392 C1338 0.930 . S
H1393 C1341 0.929 . S
H1394 C1346 0.929 . S
H1395 C1347 0.930 . S
H1396 C1354 0.929 . S
H1397 C1355 0.930 . S
H1398 C1356 0.930 . S
H1399 C1357 0.930 . S
H1400 C1359 0.929 . S
H1401 C1360 0.930 . S
H1402 C1361 0.930 . S
H1403 C1362 0.930 . S
H1404 C1366 0.929 . S
H1405 C1368 0.930 1_566 S
H1406 C1374 0.929 . S
H1407 C1375 0.930 . S
C1408 C1409 1.363 . S
C1408 C1414 1.379 . S
C1408 N1416 1.356 . S
C1409 C1408 1.363 . S
C1409 C1415 1.363 . S
C1410 C1411 1.363 . S
C1410 C1415 1.379 . S
C1410 N1417 1.356 . S
C1411 C1410 1.363 . S
C1411 C1414 1.363 . S
N1412 C1414 1.356 . S
N1412 H1424 0.984 . S
N1412 H1425 0.985 . S
N1413 C1415 1.356 . S
N1413 H1418 0.984 . S
N1413 H1419 0.985 . S
C1414 C1408 1.379 . S
C1414 C1411 1.363 . S
C1414 N1412 1.356 . S
C1415 C1409 1.363 . S
C1415 C1410 1.379 . S
C1415 N1413 1.356 . S
N1416 C1408 1.356 . S
N1416 H1422 0.984 . S
N1416 H1423 0.984 . S
N1417 C1410 1.356 . S
N1417 H1420 0.984 . S
N1417 H1421 0.985 . S
H1418 N1413 0.984 . S
H1419 N1413 0.985 . S
H1420 N1417 0.984 . S
H1421 N1417 0.985 . S
H1422 N1416 0.984 . S
H1423 N1416 0.984 . S
H1424 N1412 0.984 . S
H1425 N1412 0.985 . S
C1426 C1427 1.363 . S
C1426 C1432 1.379 . S
C1426 N1434 1.356 . S
C1427 C1426 1.363 . S
C1427 C1433 1.363 . S
C1428 C1429 1.363 . S
C1428 C1433 1.379 . S
C1428 N1435 1.356 . S
C1429 C1428 1.363 . S
C1429 C1432 1.363 . S
N1430 C1432 1.356 . S
N1430 H1442 0.984 . S
N1430 H1443 0.985 . S
N1431 C1433 1.356 . S
N1431 H1436 0.984 . S
N1431 H1437 0.985 . S
C1432 C1426 1.379 . S
C1432 C1429 1.363 . S
C1432 N1430 1.356 . S
C1433 C1427 1.363 . S
C1433 C1428 1.379 . S
C1433 N1431 1.356 . S
N1434 C1426 1.356 . S
N1434 H1440 0.984 . S
N1434 H1441 0.984 . S
N1435 C1428 1.356 . S
N1435 H1438 0.984 . S
N1435 H1439 0.985 . S
H1436 N1431 0.984 . S
H1437 N1431 0.985 . S
H1438 N1435 0.984 . S
H1439 N1435 0.985 . S
H1440 N1434 0.984 . S
H1441 N1434 0.984 . S
H1442 N1430 0.984 . S
H1443 N1430 0.985 . S
C1444 C1445 1.363 . S
C1444 C1450 1.379 . S
C1444 N1452 1.356 . S
C1445 C1444 1.363 . S
C1445 C1451 1.363 . S
C1446 C1447 1.363 . S
C1446 C1451 1.379 . S
C1446 N1453 1.356 . S
C1447 C1446 1.363 . S
C1447 C1450 1.363 . S
N1448 C1450 1.356 . S
N1448 H1460 0.984 . S
N1448 H1461 0.985 . S
N1449 C1451 1.356 . S
N1449 H1454 0.984 . S
N1449 H1455 0.985 . S
C1450 C1444 1.379 . S
C1450 C1447 1.363 . S
C1450 N1448 1.356 . S
C1451 C1445 1.363 . S
C1451 C1446 1.379 . S
C1451 N1449 1.356 . S
N1452 C1444 1.356 . S
N1452 H1458 0.984 . S
N1452 H1459 0.984 . S
N1453 C1446 1.356 . S
N1453 H1456 0.984 . S
N1453 H1457 0.985 . S
H1454 N1449 0.984 . S
H1455 N1449 0.985 . S
H1456 N1453 0.984 . S
H1457 N1453 0.985 . S
H1458 N1452 0.984 . S
H1459 N1452 0.984 . S
H1460 N1448 0.984 . S
H1461 N1448 0.985 . S
C1462 C1463 1.363 . S
C1462 C1468 1.379 . S
C1462 N1470 1.356 1_556 S
C1463 C1462 1.363 . S
C1463 C1469 1.363 . S
C1464 C1465 1.363 . S
C1464 C1469 1.379 . S
C1464 N1471 1.356 . S
C1465 C1464 1.363 . S
C1465 C1468 1.363 . S
N1466 C1468 1.356 . S
N1466 H1478 0.984 . S
N1466 H1479 0.985 . S
N1467 C1469 1.356 . S
N1467 H1472 0.984 . S
N1467 H1473 0.985 . S
C1468 C1462 1.379 . S
C1468 C1465 1.363 . S
C1468 N1466 1.356 . S
C1469 C1463 1.363 . S
C1469 C1464 1.379 . S
C1469 N1467 1.356 . S
N1470 C1462 1.356 1_554 S
N1470 H1476 0.984 . S
N1470 H1477 0.984 . S
N1471 C1464 1.356 . S
N1471 H1474 0.984 . S
N1471 H1475 0.985 . S
H1472 N1467 0.984 . S
H1473 N1467 0.985 . S
H1474 N1471 0.984 . S
H1475 N1471 0.985 . S
H1476 N1470 0.984 . S
H1477 N1470 0.984 . S
H1478 N1466 0.984 . S
H1479 N1466 0.985 . S
C1480 C1481 1.363 . S
C1480 C1486 1.379 . S
C1480 N1488 1.356 . S
C1481 C1480 1.363 . S
C1481 C1487 1.363 . S
C1482 C1483 1.363 . S
C1482 C1487 1.379 . S
C1482 N1489 1.356 . S
C1483 C1482 1.363 . S
C1483 C1486 1.363 . S
N1484 C1486 1.356 1_554 S
N1484 H1496 0.984 . S
N1484 H1497 0.985 . S
N1485 C1487 1.356 . S
N1485 H1490 0.984 . S
N1485 H1491 0.985 . S
C1486 C1480 1.379 . S
C1486 C1483 1.363 . S
C1486 N1484 1.356 1_556 S
C1487 C1481 1.363 . S
C1487 C1482 1.379 . S
C1487 N1485 1.356 . S
N1488 C1480 1.356 . S
N1488 H1494 0.984 . S
N1488 H1495 0.984 . S
N1489 C1482 1.356 . S
N1489 H1492 0.984 . S
N1489 H1493 0.985 . S
H1490 N1485 0.984 . S
H1491 N1485 0.985 . S
H1492 N1489 0.984 . S
H1493 N1489 0.985 . S
H1494 N1488 0.984 . S
H1495 N1488 0.984 . S
H1496 N1484 0.984 . S
H1497 N1484 0.985 . S
C1498 C1499 1.363 . S
C1498 C1504 1.379 . S
C1498 N1506 1.356 . S
C1499 C1498 1.363 . S
C1499 C1505 1.363 . S
C1500 C1501 1.363 . S
C1500 C1505 1.379 . S
C1500 N1507 1.356 . S
C1501 C1500 1.363 . S
C1501 C1504 1.363 . S
N1502 C1504 1.356 . S
N1502 H1514 0.984 . S
N1502 H1515 0.985 . S
N1503 C1505 1.356 . S
N1503 H1508 0.984 . S
N1503 H1509 0.985 . S
C1504 C1498 1.379 . S
C1504 C1501 1.363 . S
C1504 N1502 1.356 . S
C1505 C1499 1.363 . S
C1505 C1500 1.379 . S
C1505 N1503 1.356 . S
N1506 C1498 1.356 . S
N1506 H1512 0.984 . S
N1506 H1513 0.984 . S
N1507 C1500 1.356 . S
N1507 H1510 0.984 . S
N1507 H1511 0.985 . S
H1508 N1503 0.984 . S
H1509 N1503 0.985 . S
H1510 N1507 0.984 . S
H1511 N1507 0.985 . S
H1512 N1506 0.984 . S
H1513 N1506 0.984 . S
H1514 N1502 0.984 . S
H1515 N1502 0.985 . S
C1516 C1517 1.363 . S
C1516 C1522 1.379 . S
C1516 N1524 1.356 . S
C1517 C1516 1.363 . S
C1517 C1523 1.363 . S
C1518 C1519 1.363 . S
C1518 C1523 1.379 . S
C1518 N1525 1.356 . S
C1519 C1518 1.363 . S
C1519 C1522 1.363 . S
N1520 C1522 1.356 . S
N1520 H1532 0.984 . S
N1520 H1533 0.985 . S
N1521 C1523 1.356 . S
N1521 H1526 0.984 . S
N1521 H1527 0.985 . S
C1522 C1516 1.379 . S
C1522 C1519 1.363 . S
C1522 N1520 1.356 . S
C1523 C1517 1.363 . S
C1523 C1518 1.379 . S
C1523 N1521 1.356 . S
N1524 C1516 1.356 . S
N1524 H1530 0.984 . S
N1524 H1531 0.984 . S
N1525 C1518 1.356 . S
N1525 H1528 0.984 . S
N1525 H1529 0.985 . S
H1526 N1521 0.984 . S
H1527 N1521 0.985 . S
H1528 N1525 0.984 . S
H1529 N1525 0.985 . S
H1530 N1524 0.984 . S
H1531 N1524 0.984 . S
H1532 N1520 0.984 . S
H1533 N1520 0.985 . S
C1534 C1535 1.363 . S
C1534 C1540 1.379 . S
C1534 N1542 1.356 . S
C1535 C1534 1.363 . S
C1535 C1541 1.363 . S
C1536 C1537 1.363 . S
C1536 C1541 1.379 . S
C1536 N1543 1.356 . S
C1537 C1536 1.363 . S
C1537 C1540 1.363 . S
N1538 C1540 1.356 . S
N1538 H1550 0.984 . S
N1538 H1551 0.985 . S
N1539 C1541 1.356 . S
N1539 H1544 0.984 . S
N1539 H1545 0.985 . S
C1540 C1534 1.379 . S
C1540 C1537 1.363 . S
C1540 N1538 1.356 . S
C1541 C1535 1.363 . S
C1541 C1536 1.379 . S
C1541 N1539 1.356 . S
N1542 C1534 1.356 . S
N1542 H1548 0.984 . S
N1542 H1549 0.984 . S
N1543 C1536 1.356 . S
N1543 H1546 0.984 . S
N1543 H1547 0.985 . S
H1544 N1539 0.984 . S
H1545 N1539 0.985 . S
H1546 N1543 0.984 . S
H1547 N1543 0.985 . S
H1548 N1542 0.984 . S
H1549 N1542 0.984 . S
H1550 N1538 0.984 . S
H1551 N1538 0.985 . S
C1552 C1553 1.363 . S
C1552 C1558 1.379 . S
C1552 N1560 1.356 . S
C1553 C1552 1.363 . S
C1553 C1559 1.363 . S
C1554 C1555 1.363 . S
C1554 C1559 1.379 . S
C1554 N1561 1.356 . S
C1555 C1554 1.363 . S
C1555 C1558 1.363 . S
N1556 C1558 1.356 1_554 S
N1556 H1568 0.984 . S
N1556 H1569 0.985 . S
N1557 C1559 1.356 . S
N1557 H1562 0.984 . S
N1557 H1563 0.985 . S
C1558 C1552 1.379 . S
C1558 C1555 1.363 . S
C1558 N1556 1.356 1_556 S
C1559 C1553 1.363 . S
C1559 C1554 1.379 . S
C1559 N1557 1.356 . S
N1560 C1552 1.356 . S
N1560 H1566 0.984 1_556 S
N1560 H1567 0.984 . S
N1561 C1554 1.356 . S
N1561 H1564 0.984 . S
N1561 H1565 0.985 . S
H1562 N1557 0.984 . S
H1563 N1557 0.985 . S
H1564 N1561 0.984 . S
H1565 N1561 0.985 . S
H1566 N1560 0.984 1_554 S
H1567 N1560 0.984 . S
H1568 N1556 0.984 . S
H1569 N1556 0.985 . S
C1570 C1571 1.363 . S
C1570 C1576 1.379 . S
C1570 N1578 1.356 . S
C1571 C1570 1.363 . S
C1571 C1577 1.363 . S
C1572 C1573 1.363 . S
C1572 C1577 1.379 . S
C1572 N1579 1.356 . S
C1573 C1572 1.363 . S
C1573 C1576 1.363 . S
N1574 C1576 1.356 . S
N1574 H1586 0.984 . S
N1574 H1587 0.985 . S
N1575 C1577 1.356 . S
N1575 H1580 0.984 . S
N1575 H1581 0.985 . S
C1576 C1570 1.379 . S
C1576 C1573 1.363 . S
C1576 N1574 1.356 . S
C1577 C1571 1.363 . S
C1577 C1572 1.379 . S
C1577 N1575 1.356 . S
N1578 C1570 1.356 . S
N1578 H1584 0.984 . S
N1578 H1585 0.984 . S
N1579 C1572 1.356 . S
N1579 H1582 0.984 . S
N1579 H1583 0.985 . S
H1580 N1575 0.984 . S
H1581 N1575 0.985 . S
H1582 N1579 0.984 . S
H1583 N1579 0.985 . S
H1584 N1578 0.984 . S
H1585 N1578 0.984 . S
H1586 N1574 0.984 . S
H1587 N1574 0.985 . S
C1588 C1589 1.363 . S
C1588 C1594 1.379 . S
C1588 N1596 1.356 . S
C1589 C1588 1.363 . S
C1589 C1595 1.363 . S
C1590 C1591 1.363 . S
C1590 C1595 1.379 . S
C1590 N1597 1.356 . S
C1591 C1590 1.363 . S
C1591 C1594 1.363 . S
N1592 C1594 1.356 . S
N1592 H1604 0.984 . S
N1592 H1605 0.985 . S
N1593 C1595 1.356 . S
N1593 H1598 0.984 . S
N1593 H1599 0.985 . S
C1594 C1588 1.379 . S
C1594 C1591 1.363 . S
C1594 N1592 1.356 . S
C1595 C1589 1.363 . S
C1595 C1590 1.379 . S
C1595 N1593 1.356 . S
N1596 C1588 1.356 . S
N1596 H1602 0.984 . S
N1596 H1603 0.984 . S
N1597 C1590 1.356 . S
N1597 H1600 0.984 . S
N1597 H1601 0.985 . S
H1598 N1593 0.984 . S
H1599 N1593 0.985 . S
H1600 N1597 0.984 . S
H1601 N1597 0.985 . S
H1602 N1596 0.984 . S
H1603 N1596 0.984 . S
H1604 N1592 0.984 . S
H1605 N1592 0.985 . S
C1606 C1607 1.363 . S
C1606 C1612 1.379 . S
C1606 N1614 1.356 . S
C1607 C1606 1.363 . S
C1607 C1613 1.363 . S
C1608 C1609 1.363 . S
C1608 C1613 1.379 . S
C1608 N1615 1.356 . S
C1609 C1608 1.363 . S
C1609 C1612 1.363 . S
N1610 C1612 1.356 . S
N1610 H1622 0.984 . S
N1610 H1623 0.985 . S
N1611 C1613 1.356 . S
N1611 H1616 0.984 . S
N1611 H1617 0.985 . S
C1612 C1606 1.379 . S
C1612 C1609 1.363 . S
C1612 N1610 1.356 . S
C1613 C1607 1.363 . S
C1613 C1608 1.379 . S
C1613 N1611 1.356 . S
N1614 C1606 1.356 . S
N1614 H1620 0.984 . S
N1614 H1621 0.984 . S
N1615 C1608 1.356 . S
N1615 H1618 0.984 . S
N1615 H1619 0.985 . S
H1616 N1611 0.984 . S
H1617 N1611 0.985 . S
H1618 N1615 0.984 . S
H1619 N1615 0.985 . S
H1620 N1614 0.984 . S
H1621 N1614 0.984 . S
H1622 N1610 0.984 . S
H1623 N1610 0.985 . S
C1624 C1625 1.363 . S
C1624 C1630 1.379 . S
C1624 N1632 1.356 . S
C1625 C1624 1.363 . S
C1625 C1631 1.363 . S
C1626 C1627 1.363 . S
C1626 C1631 1.379 . S
C1626 N1633 1.356 . S
C1627 C1626 1.363 . S
C1627 C1630 1.363 . S
N1628 C1630 1.356 . S
N1628 H1640 0.984 . S
N1628 H1641 0.985 . S
N1629 C1631 1.356 . S
N1629 H1634 0.984 . S
N1629 H1635 0.985 . S
C1630 C1624 1.379 . S
C1630 C1627 1.363 . S
C1630 N1628 1.356 . S
C1631 C1625 1.363 . S
C1631 C1626 1.379 . S
C1631 N1629 1.356 . S
N1632 C1624 1.356 . S
N1632 H1638 0.984 . S
N1632 H1639 0.984 . S
N1633 C1626 1.356 . S
N1633 H1636 0.984 . S
N1633 H1637 0.985 . S
H1634 N1629 0.984 . S
H1635 N1629 0.985 . S
H1636 N1633 0.984 . S
H1637 N1633 0.985 . S
H1638 N1632 0.984 . S
H1639 N1632 0.984 . S
H1640 N1628 0.984 . S
H1641 N1628 0.985 . S
C1642 C1643 1.363 . S
C1642 C1648 1.379 . S
C1642 N1650 1.356 . S
C1643 C1642 1.363 . S
C1643 C1649 1.363 . S
C1644 C1645 1.363 . S
C1644 C1649 1.379 . S
C1644 N1651 1.356 1_556 S
C1645 C1644 1.363 . S
C1645 C1648 1.363 . S
N1646 C1648 1.356 . S
N1646 H1658 0.984 . S
N1646 H1659 0.985 . S
N1647 C1649 1.356 . S
N1647 H1652 0.984 . S
N1647 H1653 0.985 . S
C1648 C1642 1.379 . S
C1648 C1645 1.363 . S
C1648 N1646 1.356 . S
C1649 C1643 1.363 . S
C1649 C1644 1.379 . S
C1649 N1647 1.356 . S
N1650 C1642 1.356 . S
N1650 H1656 0.984 . S
N1650 H1657 0.984 . S
N1651 C1644 1.356 1_554 S
N1651 H1654 0.984 . S
N1651 H1655 0.985 . S
H1652 N1647 0.984 . S
H1653 N1647 0.985 . S
H1654 N1651 0.984 . S
H1655 N1651 0.985 . S
H1656 N1650 0.984 . S
H1657 N1650 0.984 . S
H1658 N1646 0.984 . S
H1659 N1646 0.985 . S
C1660 C1661 1.363 . S
C1660 C1666 1.379 . S
C1660 N1668 1.356 . S
C1661 C1660 1.363 . S
C1661 C1667 1.363 . S
C1662 C1663 1.363 . S
C1662 C1667 1.379 . S
C1662 N1669 1.356 . S
C1663 C1662 1.363 . S
C1663 C1666 1.363 . S
N1664 C1666 1.356 . S
N1664 H1676 0.984 . S
N1664 H1677 0.985 . S
N1665 C1667 1.356 . S
N1665 H1670 0.984 . S
N1665 H1671 0.985 . S
C1666 C1660 1.379 . S
C1666 C1663 1.363 . S
C1666 N1664 1.356 . S
C1667 C1661 1.363 . S
C1667 C1662 1.379 . S
C1667 N1665 1.356 . S
N1668 C1660 1.356 . S
N1668 H1674 0.984 . S
N1668 H1675 0.984 . S
N1669 C1662 1.356 . S
N1669 H1672 0.984 . S
N1669 H1673 0.985 . S
H1670 N1665 0.984 . S
H1671 N1665 0.985 . S
H1672 N1669 0.984 . S
H1673 N1669 0.985 . S
H1674 N1668 0.984 . S
H1675 N1668 0.984 . S
H1676 N1664 0.984 . S
H1677 N1664 0.985 . S
C1678 C1679 1.363 . S
C1678 C1684 1.379 . S
C1678 N1686 1.356 . S
C1679 C1678 1.363 . S
C1679 C1685 1.363 . S
C1680 C1681 1.363 . S
C1680 C1685 1.379 . S
C1680 N1687 1.356 . S
C1681 C1680 1.363 . S
C1681 C1684 1.363 . S
N1682 C1684 1.356 . S
N1682 H1694 0.984 . S
N1682 H1695 0.985 . S
N1683 C1685 1.356 . S
N1683 H1688 0.984 . S
N1683 H1689 0.985 . S
C1684 C1678 1.379 . S
C1684 C1681 1.363 . S
C1684 N1682 1.356 . S
C1685 C1679 1.363 . S
C1685 C1680 1.379 . S
C1685 N1683 1.356 . S
N1686 C1678 1.356 . S
N1686 H1692 0.984 . S
N1686 H1693 0.984 . S
N1687 C1680 1.356 . S
N1687 H1690 0.984 . S
N1687 H1691 0.985 . S
H1688 N1683 0.984 . S
H1689 N1683 0.985 . S
H1690 N1687 0.984 . S
H1691 N1687 0.985 . S
H1692 N1686 0.984 . S
H1693 N1686 0.984 . S
H1694 N1682 0.984 . S
H1695 N1682 0.985 . S
C1696 C1697 1.377 . S
C1696 C1702 1.379 . S
C1696 N1704 1.356 . S
C1697 C1696 1.377 . S
C1697 C1703 1.349 1_455 S
C1698 C1699 1.349 1_655 S
C1698 C1703 1.379 . S
C1698 N1705 1.356 . S
C1699 C1698 1.349 1_455 S
C1699 C1702 1.377 . S
N1700 C1702 1.356 . S
N1700 H1712 0.984 . S
N1700 H1713 0.985 1_554 S
N1701 C1703 1.356 . S
N1701 H1706 0.984 . S
N1701 H1707 0.985 . S
C1702 C1696 1.379 . S
C1702 C1699 1.377 . S
C1702 N1700 1.356 . S
C1703 C1697 1.349 1_655 S
C1703 C1698 1.379 . S
C1703 N1701 1.356 . S
N1704 C1696 1.356 . S
N1704 H1710 0.984 . S
N1704 H1711 0.984 . S
N1705 C1698 1.356 . S
N1705 H1708 0.984 1_554 S
N1705 H1709 0.985 . S
H1706 N1701 0.984 . S
H1707 N1701 0.985 . S
H1708 N1705 0.984 1_556 S
H1709 N1705 0.985 . S
H1710 N1704 0.984 . S
H1711 N1704 0.984 . S
H1712 N1700 0.984 . S
H1713 N1700 0.985 1_556 S
C1714 C1715 1.363 . S
C1714 C1720 1.379 . S
C1714 N1722 1.356 . S
C1715 C1714 1.363 . S
C1715 C1721 1.363 . S
C1716 C1717 1.363 . S
C1716 C1721 1.379 . S
C1716 N1723 1.356 . S
C1717 C1716 1.363 . S
C1717 C1720 1.363 . S
N1718 C1720 1.356 . S
N1718 H1730 0.984 . S
N1718 H1731 0.985 . S
N1719 C1721 1.356 . S
N1719 H1724 0.984 . S
N1719 H1725 0.985 . S
C1720 C1714 1.379 . S
C1720 C1717 1.363 . S
C1720 N1718 1.356 . S
C1721 C1715 1.363 . S
C1721 C1716 1.379 . S
C1721 N1719 1.356 . S
N1722 C1714 1.356 . S
N1722 H1728 0.984 . S
N1722 H1729 0.984 . S
N1723 C1716 1.356 . S
N1723 H1726 0.984 . S
N1723 H1727 0.985 . S
H1724 N1719 0.984 . S
H1725 N1719 0.985 . S
H1726 N1723 0.984 . S
H1727 N1723 0.985 . S
H1728 N1722 0.984 . S
H1729 N1722 0.984 . S
H1730 N1718 0.984 . S
H1731 N1718 0.985 . S
C1732 C1733 1.363 . S
C1732 C1738 1.379 . S
C1732 N1740 1.356 . S
C1733 C1732 1.363 . S
C1733 C1739 1.363 . S
C1734 C1735 1.363 . S
C1734 C1739 1.379 . S
C1734 N1741 1.356 . S
C1735 C1734 1.363 . S
C1735 C1738 1.363 . S
N1736 C1738 1.356 . S
N1736 H1748 0.984 . S
N1736 H1749 0.985 . S
N1737 C1739 1.356 . S
N1737 H1742 0.984 . S
N1737 H1743 0.985 . S
C1738 C1732 1.379 . S
C1738 C1735 1.363 . S
C1738 N1736 1.356 . S
C1739 C1733 1.363 . S
C1739 C1734 1.379 . S
C1739 N1737 1.356 . S
N1740 C1732 1.356 . S
N1740 H1746 0.984 . S
N1740 H1747 0.984 . S
N1741 C1734 1.356 . S
N1741 H1744 0.984 . S
N1741 H1745 0.985 . S
H1742 N1737 0.984 . S
H1743 N1737 0.985 . S
H1744 N1741 0.984 . S
H1745 N1741 0.985 . S
H1746 N1740 0.984 . S
H1747 N1740 0.984 . S
H1748 N1736 0.984 . S
H1749 N1736 0.985 . S
C1750 C1751 1.363 . S
C1750 C1756 1.379 . S
C1750 N1758 1.356 . S
C1751 C1750 1.363 . S
C1751 C1757 1.363 . S
C1752 C1753 1.363 . S
C1752 C1757 1.379 . S
C1752 N1759 1.356 . S
C1753 C1752 1.363 . S
C1753 C1756 1.363 . S
N1754 C1756 1.356 . S
N1754 H1766 0.984 . S
N1754 H1767 0.985 . S
N1755 C1757 1.356 . S
N1755 H1760 0.984 . S
N1755 H1761 0.985 . S
C1756 C1750 1.379 . S
C1756 C1753 1.363 . S
C1756 N1754 1.356 . S
C1757 C1751 1.363 . S
C1757 C1752 1.379 . S
C1757 N1755 1.356 . S
N1758 C1750 1.356 . S
N1758 H1764 0.984 . S
N1758 H1765 0.984 . S
N1759 C1752 1.356 . S
N1759 H1762 0.984 . S
N1759 H1763 0.985 . S
H1760 N1755 0.984 . S
H1761 N1755 0.985 . S
H1762 N1759 0.984 . S
H1763 N1759 0.985 . S
H1764 N1758 0.984 . S
H1765 N1758 0.984 . S
H1766 N1754 0.984 . S
H1767 N1754 0.985 . S
C1768 C1769 1.363 . S
C1768 C1774 1.379 . S
C1768 N1776 1.356 . S
C1769 C1768 1.363 . S
C1769 C1775 1.363 . S
C1770 C1771 1.363 . S
C1770 C1775 1.379 . S
C1770 N1777 1.356 . S
C1771 C1770 1.363 . S
C1771 C1774 1.363 . S
N1772 C1774 1.356 . S
N1772 H1784 0.984 . S
N1772 H1785 0.985 . S
N1773 C1775 1.356 . S
N1773 H1778 0.984 . S
N1773 H1779 0.985 . S
C1774 C1768 1.379 . S
C1774 C1771 1.363 . S
C1774 N1772 1.356 . S
C1775 C1769 1.363 . S
C1775 C1770 1.379 . S
C1775 N1773 1.356 . S
N1776 C1768 1.356 . S
N1776 H1782 0.984 . S
N1776 H1783 0.984 . S
N1777 C1770 1.356 . S
N1777 H1780 0.984 . S
N1777 H1781 0.985 . S
H1778 N1773 0.984 . S
H1779 N1773 0.985 . S
H1780 N1777 0.984 . S
H1781 N1777 0.985 . S
H1782 N1776 0.984 . S
H1783 N1776 0.984 . S
H1784 N1772 0.984 . S
H1785 N1772 0.985 . S
C1786 C1787 1.363 . S
C1786 C1792 1.379 . S
C1786 N1794 1.356 . S
C1787 C1786 1.363 . S
C1787 C1793 1.363 . S
C1788 C1789 1.363 . S
C1788 C1793 1.379 . S
C1788 N1795 1.356 . S
C1789 C1788 1.363 . S
C1789 C1792 1.363 . S
N1790 C1792 1.356 . S
N1790 H1802 0.984 . S
N1790 H1803 0.985 . S
N1791 C1793 1.356 . S
N1791 H1796 0.984 . S
N1791 H1797 0.985 . S
C1792 C1786 1.379 . S
C1792 C1789 1.363 . S
C1792 N1790 1.356 . S
C1793 C1787 1.363 . S
C1793 C1788 1.379 . S
C1793 N1791 1.356 . S
N1794 C1786 1.356 . S
N1794 H1800 0.984 . S
N1794 H1801 0.984 . S
N1795 C1788 1.356 . S
N1795 H1798 0.984 . S
N1795 H1799 0.985 . S
H1796 N1791 0.984 . S
H1797 N1791 0.985 . S
H1798 N1795 0.984 . S
H1799 N1795 0.985 . S
H1800 N1794 0.984 . S
H1801 N1794 0.984 . S
H1802 N1790 0.984 . S
H1803 N1790 0.985 . S
C1804 C1805 1.347 1_545 S
C1804 C1810 1.379 . S
C1804 N1812 1.356 . S
C1805 C1804 1.347 1_565 S
C1805 C1811 1.379 . S
C1806 C1807 1.347 1_565 S
C1806 C1811 1.379 . S
C1806 N1813 1.356 . S
C1807 C1806 1.347 1_545 S
C1807 C1810 1.379 . S
N1808 C1810 1.356 . S
N1808 H1820 0.984 . S
N1808 H1821 0.985 . S
N1809 C1811 1.356 . S
N1809 H1814 0.984 . S
N1809 H1815 0.985 . S
C1810 C1804 1.379 . S
C1810 C1807 1.379 . S
C1810 N1808 1.356 . S
C1811 C1805 1.379 . S
C1811 C1806 1.379 . S
C1811 N1809 1.356 . S
N1812 C1804 1.356 . S
N1812 H1818 0.984 . S
N1812 H1819 0.984 . S
N1813 C1806 1.356 . S
N1813 H1816 0.984 . S
N1813 H1817 0.985 . S
H1814 N1809 0.984 . S
H1815 N1809 0.985 . S
H1816 N1813 0.984 . S
H1817 N1813 0.985 . S
H1818 N1812 0.984 . S
H1819 N1812 0.984 . S
H1820 N1808 0.984 . S
H1821 N1808 0.985 . S
C1822 C1823 1.370 1_455 S
C1822 C1828 1.379 . S
C1822 N1830 1.356 . S
C1823 C1822 1.370 1_655 S
C1823 C1829 1.356 1_545 S
C1824 C1825 1.386 . S
C1824 C1829 1.379 . S
C1824 N1831 1.356 . S
C1825 C1824 1.386 . S
C1825 C1828 1.339 1_665 S
N1826 C1828 1.356 . S
N1826 H1838 0.984 . S
N1826 H1839 0.985 . S
N1827 C1829 1.356 . S
N1827 H1832 0.984 1_554 S
N1827 H1833 0.985 . S
C1828 C1822 1.379 . S
C1828 C1825 1.339 1_445 S
C1828 N1826 1.356 . S
C1829 C1823 1.356 1_565 S
C1829 C1824 1.379 . S
C1829 N1827 1.356 . S
N1830 C1822 1.356 . S
N1830 H1836 0.984 . S
N1830 H1837 0.984 1_554 S
N1831 C1824 1.356 . S
N1831 H1834 0.984 . S
N1831 H1835 0.985 . S
H1832 N1827 0.984 1_556 S
H1833 N1827 0.985 . S
H1834 N1831 0.984 . S
H1835 N1831 0.985 . S
H1836 N1830 0.984 . S
H1837 N1830 0.984 1_556 S
H1838 N1826 0.984 . S
H1839 N1826 0.985 . S
C1840 C1841 1.354 1_455 S
C1840 C1846 1.379 . S
C1840 N1848 1.356 . S
C1841 C1840 1.354 1_655 S
C1841 C1847 1.372 . S
C1842 C1843 1.372 . S
C1842 C1847 1.379 . S
C1842 N1849 1.356 . S
C1843 C1842 1.372 . S
C1843 C1846 1.354 1_655 S
N1844 C1846 1.356 . S
N1844 H1856 0.984 . S
N1844 H1857 0.985 . S
N1845 C1847 1.356 . S
N1845 H1850 0.984 . S
N1845 H1851 0.985 . S
C1846 C1840 1.379 . S
C1846 C1843 1.354 1_455 S
C1846 N1844 1.356 . S
C1847 C1841 1.372 . S
C1847 C1842 1.379 . S
C1847 N1845 1.356 . S
N1848 C1840 1.356 . S
N1848 H1854 0.984 . S
N1848 H1855 0.984 . S
N1849 C1842 1.356 . S
N1849 H1852 0.984 . S
N1849 H1853 0.985 . S
H1850 N1845 0.984 . S
H1851 N1845 0.985 . S
H1852 N1849 0.984 . S
H1853 N1849 0.985 . S
H1854 N1848 0.984 . S
H1855 N1848 0.984 . S
H1856 N1844 0.984 . S
H1857 N1844 0.985 . S
C1858 C1859 1.363 . S
C1858 C1864 1.379 . S
C1858 N1866 1.356 . S
C1859 C1858 1.363 . S
C1859 C1865 1.363 . S
C1860 C1861 1.363 . S
C1860 C1865 1.379 . S
C1860 N1867 1.356 . S
C1861 C1860 1.363 . S
C1861 C1864 1.363 . S
N1862 C1864 1.356 . S
N1862 H1874 0.984 . S
N1862 H1875 0.985 . S
N1863 C1865 1.356 . S
N1863 H1868 0.984 . S
N1863 H1869 0.985 . S
C1864 C1858 1.379 . S
C1864 C1861 1.363 . S
C1864 N1862 1.356 . S
C1865 C1859 1.363 . S
C1865 C1860 1.379 . S
C1865 N1863 1.356 . S
N1866 C1858 1.356 . S
N1866 H1872 0.984 . S
N1866 H1873 0.984 . S
N1867 C1860 1.356 . S
N1867 H1870 0.984 . S
N1867 H1871 0.985 . S
H1868 N1863 0.984 . S
H1869 N1863 0.985 . S
H1870 N1867 0.984 . S
H1871 N1867 0.985 . S
H1872 N1866 0.984 . S
H1873 N1866 0.984 . S
H1874 N1862 0.984 . S
H1875 N1862 0.985 . S
C1876 C1877 1.363 . S
C1876 C1882 1.379 . S
C1876 N1884 1.356 . S
C1877 C1876 1.363 . S
C1877 C1883 1.363 . S
C1878 C1879 1.363 . S
C1878 C1883 1.379 . S
C1878 N1885 1.356 . S
C1879 C1878 1.363 . S
C1879 C1882 1.363 . S
N1880 C1882 1.356 1_556 S
N1880 H1892 0.984 . S
N1880 H1893 0.985 . S
N1881 C1883 1.356 . S
N1881 H1886 0.984 . S
N1881 H1887 0.985 . S
C1882 C1876 1.379 . S
C1882 C1879 1.363 . S
C1882 N1880 1.356 1_554 S
C1883 C1877 1.363 . S
C1883 C1878 1.379 . S
C1883 N1881 1.356 . S
N1884 C1876 1.356 . S
N1884 H1890 0.984 . S
N1884 H1891 0.984 . S
N1885 C1878 1.356 . S
N1885 H1888 0.984 . S
N1885 H1889 0.985 . S
H1886 N1881 0.984 . S
H1887 N1881 0.985 . S
H1888 N1885 0.984 . S
H1889 N1885 0.985 . S
H1890 N1884 0.984 . S
H1891 N1884 0.984 . S
H1892 N1880 0.984 . S
H1893 N1880 0.985 . S
C1894 C1895 1.363 . S
C1894 C1900 1.379 . S
C1894 N1902 1.356 . S
C1895 C1894 1.363 . S
C1895 C1901 1.363 . S
C1896 C1897 1.363 . S
C1896 C1901 1.379 . S
C1896 N1903 1.356 . S
C1897 C1896 1.363 . S
C1897 C1900 1.363 . S
N1898 C1900 1.356 . S
N1898 H1910 0.984 . S
N1898 H1911 0.985 . S
N1899 C1901 1.356 . S
N1899 H1904 0.984 . S
N1899 H1905 0.985 . S
C1900 C1894 1.379 . S
C1900 C1897 1.363 . S
C1900 N1898 1.356 . S
C1901 C1895 1.363 . S
C1901 C1896 1.379 . S
C1901 N1899 1.356 . S
N1902 C1894 1.356 . S
N1902 H1908 0.984 . S
N1902 H1909 0.984 . S
N1903 C1896 1.356 . S
N1903 H1906 0.984 . S
N1903 H1907 0.985 . S
H1904 N1899 0.984 . S
H1905 N1899 0.985 . S
H1906 N1903 0.984 . S
H1907 N1903 0.985 . S
H1908 N1902 0.984 . S
H1909 N1902 0.984 . S
H1910 N1898 0.984 . S
H1911 N1898 0.985 . S
C1912 C1913 1.363 . S
C1912 C1918 1.379 . S
C1912 N1920 1.356 . S
C1913 C1912 1.363 . S
C1913 C1919 1.363 . S
C1914 C1915 1.363 . S
C1914 C1919 1.379 . S
C1914 N1921 1.356 . S
C1915 C1914 1.363 . S
C1915 C1918 1.363 . S
N1916 C1918 1.356 . S
N1916 H1928 0.984 . S
N1916 H1929 0.985 . S
N1917 C1919 1.356 . S
N1917 H1922 0.984 . S
N1917 H1923 0.985 . S
C1918 C1912 1.379 . S
C1918 C1915 1.363 . S
C1918 N1916 1.356 . S
C1919 C1913 1.363 . S
C1919 C1914 1.379 . S
C1919 N1917 1.356 . S
N1920 C1912 1.356 . S
N1920 H1926 0.984 . S
N1920 H1927 0.984 . S
N1921 C1914 1.356 . S
N1921 H1924 0.984 . S
N1921 H1925 0.985 . S
H1922 N1917 0.984 . S
H1923 N1917 0.985 . S
H1924 N1921 0.984 . S
H1925 N1921 0.985 . S
H1926 N1920 0.984 . S
H1927 N1920 0.984 . S
H1928 N1916 0.984 . S
H1929 N1916 0.985 . S
C1930 C1931 1.363 . S
C1930 C1936 1.379 . S
C1930 N1938 1.356 . S
C1931 C1930 1.363 . S
C1931 C1937 1.363 . S
C1932 C1933 1.363 . S
C1932 C1937 1.379 . S
C1932 N1939 1.356 . S
C1933 C1932 1.363 . S
C1933 C1936 1.363 . S
N1934 C1936 1.356 . S
N1934 H1946 0.984 . S
N1934 H1947 0.985 . S
N1935 C1937 1.356 . S
N1935 H1940 0.984 . S
N1935 H1941 0.985 . S
C1936 C1930 1.379 . S
C1936 C1933 1.363 . S
C1936 N1934 1.356 . S
C1937 C1931 1.363 . S
C1937 C1932 1.379 . S
C1937 N1935 1.356 . S
N1938 C1930 1.356 . S
N1938 H1944 0.984 . S
N1938 H1945 0.984 . S
N1939 C1932 1.356 . S
N1939 H1942 0.984 . S
N1939 H1943 0.985 . S
H1940 N1935 0.984 . S
H1941 N1935 0.985 . S
H1942 N1939 0.984 . S
H1943 N1939 0.985 . S
H1944 N1938 0.984 . S
H1945 N1938 0.984 . S
H1946 N1934 0.984 . S
H1947 N1934 0.985 . S
C1948 C1949 1.363 . S
C1948 C1954 1.373 1_565 S
C1948 N1956 1.356 . S
C1949 C1948 1.363 . S
C1949 C1955 1.369 . S
C1950 C1951 1.363 . S
C1950 C1955 1.373 1_545 S
C1950 N1957 1.356 . S
C1951 C1950 1.363 . S
C1951 C1954 1.369 . S
N1952 C1954 1.358 1_556 S
N1952 H1964 0.984 1_545 S
N1952 H1965 0.985 . S
N1953 C1955 1.358 . S
N1953 H1958 0.984 . S
N1953 H1959 0.985 1_565 S
C1954 C1948 1.373 1_545 S
C1954 C1951 1.369 . S
C1954 N1952 1.358 1_554 S
C1955 C1949 1.369 . S
C1955 C1950 1.373 1_565 S
C1955 N1953 1.358 . S
N1956 C1948 1.356 . S
N1956 H1962 0.984 . S
N1956 H1963 0.984 . S
N1957 C1950 1.356 . S
N1957 H1960 0.984 . S
N1957 H1961 0.985 . S
H1958 N1953 0.984 . S
H1959 N1953 0.985 1_545 S
H1960 N1957 0.984 . S
H1961 N1957 0.985 . S
H1962 N1956 0.984 . S
H1963 N1956 0.984 . S
H1964 N1952 0.984 1_565 S
H1965 N1952 0.985 . S
C1966 C1967 1.362 1_655 S
C1966 C1972 1.379 . S
C1966 N1974 1.356 . S
C1967 C1966 1.362 1_455 S
C1967 C1973 1.364 1_545 S
C1968 C1969 1.364 . S
C1968 C1973 1.379 . S
C1968 N1975 1.356 . S
C1969 C1968 1.364 . S
C1969 C1972 1.362 1_465 S
N1970 C1972 1.356 . S
N1970 H1982 0.988 . S
N1970 H1983 0.984 1_545 S
N1971 C1973 1.356 . S
N1971 H1976 0.984 1_565 S
N1971 H1977 0.985 . S
C1972 C1966 1.379 . S
C1972 C1969 1.362 1_645 S
C1972 N1970 1.356 . S
C1973 C1967 1.364 1_565 S
C1973 C1968 1.379 . S
C1973 N1971 1.356 . S
N1974 C1966 1.356 . S
N1974 H1980 0.988 . S
N1974 H1981 0.984 . S
N1975 C1968 1.356 . S
N1975 H1978 0.984 . S
N1975 H1979 0.985 . S
H1976 N1971 0.984 1_545 S
H1977 N1971 0.985 . S
H1978 N1975 0.984 . S
H1979 N1975 0.985 . S
H1980 N1974 0.988 . S
H1981 N1974 0.984 . S
H1982 N1970 0.988 . S
H1983 N1970 0.984 1_565 S
C1409 C849 1.631 . S
C1411 C29 1.637 . S
C1427 C1281 1.641 . S
C1429 C117 1.631 . S
C1445 C233 1.641 . S
C1447 C753 1.631 . S
C1463 C293 1.631 . S
C1465 C1349 1.645 . S
C1481 C401 1.641 . S
C1483 C909 1.627 . S
C1499 C1201 1.641 . S
C1501 C497 1.634 . S
C1517 C988 1.631 . S
C1519 C548 1.641 . S
C1535 C673 1.631 . S
C1537 C1076 1.641 . S
C1553 C409 1.629 . S
C1555 C313 1.647 . S
C1571 C1085 1.629 . S
C1573 C733 1.644 . S
C1589 C557 1.629 . S
C1591 C137 1.644 . S
C1607 C812 1.644 . S
C1609 C1193 1.625 . S
C1625 C20 1.628 . S
C1627 C460 1.647 . S
C1643 C1340 1.629 . S
C1645 C929 1.640 . S
C1661 C636 1.644 . S
C1663 C225 1.629 . S
C1679 C1025 1.643 . S
C1681 C1289 1.629 . S
C1697 C49 0.717 . S
C1699 C381 0.717 . S
C1715 C469 0.726 . S
C1717 C145 0.726 . S
C1733 C585 0.718 . S
C1735 C196 0.718 . S
C1751 C321 0.726 . S
C1753 C645 0.726 . S
C1769 C937 0.726 . S
C1771 C724 0.726 . S
C1787 C1017 0.726 . S
C1789 C821 0.726 . S
C1805 C1261 0.734 . S
C1807 C1113 0.734 . S
C1823 C1369 0.733 1_655 S
C1825 C1164 0.733 1_655 S
C1841 C372 1.962 1_655 S
C1843 C57 1.962 1_655 S
C1859 C489 1.970 . S
C1861 C108 1.970 . S
C1877 C577 1.962 . S
C1879 C205 1.962 1_554 S
C1895 C284 1.970 . S
C1897 C665 1.970 . S
C1913 C761 1.970 . S
C1915 C900 1.970 . S
C1931 C997 1.970 . S
C1933 C841 1.970 . S
C1949 C1252 1.962 . S
C1951 C1105 1.962 1_554 S
C1967 C1377 1.962 . S
C1969 C1173 1.962 . S
