# Generated by pormake.
# Topology sxt, (3)-cn, num edge types: 1
# Building blocks:
#     Node 0, Type 0, BuildingBlock: OLANEW_clean_sbu_2, # of connection points: 3
#     Node 1, Type 0, BuildingBlock: OLANEW_clean_sbu_2, # of connection points: 3
#     Node 2, Type 0, BuildingBlock: OLANEW_clean_sbu_2, # of connection points: 3
#     Node 3, Type 0, BuildingBlock: OLANEW_clean_sbu_2, # of connection points: 3
#     Node 4, Type 0, BuildingBlock: OLANEW_clean_sbu_2, # of connection points: 3
#     Node 5, Type 0, BuildingBlock: OLANEW_clean_sbu_2, # of connection points: 3
#     Node 6, Type 0, BuildingBlock: OLANEW_clean_sbu_2, # of connection points: 3
#     Node 7, Type 0, BuildingBlock: OLANEW_clean_sbu_2, # of connection points: 3
#     Node 8, Type 0, BuildingBlock: OLANEW_clean_sbu_2, # of connection points: 3
#     Node 9, Type 0, BuildingBlock: OLANEW_clean_sbu_2, # of connection points: 3
#     Node 10, Type 0, BuildingBlock: OLANEW_clean_sbu_2, # of connection points: 3
#     Node 11, Type 0, BuildingBlock: OLANEW_clean_sbu_2, # of connection points: 3
#     Node 12, Type 0, BuildingBlock: OLANEW_clean_sbu_2, # of connection points: 3
#     Node 13, Type 0, BuildingBlock: OLANEW_clean_sbu_2, # of connection points: 3
#     Node 14, Type 0, BuildingBlock: OLANEW_clean_sbu_2, # of connection points: 3
#     Node 15, Type 0, BuildingBlock: OLANEW_clean_sbu_2, # of connection points: 3
#     Node 16, Type 0, BuildingBlock: OLANEW_clean_sbu_2, # of connection points: 3
#     Node 17, Type 0, BuildingBlock: OLANEW_clean_sbu_2, # of connection points: 3
#     Node 18, Type 0, BuildingBlock: OLANEW_clean_sbu_2, # of connection points: 3
#     Node 19, Type 0, BuildingBlock: OLANEW_clean_sbu_2, # of connection points: 3
#     Node 20, Type 0, BuildingBlock: OLANEW_clean_sbu_2, # of connection points: 3
#     Node 21, Type 0, BuildingBlock: OLANEW_clean_sbu_2, # of connection points: 3
#     Node 22, Type 0, BuildingBlock: OLANEW_clean_sbu_2, # of connection points: 3
#     Node 23, Type 0, BuildingBlock: OLANEW_clean_sbu_2, # of connection points: 3
#     Edge 24, Type (0, 0), BuildingBlock: XUDNAN_clean_linker_2, # of connection points: 2
#     Edge 25, Type (0, 0), BuildingBlock: XUDNAN_clean_linker_2, # of connection points: 2
#     Edge 26, Type (0, 0), BuildingBlock: XUDNAN_clean_linker_2, # of connection points: 2
#     Edge 27, Type (0, 0), BuildingBlock: XUDNAN_clean_linker_2, # of connection points: 2
#     Edge 28, Type (0, 0), BuildingBlock: XUDNAN_clean_linker_2, # of connection points: 2
#     Edge 29, Type (0, 0), BuildingBlock: XUDNAN_clean_linker_2, # of connection points: 2
#     Edge 30, Type (0, 0), BuildingBlock: XUDNAN_clean_linker_2, # of connection points: 2
#     Edge 31, Type (0, 0), BuildingBlock: XUDNAN_clean_linker_2, # of connection points: 2
#     Edge 32, Type (0, 0), BuildingBlock: XUDNAN_clean_linker_2, # of connection points: 2
#     Edge 33, Type (0, 0), BuildingBlock: XUDNAN_clean_linker_2, # of connection points: 2
#     Edge 34, Type (0, 0), BuildingBlock: XUDNAN_clean_linker_2, # of connection points: 2
#     Edge 35, Type (0, 0), BuildingBlock: XUDNAN_clean_linker_2, # of connection points: 2
#     Edge 36, Type (0, 0), BuildingBlock: XUDNAN_clean_linker_2, # of connection points: 2
#     Edge 37, Type (0, 0), BuildingBlock: XUDNAN_clean_linker_2, # of connection points: 2
#     Edge 38, Type (0, 0), BuildingBlock: XUDNAN_clean_linker_2, # of connection points: 2
#     Edge 39, Type (0, 0), BuildingBlock: XUDNAN_clean_linker_2, # of connection points: 2
#     Edge 40, Type (0, 0), BuildingBlock: XUDNAN_clean_linker_2, # of connection points: 2
#     Edge 41, Type (0, 0), BuildingBlock: XUDNAN_clean_linker_2, # of connection points: 2
#     Edge 42, Type (0, 0), BuildingBlock: XUDNAN_clean_linker_2, # of connection points: 2
#     Edge 43, Type (0, 0), BuildingBlock: XUDNAN_clean_linker_2, # of connection points: 2
#     Edge 44, Type (0, 0), BuildingBlock: XUDNAN_clean_linker_2, # of connection points: 2
#     Edge 45, Type (0, 0), BuildingBlock: XUDNAN_clean_linker_2, # of connection points: 2
#     Edge 46, Type (0, 0), BuildingBlock: XUDNAN_clean_linker_2, # of connection points: 2
#     Edge 47, Type (0, 0), BuildingBlock: XUDNAN_clean_linker_2, # of connection points: 2
#     Edge 48, Type (0, 0), BuildingBlock: XUDNAN_clean_linker_2, # of connection points: 2
#     Edge 49, Type (0, 0), BuildingBlock: XUDNAN_clean_linker_2, # of connection points: 2
#     Edge 50, Type (0, 0), BuildingBlock: XUDNAN_clean_linker_2, # of connection points: 2
#     Edge 51, Type (0, 0), BuildingBlock: XUDNAN_clean_linker_2, # of connection points: 2
#     Edge 52, Type (0, 0), BuildingBlock: XUDNAN_clean_linker_2, # of connection points: 2
#     Edge 53, Type (0, 0), BuildingBlock: XUDNAN_clean_linker_2, # of connection points: 2
#     Edge 54, Type (0, 0), BuildingBlock: XUDNAN_clean_linker_2, # of connection points: 2
#     Edge 55, Type (0, 0), BuildingBlock: XUDNAN_clean_linker_2, # of connection points: 2
#     Edge 56, Type (0, 0), BuildingBlock: XUDNAN_clean_linker_2, # of connection points: 2
#     Edge 57, Type (0, 0), BuildingBlock: XUDNAN_clean_linker_2, # of connection points: 2
#     Edge 58, Type (0, 0), BuildingBlock: XUDNAN_clean_linker_2, # of connection points: 2
#     Edge 59, Type (0, 0), BuildingBlock: XUDNAN_clean_linker_2, # of connection points: 2
# Relax obj value: 0.075
# Max RMSD: 0.163
# Mean RMSD: 0.060
data_MOF--net-sxt--node1-OLANEW_clean_sbu_2--edge1-XUDNAN_clean_linker_2
_symmetry_space_group_name_H-M    P1
_symmetry_Int_Tables_number       1
_symmetry_cell_setting            triclinic
loop_
_symmetry_equiv_pos_as_xyz
'x, y, z'
_cell_length_a     35.418641
_cell_length_b     69.911455
_cell_length_c     53.262986
_cell_angle_alpha  89.53818
_cell_angle_beta   88.924213
_cell_angle_gamma 87.745735
loop_
_atom_site_label
_atom_site_type_symbol
_atom_site_fract_x
_atom_site_fract_y
_atom_site_fract_z
_atom_type_partial_charge
O0 O 0.18863 0.47114 0.21618 0.0
Cd1 Cd 0.21663 0.4388 0.21129 0.0
O2 O 0.19517 0.47669 0.17562 0.0
Cd3 Cd 0.2302 0.45136 0.16589 0.0
O4 O 0.279 0.44149 0.14317 0.0
C5 C 0.30657 0.43138 0.15164 0.0
O6 O 0.30521 0.42529 0.17503 0.0
C7 C 0.18331 0.48204 0.19724 0.0
C8 C 0.18672 0.41281 0.24565 0.0
O9 O 0.21796 0.42076 0.24985 0.0
O10 O 0.16957 0.4172 0.2253 0.0
O11 O 0.24959 0.06749 0.33188 0.0
Cd12 Cd 0.29383 0.0768 0.36392 0.0
O13 O 0.29449 0.06775 0.3029 0.0
Cd14 Cd 0.31161 0.06775 0.26324 0.0
O15 O 0.31374 0.07265 0.22275 0.0
C16 C 0.29349 0.08654 0.21423 0.0
O17 O 0.27278 0.09702 0.23002 0.0
C18 C 0.26015 0.06535 0.30911 0.0
C19 C 0.36004 0.05387 0.36541 0.0
O20 O 0.33071 0.04963 0.37846 0.0
O21 O 0.35791 0.06885 0.3514 0.0
O22 O 0.05274 0.62301 0.19215 0.0
Cd23 Cd 0.02842 0.65449 0.17827 0.0
O24 O 0.06775 0.61498 0.1533 0.0
Cd25 Cd 0.03443 0.63848 0.13632 0.0
O26 O 0.98243 0.64451 0.11586 0.0
C27 C 0.95183 0.64922 0.12748 0.0
O28 O 0.95282 0.65251 0.15171 0.0
C29 C 0.06822 0.61121 0.1767 0.0
C30 C 0.04442 0.6827 0.21269 0.0
O31 O 0.01211 0.67505 0.21281 0.0
O32 O 0.06913 0.67709 0.19619 0.0
O33 O 0.11709 0.00841 0.15805 0.0
Cd34 Cd 0.07814 0.98755 0.13354 0.0
O35 O 0.073 0.00554 0.1872 0.0
Cd36 Cd 0.05457 0.011 0.22597 0.0
O37 O 0.06483 0.02231 0.26316 0.0
C38 C 0.05396 0.03941 0.26817 0.0
O39 O 0.03393 0.04921 0.25161 0.0
C40 C 0.10378 0.01266 0.17969 0.0
C41 C 0.11811 0.95826 0.10813 0.0
O42 O 0.11052 0.97439 0.09737 0.0
O43 O 0.10734 0.9561 0.13105 0.0
O44 O 0.92706 0.59347 0.82318 0.0
Cd45 Cd 0.96826 0.60257 0.85697 0.0
O46 O 0.91248 0.62384 0.81693 0.0
Cd47 Cd 0.8815 0.64842 0.8005 0.0
O48 O 0.84977 0.67714 0.79403 0.0
C49 C 0.84254 0.68591 0.7733 0.0
O50 O 0.84934 0.67744 0.79471 0.0
C51 C 0.90919 0.60644 0.81085 0.0
C52 C 0.03459 0.57972 0.85738 0.0
O53 O 0.00602 0.57554 0.87121 0.0
O54 O 0.0318 0.59472 0.84345 0.0
O55 O 0.6558 0.04965 0.73311 0.0
Cd56 Cd 0.61666 0.0743 0.71212 0.0
O57 O 0.70786 0.06304 0.71998 0.0
Cd58 Cd 0.67741 0.0763 0.68868 0.0
O59 O 0.64226 0.07563 0.65543 0.0
C60 C 0.62998 0.05938 0.64985 0.0
O61 O 0.63895 0.04456 0.66417 0.0
C62 C 0.69143 0.05105 0.73408 0.0
C63 C 0.62413 0.10832 0.73843 0.0
O64 O 0.59817 0.09673 0.74428 0.0
O65 O 0.64585 0.10414 0.71961 0.0
O66 O 0.80281 0.53506 0.65757 0.0
Cd67 Cd 0.78475 0.50952 0.62972 0.0
O68 O 0.76182 0.52554 0.68595 0.0
Cd69 Cd 0.73068 0.52851 0.72167 0.0
O70 O 0.69728 0.53524 0.75556 0.0
C71 C 0.69273 0.55267 0.76193 0.0
O72 O 0.70862 0.56587 0.74808 0.0
C73 C 0.78743 0.53687 0.6792 0.0
C74 C 0.82564 0.47546 0.63976 0.0
O75 O 0.83818 0.48776 0.62403 0.0
O76 O 0.79369 0.47925 0.65069 0.0
O77 O 0.87042 0.93956 0.79639 0.0
Cd78 Cd 0.90667 0.90927 0.79222 0.0
O79 O 0.81989 0.92732 0.7808 0.0
Cd80 Cd 0.85531 0.90738 0.75848 0.0
O81 O 0.87241 0.91614 0.7204 0.0
C82 C 0.86983 0.93423 0.71754 0.0
O83 O 0.85973 0.94478 0.737 0.0
C84 C 0.83529 0.94096 0.79187 0.0
C85 C 0.89077 0.88585 0.83342 0.0
O86 O 0.91746 0.89768 0.83401 0.0
O87 O 0.87199 0.88485 0.81316 0.0
O88 O 0.0546 0.07939 0.55659 0.0
Cd89 Cd 0.99648 0.09771 0.54698 0.0
O90 O 0.07633 0.0881 0.51975 0.0
Cd91 Cd 0.11391 0.09039 0.48674 0.0
O92 O 0.1263 0.09082 0.44647 0.0
C93 C 0.13374 0.07532 0.43477 0.0
O94 O 0.13814 0.05934 0.4477 0.0
C95 C 0.08061 0.07833 0.53984 0.0
C96 C 0.99065 0.13524 0.56435 0.0
O97 O 0.00625 0.13139 0.54298 0.0
O98 O 0.97899 0.12127 0.57776 0.0
O99 O 0.9828 0.29809 0.40907 0.0
Cd100 Cd 0.98814 0.29562 0.36337 0.0
O101 O 0.98593 0.26678 0.4099 0.0
Cd102 Cd 0.99258 0.23822 0.4268 0.0
O103 O 0.99858 0.20845 0.43915 0.0
C104 C 0.98156 0.20191 0.45842 0.0
O105 O 0.95958 0.21349 0.47203 0.0
C106 C 0.98351 0.28257 0.42167 0.0
C107 C 0.04037 0.3205 0.34288 0.0
O108 O 0.00491 0.32493 0.34298 0.0
O109 O 0.05111 0.30438 0.35249 0.0
O110 O 0.7356 0.97923 0.3558 0.0
Cd111 Cd 0.68016 0.97434 0.33013 0.0
O112 O 0.74647 0.94845 0.35075 0.0
Cd113 Cd 0.77818 0.92138 0.3569 0.0
O114 O 0.80673 0.89395 0.36564 0.0
C115 C 0.80524 0.8875 0.388 0.0
O116 O 0.78681 0.89764 0.40528 0.0
C117 C 0.75672 0.96436 0.35921 0.0
C118 C 0.61106 0.98996 0.34769 0.0
O119 O 0.62308 0.97328 0.35478 0.0
O120 O 0.63228 -0.00049 0.33285 0.0
O121 O 0.16347 0.78562 0.42878 0.0
Cd122 Cd 0.21496 0.79552 0.40088 0.0
O123 O 0.17449 0.75531 0.4194 0.0
Cd124 Cd 0.20577 0.76115 0.38475 0.0
O125 O 0.18428 0.75513 0.34761 0.0
C126 C 0.14902 0.7589 0.34579 0.0
O127 O 0.13096 0.76716 0.36483 0.0
C128 C 0.15709 0.76804 0.43259 0.0
C129 C 0.24592 0.82949 0.41651 0.0
O130 O 0.22082 0.8296 0.39948 0.0
O131 O 0.25637 0.81334 0.42619 0.0
O132 O 0.32636 0.98433 0.5491 0.0
Cd133 Cd 0.38126 0.96407 0.53653 0.0
O134 O 0.33037 0.00071 0.51379 0.0
Cd135 Cd 0.3908 0.9936 0.51077 0.0
O136 O 0.44344 0.0029 0.52666 0.0
C137 C 0.45073 0.02045 0.52365 0.0
O138 O 0.42818 0.0313 0.50976 0.0
C139 C 0.31208 0.99647 0.53371 0.0
C140 C 0.35723 0.93678 0.50289 0.0
O141 O 0.36002 0.93287 0.52635 0.0
O142 O 0.36666 0.95339 0.49529 0.0
O143 O 0.04881 0.31979 0.6018 0.0
Cd144 Cd 0.05884 0.3353 0.64188 0.0
O145 O 0.00508 0.30278 0.61968 0.0
Cd146 Cd 0.95636 0.28432 0.62282 0.0
O147 O 0.90375 0.27281 0.63788 0.0
C148 C 0.8933 0.2556 0.63759 0.0
O149 O 0.86187 0.25139 0.64952 0.0
C150 C 0.02351 0.30751 0.59998 0.0
C151 C 0.00288 0.36402 0.64926 0.0
O152 O 0.03376 0.36745 0.63744 0.0
O153 O 0.99874 0.34707 0.65798 0.0
O154 O 0.01132 0.00752 0.43406 0.0
Cd155 Cd 0.0579 0.02501 0.45692 0.0
O156 O 0.97904 0.00645 0.46939 0.0
Cd157 Cd 0.93457 0.99731 0.49521 0.0
O158 O 0.91099 0.99129 0.53245 0.0
C159 C 0.91514 0.97487 0.54267 0.0
O160 O 0.93197 0.96087 0.52989 0.0
C161 C 0.98212 0.00247 0.4462 0.0
C162 C 0.03361 0.063 0.46444 0.0
O163 O 0.02564 0.05002 0.4806 0.0
O164 O 0.05289 0.05797 0.44483 0.0
O165 O 0.96139 0.68832 0.52951 0.0
Cd166 Cd 0.91437 0.66569 0.54351 0.0
O167 O 0.91684 0.71008 0.5214 0.0
Cd168 Cd 0.89702 0.73723 0.50452 0.0
O169 O 0.88342 0.76345 0.48345 0.0
C170 C 0.89617 0.76502 0.46109 0.0
O171 O 0.9171 0.75086 0.4515 0.0
C172 C 0.95171 0.70502 0.5218 0.0
C173 C 0.90619 0.66478 0.59565 0.0
O174 O 0.93085 0.65384 0.58437 0.0
O175 O 0.88544 0.67611 0.58223 0.0
O176 O 0.32366 0.185 0.99432 0.0
Cd177 Cd 0.26827 0.16594 0.00235 0.0
O178 O 0.28803 0.21133 0.99262 0.0
Cd179 Cd 0.27811 0.2419 0.98519 0.0
O180 O 0.27283 0.27277 0.9791 0.0
C181 C 0.2889 0.2805 0.96027 0.0
O182 O 0.30853 0.26962 0.94436 0.0
C183 C 0.32065 0.20306 0.99151 0.0
C184 C 0.27719 0.14312 0.04519 0.0
O185 O 0.28835 0.13703 0.02356 0.0
O186 O 0.26169 0.15997 0.04652 0.0
O187 O 0.66536 0.80046 0.99442 0.0
Cd188 Cd 0.72777 0.78434 0.99377 0.0
O189 O 0.65177 0.7936 0.03387 0.0
Cd190 Cd 0.70051 0.77414 0.04005 0.0
O191 O 0.71321 0.74616 0.05711 0.0
C192 C 0.72201 0.73137 0.04423 0.0
O193 O 0.72713 0.73317 0.01984 0.0
C194 C 0.64301 0.80185 0.01332 0.0
C195 C 0.77639 0.80557 0.96379 0.0
O196 O 0.75546 0.79311 0.95417 0.0
O197 O 0.7749 0.80772 0.98767 0.0
O198 O 0.35601 0.4801 0.92489 0.0
Cd199 Cd 0.30366 0.46364 0.90646 0.0
O200 O 0.39729 0.46786 0.89747 0.0
Cd201 Cd 0.35939 0.44541 0.88743 0.0
O202 O 0.33514 0.41774 0.89573 0.0
C203 C 0.31977 0.41567 0.91729 0.0
O204 O 0.31787 0.43028 0.93269 0.0
C205 C 0.38922 0.47937 0.91533 0.0
C206 C 0.2491 0.48984 0.8885 0.0
O207 O 0.24605 0.48257 0.91058 0.0
O208 O 0.27782 0.48461 0.87487 0.0
O209 O 0.58429 0.26599 0.94448 0.0
Cd210 Cd 0.64872 0.27111 0.9293 0.0
O211 O 0.58232 0.23849 0.92478 0.0
Cd212 Cd 0.63496 0.23884 0.90296 0.0
O213 O 0.65286 0.22199 0.87018 0.0
C214 C 0.63108 0.20831 0.86643 0.0
O215 O 0.60263 0.20593 0.8822 0.0
C216 C 0.56704 0.25092 0.93942 0.0
C217 C 0.67176 0.30785 0.93993 0.0
O218 O 0.65807 0.30397 0.91854 0.0
O219 O 0.67454 0.29437 0.95632 0.0
O220 O 0.43189 0.58307 0.02929 0.0
Cd221 Cd 0.36388 0.58957 0.02455 0.0
O222 O 0.43895 0.58168 0.98842 0.0
Cd223 Cd 0.46879 0.57628 0.95255 0.0
O224 O 0.50722 0.57842 0.92016 0.0
C225 C 0.51971 0.56381 0.90813 0.0
O226 O 0.50866 0.54681 0.915 0.0
C227 C 0.45338 0.58041 0.01014 0.0
C228 C 0.34445 0.62594 0.00575 0.0
O229 O 0.34737 0.62293 0.02942 0.0
O230 O 0.35125 0.6118 0.99095 0.0
O231 O 0.35817 0.81365 0.03332 0.0
Cd232 Cd 0.29151 0.80663 0.03926 0.0
O233 O 0.35234 0.8181 0.99265 0.0
Cd234 Cd 0.30119 0.80172 0.99308 0.0
O235 O 0.28846 0.7714 0.99334 0.0
C236 C 0.29105 0.76232 0.97277 0.0
O237 O 0.2976 0.77187 0.95189 0.0
C238 C 0.37205 0.81894 0.0123 0.0
C239 C 0.24965 0.84077 0.04709 0.0
O240 O 0.26193 0.8307 0.06566 0.0
O241 O 0.25664 0.83451 0.02487 0.0
O242 O 0.59498 0.5532 0.04332 0.0
Cd243 Cd 0.64475 0.56021 0.07484 0.0
O244 O 0.5869 0.51298 0.03139 0.0
Cd245 Cd 0.55964 0.48794 0.01693 0.0
O246 O 0.51809 0.46794 0.03044 0.0
C247 C 0.52741 0.45624 0.04784 0.0
O248 O 0.56261 0.45541 0.05527 0.0
C249 C 0.57764 0.5308 0.02636 0.0
C250 C 0.66364 0.59845 0.07644 0.0
O251 O 0.67752 0.58727 0.05941 0.0
O252 O 0.64008 0.59164 0.0924 0.0
O253 O 0.715 0.486 0.03722 0.0
Cd254 Cd 0.76607 0.46147 0.0383 0.0
O255 O 0.75653 0.50753 0.02777 0.0
Cd256 Cd 0.77067 0.53741 0.0222 0.0
O257 O 0.78713 0.56628 0.0311 0.0
C258 C 0.77174 0.57415 0.05034 0.0
O259 O 0.74606 0.56487 0.06309 0.0
C260 C 0.72246 0.50321 0.0319 0.0
C261 C 0.74849 0.42968 0.01007 0.0
O262 O 0.76362 0.44421 -0.00022 0.0
O263 O 0.74185 0.43011 0.03381 0.0
H264 H 0.167 0.50794 0.15998 0.0
H265 H 0.15689 0.49961 0.24066 0.0
H266 H 0.12705 0.53212 0.24465 0.0
H267 H 0.19006 0.55712 0.1612 0.0
H268 H 0.16342 0.56338 0.13361 0.0
H269 H 0.18348 0.53948 0.13733 0.0
H270 H 0.11732 0.52557 0.13202 0.0
H271 H 0.09708 0.54941 0.12815 0.0
H272 H 0.07864 0.53382 0.15213 0.0
H273 H 0.0985 0.56599 0.23937 0.0
H274 H 0.07247 0.59757 0.22526 0.0
H275 H 0.10227 0.58289 0.14816 0.0
C276 C 0.1585 0.51285 0.17855 0.0
C277 C 0.16432 0.5012 0.20002 0.0
C278 C 0.15268 0.50827 0.22392 0.0
C279 C 0.13578 0.52672 0.22637 0.0
C280 C 0.13075 0.53786 0.20475 0.0
C281 C 0.1417 0.53112 0.18131 0.0
C282 C 0.1332 0.54574 0.16093 0.0
C283 C 0.16971 0.55179 0.14749 0.0
C284 C 0.10487 0.53818 0.14222 0.0
C285 C 0.11572 0.56185 0.17651 0.0
C286 C 0.11454 0.55712 0.20175 0.0
C287 C 0.09932 0.56983 0.21964 0.0
C288 C 0.08467 0.58774 0.21145 0.0
C289 C 0.08534 0.59275 0.1856 0.0
C290 C 0.10135 0.57958 0.16806 0.0
H291 H 0.26925 0.0407 0.26965 0.0
H292 H 0.18769 0.07968 0.3061 0.0
H293 H 0.14123 0.07309 0.27345 0.0
H294 H 0.24212 0.05108 0.20436 0.0
H295 H 0.24859 0.02644 0.19498 0.0
H296 H 0.27669 0.03564 0.21969 0.0
H297 H 0.25433 0.00884 0.24975 0.0
H298 H 0.22636 -0.00049 0.22516 0.0
H299 H 0.20441 0.00594 0.25488 0.0
H300 H 0.10418 0.06242 0.23699 0.0
H301 H 0.0738 0.04346 0.20451 0.0
H302 H 0.17856 0.01045 0.19238 0.0
C303 C 0.24191 0.04819 0.27036 0.0
C304 C 0.23231 0.06113 0.28988 0.0
C305 C 0.19567 0.06994 0.29103 0.0
C306 C 0.16927 0.06639 0.2725 0.0
C307 C 0.17989 0.05385 0.25316 0.0
C308 C 0.21511 0.04464 0.25218 0.0
C309 C 0.21812 0.03042 0.23082 0.0
C310 C 0.24816 0.03625 0.21131 0.0
C311 C 0.22627 0.00997 0.24075 0.0
C312 C 0.17873 0.0327 0.22032 0.0
C313 C 0.15755 0.04667 0.23309 0.0
C314 C 0.12018 0.05122 0.22716 0.0
C315 C 0.10325 0.04044 0.20871 0.0
C316 C 0.12377 0.0254 0.19637 0.0
C317 C 0.16234 0.02191 0.20161 0.0
H318 H 0.79709 0.53375 0.72979 0.0
H319 H 0.80888 0.57284 0.66684 0.0
H320 H 0.8352 0.59675 0.69504 0.0
H321 H 0.77392 0.57044 0.77884 0.0
H322 H 0.80109 0.55726 0.80193 0.0
H323 H 0.77819 0.54468 0.77743 0.0
H324 H 0.84266 0.52827 0.76474 0.0
H325 H 0.86565 0.54102 0.78892 0.0
H326 H 0.88205 0.54287 0.75678 0.0
H327 H 0.86499 0.61519 0.72942 0.0
H328 H 0.89913 0.6258 0.76656 0.0
H329 H 0.86853 0.57437 0.80673 0.0
C330 C 0.80379 0.54762 0.72215 0.0
C331 C 0.79999 0.55172 0.69633 0.0
C332 C 0.81115 0.56959 0.68669 0.0
C333 C 0.82592 0.58326 0.70256 0.0
C334 C 0.82952 0.57874 0.72797 0.0
C335 C 0.81882 0.56132 0.7377 0.0
C336 C 0.8291 0.55916 0.76505 0.0
C337 C 0.79344 0.55781 0.78179 0.0
C338 C 0.85649 0.54181 0.76909 0.0
C339 C 0.84826 0.57783 0.76903 0.0
C340 C 0.84757 0.58911 0.74759 0.0
C341 C 0.86506 0.60663 0.74645 0.0
C342 C 0.88408 0.61265 0.76769 0.0
C343 C 0.88568 0.60112 0.78963 0.0
C344 C 0.86732 0.58357 0.79027 0.0
H345 H 0.67642 0.01438 0.74732 0.0
H346 H 0.75801 0.05827 0.75654 0.0
H347 H 0.79863 0.03547 0.78065 0.0
H348 H 0.69263 0.98802 0.8082 0.0
H349 H 0.68843 0.96514 0.79338 0.0
H350 H 0.66207 0.98585 0.78177 0.0
H351 H 0.69135 0.98032 0.7373 0.0
H352 H 0.71748 0.95961 0.74873 0.0
H353 H 0.74206 0.97869 0.73341 0.0
H354 H 0.8336 0.0072 0.79897 0.0
H355 H 0.86359 0.9752 0.80544 0.0
H356 H 0.76063 0.94919 0.78235 0.0
C357 C 0.70226 0.01933 0.75516 0.0
C358 C 0.71392 0.03811 0.75048 0.0
C359 C 0.74854 0.04394 0.76013 0.0
C360 C 0.77159 0.03115 0.774 0.0
C361 C 0.7597 0.01256 0.77787 0.0
C362 C 0.72593 0.00661 0.76856 0.0
C363 C 0.72235 0.98522 0.77184 0.0
C364 C 0.68941 0.9808 0.78988 0.0
C365 C 0.71809 0.9754 0.74631 0.0
C366 C 0.76004 0.97993 0.78349 0.0
C367 C 0.78066 0.99597 0.78753 0.0
C368 C 0.81752 0.99456 0.79625 0.0
C369 C 0.83431 0.97628 0.79992 0.0
C370 C 0.81448 0.95965 0.79439 0.0
C371 C 0.77639 0.9616 0.78702 0.0
H372 H 0.12788 0.06104 0.50427 0.0
H373 H 0.10842 0.06573 0.58468 0.0
H374 H 0.16348 0.04371 0.5919 0.0
H375 H 0.16048 0.01176 0.50323 0.0
H376 H 0.19545 0.01568 0.4789 0.0
H377 H 0.15301 0.03071 0.48059 0.0
H378 H 0.19446 0.0609 0.48252 0.0
H379 H 0.23632 0.04547 0.48072 0.0
H380 H 0.22961 0.06196 0.50641 0.0
H381 H 0.22069 0.0211 0.59023 0.0
H382 H 0.27879 0.00175 0.57998 0.0
H383 H 0.2634 0.01418 0.50078 0.0
C384 C 0.13577 0.05804 0.5234 0.0
C385 C 0.11439 0.06561 0.5439 0.0
C386 C 0.12455 0.06022 0.56866 0.0
C387 C 0.15574 0.04771 0.57295 0.0
C388 C 0.17649 0.04073 0.55229 0.0
C389 C 0.16711 0.04582 0.52802 0.0
C390 C 0.19465 0.03679 0.5091 0.0
C391 C 0.17471 0.02292 0.49194 0.0
C392 C 0.21496 0.05219 0.49379 0.0
C393 C 0.2214 0.02607 0.52655 0.0
C394 C 0.21002 0.02821 0.55137 0.0
C395 C 0.22996 0.01938 0.57087 0.0
C396 C 0.2628 0.00837 0.56487 0.0
C397 C 0.27564 0.00656 0.53962 0.0
C398 C 0.25439 0.01541 0.52027 0.0
H399 H 0.01043 0.31065 0.45086 0.0
H400 H 0.95581 0.25625 0.45528 0.0
H401 H 0.96167 0.25615 0.50138 0.0
H402 H 0.07598 0.30239 0.49973 0.0
H403 H 0.07167 0.32642 0.51175 0.0
H404 H 0.06349 0.32209 0.47906 0.0
H405 H 0.99698 0.33874 0.48315 0.0
H406 H 0.00506 0.34325 0.51582 0.0
H407 H 0.96417 0.33056 0.50681 0.0
H408 H 0.97669 0.2614 0.54687 0.0
H409 H 0.99501 0.27276 0.58869 0.0
H410 H 0.03402 0.32507 0.55464 0.0
C411 C 0.99953 0.29876 0.46153 0.0
C412 C 0.98403 0.28307 0.4494 0.0
C413 C 0.96965 0.26791 0.46403 0.0
C414 C 0.97232 0.26788 0.49028 0.0
C415 C 0.98878 0.28332 0.50159 0.0
C416 C 0.00162 0.29861 0.48771 0.0
C417 C 0.01756 0.3136 0.50443 0.0
C418 C 0.05967 0.31627 0.49838 0.0
C419 C 0.99456 0.33266 0.50243 0.0
C420 C 0.01201 0.30426 0.52988 0.0
C421 C 0.99551 0.28678 0.52786 0.0
C422 C 0.98883 0.27525 0.5488 0.0
C423 C 0.99873 0.28192 0.57248 0.0
C424 C 0.01442 0.30007 0.57502 0.0
C425 C 0.0216 0.31121 0.55333 0.0
H426 H 0.77336 0.98662 0.39943 0.0
H427 H 0.82308 0.94595 0.3461 0.0
H428 H 0.8855 0.94931 0.36499 0.0
H429 H 0.84878 0.01794 0.3993 0.0
H430 H 0.8456 0.02321 0.43237 0.0
H431 H 0.80421 0.01651 0.41599 0.0
H432 H 0.79459 0.98883 0.44785 0.0
H433 H 0.83605 0.99545 0.46433 0.0
H434 H 0.83254 0.97138 0.45297 0.0
H435 H 0.94327 0.95969 0.38627 0.0
H436 H 0.99243 0.97507 0.41058 0.0
H437 H 0.90552 0.00775 0.45182 0.0
C438 C 0.79736 0.97824 0.39204 0.0
C439 C 0.79336 0.9657 0.37168 0.0
C440 C 0.82536 0.95514 0.36222 0.0
C441 C 0.86097 0.95708 0.37269 0.0
C442 C 0.86405 0.96953 0.39275 0.0
C443 C 0.8331 0.9798 0.40254 0.0
C444 C 0.84448 0.99265 0.42368 0.0
C445 C 0.83522 0.01383 0.41745 0.0
C446 C 0.8258 0.98671 0.44869 0.0
C447 C 0.88676 0.98837 0.42376 0.0
C448 C 0.89743 0.97501 0.40572 0.0
C449 C 0.93524 0.96986 0.40081 0.0
C450 C 0.96293 0.97868 0.41462 0.0
C451 C 0.95259 0.99224 0.43334 0.0
C452 C 0.91403 0.99697 0.43813 0.0
H453 H 0.13624 0.7317 0.44418 0.0
H454 H 0.10959 0.79139 0.46131 0.0
H455 H 0.05547 0.78169 0.48782 0.0
H456 H 0.04291 0.71793 0.43809 0.0
H457 H 0.05054 0.69456 0.45206 0.0
H458 H 0.08898 0.70605 0.43629 0.0
H459 H 0.12905 0.7027 0.47643 0.0
H460 H 0.09081 0.69105 0.4923 0.0
H461 H 0.11017 0.71203 0.50573 0.0
H462 H 0.00145 0.76546 0.50999 0.0
H463 H 0.95357 0.74391 0.52736 0.0
H464 H 0.01584 0.6951 0.49524 0.0
C465 C 0.11949 0.74276 0.45382 0.0
C466 C 0.12727 0.76232 0.4507 0.0
C467 C 0.10433 0.77631 0.4635 0.0
C468 C 0.07349 0.77094 0.47857 0.0
C469 C 0.06615 0.75154 0.48074 0.0
C470 C 0.08873 0.73767 0.46888 0.0
C471 C 0.07401 0.71787 0.47335 0.0
C472 C 0.06348 0.70857 0.44847 0.0
C473 C 0.10272 0.70517 0.48782 0.0
C474 C 0.03929 0.72276 0.48932 0.0
C475 C 0.0352 0.74224 0.49341 0.0
C476 C 0.00444 0.75019 0.50693 0.0
C477 C 0.97717 0.73788 0.51645 0.0
C478 C 0.98076 0.71792 0.51224 0.0
C479 C 0.01249 0.71031 0.49879 0.0
H480 H 0.38308 0.19125 0.96452 0.0
H481 H 0.33601 0.23911 0.00766 0.0
H482 H 0.39359 0.25707 0.9987 0.0
H483 H 0.47833 0.19465 0.98476 0.0
H484 H 0.49895 0.18813 0.95468 0.0
H485 H 0.45358 0.17942 0.96401 0.0
H486 H 0.42424 0.19387 0.92349 0.0
H487 H 0.46955 0.20257 0.91402 0.0
H488 H 0.42907 0.21894 0.91651 0.0
H489 H 0.45773 0.26943 0.98553 0.0
H490 H 0.52186 0.27528 0.96855 0.0
H491 H 0.52596 0.21897 0.93456 0.0
C492 C 0.38488 0.20553 0.97203 0.0
C493 C 0.35477 0.21399 0.98625 0.0
C494 C 0.35819 0.23265 0.99592 0.0
C495 C 0.39098 0.24285 0.99119 0.0
C496 C 0.42009 0.23413 0.97689 0.0
C497 C 0.41726 0.21589 0.96744 0.0
C498 C 0.45242 0.20965 0.95268 0.0
C499 C 0.47197 0.19192 0.96477 0.0
C500 C 0.44326 0.20606 0.92504 0.0
C501 C 0.47561 0.22718 0.95538 0.0
C502 C 0.45664 0.24117 0.96942 0.0
C503 C 0.4728 0.25858 0.97447 0.0
C504 C 0.50924 0.26177 0.96478 0.0
C505 C 0.52896 0.24762 0.95019 0.0
C506 C 0.51172 0.23013 0.94557 0.0
H507 H 0.42622 0.81395 0.04788 0.0
H508 H 0.40911 0.834 0.97148 0.0
H509 H 0.47797 0.83688 0.96576 0.0
H510 H 0.51165 0.84265 0.06105 0.0
H511 H 0.53304 0.82308 0.07865 0.0
H512 H 0.48232 0.82651 0.07845 0.0
H513 H 0.47649 0.79172 0.063 0.0
H514 H 0.52698 0.78821 0.06296 0.0
H515 H 0.50134 0.78417 0.0347 0.0
H516 H 0.54844 0.83248 0.96603 0.0
H517 H 0.61444 0.82102 0.97221 0.0
H518 H 0.58544 0.80358 0.04834 0.0
C519 C 0.43679 0.81961 0.03024 0.0
C520 C 0.41225 0.82387 0.01018 0.0
C521 C 0.42735 0.83074 0.98716 0.0
C522 C 0.46644 0.8325 0.98377 0.0
C523 C 0.49001 0.82745 0.00362 0.0
C524 C 0.4757 0.8213 0.0265 0.0
C525 C 0.50702 0.81449 0.04376 0.0
C526 C 0.5086 0.82746 0.06684 0.0
C527 C 0.50269 0.7934 0.05154 0.0
C528 C 0.54106 0.81688 0.02659 0.0
C529 C 0.53079 0.82473 0.0037 0.0
C530 C 0.55695 0.82669 0.98406 0.0
C531 C 0.59438 0.82008 0.98772 0.0
C532 C 0.60521 0.81145 0.01079 0.0
C533 C 0.57827 0.81034 0.03061 0.0
H534 H 0.49995 0.52378 0.02726 0.0
H535 H 0.59627 0.52745 0.97624 0.0
H536 H 0.55695 0.51779 0.94128 0.0
H537 H 0.46235 0.48322 0.00212 0.0
H538 H 0.41385 0.49128 0.00673 0.0
H539 H 0.44962 0.49998 0.02674 0.0
H540 H 0.42829 0.53499 0.01424 0.0
H541 H 0.3932 0.52578 0.99394 0.0
H542 H 0.4278 0.54172 0.9815 0.0
H543 H 0.50951 0.50428 0.91303 0.0
H544 H 0.45666 0.48839 0.89333 0.0
H545 H 0.39005 0.49523 0.96213 0.0
C546 C 0.51241 0.52345 0.00859 0.0
C547 C 0.55078 0.52772 0.00432 0.0
C548 C 0.56654 0.52541 0.97978 0.0
C549 C 0.54445 0.51982 0.95981 0.0
C550 C 0.50658 0.51634 0.9646 0.0
C551 C 0.49058 0.51821 0.98835 0.0
C552 C 0.44978 0.51248 0.98877 0.0
C553 C 0.44358 0.49576 0.00719 0.0
C554 C 0.42319 0.52977 0.99498 0.0
C555 C 0.44586 0.50633 0.96178 0.0
C556 C 0.4789 0.50878 0.94812 0.0
C557 C 0.48323 0.50264 0.92337 0.0
C558 C 0.45312 0.49357 0.91237 0.0
C559 C 0.41915 0.49076 0.9261 0.0
C560 C 0.41536 0.49756 0.95097 0.0
H561 H 0.66511 0.50887 0.06533 0.0
H562 H 0.71444 0.52722 0.9939 0.0
H563 H 0.66416 0.5496 0.98103 0.0
H564 H 0.5353 0.5107 0.05981 0.0
H565 H 0.52857 0.51929 0.09047 0.0
H566 H 0.57168 0.50592 0.08259 0.0
H567 H 0.58196 0.56187 0.08837 0.0
H568 H 0.59723 0.54009 0.1045 0.0
H569 H 0.54783 0.54791 0.10367 0.0
H570 H 0.57591 0.57736 0.97508 0.0
H571 H 0.51078 0.58911 0.9793 0.0
H572 H 0.48149 0.56071 0.04991 0.0
C573 C 0.66374 0.51856 0.04938 0.0
C574 C 0.69164 0.51789 0.0298 0.0
C575 C 0.69119 0.52946 0.00721 0.0
C576 C 0.6625 0.54266 -0.00078 0.0
C577 C 0.63168 0.54581 0.01461 0.0
C578 C 0.63368 0.53135 0.04724 0.0
C579 C 0.57089 0.53545 0.06835 0.0
C580 C 0.55059 0.51677 0.07561 0.0
C581 C 0.57485 0.54691 0.09274 0.0
C582 C 0.53844 0.556 0.03804 0.0
C583 C 0.57415 0.56145 0.00933 0.0
C584 C 0.55899 0.57313 0.99115 0.0
C585 C 0.52059 0.57941 0.99388 0.0
C586 C 0.49374 0.57445 0.01344 0.0
C587 C 0.50265 0.56378 0.03567 0.0
H588 H 0.14228 0.04407 0.4041 0.0
H589 H 0.11381 0.10502 0.40318 0.0
H590 H 0.09453 0.10282 0.35919 0.0
H591 H 0.17674 0.04173 0.33664 0.0
H592 H 0.15775 0.01843 0.33272 0.0
H593 H 0.17465 0.02536 0.36291 0.0
H594 H 0.10965 0.01784 0.38311 0.0
H595 H 0.09228 0.01121 0.35302 0.0
H596 H 0.0674 0.02956 0.3711 0.0
H597 H 0.06954 0.09321 0.31776 0.0
H598 H 0.04605 0.07733 0.28024 0.0
H599 H 0.09244 0.02279 0.30747 0.0
C600 C 0.13306 0.05707 0.39444 0.0
C601 C 0.12936 0.07471 0.4072 0.0
C602 C 0.11683 0.09134 0.39391 0.0
C603 C 0.10584 0.09024 0.36885 0.0
C604 C 0.1083 0.07249 0.35716 0.0
C605 C 0.12237 0.05626 0.36932 0.0
C606 C 0.11993 0.03872 0.353 0.0
C607 C 0.15963 0.03058 0.3459 0.0
C608 C 0.09588 0.02345 0.36583 0.0
C609 C 0.10042 0.04746 0.33036 0.0
C610 C 0.09437 0.06699 0.33301 0.0
C611 C 0.07472 0.07798 0.31526 0.0
C612 C 0.06119 0.0688 0.29412 0.0
C613 C 0.06735 0.04882 0.29093 0.0
C614 C 0.08742 0.03809 0.3093 0.0
H615 H 0.11366 0.40152 0.24973 0.0
H616 H 0.2246 0.39241 0.28196 0.0
H617 H 0.1991 0.36801 0.31083 0.0
H618 H 0.06099 0.39689 0.30851 0.0
H619 H 0.02257 0.38509 0.29423 0.0
H620 H 0.04964 0.4018 0.27618 0.0
H621 H 0.06438 0.3758 0.24261 0.0
H622 H 0.03744 0.359 0.26057 0.0
H623 H 0.08596 0.35313 0.25199 0.0
H624 H 0.16223 0.34322 0.33431 0.0
H625 H 0.11555 0.32165 0.35308 0.0
H626 H 0.02792 0.3485 0.30742 0.0
C627 C 0.13257 0.39441 0.26289 0.0
C628 C 0.17115 0.39876 0.26354 0.0
C629 C 0.19493 0.3893 0.28119 0.0
C630 C 0.18073 0.3754 0.29761 0.0
C631 C 0.14259 0.37136 0.29637 0.0
C632 C 0.11873 0.38076 0.27969 0.0
C633 C 0.07875 0.37399 0.28243 0.0
C634 C 0.05138 0.39042 0.29085 0.0
C635 C 0.06589 0.36494 0.25795 0.0
C636 C 0.08395 0.3591 0.30301 0.0
C637 C 0.12104 0.35771 0.31067 0.0
C638 C 0.13303 0.34434 0.32867 0.0
C639 C 0.10638 0.33212 0.33916 0.0
C640 C 0.06813 0.33354 0.33185 0.0
C641 C 0.05686 0.34728 0.31362 0.0
H642 H 0.57422 0.02291 0.33137 0.0
H643 H 0.56153 0.97394 0.38105 0.0
H644 H 0.49644 0.9854 0.39178 0.0
H645 H 0.51931 0.0574 0.36962 0.0
H646 H 0.49878 0.06939 0.34277 0.0
H647 H 0.54507 0.05788 0.34012 0.0
H648 H 0.52266 0.03782 0.30291 0.0
H649 H 0.47626 0.04917 0.30555 0.0
H650 H 0.4818 0.02345 0.30707 0.0
H651 H 0.43188 0.00143 0.39575 0.0
H652 H 0.37277 0.02123 0.39325 0.0
H653 H 0.42744 0.05956 0.34066 0.0
C654 C 0.55795 0.01471 0.34475 0.0
C655 C 0.57304 0.99755 0.35544 0.0
C656 C 0.55062 0.98715 0.37267 0.0
C657 C 0.51361 0.99354 0.37888 0.0
C658 C 0.49943 0.01035 0.36771 0.0
C659 C 0.52093 0.02084 0.35109 0.0
C660 C 0.49857 0.0381 0.34114 0.0
C661 C 0.5165 0.0568 0.34888 0.0
C662 C 0.49459 0.03706 0.31247 0.0
C663 C 0.46102 0.03558 0.35457 0.0
C664 C 0.46215 0.01952 0.36988 0.0
C665 C 0.43071 0.01409 0.38391 0.0
C666 C 0.39723 0.02541 0.38232 0.0
C667 C 0.39544 0.04195 0.36676 0.0
C668 C 0.42787 0.04702 0.35274 0.0
H669 H 0.11426 0.69318 0.2275 0.0
H670 H 0.99425 0.70473 0.24055 0.0
H671 H 0.00865 0.72812 0.27319 0.0
H672 H 0.13883 0.69365 0.2911 0.0
H673 H 0.18357 0.7046 0.28589 0.0
H674 H 0.16401 0.69048 0.26159 0.0
H675 H 0.16804 0.71913 0.23062 0.0
H676 H 0.18758 0.73338 0.25488 0.0
H677 H 0.14567 0.74188 0.23892 0.0
H678 H 0.03571 0.74875 0.3058 0.0
H679 H 0.07319 0.76362 0.33829 0.0
H680 H 0.17589 0.73786 0.30525 0.0
C681 C 0.09104 0.7009 0.23692 0.0
C682 C 0.05313 0.69731 0.23137 0.0
C683 C 0.02349 0.70733 0.24449 0.0
C684 C 0.0314 0.7207 0.26295 0.0
C685 C 0.06908 0.72379 0.26815 0.0
C686 C 0.09844 0.7141 0.25564 0.0
C687 C 0.1363 0.71887 0.2663 0.0
C688 C 0.15687 0.70083 0.27685 0.0
C689 C 0.16084 0.72892 0.2465 0.0
C690 C 0.12357 0.73248 0.28706 0.0
C691 C 0.08473 0.73534 0.28751 0.0
C692 C 0.06616 0.74673 0.30554 0.0
C693 C 0.08776 0.75512 0.32394 0.0
C694 C 0.12752 0.75192 0.32435 0.0
C695 C 0.14561 0.74071 0.30534 0.0
H696 H 0.59778 0.02663 0.6343 0.0
H697 H 0.60714 0.08685 0.6156 0.0
H698 H 0.56565 0.08287 0.57936 0.0
H699 H 0.59651 0.00912 0.5701 0.0
H700 H 0.56259 0.99127 0.57751 0.0
H701 H 0.59467 0.99864 0.60111 0.0
H702 H 0.538 0.00732 0.63092 0.0
H703 H 0.5058 -8e-05 0.60748 0.0
H704 H 0.50103 0.02371 0.62024 0.0
H705 H 0.5208 0.07259 0.54636 0.0
H706 H 0.47467 0.05711 0.51982 0.0
H707 H 0.49496 0.00357 0.56014 0.0
C708 C 0.59141 0.03898 0.62249 0.0
C709 C 0.60581 0.05706 0.62777 0.0
C710 C 0.5965 0.07285 0.61192 0.0
C711 C 0.57305 0.07072 0.59125 0.0
C712 C 0.55925 0.05269 0.58666 0.0
C713 C 0.56808 0.0371 0.60184 0.0
C714 C 0.5484 0.01946 0.59346 0.0
C715 C 0.57727 0.00369 0.58504 0.0
C716 C 0.52172 0.01219 0.61426 0.0
C717 C 0.52658 0.02763 0.57141 0.0
C718 C 0.53345 0.04678 0.56767 0.0
C719 C 0.51542 0.05757 0.549 0.0
C720 C 0.48926 0.04863 0.53401 0.0
C721 C 0.48125 0.0291 0.53782 0.0
C722 C 0.50069 0.01846 0.55656 0.0
H723 H 0.99952 0.39975 0.62762 0.0
H724 H 0.93737 0.36217 0.67721 0.0
H725 H 0.88578 0.38687 0.68094 0.0
H726 H 0.97242 0.44422 0.65872 0.0
H727 H 0.96863 0.45762 0.62976 0.0
H728 H 0.0012 0.43725 0.6318 0.0
H729 H 0.96991 0.42203 0.59357 0.0
H730 H 0.93719 0.44233 0.59145 0.0
H731 H 0.91975 0.41852 0.59441 0.0
H732 H 0.84047 0.41549 0.67864 0.0
H733 H 0.80448 0.44576 0.67011 0.0
H734 H 0.89596 0.4643 0.62145 0.0
C735 C 0.97522 0.39675 0.63944 0.0
C736 C 0.97254 0.37905 0.65221 0.0
C737 C 0.94007 0.37564 0.66728 0.0
C738 C 0.91063 0.38958 0.66953 0.0
C739 C 0.91407 0.40683 0.65655 0.0
C740 C 0.94552 0.41045 0.64178 0.0
C741 C 0.94181 0.42993 0.62923 0.0
C742 C 0.97286 0.44303 0.63791 0.0
C743 C 0.94218 0.42808 0.60046 0.0
C744 C 0.90328 0.43668 0.63917 0.0
C745 C 0.88781 0.42319 0.65497 0.0
C746 C 0.85233 0.42618 0.66632 0.0
C747 C 0.8321 0.44341 0.66135 0.0
C748 C 0.84736 0.4574 0.64509 0.0
C749 C 0.88347 0.45391 0.63394 0.0
H750 H 0.89122 0.91739 0.67236 0.0
H751 H 0.86115 0.97222 0.70664 0.0
H752 H 0.86783 0.98816 0.6656 0.0
H753 H 0.96162 0.93521 0.62904 0.0
H754 H 0.94955 0.91959 0.60391 0.0
H755 H 0.9422 0.91228 0.63607 0.0
H756 H 0.87173 0.90697 0.62715 0.0
H757 H 0.87881 0.91439 0.59499 0.0
H758 H 0.84288 0.92633 0.61425 0.0
H759 H 0.87631 0.99829 0.62116 0.0
H760 H 0.89019 0.0023 0.57597 0.0
H761 H 0.91619 0.94123 0.56997 0.0
C762 C 0.88616 0.93274 0.67122 0.0
C763 C 0.87558 0.94352 0.69276 0.0
C764 C 0.86927 0.96361 0.69047 0.0
C765 C 0.87289 0.97283 0.6672 0.0
C766 C 0.88297 0.96182 0.64633 0.0
C767 C 0.88981 0.94225 0.64806 0.0
C768 C 0.90078 0.93392 0.62263 0.0
C769 C 0.94093 0.92471 0.62294 0.0
C770 C 0.87181 0.91955 0.61427 0.0
C771 C 0.89913 0.95188 0.60646 0.0
C772 C 0.88849 0.96776 0.62054 0.0
C773 C 0.88476 0.98598 0.6099 0.0
C774 C 0.8926 0.98809 0.58418 0.0
C775 C 0.90433 0.9721 0.5694 0.0
C776 C 0.90733 0.95374 0.58075 0.0
H777 H 0.85356 0.68469 0.62451 0.0
H778 H 0.94926 0.64417 0.62941 0.0
H779 H 0.94287 0.64428 0.6757 0.0
H780 H 0.87533 0.71247 0.67756 0.0
H781 H 0.82675 0.71645 0.6875 0.0
H782 H 0.83827 0.71271 0.6548 0.0
H783 H 0.79294 0.6845 0.65386 0.0
H784 H 0.78123 0.68817 0.68656 0.0
H785 H 0.79894 0.66503 0.676 0.0
H786 H 0.92812 0.65038 0.7217 0.0
H787 H 0.90479 0.66116 0.76335 0.0
H788 H 0.81687 0.69625 0.72818 0.0
C789 C 0.87312 0.67577 0.63527 0.0
C790 C 0.90195 0.66445 0.62334 0.0
C791 C 0.92693 0.65297 0.63814 0.0
C792 C 0.92354 0.65293 0.66445 0.0
C793 C 0.8949 0.66436 0.67561 0.0
C794 C 0.87002 0.67549 0.66147 0.0
C795 C 0.84198 0.68667 0.67799 0.0
C796 C 0.84584 0.70836 0.67424 0.0
C797 C 0.80137 0.68073 0.67332 0.0
C798 C 0.85513 0.68021 0.70366 0.0
C799 C 0.88569 0.66735 0.70194 0.0
C800 C 0.90364 0.66009 0.72326 0.0
C801 C 0.8898 0.66605 0.74692 0.0
C802 C 0.85788 0.67884 0.74901 0.0
C803 C 0.84076 0.6861 0.72707 0.0
H804 H 0.31932 0.30166 0.92176 0.0
H805 H 0.25283 0.30694 0.99088 0.0
H806 H 0.25026 0.34207 0.98587 0.0
H807 H 0.37504 0.34177 0.93114 0.0
H808 H 0.3761 0.34904 0.8986 0.0
H809 H 0.37086 0.32425 0.9068 0.0
H810 H 0.30931 0.32389 0.88128 0.0
H811 H 0.31434 0.34872 0.87302 0.0
H812 H 0.27144 0.34115 0.88815 0.0
H813 H 0.2581 0.37652 0.97486 0.0
H814 H 0.27556 0.40812 0.95842 0.0
H815 H 0.33588 0.38055 0.89598 0.0
C816 C 0.30393 0.31017 0.93574 0.0
C817 C 0.28624 0.30152 0.95671 0.0
C818 C 0.26655 0.31322 0.97463 0.0
C819 C 0.26486 0.33319 0.97193 0.0
C820 C 0.2828 0.34125 0.95114 0.0
C821 C 0.30184 0.33013 0.93329 0.0
C822 C 0.31977 0.34244 0.91315 0.0
C823 C 0.363 0.33918 0.9124 0.0
C824 C 0.30268 0.33883 0.88738 0.0
C825 C 0.30838 0.36221 0.92273 0.0
C826 C 0.28694 0.36119 0.94461 0.0
C827 C 0.27455 0.37753 0.95761 0.0
C828 C 0.28467 0.39541 0.94814 0.0
C829 C 0.30689 0.39681 0.92586 0.0
C830 C 0.31843 0.37996 0.91287 0.0
H831 H 0.68576 0.32294 0.98606 0.0
H832 H 0.68521 0.33677 0.90647 0.0
H833 H 0.70597 0.36926 0.91571 0.0
H834 H 0.64894 0.36883 0.00692 0.0
H835 H 0.6773 0.3689 0.03466 0.0
H836 H 0.66362 0.34654 0.02171 0.0
H837 H 0.73396 0.33494 0.0187 0.0
H838 H 0.74785 0.35728 0.03162 0.0
H839 H 0.76735 0.34929 0.00183 0.0
H840 H 0.72772 0.40003 0.93355 0.0
H841 H 0.7455 0.42758 0.95892 0.0
H842 H 0.72918 0.39412 0.02701 0.0
C843 C 0.69018 0.33278 0.97056 0.0
C844 C 0.68406 0.32731 0.94552 0.0
C845 C 0.68971 0.34066 0.92579 0.0
C846 C 0.70159 0.35912 0.93085 0.0
C847 C 0.70735 0.36405 0.95574 0.0
C848 C 0.70156 0.35133 0.9753 0.0
C849 C 0.70863 0.36042 0.00042 0.0
C850 C 0.67247 0.36122 0.01689 0.0
C851 C 0.7414 0.34985 0.01393 0.0
C852 C 0.71939 0.38023 0.99192 0.0
C853 C 0.71876 0.38198 0.96607 0.0
C854 C 0.72818 0.39886 0.95382 0.0
C855 C 0.7383 0.41441 0.96838 0.0
C856 C 0.73858 0.41302 0.99493 0.0
C857 C 0.729 0.39566 0.00676 0.0
H858 H 0.3283 0.65873 0.0325 0.0
H859 H 0.3355 0.63663 0.95654 0.0
H860 H 0.31755 0.66874 0.93998 0.0
H861 H 0.24781 0.692 0.02271 0.0
H862 H 0.26605 0.71002 0.04269 0.0
H863 H 0.27741 0.68507 0.04867 0.0
H864 H 0.34888 0.69173 0.0464 0.0
H865 H 0.33774 0.71669 0.04057 0.0
H866 H 0.36808 0.70333 0.01891 0.0
H867 H 0.30208 0.7036 0.93159 0.0
H868 H 0.29212 0.73875 0.93194 0.0
H869 H 0.29432 0.73795 0.01342 0.0
C870 C 0.32585 0.66059 0.01239 0.0
C871 C 0.33328 0.64514 0.99582 0.0
C872 C 0.32993 0.64823 0.96961 0.0
C873 C 0.31962 0.66641 0.96002 0.0
C874 C 0.31257 0.68132 0.97688 0.0
C875 C 0.31555 0.67861 0.00251 0.0
C876 C 0.30798 0.69717 0.01653 0.0
C877 C 0.27271 0.69599 0.03366 0.0
C878 C 0.34274 0.70254 0.03147 0.0
C879 C 0.301 0.71083 0.99475 0.0
C880 C 0.30347 0.70138 0.97206 0.0
C881 C 0.29975 0.71113 0.94926 0.0
C882 C 0.29409 0.7311 0.94966 0.0
C883 C 0.29227 0.74112 0.9727 0.0
C884 C 0.2951 0.73072 0.99551 0.0
H885 H 0.7032 0.6187 0.04116 0.0
H886 H 0.64954 0.62357 0.11488 0.0
H887 H 0.66716 0.65732 0.1169 0.0
H888 H 0.78117 0.65197 0.05303 0.0
H889 H 0.77926 0.66119 0.02139 0.0
H890 H 0.76739 0.63677 0.0279 0.0
H891 H 0.7024 0.64352 0.00679 0.0
H892 H 0.71419 0.66794 0.0009 0.0
H893 H 0.67166 0.66278 0.01837 0.0
H894 H 0.68577 0.69096 0.1096 0.0
H895 H 0.69917 0.72277 0.09221 0.0
H896 H 0.73908 0.69644 0.02255 0.0
C897 C 0.6956 0.6268 0.05787 0.0
C898 C 0.67498 0.61852 0.07787 0.0
C899 C 0.66525 0.62963 0.09931 0.0
C900 C 0.67544 0.64876 0.10073 0.0
C901 C 0.69545 0.65654 0.08059 0.0
C902 C 0.70538 0.64593 0.05954 0.0
C903 C 0.72382 0.65818 0.03956 0.0
C904 C 0.76537 0.65163 0.03521 0.0
C905 C 0.70168 0.6581 0.01496 0.0
C906 C 0.72079 0.67756 0.05212 0.0
C907 C 0.70539 0.67617 0.07608 0.0
C908 C 0.6982 0.69222 0.09098 0.0
C909 C 0.70593 0.71025 0.08089 0.0
C910 C 0.72008 0.71214 0.05596 0.0
C911 C 0.72845 0.69548 0.04169 0.0
H912 H 0.55297 0.53546 0.87879 0.0
H913 H 0.54721 0.59709 0.88904 0.0
H914 H 0.59181 0.60082 0.85337 0.0
H915 H 0.65231 0.53149 0.86202 0.0
H916 H 0.64636 0.5131 0.83907 0.0
H917 H 0.61432 0.51521 0.86567 0.0
H918 H 0.55753 0.51807 0.83571 0.0
H919 H 0.58937 0.51594 0.80903 0.0
H920 H 0.55671 0.5363 0.81156 0.0
H921 H 0.63646 0.59795 0.81633 0.0
H922 H 0.67749 0.58869 0.78014 0.0
H923 H 0.65416 0.52895 0.79391 0.0
C924 C 0.56109 0.54975 0.87356 0.0
C925 C 0.54653 0.56598 0.88672 0.0
C926 C 0.55795 0.58442 0.87926 0.0
C927 C 0.58331 0.5867 0.85903 0.0
C928 C 0.59708 0.57041 0.84646 0.0
C929 C 0.5864 0.55229 0.85341 0.0
C930 C 0.60509 0.53717 0.8366 0.0
C931 C 0.63106 0.52344 0.85175 0.0
C932 C 0.5754 0.52623 0.82238 0.0
C933 C 0.6277 0.54964 0.81899 0.0
C934 C 0.6228 0.56876 0.82507 0.0
C935 C 0.64057 0.58302 0.8114 0.0
C936 C 0.66382 0.57761 0.79086 0.0
C937 C 0.66904 0.5581 0.78414 0.0
C938 C 0.65081 0.54398 0.79855 0.0
H939 H 0.83911 0.85766 0.83695 0.0
H940 H 0.92033 0.8877 0.88043 0.0
H941 H 0.90189 0.86938 0.91824 0.0
H942 H 0.76727 0.85649 0.88389 0.0
H943 H 0.75256 0.83288 0.87621 0.0
H944 H 0.77348 0.84766 0.85231 0.0
H945 H 0.82439 0.82087 0.84302 0.0
H946 H 0.80357 0.80599 0.86688 0.0
H947 H 0.85285 0.81133 0.86825 0.0
H948 H 0.87164 0.84932 0.95187 0.0
H949 H 0.83333 0.8281 0.97854 0.0
H950 H 0.77335 0.81051 0.91279 0.0
C951 C 0.85329 0.86028 0.85436 0.0
C952 C 0.88118 0.87412 0.85573 0.0
C953 C 0.89896 0.87713 0.8789 0.0
C954 C 0.88868 0.8668 0.90049 0.0
C955 C 0.86081 0.8534 0.89854 0.0
C956 C 0.84356 0.85001 0.87604 0.0
C957 C 0.81386 0.83512 0.8791 0.0
C958 C 0.77447 0.84355 0.87249 0.0
C959 C 0.82431 0.81727 0.86338 0.0
C960 C 0.81671 0.83087 0.90693 0.0
C961 C 0.84395 0.84156 0.91781 0.0
C962 C 0.85053 0.84071 0.94352 0.0
C963 C 0.82859 0.82866 0.95851 0.0
C964 C 0.80058 0.81756 0.94772 0.0
C965 C 0.7949 0.81862 0.92155 0.0
H966 H 0.17935 0.49908 0.90916 0.0
H967 H 0.25443 0.51273 0.84676 0.0
H968 H 0.20753 0.5371 0.83179 0.0
H969 H 0.09266 0.50406 0.87439 0.0
H970 H 0.06584 0.51426 0.90044 0.0
H971 H 0.10533 0.49788 0.90614 0.0
H972 H 0.13558 0.52319 0.93392 0.0
H973 H 0.09624 0.53965 0.92826 0.0
H974 H 0.14371 0.54665 0.92111 0.0
H975 H 0.15341 0.56081 0.82456 0.0
H976 H 0.09465 0.58106 0.82441 0.0
H977 H 0.05412 0.55106 0.8907 0.0
C978 C 0.18593 0.50717 0.89233 0.0
C979 C 0.2206 0.50405 0.87916 0.0
C980 C 0.22802 0.51486 0.85712 0.0
C981 C 0.2016 0.52875 0.84849 0.0
C982 C 0.16777 0.53153 0.86199 0.0
C983 C 0.15973 0.52094 0.88331 0.0
C984 C 0.12117 0.52659 0.89425 0.0
C985 C 0.09469 0.50969 0.89376 0.0
C986 C 0.12439 0.53449 0.92096 0.0
C987 C 0.10891 0.54216 0.87589 0.0
C988 C 0.13624 0.54484 0.85747 0.0
C989 C 0.1317 0.55876 0.83879 0.0
C990 C 0.09828 0.57022 0.8389 0.0
C991 C 0.06975 0.56759 0.85748 0.0
C992 C 0.07526 0.55333 0.87614 0.0
H993 H 0.58433 0.12003 0.78048 0.0
H994 H 0.67746 0.13535 0.73112 0.0
H995 H 0.68935 0.16298 0.75815 0.0
H996 H 0.55069 0.16841 0.79481 0.0
H997 H 0.5389 0.16261 0.82698 0.0
H998 H 0.53712 0.14456 0.80314 0.0
H999 H 0.58291 0.12249 0.82875 0.0
H1000 H 0.58502 0.14051 0.85257 0.0
H1001 H 0.62794 0.1312 0.83769 0.0
H1002 H 0.69226 0.18845 0.79176 0.0
H1003 H 0.68463 0.20996 0.82838 0.0
H1004 H 0.58972 0.17751 0.85516 0.0
C1005 C 0.60702 0.12928 0.77518 0.0
C1006 C 0.6299 0.12555 0.75364 0.0
C1007 C 0.65946 0.13796 0.7475 0.0
C1008 C 0.66648 0.15367 0.76275 0.0
C1009 C 0.64365 0.15679 0.78404 0.0
C1010 C 0.61441 0.14497 0.79016 0.0
C1011 C 0.5944 0.15116 0.81425 0.0
C1012 C 0.55282 0.15704 0.8095 0.0
C1013 C 0.59779 0.1354 0.8345 0.0
C1014 C 0.61702 0.16826 0.82082 0.0
C1015 C 0.64532 0.17133 0.80322 0.0
C1016 C 0.67008 0.18622 0.8056 0.0
C1017 C 0.66559 0.19833 0.82647 0.0
C1018 C 0.63657 0.19545 0.84462 0.0
C1019 C 0.61215 0.18017 0.84163 0.0
H1020 H 0.94029 0.63829 0.07912 0.0
H1021 H 0.88076 0.65344 0.14848 0.0
H1022 H 0.82196 0.64167 0.13131 0.0
H1023 H 0.85486 0.64665 0.03566 0.0
H1024 H 0.87028 0.62637 0.01691 0.0
H1025 H 0.90461 0.64096 0.03133 0.0
H1026 H 0.93459 0.61085 0.05282 0.0
H1027 H 0.90056 0.59618 0.03873 0.0
H1028 H 0.90536 0.59605 0.07237 0.0
H1029 H 0.7753 0.62115 0.1117 0.0
H1030 H 0.74476 0.59468 0.09087 0.0
H1031 H 0.83314 0.59335 0.03339 0.0
C1032 C 0.91453 0.63991 0.09029 0.0
C1033 C 0.91518 0.64675 0.11516 0.0
C1034 C 0.881 0.64831 0.12935 0.0
C1035 C 0.84735 0.64172 0.11969 0.0
C1036 C 0.84818 0.63392 0.09567 0.0
C1037 C 0.88076 0.63336 0.08091 0.0
C1038 C 0.87583 0.62177 0.05737 0.0
C1039 C 0.87642 0.63471 0.03393 0.0
C1040 C 0.90584 0.60524 0.05524 0.0
C1041 C 0.83673 0.61444 0.06231 0.0
C1042 C 0.82076 0.62207 0.08411 0.0
C1043 C 0.78702 0.61552 0.09424 0.0
C1044 C 0.76986 0.60042 0.08227 0.0
C1045 C 0.78634 0.59207 0.06034 0.0
C1046 C 0.81947 0.59968 0.04984 0.0
H1047 H 0.22258 0.85571 0.09171 0.0
H1048 H 0.22996 0.86777 0.01171 0.0
H1049 H 0.19745 0.89923 0.01864 0.0
H1050 H 0.12952 0.87784 0.10171 0.0
H1051 H 0.14043 0.88697 0.13217 0.0
H1052 H 0.16417 0.86539 0.12084 0.0
H1053 H 0.22896 0.88039 0.12752 0.0
H1054 H 0.20541 0.90205 0.13876 0.0
H1055 H 0.2387 0.90303 0.1128 0.0
H1056 H 0.16599 0.9298 0.03447 0.0
H1057 H 0.13464 0.95658 0.05777 0.0
H1058 H 0.14628 0.92415 0.12724 0.0
C1059 C 0.21729 0.86494 0.07563 0.0
C1060 C 0.22889 0.8593 0.05117 0.0
C1061 C 0.22127 0.87177 0.03062 0.0
C1062 C 0.20291 0.88969 0.03437 0.0
C1063 C 0.19211 0.89486 0.05874 0.0
C1064 C 0.19873 0.88279 0.079 0.0
C1065 C 0.18392 0.89171 0.10325 0.0
C1066 C 0.15265 0.87977 0.11519 0.0
C1067 C 0.21618 0.89446 0.12166 0.0
C1068 C 0.16817 0.91074 0.09349 0.0
C1069 C 0.17332 0.91231 0.06778 0.0
C1070 C 0.16164 0.92871 0.05458 0.0
C1071 C 0.14396 0.94386 0.068 0.0
C1072 C 0.13793 0.94245 0.09431 0.0
C1073 C 0.15033 0.92565 0.10713 0.0
H1074 H 0.32152 0.44659 0.10515 0.0
H1075 H 0.37134 0.41072 0.16365 0.0
H1076 H 0.43213 0.40964 0.14008 0.0
H1077 H 0.37587 0.42489 0.05114 0.0
H1078 H 0.38007 0.44781 0.03582 0.0
H1079 H 0.33916 0.44325 0.05528 0.0
H1080 H 0.35203 0.47316 0.0818 0.0
H1081 H 0.3929 0.47774 0.0625 0.0
H1082 H 0.39751 0.47512 0.09601 0.0
H1083 H 0.48924 0.41594 0.113 0.0
H1084 H 0.53796 0.42925 0.08487 0.0
H1085 H 0.45055 0.46092 0.0441 0.0
C1086 C 0.34489 0.43808 0.11274 0.0
C1087 C 0.34159 0.42865 0.13622 0.0
C1088 C 0.37312 0.41798 0.14565 0.0
C1089 C 0.40774 0.41724 0.13236 0.0
C1090 C 0.41028 0.42713 0.10958 0.0
C1091 C 0.37959 0.43725 0.09977 0.0
C1092 C 0.39051 0.44811 0.07618 0.0
C1093 C 0.37019 0.44056 0.05325 0.0
C1094 C 0.38279 0.46981 0.07933 0.0
C1095 C 0.43243 0.4431 0.07476 0.0
C1096 C 0.44323 0.43077 0.09397 0.0
C1097 C 0.48101 0.42533 0.09763 0.0
C1098 C 0.5085 0.43299 0.08158 0.0
C1099 C 0.49808 0.44604 0.06219 0.0
C1100 C 0.45943 0.45075 0.05846 0.0
H1101 H 0.2534 0.15151 0.09326 0.0
H1102 H 0.31274 0.10768 0.04875 0.0
H1103 H 0.32235 0.08801 0.08703 0.0
H1104 H 0.31179 0.14731 0.14698 0.0
H1105 H 0.27333 0.15115 0.16923 0.0
H1106 H 0.27046 0.16151 0.13824 0.0
H1107 H 0.20739 0.14486 0.13138 0.0
H1108 H 0.21006 0.13444 0.16236 0.0
H1109 H 0.20561 0.11928 0.13545 0.0
H1110 H 0.32698 0.07354 0.13053 0.0
H1111 H 0.32549 0.06525 0.17575 0.0
H1112 H 0.26231 0.11844 0.19134 0.0
C1113 C 0.26831 0.13775 0.09151 0.0
C1114 C 0.28234 0.13114 0.068 0.0
C1115 C 0.3017 0.11304 0.06656 0.0
C1116 C 0.3073 0.10176 0.08819 0.0
C1117 C 0.29322 0.10875 0.11108 0.0
C1118 C 0.27402 0.1263 0.11285 0.0
C1119 C 0.262 0.13062 0.13969 0.0
C1120 C 0.28051 0.14872 0.14908 0.0
C1121 C 0.2187 0.1324 0.14237 0.0
C1122 C 0.27767 0.11282 0.1528 0.0
C1123 C 0.29558 0.10037 0.136 0.0
C1124 C 0.3129 0.08315 0.14384 0.0
C1125 C 0.31198 0.07859 0.16956 0.0
C1126 C 0.29378 0.09119 0.18708 0.0
C1127 C 0.27628 0.10845 0.17844 0.0
H1128 H 0.85697 0.79777 0.47611 0.0
H1129 H 0.91478 0.77155 0.41171 0.0
H1130 H 0.89878 0.80024 0.38615 0.0
H1131 H 0.78069 0.8202 0.44264 0.0
H1132 H 0.77866 0.8415 0.46152 0.0
H1133 H 0.79532 0.81906 0.47487 0.0
H1134 H 0.85772 0.8344 0.48721 0.0
H1135 H 0.84124 0.85691 0.47389 0.0
H1136 H 0.88571 0.84604 0.46342 0.0
H1137 H 0.87526 0.83154 0.36734 0.0
H1138 H 0.8464 0.86325 0.3568 0.0
H1139 H 0.80455 0.86905 0.43363 0.0
C1140 C 0.86637 0.79805 0.45665 0.0
C1141 C 0.88711 0.78238 0.44592 0.0
C1142 C 0.89889 0.78337 0.42038 0.0
C1143 C 0.88994 0.79961 0.40569 0.0
C1144 C 0.86936 0.81477 0.41684 0.0
C1145 C 0.85781 0.81416 0.44175 0.0
C1146 C 0.83583 0.83233 0.44916 0.0
C1147 C 0.79522 0.828 0.45753 0.0
C1148 C 0.85636 0.84305 0.46963 0.0
C1149 C 0.83648 0.84316 0.42445 0.0
C1150 C 0.85602 0.83282 0.40606 0.0
C1151 C 0.86 0.8398 0.38161 0.0
C1152 C 0.84348 0.85783 0.37581 0.0
C1153 C 0.82324 0.86866 0.39438 0.0
C1154 C 0.81991 0.86117 0.41902 0.0
H1155 H 0.28284 0.83583 0.46027 0.0
H1156 H 0.24556 0.86381 0.39155 0.0
H1157 H 0.27275 0.89393 0.40533 0.0
H1158 H 0.26069 0.87562 0.50029 0.0
H1159 H 0.30071 0.87124 0.52023 0.0
H1160 H 0.28034 0.85163 0.50428 0.0
H1161 H 0.34566 0.84248 0.48413 0.0
H1162 H 0.36623 0.86209 0.49999 0.0
H1163 H 0.37063 0.86018 0.46632 0.0
H1164 H 0.30407 0.92095 0.42657 0.0
H1165 H 0.33296 0.94364 0.45511 0.0
H1166 H 0.34695 0.89845 0.51094 0.0
C1167 C 0.28068 0.84826 0.44804 0.0
C1168 C 0.26233 0.84747 0.42475 0.0
C1169 C 0.25952 0.86411 0.40945 0.0
C1170 C 0.275 0.88125 0.41707 0.0
C1171 C 0.29284 0.88155 0.44015 0.0
C1172 C 0.29546 0.86555 0.45552 0.0
C1173 C 0.31438 0.86995 0.47998 0.0
C1174 C 0.28741 0.86694 0.50252 0.0
C1175 C 0.35143 0.85796 0.48275 0.0
C1176 C 0.32189 0.89095 0.476 0.0
C1177 C 0.30968 0.8973 0.45278 0.0
C1178 C 0.31369 0.91615 0.44482 0.0
C1179 C 0.33023 0.92892 0.46114 0.0
C1180 C 0.34213 0.92284 0.48527 0.0
C1181 C 0.33804 0.90355 0.49264 0.0
H1182 H 0.9563 0.1477 0.60801 0.0
H1183 H 0.0099 0.16806 0.53941 0.0
H1184 H 0.99486 0.20146 0.55216 0.0
H1185 H 0.88005 0.18105 0.60837 0.0
H1186 H 0.87814 0.18391 0.64198 0.0
H1187 H 0.89639 0.16179 0.62864 0.0
H1188 H 0.95884 0.16497 0.65259 0.0
H1189 H 0.94073 0.18711 0.66609 0.0
H1190 H 0.98504 0.18643 0.64886 0.0
H1191 H 0.96954 0.23251 0.57105 0.0
H1192 H 0.93533 0.25868 0.59426 0.0
H1193 H 0.89922 0.21784 0.65046 0.0
C1194 C 0.96547 0.15917 0.59583 0.0
C1195 C 0.98449 0.15526 0.57278 0.0
C1196 C 0.99553 0.1707 0.55725 0.0
C1197 C 0.98714 0.18972 0.56434 0.0
C1198 C 0.96789 0.19305 0.58706 0.0
C1199 C 0.95731 0.17818 0.6026 0.0
C1200 C 0.935 0.18549 0.62531 0.0
C1201 C 0.89503 0.17759 0.6261 0.0
C1202 C 0.95618 0.18071 0.64965 0.0
C1203 C 0.93393 0.20677 0.61989 0.0
C1204 C 0.95339 0.2109 0.5979 0.0
C1205 C 0.95486 0.22954 0.58854 0.0
C1206 C 0.93582 0.24432 0.60197 0.0
C1207 C 0.9157 0.24035 0.62447 0.0
C1208 C 0.91484 0.22132 0.63346 0.0
H1209 H 0.02542 0.17462 0.43407 0.0
H1210 H 0.94667 0.18245 0.49695 0.0
H1211 H 0.9517 0.14767 0.50591 0.0
H1212 H 0.99348 0.1306 0.41225 0.0
H1213 H 0.04018 0.12091 0.40462 0.0
H1214 H 0.03079 0.14639 0.4038 0.0
H1215 H 0.08503 0.15109 0.43491 0.0
H1216 H 0.09467 0.12567 0.43597 0.0
H1217 H 0.08482 0.13851 0.4646 0.0
H1218 H 0.96387 0.11153 0.50664 0.0
H1219 H 0.98465 0.07763 0.50067 0.0
H1220 H 0.05382 0.09411 0.4366 0.0
C1221 C 0.00921 0.16909 0.44977 0.0
C1222 C 0.98545 0.18126 0.4647 0.0
C1223 C 0.96496 0.1734 0.48517 0.0
C1224 C 0.96762 0.15365 0.4904 0.0
C1225 C 0.99101 0.14204 0.47506 0.0
C1226 C 0.01156 0.14953 0.45525 0.0
C1227 C 0.03502 0.13416 0.44173 0.0
C1228 C 0.02419 0.13295 0.41396 0.0
C1229 C 0.07738 0.13756 0.44447 0.0
C1230 C 0.02347 0.11668 0.4564 0.0
C1231 C 0.99843 0.12149 0.47574 0.0
C1232 C 0.98384 0.10764 0.49175 0.0
C1233 C 0.99565 0.08842 0.48813 0.0
C1234 C 0.02118 0.08324 0.46831 0.0
C1235 C 0.03481 0.09761 0.45216 0.0
loop_
_geom_bond_atom_site_label_1
_geom_bond_atom_site_label_2
_geom_bond_distance
_geom_bond_site_symmetry_2
_ccdc_geom_bond_type
O0 Cd1 2.300 . S
O0 C7 1.275 . S
Cd1 O0 2.300 . S
Cd1 O9 2.381 . S
Cd1 O10 2.378 . S
O2 Cd3 2.385 . S
O2 C7 1.255 . S
Cd3 O2 2.385 . S
Cd3 O4 2.317 . S
O4 Cd3 2.317 . S
O4 C5 1.232 . S
C5 O4 1.232 . S
C5 O6 1.218 . S
O6 C5 1.218 . S
C7 O0 1.275 . S
C7 O2 1.255 . S
C8 O9 1.258 . S
C8 O10 1.256 . S
O9 Cd1 2.381 . S
O9 C8 1.258 . S
O10 Cd1 2.378 . S
O10 C8 1.256 . S
O11 Cd12 2.300 . S
O11 C18 1.275 . S
Cd12 O11 2.300 . S
Cd12 O20 2.381 . S
Cd12 O21 2.378 . S
O13 Cd14 2.385 . S
O13 C18 1.255 . S
Cd14 O13 2.385 . S
Cd14 O15 2.317 . S
O15 Cd14 2.317 . S
O15 C16 1.232 . S
C16 O15 1.232 . S
C16 O17 1.218 . S
O17 C16 1.218 . S
C18 O11 1.275 . S
C18 O13 1.255 . S
C19 O20 1.258 . S
C19 O21 1.256 . S
O20 Cd12 2.381 . S
O20 C19 1.258 . S
O21 Cd12 2.378 . S
O21 C19 1.256 . S
O22 Cd23 2.300 . S
O22 C29 1.275 . S
Cd23 O22 2.300 . S
Cd23 O31 2.381 . S
Cd23 O32 2.378 . S
O24 Cd25 2.385 . S
O24 C29 1.255 . S
Cd25 O24 2.385 . S
Cd25 O26 2.317 1_455 S
O26 Cd25 2.317 1_655 S
O26 C27 1.232 . S
C27 O26 1.232 . S
C27 O28 1.218 . S
O28 C27 1.218 . S
C29 O22 1.275 . S
C29 O24 1.255 . S
C30 O31 1.258 . S
C30 O32 1.256 . S
O31 Cd23 2.381 . S
O31 C30 1.258 . S
O32 Cd23 2.378 . S
O32 C30 1.256 . S
O33 Cd34 2.300 1_545 S
O33 C40 1.275 . S
Cd34 O33 2.300 1_565 S
Cd34 O42 2.381 . S
Cd34 O43 2.378 . S
O35 Cd36 2.385 1_545 S
O35 C40 1.255 . S
Cd36 O35 2.385 1_565 S
Cd36 O37 2.317 . S
O37 Cd36 2.317 . S
O37 C38 1.232 1_565 S
C38 O37 1.232 1_545 S
C38 O39 1.218 . S
O39 C38 1.218 . S
C40 O33 1.275 . S
C40 O35 1.255 . S
C41 O42 1.258 . S
C41 O43 1.256 . S
O42 Cd34 2.381 . S
O42 C41 1.258 . S
O43 Cd34 2.378 . S
O43 C41 1.256 . S
O44 Cd45 2.300 1_655 S
O44 C51 1.275 . S
Cd45 O44 2.300 1_455 S
Cd45 O53 2.381 . S
Cd45 O54 2.378 . S
O46 Cd47 2.385 . S
O46 C51 1.255 . S
Cd47 O46 2.385 . S
Cd47 O48 2.317 1_655 S
O48 Cd47 2.317 1_455 S
O48 C49 1.232 1_455 S
C49 O48 1.232 1_655 S
C49 O50 1.218 . S
O50 C49 1.218 . S
C51 O44 1.275 . S
C51 O46 1.255 . S
C52 O53 1.258 . S
C52 O54 1.256 . S
O53 Cd45 2.381 . S
O53 C52 1.258 . S
O54 Cd45 2.378 . S
O54 C52 1.256 . S
O55 Cd56 2.300 . S
O55 C62 1.275 . S
Cd56 O55 2.300 . S
Cd56 O64 2.381 . S
Cd56 O65 2.378 . S
O57 Cd58 2.385 . S
O57 C62 1.255 . S
Cd58 O57 2.385 . S
Cd58 O59 2.317 . S
O59 Cd58 2.317 . S
O59 C60 1.232 . S
C60 O59 1.232 . S
C60 O61 1.218 . S
O61 C60 1.218 . S
C62 O55 1.275 . S
C62 O57 1.255 . S
C63 O64 1.258 . S
C63 O65 1.256 . S
O64 Cd56 2.381 . S
O64 C63 1.258 . S
O65 Cd56 2.378 . S
O65 C63 1.256 . S
O66 Cd67 2.300 . S
O66 C73 1.275 . S
Cd67 O66 2.300 . S
Cd67 O75 2.381 . S
Cd67 O76 2.378 . S
O68 Cd69 2.385 . S
O68 C73 1.255 . S
Cd69 O68 2.385 . S
Cd69 O70 2.317 . S
O70 Cd69 2.317 . S
O70 C71 1.232 . S
C71 O70 1.232 . S
C71 O72 1.218 . S
O72 C71 1.218 . S
C73 O66 1.275 . S
C73 O68 1.255 . S
C74 O75 1.258 . S
C74 O76 1.256 . S
O75 Cd67 2.381 . S
O75 C74 1.258 . S
O76 Cd67 2.378 . S
O76 C74 1.256 . S
O77 Cd78 2.300 . S
O77 C84 1.275 . S
Cd78 O77 2.300 . S
Cd78 O86 2.381 . S
Cd78 O87 2.378 . S
O79 Cd80 2.385 . S
O79 C84 1.255 . S
Cd80 O79 2.385 . S
Cd80 O81 2.317 . S
O81 Cd80 2.317 . S
O81 C82 1.232 . S
C82 O81 1.232 . S
C82 O83 1.218 . S
O83 C82 1.218 . S
C84 O77 1.275 . S
C84 O79 1.255 . S
C85 O86 1.258 . S
C85 O87 1.256 . S
O86 Cd78 2.381 . S
O86 C85 1.258 . S
O87 Cd78 2.378 . S
O87 C85 1.256 . S
O88 Cd89 2.300 . S
O88 C95 1.275 . S
Cd89 O88 2.300 . S
Cd89 O97 2.381 . S
Cd89 O98 2.378 . S
O90 Cd91 2.385 . S
O90 C95 1.255 . S
Cd91 O90 2.385 . S
Cd91 O92 2.317 . S
O92 Cd91 2.317 . S
O92 C93 1.232 . S
C93 O92 1.232 . S
C93 O94 1.218 . S
O94 C93 1.218 . S
C95 O88 1.275 . S
C95 O90 1.255 . S
C96 O97 1.258 . S
C96 O98 1.256 . S
O97 Cd89 2.381 . S
O97 C96 1.258 . S
O98 Cd89 2.378 . S
O98 C96 1.256 . S
O99 Cd100 2.300 1_655 S
O99 C106 1.275 . S
Cd100 O99 2.300 1_455 S
Cd100 O108 2.381 . S
Cd100 O109 2.378 . S
O101 Cd102 2.385 . S
O101 C106 1.255 1_455 S
Cd102 O101 2.385 . S
Cd102 O103 2.317 . S
O103 Cd102 2.317 . S
O103 C104 1.223 1_455 S
C104 O103 1.223 1_655 S
C104 O105 1.216 1_655 S
O105 C104 1.216 1_455 S
C106 O99 1.275 . S
C106 O101 1.255 1_655 S
C107 O108 1.258 . S
C107 O109 1.256 . S
O108 Cd100 2.381 . S
O108 C107 1.258 . S
O109 Cd100 2.378 . S
O109 C107 1.256 . S
O110 Cd111 2.300 . S
O110 C117 1.275 . S
Cd111 O110 2.300 . S
Cd111 O119 2.381 . S
Cd111 O120 2.378 . S
O112 Cd113 2.385 . S
O112 C117 1.255 . S
Cd113 O112 2.385 . S
Cd113 O114 2.317 . S
O114 Cd113 2.317 . S
O114 C115 1.232 . S
C115 O114 1.232 . S
C115 O116 1.218 . S
O116 C115 1.218 . S
C117 O110 1.275 . S
C117 O112 1.255 . S
C118 O119 1.258 . S
C118 O120 1.256 . S
O119 Cd111 2.381 . S
O119 C118 1.258 . S
O120 Cd111 2.378 . S
O120 C118 1.256 . S
O121 Cd122 2.300 . S
O121 C128 1.275 . S
Cd122 O121 2.300 . S
Cd122 O130 2.381 . S
Cd122 O131 2.378 . S
O123 Cd124 2.385 . S
O123 C128 1.255 . S
Cd124 O123 2.385 . S
Cd124 O125 2.317 . S
O125 Cd124 2.317 . S
O125 C126 1.232 . S
C126 O125 1.232 . S
C126 O127 1.218 . S
O127 C126 1.218 . S
C128 O121 1.275 . S
C128 O123 1.255 . S
C129 O130 1.258 . S
C129 O131 1.256 . S
O130 Cd122 2.381 . S
O130 C129 1.258 . S
O131 Cd122 2.378 . S
O131 C129 1.256 . S
O132 Cd133 2.300 . S
O132 C139 1.275 . S
Cd133 O132 2.300 . S
Cd133 O141 2.381 . S
Cd133 O142 2.378 . S
O134 Cd135 2.383 . S
O134 C139 1.256 1_545 S
Cd135 O134 2.383 . S
Cd135 O136 2.317 1_545 S
O136 Cd135 2.317 1_565 S
O136 C137 1.232 1_565 S
C137 O136 1.232 1_545 S
C137 O138 1.218 . S
O138 C137 1.218 . S
C139 O132 1.275 . S
C139 O134 1.256 1_565 S
C140 O141 1.258 . S
C140 O142 1.256 . S
O141 Cd133 2.381 . S
O141 C140 1.258 . S
O142 Cd133 2.378 . S
O142 C140 1.256 . S
O143 Cd144 2.300 1_455 S
O143 C150 1.275 . S
Cd144 O143 2.300 1_655 S
Cd144 O152 2.381 . S
Cd144 O153 2.378 . S
O145 Cd146 2.385 . S
O145 C150 1.255 1_655 S
Cd146 O145 2.385 . S
Cd146 O147 2.317 . S
O147 Cd146 2.317 . S
O147 C148 1.232 1_655 S
C148 O147 1.232 1_455 S
C148 O149 1.218 . S
O149 C148 1.218 . S
C150 O143 1.275 . S
C150 O145 1.255 1_455 S
C151 O152 1.258 . S
C151 O153 1.256 . S
O152 Cd144 2.381 . S
O152 C151 1.258 . S
O153 Cd144 2.378 . S
O153 C151 1.256 . S
O154 Cd155 2.300 . S
O154 C161 1.275 . S
Cd155 O154 2.300 . S
Cd155 O163 2.381 1_655 S
Cd155 O164 2.378 1_655 S
O156 Cd157 2.385 . S
O156 C161 1.255 . S
Cd157 O156 2.385 . S
Cd157 O158 2.317 . S
O158 Cd157 2.317 . S
O158 C159 1.232 . S
C159 O158 1.232 . S
C159 O160 1.218 . S
O160 C159 1.218 . S
C161 O154 1.275 . S
C161 O156 1.255 . S
C162 O163 1.258 . S
C162 O164 1.256 . S
O163 Cd155 2.381 1_455 S
O163 C162 1.258 . S
O164 Cd155 2.378 1_455 S
O164 C162 1.256 . S
O165 Cd166 2.300 . S
O165 C172 1.275 . S
Cd166 O165 2.300 . S
Cd166 O174 2.381 . S
Cd166 O175 2.378 . S
O167 Cd168 2.385 . S
O167 C172 1.255 . S
Cd168 O167 2.385 . S
Cd168 O169 2.317 . S
O169 Cd168 2.317 . S
O169 C170 1.232 . S
C170 O169 1.232 . S
C170 O171 1.218 . S
O171 C170 1.218 . S
C172 O165 1.275 . S
C172 O167 1.255 . S
C173 O174 1.258 . S
C173 O175 1.256 . S
O174 Cd166 2.381 . S
O174 C173 1.258 . S
O175 Cd166 2.378 . S
O175 C173 1.256 . S
O176 Cd177 2.300 1_556 S
O176 C183 1.275 . S
Cd177 O176 2.300 1_554 S
Cd177 O185 2.381 . S
Cd177 O186 2.378 . S
O178 Cd179 2.385 1_556 S
O178 C183 1.255 . S
Cd179 O178 2.385 1_554 S
Cd179 O180 2.317 1_554 S
O180 Cd179 2.317 1_556 S
O180 C181 1.232 . S
C181 O180 1.232 . S
C181 O182 1.218 . S
O182 C181 1.218 . S
C183 O176 1.275 . S
C183 O178 1.255 . S
C184 O185 1.258 . S
C184 O186 1.256 . S
O185 Cd177 2.381 . S
O185 C184 1.258 . S
O186 Cd177 2.378 . S
O186 C184 1.256 . S
O187 Cd188 2.300 1_556 S
O187 C194 1.275 1_556 S
Cd188 O187 2.300 1_554 S
Cd188 O196 2.381 1_554 S
Cd188 O197 2.378 1_554 S
O189 Cd190 2.385 . S
O189 C194 1.255 . S
Cd190 O189 2.385 . S
Cd190 O191 2.317 . S
O191 Cd190 2.317 . S
O191 C192 1.232 . S
C192 O191 1.232 . S
C192 O193 1.218 . S
O193 C192 1.218 . S
C194 O187 1.275 1_554 S
C194 O189 1.255 . S
C195 O196 1.258 . S
C195 O197 1.256 . S
O196 Cd188 2.381 1_556 S
O196 C195 1.258 . S
O197 Cd188 2.378 1_556 S
O197 C195 1.256 . S
O198 Cd199 2.300 . S
O198 C205 1.275 . S
Cd199 O198 2.300 . S
Cd199 O207 2.381 . S
Cd199 O208 2.378 . S
O200 Cd201 2.385 . S
O200 C205 1.255 . S
Cd201 O200 2.385 . S
Cd201 O202 2.317 . S
O202 Cd201 2.317 . S
O202 C203 1.232 . S
C203 O202 1.232 . S
C203 O204 1.218 . S
O204 C203 1.218 . S
C205 O198 1.275 . S
C205 O200 1.255 . S
C206 O207 1.258 . S
C206 O208 1.256 . S
O207 Cd199 2.381 . S
O207 C206 1.258 . S
O208 Cd199 2.378 . S
O208 C206 1.256 . S
O209 Cd210 2.300 . S
O209 C216 1.275 . S
Cd210 O209 2.300 . S
Cd210 O218 2.381 . S
Cd210 O219 2.378 . S
O211 Cd212 2.385 . S
O211 C216 1.255 . S
Cd212 O211 2.385 . S
Cd212 O213 2.317 . S
O213 Cd212 2.317 . S
O213 C214 1.232 . S
C214 O213 1.232 . S
C214 O215 1.218 . S
O215 C214 1.218 . S
C216 O209 1.275 . S
C216 O211 1.255 . S
C217 O218 1.258 . S
C217 O219 1.256 . S
O218 Cd210 2.381 . S
O218 C217 1.258 . S
O219 Cd210 2.378 . S
O219 C217 1.256 . S
O220 Cd221 2.300 . S
O220 C227 1.275 . S
Cd221 O220 2.300 . S
Cd221 O229 2.381 . S
Cd221 O230 2.378 . S
O222 Cd223 2.385 . S
O222 C227 1.255 . S
Cd223 O222 2.385 . S
Cd223 O224 2.317 . S
O224 Cd223 2.317 . S
O224 C225 1.232 . S
C225 O224 1.232 . S
C225 O226 1.218 . S
O226 C225 1.218 . S
C227 O220 1.275 . S
C227 O222 1.255 . S
C228 O229 1.258 . S
C228 O230 1.256 . S
O229 Cd221 2.381 . S
O229 C228 1.258 . S
O230 Cd221 2.378 . S
O230 C228 1.256 . S
O231 Cd232 2.300 . S
O231 C238 1.275 . S
Cd232 O231 2.300 . S
Cd232 O240 2.381 . S
Cd232 O241 2.378 . S
O233 Cd234 2.385 1_554 S
O233 C238 1.255 . S
Cd234 O233 2.385 1_556 S
Cd234 O235 2.317 1_556 S
O235 Cd234 2.317 1_554 S
O235 C236 1.232 1_554 S
C236 O235 1.232 1_556 S
C236 O237 1.218 . S
O237 C236 1.218 . S
C238 O231 1.275 . S
C238 O233 1.255 . S
C239 O240 1.258 . S
C239 O241 1.256 . S
O240 Cd232 2.381 . S
O240 C239 1.258 . S
O241 Cd232 2.378 . S
O241 C239 1.256 . S
O242 Cd243 2.300 . S
O242 C249 1.275 . S
Cd243 O242 2.300 . S
Cd243 O251 2.381 . S
Cd243 O252 2.378 . S
O244 Cd245 2.385 . S
O244 C249 1.255 . S
Cd245 O244 2.385 . S
Cd245 O246 2.317 . S
O246 Cd245 2.317 . S
O246 C247 1.232 . S
C247 O246 1.232 . S
C247 O248 1.218 . S
O248 C247 1.218 . S
C249 O242 1.275 . S
C249 O244 1.255 . S
C250 O251 1.258 . S
C250 O252 1.256 . S
O251 Cd243 2.381 . S
O251 C250 1.258 . S
O252 Cd243 2.378 . S
O252 C250 1.256 . S
O253 Cd254 2.300 . S
O253 C260 1.275 . S
Cd254 O253 2.300 . S
Cd254 O262 2.381 . S
Cd254 O263 2.378 . S
O255 Cd256 2.385 . S
O255 C260 1.255 . S
Cd256 O255 2.385 . S
Cd256 O257 2.317 . S
O257 Cd256 2.317 . S
O257 C258 1.232 . S
C258 O257 1.232 . S
C258 O259 1.218 . S
O259 C258 1.218 . S
C260 O253 1.275 . S
C260 O255 1.255 . S
C261 O262 1.258 . S
C261 O263 1.256 . S
O262 Cd254 2.381 . S
O262 C261 1.258 . S
O263 Cd254 2.378 . S
O263 C261 1.256 . S
H264 C276 0.930 . S
H265 C278 0.930 . S
H266 C279 0.930 . S
H267 C283 0.959 . S
H268 C283 0.959 . S
H269 C283 0.961 . S
H270 C284 0.960 . S
H271 C284 0.961 . S
H272 C284 0.959 . S
H273 C287 0.929 . S
H274 C288 0.931 . S
H275 C290 0.930 . S
C276 H264 0.930 . S
C276 C277 1.399 . S
C276 C281 1.399 . S
C277 C276 1.399 . S
C277 C278 1.376 . S
C278 H265 0.930 . S
C278 C277 1.376 . S
C278 C279 1.388 . S
C279 H266 0.930 . S
C279 C278 1.388 . S
C279 C280 1.390 . S
C280 C279 1.390 . S
C280 C281 1.394 . S
C280 C286 1.465 . S
C281 C276 1.399 . S
C281 C280 1.394 . S
C281 C282 1.516 . S
C282 C281 1.516 . S
C282 C283 1.502 . S
C282 C284 1.561 . S
C282 C285 1.526 . S
C283 H267 0.959 . S
C283 H268 0.959 . S
C283 H269 0.961 . S
C283 C282 1.502 . S
C284 H270 0.960 . S
C284 H271 0.961 . S
C284 H272 0.959 . S
C284 C282 1.561 . S
C285 C282 1.526 . S
C285 C286 1.396 . S
C285 C290 1.390 . S
C286 C280 1.465 . S
C286 C285 1.396 . S
C286 C287 1.399 . S
C287 H273 0.929 . S
C287 C286 1.399 . S
C287 C288 1.385 . S
C288 H274 0.931 . S
C288 C287 1.385 . S
C288 C289 1.389 . S
C289 C288 1.389 . S
C289 C290 1.387 . S
C290 H275 0.930 . S
C290 C285 1.390 . S
C290 C289 1.387 . S
H291 C303 0.930 . S
H292 C305 0.930 . S
H293 C306 0.930 . S
H294 C310 0.959 . S
H295 C310 0.959 . S
H296 C310 0.961 . S
H297 C311 0.960 . S
H298 C311 0.961 . S
H299 C311 0.959 . S
H300 C314 0.929 . S
H301 C315 0.931 . S
H302 C317 0.930 . S
C303 H291 0.930 . S
C303 C304 1.399 . S
C303 C308 1.399 . S
C304 C303 1.399 . S
C304 C305 1.376 . S
C305 H292 0.930 . S
C305 C304 1.376 . S
C305 C306 1.388 . S
C306 H293 0.930 . S
C306 C305 1.388 . S
C306 C307 1.390 . S
C307 C306 1.390 . S
C307 C308 1.394 . S
C307 C313 1.465 . S
C308 C303 1.399 . S
C308 C307 1.394 . S
C308 C309 1.516 . S
C309 C308 1.516 . S
C309 C310 1.502 . S
C309 C311 1.561 . S
C309 C312 1.526 . S
C310 H294 0.959 . S
C310 H295 0.959 . S
C310 H296 0.961 . S
C310 C309 1.502 . S
C311 H297 0.960 . S
C311 H298 0.961 . S
C311 H299 0.959 . S
C311 C309 1.561 . S
C312 C309 1.526 . S
C312 C313 1.396 . S
C312 C317 1.390 . S
C313 C307 1.465 . S
C313 C312 1.396 . S
C313 C314 1.399 . S
C314 H300 0.929 . S
C314 C313 1.399 . S
C314 C315 1.385 . S
C315 H301 0.931 . S
C315 C314 1.385 . S
C315 C316 1.389 . S
C316 C315 1.389 . S
C316 C317 1.387 . S
C317 H302 0.930 . S
C317 C312 1.390 . S
C317 C316 1.387 . S
H318 C330 0.930 . S
H319 C332 0.930 . S
H320 C333 0.930 . S
H321 C337 0.959 . S
H322 C337 0.959 . S
H323 C337 0.961 . S
H324 C338 0.960 . S
H325 C338 0.961 . S
H326 C338 0.959 . S
H327 C341 0.929 . S
H328 C342 0.931 . S
H329 C344 0.930 . S
C330 H318 0.930 . S
C330 C331 1.399 . S
C330 C335 1.399 . S
C331 C330 1.399 . S
C331 C332 1.376 . S
C332 H319 0.930 . S
C332 C331 1.376 . S
C332 C333 1.388 . S
C333 H320 0.930 . S
C333 C332 1.388 . S
C333 C334 1.390 . S
C334 C333 1.390 . S
C334 C335 1.394 . S
C334 C340 1.465 . S
C335 C330 1.399 . S
C335 C334 1.394 . S
C335 C336 1.516 . S
C336 C335 1.516 . S
C336 C337 1.502 . S
C336 C338 1.561 . S
C336 C339 1.526 . S
C337 H321 0.959 . S
C337 H322 0.959 . S
C337 H323 0.961 . S
C337 C336 1.502 . S
C338 H324 0.960 . S
C338 H325 0.961 . S
C338 H326 0.959 . S
C338 C336 1.561 . S
C339 C336 1.526 . S
C339 C340 1.396 . S
C339 C344 1.390 . S
C340 C334 1.465 . S
C340 C339 1.396 . S
C340 C341 1.399 . S
C341 H327 0.929 . S
C341 C340 1.399 . S
C341 C342 1.385 . S
C342 H328 0.931 . S
C342 C341 1.385 . S
C342 C343 1.389 . S
C343 C342 1.389 . S
C343 C344 1.387 . S
C344 H329 0.930 . S
C344 C339 1.390 . S
C344 C343 1.387 . S
H345 C357 0.930 . S
H346 C359 0.930 . S
H347 C360 0.930 . S
H348 C364 0.959 1_545 S
H349 C364 0.959 . S
H350 C364 0.947 1_545 S
H351 C365 0.960 . S
H352 C365 0.961 . S
H353 C365 0.959 . S
H354 C368 0.929 . S
H355 C369 0.931 . S
H356 C371 0.930 . S
C357 H345 0.930 . S
C357 C358 1.399 . S
C357 C362 1.399 . S
C358 C357 1.399 . S
C358 C359 1.376 . S
C359 H346 0.930 . S
C359 C358 1.376 . S
C359 C360 1.388 . S
C360 H347 0.930 . S
C360 C359 1.388 . S
C360 C361 1.390 . S
C361 C360 1.390 . S
C361 C362 1.394 . S
C361 C367 1.465 . S
C362 C357 1.399 . S
C362 C361 1.394 . S
C362 C363 1.516 1_545 S
C363 C362 1.516 1_565 S
C363 C364 1.502 . S
C363 C365 1.561 . S
C363 C366 1.526 . S
C364 H348 0.959 1_565 S
C364 H349 0.959 . S
C364 H350 0.947 1_565 S
C364 C363 1.502 . S
C365 H351 0.960 . S
C365 H352 0.961 . S
C365 H353 0.959 . S
C365 C363 1.561 . S
C366 C363 1.526 . S
C366 C367 1.396 1_565 S
C366 C371 1.390 . S
C367 C361 1.465 . S
C367 C366 1.396 1_545 S
C367 C368 1.399 . S
C368 H354 0.929 . S
C368 C367 1.399 . S
C368 C369 1.385 1_545 S
C369 H355 0.931 . S
C369 C368 1.385 1_565 S
C369 C370 1.389 . S
C370 C369 1.389 . S
C370 C371 1.387 . S
C371 H356 0.930 . S
C371 C366 1.390 . S
C371 C370 1.387 . S
H372 C384 0.930 . S
H373 C386 0.930 . S
H374 C387 0.930 . S
H375 C391 0.959 1_565 S
H376 C391 0.959 . S
H377 C391 0.961 . S
H378 C392 0.960 . S
H379 C392 0.961 . S
H380 C392 0.959 . S
H381 C395 0.929 . S
H382 C396 0.931 . S
H383 C398 0.930 . S
C384 H372 0.930 . S
C384 C385 1.399 . S
C384 C389 1.399 . S
C385 C384 1.399 . S
C385 C386 1.376 . S
C386 H373 0.930 . S
C386 C385 1.376 . S
C386 C387 1.388 . S
C387 H374 0.930 . S
C387 C386 1.388 . S
C387 C388 1.390 . S
C388 C387 1.390 . S
C388 C389 1.394 . S
C388 C394 1.465 . S
C389 C384 1.399 . S
C389 C388 1.394 . S
C389 C390 1.516 . S
C390 C389 1.516 . S
C390 C391 1.502 . S
C390 C392 1.561 . S
C390 C393 1.526 . S
C391 H375 0.959 1_545 S
C391 H376 0.959 . S
C391 H377 0.961 . S
C391 C390 1.502 . S
C392 H378 0.960 . S
C392 H379 0.961 . S
C392 H380 0.959 . S
C392 C390 1.561 . S
C393 C390 1.526 . S
C393 C394 1.396 . S
C393 C398 1.390 . S
C394 C388 1.465 . S
C394 C393 1.396 . S
C394 C395 1.399 . S
C395 H381 0.929 . S
C395 C394 1.399 . S
C395 C396 1.385 . S
C396 H382 0.931 . S
C396 C395 1.385 . S
C396 C397 1.389 . S
C397 C396 1.389 . S
C397 C398 1.387 . S
C398 H383 0.930 . S
C398 C393 1.390 . S
C398 C397 1.387 . S
H399 C411 0.930 . S
H400 C413 0.930 . S
H401 C414 0.930 . S
H402 C418 0.959 . S
H403 C418 0.959 . S
H404 C418 0.961 . S
H405 C419 0.960 . S
H406 C419 0.961 . S
H407 C419 0.959 . S
H408 C422 0.929 . S
H409 C423 0.931 . S
H410 C425 0.930 . S
C411 H399 0.930 . S
C411 C412 1.399 . S
C411 C416 1.399 . S
C412 C411 1.399 . S
C412 C413 1.376 . S
C413 H400 0.930 . S
C413 C412 1.376 . S
C413 C414 1.388 . S
C414 H401 0.930 . S
C414 C413 1.388 . S
C414 C415 1.390 . S
C415 C414 1.390 . S
C415 C416 1.394 . S
C415 C421 1.465 . S
C416 C411 1.399 . S
C416 C415 1.394 . S
C416 C417 1.516 1_655 S
C417 C416 1.516 1_455 S
C417 C418 1.502 . S
C417 C419 1.561 1_455 S
C417 C420 1.526 . S
C418 H402 0.959 . S
C418 H403 0.959 . S
C418 H404 0.961 . S
C418 C417 1.502 . S
C419 H405 0.960 . S
C419 H406 0.961 . S
C419 H407 0.959 . S
C419 C417 1.561 1_655 S
C420 C417 1.526 . S
C420 C421 1.396 1_455 S
C420 C425 1.390 . S
C421 C415 1.465 . S
C421 C420 1.396 1_655 S
C421 C422 1.399 . S
C422 H408 0.929 . S
C422 C421 1.399 . S
C422 C423 1.385 1_655 S
C423 H409 0.931 . S
C423 C422 1.385 1_455 S
C423 C424 1.389 . S
C424 C423 1.389 . S
C424 C425 1.387 . S
C425 H410 0.930 . S
C425 C420 1.390 . S
C425 C424 1.387 . S
H426 C438 0.930 . S
H427 C440 0.930 . S
H428 C441 0.930 . S
H429 C445 0.959 . S
H430 C445 0.959 . S
H431 C445 0.961 . S
H432 C446 0.960 . S
H433 C446 0.961 . S
H434 C446 0.959 . S
H435 C449 0.929 . S
H436 C450 0.931 . S
H437 C452 0.930 . S
C438 H426 0.930 . S
C438 C439 1.399 . S
C438 C443 1.399 . S
C439 C438 1.399 . S
C439 C440 1.376 . S
C440 H427 0.930 . S
C440 C439 1.376 . S
C440 C441 1.388 . S
C441 H428 0.930 . S
C441 C440 1.388 . S
C441 C442 1.390 . S
C442 C441 1.390 . S
C442 C443 1.394 . S
C442 C448 1.465 . S
C443 C438 1.399 . S
C443 C442 1.394 . S
C443 C444 1.516 1_565 S
C444 C443 1.516 1_545 S
C444 C445 1.502 . S
C444 C446 1.561 . S
C444 C447 1.526 . S
C445 H429 0.959 . S
C445 H430 0.959 . S
C445 H431 0.961 . S
C445 C444 1.502 . S
C446 H432 0.960 . S
C446 H433 0.961 . S
C446 H434 0.959 . S
C446 C444 1.561 . S
C447 C444 1.526 . S
C447 C448 1.396 1_545 S
C447 C452 1.390 . S
C448 C442 1.465 . S
C448 C447 1.396 1_565 S
C448 C449 1.399 . S
C449 H435 0.929 . S
C449 C448 1.399 . S
C449 C450 1.385 . S
C450 H436 0.931 . S
C450 C449 1.385 . S
C450 C451 1.389 1_565 S
C451 C450 1.389 1_545 S
C451 C452 1.387 . S
C452 H437 0.930 . S
C452 C447 1.390 . S
C452 C451 1.387 . S
H453 C465 0.930 . S
H454 C467 0.930 . S
H455 C468 0.930 . S
H456 C472 0.959 1_655 S
H457 C472 0.959 1_655 S
H458 C472 0.961 . S
H459 C473 0.960 . S
H460 C473 0.961 . S
H461 C473 0.959 . S
H462 C476 0.929 . S
H463 C477 0.931 . S
H464 C479 0.930 . S
C465 H453 0.930 . S
C465 C466 1.399 . S
C465 C470 1.399 . S
C466 C465 1.399 . S
C466 C467 1.376 . S
C467 H454 0.930 . S
C467 C466 1.376 . S
C467 C468 1.388 . S
C468 H455 0.930 . S
C468 C467 1.388 . S
C468 C469 1.390 . S
C469 C468 1.390 . S
C469 C470 1.394 . S
C469 C475 1.465 . S
C470 C465 1.399 . S
C470 C469 1.394 . S
C470 C471 1.516 . S
C471 C470 1.516 . S
C471 C472 1.502 . S
C471 C473 1.561 . S
C471 C474 1.529 . S
C472 H456 0.959 1_455 S
C472 H457 0.959 1_455 S
C472 H458 0.961 . S
C472 C471 1.502 . S
C473 H459 0.960 . S
C473 H460 0.961 . S
C473 H461 0.959 . S
C473 C471 1.561 . S
C474 C471 1.529 . S
C474 C475 1.399 . S
C474 C479 1.385 1_455 S
C475 C469 1.465 . S
C475 C474 1.399 . S
C475 C476 1.399 . S
C476 H462 0.929 . S
C476 C475 1.399 . S
C476 C477 1.385 1_455 S
C477 H463 0.931 . S
C477 C476 1.385 1_655 S
C477 C478 1.389 . S
C478 C477 1.389 . S
C478 C479 1.387 . S
C479 H464 0.930 . S
C479 C474 1.385 1_655 S
C479 C478 1.387 . S
H480 C492 0.930 . S
H481 C494 0.930 1_554 S
H482 C495 0.930 1_554 S
H483 C499 0.959 . S
H484 C499 0.959 . S
H485 C499 0.961 . S
H486 C500 0.960 . S
H487 C500 0.961 . S
H488 C500 0.959 . S
H489 C503 0.929 . S
H490 C504 0.931 . S
H491 C506 0.930 . S
C492 H480 0.930 . S
C492 C493 1.399 . S
C492 C497 1.399 . S
C493 C492 1.399 . S
C493 C494 1.376 . S
C494 H481 0.930 1_556 S
C494 C493 1.376 . S
C494 C495 1.388 . S
C495 H482 0.930 1_556 S
C495 C494 1.388 . S
C495 C496 1.390 . S
C496 C495 1.390 . S
C496 C497 1.394 . S
C496 C502 1.465 . S
C497 C492 1.399 . S
C497 C496 1.394 . S
C497 C498 1.516 . S
C498 C497 1.516 . S
C498 C499 1.502 . S
C498 C500 1.561 . S
C498 C501 1.526 . S
C499 H483 0.959 . S
C499 H484 0.959 . S
C499 H485 0.961 . S
C499 C498 1.502 . S
C500 H486 0.960 . S
C500 H487 0.961 . S
C500 H488 0.959 . S
C500 C498 1.561 . S
C501 C498 1.526 . S
C501 C502 1.396 . S
C501 C506 1.390 . S
C502 C496 1.465 . S
C502 C501 1.396 . S
C502 C503 1.399 . S
C503 H489 0.929 . S
C503 C502 1.399 . S
C503 C504 1.385 . S
C504 H490 0.931 . S
C504 C503 1.385 . S
C504 C505 1.389 . S
C505 C504 1.389 . S
C505 C506 1.387 . S
C506 H491 0.930 . S
C506 C501 1.390 . S
C506 C505 1.387 . S
H507 C519 0.930 . S
H508 C521 0.930 . S
H509 C522 0.930 . S
H510 C526 0.959 . S
H511 C526 0.959 . S
H512 C526 0.961 . S
H513 C527 0.960 . S
H514 C527 0.961 . S
H515 C527 0.959 . S
H516 C530 0.929 . S
H517 C531 0.931 . S
H518 C533 0.930 . S
C519 H507 0.930 . S
C519 C520 1.399 . S
C519 C524 1.399 . S
C520 C519 1.399 . S
C520 C521 1.376 1_554 S
C521 H508 0.930 . S
C521 C520 1.376 1_556 S
C521 C522 1.388 . S
C522 H509 0.930 . S
C522 C521 1.388 . S
C522 C523 1.390 1_556 S
C523 C522 1.390 1_554 S
C523 C524 1.394 . S
C523 C529 1.465 . S
C524 C519 1.399 . S
C524 C523 1.394 . S
C524 C525 1.516 . S
C525 C524 1.516 . S
C525 C526 1.502 . S
C525 C527 1.561 . S
C525 C528 1.526 . S
C526 H510 0.959 . S
C526 H511 0.959 . S
C526 H512 0.961 . S
C526 C525 1.502 . S
C527 H513 0.960 . S
C527 H514 0.961 . S
C527 H515 0.959 . S
C527 C525 1.561 . S
C528 C525 1.526 . S
C528 C529 1.396 . S
C528 C533 1.390 . S
C529 C523 1.465 . S
C529 C528 1.396 . S
C529 C530 1.399 1_554 S
C530 H516 0.929 . S
C530 C529 1.399 1_556 S
C530 C531 1.385 . S
C531 H517 0.931 . S
C531 C530 1.385 . S
C531 C532 1.389 1_556 S
C532 C531 1.389 1_554 S
C532 C533 1.387 . S
C533 H518 0.930 . S
C533 C528 1.390 . S
C533 C532 1.387 . S
H534 C546 0.930 . S
H535 C548 0.930 . S
H536 C549 0.930 . S
H537 C553 0.959 . S
H538 C553 0.959 . S
H539 C553 0.961 . S
H540 C554 0.960 . S
H541 C554 0.961 . S
H542 C554 0.959 . S
H543 C557 0.929 . S
H544 C558 0.931 . S
H545 C560 0.930 . S
C546 H534 0.930 . S
C546 C547 1.399 . S
C546 C551 1.399 1_554 S
C547 C546 1.399 . S
C547 C548 1.376 . S
C548 H535 0.930 . S
C548 C547 1.376 . S
C548 C549 1.388 1_554 S
C549 H536 0.930 . S
C549 C548 1.388 1_556 S
C549 C550 1.390 . S
C550 C549 1.390 . S
C550 C551 1.394 . S
C550 C556 1.465 . S
C551 C546 1.399 1_556 S
C551 C550 1.394 . S
C551 C552 1.516 . S
C552 C551 1.516 . S
C552 C553 1.502 . S
C552 C554 1.561 . S
C552 C555 1.526 . S
C553 H537 0.959 . S
C553 H538 0.959 . S
C553 H539 0.961 . S
C553 C552 1.502 . S
C554 H540 0.960 . S
C554 H541 0.961 . S
C554 H542 0.959 . S
C554 C552 1.561 . S
C555 C552 1.526 . S
C555 C556 1.396 . S
C555 C560 1.390 . S
C556 C550 1.465 . S
C556 C555 1.396 . S
C556 C557 1.399 . S
C557 H543 0.929 . S
C557 C556 1.399 . S
C557 C558 1.385 . S
C558 H544 0.931 . S
C558 C557 1.385 . S
C558 C559 1.389 . S
C559 C558 1.389 . S
C559 C560 1.387 . S
C560 H545 0.930 . S
C560 C555 1.390 . S
C560 C559 1.387 . S
H561 C573 0.930 . S
H562 C575 0.930 . S
H563 C576 0.905 1_556 S
H564 C580 0.959 . S
H565 C580 0.959 . S
H566 C580 0.961 . S
H567 C581 0.960 . S
H568 C581 0.961 . S
H569 C581 0.959 . S
H570 C584 0.929 . S
H571 C585 0.931 . S
H572 C587 0.942 . S
C573 H561 0.930 . S
C573 C574 1.399 . S
C573 C578 1.399 . S
C574 C573 1.399 . S
C574 C575 1.376 . S
C575 H562 0.930 . S
C575 C574 1.376 . S
C575 C576 1.407 . S
C576 H563 0.905 1_554 S
C576 C575 1.407 . S
C576 C577 1.397 . S
C577 C576 1.397 . S
C577 C578 1.394 . S
C577 C583 1.465 1_554 S
C578 C573 1.399 . S
C578 C577 1.394 . S
C578 C579 1.516 . S
C579 C578 1.516 . S
C579 C580 1.502 . S
C579 C581 1.561 . S
C579 C582 1.526 . S
C580 H564 0.959 . S
C580 H565 0.959 . S
C580 H566 0.961 . S
C580 C579 1.502 . S
C581 H567 0.960 . S
C581 H568 0.961 . S
C581 H569 0.959 . S
C581 C579 1.561 . S
C582 C579 1.526 . S
C582 C583 1.396 1_554 S
C582 C587 1.397 . S
C583 C577 1.465 1_556 S
C583 C582 1.396 1_556 S
C583 C584 1.399 . S
C584 H570 0.929 . S
C584 C583 1.399 . S
C584 C585 1.385 . S
C585 H571 0.931 . S
C585 C584 1.385 . S
C585 C586 1.389 . S
C586 C585 1.389 . S
C586 C587 1.367 1_556 S
C587 H572 0.942 . S
C587 C582 1.397 . S
C587 C586 1.367 1_554 S
H588 C600 0.930 . S
H589 C602 0.930 . S
H590 C603 0.930 . S
H591 C607 0.959 . S
H592 C607 0.959 . S
H593 C607 0.961 . S
H594 C608 0.960 . S
H595 C608 0.961 . S
H596 C608 0.959 . S
H597 C611 0.929 . S
H598 C612 0.931 . S
H599 C614 0.919 1_565 S
C600 H588 0.930 . S
C600 C601 1.399 . S
C600 C605 1.399 . S
C601 C600 1.399 . S
C601 C602 1.376 1_455 S
C602 H589 0.930 . S
C602 C601 1.376 1_655 S
C602 C603 1.388 . S
C603 H590 0.930 . S
C603 C602 1.388 . S
C603 C604 1.390 . S
C604 C603 1.390 . S
C604 C605 1.394 1_655 S
C604 C610 1.465 . S
C605 C600 1.399 . S
C605 C604 1.394 1_455 S
C605 C606 1.516 . S
C606 C605 1.516 . S
C606 C607 1.502 . S
C606 C608 1.561 1_545 S
C606 C609 1.526 . S
C607 H591 0.959 . S
C607 H592 0.959 . S
C607 H593 0.961 . S
C607 C606 1.502 . S
C608 H594 0.960 . S
C608 H595 0.961 . S
C608 H596 0.959 . S
C608 C606 1.561 1_565 S
C609 C606 1.526 . S
C609 C610 1.396 1_455 S
C609 C614 1.390 . S
C610 C604 1.465 . S
C610 C609 1.396 1_655 S
C610 C611 1.399 . S
C611 H597 0.929 . S
C611 C610 1.399 . S
C611 C612 1.385 . S
C612 H598 0.931 . S
C612 C611 1.385 . S
C612 C613 1.389 1_655 S
C613 C612 1.389 1_455 S
C613 C614 1.387 . S
C614 H599 0.919 1_545 S
C614 C609 1.390 . S
C614 C613 1.387 . S
H615 C627 0.930 . S
H616 C629 0.930 . S
H617 C630 0.930 . S
H618 C634 0.959 . S
H619 C634 0.959 . S
H620 C634 0.961 . S
H621 C635 0.960 . S
H622 C635 0.961 . S
H623 C635 0.959 . S
H624 C638 0.929 . S
H625 C639 0.931 . S
H626 C641 0.930 . S
C627 H615 0.930 . S
C627 C628 1.399 . S
C627 C632 1.399 . S
C628 C627 1.399 . S
C628 C629 1.376 . S
C629 H616 0.930 . S
C629 C628 1.376 . S
C629 C630 1.388 . S
C630 H617 0.930 . S
C630 C629 1.388 . S
C630 C631 1.390 . S
C631 C630 1.390 . S
C631 C632 1.394 . S
C631 C637 1.465 . S
C632 C627 1.399 . S
C632 C631 1.394 . S
C632 C633 1.516 . S
C633 C632 1.516 . S
C633 C634 1.502 . S
C633 C635 1.561 . S
C633 C636 1.526 . S
C634 H618 0.959 . S
C634 H619 0.959 . S
C634 H620 0.961 . S
C634 C633 1.502 . S
C635 H621 0.960 . S
C635 H622 0.961 . S
C635 H623 0.959 . S
C635 C633 1.561 . S
C636 C633 1.526 . S
C636 C637 1.396 . S
C636 C641 1.390 . S
C637 C631 1.465 . S
C637 C636 1.396 . S
C637 C638 1.399 . S
C638 H624 0.929 . S
C638 C637 1.399 . S
C638 C639 1.385 . S
C639 H625 0.931 . S
C639 C638 1.385 . S
C639 C640 1.389 . S
C640 C639 1.389 . S
C640 C641 1.387 . S
C641 H626 0.930 . S
C641 C636 1.390 . S
C641 C640 1.387 . S
H642 C654 0.943 . S
H643 C656 0.930 . S
H644 C657 0.930 . S
H645 C661 0.959 . S
H646 C661 0.959 . S
H647 C661 0.961 . S
H648 C662 0.960 . S
H649 C662 0.961 . S
H650 C662 0.959 . S
H651 C665 0.929 . S
H652 C666 0.931 . S
H653 C668 0.930 . S
C654 H642 0.943 . S
C654 C655 1.354 1_545 S
C654 C659 1.434 . S
C655 C654 1.354 1_565 S
C655 C656 1.376 . S
C656 H643 0.930 . S
C656 C655 1.376 . S
C656 C657 1.388 . S
C657 H644 0.930 . S
C657 C656 1.388 . S
C657 C658 1.390 1_565 S
C658 C657 1.390 1_545 S
C658 C659 1.394 . S
C658 C664 1.465 . S
C659 C654 1.434 . S
C659 C658 1.394 . S
C659 C660 1.516 . S
C660 C659 1.516 . S
C660 C661 1.502 . S
C660 C662 1.561 . S
C660 C663 1.526 . S
C661 H645 0.959 . S
C661 H646 0.959 . S
C661 H647 0.961 . S
C661 C660 1.502 . S
C662 H648 0.960 . S
C662 H649 0.961 . S
C662 H650 0.959 . S
C662 C660 1.561 . S
C663 C660 1.526 . S
C663 C664 1.396 . S
C663 C668 1.390 . S
C664 C658 1.465 . S
C664 C663 1.396 . S
C664 C665 1.399 . S
C665 H651 0.929 . S
C665 C664 1.399 . S
C665 C666 1.385 . S
C666 H652 0.931 . S
C666 C665 1.385 . S
C666 C667 1.389 . S
C667 C666 1.389 . S
C667 C668 1.387 . S
C668 H653 0.930 . S
C668 C663 1.390 . S
C668 C667 1.387 . S
H669 C681 0.930 . S
H670 C683 0.930 . S
H671 C684 0.930 . S
H672 C688 0.959 . S
H673 C688 0.959 . S
H674 C688 0.961 . S
H675 C689 0.960 . S
H676 C689 0.961 . S
H677 C689 0.959 . S
H678 C692 0.929 . S
H679 C693 0.931 . S
H680 C695 0.930 . S
C681 H669 0.930 . S
C681 C682 1.399 . S
C681 C686 1.399 . S
C682 C681 1.399 . S
C682 C683 1.376 . S
C683 H670 0.930 . S
C683 C682 1.376 . S
C683 C684 1.388 . S
C684 H671 0.930 . S
C684 C683 1.388 . S
C684 C685 1.390 . S
C685 C684 1.390 . S
C685 C686 1.394 . S
C685 C691 1.465 . S
C686 C681 1.399 . S
C686 C685 1.394 . S
C686 C687 1.516 . S
C687 C686 1.516 . S
C687 C688 1.502 . S
C687 C689 1.561 . S
C687 C690 1.526 . S
C688 H672 0.959 . S
C688 H673 0.959 . S
C688 H674 0.961 . S
C688 C687 1.502 . S
C689 H675 0.960 . S
C689 H676 0.961 . S
C689 H677 0.959 . S
C689 C687 1.561 . S
C690 C687 1.526 . S
C690 C691 1.396 . S
C690 C695 1.390 . S
C691 C685 1.465 . S
C691 C690 1.396 . S
C691 C692 1.399 . S
C692 H678 0.929 . S
C692 C691 1.399 . S
C692 C693 1.385 . S
C693 H679 0.931 . S
C693 C692 1.385 . S
C693 C694 1.389 . S
C694 C693 1.389 . S
C694 C695 1.387 . S
C695 H680 0.930 . S
C695 C690 1.390 . S
C695 C694 1.387 . S
H696 C708 0.930 . S
H697 C710 0.930 . S
H698 C711 0.930 . S
H699 C715 0.959 . S
H700 C715 0.959 1_565 S
H701 C715 0.961 . S
H702 C716 0.960 . S
H703 C716 0.961 . S
H704 C716 0.959 1_545 S
H705 C719 0.929 . S
H706 C720 0.931 . S
H707 C722 0.930 1_565 S
C708 H696 0.930 . S
C708 C709 1.399 . S
C708 C713 1.399 . S
C709 C708 1.399 . S
C709 C710 1.376 . S
C710 H697 0.930 . S
C710 C709 1.376 . S
C710 C711 1.388 . S
C711 H698 0.930 . S
C711 C710 1.388 . S
C711 C712 1.390 . S
C712 C711 1.390 . S
C712 C713 1.394 . S
C712 C718 1.465 . S
C713 C708 1.399 . S
C713 C712 1.394 . S
C713 C714 1.516 . S
C714 C713 1.516 . S
C714 C715 1.502 . S
C714 C716 1.561 1_545 S
C714 C717 1.526 . S
C715 H699 0.959 . S
C715 H700 0.959 1_545 S
C715 H701 0.961 . S
C715 C714 1.502 . S
C716 H702 0.960 . S
C716 H703 0.961 . S
C716 H704 0.959 1_565 S
C716 C714 1.561 1_565 S
C717 C714 1.526 . S
C717 C718 1.396 . S
C717 C722 1.390 . S
C718 C712 1.465 . S
C718 C717 1.396 . S
C718 C719 1.399 . S
C719 H705 0.929 . S
C719 C718 1.399 . S
C719 C720 1.385 . S
C720 H706 0.931 . S
C720 C719 1.385 . S
C720 C721 1.389 . S
C721 C720 1.389 . S
C721 C722 1.387 . S
C722 H707 0.930 1_545 S
C722 C717 1.390 . S
C722 C721 1.387 . S
H723 C735 0.930 . S
H724 C737 0.930 . S
H725 C738 0.930 . S
H726 C742 0.959 . S
H727 C742 0.959 . S
H728 C742 0.961 . S
H729 C743 0.960 . S
H730 C743 0.961 . S
H731 C743 0.959 . S
H732 C746 0.929 . S
H733 C747 0.931 . S
H734 C749 0.930 . S
C735 H723 0.930 . S
C735 C736 1.399 . S
C735 C740 1.399 . S
C736 C735 1.399 . S
C736 C737 1.376 . S
C737 H724 0.930 . S
C737 C736 1.376 . S
C737 C738 1.388 . S
C738 H725 0.930 . S
C738 C737 1.388 . S
C738 C739 1.390 . S
C739 C738 1.390 . S
C739 C740 1.394 . S
C739 C745 1.465 . S
C740 C735 1.399 . S
C740 C739 1.394 . S
C740 C741 1.516 . S
C741 C740 1.516 . S
C741 C742 1.502 . S
C741 C743 1.561 . S
C741 C744 1.526 . S
C742 H726 0.959 . S
C742 H727 0.959 . S
C742 H728 0.961 . S
C742 C741 1.502 . S
C743 H729 0.960 . S
C743 H730 0.961 . S
C743 H731 0.959 . S
C743 C741 1.561 . S
C744 C741 1.526 . S
C744 C745 1.396 . S
C744 C749 1.390 . S
C745 C739 1.465 . S
C745 C744 1.396 . S
C745 C746 1.399 . S
C746 H732 0.929 . S
C746 C745 1.399 . S
C746 C747 1.385 . S
C747 H733 0.931 . S
C747 C746 1.385 . S
C747 C748 1.389 . S
C748 C747 1.389 . S
C748 C749 1.387 . S
C749 H734 0.930 . S
C749 C744 1.390 . S
C749 C748 1.387 . S
H750 C762 0.930 . S
H751 C764 0.930 . S
H752 C765 0.930 . S
H753 C769 0.959 . S
H754 C769 0.959 . S
H755 C769 0.961 . S
H756 C770 0.960 . S
H757 C770 0.961 . S
H758 C770 0.959 . S
H759 C773 0.929 . S
H760 C774 0.931 . S
H761 C776 0.950 . S
C762 H750 0.930 . S
C762 C763 1.399 . S
C762 C767 1.399 . S
C763 C762 1.399 . S
C763 C764 1.376 . S
C764 H751 0.930 . S
C764 C763 1.376 . S
C764 C765 1.388 . S
C765 H752 0.930 . S
C765 C764 1.388 . S
C765 C766 1.390 . S
C766 C765 1.390 . S
C766 C767 1.394 . S
C766 C772 1.465 . S
C767 C762 1.399 . S
C767 C766 1.394 . S
C767 C768 1.516 . S
C768 C767 1.516 . S
C768 C769 1.502 1_655 S
C768 C770 1.561 . S
C768 C771 1.526 . S
C769 H753 0.959 . S
C769 H754 0.959 . S
C769 H755 0.961 . S
C769 C768 1.502 1_455 S
C770 H756 0.960 . S
C770 H757 0.961 . S
C770 H758 0.959 . S
C770 C768 1.561 . S
C771 C768 1.526 . S
C771 C772 1.396 . S
C771 C776 1.377 1_655 S
C772 C766 1.465 . S
C772 C771 1.396 . S
C772 C773 1.399 1_565 S
C773 H759 0.929 . S
C773 C772 1.399 1_545 S
C773 C774 1.385 . S
C774 H760 0.931 . S
C774 C773 1.385 . S
C774 C775 1.389 . S
C775 C774 1.389 . S
C775 C776 1.379 1_645 S
C776 H761 0.950 . S
C776 C771 1.377 1_455 S
C776 C775 1.379 1_465 S
H777 C789 0.930 . S
H778 C791 0.930 . S
H779 C792 0.930 . S
H780 C796 0.959 . S
H781 C796 0.959 . S
H782 C796 0.961 . S
H783 C797 0.960 . S
H784 C797 0.961 . S
H785 C797 0.959 . S
H786 C800 0.929 . S
H787 C801 0.931 . S
H788 C803 0.930 . S
C789 H777 0.930 . S
C789 C790 1.399 . S
C789 C794 1.399 . S
C790 C789 1.399 . S
C790 C791 1.376 . S
C791 H778 0.930 . S
C791 C790 1.376 . S
C791 C792 1.388 . S
C792 H779 0.930 . S
C792 C791 1.388 . S
C792 C793 1.390 . S
C793 C792 1.390 . S
C793 C794 1.394 . S
C793 C799 1.465 . S
C794 C789 1.399 . S
C794 C793 1.394 . S
C794 C795 1.516 . S
C795 C794 1.516 . S
C795 C796 1.502 . S
C795 C797 1.561 . S
C795 C798 1.526 . S
C796 H780 0.959 . S
C796 H781 0.959 . S
C796 H782 0.961 . S
C796 C795 1.502 . S
C797 H783 0.960 . S
C797 H784 0.961 . S
C797 H785 0.959 . S
C797 C795 1.561 . S
C798 C795 1.526 . S
C798 C799 1.396 . S
C798 C803 1.390 . S
C799 C793 1.465 . S
C799 C798 1.396 . S
C799 C800 1.399 . S
C800 H786 0.929 . S
C800 C799 1.399 . S
C800 C801 1.385 . S
C801 H787 0.931 . S
C801 C800 1.385 . S
C801 C802 1.389 . S
C802 C801 1.389 . S
C802 C803 1.387 . S
C803 H788 0.930 . S
C803 C798 1.390 . S
C803 C802 1.387 . S
H804 C816 0.930 . S
H805 C818 0.930 . S
H806 C819 0.930 . S
H807 C823 0.959 . S
H808 C823 0.959 . S
H809 C823 0.961 . S
H810 C824 0.960 . S
H811 C824 0.961 . S
H812 C824 0.959 . S
H813 C827 0.929 . S
H814 C828 0.931 . S
H815 C830 0.930 . S
C816 H804 0.930 . S
C816 C817 1.399 . S
C816 C821 1.399 . S
C817 C816 1.399 . S
C817 C818 1.376 . S
C818 H805 0.930 . S
C818 C817 1.376 . S
C818 C819 1.388 . S
C819 H806 0.930 . S
C819 C818 1.388 . S
C819 C820 1.390 . S
C820 C819 1.390 . S
C820 C821 1.394 . S
C820 C826 1.465 . S
C821 C816 1.399 . S
C821 C820 1.394 . S
C821 C822 1.516 . S
C822 C821 1.516 . S
C822 C823 1.502 . S
C822 C824 1.561 . S
C822 C825 1.526 . S
C823 H807 0.959 . S
C823 H808 0.959 . S
C823 H809 0.961 . S
C823 C822 1.502 . S
C824 H810 0.960 . S
C824 H811 0.961 . S
C824 H812 0.959 . S
C824 C822 1.561 . S
C825 C822 1.526 . S
C825 C826 1.396 . S
C825 C830 1.390 . S
C826 C820 1.465 . S
C826 C825 1.396 . S
C826 C827 1.399 . S
C827 H813 0.929 . S
C827 C826 1.399 . S
C827 C828 1.385 . S
C828 H814 0.931 . S
C828 C827 1.385 . S
C828 C829 1.389 . S
C829 C828 1.389 . S
C829 C830 1.387 . S
C830 H815 0.930 . S
C830 C825 1.390 . S
C830 C829 1.387 . S
H831 C843 0.930 1_554 S
H832 C845 0.930 . S
H833 C846 0.930 . S
H834 C850 0.959 . S
H835 C850 0.959 . S
H836 C850 0.961 . S
H837 C851 0.960 . S
H838 C851 0.961 . S
H839 C851 0.959 . S
H840 C854 0.929 . S
H841 C855 0.931 . S
H842 C857 0.930 . S
C843 H831 0.930 1_556 S
C843 C844 1.399 . S
C843 C848 1.399 1_556 S
C844 C843 1.399 . S
C844 C845 1.376 . S
C845 H832 0.930 . S
C845 C844 1.376 . S
C845 C846 1.388 . S
C846 H833 0.930 . S
C846 C845 1.388 . S
C846 C847 1.390 . S
C847 C846 1.390 . S
C847 C848 1.394 1_556 S
C847 C853 1.452 1_556 S
C848 C843 1.399 1_554 S
C848 C847 1.394 1_554 S
C848 C849 1.516 . S
C849 C848 1.516 . S
C849 C850 1.502 . S
C849 C851 1.561 . S
C849 C852 1.526 . S
C850 H834 0.959 . S
C850 H835 0.959 . S
C850 H836 0.961 . S
C850 C849 1.502 . S
C851 H837 0.960 . S
C851 H838 0.961 . S
C851 H839 0.959 . S
C851 C849 1.561 . S
C852 C849 1.526 . S
C852 C853 1.421 . S
C852 C857 1.390 . S
C853 C847 1.452 1_554 S
C853 C852 1.421 . S
C853 C854 1.391 1_554 S
C854 H840 0.929 . S
C854 C853 1.391 1_556 S
C854 C855 1.385 1_556 S
C855 H841 0.931 . S
C855 C854 1.385 1_554 S
C855 C856 1.389 . S
C856 C855 1.389 . S
C856 C857 1.387 . S
C857 H842 0.930 . S
C857 C852 1.390 . S
C857 C856 1.387 . S
H858 C870 0.930 . S
H859 C872 0.930 . S
H860 C873 0.930 . S
H861 C877 0.959 . S
H862 C877 0.959 . S
H863 C877 0.961 . S
H864 C878 0.960 . S
H865 C878 0.961 . S
H866 C878 0.959 . S
H867 C881 0.929 . S
H868 C882 0.931 . S
H869 C884 0.930 . S
C870 H858 0.930 . S
C870 C871 1.399 . S
C870 C875 1.399 . S
C871 C870 1.399 . S
C871 C872 1.376 . S
C872 H859 0.930 . S
C872 C871 1.376 . S
C872 C873 1.388 . S
C873 H860 0.930 . S
C873 C872 1.388 . S
C873 C874 1.390 . S
C874 C873 1.390 . S
C874 C875 1.394 . S
C874 C880 1.465 . S
C875 C870 1.399 . S
C875 C874 1.394 . S
C875 C876 1.516 . S
C876 C875 1.516 . S
C876 C877 1.502 . S
C876 C878 1.561 1_556 S
C876 C879 1.526 . S
C877 H861 0.959 . S
C877 H862 0.959 . S
C877 H863 0.961 . S
C877 C876 1.502 . S
C878 H864 0.960 . S
C878 H865 0.961 . S
C878 H866 0.959 . S
C878 C876 1.561 1_554 S
C879 C876 1.526 . S
C879 C880 1.396 . S
C879 C884 1.390 1_556 S
C880 C874 1.465 . S
C880 C879 1.396 . S
C880 C881 1.399 . S
C881 H867 0.929 . S
C881 C880 1.399 . S
C881 C882 1.385 . S
C882 H868 0.931 . S
C882 C881 1.385 . S
C882 C883 1.389 1_556 S
C883 C882 1.389 1_554 S
C883 C884 1.387 . S
C884 H869 0.930 . S
C884 C879 1.390 1_554 S
C884 C883 1.387 . S
H885 C897 0.930 . S
H886 C899 0.930 . S
H887 C900 0.930 . S
H888 C904 0.959 . S
H889 C904 0.959 1_556 S
H890 C904 0.961 1_556 S
H891 C905 0.960 . S
H892 C905 0.961 . S
H893 C905 0.959 . S
H894 C908 0.929 . S
H895 C909 0.931 . S
H896 C911 0.930 . S
C897 H885 0.930 . S
C897 C898 1.399 . S
C897 C902 1.399 . S
C898 C897 1.399 . S
C898 C899 1.376 . S
C899 H886 0.930 . S
C899 C898 1.376 . S
C899 C900 1.388 . S
C900 H887 0.930 . S
C900 C899 1.388 . S
C900 C901 1.390 . S
C901 C900 1.390 . S
C901 C902 1.394 . S
C901 C907 1.465 . S
C902 C897 1.399 . S
C902 C901 1.394 . S
C902 C903 1.516 . S
C903 C902 1.516 . S
C903 C904 1.502 . S
C903 C905 1.561 1_554 S
C903 C906 1.526 . S
C904 H888 0.959 . S
C904 H889 0.959 1_554 S
C904 H890 0.961 1_554 S
C904 C903 1.502 . S
C905 H891 0.960 . S
C905 H892 0.961 . S
C905 H893 0.959 . S
C905 C903 1.561 1_556 S
C906 C903 1.526 . S
C906 C907 1.396 . S
C906 C911 1.390 . S
C907 C901 1.465 . S
C907 C906 1.396 . S
C907 C908 1.399 . S
C908 H894 0.929 . S
C908 C907 1.399 . S
C908 C909 1.385 . S
C909 H895 0.931 . S
C909 C908 1.385 . S
C909 C910 1.389 . S
C910 C909 1.389 . S
C910 C911 1.387 . S
C911 H896 0.930 . S
C911 C906 1.390 . S
C911 C910 1.387 . S
H912 C924 0.930 . S
H913 C926 0.930 . S
H914 C927 0.930 . S
H915 C931 0.959 . S
H916 C931 0.959 . S
H917 C931 0.961 . S
H918 C932 0.960 . S
H919 C932 0.961 . S
H920 C932 0.959 . S
H921 C935 0.929 . S
H922 C936 0.931 . S
H923 C938 0.930 . S
C924 H912 0.930 . S
C924 C925 1.399 . S
C924 C929 1.399 . S
C925 C924 1.399 . S
C925 C926 1.376 . S
C926 H913 0.930 . S
C926 C925 1.376 . S
C926 C927 1.388 . S
C927 H914 0.930 . S
C927 C926 1.388 . S
C927 C928 1.390 . S
C928 C927 1.390 . S
C928 C929 1.394 . S
C928 C934 1.465 . S
C929 C924 1.399 . S
C929 C928 1.394 . S
C929 C930 1.516 . S
C930 C929 1.516 . S
C930 C931 1.502 . S
C930 C932 1.561 . S
C930 C933 1.526 . S
C931 H915 0.959 . S
C931 H916 0.959 . S
C931 H917 0.961 . S
C931 C930 1.502 . S
C932 H918 0.960 . S
C932 H919 0.961 . S
C932 H920 0.959 . S
C932 C930 1.561 . S
C933 C930 1.526 . S
C933 C934 1.396 . S
C933 C938 1.390 . S
C934 C928 1.465 . S
C934 C933 1.396 . S
C934 C935 1.399 . S
C935 H921 0.929 . S
C935 C934 1.399 . S
C935 C936 1.385 . S
C936 H922 0.931 . S
C936 C935 1.385 . S
C936 C937 1.389 . S
C937 C936 1.389 . S
C937 C938 1.387 . S
C938 H923 0.930 . S
C938 C933 1.390 . S
C938 C937 1.387 . S
H939 C951 0.930 . S
H940 C953 0.930 . S
H941 C954 0.930 . S
H942 C958 0.959 . S
H943 C958 0.959 . S
H944 C958 0.961 . S
H945 C959 0.960 . S
H946 C959 0.961 . S
H947 C959 0.959 . S
H948 C962 0.929 . S
H949 C963 0.931 . S
H950 C965 0.930 . S
C951 H939 0.930 . S
C951 C952 1.399 . S
C951 C956 1.399 . S
C952 C951 1.399 . S
C952 C953 1.376 . S
C953 H940 0.930 . S
C953 C952 1.376 . S
C953 C954 1.388 . S
C954 H941 0.930 . S
C954 C953 1.388 . S
C954 C955 1.390 . S
C955 C954 1.390 . S
C955 C956 1.394 . S
C955 C961 1.465 . S
C956 C951 1.399 . S
C956 C955 1.394 . S
C956 C957 1.516 . S
C957 C956 1.516 . S
C957 C958 1.502 . S
C957 C959 1.561 . S
C957 C960 1.526 . S
C958 H942 0.959 . S
C958 H943 0.959 . S
C958 H944 0.961 . S
C958 C957 1.502 . S
C959 H945 0.960 . S
C959 H946 0.961 . S
C959 H947 0.959 . S
C959 C957 1.561 . S
C960 C957 1.526 . S
C960 C961 1.396 . S
C960 C965 1.390 . S
C961 C955 1.465 . S
C961 C960 1.396 . S
C961 C962 1.399 . S
C962 H948 0.929 . S
C962 C961 1.399 . S
C962 C963 1.385 . S
C963 H949 0.931 . S
C963 C962 1.385 . S
C963 C964 1.389 . S
C964 C963 1.389 . S
C964 C965 1.387 . S
C965 H950 0.930 . S
C965 C960 1.390 . S
C965 C964 1.387 . S
H966 C978 0.930 . S
H967 C980 0.930 . S
H968 C981 0.930 . S
H969 C985 0.959 . S
H970 C985 0.959 . S
H971 C985 0.961 . S
H972 C986 0.960 . S
H973 C986 0.961 . S
H974 C986 0.959 . S
H975 C989 0.929 . S
H976 C990 0.931 . S
H977 C992 0.930 . S
C978 H966 0.930 . S
C978 C979 1.399 . S
C978 C983 1.399 . S
C979 C978 1.399 . S
C979 C980 1.376 . S
C980 H967 0.930 . S
C980 C979 1.376 . S
C980 C981 1.388 . S
C981 H968 0.930 . S
C981 C980 1.388 . S
C981 C982 1.390 . S
C982 C981 1.390 . S
C982 C983 1.394 . S
C982 C988 1.465 . S
C983 C978 1.399 . S
C983 C982 1.394 . S
C983 C984 1.516 . S
C984 C983 1.516 . S
C984 C985 1.502 . S
C984 C986 1.561 . S
C984 C987 1.526 . S
C985 H969 0.959 . S
C985 H970 0.959 . S
C985 H971 0.961 . S
C985 C984 1.502 . S
C986 H972 0.960 . S
C986 H973 0.961 . S
C986 H974 0.959 . S
C986 C984 1.561 . S
C987 C984 1.526 . S
C987 C988 1.396 . S
C987 C992 1.390 . S
C988 C982 1.465 . S
C988 C987 1.396 . S
C988 C989 1.399 . S
C989 H975 0.929 . S
C989 C988 1.399 . S
C989 C990 1.385 . S
C990 H976 0.931 . S
C990 C989 1.385 . S
C990 C991 1.389 . S
C991 C990 1.389 . S
C991 C992 1.387 . S
C992 H977 0.930 . S
C992 C987 1.390 . S
C992 C991 1.387 . S
H993 C1005 0.930 . S
H994 C1007 0.930 . S
H995 C1008 0.930 . S
H996 C1012 0.959 . S
H997 C1012 0.959 . S
H998 C1012 0.961 . S
H999 C1013 0.960 . S
H1000 C1013 0.961 . S
H1001 C1013 0.959 . S
H1002 C1016 0.929 . S
H1003 C1017 0.931 . S
H1004 C1019 0.930 . S
C1005 H993 0.930 . S
C1005 C1006 1.399 . S
C1005 C1010 1.399 . S
C1006 C1005 1.399 . S
C1006 C1007 1.376 . S
C1007 H994 0.930 . S
C1007 C1006 1.376 . S
C1007 C1008 1.388 . S
C1008 H995 0.930 . S
C1008 C1007 1.388 . S
C1008 C1009 1.390 . S
C1009 C1008 1.390 . S
C1009 C1010 1.394 . S
C1009 C1015 1.465 . S
C1010 C1005 1.399 . S
C1010 C1009 1.394 . S
C1010 C1011 1.516 . S
C1011 C1010 1.516 . S
C1011 C1012 1.502 . S
C1011 C1013 1.561 . S
C1011 C1014 1.526 . S
C1012 H996 0.959 . S
C1012 H997 0.959 . S
C1012 H998 0.961 . S
C1012 C1011 1.502 . S
C1013 H999 0.960 . S
C1013 H1000 0.961 . S
C1013 H1001 0.959 . S
C1013 C1011 1.561 . S
C1014 C1011 1.526 . S
C1014 C1015 1.396 . S
C1014 C1019 1.390 . S
C1015 C1009 1.465 . S
C1015 C1014 1.396 . S
C1015 C1016 1.399 . S
C1016 H1002 0.929 . S
C1016 C1015 1.399 . S
C1016 C1017 1.385 . S
C1017 H1003 0.931 . S
C1017 C1016 1.385 . S
C1017 C1018 1.389 . S
C1018 C1017 1.389 . S
C1018 C1019 1.387 . S
C1019 H1004 0.930 . S
C1019 C1014 1.390 . S
C1019 C1018 1.387 . S
H1020 C1032 0.930 . S
H1021 C1034 0.930 . S
H1022 C1035 0.930 . S
H1023 C1039 0.959 . S
H1024 C1039 0.959 . S
H1025 C1039 0.961 . S
H1026 C1040 0.960 . S
H1027 C1040 0.961 . S
H1028 C1040 0.959 . S
H1029 C1043 0.929 . S
H1030 C1044 0.931 . S
H1031 C1046 0.930 . S
C1032 H1020 0.930 . S
C1032 C1033 1.399 . S
C1032 C1037 1.399 . S
C1033 C1032 1.399 . S
C1033 C1034 1.376 . S
C1034 H1021 0.930 . S
C1034 C1033 1.376 . S
C1034 C1035 1.388 . S
C1035 H1022 0.930 . S
C1035 C1034 1.388 . S
C1035 C1036 1.390 . S
C1036 C1035 1.390 . S
C1036 C1037 1.394 . S
C1036 C1042 1.465 . S
C1037 C1032 1.399 . S
C1037 C1036 1.394 . S
C1037 C1038 1.516 . S
C1038 C1037 1.516 . S
C1038 C1039 1.502 . S
C1038 C1040 1.561 . S
C1038 C1041 1.526 . S
C1039 H1023 0.959 . S
C1039 H1024 0.959 . S
C1039 H1025 0.961 . S
C1039 C1038 1.502 . S
C1040 H1026 0.960 . S
C1040 H1027 0.961 . S
C1040 H1028 0.959 . S
C1040 C1038 1.561 . S
C1041 C1038 1.526 . S
C1041 C1042 1.396 . S
C1041 C1046 1.390 . S
C1042 C1036 1.465 . S
C1042 C1041 1.396 . S
C1042 C1043 1.399 . S
C1043 H1029 0.929 . S
C1043 C1042 1.399 . S
C1043 C1044 1.385 . S
C1044 H1030 0.931 . S
C1044 C1043 1.385 . S
C1044 C1045 1.389 . S
C1045 C1044 1.389 . S
C1045 C1046 1.387 . S
C1046 H1031 0.930 . S
C1046 C1041 1.390 . S
C1046 C1045 1.387 . S
H1047 C1059 0.930 . S
H1048 C1061 0.930 . S
H1049 C1062 0.930 . S
H1050 C1066 0.959 . S
H1051 C1066 0.959 . S
H1052 C1066 0.961 . S
H1053 C1067 0.960 . S
H1054 C1067 0.961 . S
H1055 C1067 0.959 . S
H1056 C1070 0.929 . S
H1057 C1071 0.931 . S
H1058 C1073 0.930 . S
C1059 H1047 0.930 . S
C1059 C1060 1.399 . S
C1059 C1064 1.399 . S
C1060 C1059 1.399 . S
C1060 C1061 1.376 . S
C1061 H1048 0.930 . S
C1061 C1060 1.376 . S
C1061 C1062 1.388 . S
C1062 H1049 0.930 . S
C1062 C1061 1.388 . S
C1062 C1063 1.390 . S
C1063 C1062 1.390 . S
C1063 C1064 1.394 . S
C1063 C1069 1.465 . S
C1064 C1059 1.399 . S
C1064 C1063 1.394 . S
C1064 C1065 1.516 . S
C1065 C1064 1.516 . S
C1065 C1066 1.502 . S
C1065 C1067 1.561 . S
C1065 C1068 1.526 . S
C1066 H1050 0.959 . S
C1066 H1051 0.959 . S
C1066 H1052 0.961 . S
C1066 C1065 1.502 . S
C1067 H1053 0.960 . S
C1067 H1054 0.961 . S
C1067 H1055 0.959 . S
C1067 C1065 1.561 . S
C1068 C1065 1.526 . S
C1068 C1069 1.396 . S
C1068 C1073 1.390 . S
C1069 C1063 1.465 . S
C1069 C1068 1.396 . S
C1069 C1070 1.399 . S
C1070 H1056 0.929 . S
C1070 C1069 1.399 . S
C1070 C1071 1.385 . S
C1071 H1057 0.931 . S
C1071 C1070 1.385 . S
C1071 C1072 1.389 . S
C1072 C1071 1.389 . S
C1072 C1073 1.387 . S
C1073 H1058 0.930 . S
C1073 C1068 1.390 . S
C1073 C1072 1.387 . S
H1074 C1086 0.930 . S
H1075 C1088 0.930 . S
H1076 C1089 0.930 . S
H1077 C1093 0.959 . S
H1078 C1093 0.959 . S
H1079 C1093 0.961 . S
H1080 C1094 0.960 . S
H1081 C1094 0.961 . S
H1082 C1094 0.959 . S
H1083 C1097 0.929 . S
H1084 C1098 0.931 . S
H1085 C1100 0.930 . S
C1086 H1074 0.930 . S
C1086 C1087 1.399 . S
C1086 C1091 1.399 . S
C1087 C1086 1.399 . S
C1087 C1088 1.376 . S
C1088 H1075 0.930 . S
C1088 C1087 1.376 . S
C1088 C1089 1.388 . S
C1089 H1076 0.930 . S
C1089 C1088 1.388 . S
C1089 C1090 1.390 . S
C1090 C1089 1.390 . S
C1090 C1091 1.394 . S
C1090 C1096 1.465 . S
C1091 C1086 1.399 . S
C1091 C1090 1.394 . S
C1091 C1092 1.516 . S
C1092 C1091 1.516 . S
C1092 C1093 1.502 . S
C1092 C1094 1.561 . S
C1092 C1095 1.526 . S
C1093 H1077 0.959 . S
C1093 H1078 0.959 . S
C1093 H1079 0.961 . S
C1093 C1092 1.502 . S
C1094 H1080 0.960 . S
C1094 H1081 0.961 . S
C1094 H1082 0.959 . S
C1094 C1092 1.561 . S
C1095 C1092 1.526 . S
C1095 C1096 1.396 . S
C1095 C1100 1.390 . S
C1096 C1090 1.465 . S
C1096 C1095 1.396 . S
C1096 C1097 1.399 . S
C1097 H1083 0.929 . S
C1097 C1096 1.399 . S
C1097 C1098 1.385 . S
C1098 H1084 0.931 . S
C1098 C1097 1.385 . S
C1098 C1099 1.389 . S
C1099 C1098 1.389 . S
C1099 C1100 1.387 . S
C1100 H1085 0.930 . S
C1100 C1095 1.390 . S
C1100 C1099 1.387 . S
H1101 C1113 0.930 . S
H1102 C1115 0.930 . S
H1103 C1116 0.930 . S
H1104 C1120 0.959 . S
H1105 C1120 0.959 . S
H1106 C1120 0.961 . S
H1107 C1121 0.960 . S
H1108 C1121 0.961 . S
H1109 C1121 0.959 . S
H1110 C1124 0.929 . S
H1111 C1125 0.931 . S
H1112 C1127 0.930 . S
C1113 H1101 0.930 . S
C1113 C1114 1.399 . S
C1113 C1118 1.399 . S
C1114 C1113 1.399 . S
C1114 C1115 1.376 . S
C1115 H1102 0.930 . S
C1115 C1114 1.376 . S
C1115 C1116 1.388 . S
C1116 H1103 0.930 . S
C1116 C1115 1.388 . S
C1116 C1117 1.390 . S
C1117 C1116 1.390 . S
C1117 C1118 1.394 . S
C1117 C1123 1.465 . S
C1118 C1113 1.399 . S
C1118 C1117 1.394 . S
C1118 C1119 1.516 . S
C1119 C1118 1.516 . S
C1119 C1120 1.502 . S
C1119 C1121 1.561 . S
C1119 C1122 1.526 . S
C1120 H1104 0.959 . S
C1120 H1105 0.959 . S
C1120 H1106 0.961 . S
C1120 C1119 1.502 . S
C1121 H1107 0.960 . S
C1121 H1108 0.961 . S
C1121 H1109 0.959 . S
C1121 C1119 1.561 . S
C1122 C1119 1.526 . S
C1122 C1123 1.396 . S
C1122 C1127 1.390 . S
C1123 C1117 1.465 . S
C1123 C1122 1.396 . S
C1123 C1124 1.399 . S
C1124 H1110 0.929 . S
C1124 C1123 1.399 . S
C1124 C1125 1.385 . S
C1125 H1111 0.931 . S
C1125 C1124 1.385 . S
C1125 C1126 1.389 . S
C1126 C1125 1.389 . S
C1126 C1127 1.387 . S
C1127 H1112 0.930 . S
C1127 C1122 1.390 . S
C1127 C1126 1.387 . S
H1128 C1140 0.930 . S
H1129 C1142 0.930 . S
H1130 C1143 0.930 . S
H1131 C1147 0.959 . S
H1132 C1147 0.959 . S
H1133 C1147 0.961 . S
H1134 C1148 0.960 . S
H1135 C1148 0.961 . S
H1136 C1148 0.959 . S
H1137 C1151 0.929 . S
H1138 C1152 0.931 . S
H1139 C1154 0.930 . S
C1140 H1128 0.930 . S
C1140 C1141 1.399 . S
C1140 C1145 1.399 . S
C1141 C1140 1.399 . S
C1141 C1142 1.376 . S
C1142 H1129 0.930 . S
C1142 C1141 1.376 . S
C1142 C1143 1.388 . S
C1143 H1130 0.930 . S
C1143 C1142 1.388 . S
C1143 C1144 1.390 . S
C1144 C1143 1.390 . S
C1144 C1145 1.394 . S
C1144 C1150 1.465 . S
C1145 C1140 1.399 . S
C1145 C1144 1.394 . S
C1145 C1146 1.516 . S
C1146 C1145 1.516 . S
C1146 C1147 1.502 . S
C1146 C1148 1.561 . S
C1146 C1149 1.526 . S
C1147 H1131 0.959 . S
C1147 H1132 0.959 . S
C1147 H1133 0.961 . S
C1147 C1146 1.502 . S
C1148 H1134 0.960 . S
C1148 H1135 0.961 . S
C1148 H1136 0.959 . S
C1148 C1146 1.561 . S
C1149 C1146 1.526 . S
C1149 C1150 1.396 . S
C1149 C1154 1.390 . S
C1150 C1144 1.465 . S
C1150 C1149 1.396 . S
C1150 C1151 1.399 . S
C1151 H1137 0.929 . S
C1151 C1150 1.399 . S
C1151 C1152 1.385 . S
C1152 H1138 0.931 . S
C1152 C1151 1.385 . S
C1152 C1153 1.389 . S
C1153 C1152 1.389 . S
C1153 C1154 1.387 . S
C1154 H1139 0.930 . S
C1154 C1149 1.390 . S
C1154 C1153 1.387 . S
H1155 C1167 0.930 . S
H1156 C1169 0.930 . S
H1157 C1170 0.930 . S
H1158 C1174 0.959 . S
H1159 C1174 0.959 . S
H1160 C1174 0.961 . S
H1161 C1175 0.960 . S
H1162 C1175 0.961 . S
H1163 C1175 0.959 . S
H1164 C1178 0.929 . S
H1165 C1179 0.931 . S
H1166 C1181 0.930 . S
C1167 H1155 0.930 . S
C1167 C1168 1.399 . S
C1167 C1172 1.399 . S
C1168 C1167 1.399 . S
C1168 C1169 1.376 . S
C1169 H1156 0.930 . S
C1169 C1168 1.376 . S
C1169 C1170 1.388 . S
C1170 H1157 0.930 . S
C1170 C1169 1.388 . S
C1170 C1171 1.390 . S
C1171 C1170 1.390 . S
C1171 C1172 1.394 . S
C1171 C1177 1.465 . S
C1172 C1167 1.399 . S
C1172 C1171 1.394 . S
C1172 C1173 1.516 . S
C1173 C1172 1.516 . S
C1173 C1174 1.502 . S
C1173 C1175 1.561 . S
C1173 C1176 1.526 . S
C1174 H1158 0.959 . S
C1174 H1159 0.959 . S
C1174 H1160 0.961 . S
C1174 C1173 1.502 . S
C1175 H1161 0.960 . S
C1175 H1162 0.961 . S
C1175 H1163 0.959 . S
C1175 C1173 1.561 . S
C1176 C1173 1.526 . S
C1176 C1177 1.396 . S
C1176 C1181 1.390 . S
C1177 C1171 1.465 . S
C1177 C1176 1.396 . S
C1177 C1178 1.399 . S
C1178 H1164 0.929 . S
C1178 C1177 1.399 . S
C1178 C1179 1.385 . S
C1179 H1165 0.931 . S
C1179 C1178 1.385 . S
C1179 C1180 1.389 . S
C1180 C1179 1.389 . S
C1180 C1181 1.387 . S
C1181 H1166 0.930 . S
C1181 C1176 1.390 . S
C1181 C1180 1.387 . S
H1182 C1194 0.930 . S
H1183 C1196 0.930 . S
H1184 C1197 0.930 . S
H1185 C1201 0.959 . S
H1186 C1201 0.959 . S
H1187 C1201 0.961 . S
H1188 C1202 0.960 . S
H1189 C1202 0.961 . S
H1190 C1202 0.959 . S
H1191 C1205 0.929 . S
H1192 C1206 0.931 . S
H1193 C1208 0.930 . S
C1194 H1182 0.930 . S
C1194 C1195 1.399 . S
C1194 C1199 1.399 . S
C1195 C1194 1.399 . S
C1195 C1196 1.376 1_455 S
C1196 H1183 0.930 . S
C1196 C1195 1.376 1_655 S
C1196 C1197 1.388 . S
C1197 H1184 0.930 . S
C1197 C1196 1.388 . S
C1197 C1198 1.390 . S
C1198 C1197 1.390 . S
C1198 C1199 1.394 1_655 S
C1198 C1204 1.465 . S
C1199 C1194 1.399 . S
C1199 C1198 1.394 1_455 S
C1199 C1200 1.516 . S
C1200 C1199 1.516 . S
C1200 C1201 1.502 . S
C1200 C1202 1.561 . S
C1200 C1203 1.526 . S
C1201 H1185 0.959 . S
C1201 H1186 0.959 . S
C1201 H1187 0.961 . S
C1201 C1200 1.502 . S
C1202 H1188 0.960 . S
C1202 H1189 0.961 . S
C1202 H1190 0.959 . S
C1202 C1200 1.561 . S
C1203 C1200 1.526 . S
C1203 C1204 1.397 1_455 S
C1203 C1208 1.390 . S
C1204 C1198 1.465 . S
C1204 C1203 1.397 1_655 S
C1204 C1205 1.398 . S
C1205 H1191 0.929 . S
C1205 C1204 1.398 . S
C1205 C1206 1.385 . S
C1206 H1192 0.931 . S
C1206 C1205 1.385 . S
C1206 C1207 1.389 1_655 S
C1207 C1206 1.389 1_455 S
C1207 C1208 1.387 . S
C1208 H1193 0.930 . S
C1208 C1203 1.390 . S
C1208 C1207 1.387 . S
H1209 C1221 0.930 . S
H1210 C1223 0.930 . S
H1211 C1224 0.930 . S
H1212 C1228 0.959 . S
H1213 C1228 0.959 . S
H1214 C1228 0.961 . S
H1215 C1229 0.960 . S
H1216 C1229 0.961 . S
H1217 C1229 0.959 1_655 S
H1218 C1232 0.929 . S
H1219 C1233 0.936 . S
H1220 C1235 0.930 . S
C1221 H1209 0.930 . S
C1221 C1222 1.399 1_455 S
C1221 C1226 1.399 . S
C1222 C1221 1.399 1_655 S
C1222 C1223 1.376 . S
C1223 H1210 0.930 . S
C1223 C1222 1.376 . S
C1223 C1224 1.388 . S
C1224 H1211 0.930 . S
C1224 C1223 1.388 . S
C1224 C1225 1.390 . S
C1225 C1224 1.390 . S
C1225 C1226 1.394 1_655 S
C1225 C1231 1.465 1_655 S
C1226 C1221 1.399 . S
C1226 C1225 1.394 1_455 S
C1226 C1227 1.516 . S
C1227 C1226 1.516 . S
C1227 C1228 1.502 . S
C1227 C1229 1.561 . S
C1227 C1230 1.526 . S
C1228 H1212 0.959 . S
C1228 H1213 0.959 . S
C1228 H1214 0.961 . S
C1228 C1227 1.502 . S
C1229 H1215 0.960 . S
C1229 H1216 0.961 . S
C1229 H1217 0.959 1_455 S
C1229 C1227 1.561 . S
C1230 C1227 1.526 . S
C1230 C1231 1.396 . S
C1230 C1235 1.390 . S
C1231 C1225 1.465 1_455 S
C1231 C1230 1.396 . S
C1231 C1232 1.399 1_455 S
C1232 H1218 0.929 . S
C1232 C1231 1.399 1_655 S
C1232 C1233 1.385 1_655 S
C1233 H1219 0.936 . S
C1233 C1232 1.385 1_455 S
C1233 C1234 1.389 . S
C1234 C1233 1.389 . S
C1234 C1235 1.387 . S
C1235 H1220 0.930 . S
C1235 C1230 1.390 . S
C1235 C1234 1.387 . S
C277 C7 1.471 . S
C289 C29 1.507 . S
C304 C18 1.101 . S
C316 C40 1.057 . S
C331 C73 1.360 . S
C343 C51 1.328 . S
C358 C62 1.186 . S
C370 C84 1.232 . S
C385 C95 1.202 . S
C397 C139 1.342 1_545 S
C412 C106 0.952 . S
C424 C150 0.823 . S
C439 C117 1.262 . S
C451 C161 1.200 . S
C466 C128 1.156 . S
C478 C172 1.038 . S
C493 C183 0.768 . S
C505 C216 0.828 . S
C520 C238 1.375 . S
C532 C194 1.348 . S
C547 C249 1.442 . S
C559 C205 1.517 . S
C574 C260 1.277 . S
C586 C227 1.346 . S
C601 C93 1.614 . S
C613 C38 1.488 . S
C628 C8 1.575 . S
C640 C107 1.473 . S
C655 C118 1.626 . S
C667 C19 1.548 . S
C682 C30 1.590 . S
C694 C126 1.418 . S
C709 C60 1.445 . S
C721 C137 1.427 . S
C736 C151 1.857 . S
C748 C74 1.798 . S
C763 C82 1.294 . S
C775 C159 1.256 . S
C790 C173 1.631 . S
C802 C49 1.141 . S
C817 C181 1.474 . S
C829 C203 1.931 . S
C844 C217 1.599 . S
C856 C261 1.544 . S
C871 C228 1.397 . S
C883 C236 1.212 1_554 S
C898 C250 1.936 . S
C910 C192 1.842 . S
C925 C225 1.364 . S
C937 C71 1.370 . S
C952 C85 1.742 . S
C964 C195 1.779 . S
C979 C206 1.744 . S
C991 C52 1.576 . S
C1006 C63 1.503 . S
C1018 C214 1.446 . S
C1033 C27 1.389 . S
C1045 C258 1.304 . S
C1060 C239 1.813 . S
C1072 C41 1.703 . S
C1087 C5 1.432 . S
C1099 C247 1.132 . S
C1114 C184 1.667 . S
C1126 C16 1.297 . S
C1141 C170 1.136 . S
C1153 C115 1.273 . S
C1168 C129 1.512 . S
C1180 C140 1.473 . S
C1195 C96 1.644 . S
C1207 C148 1.064 . S
C1222 C104 1.528 . S
C1234 C162 1.801 . S
