# Generated by pormake.
# Topology lcy-e, (6)-cn, num edge types: 1
# Building blocks:
#     Node 0, Type 0, BuildingBlock: BETDAH_clean_sbu_0, # of connection points: 6
#     Node 1, Type 0, BuildingBlock: BETDAH_clean_sbu_0, # of connection points: 6
#     Node 2, Type 0, BuildingBlock: BETDAH_clean_sbu_0, # of connection points: 6
#     Node 3, Type 0, BuildingBlock: BETDAH_clean_sbu_0, # of connection points: 6
#     Node 4, Type 0, BuildingBlock: BETDAH_clean_sbu_0, # of connection points: 6
#     Node 5, Type 0, BuildingBlock: BETDAH_clean_sbu_0, # of connection points: 6
#     Node 6, Type 0, BuildingBlock: BETDAH_clean_sbu_0, # of connection points: 6
#     Node 7, Type 0, BuildingBlock: BETDAH_clean_sbu_0, # of connection points: 6
#     Node 8, Type 0, BuildingBlock: BETDAH_clean_sbu_0, # of connection points: 6
#     Node 9, Type 0, BuildingBlock: BETDAH_clean_sbu_0, # of connection points: 6
#     Node 10, Type 0, BuildingBlock: BETDAH_clean_sbu_0, # of connection points: 6
#     Node 11, Type 0, BuildingBlock: BETDAH_clean_sbu_0, # of connection points: 6
#     Edge 12, Type (0, 0), BuildingBlock: UVAHIK_clean_linker_0, # of connection points: 2
#     Edge 13, Type (0, 0), BuildingBlock: UVAHIK_clean_linker_0, # of connection points: 2
#     Edge 14, Type (0, 0), BuildingBlock: UVAHIK_clean_linker_0, # of connection points: 2
#     Edge 15, Type (0, 0), BuildingBlock: UVAHIK_clean_linker_0, # of connection points: 2
#     Edge 16, Type (0, 0), BuildingBlock: UVAHIK_clean_linker_0, # of connection points: 2
#     Edge 17, Type (0, 0), BuildingBlock: UVAHIK_clean_linker_0, # of connection points: 2
#     Edge 18, Type (0, 0), BuildingBlock: UVAHIK_clean_linker_0, # of connection points: 2
#     Edge 19, Type (0, 0), BuildingBlock: UVAHIK_clean_linker_0, # of connection points: 2
#     Edge 20, Type (0, 0), BuildingBlock: UVAHIK_clean_linker_0, # of connection points: 2
#     Edge 21, Type (0, 0), BuildingBlock: UVAHIK_clean_linker_0, # of connection points: 2
#     Edge 22, Type (0, 0), BuildingBlock: UVAHIK_clean_linker_0, # of connection points: 2
#     Edge 23, Type (0, 0), BuildingBlock: UVAHIK_clean_linker_0, # of connection points: 2
#     Edge 24, Type (0, 0), BuildingBlock: UVAHIK_clean_linker_0, # of connection points: 2
#     Edge 25, Type (0, 0), BuildingBlock: UVAHIK_clean_linker_0, # of connection points: 2
#     Edge 26, Type (0, 0), BuildingBlock: UVAHIK_clean_linker_0, # of connection points: 2
#     Edge 27, Type (0, 0), BuildingBlock: UVAHIK_clean_linker_0, # of connection points: 2
#     Edge 28, Type (0, 0), BuildingBlock: UVAHIK_clean_linker_0, # of connection points: 2
#     Edge 29, Type (0, 0), BuildingBlock: UVAHIK_clean_linker_0, # of connection points: 2
#     Edge 30, Type (0, 0), BuildingBlock: UVAHIK_clean_linker_0, # of connection points: 2
#     Edge 31, Type (0, 0), BuildingBlock: UVAHIK_clean_linker_0, # of connection points: 2
#     Edge 32, Type (0, 0), BuildingBlock: UVAHIK_clean_linker_0, # of connection points: 2
#     Edge 33, Type (0, 0), BuildingBlock: UVAHIK_clean_linker_0, # of connection points: 2
#     Edge 34, Type (0, 0), BuildingBlock: UVAHIK_clean_linker_0, # of connection points: 2
#     Edge 35, Type (0, 0), BuildingBlock: UVAHIK_clean_linker_0, # of connection points: 2
#     Edge 36, Type (0, 0), BuildingBlock: UVAHIK_clean_linker_0, # of connection points: 2
#     Edge 37, Type (0, 0), BuildingBlock: UVAHIK_clean_linker_0, # of connection points: 2
#     Edge 38, Type (0, 0), BuildingBlock: UVAHIK_clean_linker_0, # of connection points: 2
#     Edge 39, Type (0, 0), BuildingBlock: UVAHIK_clean_linker_0, # of connection points: 2
#     Edge 40, Type (0, 0), BuildingBlock: UVAHIK_clean_linker_0, # of connection points: 2
#     Edge 41, Type (0, 0), BuildingBlock: UVAHIK_clean_linker_0, # of connection points: 2
#     Edge 42, Type (0, 0), BuildingBlock: UVAHIK_clean_linker_0, # of connection points: 2
#     Edge 43, Type (0, 0), BuildingBlock: UVAHIK_clean_linker_0, # of connection points: 2
#     Edge 44, Type (0, 0), BuildingBlock: UVAHIK_clean_linker_0, # of connection points: 2
#     Edge 45, Type (0, 0), BuildingBlock: UVAHIK_clean_linker_0, # of connection points: 2
#     Edge 46, Type (0, 0), BuildingBlock: UVAHIK_clean_linker_0, # of connection points: 2
#     Edge 47, Type (0, 0), BuildingBlock: UVAHIK_clean_linker_0, # of connection points: 2
# Relax obj value: 0.196
# Max RMSD: 0.306
# Mean RMSD: 0.282
data_MOF--net-lcy-e--node1-BETDAH_clean_sbu_0--edge1-UVAHIK_clean_linker_0
_symmetry_space_group_name_H-M    P1
_symmetry_Int_Tables_number       1
_symmetry_cell_setting            triclinic
loop_
_symmetry_equiv_pos_as_xyz
'x, y, z'
_cell_length_a     56.379239
_cell_length_b     51.464964
_cell_length_c     56.337481
_cell_angle_alpha  89.473358
_cell_angle_beta   90.909363
_cell_angle_gamma 88.599104
loop_
_atom_site_label
_atom_site_type_symbol
_atom_site_fract_x
_atom_site_fract_y
_atom_site_fract_z
_atom_type_partial_charge
Ho0 Ho 0.14075 0.24154 0.46494 0.0
Ho1 Ho 0.1596 0.19838 0.49751 0.0
C2 C 0.18542 0.20708 0.44876 0.0
C3 C 0.12911 0.2829 0.44077 0.0
C4 C 0.1334 0.29004 0.41587 0.0
C5 C 0.15044 0.27607 0.40291 0.0
C6 C 0.15631 0.28413 0.38006 0.0
C7 C 0.14504 0.30613 0.36961 0.0
C8 C 0.12723 0.31945 0.38222 0.0
C9 C 0.12155 0.31153 0.40528 0.0
C10 C 0.12394 0.19351 0.45504 0.0
C11 C 0.11578 0.23363 0.51583 0.0
C12 C 0.16682 0.15758 0.52396 0.0
C13 C 0.15274 0.14006 0.53852 0.0
C14 C 0.12784 0.14114 0.53763 0.0
C15 C 0.11484 0.12364 0.55109 0.0
C16 C 0.12656 0.10492 0.56573 0.0
C17 C 0.15153 0.10414 0.5666 0.0
C18 C 0.16447 0.12155 0.5531 0.0
C19 C 0.18381 0.24354 0.49917 0.0
O20 O 0.17604 0.23088 0.44876 0.0
O21 O 0.17781 0.1891 0.46345 0.0
O22 O 0.11451 0.26388 0.44423 0.0
O23 O 0.14828 0.28072 0.45412 0.0
O24 O 0.13018 0.21033 0.43921 0.0
O25 O 0.12724 0.20305 0.47528 0.0
O26 O 0.12811 0.21158 0.51824 0.0
O27 O 0.11845 0.24945 0.49735 0.0
O28 O 0.16893 0.18132 0.53174 0.0
O29 O 0.16285 0.15667 0.50101 0.0
O30 O 0.19392 0.22071 0.50117 0.0
O31 O 0.16182 0.24094 0.49768 0.0
H32 H 0.15966 0.25929 0.4107 0.0
H33 H 0.1699 0.27334 0.37066 0.0
H34 H 0.11837 0.33656 0.37462 0.0
H35 H 0.10834 0.32252 0.41501 0.0
H36 H 0.11851 0.15542 0.52648 0.0
H37 H 0.09564 0.12489 0.55021 0.0
H38 H 0.16111 0.08975 0.57741 0.0
H39 H 0.18369 0.12039 0.55389 0.0
Ho40 Ho 1.00184 0.84937 0.72092 0.0
Ho41 Ho 0.04354 0.86423 0.75436 0.0
C42 C 0.03539 0.89825 0.70715 0.0
C43 C 0.96387 0.84953 0.6944 0.0
C44 C 0.95648 0.8596 0.67074 0.0
C45 C 0.93227 0.86337 0.66546 0.0
C46 C 0.92477 0.87309 0.64324 0.0
C47 C 0.94135 0.87923 0.62576 0.0
C48 C 0.96568 0.87534 0.63109 0.0
C49 C 0.97319 0.86572 0.65343 0.0
C50 C 0.0414 0.8198 0.71691 0.0
C51 C 0.00973 0.81769 0.76933 0.0
C52 C 0.08284 0.86649 0.77876 0.0
C53 C 0.10322 0.85117 0.78891 0.0
C54 C 0.1262 0.85831 0.78274 0.0
C55 C 0.14614 0.84614 0.79339 0.0
C56 C 0.14367 0.82643 0.81057 0.0
C57 C 0.12056 0.81881 0.81634 0.0
C58 C 0.10053 0.83107 0.80564 0.0
C59 C 1.00173 0.89072 0.76045 0.0
O60 O 0.01625 0.8847 0.70234 0.0
O61 O 0.04947 0.89301 0.72556 0.0
O62 O 0.9797 0.8305 0.6949 0.0
O63 O 0.9679 0.867 0.71061 0.0
O64 O 0.02011 0.81137 0.71362 0.0
O65 O 0.04086 0.84409 0.72015 0.0
O66 O 0.03199 0.82544 0.76868 0.0
O67 O 0.99334 0.82733 0.75427 0.0
O68 O 0.06198 0.86469 0.78849 0.0
O69 O 0.08157 0.86831 0.75562 0.0
O70 O 0.0223 0.90073 0.76459 0.0
O71 O 1.00482 0.86724 0.7556 0.0
H72 H 0.91911 0.85877 0.67857 0.0
H73 H 0.90591 0.87552 0.63967 0.0
H74 H 0.97892 0.88012 0.61815 0.0
H75 H 0.992 0.86314 0.65722 0.0
H76 H 0.12877 0.87391 0.77006 0.0
H77 H 0.1635 0.85292 0.78871 0.0
H78 H 0.11794 0.80348 0.82926 0.0
H79 H 0.08302 0.82512 0.81074 0.0
Ho80 Ho 0.37454 0.77085 1.00011 0.0
Ho81 Ho 0.38727 0.73339 0.95961 0.0
C82 C 0.41875 0.78344 0.96561 0.0
C83 C 0.37177 0.80129 0.03638 0.0
C84 C 0.3852 0.82181 0.04812 0.0
C85 C 0.40959 0.82474 0.04453 0.0
C86 C 0.42188 0.84419 0.05648 0.0
C87 C 0.40996 0.86093 0.07222 0.0
C88 C 0.38544 0.85808 0.07533 0.0
C89 C 0.37324 0.83871 0.06343 0.0
C90 C 0.3437 0.77223 0.96306 0.0
C91 C 0.34697 0.71777 0.99636 0.0
C92 C 0.38853 0.70563 0.92138 0.0
C93 C 0.37379 0.69566 0.90154 0.0
C94 C 0.36223 0.7126 0.88508 0.0
C95 C 0.35181 0.70297 0.8643 0.0
C96 C 0.35264 0.67618 0.85951 0.0
C97 C 0.3633 0.65919 0.87649 0.0
C98 C 0.37383 0.66884 0.8972 0.0
C99 C 0.41394 0.72774 1.00041 0.0
O100 O 0.40853 0.78745 0.98629 0.0
O101 O 0.4115 0.76548 0.95083 0.0
O102 O 0.36254 0.80713 0.01552 0.0
O103 O 0.38104 0.77776 0.03741 0.0
O104 O 0.33798 0.77553 0.98501 0.0
O105 O 0.36607 0.77002 0.96131 0.0
O106 O 0.35324 0.71728 0.97379 0.0
O107 O 0.35571 0.73493 0.01137 0.0
O108 O 0.38618 0.69554 0.94261 0.0
O109 O 0.39183 0.73067 0.92185 0.0
O110 O 0.42207 0.72252 0.97951 0.0
O111 O 0.3923 0.73305 0.9982 0.0
H112 H 0.41912 0.81187 0.03269 0.0
H113 H 0.44077 0.84576 0.05378 0.0
H114 H 0.3756 0.87092 0.08693 0.0
H115 H 0.35439 0.83684 0.06628 0.0
H116 H 0.3619 0.73341 0.88779 0.0
H117 H 0.34345 0.71656 0.85179 0.0
H118 H 0.36447 0.63848 0.87331 0.0
H119 H 0.38285 0.65537 0.90938 0.0
Ho120 Ho 0.53364 0.12 0.22411 0.0
Ho121 Ho 0.49425 0.10392 0.25834 0.0
C122 C 0.4999 0.07072 0.21127 0.0
C123 C 0.57032 0.11997 0.19706 0.0
C124 C 0.57684 0.11021 0.17325 0.0
C125 C 0.59259 0.08876 0.17133 0.0
C126 C 0.59976 0.07996 0.14906 0.0
C127 C 0.59152 0.09256 0.12815 0.0
C128 C 0.57559 0.11389 0.13006 0.0
C129 C 0.56833 0.12261 0.15233 0.0
C130 C 0.49344 0.14877 0.22011 0.0
C131 C 0.52709 0.1521 0.27139 0.0
C132 C 0.45718 0.10101 0.28489 0.0
C133 C 0.43903 0.11613 0.29816 0.0
C134 C 0.42284 0.13348 0.28663 0.0
C135 C 0.40338 0.14404 0.29882 0.0
C136 C 0.39962 0.1374 0.32277 0.0
C137 C 0.41653 0.12105 0.33448 0.0
C138 C 0.4359 0.11051 0.32232 0.0
C139 C 0.53712 0.07865 0.26385 0.0
O140 O 0.51857 0.08472 0.20604 0.0
O141 O 0.48676 0.07538 0.22999 0.0
O142 O 0.55484 0.13932 0.19795 0.0
O143 O 0.56708 0.10242 0.2136 0.0
O144 O 0.51443 0.15755 0.21624 0.0
O145 O 0.49449 0.12444 0.2238 0.0
O146 O 0.50524 0.14321 0.27147 0.0
O147 O 0.54316 0.1428 0.25654 0.0
O148 O 0.47895 0.0998 0.29335 0.0
O149 O 0.45626 0.10229 0.26169 0.0
O150 O 0.51699 0.06767 0.2676 0.0
O151 O 0.53315 0.10219 0.25919 0.0
H152 H 0.59965 0.07896 0.18711 0.0
H153 H 0.61229 0.06371 0.14826 0.0
H154 H 0.56872 0.12388 0.11431 0.0
H155 H 0.55622 0.13923 0.15309 0.0
H156 H 0.42464 0.13815 0.26797 0.0
H157 H 0.39073 0.15645 0.28916 0.0
H158 H 0.41453 0.11591 0.35301 0.0
H159 H 0.44801 0.09713 0.33163 0.0
Ho160 Ho 0.63956 0.23681 0.54214 0.0
Ho161 Ho 0.64961 0.28796 0.51515 0.0
C162 C 0.67762 0.27792 0.56376 0.0
C163 C 0.64336 0.19307 0.56501 0.0
C164 C 0.65125 0.18474 0.58922 0.0
C165 C 0.67346 0.17215 0.59266 0.0
C166 C 0.68112 0.1641 0.61536 0.0
C167 C 0.66665 0.16825 0.63515 0.0
C168 C 0.6444 0.18078 0.6317 0.0
C169 C 0.63678 0.18893 0.60901 0.0
C170 C 0.60772 0.27539 0.54888 0.0
C171 C 0.61281 0.24748 0.49286 0.0
C172 C 0.64929 0.33312 0.49439 0.0
C173 C 0.63516 0.35178 0.47977 0.0
C174 C 0.61216 0.34656 0.47155 0.0
C175 C 0.59928 0.36528 0.458 0.0
C176 C 0.6092 0.38951 0.45266 0.0
C177 C 0.63226 0.39444 0.46105 0.0
C178 C 0.64506 0.37578 0.47444 0.0
C179 C 0.67935 0.24672 0.50729 0.0
O180 O 0.66908 0.25417 0.56415 0.0
O181 O 0.67097 0.2955 0.54769 0.0
O182 O 0.62354 0.20678 0.56315 0.0
O183 O 0.6598 0.20168 0.55101 0.0
O184 O 0.60268 0.25095 0.54908 0.0
O185 O 0.62986 0.2782 0.5473 0.0
O186 O 0.61752 0.27237 0.49597 0.0
O187 O 0.6226 0.22902 0.50669 0.0
O188 O 0.65685 0.31175 0.48428 0.0
O189 O 0.64228 0.32932 0.51613 0.0
O190 O 0.68646 0.27052 0.50784 0.0
O191 O 0.65735 0.24666 0.50958 0.0
H192 H 0.68491 0.1684 0.57775 0.0
H193 H 0.69819 0.15414 0.61733 0.0
H194 H 0.63291 0.18446 0.64658 0.0
H195 H 0.61954 0.19851 0.60705 0.0
H196 H 0.6042 0.32814 0.47565 0.0
H197 H 0.58152 0.36091 0.45192 0.0
H198 H 0.64066 0.4126 0.45692 0.0
H199 H 0.6628 0.38013 0.48066 0.0
Ho200 Ho 0.98939 0.3731 0.73703 0.0
Ho201 Ho 0.02154 0.35338 0.77773 0.0
C202 C 0.97198 0.32584 0.77155 0.0
C203 C 0.96266 0.37671 0.69944 0.0
C204 C 0.93856 0.36847 0.69271 0.0
C205 C 0.93573 0.35072 0.67417 0.0
C206 C 0.91316 0.34244 0.66758 0.0
C207 C 0.89294 0.35194 0.67926 0.0
C208 C 0.89577 0.36973 0.69782 0.0
C209 C 0.91836 0.37784 0.70456 0.0
C210 C 0.98738 0.4023 0.77629 0.0
C211 C 0.03889 0.39969 0.74413 0.0
C212 C 0.04779 0.34718 0.81557 0.0
C213 C 0.05999 0.36197 0.83425 0.0
C214 C 0.04802 0.38124 0.84734 0.0
C215 C 0.05876 0.39185 0.86749 0.0
C216 C 0.08166 0.38343 0.8749 0.0
C217 C 0.09405 0.36528 0.8609 0.0
C218 C 0.08327 0.35461 0.84086 0.0
C219 C 0.02521 0.32713 0.73623 0.0
O220 O 0.96854 0.33958 0.75174 0.0
O221 O 0.99054 0.32908 0.78562 0.0
O222 O 0.96435 0.39529 0.71505 0.0
O223 O 0.97844 0.35796 0.70301 0.0
O224 O 0.98509 0.41147 0.75484 0.0
O225 O 0.9888 0.37772 0.7761 0.0
O226 O 0.03802 0.39104 0.76633 0.0
O227 O 0.02346 0.39199 0.72785 0.0
O228 O 0.05646 0.34777 0.79418 0.0
O229 O 0.0246 0.34795 0.81557 0.0
O230 O 0.02768 0.31604 0.75692 0.0
O231 O 0.02274 0.35111 0.73898 0.0
H232 H 0.95101 0.34327 0.66473 0.0
H233 H 0.9115 0.32897 0.65302 0.0
H234 H 0.8805 0.37722 0.70725 0.0
H235 H 0.91995 0.39143 0.71903 0.0
H236 H 0.03003 0.38735 0.84261 0.0
H237 H 0.04866 0.4057 0.87788 0.0
H238 H 0.1119 0.35879 0.86578 0.0
H239 H 0.09284 0.33982 0.83102 0.0
Ho240 Ho 0.88873 0.73979 0.03763 0.0
Ho241 Ho 0.87754 0.69247 0.00741 0.0
C242 C 0.84579 0.70122 0.05278 0.0
C243 C 0.88626 0.78231 0.06176 0.0
C244 C 0.8782 0.79055 0.08553 0.0
C245 C 0.85394 0.79231 0.09101 0.0
C246 C 0.84666 0.80157 0.11309 0.0
C247 C 0.86343 0.80928 0.13023 0.0
C248 C 0.88769 0.80693 0.12487 0.0
C249 C 0.89495 0.79783 0.10277 0.0
C250 C 0.9175 0.69839 0.04677 0.0
C251 C 0.91868 0.73051 0.9912 0.0
C252 C 0.87777 0.64984 0.9832 0.0
C253 C 0.8937 0.63179 0.97015 0.0
C254 C 0.90826 0.61323 0.98223 0.0
C255 C 0.92086 0.59417 0.96966 0.0
C256 C 0.91916 0.59318 0.94474 0.0
C257 C 0.90509 0.61219 0.93269 0.0
C258 C 0.89247 0.63117 0.94524 0.0
C259 C 0.8514 0.73654 0.99801 0.0
O260 O 0.85672 0.72346 0.05596 0.0
O261 O 0.85196 0.68474 0.03607 0.0
O262 O 0.90532 0.76732 0.06112 0.0
O263 O 0.86995 0.77542 0.04643 0.0
O264 O 0.92375 0.72238 0.04833 0.0
O265 O 0.89543 0.69726 0.04233 0.0
O266 O 0.91254 0.70594 0.99337 0.0
O267 O 0.90874 0.74881 1.00445 0.0
O268 O 0.87329 0.67282 0.97379 0.0
O269 O 0.8801 0.65055 0.00632 0.0
O270 O 0.84272 0.71346 0.99669 0.0
O271 O 0.8731 0.73453 1.00272 0.0
H272 H 0.8405 0.78696 0.07812 0.0
H273 H 0.82783 0.80338 0.11642 0.0
H274 H 0.90116 0.81222 0.13774 0.0
H275 H 0.91375 0.79674 0.09907 0.0
H276 H 0.9095 0.61294 1.00143 0.0
H277 H 0.93174 0.58003 0.97949 0.0
H278 H 0.90308 0.61182 0.91354 0.0
H279 H 0.88111 0.6449 0.93543 0.0
Ho280 Ho 0.54042 0.60937 0.23849 0.0
Ho281 Ho 0.50607 0.63001 0.27551 0.0
C282 C 0.55504 0.65871 0.27124 0.0
C283 C 0.57057 0.5996 0.20528 0.0
C284 C 0.59216 0.61041 0.19506 0.0
C285 C 0.59526 0.63729 0.19248 0.0
C286 C 0.61597 0.64666 0.18231 0.0
C287 C 0.63394 0.62931 0.17463 0.0
C288 C 0.6308 0.60245 0.17775 0.0
C289 C 0.61014 0.59315 0.18776 0.0
C290 C 0.53772 0.57976 0.27803 0.0
C291 C 0.49 0.5837 0.24147 0.0
C292 C 0.47834 0.63618 0.31146 0.0
C293 C 0.46612 0.62142 0.33014 0.0
C294 C 0.47805 0.60226 0.3441 0.0
C295 C 0.46706 0.59136 0.36389 0.0
C296 C 0.44393 0.59939 0.37012 0.0
C297 C 0.43171 0.61763 0.35536 0.0
C298 C 0.44271 0.62856 0.33568 0.0
C299 C 0.50538 0.65714 0.23356 0.0
O300 O 0.55866 0.64561 0.25142 0.0
O301 O 0.53699 0.65399 0.28508 0.0
O302 O 0.57274 0.59024 0.22685 0.0
O303 O 0.55055 0.61251 0.20171 0.0
O304 O 0.53995 0.57075 0.2568 0.0
O305 O 0.53795 0.60434 0.27764 0.0
O306 O 0.48944 0.59298 0.26328 0.0
O307 O 0.50679 0.59036 0.22653 0.0
O308 O 0.47046 0.63438 0.28958 0.0
O309 O 0.50148 0.63664 0.3129 0.0
O310 O 0.50008 0.66722 0.25389 0.0
O311 O 0.50784 0.63303 0.23647 0.0
H312 H 0.58165 0.65099 0.19816 0.0
H313 H 0.61771 0.66744 0.18008 0.0
H314 H 0.64442 0.58851 0.17259 0.0
H315 H 0.60818 0.57236 0.18981 0.0
H316 H 0.49614 0.59633 0.34024 0.0
H317 H 0.47709 0.57748 0.37484 0.0
H318 H 0.41372 0.62387 0.35925 0.0
H319 H 0.43315 0.64326 0.32519 0.0
Ho320 Ho 0.21944 0.48527 0.13543 0.0
Ho321 Ho 0.24986 0.43841 0.12016 0.0
C322 C 0.20092 0.44796 0.09248 0.0
C323 C 0.19198 0.52616 0.1385 0.0
C324 C 0.1672 0.53349 0.13191 0.0
C325 C 0.1582 0.53013 0.10874 0.0
C326 C 0.13492 0.53811 0.10278 0.0
C327 C 0.12014 0.5496 0.11985 0.0
C328 C 0.1291 0.55239 0.14314 0.0
C329 C 0.15237 0.5445 0.14906 0.0
C330 C 0.21763 0.44328 0.16388 0.0
C331 C 0.27066 0.47808 0.15885 0.0
C332 C 0.27347 0.39471 0.11743 0.0
C333 C 0.2876 0.3755 0.13149 0.0
C334 C 0.30025 0.38217 0.15212 0.0
C335 C 0.31376 0.36316 0.16467 0.0
C336 C 0.31466 0.33721 0.15686 0.0
C337 C 0.30169 0.33075 0.1363 0.0
C338 C 0.28834 0.34969 0.1238 0.0
C339 C 0.25399 0.48206 0.09329 0.0
O340 O 0.19844 0.47002 0.10418 0.0
O341 O 0.21853 0.43124 0.09692 0.0
O342 O 0.19491 0.50908 0.15566 0.0
O343 O 0.2067 0.52222 0.12112 0.0
O344 O 0.21727 0.46695 0.17141 0.0
O345 O 0.21758 0.44279 0.14148 0.0
O346 O 0.26918 0.45333 0.15272 0.0
O347 O 0.25475 0.49571 0.15107 0.0
O348 O 0.28275 0.41735 0.11333 0.0
O349 O 0.25086 0.39643 0.12209 0.0
O350 O 0.25616 0.45875 0.08482 0.0
O351 O 0.25185 0.48059 0.11536 0.0
H352 H 0.16921 0.52167 0.09512 0.0
H353 H 0.12875 0.5359 0.08463 0.0
H354 H 0.11812 0.56072 0.15687 0.0
H355 H 0.15886 0.54718 0.16705 0.0
H356 H 0.29975 0.40198 0.15844 0.0
H357 H 0.32338 0.36874 0.18054 0.0
H358 H 0.30227 0.31113 0.12952 0.0
H359 H 0.27869 0.34419 0.1079 0.0
Ho360 Ho 0.72511 0.97683 0.87099 0.0
Ho361 Ho 0.75394 0.02408 0.88624 0.0
C362 C 0.70492 0.01652 0.9114 0.0
C363 C 0.69839 0.93693 0.86576 0.0
C364 C 0.67742 0.92535 0.8766 0.0
C365 C 0.67306 0.92679 0.90105 0.0
C366 C 0.65256 0.91597 0.91046 0.0
C367 C 0.63602 0.90365 0.89556 0.0
C368 C 0.64052 0.90259 0.87107 0.0
C369 C 0.66098 0.91321 0.86177 0.0
C370 C 0.72503 0.01673 0.83975 0.0
C371 C 0.77685 0.98221 0.85012 0.0
C372 C 0.7772 0.06688 0.88757 0.0
C373 C 0.79236 0.08355 0.87278 0.0
C374 C 0.78218 0.10328 0.85815 0.0
C375 C 0.79646 0.1213 0.8468 0.0
C376 C 0.82128 0.12015 0.8499 0.0
C377 C 0.83148 0.0998 0.8638 0.0
C378 C 0.8172 0.08181 0.87517 0.0
C379 C 0.75653 0.98261 0.91634 0.0
O380 O 0.70483 0.99278 0.90245 0.0
O381 O 0.72066 0.03373 0.90517 0.0
O382 O 0.69457 0.95913 0.85477 0.0
O383 O 0.71836 0.93619 0.87795 0.0
O384 O 0.72557 0.99249 0.83387 0.0
O385 O 0.72353 0.01885 0.862 0.0
O386 O 0.77505 0.00696 0.85627 0.0
O387 O 0.76075 0.96517 0.85642 0.0
O388 O 0.78608 0.04444 0.89497 0.0
O389 O 0.75473 0.06574 0.88157 0.0
O390 O 0.75892 0.00646 0.92315 0.0
O391 O 0.75586 0.98214 0.89408 0.0
H392 H 0.68541 0.93631 0.91283 0.0
H393 H 0.64981 0.91705 0.9294 0.0
H394 H 0.62803 0.89388 0.8589 0.0
H395 H 0.66387 0.91215 0.84282 0.0
H396 H 0.76309 0.10542 0.8561 0.0
H397 H 0.78795 0.13684 0.83647 0.0
H398 H 0.85054 0.09805 0.86628 0.0
H399 H 0.82563 0.06699 0.88643 0.0
Ho400 Ho 0.76997 0.95767 0.39184 0.0
Ho401 Ho 0.81129 0.99061 0.37524 0.0
C402 C 0.80249 0.93851 0.34758 0.0
C403 C 0.73234 0.93009 0.39592 0.0
C404 C 0.72032 0.9089 0.38336 0.0
C405 C 0.72214 0.90558 0.35872 0.0
C406 C 0.71009 0.8855 0.34734 0.0
C407 C 0.69601 0.86839 0.36041 0.0
C408 C 0.6947 0.87163 0.38515 0.0
C409 C 0.70667 0.89166 0.39644 0.0
C410 C 0.80872 0.95444 0.42027 0.0
C411 C 0.77885 0.01128 0.41789 0.0
C412 C 0.84976 0.01648 0.36898 0.0
C413 C 0.8711 0.02795 0.37999 0.0
C414 C 0.86999 0.04584 0.39869 0.0
C415 C 0.8907 0.05782 0.40693 0.0
C416 C 0.91281 0.05229 0.39646 0.0
C417 C 0.91377 0.03386 0.37821 0.0
C418 C 0.89323 0.02191 0.37011 0.0
C419 C 0.76941 0.99693 0.35047 0.0
O420 O 0.7818 0.93738 0.35828 0.0
O421 O 0.81842 0.95559 0.35362 0.0
O422 O 0.75268 0.92398 0.40621 0.0
O423 O 0.73241 0.95283 0.38531 0.0
O424 O 0.78708 0.95369 0.42761 0.0
O425 O 0.80916 0.95524 0.39776 0.0
O426 O 0.80066 0.00961 0.40951 0.0
O427 O 0.76223 0.99493 0.41115 0.0
O428 O 0.82892 0.02758 0.37208 0.0
O429 O 0.84898 0.99115 0.36873 0.0
O430 O 0.79002 0.99861 0.34075 0.0
O431 O 0.77251 0.99398 0.37232 0.0
H432 H 0.73267 0.91861 0.34825 0.0
H433 H 0.71141 0.88374 0.32827 0.0
H434 H 0.68448 0.85858 0.3959 0.0
H435 H 0.7052 0.89374 0.41549 0.0
H436 H 0.85315 0.05092 0.40662 0.0
H437 H 0.8893 0.07198 0.42096 0.0
H438 H 0.93048 0.02873 0.37002 0.0
H439 H 0.89458 0.00822 0.35566 0.0
Ho440 Ho 0.30538 0.48516 0.62541 0.0
Ho441 Ho 0.27382 0.53116 0.60984 0.0
C442 C 0.32212 0.52375 0.58243 0.0
C443 C 0.33198 0.44356 0.62893 0.0
C444 C 0.35534 0.43516 0.62032 0.0
C445 C 0.36997 0.45259 0.60853 0.0
C446 C 0.3922 0.44427 0.60046 0.0
C447 C 0.40009 0.41838 0.60405 0.0
C448 C 0.38537 0.40108 0.61604 0.0
C449 C 0.36318 0.40943 0.6241 0.0
C450 C 0.30698 0.52606 0.65472 0.0
C451 C 0.25595 0.49238 0.65052 0.0
C452 C 0.24785 0.57328 0.60739 0.0
C453 C 0.23478 0.59107 0.62327 0.0
C454 C 0.24629 0.60407 0.64189 0.0
C455 C 0.23394 0.62264 0.65522 0.0
C456 C 0.20984 0.62838 0.65033 0.0
C457 C 0.19825 0.61483 0.63214 0.0
C458 C 0.21063 0.59646 0.6187 0.0
C459 C 0.26936 0.48714 0.58381 0.0
O460 O 0.32505 0.50123 0.59382 0.0
O461 O 0.30453 0.54011 0.58719 0.0
O462 O 0.33206 0.46217 0.64453 0.0
O463 O 0.31528 0.4469 0.61273 0.0
O464 O 0.30854 0.50199 0.66156 0.0
O465 O 0.30621 0.52761 0.63224 0.0
O466 O 0.25688 0.51695 0.64349 0.0
O467 O 0.27122 0.47465 0.64257 0.0
O468 O 0.23932 0.55011 0.6044 0.0
O469 O 0.27102 0.57299 0.60912 0.0
O470 O 0.26737 0.51039 0.57474 0.0
O471 O 0.27194 0.48888 0.60584 0.0
H472 H 0.3642 0.47259 0.60555 0.0
H473 H 0.40302 0.45797 0.59109 0.0
H474 H 0.39109 0.38112 0.61939 0.0
H475 H 0.35215 0.39578 0.63332 0.0
H476 H 0.26491 0.60028 0.64591 0.0
H477 H 0.24326 0.63258 0.66928 0.0
H478 H 0.17976 0.61902 0.62778 0.0
H479 H 0.20142 0.58684 0.60435 0.0
C480 C 0.18121 0.29153 0.50537 0.0
C481 C 0.19526 0.26873 0.5035 0.0
C482 C 0.19148 0.31525 0.51082 0.0
C483 C 0.24543 0.34245 0.53866 0.0
H484 H 0.2178 0.40759 0.51503 0.0
C485 C 0.26269 0.43942 0.58514 0.0
C486 C 0.26389 0.46247 0.57169 0.0
C487 C 0.2566 0.41606 0.57448 0.0
C488 C 0.226 0.38963 0.52159 0.0
H489 H 0.23122 0.25306 0.50519 0.0
H490 H 0.24936 0.29464 0.51432 0.0
H491 H 0.20341 0.36665 0.49975 0.0
H492 H 0.25995 0.47901 0.53636 0.0
H493 H 0.24953 0.43794 0.51746 0.0
H494 H 0.26824 0.36539 0.56024 0.0
C495 C 0.23028 0.29412 0.51201 0.0
C496 C 0.2175 0.36605 0.51304 0.0
C497 C 0.21994 0.27029 0.50664 0.0
C498 C 0.25913 0.46155 0.54717 0.0
C499 C 0.25304 0.43804 0.53641 0.0
C500 C 0.254 0.36601 0.54711 0.0
C501 C 0.21615 0.31692 0.51445 0.0
C502 C 0.22676 0.34208 0.52181 0.0
C503 C 0.25158 0.41496 0.54998 0.0
C504 C 0.24408 0.38996 0.53909 0.0
H505 H 0.1621 0.29096 0.50316 0.0
H506 H 0.17989 0.33213 0.51292 0.0
H507 H 0.25296 0.32451 0.54602 0.0
H508 H 0.26605 0.43945 0.60412 0.0
H509 H 0.25522 0.39897 0.58567 0.0
C510 C 0.81681 0.99103 0.83335 0.0
C511 C 0.79848 0.9735 0.83737 0.0
C512 C 0.83815 0.98269 0.82329 0.0
C513 C 0.87475 0.92291 0.8139 0.0
H514 H 0.91046 0.96793 0.77281 0.0
C515 C 0.95831 0.88629 0.76621 0.0
C516 C 0.97834 0.90202 0.76695 0.0
C517 C 0.93628 0.89576 0.77364 0.0
C518 C 0.90078 0.95524 0.78443 0.0
H519 H 0.78804 0.93354 0.8331 0.0
H520 H 0.82507 0.91908 0.81495 0.0
H521 H 0.8716 0.98245 0.78682 0.0
H522 H 0.99085 0.9403 0.77551 0.0
H523 H 0.952 0.95711 0.78847 0.0
H524 H 0.90383 0.89562 0.81127 0.0
C525 C 0.82314 0.93922 0.82013 0.0
C526 C 0.87848 0.96354 0.7925 0.0
C527 C 0.80179 0.94755 0.83037 0.0
C528 C 0.97572 0.92776 0.77476 0.0
C529 C 0.95349 0.93736 0.78209 0.0
C530 C 0.89691 0.91457 0.80569 0.0
C531 C 0.84176 0.95661 0.81678 0.0
C532 C 0.86516 0.9475 0.8074 0.0
C533 C 0.93361 0.92128 0.78193 0.0
C534 C 0.91021 0.93061 0.79086 0.0
H535 H 0.81502 0.01118 0.83857 0.0
H536 H 0.85209 0.99662 0.82135 0.0
H537 H 0.86536 0.91022 0.82574 0.0
H538 H 0.95967 0.86638 0.76024 0.0
H539 H 0.92129 0.88301 0.77292 0.0
C540 C 0.31683 0.68303 0.99151 0.0
C541 C 0.33323 0.69605 0.00582 0.0
C542 C 0.30567 0.66086 1.0001 0.0
C543 C 0.29726 0.62249 0.05645 0.0
H544 H 0.27968 0.56838 0.01269 0.0
C545 C 0.25567 0.53021 0.0923 0.0
C546 C 0.25959 0.50649 0.08082 0.0
C547 C 0.26184 0.55357 0.08168 0.0
C548 C 0.2848 0.58305 0.02528 0.0
H549 H 0.35125 0.69588 0.04006 0.0
H550 H 0.3332 0.65681 0.05447 0.0
H551 H 0.29633 0.60814 0.99753 0.0
H552 H 0.27347 0.4885 0.04921 0.0
H553 H 0.28625 0.52916 0.0313 0.0
H554 H 0.28802 0.59685 0.08431 0.0
C555 C 0.32771 0.6641 0.03712 0.0
C556 C 0.29396 0.60627 0.01648 0.0
C557 C 0.33826 0.68659 0.02881 0.0
C558 C 0.27001 0.50658 0.05837 0.0
C559 C 0.27715 0.53002 0.04804 0.0
C560 C 0.28889 0.59909 0.06525 0.0
C561 C 0.31121 0.6508 0.02295 0.0
C562 C 0.30043 0.62635 0.03197 0.0
C563 C 0.2734 0.55392 0.05971 0.0
C564 C 0.28234 0.57896 0.04987 0.0
H565 H 0.3127 0.68994 0.97366 0.0
H566 H 0.29279 0.65165 0.98873 0.0
H567 H 0.30135 0.63749 0.06909 0.0
H568 H 0.24819 0.53081 0.10983 0.0
H569 H 0.25773 0.57132 0.09106 0.0
C570 C 0.5651 0.04137 0.27562 0.0
C571 C 0.56116 0.06776 0.26976 0.0
C572 C 0.58795 0.03204 0.28227 0.0
C573 C 0.64244 0.01767 0.28362 0.0
H574 H 0.67387 0.05834 0.3319 0.0
C575 C 0.74241 0.00394 0.31454 0.0
C576 C 0.74587 0.00299 0.3393 0.0
C577 C 0.71986 0.01019 0.30468 0.0
C578 C 0.66536 0.04677 0.31839 0.0
H579 H 0.57822 0.10485 0.26576 0.0
H580 H 0.61759 0.08877 0.27766 0.0
H581 H 0.63452 0.07188 0.31717 0.0
H582 H 0.72839 0.00764 0.37308 0.0
H583 H 0.68957 0.01893 0.35601 0.0
H584 H 0.67363 0.99266 0.28485 0.0
C585 C 0.60316 0.07525 0.27715 0.0
C586 C 0.64285 0.05459 0.30988 0.0
C587 C 0.58055 0.08443 0.27025 0.0
C588 C 0.72638 0.0082 0.35393 0.0
C589 C 0.7041 0.01478 0.34416 0.0
C590 C 0.66526 0.01005 0.29189 0.0
C591 C 0.60714 0.04904 0.28351 0.0
C592 C 0.63105 0.04013 0.29247 0.0
C593 C 0.70054 0.01604 0.31945 0.0
C594 C 0.67687 0.02444 0.30953 0.0
H595 H 0.55051 0.02806 0.27533 0.0
H596 H 0.59047 0.01175 0.28715 0.0
H597 H 0.63384 0.00622 0.2701 0.0
H598 H 0.75709 0.99991 0.30285 0.0
H599 H 0.71764 0.0111 0.28556 0.0
C600 C 0.71829 0.22347 0.49904 0.0
C601 C 0.69363 0.22301 0.50214 0.0
C602 C 0.73102 0.2005 0.49365 0.0
C603 C 0.72604 0.12847 0.49553 0.0
H604 H 0.77007 0.12883 0.44341 0.0
C605 C 0.74923 0.03708 0.44147 0.0
C606 C 0.77248 0.03362 0.43321 0.0
C607 C 0.74256 0.05973 0.45345 0.0
C608 C 0.75813 0.12842 0.45828 0.0
H609 H 0.663 0.19828 0.50183 0.0
H610 H 0.6849 0.15877 0.4926 0.0
H611 H 0.75355 0.16991 0.45793 0.0
H612 H 0.8072 0.05093 0.43199 0.0
H613 H 0.7955 0.09033 0.45292 0.0
H614 H 0.73001 0.08699 0.49541 0.0
C615 C 0.69464 0.17652 0.49468 0.0
C616 C 0.7487 0.15199 0.46662 0.0
C617 C 0.68203 0.1993 0.49986 0.0
C618 C 0.78911 0.05293 0.43802 0.0
C619 C 0.78239 0.07563 0.44989 0.0
C620 C 0.7354 0.10495 0.48717 0.0
C621 C 0.71927 0.17674 0.49148 0.0
C622 C 0.73205 0.15224 0.48493 0.0
C623 C 0.75893 0.07951 0.45739 0.0
C624 C 0.75112 0.10459 0.46807 0.0
H625 H 0.72765 0.24151 0.50065 0.0
H626 H 0.75001 0.20128 0.4913 0.0
H627 H 0.71363 0.128 0.51 0.0
H628 H 0.73595 0.02267 0.43805 0.0
H629 H 0.72428 0.06219 0.45879 0.0
C630 C 0.07736 0.4214 0.75319 0.0
C631 C 0.05946 0.41502 0.73671 0.0
C632 C 0.09847 0.43228 0.74554 0.0
C633 C 0.13582 0.43339 0.69293 0.0
H634 H 0.16952 0.48758 0.7257 0.0
C635 C 0.23135 0.45777 0.66871 0.0
C636 C 0.23574 0.48426 0.66511 0.0
C637 C 0.21055 0.45005 0.67966 0.0
C638 C 0.16028 0.47246 0.71636 0.0
H639 H 0.04919 0.41654 0.69941 0.0
H640 H 0.08586 0.43563 0.68619 0.0
H641 H 0.13062 0.47456 0.73974 0.0
H642 H 0.22231 0.52346 0.67137 0.0
H643 H 0.18606 0.50992 0.69048 0.0
H644 H 0.16521 0.43134 0.66946 0.0
C645 C 0.08373 0.43182 0.70497 0.0
C646 C 0.13809 0.46492 0.72447 0.0
C647 C 0.06263 0.42105 0.71259 0.0
C648 C 0.21945 0.50287 0.67379 0.0
C649 C 0.1987 0.49513 0.68485 0.0
C650 C 0.158 0.44077 0.68497 0.0
C651 C 0.10214 0.43691 0.72126 0.0
C652 C 0.12556 0.44538 0.71274 0.0
C653 C 0.19374 0.46863 0.68736 0.0
C654 C 0.17049 0.4604 0.69655 0.0
H655 H 0.07551 0.41705 0.7719 0.0
H656 H 0.11234 0.43592 0.75853 0.0
H657 H 0.12679 0.41802 0.68371 0.0
H658 H 0.24354 0.44292 0.66232 0.0
H659 H 0.2074 0.42947 0.68169 0.0
C660 C 0.74849 0.93753 0.92968 0.0
C661 C 0.76275 0.95943 0.93086 0.0
C662 C 0.75625 0.91387 0.93989 0.0
C663 C 0.81179 0.87858 0.95367 0.0
H664 H 0.77248 0.83001 0.98719 0.0
C665 C 0.85213 0.78455 0.9934 0.0
C666 C 0.83918 0.76162 0.9922 0.0
C667 C 0.84153 0.80853 0.98752 0.0
C668 C 0.78361 0.84321 0.9776 0.0
H669 H 0.79562 0.97451 0.94464 0.0
H670 H 0.80935 0.93313 0.9626 0.0
H671 H 0.7561 0.87281 0.97541 0.0
H672 H 0.80483 0.74583 0.98393 0.0
H673 H 0.78622 0.78799 0.97286 0.0
H674 H 0.83905 0.8491 0.95511 0.0
C675 C 0.79223 0.93411 0.9536 0.0
C676 C 0.77426 0.86778 0.97097 0.0
C677 C 0.78432 0.95783 0.94356 0.0
C678 C 0.81521 0.76322 0.98506 0.0
C679 C 0.80456 0.78738 0.97888 0.0
C680 C 0.82104 0.85406 0.96007 0.0
C681 C 0.77856 0.91169 0.95131 0.0
C682 C 0.78834 0.88581 0.95909 0.0
C683 C 0.81772 0.81033 0.97981 0.0
C684 C 0.80719 0.83608 0.97232 0.0
H685 H 0.73155 0.93858 0.92047 0.0
H686 H 0.74527 0.89703 0.93783 0.0
H687 H 0.82292 0.89173 0.944 0.0
H688 H 0.87066 0.78405 0.99879 0.0
H689 H 0.85213 0.82572 0.98904 0.0
C690 C 0.46607 0.56287 0.20911 0.0
C691 C 0.47014 0.56741 0.23338 0.0
C692 C 0.44551 0.55046 0.20145 0.0
C693 C 0.39567 0.51027 0.22177 0.0
H694 H 0.36144 0.54342 0.16902 0.0
C695 C 0.31041 0.46876 0.17836 0.0
C696 C 0.29241 0.48677 0.17134 0.0
C697 C 0.33227 0.47726 0.18704 0.0
C698 C 0.3707 0.53402 0.18387 0.0
H699 H 0.45639 0.56124 0.26871 0.0
H700 H 0.42072 0.53968 0.25537 0.0
H701 H 0.40004 0.55943 0.1812 0.0
H702 H 0.28299 0.52788 0.16902 0.0
H703 H 0.32095 0.5426 0.18433 0.0
H704 H 0.36604 0.48515 0.22466 0.0
C705 C 0.43336 0.54564 0.24222 0.0
C706 C 0.393 0.54297 0.19064 0.0
C707 C 0.45379 0.55816 0.24986 0.0
C708 C 0.29644 0.51343 0.17417 0.0
C709 C 0.3183 0.52191 0.18275 0.0
C710 C 0.37339 0.50121 0.2149 0.0
C711 C 0.42868 0.54215 0.2179 0.0
C712 C 0.40569 0.53136 0.20979 0.0
C713 C 0.33666 0.50396 0.1888 0.0
C714 C 0.36053 0.51316 0.19601 0.0
H715 H 0.47829 0.56974 0.19595 0.0
H716 H 0.44259 0.54774 0.1826 0.0
H717 H 0.40506 0.50078 0.2365 0.0
H718 H 0.30794 0.44808 0.17643 0.0
H719 H 0.34605 0.46292 0.19148 0.0
C720 C 0.55858 0.17469 0.29468 0.0
C721 C 0.53449 0.16938 0.29089 0.0
C722 C 0.56606 0.18686 0.31549 0.0
C723 C 0.54548 0.22318 0.36839 0.0
H724 H 0.59983 0.18853 0.39891 0.0
C725 C 0.59073 0.25909 0.45508 0.0
C726 C 0.59925 0.24002 0.47134 0.0
C727 C 0.58109 0.25197 0.43313 0.0
C728 C 0.58451 0.19829 0.39072 0.0
H729 H 0.49916 0.17443 0.30521 0.0
H730 H 0.51223 0.19544 0.34146 0.0
H731 H 0.58718 0.17527 0.35948 0.0
H732 H 0.603 0.19847 0.47781 0.0
H733 H 0.58594 0.18612 0.4397 0.0
H734 H 0.54259 0.24583 0.40002 0.0
C735 C 0.52536 0.19027 0.32838 0.0
C736 C 0.57749 0.19098 0.36794 0.0
C737 C 0.51788 0.17809 0.3076 0.0
C738 C 0.59676 0.21368 0.46567 0.0
C739 C 0.58716 0.20659 0.44373 0.0
C740 C 0.55258 0.23058 0.39122 0.0
C741 C 0.54961 0.19402 0.33292 0.0
C742 C 0.55782 0.20322 0.35652 0.0
C743 C 0.57979 0.22564 0.42696 0.0
C744 C 0.57206 0.21804 0.40272 0.0
H745 H 0.57184 0.16838 0.28213 0.0
H746 H 0.58483 0.18995 0.31826 0.0
H747 H 0.53032 0.23308 0.36003 0.0
H748 H 0.59231 0.27957 0.45887 0.0
H749 H 0.57564 0.26712 0.42059 0.0
C750 C 0.0953 0.22314 0.55368 0.0
C751 C 0.10021 0.24134 0.53573 0.0
C752 C 0.08378 0.23082 0.57433 0.0
C753 C 0.04818 0.28379 0.60179 0.0
H754 H 0.07722 0.2571 0.66025 0.0
C755 C 0.03097 0.33096 0.69257 0.0
C756 C 0.03028 0.31514 0.713 0.0
C757 C 0.0369 0.32045 0.67062 0.0
C758 C 0.06857 0.26442 0.64415 0.0
H759 H 0.09573 0.28174 0.525 0.0
H760 H 0.07557 0.29521 0.56118 0.0
H761 H 0.09174 0.24189 0.62226 0.0
H762 H 0.03479 0.27575 0.72639 0.0
H763 H 0.04497 0.25713 0.68784 0.0
H764 H 0.02514 0.30651 0.62373 0.0
C765 C 0.0806 0.27491 0.55917 0.0
C766 C 0.07694 0.25571 0.6223 0.0
C767 C 0.09216 0.26721 0.53842 0.0
C768 C 0.03525 0.2884 0.71094 0.0
C769 C 0.0412 0.27781 0.68888 0.0
C770 C 0.03973 0.29244 0.62367 0.0
C771 C 0.07684 0.25691 0.57765 0.0
C772 C 0.06701 0.26545 0.60083 0.0
C773 C 0.04229 0.29377 0.66845 0.0
C774 C 0.05 0.28309 0.64517 0.0
H775 H 0.10097 0.20297 0.55215 0.0
H776 H 0.08071 0.21633 0.58793 0.0
H777 H 0.0399 0.29142 0.58562 0.0
H778 H 0.02739 0.35169 0.69357 0.0
H779 H 0.03795 0.33346 0.65548 0.0
C780 C 0.0189 0.79413 0.80773 0.0
C781 C 1.00228 0.80202 0.79004 0.0
C782 C 0.01141 0.78368 0.8293 0.0
C783 C 0.99083 0.75329 0.87088 0.0
H784 H 0.93663 0.78967 0.89768 0.0
C785 C 0.94272 0.71885 0.95555 0.0
C786 C 0.93359 0.73796 0.97087 0.0
C787 C 0.95337 0.72589 0.93425 0.0
C788 C 0.95194 0.77946 0.89059 0.0
H789 H 0.96479 0.80346 0.78064 0.0
H790 H 0.9518 0.78494 0.81806 0.0
H791 H 0.95003 0.80168 0.85834 0.0
H792 H 0.92979 0.77951 0.97636 0.0
H793 H 0.94862 0.79175 0.93936 0.0
H794 H 0.99284 0.73129 0.90341 0.0
C795 C 0.97062 0.78733 0.81544 0.0
C796 C 0.9594 0.78608 0.86784 0.0
C797 C 0.9781 0.79773 0.79387 0.0
C798 C 0.93653 0.76427 0.96498 0.0
C799 C 0.94714 0.7713 0.94364 0.0
C800 C 0.98328 0.74658 0.89366 0.0
C801 C 0.98712 0.78091 0.83369 0.0
C802 C 0.97891 0.77308 0.85766 0.0
C803 C 0.95511 0.75219 0.92772 0.0
C804 C 0.96376 0.75964 0.90381 0.0
H805 H 0.03768 0.79711 0.80541 0.0
H806 H 0.02459 0.77902 0.84297 0.0
H807 H 0.00587 0.74283 0.86354 0.0
H808 H 0.94079 0.69838 0.95951 0.0
H809 H 0.9592 0.71067 0.92238 0.0
C810 C 0.47712 0.68262 0.20699 0.0
C811 C 0.49883 0.66903 0.21025 0.0
C812 C 0.4694 0.69048 0.18418 0.0
C813 C 0.48876 0.70279 0.12254 0.0
H814 H 0.42412 0.68551 0.10598 0.0
C815 C 0.44967 0.71408 0.02586 0.0
C816 C 0.42568 0.72194 0.02374 0.0
C817 C 0.45984 0.70806 0.04832 0.0
C818 C 0.44211 0.69092 0.11029 0.0
H819 H 0.53021 0.65477 0.19261 0.0
H820 H 0.51692 0.66849 0.1528 0.0
H821 H 0.43938 0.67623 0.1458 0.0
H822 H 0.3936 0.72938 0.04353 0.0
H823 H 0.41125 0.72029 0.08214 0.0
H824 H 0.49135 0.71787 0.08705 0.0
C825 C 0.50568 0.67281 0.16774 0.0
C826 C 0.45087 0.68552 0.13322 0.0
C827 C 0.51321 0.66467 0.1905 0.0
C828 C 0.41221 0.72379 0.04445 0.0
C829 C 0.42231 0.71809 0.06672 0.0
C830 C 0.47988 0.7085 0.09958 0.0
C831 C 0.4834 0.68524 0.1642 0.0
C832 C 0.47425 0.69148 0.13972 0.0
C833 C 0.44619 0.70981 0.06908 0.0
C834 C 0.45633 0.70283 0.09316 0.0
H835 H 0.46565 0.68618 0.22192 0.0
H836 H 0.45228 0.70031 0.18212 0.0
H837 H 0.50686 0.70767 0.12699 0.0
H838 H 0.46048 0.71235 0.01021 0.0
H839 H 0.47823 0.70154 0.04932 0.0
C840 C 0.13655 0.32316 0.32823 0.0
C841 C 0.15298 0.31602 0.34629 0.0
C842 C 0.14433 0.33319 0.30657 0.0
C843 C 0.19219 0.37035 0.28232 0.0
H844 H 0.1725 0.34514 0.2206 0.0
C845 C 0.22942 0.4166 0.19891 0.0
C846 C 0.21371 0.42111 0.17975 0.0
C847 C 0.22348 0.39978 0.21733 0.0
C848 C 0.178 0.35262 0.23766 0.0
H849 H 0.19036 0.31382 0.35592 0.0
H850 H 0.20387 0.33177 0.31835 0.0
H851 H 0.15815 0.32424 0.25667 0.0
H852 H 0.1799 0.41128 0.1641 0.0
H853 H 0.16882 0.38265 0.19678 0.0
H854 H 0.21105 0.39942 0.26389 0.0
C855 C 0.18503 0.32934 0.32082 0.0
C856 C 0.16981 0.34058 0.25829 0.0
C857 C 0.17731 0.31895 0.34225 0.0
C858 C 0.19242 0.40767 0.17861 0.0
C859 C 0.18613 0.39129 0.19739 0.0
C860 C 0.20003 0.38264 0.26182 0.0
C861 C 0.16864 0.3367 0.30283 0.0
C862 C 0.17696 0.34928 0.2808 0.0
C863 C 0.20125 0.38784 0.21742 0.0
C864 C 0.19321 0.3739 0.23914 0.0
H865 H 0.11771 0.32098 0.33086 0.0
H866 H 0.13133 0.33889 0.29302 0.0
H867 H 0.19767 0.37771 0.29945 0.0
H868 H 0.24594 0.42689 0.20007 0.0
H869 H 0.23599 0.39698 0.23196 0.0
C870 C 0.94327 0.88088 0.58098 0.0
C871 C 0.93313 0.88978 0.60218 0.0
C872 C 0.93468 0.8901 0.55887 0.0
C873 C 0.89879 0.94406 0.53075 0.0
H874 H 0.88547 0.89423 0.48137 0.0
C875 C 0.82624 0.96121 0.46014 0.0
C876 C 0.82922 0.95228 0.43689 0.0
C877 C 0.84361 0.95631 0.47759 0.0
C878 C 0.88953 0.90851 0.49474 0.0
H879 H 0.90652 0.91601 0.61667 0.0
H880 H 0.89146 0.93182 0.57835 0.0
H881 H 0.90685 0.88001 0.51748 0.0
H882 H 0.8531 0.93194 0.41334 0.0
H883 H 0.88374 0.92285 0.44426 0.0
H884 H 0.88078 0.97235 0.50845 0.0
C885 C 0.90612 0.91782 0.5787 0.0
C886 C 0.90176 0.90034 0.5155 0.0
C887 C 0.91458 0.90851 0.60072 0.0
C888 C 0.85046 0.93915 0.43113 0.0
C889 C 0.86785 0.9338 0.44884 0.0
C890 C 0.88661 0.95219 0.51007 0.0
C891 C 0.91593 0.90865 0.55745 0.0
C892 C 0.90589 0.91787 0.53408 0.0
C893 C 0.8644 0.94203 0.47238 0.0
C894 C 0.88116 0.93437 0.49213 0.0
H895 H 0.95749 0.86635 0.58145 0.0
H896 H 0.94274 0.88273 0.54288 0.0
H897 H 0.90217 0.95822 0.54442 0.0
H898 H 0.81003 0.97142 0.46506 0.0
H899 H 0.84017 0.96268 0.49551 0.0
C900 C 0.29947 0.54216 0.69522 0.0
C901 C 0.30605 0.54771 0.67182 0.0
C902 C 0.30067 0.561 0.71276 0.0
C903 C 0.33344 0.61836 0.7295 0.0
H904 H 0.28766 0.62107 0.78015 0.0
C905 C 0.34828 0.67894 0.81491 0.0
C906 C 0.34355 0.66604 0.83642 0.0
C907 C 0.34116 0.66849 0.79311 0.0
C908 C 0.30066 0.62051 0.76621 0.0
H909 H 0.31822 0.57774 0.64813 0.0
H910 H 0.32073 0.61107 0.67922 0.0
H911 H 0.27893 0.5967 0.74428 0.0
H912 H 0.32694 0.63241 0.85175 0.0
H913 H 0.31471 0.61412 0.81385 0.0
H914 H 0.3555 0.64153 0.7518 0.0
C915 C 0.31462 0.59193 0.68386 0.0
C916 C 0.29562 0.60662 0.74559 0.0
C917 C 0.31308 0.57296 0.66606 0.0
C918 C 0.33105 0.64276 0.83556 0.0
C919 C 0.32381 0.63241 0.8138 0.0
C920 C 0.33849 0.63232 0.75018 0.0
C921 C 0.30868 0.58599 0.7075 0.0
C922 C 0.31224 0.60468 0.72727 0.0
C923 C 0.32897 0.64499 0.79225 0.0
C924 C 0.32245 0.63293 0.76909 0.0
H925 H 0.29383 0.5229 0.70018 0.0
H926 H 0.29623 0.55556 0.73074 0.0
H927 H 0.34672 0.61709 0.71585 0.0
H928 H 0.35808 0.69677 0.81488 0.0
H929 H 0.34529 0.67879 0.7769 0.0
C930 C 0.60286 0.05757 0.09907 0.0
C931 C 0.60023 0.08411 0.10452 0.0
C932 C 0.61198 0.04976 0.0772 0.0
C933 C 0.64978 0.07305 0.02913 0.0
H934 H 0.62355 0.01659 0.99281 0.0
C935 C 0.68478 0.04989 0.93658 0.0
C936 C 0.68842 0.02364 0.93069 0.0
C937 C 0.6719 0.05683 0.95662 0.0
C938 C 0.63125 0.03223 1.00284 0.0
H939 H 0.60506 0.12321 0.09108 0.0
H940 H 0.62076 0.10963 0.05296 0.0
H941 H 0.60536 0.02936 0.03023 0.0
H942 H 0.68052 0.98406 0.94076 0.0
H943 H 0.65835 0.99615 0.97612 0.0
H944 H 0.67589 0.07574 1.00226 0.0
C945 C 0.61588 0.09483 0.06565 0.0
C946 C 0.62079 0.03956 0.02428 0.0
C947 C 0.60664 0.10262 0.08742 0.0
C948 C 0.67796 0.00448 0.94476 0.0
C949 C 0.66521 0.01144 0.96504 0.0
C950 C 0.66028 0.06566 0.00786 0.0
C951 C 0.61887 0.06831 0.06033 0.0
C952 C 0.62987 0.06018 0.0376 0.0
C953 C 0.66252 0.03771 0.97154 0.0
C954 C 0.65109 0.04527 0.99429 0.0
H955 H 0.59788 0.0428 0.11175 0.0
H956 H 0.61418 0.02918 0.07373 0.0
H957 H 0.65754 0.08864 0.03918 0.0
H958 H 0.69232 0.06517 0.92595 0.0
H959 H 0.66964 0.07727 0.96062 0.0
C960 C 0.6981 0.16162 0.667 0.0
C961 C 0.67449 0.15889 0.65917 0.0
C962 C 0.70571 0.15162 0.6891 0.0
C963 C 0.68399 0.12523 0.74655 0.0
H964 H 0.744 0.08683 0.74722 0.0
C965 C 0.71667 0.06353 0.82818 0.0
C966 C 0.72383 0.03814 0.82212 0.0
C967 C 0.71344 0.0827 0.81043 0.0
C968 C 0.72725 0.09759 0.74739 0.0
H969 H 0.64032 0.14372 0.6686 0.0
H970 H 0.65359 0.12605 0.70691 0.0
H971 H 0.73195 0.11202 0.71213 0.0
H972 H 0.73434 0.01317 0.79316 0.0
H973 H 0.72879 0.04624 0.7625 0.0
H974 H 0.67881 0.10955 0.78142 0.0
C975 C 0.66616 0.13638 0.69624 0.0
C976 C 0.72042 0.11226 0.72733 0.0
C977 C 0.65855 0.14645 0.6742 0.0
C978 C 0.72869 0.03255 0.79834 0.0
C979 C 0.72569 0.05161 0.78075 0.0
C980 C 0.69084 0.11051 0.76665 0.0
C981 C 0.68991 0.13856 0.70387 0.0
C982 C 0.69841 0.12572 0.72638 0.0
C983 C 0.71766 0.0768 0.78646 0.0
C984 C 0.71224 0.09591 0.76701 0.0
H985 H 0.71073 0.17147 0.65602 0.0
H986 H 0.72402 0.15401 0.69454 0.0
H987 H 0.6671 0.13572 0.7466 0.0
H988 H 0.71287 0.06833 0.84643 0.0
H989 H 0.70739 0.10199 0.81539 0.0
C990 C 0.18406 0.41736 0.06274 0.0
C991 C 0.18413 0.44225 0.07281 0.0
C992 C 0.16984 0.41236 0.04287 0.0
C993 C 0.14203 0.44468 0.99105 0.0
H994 H 0.10984 0.37937 0.98443 0.0
C995 C 0.08893 0.41775 0.90577 0.0
C996 C 0.09194 0.392 0.89798 0.0
C997 C 0.098 0.42524 0.9279 0.0
C998 C 0.11888 0.39762 0.98591 0.0
H999 H 0.1688 0.48127 0.07015 0.0
H1000 H 0.14397 0.47249 0.03529 0.0
H1001 H 0.1289 0.38987 0.02214 0.0
H1002 H 0.10659 0.35389 0.90764 0.0
H1003 H 0.12291 0.36706 0.94565 0.0
H1004 H 0.13254 0.45212 0.9546 0.0
C1005 C 0.15504 0.45691 0.04281 0.0
C1006 C 0.12974 0.40366 0.00755 0.0
C1007 C 0.16915 0.46187 0.06288 0.0
C1008 C 0.10426 0.37399 0.91283 0.0
C1009 C 0.1133 0.38145 0.93486 0.0
C1010 C 0.13123 0.43858 0.96932 0.0
C1011 C 0.15544 0.43215 0.03245 0.0
C1012 C 0.14181 0.42704 0.01025 0.0
C1013 C 0.11019 0.40712 0.94277 0.0
C1014 C 0.11992 0.41474 0.96636 0.0
H1015 H 0.19534 0.40177 0.06993 0.0
H1016 H 0.17075 0.39315 0.03518 0.0
H1017 H 0.15139 0.46274 0.99251 0.0
H1018 H 0.07965 0.43215 0.89472 0.0
H1019 H 0.09519 0.44514 0.9335 0.0
C1020 C 0.82878 0.92473 0.31444 0.0
C1021 C 0.80759 0.92165 0.32691 0.0
C1022 C 0.83301 0.91105 0.29363 0.0
C1023 C 0.81807 0.85391 0.25902 0.0
H1024 H 0.83979 0.89561 0.20632 0.0
C1025 C 0.8359 0.8113 0.16522 0.0
C1026 C 0.85571 0.82071 0.1532 0.0
C1027 C 0.82844 0.82268 0.18644 0.0
C1028 C 0.83403 0.88356 0.22089 0.0
H1029 H 0.77461 0.9008 0.32762 0.0
H1030 H 0.78229 0.87646 0.29112 0.0
H1031 H 0.8298 0.91642 0.24355 0.0
H1032 H 0.88305 0.84966 0.15425 0.0
H1033 H 0.87067 0.86872 0.19139 0.0
H1034 H 0.82293 0.8209 0.23648 0.0
C1035 C 0.79549 0.88972 0.2976 0.0
C1036 C 0.82819 0.89554 0.24221 0.0
C1037 C 0.7911 0.90368 0.31846 0.0
C1038 C 0.86794 0.84161 0.16309 0.0
C1039 C 0.86058 0.85285 0.18428 0.0
C1040 C 0.82414 0.84181 0.23766 0.0
C1041 C 0.81628 0.89374 0.28473 0.0
C1042 C 0.82053 0.88084 0.26164 0.0
C1043 C 0.8406 0.84374 0.19616 0.0
C1044 C 0.8326 0.85647 0.21845 0.0
H1045 H 0.84201 0.93823 0.32039 0.0
H1046 H 0.84938 0.91422 0.28433 0.0
H1047 H 0.81228 0.8421 0.27374 0.0
H1048 H 0.82619 0.79506 0.1583 0.0
H1049 H 0.81292 0.81524 0.195 0.0
C1050 C 0.3537 0.51182 0.55289 0.0
C1051 C 0.33827 0.53055 0.56281 0.0
C1052 C 0.36738 0.51801 0.53311 0.0
C1053 C 0.39073 0.57393 0.49934 0.0
H1054 H 0.39202 0.5266 0.44621 0.0
C1055 C 0.41961 0.6072 0.40658 0.0
C1056 C 0.43303 0.58998 0.39256 0.0
C1057 C 0.40973 0.59885 0.42785 0.0
C1058 C 0.39216 0.5399 0.46099 0.0
H1059 H 0.32574 0.57069 0.55998 0.0
H1060 H 0.34951 0.58138 0.52582 0.0
H1061 H 0.37257 0.51398 0.48287 0.0
H1062 H 0.44635 0.55022 0.39012 0.0
H1063 H 0.42942 0.53573 0.42752 0.0
H1064 H 0.41016 0.59992 0.47758 0.0
C1065 C 0.35114 0.56194 0.53329 0.0
C1066 C 0.381 0.53264 0.48203 0.0
C1067 C 0.33737 0.55573 0.55287 0.0
C1068 C 0.43628 0.56409 0.40049 0.0
C1069 C 0.42636 0.55571 0.42185 0.0
C1070 C 0.40194 0.58114 0.47839 0.0
C1071 C 0.36615 0.54313 0.52297 0.0
C1072 C 0.3798 0.54976 0.50134 0.0
C1073 C 0.41303 0.57303 0.43588 0.0
C1074 C 0.40247 0.56443 0.45875 0.0
H1075 H 0.35481 0.49222 0.56004 0.0
H1076 H 0.37891 0.50312 0.52572 0.0
H1077 H 0.39054 0.5874 0.514 0.0
H1078 H 0.417 0.62737 0.40132 0.0
H1079 H 0.39931 0.61269 0.43793 0.0
C1080 C 0.21674 0.17575 0.43439 0.0
C1081 C 0.20606 0.20073 0.43347 0.0
C1082 C 0.23729 0.17007 0.42164 0.0
C1083 C 0.27435 0.19215 0.3718 0.0
H1084 H 0.32305 0.15018 0.40429 0.0
C1085 C 0.3677 0.17134 0.33169 0.0
C1086 C 0.37756 0.14615 0.33515 0.0
C1087 C 0.34687 0.17914 0.34329 0.0
C1088 C 0.30958 0.16167 0.39479 0.0
H1089 H 0.2084 0.23917 0.41768 0.0
H1090 H 0.24437 0.22922 0.3954 0.0
H1091 H 0.28653 0.16141 0.42458 0.0
H1092 H 0.37251 0.10921 0.35299 0.0
H1093 H 0.3365 0.12269 0.37304 0.0
H1094 H 0.29748 0.19223 0.34191 0.0
C1095 C 0.23673 0.21398 0.40599 0.0
C1096 C 0.28856 0.16813 0.40647 0.0
C1097 C 0.21613 0.21971 0.41884 0.0
C1098 C 0.36586 0.12895 0.35031 0.0
C1099 C 0.34511 0.13671 0.36184 0.0
C1100 C 0.29543 0.18561 0.36005 0.0
C1101 C 0.24781 0.18918 0.40754 0.0
C1102 C 0.27052 0.18322 0.39509 0.0
C1103 C 0.33533 0.16194 0.35862 0.0
C1104 C 0.31324 0.17003 0.37131 0.0
H1105 H 0.20949 0.16054 0.44531 0.0
H1106 H 0.24499 0.15061 0.42291 0.0
H1107 H 0.2608 0.20365 0.36241 0.0
H1108 H 0.37628 0.18518 0.32028 0.0
H1109 H 0.34003 0.19879 0.34053 0.0
C1110 C 0.09334 0.07348 0.57013 0.0
C1111 C 0.11301 0.08606 0.57998 0.0
C1112 C 0.08151 0.05465 0.58323 0.0
C1113 C 0.0736 0.03023 0.64472 0.0
H1114 H 0.05868 0.96516 0.61436 0.0
C1115 C 0.05988 0.93687 0.69817 0.0
C1116 C 0.04141 0.92041 0.69152 0.0
C1117 C 0.06561 0.95804 0.68395 0.0
C1118 C 0.06239 0.98336 0.623 0.0
H1119 H 0.13513 0.08936 0.61158 0.0
H1120 H 0.11485 0.05639 0.63422 0.0
H1121 H 0.07396 1.00092 0.59069 0.0
H1122 H 0.01457 0.91334 0.66446 0.0
H1123 H 0.02481 0.95048 0.63941 0.0
H1124 H 0.06264 0.0125 0.67711 0.0
C1125 C 0.1084 0.06112 0.61646 0.0
C1126 C 0.07113 0.00387 0.60945 0.0
C1127 C 0.12022 0.07983 0.60337 0.0
C1128 C 0.02889 0.92562 0.67012 0.0
C1129 C 0.03478 0.94682 0.65574 0.0
C1130 C 0.06495 0.00976 0.65824 0.0
C1131 C 0.08901 0.04814 0.60651 0.0
C1132 C 0.07734 0.02734 0.62027 0.0
C1133 C 0.05313 0.96335 0.66261 0.0
C1134 C 0.05975 0.9859 0.64765 0.0
H1135 H 0.08744 0.07772 0.55208 0.0
H1136 H 0.06653 0.04516 0.57512 0.0
H1137 H 0.0777 0.04823 0.65352 0.0
H1138 H 0.06995 0.93353 0.71449 0.0
H1139 H 0.08011 0.97011 0.68955 0.0
C1140 C 0.1647 0.80945 0.84762 0.0
C1141 C 0.16512 0.81501 0.82314 0.0
C1142 C 0.18525 0.80067 0.8598 0.0
C1143 C 0.2505 0.80183 0.85733 0.0
H1144 H 0.24697 0.74992 0.90733 0.0
C1145 C 0.33144 0.77319 0.91948 0.0
C1146 C 0.32565 0.77228 0.94364 0.0
C1147 C 0.31333 0.7747 0.90195 0.0
C1148 C 0.2483 0.7645 0.89345 0.0
H1149 H 0.18758 0.81459 0.79219 0.0
H1150 H 0.22346 0.79962 0.81355 0.0
H1151 H 0.21217 0.75975 0.88236 0.0
H1152 H 0.29649 0.77155 0.9683 0.0
H1153 H 0.26548 0.77439 0.93828 0.0
H1154 H 0.28646 0.80718 0.86905 0.0
C1155 C 0.20722 0.80236 0.82333 0.0
C1156 C 0.22831 0.77015 0.87916 0.0
C1157 C 0.18661 0.81098 0.81111 0.0
C1158 C 0.30162 0.77227 0.94986 0.0
C1159 C 0.28373 0.77366 0.93255 0.0
C1160 C 0.27054 0.79626 0.87177 0.0
C1161 C 0.20685 0.79729 0.84788 0.0
C1162 C 0.22894 0.78934 0.8613 0.0
C1163 C 0.28921 0.77504 0.90836 0.0
C1164 C 0.26947 0.77803 0.89046 0.0
H1165 H 0.14868 0.81272 0.85763 0.0
H1166 H 0.18438 0.79732 0.87877 0.0
H1167 H 0.25159 0.8168 0.84379 0.0
H1168 H 0.34982 0.77321 0.91421 0.0
H1169 H 0.31817 0.77562 0.88344 0.0
C1170 C 0.5044 0.04481 0.17376 0.0
C1171 C 0.49339 0.04879 0.19573 0.0
C1172 C 0.49814 0.02386 0.15941 0.0
C1173 C 0.47127 0.9593 0.16252 0.0
H1174 H 0.45637 0.96968 0.09563 0.0
C1175 C 0.41743 0.88575 0.10961 0.0
C1176 C 0.42287 0.88109 0.08574 0.0
C1177 C 0.42868 0.90527 0.12224 0.0
C1178 C 0.46086 0.96631 0.11419 0.0
H1179 H 0.46719 0.03371 0.21976 0.0
H1180 H 0.45646 0.99741 0.1949 0.0
H1181 H 0.47135 0.00575 0.11902 0.0
H1182 H 0.44476 0.89319 0.05653 0.0
H1183 H 0.4648 0.9271 0.07879 0.0
H1184 H 0.46072 0.92003 0.15791 0.0
C1185 C 0.47 0.01035 0.18879 0.0
C1186 C 0.4694 0.98701 0.12758 0.0
C1187 C 0.47606 0.03133 0.20298 0.0
C1188 C 0.44025 0.89617 0.07493 0.0
C1189 C 0.45155 0.91578 0.08762 0.0
C1190 C 0.46288 0.93863 0.14916 0.0
C1191 C 0.48098 0.0063 0.16688 0.0
C1192 C 0.47419 0.98386 0.15201 0.0
C1193 C 0.44581 0.92065 0.11142 0.0
C1194 C 0.45704 0.942 0.12494 0.0
H1195 H 0.51781 0.05788 0.16761 0.0
H1196 H 0.50695 0.02117 0.14263 0.0
H1197 H 0.47525 0.95612 0.18121 0.0
H1198 H 0.40441 0.87428 0.11862 0.0
H1199 H 0.42354 0.90864 0.14042 0.0
C1200 C 0.85054 0.3625 0.66825 0.0
C1201 C 0.86895 0.34387 0.6716 0.0
C1202 C 0.82835 0.3552 0.65961 0.0
C1203 C 0.78909 0.29971 0.65151 0.0
H1204 H 0.76352 0.34049 0.59844 0.0
C1205 C 0.71143 0.26579 0.59145 0.0
C1206 C 0.69626 0.28494 0.58111 0.0
C1207 C 0.73108 0.2729 0.60522 0.0
C1208 C 0.77007 0.32914 0.61354 0.0
H1209 H 0.8783 0.30286 0.66943 0.0
H1210 H 0.83941 0.29008 0.65432 0.0
H1211 H 0.80027 0.35313 0.61764 0.0
H1212 H 0.6887 0.32638 0.57848 0.0
H1213 H 0.72226 0.33872 0.60315 0.0
H1214 H 0.75878 0.27574 0.64747 0.0
C1215 C 0.8422 0.31032 0.65837 0.0
C1216 C 0.79123 0.33637 0.62449 0.0
C1217 C 0.86449 0.31767 0.6668 0.0
C1218 C 0.70029 0.31119 0.58593 0.0
C1219 C 0.71966 0.31827 0.59994 0.0
C1220 C 0.76771 0.29259 0.6407 0.0
C1221 C 0.82402 0.32908 0.65434 0.0
C1222 C 0.80104 0.3217 0.6435 0.0
C1223 C 0.73575 0.29929 0.60915 0.0
C1224 C 0.75798 0.30717 0.62149 0.0
H1225 H 0.8535 0.38286 0.67165 0.0
H1226 H 0.8146 0.37004 0.65685 0.0
H1227 H 0.79619 0.28815 0.66626 0.0
H1228 H 0.7088 0.24539 0.58795 0.0
H1229 H 0.74314 0.25774 0.61186 0.0
C1230 C 0.98713 0.44588 0.79474 0.0
C1231 C 0.98569 0.41884 0.79753 0.0
C1232 C 0.98403 0.46234 0.81402 0.0
C1233 C 0.95415 0.46675 0.87082 0.0
H1234 H 0.99079 0.5292 0.87721 0.0
C1235 C 0.93091 0.54599 0.93983 0.0
C1236 C 0.93107 0.5718 0.93136 0.0
C1237 C 0.94062 0.52567 0.92644 0.0
C1238 C 0.98031 0.51193 0.87562 0.0
H1239 H 0.98058 0.38765 0.82286 0.0
H1240 H 0.9748 0.41668 0.85688 0.0
H1241 H 1.00286 0.49605 0.84889 0.0
H1242 H 0.94236 0.59648 0.90248 0.0
H1243 H 0.95886 0.56114 0.87899 0.0
H1244 H 0.93112 0.48303 0.89696 0.0
C1245 C 0.97831 0.42505 0.83962 0.0
C1246 C 0.98728 0.49288 0.85945 0.0
C1247 C 0.98169 0.40846 0.82023 0.0
C1248 C 0.9417 0.57683 0.90944 0.0
C1249 C 0.95143 0.55655 0.89609 0.0
C1250 C 0.94712 0.48587 0.88699 0.0
C1251 C 0.97925 0.45222 0.83663 0.0
C1252 C 0.97394 0.47038 0.8564 0.0
C1253 C 0.95079 0.53066 0.90427 0.0
C1254 C 0.95978 0.50901 0.88915 0.0
H1255 H 0.9903 0.45445 0.77748 0.0
H1256 H 0.98456 0.48313 0.81098 0.0
H1257 H 0.94337 0.44977 0.86874 0.0
H1258 H 0.92267 0.54136 0.95653 0.0
H1259 H 0.94 0.50601 0.93339 0.0
C1260 C 0.81331 0.67151 0.06433 0.0
C1261 C 0.82549 0.69468 0.06803 0.0
C1262 C 0.79358 0.66556 0.07782 0.0
C1263 C 0.74683 0.69532 0.11484 0.0
H1264 H 0.73657 0.62347 0.13238 0.0
C1265 C 0.66717 0.66122 0.17142 0.0
C1266 C 0.65583 0.63885 0.16322 0.0
C1267 C 0.68832 0.66926 0.1612 0.0
C1268 C 0.7391 0.64361 0.1275 0.0
H1269 H 0.82643 0.72972 0.08914 0.0
H1270 H 0.79205 0.71909 0.11299 0.0
H1271 H 0.77313 0.635 0.11292 0.0
H1272 H 0.6574 0.60823 0.137 0.0
H1273 H 0.69425 0.62199 0.11957 0.0
H1274 H 0.71263 0.70377 0.12954 0.0
C1275 C 0.79769 0.70568 0.09938 0.0
C1276 C 0.76006 0.65024 0.1163 0.0
C1277 C 0.8175 0.71168 0.0858 0.0
C1278 C 0.6659 0.62514 0.14422 0.0
C1279 C 0.68704 0.63305 0.13417 0.0
C1280 C 0.72585 0.68868 0.12622 0.0
C1281 C 0.78545 0.68253 0.0955 0.0
C1282 C 0.76402 0.67608 0.10937 0.0
C1283 C 0.69865 0.65502 0.14267 0.0
C1284 C 0.72158 0.66266 0.13224 0.0
H1285 H 0.81879 0.65798 0.05074 0.0
H1286 H 0.78439 0.64781 0.07398 0.0
H1287 H 0.74917 0.71537 0.1096 0.0
H1288 H 0.66005 0.67214 0.18614 0.0
H1289 H 0.69691 0.68623 0.16819 0.0
C1290 C 0.59754 0.43605 0.44318 0.0
C1291 C 0.59612 0.40946 0.43782 0.0
C1292 C 0.58749 0.45502 0.42789 0.0
C1293 C 0.57106 0.46406 0.36486 0.0
H1294 H 0.54138 0.52861 0.38553 0.0
C1295 C 0.53289 0.53642 0.29643 0.0
C1296 C 0.53835 0.56268 0.29925 0.0
C1297 C 0.53659 0.51865 0.315 0.0
C1298 C 0.54979 0.51077 0.37951 0.0
H1299 H 0.58205 0.38202 0.4126 0.0
H1300 H 0.56414 0.41505 0.38615 0.0
H1301 H 0.5536 0.49533 0.41494 0.0
H1302 H 0.55053 0.59139 0.32417 0.0
H1303 H 0.55757 0.56001 0.35688 0.0
H1304 H 0.56777 0.4794 0.32962 0.0
C1305 C 0.57339 0.42126 0.40202 0.0
C1306 C 0.55676 0.49167 0.39634 0.0
C1307 C 0.58343 0.40228 0.41733 0.0
C1308 C 0.54627 0.5712 0.32155 0.0
C1309 C 0.55024 0.55323 0.34024 0.0
C1310 C 0.56416 0.48305 0.34813 0.0
C1311 C 0.57576 0.44789 0.40682 0.0
C1312 C 0.56744 0.46804 0.38918 0.0
C1313 C 0.54617 0.52657 0.33687 0.0
C1314 C 0.55333 0.50662 0.35517 0.0
H1315 H 0.60685 0.44227 0.45902 0.0
H1316 H 0.58974 0.4753 0.43213 0.0
H1317 H 0.57978 0.44645 0.3587 0.0
H1318 H 0.52635 0.52939 0.27954 0.0
H1319 H 0.53254 0.49847 0.31198 0.0
C1320 C 0.32154 0.29144 0.17211 0.0
C1321 C 0.32962 0.31695 0.1694 0.0
C1322 C 0.33636 0.27182 0.18193 0.0
C1323 C 0.39242 0.26032 0.21662 0.0
H1324 H 0.39479 0.1947 0.18331 0.0
C1325 C 0.47435 0.19266 0.21885 0.0
C1326 C 0.47182 0.16559 0.21936 0.0
C1327 C 0.45457 0.20932 0.21682 0.0
C1328 C 0.39404 0.21268 0.19313 0.0
H1329 H 0.35954 0.34184 0.17544 0.0
H1330 H 0.38538 0.3077 0.19253 0.0
H1331 H 0.36474 0.22768 0.17212 0.0
H1332 H 0.44649 0.13464 0.21879 0.0
H1333 H 0.41148 0.16403 0.21494 0.0
H1334 H 0.42223 0.24564 0.23708 0.0
C1335 C 0.36745 0.30289 0.18733 0.0
C1336 C 0.37682 0.23165 0.1867 0.0
C1337 C 0.35263 0.32252 0.17752 0.0
C1338 C 0.44892 0.15545 0.21837 0.0
C1339 C 0.42896 0.17224 0.21609 0.0
C1340 C 0.40962 0.2414 0.22301 0.0
C1341 C 0.35964 0.27719 0.18934 0.0
C1342 C 0.37617 0.25596 0.19797 0.0
C1343 C 0.43163 0.1994 0.21512 0.0
C1344 C 0.41105 0.21763 0.21092 0.0
H1345 H 0.30376 0.28657 0.16644 0.0
H1346 H 0.32961 0.25237 0.18357 0.0
H1347 H 0.39211 0.27857 0.22604 0.0
H1348 H 0.49177 0.20108 0.21969 0.0
H1349 H 0.45734 0.23005 0.21578 0.0
C1350 C 0.93571 0.29938 0.76316 0.0
C1351 C 0.95458 0.30599 0.77842 0.0
C1352 C 0.91986 0.28008 0.76974 0.0
C1353 C 0.89803 0.2451 0.82258 0.0
H1354 H 0.87997 0.192 0.77786 0.0
C1355 C 0.85507 0.15086 0.85367 0.0
C1356 C 0.83628 0.14102 0.84003 0.0
C1357 C 0.86846 0.17135 0.84515 0.0
C1358 C 0.88459 0.20686 0.79049 0.0
H1359 H 0.97139 0.29746 0.81267 0.0
H1360 H 0.944 0.26408 0.82396 0.0
H1361 H 0.90463 0.2277 0.76479 0.0
H1362 H 0.81724 0.1448 0.80637 0.0
H1363 H 0.84045 0.18088 0.79161 0.0
H1364 H 0.87821 0.22435 0.84831 0.0
C1365 C 0.94124 0.2739 0.80702 0.0
C1366 C 0.89871 0.22734 0.78298 0.0
C1367 C 0.95708 0.293 0.80043 0.0
C1368 C 0.83145 0.15203 0.81744 0.0
C1369 C 0.84489 0.17256 0.80889 0.0
C1370 C 0.88394 0.22472 0.83005 0.0
C1371 C 0.92244 0.26715 0.79179 0.0
C1372 C 0.90591 0.24647 0.79906 0.0
C1373 C 0.86342 0.18266 0.82276 0.0
C1374 C 0.87734 0.20509 0.81423 0.0
H1375 H 0.93326 0.30896 0.74606 0.0
H1376 H 0.90547 0.27546 0.75767 0.0
H1377 H 0.90282 0.2598 0.83531 0.0
H1378 H 0.85915 0.14316 0.87126 0.0
H1379 H 0.88282 0.17833 0.85618 0.0
C1380 C 0.08118 0.54604 0.09739 0.0
C1381 C 0.09583 0.55957 0.11328 0.0
C1382 C 0.05853 0.55591 0.09105 0.0
C1383 C 0.01205 0.60304 0.11059 0.0
H1384 H 0.99294 0.6063 0.04416 0.0
C1385 C 0.95099 0.68283 0.07248 0.0
C1386 C 0.9329 0.67693 0.05615 0.0
C1387 C 0.96712 0.6637 0.0805 0.0
C1388 C 0.99777 0.60502 0.06283 0.0
H1389 H 0.09817 0.59444 0.13447 0.0
H1390 H 0.05892 0.61143 0.12361 0.0
H1391 H 0.02902 0.58179 0.05614 0.0
H1392 H 0.91739 0.64631 0.03543 0.0
H1393 H 0.94638 0.6125 0.04908 0.0
H1394 H 0.98151 0.62727 0.11714 0.0
C1395 C 0.06466 0.59292 0.1164 0.0
C1396 C 0.01846 0.59104 0.0697 0.0
C1397 C 0.08724 0.58315 0.12265 0.0
C1398 C 0.93106 0.65127 0.04816 0.0
C1399 C 0.94767 0.63204 0.05587 0.0
C1400 C 0.99151 0.61703 0.10372 0.0
C1401 C 0.04999 0.57945 0.10055 0.0
C1402 C 0.02626 0.59068 0.09357 0.0
C1403 C 0.96588 0.63818 0.07212 0.0
C1404 C 0.9846 0.61892 0.07969 0.0
H1405 H 0.08712 0.5277 0.09002 0.0
H1406 H 0.04763 0.545 0.0789 0.0
H1407 H 0.01722 0.60261 0.12919 0.0
H1408 H 0.95288 0.70244 0.07898 0.0
H1409 H 0.98113 0.66914 0.09274 0.0
C1410 C 0.6594 0.84168 0.35604 0.0
C1411 C 0.68233 0.84752 0.34845 0.0
C1412 C 0.6466 0.82186 0.34539 0.0
C1413 C 0.6534 0.76233 0.30908 0.0
H1414 H 0.58516 0.77116 0.30196 0.0
C1415 C 0.59191 0.6851 0.26554 0.0
C1416 C 0.57107 0.68008 0.27808 0.0
C1417 C 0.60645 0.70573 0.27213 0.0
C1418 C 0.6042 0.76832 0.30391 0.0
H1419 H 0.70967 0.83687 0.32343 0.0
H1420 H 0.68707 0.80258 0.30445 0.0
H1421 H 0.60851 0.80693 0.31665 0.0
H1422 H 0.54942 0.69293 0.30751 0.0
H1423 H 0.5745 0.72854 0.31873 0.0
H1424 H 0.64885 0.72354 0.29626 0.0
C1425 C 0.67913 0.8132 0.31893 0.0
C1426 C 0.61762 0.78884 0.31243 0.0
C1427 C 0.692 0.83309 0.32965 0.0
C1428 C 0.56525 0.69611 0.29735 0.0
C1429 C 0.57958 0.71674 0.30374 0.0
C1430 C 0.63993 0.74178 0.3004 0.0
C1431 C 0.65623 0.80731 0.32667 0.0
C1432 C 0.64235 0.786 0.31563 0.0
C1433 C 0.60029 0.72196 0.29118 0.0
C1434 C 0.61509 0.74437 0.29819 0.0
H1435 H 0.65117 0.85255 0.37021 0.0
H1436 H 0.6292 0.81773 0.35213 0.0
H1437 H 0.67237 0.75933 0.31144 0.0
H1438 H 0.59696 0.67316 0.25062 0.0
H1439 H 0.62226 0.70929 0.26205 0.0
C1440 C 0.56566 0.28982 0.54639 0.0
C1441 C 0.58945 0.29625 0.55008 0.0
C1442 C 0.54763 0.30852 0.54851 0.0
C1443 C 0.53212 0.36763 0.57942 0.0
H1444 H 0.47747 0.36677 0.53672 0.0
C1445 C 0.44373 0.4243 0.59762 0.0
C1446 C 0.4234 0.40919 0.59501 0.0
C1447 C 0.46573 0.41514 0.58954 0.0
C1448 C 0.49261 0.3673 0.54878 0.0
H1449 H 0.61325 0.32737 0.55852 0.0
H1450 H 0.58128 0.36049 0.56265 0.0
H1451 H 0.51375 0.34304 0.52641 0.0
H1452 H 0.41011 0.37299 0.58136 0.0
H1453 H 0.44836 0.35694 0.56756 0.0
H1454 H 0.51053 0.39107 0.60226 0.0
C1455 C 0.57677 0.34083 0.55798 0.0
C1456 C 0.51339 0.3538 0.54284 0.0
C1457 C 0.59499 0.322 0.55555 0.0
C1458 C 0.42547 0.38497 0.58386 0.0
C1459 C 0.44734 0.37593 0.57568 0.0
C1460 C 0.51126 0.38122 0.58537 0.0
C1461 C 0.55289 0.33417 0.55453 0.0
C1462 C 0.53304 0.35299 0.5585 0.0
C1463 C 0.46774 0.39085 0.57846 0.0
C1464 C 0.49101 0.38035 0.5705 0.0
H1465 H 0.56086 0.27013 0.54209 0.0
H1466 H 0.52943 0.30264 0.54615 0.0
H1467 H 0.54695 0.36723 0.59188 0.0
H1468 H 0.44272 0.44298 0.6063 0.0
H1469 H 0.48114 0.42707 0.59188 0.0
C1470 C 0.17372 0.6451 0.67124 0.0
C1471 C 0.1969 0.64907 0.66347 0.0
C1472 C 0.16081 0.66516 0.68198 0.0
C1473 C 0.15564 0.73611 0.68349 0.0
H1474 H 0.11237 0.7223 0.73465 0.0
C1475 C 0.08573 0.81278 0.71515 0.0
C1476 C 0.0628 0.80278 0.71623 0.0
C1477 C 0.1055 0.79588 0.71303 0.0
C1478 C 0.12442 0.72651 0.7204 0.0
H1479 H 0.22492 0.67706 0.66126 0.0
H1480 H 0.2023 0.71222 0.6801 0.0
H1481 H 0.14099 0.6887 0.72292 0.0
H1482 H 0.04259 0.76749 0.71686 0.0
H1483 H 0.07671 0.73831 0.7132 0.0
H1484 H 0.13837 0.77359 0.68038 0.0
C1485 C 0.19413 0.69356 0.67782 0.0
C1486 C 0.14077 0.70724 0.71367 0.0
C1487 C 0.20714 0.67338 0.66722 0.0
C1488 C 0.06004 0.77577 0.71596 0.0
C1489 C 0.07965 0.759 0.71408 0.0
C1490 C 0.13921 0.75541 0.69022 0.0
C1491 C 0.17073 0.68974 0.6851 0.0
C1492 C 0.15604 0.71152 0.69463 0.0
C1493 C 0.1026 0.76879 0.71233 0.0
C1494 C 0.12288 0.75047 0.70821 0.0
H1495 H 0.16543 0.62653 0.66876 0.0
H1496 H 0.14273 0.66165 0.68713 0.0
H1497 H 0.16708 0.73996 0.66867 0.0
H1498 H 0.0883 0.83356 0.71537 0.0
H1499 H 0.123 0.80397 0.71179 0.0
C1500 C 0.44796 0.81899 0.97331 0.0
C1501 C 0.43988 0.79857 0.9591 0.0
C1502 C 0.46849 0.83233 0.96733 0.0
C1503 C 0.50918 0.84335 0.91665 0.0
H1504 H 0.55388 0.86349 0.96575 0.0
C1505 C 0.60509 0.86916 0.89536 0.0
C1506 C 0.61402 0.89208 0.90517 0.0
C1507 C 0.58365 0.85919 0.90297 0.0
C1508 C 0.54145 0.85819 0.95187 0.0
H1509 H 0.44734 0.77613 0.92751 0.0
H1510 H 0.48302 0.79874 0.91751 0.0
H1511 H 0.51648 0.84389 0.97684 0.0
H1512 H 0.60742 0.92196 0.93137 0.0
H1513 H 0.57015 0.90403 0.94507 0.0
H1514 H 0.53442 0.85694 0.89171 0.0
C1515 C 0.4733 0.80505 0.93294 0.0
C1516 C 0.51995 0.84704 0.9582 0.0
C1517 C 0.45279 0.7919 0.93879 0.0
C1518 C 0.60126 0.90417 0.92352 0.0
C1519 C 0.57985 0.89398 0.93132 0.0
C1520 C 0.5307 0.8542 0.91036 0.0
C1521 C 0.48148 0.82549 0.94706 0.0
C1522 C 0.50366 0.83911 0.94064 0.0
C1523 C 0.57061 0.87162 0.92081 0.0
C1524 C 0.54723 0.86143 0.92786 0.0
H1525 H 0.43848 0.82466 0.98908 0.0
H1526 H 0.47407 0.84812 0.97852 0.0
H1527 H 0.49689 0.8382 0.9026 0.0
H1528 H 0.61465 0.85886 0.88169 0.0
H1529 H 0.57726 0.84162 0.89486 0.0
C1530 C 0.95073 0.07449 0.38655 0.0
C1531 C 0.93478 0.06605 0.40379 0.0
C1532 C 0.97179 0.08655 0.39311 0.0
C1533 C 1.0016 0.12057 0.44297 0.0
H1534 H 0.05802 0.10626 0.40635 0.0
C1535 C 0.09265 0.16315 0.46877 0.0
C1536 C 0.10545 0.1741 0.45011 0.0
C1537 C 0.0729 0.14786 0.46406 0.0
C1538 C 0.04241 0.11062 0.41668 0.0
H1539 H 0.92855 0.06401 0.4416 0.0
H1540 H 0.96545 0.08491 0.45315 0.0
H1541 H 0.02137 0.08428 0.39667 0.0
H1542 H 0.10819 0.17662 0.41186 0.0
H1543 H 0.0739 0.14986 0.40358 0.0
H1544 H 0.02274 0.14695 0.46296 0.0
C1545 C 0.96151 0.08244 0.43445 0.0
C1546 C 0.0213 0.09805 0.4111 0.0
C1547 C 0.94032 0.07043 0.42784 0.0
C1548 C 0.09873 0.16843 0.42663 0.0
C1549 C 0.07907 0.15302 0.4219 0.0
C1550 C 0.02276 0.13306 0.44863 0.0
C1551 C 0.97766 0.09051 0.41716 0.0
C1552 C 1.00047 0.10306 0.42396 0.0
C1553 C 0.06557 0.14298 0.44054 0.0
C1554 C 0.04341 0.12847 0.4354 0.0
H1555 H 0.94684 0.07197 0.36783 0.0
H1556 H 0.98336 0.09304 0.37921 0.0
H1557 H 0.98594 0.12523 0.45312 0.0
H1558 H 0.09736 0.16715 0.48707 0.0
H1559 H 0.06319 0.14012 0.47886 0.0
loop_
_geom_bond_atom_site_label_1
_geom_bond_atom_site_label_2
_geom_bond_distance
_geom_bond_site_symmetry_2
_ccdc_geom_bond_type
Ho0 C3 2.811 . S
Ho0 O20 2.322 . S
Ho0 O22 2.378 . S
Ho0 O23 2.524 . S
Ho0 O24 2.381 . S
Ho0 O25 2.669 . S
Ho0 O27 2.346 . S
Ho0 O31 2.305 . S
Ho1 C12 2.811 . S
Ho1 O21 2.346 . S
Ho1 O25 2.305 . S
Ho1 O26 2.322 . S
Ho1 O28 2.378 . S
Ho1 O29 2.524 . S
Ho1 O30 2.381 . S
Ho1 O31 2.669 . S
C2 O20 1.259 . S
C2 O21 1.268 . S
C3 Ho0 2.811 . S
C3 C4 1.488 . S
C3 O22 1.215 . S
C3 O23 1.289 . S
C4 C3 1.488 . S
C4 C5 1.348 . S
C4 C9 1.413 . S
C5 C4 1.348 . S
C5 C6 1.442 . S
C5 H32 0.930 . S
C6 C5 1.442 . S
C6 C7 1.381 . S
C6 H33 0.931 . S
C7 C6 1.381 . S
C7 C8 1.321 . S
C8 C7 1.321 . S
C8 C9 1.403 . S
C8 H34 0.934 . S
C9 C4 1.413 . S
C9 C8 1.403 . S
C9 H35 0.930 . S
C10 O24 1.275 . S
C10 O25 1.256 . S
C11 O26 1.259 . S
C11 O27 1.268 . S
C12 Ho1 2.811 . S
C12 C13 1.488 . S
C12 O28 1.215 . S
C12 O29 1.289 . S
C13 C12 1.488 . S
C13 C14 1.348 . S
C13 C18 1.413 . S
C14 C13 1.348 . S
C14 C15 1.442 . S
C14 H36 0.930 . S
C15 C14 1.442 . S
C15 C16 1.381 . S
C15 H37 0.931 . S
C16 C15 1.381 . S
C16 C17 1.321 . S
C17 C16 1.321 . S
C17 C18 1.403 . S
C17 H38 0.934 . S
C18 C13 1.413 . S
C18 C17 1.403 . S
C18 H39 0.930 . S
C19 O30 1.275 . S
C19 O31 1.256 . S
O20 Ho0 2.322 . S
O20 C2 1.259 . S
O21 Ho1 2.346 . S
O21 C2 1.268 . S
O22 Ho0 2.378 . S
O22 C3 1.215 . S
O23 Ho0 2.524 . S
O23 C3 1.289 . S
O24 Ho0 2.381 . S
O24 C10 1.275 . S
O25 Ho0 2.669 . S
O25 Ho1 2.305 . S
O25 C10 1.256 . S
O26 Ho1 2.322 . S
O26 C11 1.259 . S
O27 Ho0 2.346 . S
O27 C11 1.268 . S
O28 Ho1 2.378 . S
O28 C12 1.215 . S
O29 Ho1 2.524 . S
O29 C12 1.289 . S
O30 Ho1 2.381 . S
O30 C19 1.275 . S
O31 Ho0 2.305 . S
O31 Ho1 2.669 . S
O31 C19 1.256 . S
H32 C5 0.930 . S
H33 C6 0.931 . S
H34 C8 0.934 . S
H35 C9 0.930 . S
H36 C14 0.930 . S
H37 C15 0.931 . S
H38 C17 0.934 . S
H39 C18 0.930 . S
Ho40 C43 2.811 . S
Ho40 O60 2.322 1_655 S
Ho40 O62 2.378 . S
Ho40 O63 2.524 . S
Ho40 O64 2.381 1_655 S
Ho40 O65 2.669 1_655 S
Ho40 O67 2.346 . S
Ho40 O71 2.305 . S
Ho41 C52 2.811 . S
Ho41 O61 2.346 . S
Ho41 O65 2.305 . S
Ho41 O66 2.322 . S
Ho41 O68 2.378 . S
Ho41 O69 2.524 . S
Ho41 O70 2.381 . S
Ho41 O71 2.669 1_455 S
C42 O60 1.259 . S
C42 O61 1.268 . S
C43 Ho40 2.811 . S
C43 C44 1.488 . S
C43 O62 1.215 . S
C43 O63 1.289 . S
C44 C43 1.488 . S
C44 C45 1.348 . S
C44 C49 1.413 . S
C45 C44 1.348 . S
C45 C46 1.442 . S
C45 H72 0.930 . S
C46 C45 1.442 . S
C46 C47 1.381 . S
C46 H73 0.931 . S
C47 C46 1.381 . S
C47 C48 1.321 . S
C48 C47 1.321 . S
C48 C49 1.403 . S
C48 H74 0.934 . S
C49 C44 1.413 . S
C49 C48 1.403 . S
C49 H75 0.930 . S
C50 O64 1.275 . S
C50 O65 1.256 . S
C51 O66 1.259 . S
C51 O67 1.268 1_455 S
C52 Ho41 2.811 . S
C52 C53 1.488 . S
C52 O68 1.215 . S
C52 O69 1.289 . S
C53 C52 1.488 . S
C53 C54 1.348 . S
C53 C58 1.413 . S
C54 C53 1.348 . S
C54 C55 1.442 . S
C54 H76 0.930 . S
C55 C54 1.442 . S
C55 C56 1.381 . S
C55 H77 0.931 . S
C56 C55 1.381 . S
C56 C57 1.321 . S
C57 C56 1.321 . S
C57 C58 1.403 . S
C57 H78 0.934 . S
C58 C53 1.413 . S
C58 C57 1.403 . S
C58 H79 0.930 . S
C59 O70 1.275 1_655 S
C59 O71 1.256 . S
O60 Ho40 2.322 1_455 S
O60 C42 1.259 . S
O61 Ho41 2.346 . S
O61 C42 1.268 . S
O62 Ho40 2.378 . S
O62 C43 1.215 . S
O63 Ho40 2.524 . S
O63 C43 1.289 . S
O64 Ho40 2.381 1_455 S
O64 C50 1.275 . S
O65 Ho40 2.669 1_455 S
O65 Ho41 2.305 . S
O65 C50 1.256 . S
O66 Ho41 2.322 . S
O66 C51 1.259 . S
O67 Ho40 2.346 . S
O67 C51 1.268 1_655 S
O68 Ho41 2.378 . S
O68 C52 1.215 . S
O69 Ho41 2.524 . S
O69 C52 1.289 . S
O70 Ho41 2.381 . S
O70 C59 1.275 1_455 S
O71 Ho40 2.305 . S
O71 Ho41 2.669 1_655 S
O71 C59 1.256 . S
H72 C45 0.930 . S
H73 C46 0.931 . S
H74 C48 0.934 . S
H75 C49 0.930 . S
H76 C54 0.930 . S
H77 C55 0.931 . S
H78 C57 0.934 . S
H79 C58 0.930 . S
Ho80 C83 2.811 . S
Ho80 O100 2.322 1_554 S
Ho80 O102 2.378 . S
Ho80 O103 2.524 . S
Ho80 O104 2.381 1_554 S
Ho80 O105 2.669 1_554 S
Ho80 O107 2.346 . S
Ho80 O111 2.305 . S
Ho81 C92 2.811 . S
Ho81 O101 2.346 . S
Ho81 O105 2.305 . S
Ho81 O106 2.322 . S
Ho81 O108 2.378 . S
Ho81 O109 2.524 . S
Ho81 O110 2.381 . S
Ho81 O111 2.669 1_556 S
C82 O100 1.259 . S
C82 O101 1.268 . S
C83 Ho80 2.811 . S
C83 C84 1.488 . S
C83 O102 1.215 . S
C83 O103 1.289 . S
C84 C83 1.488 . S
C84 C85 1.348 . S
C84 C89 1.413 . S
C85 C84 1.348 . S
C85 C86 1.442 . S
C85 H112 0.930 . S
C86 C85 1.442 . S
C86 C87 1.381 . S
C86 H113 0.931 . S
C87 C86 1.381 . S
C87 C88 1.321 . S
C88 C87 1.321 . S
C88 C89 1.403 . S
C88 H114 0.934 . S
C89 C84 1.413 . S
C89 C88 1.403 . S
C89 H115 0.930 . S
C90 O104 1.275 . S
C90 O105 1.256 . S
C91 O106 1.259 . S
C91 O107 1.268 1_556 S
C92 Ho81 2.811 . S
C92 C93 1.488 . S
C92 O108 1.215 . S
C92 O109 1.289 . S
C93 C92 1.488 . S
C93 C94 1.348 . S
C93 C98 1.413 . S
C94 C93 1.348 . S
C94 C95 1.442 . S
C94 H116 0.930 . S
C95 C94 1.442 . S
C95 C96 1.381 . S
C95 H117 0.931 . S
C96 C95 1.381 . S
C96 C97 1.321 . S
C97 C96 1.321 . S
C97 C98 1.403 . S
C97 H118 0.934 . S
C98 C93 1.413 . S
C98 C97 1.403 . S
C98 H119 0.930 . S
C99 O110 1.275 1_554 S
C99 O111 1.256 . S
O100 Ho80 2.322 1_556 S
O100 C82 1.259 . S
O101 Ho81 2.346 . S
O101 C82 1.268 . S
O102 Ho80 2.378 . S
O102 C83 1.215 . S
O103 Ho80 2.524 . S
O103 C83 1.289 . S
O104 Ho80 2.381 1_556 S
O104 C90 1.275 . S
O105 Ho80 2.669 1_556 S
O105 Ho81 2.305 . S
O105 C90 1.256 . S
O106 Ho81 2.322 . S
O106 C91 1.259 . S
O107 Ho80 2.346 . S
O107 C91 1.268 1_554 S
O108 Ho81 2.378 . S
O108 C92 1.215 . S
O109 Ho81 2.524 . S
O109 C92 1.289 . S
O110 Ho81 2.381 . S
O110 C99 1.275 1_556 S
O111 Ho80 2.305 . S
O111 Ho81 2.669 1_554 S
O111 C99 1.256 . S
H112 C85 0.930 . S
H113 C86 0.931 . S
H114 C88 0.934 . S
H115 C89 0.930 . S
H116 C94 0.930 . S
H117 C95 0.931 . S
H118 C97 0.934 . S
H119 C98 0.930 . S
Ho120 C123 2.811 . S
Ho120 O140 2.322 . S
Ho120 O142 2.378 . S
Ho120 O143 2.524 . S
Ho120 O144 2.381 . S
Ho120 O145 2.669 . S
Ho120 O147 2.346 . S
Ho120 O151 2.305 . S
Ho121 C132 2.811 . S
Ho121 O141 2.346 . S
Ho121 O145 2.305 . S
Ho121 O146 2.322 . S
Ho121 O148 2.378 . S
Ho121 O149 2.524 . S
Ho121 O150 2.381 . S
Ho121 O151 2.669 . S
C122 O140 1.259 . S
C122 O141 1.268 . S
C123 Ho120 2.811 . S
C123 C124 1.488 . S
C123 O142 1.215 . S
C123 O143 1.289 . S
C124 C123 1.488 . S
C124 C125 1.348 . S
C124 C129 1.413 . S
C125 C124 1.348 . S
C125 C126 1.442 . S
C125 H152 0.930 . S
C126 C125 1.442 . S
C126 C127 1.381 . S
C126 H153 0.931 . S
C127 C126 1.381 . S
C127 C128 1.321 . S
C128 C127 1.321 . S
C128 C129 1.403 . S
C128 H154 0.934 . S
C129 C124 1.413 . S
C129 C128 1.403 . S
C129 H155 0.930 . S
C130 O144 1.275 . S
C130 O145 1.256 . S
C131 O146 1.259 . S
C131 O147 1.268 . S
C132 Ho121 2.811 . S
C132 C133 1.488 . S
C132 O148 1.215 . S
C132 O149 1.289 . S
C133 C132 1.488 . S
C133 C134 1.348 . S
C133 C138 1.413 . S
C134 C133 1.348 . S
C134 C135 1.442 . S
C134 H156 0.930 . S
C135 C134 1.442 . S
C135 C136 1.381 . S
C135 H157 0.931 . S
C136 C135 1.381 . S
C136 C137 1.321 . S
C137 C136 1.321 . S
C137 C138 1.403 . S
C137 H158 0.934 . S
C138 C133 1.413 . S
C138 C137 1.403 . S
C138 H159 0.930 . S
C139 O150 1.275 . S
C139 O151 1.256 . S
O140 Ho120 2.322 . S
O140 C122 1.259 . S
O141 Ho121 2.346 . S
O141 C122 1.268 . S
O142 Ho120 2.378 . S
O142 C123 1.215 . S
O143 Ho120 2.524 . S
O143 C123 1.289 . S
O144 Ho120 2.381 . S
O144 C130 1.275 . S
O145 Ho120 2.669 . S
O145 Ho121 2.305 . S
O145 C130 1.256 . S
O146 Ho121 2.322 . S
O146 C131 1.259 . S
O147 Ho120 2.346 . S
O147 C131 1.268 . S
O148 Ho121 2.378 . S
O148 C132 1.215 . S
O149 Ho121 2.524 . S
O149 C132 1.289 . S
O150 Ho121 2.381 . S
O150 C139 1.275 . S
O151 Ho120 2.305 . S
O151 Ho121 2.669 . S
O151 C139 1.256 . S
H152 C125 0.930 . S
H153 C126 0.931 . S
H154 C128 0.934 . S
H155 C129 0.930 . S
H156 C134 0.930 . S
H157 C135 0.931 . S
H158 C137 0.934 . S
H159 C138 0.930 . S
Ho160 C163 2.811 . S
Ho160 O180 2.322 . S
Ho160 O182 2.378 . S
Ho160 O183 2.524 . S
Ho160 O184 2.381 . S
Ho160 O185 2.669 . S
Ho160 O187 2.346 . S
Ho160 O191 2.305 . S
Ho161 C172 2.811 . S
Ho161 O181 2.346 . S
Ho161 O185 2.305 . S
Ho161 O186 2.322 . S
Ho161 O188 2.378 . S
Ho161 O189 2.524 . S
Ho161 O190 2.381 . S
Ho161 O191 2.669 . S
C162 O180 1.259 . S
C162 O181 1.268 . S
C163 Ho160 2.811 . S
C163 C164 1.488 . S
C163 O182 1.215 . S
C163 O183 1.289 . S
C164 C163 1.488 . S
C164 C165 1.348 . S
C164 C169 1.413 . S
C165 C164 1.348 . S
C165 C166 1.442 . S
C165 H192 0.930 . S
C166 C165 1.442 . S
C166 C167 1.381 . S
C166 H193 0.931 . S
C167 C166 1.381 . S
C167 C168 1.321 . S
C168 C167 1.321 . S
C168 C169 1.403 . S
C168 H194 0.934 . S
C169 C164 1.413 . S
C169 C168 1.403 . S
C169 H195 0.930 . S
C170 O184 1.275 . S
C170 O185 1.256 . S
C171 O186 1.259 . S
C171 O187 1.268 . S
C172 Ho161 2.811 . S
C172 C173 1.488 . S
C172 O188 1.215 . S
C172 O189 1.289 . S
C173 C172 1.488 . S
C173 C174 1.348 . S
C173 C178 1.413 . S
C174 C173 1.348 . S
C174 C175 1.442 . S
C174 H196 0.930 . S
C175 C174 1.442 . S
C175 C176 1.381 . S
C175 H197 0.931 . S
C176 C175 1.381 . S
C176 C177 1.321 . S
C177 C176 1.321 . S
C177 C178 1.403 . S
C177 H198 0.934 . S
C178 C173 1.413 . S
C178 C177 1.403 . S
C178 H199 0.930 . S
C179 O190 1.275 . S
C179 O191 1.256 . S
O180 Ho160 2.322 . S
O180 C162 1.259 . S
O181 Ho161 2.346 . S
O181 C162 1.268 . S
O182 Ho160 2.378 . S
O182 C163 1.215 . S
O183 Ho160 2.524 . S
O183 C163 1.289 . S
O184 Ho160 2.381 . S
O184 C170 1.275 . S
O185 Ho160 2.669 . S
O185 Ho161 2.305 . S
O185 C170 1.256 . S
O186 Ho161 2.322 . S
O186 C171 1.259 . S
O187 Ho160 2.346 . S
O187 C171 1.268 . S
O188 Ho161 2.378 . S
O188 C172 1.215 . S
O189 Ho161 2.524 . S
O189 C172 1.289 . S
O190 Ho161 2.381 . S
O190 C179 1.275 . S
O191 Ho160 2.305 . S
O191 Ho161 2.669 . S
O191 C179 1.256 . S
H192 C165 0.930 . S
H193 C166 0.931 . S
H194 C168 0.934 . S
H195 C169 0.930 . S
H196 C174 0.930 . S
H197 C175 0.931 . S
H198 C177 0.934 . S
H199 C178 0.930 . S
Ho200 C203 2.811 . S
Ho200 O220 2.322 . S
Ho200 O222 2.378 . S
Ho200 O223 2.524 . S
Ho200 O224 2.381 . S
Ho200 O225 2.669 . S
Ho200 O227 2.346 1_655 S
Ho200 O231 2.305 . S
Ho201 C212 2.811 . S
Ho201 O221 2.346 1_455 S
Ho201 O225 2.305 1_455 S
Ho201 O226 2.322 . S
Ho201 O228 2.378 . S
Ho201 O229 2.524 . S
Ho201 O230 2.381 . S
Ho201 O231 2.669 1_455 S
C202 O220 1.259 . S
C202 O221 1.268 . S
C203 Ho200 2.811 . S
C203 C204 1.488 . S
C203 O222 1.215 . S
C203 O223 1.289 . S
C204 C203 1.488 . S
C204 C205 1.348 . S
C204 C209 1.413 . S
C205 C204 1.348 . S
C205 C206 1.442 . S
C205 H232 0.930 . S
C206 C205 1.442 . S
C206 C207 1.381 . S
C206 H233 0.931 . S
C207 C206 1.381 . S
C207 C208 1.321 . S
C208 C207 1.321 . S
C208 C209 1.403 . S
C208 H234 0.934 . S
C209 C204 1.413 . S
C209 C208 1.403 . S
C209 H235 0.930 . S
C210 O224 1.275 . S
C210 O225 1.256 . S
C211 O226 1.259 . S
C211 O227 1.268 . S
C212 Ho201 2.811 . S
C212 C213 1.488 . S
C212 O228 1.215 . S
C212 O229 1.289 . S
C213 C212 1.488 . S
C213 C214 1.348 . S
C213 C218 1.413 . S
C214 C213 1.348 . S
C214 C215 1.442 . S
C214 H236 0.930 . S
C215 C214 1.442 . S
C215 C216 1.381 . S
C215 H237 0.931 . S
C216 C215 1.381 . S
C216 C217 1.321 . S
C217 C216 1.321 . S
C217 C218 1.403 . S
C217 H238 0.934 . S
C218 C213 1.413 . S
C218 C217 1.403 . S
C218 H239 0.930 . S
C219 O230 1.275 . S
C219 O231 1.256 1_455 S
O220 Ho200 2.322 . S
O220 C202 1.259 . S
O221 Ho201 2.346 1_655 S
O221 C202 1.268 . S
O222 Ho200 2.378 . S
O222 C203 1.215 . S
O223 Ho200 2.524 . S
O223 C203 1.289 . S
O224 Ho200 2.381 . S
O224 C210 1.275 . S
O225 Ho200 2.669 . S
O225 Ho201 2.305 1_655 S
O225 C210 1.256 . S
O226 Ho201 2.322 . S
O226 C211 1.259 . S
O227 Ho200 2.346 1_455 S
O227 C211 1.268 . S
O228 Ho201 2.378 . S
O228 C212 1.215 . S
O229 Ho201 2.524 . S
O229 C212 1.289 . S
O230 Ho201 2.381 . S
O230 C219 1.275 . S
O231 Ho200 2.305 . S
O231 Ho201 2.669 1_655 S
O231 C219 1.256 1_655 S
H232 C205 0.930 . S
H233 C206 0.931 . S
H234 C208 0.934 . S
H235 C209 0.930 . S
H236 C214 0.930 . S
H237 C215 0.931 . S
H238 C217 0.934 . S
H239 C218 0.930 . S
Ho240 C243 2.811 . S
Ho240 O260 2.322 . S
Ho240 O262 2.378 . S
Ho240 O263 2.524 . S
Ho240 O264 2.381 . S
Ho240 O265 2.669 . S
Ho240 O267 2.346 1_554 S
Ho240 O271 2.305 . S
Ho241 C252 2.811 . S
Ho241 O261 2.346 1_556 S
Ho241 O265 2.305 1_556 S
Ho241 O266 2.322 . S
Ho241 O268 2.378 . S
Ho241 O269 2.524 . S
Ho241 O270 2.381 . S
Ho241 O271 2.669 1_556 S
C242 O260 1.259 . S
C242 O261 1.268 . S
C243 Ho240 2.811 . S
C243 C244 1.488 . S
C243 O262 1.215 . S
C243 O263 1.289 . S
C244 C243 1.488 . S
C244 C245 1.348 . S
C244 C249 1.413 . S
C245 C244 1.348 . S
C245 C246 1.442 . S
C245 H272 0.930 . S
C246 C245 1.442 . S
C246 C247 1.381 . S
C246 H273 0.931 . S
C247 C246 1.381 . S
C247 C248 1.321 . S
C248 C247 1.321 . S
C248 C249 1.403 . S
C248 H274 0.934 . S
C249 C244 1.413 . S
C249 C248 1.403 . S
C249 H275 0.930 . S
C250 O264 1.275 . S
C250 O265 1.256 . S
C251 O266 1.259 . S
C251 O267 1.268 . S
C252 Ho241 2.811 . S
C252 C253 1.488 . S
C252 O268 1.215 . S
C252 O269 1.289 . S
C253 C252 1.488 . S
C253 C254 1.348 . S
C253 C258 1.413 . S
C254 C253 1.348 . S
C254 C255 1.442 . S
C254 H276 0.930 . S
C255 C254 1.442 . S
C255 C256 1.381 . S
C255 H277 0.931 . S
C256 C255 1.381 . S
C256 C257 1.321 . S
C257 C256 1.321 . S
C257 C258 1.403 . S
C257 H278 0.934 . S
C258 C253 1.413 . S
C258 C257 1.403 . S
C258 H279 0.930 . S
C259 O270 1.275 . S
C259 O271 1.256 1_556 S
O260 Ho240 2.322 . S
O260 C242 1.259 . S
O261 Ho241 2.346 1_554 S
O261 C242 1.268 . S
O262 Ho240 2.378 . S
O262 C243 1.215 . S
O263 Ho240 2.524 . S
O263 C243 1.289 . S
O264 Ho240 2.381 . S
O264 C250 1.275 . S
O265 Ho240 2.669 . S
O265 Ho241 2.305 1_554 S
O265 C250 1.256 . S
O266 Ho241 2.322 . S
O266 C251 1.259 . S
O267 Ho240 2.346 1_556 S
O267 C251 1.268 . S
O268 Ho241 2.378 . S
O268 C252 1.215 . S
O269 Ho241 2.524 . S
O269 C252 1.289 . S
O270 Ho241 2.381 . S
O270 C259 1.275 . S
O271 Ho240 2.305 . S
O271 Ho241 2.669 1_554 S
O271 C259 1.256 1_554 S
H272 C245 0.930 . S
H273 C246 0.931 . S
H274 C248 0.934 . S
H275 C249 0.930 . S
H276 C254 0.930 . S
H277 C255 0.931 . S
H278 C257 0.934 . S
H279 C258 0.930 . S
Ho280 C283 2.811 . S
Ho280 O300 2.322 . S
Ho280 O302 2.378 . S
Ho280 O303 2.524 . S
Ho280 O304 2.381 . S
Ho280 O305 2.669 . S
Ho280 O307 2.346 . S
Ho280 O311 2.305 . S
Ho281 C292 2.811 . S
Ho281 O301 2.346 . S
Ho281 O305 2.305 . S
Ho281 O306 2.322 . S
Ho281 O308 2.378 . S
Ho281 O309 2.524 . S
Ho281 O310 2.381 . S
Ho281 O311 2.669 . S
C282 O300 1.259 . S
C282 O301 1.268 . S
C283 Ho280 2.811 . S
C283 C284 1.488 . S
C283 O302 1.215 . S
C283 O303 1.289 . S
C284 C283 1.488 . S
C284 C285 1.348 . S
C284 C289 1.413 . S
C285 C284 1.348 . S
C285 C286 1.442 . S
C285 H312 0.930 . S
C286 C285 1.442 . S
C286 C287 1.381 . S
C286 H313 0.931 . S
C287 C286 1.381 . S
C287 C288 1.321 . S
C288 C287 1.321 . S
C288 C289 1.403 . S
C288 H314 0.934 . S
C289 C284 1.413 . S
C289 C288 1.403 . S
C289 H315 0.930 . S
C290 O304 1.275 . S
C290 O305 1.256 . S
C291 O306 1.259 . S
C291 O307 1.268 . S
C292 Ho281 2.811 . S
C292 C293 1.488 . S
C292 O308 1.215 . S
C292 O309 1.289 . S
C293 C292 1.488 . S
C293 C294 1.348 . S
C293 C298 1.413 . S
C294 C293 1.348 . S
C294 C295 1.442 . S
C294 H316 0.930 . S
C295 C294 1.442 . S
C295 C296 1.381 . S
C295 H317 0.931 . S
C296 C295 1.381 . S
C296 C297 1.321 . S
C297 C296 1.321 . S
C297 C298 1.403 . S
C297 H318 0.934 . S
C298 C293 1.413 . S
C298 C297 1.403 . S
C298 H319 0.930 . S
C299 O310 1.275 . S
C299 O311 1.256 . S
O300 Ho280 2.322 . S
O300 C282 1.259 . S
O301 Ho281 2.346 . S
O301 C282 1.268 . S
O302 Ho280 2.378 . S
O302 C283 1.215 . S
O303 Ho280 2.524 . S
O303 C283 1.289 . S
O304 Ho280 2.381 . S
O304 C290 1.275 . S
O305 Ho280 2.669 . S
O305 Ho281 2.305 . S
O305 C290 1.256 . S
O306 Ho281 2.322 . S
O306 C291 1.259 . S
O307 Ho280 2.346 . S
O307 C291 1.268 . S
O308 Ho281 2.378 . S
O308 C292 1.215 . S
O309 Ho281 2.524 . S
O309 C292 1.289 . S
O310 Ho281 2.381 . S
O310 C299 1.275 . S
O311 Ho280 2.305 . S
O311 Ho281 2.669 . S
O311 C299 1.256 . S
H312 C285 0.930 . S
H313 C286 0.931 . S
H314 C288 0.934 . S
H315 C289 0.930 . S
H316 C294 0.930 . S
H317 C295 0.931 . S
H318 C297 0.934 . S
H319 C298 0.930 . S
Ho320 C323 2.811 . S
Ho320 O340 2.322 . S
Ho320 O342 2.378 . S
Ho320 O343 2.524 . S
Ho320 O344 2.381 . S
Ho320 O345 2.669 . S
Ho320 O347 2.346 . S
Ho320 O351 2.305 . S
Ho321 C332 2.811 . S
Ho321 O341 2.346 . S
Ho321 O345 2.305 . S
Ho321 O346 2.322 . S
Ho321 O348 2.378 . S
Ho321 O349 2.524 . S
Ho321 O350 2.381 . S
Ho321 O351 2.669 . S
C322 O340 1.259 . S
C322 O341 1.268 . S
C323 Ho320 2.811 . S
C323 C324 1.488 . S
C323 O342 1.215 . S
C323 O343 1.289 . S
C324 C323 1.488 . S
C324 C325 1.348 . S
C324 C329 1.413 . S
C325 C324 1.348 . S
C325 C326 1.442 . S
C325 H352 0.930 . S
C326 C325 1.442 . S
C326 C327 1.381 . S
C326 H353 0.931 . S
C327 C326 1.381 . S
C327 C328 1.321 . S
C328 C327 1.321 . S
C328 C329 1.403 . S
C328 H354 0.934 . S
C329 C324 1.413 . S
C329 C328 1.403 . S
C329 H355 0.930 . S
C330 O344 1.275 . S
C330 O345 1.256 . S
C331 O346 1.259 . S
C331 O347 1.268 . S
C332 Ho321 2.811 . S
C332 C333 1.488 . S
C332 O348 1.215 . S
C332 O349 1.289 . S
C333 C332 1.488 . S
C333 C334 1.348 . S
C333 C338 1.413 . S
C334 C333 1.348 . S
C334 C335 1.442 . S
C334 H356 0.930 . S
C335 C334 1.442 . S
C335 C336 1.381 . S
C335 H357 0.931 . S
C336 C335 1.381 . S
C336 C337 1.321 . S
C337 C336 1.321 . S
C337 C338 1.403 . S
C337 H358 0.934 . S
C338 C333 1.413 . S
C338 C337 1.403 . S
C338 H359 0.930 . S
C339 O350 1.275 . S
C339 O351 1.256 . S
O340 Ho320 2.322 . S
O340 C322 1.259 . S
O341 Ho321 2.346 . S
O341 C322 1.268 . S
O342 Ho320 2.378 . S
O342 C323 1.215 . S
O343 Ho320 2.524 . S
O343 C323 1.289 . S
O344 Ho320 2.381 . S
O344 C330 1.275 . S
O345 Ho320 2.669 . S
O345 Ho321 2.305 . S
O345 C330 1.256 . S
O346 Ho321 2.322 . S
O346 C331 1.259 . S
O347 Ho320 2.346 . S
O347 C331 1.268 . S
O348 Ho321 2.378 . S
O348 C332 1.215 . S
O349 Ho321 2.524 . S
O349 C332 1.289 . S
O350 Ho321 2.381 . S
O350 C339 1.275 . S
O351 Ho320 2.305 . S
O351 Ho321 2.669 . S
O351 C339 1.256 . S
H352 C325 0.930 . S
H353 C326 0.931 . S
H354 C328 0.934 . S
H355 C329 0.930 . S
H356 C334 0.930 . S
H357 C335 0.931 . S
H358 C337 0.934 . S
H359 C338 0.930 . S
Ho360 C363 2.811 . S
Ho360 O380 2.322 1_565 S
Ho360 O382 2.378 . S
Ho360 O383 2.524 . S
Ho360 O384 2.381 1_565 S
Ho360 O385 2.669 1_565 S
Ho360 O387 2.346 . S
Ho360 O391 2.305 . S
Ho361 C372 2.811 . S
Ho361 O381 2.346 . S
Ho361 O385 2.305 . S
Ho361 O386 2.301 1_545 S
Ho361 O388 2.378 . S
Ho361 O389 2.524 . S
Ho361 O390 2.381 1_545 S
Ho361 O391 2.669 1_545 S
C362 O380 1.259 . S
C362 O381 1.268 . S
C363 Ho360 2.811 . S
C363 C364 1.488 . S
C363 O382 1.215 . S
C363 O383 1.289 . S
C364 C363 1.488 . S
C364 C365 1.348 . S
C364 C369 1.413 . S
C365 C364 1.348 . S
C365 C366 1.442 . S
C365 H392 0.930 . S
C366 C365 1.442 . S
C366 C367 1.381 . S
C366 H393 0.931 . S
C367 C366 1.381 . S
C367 C368 1.321 . S
C368 C367 1.321 . S
C368 C369 1.403 . S
C368 H394 0.934 . S
C369 C364 1.413 . S
C369 C368 1.403 . S
C369 H395 0.930 . S
C370 O384 1.275 . S
C370 O385 1.256 . S
C371 O386 1.276 . S
C371 O387 1.268 . S
C372 Ho361 2.811 . S
C372 C373 1.488 . S
C372 O388 1.215 . S
C372 O389 1.289 . S
C373 C372 1.488 . S
C373 C374 1.348 . S
C373 C378 1.413 . S
C374 C373 1.348 . S
C374 C375 1.442 . S
C374 H396 0.930 . S
C375 C374 1.442 . S
C375 C376 1.381 . S
C375 H397 0.931 . S
C376 C375 1.381 . S
C376 C377 1.321 . S
C377 C376 1.321 . S
C377 C378 1.403 . S
C377 H398 0.934 . S
C378 C373 1.413 . S
C378 C377 1.403 . S
C378 H399 0.930 . S
C379 O390 1.275 . S
C379 O391 1.256 . S
O380 Ho360 2.322 1_545 S
O380 C362 1.259 . S
O381 Ho361 2.346 . S
O381 C362 1.268 . S
O382 Ho360 2.378 . S
O382 C363 1.215 . S
O383 Ho360 2.524 . S
O383 C363 1.289 . S
O384 Ho360 2.381 1_545 S
O384 C370 1.275 . S
O385 Ho360 2.669 1_545 S
O385 Ho361 2.305 . S
O385 C370 1.256 . S
O386 Ho361 2.301 1_565 S
O386 C371 1.276 . S
O387 Ho360 2.346 . S
O387 C371 1.268 . S
O388 Ho361 2.378 . S
O388 C372 1.215 . S
O389 Ho361 2.524 . S
O389 C372 1.289 . S
O390 Ho361 2.381 1_565 S
O390 C379 1.275 . S
O391 Ho360 2.305 . S
O391 Ho361 2.669 1_565 S
O391 C379 1.256 . S
H392 C365 0.930 . S
H393 C366 0.931 . S
H394 C368 0.934 . S
H395 C369 0.930 . S
H396 C374 0.930 . S
H397 C375 0.931 . S
H398 C377 0.934 . S
H399 C378 0.930 . S
Ho400 C403 2.811 . S
Ho400 O420 2.322 . S
Ho400 O422 2.378 . S
Ho400 O423 2.524 . S
Ho400 O424 2.381 . S
Ho400 O425 2.669 . S
Ho400 O427 2.382 . S
Ho400 O431 2.305 . S
Ho401 C412 2.811 . S
Ho401 O421 2.346 1_545 S
Ho401 O425 2.305 1_545 S
Ho401 O426 2.322 . S
Ho401 O428 2.378 . S
Ho401 O429 2.524 . S
Ho401 O430 2.381 . S
Ho401 O431 2.669 1_545 S
C402 O420 1.259 . S
C402 O421 1.268 . S
C403 Ho400 2.811 . S
C403 C404 1.488 . S
C403 O422 1.215 . S
C403 O423 1.289 . S
C404 C403 1.488 . S
C404 C405 1.348 . S
C404 C409 1.413 . S
C405 C404 1.348 . S
C405 C406 1.442 . S
C405 H432 0.930 . S
C406 C405 1.442 . S
C406 C407 1.381 . S
C406 H433 0.931 . S
C407 C406 1.381 . S
C407 C408 1.321 . S
C408 C407 1.321 . S
C408 C409 1.403 . S
C408 H434 0.934 . S
C409 C404 1.413 . S
C409 C408 1.403 . S
C409 H435 0.930 . S
C410 O424 1.275 . S
C410 O425 1.256 . S
C411 O426 1.259 . S
C411 O427 1.232 1_545 S
C412 Ho401 2.811 . S
C412 C413 1.488 . S
C412 O428 1.215 . S
C412 O429 1.289 . S
C413 C412 1.488 . S
C413 C414 1.348 . S
C413 C418 1.413 . S
C414 C413 1.348 . S
C414 C415 1.442 . S
C414 H436 0.930 . S
C415 C414 1.442 . S
C415 C416 1.381 . S
C415 H437 0.931 . S
C416 C415 1.381 . S
C416 C417 1.321 . S
C417 C416 1.321 . S
C417 C418 1.403 . S
C417 H438 0.934 . S
C418 C413 1.413 . S
C418 C417 1.403 . S
C418 H439 0.930 . S
C419 O430 1.275 . S
C419 O431 1.256 1_545 S
O420 Ho400 2.322 . S
O420 C402 1.259 . S
O421 Ho401 2.346 1_565 S
O421 C402 1.268 . S
O422 Ho400 2.378 . S
O422 C403 1.215 . S
O423 Ho400 2.524 . S
O423 C403 1.289 . S
O424 Ho400 2.381 . S
O424 C410 1.275 . S
O425 Ho400 2.669 . S
O425 Ho401 2.305 1_565 S
O425 C410 1.256 . S
O426 Ho401 2.322 . S
O426 C411 1.259 . S
O427 Ho400 2.382 . S
O427 C411 1.232 1_565 S
O428 Ho401 2.378 . S
O428 C412 1.215 . S
O429 Ho401 2.524 . S
O429 C412 1.289 . S
O430 Ho401 2.381 . S
O430 C419 1.275 . S
O431 Ho400 2.305 . S
O431 Ho401 2.669 1_565 S
O431 C419 1.256 1_565 S
H432 C405 0.930 . S
H433 C406 0.931 . S
H434 C408 0.934 . S
H435 C409 0.930 . S
H436 C414 0.930 . S
H437 C415 0.931 . S
H438 C417 0.934 . S
H439 C418 0.930 . S
Ho440 C443 2.811 . S
Ho440 O460 2.322 . S
Ho440 O462 2.378 . S
Ho440 O463 2.524 . S
Ho440 O464 2.381 . S
Ho440 O465 2.669 . S
Ho440 O467 2.346 . S
Ho440 O471 2.305 . S
Ho441 C452 2.811 . S
Ho441 O461 2.346 . S
Ho441 O465 2.305 . S
Ho441 O466 2.322 . S
Ho441 O468 2.378 . S
Ho441 O469 2.524 . S
Ho441 O470 2.381 . S
Ho441 O471 2.669 . S
C442 O460 1.259 . S
C442 O461 1.268 . S
C443 Ho440 2.811 . S
C443 C444 1.488 . S
C443 O462 1.215 . S
C443 O463 1.289 . S
C444 C443 1.488 . S
C444 C445 1.348 . S
C444 C449 1.413 . S
C445 C444 1.348 . S
C445 C446 1.442 . S
C445 H472 0.930 . S
C446 C445 1.442 . S
C446 C447 1.381 . S
C446 H473 0.931 . S
C447 C446 1.381 . S
C447 C448 1.321 . S
C448 C447 1.321 . S
C448 C449 1.403 . S
C448 H474 0.934 . S
C449 C444 1.413 . S
C449 C448 1.403 . S
C449 H475 0.930 . S
C450 O464 1.275 . S
C450 O465 1.256 . S
C451 O466 1.259 . S
C451 O467 1.268 . S
C452 Ho441 2.811 . S
C452 C453 1.488 . S
C452 O468 1.215 . S
C452 O469 1.289 . S
C453 C452 1.488 . S
C453 C454 1.348 . S
C453 C458 1.413 . S
C454 C453 1.348 . S
C454 C455 1.442 . S
C454 H476 0.930 . S
C455 C454 1.442 . S
C455 C456 1.381 . S
C455 H477 0.931 . S
C456 C455 1.381 . S
C456 C457 1.321 . S
C457 C456 1.321 . S
C457 C458 1.403 . S
C457 H478 0.934 . S
C458 C453 1.413 . S
C458 C457 1.403 . S
C458 H479 0.930 . S
C459 O470 1.275 . S
C459 O471 1.256 . S
O460 Ho440 2.322 . S
O460 C442 1.259 . S
O461 Ho441 2.346 . S
O461 C442 1.268 . S
O462 Ho440 2.378 . S
O462 C443 1.215 . S
O463 Ho440 2.524 . S
O463 C443 1.289 . S
O464 Ho440 2.381 . S
O464 C450 1.275 . S
O465 Ho440 2.669 . S
O465 Ho441 2.305 . S
O465 C450 1.256 . S
O466 Ho441 2.322 . S
O466 C451 1.259 . S
O467 Ho440 2.346 . S
O467 C451 1.268 . S
O468 Ho441 2.378 . S
O468 C452 1.215 . S
O469 Ho441 2.524 . S
O469 C452 1.289 . S
O470 Ho441 2.381 . S
O470 C459 1.275 . S
O471 Ho440 2.305 . S
O471 Ho441 2.669 . S
O471 C459 1.256 . S
H472 C445 0.930 . S
H473 C446 0.931 . S
H474 C448 0.934 . S
H475 C449 0.930 . S
H476 C454 0.930 . S
H477 C455 0.931 . S
H478 C457 0.934 . S
H479 C458 0.930 . S
C480 C481 1.349 . S
C480 C482 1.327 . S
C480 H505 0.950 . S
C481 C480 1.349 . S
C481 C497 1.349 . S
C482 C480 1.327 . S
C482 C501 1.429 . S
C482 H506 0.950 . S
C483 C500 1.574 . S
C483 C502 1.368 . S
C483 H507 0.949 . S
H484 C488 0.949 . S
C485 C486 1.349 . S
C485 C487 1.327 . S
C485 H508 0.950 . S
C486 C485 1.349 . S
C486 C498 1.349 . S
C487 C485 1.327 . S
C487 C503 1.429 . S
C487 H509 0.950 . S
C488 H484 0.949 . S
C488 C496 1.574 . S
C488 C504 1.368 . S
H489 C497 0.950 . S
H490 C495 0.950 . S
H491 C496 0.949 . S
H492 C498 0.950 . S
H493 C499 0.950 . S
H494 C500 0.949 . S
C495 H490 0.950 . S
C495 C497 1.327 . S
C495 C501 1.429 . S
C496 C488 1.574 . S
C496 H491 0.949 . S
C496 C502 1.368 . S
C497 C481 1.349 . S
C497 H489 0.950 . S
C497 C495 1.327 . S
C498 C486 1.349 . S
C498 H492 0.950 . S
C498 C499 1.327 . S
C499 H493 0.950 . S
C499 C498 1.327 . S
C499 C503 1.429 . S
C500 C483 1.574 . S
C500 H494 0.949 . S
C500 C504 1.368 . S
C501 C482 1.429 . S
C501 C495 1.429 . S
C501 C502 1.523 . S
C502 C483 1.368 . S
C502 C496 1.368 . S
C502 C501 1.523 . S
C503 C487 1.429 . S
C503 C499 1.429 . S
C503 C504 1.523 . S
C504 C488 1.368 . S
C504 C500 1.368 . S
C504 C503 1.523 . S
H505 C480 0.950 . S
H506 C482 0.950 . S
H507 C483 0.949 . S
H508 C485 0.950 . S
H509 C487 0.950 . S
C510 C511 1.349 . S
C510 C512 1.327 . S
C510 H535 0.950 1_565 S
C511 C510 1.349 . S
C511 C527 1.349 . S
C512 C510 1.327 . S
C512 C531 1.429 . S
C512 H536 0.950 . S
C513 C530 1.574 . S
C513 C532 1.368 . S
C513 H537 0.949 . S
H514 C518 0.949 . S
C515 C516 1.349 . S
C515 C517 1.327 . S
C515 H538 0.950 . S
C516 C515 1.349 . S
C516 C528 1.349 . S
C517 C515 1.327 . S
C517 C533 1.429 . S
C517 H539 0.950 . S
C518 H514 0.949 . S
C518 C526 1.574 . S
C518 C534 1.368 . S
H519 C527 0.950 . S
H520 C525 0.950 . S
H521 C526 0.949 . S
H522 C528 0.950 . S
H523 C529 0.950 . S
H524 C530 0.949 . S
C525 H520 0.950 . S
C525 C527 1.327 . S
C525 C531 1.429 . S
C526 C518 1.574 . S
C526 H521 0.949 . S
C526 C532 1.368 . S
C527 C511 1.349 . S
C527 H519 0.950 . S
C527 C525 1.327 . S
C528 C516 1.349 . S
C528 H522 0.950 . S
C528 C529 1.327 . S
C529 H523 0.950 . S
C529 C528 1.327 . S
C529 C533 1.429 . S
C530 C513 1.574 . S
C530 H524 0.949 . S
C530 C534 1.368 . S
C531 C512 1.429 . S
C531 C525 1.429 . S
C531 C532 1.523 . S
C532 C513 1.368 . S
C532 C526 1.368 . S
C532 C531 1.523 . S
C533 C517 1.429 . S
C533 C529 1.429 . S
C533 C534 1.523 . S
C534 C518 1.368 . S
C534 C530 1.368 . S
C534 C533 1.523 . S
H535 C510 0.950 1_545 S
H536 C512 0.950 . S
H537 C513 0.949 . S
H538 C515 0.950 . S
H539 C517 0.950 . S
C540 C541 1.349 . S
C540 C542 1.327 . S
C540 H565 0.950 . S
C541 C540 1.349 . S
C541 C557 1.349 1_556 S
C542 C540 1.327 . S
C542 C561 1.429 1_556 S
C542 H566 0.950 . S
C543 C560 1.574 . S
C543 C562 1.368 . S
C543 H567 0.949 . S
H544 C548 0.949 . S
C545 C546 1.349 . S
C545 C547 1.327 . S
C545 H568 0.950 . S
C546 C545 1.349 . S
C546 C558 1.349 . S
C547 C545 1.327 . S
C547 C563 1.429 . S
C547 H569 0.950 . S
C548 H544 0.949 . S
C548 C556 1.574 . S
C548 C564 1.368 . S
H549 C557 0.950 . S
H550 C555 0.950 . S
H551 C556 0.949 1_556 S
H552 C558 0.950 . S
H553 C559 0.950 . S
H554 C560 0.949 . S
C555 H550 0.950 . S
C555 C557 1.327 . S
C555 C561 1.429 . S
C556 C548 1.574 . S
C556 H551 0.949 1_554 S
C556 C562 1.368 . S
C557 C541 1.349 1_554 S
C557 H549 0.950 . S
C557 C555 1.327 . S
C558 C546 1.349 . S
C558 H552 0.950 . S
C558 C559 1.327 . S
C559 H553 0.950 . S
C559 C558 1.327 . S
C559 C563 1.429 . S
C560 C543 1.574 . S
C560 H554 0.949 . S
C560 C564 1.368 . S
C561 C542 1.429 1_554 S
C561 C555 1.429 . S
C561 C562 1.523 . S
C562 C543 1.368 . S
C562 C556 1.368 . S
C562 C561 1.523 . S
C563 C547 1.429 . S
C563 C559 1.429 . S
C563 C564 1.523 . S
C564 C548 1.368 . S
C564 C560 1.368 . S
C564 C563 1.523 . S
H565 C540 0.950 . S
H566 C542 0.950 . S
H567 C543 0.949 . S
H568 C545 0.950 . S
H569 C547 0.950 . S
C570 C571 1.349 . S
C570 C572 1.327 . S
C570 H595 0.950 . S
C571 C570 1.349 . S
C571 C587 1.349 . S
C572 C570 1.327 . S
C572 C591 1.429 . S
C572 H596 0.950 . S
C573 C590 1.574 . S
C573 C592 1.368 . S
C573 H597 0.949 . S
H574 C578 0.949 . S
C575 C576 1.349 . S
C575 C577 1.327 . S
C575 H598 0.950 . S
C576 C575 1.349 . S
C576 C588 1.349 . S
C577 C575 1.327 . S
C577 C593 1.429 . S
C577 H599 0.950 . S
C578 H574 0.949 . S
C578 C586 1.574 . S
C578 C594 1.368 . S
H579 C587 0.950 . S
H580 C585 0.950 . S
H581 C586 0.949 . S
H582 C588 0.950 . S
H583 C589 0.950 . S
H584 C590 0.949 . S
C585 H580 0.950 . S
C585 C587 1.327 . S
C585 C591 1.429 . S
C586 C578 1.574 . S
C586 H581 0.949 . S
C586 C592 1.368 . S
C587 C571 1.349 . S
C587 H579 0.950 . S
C587 C585 1.327 . S
C588 C576 1.349 . S
C588 H582 0.950 . S
C588 C589 1.327 . S
C589 H583 0.950 . S
C589 C588 1.327 . S
C589 C593 1.429 . S
C590 C573 1.574 . S
C590 H584 0.949 . S
C590 C594 1.368 . S
C591 C572 1.429 . S
C591 C585 1.429 . S
C591 C592 1.523 . S
C592 C573 1.368 . S
C592 C586 1.368 . S
C592 C591 1.523 . S
C593 C577 1.429 . S
C593 C589 1.429 . S
C593 C594 1.523 . S
C594 C578 1.368 . S
C594 C590 1.368 . S
C594 C593 1.523 . S
H595 C570 0.950 . S
H596 C572 0.950 . S
H597 C573 0.949 . S
H598 C575 0.950 . S
H599 C577 0.950 . S
C600 C601 1.349 . S
C600 C602 1.327 . S
C600 H625 0.950 . S
C601 C600 1.349 . S
C601 C617 1.349 . S
C602 C600 1.327 . S
C602 C621 1.429 . S
C602 H626 0.950 . S
C603 C620 1.574 . S
C603 C622 1.368 . S
C603 H627 0.949 . S
H604 C608 0.949 . S
C605 C606 1.349 . S
C605 C607 1.327 . S
C605 H628 0.950 . S
C606 C605 1.349 . S
C606 C618 1.349 . S
C607 C605 1.327 . S
C607 C623 1.429 . S
C607 H629 0.950 . S
C608 H604 0.949 . S
C608 C616 1.574 . S
C608 C624 1.368 . S
H609 C617 0.950 . S
H610 C615 0.950 . S
H611 C616 0.949 . S
H612 C618 0.950 . S
H613 C619 0.950 . S
H614 C620 0.949 . S
C615 H610 0.950 . S
C615 C617 1.327 . S
C615 C621 1.429 . S
C616 C608 1.574 . S
C616 H611 0.949 . S
C616 C622 1.368 . S
C617 C601 1.349 . S
C617 H609 0.950 . S
C617 C615 1.327 . S
C618 C606 1.349 . S
C618 H612 0.950 . S
C618 C619 1.327 . S
C619 H613 0.950 . S
C619 C618 1.327 . S
C619 C623 1.429 . S
C620 C603 1.574 . S
C620 H614 0.949 . S
C620 C624 1.368 . S
C621 C602 1.429 . S
C621 C615 1.429 . S
C621 C622 1.523 . S
C622 C603 1.368 . S
C622 C616 1.368 . S
C622 C621 1.523 . S
C623 C607 1.429 . S
C623 C619 1.429 . S
C623 C624 1.523 . S
C624 C608 1.368 . S
C624 C620 1.368 . S
C624 C623 1.523 . S
H625 C600 0.950 . S
H626 C602 0.950 . S
H627 C603 0.949 . S
H628 C605 0.950 . S
H629 C607 0.950 . S
C630 C631 1.349 . S
C630 C632 1.327 . S
C630 H655 0.950 . S
C631 C630 1.349 . S
C631 C647 1.349 . S
C632 C630 1.327 . S
C632 C651 1.429 . S
C632 H656 0.950 . S
C633 C650 1.574 . S
C633 C652 1.368 . S
C633 H657 0.949 . S
H634 C638 0.949 . S
C635 C636 1.349 . S
C635 C637 1.327 . S
C635 H658 0.950 . S
C636 C635 1.349 . S
C636 C648 1.349 . S
C637 C635 1.327 . S
C637 C653 1.429 . S
C637 H659 0.950 . S
C638 H634 0.949 . S
C638 C646 1.574 . S
C638 C654 1.368 . S
H639 C647 0.950 . S
H640 C645 0.950 . S
H641 C646 0.949 . S
H642 C648 0.950 . S
H643 C649 0.950 . S
H644 C650 0.949 . S
C645 H640 0.950 . S
C645 C647 1.327 . S
C645 C651 1.429 . S
C646 C638 1.574 . S
C646 H641 0.949 . S
C646 C652 1.368 . S
C647 C631 1.349 . S
C647 H639 0.950 . S
C647 C645 1.327 . S
C648 C636 1.349 . S
C648 H642 0.950 . S
C648 C649 1.327 . S
C649 H643 0.950 . S
C649 C648 1.327 . S
C649 C653 1.429 . S
C650 C633 1.574 . S
C650 H644 0.949 . S
C650 C654 1.368 . S
C651 C632 1.429 . S
C651 C645 1.429 . S
C651 C652 1.523 . S
C652 C633 1.368 . S
C652 C646 1.368 . S
C652 C651 1.523 . S
C653 C637 1.429 . S
C653 C649 1.429 . S
C653 C654 1.523 . S
C654 C638 1.368 . S
C654 C650 1.368 . S
C654 C653 1.523 . S
H655 C630 0.950 . S
H656 C632 0.950 . S
H657 C633 0.949 . S
H658 C635 0.950 . S
H659 C637 0.950 . S
C660 C661 1.349 . S
C660 C662 1.327 . S
C660 H685 0.950 . S
C661 C660 1.349 . S
C661 C677 1.349 . S
C662 C660 1.327 . S
C662 C681 1.429 . S
C662 H686 0.950 . S
C663 C680 1.574 . S
C663 C682 1.368 . S
C663 H687 0.949 . S
H664 C668 0.949 . S
C665 C666 1.349 . S
C665 C667 1.327 . S
C665 H688 0.950 . S
C666 C665 1.349 . S
C666 C678 1.349 . S
C667 C665 1.327 . S
C667 C683 1.429 . S
C667 H689 0.950 . S
C668 H664 0.949 . S
C668 C676 1.574 . S
C668 C684 1.368 . S
H669 C677 0.950 . S
H670 C675 0.950 . S
H671 C676 0.949 . S
H672 C678 0.950 . S
H673 C679 0.950 . S
H674 C680 0.949 . S
C675 H670 0.950 . S
C675 C677 1.327 . S
C675 C681 1.429 . S
C676 C668 1.574 . S
C676 H671 0.949 . S
C676 C682 1.368 . S
C677 C661 1.349 . S
C677 H669 0.950 . S
C677 C675 1.327 . S
C678 C666 1.349 . S
C678 H672 0.950 . S
C678 C679 1.327 . S
C679 H673 0.950 . S
C679 C678 1.327 . S
C679 C683 1.429 . S
C680 C663 1.574 . S
C680 H674 0.949 . S
C680 C684 1.368 . S
C681 C662 1.429 . S
C681 C675 1.429 . S
C681 C682 1.523 . S
C682 C663 1.368 . S
C682 C676 1.368 . S
C682 C681 1.523 . S
C683 C667 1.429 . S
C683 C679 1.429 . S
C683 C684 1.523 . S
C684 C668 1.368 . S
C684 C680 1.368 . S
C684 C683 1.523 . S
H685 C660 0.950 . S
H686 C662 0.950 . S
H687 C663 0.949 . S
H688 C665 0.950 . S
H689 C667 0.950 . S
C690 C691 1.349 . S
C690 C692 1.327 . S
C690 H715 0.950 . S
C691 C690 1.349 . S
C691 C707 1.349 . S
C692 C690 1.327 . S
C692 C711 1.429 . S
C692 H716 0.950 . S
C693 C710 1.574 . S
C693 C712 1.368 . S
C693 H717 0.949 . S
H694 C698 0.949 . S
C695 C696 1.349 . S
C695 C697 1.327 . S
C695 H718 0.950 . S
C696 C695 1.349 . S
C696 C708 1.349 . S
C697 C695 1.327 . S
C697 C713 1.429 . S
C697 H719 0.950 . S
C698 H694 0.949 . S
C698 C706 1.574 . S
C698 C714 1.368 . S
H699 C707 0.950 . S
H700 C705 0.950 . S
H701 C706 0.949 . S
H702 C708 0.950 . S
H703 C709 0.950 . S
H704 C710 0.949 . S
C705 H700 0.950 . S
C705 C707 1.327 . S
C705 C711 1.429 . S
C706 C698 1.574 . S
C706 H701 0.949 . S
C706 C712 1.368 . S
C707 C691 1.349 . S
C707 H699 0.950 . S
C707 C705 1.327 . S
C708 C696 1.349 . S
C708 H702 0.950 . S
C708 C709 1.327 . S
C709 H703 0.950 . S
C709 C708 1.327 . S
C709 C713 1.429 . S
C710 C693 1.574 . S
C710 H704 0.949 . S
C710 C714 1.368 . S
C711 C692 1.429 . S
C711 C705 1.429 . S
C711 C712 1.523 . S
C712 C693 1.368 . S
C712 C706 1.368 . S
C712 C711 1.523 . S
C713 C697 1.429 . S
C713 C709 1.429 . S
C713 C714 1.523 . S
C714 C698 1.368 . S
C714 C710 1.368 . S
C714 C713 1.523 . S
H715 C690 0.950 . S
H716 C692 0.950 . S
H717 C693 0.949 . S
H718 C695 0.950 . S
H719 C697 0.950 . S
C720 C721 1.349 . S
C720 C722 1.327 . S
C720 H745 0.950 . S
C721 C720 1.349 . S
C721 C737 1.349 . S
C722 C720 1.327 . S
C722 C741 1.429 . S
C722 H746 0.950 . S
C723 C740 1.574 . S
C723 C742 1.368 . S
C723 H747 0.949 . S
H724 C728 0.949 . S
C725 C726 1.349 . S
C725 C727 1.327 . S
C725 H748 0.950 . S
C726 C725 1.349 . S
C726 C738 1.349 . S
C727 C725 1.327 . S
C727 C743 1.429 . S
C727 H749 0.950 . S
C728 H724 0.949 . S
C728 C736 1.574 . S
C728 C744 1.368 . S
H729 C737 0.950 . S
H730 C735 0.950 . S
H731 C736 0.949 . S
H732 C738 0.950 . S
H733 C739 0.950 . S
H734 C740 0.949 . S
C735 H730 0.950 . S
C735 C737 1.327 . S
C735 C741 1.429 . S
C736 C728 1.574 . S
C736 H731 0.949 . S
C736 C742 1.368 . S
C737 C721 1.349 . S
C737 H729 0.950 . S
C737 C735 1.327 . S
C738 C726 1.349 . S
C738 H732 0.950 . S
C738 C739 1.327 . S
C739 H733 0.950 . S
C739 C738 1.327 . S
C739 C743 1.429 . S
C740 C723 1.574 . S
C740 H734 0.949 . S
C740 C744 1.368 . S
C741 C722 1.429 . S
C741 C735 1.429 . S
C741 C742 1.523 . S
C742 C723 1.368 . S
C742 C736 1.368 . S
C742 C741 1.523 . S
C743 C727 1.429 . S
C743 C739 1.429 . S
C743 C744 1.523 . S
C744 C728 1.368 . S
C744 C740 1.368 . S
C744 C743 1.523 . S
H745 C720 0.950 . S
H746 C722 0.950 . S
H747 C723 0.949 . S
H748 C725 0.950 . S
H749 C727 0.950 . S
C750 C751 1.349 . S
C750 C752 1.327 . S
C750 H775 0.950 . S
C751 C750 1.349 . S
C751 C767 1.349 . S
C752 C750 1.327 . S
C752 C771 1.429 . S
C752 H776 0.950 . S
C753 C770 1.574 . S
C753 C772 1.368 . S
C753 H777 0.949 . S
H754 C758 0.949 . S
C755 C756 1.349 . S
C755 C757 1.327 . S
C755 H778 0.950 1_455 S
C756 C755 1.349 . S
C756 C768 1.349 . S
C757 C755 1.327 . S
C757 C773 1.429 . S
C757 H779 0.950 . S
C758 H754 0.949 . S
C758 C766 1.574 . S
C758 C774 1.368 . S
H759 C767 0.950 . S
H760 C765 0.950 . S
H761 C766 0.949 . S
H762 C768 0.950 . S
H763 C769 0.950 . S
H764 C770 0.949 . S
C765 H760 0.950 . S
C765 C767 1.327 . S
C765 C771 1.429 . S
C766 C758 1.574 . S
C766 H761 0.949 . S
C766 C772 1.368 . S
C767 C751 1.349 . S
C767 H759 0.950 . S
C767 C765 1.327 . S
C768 C756 1.349 . S
C768 H762 0.950 . S
C768 C769 1.327 . S
C769 H763 0.950 . S
C769 C768 1.327 . S
C769 C773 1.429 . S
C770 C753 1.574 . S
C770 H764 0.949 . S
C770 C774 1.368 . S
C771 C752 1.429 . S
C771 C765 1.429 . S
C771 C772 1.523 . S
C772 C753 1.368 . S
C772 C766 1.368 . S
C772 C771 1.523 . S
C773 C757 1.429 . S
C773 C769 1.429 . S
C773 C774 1.523 . S
C774 C758 1.368 . S
C774 C770 1.368 . S
C774 C773 1.523 . S
H775 C750 0.950 . S
H776 C752 0.950 . S
H777 C753 0.949 . S
H778 C755 0.950 1_655 S
H779 C757 0.950 . S
C780 C781 1.349 1_655 S
C780 C782 1.327 . S
C780 H805 0.950 . S
C781 C780 1.349 1_455 S
C781 C797 1.349 . S
C782 C780 1.327 . S
C782 C801 1.429 . S
C782 H806 0.950 . S
C783 C800 1.574 . S
C783 C802 1.368 . S
C783 H807 0.949 . S
H784 C788 0.949 . S
C785 C786 1.349 . S
C785 C787 1.327 . S
C785 H808 0.950 . S
C786 C785 1.349 . S
C786 C798 1.349 . S
C787 C785 1.327 . S
C787 C803 1.429 . S
C787 H809 0.950 . S
C788 H784 0.949 . S
C788 C796 1.574 . S
C788 C804 1.368 . S
H789 C797 0.950 . S
H790 C795 0.950 . S
H791 C796 0.949 . S
H792 C798 0.950 . S
H793 C799 0.950 . S
H794 C800 0.949 . S
C795 H790 0.950 . S
C795 C797 1.327 1_655 S
C795 C801 1.429 . S
C796 C788 1.574 . S
C796 H791 0.949 . S
C796 C802 1.368 . S
C797 C781 1.349 . S
C797 H789 0.950 . S
C797 C795 1.327 1_455 S
C798 C786 1.349 . S
C798 H792 0.950 . S
C798 C799 1.327 . S
C799 H793 0.950 . S
C799 C798 1.327 . S
C799 C803 1.429 . S
C800 C783 1.574 . S
C800 H794 0.949 . S
C800 C804 1.368 . S
C801 C782 1.429 . S
C801 C795 1.429 . S
C801 C802 1.523 . S
C802 C783 1.368 . S
C802 C796 1.368 . S
C802 C801 1.523 . S
C803 C787 1.429 . S
C803 C799 1.429 . S
C803 C804 1.523 . S
C804 C788 1.368 . S
C804 C800 1.368 . S
C804 C803 1.523 . S
H805 C780 0.950 . S
H806 C782 0.950 . S
H807 C783 0.949 . S
H808 C785 0.950 . S
H809 C787 0.950 . S
C810 C811 1.349 . S
C810 C812 1.327 . S
C810 H835 0.950 . S
C811 C810 1.349 . S
C811 C827 1.349 . S
C812 C810 1.327 . S
C812 C831 1.429 . S
C812 H836 0.950 . S
C813 C830 1.574 . S
C813 C832 1.368 . S
C813 H837 0.949 . S
H814 C818 0.949 . S
C815 C816 1.349 . S
C815 C817 1.327 . S
C815 H838 0.950 . S
C816 C815 1.349 . S
C816 C828 1.349 . S
C817 C815 1.327 . S
C817 C833 1.429 . S
C817 H839 0.950 . S
C818 H814 0.949 . S
C818 C826 1.574 . S
C818 C834 1.368 . S
H819 C827 0.950 . S
H820 C825 0.950 . S
H821 C826 0.949 . S
H822 C828 0.950 . S
H823 C829 0.950 . S
H824 C830 0.949 . S
C825 H820 0.950 . S
C825 C827 1.327 . S
C825 C831 1.429 . S
C826 C818 1.574 . S
C826 H821 0.949 . S
C826 C832 1.368 . S
C827 C811 1.349 . S
C827 H819 0.950 . S
C827 C825 1.327 . S
C828 C816 1.349 . S
C828 H822 0.950 . S
C828 C829 1.327 . S
C829 H823 0.950 . S
C829 C828 1.327 . S
C829 C833 1.429 . S
C830 C813 1.574 . S
C830 H824 0.949 . S
C830 C834 1.368 . S
C831 C812 1.429 . S
C831 C825 1.429 . S
C831 C832 1.523 . S
C832 C813 1.368 . S
C832 C826 1.368 . S
C832 C831 1.523 . S
C833 C817 1.429 . S
C833 C829 1.429 . S
C833 C834 1.523 . S
C834 C818 1.368 . S
C834 C830 1.368 . S
C834 C833 1.523 . S
H835 C810 0.950 . S
H836 C812 0.950 . S
H837 C813 0.949 . S
H838 C815 0.950 . S
H839 C817 0.950 . S
C840 C841 1.349 . S
C840 C842 1.327 . S
C840 H865 0.950 . S
C841 C840 1.349 . S
C841 C857 1.349 . S
C842 C840 1.327 . S
C842 C861 1.429 . S
C842 H866 0.950 . S
C843 C860 1.574 . S
C843 C862 1.368 . S
C843 H867 0.949 . S
H844 C848 0.949 . S
C845 C846 1.349 . S
C845 C847 1.327 . S
C845 H868 0.950 . S
C846 C845 1.349 . S
C846 C858 1.349 . S
C847 C845 1.327 . S
C847 C863 1.429 . S
C847 H869 0.950 . S
C848 H844 0.949 . S
C848 C856 1.574 . S
C848 C864 1.368 . S
H849 C857 0.950 . S
H850 C855 0.950 . S
H851 C856 0.949 . S
H852 C858 0.950 . S
H853 C859 0.950 . S
H854 C860 0.949 . S
C855 H850 0.950 . S
C855 C857 1.327 . S
C855 C861 1.429 . S
C856 C848 1.574 . S
C856 H851 0.949 . S
C856 C862 1.368 . S
C857 C841 1.349 . S
C857 H849 0.950 . S
C857 C855 1.327 . S
C858 C846 1.349 . S
C858 H852 0.950 . S
C858 C859 1.327 . S
C859 H853 0.950 . S
C859 C858 1.327 . S
C859 C863 1.429 . S
C860 C843 1.574 . S
C860 H854 0.949 . S
C860 C864 1.368 . S
C861 C842 1.429 . S
C861 C855 1.429 . S
C861 C862 1.523 . S
C862 C843 1.368 . S
C862 C856 1.368 . S
C862 C861 1.523 . S
C863 C847 1.429 . S
C863 C859 1.429 . S
C863 C864 1.523 . S
C864 C848 1.368 . S
C864 C860 1.368 . S
C864 C863 1.523 . S
H865 C840 0.950 . S
H866 C842 0.950 . S
H867 C843 0.949 . S
H868 C845 0.950 . S
H869 C847 0.950 . S
C870 C871 1.349 . S
C870 C872 1.327 . S
C870 H895 0.950 . S
C871 C870 1.349 . S
C871 C887 1.349 . S
C872 C870 1.327 . S
C872 C891 1.429 . S
C872 H896 0.950 . S
C873 C890 1.574 . S
C873 C892 1.368 . S
C873 H897 0.949 . S
H874 C878 0.949 . S
C875 C876 1.349 . S
C875 C877 1.327 . S
C875 H898 0.950 . S
C876 C875 1.349 . S
C876 C888 1.349 . S
C877 C875 1.327 . S
C877 C893 1.429 . S
C877 H899 0.950 . S
C878 H874 0.949 . S
C878 C886 1.574 . S
C878 C894 1.368 . S
H879 C887 0.950 . S
H880 C885 0.950 . S
H881 C886 0.949 . S
H882 C888 0.950 . S
H883 C889 0.950 . S
H884 C890 0.949 . S
C885 H880 0.950 . S
C885 C887 1.327 . S
C885 C891 1.429 . S
C886 C878 1.574 . S
C886 H881 0.949 . S
C886 C892 1.368 . S
C887 C871 1.349 . S
C887 H879 0.950 . S
C887 C885 1.327 . S
C888 C876 1.349 . S
C888 H882 0.950 . S
C888 C889 1.327 . S
C889 H883 0.950 . S
C889 C888 1.327 . S
C889 C893 1.429 . S
C890 C873 1.574 . S
C890 H884 0.949 . S
C890 C894 1.368 . S
C891 C872 1.429 . S
C891 C885 1.429 . S
C891 C892 1.523 . S
C892 C873 1.368 . S
C892 C886 1.368 . S
C892 C891 1.523 . S
C893 C877 1.429 . S
C893 C889 1.429 . S
C893 C894 1.523 . S
C894 C878 1.368 . S
C894 C890 1.368 . S
C894 C893 1.523 . S
H895 C870 0.950 . S
H896 C872 0.950 . S
H897 C873 0.949 . S
H898 C875 0.950 . S
H899 C877 0.950 . S
C900 C901 1.349 . S
C900 C902 1.327 . S
C900 H925 0.950 . S
C901 C900 1.349 . S
C901 C917 1.349 . S
C902 C900 1.327 . S
C902 C921 1.429 . S
C902 H926 0.950 . S
C903 C920 1.574 . S
C903 C922 1.368 . S
C903 H927 0.949 . S
H904 C908 0.949 . S
C905 C906 1.349 . S
C905 C907 1.327 . S
C905 H928 0.950 . S
C906 C905 1.349 . S
C906 C918 1.349 . S
C907 C905 1.327 . S
C907 C923 1.429 . S
C907 H929 0.950 . S
C908 H904 0.949 . S
C908 C916 1.574 . S
C908 C924 1.368 . S
H909 C917 0.950 . S
H910 C915 0.950 . S
H911 C916 0.949 . S
H912 C918 0.950 . S
H913 C919 0.950 . S
H914 C920 0.949 . S
C915 H910 0.950 . S
C915 C917 1.327 . S
C915 C921 1.429 . S
C916 C908 1.574 . S
C916 H911 0.949 . S
C916 C922 1.368 . S
C917 C901 1.349 . S
C917 H909 0.950 . S
C917 C915 1.327 . S
C918 C906 1.349 . S
C918 H912 0.950 . S
C918 C919 1.327 . S
C919 H913 0.950 . S
C919 C918 1.327 . S
C919 C923 1.429 . S
C920 C903 1.574 . S
C920 H914 0.949 . S
C920 C924 1.368 . S
C921 C902 1.429 . S
C921 C915 1.429 . S
C921 C922 1.523 . S
C922 C903 1.368 . S
C922 C916 1.368 . S
C922 C921 1.523 . S
C923 C907 1.429 . S
C923 C919 1.429 . S
C923 C924 1.523 . S
C924 C908 1.368 . S
C924 C920 1.368 . S
C924 C923 1.523 . S
H925 C900 0.950 . S
H926 C902 0.950 . S
H927 C903 0.949 . S
H928 C905 0.950 . S
H929 C907 0.950 . S
C930 C931 1.349 . S
C930 C932 1.327 . S
C930 H955 0.950 . S
C931 C930 1.349 . S
C931 C947 1.349 . S
C932 C930 1.327 . S
C932 C951 1.429 . S
C932 H956 0.950 . S
C933 C950 1.574 1_554 S
C933 C952 1.368 . S
C933 H957 0.949 . S
H934 C938 0.949 . S
C935 C936 1.349 . S
C935 C937 1.327 . S
C935 H958 0.950 . S
C936 C935 1.349 . S
C936 C948 1.349 . S
C937 C935 1.327 . S
C937 C953 1.429 . S
C937 H959 0.950 . S
C938 H934 0.949 . S
C938 C946 1.574 1_556 S
C938 C954 1.368 . S
H939 C947 0.950 . S
H940 C945 0.950 . S
H941 C946 0.949 . S
H942 C948 0.950 1_565 S
H943 C949 0.950 . S
H944 C950 0.949 . S
C945 H940 0.950 . S
C945 C947 1.327 . S
C945 C951 1.429 . S
C946 C938 1.574 1_554 S
C946 H941 0.949 . S
C946 C952 1.368 . S
C947 C931 1.349 . S
C947 H939 0.950 . S
C947 C945 1.327 . S
C948 C936 1.349 . S
C948 H942 0.950 1_545 S
C948 C949 1.327 . S
C949 H943 0.950 . S
C949 C948 1.327 . S
C949 C953 1.429 . S
C950 C933 1.574 1_556 S
C950 H944 0.949 . S
C950 C954 1.368 . S
C951 C932 1.429 . S
C951 C945 1.429 . S
C951 C952 1.523 . S
C952 C933 1.368 . S
C952 C946 1.368 . S
C952 C951 1.523 . S
C953 C937 1.429 . S
C953 C949 1.429 . S
C953 C954 1.523 . S
C954 C938 1.368 . S
C954 C950 1.368 . S
C954 C953 1.523 . S
H955 C930 0.950 . S
H956 C932 0.950 . S
H957 C933 0.949 . S
H958 C935 0.950 . S
H959 C937 0.950 . S
C960 C961 1.349 . S
C960 C962 1.327 . S
C960 H985 0.950 . S
C961 C960 1.349 . S
C961 C977 1.349 . S
C962 C960 1.327 . S
C962 C981 1.429 . S
C962 H986 0.950 . S
C963 C980 1.574 . S
C963 C982 1.368 . S
C963 H987 0.949 . S
H964 C968 0.949 . S
C965 C966 1.349 . S
C965 C967 1.327 . S
C965 H988 0.950 . S
C966 C965 1.349 . S
C966 C978 1.349 . S
C967 C965 1.327 . S
C967 C983 1.429 . S
C967 H989 0.950 . S
C968 H964 0.949 . S
C968 C976 1.574 . S
C968 C984 1.368 . S
H969 C977 0.950 . S
H970 C975 0.950 . S
H971 C976 0.949 . S
H972 C978 0.950 . S
H973 C979 0.950 . S
H974 C980 0.949 . S
C975 H970 0.950 . S
C975 C977 1.327 . S
C975 C981 1.429 . S
C976 C968 1.574 . S
C976 H971 0.949 . S
C976 C982 1.368 . S
C977 C961 1.349 . S
C977 H969 0.950 . S
C977 C975 1.327 . S
C978 C966 1.349 . S
C978 H972 0.950 . S
C978 C979 1.327 . S
C979 H973 0.950 . S
C979 C978 1.327 . S
C979 C983 1.429 . S
C980 C963 1.574 . S
C980 H974 0.949 . S
C980 C984 1.368 . S
C981 C962 1.429 . S
C981 C975 1.429 . S
C981 C982 1.523 . S
C982 C963 1.368 . S
C982 C976 1.368 . S
C982 C981 1.523 . S
C983 C967 1.429 . S
C983 C979 1.429 . S
C983 C984 1.523 . S
C984 C968 1.368 . S
C984 C980 1.368 . S
C984 C983 1.523 . S
H985 C960 0.950 . S
H986 C962 0.950 . S
H987 C963 0.949 . S
H988 C965 0.950 . S
H989 C967 0.950 . S
C990 C991 1.349 . S
C990 C992 1.327 . S
C990 H1015 0.950 . S
C991 C990 1.349 . S
C991 C1007 1.349 . S
C992 C990 1.327 . S
C992 C1011 1.429 . S
C992 H1016 0.950 . S
C993 C1010 1.574 . S
C993 C1012 1.368 . S
C993 H1017 0.949 . S
H994 C998 0.949 . S
C995 C996 1.349 . S
C995 C997 1.327 . S
C995 H1018 0.950 . S
C996 C995 1.349 . S
C996 C1008 1.349 . S
C997 C995 1.327 . S
C997 C1013 1.429 . S
C997 H1019 0.950 . S
C998 H994 0.949 . S
C998 C1006 1.574 . S
C998 C1014 1.368 . S
H999 C1007 0.950 . S
H1000 C1005 0.950 1_556 S
H1001 C1006 0.949 . S
H1002 C1008 0.950 . S
H1003 C1009 0.950 . S
H1004 C1010 0.949 . S
C1005 H1000 0.950 1_554 S
C1005 C1007 1.327 . S
C1005 C1011 1.429 . S
C1006 C998 1.574 . S
C1006 H1001 0.949 . S
C1006 C1012 1.368 . S
C1007 C991 1.349 . S
C1007 H999 0.950 . S
C1007 C1005 1.327 . S
C1008 C996 1.349 . S
C1008 H1002 0.950 . S
C1008 C1009 1.327 . S
C1009 H1003 0.950 . S
C1009 C1008 1.327 . S
C1009 C1013 1.429 . S
C1010 C993 1.574 . S
C1010 H1004 0.949 . S
C1010 C1014 1.368 . S
C1011 C992 1.429 . S
C1011 C1005 1.429 . S
C1011 C1012 1.523 1_554 S
C1012 C993 1.368 . S
C1012 C1006 1.368 . S
C1012 C1011 1.523 1_556 S
C1013 C997 1.429 . S
C1013 C1009 1.429 . S
C1013 C1014 1.523 . S
C1014 C998 1.368 . S
C1014 C1010 1.368 . S
C1014 C1013 1.523 . S
H1015 C990 0.950 . S
H1016 C992 0.950 . S
H1017 C993 0.949 . S
H1018 C995 0.950 . S
H1019 C997 0.950 . S
C1020 C1021 1.349 . S
C1020 C1022 1.327 . S
C1020 H1045 0.950 . S
C1021 C1020 1.349 . S
C1021 C1037 1.349 . S
C1022 C1020 1.327 . S
C1022 C1041 1.429 . S
C1022 H1046 0.950 . S
C1023 C1040 1.574 . S
C1023 C1042 1.368 . S
C1023 H1047 0.949 . S
H1024 C1028 0.949 . S
C1025 C1026 1.349 . S
C1025 C1027 1.327 . S
C1025 H1048 0.950 . S
C1026 C1025 1.349 . S
C1026 C1038 1.349 . S
C1027 C1025 1.327 . S
C1027 C1043 1.429 . S
C1027 H1049 0.950 . S
C1028 H1024 0.949 . S
C1028 C1036 1.574 . S
C1028 C1044 1.368 . S
H1029 C1037 0.950 . S
H1030 C1035 0.950 . S
H1031 C1036 0.949 . S
H1032 C1038 0.950 . S
H1033 C1039 0.950 . S
H1034 C1040 0.949 . S
C1035 H1030 0.950 . S
C1035 C1037 1.327 . S
C1035 C1041 1.429 . S
C1036 C1028 1.574 . S
C1036 H1031 0.949 . S
C1036 C1042 1.368 . S
C1037 C1021 1.349 . S
C1037 H1029 0.950 . S
C1037 C1035 1.327 . S
C1038 C1026 1.349 . S
C1038 H1032 0.950 . S
C1038 C1039 1.327 . S
C1039 H1033 0.950 . S
C1039 C1038 1.327 . S
C1039 C1043 1.429 . S
C1040 C1023 1.574 . S
C1040 H1034 0.949 . S
C1040 C1044 1.368 . S
C1041 C1022 1.429 . S
C1041 C1035 1.429 . S
C1041 C1042 1.523 . S
C1042 C1023 1.368 . S
C1042 C1036 1.368 . S
C1042 C1041 1.523 . S
C1043 C1027 1.429 . S
C1043 C1039 1.429 . S
C1043 C1044 1.523 . S
C1044 C1028 1.368 . S
C1044 C1040 1.368 . S
C1044 C1043 1.523 . S
H1045 C1020 0.950 . S
H1046 C1022 0.950 . S
H1047 C1023 0.949 . S
H1048 C1025 0.950 . S
H1049 C1027 0.950 . S
C1050 C1051 1.349 . S
C1050 C1052 1.327 . S
C1050 H1075 0.950 . S
C1051 C1050 1.349 . S
C1051 C1067 1.349 . S
C1052 C1050 1.327 . S
C1052 C1071 1.429 . S
C1052 H1076 0.950 . S
C1053 C1070 1.574 . S
C1053 C1072 1.368 . S
C1053 H1077 0.949 . S
H1054 C1058 0.949 . S
C1055 C1056 1.349 . S
C1055 C1057 1.327 . S
C1055 H1078 0.950 . S
C1056 C1055 1.349 . S
C1056 C1068 1.349 . S
C1057 C1055 1.327 . S
C1057 C1073 1.429 . S
C1057 H1079 0.950 . S
C1058 H1054 0.949 . S
C1058 C1066 1.574 . S
C1058 C1074 1.368 . S
H1059 C1067 0.950 . S
H1060 C1065 0.950 . S
H1061 C1066 0.949 . S
H1062 C1068 0.950 . S
H1063 C1069 0.950 . S
H1064 C1070 0.949 . S
C1065 H1060 0.950 . S
C1065 C1067 1.327 . S
C1065 C1071 1.429 . S
C1066 C1058 1.574 . S
C1066 H1061 0.949 . S
C1066 C1072 1.368 . S
C1067 C1051 1.349 . S
C1067 H1059 0.950 . S
C1067 C1065 1.327 . S
C1068 C1056 1.349 . S
C1068 H1062 0.950 . S
C1068 C1069 1.327 . S
C1069 H1063 0.950 . S
C1069 C1068 1.327 . S
C1069 C1073 1.429 . S
C1070 C1053 1.574 . S
C1070 H1064 0.949 . S
C1070 C1074 1.368 . S
C1071 C1052 1.429 . S
C1071 C1065 1.429 . S
C1071 C1072 1.523 . S
C1072 C1053 1.368 . S
C1072 C1066 1.368 . S
C1072 C1071 1.523 . S
C1073 C1057 1.429 . S
C1073 C1069 1.429 . S
C1073 C1074 1.523 . S
C1074 C1058 1.368 . S
C1074 C1070 1.368 . S
C1074 C1073 1.523 . S
H1075 C1050 0.950 . S
H1076 C1052 0.950 . S
H1077 C1053 0.949 . S
H1078 C1055 0.950 . S
H1079 C1057 0.950 . S
C1080 C1081 1.349 . S
C1080 C1082 1.327 . S
C1080 H1105 0.950 . S
C1081 C1080 1.349 . S
C1081 C1097 1.349 . S
C1082 C1080 1.327 . S
C1082 C1101 1.429 . S
C1082 H1106 0.950 . S
C1083 C1100 1.574 . S
C1083 C1102 1.368 . S
C1083 H1107 0.949 . S
H1084 C1088 0.949 . S
C1085 C1086 1.349 . S
C1085 C1087 1.327 . S
C1085 H1108 0.950 . S
C1086 C1085 1.349 . S
C1086 C1098 1.349 . S
C1087 C1085 1.327 . S
C1087 C1103 1.429 . S
C1087 H1109 0.950 . S
C1088 H1084 0.949 . S
C1088 C1096 1.574 . S
C1088 C1104 1.368 . S
H1089 C1097 0.950 . S
H1090 C1095 0.950 . S
H1091 C1096 0.949 . S
H1092 C1098 0.950 . S
H1093 C1099 0.950 . S
H1094 C1100 0.949 . S
C1095 H1090 0.950 . S
C1095 C1097 1.327 . S
C1095 C1101 1.429 . S
C1096 C1088 1.574 . S
C1096 H1091 0.949 . S
C1096 C1102 1.368 . S
C1097 C1081 1.349 . S
C1097 H1089 0.950 . S
C1097 C1095 1.327 . S
C1098 C1086 1.349 . S
C1098 H1092 0.950 . S
C1098 C1099 1.327 . S
C1099 H1093 0.950 . S
C1099 C1098 1.327 . S
C1099 C1103 1.429 . S
C1100 C1083 1.574 . S
C1100 H1094 0.949 . S
C1100 C1104 1.368 . S
C1101 C1082 1.429 . S
C1101 C1095 1.429 . S
C1101 C1102 1.523 . S
C1102 C1083 1.368 . S
C1102 C1096 1.368 . S
C1102 C1101 1.523 . S
C1103 C1087 1.429 . S
C1103 C1099 1.429 . S
C1103 C1104 1.523 . S
C1104 C1088 1.368 . S
C1104 C1100 1.368 . S
C1104 C1103 1.523 . S
H1105 C1080 0.950 . S
H1106 C1082 0.950 . S
H1107 C1083 0.949 . S
H1108 C1085 0.950 . S
H1109 C1087 0.950 . S
C1110 C1111 1.349 . S
C1110 C1112 1.327 . S
C1110 H1135 0.950 . S
C1111 C1110 1.349 . S
C1111 C1127 1.349 . S
C1112 C1110 1.327 . S
C1112 C1131 1.429 . S
C1112 H1136 0.950 . S
C1113 C1130 1.574 . S
C1113 C1132 1.368 . S
C1113 H1137 0.949 . S
H1114 C1118 0.949 1_565 S
C1115 C1116 1.349 . S
C1115 C1117 1.327 . S
C1115 H1138 0.950 . S
C1116 C1115 1.349 . S
C1116 C1128 1.349 . S
C1117 C1115 1.327 . S
C1117 C1133 1.429 . S
C1117 H1139 0.950 . S
C1118 H1114 0.949 1_545 S
C1118 C1126 1.574 . S
C1118 C1134 1.368 . S
H1119 C1127 0.950 . S
H1120 C1125 0.950 . S
H1121 C1126 0.949 . S
H1122 C1128 0.950 . S
H1123 C1129 0.950 . S
H1124 C1130 0.949 . S
C1125 H1120 0.950 . S
C1125 C1127 1.327 . S
C1125 C1131 1.429 . S
C1126 C1118 1.574 . S
C1126 H1121 0.949 . S
C1126 C1132 1.368 . S
C1127 C1111 1.349 . S
C1127 H1119 0.950 . S
C1127 C1125 1.327 . S
C1128 C1116 1.349 . S
C1128 H1122 0.950 . S
C1128 C1129 1.327 . S
C1129 H1123 0.950 . S
C1129 C1128 1.327 . S
C1129 C1133 1.429 . S
C1130 C1113 1.574 . S
C1130 H1124 0.949 . S
C1130 C1134 1.368 . S
C1131 C1112 1.429 . S
C1131 C1125 1.429 . S
C1131 C1132 1.523 . S
C1132 C1113 1.368 . S
C1132 C1126 1.368 . S
C1132 C1131 1.523 . S
C1133 C1117 1.429 . S
C1133 C1129 1.429 . S
C1133 C1134 1.523 1_565 S
C1134 C1118 1.368 . S
C1134 C1130 1.368 . S
C1134 C1133 1.523 1_545 S
H1135 C1110 0.950 . S
H1136 C1112 0.950 . S
H1137 C1113 0.949 . S
H1138 C1115 0.950 . S
H1139 C1117 0.950 . S
C1140 C1141 1.349 . S
C1140 C1142 1.327 . S
C1140 H1165 0.950 . S
C1141 C1140 1.349 . S
C1141 C1157 1.349 . S
C1142 C1140 1.327 . S
C1142 C1161 1.429 . S
C1142 H1166 0.950 . S
C1143 C1160 1.574 . S
C1143 C1162 1.368 . S
C1143 H1167 0.949 . S
H1144 C1148 0.949 . S
C1145 C1146 1.349 . S
C1145 C1147 1.327 . S
C1145 H1168 0.950 . S
C1146 C1145 1.349 . S
C1146 C1158 1.349 . S
C1147 C1145 1.327 . S
C1147 C1163 1.429 . S
C1147 H1169 0.950 . S
C1148 H1144 0.949 . S
C1148 C1156 1.574 . S
C1148 C1164 1.368 . S
H1149 C1157 0.950 . S
H1150 C1155 0.950 . S
H1151 C1156 0.949 . S
H1152 C1158 0.950 . S
H1153 C1159 0.950 . S
H1154 C1160 0.949 . S
C1155 H1150 0.950 . S
C1155 C1157 1.327 . S
C1155 C1161 1.429 . S
C1156 C1148 1.574 . S
C1156 H1151 0.949 . S
C1156 C1162 1.368 . S
C1157 C1141 1.349 . S
C1157 H1149 0.950 . S
C1157 C1155 1.327 . S
C1158 C1146 1.349 . S
C1158 H1152 0.950 . S
C1158 C1159 1.327 . S
C1159 H1153 0.950 . S
C1159 C1158 1.327 . S
C1159 C1163 1.429 . S
C1160 C1143 1.574 . S
C1160 H1154 0.949 . S
C1160 C1164 1.368 . S
C1161 C1142 1.429 . S
C1161 C1155 1.429 . S
C1161 C1162 1.523 . S
C1162 C1143 1.368 . S
C1162 C1156 1.368 . S
C1162 C1161 1.523 . S
C1163 C1147 1.429 . S
C1163 C1159 1.429 . S
C1163 C1164 1.523 . S
C1164 C1148 1.368 . S
C1164 C1160 1.368 . S
C1164 C1163 1.523 . S
H1165 C1140 0.950 . S
H1166 C1142 0.950 . S
H1167 C1143 0.949 . S
H1168 C1145 0.950 . S
H1169 C1147 0.950 . S
C1170 C1171 1.349 . S
C1170 C1172 1.327 . S
C1170 H1195 0.950 . S
C1171 C1170 1.349 . S
C1171 C1187 1.349 . S
C1172 C1170 1.327 . S
C1172 C1191 1.429 . S
C1172 H1196 0.950 . S
C1173 C1190 1.574 . S
C1173 C1192 1.368 1_565 S
C1173 H1197 0.949 . S
H1174 C1178 0.949 . S
C1175 C1176 1.349 . S
C1175 C1177 1.327 . S
C1175 H1198 0.950 . S
C1176 C1175 1.349 . S
C1176 C1188 1.349 . S
C1177 C1175 1.327 . S
C1177 C1193 1.429 . S
C1177 H1199 0.950 . S
C1178 H1174 0.949 . S
C1178 C1186 1.574 1_565 S
C1178 C1194 1.368 . S
H1179 C1187 0.950 . S
H1180 C1185 0.950 . S
H1181 C1186 0.949 . S
H1182 C1188 0.950 . S
H1183 C1189 0.950 . S
H1184 C1190 0.949 . S
C1185 H1180 0.950 . S
C1185 C1187 1.327 . S
C1185 C1191 1.429 . S
C1186 C1178 1.574 1_545 S
C1186 H1181 0.949 . S
C1186 C1192 1.368 . S
C1187 C1171 1.349 . S
C1187 H1179 0.950 . S
C1187 C1185 1.327 . S
C1188 C1176 1.349 . S
C1188 H1182 0.950 . S
C1188 C1189 1.327 . S
C1189 H1183 0.950 . S
C1189 C1188 1.327 . S
C1189 C1193 1.429 . S
C1190 C1173 1.574 . S
C1190 H1184 0.949 . S
C1190 C1194 1.368 . S
C1191 C1172 1.429 . S
C1191 C1185 1.429 . S
C1191 C1192 1.523 . S
C1192 C1173 1.368 1_545 S
C1192 C1186 1.368 . S
C1192 C1191 1.523 . S
C1193 C1177 1.429 . S
C1193 C1189 1.429 . S
C1193 C1194 1.523 . S
C1194 C1178 1.368 . S
C1194 C1190 1.368 . S
C1194 C1193 1.523 . S
H1195 C1170 0.950 . S
H1196 C1172 0.950 . S
H1197 C1173 0.949 . S
H1198 C1175 0.950 . S
H1199 C1177 0.950 . S
C1200 C1201 1.349 . S
C1200 C1202 1.327 . S
C1200 H1225 0.950 . S
C1201 C1200 1.349 . S
C1201 C1217 1.349 . S
C1202 C1200 1.327 . S
C1202 C1221 1.429 . S
C1202 H1226 0.950 . S
C1203 C1220 1.574 . S
C1203 C1222 1.368 . S
C1203 H1227 0.949 . S
H1204 C1208 0.949 . S
C1205 C1206 1.349 . S
C1205 C1207 1.327 . S
C1205 H1228 0.950 . S
C1206 C1205 1.349 . S
C1206 C1218 1.349 . S
C1207 C1205 1.327 . S
C1207 C1223 1.429 . S
C1207 H1229 0.950 . S
C1208 H1204 0.949 . S
C1208 C1216 1.574 . S
C1208 C1224 1.368 . S
H1209 C1217 0.950 . S
H1210 C1215 0.950 . S
H1211 C1216 0.949 . S
H1212 C1218 0.950 . S
H1213 C1219 0.950 . S
H1214 C1220 0.949 . S
C1215 H1210 0.950 . S
C1215 C1217 1.327 . S
C1215 C1221 1.429 . S
C1216 C1208 1.574 . S
C1216 H1211 0.949 . S
C1216 C1222 1.368 . S
C1217 C1201 1.349 . S
C1217 H1209 0.950 . S
C1217 C1215 1.327 . S
C1218 C1206 1.349 . S
C1218 H1212 0.950 . S
C1218 C1219 1.327 . S
C1219 H1213 0.950 . S
C1219 C1218 1.327 . S
C1219 C1223 1.429 . S
C1220 C1203 1.574 . S
C1220 H1214 0.949 . S
C1220 C1224 1.368 . S
C1221 C1202 1.429 . S
C1221 C1215 1.429 . S
C1221 C1222 1.523 . S
C1222 C1203 1.368 . S
C1222 C1216 1.368 . S
C1222 C1221 1.523 . S
C1223 C1207 1.429 . S
C1223 C1219 1.429 . S
C1223 C1224 1.523 . S
C1224 C1208 1.368 . S
C1224 C1220 1.368 . S
C1224 C1223 1.523 . S
H1225 C1200 0.950 . S
H1226 C1202 0.950 . S
H1227 C1203 0.949 . S
H1228 C1205 0.950 . S
H1229 C1207 0.950 . S
C1230 C1231 1.349 . S
C1230 C1232 1.327 . S
C1230 H1255 0.950 . S
C1231 C1230 1.349 . S
C1231 C1247 1.349 . S
C1232 C1230 1.327 . S
C1232 C1251 1.429 . S
C1232 H1256 0.950 . S
C1233 C1250 1.574 . S
C1233 C1252 1.368 . S
C1233 H1257 0.949 . S
H1234 C1238 0.949 . S
C1235 C1236 1.349 . S
C1235 C1237 1.327 . S
C1235 H1258 0.950 . S
C1236 C1235 1.349 . S
C1236 C1248 1.349 . S
C1237 C1235 1.327 . S
C1237 C1253 1.429 . S
C1237 H1259 0.950 . S
C1238 H1234 0.949 . S
C1238 C1246 1.574 . S
C1238 C1254 1.368 . S
H1239 C1247 0.950 . S
H1240 C1245 0.950 . S
H1241 C1246 0.949 . S
H1242 C1248 0.950 . S
H1243 C1249 0.950 . S
H1244 C1250 0.949 . S
C1245 H1240 0.950 . S
C1245 C1247 1.327 . S
C1245 C1251 1.429 . S
C1246 C1238 1.574 . S
C1246 H1241 0.949 . S
C1246 C1252 1.368 . S
C1247 C1231 1.349 . S
C1247 H1239 0.950 . S
C1247 C1245 1.327 . S
C1248 C1236 1.349 . S
C1248 H1242 0.950 . S
C1248 C1249 1.327 . S
C1249 H1243 0.950 . S
C1249 C1248 1.327 . S
C1249 C1253 1.429 . S
C1250 C1233 1.574 . S
C1250 H1244 0.949 . S
C1250 C1254 1.368 . S
C1251 C1232 1.429 . S
C1251 C1245 1.429 . S
C1251 C1252 1.523 . S
C1252 C1233 1.368 . S
C1252 C1246 1.368 . S
C1252 C1251 1.523 . S
C1253 C1237 1.429 . S
C1253 C1249 1.429 . S
C1253 C1254 1.523 . S
C1254 C1238 1.368 . S
C1254 C1250 1.368 . S
C1254 C1253 1.523 . S
H1255 C1230 0.950 . S
H1256 C1232 0.950 . S
H1257 C1233 0.949 . S
H1258 C1235 0.950 . S
H1259 C1237 0.950 . S
C1260 C1261 1.349 . S
C1260 C1262 1.327 . S
C1260 H1285 0.950 . S
C1261 C1260 1.349 . S
C1261 C1277 1.349 . S
C1262 C1260 1.327 . S
C1262 C1281 1.429 . S
C1262 H1286 0.950 . S
C1263 C1280 1.574 . S
C1263 C1282 1.368 . S
C1263 H1287 0.949 . S
H1264 C1268 0.949 . S
C1265 C1266 1.349 . S
C1265 C1267 1.327 . S
C1265 H1288 0.950 . S
C1266 C1265 1.349 . S
C1266 C1278 1.349 . S
C1267 C1265 1.327 . S
C1267 C1283 1.429 . S
C1267 H1289 0.950 . S
C1268 H1264 0.949 . S
C1268 C1276 1.574 . S
C1268 C1284 1.368 . S
H1269 C1277 0.950 . S
H1270 C1275 0.950 . S
H1271 C1276 0.949 . S
H1272 C1278 0.950 . S
H1273 C1279 0.950 . S
H1274 C1280 0.949 . S
C1275 H1270 0.950 . S
C1275 C1277 1.327 . S
C1275 C1281 1.429 . S
C1276 C1268 1.574 . S
C1276 H1271 0.949 . S
C1276 C1282 1.368 . S
C1277 C1261 1.349 . S
C1277 H1269 0.950 . S
C1277 C1275 1.327 . S
C1278 C1266 1.349 . S
C1278 H1272 0.950 . S
C1278 C1279 1.327 . S
C1279 H1273 0.950 . S
C1279 C1278 1.327 . S
C1279 C1283 1.429 . S
C1280 C1263 1.574 . S
C1280 H1274 0.949 . S
C1280 C1284 1.368 . S
C1281 C1262 1.429 . S
C1281 C1275 1.429 . S
C1281 C1282 1.523 . S
C1282 C1263 1.368 . S
C1282 C1276 1.368 . S
C1282 C1281 1.523 . S
C1283 C1267 1.429 . S
C1283 C1279 1.429 . S
C1283 C1284 1.523 . S
C1284 C1268 1.368 . S
C1284 C1280 1.368 . S
C1284 C1283 1.523 . S
H1285 C1260 0.950 . S
H1286 C1262 0.950 . S
H1287 C1263 0.949 . S
H1288 C1265 0.950 . S
H1289 C1267 0.950 . S
C1290 C1291 1.349 . S
C1290 C1292 1.327 . S
C1290 H1315 0.950 . S
C1291 C1290 1.349 . S
C1291 C1307 1.349 . S
C1292 C1290 1.327 . S
C1292 C1311 1.429 . S
C1292 H1316 0.950 . S
C1293 C1310 1.574 . S
C1293 C1312 1.368 . S
C1293 H1317 0.949 . S
H1294 C1298 0.949 . S
C1295 C1296 1.349 . S
C1295 C1297 1.327 . S
C1295 H1318 0.950 . S
C1296 C1295 1.349 . S
C1296 C1308 1.349 . S
C1297 C1295 1.327 . S
C1297 C1313 1.429 . S
C1297 H1319 0.950 . S
C1298 H1294 0.949 . S
C1298 C1306 1.574 . S
C1298 C1314 1.368 . S
H1299 C1307 0.950 . S
H1300 C1305 0.950 . S
H1301 C1306 0.949 . S
H1302 C1308 0.950 . S
H1303 C1309 0.950 . S
H1304 C1310 0.949 . S
C1305 H1300 0.950 . S
C1305 C1307 1.327 . S
C1305 C1311 1.429 . S
C1306 C1298 1.574 . S
C1306 H1301 0.949 . S
C1306 C1312 1.368 . S
C1307 C1291 1.349 . S
C1307 H1299 0.950 . S
C1307 C1305 1.327 . S
C1308 C1296 1.349 . S
C1308 H1302 0.950 . S
C1308 C1309 1.327 . S
C1309 H1303 0.950 . S
C1309 C1308 1.327 . S
C1309 C1313 1.429 . S
C1310 C1293 1.574 . S
C1310 H1304 0.949 . S
C1310 C1314 1.368 . S
C1311 C1292 1.429 . S
C1311 C1305 1.429 . S
C1311 C1312 1.523 . S
C1312 C1293 1.368 . S
C1312 C1306 1.368 . S
C1312 C1311 1.523 . S
C1313 C1297 1.429 . S
C1313 C1309 1.429 . S
C1313 C1314 1.523 . S
C1314 C1298 1.368 . S
C1314 C1310 1.368 . S
C1314 C1313 1.523 . S
H1315 C1290 0.950 . S
H1316 C1292 0.950 . S
H1317 C1293 0.949 . S
H1318 C1295 0.950 . S
H1319 C1297 0.950 . S
C1320 C1321 1.349 . S
C1320 C1322 1.327 . S
C1320 H1345 0.950 . S
C1321 C1320 1.349 . S
C1321 C1337 1.349 . S
C1322 C1320 1.327 . S
C1322 C1341 1.429 . S
C1322 H1346 0.950 . S
C1323 C1340 1.574 . S
C1323 C1342 1.368 . S
C1323 H1347 0.949 . S
H1324 C1328 0.949 . S
C1325 C1326 1.349 . S
C1325 C1327 1.327 . S
C1325 H1348 0.950 . S
C1326 C1325 1.349 . S
C1326 C1338 1.349 . S
C1327 C1325 1.327 . S
C1327 C1343 1.429 . S
C1327 H1349 0.950 . S
C1328 H1324 0.949 . S
C1328 C1336 1.574 . S
C1328 C1344 1.368 . S
H1329 C1337 0.950 . S
H1330 C1335 0.950 . S
H1331 C1336 0.949 . S
H1332 C1338 0.950 . S
H1333 C1339 0.950 . S
H1334 C1340 0.949 . S
C1335 H1330 0.950 . S
C1335 C1337 1.327 . S
C1335 C1341 1.429 . S
C1336 C1328 1.574 . S
C1336 H1331 0.949 . S
C1336 C1342 1.368 . S
C1337 C1321 1.349 . S
C1337 H1329 0.950 . S
C1337 C1335 1.327 . S
C1338 C1326 1.349 . S
C1338 H1332 0.950 . S
C1338 C1339 1.327 . S
C1339 H1333 0.950 . S
C1339 C1338 1.327 . S
C1339 C1343 1.429 . S
C1340 C1323 1.574 . S
C1340 H1334 0.949 . S
C1340 C1344 1.368 . S
C1341 C1322 1.429 . S
C1341 C1335 1.429 . S
C1341 C1342 1.523 . S
C1342 C1323 1.368 . S
C1342 C1336 1.368 . S
C1342 C1341 1.523 . S
C1343 C1327 1.429 . S
C1343 C1339 1.429 . S
C1343 C1344 1.523 . S
C1344 C1328 1.368 . S
C1344 C1340 1.368 . S
C1344 C1343 1.523 . S
H1345 C1320 0.950 . S
H1346 C1322 0.950 . S
H1347 C1323 0.949 . S
H1348 C1325 0.950 . S
H1349 C1327 0.950 . S
C1350 C1351 1.349 . S
C1350 C1352 1.327 . S
C1350 H1375 0.950 . S
C1351 C1350 1.349 . S
C1351 C1367 1.349 . S
C1352 C1350 1.327 . S
C1352 C1371 1.429 . S
C1352 H1376 0.950 . S
C1353 C1370 1.574 . S
C1353 C1372 1.368 . S
C1353 H1377 0.949 . S
H1354 C1358 0.949 . S
C1355 C1356 1.349 . S
C1355 C1357 1.327 . S
C1355 H1378 0.950 . S
C1356 C1355 1.349 . S
C1356 C1368 1.349 . S
C1357 C1355 1.327 . S
C1357 C1373 1.429 . S
C1357 H1379 0.950 . S
C1358 H1354 0.949 . S
C1358 C1366 1.574 . S
C1358 C1374 1.368 . S
H1359 C1367 0.950 . S
H1360 C1365 0.950 . S
H1361 C1366 0.949 . S
H1362 C1368 0.950 . S
H1363 C1369 0.950 . S
H1364 C1370 0.949 . S
C1365 H1360 0.950 . S
C1365 C1367 1.327 . S
C1365 C1371 1.429 . S
C1366 C1358 1.574 . S
C1366 H1361 0.949 . S
C1366 C1372 1.368 . S
C1367 C1351 1.349 . S
C1367 H1359 0.950 . S
C1367 C1365 1.327 . S
C1368 C1356 1.349 . S
C1368 H1362 0.950 . S
C1368 C1369 1.327 . S
C1369 H1363 0.950 . S
C1369 C1368 1.327 . S
C1369 C1373 1.429 . S
C1370 C1353 1.574 . S
C1370 H1364 0.949 . S
C1370 C1374 1.368 . S
C1371 C1352 1.429 . S
C1371 C1365 1.429 . S
C1371 C1372 1.523 . S
C1372 C1353 1.368 . S
C1372 C1366 1.368 . S
C1372 C1371 1.523 . S
C1373 C1357 1.429 . S
C1373 C1369 1.429 . S
C1373 C1374 1.523 . S
C1374 C1358 1.368 . S
C1374 C1370 1.368 . S
C1374 C1373 1.523 . S
H1375 C1350 0.950 . S
H1376 C1352 0.950 . S
H1377 C1353 0.949 . S
H1378 C1355 0.950 . S
H1379 C1357 0.950 . S
C1380 C1381 1.349 . S
C1380 C1382 1.327 . S
C1380 H1405 0.950 . S
C1381 C1380 1.349 . S
C1381 C1397 1.349 . S
C1382 C1380 1.327 . S
C1382 C1401 1.429 . S
C1382 H1406 0.950 . S
C1383 C1400 1.574 . S
C1383 C1402 1.368 . S
C1383 H1407 0.949 . S
H1384 C1388 0.949 . S
C1385 C1386 1.349 . S
C1385 C1387 1.327 . S
C1385 H1408 0.950 . S
C1386 C1385 1.349 . S
C1386 C1398 1.349 . S
C1387 C1385 1.327 . S
C1387 C1403 1.429 . S
C1387 H1409 0.950 . S
C1388 H1384 0.949 . S
C1388 C1396 1.574 . S
C1388 C1404 1.368 1_455 S
H1389 C1397 0.950 . S
H1390 C1395 0.950 . S
H1391 C1396 0.949 . S
H1392 C1398 0.950 . S
H1393 C1399 0.950 . S
H1394 C1400 0.949 1_655 S
C1395 H1390 0.950 . S
C1395 C1397 1.327 . S
C1395 C1401 1.429 . S
C1396 C1388 1.574 . S
C1396 H1391 0.949 . S
C1396 C1402 1.368 . S
C1397 C1381 1.349 . S
C1397 H1389 0.950 . S
C1397 C1395 1.327 . S
C1398 C1386 1.349 . S
C1398 H1392 0.950 . S
C1398 C1399 1.327 . S
C1399 H1393 0.950 . S
C1399 C1398 1.327 . S
C1399 C1403 1.429 . S
C1400 C1383 1.574 . S
C1400 H1394 0.949 1_455 S
C1400 C1404 1.368 1_455 S
C1401 C1382 1.429 . S
C1401 C1395 1.429 . S
C1401 C1402 1.523 . S
C1402 C1383 1.368 . S
C1402 C1396 1.368 . S
C1402 C1401 1.523 . S
C1403 C1387 1.429 . S
C1403 C1399 1.429 . S
C1403 C1404 1.523 . S
C1404 C1388 1.368 1_655 S
C1404 C1400 1.368 1_655 S
C1404 C1403 1.523 . S
H1405 C1380 0.950 . S
H1406 C1382 0.950 . S
H1407 C1383 0.949 . S
H1408 C1385 0.950 . S
H1409 C1387 0.950 . S
C1410 C1411 1.349 . S
C1410 C1412 1.327 . S
C1410 H1435 0.950 . S
C1411 C1410 1.349 . S
C1411 C1427 1.349 . S
C1412 C1410 1.327 . S
C1412 C1431 1.429 . S
C1412 H1436 0.950 . S
C1413 C1430 1.574 . S
C1413 C1432 1.368 . S
C1413 H1437 0.949 . S
H1414 C1418 0.949 . S
C1415 C1416 1.349 . S
C1415 C1417 1.327 . S
C1415 H1438 0.950 . S
C1416 C1415 1.349 . S
C1416 C1428 1.349 . S
C1417 C1415 1.327 . S
C1417 C1433 1.429 . S
C1417 H1439 0.950 . S
C1418 H1414 0.949 . S
C1418 C1426 1.574 . S
C1418 C1434 1.368 . S
H1419 C1427 0.950 . S
H1420 C1425 0.950 . S
H1421 C1426 0.949 . S
H1422 C1428 0.950 . S
H1423 C1429 0.950 . S
H1424 C1430 0.949 . S
C1425 H1420 0.950 . S
C1425 C1427 1.327 . S
C1425 C1431 1.429 . S
C1426 C1418 1.574 . S
C1426 H1421 0.949 . S
C1426 C1432 1.368 . S
C1427 C1411 1.349 . S
C1427 H1419 0.950 . S
C1427 C1425 1.327 . S
C1428 C1416 1.349 . S
C1428 H1422 0.950 . S
C1428 C1429 1.327 . S
C1429 H1423 0.950 . S
C1429 C1428 1.327 . S
C1429 C1433 1.429 . S
C1430 C1413 1.574 . S
C1430 H1424 0.949 . S
C1430 C1434 1.368 . S
C1431 C1412 1.429 . S
C1431 C1425 1.429 . S
C1431 C1432 1.523 . S
C1432 C1413 1.368 . S
C1432 C1426 1.368 . S
C1432 C1431 1.523 . S
C1433 C1417 1.429 . S
C1433 C1429 1.429 . S
C1433 C1434 1.523 . S
C1434 C1418 1.368 . S
C1434 C1430 1.368 . S
C1434 C1433 1.523 . S
H1435 C1410 0.950 . S
H1436 C1412 0.950 . S
H1437 C1413 0.949 . S
H1438 C1415 0.950 . S
H1439 C1417 0.950 . S
C1440 C1441 1.349 . S
C1440 C1442 1.327 . S
C1440 H1465 0.950 . S
C1441 C1440 1.349 . S
C1441 C1457 1.349 . S
C1442 C1440 1.327 . S
C1442 C1461 1.429 . S
C1442 H1466 0.950 . S
C1443 C1460 1.574 . S
C1443 C1462 1.368 . S
C1443 H1467 0.949 . S
H1444 C1448 0.949 . S
C1445 C1446 1.349 . S
C1445 C1447 1.327 . S
C1445 H1468 0.950 . S
C1446 C1445 1.349 . S
C1446 C1458 1.349 . S
C1447 C1445 1.327 . S
C1447 C1463 1.429 . S
C1447 H1469 0.950 . S
C1448 H1444 0.949 . S
C1448 C1456 1.574 . S
C1448 C1464 1.368 . S
H1449 C1457 0.950 . S
H1450 C1455 0.950 . S
H1451 C1456 0.949 . S
H1452 C1458 0.950 . S
H1453 C1459 0.950 . S
H1454 C1460 0.949 . S
C1455 H1450 0.950 . S
C1455 C1457 1.327 . S
C1455 C1461 1.429 . S
C1456 C1448 1.574 . S
C1456 H1451 0.949 . S
C1456 C1462 1.368 . S
C1457 C1441 1.349 . S
C1457 H1449 0.950 . S
C1457 C1455 1.327 . S
C1458 C1446 1.349 . S
C1458 H1452 0.950 . S
C1458 C1459 1.327 . S
C1459 H1453 0.950 . S
C1459 C1458 1.327 . S
C1459 C1463 1.429 . S
C1460 C1443 1.574 . S
C1460 H1454 0.949 . S
C1460 C1464 1.368 . S
C1461 C1442 1.429 . S
C1461 C1455 1.429 . S
C1461 C1462 1.523 . S
C1462 C1443 1.368 . S
C1462 C1456 1.368 . S
C1462 C1461 1.523 . S
C1463 C1447 1.429 . S
C1463 C1459 1.429 . S
C1463 C1464 1.523 . S
C1464 C1448 1.368 . S
C1464 C1460 1.368 . S
C1464 C1463 1.523 . S
H1465 C1440 0.950 . S
H1466 C1442 0.950 . S
H1467 C1443 0.949 . S
H1468 C1445 0.950 . S
H1469 C1447 0.950 . S
C1470 C1471 1.349 . S
C1470 C1472 1.327 . S
C1470 H1495 0.950 . S
C1471 C1470 1.349 . S
C1471 C1487 1.349 . S
C1472 C1470 1.327 . S
C1472 C1491 1.429 . S
C1472 H1496 0.950 . S
C1473 C1490 1.574 . S
C1473 C1492 1.368 . S
C1473 H1497 0.949 . S
H1474 C1478 0.949 . S
C1475 C1476 1.349 . S
C1475 C1477 1.327 . S
C1475 H1498 0.950 . S
C1476 C1475 1.349 . S
C1476 C1488 1.349 . S
C1477 C1475 1.327 . S
C1477 C1493 1.429 . S
C1477 H1499 0.950 . S
C1478 H1474 0.949 . S
C1478 C1486 1.574 . S
C1478 C1494 1.368 . S
H1479 C1487 0.950 . S
H1480 C1485 0.950 . S
H1481 C1486 0.949 . S
H1482 C1488 0.950 . S
H1483 C1489 0.950 . S
H1484 C1490 0.949 . S
C1485 H1480 0.950 . S
C1485 C1487 1.327 . S
C1485 C1491 1.429 . S
C1486 C1478 1.574 . S
C1486 H1481 0.949 . S
C1486 C1492 1.368 . S
C1487 C1471 1.349 . S
C1487 H1479 0.950 . S
C1487 C1485 1.327 . S
C1488 C1476 1.349 . S
C1488 H1482 0.950 . S
C1488 C1489 1.327 . S
C1489 H1483 0.950 . S
C1489 C1488 1.327 . S
C1489 C1493 1.429 . S
C1490 C1473 1.574 . S
C1490 H1484 0.949 . S
C1490 C1494 1.368 . S
C1491 C1472 1.429 . S
C1491 C1485 1.429 . S
C1491 C1492 1.523 . S
C1492 C1473 1.368 . S
C1492 C1486 1.368 . S
C1492 C1491 1.523 . S
C1493 C1477 1.429 . S
C1493 C1489 1.429 . S
C1493 C1494 1.523 . S
C1494 C1478 1.368 . S
C1494 C1490 1.368 . S
C1494 C1493 1.523 . S
H1495 C1470 0.950 . S
H1496 C1472 0.950 . S
H1497 C1473 0.949 . S
H1498 C1475 0.950 . S
H1499 C1477 0.950 . S
C1500 C1501 1.349 . S
C1500 C1502 1.327 . S
C1500 H1525 0.982 . S
C1501 C1500 1.349 . S
C1501 C1517 1.349 . S
C1502 C1500 1.327 . S
C1502 C1521 1.429 . S
C1502 H1526 0.950 . S
C1503 C1520 1.574 . S
C1503 C1522 1.368 . S
C1503 H1527 0.949 . S
H1504 C1508 0.949 . S
C1505 C1506 1.349 . S
C1505 C1507 1.327 . S
C1505 H1528 0.950 . S
C1506 C1505 1.349 . S
C1506 C1518 1.349 . S
C1507 C1505 1.327 . S
C1507 C1523 1.429 . S
C1507 H1529 0.950 . S
C1508 H1504 0.949 . S
C1508 C1516 1.574 . S
C1508 C1524 1.368 . S
H1509 C1517 0.950 . S
H1510 C1515 0.950 . S
H1511 C1516 0.949 . S
H1512 C1518 0.950 . S
H1513 C1519 0.950 . S
H1514 C1520 0.949 . S
C1515 H1510 0.950 . S
C1515 C1517 1.327 . S
C1515 C1521 1.429 . S
C1516 C1508 1.574 . S
C1516 H1511 0.949 . S
C1516 C1522 1.368 . S
C1517 C1501 1.349 . S
C1517 H1509 0.950 . S
C1517 C1515 1.327 . S
C1518 C1506 1.349 . S
C1518 H1512 0.950 . S
C1518 C1519 1.327 . S
C1519 H1513 0.950 . S
C1519 C1518 1.327 . S
C1519 C1523 1.429 . S
C1520 C1503 1.574 . S
C1520 H1514 0.949 . S
C1520 C1524 1.368 . S
C1521 C1502 1.429 . S
C1521 C1515 1.429 . S
C1521 C1522 1.523 . S
C1522 C1503 1.368 . S
C1522 C1516 1.368 . S
C1522 C1521 1.523 . S
C1523 C1507 1.429 . S
C1523 C1519 1.429 . S
C1523 C1524 1.523 . S
C1524 C1508 1.368 . S
C1524 C1520 1.368 . S
C1524 C1523 1.523 . S
H1525 C1500 0.982 . S
H1526 C1502 0.950 . S
H1527 C1503 0.949 . S
H1528 C1505 0.950 . S
H1529 C1507 0.950 . S
C1530 C1531 1.349 . S
C1530 C1532 1.327 . S
C1530 H1555 0.950 . S
C1531 C1530 1.349 . S
C1531 C1547 1.349 . S
C1532 C1530 1.327 . S
C1532 C1551 1.429 . S
C1532 H1556 0.950 . S
C1533 C1550 1.574 . S
C1533 C1552 1.368 . S
C1533 H1557 0.949 . S
H1534 C1538 0.949 . S
C1535 C1536 1.349 . S
C1535 C1537 1.327 . S
C1535 H1558 0.950 . S
C1536 C1535 1.349 . S
C1536 C1548 1.349 . S
C1537 C1535 1.327 . S
C1537 C1553 1.429 . S
C1537 H1559 0.950 . S
C1538 H1534 0.949 . S
C1538 C1546 1.574 . S
C1538 C1554 1.380 . S
H1539 C1547 0.950 . S
H1540 C1545 0.950 . S
H1541 C1546 0.949 . S
H1542 C1548 0.950 . S
H1543 C1549 0.950 . S
H1544 C1550 0.949 1_455 S
C1545 H1540 0.950 . S
C1545 C1547 1.327 . S
C1545 C1551 1.429 . S
C1546 C1538 1.574 . S
C1546 H1541 0.949 . S
C1546 C1552 1.368 . S
C1547 C1531 1.349 . S
C1547 H1539 0.950 . S
C1547 C1545 1.327 . S
C1548 C1536 1.349 . S
C1548 H1542 0.950 . S
C1548 C1549 1.327 . S
C1549 H1543 0.950 . S
C1549 C1548 1.327 . S
C1549 C1553 1.429 . S
C1550 C1533 1.574 . S
C1550 H1544 0.949 1_655 S
C1550 C1554 1.372 . S
C1551 C1532 1.429 . S
C1551 C1545 1.429 . S
C1551 C1552 1.523 . S
C1552 C1533 1.368 . S
C1552 C1546 1.368 . S
C1552 C1551 1.523 . S
C1553 C1537 1.429 . S
C1553 C1549 1.429 . S
C1553 C1554 1.504 1_455 S
C1554 C1538 1.380 . S
C1554 C1550 1.372 . S
C1554 C1553 1.504 1_655 S
H1555 C1530 0.950 . S
H1556 C1532 0.950 . S
H1557 C1533 0.949 . S
H1558 C1535 0.950 . S
H1559 C1537 0.950 . S
C481 C19 0.856 . S
C486 C459 0.855 . S
C511 C371 1.588 . S
C516 C59 1.654 . S
C541 C91 1.135 . S
C546 C339 1.176 . S
C571 C139 1.935 . S
C576 C419 1.928 . S
C601 C179 1.623 . S
C606 C411 1.577 . S
C631 C211 1.391 . S
C636 C451 1.409 . S
C661 C379 1.706 . S
C666 C259 1.706 . S
C691 C291 1.660 . S
C696 C331 1.711 . S
C721 C131 1.716 . S
C726 C171 1.751 . S
C751 C11 1.432 . S
C756 C219 1.490 . S
C781 C51 1.587 . S
C786 C251 1.591 . S
C811 C299 1.798 . S
C816 C99 1.804 . S
C841 C7 1.529 . S
C846 C330 1.447 . S
C871 C47 1.848 . S
C876 C410 1.778 . S
C901 C450 1.817 . S
C906 C96 1.828 . S
C931 C127 1.515 . S
C936 C362 1.492 . S
C961 C167 1.156 . S
C966 C370 1.124 . S
C991 C322 1.786 . S
C996 C216 1.728 . S
C1021 C402 1.319 . S
C1026 C247 1.326 . S
C1051 C442 2.715 . S
C1056 C296 2.641 . S
C1081 C2 2.773 . S
C1086 C136 2.694 . S
C1111 C16 1.913 . S
C1116 C42 1.959 . S
C1141 C56 2.195 . S
C1146 C90 2.184 . S
C1171 C122 1.705 . S
C1176 C87 1.735 . S
C1201 C207 1.448 . S
C1206 C162 1.432 . S
C1231 C210 1.119 . S
C1236 C256 1.141 . S
C1261 C242 1.454 . S
C1266 C287 1.471 . S
C1291 C176 0.621 . S
C1296 C290 0.632 . S
C1321 C336 0.523 . S
C1326 C130 0.552 . S
C1351 C202 1.507 . S
C1356 C376 1.476 . S
C1381 C327 1.308 . S
C1386 C250 1.263 . S
C1411 C407 1.880 . S
C1416 C282 1.863 . S
C1441 C170 1.177 . S
C1446 C447 1.227 . S
C1471 C456 1.556 . S
C1476 C50 1.528 . S
C1501 C82 1.502 . S
C1506 C367 1.521 . S
C1531 C416 1.628 . S
C1536 C10 1.614 . S
