# Generated by pormake.
# Topology unb, (4)-cn, num edge types: 1
# Building blocks:
#     Node 0, Type 0, BuildingBlock: CEKHIL_clean_sbu_0, # of connection points: 4
#     Node 1, Type 0, BuildingBlock: CEKHIL_clean_sbu_0, # of connection points: 4
#     Node 2, Type 0, BuildingBlock: CEKHIL_clean_sbu_0, # of connection points: 4
#     Node 3, Type 0, BuildingBlock: CEKHIL_clean_sbu_0, # of connection points: 4
#     Node 4, Type 0, BuildingBlock: CEKHIL_clean_sbu_0, # of connection points: 4
#     Node 5, Type 0, BuildingBlock: CEKHIL_clean_sbu_0, # of connection points: 4
#     Node 6, Type 0, BuildingBlock: CEKHIL_clean_sbu_0, # of connection points: 4
#     Node 7, Type 0, BuildingBlock: CEKHIL_clean_sbu_0, # of connection points: 4
#     Node 8, Type 0, BuildingBlock: CEKHIL_clean_sbu_0, # of connection points: 4
#     Node 9, Type 0, BuildingBlock: CEKHIL_clean_sbu_0, # of connection points: 4
#     Node 10, Type 0, BuildingBlock: CEKHIL_clean_sbu_0, # of connection points: 4
#     Node 11, Type 0, BuildingBlock: CEKHIL_clean_sbu_0, # of connection points: 4
#     Node 12, Type 0, BuildingBlock: CEKHIL_clean_sbu_0, # of connection points: 4
#     Node 13, Type 0, BuildingBlock: CEKHIL_clean_sbu_0, # of connection points: 4
#     Node 14, Type 0, BuildingBlock: CEKHIL_clean_sbu_0, # of connection points: 4
#     Node 15, Type 0, BuildingBlock: CEKHIL_clean_sbu_0, # of connection points: 4
#     Node 16, Type 0, BuildingBlock: CEKHIL_clean_sbu_0, # of connection points: 4
#     Node 17, Type 0, BuildingBlock: CEKHIL_clean_sbu_0, # of connection points: 4
#     Edge 18, Type (0, 0), BuildingBlock: XIVTED_clean_linker_0, # of connection points: 2
#     Edge 19, Type (0, 0), BuildingBlock: XIVTED_clean_linker_0, # of connection points: 2
#     Edge 20, Type (0, 0), BuildingBlock: XIVTED_clean_linker_0, # of connection points: 2
#     Edge 21, Type (0, 0), BuildingBlock: XIVTED_clean_linker_0, # of connection points: 2
#     Edge 22, Type (0, 0), BuildingBlock: XIVTED_clean_linker_0, # of connection points: 2
#     Edge 23, Type (0, 0), BuildingBlock: XIVTED_clean_linker_0, # of connection points: 2
#     Edge 24, Type (0, 0), BuildingBlock: XIVTED_clean_linker_0, # of connection points: 2
#     Edge 25, Type (0, 0), BuildingBlock: XIVTED_clean_linker_0, # of connection points: 2
#     Edge 26, Type (0, 0), BuildingBlock: XIVTED_clean_linker_0, # of connection points: 2
#     Edge 27, Type (0, 0), BuildingBlock: XIVTED_clean_linker_0, # of connection points: 2
#     Edge 28, Type (0, 0), BuildingBlock: XIVTED_clean_linker_0, # of connection points: 2
#     Edge 29, Type (0, 0), BuildingBlock: XIVTED_clean_linker_0, # of connection points: 2
#     Edge 30, Type (0, 0), BuildingBlock: XIVTED_clean_linker_0, # of connection points: 2
#     Edge 31, Type (0, 0), BuildingBlock: XIVTED_clean_linker_0, # of connection points: 2
#     Edge 32, Type (0, 0), BuildingBlock: XIVTED_clean_linker_0, # of connection points: 2
#     Edge 33, Type (0, 0), BuildingBlock: XIVTED_clean_linker_0, # of connection points: 2
#     Edge 34, Type (0, 0), BuildingBlock: XIVTED_clean_linker_0, # of connection points: 2
#     Edge 35, Type (0, 0), BuildingBlock: XIVTED_clean_linker_0, # of connection points: 2
#     Edge 36, Type (0, 0), BuildingBlock: XIVTED_clean_linker_0, # of connection points: 2
#     Edge 37, Type (0, 0), BuildingBlock: XIVTED_clean_linker_0, # of connection points: 2
#     Edge 38, Type (0, 0), BuildingBlock: XIVTED_clean_linker_0, # of connection points: 2
#     Edge 39, Type (0, 0), BuildingBlock: XIVTED_clean_linker_0, # of connection points: 2
#     Edge 40, Type (0, 0), BuildingBlock: XIVTED_clean_linker_0, # of connection points: 2
#     Edge 41, Type (0, 0), BuildingBlock: XIVTED_clean_linker_0, # of connection points: 2
#     Edge 42, Type (0, 0), BuildingBlock: XIVTED_clean_linker_0, # of connection points: 2
#     Edge 43, Type (0, 0), BuildingBlock: XIVTED_clean_linker_0, # of connection points: 2
#     Edge 44, Type (0, 0), BuildingBlock: XIVTED_clean_linker_0, # of connection points: 2
#     Edge 45, Type (0, 0), BuildingBlock: XIVTED_clean_linker_0, # of connection points: 2
#     Edge 46, Type (0, 0), BuildingBlock: XIVTED_clean_linker_0, # of connection points: 2
#     Edge 47, Type (0, 0), BuildingBlock: XIVTED_clean_linker_0, # of connection points: 2
#     Edge 48, Type (0, 0), BuildingBlock: XIVTED_clean_linker_0, # of connection points: 2
#     Edge 49, Type (0, 0), BuildingBlock: XIVTED_clean_linker_0, # of connection points: 2
#     Edge 50, Type (0, 0), BuildingBlock: XIVTED_clean_linker_0, # of connection points: 2
#     Edge 51, Type (0, 0), BuildingBlock: XIVTED_clean_linker_0, # of connection points: 2
#     Edge 52, Type (0, 0), BuildingBlock: XIVTED_clean_linker_0, # of connection points: 2
#     Edge 53, Type (0, 0), BuildingBlock: XIVTED_clean_linker_0, # of connection points: 2
# Relax obj value: 0.114
# Max RMSD: 0.094
# Mean RMSD: 0.094
data_MOF--net-unb--node1-CEKHIL_clean_sbu_0--edge1-XIVTED_clean_linker_0
_symmetry_space_group_name_H-M    P1
_symmetry_Int_Tables_number       1
_symmetry_cell_setting            triclinic
loop_
_symmetry_equiv_pos_as_xyz
'x, y, z'
_cell_length_a     62.100255
_cell_length_b     62.148024
_cell_length_c     25.647879
_cell_angle_alpha  90.020097
_cell_angle_beta   89.947732
_cell_angle_gamma 120.03805
loop_
_atom_site_label
_atom_site_type_symbol
_atom_site_fract_x
_atom_site_fract_y
_atom_site_fract_z
_atom_type_partial_charge
Co0 Co 0.15256 0.28061 0.09017 0.0
O1 O 0.1213 0.28057 0.0947 0.0
O2 O 0.12539 0.24932 0.06568 0.0
C3 C 0.1674 0.29839 0.16944 0.0
O4 O 0.18047 0.2725 0.07821 0.0
Co5 Co 0.20456 0.32857 0.09377 0.0
O6 O 0.21847 0.30625 0.08425 0.0
C7 C 0.16962 0.31872 0.00714 0.0
C8 C 0.11094 0.25848 0.07407 0.0
C9 C 0.20439 0.28307 0.07598 0.0
O10 O 0.15759 0.29546 0.01868 0.0
O11 O 0.18687 0.33509 0.03596 0.0
O12 O 0.15204 0.2745 0.16619 0.0
O13 O 0.17219 0.3102 0.12612 0.0
Co14 Co 0.76143 0.88134 0.08977 0.0
O15 O 0.7618 0.8503 0.09403 0.0
O16 O 0.7929 0.88587 0.06537 0.0
C17 C 0.74345 0.87809 0.16897 0.0
O18 O 0.76921 0.91724 0.07808 0.0
Co19 Co 0.71312 0.88473 0.09332 0.0
O20 O 0.7352 0.92103 0.08402 0.0
C21 C 0.72345 0.86005 0.00652 0.0
C22 C 0.78393 0.86228 0.07353 0.0
C23 C 0.75844 0.93038 0.07588 0.0
O24 O 0.74671 0.8715 0.01817 0.0
O25 O 0.70692 0.86066 0.03535 0.0
O26 O 0.76739 0.88686 0.16582 0.0
O27 O 0.73171 0.87101 0.1256 0.0
Co28 Co 0.15948 0.8886 0.09067 0.0
O29 O 0.19068 0.9199 0.09516 0.0
O30 O 0.15526 0.9157 0.06627 0.0
C31 C 0.16248 0.87374 0.16988 0.0
O32 O 0.12348 0.86063 0.07873 0.0
Co33 Co 0.1557 0.83676 0.09408 0.0
O34 O 0.11943 0.82273 0.08451 0.0
C35 C 0.18066 0.87175 0.0074 0.0
C36 C 0.17889 0.93019 0.07458 0.0
C37 C 0.11022 0.83672 0.07636 0.0
O38 O 0.16936 0.88369 0.01909 0.0
O39 O 0.17989 0.85454 0.03617 0.0
O40 O 0.15387 0.88903 0.16672 0.0
O41 O 0.16955 0.86905 0.12651 0.0
Co42 Co 0.28756 0.14479 0.9075 0.0
O43 O 0.28692 0.11326 0.90304 0.0
O44 O 0.25604 0.11801 0.93211 0.0
C45 C 0.30544 0.15946 0.82819 0.0
O46 O 0.28009 0.17311 0.91943 0.0
Co47 Co 0.33617 0.19628 0.90376 0.0
O48 O 0.31431 0.21076 0.91304 0.0
C49 C 0.32573 0.16113 0.99018 0.0
C50 C 0.26484 0.10325 0.92376 0.0
C51 C 0.29106 0.19704 0.92142 0.0
O52 O 0.30241 0.1496 0.97894 0.0
O53 O 0.3423 0.17812 0.96118 0.0
O54 O 0.28148 0.1444 0.8315 0.0
O55 O 0.31724 0.16401 0.87145 0.0
Co56 Co 0.89593 0.15223 0.9087 0.0
O57 O 0.92746 0.1832 0.90425 0.0
O58 O 0.9228 0.1476 0.93298 0.0
C59 C 0.88117 0.15543 0.82957 0.0
O60 O 0.86767 0.11638 0.92052 0.0
Co61 Co 0.84434 0.14911 0.90542 0.0
O62 O 0.82994 0.11277 0.91448 0.0
C63 C 0.8795 0.17379 0.99186 0.0
C64 C 0.93753 0.17118 0.92471 0.0
C65 C 0.84372 0.10332 0.92262 0.0
O66 O 0.89112 0.16214 0.98032 0.0
O67 O 0.86247 0.17334 0.96301 0.0
O68 O 0.89628 0.14661 0.83263 0.0
O69 O 0.87663 0.16262 0.87294 0.0
Co70 Co 0.8886 0.75223 0.90686 0.0
O71 O 0.85747 0.75245 0.90248 0.0
O72 O 0.89295 0.78359 0.93136 0.0
C73 C 0.8855 0.73437 0.82759 0.0
O74 O 0.92456 0.76013 0.91867 0.0
Co75 Co 0.89214 0.70403 0.90312 0.0
O76 O 0.92846 0.72622 0.91205 0.0
C77 C 0.86739 0.71418 0.9901 0.0
C78 C 0.86933 0.77454 0.92309 0.0
C79 C 0.93776 0.74941 0.92052 0.0
O80 O 0.87872 0.73743 0.97842 0.0
O81 O 0.86808 0.69772 0.96125 0.0
O82 O 0.8942 0.75828 0.83079 0.0
O83 O 0.8784 0.72261 0.87094 0.0
Co84 Co 0.81951 0.61238 0.42323 0.0
O85 O 0.78818 0.61226 0.42722 0.0
O86 O 0.79245 0.58105 0.39876 0.0
C87 C 0.83418 0.6303 0.50248 0.0
O88 O 0.84746 0.6043 0.41179 0.0
Co89 Co 0.87149 0.66034 0.42699 0.0
O90 O 0.88546 0.63806 0.41779 0.0
C91 C 0.83668 0.6504 0.34002 0.0
C92 C 0.77793 0.59015 0.40674 0.0
C93 C 0.87139 0.61486 0.40965 0.0
O94 O 0.82465 0.62714 0.35162 0.0
O95 O 0.85388 0.6668 0.36892 0.0
O96 O 0.81885 0.6064 0.49932 0.0
O97 O 0.83904 0.64204 0.45907 0.0
Co98 Co 0.42649 0.21452 0.42254 0.0
O99 O 0.4265 0.18332 0.42703 0.0
O100 O 0.45771 0.21859 0.3975 0.0
C101 C 0.40894 0.2117 0.5021 0.0
O102 O 0.43454 0.25051 0.41058 0.0
Co103 Co 0.37837 0.21827 0.42694 0.0
O104 O 0.4007 0.25454 0.41784 0.0
C105 C 0.38803 0.19301 0.34037 0.0
C106 C 0.44853 0.19499 0.40602 0.0
C107 C 0.42387 0.26377 0.40902 0.0
O108 O 0.41138 0.20454 0.3513 0.0
O109 O 0.3717 0.19379 0.36956 0.0
O110 O 0.43283 0.22023 0.4985 0.0
O111 O 0.39701 0.20457 0.45896 0.0
Co112 Co 0.82439 0.21966 0.4244 0.0
O113 O 0.85569 0.25086 0.42866 0.0
O114 O 0.82041 0.24682 0.39937 0.0
C115 C 0.82724 0.20501 0.50395 0.0
O116 O 0.7883 0.19181 0.41262 0.0
Co117 Co 0.82018 0.16765 0.42883 0.0
O118 O 0.78394 0.15381 0.41923 0.0
C119 C 0.84569 0.20249 0.34225 0.0
C120 C 0.84404 0.26122 0.40775 0.0
C121 C 0.77489 0.1679 0.41068 0.0
O122 O 0.83427 0.2144 0.35312 0.0
O123 O 0.84476 0.18534 0.37147 0.0
O124 O 0.81878 0.22041 0.50037 0.0
O125 O 0.83424 0.20008 0.46077 0.0
Co126 Co 0.95394 0.476 0.24155 0.0
O127 O 0.9531 0.44437 0.23693 0.0
O128 O 0.92235 0.44929 0.26608 0.0
C129 C 0.97186 0.49072 0.16228 0.0
O130 O 0.94665 0.50443 0.25364 0.0
Co131 Co 1.00271 0.52736 0.23797 0.0
O132 O 0.98099 0.542 0.24735 0.0
C133 C 0.99207 0.49215 0.32437 0.0
C134 C 0.93102 0.43444 0.25762 0.0
C135 C 0.95772 0.52837 0.25571 0.0
O136 O 0.96876 0.48068 0.31302 0.0
O137 O 1.0087 0.50911 0.2954 0.0
O138 O 0.94788 0.47573 0.16555 0.0
O139 O 0.98364 0.49514 0.20554 0.0
Co140 Co 0.56308 0.48589 0.24067 0.0
O141 O 0.59442 0.51705 0.23594 0.0
O142 O 0.59024 0.4816 0.26436 0.0
C143 C 0.54793 0.48901 0.16192 0.0
O144 O 0.53511 0.4499 0.25271 0.0
Co145 Co 0.51118 0.48211 0.23845 0.0
O146 O 0.49716 0.44585 0.2477 0.0
C147 C 0.54666 0.50722 0.32424 0.0
C148 C 0.60475 0.50522 0.25614 0.0
C149 C 0.51118 0.43664 0.25537 0.0
O150 O 0.55841 0.49573 0.31248 0.0
O151 O 0.52939 0.50648 0.29573 0.0
O152 O 0.56323 0.4804 0.16446 0.0
O153 O 0.54341 0.49601 0.20556 0.0
Co154 Co 0.55336 0.08476 0.24178 0.0
O155 O 0.52255 0.08559 0.23672 0.0
O156 O 0.55826 0.11643 0.26548 0.0
C157 C 0.55016 0.06645 0.16301 0.0
O158 O 0.5891 0.09209 0.25417 0.0
Co159 Co 0.55598 0.03603 0.23962 0.0
O160 O 0.59235 0.05777 0.24898 0.0
C161 C 0.53106 0.04694 0.32495 0.0
C162 C 0.53472 0.10774 0.25698 0.0
C163 C 0.60198 0.08105 0.25679 0.0
O164 O 0.5431 0.07022 0.31349 0.0
O165 O 0.53142 0.03024 0.29634 0.0
O166 O 0.55918 0.09043 0.16563 0.0
O167 O 0.5428 0.05491 0.20654 0.0
Co168 Co 0.48579 0.94637 0.75633 0.0
O169 O 0.45437 0.94603 0.76107 0.0
O170 O 0.45877 0.91495 0.73217 0.0
C171 C 0.50079 0.96438 0.83537 0.0
O172 O 0.51383 0.93847 0.74411 0.0
Co173 Co 0.53767 0.9945 0.75923 0.0
O174 O 0.55176 0.97236 0.74933 0.0
C175 C 0.50211 0.98451 0.67386 0.0
C176 C 0.44416 0.92392 0.74059 0.0
C177 C 0.53775 0.94914 0.74144 0.0
O178 O 0.49055 0.96117 0.68482 0.0
O179 O 0.5193 1.00092 0.70272 0.0
O180 O 0.48552 0.94046 0.83242 0.0
O181 O 0.50538 0.97606 0.79194 0.0
Co182 Co 0.09291 0.54762 0.75653 0.0
O183 O 0.09317 0.51654 0.76096 0.0
O184 O 0.1242 0.55193 0.73143 0.0
C185 C 0.07534 0.54466 0.83614 0.0
O186 O 0.10076 0.58354 0.74456 0.0
Co187 Co 0.0447 0.55118 0.76108 0.0
O188 O 0.06686 0.58746 0.75172 0.0
C189 C 0.05439 0.52593 0.67453 0.0
C190 C 0.1152 0.52836 0.73996 0.0
C191 C 0.09004 0.59674 0.7429 0.0
O192 O 0.07776 0.53755 0.68532 0.0
O193 O 0.03806 0.52668 0.70377 0.0
O194 O 0.09926 0.55334 0.83247 0.0
O195 O 0.0634 0.5375 0.79302 0.0
Co196 Co 0.49281 0.55494 0.75651 0.0
O197 O 0.52395 0.58633 0.76104 0.0
O198 O 0.48837 0.58198 0.73288 0.0
C199 C 0.49604 0.53985 0.83526 0.0
O200 O 0.45681 0.52694 0.74463 0.0
Co201 Co 0.48901 0.50308 0.75882 0.0
O202 O 0.45273 0.48902 0.74947 0.0
C203 C 0.51416 0.53856 0.67296 0.0
C204 C 0.51199 0.59656 0.74097 0.0
C205 C 0.44352 0.50304 0.74188 0.0
O206 O 0.50264 0.55029 0.68468 0.0
O207 O 0.5134 0.52129 0.70149 0.0
O208 O 0.48736 0.5551 0.83273 0.0
O209 O 0.50301 0.53532 0.79159 0.0
Co210 Co 0.62172 0.81123 0.57385 0.0
O211 O 0.62151 0.77991 0.56951 0.0
O212 O 0.59037 0.7842 0.59867 0.0
C213 C 0.63947 0.82591 0.49444 0.0
O214 O 0.61385 0.83931 0.58565 0.0
Co215 Co 0.67 0.863 0.56971 0.0
O216 O 0.64781 0.87711 0.57849 0.0
C217 C 0.65993 0.82818 0.65672 0.0
C218 C 0.59945 0.76967 0.59034 0.0
C219 C 0.62462 0.86324 0.5872 0.0
O220 O 0.63664 0.81627 0.64526 0.0
O221 O 0.67638 0.84531 0.62774 0.0
O222 O 0.61555 0.81065 0.49784 0.0
O223 O 0.6513 0.83065 0.53768 0.0
Co224 Co 0.22929 0.81872 0.57416 0.0
O225 O 0.26058 0.84994 0.56979 0.0
O226 O 0.25642 0.81455 0.59859 0.0
C227 C 0.21447 0.82176 0.49494 0.0
O228 O 0.20133 0.78271 0.58596 0.0
Co229 Co 0.17735 0.81482 0.57067 0.0
O230 O 0.16338 0.77857 0.58005 0.0
C231 C 0.21228 0.83975 0.65741 0.0
C232 C 0.2709 0.83817 0.59037 0.0
C233 C 0.1774 0.7694 0.58821 0.0
O234 O 0.22427 0.82849 0.64574 0.0
O235 O 0.19507 0.83896 0.62862 0.0
O236 O 0.22981 0.81321 0.49809 0.0
O237 O 0.20971 0.82876 0.53832 0.0
Co238 Co 0.22187 0.42022 0.5739 0.0
O239 O 0.19091 0.42077 0.56949 0.0
O240 O 0.22653 0.45171 0.59832 0.0
C241 C 0.21865 0.40229 0.49468 0.0
O242 O 0.25772 0.42777 0.58574 0.0
Co243 Co 0.22485 0.3717 0.57029 0.0
O244 O 0.26122 0.39362 0.57909 0.0
C245 C 0.20035 0.38222 0.65721 0.0
C246 C 0.20295 0.44285 0.59004 0.0
C247 C 0.27074 0.41684 0.58754 0.0
O248 O 0.21188 0.40547 0.64548 0.0
O249 O 0.20085 0.36565 0.6284 0.0
O250 O 0.22753 0.42623 0.49785 0.0
O251 O 0.21143 0.39054 0.53802 0.0
H252 H 0.22776 0.41923 0.39248 0.0
H253 H 0.15847 0.28146 0.27161 0.0
H254 H 0.20029 0.35262 0.48519 0.0
H255 H 0.19947 0.34792 0.17919 0.0
H256 H 0.17332 0.30716 0.35084 0.0
H257 H 0.21727 0.3935 0.31333 0.0
C258 C 0.21979 0.39931 0.39622 0.0
C259 C 0.21488 0.38814 0.44557 0.0
C260 C 0.17919 0.31604 0.31311 0.0
C261 C 0.20254 0.35854 0.35552 0.0
C262 C 0.17075 0.30133 0.26796 0.0
C263 C 0.17764 0.31248 0.21866 0.0
C264 C 0.19443 0.34206 0.3088 0.0
C265 C 0.19355 0.33843 0.21629 0.0
C266 C 0.21374 0.38459 0.35112 0.0
C267 C 0.20438 0.36214 0.44806 0.0
N268 N 0.20121 0.35228 0.2605 0.0
N269 N 0.19843 0.34828 0.40388 0.0
H270 H 0.62247 0.81727 0.39229 0.0
H271 H 0.76035 0.88679 0.27114 0.0
H272 H 0.68904 0.85786 0.48459 0.0
H273 H 0.69374 0.8598 0.17857 0.0
H274 H 0.73457 0.87604 0.35033 0.0
H275 H 0.64818 0.83233 0.31299 0.0
C276 C 0.64237 0.8295 0.3959 0.0
C277 C 0.65354 0.83622 0.44518 0.0
C278 C 0.72567 0.87267 0.31257 0.0
C279 C 0.68312 0.85326 0.35498 0.0
C280 C 0.74042 0.87887 0.26744 0.0
C281 C 0.72926 0.87418 0.21812 0.0
C282 C 0.6996 0.86152 0.30822 0.0
C283 C 0.70325 0.86373 0.21569 0.0
C284 C 0.65707 0.83806 0.35072 0.0
C285 C 0.67952 0.85207 0.44751 0.0
N286 N 0.68936 0.85762 0.25989 0.0
N287 N 0.69336 0.85986 0.40327 0.0
H288 H 0.22299 0.81339 0.39269 0.0
H289 H 0.15401 0.88218 0.27212 0.0
H290 H 0.1827 0.83958 0.48541 0.0
H291 H 0.18037 0.84205 0.1794 0.0
H292 H 0.16473 0.86715 0.35126 0.0
H293 H 0.20796 0.82409 0.31355 0.0
C294 C 0.21084 0.82112 0.39643 0.0
C295 C 0.20418 0.82561 0.44579 0.0
C296 C 0.16796 0.86151 0.31348 0.0
C297 C 0.18718 0.83822 0.35575 0.0
C298 C 0.16178 0.87006 0.26838 0.0
C299 C 0.16631 0.86345 0.21903 0.0
C300 C 0.17894 0.84646 0.30906 0.0
C301 C 0.17657 0.84774 0.21654 0.0
C302 C 0.20229 0.8273 0.35134 0.0
C303 C 0.18843 0.83582 0.44827 0.0
N304 N 0.18267 0.83998 0.2607 0.0
N305 N 0.18066 0.84192 0.40411 0.0
H306 H 0.42608 0.21973 0.60411 0.0
H307 H 0.28838 0.15166 0.72613 0.0
H308 H 0.35946 0.19447 0.51237 0.0
H309 H 0.35518 0.19065 0.81839 0.0
H310 H 0.31405 0.16685 0.64681 0.0
H311 H 0.40049 0.20899 0.68361 0.0
C312 C 0.4062 0.21221 0.60067 0.0
C313 C 0.39497 0.20797 0.55148 0.0
C314 C 0.32301 0.1722 0.68454 0.0
C315 C 0.36552 0.19531 0.6419 0.0
C316 C 0.30832 0.16356 0.72974 0.0
C317 C 0.31957 0.16981 0.779 0.0
C318 C 0.3491 0.18699 0.68876 0.0
C319 C 0.3456 0.18524 0.78132 0.0
C320 C 0.39156 0.206 0.64596 0.0
C321 C 0.36902 0.19802 0.54938 0.0
N322 N 0.35943 0.19311 0.73705 0.0
N323 N 0.35523 0.19189 0.59371 0.0
H324 H 0.81993 0.21479 0.606 0.0
H325 H 0.88841 0.14568 0.72743 0.0
H326 H 0.84423 0.17262 0.5143 0.0
H327 H 0.85017 0.17417 0.82019 0.0
H328 H 0.8728 0.15576 0.64832 0.0
H329 H 0.83114 0.20043 0.68544 0.0
C330 C 0.82733 0.20235 0.60256 0.0
C331 C 0.83117 0.19499 0.55339 0.0
C332 C 0.86771 0.15961 0.68612 0.0
C333 C 0.84438 0.17877 0.64375 0.0
C334 C 0.8766 0.1538 0.7312 0.0
C335 C 0.87067 0.15909 0.78053 0.0
C336 C 0.853 0.17097 0.69052 0.0
C337 C 0.85533 0.16977 0.78305 0.0
C338 C 0.83381 0.19419 0.64783 0.0
C339 C 0.84098 0.1789 0.55129 0.0
N340 N 0.84722 0.17549 0.73889 0.0
N341 N 0.8474 0.17152 0.59559 0.0
H342 H 0.89421 0.75127 0.72534 0.0
H343 H 0.82542 0.61344 0.60472 0.0
H344 H 0.8675 0.68476 0.81808 0.0
H345 H 0.86593 0.67991 0.51207 0.0
H346 H 0.84027 0.63921 0.68387 0.0
H347 H 0.88365 0.72552 0.6462 0.0
C348 C 0.8864 0.73138 0.72909 0.0
C349 C 0.88172 0.72023 0.77844 0.0
C350 C 0.84603 0.64808 0.64611 0.0
C351 C 0.86928 0.6906 0.68841 0.0
C352 C 0.83759 0.63333 0.60101 0.0
C353 C 0.84435 0.64445 0.55167 0.0
C354 C 0.86114 0.67411 0.64171 0.0
C355 C 0.86011 0.67042 0.54921 0.0
C356 C 0.8803 0.71664 0.68399 0.0
C357 C 0.87141 0.69426 0.78093 0.0
N358 N 0.86778 0.68431 0.59338 0.0
N359 N 0.8654 0.68039 0.73678 0.0
H360 H 0.95478 0.48348 0.06024 0.0
H361 H 0.09249 0.55229 0.93812 0.0
H362 H 1.02162 0.52177 0.1526 0.0
H363 H 0.02584 0.52732 0.84663 0.0
H364 H 0.06691 0.5411 0.01766 0.0
H365 H 0.98043 0.49909 0.98098 0.0
C366 C 0.97473 0.49531 0.06389 0.0
C367 C 0.98599 0.50124 0.11316 0.0
C368 C 0.05796 0.53828 0.98007 0.0
C369 C 1.0155 0.51892 0.02296 0.0
C370 C 0.0726 0.54475 0.93475 0.0
C371 C 0.06136 0.54072 0.88561 0.0
C372 C 0.03192 0.52753 0.97609 0.0
C373 C 0.0354 0.53072 0.8836 0.0
C374 C 0.98941 0.50419 0.01872 0.0
C375 C 1.01203 0.5166 0.11552 0.0
N376 N 1.02161 0.52433 0.92796 0.0
N377 N 0.02584 0.52472 0.07127 0.0
H378 H 0.51565 0.50628 0.15411 0.0
H379 H 0.5134 0.50765 0.84314 0.0
H380 H 0.55606 0.48109 0.05891 0.0
H381 H 0.48835 0.54819 0.93826 0.0
H382 H 0.5241 0.49307 0.92148 0.0
H383 H 0.50082 0.51671 0.0758 0.0
C384 C 0.52129 0.5027 0.11664 0.0
C385 C 0.53728 0.49281 0.11325 0.0
C386 C 0.51617 0.50504 0.92539 0.0
C387 C 0.52016 0.50492 0.0228 0.0
C388 C 0.50991 0.51338 0.8806 0.0
C389 C 0.49998 0.52933 0.88396 0.0
C390 C 0.51241 0.51251 0.97442 0.0
C391 C 0.49592 0.53594 0.93374 0.0
C392 C 0.51281 0.50881 0.07186 0.0
C393 C 0.54379 0.48863 0.06345 0.0
N394 N 0.50222 0.52755 0.97706 0.0
N395 N 0.53525 0.49478 0.02014 0.0
H396 H 0.53203 0.01676 0.15503 0.0
H397 H 0.53357 1.01379 0.84406 0.0
H398 H 0.5593 0.08269 0.06016 0.0
H399 H 0.49161 0.94809 0.93814 0.0
H400 H 0.5478 0.03888 0.92275 0.0
H401 H 0.52204 0.99162 0.07658 0.0
C402 C 0.53615 0.02607 0.11761 0.0
C403 C 0.5465 0.05202 0.11435 0.0
C404 C 0.5356 0.01899 0.92637 0.0
C405 C 0.5349 0.02293 0.02373 0.0
C406 C 0.52747 1.00451 0.88137 0.0
C407 C 0.5112 0.97866 0.88432 0.0
C408 C 0.52761 1.00768 0.9752 0.0
C409 C 0.50411 0.96788 0.93393 0.0
C410 C 0.5303 1.01156 0.07275 0.0
C411 C 0.55138 0.06282 0.06461 0.0
N412 N 0.5123 0.98247 0.97745 0.0
N413 N 0.54547 0.04821 0.02122 0.0
H414 H 0.14372 0.2908 0.92225 0.0
H415 H 0.20379 0.41045 0.74262 0.0
H416 H 0.18384 0.36628 0.97935 0.0
H417 H 0.16622 0.33495 0.68535 0.0
H418 H 0.18701 0.39478 0.82944 0.0
H419 H 0.14215 0.30669 0.83601 0.0
C420 C 0.15187 0.31066 0.91685 0.0
C421 C 0.16467 0.32729 0.95745 0.0
C422 C 0.18213 0.38169 0.79763 0.0
C423 C 0.16303 0.34556 0.85933 0.0
C424 C 0.19171 0.39064 0.74811 0.0
C425 C 0.18709 0.37391 0.70726 0.0
C426 C 0.16797 0.35589 0.80606 0.0
C427 C 0.17094 0.34847 0.71624 0.0
C428 C 0.15096 0.31974 0.86768 0.0
C429 C 0.17448 0.35282 0.94864 0.0
N430 N 0.16232 0.34019 0.76489 0.0
N431 N 0.17383 0.3612 0.9003 0.0
H432 H 0.6319 0.80271 0.74189 0.0
H433 H 0.75163 0.863 0.9213 0.0
H434 H 0.70745 0.84214 0.68456 0.0
H435 H 0.67605 0.82614 0.97862 0.0
H436 H 0.7359 0.84587 0.83476 0.0
H437 H 0.64773 0.80141 0.82835 0.0
C438 C 0.65176 0.81075 0.74729 0.0
C439 C 0.66844 0.82331 0.70655 0.0
C440 C 0.7228 0.84123 0.86653 0.0
C441 C 0.68664 0.82198 0.80493 0.0
C442 C 0.73179 0.85101 0.91588 0.0
C443 C 0.71506 0.84668 0.95665 0.0
C444 C 0.69698 0.82716 0.85818 0.0
C445 C 0.68957 0.83064 0.94779 0.0
C446 C 0.66081 0.81 0.7966 0.0
C447 C 0.69396 0.83299 0.71538 0.0
N448 N 0.68127 0.82181 0.89929 0.0
N449 N 0.70232 0.8325 0.76384 0.0
H450 H 0.17795 0.89708 0.92224 0.0
H451 H 0.23777 0.83722 0.74248 0.0
H452 H 0.21435 0.85799 0.97935 0.0
H453 H 0.19838 0.87331 0.68541 0.0
H454 H 0.23914 0.85439 0.82896 0.0
H455 H 0.19501 0.89834 0.83564 0.0
C456 C 0.18982 0.88911 0.91676 0.0
C457 C 0.19404 0.87666 0.95749 0.0
C458 C 0.23054 0.85886 0.79726 0.0
C459 C 0.21348 0.87794 0.85895 0.0
C460 C 0.22975 0.84904 0.74794 0.0
C461 C 0.21719 0.85315 0.70726 0.0
C462 C 0.2186 0.87273 0.80567 0.0
C463 C 0.20754 0.86899 0.71617 0.0
C464 C 0.19957 0.88984 0.86737 0.0
C465 C 0.20994 0.86707 0.94855 0.0
N466 N 0.20807 0.87786 0.76464 0.0
N467 N 0.21873 0.86753 0.90002 0.0
H468 H 0.34077 0.15743 0.31572 0.0
H469 H 0.37257 0.17165 0.01526 0.0
H470 H 0.41529 0.19697 0.25293 0.0
H471 H 0.29815 0.13878 0.07783 0.0
H472 H 0.38803 0.17037 0.10164 0.0
H473 H 0.32505 0.14015 0.22981 0.0
C474 C 0.35389 0.16229 0.28389 0.0
C475 C 0.37929 0.17931 0.29097 0.0
C476 C 0.36827 0.16309 0.09641 0.0
C477 C 0.36135 0.15962 0.19261 0.0
C478 C 0.35942 0.16389 0.04715 0.0
C479 C 0.33414 0.15605 0.03985 0.0
C480 C 0.35178 0.15465 0.13874 0.0
C481 C 0.31785 0.14548 0.08206 0.0
C482 C 0.34488 0.15231 0.2349 0.0
C483 C 0.3955 0.18431 0.24887 0.0
N484 N 0.32704 0.14556 0.13009 0.0
N485 N 0.38617 0.17488 0.20107 0.0
H486 H 0.86916 0.21015 0.01742 0.0
H487 H 0.881 0.19041 0.31778 0.0
H488 H 0.90127 0.16796 0.07968 0.0
H489 H 0.84242 0.22627 0.25503 0.0
H490 H 0.89877 0.19234 0.23219 0.0
H491 H 0.86989 0.22632 0.10419 0.0
C492 C 0.87664 0.2045 0.04934 0.0
C493 C 0.88442 0.18706 0.0418 0.0
C494 C 0.88671 0.20011 0.23723 0.0
C495 C 0.88517 0.20541 0.14113 0.0
C496 C 0.87644 0.19892 0.28602 0.0
C497 C 0.85956 0.20748 0.29301 0.0
C498 C 0.87983 0.20966 0.195 0.0
C499 C 0.85495 0.21901 0.25102 0.0
C500 C 0.87713 0.21383 0.09882 0.0
C501 C 0.89465 0.181 0.08407 0.0
N502 N 0.86466 0.21932 0.2034 0.0
N503 N 0.89425 0.18979 0.13231 0.0
H504 H 0.87056 0.74225 0.0756 0.0
H505 H 0.81102 0.62245 0.25497 0.0
H506 H 0.83357 0.66679 0.01814 0.0
H507 H 0.85076 0.69792 0.31225 0.0
H508 H 0.80947 0.63834 0.16871 0.0
H509 H 0.85382 0.72644 0.16238 0.0
C510 C 0.85862 0.72242 0.08105 0.0
C511 C 0.85414 0.70575 0.04014 0.0
C512 C 0.81819 0.65138 0.20041 0.0
C513 C 0.83507 0.68757 0.13888 0.0
C514 C 0.81909 0.64231 0.2496 0.0
C515 C 0.83178 0.65894 0.29027 0.0
C516 C 0.83015 0.6772 0.19212 0.0
C517 C 0.84149 0.68446 0.28149 0.0
C518 C 0.84905 0.71338 0.13054 0.0
C519 C 0.83817 0.68026 0.04905 0.0
N520 N 0.84085 0.69284 0.23314 0.0
N521 N 0.82956 0.67192 0.09768 0.0
H522 H 0.03879 0.50241 0.34974 0.0
H523 H 1.00709 0.49032 0.65022 0.0
H524 H 0.96442 0.47035 0.41225 0.0
H525 H 0.08158 0.52947 0.58721 0.0
H526 H 0.99133 0.47253 0.56467 0.0
H527 H 0.05423 0.50165 0.43647 0.0
C528 C 0.02564 0.49492 0.3817 0.0
C529 C 1.0004 0.48718 0.37425 0.0
C530 C 1.01116 0.48472 0.56964 0.0
C531 C 1.01801 0.4864 0.47352 0.0
C532 C 1.02019 0.495 0.61842 0.0
C533 C 0.04561 0.51205 0.62532 0.0
C534 C 0.02762 0.49175 0.52736 0.0
C535 C 0.06179 0.5168 0.58328 0.0
C536 C 0.03449 0.49442 0.43116 0.0
C537 C 0.9841 0.47696 0.41657 0.0
N538 N 0.05244 0.50708 0.53567 0.0
N539 N 0.99329 0.47734 0.46478 0.0
H540 H 0.51157 0.56398 0.5878 0.0
H541 H 0.57182 0.50433 0.40954 0.0
H542 H 0.54847 0.52554 0.64576 0.0
H543 H 0.53372 0.54156 0.35151 0.0
H544 H 0.57324 0.52162 0.49592 0.0
H545 H 0.52919 0.5657 0.50159 0.0
C546 C 0.52367 0.55626 0.5826 0.0
C547 C 0.52785 0.54382 0.6234 0.0
C548 C 0.56493 0.52632 0.46403 0.0
C549 C 0.54793 0.54561 0.52533 0.0
C550 C 0.56412 0.51644 0.41477 0.0
C551 C 0.55185 0.5208 0.37388 0.0
C552 C 0.55328 0.54049 0.47216 0.0
C553 C 0.54261 0.53702 0.38247 0.0
C554 C 0.53374 0.55725 0.53344 0.0
C555 C 0.54406 0.53456 0.61486 0.0
N556 N 0.54311 0.54591 0.4309 0.0
N557 N 0.55315 0.53525 0.56653 0.0
H558 H 0.51296 0.03156 0.65024 0.0
H559 H 0.49395 1.00043 0.34967 0.0
H560 H 0.47854 0.95733 0.58654 0.0
H561 H 0.53679 0.07453 0.41281 0.0
H562 H 0.47731 0.98492 0.43617 0.0
H563 H 0.51072 0.04738 0.5649 0.0
C564 C 0.50468 0.01853 0.61834 0.0
C565 C 0.49667 0.99319 0.62494 0.0
C566 C 0.49004 1.00463 0.43103 0.0
C567 C 0.49413 1.01124 0.52725 0.0
C568 C 0.49963 1.01351 0.38171 0.0
C569 C 0.51742 0.03868 0.37454 0.0
C570 C 0.49851 0.02098 0.47352 0.0
C571 C 0.5235 0.0549 0.41693 0.0
C572 C 0.50332 0.02759 0.56969 0.0
C573 C 0.4854 0.97707 0.58281 0.0
N574 N 0.51444 0.04566 0.46501 0.0
N575 N 0.48492 0.98646 0.53531 0.0
H576 H 0.18191 0.2333 0.04866 0.0
H577 H 0.30824 0.24685 0.93391 0.0
H578 H 0.25393 0.29974 0.05964 0.0
H579 H 0.24166 0.17537 0.9517 0.0
H580 H 0.28676 0.26657 0.97293 0.0
H581 H 0.20187 0.21166 0.00911 0.0
C582 C 0.2019 0.2433 0.04336 0.0
C583 C 0.21617 0.2685 0.05765 0.0
C584 C 0.27676 0.24656 0.96824 0.0
C585 C 0.23906 0.24387 0.01139 0.0
C586 C 0.289 0.23522 0.94553 0.0
C587 C 0.27688 0.20927 0.93945 0.0
C588 C 0.25202 0.23203 0.9851 0.0
C589 C 0.25185 0.1954 0.95548 0.0
C590 C 0.21326 0.23093 0.02053 0.0
C591 C 0.24202 0.28039 0.04942 0.0
N592 N 0.24028 0.20693 0.97764 0.0
N593 N 0.2525 0.26807 0.02665 0.0
H594 H 0.79391 0.07047 0.93529 0.0
H595 H 0.80826 0.95812 0.04888 0.0
H596 H 0.86559 0.07579 0.95235 0.0
H597 H 0.74137 0.96288 0.05966 0.0
H598 H 0.8297 0.9998 0.00965 0.0
H599 H 0.77434 0.02922 0.97401 0.0
C600 C 0.80561 0.06294 0.94668 0.0
C601 C 0.83157 0.0769 0.94048 0.0
C602 C 0.81037 0.99172 0.02096 0.0
C603 C 0.809 0.02922 0.98579 0.0
C604 C 0.79811 0.96794 0.04361 0.0
C605 C 0.77285 0.95676 0.05775 0.0
C606 C 0.79726 1.00437 0.01186 0.0
C607 C 0.76078 0.97052 0.04956 0.0
C608 C 0.79436 0.03932 0.96922 0.0
C609 C 0.84554 0.06584 0.95623 0.0
N610 N 0.77299 0.99337 0.02697 0.0
N611 N 0.83411 0.04271 0.97823 0.0
H612 H 0.97085 0.73277 0.93231 0.0
H613 H 0.08273 0.85899 0.04912 0.0
H614 H 0.965 0.79868 0.95166 0.0
H615 H 0.07757 0.78721 0.05964 0.0
H616 H 0.04117 0.83891 0.00921 0.0
H617 H 1.01196 0.75441 0.97166 0.0
C618 C 0.97824 0.7519 0.94433 0.0
C619 C 0.96417 0.76377 0.93861 0.0
C620 C 0.04914 0.8276 0.02062 0.0
C621 C 1.0117 0.78883 0.98465 0.0
C622 C 0.07285 0.83903 0.04366 0.0
C623 C 0.08388 0.82486 0.05791 0.0
C624 C 0.03643 0.80185 0.01122 0.0
C625 C 0.07005 0.79904 0.04946 0.0
C626 C 1.00178 0.76424 0.96724 0.0
C627 C 0.97505 0.78868 0.95515 0.0
N628 N 0.04729 0.78851 0.02648 0.0
N629 N 0.99812 0.80036 0.9775 0.0
H630 H 0.81906 0.75613 0.93363 0.0
H631 H 0.83254 0.88316 0.04264 0.0
H632 H 0.88989 0.8228 0.95609 0.0
H633 H 0.76558 0.81216 0.06057 0.0
H634 H 0.85321 0.8621 0.00464 0.0
H635 H 0.79834 0.77719 0.97202 0.0
C636 C 0.83025 0.77528 0.94605 0.0
C637 C 0.85628 0.78772 0.94147 0.0
C638 C 0.83404 0.85109 0.01716 0.0
C639 C 0.83266 0.81191 0.98581 0.0
C640 C 0.82223 0.8631 0.039 0.0
C641 C 0.79729 0.84942 0.0551 0.0
C642 C 0.82078 0.82516 0.01053 0.0
C643 C 0.78486 0.82346 0.04911 0.0
C644 C 0.81841 0.78723 0.96837 0.0
C645 C 0.8698 0.81247 0.95877 0.0
N646 N 0.79666 0.8122 0.02698 0.0
N647 N 0.85785 0.82373 0.98001 0.0
H648 H 0.22918 0.96188 0.06377 0.0
H649 H 0.21627 0.07577 0.9551 0.0
H650 H 0.1585 0.95807 0.04181 0.0
H651 H 0.28292 0.07126 0.93637 0.0
H652 H 0.19546 0.03405 0.99322 0.0
H653 H 0.25002 1.00363 0.02528 0.0
C654 C 0.21805 0.96992 0.05145 0.0
C655 C 0.19202 0.95642 0.05619 0.0
C656 C 0.21459 0.0421 0.98049 0.0
C657 C 0.21579 1.00421 0.01173 0.0
C658 C 0.22648 0.06593 0.95859 0.0
C659 C 0.25137 0.07704 0.94223 0.0
C660 C 0.22773 0.02932 0.98694 0.0
C661 C 0.26367 0.06338 0.94803 0.0
C662 C 0.22996 0.99368 0.02906 0.0
C663 C 0.17859 0.96775 0.039 0.0
N664 N 0.25181 0.04035 0.97023 0.0
N665 N 0.19059 0.99094 0.0177 0.0
H666 H 0.9651 0.15017 0.95548 0.0
H667 H 0.07929 0.2771 0.0636 0.0
H668 H 0.96955 0.22128 0.93737 0.0
H669 H 0.08296 0.21021 0.04129 0.0
H670 H 0.03745 0.25615 0.02545 0.0
H671 H 1.0069 0.17114 0.9932 0.0
C672 C 0.97494 0.17023 0.95902 0.0
C673 C 0.96379 0.18398 0.94296 0.0
C674 C 0.04738 0.24604 0.02908 0.0
C675 C 1.01162 0.20814 0.9872 0.0
C676 C 0.0712 0.25792 0.05127 0.0
C677 C 0.08468 0.24539 0.05581 0.0
C678 C 0.03679 0.22133 0.01176 0.0
C679 C 0.07329 0.22062 0.03863 0.0
C680 C 0.99882 0.1822 0.98069 0.0
C681 C 0.97746 0.20994 0.94881 0.0
N682 N 0.05006 0.20942 0.01752 0.0
N683 N 1.00055 0.22115 0.97078 0.0
H684 H 0.84887 0.56506 0.38267 0.0
H685 H 0.97513 0.5782 0.26851 0.0
H686 H 0.92092 0.63146 0.39345 0.0
H687 H 0.90832 0.50688 0.28579 0.0
H688 H 0.95377 0.59805 0.30748 0.0
H689 H 0.86878 0.54333 0.34336 0.0
C690 C 0.86885 0.57504 0.37738 0.0
C691 C 0.88315 0.60025 0.39154 0.0
C692 C 0.94369 0.57805 0.30268 0.0
C693 C 0.90599 0.57551 0.34556 0.0
C694 C 0.95587 0.56664 0.28 0.0
C695 C 0.94364 0.54069 0.27378 0.0
C696 C 0.91891 0.5636 0.31937 0.0
C697 C 0.91858 0.52691 0.28967 0.0
C698 C 0.88019 0.56261 0.35469 0.0
C699 C 0.909 0.6121 0.38334 0.0
N700 N 0.90708 0.5385 0.3118 0.0
N701 N 0.91946 0.59973 0.3607 0.0
H702 H 0.53351 0.40906 0.28152 0.0
H703 H 0.40734 0.29697 0.39837 0.0
H704 H 0.46167 0.40397 0.27242 0.0
H705 H 0.47311 0.29095 0.37715 0.0
H706 H 0.429 0.33817 0.35956 0.0
H707 H 0.51346 0.36738 0.3208 0.0
C708 C 0.51354 0.39917 0.28717 0.0
C709 C 0.49935 0.41026 0.2735 0.0
C710 C 0.43879 0.32793 0.36344 0.0
C711 C 0.47637 0.36267 0.31945 0.0
C712 C 0.42644 0.30433 0.38603 0.0
C713 C 0.43827 0.29019 0.39108 0.0
C714 C 0.46336 0.33785 0.34567 0.0
C715 C 0.46316 0.30106 0.37417 0.0
C716 C 0.50213 0.37539 0.30983 0.0
C717 C 0.47353 0.39642 0.28216 0.0
N718 N 0.47484 0.32419 0.35214 0.0
N719 N 0.46301 0.37358 0.30477 0.0
H720 H 0.63443 0.06374 0.27051 0.0
H721 H 0.74772 0.19038 0.38245 0.0
H722 H 0.62991 0.13056 0.28583 0.0
H723 H 0.74183 0.11836 0.39549 0.0
H724 H 0.70605 0.17036 0.34313 0.0
H725 H 0.67566 0.08526 0.30939 0.0
C726 C 0.64214 0.08304 0.28156 0.0
C727 C 0.62841 0.09522 0.27481 0.0
C728 C 0.71388 0.15899 0.35495 0.0
C729 C 0.67607 0.12015 0.32031 0.0
C730 C 0.73766 0.17039 0.37765 0.0
C731 C 0.74852 0.15613 0.39245 0.0
C732 C 0.70092 0.13316 0.34645 0.0
C733 C 0.73445 0.13026 0.38485 0.0
C734 C 0.66574 0.09531 0.30419 0.0
C735 C 0.63969 0.12033 0.29014 0.0
N736 N 0.71162 0.11974 0.3622 0.0
N737 N 0.6628 0.13193 0.31224 0.0
H738 H 0.55608 0.15648 0.28685 0.0
H739 H 0.42972 0.14468 0.39624 0.0
H740 H 0.48465 0.08997 0.26981 0.0
H741 H 0.49669 0.21509 0.37212 0.0
H742 H 0.45039 0.12355 0.35798 0.0
H743 H 0.53539 0.17765 0.32429 0.0
C744 C 0.53601 0.14637 0.29055 0.0
C745 C 0.52209 0.12141 0.27489 0.0
C746 C 0.46058 0.14362 0.36122 0.0
C747 C 0.49826 0.14547 0.31884 0.0
C748 C 0.44886 0.15569 0.38347 0.0
C749 C 0.46149 0.18173 0.38757 0.0
C750 C 0.48524 0.15762 0.34338 0.0
C751 C 0.48621 0.195 0.36983 0.0
C752 C 0.52421 0.15847 0.31207 0.0
C753 C 0.49612 0.10926 0.28094 0.0
N754 N 0.49726 0.18283 0.34868 0.0
N755 N 0.48508 0.12133 0.30277 0.0
H756 H 0.89439 0.2927 0.39721 0.0
H757 H 0.88239 0.40712 0.2886 0.0
H758 H 0.82393 0.28928 0.37455 0.0
H759 H 0.94884 0.40222 0.27018 0.0
H760 H 0.86132 0.36535 0.32643 0.0
H761 H 0.91548 0.33448 0.35882 0.0
C762 C 0.88336 0.30083 0.38474 0.0
C763 C 0.85732 0.28744 0.38927 0.0
C764 C 0.88046 0.37332 0.31383 0.0
C765 C 0.88137 0.33526 0.34494 0.0
C766 C 0.8925 0.39718 0.2921 0.0
C767 C 0.91741 0.4082 0.27592 0.0
C768 C 0.89348 0.3604 0.32029 0.0
C769 C 0.92958 0.39441 0.28171 0.0
C770 C 0.89541 0.32461 0.36242 0.0
C771 C 0.84402 0.29888 0.3719 0.0
N772 N 0.91757 0.37135 0.30375 0.0
N773 N 0.85616 0.32208 0.35067 0.0
H774 H 0.6366 0.55546 0.26706 0.0
H775 H 0.75006 0.54163 0.37578 0.0
H776 H 0.63258 0.4847 0.28832 0.0
H777 H 0.74632 0.6087 0.39356 0.0
H778 H 0.70836 0.52114 0.33758 0.0
H779 H 0.67841 0.57612 0.30541 0.0
C780 C 0.6446 0.54428 0.27919 0.0
C781 C 0.63103 0.51828 0.27431 0.0
C782 C 0.71657 0.54029 0.3501 0.0
C783 C 0.67887 0.54182 0.31861 0.0
C784 C 0.74039 0.55201 0.37206 0.0
C785 C 0.75171 0.57692 0.38818 0.0
C786 C 0.70399 0.55363 0.34339 0.0
C787 C 0.73827 0.58943 0.38208 0.0
C788 C 0.6684 0.55608 0.30149 0.0
C789 C 0.64232 0.50476 0.29124 0.0
N790 N 0.71523 0.57772 0.35986 0.0
N791 N 0.66552 0.51666 0.31249 0.0
H792 H 0.64134 0.91303 0.59789 0.0
H793 H 0.51538 0.89923 0.71536 0.0
H794 H 0.57539 0.84134 0.61898 0.0
H795 H 0.58723 0.96601 0.72382 0.0
H796 H 0.53533 0.87756 0.67587 0.0
H797 H 0.61981 0.9327 0.63678 0.0
C798 C 0.62222 0.90134 0.61021 0.0
C799 C 0.6103 0.87535 0.6051 0.0
C800 C 0.54668 0.89691 0.68673 0.0
C801 C 0.58537 0.89807 0.65061 0.0
C802 C 0.53533 0.90931 0.70951 0.0
C803 C 0.54955 0.93461 0.72309 0.0
C804 C 0.57242 0.90993 0.67689 0.0
C805 C 0.57536 0.94659 0.71417 0.0
C806 C 0.60995 0.91266 0.63284 0.0
C807 C 0.58541 0.86141 0.622 0.0
N808 N 0.58583 0.93424 0.69146 0.0
N809 N 0.5738 0.87292 0.64408 0.0
H810 H 0.19972 0.74193 0.61524 0.0
H811 H 0.07333 0.62977 0.73121 0.0
H812 H 0.12785 0.73668 0.60469 0.0
H813 H 0.13935 0.62403 0.71166 0.0
H814 H 0.09499 0.67092 0.69212 0.0
H815 H 0.17962 0.70031 0.65476 0.0
C816 C 0.17974 0.73202 0.62062 0.0
C817 C 0.16555 0.74304 0.60647 0.0
C818 C 0.10484 0.66076 0.69643 0.0
C819 C 0.14251 0.69551 0.65271 0.0
C820 C 0.09249 0.63719 0.71919 0.0
C821 C 0.10439 0.62314 0.72479 0.0
C822 C 0.12948 0.67073 0.67906 0.0
C823 C 0.12933 0.63406 0.70825 0.0
C824 C 0.1683 0.70827 0.64343 0.0
C825 C 0.1397 0.72917 0.6148 0.0
N826 N 0.14102 0.65715 0.68606 0.0
N827 N 0.12915 0.70637 0.63756 0.0
H828 H 0.41608 0.52551 0.7159 0.0
H829 H 0.30353 0.3998 0.59881 0.0
H830 H 0.41076 0.45362 0.72444 0.0
H831 H 0.29835 0.46605 0.61887 0.0
H832 H 0.34473 0.42114 0.63782 0.0
H833 H 0.37445 0.50568 0.67641 0.0
C834 C 0.40614 0.50557 0.71009 0.0
C835 C 0.41716 0.4913 0.72367 0.0
C836 C 0.33468 0.43111 0.63363 0.0
C837 C 0.36961 0.46857 0.67746 0.0
C838 C 0.31108 0.41894 0.61092 0.0
C839 C 0.29717 0.43101 0.60549 0.0
C840 C 0.34481 0.45572 0.65114 0.0
C841 C 0.30827 0.45592 0.62214 0.0
C842 C 0.3824 0.49429 0.68729 0.0
C843 C 0.40326 0.46552 0.71479 0.0
N844 N 0.33137 0.46741 0.6443 0.0
N845 N 0.38045 0.45512 0.69206 0.0
H846 H 0.22392 0.49142 0.62102 0.0
H847 H 0.0968 0.47813 0.72972 0.0
H848 H 0.1528 0.42464 0.60273 0.0
H849 H 0.16347 0.5489 0.70666 0.0
H850 H 0.11788 0.45741 0.69145 0.0
H851 H 0.20286 0.51215 0.65884 0.0
C852 C 0.20384 0.48116 0.62455 0.0
C853 C 0.19012 0.45626 0.6084 0.0
C854 C 0.12791 0.47746 0.69493 0.0
C855 C 0.16586 0.4798 0.65276 0.0
C856 C 0.11595 0.4893 0.71719 0.0
C857 C 0.12838 0.51532 0.72156 0.0
C858 C 0.1526 0.49169 0.67738 0.0
C859 C 0.15314 0.52882 0.70412 0.0
C860 C 0.19182 0.49301 0.64627 0.0
C861 C 0.16413 0.4439 0.61423 0.0
N862 N 0.16442 0.51688 0.68297 0.0
N863 N 0.15288 0.45572 0.63627 0.0
H864 H 0.49113 0.62439 0.71139 0.0
H865 H 0.61791 0.73789 0.60042 0.0
H866 H 0.56214 0.62831 0.72725 0.0
H867 H 0.55126 0.74194 0.62424 0.0
H868 H 0.59697 0.69616 0.63904 0.0
H869 H 0.51214 0.66614 0.67348 0.0
C870 C 0.51118 0.63412 0.70732 0.0
C871 C 0.52488 0.62282 0.7228 0.0
C872 C 0.58691 0.70616 0.63564 0.0
C873 C 0.54908 0.67059 0.67831 0.0
C874 C 0.59879 0.72991 0.6132 0.0
C875 C 0.58632 0.74347 0.60892 0.0
C876 C 0.56227 0.69571 0.65352 0.0
C877 C 0.56162 0.73222 0.62667 0.0
C878 C 0.52317 0.65796 0.68554 0.0
C879 C 0.55084 0.63634 0.71628 0.0
N880 N 0.55043 0.70904 0.64803 0.0
N881 N 0.56206 0.6594 0.6942 0.0
H882 H 0.30261 0.88845 0.60105 0.0
H883 H 0.41636 0.87531 0.71025 0.0
H884 H 0.29877 0.81782 0.62335 0.0
H885 H 0.41234 0.94224 0.72758 0.0
H886 H 0.3746 0.85459 0.67238 0.0
H887 H 0.34439 0.90928 0.63954 0.0
C888 C 0.31064 0.87733 0.61346 0.0
C889 C 0.29714 0.85132 0.6088 0.0
C890 C 0.38276 0.87376 0.68475 0.0
C891 C 0.34495 0.87507 0.65324 0.0
C892 C 0.40662 0.88561 0.70651 0.0
C893 C 0.41789 0.91055 0.72239 0.0
C894 C 0.37009 0.887 0.67796 0.0
C895 C 0.40433 0.92295 0.71629 0.0
C896 C 0.33443 0.88923 0.63583 0.0
C897 C 0.30846 0.83789 0.62608 0.0
N898 N 0.38126 0.91112 0.69423 0.0
N899 N 0.33165 0.84989 0.64738 0.0
loop_
_geom_bond_atom_site_label_1
_geom_bond_atom_site_label_2
_geom_bond_distance
_geom_bond_site_symmetry_2
_ccdc_geom_bond_type
Co0 O1 2.216 . S
Co0 O2 2.091 . S
Co0 O4 2.004 . S
Co0 O10 2.021 1_554 S
Co0 O12 2.137 . S
Co0 O13 2.244 . S
O1 Co0 2.216 . S
O1 C8 1.247 . S
O2 Co0 2.091 . S
O2 C8 1.261 . S
C3 O12 1.247 . S
C3 O13 1.272 . S
O4 Co0 2.004 . S
O4 C9 1.259 . S
Co5 O6 2.061 . S
Co5 O11 2.052 1_554 S
Co5 O13 2.135 . S
O6 Co5 2.061 . S
O6 C9 1.235 . S
C7 O10 1.238 . S
C7 O11 1.241 . S
C8 O1 1.247 . S
C8 O2 1.261 . S
C9 O4 1.259 . S
C9 O6 1.235 . S
O10 Co0 2.021 1_556 S
O10 C7 1.238 . S
O11 Co5 2.052 1_556 S
O11 C7 1.241 . S
O12 Co0 2.137 . S
O12 C3 1.247 . S
O13 Co0 2.244 . S
O13 C3 1.272 . S
O13 Co5 2.135 . S
Co14 O15 2.216 . S
Co14 O16 2.091 . S
Co14 O18 2.004 . S
Co14 O24 2.021 1_554 S
Co14 O26 2.137 . S
Co14 O27 2.244 . S
O15 Co14 2.216 . S
O15 C22 1.247 . S
O16 Co14 2.091 . S
O16 C22 1.261 . S
C17 O26 1.247 . S
C17 O27 1.272 . S
O18 Co14 2.004 . S
O18 C23 1.259 . S
Co19 O20 2.061 . S
Co19 O25 2.052 1_554 S
Co19 O27 2.135 . S
O20 Co19 2.061 . S
O20 C23 1.235 . S
C21 O24 1.238 . S
C21 O25 1.241 . S
C22 O15 1.247 . S
C22 O16 1.261 . S
C23 O18 1.259 . S
C23 O20 1.235 . S
O24 Co14 2.021 1_556 S
O24 C21 1.238 . S
O25 Co19 2.052 1_556 S
O25 C21 1.241 . S
O26 Co14 2.137 . S
O26 C17 1.247 . S
O27 Co14 2.244 . S
O27 C17 1.272 . S
O27 Co19 2.135 . S
Co28 O29 2.216 . S
Co28 O30 2.091 . S
Co28 O32 2.004 . S
Co28 O38 2.021 1_554 S
Co28 O40 2.137 . S
Co28 O41 2.244 . S
O29 Co28 2.216 . S
O29 C36 1.247 . S
O30 Co28 2.091 . S
O30 C36 1.261 . S
C31 O40 1.247 . S
C31 O41 1.272 . S
O32 Co28 2.004 . S
O32 C37 1.259 . S
Co33 O34 2.061 . S
Co33 O39 2.052 1_554 S
Co33 O41 2.135 . S
O34 Co33 2.061 . S
O34 C37 1.235 . S
C35 O38 1.238 . S
C35 O39 1.241 . S
C36 O29 1.247 . S
C36 O30 1.261 . S
C37 O32 1.259 . S
C37 O34 1.235 . S
O38 Co28 2.021 1_556 S
O38 C35 1.238 . S
O39 Co33 2.052 1_556 S
O39 C35 1.241 . S
O40 Co28 2.137 . S
O40 C31 1.247 . S
O41 Co28 2.244 . S
O41 C31 1.272 . S
O41 Co33 2.135 . S
Co42 O43 2.216 . S
Co42 O44 2.091 . S
Co42 O46 2.004 . S
Co42 O52 2.021 1_556 S
Co42 O54 2.137 . S
Co42 O55 2.244 . S
O43 Co42 2.216 . S
O43 C50 1.247 . S
O44 Co42 2.091 . S
O44 C50 1.261 . S
C45 O54 1.247 . S
C45 O55 1.272 . S
O46 Co42 2.004 . S
O46 C51 1.259 . S
Co47 O48 2.061 . S
Co47 O53 2.052 1_556 S
Co47 O55 2.135 . S
O48 Co47 2.061 . S
O48 C51 1.235 . S
C49 O52 1.238 . S
C49 O53 1.241 . S
C50 O43 1.247 . S
C50 O44 1.261 . S
C51 O46 1.259 . S
C51 O48 1.235 . S
O52 Co42 2.021 1_554 S
O52 C49 1.238 . S
O53 Co47 2.052 1_554 S
O53 C49 1.241 . S
O54 Co42 2.137 . S
O54 C45 1.247 . S
O55 Co42 2.244 . S
O55 C45 1.272 . S
O55 Co47 2.135 . S
Co56 O57 2.216 . S
Co56 O58 2.091 . S
Co56 O60 2.004 . S
Co56 O66 2.021 1_556 S
Co56 O68 2.137 . S
Co56 O69 2.244 . S
O57 Co56 2.216 . S
O57 C64 1.247 . S
O58 Co56 2.091 . S
O58 C64 1.261 . S
C59 O68 1.247 . S
C59 O69 1.272 . S
O60 Co56 2.004 . S
O60 C65 1.259 . S
Co61 O62 2.061 . S
Co61 O67 2.052 1_556 S
Co61 O69 2.135 . S
O62 Co61 2.061 . S
O62 C65 1.235 . S
C63 O66 1.238 . S
C63 O67 1.241 . S
C64 O57 1.247 . S
C64 O58 1.261 . S
C65 O60 1.259 . S
C65 O62 1.235 . S
O66 Co56 2.021 1_554 S
O66 C63 1.238 . S
O67 Co61 2.052 1_554 S
O67 C63 1.241 . S
O68 Co56 2.137 . S
O68 C59 1.247 . S
O69 Co56 2.244 . S
O69 C59 1.272 . S
O69 Co61 2.135 . S
Co70 O71 2.216 . S
Co70 O72 2.091 . S
Co70 O74 2.004 . S
Co70 O80 2.021 1_556 S
Co70 O82 2.137 . S
Co70 O83 2.244 . S
O71 Co70 2.216 . S
O71 C78 1.247 . S
O72 Co70 2.091 . S
O72 C78 1.261 . S
C73 O82 1.247 . S
C73 O83 1.272 . S
O74 Co70 2.004 . S
O74 C79 1.259 . S
Co75 O76 2.061 . S
Co75 O81 2.052 1_556 S
Co75 O83 2.135 . S
O76 Co75 2.061 . S
O76 C79 1.235 . S
C77 O80 1.238 . S
C77 O81 1.241 . S
C78 O71 1.247 . S
C78 O72 1.261 . S
C79 O74 1.259 . S
C79 O76 1.235 . S
O80 Co70 2.021 1_554 S
O80 C77 1.238 . S
O81 Co75 2.052 1_554 S
O81 C77 1.241 . S
O82 Co70 2.137 . S
O82 C73 1.247 . S
O83 Co70 2.244 . S
O83 C73 1.272 . S
O83 Co75 2.135 . S
Co84 O85 2.216 . S
Co84 O86 2.091 . S
Co84 O88 2.004 . S
Co84 O94 2.021 . S
Co84 O96 2.137 . S
Co84 O97 2.244 . S
O85 Co84 2.216 . S
O85 C92 1.247 . S
O86 Co84 2.091 . S
O86 C92 1.261 . S
C87 O96 1.247 . S
C87 O97 1.272 . S
O88 Co84 2.004 . S
O88 C93 1.259 . S
Co89 O90 2.061 . S
Co89 O95 2.052 . S
Co89 O97 2.135 . S
O90 Co89 2.061 . S
O90 C93 1.235 . S
C91 O94 1.238 . S
C91 O95 1.241 . S
C92 O85 1.247 . S
C92 O86 1.261 . S
C93 O88 1.259 . S
C93 O90 1.235 . S
O94 Co84 2.021 . S
O94 C91 1.238 . S
O95 Co89 2.052 . S
O95 C91 1.241 . S
O96 Co84 2.137 . S
O96 C87 1.247 . S
O97 Co84 2.244 . S
O97 C87 1.272 . S
O97 Co89 2.135 . S
Co98 O99 2.216 . S
Co98 O100 2.091 . S
Co98 O102 2.004 . S
Co98 O108 2.021 . S
Co98 O110 2.137 . S
Co98 O111 2.244 . S
O99 Co98 2.216 . S
O99 C106 1.247 . S
O100 Co98 2.091 . S
O100 C106 1.261 . S
C101 O110 1.247 . S
C101 O111 1.272 . S
O102 Co98 2.004 . S
O102 C107 1.259 . S
Co103 O104 2.061 . S
Co103 O109 2.052 . S
Co103 O111 2.135 . S
O104 Co103 2.061 . S
O104 C107 1.235 . S
C105 O108 1.238 . S
C105 O109 1.241 . S
C106 O99 1.247 . S
C106 O100 1.261 . S
C107 O102 1.259 . S
C107 O104 1.235 . S
O108 Co98 2.021 . S
O108 C105 1.238 . S
O109 Co103 2.052 . S
O109 C105 1.241 . S
O110 Co98 2.137 . S
O110 C101 1.247 . S
O111 Co98 2.244 . S
O111 C101 1.272 . S
O111 Co103 2.135 . S
Co112 O113 2.216 . S
Co112 O114 2.091 . S
Co112 O116 2.004 . S
Co112 O122 2.021 . S
Co112 O124 2.137 . S
Co112 O125 2.244 . S
O113 Co112 2.216 . S
O113 C120 1.247 . S
O114 Co112 2.091 . S
O114 C120 1.261 . S
C115 O124 1.247 . S
C115 O125 1.272 . S
O116 Co112 2.004 . S
O116 C121 1.259 . S
Co117 O118 2.061 . S
Co117 O123 2.052 . S
Co117 O125 2.135 . S
O118 Co117 2.061 . S
O118 C121 1.235 . S
C119 O122 1.238 . S
C119 O123 1.241 . S
C120 O113 1.247 . S
C120 O114 1.261 . S
C121 O116 1.259 . S
C121 O118 1.235 . S
O122 Co112 2.021 . S
O122 C119 1.238 . S
O123 Co117 2.052 . S
O123 C119 1.241 . S
O124 Co112 2.137 . S
O124 C115 1.247 . S
O125 Co112 2.244 . S
O125 C115 1.272 . S
O125 Co117 2.135 . S
Co126 O127 2.216 . S
Co126 O128 2.091 . S
Co126 O130 2.004 . S
Co126 O136 2.021 . S
Co126 O138 2.137 . S
Co126 O139 2.244 . S
O127 Co126 2.216 . S
O127 C134 1.247 . S
O128 Co126 2.091 . S
O128 C134 1.261 . S
C129 O138 1.247 . S
C129 O139 1.272 . S
O130 Co126 2.004 . S
O130 C135 1.259 . S
Co131 O132 2.061 . S
Co131 O137 2.052 . S
Co131 O139 2.135 . S
O132 Co131 2.061 . S
O132 C135 1.235 . S
C133 O136 1.238 . S
C133 O137 1.241 . S
C134 O127 1.247 . S
C134 O128 1.261 . S
C135 O130 1.259 . S
C135 O132 1.235 . S
O136 Co126 2.021 . S
O136 C133 1.238 . S
O137 Co131 2.052 . S
O137 C133 1.241 . S
O138 Co126 2.137 . S
O138 C129 1.247 . S
O139 Co126 2.244 . S
O139 C129 1.272 . S
O139 Co131 2.135 . S
Co140 O141 2.216 . S
Co140 O142 2.091 . S
Co140 O144 2.004 . S
Co140 O150 2.021 . S
Co140 O152 2.137 . S
Co140 O153 2.244 . S
O141 Co140 2.216 . S
O141 C148 1.247 . S
O142 Co140 2.091 . S
O142 C148 1.261 . S
C143 O152 1.247 . S
C143 O153 1.272 . S
O144 Co140 2.004 . S
O144 C149 1.259 . S
Co145 O146 2.061 . S
Co145 O151 2.052 . S
Co145 O153 2.135 . S
O146 Co145 2.061 . S
O146 C149 1.235 . S
C147 O150 1.238 . S
C147 O151 1.241 . S
C148 O141 1.247 . S
C148 O142 1.261 . S
C149 O144 1.259 . S
C149 O146 1.235 . S
O150 Co140 2.021 . S
O150 C147 1.238 . S
O151 Co145 2.052 . S
O151 C147 1.241 . S
O152 Co140 2.137 . S
O152 C143 1.247 . S
O153 Co140 2.244 . S
O153 C143 1.272 . S
O153 Co145 2.135 . S
Co154 O155 2.216 . S
Co154 O156 2.091 . S
Co154 O158 2.004 . S
Co154 O164 2.021 . S
Co154 O166 2.137 . S
Co154 O167 2.244 . S
O155 Co154 2.216 . S
O155 C162 1.247 . S
O156 Co154 2.091 . S
O156 C162 1.261 . S
C157 O166 1.247 . S
C157 O167 1.272 . S
O158 Co154 2.004 . S
O158 C163 1.259 . S
Co159 O160 2.061 . S
Co159 O165 2.052 . S
Co159 O167 2.135 . S
O160 Co159 2.061 . S
O160 C163 1.235 . S
C161 O164 1.238 . S
C161 O165 1.241 . S
C162 O155 1.247 . S
C162 O156 1.261 . S
C163 O158 1.259 . S
C163 O160 1.235 . S
O164 Co154 2.021 . S
O164 C161 1.238 . S
O165 Co159 2.052 . S
O165 C161 1.241 . S
O166 Co154 2.137 . S
O166 C157 1.247 . S
O167 Co154 2.244 . S
O167 C157 1.272 . S
O167 Co159 2.135 . S
Co168 O169 2.216 . S
Co168 O170 2.091 . S
Co168 O172 2.004 . S
Co168 O178 2.021 . S
Co168 O180 2.137 . S
Co168 O181 2.244 . S
O169 Co168 2.216 . S
O169 C176 1.247 . S
O170 Co168 2.091 . S
O170 C176 1.261 . S
C171 O180 1.247 . S
C171 O181 1.272 . S
O172 Co168 2.004 . S
O172 C177 1.259 . S
Co173 O174 2.061 . S
Co173 O179 2.052 . S
Co173 O181 2.135 . S
O174 Co173 2.061 . S
O174 C177 1.235 . S
C175 O178 1.238 . S
C175 O179 1.241 . S
C176 O169 1.247 . S
C176 O170 1.261 . S
C177 O172 1.259 . S
C177 O174 1.235 . S
O178 Co168 2.021 . S
O178 C175 1.238 . S
O179 Co173 2.052 . S
O179 C175 1.241 . S
O180 Co168 2.137 . S
O180 C171 1.247 . S
O181 Co168 2.244 . S
O181 C171 1.272 . S
O181 Co173 2.135 . S
Co182 O183 2.216 . S
Co182 O184 2.091 . S
Co182 O186 2.004 . S
Co182 O192 2.021 . S
Co182 O194 2.137 . S
Co182 O195 2.244 . S
O183 Co182 2.216 . S
O183 C190 1.247 . S
O184 Co182 2.091 . S
O184 C190 1.261 . S
C185 O194 1.247 . S
C185 O195 1.272 . S
O186 Co182 2.004 . S
O186 C191 1.259 . S
Co187 O188 2.061 . S
Co187 O193 2.052 . S
Co187 O195 2.135 . S
O188 Co187 2.061 . S
O188 C191 1.235 . S
C189 O192 1.238 . S
C189 O193 1.241 . S
C190 O183 1.247 . S
C190 O184 1.261 . S
C191 O186 1.259 . S
C191 O188 1.235 . S
O192 Co182 2.021 . S
O192 C189 1.238 . S
O193 Co187 2.052 . S
O193 C189 1.241 . S
O194 Co182 2.137 . S
O194 C185 1.247 . S
O195 Co182 2.244 . S
O195 C185 1.272 . S
O195 Co187 2.135 . S
Co196 O197 2.216 . S
Co196 O198 2.091 . S
Co196 O200 2.004 . S
Co196 O206 2.021 . S
Co196 O208 2.137 . S
Co196 O209 2.244 . S
O197 Co196 2.216 . S
O197 C204 1.247 . S
O198 Co196 2.091 . S
O198 C204 1.261 . S
C199 O208 1.247 . S
C199 O209 1.272 . S
O200 Co196 2.004 . S
O200 C205 1.259 . S
Co201 O202 2.061 . S
Co201 O207 2.052 . S
Co201 O209 2.135 . S
O202 Co201 2.061 . S
O202 C205 1.235 . S
C203 O206 1.238 . S
C203 O207 1.241 . S
C204 O197 1.247 . S
C204 O198 1.261 . S
C205 O200 1.259 . S
C205 O202 1.235 . S
O206 Co196 2.021 . S
O206 C203 1.238 . S
O207 Co201 2.052 . S
O207 C203 1.241 . S
O208 Co196 2.137 . S
O208 C199 1.247 . S
O209 Co196 2.244 . S
O209 C199 1.272 . S
O209 Co201 2.135 . S
Co210 O211 2.216 . S
Co210 O212 2.091 . S
Co210 O214 2.004 . S
Co210 O220 2.021 . S
Co210 O222 2.137 . S
Co210 O223 2.244 . S
O211 Co210 2.216 . S
O211 C218 1.247 . S
O212 Co210 2.091 . S
O212 C218 1.261 . S
C213 O222 1.247 . S
C213 O223 1.272 . S
O214 Co210 2.004 . S
O214 C219 1.259 . S
Co215 O216 2.061 . S
Co215 O221 2.052 . S
Co215 O223 2.135 . S
O216 Co215 2.061 . S
O216 C219 1.235 . S
C217 O220 1.238 . S
C217 O221 1.241 . S
C218 O211 1.247 . S
C218 O212 1.261 . S
C219 O214 1.259 . S
C219 O216 1.235 . S
O220 Co210 2.021 . S
O220 C217 1.238 . S
O221 Co215 2.052 . S
O221 C217 1.241 . S
O222 Co210 2.137 . S
O222 C213 1.247 . S
O223 Co210 2.244 . S
O223 C213 1.272 . S
O223 Co215 2.135 . S
Co224 O225 2.216 . S
Co224 O226 2.091 . S
Co224 O228 2.004 . S
Co224 O234 2.021 . S
Co224 O236 2.137 . S
Co224 O237 2.244 . S
O225 Co224 2.216 . S
O225 C232 1.247 . S
O226 Co224 2.091 . S
O226 C232 1.261 . S
C227 O236 1.247 . S
C227 O237 1.272 . S
O228 Co224 2.004 . S
O228 C233 1.259 . S
Co229 O230 2.061 . S
Co229 O235 2.052 . S
Co229 O237 2.135 . S
O230 Co229 2.061 . S
O230 C233 1.235 . S
C231 O234 1.238 . S
C231 O235 1.241 . S
C232 O225 1.247 . S
C232 O226 1.261 . S
C233 O228 1.259 . S
C233 O230 1.235 . S
O234 Co224 2.021 . S
O234 C231 1.238 . S
O235 Co229 2.052 . S
O235 C231 1.241 . S
O236 Co224 2.137 . S
O236 C227 1.247 . S
O237 Co224 2.244 . S
O237 C227 1.272 . S
O237 Co229 2.135 . S
Co238 O239 2.216 . S
Co238 O240 2.091 . S
Co238 O242 2.004 . S
Co238 O248 2.021 . S
Co238 O250 2.137 . S
Co238 O251 2.244 . S
O239 Co238 2.216 . S
O239 C246 1.247 . S
O240 Co238 2.091 . S
O240 C246 1.261 . S
C241 O250 1.247 . S
C241 O251 1.272 . S
O242 Co238 2.004 . S
O242 C247 1.259 . S
Co243 O244 2.061 . S
Co243 O249 2.052 . S
Co243 O251 2.135 . S
O244 Co243 2.061 . S
O244 C247 1.235 . S
C245 O248 1.238 . S
C245 O249 1.241 . S
C246 O239 1.247 . S
C246 O240 1.261 . S
C247 O242 1.259 . S
C247 O244 1.235 . S
O248 Co238 2.021 . S
O248 C245 1.238 . S
O249 Co243 2.052 . S
O249 C245 1.241 . S
O250 Co238 2.137 . S
O250 C241 1.247 . S
O251 Co238 2.244 . S
O251 C241 1.272 . S
O251 Co243 2.135 . S
H252 C258 0.930 . S
H253 C262 0.930 . S
H254 C267 0.929 . S
H255 C265 0.929 . S
H256 C260 0.929 . S
H257 C266 0.929 . S
C258 H252 0.930 . S
C258 C259 1.367 . S
C258 C266 1.378 . S
C259 C258 1.367 . S
C259 C267 1.433 . S
C260 H256 0.929 . S
C260 C262 1.378 . S
C260 C264 1.350 . S
C261 C264 1.463 . S
C261 C266 1.350 . S
C261 N269 1.427 . S
C262 H253 0.930 . S
C262 C260 1.378 . S
C262 C263 1.367 . S
C263 C262 1.367 . S
C263 C265 1.433 . S
C264 C260 1.350 . S
C264 C261 1.463 . S
C264 N268 1.427 . S
C265 H255 0.929 . S
C265 C263 1.433 . S
C265 N268 1.384 . S
C266 H257 0.929 . S
C266 C258 1.378 . S
C266 C261 1.350 . S
C267 H254 0.929 . S
C267 C259 1.433 . S
C267 N269 1.384 . S
N268 C264 1.427 . S
N268 C265 1.384 . S
N269 C261 1.427 . S
N269 C267 1.384 . S
H270 C276 0.930 . S
H271 C280 0.930 . S
H272 C285 0.929 . S
H273 C283 0.929 . S
H274 C278 0.929 . S
H275 C284 0.929 . S
C276 H270 0.930 . S
C276 C277 1.367 . S
C276 C284 1.378 . S
C277 C276 1.367 . S
C277 C285 1.433 . S
C278 H274 0.929 . S
C278 C280 1.378 . S
C278 C282 1.350 . S
C279 C282 1.463 . S
C279 C284 1.350 . S
C279 N287 1.427 . S
C280 H271 0.930 . S
C280 C278 1.378 . S
C280 C281 1.367 . S
C281 C280 1.367 . S
C281 C283 1.433 . S
C282 C278 1.350 . S
C282 C279 1.463 . S
C282 N286 1.427 . S
C283 H273 0.929 . S
C283 C281 1.433 . S
C283 N286 1.384 . S
C284 H275 0.929 . S
C284 C276 1.378 . S
C284 C279 1.350 . S
C285 H272 0.929 . S
C285 C277 1.433 . S
C285 N287 1.384 . S
N286 C282 1.427 . S
N286 C283 1.384 . S
N287 C279 1.427 . S
N287 C285 1.384 . S
H288 C294 0.930 . S
H289 C298 0.930 . S
H290 C303 0.929 . S
H291 C301 0.929 . S
H292 C296 0.929 . S
H293 C302 0.929 . S
C294 H288 0.930 . S
C294 C295 1.367 . S
C294 C302 1.378 . S
C295 C294 1.367 . S
C295 C303 1.433 . S
C296 H292 0.929 . S
C296 C298 1.378 . S
C296 C300 1.350 . S
C297 C300 1.463 . S
C297 C302 1.350 . S
C297 N305 1.427 . S
C298 H289 0.930 . S
C298 C296 1.378 . S
C298 C299 1.367 . S
C299 C298 1.367 . S
C299 C301 1.433 . S
C300 C296 1.350 . S
C300 C297 1.463 . S
C300 N304 1.427 . S
C301 H291 0.929 . S
C301 C299 1.433 . S
C301 N304 1.384 . S
C302 H293 0.929 . S
C302 C294 1.378 . S
C302 C297 1.350 . S
C303 H290 0.929 . S
C303 C295 1.433 . S
C303 N305 1.384 . S
N304 C300 1.427 . S
N304 C301 1.384 . S
N305 C297 1.427 . S
N305 C303 1.384 . S
H306 C312 0.930 . S
H307 C316 0.930 . S
H308 C321 0.929 . S
H309 C319 0.929 . S
H310 C314 0.929 . S
H311 C320 0.929 . S
C312 H306 0.930 . S
C312 C313 1.367 . S
C312 C320 1.378 . S
C313 C312 1.367 . S
C313 C321 1.433 . S
C314 H310 0.929 . S
C314 C316 1.378 . S
C314 C318 1.350 . S
C315 C318 1.463 . S
C315 C320 1.350 . S
C315 N323 1.427 . S
C316 H307 0.930 . S
C316 C314 1.378 . S
C316 C317 1.367 . S
C317 C316 1.367 . S
C317 C319 1.433 . S
C318 C314 1.350 . S
C318 C315 1.463 . S
C318 N322 1.427 . S
C319 H309 0.929 . S
C319 C317 1.433 . S
C319 N322 1.384 . S
C320 H311 0.929 . S
C320 C312 1.378 . S
C320 C315 1.350 . S
C321 H308 0.929 . S
C321 C313 1.433 . S
C321 N323 1.384 . S
N322 C318 1.427 . S
N322 C319 1.384 . S
N323 C315 1.427 . S
N323 C321 1.384 . S
H324 C330 0.930 . S
H325 C334 0.930 . S
H326 C339 0.929 . S
H327 C337 0.929 . S
H328 C332 0.929 . S
H329 C338 0.929 . S
C330 H324 0.930 . S
C330 C331 1.367 . S
C330 C338 1.378 . S
C331 C330 1.367 . S
C331 C339 1.433 . S
C332 H328 0.929 . S
C332 C334 1.378 . S
C332 C336 1.350 . S
C333 C336 1.463 . S
C333 C338 1.350 . S
C333 N341 1.427 . S
C334 H325 0.930 . S
C334 C332 1.378 . S
C334 C335 1.367 . S
C335 C334 1.367 . S
C335 C337 1.433 . S
C336 C332 1.350 . S
C336 C333 1.463 . S
C336 N340 1.427 . S
C337 H327 0.929 . S
C337 C335 1.433 . S
C337 N340 1.384 . S
C338 H329 0.929 . S
C338 C330 1.378 . S
C338 C333 1.350 . S
C339 H326 0.929 . S
C339 C331 1.433 . S
C339 N341 1.384 . S
N340 C336 1.427 . S
N340 C337 1.384 . S
N341 C333 1.427 . S
N341 C339 1.384 . S
H342 C348 0.930 . S
H343 C352 0.930 . S
H344 C357 0.929 . S
H345 C355 0.929 . S
H346 C350 0.929 . S
H347 C356 0.929 . S
C348 H342 0.930 . S
C348 C349 1.367 . S
C348 C356 1.378 . S
C349 C348 1.367 . S
C349 C357 1.433 . S
C350 H346 0.929 . S
C350 C352 1.378 . S
C350 C354 1.350 . S
C351 C354 1.463 . S
C351 C356 1.350 . S
C351 N359 1.427 . S
C352 H343 0.930 . S
C352 C350 1.378 . S
C352 C353 1.367 . S
C353 C352 1.367 . S
C353 C355 1.433 . S
C354 C350 1.350 . S
C354 C351 1.463 . S
C354 N358 1.427 . S
C355 H345 0.929 . S
C355 C353 1.433 . S
C355 N358 1.384 . S
C356 H347 0.929 . S
C356 C348 1.378 . S
C356 C351 1.350 . S
C357 H344 0.929 . S
C357 C349 1.433 . S
C357 N359 1.384 . S
N358 C354 1.427 . S
N358 C355 1.384 . S
N359 C351 1.427 . S
N359 C357 1.384 . S
H360 C366 0.930 . S
H361 C370 0.930 . S
H362 C375 0.931 1_455 S
H363 C373 0.929 . S
H364 C368 0.929 . S
H365 C374 0.929 . S
C366 H360 0.930 . S
C366 C367 1.367 . S
C366 C374 1.378 . S
C367 C366 1.367 . S
C367 C375 1.433 . S
C368 H364 0.929 . S
C368 C370 1.378 . S
C368 C372 1.350 . S
C369 C372 1.463 1_654 S
C369 C374 1.350 . S
C369 N377 1.427 1_655 S
C370 H361 0.930 . S
C370 C368 1.378 . S
C370 C371 1.367 . S
C371 C370 1.367 . S
C371 C373 1.433 . S
C372 C368 1.350 . S
C372 C369 1.463 1_456 S
C372 N376 1.427 1_455 S
C373 H363 0.929 . S
C373 C371 1.433 . S
C373 N376 1.384 1_455 S
C374 H365 0.929 . S
C374 C366 1.378 . S
C374 C369 1.350 . S
C375 H362 0.931 1_655 S
C375 C367 1.433 . S
C375 N377 1.384 1_655 S
N376 C372 1.427 1_655 S
N376 C373 1.384 1_655 S
N377 C369 1.427 1_455 S
N377 C375 1.384 1_455 S
H378 C384 0.930 . S
H379 C388 0.930 . S
H380 C393 0.929 . S
H381 C391 0.929 . S
H382 C386 0.929 . S
H383 C392 0.929 . S
C384 H378 0.930 . S
C384 C385 1.367 . S
C384 C392 1.378 . S
C385 C384 1.367 . S
C385 C393 1.433 . S
C386 H382 0.929 . S
C386 C388 1.378 . S
C386 C390 1.350 . S
C387 C390 1.463 1_554 S
C387 C392 1.350 . S
C387 N395 1.427 . S
C388 H379 0.930 . S
C388 C386 1.378 . S
C388 C389 1.367 . S
C389 C388 1.367 . S
C389 C391 1.433 . S
C390 C386 1.350 . S
C390 C387 1.463 1_556 S
C390 N394 1.427 . S
C391 H381 0.929 . S
C391 C389 1.433 . S
C391 N394 1.384 . S
C392 H383 0.929 . S
C392 C384 1.378 . S
C392 C387 1.350 . S
C393 H380 0.929 . S
C393 C385 1.433 . S
C393 N395 1.384 . S
N394 C390 1.427 . S
N394 C391 1.384 . S
N395 C387 1.427 . S
N395 C393 1.384 . S
H396 C402 0.930 1_565 S
H397 C406 0.917 1_545 S
H398 C411 0.929 . S
H399 C409 0.929 . S
H400 C404 0.929 . S
H401 C410 0.929 . S
C402 H396 0.930 1_545 S
C402 C403 1.367 . S
C402 C410 1.378 1_545 S
C403 C402 1.367 . S
C403 C411 1.433 . S
C404 H400 0.929 . S
C404 C406 1.359 1_545 S
C404 C408 1.350 1_545 S
C405 C408 1.463 1_544 S
C405 C410 1.350 1_545 S
C405 N413 1.427 . S
C406 H397 0.917 1_565 S
C406 C404 1.359 1_565 S
C406 C407 1.402 . S
C407 C406 1.402 . S
C407 C409 1.433 . S
C408 C404 1.350 1_565 S
C408 C405 1.463 1_566 S
C408 N412 1.427 . S
C409 H399 0.929 . S
C409 C407 1.433 . S
C409 N412 1.384 . S
C410 H401 0.929 . S
C410 C402 1.378 1_565 S
C410 C405 1.350 1_565 S
C411 H398 0.929 . S
C411 C403 1.433 . S
C411 N413 1.384 . S
N412 C408 1.427 . S
N412 C409 1.384 . S
N413 C405 1.427 . S
N413 C411 1.384 . S
H414 C420 0.930 . S
H415 C424 0.930 . S
H416 C429 0.929 . S
H417 C427 0.929 . S
H418 C422 0.929 . S
H419 C428 0.929 . S
C420 H414 0.930 . S
C420 C421 1.367 . S
C420 C428 1.378 . S
C421 C420 1.367 . S
C421 C429 1.433 . S
C422 H418 0.929 . S
C422 C424 1.378 . S
C422 C426 1.350 . S
C423 C426 1.463 . S
C423 C428 1.350 . S
C423 N431 1.427 . S
C424 H415 0.930 . S
C424 C422 1.378 . S
C424 C425 1.367 . S
C425 C424 1.367 . S
C425 C427 1.433 . S
C426 C422 1.350 . S
C426 C423 1.463 . S
C426 N430 1.427 . S
C427 H417 0.929 . S
C427 C425 1.433 . S
C427 N430 1.384 . S
C428 H419 0.929 . S
C428 C420 1.378 . S
C428 C423 1.350 . S
C429 H416 0.929 . S
C429 C421 1.433 . S
C429 N431 1.384 . S
N430 C426 1.427 . S
N430 C427 1.384 . S
N431 C423 1.427 . S
N431 C429 1.384 . S
H432 C438 0.930 . S
H433 C442 0.930 . S
H434 C447 0.929 . S
H435 C445 0.929 . S
H436 C440 0.929 . S
H437 C446 0.929 . S
C438 H432 0.930 . S
C438 C439 1.367 . S
C438 C446 1.378 . S
C439 C438 1.367 . S
C439 C447 1.433 . S
C440 H436 0.929 . S
C440 C442 1.378 . S
C440 C444 1.350 . S
C441 C444 1.463 . S
C441 C446 1.350 . S
C441 N449 1.427 . S
C442 H433 0.930 . S
C442 C440 1.378 . S
C442 C443 1.367 . S
C443 C442 1.367 . S
C443 C445 1.433 . S
C444 C440 1.350 . S
C444 C441 1.463 . S
C444 N448 1.427 . S
C445 H435 0.929 . S
C445 C443 1.433 . S
C445 N448 1.384 . S
C446 H437 0.929 . S
C446 C438 1.378 . S
C446 C441 1.350 . S
C447 H434 0.929 . S
C447 C439 1.433 . S
C447 N449 1.384 . S
N448 C444 1.427 . S
N448 C445 1.384 . S
N449 C441 1.427 . S
N449 C447 1.384 . S
H450 C456 0.930 . S
H451 C460 0.930 . S
H452 C465 0.929 . S
H453 C463 0.929 . S
H454 C458 0.929 . S
H455 C464 0.929 . S
C456 H450 0.930 . S
C456 C457 1.367 . S
C456 C464 1.378 . S
C457 C456 1.367 . S
C457 C465 1.433 . S
C458 H454 0.929 . S
C458 C460 1.378 . S
C458 C462 1.350 . S
C459 C462 1.463 . S
C459 C464 1.350 . S
C459 N467 1.427 . S
C460 H451 0.930 . S
C460 C458 1.378 . S
C460 C461 1.367 . S
C461 C460 1.367 . S
C461 C463 1.433 . S
C462 C458 1.350 . S
C462 C459 1.463 . S
C462 N466 1.427 . S
C463 H453 0.929 . S
C463 C461 1.433 . S
C463 N466 1.384 . S
C464 H455 0.929 . S
C464 C456 1.378 . S
C464 C459 1.350 . S
C465 H452 0.929 . S
C465 C457 1.433 . S
C465 N467 1.384 . S
N466 C462 1.427 . S
N466 C463 1.384 . S
N467 C459 1.427 . S
N467 C465 1.384 . S
H468 C474 0.930 . S
H469 C478 0.930 . S
H470 C483 0.929 . S
H471 C481 0.929 . S
H472 C476 0.929 . S
H473 C482 0.929 . S
C474 H468 0.930 . S
C474 C475 1.367 . S
C474 C482 1.378 . S
C475 C474 1.367 . S
C475 C483 1.433 . S
C476 H472 0.929 . S
C476 C478 1.378 . S
C476 C480 1.350 . S
C477 C480 1.463 . S
C477 C482 1.350 . S
C477 N485 1.427 . S
C478 H469 0.930 . S
C478 C476 1.378 . S
C478 C479 1.367 . S
C479 C478 1.367 . S
C479 C481 1.433 . S
C480 C476 1.350 . S
C480 C477 1.463 . S
C480 N484 1.427 . S
C481 H471 0.929 . S
C481 C479 1.433 . S
C481 N484 1.384 . S
C482 H473 0.929 . S
C482 C474 1.378 . S
C482 C477 1.350 . S
C483 H470 0.929 . S
C483 C475 1.433 . S
C483 N485 1.384 . S
N484 C480 1.427 . S
N484 C481 1.384 . S
N485 C477 1.427 . S
N485 C483 1.384 . S
H486 C492 0.930 . S
H487 C496 0.930 . S
H488 C501 0.929 . S
H489 C499 0.929 . S
H490 C494 0.929 . S
H491 C500 0.929 . S
C492 H486 0.930 . S
C492 C493 1.367 . S
C492 C500 1.378 . S
C493 C492 1.367 . S
C493 C501 1.433 . S
C494 H490 0.929 . S
C494 C496 1.378 . S
C494 C498 1.350 . S
C495 C498 1.463 . S
C495 C500 1.350 . S
C495 N503 1.427 . S
C496 H487 0.930 . S
C496 C494 1.378 . S
C496 C497 1.367 . S
C497 C496 1.367 . S
C497 C499 1.433 . S
C498 C494 1.350 . S
C498 C495 1.463 . S
C498 N502 1.427 . S
C499 H489 0.929 . S
C499 C497 1.433 . S
C499 N502 1.384 . S
C500 H491 0.929 . S
C500 C492 1.378 . S
C500 C495 1.350 . S
C501 H488 0.929 . S
C501 C493 1.433 . S
C501 N503 1.384 . S
N502 C498 1.427 . S
N502 C499 1.384 . S
N503 C495 1.427 . S
N503 C501 1.384 . S
H504 C510 0.930 . S
H505 C514 0.930 . S
H506 C519 0.929 . S
H507 C517 0.929 . S
H508 C512 0.929 . S
H509 C518 0.929 . S
C510 H504 0.930 . S
C510 C511 1.367 . S
C510 C518 1.378 . S
C511 C510 1.367 . S
C511 C519 1.433 . S
C512 H508 0.929 . S
C512 C514 1.378 . S
C512 C516 1.350 . S
C513 C516 1.463 . S
C513 C518 1.350 . S
C513 N521 1.427 . S
C514 H505 0.930 . S
C514 C512 1.378 . S
C514 C515 1.367 . S
C515 C514 1.367 . S
C515 C517 1.433 . S
C516 C512 1.350 . S
C516 C513 1.463 . S
C516 N520 1.427 . S
C517 H507 0.929 . S
C517 C515 1.433 . S
C517 N520 1.384 . S
C518 H509 0.929 . S
C518 C510 1.378 . S
C518 C513 1.350 . S
C519 H506 0.929 . S
C519 C511 1.433 . S
C519 N521 1.384 . S
N520 C516 1.427 . S
N520 C517 1.384 . S
N521 C513 1.427 . S
N521 C519 1.384 . S
H522 C528 0.930 1_455 S
H523 C532 0.930 1_655 S
H524 C537 0.929 . S
H525 C535 0.929 . S
H526 C530 0.929 . S
H527 C536 0.929 . S
C528 H522 0.930 1_655 S
C528 C529 1.367 . S
C528 C536 1.378 1_655 S
C529 C528 1.367 . S
C529 C537 1.433 . S
C530 H526 0.929 . S
C530 C532 1.378 1_655 S
C530 C534 1.350 1_655 S
C531 C534 1.463 1_655 S
C531 C536 1.350 1_655 S
C531 N539 1.427 . S
C532 H523 0.930 1_455 S
C532 C530 1.378 1_455 S
C532 C533 1.367 . S
C533 C532 1.367 . S
C533 C535 1.433 . S
C534 C530 1.350 1_455 S
C534 C531 1.463 1_455 S
C534 N538 1.427 . S
C535 H525 0.929 . S
C535 C533 1.433 . S
C535 N538 1.384 . S
C536 H527 0.929 . S
C536 C528 1.378 1_455 S
C536 C531 1.350 1_455 S
C537 H524 0.929 . S
C537 C529 1.433 . S
C537 N539 1.384 . S
N538 C534 1.427 . S
N538 C535 1.384 . S
N539 C531 1.427 . S
N539 C537 1.384 . S
H540 C546 0.930 . S
H541 C550 0.930 . S
H542 C555 0.929 . S
H543 C553 0.929 . S
H544 C548 0.929 . S
H545 C554 0.929 . S
C546 H540 0.930 . S
C546 C547 1.367 . S
C546 C554 1.378 . S
C547 C546 1.367 . S
C547 C555 1.433 . S
C548 H544 0.929 . S
C548 C550 1.378 . S
C548 C552 1.350 . S
C549 C552 1.463 . S
C549 C554 1.350 . S
C549 N557 1.427 . S
C550 H541 0.930 . S
C550 C548 1.378 . S
C550 C551 1.367 . S
C551 C550 1.367 . S
C551 C553 1.433 . S
C552 C548 1.350 . S
C552 C549 1.463 . S
C552 N556 1.427 . S
C553 H543 0.929 . S
C553 C551 1.433 . S
C553 N556 1.384 . S
C554 H545 0.929 . S
C554 C546 1.378 . S
C554 C549 1.350 . S
C555 H542 0.929 . S
C555 C547 1.433 . S
C555 N557 1.384 . S
N556 C552 1.427 . S
N556 C553 1.384 . S
N557 C549 1.427 . S
N557 C555 1.384 . S
H558 C564 0.947 . S
H559 C568 0.930 1_565 S
H560 C573 0.929 . S
H561 C571 0.929 . S
H562 C566 0.929 . S
H563 C572 0.929 . S
C564 H558 0.947 . S
C564 C565 1.338 1_545 S
C564 C572 1.392 . S
C565 C564 1.338 1_565 S
C565 C573 1.433 . S
C566 H562 0.929 . S
C566 C568 1.378 1_565 S
C566 C570 1.350 1_565 S
C567 C570 1.463 1_565 S
C567 C572 1.350 1_565 S
C567 N575 1.427 . S
C568 H559 0.930 1_545 S
C568 C566 1.378 1_545 S
C568 C569 1.367 . S
C569 C568 1.367 . S
C569 C571 1.433 . S
C570 C566 1.350 1_545 S
C570 C567 1.463 1_545 S
C570 N574 1.427 . S
C571 H561 0.929 . S
C571 C569 1.433 . S
C571 N574 1.384 . S
C572 H563 0.929 . S
C572 C564 1.392 . S
C572 C567 1.350 1_545 S
C573 H560 0.929 . S
C573 C565 1.433 . S
C573 N575 1.384 . S
N574 C570 1.427 . S
N574 C571 1.384 . S
N575 C567 1.427 . S
N575 C573 1.384 . S
H576 C582 0.930 . S
H577 C586 0.930 . S
H578 C591 0.929 . S
H579 C589 0.929 . S
H580 C584 0.929 . S
H581 C590 0.929 . S
C582 H576 0.930 . S
C582 C583 1.367 . S
C582 C590 1.378 . S
C583 C582 1.367 . S
C583 C591 1.433 1_554 S
C584 H580 0.929 . S
C584 C586 1.378 . S
C584 C588 1.350 . S
C585 C588 1.463 1_554 S
C585 C590 1.350 . S
C585 N593 1.427 1_554 S
C586 H577 0.930 . S
C586 C584 1.378 . S
C586 C587 1.367 . S
C587 C586 1.367 . S
C587 C589 1.433 1_556 S
C588 C584 1.350 . S
C588 C585 1.463 1_556 S
C588 N592 1.427 1_556 S
C589 H579 0.929 . S
C589 C587 1.433 1_554 S
C589 N592 1.384 . S
C590 H581 0.929 . S
C590 C582 1.378 . S
C590 C585 1.350 . S
C591 H578 0.929 . S
C591 C583 1.433 1_556 S
C591 N593 1.384 . S
N592 C588 1.427 1_554 S
N592 C589 1.384 . S
N593 C585 1.427 1_556 S
N593 C591 1.384 . S
H594 C600 0.930 . S
H595 C604 0.930 . S
H596 C609 0.929 . S
H597 C607 0.929 . S
H598 C602 0.929 . S
H599 C608 0.929 . S
C600 H594 0.930 . S
C600 C601 1.367 1_554 S
C600 C608 1.378 . S
C601 C600 1.367 1_556 S
C601 C609 1.433 . S
C602 H598 0.929 . S
C602 C604 1.378 . S
C602 C606 1.350 1_556 S
C603 C606 1.463 1_546 S
C603 C608 1.350 1_556 S
C603 N611 1.427 . S
C604 H595 0.930 . S
C604 C602 1.378 . S
C604 C605 1.367 1_556 S
C605 C604 1.367 1_554 S
C605 C607 1.433 . S
C606 C602 1.350 1_554 S
C606 C603 1.463 1_564 S
C606 N610 1.427 . S
C607 H597 0.929 . S
C607 C605 1.433 . S
C607 N610 1.384 . S
C608 H599 0.929 . S
C608 C600 1.378 . S
C608 C603 1.350 1_554 S
C609 H596 0.929 . S
C609 C601 1.433 . S
C609 N611 1.384 . S
N610 C606 1.427 . S
N610 C607 1.384 . S
N611 C603 1.427 . S
N611 C609 1.384 . S
H612 C618 0.930 . S
H613 C622 0.930 . S
H614 C627 0.929 . S
H615 C625 0.929 . S
H616 C620 0.929 . S
H617 C626 0.929 . S
C618 H612 0.930 . S
C618 C619 1.367 1_554 S
C618 C626 1.378 . S
C619 C618 1.367 1_556 S
C619 C627 1.433 . S
C620 H616 0.929 . S
C620 C622 1.378 . S
C620 C624 1.350 1_556 S
C621 C624 1.463 1_656 S
C621 C626 1.350 1_556 S
C621 N629 1.427 . S
C622 H613 0.930 . S
C622 C620 1.378 . S
C622 C623 1.367 1_556 S
C623 C622 1.367 1_554 S
C623 C625 1.433 . S
C624 C620 1.350 1_554 S
C624 C621 1.463 1_454 S
C624 N628 1.427 . S
C625 H615 0.929 . S
C625 C623 1.433 . S
C625 N628 1.384 . S
C626 H617 0.929 . S
C626 C618 1.378 . S
C626 C621 1.350 1_554 S
C627 H614 0.929 . S
C627 C619 1.433 . S
C627 N629 1.384 . S
N628 C624 1.427 . S
N628 C625 1.384 . S
N629 C621 1.427 . S
N629 C627 1.384 . S
H630 C636 0.930 . S
H631 C640 0.930 . S
H632 C645 0.929 . S
H633 C643 0.929 . S
H634 C638 0.929 . S
H635 C644 0.929 . S
C636 H630 0.930 . S
C636 C637 1.367 1_554 S
C636 C644 1.378 . S
C637 C636 1.367 1_556 S
C637 C645 1.433 . S
C638 H634 0.929 . S
C638 C640 1.378 . S
C638 C642 1.350 1_556 S
C639 C642 1.463 1_556 S
C639 C644 1.350 1_556 S
C639 N647 1.427 . S
C640 H631 0.930 . S
C640 C638 1.378 . S
C640 C641 1.367 1_556 S
C641 C640 1.367 1_554 S
C641 C643 1.433 . S
C642 C638 1.350 1_554 S
C642 C639 1.463 1_554 S
C642 N646 1.427 . S
C643 H633 0.929 . S
C643 C641 1.433 . S
C643 N646 1.384 . S
C644 H635 0.929 . S
C644 C636 1.378 . S
C644 C639 1.350 1_554 S
C645 H632 0.929 . S
C645 C637 1.433 . S
C645 N647 1.384 . S
N646 C642 1.427 . S
N646 C643 1.384 . S
N647 C639 1.427 . S
N647 C645 1.384 . S
H648 C654 0.930 . S
H649 C658 0.930 . S
H650 C663 0.929 . S
H651 C661 0.929 . S
H652 C656 0.929 . S
H653 C662 0.929 . S
C654 H648 0.930 . S
C654 C655 1.367 1_556 S
C654 C662 1.378 . S
C655 C654 1.367 1_554 S
C655 C663 1.433 . S
C656 H652 0.929 . S
C656 C658 1.378 . S
C656 C660 1.350 1_554 S
C657 C660 1.463 1_564 S
C657 C662 1.350 1_554 S
C657 N665 1.427 . S
C658 H649 0.930 . S
C658 C656 1.378 . S
C658 C659 1.367 1_554 S
C659 C658 1.367 1_556 S
C659 C661 1.433 . S
C660 C656 1.350 1_556 S
C660 C657 1.463 1_546 S
C660 N664 1.427 . S
C661 H651 0.929 . S
C661 C659 1.433 . S
C661 N664 1.384 . S
C662 H653 0.929 . S
C662 C654 1.378 . S
C662 C657 1.350 1_556 S
C663 H650 0.929 . S
C663 C655 1.433 . S
C663 N665 1.384 . S
N664 C660 1.427 . S
N664 C661 1.384 . S
N665 C657 1.427 . S
N665 C663 1.384 . S
H666 C672 0.930 . S
H667 C676 0.930 . S
H668 C681 0.929 . S
H669 C679 0.929 . S
H670 C674 0.929 . S
H671 C680 0.929 . S
C672 H666 0.930 . S
C672 C673 1.367 . S
C672 C680 1.378 . S
C673 C672 1.367 . S
C673 C681 1.433 . S
C674 H670 0.929 . S
C674 C676 1.378 . S
C674 C678 1.350 . S
C675 C678 1.463 1_656 S
C675 C680 1.350 . S
C675 N683 1.427 . S
C676 H667 0.930 . S
C676 C674 1.378 . S
C676 C677 1.367 . S
C677 C676 1.367 . S
C677 C679 1.433 . S
C678 C674 1.350 . S
C678 C675 1.463 1_454 S
C678 N682 1.427 . S
C679 H669 0.929 . S
C679 C677 1.433 . S
C679 N682 1.384 . S
C680 H671 0.929 . S
C680 C672 1.378 . S
C680 C675 1.350 . S
C681 H668 0.929 . S
C681 C673 1.433 . S
C681 N683 1.384 . S
N682 C678 1.427 . S
N682 C679 1.384 . S
N683 C675 1.427 . S
N683 C681 1.384 . S
H684 C690 0.930 . S
H685 C694 0.930 . S
H686 C699 0.929 . S
H687 C697 0.929 . S
H688 C692 0.929 . S
H689 C698 0.929 . S
C690 H684 0.930 . S
C690 C691 1.367 . S
C690 C698 1.378 . S
C691 C690 1.367 . S
C691 C699 1.433 . S
C692 H688 0.929 . S
C692 C694 1.378 . S
C692 C696 1.350 . S
C693 C696 1.463 . S
C693 C698 1.350 . S
C693 N701 1.427 . S
C694 H685 0.930 . S
C694 C692 1.378 . S
C694 C695 1.367 . S
C695 C694 1.367 . S
C695 C697 1.433 . S
C696 C692 1.350 . S
C696 C693 1.463 . S
C696 N700 1.427 . S
C697 H687 0.929 . S
C697 C695 1.433 . S
C697 N700 1.384 . S
C698 H689 0.929 . S
C698 C690 1.378 . S
C698 C693 1.350 . S
C699 H686 0.929 . S
C699 C691 1.433 . S
C699 N701 1.384 . S
N700 C696 1.427 . S
N700 C697 1.384 . S
N701 C693 1.427 . S
N701 C699 1.384 . S
H702 C708 0.930 . S
H703 C712 0.930 . S
H704 C717 0.929 . S
H705 C715 0.929 . S
H706 C710 0.929 . S
H707 C716 0.929 . S
C708 H702 0.930 . S
C708 C709 1.367 . S
C708 C716 1.378 . S
C709 C708 1.367 . S
C709 C717 1.433 . S
C710 H706 0.929 . S
C710 C712 1.378 . S
C710 C714 1.350 . S
C711 C714 1.463 . S
C711 C716 1.350 . S
C711 N719 1.427 . S
C712 H703 0.930 . S
C712 C710 1.378 . S
C712 C713 1.367 . S
C713 C712 1.367 . S
C713 C715 1.433 . S
C714 C710 1.350 . S
C714 C711 1.463 . S
C714 N718 1.427 . S
C715 H705 0.929 . S
C715 C713 1.433 . S
C715 N718 1.384 . S
C716 H707 0.929 . S
C716 C708 1.378 . S
C716 C711 1.350 . S
C717 H704 0.929 . S
C717 C709 1.433 . S
C717 N719 1.384 . S
N718 C714 1.427 . S
N718 C715 1.384 . S
N719 C711 1.427 . S
N719 C717 1.384 . S
H720 C726 0.930 . S
H721 C730 0.930 . S
H722 C735 0.929 . S
H723 C733 0.929 . S
H724 C728 0.929 . S
H725 C734 0.929 . S
C726 H720 0.930 . S
C726 C727 1.367 . S
C726 C734 1.378 . S
C727 C726 1.367 . S
C727 C735 1.433 . S
C728 H724 0.929 . S
C728 C730 1.378 . S
C728 C732 1.350 . S
C729 C732 1.463 . S
C729 C734 1.350 . S
C729 N737 1.427 . S
C730 H721 0.930 . S
C730 C728 1.378 . S
C730 C731 1.367 . S
C731 C730 1.367 . S
C731 C733 1.433 . S
C732 C728 1.350 . S
C732 C729 1.463 . S
C732 N736 1.427 . S
C733 H723 0.929 . S
C733 C731 1.433 . S
C733 N736 1.384 . S
C734 H725 0.929 . S
C734 C726 1.378 . S
C734 C729 1.350 . S
C735 H722 0.929 . S
C735 C727 1.433 . S
C735 N737 1.384 . S
N736 C732 1.427 . S
N736 C733 1.384 . S
N737 C729 1.427 . S
N737 C735 1.384 . S
H738 C744 0.930 . S
H739 C748 0.930 . S
H740 C753 0.929 . S
H741 C751 0.929 . S
H742 C746 0.929 . S
H743 C752 0.929 . S
C744 H738 0.930 . S
C744 C745 1.367 . S
C744 C752 1.378 . S
C745 C744 1.367 . S
C745 C753 1.433 . S
C746 H742 0.929 . S
C746 C748 1.378 . S
C746 C750 1.350 . S
C747 C750 1.463 . S
C747 C752 1.350 . S
C747 N755 1.427 . S
C748 H739 0.930 . S
C748 C746 1.378 . S
C748 C749 1.367 . S
C749 C748 1.367 . S
C749 C751 1.433 . S
C750 C746 1.350 . S
C750 C747 1.463 . S
C750 N754 1.427 . S
C751 H741 0.929 . S
C751 C749 1.433 . S
C751 N754 1.384 . S
C752 H743 0.929 . S
C752 C744 1.378 . S
C752 C747 1.350 . S
C753 H740 0.929 . S
C753 C745 1.433 . S
C753 N755 1.384 . S
N754 C750 1.427 . S
N754 C751 1.384 . S
N755 C747 1.427 . S
N755 C753 1.384 . S
H756 C762 0.930 . S
H757 C766 0.930 . S
H758 C771 0.929 . S
H759 C769 0.929 . S
H760 C764 0.929 . S
H761 C770 0.929 . S
C762 H756 0.930 . S
C762 C763 1.367 . S
C762 C770 1.378 . S
C763 C762 1.367 . S
C763 C771 1.433 . S
C764 H760 0.929 . S
C764 C766 1.378 . S
C764 C768 1.350 . S
C765 C768 1.463 . S
C765 C770 1.350 . S
C765 N773 1.427 . S
C766 H757 0.930 . S
C766 C764 1.378 . S
C766 C767 1.367 . S
C767 C766 1.367 . S
C767 C769 1.433 . S
C768 C764 1.350 . S
C768 C765 1.463 . S
C768 N772 1.427 . S
C769 H759 0.929 . S
C769 C767 1.433 . S
C769 N772 1.384 . S
C770 H761 0.929 . S
C770 C762 1.378 . S
C770 C765 1.350 . S
C771 H758 0.929 . S
C771 C763 1.433 . S
C771 N773 1.384 . S
N772 C768 1.427 . S
N772 C769 1.384 . S
N773 C765 1.427 . S
N773 C771 1.384 . S
H774 C780 0.930 . S
H775 C784 0.930 . S
H776 C789 0.929 . S
H777 C787 0.929 . S
H778 C782 0.929 . S
H779 C788 0.929 . S
C780 H774 0.930 . S
C780 C781 1.367 . S
C780 C788 1.378 . S
C781 C780 1.367 . S
C781 C789 1.433 . S
C782 H778 0.929 . S
C782 C784 1.378 . S
C782 C786 1.350 . S
C783 C786 1.463 . S
C783 C788 1.350 . S
C783 N791 1.427 . S
C784 H775 0.930 . S
C784 C782 1.378 . S
C784 C785 1.367 . S
C785 C784 1.367 . S
C785 C787 1.433 . S
C786 C782 1.350 . S
C786 C783 1.463 . S
C786 N790 1.427 . S
C787 H777 0.929 . S
C787 C785 1.433 . S
C787 N790 1.384 . S
C788 H779 0.929 . S
C788 C780 1.378 . S
C788 C783 1.350 . S
C789 H776 0.929 . S
C789 C781 1.433 . S
C789 N791 1.384 . S
N790 C786 1.427 . S
N790 C787 1.384 . S
N791 C783 1.427 . S
N791 C789 1.384 . S
H792 C798 0.930 . S
H793 C802 0.930 . S
H794 C807 0.929 . S
H795 C805 0.929 . S
H796 C800 0.929 . S
H797 C806 0.929 . S
C798 H792 0.930 . S
C798 C799 1.367 . S
C798 C806 1.378 . S
C799 C798 1.367 . S
C799 C807 1.433 . S
C800 H796 0.929 . S
C800 C802 1.378 . S
C800 C804 1.350 . S
C801 C804 1.463 . S
C801 C806 1.350 . S
C801 N809 1.427 . S
C802 H793 0.930 . S
C802 C800 1.378 . S
C802 C803 1.367 . S
C803 C802 1.367 . S
C803 C805 1.433 . S
C804 C800 1.350 . S
C804 C801 1.463 . S
C804 N808 1.427 . S
C805 H795 0.929 . S
C805 C803 1.433 . S
C805 N808 1.384 . S
C806 H797 0.929 . S
C806 C798 1.378 . S
C806 C801 1.350 . S
C807 H794 0.929 . S
C807 C799 1.433 . S
C807 N809 1.384 . S
N808 C804 1.427 . S
N808 C805 1.384 . S
N809 C801 1.427 . S
N809 C807 1.384 . S
H810 C816 0.930 . S
H811 C820 0.930 . S
H812 C825 0.929 . S
H813 C823 0.929 . S
H814 C818 0.929 . S
H815 C824 0.929 . S
C816 H810 0.930 . S
C816 C817 1.367 . S
C816 C824 1.378 . S
C817 C816 1.367 . S
C817 C825 1.433 . S
C818 H814 0.929 . S
C818 C820 1.378 . S
C818 C822 1.350 . S
C819 C822 1.463 . S
C819 C824 1.350 . S
C819 N827 1.427 . S
C820 H811 0.930 . S
C820 C818 1.378 . S
C820 C821 1.367 . S
C821 C820 1.367 . S
C821 C823 1.433 . S
C822 C818 1.350 . S
C822 C819 1.463 . S
C822 N826 1.427 . S
C823 H813 0.929 . S
C823 C821 1.433 . S
C823 N826 1.384 . S
C824 H815 0.929 . S
C824 C816 1.378 . S
C824 C819 1.350 . S
C825 H812 0.929 . S
C825 C817 1.433 . S
C825 N827 1.384 . S
N826 C822 1.427 . S
N826 C823 1.384 . S
N827 C819 1.427 . S
N827 C825 1.384 . S
H828 C834 0.930 . S
H829 C838 0.930 . S
H830 C843 0.929 . S
H831 C841 0.929 . S
H832 C836 0.929 . S
H833 C842 0.929 . S
C834 H828 0.930 . S
C834 C835 1.367 . S
C834 C842 1.378 . S
C835 C834 1.367 . S
C835 C843 1.433 . S
C836 H832 0.929 . S
C836 C838 1.378 . S
C836 C840 1.350 . S
C837 C840 1.463 . S
C837 C842 1.350 . S
C837 N845 1.427 . S
C838 H829 0.930 . S
C838 C836 1.378 . S
C838 C839 1.367 . S
C839 C838 1.367 . S
C839 C841 1.433 . S
C840 C836 1.350 . S
C840 C837 1.463 . S
C840 N844 1.427 . S
C841 H831 0.929 . S
C841 C839 1.433 . S
C841 N844 1.384 . S
C842 H833 0.929 . S
C842 C834 1.378 . S
C842 C837 1.350 . S
C843 H830 0.929 . S
C843 C835 1.433 . S
C843 N845 1.384 . S
N844 C840 1.427 . S
N844 C841 1.384 . S
N845 C837 1.427 . S
N845 C843 1.384 . S
H846 C852 0.930 . S
H847 C856 0.930 . S
H848 C861 0.929 . S
H849 C859 0.929 . S
H850 C854 0.929 . S
H851 C860 0.929 . S
C852 H846 0.930 . S
C852 C853 1.367 . S
C852 C860 1.378 . S
C853 C852 1.367 . S
C853 C861 1.433 . S
C854 H850 0.929 . S
C854 C856 1.378 . S
C854 C858 1.350 . S
C855 C858 1.463 . S
C855 C860 1.350 . S
C855 N863 1.427 . S
C856 H847 0.930 . S
C856 C854 1.378 . S
C856 C857 1.367 . S
C857 C856 1.367 . S
C857 C859 1.433 . S
C858 C854 1.350 . S
C858 C855 1.463 . S
C858 N862 1.427 . S
C859 H849 0.929 . S
C859 C857 1.433 . S
C859 N862 1.384 . S
C860 H851 0.929 . S
C860 C852 1.378 . S
C860 C855 1.350 . S
C861 H848 0.929 . S
C861 C853 1.433 . S
C861 N863 1.384 . S
N862 C858 1.427 . S
N862 C859 1.384 . S
N863 C855 1.427 . S
N863 C861 1.384 . S
H864 C870 0.930 . S
H865 C874 0.930 . S
H866 C879 0.929 . S
H867 C877 0.929 . S
H868 C872 0.929 . S
H869 C878 0.929 . S
C870 H864 0.930 . S
C870 C871 1.367 . S
C870 C878 1.378 . S
C871 C870 1.367 . S
C871 C879 1.433 . S
C872 H868 0.929 . S
C872 C874 1.378 . S
C872 C876 1.350 . S
C873 C876 1.463 . S
C873 C878 1.350 . S
C873 N881 1.427 . S
C874 H865 0.930 . S
C874 C872 1.378 . S
C874 C875 1.367 . S
C875 C874 1.367 . S
C875 C877 1.433 . S
C876 C872 1.350 . S
C876 C873 1.463 . S
C876 N880 1.427 . S
C877 H867 0.929 . S
C877 C875 1.433 . S
C877 N880 1.384 . S
C878 H869 0.929 . S
C878 C870 1.378 . S
C878 C873 1.350 . S
C879 H866 0.929 . S
C879 C871 1.433 . S
C879 N881 1.384 . S
N880 C876 1.427 . S
N880 C877 1.384 . S
N881 C873 1.427 . S
N881 C879 1.384 . S
H882 C888 0.930 . S
H883 C892 0.930 . S
H884 C897 0.929 . S
H885 C895 0.929 . S
H886 C890 0.929 . S
H887 C896 0.929 . S
C888 H882 0.930 . S
C888 C889 1.367 . S
C888 C896 1.378 . S
C889 C888 1.367 . S
C889 C897 1.433 . S
C890 H886 0.929 . S
C890 C892 1.378 . S
C890 C894 1.350 . S
C891 C894 1.463 . S
C891 C896 1.350 . S
C891 N899 1.427 . S
C892 H883 0.930 . S
C892 C890 1.378 . S
C892 C893 1.367 . S
C893 C892 1.367 . S
C893 C895 1.433 . S
C894 C890 1.350 . S
C894 C891 1.463 . S
C894 N898 1.427 . S
C895 H885 0.929 . S
C895 C893 1.433 . S
C895 N898 1.384 . S
C896 H887 0.929 . S
C896 C888 1.378 . S
C896 C891 1.350 . S
C897 H884 0.929 . S
C897 C889 1.433 . S
C897 N899 1.384 . S
N898 C894 1.427 . S
N898 C895 1.384 . S
N899 C891 1.427 . S
N899 C897 1.384 . S
C259 C241 1.853 . S
C263 C3 1.855 . S
C277 C213 1.853 . S
C281 C17 1.855 . S
C295 C227 1.853 . S
C299 C31 1.854 . S
C313 C101 1.854 . S
C317 C45 1.853 . S
C331 C115 1.853 . S
C335 C59 1.854 . S
C349 C73 1.853 . S
C353 C87 1.855 . S
C367 C129 1.853 . S
C371 C185 1.854 . S
C385 C143 1.853 . S
C389 C199 1.855 . S
C403 C157 1.854 . S
C407 C171 1.855 . S
C421 C7 0.444 . S
C425 C245 0.427 . S
C439 C217 0.445 . S
C443 C21 0.426 . S
C457 C35 0.442 . S
C461 C231 0.431 . S
C475 C105 0.424 . S
C479 C49 0.431 . S
C493 C63 0.445 . S
C497 C119 0.417 . S
C511 C77 0.446 . S
C515 C91 0.424 . S
C529 C133 0.435 . S
C533 C189 0.420 . S
C547 C203 0.447 . S
C551 C147 0.419 . S
C565 C175 0.424 . S
C569 C161 0.431 . S
C583 C9 1.735 . S
C587 C51 1.732 . S
C601 C65 1.730 . S
C605 C23 1.732 . S
C619 C79 1.730 . S
C623 C37 1.731 . S
C637 C78 1.720 . S
C641 C22 1.718 . S
C655 C36 1.721 . S
C659 C50 1.718 . S
C673 C64 1.719 . S
C677 C8 1.723 . S
C691 C93 1.735 . S
C695 C135 1.731 . S
C709 C149 1.735 . S
C713 C107 1.733 . S
C727 C163 1.730 . S
C731 C121 1.732 . S
C745 C162 1.722 . S
C749 C106 1.722 . S
C763 C120 1.723 . S
C767 C134 1.719 . S
C781 C148 1.721 . S
C785 C92 1.718 . S
C799 C219 1.730 . S
C803 C177 1.730 . S
C817 C233 1.734 . S
C821 C191 1.730 . S
C835 C205 1.733 . S
C839 C247 1.730 . S
C853 C246 1.720 . S
C857 C190 1.723 . S
C871 C204 1.722 . S
C875 C218 1.723 . S
C889 C232 1.723 . S
C893 C176 1.721 . S
