# Generated by pormake.
# Topology cds-f, (5)-cn, num edge types: 1
# Building blocks:
#     Node 0, Type 0, BuildingBlock: XOMCOT_clean_sbu_0, # of connection points: 5
#     Node 1, Type 0, BuildingBlock: XOMCOT_clean_sbu_0, # of connection points: 5
#     Node 2, Type 0, BuildingBlock: XOMCOT_clean_sbu_0, # of connection points: 5
#     Node 3, Type 0, BuildingBlock: XOMCOT_clean_sbu_0, # of connection points: 5
#     Node 4, Type 0, BuildingBlock: XOMCOT_clean_sbu_0, # of connection points: 5
#     Node 5, Type 0, BuildingBlock: XOMCOT_clean_sbu_0, # of connection points: 5
#     Node 6, Type 0, BuildingBlock: XOMCOT_clean_sbu_0, # of connection points: 5
#     Node 7, Type 0, BuildingBlock: XOMCOT_clean_sbu_0, # of connection points: 5
#     Node 8, Type 0, BuildingBlock: XOMCOT_clean_sbu_0, # of connection points: 5
#     Node 9, Type 0, BuildingBlock: XOMCOT_clean_sbu_0, # of connection points: 5
#     Node 10, Type 0, BuildingBlock: XOMCOT_clean_sbu_0, # of connection points: 5
#     Node 11, Type 0, BuildingBlock: XOMCOT_clean_sbu_0, # of connection points: 5
#     Node 12, Type 0, BuildingBlock: XOMCOT_clean_sbu_0, # of connection points: 5
#     Node 13, Type 0, BuildingBlock: XOMCOT_clean_sbu_0, # of connection points: 5
#     Node 14, Type 0, BuildingBlock: XOMCOT_clean_sbu_0, # of connection points: 5
#     Node 15, Type 0, BuildingBlock: XOMCOT_clean_sbu_0, # of connection points: 5
#     Edge 16, Type (0, 0), BuildingBlock: ZUJKAS_clean_linker_0, # of connection points: 2
#     Edge 17, Type (0, 0), BuildingBlock: ZUJKAS_clean_linker_0, # of connection points: 2
#     Edge 18, Type (0, 0), BuildingBlock: ZUJKAS_clean_linker_0, # of connection points: 2
#     Edge 19, Type (0, 0), BuildingBlock: ZUJKAS_clean_linker_0, # of connection points: 2
#     Edge 20, Type (0, 0), BuildingBlock: ZUJKAS_clean_linker_0, # of connection points: 2
#     Edge 21, Type (0, 0), BuildingBlock: ZUJKAS_clean_linker_0, # of connection points: 2
#     Edge 22, Type (0, 0), BuildingBlock: ZUJKAS_clean_linker_0, # of connection points: 2
#     Edge 23, Type (0, 0), BuildingBlock: ZUJKAS_clean_linker_0, # of connection points: 2
#     Edge 24, Type (0, 0), BuildingBlock: ZUJKAS_clean_linker_0, # of connection points: 2
#     Edge 25, Type (0, 0), BuildingBlock: ZUJKAS_clean_linker_0, # of connection points: 2
#     Edge 26, Type (0, 0), BuildingBlock: ZUJKAS_clean_linker_0, # of connection points: 2
#     Edge 27, Type (0, 0), BuildingBlock: ZUJKAS_clean_linker_0, # of connection points: 2
#     Edge 28, Type (0, 0), BuildingBlock: ZUJKAS_clean_linker_0, # of connection points: 2
#     Edge 29, Type (0, 0), BuildingBlock: ZUJKAS_clean_linker_0, # of connection points: 2
#     Edge 30, Type (0, 0), BuildingBlock: ZUJKAS_clean_linker_0, # of connection points: 2
#     Edge 31, Type (0, 0), BuildingBlock: ZUJKAS_clean_linker_0, # of connection points: 2
#     Edge 32, Type (0, 0), BuildingBlock: ZUJKAS_clean_linker_0, # of connection points: 2
#     Edge 33, Type (0, 0), BuildingBlock: ZUJKAS_clean_linker_0, # of connection points: 2
#     Edge 34, Type (0, 0), BuildingBlock: ZUJKAS_clean_linker_0, # of connection points: 2
#     Edge 35, Type (0, 0), BuildingBlock: ZUJKAS_clean_linker_0, # of connection points: 2
#     Edge 36, Type (0, 0), BuildingBlock: ZUJKAS_clean_linker_0, # of connection points: 2
#     Edge 37, Type (0, 0), BuildingBlock: ZUJKAS_clean_linker_0, # of connection points: 2
#     Edge 38, Type (0, 0), BuildingBlock: ZUJKAS_clean_linker_0, # of connection points: 2
#     Edge 39, Type (0, 0), BuildingBlock: ZUJKAS_clean_linker_0, # of connection points: 2
#     Edge 40, Type (0, 0), BuildingBlock: ZUJKAS_clean_linker_0, # of connection points: 2
#     Edge 41, Type (0, 0), BuildingBlock: ZUJKAS_clean_linker_0, # of connection points: 2
#     Edge 42, Type (0, 0), BuildingBlock: ZUJKAS_clean_linker_0, # of connection points: 2
#     Edge 43, Type (0, 0), BuildingBlock: ZUJKAS_clean_linker_0, # of connection points: 2
#     Edge 44, Type (0, 0), BuildingBlock: ZUJKAS_clean_linker_0, # of connection points: 2
#     Edge 45, Type (0, 0), BuildingBlock: ZUJKAS_clean_linker_0, # of connection points: 2
#     Edge 46, Type (0, 0), BuildingBlock: ZUJKAS_clean_linker_0, # of connection points: 2
#     Edge 47, Type (0, 0), BuildingBlock: ZUJKAS_clean_linker_0, # of connection points: 2
#     Edge 48, Type (0, 0), BuildingBlock: ZUJKAS_clean_linker_0, # of connection points: 2
#     Edge 49, Type (0, 0), BuildingBlock: ZUJKAS_clean_linker_0, # of connection points: 2
#     Edge 50, Type (0, 0), BuildingBlock: ZUJKAS_clean_linker_0, # of connection points: 2
#     Edge 51, Type (0, 0), BuildingBlock: ZUJKAS_clean_linker_0, # of connection points: 2
#     Edge 52, Type (0, 0), BuildingBlock: ZUJKAS_clean_linker_0, # of connection points: 2
#     Edge 53, Type (0, 0), BuildingBlock: ZUJKAS_clean_linker_0, # of connection points: 2
#     Edge 54, Type (0, 0), BuildingBlock: ZUJKAS_clean_linker_0, # of connection points: 2
#     Edge 55, Type (0, 0), BuildingBlock: ZUJKAS_clean_linker_0, # of connection points: 2
# Relax obj value: 0.288
# Max RMSD: 0.220
# Mean RMSD: 0.216
data_MOF--net-cds-f--node1-XOMCOT_clean_sbu_0--edge1-ZUJKAS_clean_linker_0
_symmetry_space_group_name_H-M    P1
_symmetry_Int_Tables_number       1
_symmetry_cell_setting            triclinic
loop_
_symmetry_equiv_pos_as_xyz
'x, y, z'
_cell_length_a     44.43123
_cell_length_b     44.399673
_cell_length_c     73.812909
_cell_angle_alpha  89.944821
_cell_angle_beta   90.014676
_cell_angle_gamma 93.264527
loop_
_atom_site_label
_atom_site_type_symbol
_atom_site_fract_x
_atom_site_fract_y
_atom_site_fract_z
_atom_type_partial_charge
Co0 Co 0.24955 0.27421 0.12093 0.0
C1 C 0.18295 0.27553 0.11631 0.0
C2 C 0.20172 0.24032 0.10074 0.0
C3 C 0.17107 0.23911 0.098 0.0
N4 N 0.20926 0.26331 0.11206 0.0
N5 N 0.15924 0.26114 0.10782 0.0
H6 H 0.18118 0.29443 0.12542 0.0
H7 H 0.21725 0.22497 0.09512 0.0
C8 C 0.28592 0.26712 0.08715 0.0
O9 O 0.30022 0.29313 0.09083 0.0
N10 N 0.29038 0.28407 0.13029 0.0
C11 C 0.29785 0.3019 0.14462 0.0
C12 C 0.32815 0.30084 0.14811 0.0
C13 C 0.31643 0.27115 0.12599 0.0
N14 N 0.33995 0.28163 0.13632 0.0
C15 C 0.25248 0.3387 0.11936 0.0
C16 C 0.24313 0.34437 0.08254 0.0
C17 C 0.25153 0.3702 0.0927 0.0
C18 C 0.25485 0.36717 0.11146 0.0
C19 C 0.24082 0.31613 0.09112 0.0
N20 N 0.24792 0.3134 0.10907 0.0
H21 H 0.25428 0.33717 0.13383 0.0
H22 H 0.23443 0.29637 0.08316 0.0
H23 H 0.28234 0.31392 0.15277 0.0
H24 H 0.31811 0.25351 0.11603 0.0
O25 O 0.23263 0.28491 0.14379 0.0
O26 O 0.24725 0.23933 0.13693 0.0
O27 O 0.26653 0.25557 0.09835 0.0
C28 C 0.23584 0.25726 0.14879 0.0
H29 H 0.15831 0.2226 0.08987 0.0
H30 H 0.34047 0.3132 0.15864 0.0
H31 H 0.23935 0.34579 0.06808 0.0
H32 H 0.25944 0.38669 0.12002 0.0
Co33 Co 0.78766 0.27297 0.61843 0.0
C34 C 0.79157 0.33949 0.62262 0.0
C35 C 0.82791 0.31892 0.63618 0.0
C36 C 0.83129 0.34975 0.63851 0.0
N37 N 0.80298 0.31254 0.62628 0.0
N38 N 0.8084 0.3628 0.63001 0.0
H39 H 0.77125 0.34181 0.61481 0.0
H40 H 0.84277 0.30234 0.6412 0.0
C41 C 0.78219 0.23592 0.65223 0.0
O42 O 0.75632 0.22468 0.64584 0.0
N43 N 0.77291 0.23293 0.61004 0.0
C44 C 0.75185 0.22631 0.59723 0.0
C45 C 0.75063 0.19583 0.59382 0.0
C46 C 0.78502 0.20618 0.61364 0.0
N47 N 0.77135 0.18311 0.60421 0.0
C48 C 0.72617 0.28746 0.6137 0.0
C49 C 0.71172 0.29246 0.64992 0.0
C50 C 0.68886 0.29363 0.63692 0.0
C51 C 0.6966 0.29229 0.61859 0.0
C52 C 0.74127 0.2882 0.64434 0.0
N53 N 0.74761 0.28301 0.62651 0.0
H54 H 0.73167 0.28735 0.59951 0.0
H55 H 0.75884 0.2888 0.65444 0.0
H56 H 0.73901 0.2423 0.59004 0.0
H57 H 0.8039 0.20372 0.62268 0.0
O58 O 0.78568 0.28778 0.59403 0.0
O59 O 0.8252 0.26663 0.60583 0.0
O60 O 0.7978 0.25575 0.64306 0.0
C61 C 0.81255 0.27842 0.59176 0.0
H62 H 0.84964 0.36154 0.64567 0.0
H63 H 0.73566 0.18397 0.58433 0.0
H64 H 0.70679 0.29476 0.66421 0.0
H65 H 0.67977 0.29399 0.60807 0.0
Co66 Co 0.77122 0.76491 0.11864 0.0
C67 C 0.83891 0.77322 0.11824 0.0
C68 C 0.81951 0.77467 0.09168 0.0
C69 C 0.85037 0.7773 0.09004 0.0
N70 N 0.81213 0.77243 0.10937 0.0
N71 N 0.86264 0.77632 0.10673 0.0
H72 H 0.84117 0.77104 0.13275 0.0
H73 H 0.80357 0.77332 0.0806 0.0
C74 C 0.76212 0.81632 0.09451 0.0
O75 O 0.77911 0.83258 0.10581 0.0
N76 N 0.7304 0.75655 0.12758 0.0
C77 C 0.72187 0.73263 0.13799 0.0
C78 C 0.69106 0.73107 0.1397 0.0
C79 C 0.70442 0.76931 0.12305 0.0
N80 N 0.67996 0.75394 0.13021 0.0
C81 C 0.78665 0.70643 0.10752 0.0
C82 C 0.73861 0.69576 0.08407 0.0
C83 C 0.75763 0.67233 0.08775 0.0
C84 C 0.78232 0.6782 0.09935 0.0
C85 C 0.74368 0.72363 0.09259 0.0
N86 N 0.76715 0.72844 0.10437 0.0
H87 H 0.80509 0.71036 0.11694 0.0
H88 H 0.72793 0.74088 0.09028 0.0
H89 H 0.73692 0.71655 0.14339 0.0
H90 H 0.70324 0.78838 0.11399 0.0
O91 O 0.78658 0.74822 0.14062 0.0
O92 O 0.77773 0.79644 0.13666 0.0
O93 O 0.75557 0.78863 0.09798 0.0
C94 C 0.7863 0.77521 0.14738 0.0
H95 H 0.8628 0.77846 0.07743 0.0
H96 H 0.67779 0.71398 0.14711 0.0
H97 H 0.71945 0.69235 0.07509 0.0
H98 H 0.79736 0.66073 0.10283 0.0
Co99 Co 0.25899 0.78076 0.6156 0.0
C100 C 0.25808 0.71446 0.62116 0.0
C101 C 0.22159 0.73449 0.63487 0.0
C102 C 0.21908 0.70377 0.63763 0.0
N103 N 0.24606 0.74117 0.62461 0.0
N104 N 0.24202 0.69106 0.62902 0.0
H105 H 0.27807 0.71234 0.613 0.0
H106 H 0.20625 0.75076 0.63968 0.0
C107 C 0.25973 0.8206 0.6483 0.0
O108 O 0.28463 0.83421 0.64206 0.0
N109 N 0.27118 0.82085 0.60605 0.0
C110 C 0.29273 0.82801 0.59364 0.0
C111 C 0.29323 0.8584 0.5901 0.0
C112 C 0.25772 0.84708 0.609 0.0
N113 N 0.27138 0.87057 0.59988 0.0
C114 C 0.32211 0.77202 0.61248 0.0
C115 C 0.33519 0.77176 0.64906 0.0
C116 C 0.35882 0.77396 0.63652 0.0
C117 C 0.35201 0.77257 0.61805 0.0
C118 C 0.30541 0.77154 0.6428 0.0
N119 N 0.29944 0.7747 0.62472 0.0
H120 H 0.31734 0.76985 0.59824 0.0
H121 H 0.28733 0.76954 0.65256 0.0
H122 H 0.30676 0.81251 0.58695 0.0
H123 H 0.23834 0.84892 0.61771 0.0
O124 O 0.26335 0.76408 0.59187 0.0
O125 O 0.22148 0.78283 0.60222 0.0
O126 O 0.2465 0.79887 0.63946 0.0
C127 C 0.2357 0.77065 0.58888 0.0
H128 H 0.2011 0.69175 0.645 0.0
H129 H 0.30889 0.87056 0.58114 0.0
H130 H 0.33967 0.77138 0.66348 0.0
H131 H 0.36974 0.77241 0.60797 0.0
Co132 Co 0.29032 0.79217 0.87297 0.0
C133 C 0.35876 0.79745 0.8735 0.0
C134 C 0.33846 0.83982 0.87066 0.0
C135 C 0.3693 0.845 0.87044 0.0
N136 N 0.33166 0.80996 0.87239 0.0
N137 N 0.38208 0.81834 0.87221 0.0
H138 H 0.36188 0.77372 0.87475 0.0
H139 H 0.32199 0.85672 0.86941 0.0
C140 C 0.30013 0.81289 0.83535 0.0
O141 O 0.32662 0.80146 0.837 0.0
N142 N 0.24915 0.77526 0.87408 0.0
C143 C 0.24079 0.74718 0.87977 0.0
C144 C 0.2099 0.74361 0.87955 0.0
C145 C 0.22312 0.78868 0.87079 0.0
N146 N 0.19871 0.76965 0.87394 0.0
C147 C 0.31716 0.73495 0.87075 0.0
C148 C 0.2903 0.71708 0.83845 0.0
C149 C 0.30675 0.69642 0.84809 0.0
C150 C 0.3207 0.70583 0.86431 0.0
C151 C 0.28722 0.7459 0.8454 0.0
N152 N 0.30123 0.755 0.86115 0.0
H153 H 0.3258 0.74072 0.88404 0.0
H154 H 0.27167 0.75995 0.83867 0.0
H155 H 0.25612 0.73056 0.88414 0.0
H156 H 0.22208 0.81182 0.86632 0.0
O157 O 0.29595 0.78023 0.89767 0.0
O158 O 0.2795 0.82427 0.88918 0.0
O159 O 0.28185 0.81174 0.84879 0.0
C160 C 0.28639 0.80622 0.9023 0.0
H161 H 0.38135 0.86679 0.86922 0.0
H162 H 0.19665 0.72365 0.88382 0.0
H163 H 0.2786 0.71059 0.82605 0.0
H164 H 0.33256 0.69023 0.87261 0.0
Co165 Co 0.2611 0.24666 0.37001 0.0
C166 C 0.25617 0.17834 0.37109 0.0
C167 C 0.21478 0.19862 0.37712 0.0
C168 C 0.20963 0.16779 0.37748 0.0
N169 N 0.24411 0.20543 0.37344 0.0
N170 N 0.23568 0.15496 0.37367 0.0
H171 H 0.27895 0.17539 0.3669 0.0
H172 H 0.19816 0.21511 0.37933 0.0
C173 C 0.23963 0.24379 0.40784 0.0
O174 O 0.25278 0.21803 0.40845 0.0
N175 N 0.27704 0.28768 0.36605 0.0
C176 C 0.30393 0.29546 0.3585 0.0
C177 C 0.30719 0.32636 0.35736 0.0
C178 C 0.26415 0.314 0.36938 0.0
N179 N 0.28218 0.33814 0.36413 0.0
C180 C 0.31852 0.22122 0.37507 0.0
C181 C 0.33588 0.2553 0.40497 0.0
C182 C 0.3566 0.23647 0.3972 0.0
C183 C 0.34732 0.21888 0.38224 0.0
C184 C 0.30711 0.25667 0.39749 0.0
N185 N 0.2983 0.23914 0.38296 0.0
H186 H 0.31342 0.21013 0.36238 0.0
H187 H 0.29276 0.27344 0.4027 0.0
H188 H 0.32009 0.27969 0.35409 0.0
H189 H 0.24191 0.31538 0.37518 0.0
O190 O 0.27375 0.23602 0.34608 0.0
O191 O 0.22911 0.253 0.35265 0.0
O192 O 0.24073 0.25939 0.39321 0.0
C193 C 0.24745 0.24328 0.34046 0.0
H194 H 0.18827 0.15585 0.38039 0.0
H195 H 0.32674 0.33915 0.3521 0.0
H196 H 0.34238 0.27032 0.41602 0.0
H197 H 0.36261 0.20432 0.37556 0.0
Co198 Co 0.77356 0.25595 0.87455 0.0
C199 C 0.70589 0.25284 0.87265 0.0
C200 C 0.72531 0.22292 0.85378 0.0
C201 C 0.69452 0.22019 0.85197 0.0
N202 N 0.73272 0.24376 0.86654 0.0
N203 N 0.68219 0.2391 0.86376 0.0
H204 H 0.70358 0.26889 0.88344 0.0
H205 H 0.74087 0.20988 0.84637 0.0
C206 C 0.79915 0.22014 0.84412 0.0
O207 O 0.80056 0.19658 0.8548 0.0
N208 N 0.81403 0.268 0.88258 0.0
C209 C 0.82124 0.29113 0.89385 0.0
C210 C 0.85194 0.29299 0.89643 0.0
C211 C 0.84047 0.256 0.87847 0.0
N212 N 0.86409 0.27092 0.88676 0.0
C213 C 0.75127 0.31541 0.87499 0.0
C214 C 0.79021 0.33946 0.84887 0.0
C215 C 0.7722 0.3588 0.85846 0.0
C216 C 0.75201 0.34633 0.87138 0.0
C217 C 0.78884 0.30875 0.85291 0.0
N218 N 0.76955 0.29693 0.86586 0.0
H219 H 0.73748 0.30688 0.88605 0.0
H220 H 0.80504 0.29517 0.84645 0.0
H221 H 0.80524 0.30584 0.89966 0.0
H222 H 0.84244 0.23666 0.86978 0.0
O223 O 0.75924 0.26083 0.89881 0.0
O224 O 0.77568 0.21825 0.88797 0.0
O225 O 0.78927 0.24458 0.85014 0.0
C226 C 0.76513 0.23296 0.90165 0.0
H227 H 0.68219 0.20483 0.84291 0.0
H228 H 0.86441 0.30981 0.90448 0.0
H229 H 0.80623 0.34815 0.83882 0.0
H230 H 0.73827 0.36055 0.87947 0.0
Co231 Co 0.76707 0.76577 0.36512 0.0
C232 C 0.76905 0.83272 0.36878 0.0
C233 C 0.80778 0.81332 0.38043 0.0
C234 C 0.81119 0.84418 0.38206 0.0
N235 N 0.78135 0.8061 0.3722 0.0
N236 N 0.78687 0.85653 0.37473 0.0
H237 H 0.7477 0.83454 0.36192 0.0
H238 H 0.82395 0.7973 0.38449 0.0
C239 C 0.77676 0.72818 0.39818 0.0
O240 O 0.75098 0.7133 0.39475 0.0
N241 N 0.75354 0.72489 0.3575 0.0
C242 C 0.72868 0.71663 0.3478 0.0
C243 C 0.72777 0.68606 0.34484 0.0
C244 C 0.76826 0.69906 0.35935 0.0
N245 N 0.75246 0.67482 0.35228 0.0
C246 C 0.70377 0.7745 0.36808 0.0
C247 C 0.70069 0.77665 0.40542 0.0
C248 C 0.67393 0.77635 0.39536 0.0
C249 C 0.67585 0.77636 0.37644 0.0
C250 C 0.72831 0.7753 0.3964 0.0
N251 N 0.72935 0.77153 0.37801 0.0
H252 H 0.70462 0.77553 0.35352 0.0
H253 H 0.74872 0.77727 0.40432 0.0
H254 H 0.71253 0.73153 0.34255 0.0
H255 H 0.78972 0.69791 0.36617 0.0
O256 O 0.75576 0.78079 0.34187 0.0
O257 O 0.80068 0.76426 0.34832 0.0
O258 O 0.78656 0.74943 0.38764 0.0
C259 C 0.78266 0.77535 0.3364 0.0
H260 H 0.83072 0.85654 0.38764 0.0
H261 H 0.71037 0.67317 0.33746 0.0
H262 H 0.70027 0.77811 0.42006 0.0
H263 H 0.65584 0.77701 0.36809 0.0
Co264 Co 0.78896 0.78071 0.88058 0.0
C265 C 0.85744 0.78649 0.88365 0.0
C266 C 0.83677 0.82853 0.88006 0.0
C267 C 0.86746 0.83417 0.88073 0.0
N268 N 0.83023 0.79863 0.8818 0.0
N269 N 0.88056 0.80775 0.88291 0.0
H270 H 0.86069 0.76279 0.88504 0.0
H271 H 0.82028 0.84515 0.87784 0.0
C272 C 0.80645 0.79551 0.84285 0.0
O273 O 0.8329 0.78611 0.84735 0.0
N274 N 0.74757 0.76414 0.87991 0.0
C275 C 0.73786 0.73649 0.8857 0.0
C276 C 0.70691 0.73434 0.88531 0.0
C277 C 0.72225 0.77863 0.87632 0.0
N278 N 0.69694 0.7609 0.87959 0.0
C279 C 0.81577 0.72365 0.88418 0.0
C280 C 0.79419 0.69982 0.85181 0.0
C281 C 0.80795 0.68087 0.86407 0.0
C282 C 0.81946 0.69329 0.88027 0.0
C283 C 0.79078 0.72989 0.85628 0.0
N284 N 0.80182 0.74176 0.87221 0.0
H285 H 0.8227 0.73215 0.89732 0.0
H286 H 0.77701 0.74271 0.84746 0.0
H287 H 0.7522 0.71931 0.89049 0.0
H288 H 0.72242 0.80208 0.87229 0.0
O289 O 0.78994 0.77319 0.90616 0.0
O290 O 0.77555 0.81548 0.89376 0.0
O291 O 0.78526 0.79548 0.85465 0.0
C292 C 0.78019 0.79994 0.90839 0.0
H293 H 0.87922 0.856 0.879 0.0
H294 H 0.69291 0.71472 0.8893 0.0
H295 H 0.78471 0.69116 0.8392 0.0
H296 H 0.8295 0.6793 0.89039 0.0
Co297 Co 0.27078 0.74814 0.36957 0.0
C298 C 0.26539 0.68095 0.37099 0.0
C299 C 0.22583 0.70123 0.38086 0.0
C300 C 0.22142 0.67039 0.38224 0.0
N301 N 0.25339 0.70785 0.3739 0.0
N302 N 0.2463 0.65755 0.37609 0.0
H303 H 0.28772 0.67862 0.36552 0.0
H304 H 0.20998 0.71774 0.38464 0.0
C305 C 0.26505 0.77979 0.40518 0.0
O306 O 0.29189 0.79305 0.40251 0.0
N307 N 0.28741 0.78913 0.36496 0.0
C308 C 0.3136 0.79803 0.35679 0.0
C309 C 0.31553 0.82895 0.35544 0.0
C310 C 0.27324 0.81498 0.3677 0.0
N311 N 0.29024 0.83968 0.36239 0.0
C312 C 0.33253 0.73314 0.36947 0.0
C313 C 0.34019 0.72901 0.40648 0.0
C314 C 0.36569 0.73079 0.39525 0.0
C315 C 0.36136 0.7309 0.37648 0.0
C316 C 0.31152 0.73113 0.39877 0.0
N317 N 0.30848 0.73653 0.38062 0.0
H318 H 0.32995 0.73363 0.35496 0.0
H319 H 0.29209 0.72942 0.40753 0.0
H320 H 0.32997 0.78349 0.35142 0.0
H321 H 0.25105 0.81564 0.37368 0.0
O322 O 0.27908 0.73758 0.34489 0.0
O323 O 0.23691 0.75696 0.35422 0.0
O324 O 0.25375 0.76115 0.3935 0.0
C325 C 0.25301 0.74755 0.34084 0.0
H326 H 0.20118 0.65837 0.38717 0.0
H327 H 0.33386 0.84243 0.34929 0.0
H328 H 0.34241 0.72746 0.42106 0.0
H329 H 0.38029 0.73041 0.36725 0.0
Co330 Co 0.27434 0.27677 0.87185 0.0
C331 C 0.20691 0.26324 0.87215 0.0
C332 C 0.224 0.27826 0.8463 0.0
C333 C 0.19332 0.27355 0.84497 0.0
N334 N 0.2328 0.27143 0.86324 0.0
N335 N 0.18249 0.26416 0.86119 0.0
H336 H 0.20573 0.2571 0.88632 0.0
H337 H 0.23886 0.28699 0.8357 0.0
C338 C 0.27807 0.23807 0.83984 0.0
O339 O 0.26073 0.2182 0.84875 0.0
N340 N 0.31563 0.28299 0.88021 0.0
C341 C 0.32517 0.30433 0.89216 0.0
C342 C 0.35571 0.30295 0.89453 0.0
C343 C 0.34061 0.26891 0.87533 0.0
N344 N 0.36553 0.28072 0.88397 0.0
C345 C 0.25564 0.33674 0.86794 0.0
C346 C 0.30176 0.35661 0.84486 0.0
C347 C 0.28067 0.37693 0.85052 0.0
C348 C 0.25721 0.36663 0.86206 0.0
C349 C 0.29923 0.32684 0.85094 0.0
N350 N 0.27644 0.31735 0.86235 0.0
H351 H 0.2379 0.32909 0.87715 0.0
H352 H 0.31608 0.31162 0.84685 0.0
H353 H 0.31092 0.32026 0.89847 0.0
H354 H 0.34056 0.25058 0.86568 0.0
O355 O 0.26059 0.28508 0.89587 0.0
O356 O 0.27055 0.23963 0.88585 0.0
O357 O 0.28859 0.26166 0.84798 0.0
C358 C 0.26283 0.2566 0.89931 0.0
H359 H 0.17985 0.27792 0.83313 0.0
H360 H 0.36974 0.31788 0.90298 0.0
H361 H 0.32018 0.36373 0.83595 0.0
H362 H 0.24077 0.38177 0.86698 0.0
Co363 Co 0.76522 0.26578 0.3746 0.0
C364 C 0.77799 0.33298 0.36983 0.0
C365 C 0.78174 0.31801 0.39732 0.0
C366 C 0.78467 0.34889 0.39712 0.0
N367 N 0.77769 0.30769 0.38026 0.0
N368 N 0.78204 0.35846 0.3799 0.0
H369 H 0.77312 0.33298 0.35547 0.0
H370 H 0.78013 0.30429 0.4094 0.0
C371 C 0.79178 0.22977 0.40624 0.0
O372 O 0.778 0.20409 0.40152 0.0
N373 N 0.75196 0.22426 0.36869 0.0
C374 C 0.72327 0.21487 0.36487 0.0
C375 C 0.72223 0.18476 0.36052 0.0
C376 C 0.76827 0.19988 0.36559 0.0
N377 N 0.75045 0.17515 0.36118 0.0
C378 C 0.71089 0.29304 0.38357 0.0
C379 C 0.69025 0.25141 0.4092 0.0
C380 C 0.67107 0.27359 0.40345 0.0
C381 C 0.68228 0.29529 0.39098 0.0
C382 C 0.71902 0.25032 0.40166 0.0
N383 N 0.72866 0.27041 0.38859 0.0
H384 H 0.71834 0.30887 0.37317 0.0
H385 H 0.7324 0.23196 0.40544 0.0
H386 H 0.70421 0.22896 0.3653 0.0
H387 H 0.79253 0.20004 0.36702 0.0
O388 O 0.75016 0.27718 0.35134 0.0
O389 O 0.79679 0.26396 0.35651 0.0
O390 O 0.78848 0.25382 0.39702 0.0
C391 C 0.77654 0.27182 0.34488 0.0
H392 H 0.78715 0.36329 0.40891 0.0
H393 H 0.70203 0.17075 0.35773 0.0
H394 H 0.68255 0.23389 0.41859 0.0
H395 H 0.66864 0.31326 0.38641 0.0
Co396 Co 0.74956 0.27126 0.12264 0.0
C397 C 0.68131 0.26388 0.12578 0.0
C398 C 0.70341 0.22273 0.12956 0.0
C399 C 0.67279 0.21665 0.13118 0.0
N400 N 0.70899 0.25238 0.12615 0.0
N401 N 0.65886 0.24254 0.12875 0.0
H402 H 0.67716 0.28712 0.12331 0.0
H403 H 0.72051 0.20642 0.13051 0.0
C404 C 0.7353 0.23806 0.08848 0.0
O405 O 0.70785 0.24711 0.09028 0.0
N406 N 0.79004 0.28935 0.11969 0.0
C407 C 0.79811 0.31902 0.12081 0.0
C408 C 0.82887 0.32291 0.11899 0.0
C409 C 0.81615 0.27548 0.11761 0.0
N410 N 0.84025 0.29559 0.11704 0.0
C411 C 0.71965 0.32579 0.11671 0.0
C412 C 0.73937 0.33569 0.08159 0.0
C413 C 0.72361 0.35796 0.09029 0.0
C414 C 0.71326 0.3525 0.10796 0.0
C415 C 0.74499 0.30906 0.09077 0.0
N416 N 0.73476 0.30404 0.10807 0.0
H417 H 0.71345 0.32316 0.13078 0.0
H418 H 0.75958 0.29368 0.08434 0.0
H419 H 0.78279 0.33665 0.1232 0.0
H420 H 0.81749 0.25126 0.11672 0.0
O421 O 0.74758 0.28982 0.14615 0.0
O422 O 0.76459 0.24468 0.14111 0.0
O423 O 0.75535 0.24549 0.10038 0.0
C424 C 0.75916 0.26589 0.15266 0.0
H425 H 0.66166 0.19469 0.13354 0.0
H426 H 0.842 0.34418 0.11972 0.0
H427 H 0.74843 0.33937 0.06809 0.0
H428 H 0.702 0.36956 0.11545 0.0
Co429 Co 0.77292 0.77073 0.61448 0.0
C430 C 0.77849 0.83922 0.61045 0.0
C431 C 0.82077 0.81831 0.61052 0.0
C432 C 0.82634 0.84895 0.60877 0.0
N433 N 0.79076 0.81193 0.61159 0.0
N434 N 0.79978 0.86214 0.60881 0.0
H435 H 0.75478 0.84278 0.61116 0.0
H436 H 0.83766 0.80178 0.61137 0.0
C437 C 0.79478 0.7895 0.65078 0.0
O438 O 0.78538 0.81607 0.64653 0.0
N439 N 0.75627 0.72946 0.61666 0.0
C440 C 0.72813 0.71967 0.61189 0.0
C441 C 0.72592 0.68869 0.61265 0.0
C442 C 0.77094 0.70415 0.62014 0.0
N443 N 0.75285 0.67881 0.6177 0.0
C444 C 0.71611 0.79837 0.61436 0.0
C445 C 0.69801 0.77902 0.64846 0.0
C446 C 0.67755 0.79352 0.63751 0.0
C447 C 0.68709 0.80365 0.62034 0.0
C448 C 0.72677 0.77413 0.64194 0.0
N449 N 0.7359 0.78432 0.6252 0.0
H450 H 0.72225 0.80456 0.60064 0.0
H451 H 0.74077 0.76023 0.64997 0.0
H452 H 0.71068 0.73399 0.60745 0.0
H453 H 0.79469 0.70426 0.62342 0.0
O454 O 0.76079 0.771 0.58954 0.0
O455 O 0.80483 0.75628 0.5992 0.0
O456 O 0.79217 0.76779 0.63934 0.0
C457 C 0.78678 0.76075 0.58565 0.0
H458 H 0.84834 0.86068 0.60811 0.0
H459 H 0.70606 0.6745 0.60937 0.0
H460 H 0.69148 0.77036 0.6617 0.0
H461 H 0.67174 0.814 0.61114 0.0
Co462 Co 0.2708 0.76519 0.12273 0.0
C463 C 0.33786 0.77225 0.1225 0.0
C464 C 0.3172 0.81192 0.11307 0.0
C465 C 0.34801 0.81713 0.11247 0.0
N466 N 0.31084 0.78382 0.1193 0.0
N467 N 0.36113 0.79223 0.11843 0.0
H468 H 0.34032 0.74984 0.12786 0.0
H469 H 0.30055 0.82756 0.10918 0.0
C470 C 0.23943 0.77451 0.08751 0.0
O471 O 0.22666 0.74725 0.08938 0.0
N472 N 0.23004 0.74733 0.12655 0.0
C473 C 0.22151 0.72049 0.13411 0.0
C474 C 0.19067 0.71848 0.13604 0.0
C475 C 0.20406 0.76161 0.12459 0.0
N476 N 0.17964 0.74429 0.13 0.0
C477 C 0.28683 0.70386 0.11912 0.0
C478 C 0.2953 0.704 0.08205 0.0
C479 C 0.29538 0.67661 0.09148 0.0
C480 C 0.29241 0.677 0.11035 0.0
C481 C 0.2903 0.73058 0.09152 0.0
N482 N 0.28322 0.72974 0.10957 0.0
H483 H 0.28493 0.70355 0.13366 0.0
H484 H 0.29178 0.75163 0.08418 0.0
H485 H 0.2363 0.7037 0.1387 0.0
H486 H 0.20316 0.78449 0.11964 0.0
O487 O 0.28158 0.75316 0.14674 0.0
O488 O 0.2615 0.79632 0.14 0.0
O489 O 0.25744 0.78526 0.09971 0.0
C490 C 0.27119 0.77824 0.15235 0.0
H491 H 0.35976 0.83764 0.10772 0.0
H492 H 0.17742 0.6994 0.14153 0.0
H493 H 0.29891 0.70482 0.06755 0.0
H494 H 0.29317 0.65649 0.11825 0.0
Co495 Co 0.27031 0.28177 0.61709 0.0
C496 C 0.26503 0.21361 0.61387 0.0
C497 C 0.22425 0.23344 0.62195 0.0
C498 C 0.21916 0.20265 0.62187 0.0
N499 N 0.25302 0.2405 0.61709 0.0
N500 N 0.24479 0.19013 0.61685 0.0
H501 H 0.28805 0.21088 0.60989 0.0
H502 H 0.20807 0.24969 0.62559 0.0
C503 C 0.23463 0.29553 0.65115 0.0
O504 O 0.2151 0.31184 0.64286 0.0
N505 N 0.28674 0.32331 0.61726 0.0
C506 C 0.31461 0.33267 0.61169 0.0
C507 C 0.31701 0.36366 0.61167 0.0
C508 C 0.2724 0.34893 0.62035 0.0
N509 N 0.29046 0.37397 0.61702 0.0
C510 C 0.32807 0.25615 0.61419 0.0
C511 C 0.34881 0.27377 0.64809 0.0
C512 C 0.36887 0.2616 0.63587 0.0
C513 C 0.35799 0.25194 0.61891 0.0
C514 C 0.31914 0.2776 0.64288 0.0
N515 N 0.30898 0.26906 0.62602 0.0
H516 H 0.32074 0.25043 0.60062 0.0
H517 H 0.30534 0.28942 0.65217 0.0
H518 H 0.33183 0.31807 0.60733 0.0
H519 H 0.2489 0.3493 0.62405 0.0
O520 O 0.27807 0.27997 0.59162 0.0
O521 O 0.23536 0.29413 0.60346 0.0
O522 O 0.25617 0.28437 0.64262 0.0
C523 C 0.25132 0.28932 0.589 0.0
H524 H 0.19813 0.1904 0.62521 0.0
H525 H 0.33677 0.37753 0.60777 0.0
H526 H 0.35633 0.28158 0.66132 0.0
H527 H 0.3729 0.24295 0.60892 0.0
H528 H 0.8687 0.24853 0.13139 0.0
H529 H 0.92326 0.24201 0.13159 0.0
H530 H 0.9376 0.32294 0.09962 0.0
H531 H 0.88345 0.32985 0.09985 0.0
H532 H 0.96402 0.23394 0.10619 0.0
H533 H 0.99483 0.34201 0.1403 0.0
H534 H 0.95631 0.32719 0.1385 0.0
H535 H 0.97396 0.34786 0.11995 0.0
C536 C 0.88354 0.26476 0.12433 0.0
C537 C 0.87185 0.28989 0.11579 0.0
C538 C 0.91473 0.26114 0.12451 0.0
C539 C 0.93477 0.28248 0.11607 0.0
C540 C 0.92287 0.30677 0.10682 0.0
H541 H 0.11722 0.25497 0.08148 0.0
H542 H 0.06297 0.26001 0.08442 0.0
C543 C 0.89186 0.31059 0.10684 0.0
C544 C 0.96803 0.27925 0.11664 0.0
H545 H 0.03518 0.31785 0.12569 0.0
C546 C 0.97954 0.25222 0.11061 0.0
C547 C 0.98844 0.30277 0.1228 0.0
C548 C 0.97773 0.33144 0.13094 0.0
C549 C 1.01075 0.24846 0.10994 0.0
C550 C 0.0312 0.27277 0.11489 0.0
C551 C 1.01966 0.29938 0.12157 0.0
C552 C 0.06453 0.27117 0.11297 0.0
C553 C 0.02139 0.21826 0.10415 0.0
C554 C 0.08391 0.27743 0.12775 0.0
C555 C 0.11516 0.27516 0.12596 0.0
C556 C 0.12757 0.26642 0.10939 0.0
C557 C 0.10824 0.26117 0.0945 0.0
C558 C 0.07717 0.26384 0.09622 0.0
H559 H 1.00397 0.19983 0.10681 0.0
H560 H 0.02585 0.21868 0.08936 0.0
H561 H 0.04242 0.2129 0.11129 0.0
H562 H 0.07481 0.28345 0.14078 0.0
H563 H 0.12947 0.27921 0.13768 0.0
H564 H 0.78822 0.15136 0.63359 0.0
H565 H 0.79318 0.09667 0.63545 0.0
H566 H 0.77183 0.08835 0.57859 0.0
H567 H 0.76631 0.1427 0.57682 0.0
H568 H 0.74013 0.04676 0.59758 0.0
H569 H 0.85985 0.04603 0.61868 0.0
H570 H 0.83714 0.0669 0.63372 0.0
H571 H 0.84316 0.07974 0.61081 0.0
C572 C 0.78508 0.13788 0.62145 0.0
C573 C 0.77688 0.15137 0.60506 0.0
C574 C 0.78795 0.10659 0.6225 0.0
C575 C 0.78322 0.08825 0.6071 0.0
C576 C 0.77553 0.10187 0.59068 0.0
H577 H 0.8351 0.90485 0.59161 0.0
H578 H 0.82975 0.95932 0.59159 0.0
C579 C 0.77236 0.13299 0.58968 0.0
C580 C 0.78511 0.0548 0.60807 0.0
H581 H 0.83188 0.9989 0.61884 0.0
C582 C 0.76023 0.03632 0.60222 0.0
C583 C 0.8114 0.04104 0.61395 0.0
C584 C 0.83951 0.05942 0.61948 0.0
C585 C 0.76092 1.00467 0.60201 0.0
C586 C 0.78696 0.99089 0.60827 0.0
C587 C 0.81181 1.00936 0.61418 0.0
C588 C 0.78947 0.95748 0.60813 0.0
C589 C 0.73406 0.9864 0.59453 0.0
C590 C 0.76865 0.93805 0.61743 0.0
C591 C 0.77155 0.90674 0.61733 0.0
C592 C 0.79563 0.89421 0.60817 0.0
C593 C 0.81645 0.91373 0.59893 0.0
C594 C 0.81339 0.94493 0.5989 0.0
H595 H 0.71992 1.00028 0.58578 0.0
H596 H 0.74122 0.96692 0.58651 0.0
H597 H 0.71981 0.97764 0.60592 0.0
H598 H 0.75041 0.94712 0.62504 0.0
H599 H 0.75544 0.89243 0.62484 0.0
H600 H 0.90902 0.80203 0.0872 0.0
H601 H 0.96291 0.79863 0.09287 0.0
H602 H 0.94294 0.74789 0.14163 0.0
H603 H 0.88888 0.75051 0.13581 0.0
H604 H 0.99924 0.81731 0.1227 0.0
H605 H 0.99738 0.69315 0.11296 0.0
H606 H 0.96651 0.71534 0.10616 0.0
H607 H 0.97136 0.70568 0.12958 0.0
C608 C 0.91601 0.78999 0.09909 0.0
C609 C 0.89447 0.77625 0.11093 0.0
C610 C 0.94689 0.78826 0.10238 0.0
C611 C 0.95702 0.77259 0.11751 0.0
C612 C 0.93567 0.75966 0.12969 0.0
H613 H 0.13476 0.72338 0.15236 0.0
H614 H 0.08113 0.73214 0.14994 0.0
C615 C 0.90472 0.76145 0.12644 0.0
C616 C 0.9899 0.76938 0.12027 0.0
H617 H 0.04356 0.71729 0.12214 0.0
C618 C 1.00896 0.79545 0.12258 0.0
C619 C 1.0026 0.74086 0.12008 0.0
C620 C 0.98352 0.71213 0.11691 0.0
C621 C 0.04027 0.79374 0.12498 0.0
C622 C 0.05299 0.76521 0.12467 0.0
C623 C 0.03387 0.73916 0.12241 0.0
C624 C 0.08602 0.76165 0.12666 0.0
C625 C 0.05929 0.82247 0.1282 0.0
C626 C 0.10684 0.77538 0.11442 0.0
C627 C 0.13766 0.77042 0.11581 0.0
C628 C 0.14826 0.7513 0.12931 0.0
C629 C 0.12738 0.73791 0.14166 0.0
C630 C 0.09667 0.74299 0.14033 0.0
H631 H 0.04552 0.84086 0.13319 0.0
H632 H 0.07747 0.81889 0.13816 0.0
H633 H 0.06992 0.83004 0.11525 0.0
H634 H 0.09918 0.78929 0.10348 0.0
H635 H 0.15304 0.78072 0.10593 0.0
H636 H 0.28595 0.91446 0.57517 0.0
H637 H 0.28196 0.96859 0.57875 0.0
H638 H 0.23898 0.95368 0.63061 0.0
H639 H 0.24437 0.89939 0.62757 0.0
H640 H 0.23559 1.00323 0.58214 0.0
H641 H 0.30541 1.01452 0.6443 0.0
H642 H 0.30274 0.98037 0.63105 0.0
H643 H 0.27336 0.98843 0.6468 0.0
C644 C 0.27591 0.92256 0.58745 0.0
C645 C 0.26592 0.90235 0.6012 0.0
C646 C 0.27344 0.95364 0.58942 0.0
C647 C 0.26083 0.96543 0.60514 0.0
C648 C 0.24959 0.94529 0.61856 0.0
H649 H 0.2183 0.14562 0.63737 0.0
H650 H 0.22328 0.0913 0.63424 0.0
C651 C 0.25225 0.91412 0.61667 0.0
C652 C 0.2595 0.99874 0.6073 0.0
H653 H 0.28048 0.05798 0.63506 0.0
C654 C 0.24556 1.01517 0.59368 0.0
C655 C 0.27269 1.01448 0.6223 0.0
C656 C 0.28966 0.99862 0.63685 0.0
C657 C 0.24399 0.04666 0.59478 0.0
C658 C 0.25677 0.06224 0.60987 0.0
C659 C 0.27071 0.04594 0.6235 0.0
C660 C 0.25492 0.09535 0.61201 0.0
C661 C 0.22817 0.0631 0.57999 0.0
C662 C 0.2715 0.11573 0.60075 0.0
C663 C 0.26879 0.14692 0.60256 0.0
C664 C 0.24923 0.15821 0.61556 0.0
C665 C 0.23316 0.13767 0.62703 0.0
C666 C 0.23611 0.10661 0.62533 0.0
H667 H 0.21561 0.04735 0.57063 0.0
H668 H 0.2122 0.07872 0.58593 0.0
H669 H 0.24509 0.07682 0.572 0.0
H670 H 0.28635 0.10747 0.59047 0.0
H671 H 0.28136 0.16214 0.59351 0.0
H672 H 0.90895 0.75744 0.87306 0.0
H673 H 0.96338 0.75166 0.87172 0.0
H674 H 0.9796 0.84299 0.89061 0.0
H675 H 0.92545 0.84856 0.89266 0.0
H676 H 1.00562 0.78364 0.85112 0.0
H677 H 0.03362 0.79795 0.92389 0.0
H678 H 0.9954 0.7913 0.91596 0.0
H679 H 1.01361 0.8285 0.91478 0.0
C680 C 0.92403 0.77611 0.87729 0.0
C681 C 0.91263 0.80348 0.883 0.0
C682 C 0.95521 0.77284 0.87637 0.0
C683 C 0.97567 0.79676 0.88127 0.0
C684 C 0.96436 0.824 0.88708 0.0
H685 H 0.17275 0.82275 0.87998 0.0
H686 H 0.11846 0.83086 0.88059 0.0
C687 C 0.93327 0.82726 0.88804 0.0
C688 C 1.0088 0.79374 0.87961 0.0
H689 H 0.07498 0.79915 0.90339 0.0
C690 C 0.02075 0.78688 0.86258 0.0
C691 C 0.02864 0.79811 0.89453 0.0
C692 C 1.01718 0.80409 0.91336 0.0
C693 C 0.05192 0.78464 0.86002 0.0
C694 C 0.07171 0.78904 0.87493 0.0
C695 C 0.05982 0.79604 0.89193 0.0
C696 C 0.10462 0.78491 0.87339 0.0
C697 C 0.06346 0.77796 0.84131 0.0
C698 C 0.11486 0.75649 0.86908 0.0
C699 C 0.1457 0.75185 0.86873 0.0
C700 C 0.16711 0.77551 0.87273 0.0
C701 C 0.15687 0.80418 0.87665 0.0
C702 C 0.12588 0.80877 0.87712 0.0
H703 H 0.04691 0.78325 0.83065 0.0
H704 H 0.08504 0.79102 0.83855 0.0
H705 H 0.0676 0.75361 0.84035 0.0
H706 H 0.09893 0.73763 0.8664 0.0
H707 H 0.15282 0.72957 0.8655 0.0
H708 H 0.23491 0.86314 0.36271 0.0
H709 H 0.22414 0.91669 0.3643 0.0
H710 H 0.31938 0.94079 0.36742 0.0
H711 H 0.33024 0.88765 0.36579 0.0
H712 H 0.23787 0.95995 0.39036 0.0
H713 H 0.29386 0.99293 0.3257 0.0
H714 H 0.28538 0.95404 0.33189 0.0
H715 H 0.31819 0.97436 0.34097 0.0
C716 C 0.25353 0.87984 0.3638 0.0
C717 C 0.28347 0.87106 0.36387 0.0
C718 C 0.24735 0.91046 0.36464 0.0
C719 C 0.27098 0.93286 0.36555 0.0
C720 C 0.30079 0.92405 0.36616 0.0
H721 H 0.28881 0.12753 0.3767 0.0
H722 H 0.29645 0.07354 0.37468 0.0
C723 C 0.30697 0.89358 0.36524 0.0
C724 C 0.26466 0.96543 0.36616 0.0
H725 H 0.28085 0.03308 0.34511 0.0
C726 C 0.24704 0.9759 0.38038 0.0
C727 C 0.27662 0.98628 0.35312 0.0
C728 C 0.29431 0.97634 0.33696 0.0
C729 C 0.24177 1.0067 0.38219 0.0
C730 C 0.25418 0.02757 0.36933 0.0
C731 C 0.27152 1.01708 0.35502 0.0
C732 C 0.24937 0.06038 0.37046 0.0
C733 C 0.22364 1.01683 0.39811 0.0
C734 C 0.22043 0.071 0.36846 0.0
C735 C 0.21598 0.10192 0.36942 0.0
C736 C 0.24041 0.123 0.37238 0.0
C737 C 0.26947 0.11219 0.3742 0.0
C738 C 0.27389 0.08125 0.37316 0.0
H739 H 0.22143 0.99928 0.40884 0.0
H740 H 0.23413 0.03784 0.40408 0.0
H741 H 0.20066 0.02166 0.39344 0.0
H742 H 0.20126 0.05537 0.36599 0.0
H743 H 0.19337 0.10923 0.3676 0.0
H744 H 0.908 0.28442 0.91148 0.0
H745 H 0.96214 0.27926 0.90791 0.0
H746 H 0.9467 0.23946 0.85524 0.0
H747 H 0.89247 0.24528 0.8585 0.0
H748 H 0.99606 0.22824 0.90147 0.0
H749 H 1.00718 0.31114 0.84512 0.0
H750 H 0.97413 0.3074 0.85933 0.0
H751 H 0.97948 0.28066 0.84152 0.0
C752 C 0.91606 0.27471 0.89908 0.0
C753 C 0.89581 0.26563 0.88518 0.0
C754 C 0.94705 0.27156 0.89713 0.0
C755 C 0.95855 0.25942 0.8812 0.0
C756 C 0.93837 0.24935 0.86754 0.0
H757 H 0.13846 0.24149 0.83908 0.0
H758 H 0.08431 0.23804 0.84503 0.0
C759 C 0.90732 0.25243 0.8695 0.0
C760 C 0.99169 0.25811 0.87875 0.0
H761 H 0.05054 0.28539 0.85261 0.0
C762 C 1.00803 0.24073 0.8908 0.0
C763 C 1.00729 0.27456 0.86489 0.0
C764 C 0.99125 0.29473 0.85206 0.0
C765 C 0.03944 0.23885 0.88911 0.0
C766 C 0.05501 0.25525 0.8752 0.0
C767 C 0.03863 0.27271 0.86323 0.0
C768 C 0.08821 0.25455 0.87254 0.0
C769 C 0.05553 0.21878 0.90196 0.0
C770 C 0.10864 0.26453 0.88613 0.0
C771 C 0.13979 0.26641 0.88275 0.0
C772 C 0.151 0.25875 0.86565 0.0
C773 C 0.13052 0.24793 0.85231 0.0
C774 C 0.09954 0.24588 0.85571 0.0
H775 H 0.0397 0.20179 0.90848 0.0
H776 H 0.07334 0.20682 0.89484 0.0
H777 H 0.06641 0.23283 0.91281 0.0
H778 H 0.10047 0.27194 0.89911 0.0
H779 H 0.15495 0.27517 0.89321 0.0
H780 H 0.72361 0.13113 0.34043 0.0
H781 H 0.73147 0.07706 0.34186 0.0
H782 H 0.80271 0.09407 0.38081 0.0
H783 H 0.79464 0.14828 0.3796 0.0
H784 H 0.78376 0.04296 0.336 0.0
H785 H 0.74177 0.03423 0.40684 0.0
H786 H 0.73583 0.06649 0.39264 0.0
H787 H 0.77193 0.06222 0.40297 0.0
C788 C 0.74111 0.1234 0.3492 0.0
C789 C 0.75832 0.14404 0.36001 0.0
C790 C 0.74564 0.09247 0.34997 0.0
C791 C 0.7673 0.0814 0.36168 0.0
C792 C 0.78553 0.10204 0.37187 0.0
H793 H 0.8123 0.90219 0.3951 0.0
H794 H 0.80752 0.95612 0.39106 0.0
C795 C 0.78113 0.13307 0.37102 0.0
C796 C 0.76989 0.04823 0.36368 0.0
H797 H 0.75986 0.99016 0.39393 0.0
C798 C 0.77853 0.03137 0.34865 0.0
C799 C 0.76291 0.0331 0.38017 0.0
C800 C 0.75234 0.04979 0.39657 0.0
C801 C 0.78106 0.99993 0.34978 0.0
C802 C 0.774 0.98474 0.36628 0.0
C803 C 0.76524 1.00167 0.38127 0.0
C804 C 0.77648 0.95151 0.36853 0.0
C805 C 0.7921 0.98345 0.33343 0.0
C806 C 0.76019 0.9306 0.35743 0.0
C807 C 0.76316 0.89947 0.35958 0.0
C808 C 0.78233 0.88851 0.37297 0.0
C809 C 0.79785 0.90957 0.38437 0.0
C810 C 0.79497 0.94058 0.38217 0.0
H811 H 0.80421 0.99907 0.32377 0.0
H812 H 0.8074 0.96569 0.33744 0.0
H813 H 0.7725 0.97249 0.32621 0.0
H814 H 0.74515 0.93834 0.3471 0.0
H815 H 0.75084 0.8841 0.35053 0.0
H816 H 0.29763 0.41111 0.10008 0.0
H817 H 0.30468 0.46276 0.08917 0.0
H818 H 0.22715 0.44894 0.05435 0.0
H819 H 0.21919 0.39711 0.06584 0.0
H820 H 0.31373 0.48925 0.05568 0.0
H821 H 0.20431 0.51937 0.08576 0.0
H822 H 0.22055 0.48395 0.09058 0.0
H823 H 0.20289 0.48989 0.06908 0.0
C824 C 0.28198 0.41902 0.09012 0.0
C825 C 0.25742 0.40026 0.08415 0.0
C826 C 0.28625 0.44847 0.08375 0.0
C827 C 0.26616 0.4599 0.07118 0.0
C828 C 0.2426 0.44073 0.06431 0.0
H829 H 0.26113 0.65661 0.06283 0.0
H830 H 0.25504 0.60461 0.05161 0.0
C831 C 0.23821 0.41109 0.07077 0.0
C832 C 0.2691 0.49249 0.06666 0.0
H833 H 0.23696 0.55884 0.07573 0.0
C834 C 0.29669 0.50447 0.0597 0.0
C835 C 0.2468 0.51234 0.07185 0.0
C836 C 0.21702 0.50092 0.07984 0.0
C837 C 0.30328 0.53574 0.05885 0.0
C838 C 0.28181 0.55547 0.06524 0.0
C839 C 0.25338 0.5436 0.07085 0.0
C840 C 0.28967 0.58777 0.06888 0.0
C841 C 0.3336 0.54737 0.0518 0.0
C842 C 0.31164 0.59564 0.08198 0.0
C843 C 0.31502 0.62517 0.08845 0.0
C844 C 0.29651 0.64738 0.08192 0.0
C845 C 0.27591 0.63997 0.06794 0.0
C846 C 0.27233 0.6103 0.06158 0.0
H847 H 0.3429 0.53128 0.04204 0.0
H848 H 0.33216 0.56963 0.04507 0.0
H849 H 0.34962 0.55006 0.0633 0.0
H850 H 0.32485 0.57854 0.08807 0.0
H851 H 0.33109 0.63031 0.0992 0.0
H852 H 0.40321 0.30762 0.65108 0.0
H853 H 0.45777 0.3113 0.65511 0.0
H854 H 0.4633 0.2213 0.63388 0.0
H855 H 0.40844 0.21751 0.62965 0.0
H856 H 0.49839 0.27808 0.67401 0.0
H857 H 0.51695 0.27257 0.59965 0.0
H858 H 0.48032 0.27739 0.60938 0.0
H859 H 0.49551 0.24072 0.60895 0.0
C860 C 0.41592 0.28835 0.64759 0.0
C861 C 0.40156 0.26227 0.63999 0.0
C862 C 0.44712 0.29054 0.64985 0.0
C863 C 0.46458 0.26676 0.64455 0.0
C864 C 0.45023 0.24013 0.63773 0.0
H865 H 0.65804 0.2575 0.66121 0.0
H866 H 0.60328 0.25212 0.66519 0.0
C867 C 0.41896 0.23798 0.63534 0.0
C868 C 0.49785 0.27082 0.64517 0.0
H869 H 0.5602 0.27518 0.61817 0.0
C870 C 0.51199 0.27737 0.66184 0.0
C871 C 0.51538 0.27039 0.62919 0.0
C872 C 0.50133 0.26517 0.61074 0.0
C873 C 0.5433 0.28351 0.66295 0.0
C874 C 0.56084 0.28257 0.64701 0.0
C875 C 0.54667 0.27588 0.63038 0.0
C876 C 0.59394 0.28869 0.64698 0.0
C877 C 0.55719 0.2917 0.68107 0.0
C878 C 0.60686 0.31127 0.63563 0.0
C879 C 0.63802 0.31416 0.63321 0.0
C880 C 0.65681 0.29456 0.64215 0.0
C881 C 0.64404 0.27314 0.65435 0.0
C882 C 0.61278 0.27006 0.65664 0.0
H883 H 0.54013 0.29933 0.69079 0.0
H884 H 0.56726 0.27156 0.68692 0.0
H885 H 0.57533 0.30981 0.67961 0.0
H886 H 0.59271 0.3259 0.62807 0.0
H887 H 0.64736 0.33096 0.62381 0.0
H888 H 0.67455 0.39241 0.08949 0.0
H889 H 0.67401 0.44594 0.08157 0.0
H890 H 0.76748 0.44579 0.06578 0.0
H891 H 0.76805 0.39239 0.07347 0.0
H892 H 0.70915 0.4866 0.09997 0.0
H893 H 0.73444 0.49892 0.02684 0.0
H894 H 0.72181 0.46328 0.03688 0.0
H895 H 0.76079 0.47651 0.03839 0.0
C896 C 0.69473 0.40366 0.08388 0.0
C897 C 0.72135 0.38828 0.08215 0.0
C898 C 0.69437 0.43417 0.0793 0.0
C899 C 0.72062 0.44982 0.07293 0.0
C900 C 0.74674 0.43406 0.07022 0.0
H901 H 0.79652 0.63082 0.07566 0.0
H902 H 0.78469 0.57723 0.06965 0.0
C903 C 0.74706 0.4035 0.07469 0.0
C904 C 0.72214 0.48321 0.07197 0.0
H905 H 0.74361 0.54346 0.04518 0.0
C906 C 0.71612 0.49904 0.08788 0.0
C907 C 0.7316 0.49937 0.05625 0.0
C908 C 0.73725 0.48364 0.03858 0.0
C909 C 0.72034 0.53049 0.08874 0.0
C910 C 0.73037 0.54664 0.07314 0.0
C911 C 0.73585 0.53096 0.05709 0.0
C912 C 0.73669 0.57967 0.07377 0.0
C913 C 0.71528 0.54606 0.10658 0.0
C914 C 0.71348 0.59887 0.07743 0.0
C915 C 0.72017 0.62935 0.08112 0.0
C916 C 0.75023 0.64122 0.08106 0.0
C917 C 0.77322 0.62227 0.07615 0.0
C918 C 0.76648 0.59173 0.07255 0.0
H919 H 0.71378 0.5299 0.11809 0.0
H920 H 0.73377 0.56333 0.10938 0.0
H921 H 0.69382 0.55763 0.10595 0.0
H922 H 0.6903 0.58998 0.07825 0.0
H923 H 0.70191 0.64316 0.08497 0.0
H924 H 0.64177 0.74996 0.65449 0.0
H925 H 0.58745 0.74972 0.65964 0.0
H926 H 0.58611 0.83948 0.6375 0.0
H927 H 0.64067 0.84026 0.63259 0.0
H928 H 0.54692 0.79457 0.67801 0.0
H929 H 0.53336 0.77933 0.60353 0.0
H930 H 0.56786 0.7719 0.61522 0.0
H931 H 0.55865 0.81005 0.61078 0.0
C932 C 0.63015 0.77004 0.65121 0.0
C933 C 0.64553 0.79509 0.643 0.0
C934 C 0.59909 0.76979 0.65413 0.0
C935 C 0.58291 0.79448 0.64883 0.0
C936 C 0.59833 0.82016 0.64157 0.0
H937 H 0.39721 0.82001 0.62636 0.0
H938 H 0.45132 0.82611 0.63217 0.0
C939 C 0.62941 0.82048 0.63868 0.0
C940 C 0.54966 0.79205 0.64895 0.0
H941 H 0.48925 0.78439 0.62056 0.0
C942 C 0.53417 0.79237 0.6655 0.0
C943 C 0.53334 0.78885 0.63258 0.0
C944 C 0.54902 0.78726 0.61449 0.0
C945 C 0.50248 0.79044 0.66605 0.0
C946 C 0.48617 0.78759 0.64962 0.0
C947 C 0.50182 0.78679 0.63313 0.0
C948 C 0.45282 0.7861 0.64885 0.0
C949 C 0.48674 0.7922 0.68408 0.0
C950 C 0.43557 0.76197 0.65671 0.0
C951 C 0.40446 0.75864 0.65353 0.0
C952 C 0.39051 0.77911 0.64221 0.0
C953 C 0.40762 0.80383 0.63501 0.0
C954 C 0.43844 0.80734 0.63835 0.0
H955 H 0.50211 0.80162 0.69479 0.0
H956 H 0.46696 0.80632 0.6831 0.0
H957 H 0.47855 0.76918 0.6883 0.0
H958 H 0.44632 0.74501 0.66457 0.0
H959 H 0.39164 0.73933 0.65912 0.0
H960 H 0.33211 0.41348 0.85064 0.0
H961 H 0.33675 0.46791 0.84523 0.0
H962 H 0.24168 0.46749 0.83329 0.0
H963 H 0.23682 0.41303 0.83882 0.0
H964 H 0.32285 0.50533 0.81576 0.0
H965 H 0.25238 0.52533 0.87632 0.0
H966 H 0.2674 0.48926 0.87164 0.0
H967 H 0.23464 0.50068 0.85972 0.0
C968 C 0.31231 0.4249 0.84655 0.0
C969 C 0.28403 0.40914 0.84533 0.0
C970 C 0.31498 0.45597 0.8435 0.0
C971 C 0.28947 0.4717 0.83917 0.0
C972 C 0.26152 0.45577 0.83698 0.0
H973 H 0.2585 0.6618 0.83559 0.0
H974 H 0.25536 0.60752 0.83032 0.0
C975 C 0.25877 0.42475 0.84015 0.0
C976 C 0.29178 0.50497 0.83817 0.0
H977 H 0.26781 0.56791 0.85886 0.0
C978 C 0.3108 0.51908 0.82513 0.0
C979 C 0.27618 0.52273 0.85054 0.0
C980 C 0.25671 0.50881 0.86546 0.0
C981 C 0.31435 0.55066 0.82402 0.0
C982 C 0.29868 0.56832 0.83638 0.0
C983 C 0.27959 0.55419 0.84933 0.0
C984 C 0.30218 0.60158 0.83663 0.0
C985 C 0.33454 0.56492 0.8096 0.0
C986 C 0.32974 0.61622 0.84163 0.0
C987 C 0.33169 0.64736 0.84458 0.0
C988 C 0.30606 0.66426 0.84262 0.0
C989 C 0.27881 0.64959 0.83691 0.0
C990 C 0.27689 0.61853 0.83399 0.0
H991 H 0.33925 0.54869 0.79865 0.0
H992 H 0.32425 0.58479 0.80354 0.0
H993 H 0.35635 0.57277 0.81581 0.0
H994 H 0.34938 0.6034 0.84404 0.0
H995 H 0.35301 0.65808 0.84888 0.0
H996 H 0.64588 0.25741 0.43651 0.0
H997 H 0.59199 0.25048 0.44383 0.0
H998 H 0.56951 0.27981 0.39008 0.0
H999 H 0.62269 0.28573 0.3824 0.0
H1000 H 0.53631 0.30563 0.42293 0.0
H1001 H 0.53658 0.18034 0.41709 0.0
H1002 H 0.56525 0.20074 0.43023 0.0
H1003 H 0.56511 0.20447 0.40606 0.0
C1004 C 0.62946 0.26243 0.42626 0.0
C1005 C 0.63874 0.27221 0.40886 0.0
C1006 C 0.59875 0.25861 0.43051 0.0
C1007 C 0.57696 0.26467 0.41747 0.0
C1008 C 0.58609 0.27527 0.40036 0.0
H1009 H 0.4071 0.23516 0.37616 0.0
H1010 H 0.45956 0.23994 0.38574 0.0
C1011 C 0.6166 0.27885 0.39605 0.0
C1012 C 0.54447 0.25845 0.42089 0.0
H1013 H 0.4895 0.20192 0.41716 0.0
C1014 C 0.52599 0.28293 0.42224 0.0
C1015 C 0.53128 0.22879 0.41982 0.0
C1016 C 0.5504 0.20191 0.41819 0.0
C1017 C 0.49448 0.27857 0.42152 0.0
C1018 C 0.48138 0.24908 0.41929 0.0
C1019 C 0.49977 0.22446 0.419 0.0
C1020 C 0.44937 0.24401 0.41423 0.0
C1021 C 0.47538 0.30557 0.42181 0.0
C1022 C 0.42635 0.24436 0.42719 0.0
C1023 C 0.39611 0.24117 0.42179 0.0
C1024 C 0.38855 0.23772 0.40333 0.0
C1025 C 0.41193 0.23703 0.3905 0.0
C1026 C 0.44198 0.24 0.39593 0.0
H1027 H 0.48902 0.32701 0.42401 0.0
H1028 H 0.46309 0.30709 0.40877 0.0
H1029 H 0.4583 0.30288 0.43275 0.0
H1030 H 0.43177 0.24742 0.44141 0.0
H1031 H 0.37869 0.24157 0.43202 0.0
H1032 H 0.85231 0.64178 0.87101 0.0
H1033 H 0.84905 0.58674 0.86755 0.0
H1034 H 0.75848 0.59044 0.847 0.0
H1035 H 0.76135 0.64505 0.85056 0.0
H1036 H 0.80704 0.54677 0.88452 0.0
H1037 H 0.79822 0.53721 0.80976 0.0
H1038 H 0.8114 0.57163 0.82096 0.0
H1039 H 0.77169 0.56156 0.81952 0.0
C1040 C 0.8318 0.63085 0.86564 0.0
C1041 C 0.80722 0.64783 0.86088 0.0
C1042 C 0.83002 0.59948 0.86362 0.0
C1043 C 0.80372 0.58465 0.85672 0.0
C1044 C 0.77926 0.60154 0.85188 0.0
H1045 H 0.72921 0.40073 0.85723 0.0
H1046 H 0.73758 0.45586 0.85618 0.0
C1047 C 0.78099 0.6328 0.8539 0.0
C1048 C 0.80088 0.55135 0.85572 0.0
H1049 H 0.78527 0.49248 0.82681 0.0
C1050 C 0.80261 0.53487 0.87189 0.0
C1051 C 0.79501 0.53596 0.8392 0.0
C1052 C 0.79424 0.55245 0.82134 0.0
C1053 C 0.79786 0.50339 0.87201 0.0
C1054 C 0.79132 0.48816 0.85559 0.0
C1055 C 0.79004 0.50446 0.83938 0.0
C1056 C 0.78616 0.45512 0.8551 0.0
C1057 C 0.79937 0.48647 0.88969 0.0
C1058 C 0.81076 0.43681 0.85465 0.0
C1059 C 0.80611 0.4055 0.85528 0.0
C1060 C 0.77673 0.39198 0.85638 0.0
C1061 C 0.75208 0.4105 0.8565 0.0
C1062 C 0.75678 0.44189 0.85581 0.0
H1063 H 0.80321 0.50182 0.90145 0.0
H1064 H 0.77805 0.47264 0.89186 0.0
H1065 H 0.81796 0.47082 0.88913 0.0
H1066 H 0.83357 0.4468 0.85418 0.0
H1067 H 0.8256 0.39193 0.85551 0.0
H1068 H 0.40965 0.77119 0.38408 0.0
H1069 H 0.46165 0.77705 0.39446 0.0
H1070 H 0.44413 0.70666 0.43401 0.0
H1071 H 0.39156 0.70026 0.42336 0.0
H1072 H 0.48584 0.79003 0.43007 0.0
H1073 H 0.5158 0.67831 0.403 0.0
H1074 H 0.48181 0.69552 0.39606 0.0
H1075 H 0.48442 0.67971 0.41834 0.0
C1076 C 0.41682 0.75681 0.39493 0.0
C1077 C 0.39669 0.73485 0.40267 0.0
C1078 C 0.44647 0.7604 0.40097 0.0
C1079 C 0.45679 0.74214 0.41488 0.0
C1080 C 0.43661 0.72078 0.42312 0.0
H1081 H 0.65387 0.73913 0.42284 0.0
H1082 H 0.6018 0.73108 0.43372 0.0
C1083 C 0.40665 0.71723 0.4171 0.0
C1084 C 0.48918 0.74501 0.41971 0.0
H1085 H 0.55543 0.71262 0.41094 0.0
C1086 C 0.50108 0.77284 0.42633 0.0
C1087 C 0.50897 0.72249 0.41493 0.0
C1088 C 0.49733 0.6923 0.40761 0.0
C1089 C 0.53231 0.77948 0.42711 0.0
C1090 C 0.55206 0.7579 0.42085 0.0
C1091 C 0.54023 0.72919 0.41567 0.0
C1092 C 0.58425 0.76596 0.4169 0.0
C1093 C 0.54382 0.80998 0.43396 0.0
C1094 C 0.5917 0.78853 0.40408 0.0
C1095 C 0.62125 0.7931 0.39785 0.0
C1096 C 0.64397 0.77509 0.40427 0.0
C1097 C 0.63684 0.75352 0.41779 0.0
C1098 C 0.60714 0.74882 0.42396 0.0
H1099 H 0.52806 0.81898 0.44403 0.0
H1100 H 0.56643 0.80896 0.44028 0.0
H1101 H 0.54557 0.82607 0.42244 0.0
H1102 H 0.57435 0.8016 0.39814 0.0
H1103 H 0.62613 0.80998 0.38749 0.0
H1104 H 0.31441 0.29263 0.0577 0.0
H1105 H 0.30987 0.27635 0.02626 0.0
H1106 H 0.2574 0.19642 0.04297 0.0
H1107 H 0.26117 0.21299 0.07457 0.0
H1108 H 0.32407 0.22713 0.00673 0.0
H1109 H 0.19963 0.23577 0.00911 0.0
H1110 H 0.22399 0.24933 0.02723 0.0
H1111 H 0.21482 0.2096 0.02475 0.0
C1112 C 0.30227 0.27134 0.05478 0.0
C1113 C 0.28774 0.25436 0.06865 0.0
C1114 C 0.2997 0.26204 0.03676 0.0
C1115 C 0.2827 0.23551 0.03219 0.0
C1116 C 0.26996 0.21737 0.04612 0.0
H1117 H 0.27959 0.20267 0.9135 0.0
H1118 H 0.28198 0.18928 0.9458 0.0
C1119 C 0.2723 0.2268 0.06419 0.0
C1120 C 0.27682 0.22844 0.01279 0.0
H1121 H 0.22097 0.22605 0.9809 0.0
C1122 C 0.30151 0.22636 0.00108 0.0
C1123 C 0.24731 0.22762 0.00545 0.0
C1124 C 0.21988 0.23091 0.01721 0.0
C1125 C 0.29769 0.22517 0.98218 0.0
C1126 C 0.26826 0.22537 0.97483 0.0
C1127 C 0.24346 0.22568 0.98659 0.0
C1128 C 0.26309 0.23037 0.95519 0.0
C1129 C 0.32531 0.22583 0.97025 0.0
C1130 C 0.2502 0.25702 0.94973 0.0
C1131 C 0.24851 0.26447 0.93144 0.0
C1132 C 0.25967 0.24544 0.91813 0.0
C1133 C 0.27085 0.21779 0.92346 0.0
C1134 C 0.27251 0.21027 0.9419 0.0
H1135 H 0.34643 0.23056 0.97806 0.0
H1136 H 0.32673 0.20362 0.96354 0.0
H1137 H 0.32393 0.24326 0.95953 0.0
H1138 H 0.24265 0.27282 0.95971 0.0
H1139 H 0.23956 0.28584 0.92779 0.0
H1140 H 0.82065 0.27958 0.42191 0.0
H1141 H 0.83677 0.28513 0.45333 0.0
H1142 H 0.8154 0.19033 0.46244 0.0
H1143 H 0.79771 0.18492 0.43126 0.0
H1144 H 0.78831 0.22255 0.48631 0.0
H1145 H 0.90736 0.26556 0.48377 0.0
H1146 H 0.884 0.28827 0.47021 0.0
H1147 H 0.88809 0.24938 0.46423 0.0
C1148 C 0.81954 0.25983 0.43052 0.0
C1149 C 0.80706 0.23199 0.42413 0.0
C1150 C 0.82931 0.26294 0.44847 0.0
C1151 C 0.82753 0.23812 0.4603 0.0
C1152 C 0.81699 0.20985 0.4536 0.0
H1153 H 0.8532 0.23971 0.57863 0.0
H1154 H 0.863 0.22955 0.54648 0.0
C1155 C 0.80687 0.2068 0.43572 0.0
C1156 C 0.8325 0.24246 0.48009 0.0
H1157 H 0.88039 0.27532 0.5116 0.0
C1158 C 0.80875 0.23353 0.49181 0.0
C1159 C 0.85915 0.25678 0.48738 0.0
C1160 C 0.88619 0.26524 0.47573 0.0
C1161 C 0.81033 0.23965 0.51041 0.0
C1162 C 0.83617 0.2555 0.51749 0.0
C1163 C 0.86051 0.2634 0.50603 0.0
C1164 C 0.83669 0.26562 0.53657 0.0
C1165 C 0.78391 0.23001 0.52234 0.0
C1166 C 0.81974 0.28996 0.54152 0.0
C1167 C 0.81401 0.29566 0.55973 0.0
C1168 C 0.8253 0.27722 0.57333 0.0
C1169 C 0.84446 0.25443 0.56843 0.0
C1170 C 0.85001 0.24857 0.5501 0.0
H1171 H 0.76785 0.21374 0.51541 0.0
H1172 H 0.79184 0.21952 0.53501 0.0
H1173 H 0.77164 0.25014 0.52617 0.0
H1174 H 0.80926 0.3033 0.53123 0.0
H1175 H 0.79924 0.31342 0.56312 0.0
H1176 H 0.78848 0.77074 0.94006 0.0
H1177 H 0.78131 0.78904 0.97068 0.0
H1178 H 0.7536 0.87375 0.94961 0.0
H1179 H 0.76063 0.85534 0.91848 0.0
H1180 H 0.81111 0.84299 0.98608 0.0
H1181 H 0.68564 0.84325 0.98644 0.0
H1182 H 0.70543 0.82144 0.97012 0.0
H1183 H 0.70649 0.86173 0.96823 0.0
C1184 C 0.78078 0.79326 0.94182 0.0
C1185 C 0.77513 0.81161 0.92682 0.0
C1186 C 0.77674 0.80369 0.95937 0.0
C1187 C 0.76687 0.83267 0.9624 0.0
C1188 C 0.76101 0.8512 0.94751 0.0
H1189 H 0.78111 0.87074 0.07938 0.0
H1190 H 0.77905 0.88452 0.04725 0.0
C1191 C 0.76511 0.8407 0.92979 0.0
C1192 C 0.76338 0.84283 0.98133 0.0
H1193 H 0.71041 0.84829 0.01447 0.0
C1194 C 0.78918 0.84497 0.9923 0.0
C1195 C 0.73469 0.84523 0.98928 0.0
C1196 C 0.70634 0.84275 0.97802 0.0
C1197 C 0.78701 0.84717 0.0112 0.0
C1198 C 0.75816 0.84791 0.01931 0.0
C1199 C 0.73246 0.84789 0.00821 0.0
C1200 C 0.75413 0.84346 0.0391 0.0
C1201 C 0.81544 0.84614 0.02236 0.0
C1202 C 0.73912 0.81679 0.04532 0.0
C1203 C 0.73994 0.80903 0.06361 0.0
C1204 C 0.75594 0.82775 0.07609 0.0
C1205 C 0.76888 0.85567 0.07009 0.0
C1206 C 0.76787 0.86351 0.05172 0.0
H1207 H 0.83526 0.84078 0.01403 0.0
H1208 H 0.82042 0.86843 0.0288 0.0
H1209 H 0.81256 0.82898 0.03327 0.0
H1210 H 0.72825 0.80103 0.03584 0.0
H1211 H 0.72942 0.78752 0.06777 0.0
H1212 H 0.2083 0.75835 0.41496 0.0
H1213 H 0.18545 0.75941 0.44511 0.0
H1214 H 0.26523 0.80786 0.46561 0.0
H1215 H 0.28769 0.80776 0.43556 0.0
H1216 H 0.2039 0.73306 0.4742 0.0
H1217 H 0.20243 0.85399 0.4898 0.0
H1218 H 0.20836 0.84055 0.46707 0.0
H1219 H 0.23958 0.84586 0.48262 0.0
C1220 C 0.22071 0.76977 0.42583 0.0
C1221 C 0.24985 0.78298 0.42286 0.0
C1222 C 0.20759 0.77037 0.44305 0.0
C1223 C 0.22334 0.78419 0.45761 0.0
C1224 C 0.25216 0.79792 0.45453 0.0
H1225 H 0.25656 0.73664 0.5618 0.0
H1226 H 0.24294 0.73799 0.53 0.0
C1227 C 0.26515 0.79759 0.43732 0.0
C1228 C 0.21154 0.78135 0.4764 0.0
H1229 H 0.20854 0.82058 0.51599 0.0
C1230 C 0.20411 0.75234 0.48323 0.0
C1231 C 0.21081 0.80644 0.48818 0.0
C1232 C 0.21538 0.83845 0.48143 0.0
C1233 C 0.19903 0.7475 0.50179 0.0
C1234 C 0.20231 0.77219 0.51387 0.0
C1235 C 0.20662 0.8015 0.50681 0.0
C1236 C 0.20647 0.76779 0.53363 0.0
C1237 C 0.19141 0.71578 0.50832 0.0
C1238 C 0.19055 0.78412 0.54642 0.0
C1239 C 0.19858 0.78359 0.56479 0.0
C1240 C 0.22288 0.76703 0.57052 0.0
C1241 C 0.23772 0.74961 0.55782 0.0
C1242 C 0.22972 0.75011 0.53959 0.0
H1243 H 0.17762 0.70285 0.49809 0.0
H1244 H 0.21255 0.70399 0.51023 0.0
H1245 H 0.1789 0.71554 0.52134 0.0
H1246 H 0.17273 0.79816 0.54209 0.0
H1247 H 0.18692 0.79741 0.57429 0.0
H1248 H 0.29986 0.7719 0.93123 0.0
H1249 H 0.29012 0.7814 0.96304 0.0
H1250 H 0.25434 0.86682 0.94935 0.0
H1251 H 0.26355 0.8571 0.91707 0.0
H1252 H 0.31095 0.82758 0.98549 0.0
H1253 H 0.1859 0.82426 0.97868 0.0
H1254 H 0.20985 0.81179 0.96077 0.0
H1255 H 0.20747 0.85135 0.96511 0.0
C1256 C 0.29002 0.79282 0.93491 0.0
C1257 C 0.28229 0.81368 0.92161 0.0
C1258 C 0.28453 0.79824 0.95314 0.0
C1259 C 0.27121 0.82465 0.95857 0.0
C1260 C 0.2642 0.84606 0.94542 0.0
H1261 H 0.26398 0.83046 0.078 0.0
H1262 H 0.26906 0.85136 0.04736 0.0
C1263 C 0.26964 0.84058 0.92702 0.0
C1264 C 0.26423 0.8286 0.97803 0.0
H1265 H 0.20573 0.82461 0.00808 0.0
C1266 C 0.28799 0.82756 0.9905 0.0
C1267 C 0.23423 0.82844 0.98444 0.0
C1268 C 0.20778 0.82885 0.97163 0.0
C1269 C 0.28253 0.82422 0.00913 0.0
C1270 C 0.25242 0.82277 0.01551 0.0
C1271 C 0.22876 0.82584 0.00314 0.0
C1272 C 0.24494 0.81353 0.03438 0.0
C1273 C 0.30894 0.81994 0.02158 0.0
C1274 C 0.22805 0.78631 0.03737 0.0
C1275 C 0.22469 0.77456 0.05484 0.0
C1276 C 0.23834 0.78972 0.06968 0.0
C1277 C 0.2535 0.81803 0.06682 0.0
C1278 C 0.25658 0.82994 0.04931 0.0
H1279 H 0.32995 0.81608 0.01398 0.0
H1280 H 0.3131 0.84046 0.02998 0.0
H1281 H 0.30414 0.80049 0.03081 0.0
H1282 H 0.21874 0.7733 0.02607 0.0
H1283 H 0.21269 0.75282 0.05653 0.0
H1284 H 0.2294 0.21301 0.43916 0.0
H1285 H 0.21559 0.23265 0.46838 0.0
H1286 H 0.20681 0.32069 0.44481 0.0
H1287 H 0.22179 0.30111 0.41519 0.0
H1288 H 0.24037 0.32536 0.47373 0.0
H1289 H 0.14084 0.25419 0.49325 0.0
H1290 H 0.16912 0.22975 0.48598 0.0
H1291 H 0.15409 0.25604 0.47012 0.0
C1292 C 0.22407 0.23648 0.44001 0.0
C1293 C 0.22689 0.25553 0.42482 0.0
C1294 C 0.21569 0.24762 0.45679 0.0
C1295 C 0.20941 0.27804 0.45884 0.0
C1296 C 0.21116 0.29703 0.44355 0.0
H1297 H 0.19494 0.3046 0.57735 0.0
H1298 H 0.17839 0.31048 0.54569 0.0
C1299 C 0.2197 0.28583 0.42663 0.0
C1300 C 0.20539 0.29018 0.47743 0.0
H1301 H 0.176 0.26861 0.51849 0.0
C1302 C 0.22555 0.31359 0.4834 0.0
C1303 C 0.1855 0.27567 0.49012 0.0
C1304 C 0.16096 0.25278 0.48442 0.0
C1305 C 0.22882 0.32025 0.5019 0.0
C1306 C 0.21214 0.30251 0.51477 0.0
C1307 C 0.18941 0.28171 0.50869 0.0
C1308 C 0.22167 0.30137 0.53405 0.0
C1309 C 0.25139 0.34516 0.50753 0.0
C1310 C 0.25117 0.29383 0.53798 0.0
C1311 C 0.26051 0.29041 0.55581 0.0
C1312 C 0.24052 0.29414 0.57029 0.0
C1313 C 0.21086 0.30173 0.56647 0.0
C1314 C 0.20143 0.30512 0.54843 0.0
H1315 H 0.25264 0.36354 0.49728 0.0
H1316 H 0.2456 0.35481 0.52087 0.0
H1317 H 0.27409 0.33606 0.50846 0.0
H1318 H 0.26695 0.28984 0.52717 0.0
H1319 H 0.28348 0.28444 0.55819 0.0
H1320 H 0.79217 0.23003 0.07512 0.0
H1321 H 0.80513 0.216 0.04405 0.0
H1322 H 0.71065 0.20259 0.03115 0.0
H1323 H 0.69758 0.21581 0.06206 0.0
H1324 H 0.74597 0.16096 0.01377 0.0
H1325 H 0.79229 0.2794 0.00497 0.0
H1326 H 0.80932 0.25766 0.02234 0.0
H1327 H 0.77085 0.26748 0.02469 0.0
C1328 C 0.7742 0.22339 0.06578 0.0
C1329 C 0.74382 0.22452 0.07099 0.0
C1330 C 0.78164 0.21554 0.048 0.0
C1331 C 0.75883 0.20883 0.03518 0.0
C1332 C 0.72863 0.20778 0.04077 0.0
H1333 H 0.72728 0.25024 0.92771 0.0
H1334 H 0.72884 0.23832 0.95992 0.0
C1335 C 0.7212 0.21554 0.05846 0.0
C1336 C 0.76564 0.20633 0.01555 0.0
H1337 H 0.78755 0.24949 0.97904 0.0
C1338 C 0.75566 0.18006 0.00618 0.0
C1339 C 0.77799 0.23144 0.00566 0.0
C1340 C 0.78807 0.2607 0.01483 0.0
C1341 C 0.75652 0.17875 0.98713 0.0
C1342 C 0.76769 0.20429 0.97731 0.0
C1343 C 0.7791 0.22992 0.9867 0.0
C1344 C 0.764 0.20687 0.95742 0.0
C1345 C 0.74389 0.15088 0.97752 0.0
C1346 C 0.78259 0.19225 0.94522 0.0
C1347 C 0.78156 0.1989 0.92662 0.0
C1348 C 0.76219 0.22046 0.92015 0.0
C1349 C 0.74253 0.23364 0.93232 0.0
C1350 C 0.74341 0.22689 0.95073 0.0
H1351 H 0.73522 0.13317 0.98713 0.0
H1352 H 0.7253 0.15683 0.96837 0.0
H1353 H 0.7617 0.1415 0.96902 0.0
H1354 H 0.79881 0.1769 0.95018 0.0
H1355 H 0.79717 0.18867 0.91753 0.0
H1356 H 0.80835 0.77108 0.41796 0.0
H1357 H 0.82145 0.76833 0.44995 0.0
H1358 H 0.79015 0.67449 0.45108 0.0
H1359 H 0.7754 0.67774 0.41924 0.0
H1360 H 0.76421 0.7015 0.47605 0.0
H1361 H 0.88413 0.7384 0.48201 0.0
H1362 H 0.86504 0.76602 0.46942 0.0
H1363 H 0.86718 0.72839 0.46046 0.0
C1364 C 0.80508 0.74963 0.42489 0.0
C1365 C 0.79071 0.72465 0.41616 0.0
C1366 C 0.81283 0.74799 0.44321 0.0
C1367 C 0.80719 0.72109 0.45301 0.0
C1368 C 0.79477 0.69552 0.44388 0.0
H1369 H 0.8319 0.72663 0.57254 0.0
H1370 H 0.84047 0.71304 0.54064 0.0
C1371 C 0.78636 0.69736 0.42568 0.0
C1372 C 0.80955 0.72107 0.47314 0.0
H1373 H 0.85278 0.74809 0.50854 0.0
C1374 C 0.78395 0.71101 0.48309 0.0
C1375 C 0.83533 0.73305 0.48257 0.0
C1376 C 0.86454 0.74172 0.47301 0.0
C1377 C 0.78268 0.71443 0.50192 0.0
C1378 C 0.80726 0.72919 0.51108 0.0
C1379 C 0.8337 0.73734 0.50143 0.0
C1380 C 0.80439 0.73884 0.53018 0.0
C1381 C 0.75455 0.70293 0.51178 0.0
C1382 C 0.78205 0.75856 0.53471 0.0
C1383 C 0.77701 0.76606 0.55272 0.0
C1384 C 0.79452 0.75438 0.56663 0.0
C1385 C 0.81801 0.73585 0.56207 0.0
C1386 C 0.82291 0.72809 0.54391 0.0
H1387 H 0.74277 0.68396 0.50434 0.0
H1388 H 0.75981 0.69519 0.52568 0.0
H1389 H 0.73879 0.72137 0.51282 0.0
H1390 H 0.76801 0.76772 0.52429 0.0
H1391 H 0.75904 0.78078 0.55574 0.0
H1392 H 0.62834 0.28518 0.11104 0.0
H1393 H 0.57395 0.29113 0.11129 0.0
H1394 H 0.56158 0.21441 0.1469 0.0
H1395 H 0.61589 0.2083 0.14671 0.0
H1396 H 0.52019 0.21252 0.11929 0.0
H1397 H 0.52486 0.32508 0.15208 0.0
H1398 H 0.54695 0.32356 0.13178 0.0
H1399 H 0.55696 0.30199 0.15129 0.0
C1400 C 0.61415 0.26977 0.11911 0.0
C1401 C 0.62668 0.24634 0.12895 0.0
C1402 C 0.58296 0.2732 0.11923 0.0
C1403 C 0.56359 0.25349 0.12933 0.0
C1404 C 0.57599 0.22994 0.13901 0.0
H1405 H 0.38111 0.28234 0.16348 0.0
H1406 H 0.43486 0.27436 0.16099 0.0
C1407 C 0.60712 0.22642 0.13885 0.0
C1408 C 0.53042 0.25717 0.12976 0.0
H1409 H 0.47718 0.30636 0.14137 0.0
C1410 C 0.51078 0.23305 0.12411 0.0
C1411 C 0.51805 0.28382 0.13624 0.0
C1412 C 0.53774 0.31001 0.14336 0.0
C1413 C 0.47924 0.23486 0.12471 0.0
C1414 C 0.46691 0.26173 0.13086 0.0
C1415 C 0.48656 0.28582 0.13653 0.0
C1416 C 0.43373 0.26507 0.13223 0.0
C1417 C 0.45945 0.20765 0.11922 0.0
C1418 C 0.41494 0.26236 0.11691 0.0
C1419 C 0.384 0.26685 0.11832 0.0
C1420 C 0.37127 0.27453 0.13504 0.0
C1421 C 0.39013 0.27685 0.15036 0.0
C1422 C 0.42093 0.27221 0.14896 0.0
H1423 H 0.47197 0.18669 0.11941 0.0
H1424 H 0.43963 0.20454 0.12832 0.0
H1425 H 0.45114 0.21095 0.10522 0.0
H1426 H 0.4243 0.2575 0.10376 0.0
H1427 H 0.37025 0.26534 0.10621 0.0
H1428 H 0.77286 0.39148 0.60599 0.0
H1429 H 0.7649 0.44545 0.60439 0.0
H1430 H 0.82445 0.4615 0.64985 0.0
H1431 H 0.83217 0.40769 0.65185 0.0
H1432 H 0.74234 0.48373 0.63189 0.0
H1433 H 0.85859 0.52155 0.61115 0.0
H1434 H 0.84431 0.48277 0.60932 0.0
H1435 H 0.85601 0.4979 0.63092 0.0
C1436 C 0.78419 0.4063 0.61576 0.0
C1437 C 0.80338 0.39483 0.62899 0.0
C1438 C 0.7797 0.4373 0.61474 0.0
C1439 C 0.79447 0.45767 0.62679 0.0
C1440 C 0.81333 0.44637 0.64012 0.0
H1441 H 0.79471 0.6547 0.63954 0.0
H1442 H 0.80525 0.60108 0.64233 0.0
C1443 C 0.81774 0.41541 0.64122 0.0
C1444 C 0.78954 0.49061 0.62574 0.0
H1445 H 0.82534 0.55975 0.61802 0.0
C1446 C 0.76046 0.50034 0.6288 0.0
C1447 C 0.81324 0.51236 0.62188 0.0
C1448 C 0.84478 0.50323 0.61798 0.0
C1449 C 0.75449 0.53113 0.62827 0.0
C1450 C 0.77807 0.55291 0.6241 0.0
C1451 C 0.80724 0.54318 0.62121 0.0
C1452 C 0.77262 0.58567 0.6221 0.0
C1453 C 0.723 0.54003 0.63258 0.0
C1454 C 0.75146 0.59508 0.60948 0.0
C1455 C 0.74538 0.62554 0.60793 0.0
C1456 C 0.76055 0.64758 0.61882 0.0
C1457 C 0.78262 0.63834 0.63098 0.0
C1458 C 0.78859 0.60768 0.63261 0.0
H1459 H 0.71049 0.52253 0.64085 0.0
H1460 H 0.72339 0.56178 0.64002 0.0
H1461 H 0.71036 0.54261 0.61976 0.0
H1462 H 0.73955 0.5788 0.60077 0.0
H1463 H 0.72885 0.63183 0.59806 0.0
H1464 H 0.63385 0.71143 0.12921 0.0
H1465 H 0.58021 0.7193 0.12647 0.0
H1466 H 0.59998 0.81529 0.1224 0.0
H1467 H 0.65413 0.80741 0.12498 0.0
H1468 H 0.5449 0.7495 0.14883 0.0
H1469 H 0.54261 0.80097 0.08037 0.0
H1470 H 0.57499 0.78268 0.08888 0.0
H1471 H 0.56811 0.8205 0.0958 0.0
C1472 C 0.62688 0.73426 0.12775 0.0
C1473 C 0.64836 0.75884 0.12746 0.0
C1474 C 0.59611 0.73872 0.1261 0.0
C1475 C 0.58588 0.76785 0.12408 0.0
C1476 C 0.60725 0.79251 0.12357 0.0
H1477 H 0.40625 0.83615 0.12094 0.0
H1478 H 0.46031 0.82975 0.12236 0.0
C1479 C 0.63822 0.78802 0.12509 0.0
C1480 C 0.55279 0.77211 0.1233 0.0
H1481 H 0.49717 0.80036 0.09731 0.0
C1482 C 0.53449 0.76054 0.13752 0.0
C1483 C 0.53908 0.78649 0.10855 0.0
C1484 C 0.55712 0.79814 0.09244 0.0
C1485 C 0.50308 0.76321 0.1375 0.0
C1486 C 0.4894 0.77756 0.12276 0.0
C1487 C 0.50765 0.78932 0.10859 0.0
C1488 C 0.45624 0.78102 0.12193 0.0
C1489 C 0.48486 0.75115 0.15344 0.0
C1490 C 0.43576 0.75573 0.12112 0.0
C1491 C 0.4046 0.75928 0.12016 0.0
C1492 C 0.39322 0.78826 0.11992 0.0
C1493 C 0.41394 0.81349 0.12079 0.0
C1494 C 0.445 0.80989 0.1217 0.0
H1495 H 0.49929 0.74724 0.16541 0.0
H1496 H 0.46747 0.76695 0.15732 0.0
H1497 H 0.47317 0.72931 0.14966 0.0
H1498 H 0.4439 0.73319 0.12098 0.0
H1499 H 0.38954 0.73933 0.11925 0.0
H1500 H 0.31391 0.42028 0.59655 0.0
H1501 H 0.30395 0.4736 0.59913 0.0
H1502 H 0.23985 0.45262 0.64176 0.0
H1503 H 0.25013 0.39893 0.63944 0.0
H1504 H 0.2485 0.5024 0.59547 0.0
H1505 H 0.2986 0.51864 0.66404 0.0
H1506 H 0.30557 0.48636 0.65012 0.0
H1507 H 0.27032 0.48824 0.66183 0.0
C1508 C 0.29785 0.42693 0.60659 0.0
C1509 C 0.2831 0.40528 0.61796 0.0
C1510 C 0.29203 0.45747 0.60796 0.0
C1511 C 0.2715 0.46724 0.62081 0.0
C1512 C 0.25615 0.44568 0.63193 0.0
H1513 H 0.22071 0.64658 0.65185 0.0
H1514 H 0.22708 0.59263 0.64931 0.0
C1515 C 0.26184 0.41497 0.63049 0.0
C1516 C 0.26644 0.50001 0.62247 0.0
H1517 H 0.27649 0.5605 0.65091 0.0
C1518 C 0.25458 0.51512 0.60759 0.0
C1519 C 0.2744 0.51661 0.63829 0.0
C1520 C 0.28816 0.50181 0.65447 0.0
C1521 C 0.25012 0.54625 0.60816 0.0
C1522 C 0.25848 0.56299 0.6239 0.0
C1523 C 0.27016 0.54778 0.63882 0.0
C1524 C 0.25489 0.59616 0.62528 0.0
C1525 C 0.23584 0.56071 0.59203 0.0
C1526 C 0.26881 0.61645 0.6128 0.0
C1527 C 0.26489 0.64752 0.61407 0.0
C1528 C 0.24716 0.65911 0.62798 0.0
C1529 C 0.23397 0.6387 0.64072 0.0
C1530 C 0.23779 0.6077 0.63938 0.0
H1531 H 0.22302 0.54376 0.58355 0.0
H1532 H 0.22036 0.57812 0.59634 0.0
H1533 H 0.25379 0.57174 0.58345 0.0
H1534 H 0.28276 0.60829 0.60205 0.0
H1535 H 0.2754 0.66231 0.60397 0.0
H1536 H 0.6733 0.80527 0.85933 0.0
H1537 H 0.62028 0.81798 0.85791 0.0
H1538 H 0.59666 0.74656 0.89579 0.0
H1539 H 0.64918 0.73458 0.89784 0.0
H1540 H 0.5699 0.78313 0.8472 0.0
H1541 H 0.55734 0.81675 0.91886 0.0
H1542 H 0.59368 0.8122 0.90862 0.0
H1543 H 0.57129 0.77982 0.91664 0.0
C1544 C 0.6569 0.79255 0.86754 0.0
C1545 C 0.66577 0.76885 0.87868 0.0
C1546 C 0.62654 0.79972 0.86663 0.0
C1547 C 0.60447 0.78355 0.87697 0.0
C1548 C 0.61325 0.75982 0.88797 0.0
H1549 H 0.40998 0.7731 0.88903 0.0
H1550 H 0.46412 0.76514 0.88941 0.0
C1551 C 0.64344 0.7527 0.88891 0.0
C1552 C 0.5721 0.79068 0.87599 0.0
H1553 H 0.51167 0.80716 0.90216 0.0
C1554 C 0.55725 0.78872 0.85918 0.0
C1555 C 0.5555 0.79795 0.89163 0.0
C1556 C 0.57033 0.80212 0.90992 0.0
C1557 C 0.52616 0.79288 0.8577 0.0
C1558 C 0.5095 0.79947 0.87341 0.0
C1559 C 0.5244 0.80187 0.89015 0.0
C1560 C 0.47657 0.804 0.87277 0.0
C1561 C 0.51117 0.78932 0.83943 0.0
C1562 C 0.46556 0.8286 0.8634 0.0
C1563 C 0.43464 0.83322 0.86318 0.0
C1564 C 0.41399 0.81332 0.87232 0.0
C1565 C 0.42513 0.78865 0.88167 0.0
C1566 C 0.45611 0.78416 0.88199 0.0
H1567 H 0.52552 0.7779 0.82955 0.0
H1568 H 0.48922 0.7762 0.84062 0.0
H1569 H 0.50674 0.81194 0.83398 0.0
H1570 H 0.48093 0.84443 0.85639 0.0
H1571 H 0.42689 0.85227 0.85571 0.0
H1572 H 0.30599 0.38325 0.34279 0.0
H1573 H 0.29929 0.4371 0.34563 0.0
H1574 H 0.2379 0.41975 0.39013 0.0
H1575 H 0.24533 0.36555 0.38777 0.0
H1576 H 0.24888 0.46925 0.34259 0.0
H1577 H 0.2976 0.48305 0.41156 0.0
H1578 H 0.30157 0.44947 0.39822 0.0
H1579 H 0.26687 0.45512 0.40993 0.0
C1580 C 0.29131 0.39076 0.35335 0.0
C1581 C 0.27655 0.36991 0.36523 0.0
C1582 C 0.28732 0.42167 0.35486 0.0
C1583 C 0.26854 0.43266 0.3683 0.0
C1584 C 0.25305 0.41193 0.37989 0.0
H1585 H 0.22007 0.61338 0.39722 0.0
H1586 H 0.22558 0.55916 0.3949 0.0
C1587 C 0.25704 0.38087 0.37839 0.0
C1588 C 0.26521 0.4658 0.36993 0.0
H1589 H 0.27631 0.52582 0.39867 0.0
C1590 C 0.25493 0.48162 0.35485 0.0
C1591 C 0.27319 0.48203 0.3859 0.0
C1592 C 0.28569 0.46667 0.40229 0.0
C1593 C 0.25202 0.513 0.35537 0.0
C1594 C 0.26007 0.52922 0.37132 0.0
C1595 C 0.27021 0.51342 0.38643 0.0
C1596 C 0.25743 0.56247 0.37274 0.0
C1597 C 0.23971 0.52842 0.33895 0.0
C1598 C 0.27392 0.58262 0.36127 0.0
C1599 C 0.27069 0.61382 0.3625 0.0
C1600 C 0.25091 0.62554 0.37525 0.0
C1601 C 0.23504 0.60526 0.38699 0.0
C1602 C 0.23832 0.57417 0.38578 0.0
H1603 H 0.22774 0.5121 0.32967 0.0
H1604 H 0.22394 0.54575 0.34299 0.0
H1605 H 0.25864 0.53985 0.33135 0.0
H1606 H 0.28927 0.57421 0.35133 0.0
H1607 H 0.28323 0.62867 0.35323 0.0
H1608 H 0.40982 0.28721 0.90912 0.0
H1609 H 0.46319 0.27886 0.90514 0.0
H1610 H 0.44554 0.24718 0.85076 0.0
H1611 H 0.39194 0.25644 0.85448 0.0
H1612 H 0.49294 0.22772 0.89725 0.0
H1613 H 0.51188 0.31344 0.84299 0.0
H1614 H 0.47807 0.31092 0.85658 0.0
H1615 H 0.48264 0.28494 0.83825 0.0
C1616 C 0.41722 0.27866 0.89625 0.0
C1617 C 0.39655 0.27294 0.88202 0.0
C1618 C 0.44779 0.27369 0.89404 0.0
C1619 C 0.45857 0.26296 0.87754 0.0
C1620 C 0.43789 0.2561 0.8635 0.0
H1621 H 0.63791 0.22899 0.83879 0.0
H1622 H 0.58402 0.23417 0.84273 0.0
C1623 C 0.40717 0.26106 0.86571 0.0
C1624 C 0.49148 0.25931 0.87517 0.0
H1625 H 0.55304 0.28432 0.85046 0.0
C1626 C 0.50609 0.24011 0.88703 0.0
C1627 C 0.5087 0.27558 0.86189 0.0
C1628 C 0.49466 0.2976 0.84929 0.0
C1629 C 0.53726 0.23638 0.88579 0.0
C1630 C 0.5545 0.25272 0.87254 0.0
C1631 C 0.53987 0.27184 0.86065 0.0
C1632 C 0.58757 0.24973 0.87044 0.0
C1633 C 0.55134 0.21446 0.89843 0.0
C1634 C 0.60777 0.25717 0.88463 0.0
C1635 C 0.63882 0.25398 0.88247 0.0
C1636 C 0.65032 0.24336 0.86604 0.0
C1637 C 0.62998 0.23658 0.85177 0.0
C1638 C 0.59906 0.23977 0.85394 0.0
H1639 H 0.53418 0.19829 0.90449 0.0
H1640 H 0.56836 0.20151 0.89125 0.0
H1641 H 0.56285 0.22716 0.90963 0.0
H1642 H 0.59955 0.26552 0.89737 0.0
H1643 H 0.65369 0.25938 0.89376 0.0
H1644 H 0.75646 0.40234 0.39874 0.0
H1645 H 0.75585 0.45565 0.3911 0.0
H1646 H 0.80253 0.43932 0.34115 0.0
H1647 H 0.80274 0.38526 0.34875 0.0
H1648 H 0.80261 0.49587 0.38664 0.0
H1649 H 0.73459 0.48879 0.32346 0.0
H1650 H 0.73744 0.45707 0.33854 0.0
H1651 H 0.76777 0.4675 0.32327 0.0
C1652 C 0.76661 0.41 0.38611 0.0
C1653 C 0.7799 0.38955 0.37442 0.0
C1654 C 0.76619 0.44057 0.38173 0.0
C1655 C 0.77907 0.45172 0.36553 0.0
C1656 C 0.79199 0.43131 0.3536 0.0
H1657 H 0.80742 0.65066 0.35502 0.0
H1658 H 0.81742 0.59691 0.35695 0.0
C1659 C 0.79217 0.40043 0.35794 0.0
C1660 C 0.77936 0.48481 0.36172 0.0
H1661 H 0.75277 0.53726 0.33272 0.0
C1662 C 0.7919 0.50491 0.37477 0.0
C1663 C 0.76522 0.49672 0.3463 0.0
C1664 C 0.75024 0.47648 0.33214 0.0
C1665 C 0.78995 0.53634 0.37313 0.0
C1666 C 0.77571 0.54825 0.35776 0.0
C1667 C 0.76388 0.52821 0.34445 0.0
C1668 C 0.77043 0.58108 0.35597 0.0
C1669 C 0.80189 0.55632 0.38835 0.0
C1670 C 0.74084 0.59024 0.35435 0.0
C1671 C 0.73514 0.62081 0.3531 0.0
C1672 C 0.75887 0.64323 0.35341 0.0
C1673 C 0.7886 0.63409 0.35494 0.0
C1674 C 0.79432 0.60332 0.35608 0.0
H1675 H 0.80562 0.54328 0.40093 0.0
H1676 H 0.82381 0.56748 0.38425 0.0
H1677 H 0.78611 0.57414 0.39145 0.0
H1678 H 0.72197 0.57366 0.35433 0.0
H1679 H 0.71193 0.62685 0.35226 0.0
H1680 H 0.20054 0.26758 0.32229 0.0
H1681 H 0.19033 0.26489 0.28954 0.0
H1682 H 0.26619 0.2097 0.28238 0.0
H1683 H 0.27659 0.21239 0.31479 0.0
H1684 H 0.23523 0.28493 0.2625 0.0
H1685 H 0.19655 0.1648 0.25346 0.0
H1686 H 0.195 0.18394 0.27502 0.0
H1687 H 0.23011 0.17106 0.26686 0.0
C1688 C 0.21475 0.25457 0.31373 0.0
C1689 C 0.23942 0.24031 0.32108 0.0
C1690 C 0.2089 0.25303 0.29508 0.0
C1691 C 0.22728 0.23673 0.28361 0.0
C1692 C 0.25142 0.22192 0.29103 0.0
H1693 H 0.26237 0.21488 0.16951 0.0
H1694 H 0.25701 0.20811 0.20245 0.0
C1695 C 0.25746 0.22372 0.30955 0.0
C1696 C 0.22327 0.23737 0.26369 0.0
H1697 H 0.21062 0.19223 0.22667 0.0
C1698 C 0.2294 0.26479 0.25465 0.0
C1699 C 0.21615 0.21092 0.25354 0.0
C1700 C 0.20883 0.181 0.26268 0.0
C1701 C 0.22958 0.26636 0.23567 0.0
C1702 C 0.22252 0.23989 0.22544 0.0
C1703 C 0.21593 0.21249 0.23451 0.0
C1704 C 0.22257 0.24038 0.20533 0.0
C1705 C 0.23865 0.29617 0.22678 0.0
C1706 C 0.20399 0.25959 0.19595 0.0
C1707 C 0.20731 0.26373 0.17731 0.0
C1708 C 0.22875 0.24818 0.1676 0.0
C1709 C 0.24562 0.22704 0.17669 0.0
C1710 C 0.24262 0.22325 0.19548 0.0
H1711 H 0.25119 0.31174 0.23626 0.0
H1712 H 0.25295 0.29291 0.21468 0.0
H1713 H 0.2181 0.30723 0.22238 0.0
H1714 H 0.18776 0.27236 0.20318 0.0
H1715 H 0.19375 0.2799 0.17056 0.0
H1716 H 0.79947 0.26547 0.81918 0.0
H1717 H 0.80261 0.26158 0.78641 0.0
H1718 H 0.81441 0.16622 0.79086 0.0
H1719 H 0.81132 0.16979 0.82408 0.0
H1720 H 0.85404 0.20636 0.76298 0.0
H1721 H 0.72954 0.21231 0.75895 0.0
H1722 H 0.74889 0.23946 0.77355 0.0
H1723 H 0.74841 0.20007 0.77912 0.0
C1724 C 0.80317 0.24365 0.81335 0.0
C1725 C 0.8049 0.21786 0.82435 0.0
C1726 C 0.80497 0.24153 0.79455 0.0
C1727 C 0.80851 0.21363 0.78625 0.0
C1728 C 0.81168 0.18798 0.79708 0.0
H1729 H 0.75937 0.18928 0.67296 0.0
H1730 H 0.76895 0.17987 0.70498 0.0
C1731 C 0.80988 0.19006 0.81603 0.0
C1732 C 0.80647 0.2114 0.76627 0.0
H1733 H 0.75677 0.21862 0.73153 0.0
C1734 C 0.83277 0.20864 0.75604 0.0
C1735 C 0.77867 0.21422 0.75732 0.0
C1736 C 0.74965 0.21647 0.76773 0.0
C1737 C 0.83207 0.20959 0.73697 0.0
C1738 C 0.8044 0.2138 0.72803 0.0
C1739 C 0.77801 0.21552 0.73835 0.0
C1740 C 0.80203 0.2172 0.70804 0.0
C1741 C 0.86088 0.20607 0.72659 0.0
C1742 C 0.8178 0.24107 0.69897 0.0
C1743 C 0.81246 0.24645 0.68057 0.0
C1744 C 0.79093 0.22828 0.67099 0.0
C1745 C 0.77595 0.20383 0.67997 0.0
C1746 C 0.78144 0.19837 0.69828 0.0
H1747 H 0.87758 0.19427 0.73479 0.0
H1748 H 0.85656 0.19335 0.71382 0.0
H1749 H 0.87102 0.22875 0.72308 0.0
H1750 H 0.8333 0.25634 0.70629 0.0
H1751 H 0.82421 0.26559 0.67408 0.0
H1752 H 0.8048 0.82889 0.16343 0.0
H1753 H 0.81831 0.83709 0.19541 0.0
H1754 H 0.79849 0.74243 0.20614 0.0
H1755 H 0.78673 0.73402 0.17435 0.0
H1756 H 0.78677 0.83271 0.22381 0.0
H1757 H 0.87424 0.75199 0.23343 0.0
H1758 H 0.8613 0.76181 0.21114 0.0
H1759 H 0.8421 0.73173 0.2239 0.0
C1760 C 0.80381 0.80985 0.17264 0.0
C1761 C 0.79495 0.7808 0.16643 0.0
C1762 C 0.81159 0.8145 0.19088 0.0
C1763 C 0.81029 0.79023 0.20319 0.0
C1764 C 0.80104 0.76133 0.19689 0.0
H1765 H 0.74493 0.7812 0.30812 0.0
H1766 H 0.75756 0.78985 0.2765 0.0
C1767 C 0.79392 0.7566 0.17869 0.0
C1768 C 0.81547 0.79513 0.22291 0.0
H1769 H 0.84273 0.76052 0.26032 0.0
C1770 C 0.79968 0.81738 0.23172 0.0
C1771 C 0.83318 0.77606 0.2334 0.0
C1772 C 0.85393 0.75436 0.22488 0.0
C1773 C 0.79874 0.81906 0.25069 0.0
C1774 C 0.81282 0.79707 0.26113 0.0
C1775 C 0.83109 0.77682 0.25238 0.0
C1776 C 0.80591 0.79247 0.28068 0.0
C1777 C 0.78199 0.84402 0.25926 0.0
C1778 C 0.82886 0.78939 0.29359 0.0
C1779 C 0.82158 0.78353 0.31181 0.0
C1780 C 0.79129 0.78087 0.31733 0.0
C1781 C 0.76851 0.78365 0.30435 0.0
C1782 C 0.77572 0.78896 0.28624 0.0
H1783 H 0.78418 0.86483 0.25088 0.0
H1784 H 0.75764 0.83706 0.26003 0.0
H1785 H 0.79042 0.84943 0.27311 0.0
H1786 H 0.85233 0.79155 0.28958 0.0
H1787 H 0.83956 0.7814 0.32155 0.0
H1788 H 0.2488 0.84127 0.82556 0.0
H1789 H 0.23226 0.85276 0.79462 0.0
H1790 H 0.31147 0.81355 0.77317 0.0
H1791 H 0.32857 0.80347 0.80357 0.0
H1792 H 0.30257 0.86402 0.75657 0.0
H1793 H 0.19434 0.7946 0.75851 0.0
H1794 H 0.19824 0.82448 0.77487 0.0
H1795 H 0.22208 0.79318 0.77628 0.0
C1796 C 0.26271 0.83538 0.81419 0.0
C1797 C 0.29002 0.82152 0.81705 0.0
C1798 C 0.25311 0.84168 0.79653 0.0
C1799 C 0.2704 0.83363 0.78151 0.0
C1800 C 0.29773 0.82009 0.78448 0.0
H1801 H 0.24098 0.77948 0.67379 0.0
H1802 H 0.23816 0.78796 0.70644 0.0
C1803 C 0.3075 0.81432 0.80197 0.0
C1804 C 0.26089 0.83895 0.76251 0.0
H1805 H 0.20851 0.81658 0.73064 0.0
C1806 C 0.28183 0.85393 0.75091 0.0
C1807 C 0.23384 0.82571 0.75516 0.0
C1808 C 0.21087 0.80838 0.76677 0.0
C1809 C 0.27773 0.85409 0.73208 0.0
C1810 C 0.2509 0.8404 0.72462 0.0
C1811 C 0.22898 0.82715 0.73634 0.0
C1812 C 0.24698 0.83641 0.70472 0.0
C1813 C 0.30339 0.86687 0.72045 0.0
C1814 C 0.25128 0.8609 0.69273 0.0
C1815 C 0.25397 0.85592 0.67412 0.0
C1816 C 0.25093 0.82651 0.66713 0.0
C1817 C 0.24339 0.80238 0.67887 0.0
C1818 C 0.24176 0.80725 0.69754 0.0
H1819 H 0.32493 0.86928 0.7281 0.0
H1820 H 0.30693 0.85228 0.70852 0.0
H1821 H 0.29813 0.88963 0.71559 0.0
H1822 H 0.25413 0.88373 0.69784 0.0
H1823 H 0.25941 0.87491 0.66524 0.0
H1824 H 0.75298 0.78454 0.82457 0.0
H1825 H 0.74725 0.779 0.79155 0.0
H1826 H 0.84079 0.80791 0.78435 0.0
H1827 H 0.8467 0.81323 0.81705 0.0
H1828 H 0.75937 0.81888 0.76142 0.0
H1829 H 0.83363 0.72286 0.76135 0.0
H1830 H 0.81704 0.73692 0.78179 0.0
H1831 H 0.85042 0.75571 0.77237 0.0
C1832 C 0.77205 0.79045 0.81588 0.0
C1833 C 0.80036 0.79907 0.82334 0.0
C1834 C 0.76884 0.78701 0.79707 0.0
C1835 C 0.79387 0.79215 0.78562 0.0
C1836 C 0.82144 0.803 0.79301 0.0
H1837 H 0.81911 0.8299 0.67465 0.0
H1838 H 0.81759 0.82637 0.70761 0.0
C1839 C 0.82469 0.8063 0.81167 0.0
C1840 C 0.79192 0.7856 0.76598 0.0
H1841 H 0.82559 0.74634 0.73251 0.0
C1842 C 0.77347 0.80271 0.75511 0.0
C1843 C 0.80989 0.76402 0.75781 0.0
C1844 C 0.82863 0.74359 0.76895 0.0
C1845 C 0.774 0.80017 0.73616 0.0
C1846 C 0.79383 0.78037 0.72794 0.0
C1847 C 0.81079 0.76184 0.73885 0.0
C1848 C 0.79868 0.78041 0.7081 0.0
C1849 C 0.75376 0.81918 0.72506 0.0
C1850 C 0.79055 0.75495 0.69751 0.0
C1851 C 0.79182 0.75677 0.67854 0.0
C1852 C 0.80119 0.7841 0.67008 0.0
C1853 C 0.81158 0.80864 0.68082 0.0
C1854 C 0.81046 0.80676 0.69964 0.0
H1855 H 0.73418 0.82613 0.73309 0.0
H1856 H 0.76675 0.83994 0.72056 0.0
H1857 H 0.74529 0.80683 0.71284 0.0
H1858 H 0.78176 0.73427 0.70385 0.0
H1859 H 0.7835 0.73758 0.67058 0.0
H1860 H 0.29657 0.74825 0.17986 0.0
H1861 H 0.28358 0.74971 0.21191 0.0
H1862 H 0.22327 0.82044 0.20151 0.0
H1863 H 0.2362 0.81912 0.16908 0.0
H1864 H 0.2649 0.82486 0.2353 0.0
H1865 H 0.19504 0.71796 0.22809 0.0
H1866 H 0.23159 0.71765 0.21768 0.0
H1867 H 0.20442 0.74259 0.20915 0.0
C1868 C 0.28089 0.76449 0.18437 0.0
C1869 C 0.26723 0.78343 0.17194 0.0
C1870 C 0.27343 0.7652 0.20268 0.0
C1871 C 0.25211 0.78478 0.20894 0.0
C1872 C 0.23965 0.80504 0.19683 0.0
H1873 H 0.21191 0.78494 0.32671 0.0
H1874 H 0.20442 0.79655 0.29447 0.0
C1875 C 0.24716 0.80436 0.17838 0.0
C1876 C 0.24221 0.78253 0.22804 0.0
H1877 H 0.21141 0.73122 0.25815 0.0
C1878 C 0.25248 0.80484 0.24034 0.0
C1879 C 0.2259 0.75639 0.23444 0.0
C1880 C 0.21332 0.73235 0.22165 0.0
C1881 C 0.24887 0.80053 0.2591 0.0
C1882 C 0.23445 0.77336 0.26554 0.0
C1883 C 0.22244 0.75201 0.25315 0.0
C1884 C 0.23584 0.76468 0.28486 0.0
C1885 C 0.26234 0.82399 0.27197 0.0
C1886 C 0.25513 0.74226 0.28998 0.0
C1887 C 0.25944 0.73566 0.30822 0.0
C1888 C 0.2443 0.75117 0.32171 0.0
C1889 C 0.22371 0.77252 0.31656 0.0
C1890 C 0.2196 0.77934 0.29821 0.0
H1891 H 0.2747 0.84287 0.26476 0.0
H1892 H 0.24413 0.83337 0.28016 0.0
H1893 H 0.27808 0.81352 0.28147 0.0
H1894 H 0.26778 0.73066 0.27985 0.0
H1895 H 0.27539 0.71906 0.31179 0.0
H1896 H 0.24775 0.24308 0.66674 0.0
H1897 H 0.25222 0.23193 0.69887 0.0
H1898 H 0.22201 0.31994 0.71199 0.0
H1899 H 0.21683 0.33106 0.67944 0.0
H1900 H 0.29118 0.26292 0.72113 0.0
H1901 H 0.17436 0.26517 0.74773 0.0
H1902 H 0.1825 0.26261 0.72383 0.0
H1903 H 0.1874 0.29821 0.7353 0.0
C1904 C 0.24148 0.25991 0.67645 0.0
C1905 C 0.23205 0.28802 0.67061 0.0
C1906 C 0.2441 0.2535 0.69483 0.0
C1907 C 0.23752 0.27505 0.70787 0.0
C1908 C 0.22681 0.30277 0.70216 0.0
H1909 H 0.30933 0.27732 0.81724 0.0
H1910 H 0.30025 0.28527 0.78507 0.0
C1911 C 0.22385 0.30914 0.6836 0.0
C1912 C 0.24447 0.26897 0.72719 0.0
H1913 H 0.21337 0.26038 0.76932 0.0
C1914 C 0.27413 0.26235 0.73167 0.0
C1915 C 0.22218 0.2679 0.74088 0.0
C1916 C 0.18975 0.27358 0.73675 0.0
C1917 C 0.28213 0.25469 0.7494 0.0
C1918 C 0.26003 0.25425 0.76319 0.0
C1919 C 0.23032 0.26077 0.75874 0.0
C1920 C 0.26738 0.24766 0.78237 0.0
C1921 C 0.31407 0.24655 0.75312 0.0
C1922 C 0.25214 0.22368 0.79158 0.0
C1923 C 0.25724 0.21906 0.81008 0.0
C1924 C 0.27751 0.23855 0.81974 0.0
C1925 C 0.29369 0.26175 0.81024 0.0
C1926 C 0.28854 0.26635 0.7918 0.0
H1927 H 0.32553 0.23947 0.74057 0.0
H1928 H 0.32708 0.26657 0.75862 0.0
H1929 H 0.31468 0.22805 0.76323 0.0
H1930 H 0.23572 0.20897 0.78456 0.0
H1931 H 0.2442 0.20115 0.81695 0.0
H1932 H 0.73785 0.2885 0.31873 0.0
H1933 H 0.74303 0.2834 0.28602 0.0
H1934 H 0.83157 0.2502 0.29311 0.0
H1935 H 0.82653 0.25509 0.32618 0.0
H1936 H 0.82346 0.29679 0.26378 0.0
H1937 H 0.74165 0.19771 0.26083 0.0
H1938 H 0.72913 0.22894 0.27376 0.0
H1939 H 0.76109 0.20936 0.2814 0.0
C1940 C 0.75859 0.28035 0.3134 0.0
C1941 C 0.78173 0.27202 0.32507 0.0
C1942 C 0.76143 0.27733 0.29469 0.0
C1943 C 0.78744 0.26596 0.28721 0.0
C1944 C 0.81122 0.25882 0.29868 0.0
H1945 H 0.78044 0.21778 0.17123 0.0
H1946 H 0.7923 0.21527 0.20372 0.0
C1947 C 0.80834 0.26172 0.31753 0.0
C1948 C 0.78904 0.2612 0.26738 0.0
H1949 H 0.75248 0.22327 0.23286 0.0
C1950 C 0.80835 0.28039 0.25699 0.0
C1951 C 0.76959 0.2395 0.2586 0.0
C1952 C 0.74935 0.21747 0.26919 0.0
C1953 C 0.80739 0.27964 0.23796 0.0
C1954 C 0.78635 0.2594 0.22918 0.0
C1955 C 0.76842 0.23894 0.2396 0.0
C1956 C 0.78065 0.26097 0.20941 0.0
C1957 C 0.82842 0.30096 0.22741 0.0
C1958 C 0.76973 0.28726 0.20193 0.0
C1959 C 0.76276 0.28867 0.18353 0.0
C1960 C 0.76648 0.26376 0.17216 0.0
C1961 C 0.77738 0.23734 0.17964 0.0
C1962 C 0.78422 0.2359 0.19816 0.0
H1963 H 0.8488 0.30789 0.23544 0.0
H1964 H 0.83558 0.29054 0.21455 0.0
H1965 H 0.81661 0.3216 0.22404 0.0
H1966 H 0.76611 0.30662 0.21042 0.0
H1967 H 0.75437 0.30935 0.17823 0.0
loop_
_geom_bond_atom_site_label_1
_geom_bond_atom_site_label_2
_geom_bond_distance
_geom_bond_site_symmetry_2
_ccdc_geom_bond_type
Co0 N4 2.148 . S
Co0 N10 2.128 . S
Co0 N20 2.194 . S
Co0 O25 2.351 . S
Co0 O26 2.155 . S
Co0 O27 2.096 . S
C1 N4 1.301 . S
C1 N5 1.328 . S
C1 H6 0.930 . S
C2 C3 1.333 . S
C2 N4 1.317 . S
C2 H7 0.930 . S
C3 C2 1.333 . S
C3 N5 1.350 . S
C3 H29 0.931 . S
N4 Co0 2.148 . S
N4 C1 1.301 . S
N4 C2 1.317 . S
N5 C1 1.328 . S
N5 C3 1.350 . S
H6 C1 0.930 . S
H7 C2 0.930 . S
C8 O9 1.224 . S
C8 O27 1.247 . S
O9 C8 1.224 . S
N10 Co0 2.128 . S
N10 C11 1.355 . S
N10 C13 1.311 . S
C11 N10 1.355 . S
C11 C12 1.363 . S
C11 H23 0.929 . S
C12 C11 1.363 . S
C12 N14 1.375 . S
C12 H30 0.931 . S
C13 N10 1.311 . S
C13 N14 1.347 . S
C13 H24 0.929 . S
N14 C12 1.375 . S
N14 C13 1.347 . S
C15 C18 1.365 . S
C15 N20 1.328 . S
C15 H21 0.929 . S
C16 C17 1.362 . S
C16 C19 1.378 . S
C16 H31 0.929 . S
C17 C16 1.362 . S
C17 C18 1.366 . S
C18 C15 1.365 . S
C18 C17 1.366 . S
C18 H32 0.930 . S
C19 C16 1.378 . S
C19 N20 1.315 . S
C19 H22 0.930 . S
N20 Co0 2.194 . S
N20 C15 1.328 . S
N20 C19 1.315 . S
H21 C15 0.929 . S
H22 C19 0.930 . S
H23 C11 0.929 . S
H24 C13 0.929 . S
O25 Co0 2.351 . S
O25 C28 1.244 . S
O26 Co0 2.155 . S
O26 C28 1.240 . S
O27 Co0 2.096 . S
O27 C8 1.247 . S
C28 O25 1.244 . S
C28 O26 1.240 . S
H29 C3 0.931 . S
H30 C12 0.931 . S
H31 C16 0.929 . S
H32 C18 0.930 . S
Co33 N37 2.148 . S
Co33 N43 2.128 . S
Co33 N53 2.194 . S
Co33 O58 2.351 . S
Co33 O59 2.155 . S
Co33 O60 2.096 . S
C34 N37 1.301 . S
C34 N38 1.328 . S
C34 H39 0.930 . S
C35 C36 1.333 . S
C35 N37 1.317 . S
C35 H40 0.930 . S
C36 C35 1.333 . S
C36 N38 1.350 . S
C36 H62 0.931 . S
N37 Co33 2.148 . S
N37 C34 1.301 . S
N37 C35 1.317 . S
N38 C34 1.328 . S
N38 C36 1.350 . S
H39 C34 0.930 . S
H40 C35 0.930 . S
C41 O42 1.224 . S
C41 O60 1.247 . S
O42 C41 1.224 . S
N43 Co33 2.128 . S
N43 C44 1.355 . S
N43 C46 1.311 . S
C44 N43 1.355 . S
C44 C45 1.363 . S
C44 H56 0.929 . S
C45 C44 1.363 . S
C45 N47 1.375 . S
C45 H63 0.931 . S
C46 N43 1.311 . S
C46 N47 1.347 . S
C46 H57 0.929 . S
N47 C45 1.375 . S
N47 C46 1.347 . S
C48 C51 1.365 . S
C48 N53 1.328 . S
C48 H54 0.929 . S
C49 C50 1.362 . S
C49 C52 1.378 . S
C49 H64 0.929 . S
C50 C49 1.362 . S
C50 C51 1.366 . S
C51 C48 1.365 . S
C51 C50 1.366 . S
C51 H65 0.930 . S
C52 C49 1.378 . S
C52 N53 1.315 . S
C52 H55 0.930 . S
N53 Co33 2.194 . S
N53 C48 1.328 . S
N53 C52 1.315 . S
H54 C48 0.929 . S
H55 C52 0.930 . S
H56 C44 0.929 . S
H57 C46 0.929 . S
O58 Co33 2.351 . S
O58 C61 1.244 . S
O59 Co33 2.155 . S
O59 C61 1.240 . S
O60 Co33 2.096 . S
O60 C41 1.247 . S
C61 O58 1.244 . S
C61 O59 1.240 . S
H62 C36 0.931 . S
H63 C45 0.931 . S
H64 C49 0.929 . S
H65 C51 0.930 . S
Co66 N70 2.148 . S
Co66 N76 2.128 . S
Co66 N86 2.194 . S
Co66 O91 2.351 . S
Co66 O92 2.155 . S
Co66 O93 2.096 . S
C67 N70 1.301 . S
C67 N71 1.328 . S
C67 H72 0.930 . S
C68 C69 1.333 . S
C68 N70 1.317 . S
C68 H73 0.930 . S
C69 C68 1.333 . S
C69 N71 1.350 . S
C69 H95 0.931 . S
N70 Co66 2.148 . S
N70 C67 1.301 . S
N70 C68 1.317 . S
N71 C67 1.328 . S
N71 C69 1.350 . S
H72 C67 0.930 . S
H73 C68 0.930 . S
C74 O75 1.224 . S
C74 O93 1.247 . S
O75 C74 1.224 . S
N76 Co66 2.128 . S
N76 C77 1.355 . S
N76 C79 1.311 . S
C77 N76 1.355 . S
C77 C78 1.363 . S
C77 H89 0.929 . S
C78 C77 1.363 . S
C78 N80 1.375 . S
C78 H96 0.931 . S
C79 N76 1.311 . S
C79 N80 1.347 . S
C79 H90 0.929 . S
N80 C78 1.375 . S
N80 C79 1.347 . S
C81 C84 1.365 . S
C81 N86 1.328 . S
C81 H87 0.929 . S
C82 C83 1.362 . S
C82 C85 1.378 . S
C82 H97 0.929 . S
C83 C82 1.362 . S
C83 C84 1.366 . S
C84 C81 1.365 . S
C84 C83 1.366 . S
C84 H98 0.930 . S
C85 C82 1.378 . S
C85 N86 1.315 . S
C85 H88 0.930 . S
N86 Co66 2.194 . S
N86 C81 1.328 . S
N86 C85 1.315 . S
H87 C81 0.929 . S
H88 C85 0.930 . S
H89 C77 0.929 . S
H90 C79 0.929 . S
O91 Co66 2.351 . S
O91 C94 1.244 . S
O92 Co66 2.155 . S
O92 C94 1.240 . S
O93 Co66 2.096 . S
O93 C74 1.247 . S
C94 O91 1.244 . S
C94 O92 1.240 . S
H95 C69 0.931 . S
H96 C78 0.931 . S
H97 C82 0.929 . S
H98 C84 0.930 . S
Co99 N103 2.148 . S
Co99 N109 2.128 . S
Co99 N119 2.194 . S
Co99 O124 2.351 . S
Co99 O125 2.155 . S
Co99 O126 2.096 . S
C100 N103 1.301 . S
C100 N104 1.328 . S
C100 H105 0.930 . S
C101 C102 1.333 . S
C101 N103 1.317 . S
C101 H106 0.930 . S
C102 C101 1.333 . S
C102 N104 1.350 . S
C102 H128 0.931 . S
N103 Co99 2.148 . S
N103 C100 1.301 . S
N103 C101 1.317 . S
N104 C100 1.328 . S
N104 C102 1.350 . S
H105 C100 0.930 . S
H106 C101 0.930 . S
C107 O108 1.224 . S
C107 O126 1.247 . S
O108 C107 1.224 . S
N109 Co99 2.128 . S
N109 C110 1.355 . S
N109 C112 1.311 . S
C110 N109 1.355 . S
C110 C111 1.363 . S
C110 H122 0.929 . S
C111 C110 1.363 . S
C111 N113 1.375 . S
C111 H129 0.931 . S
C112 N109 1.311 . S
C112 N113 1.347 . S
C112 H123 0.929 . S
N113 C111 1.375 . S
N113 C112 1.347 . S
C114 C117 1.365 . S
C114 N119 1.328 . S
C114 H120 0.929 . S
C115 C116 1.362 . S
C115 C118 1.378 . S
C115 H130 0.929 . S
C116 C115 1.362 . S
C116 C117 1.366 . S
C117 C114 1.365 . S
C117 C116 1.366 . S
C117 H131 0.930 . S
C118 C115 1.378 . S
C118 N119 1.315 . S
C118 H121 0.930 . S
N119 Co99 2.194 . S
N119 C114 1.328 . S
N119 C118 1.315 . S
H120 C114 0.929 . S
H121 C118 0.930 . S
H122 C110 0.929 . S
H123 C112 0.929 . S
O124 Co99 2.351 . S
O124 C127 1.244 . S
O125 Co99 2.155 . S
O125 C127 1.240 . S
O126 Co99 2.096 . S
O126 C107 1.247 . S
C127 O124 1.244 . S
C127 O125 1.240 . S
H128 C102 0.931 . S
H129 C111 0.931 . S
H130 C115 0.929 . S
H131 C117 0.930 . S
Co132 N136 2.148 . S
Co132 N142 2.128 . S
Co132 N152 2.194 . S
Co132 O157 2.351 . S
Co132 O158 2.155 . S
Co132 O159 2.096 . S
C133 N136 1.301 . S
C133 N137 1.328 . S
C133 H138 0.930 . S
C134 C135 1.333 . S
C134 N136 1.317 . S
C134 H139 0.930 . S
C135 C134 1.333 . S
C135 N137 1.350 . S
C135 H161 0.931 . S
N136 Co132 2.148 . S
N136 C133 1.301 . S
N136 C134 1.317 . S
N137 C133 1.328 . S
N137 C135 1.350 . S
H138 C133 0.930 . S
H139 C134 0.930 . S
C140 O141 1.224 . S
C140 O159 1.247 . S
O141 C140 1.224 . S
N142 Co132 2.128 . S
N142 C143 1.355 . S
N142 C145 1.311 . S
C143 N142 1.355 . S
C143 C144 1.363 . S
C143 H155 0.929 . S
C144 C143 1.363 . S
C144 N146 1.375 . S
C144 H162 0.931 . S
C145 N142 1.311 . S
C145 N146 1.347 . S
C145 H156 0.929 . S
N146 C144 1.375 . S
N146 C145 1.347 . S
C147 C150 1.365 . S
C147 N152 1.328 . S
C147 H153 0.929 . S
C148 C149 1.362 . S
C148 C151 1.378 . S
C148 H163 0.929 . S
C149 C148 1.362 . S
C149 C150 1.366 . S
C150 C147 1.365 . S
C150 C149 1.366 . S
C150 H164 0.930 . S
C151 C148 1.378 . S
C151 N152 1.315 . S
C151 H154 0.930 . S
N152 Co132 2.194 . S
N152 C147 1.328 . S
N152 C151 1.315 . S
H153 C147 0.929 . S
H154 C151 0.930 . S
H155 C143 0.929 . S
H156 C145 0.929 . S
O157 Co132 2.351 . S
O157 C160 1.244 . S
O158 Co132 2.155 . S
O158 C160 1.240 . S
O159 Co132 2.096 . S
O159 C140 1.247 . S
C160 O157 1.244 . S
C160 O158 1.240 . S
H161 C135 0.931 . S
H162 C144 0.931 . S
H163 C148 0.929 . S
H164 C150 0.930 . S
Co165 N169 2.148 . S
Co165 N175 2.128 . S
Co165 N185 2.194 . S
Co165 O190 2.351 . S
Co165 O191 2.155 . S
Co165 O192 2.096 . S
C166 N169 1.301 . S
C166 N170 1.328 . S
C166 H171 0.930 . S
C167 C168 1.333 . S
C167 N169 1.317 . S
C167 H172 0.930 . S
C168 C167 1.333 . S
C168 N170 1.350 . S
C168 H194 0.931 . S
N169 Co165 2.148 . S
N169 C166 1.301 . S
N169 C167 1.317 . S
N170 C166 1.328 . S
N170 C168 1.350 . S
H171 C166 0.930 . S
H172 C167 0.930 . S
C173 O174 1.224 . S
C173 O192 1.247 . S
O174 C173 1.224 . S
N175 Co165 2.128 . S
N175 C176 1.355 . S
N175 C178 1.311 . S
C176 N175 1.355 . S
C176 C177 1.363 . S
C176 H188 0.929 . S
C177 C176 1.363 . S
C177 N179 1.375 . S
C177 H195 0.931 . S
C178 N175 1.311 . S
C178 N179 1.347 . S
C178 H189 0.929 . S
N179 C177 1.375 . S
N179 C178 1.347 . S
C180 C183 1.365 . S
C180 N185 1.328 . S
C180 H186 0.929 . S
C181 C182 1.362 . S
C181 C184 1.378 . S
C181 H196 0.929 . S
C182 C181 1.362 . S
C182 C183 1.366 . S
C183 C180 1.365 . S
C183 C182 1.366 . S
C183 H197 0.930 . S
C184 C181 1.378 . S
C184 N185 1.315 . S
C184 H187 0.930 . S
N185 Co165 2.194 . S
N185 C180 1.328 . S
N185 C184 1.315 . S
H186 C180 0.929 . S
H187 C184 0.930 . S
H188 C176 0.929 . S
H189 C178 0.929 . S
O190 Co165 2.351 . S
O190 C193 1.244 . S
O191 Co165 2.155 . S
O191 C193 1.240 . S
O192 Co165 2.096 . S
O192 C173 1.247 . S
C193 O190 1.244 . S
C193 O191 1.240 . S
H194 C168 0.931 . S
H195 C177 0.931 . S
H196 C181 0.929 . S
H197 C183 0.930 . S
Co198 N202 2.148 . S
Co198 N208 2.128 . S
Co198 N218 2.194 . S
Co198 O223 2.351 . S
Co198 O224 2.155 . S
Co198 O225 2.096 . S
C199 N202 1.301 . S
C199 N203 1.328 . S
C199 H204 0.930 . S
C200 C201 1.333 . S
C200 N202 1.317 . S
C200 H205 0.930 . S
C201 C200 1.333 . S
C201 N203 1.350 . S
C201 H227 0.931 . S
N202 Co198 2.148 . S
N202 C199 1.301 . S
N202 C200 1.317 . S
N203 C199 1.328 . S
N203 C201 1.350 . S
H204 C199 0.930 . S
H205 C200 0.930 . S
C206 O207 1.224 . S
C206 O225 1.247 . S
O207 C206 1.224 . S
N208 Co198 2.128 . S
N208 C209 1.355 . S
N208 C211 1.311 . S
C209 N208 1.355 . S
C209 C210 1.363 . S
C209 H221 0.929 . S
C210 C209 1.363 . S
C210 N212 1.375 . S
C210 H228 0.931 . S
C211 N208 1.311 . S
C211 N212 1.347 . S
C211 H222 0.929 . S
N212 C210 1.375 . S
N212 C211 1.347 . S
C213 C216 1.365 . S
C213 N218 1.328 . S
C213 H219 0.929 . S
C214 C215 1.362 . S
C214 C217 1.378 . S
C214 H229 0.929 . S
C215 C214 1.362 . S
C215 C216 1.366 . S
C216 C213 1.365 . S
C216 C215 1.366 . S
C216 H230 0.930 . S
C217 C214 1.378 . S
C217 N218 1.315 . S
C217 H220 0.930 . S
N218 Co198 2.194 . S
N218 C213 1.328 . S
N218 C217 1.315 . S
H219 C213 0.929 . S
H220 C217 0.930 . S
H221 C209 0.929 . S
H222 C211 0.929 . S
O223 Co198 2.351 . S
O223 C226 1.244 . S
O224 Co198 2.155 . S
O224 C226 1.240 . S
O225 Co198 2.096 . S
O225 C206 1.247 . S
C226 O223 1.244 . S
C226 O224 1.240 . S
H227 C201 0.931 . S
H228 C210 0.931 . S
H229 C214 0.929 . S
H230 C216 0.930 . S
Co231 N235 2.148 . S
Co231 N241 2.128 . S
Co231 N251 2.194 . S
Co231 O256 2.351 . S
Co231 O257 2.155 . S
Co231 O258 2.096 . S
C232 N235 1.301 . S
C232 N236 1.328 . S
C232 H237 0.930 . S
C233 C234 1.333 . S
C233 N235 1.317 . S
C233 H238 0.930 . S
C234 C233 1.333 . S
C234 N236 1.350 . S
C234 H260 0.931 . S
N235 Co231 2.148 . S
N235 C232 1.301 . S
N235 C233 1.317 . S
N236 C232 1.328 . S
N236 C234 1.350 . S
H237 C232 0.930 . S
H238 C233 0.930 . S
C239 O240 1.224 . S
C239 O258 1.247 . S
O240 C239 1.224 . S
N241 Co231 2.128 . S
N241 C242 1.355 . S
N241 C244 1.311 . S
C242 N241 1.355 . S
C242 C243 1.363 . S
C242 H254 0.929 . S
C243 C242 1.363 . S
C243 N245 1.375 . S
C243 H261 0.931 . S
C244 N241 1.311 . S
C244 N245 1.347 . S
C244 H255 0.929 . S
N245 C243 1.375 . S
N245 C244 1.347 . S
C246 C249 1.365 . S
C246 N251 1.328 . S
C246 H252 0.929 . S
C247 C248 1.362 . S
C247 C250 1.378 . S
C247 H262 0.929 . S
C248 C247 1.362 . S
C248 C249 1.366 . S
C249 C246 1.365 . S
C249 C248 1.366 . S
C249 H263 0.930 . S
C250 C247 1.378 . S
C250 N251 1.315 . S
C250 H253 0.930 . S
N251 Co231 2.194 . S
N251 C246 1.328 . S
N251 C250 1.315 . S
H252 C246 0.929 . S
H253 C250 0.930 . S
H254 C242 0.929 . S
H255 C244 0.929 . S
O256 Co231 2.351 . S
O256 C259 1.244 . S
O257 Co231 2.155 . S
O257 C259 1.240 . S
O258 Co231 2.096 . S
O258 C239 1.247 . S
C259 O256 1.244 . S
C259 O257 1.240 . S
H260 C234 0.931 . S
H261 C243 0.931 . S
H262 C247 0.929 . S
H263 C249 0.930 . S
Co264 N268 2.148 . S
Co264 N274 2.128 . S
Co264 N284 2.194 . S
Co264 O289 2.351 . S
Co264 O290 2.155 . S
Co264 O291 2.096 . S
C265 N268 1.301 . S
C265 N269 1.328 . S
C265 H270 0.930 . S
C266 C267 1.333 . S
C266 N268 1.317 . S
C266 H271 0.930 . S
C267 C266 1.333 . S
C267 N269 1.350 . S
C267 H293 0.931 . S
N268 Co264 2.148 . S
N268 C265 1.301 . S
N268 C266 1.317 . S
N269 C265 1.328 . S
N269 C267 1.350 . S
H270 C265 0.930 . S
H271 C266 0.930 . S
C272 O273 1.224 . S
C272 O291 1.247 . S
O273 C272 1.224 . S
N274 Co264 2.128 . S
N274 C275 1.355 . S
N274 C277 1.311 . S
C275 N274 1.355 . S
C275 C276 1.363 . S
C275 H287 0.929 . S
C276 C275 1.363 . S
C276 N278 1.375 . S
C276 H294 0.931 . S
C277 N274 1.311 . S
C277 N278 1.347 . S
C277 H288 0.929 . S
N278 C276 1.375 . S
N278 C277 1.347 . S
C279 C282 1.365 . S
C279 N284 1.328 . S
C279 H285 0.929 . S
C280 C281 1.362 . S
C280 C283 1.378 . S
C280 H295 0.929 . S
C281 C280 1.362 . S
C281 C282 1.366 . S
C282 C279 1.365 . S
C282 C281 1.366 . S
C282 H296 0.930 . S
C283 C280 1.378 . S
C283 N284 1.315 . S
C283 H286 0.930 . S
N284 Co264 2.194 . S
N284 C279 1.328 . S
N284 C283 1.315 . S
H285 C279 0.929 . S
H286 C283 0.930 . S
H287 C275 0.929 . S
H288 C277 0.929 . S
O289 Co264 2.351 . S
O289 C292 1.244 . S
O290 Co264 2.155 . S
O290 C292 1.240 . S
O291 Co264 2.096 . S
O291 C272 1.247 . S
C292 O289 1.244 . S
C292 O290 1.240 . S
H293 C267 0.931 . S
H294 C276 0.931 . S
H295 C280 0.929 . S
H296 C282 0.930 . S
Co297 N301 2.148 . S
Co297 N307 2.128 . S
Co297 N317 2.194 . S
Co297 O322 2.351 . S
Co297 O323 2.155 . S
Co297 O324 2.096 . S
C298 N301 1.301 . S
C298 N302 1.328 . S
C298 H303 0.930 . S
C299 C300 1.333 . S
C299 N301 1.317 . S
C299 H304 0.930 . S
C300 C299 1.333 . S
C300 N302 1.350 . S
C300 H326 0.931 . S
N301 Co297 2.148 . S
N301 C298 1.301 . S
N301 C299 1.317 . S
N302 C298 1.328 . S
N302 C300 1.350 . S
H303 C298 0.930 . S
H304 C299 0.930 . S
C305 O306 1.224 . S
C305 O324 1.247 . S
O306 C305 1.224 . S
N307 Co297 2.128 . S
N307 C308 1.355 . S
N307 C310 1.311 . S
C308 N307 1.355 . S
C308 C309 1.363 . S
C308 H320 0.929 . S
C309 C308 1.363 . S
C309 N311 1.375 . S
C309 H327 0.931 . S
C310 N307 1.311 . S
C310 N311 1.347 . S
C310 H321 0.929 . S
N311 C309 1.375 . S
N311 C310 1.347 . S
C312 C315 1.365 . S
C312 N317 1.328 . S
C312 H318 0.929 . S
C313 C314 1.362 . S
C313 C316 1.378 . S
C313 H328 0.929 . S
C314 C313 1.362 . S
C314 C315 1.366 . S
C315 C312 1.365 . S
C315 C314 1.366 . S
C315 H329 0.930 . S
C316 C313 1.378 . S
C316 N317 1.315 . S
C316 H319 0.930 . S
N317 Co297 2.194 . S
N317 C312 1.328 . S
N317 C316 1.315 . S
H318 C312 0.929 . S
H319 C316 0.930 . S
H320 C308 0.929 . S
H321 C310 0.929 . S
O322 Co297 2.351 . S
O322 C325 1.244 . S
O323 Co297 2.155 . S
O323 C325 1.240 . S
O324 Co297 2.096 . S
O324 C305 1.247 . S
C325 O322 1.244 . S
C325 O323 1.240 . S
H326 C300 0.931 . S
H327 C309 0.931 . S
H328 C313 0.929 . S
H329 C315 0.930 . S
Co330 N334 2.148 . S
Co330 N340 2.128 . S
Co330 N350 2.194 . S
Co330 O355 2.351 . S
Co330 O356 2.155 . S
Co330 O357 2.096 . S
C331 N334 1.301 . S
C331 N335 1.328 . S
C331 H336 0.930 . S
C332 C333 1.333 . S
C332 N334 1.317 . S
C332 H337 0.930 . S
C333 C332 1.333 . S
C333 N335 1.350 . S
C333 H359 0.931 . S
N334 Co330 2.148 . S
N334 C331 1.301 . S
N334 C332 1.317 . S
N335 C331 1.328 . S
N335 C333 1.350 . S
H336 C331 0.930 . S
H337 C332 0.930 . S
C338 O339 1.224 . S
C338 O357 1.247 . S
O339 C338 1.224 . S
N340 Co330 2.128 . S
N340 C341 1.355 . S
N340 C343 1.311 . S
C341 N340 1.355 . S
C341 C342 1.363 . S
C341 H353 0.929 . S
C342 C341 1.363 . S
C342 N344 1.375 . S
C342 H360 0.931 . S
C343 N340 1.311 . S
C343 N344 1.347 . S
C343 H354 0.929 . S
N344 C342 1.375 . S
N344 C343 1.347 . S
C345 C348 1.365 . S
C345 N350 1.328 . S
C345 H351 0.929 . S
C346 C347 1.362 . S
C346 C349 1.378 . S
C346 H361 0.929 . S
C347 C346 1.362 . S
C347 C348 1.366 . S
C348 C345 1.365 . S
C348 C347 1.366 . S
C348 H362 0.930 . S
C349 C346 1.378 . S
C349 N350 1.315 . S
C349 H352 0.930 . S
N350 Co330 2.194 . S
N350 C345 1.328 . S
N350 C349 1.315 . S
H351 C345 0.929 . S
H352 C349 0.930 . S
H353 C341 0.929 . S
H354 C343 0.929 . S
O355 Co330 2.351 . S
O355 C358 1.244 . S
O356 Co330 2.155 . S
O356 C358 1.240 . S
O357 Co330 2.096 . S
O357 C338 1.247 . S
C358 O355 1.244 . S
C358 O356 1.240 . S
H359 C333 0.931 . S
H360 C342 0.931 . S
H361 C346 0.929 . S
H362 C348 0.930 . S
Co363 N367 2.148 . S
Co363 N373 2.128 . S
Co363 N383 2.194 . S
Co363 O388 2.351 . S
Co363 O389 2.155 . S
Co363 O390 2.096 . S
C364 N367 1.301 . S
C364 N368 1.328 . S
C364 H369 0.930 . S
C365 C366 1.333 . S
C365 N367 1.317 . S
C365 H370 0.930 . S
C366 C365 1.333 . S
C366 N368 1.350 . S
C366 H392 0.931 . S
N367 Co363 2.148 . S
N367 C364 1.301 . S
N367 C365 1.317 . S
N368 C364 1.328 . S
N368 C366 1.350 . S
H369 C364 0.930 . S
H370 C365 0.930 . S
C371 O372 1.224 . S
C371 O390 1.247 . S
O372 C371 1.224 . S
N373 Co363 2.128 . S
N373 C374 1.355 . S
N373 C376 1.311 . S
C374 N373 1.355 . S
C374 C375 1.363 . S
C374 H386 0.929 . S
C375 C374 1.363 . S
C375 N377 1.375 . S
C375 H393 0.931 . S
C376 N373 1.311 . S
C376 N377 1.347 . S
C376 H387 0.929 . S
N377 C375 1.375 . S
N377 C376 1.347 . S
C378 C381 1.365 . S
C378 N383 1.328 . S
C378 H384 0.929 . S
C379 C380 1.362 . S
C379 C382 1.378 . S
C379 H394 0.929 . S
C380 C379 1.362 . S
C380 C381 1.366 . S
C381 C378 1.365 . S
C381 C380 1.366 . S
C381 H395 0.930 . S
C382 C379 1.378 . S
C382 N383 1.315 . S
C382 H385 0.930 . S
N383 Co363 2.194 . S
N383 C378 1.328 . S
N383 C382 1.315 . S
H384 C378 0.929 . S
H385 C382 0.930 . S
H386 C374 0.929 . S
H387 C376 0.929 . S
O388 Co363 2.351 . S
O388 C391 1.244 . S
O389 Co363 2.155 . S
O389 C391 1.240 . S
O390 Co363 2.096 . S
O390 C371 1.247 . S
C391 O388 1.244 . S
C391 O389 1.240 . S
H392 C366 0.931 . S
H393 C375 0.931 . S
H394 C379 0.929 . S
H395 C381 0.930 . S
Co396 N400 2.148 . S
Co396 N406 2.128 . S
Co396 N416 2.194 . S
Co396 O421 2.351 . S
Co396 O422 2.155 . S
Co396 O423 2.096 . S
C397 N400 1.301 . S
C397 N401 1.328 . S
C397 H402 0.930 . S
C398 C399 1.333 . S
C398 N400 1.317 . S
C398 H403 0.930 . S
C399 C398 1.333 . S
C399 N401 1.350 . S
C399 H425 0.931 . S
N400 Co396 2.148 . S
N400 C397 1.301 . S
N400 C398 1.317 . S
N401 C397 1.328 . S
N401 C399 1.350 . S
H402 C397 0.930 . S
H403 C398 0.930 . S
C404 O405 1.224 . S
C404 O423 1.247 . S
O405 C404 1.224 . S
N406 Co396 2.128 . S
N406 C407 1.355 . S
N406 C409 1.311 . S
C407 N406 1.355 . S
C407 C408 1.363 . S
C407 H419 0.929 . S
C408 C407 1.363 . S
C408 N410 1.375 . S
C408 H426 0.931 . S
C409 N406 1.311 . S
C409 N410 1.347 . S
C409 H420 0.929 . S
N410 C408 1.375 . S
N410 C409 1.347 . S
C411 C414 1.365 . S
C411 N416 1.328 . S
C411 H417 0.929 . S
C412 C413 1.362 . S
C412 C415 1.378 . S
C412 H427 0.929 . S
C413 C412 1.362 . S
C413 C414 1.366 . S
C414 C411 1.365 . S
C414 C413 1.366 . S
C414 H428 0.930 . S
C415 C412 1.378 . S
C415 N416 1.315 . S
C415 H418 0.930 . S
N416 Co396 2.194 . S
N416 C411 1.328 . S
N416 C415 1.315 . S
H417 C411 0.929 . S
H418 C415 0.930 . S
H419 C407 0.929 . S
H420 C409 0.929 . S
O421 Co396 2.351 . S
O421 C424 1.244 . S
O422 Co396 2.155 . S
O422 C424 1.240 . S
O423 Co396 2.096 . S
O423 C404 1.247 . S
C424 O421 1.244 . S
C424 O422 1.240 . S
H425 C399 0.931 . S
H426 C408 0.931 . S
H427 C412 0.929 . S
H428 C414 0.930 . S
Co429 N433 2.148 . S
Co429 N439 2.128 . S
Co429 N449 2.194 . S
Co429 O454 2.351 . S
Co429 O455 2.155 . S
Co429 O456 2.096 . S
C430 N433 1.301 . S
C430 N434 1.328 . S
C430 H435 0.930 . S
C431 C432 1.333 . S
C431 N433 1.317 . S
C431 H436 0.930 . S
C432 C431 1.333 . S
C432 N434 1.350 . S
C432 H458 0.931 . S
N433 Co429 2.148 . S
N433 C430 1.301 . S
N433 C431 1.317 . S
N434 C430 1.328 . S
N434 C432 1.350 . S
H435 C430 0.930 . S
H436 C431 0.930 . S
C437 O438 1.224 . S
C437 O456 1.247 . S
O438 C437 1.224 . S
N439 Co429 2.128 . S
N439 C440 1.355 . S
N439 C442 1.311 . S
C440 N439 1.355 . S
C440 C441 1.363 . S
C440 H452 0.929 . S
C441 C440 1.363 . S
C441 N443 1.375 . S
C441 H459 0.931 . S
C442 N439 1.311 . S
C442 N443 1.347 . S
C442 H453 0.929 . S
N443 C441 1.375 . S
N443 C442 1.347 . S
C444 C447 1.365 . S
C444 N449 1.328 . S
C444 H450 0.929 . S
C445 C446 1.362 . S
C445 C448 1.378 . S
C445 H460 0.929 . S
C446 C445 1.362 . S
C446 C447 1.366 . S
C447 C444 1.365 . S
C447 C446 1.366 . S
C447 H461 0.930 . S
C448 C445 1.378 . S
C448 N449 1.315 . S
C448 H451 0.930 . S
N449 Co429 2.194 . S
N449 C444 1.328 . S
N449 C448 1.315 . S
H450 C444 0.929 . S
H451 C448 0.930 . S
H452 C440 0.929 . S
H453 C442 0.929 . S
O454 Co429 2.351 . S
O454 C457 1.244 . S
O455 Co429 2.155 . S
O455 C457 1.240 . S
O456 Co429 2.096 . S
O456 C437 1.247 . S
C457 O454 1.244 . S
C457 O455 1.240 . S
H458 C432 0.931 . S
H459 C441 0.931 . S
H460 C445 0.929 . S
H461 C447 0.930 . S
Co462 N466 2.148 . S
Co462 N472 2.128 . S
Co462 N482 2.194 . S
Co462 O487 2.351 . S
Co462 O488 2.155 . S
Co462 O489 2.096 . S
C463 N466 1.301 . S
C463 N467 1.328 . S
C463 H468 0.930 . S
C464 C465 1.333 . S
C464 N466 1.317 . S
C464 H469 0.930 . S
C465 C464 1.333 . S
C465 N467 1.350 . S
C465 H491 0.931 . S
N466 Co462 2.148 . S
N466 C463 1.301 . S
N466 C464 1.317 . S
N467 C463 1.328 . S
N467 C465 1.350 . S
H468 C463 0.930 . S
H469 C464 0.930 . S
C470 O471 1.224 . S
C470 O489 1.247 . S
O471 C470 1.224 . S
N472 Co462 2.128 . S
N472 C473 1.355 . S
N472 C475 1.311 . S
C473 N472 1.355 . S
C473 C474 1.363 . S
C473 H485 0.929 . S
C474 C473 1.363 . S
C474 N476 1.375 . S
C474 H492 0.931 . S
C475 N472 1.311 . S
C475 N476 1.347 . S
C475 H486 0.929 . S
N476 C474 1.375 . S
N476 C475 1.347 . S
C477 C480 1.365 . S
C477 N482 1.328 . S
C477 H483 0.929 . S
C478 C479 1.362 . S
C478 C481 1.378 . S
C478 H493 0.929 . S
C479 C478 1.362 . S
C479 C480 1.366 . S
C480 C477 1.365 . S
C480 C479 1.366 . S
C480 H494 0.930 . S
C481 C478 1.378 . S
C481 N482 1.315 . S
C481 H484 0.930 . S
N482 Co462 2.194 . S
N482 C477 1.328 . S
N482 C481 1.315 . S
H483 C477 0.929 . S
H484 C481 0.930 . S
H485 C473 0.929 . S
H486 C475 0.929 . S
O487 Co462 2.351 . S
O487 C490 1.244 . S
O488 Co462 2.155 . S
O488 C490 1.240 . S
O489 Co462 2.096 . S
O489 C470 1.247 . S
C490 O487 1.244 . S
C490 O488 1.240 . S
H491 C465 0.931 . S
H492 C474 0.931 . S
H493 C478 0.929 . S
H494 C480 0.930 . S
Co495 N499 2.148 . S
Co495 N505 2.128 . S
Co495 N515 2.194 . S
Co495 O520 2.351 . S
Co495 O521 2.155 . S
Co495 O522 2.096 . S
C496 N499 1.301 . S
C496 N500 1.328 . S
C496 H501 0.930 . S
C497 C498 1.333 . S
C497 N499 1.317 . S
C497 H502 0.930 . S
C498 C497 1.333 . S
C498 N500 1.350 . S
C498 H524 0.931 . S
N499 Co495 2.148 . S
N499 C496 1.301 . S
N499 C497 1.317 . S
N500 C496 1.328 . S
N500 C498 1.350 . S
H501 C496 0.930 . S
H502 C497 0.930 . S
C503 O504 1.224 . S
C503 O522 1.247 . S
O504 C503 1.224 . S
N505 Co495 2.128 . S
N505 C506 1.355 . S
N505 C508 1.311 . S
C506 N505 1.355 . S
C506 C507 1.363 . S
C506 H518 0.929 . S
C507 C506 1.363 . S
C507 N509 1.375 . S
C507 H525 0.931 . S
C508 N505 1.311 . S
C508 N509 1.347 . S
C508 H519 0.929 . S
N509 C507 1.375 . S
N509 C508 1.347 . S
C510 C513 1.365 . S
C510 N515 1.328 . S
C510 H516 0.929 . S
C511 C512 1.362 . S
C511 C514 1.378 . S
C511 H526 0.929 . S
C512 C511 1.362 . S
C512 C513 1.366 . S
C513 C510 1.365 . S
C513 C512 1.366 . S
C513 H527 0.930 . S
C514 C511 1.378 . S
C514 N515 1.315 . S
C514 H517 0.930 . S
N515 Co495 2.194 . S
N515 C510 1.328 . S
N515 C514 1.315 . S
H516 C510 0.929 . S
H517 C514 0.930 . S
H518 C506 0.929 . S
H519 C508 0.929 . S
O520 Co495 2.351 . S
O520 C523 1.244 . S
O521 Co495 2.155 . S
O521 C523 1.240 . S
O522 Co495 2.096 . S
O522 C503 1.247 . S
C523 O520 1.244 . S
C523 O521 1.240 . S
H524 C498 0.931 . S
H525 C507 0.931 . S
H526 C511 0.929 . S
H527 C513 0.930 . S
H528 C536 0.929 . S
H529 C538 0.930 . S
H530 C540 0.930 . S
H531 C543 0.929 . S
H532 C546 0.930 . S
H533 C548 0.960 . S
H534 C548 0.960 . S
H535 C548 0.960 . S
C536 H528 0.929 . S
C536 C537 1.377 . S
C536 C538 1.384 . S
C537 C536 1.377 . S
C537 C543 1.390 . S
C538 H529 0.930 . S
C538 C536 1.384 . S
C538 C539 1.372 . S
C539 C538 1.372 . S
C539 C540 1.400 . S
C539 C544 1.490 . S
C540 H530 0.930 . S
C540 C539 1.400 . S
C540 C543 1.386 . S
H541 C557 0.930 . S
H542 C558 0.931 . S
C543 H531 0.929 . S
C543 C537 1.390 . S
C543 C540 1.386 . S
C544 C539 1.490 . S
C544 C546 1.395 . S
C544 C547 1.403 . S
H545 C551 0.930 . S
C546 H532 0.930 . S
C546 C544 1.395 . S
C546 C549 1.403 . S
C547 C544 1.403 . S
C547 C548 1.524 . S
C547 C551 1.400 1_655 S
C548 H533 0.960 . S
C548 H534 0.960 . S
C548 H535 0.960 . S
C548 C547 1.524 . S
C549 C546 1.403 . S
C549 C550 1.392 1_655 S
C549 C553 1.494 1_655 S
C550 C549 1.392 1_455 S
C550 C551 1.385 . S
C550 C552 1.478 . S
C551 H545 0.930 . S
C551 C547 1.400 1_455 S
C551 C550 1.385 . S
C552 C550 1.478 . S
C552 C554 1.381 . S
C552 C558 1.383 . S
C553 C549 1.494 1_455 S
C553 H559 0.957 1_455 S
C553 H560 0.963 . S
C553 H561 0.961 . S
C554 C552 1.381 . S
C554 C555 1.394 . S
C554 H562 0.930 . S
C555 C554 1.394 . S
C555 C556 1.383 . S
C555 H563 0.929 . S
C556 C555 1.383 . S
C556 C557 1.377 . S
C557 H541 0.930 . S
C557 C556 1.377 . S
C557 C558 1.379 . S
C558 H542 0.931 . S
C558 C552 1.383 . S
C558 C557 1.379 . S
H559 C553 0.957 1_655 S
H560 C553 0.963 . S
H561 C553 0.961 . S
H562 C554 0.930 . S
H563 C555 0.929 . S
H564 C572 0.929 . S
H565 C574 0.930 . S
H566 C576 0.930 . S
H567 C579 0.929 . S
H568 C582 0.930 . S
H569 C584 0.960 . S
H570 C584 0.960 . S
H571 C584 0.960 . S
C572 H564 0.929 . S
C572 C573 1.377 . S
C572 C574 1.384 . S
C573 C572 1.377 . S
C573 C579 1.390 . S
C574 H565 0.930 . S
C574 C572 1.384 . S
C574 C575 1.372 . S
C575 C574 1.372 . S
C575 C576 1.400 . S
C575 C580 1.490 . S
C576 H566 0.930 . S
C576 C575 1.400 . S
C576 C579 1.386 . S
H577 C593 0.930 . S
H578 C594 0.931 . S
C579 H567 0.929 . S
C579 C573 1.390 . S
C579 C576 1.386 . S
C580 C575 1.490 . S
C580 C582 1.395 . S
C580 C583 1.403 . S
H581 C587 0.930 . S
C582 H568 0.930 . S
C582 C580 1.395 . S
C582 C585 1.403 1_545 S
C583 C580 1.403 . S
C583 C584 1.524 . S
C583 C587 1.400 1_545 S
C584 H569 0.960 . S
C584 H570 0.960 . S
C584 H571 0.960 . S
C584 C583 1.524 . S
C585 C582 1.403 1_565 S
C585 C586 1.392 . S
C585 C589 1.495 . S
C586 C585 1.392 . S
C586 C587 1.385 . S
C586 C588 1.478 . S
C587 H581 0.930 . S
C587 C583 1.400 1_565 S
C587 C586 1.385 . S
C588 C586 1.478 . S
C588 C590 1.381 . S
C588 C594 1.383 . S
C589 C585 1.495 . S
C589 H595 0.959 . S
C589 H596 0.961 . S
C589 H597 0.960 . S
C590 C588 1.381 . S
C590 C591 1.394 . S
C590 H598 0.930 . S
C591 C590 1.394 . S
C591 C592 1.383 . S
C591 H599 0.929 . S
C592 C591 1.383 . S
C592 C593 1.377 . S
C593 H577 0.930 . S
C593 C592 1.377 . S
C593 C594 1.379 . S
C594 H578 0.931 . S
C594 C588 1.383 . S
C594 C593 1.379 . S
H595 C589 0.959 . S
H596 C589 0.961 . S
H597 C589 0.960 . S
H598 C590 0.930 . S
H599 C591 0.929 . S
H600 C608 0.929 . S
H601 C610 0.930 . S
H602 C612 0.930 . S
H603 C615 0.929 . S
H604 C618 0.930 1_655 S
H605 C620 0.960 . S
H606 C620 0.960 . S
H607 C620 0.960 . S
C608 H600 0.929 . S
C608 C609 1.377 . S
C608 C610 1.384 . S
C609 C608 1.377 . S
C609 C615 1.390 . S
C610 H601 0.930 . S
C610 C608 1.384 . S
C610 C611 1.372 . S
C611 C610 1.372 . S
C611 C612 1.400 . S
C611 C616 1.490 . S
C612 H602 0.930 . S
C612 C611 1.400 . S
C612 C615 1.386 . S
H613 C629 0.930 . S
H614 C630 0.931 . S
C615 H603 0.929 . S
C615 C609 1.390 . S
C615 C612 1.386 . S
C616 C611 1.490 . S
C616 C618 1.395 1_655 S
C616 C619 1.390 1_655 S
H617 C623 0.930 . S
C618 H604 0.930 1_455 S
C618 C616 1.395 1_455 S
C618 C621 1.403 . S
C619 C616 1.390 1_455 S
C619 C620 1.512 1_455 S
C619 C623 1.426 . S
C620 H605 0.960 . S
C620 H606 0.960 . S
C620 H607 0.960 . S
C620 C619 1.512 1_655 S
C621 C618 1.403 . S
C621 C622 1.392 . S
C621 C625 1.495 . S
C622 C621 1.392 . S
C622 C623 1.385 . S
C622 C624 1.478 . S
C623 H617 0.930 . S
C623 C619 1.426 . S
C623 C622 1.385 . S
C624 C622 1.478 . S
C624 C626 1.381 . S
C624 C630 1.383 . S
C625 C621 1.495 . S
C625 H631 0.959 . S
C625 H632 0.961 . S
C625 H633 0.960 . S
C626 C624 1.381 . S
C626 C627 1.394 . S
C626 H634 0.930 . S
C627 C626 1.394 . S
C627 C628 1.383 . S
C627 H635 0.929 . S
C628 C627 1.383 . S
C628 C629 1.377 . S
C629 H613 0.930 . S
C629 C628 1.377 . S
C629 C630 1.379 . S
C630 H614 0.931 . S
C630 C624 1.383 . S
C630 C629 1.379 . S
H631 C625 0.959 . S
H632 C625 0.961 . S
H633 C625 0.960 . S
H634 C626 0.930 . S
H635 C627 0.929 . S
H636 C644 0.929 . S
H637 C646 0.930 . S
H638 C648 0.930 . S
H639 C651 0.929 . S
H640 C654 0.930 . S
H641 C656 0.960 . S
H642 C656 0.960 . S
H643 C656 0.960 . S
C644 H636 0.929 . S
C644 C645 1.377 . S
C644 C646 1.384 . S
C645 C644 1.377 . S
C645 C651 1.390 . S
C646 H637 0.930 . S
C646 C644 1.384 . S
C646 C647 1.372 . S
C647 C646 1.372 . S
C647 C648 1.400 . S
C647 C652 1.490 . S
C648 H638 0.930 . S
C648 C647 1.400 . S
C648 C651 1.386 . S
H649 C665 0.930 . S
H650 C666 0.931 . S
C651 H639 0.929 . S
C651 C645 1.390 . S
C651 C648 1.386 . S
C652 C647 1.490 . S
C652 C654 1.395 . S
C652 C655 1.403 . S
H653 C659 0.930 . S
C654 H640 0.930 . S
C654 C652 1.395 . S
C654 C657 1.403 1_565 S
C655 C652 1.403 . S
C655 C656 1.524 . S
C655 C659 1.400 1_565 S
C656 H641 0.960 . S
C656 H642 0.960 . S
C656 H643 0.960 . S
C656 C655 1.524 . S
C657 C654 1.403 1_545 S
C657 C658 1.392 . S
C657 C661 1.495 . S
C658 C657 1.392 . S
C658 C659 1.385 . S
C658 C660 1.478 . S
C659 H653 0.930 . S
C659 C655 1.400 1_545 S
C659 C658 1.385 . S
C660 C658 1.478 . S
C660 C662 1.381 . S
C660 C666 1.383 . S
C661 C657 1.495 . S
C661 H667 0.959 . S
C661 H668 0.961 . S
C661 H669 0.960 . S
C662 C660 1.381 . S
C662 C663 1.394 . S
C662 H670 0.930 . S
C663 C662 1.394 . S
C663 C664 1.383 . S
C663 H671 0.929 . S
C664 C663 1.383 . S
C664 C665 1.377 . S
C665 H649 0.930 . S
C665 C664 1.377 . S
C665 C666 1.379 . S
C666 H650 0.931 . S
C666 C660 1.383 . S
C666 C665 1.379 . S
H667 C661 0.959 . S
H668 C661 0.961 . S
H669 C661 0.960 . S
H670 C662 0.930 . S
H671 C663 0.929 . S
H672 C680 0.929 . S
H673 C682 0.930 . S
H674 C684 0.930 . S
H675 C687 0.929 . S
H676 C690 0.930 . S
H677 C692 0.960 . S
H678 C692 0.960 . S
H679 C692 0.960 . S
C680 H672 0.929 . S
C680 C681 1.377 . S
C680 C682 1.384 . S
C681 C680 1.377 . S
C681 C687 1.390 . S
C682 H673 0.930 . S
C682 C680 1.384 . S
C682 C683 1.372 . S
C683 C682 1.372 . S
C683 C684 1.400 . S
C683 C688 1.490 . S
C684 H674 0.930 . S
C684 C683 1.400 . S
C684 C687 1.386 . S
H685 C701 0.930 . S
H686 C702 0.931 . S
C687 H675 0.929 . S
C687 C681 1.390 . S
C687 C684 1.386 . S
C688 C683 1.490 . S
C688 C690 1.395 . S
C688 C691 1.403 . S
H689 C695 0.930 . S
C690 H676 0.930 . S
C690 C688 1.395 . S
C690 C693 1.403 1_655 S
C691 C688 1.403 . S
C691 C692 1.524 . S
C691 C695 1.400 1_655 S
C692 H677 0.960 . S
C692 H678 0.960 . S
C692 H679 0.960 . S
C692 C691 1.524 . S
C693 C690 1.403 1_455 S
C693 C694 1.392 . S
C693 C697 1.495 . S
C694 C693 1.392 . S
C694 C695 1.385 . S
C694 C696 1.478 . S
C695 H689 0.930 . S
C695 C691 1.400 1_455 S
C695 C694 1.385 . S
C696 C694 1.478 . S
C696 C698 1.381 . S
C696 C702 1.383 . S
C697 C693 1.495 . S
C697 H703 0.959 . S
C697 H704 0.961 . S
C697 H705 0.960 . S
C698 C696 1.381 . S
C698 C699 1.394 . S
C698 H706 0.930 . S
C699 C698 1.394 . S
C699 C700 1.383 . S
C699 H707 0.929 . S
C700 C699 1.383 . S
C700 C701 1.377 . S
C701 H685 0.930 . S
C701 C700 1.377 . S
C701 C702 1.379 . S
C702 H686 0.931 . S
C702 C696 1.383 . S
C702 C701 1.379 . S
H703 C697 0.959 . S
H704 C697 0.961 . S
H705 C697 0.960 . S
H706 C698 0.930 . S
H707 C699 0.929 . S
H708 C716 0.929 . S
H709 C718 0.930 . S
H710 C720 0.930 . S
H711 C723 0.929 . S
H712 C726 0.930 . S
H713 C728 0.960 . S
H714 C728 0.960 . S
H715 C728 0.960 . S
C716 H708 0.929 . S
C716 C717 1.377 . S
C716 C718 1.384 . S
C717 C716 1.377 . S
C717 C723 1.390 . S
C718 H709 0.930 . S
C718 C716 1.384 . S
C718 C719 1.372 . S
C719 C718 1.372 . S
C719 C720 1.400 . S
C719 C724 1.490 . S
C720 H710 0.930 . S
C720 C719 1.400 . S
C720 C723 1.386 . S
H721 C737 0.930 . S
H722 C738 0.931 . S
C723 H711 0.929 . S
C723 C717 1.390 . S
C723 C720 1.386 . S
C724 C719 1.490 . S
C724 C726 1.395 . S
C724 C727 1.403 . S
H725 C731 0.933 1_545 S
C726 H712 0.930 . S
C726 C724 1.395 . S
C726 C729 1.403 . S
C727 C724 1.403 . S
C727 C728 1.524 . S
C727 C731 1.396 . S
C728 H713 0.960 . S
C728 H714 0.960 . S
C728 H715 0.960 . S
C728 C727 1.524 . S
C729 C726 1.403 . S
C729 C730 1.392 1_565 S
C729 C733 1.495 1_565 S
C730 C729 1.392 1_545 S
C730 C731 1.387 1_545 S
C730 C732 1.478 . S
C731 H725 0.933 1_565 S
C731 C727 1.396 . S
C731 C730 1.387 1_565 S
C732 C730 1.478 . S
C732 C734 1.381 . S
C732 C738 1.383 . S
C733 C729 1.495 1_545 S
C733 H739 0.959 1_545 S
C733 H740 0.961 . S
C733 H741 0.960 . S
C734 C732 1.381 . S
C734 C735 1.394 . S
C734 H742 0.930 . S
C735 C734 1.394 . S
C735 C736 1.383 . S
C735 H743 0.929 . S
C736 C735 1.383 . S
C736 C737 1.377 . S
C737 H721 0.930 . S
C737 C736 1.377 . S
C737 C738 1.379 . S
C738 H722 0.931 . S
C738 C732 1.383 . S
C738 C737 1.379 . S
H739 C733 0.959 1_565 S
H740 C733 0.961 . S
H741 C733 0.960 . S
H742 C734 0.930 . S
H743 C735 0.929 . S
H744 C752 0.929 . S
H745 C754 0.930 . S
H746 C756 0.930 . S
H747 C759 0.929 . S
H748 C762 0.930 . S
H749 C764 0.960 . S
H750 C764 0.960 . S
H751 C764 0.960 . S
C752 H744 0.929 . S
C752 C753 1.377 . S
C752 C754 1.384 . S
C753 C752 1.377 . S
C753 C759 1.390 . S
C754 H745 0.930 . S
C754 C752 1.384 . S
C754 C755 1.372 . S
C755 C754 1.372 . S
C755 C756 1.400 . S
C755 C760 1.490 . S
C756 H746 0.930 . S
C756 C755 1.400 . S
C756 C759 1.386 . S
H757 C773 0.930 . S
H758 C774 0.931 . S
C759 H747 0.929 . S
C759 C753 1.390 . S
C759 C756 1.386 . S
C760 C755 1.490 . S
C760 C762 1.395 . S
C760 C763 1.403 . S
H761 C767 0.930 . S
C762 H748 0.930 . S
C762 C760 1.395 . S
C762 C765 1.403 1_655 S
C763 C760 1.403 . S
C763 C764 1.524 . S
C763 C767 1.400 1_655 S
C764 H749 0.960 . S
C764 H750 0.960 . S
C764 H751 0.960 . S
C764 C763 1.524 . S
C765 C762 1.403 1_455 S
C765 C766 1.392 . S
C765 C769 1.495 . S
C766 C765 1.392 . S
C766 C767 1.385 . S
C766 C768 1.478 . S
C767 H761 0.930 . S
C767 C763 1.400 1_455 S
C767 C766 1.385 . S
C768 C766 1.478 . S
C768 C770 1.381 . S
C768 C774 1.383 . S
C769 C765 1.495 . S
C769 H775 0.959 . S
C769 H776 0.961 . S
C769 H777 0.960 . S
C770 C768 1.381 . S
C770 C771 1.394 . S
C770 H778 0.930 . S
C771 C770 1.394 . S
C771 C772 1.383 . S
C771 H779 0.929 . S
C772 C771 1.383 . S
C772 C773 1.377 . S
C773 H757 0.930 . S
C773 C772 1.377 . S
C773 C774 1.379 . S
C774 H758 0.931 . S
C774 C768 1.383 . S
C774 C773 1.379 . S
H775 C769 0.959 . S
H776 C769 0.961 . S
H777 C769 0.960 . S
H778 C770 0.930 . S
H779 C771 0.929 . S
H780 C788 0.929 . S
H781 C790 0.930 . S
H782 C792 0.930 . S
H783 C795 0.929 . S
H784 C798 0.930 . S
H785 C800 0.960 . S
H786 C800 0.960 . S
H787 C800 0.960 . S
C788 H780 0.929 . S
C788 C789 1.377 . S
C788 C790 1.384 . S
C789 C788 1.377 . S
C789 C795 1.390 . S
C790 H781 0.930 . S
C790 C788 1.384 . S
C790 C791 1.372 . S
C791 C790 1.372 . S
C791 C792 1.400 . S
C791 C796 1.490 . S
C792 H782 0.930 . S
C792 C791 1.400 . S
C792 C795 1.386 . S
H793 C809 0.930 . S
H794 C810 0.931 . S
C795 H783 0.929 . S
C795 C789 1.390 . S
C795 C792 1.386 . S
C796 C791 1.490 . S
C796 C798 1.395 . S
C796 C799 1.403 . S
H797 C803 0.930 . S
C798 H784 0.930 . S
C798 C796 1.395 . S
C798 C801 1.403 . S
C799 C796 1.403 . S
C799 C800 1.524 . S
C799 C803 1.400 1_545 S
C800 H785 0.960 . S
C800 H786 0.960 . S
C800 H787 0.960 . S
C800 C799 1.524 . S
C801 C798 1.403 . S
C801 C802 1.392 1_545 S
C801 C805 1.505 . S
C802 C801 1.392 1_565 S
C802 C803 1.385 . S
C802 C804 1.478 . S
C803 H797 0.930 . S
C803 C799 1.400 1_565 S
C803 C802 1.385 . S
C804 C802 1.478 . S
C804 C806 1.381 . S
C804 C810 1.383 . S
C805 C801 1.505 . S
C805 H811 0.985 . S
C805 H812 0.945 1_545 S
C805 H813 0.943 1_545 S
C806 C804 1.381 . S
C806 C807 1.394 . S
C806 H814 0.930 . S
C807 C806 1.394 . S
C807 C808 1.383 . S
C807 H815 0.929 . S
C808 C807 1.383 . S
C808 C809 1.377 . S
C809 H793 0.930 . S
C809 C808 1.377 . S
C809 C810 1.379 . S
C810 H794 0.931 . S
C810 C804 1.383 . S
C810 C809 1.379 . S
H811 C805 0.985 . S
H812 C805 0.945 1_565 S
H813 C805 0.943 1_565 S
H814 C806 0.930 . S
H815 C807 0.929 . S
H816 C824 0.929 . S
H817 C826 0.930 . S
H818 C828 0.930 . S
H819 C831 0.929 . S
H820 C834 0.930 . S
H821 C836 0.960 . S
H822 C836 0.960 . S
H823 C836 0.960 . S
C824 H816 0.929 . S
C824 C825 1.377 . S
C824 C826 1.384 . S
C825 C824 1.377 . S
C825 C831 1.390 . S
C826 H817 0.930 . S
C826 C824 1.384 . S
C826 C827 1.372 . S
C827 C826 1.372 . S
C827 C828 1.400 . S
C827 C832 1.490 . S
C828 H818 0.930 . S
C828 C827 1.400 . S
C828 C831 1.386 . S
H829 C845 0.930 . S
H830 C846 0.931 . S
C831 H819 0.929 . S
C831 C825 1.390 . S
C831 C828 1.386 . S
C832 C827 1.490 . S
C832 C834 1.395 . S
C832 C835 1.403 . S
H833 C839 0.930 . S
C834 H820 0.930 . S
C834 C832 1.395 . S
C834 C837 1.403 . S
C835 C832 1.403 . S
C835 C836 1.524 . S
C835 C839 1.400 . S
C836 H821 0.960 . S
C836 H822 0.960 . S
C836 H823 0.960 . S
C836 C835 1.524 . S
C837 C834 1.403 . S
C837 C838 1.392 . S
C837 C841 1.495 . S
C838 C837 1.392 . S
C838 C839 1.385 . S
C838 C840 1.478 . S
C839 H833 0.930 . S
C839 C835 1.400 . S
C839 C838 1.385 . S
C840 C838 1.478 . S
C840 C842 1.381 . S
C840 C846 1.383 . S
C841 C837 1.495 . S
C841 H847 0.959 . S
C841 H848 0.961 . S
C841 H849 0.960 . S
C842 C840 1.381 . S
C842 C843 1.394 . S
C842 H850 0.930 . S
C843 C842 1.394 . S
C843 C844 1.383 . S
C843 H851 0.929 . S
C844 C843 1.383 . S
C844 C845 1.377 . S
C845 H829 0.930 . S
C845 C844 1.377 . S
C845 C846 1.379 . S
C846 H830 0.931 . S
C846 C840 1.383 . S
C846 C845 1.379 . S
H847 C841 0.959 . S
H848 C841 0.961 . S
H849 C841 0.960 . S
H850 C842 0.930 . S
H851 C843 0.929 . S
H852 C860 0.929 . S
H853 C862 0.930 . S
H854 C864 0.930 . S
H855 C867 0.929 . S
H856 C870 0.930 . S
H857 C872 0.960 . S
H858 C872 0.960 . S
H859 C872 0.960 . S
C860 H852 0.929 . S
C860 C861 1.377 . S
C860 C862 1.384 . S
C861 C860 1.377 . S
C861 C867 1.390 . S
C862 H853 0.930 . S
C862 C860 1.384 . S
C862 C863 1.372 . S
C863 C862 1.372 . S
C863 C864 1.400 . S
C863 C868 1.490 . S
C864 H854 0.930 . S
C864 C863 1.400 . S
C864 C867 1.386 . S
H865 C881 0.930 . S
H866 C882 0.931 . S
C867 H855 0.929 . S
C867 C861 1.390 . S
C867 C864 1.386 . S
C868 C863 1.490 . S
C868 C870 1.395 . S
C868 C871 1.403 . S
H869 C875 0.930 . S
C870 H856 0.930 . S
C870 C868 1.395 . S
C870 C873 1.403 . S
C871 C868 1.403 . S
C871 C872 1.524 . S
C871 C875 1.400 . S
C872 H857 0.960 . S
C872 H858 0.960 . S
C872 H859 0.960 . S
C872 C871 1.524 . S
C873 C870 1.403 . S
C873 C874 1.392 . S
C873 C877 1.495 . S
C874 C873 1.392 . S
C874 C875 1.385 . S
C874 C876 1.478 . S
C875 H869 0.930 . S
C875 C871 1.400 . S
C875 C874 1.385 . S
C876 C874 1.478 . S
C876 C878 1.381 . S
C876 C882 1.383 . S
C877 C873 1.495 . S
C877 H883 0.959 . S
C877 H884 0.961 . S
C877 H885 0.960 . S
C878 C876 1.381 . S
C878 C879 1.394 . S
C878 H886 0.930 . S
C879 C878 1.394 . S
C879 C880 1.383 . S
C879 H887 0.929 . S
C880 C879 1.383 . S
C880 C881 1.377 . S
C881 H865 0.930 . S
C881 C880 1.377 . S
C881 C882 1.379 . S
C882 H866 0.931 . S
C882 C876 1.383 . S
C882 C881 1.379 . S
H883 C877 0.959 . S
H884 C877 0.961 . S
H885 C877 0.960 . S
H886 C878 0.930 . S
H887 C879 0.929 . S
H888 C896 0.929 . S
H889 C898 0.930 . S
H890 C900 0.930 . S
H891 C903 0.929 . S
H892 C906 0.930 . S
H893 C908 0.960 . S
H894 C908 0.960 . S
H895 C908 0.960 . S
C896 H888 0.929 . S
C896 C897 1.377 . S
C896 C898 1.384 . S
C897 C896 1.377 . S
C897 C903 1.390 . S
C898 H889 0.930 . S
C898 C896 1.384 . S
C898 C899 1.372 . S
C899 C898 1.372 . S
C899 C900 1.400 . S
C899 C904 1.490 . S
C900 H890 0.930 . S
C900 C899 1.400 . S
C900 C903 1.386 . S
H901 C917 0.930 . S
H902 C918 0.931 . S
C903 H891 0.929 . S
C903 C897 1.390 . S
C903 C900 1.386 . S
C904 C899 1.490 . S
C904 C906 1.395 . S
C904 C907 1.403 . S
H905 C911 0.930 . S
C906 H892 0.930 . S
C906 C904 1.395 . S
C906 C909 1.403 . S
C907 C904 1.403 . S
C907 C908 1.524 . S
C907 C911 1.400 . S
C908 H893 0.960 . S
C908 H894 0.960 . S
C908 H895 0.960 . S
C908 C907 1.524 . S
C909 C906 1.403 . S
C909 C910 1.392 . S
C909 C913 1.495 . S
C910 C909 1.392 . S
C910 C911 1.385 . S
C910 C912 1.478 . S
C911 H905 0.930 . S
C911 C907 1.400 . S
C911 C910 1.385 . S
C912 C910 1.478 . S
C912 C914 1.381 . S
C912 C918 1.383 . S
C913 C909 1.495 . S
C913 H919 0.959 . S
C913 H920 0.961 . S
C913 H921 0.960 . S
C914 C912 1.381 . S
C914 C915 1.394 . S
C914 H922 0.930 . S
C915 C914 1.394 . S
C915 C916 1.383 . S
C915 H923 0.929 . S
C916 C915 1.383 . S
C916 C917 1.377 . S
C917 H901 0.930 . S
C917 C916 1.377 . S
C917 C918 1.379 . S
C918 H902 0.931 . S
C918 C912 1.383 . S
C918 C917 1.379 . S
H919 C913 0.959 . S
H920 C913 0.961 . S
H921 C913 0.960 . S
H922 C914 0.930 . S
H923 C915 0.929 . S
H924 C932 0.929 . S
H925 C934 0.930 . S
H926 C936 0.930 . S
H927 C939 0.929 . S
H928 C942 0.930 . S
H929 C944 0.960 . S
H930 C944 0.960 . S
H931 C944 0.960 . S
C932 H924 0.929 . S
C932 C933 1.377 . S
C932 C934 1.384 . S
C933 C932 1.377 . S
C933 C939 1.390 . S
C934 H925 0.930 . S
C934 C932 1.384 . S
C934 C935 1.372 . S
C935 C934 1.372 . S
C935 C936 1.400 . S
C935 C940 1.490 . S
C936 H926 0.930 . S
C936 C935 1.400 . S
C936 C939 1.386 . S
H937 C953 0.930 . S
H938 C954 0.931 . S
C939 H927 0.929 . S
C939 C933 1.390 . S
C939 C936 1.386 . S
C940 C935 1.490 . S
C940 C942 1.395 . S
C940 C943 1.403 . S
H941 C947 0.930 . S
C942 H928 0.930 . S
C942 C940 1.395 . S
C942 C945 1.403 . S
C943 C940 1.403 . S
C943 C944 1.524 . S
C943 C947 1.400 . S
C944 H929 0.960 . S
C944 H930 0.960 . S
C944 H931 0.960 . S
C944 C943 1.524 . S
C945 C942 1.403 . S
C945 C946 1.392 . S
C945 C949 1.495 . S
C946 C945 1.392 . S
C946 C947 1.385 . S
C946 C948 1.478 . S
C947 H941 0.930 . S
C947 C943 1.400 . S
C947 C946 1.385 . S
C948 C946 1.478 . S
C948 C950 1.381 . S
C948 C954 1.383 . S
C949 C945 1.495 . S
C949 H955 0.959 . S
C949 H956 0.961 . S
C949 H957 0.960 . S
C950 C948 1.381 . S
C950 C951 1.394 . S
C950 H958 0.930 . S
C951 C950 1.394 . S
C951 C952 1.383 . S
C951 H959 0.929 . S
C952 C951 1.383 . S
C952 C953 1.377 . S
C953 H937 0.930 . S
C953 C952 1.377 . S
C953 C954 1.379 . S
C954 H938 0.931 . S
C954 C948 1.383 . S
C954 C953 1.379 . S
H955 C949 0.959 . S
H956 C949 0.961 . S
H957 C949 0.960 . S
H958 C950 0.930 . S
H959 C951 0.929 . S
H960 C968 0.929 . S
H961 C970 0.930 . S
H962 C972 0.930 . S
H963 C975 0.929 . S
H964 C978 0.930 . S
H965 C980 0.960 . S
H966 C980 0.960 . S
H967 C980 0.960 . S
C968 H960 0.929 . S
C968 C969 1.377 . S
C968 C970 1.384 . S
C969 C968 1.377 . S
C969 C975 1.390 . S
C970 H961 0.930 . S
C970 C968 1.384 . S
C970 C971 1.372 . S
C971 C970 1.372 . S
C971 C972 1.400 . S
C971 C976 1.490 . S
C972 H962 0.930 . S
C972 C971 1.400 . S
C972 C975 1.386 . S
H973 C989 0.930 . S
H974 C990 0.931 . S
C975 H963 0.929 . S
C975 C969 1.390 . S
C975 C972 1.386 . S
C976 C971 1.490 . S
C976 C978 1.395 . S
C976 C979 1.403 . S
H977 C983 0.930 . S
C978 H964 0.930 . S
C978 C976 1.395 . S
C978 C981 1.403 . S
C979 C976 1.403 . S
C979 C980 1.524 . S
C979 C983 1.400 . S
C980 H965 0.960 . S
C980 H966 0.960 . S
C980 H967 0.960 . S
C980 C979 1.524 . S
C981 C978 1.403 . S
C981 C982 1.392 . S
C981 C985 1.495 . S
C982 C981 1.392 . S
C982 C983 1.385 . S
C982 C984 1.478 . S
C983 H977 0.930 . S
C983 C979 1.400 . S
C983 C982 1.385 . S
C984 C982 1.478 . S
C984 C986 1.381 . S
C984 C990 1.383 . S
C985 C981 1.495 . S
C985 H991 0.959 . S
C985 H992 0.961 . S
C985 H993 0.960 . S
C986 C984 1.381 . S
C986 C987 1.394 . S
C986 H994 0.930 . S
C987 C986 1.394 . S
C987 C988 1.383 . S
C987 H995 0.929 . S
C988 C987 1.383 . S
C988 C989 1.377 . S
C989 H973 0.930 . S
C989 C988 1.377 . S
C989 C990 1.379 . S
C990 H974 0.931 . S
C990 C984 1.383 . S
C990 C989 1.379 . S
H991 C985 0.959 . S
H992 C985 0.961 . S
H993 C985 0.960 . S
H994 C986 0.930 . S
H995 C987 0.929 . S
H996 C1004 0.929 . S
H997 C1006 0.930 . S
H998 C1008 0.930 . S
H999 C1011 0.929 . S
H1000 C1014 0.930 . S
H1001 C1016 0.960 . S
H1002 C1016 0.960 . S
H1003 C1016 0.960 . S
C1004 H996 0.929 . S
C1004 C1005 1.377 . S
C1004 C1006 1.384 . S
C1005 C1004 1.377 . S
C1005 C1011 1.390 . S
C1006 H997 0.930 . S
C1006 C1004 1.384 . S
C1006 C1007 1.372 . S
C1007 C1006 1.372 . S
C1007 C1008 1.400 . S
C1007 C1012 1.490 . S
C1008 H998 0.930 . S
C1008 C1007 1.400 . S
C1008 C1011 1.386 . S
H1009 C1025 0.930 . S
H1010 C1026 0.931 . S
C1011 H999 0.929 . S
C1011 C1005 1.390 . S
C1011 C1008 1.386 . S
C1012 C1007 1.490 . S
C1012 C1014 1.395 . S
C1012 C1015 1.403 . S
H1013 C1019 0.930 . S
C1014 H1000 0.930 . S
C1014 C1012 1.395 . S
C1014 C1017 1.403 . S
C1015 C1012 1.403 . S
C1015 C1016 1.524 . S
C1015 C1019 1.400 . S
C1016 H1001 0.960 . S
C1016 H1002 0.960 . S
C1016 H1003 0.960 . S
C1016 C1015 1.524 . S
C1017 C1014 1.403 . S
C1017 C1018 1.392 . S
C1017 C1021 1.495 . S
C1018 C1017 1.392 . S
C1018 C1019 1.385 . S
C1018 C1020 1.478 . S
C1019 H1013 0.930 . S
C1019 C1015 1.400 . S
C1019 C1018 1.385 . S
C1020 C1018 1.478 . S
C1020 C1022 1.381 . S
C1020 C1026 1.383 . S
C1021 C1017 1.495 . S
C1021 H1027 0.959 . S
C1021 H1028 0.961 . S
C1021 H1029 0.960 . S
C1022 C1020 1.381 . S
C1022 C1023 1.394 . S
C1022 H1030 0.930 . S
C1023 C1022 1.394 . S
C1023 C1024 1.383 . S
C1023 H1031 0.929 . S
C1024 C1023 1.383 . S
C1024 C1025 1.377 . S
C1025 H1009 0.930 . S
C1025 C1024 1.377 . S
C1025 C1026 1.379 . S
C1026 H1010 0.931 . S
C1026 C1020 1.383 . S
C1026 C1025 1.379 . S
H1027 C1021 0.959 . S
H1028 C1021 0.961 . S
H1029 C1021 0.960 . S
H1030 C1022 0.930 . S
H1031 C1023 0.929 . S
H1032 C1040 0.929 . S
H1033 C1042 0.930 . S
H1034 C1044 0.930 . S
H1035 C1047 0.929 . S
H1036 C1050 0.930 . S
H1037 C1052 0.960 . S
H1038 C1052 0.960 . S
H1039 C1052 0.960 . S
C1040 H1032 0.929 . S
C1040 C1041 1.377 . S
C1040 C1042 1.384 . S
C1041 C1040 1.377 . S
C1041 C1047 1.390 . S
C1042 H1033 0.930 . S
C1042 C1040 1.384 . S
C1042 C1043 1.372 . S
C1043 C1042 1.372 . S
C1043 C1044 1.400 . S
C1043 C1048 1.490 . S
C1044 H1034 0.930 . S
C1044 C1043 1.400 . S
C1044 C1047 1.386 . S
H1045 C1061 0.930 . S
H1046 C1062 0.931 . S
C1047 H1035 0.929 . S
C1047 C1041 1.390 . S
C1047 C1044 1.386 . S
C1048 C1043 1.490 . S
C1048 C1050 1.395 . S
C1048 C1051 1.403 . S
H1049 C1055 0.930 . S
C1050 H1036 0.930 . S
C1050 C1048 1.395 . S
C1050 C1053 1.403 . S
C1051 C1048 1.403 . S
C1051 C1052 1.524 . S
C1051 C1055 1.400 . S
C1052 H1037 0.960 . S
C1052 H1038 0.960 . S
C1052 H1039 0.960 . S
C1052 C1051 1.524 . S
C1053 C1050 1.403 . S
C1053 C1054 1.392 . S
C1053 C1057 1.495 . S
C1054 C1053 1.392 . S
C1054 C1055 1.385 . S
C1054 C1056 1.478 . S
C1055 H1049 0.930 . S
C1055 C1051 1.400 . S
C1055 C1054 1.385 . S
C1056 C1054 1.478 . S
C1056 C1058 1.381 . S
C1056 C1062 1.383 . S
C1057 C1053 1.495 . S
C1057 H1063 0.959 . S
C1057 H1064 0.961 . S
C1057 H1065 0.960 . S
C1058 C1056 1.381 . S
C1058 C1059 1.394 . S
C1058 H1066 0.930 . S
C1059 C1058 1.394 . S
C1059 C1060 1.383 . S
C1059 H1067 0.929 . S
C1060 C1059 1.383 . S
C1060 C1061 1.377 . S
C1061 H1045 0.930 . S
C1061 C1060 1.377 . S
C1061 C1062 1.379 . S
C1062 H1046 0.931 . S
C1062 C1056 1.383 . S
C1062 C1061 1.379 . S
H1063 C1057 0.959 . S
H1064 C1057 0.961 . S
H1065 C1057 0.960 . S
H1066 C1058 0.930 . S
H1067 C1059 0.929 . S
H1068 C1076 0.929 . S
H1069 C1078 0.930 . S
H1070 C1080 0.930 . S
H1071 C1083 0.929 . S
H1072 C1086 0.930 . S
H1073 C1088 0.960 . S
H1074 C1088 0.960 . S
H1075 C1088 0.960 . S
C1076 H1068 0.929 . S
C1076 C1077 1.377 . S
C1076 C1078 1.384 . S
C1077 C1076 1.377 . S
C1077 C1083 1.390 . S
C1078 H1069 0.930 . S
C1078 C1076 1.384 . S
C1078 C1079 1.372 . S
C1079 C1078 1.372 . S
C1079 C1080 1.400 . S
C1079 C1084 1.490 . S
C1080 H1070 0.930 . S
C1080 C1079 1.400 . S
C1080 C1083 1.386 . S
H1081 C1097 0.930 . S
H1082 C1098 0.931 . S
C1083 H1071 0.929 . S
C1083 C1077 1.390 . S
C1083 C1080 1.386 . S
C1084 C1079 1.490 . S
C1084 C1086 1.395 . S
C1084 C1087 1.403 . S
H1085 C1091 0.930 . S
C1086 H1072 0.930 . S
C1086 C1084 1.395 . S
C1086 C1089 1.403 . S
C1087 C1084 1.403 . S
C1087 C1088 1.524 . S
C1087 C1091 1.400 . S
C1088 H1073 0.960 . S
C1088 H1074 0.960 . S
C1088 H1075 0.960 . S
C1088 C1087 1.524 . S
C1089 C1086 1.403 . S
C1089 C1090 1.392 . S
C1089 C1093 1.495 . S
C1090 C1089 1.392 . S
C1090 C1091 1.385 . S
C1090 C1092 1.478 . S
C1091 H1085 0.930 . S
C1091 C1087 1.400 . S
C1091 C1090 1.385 . S
C1092 C1090 1.478 . S
C1092 C1094 1.381 . S
C1092 C1098 1.383 . S
C1093 C1089 1.495 . S
C1093 H1099 0.959 . S
C1093 H1100 0.961 . S
C1093 H1101 0.960 . S
C1094 C1092 1.381 . S
C1094 C1095 1.394 . S
C1094 H1102 0.930 . S
C1095 C1094 1.394 . S
C1095 C1096 1.383 . S
C1095 H1103 0.929 . S
C1096 C1095 1.383 . S
C1096 C1097 1.377 . S
C1097 H1081 0.930 . S
C1097 C1096 1.377 . S
C1097 C1098 1.379 . S
C1098 H1082 0.931 . S
C1098 C1092 1.383 . S
C1098 C1097 1.379 . S
H1099 C1093 0.959 . S
H1100 C1093 0.961 . S
H1101 C1093 0.960 . S
H1102 C1094 0.930 . S
H1103 C1095 0.929 . S
H1104 C1112 0.929 . S
H1105 C1114 0.930 . S
H1106 C1116 0.930 . S
H1107 C1119 0.929 . S
H1108 C1122 0.930 . S
H1109 C1124 0.960 . S
H1110 C1124 0.960 . S
H1111 C1124 0.960 . S
C1112 H1104 0.929 . S
C1112 C1113 1.377 . S
C1112 C1114 1.384 . S
C1113 C1112 1.377 . S
C1113 C1119 1.390 . S
C1114 H1105 0.930 . S
C1114 C1112 1.384 . S
C1114 C1115 1.372 . S
C1115 C1114 1.372 . S
C1115 C1116 1.400 . S
C1115 C1120 1.490 . S
C1116 H1106 0.930 . S
C1116 C1115 1.400 . S
C1116 C1119 1.386 . S
H1117 C1133 0.930 . S
H1118 C1134 0.931 . S
C1119 H1107 0.929 . S
C1119 C1113 1.390 . S
C1119 C1116 1.386 . S
C1120 C1115 1.490 . S
C1120 C1122 1.395 . S
C1120 C1123 1.403 . S
H1121 C1127 0.930 . S
C1122 H1108 0.930 . S
C1122 C1120 1.395 . S
C1122 C1125 1.403 1_554 S
C1123 C1120 1.403 . S
C1123 C1124 1.524 . S
C1123 C1127 1.400 1_554 S
C1124 H1109 0.960 . S
C1124 H1110 0.960 . S
C1124 H1111 0.960 . S
C1124 C1123 1.524 . S
C1125 C1122 1.403 1_556 S
C1125 C1126 1.392 . S
C1125 C1129 1.495 . S
C1126 C1125 1.392 . S
C1126 C1127 1.385 . S
C1126 C1128 1.478 . S
C1127 H1121 0.930 . S
C1127 C1123 1.400 1_556 S
C1127 C1126 1.385 . S
C1128 C1126 1.478 . S
C1128 C1130 1.381 . S
C1128 C1134 1.383 . S
C1129 C1125 1.495 . S
C1129 H1135 0.959 . S
C1129 H1136 0.961 . S
C1129 H1137 0.960 . S
C1130 C1128 1.381 . S
C1130 C1131 1.394 . S
C1130 H1138 0.930 . S
C1131 C1130 1.394 . S
C1131 C1132 1.383 . S
C1131 H1139 0.929 . S
C1132 C1131 1.383 . S
C1132 C1133 1.377 . S
C1133 H1117 0.930 . S
C1133 C1132 1.377 . S
C1133 C1134 1.379 . S
C1134 H1118 0.931 . S
C1134 C1128 1.383 . S
C1134 C1133 1.379 . S
H1135 C1129 0.959 . S
H1136 C1129 0.961 . S
H1137 C1129 0.960 . S
H1138 C1130 0.930 . S
H1139 C1131 0.929 . S
H1140 C1148 0.929 . S
H1141 C1150 0.930 . S
H1142 C1152 0.930 . S
H1143 C1155 0.929 . S
H1144 C1158 0.930 . S
H1145 C1160 0.960 . S
H1146 C1160 0.960 . S
H1147 C1160 0.960 . S
C1148 H1140 0.929 . S
C1148 C1149 1.377 . S
C1148 C1150 1.384 . S
C1149 C1148 1.377 . S
C1149 C1155 1.390 . S
C1150 H1141 0.930 . S
C1150 C1148 1.384 . S
C1150 C1151 1.372 . S
C1151 C1150 1.372 . S
C1151 C1152 1.400 . S
C1151 C1156 1.490 . S
C1152 H1142 0.930 . S
C1152 C1151 1.400 . S
C1152 C1155 1.386 . S
H1153 C1169 0.930 . S
H1154 C1170 0.931 . S
C1155 H1143 0.929 . S
C1155 C1149 1.390 . S
C1155 C1152 1.386 . S
C1156 C1151 1.490 . S
C1156 C1158 1.395 . S
C1156 C1159 1.403 . S
H1157 C1163 0.930 . S
C1158 H1144 0.930 . S
C1158 C1156 1.395 . S
C1158 C1161 1.403 . S
C1159 C1156 1.403 . S
C1159 C1160 1.524 . S
C1159 C1163 1.400 . S
C1160 H1145 0.960 . S
C1160 H1146 0.960 . S
C1160 H1147 0.960 . S
C1160 C1159 1.524 . S
C1161 C1158 1.403 . S
C1161 C1162 1.392 . S
C1161 C1165 1.495 . S
C1162 C1161 1.392 . S
C1162 C1163 1.385 . S
C1162 C1164 1.478 . S
C1163 H1157 0.930 . S
C1163 C1159 1.400 . S
C1163 C1162 1.385 . S
C1164 C1162 1.478 . S
C1164 C1166 1.381 . S
C1164 C1170 1.383 . S
C1165 C1161 1.495 . S
C1165 H1171 0.959 . S
C1165 H1172 0.961 . S
C1165 H1173 0.960 . S
C1166 C1164 1.381 . S
C1166 C1167 1.394 . S
C1166 H1174 0.930 . S
C1167 C1166 1.394 . S
C1167 C1168 1.383 . S
C1167 H1175 0.929 . S
C1168 C1167 1.383 . S
C1168 C1169 1.377 . S
C1169 H1153 0.930 . S
C1169 C1168 1.377 . S
C1169 C1170 1.379 . S
C1170 H1154 0.931 . S
C1170 C1164 1.383 . S
C1170 C1169 1.379 . S
H1171 C1165 0.959 . S
H1172 C1165 0.961 . S
H1173 C1165 0.960 . S
H1174 C1166 0.930 . S
H1175 C1167 0.929 . S
H1176 C1184 0.929 . S
H1177 C1186 0.930 . S
H1178 C1188 0.930 . S
H1179 C1191 0.929 . S
H1180 C1194 0.930 . S
H1181 C1196 0.960 . S
H1182 C1196 0.960 . S
H1183 C1196 0.960 . S
C1184 H1176 0.929 . S
C1184 C1185 1.377 . S
C1184 C1186 1.384 . S
C1185 C1184 1.377 . S
C1185 C1191 1.390 . S
C1186 H1177 0.930 . S
C1186 C1184 1.384 . S
C1186 C1187 1.372 . S
C1187 C1186 1.372 . S
C1187 C1188 1.400 . S
C1187 C1192 1.490 . S
C1188 H1178 0.930 . S
C1188 C1187 1.400 . S
C1188 C1191 1.386 . S
H1189 C1205 0.930 . S
H1190 C1206 0.931 . S
C1191 H1179 0.929 . S
C1191 C1185 1.390 . S
C1191 C1188 1.386 . S
C1192 C1187 1.490 . S
C1192 C1194 1.395 . S
C1192 C1195 1.403 . S
H1193 C1199 0.930 . S
C1194 H1180 0.930 . S
C1194 C1192 1.395 . S
C1194 C1197 1.403 1_556 S
C1195 C1192 1.403 . S
C1195 C1196 1.524 . S
C1195 C1199 1.400 1_556 S
C1196 H1181 0.960 . S
C1196 H1182 0.960 . S
C1196 H1183 0.960 . S
C1196 C1195 1.524 . S
C1197 C1194 1.403 1_554 S
C1197 C1198 1.392 . S
C1197 C1201 1.495 . S
C1198 C1197 1.392 . S
C1198 C1199 1.385 . S
C1198 C1200 1.478 . S
C1199 H1193 0.930 . S
C1199 C1195 1.400 1_554 S
C1199 C1198 1.385 . S
C1200 C1198 1.478 . S
C1200 C1202 1.381 . S
C1200 C1206 1.383 . S
C1201 C1197 1.495 . S
C1201 H1207 0.959 . S
C1201 H1208 0.961 . S
C1201 H1209 0.960 . S
C1202 C1200 1.381 . S
C1202 C1203 1.394 . S
C1202 H1210 0.930 . S
C1203 C1202 1.394 . S
C1203 C1204 1.383 . S
C1203 H1211 0.929 . S
C1204 C1203 1.383 . S
C1204 C1205 1.377 . S
C1205 H1189 0.930 . S
C1205 C1204 1.377 . S
C1205 C1206 1.379 . S
C1206 H1190 0.931 . S
C1206 C1200 1.383 . S
C1206 C1205 1.379 . S
H1207 C1201 0.959 . S
H1208 C1201 0.961 . S
H1209 C1201 0.960 . S
H1210 C1202 0.930 . S
H1211 C1203 0.929 . S
H1212 C1220 0.929 . S
H1213 C1222 0.930 . S
H1214 C1224 0.930 . S
H1215 C1227 0.929 . S
H1216 C1230 0.930 . S
H1217 C1232 0.960 . S
H1218 C1232 0.960 . S
H1219 C1232 0.960 . S
C1220 H1212 0.929 . S
C1220 C1221 1.377 . S
C1220 C1222 1.384 . S
C1221 C1220 1.377 . S
C1221 C1227 1.390 . S
C1222 H1213 0.930 . S
C1222 C1220 1.384 . S
C1222 C1223 1.372 . S
C1223 C1222 1.372 . S
C1223 C1224 1.400 . S
C1223 C1228 1.490 . S
C1224 H1214 0.930 . S
C1224 C1223 1.400 . S
C1224 C1227 1.386 . S
H1225 C1241 0.930 . S
H1226 C1242 0.931 . S
C1227 H1215 0.929 . S
C1227 C1221 1.390 . S
C1227 C1224 1.386 . S
C1228 C1223 1.490 . S
C1228 C1230 1.395 . S
C1228 C1231 1.403 . S
H1229 C1235 0.930 . S
C1230 H1216 0.930 . S
C1230 C1228 1.395 . S
C1230 C1233 1.403 . S
C1231 C1228 1.403 . S
C1231 C1232 1.524 . S
C1231 C1235 1.400 . S
C1232 H1217 0.960 . S
C1232 H1218 0.960 . S
C1232 H1219 0.960 . S
C1232 C1231 1.524 . S
C1233 C1230 1.403 . S
C1233 C1234 1.392 . S
C1233 C1237 1.495 . S
C1234 C1233 1.392 . S
C1234 C1235 1.385 . S
C1234 C1236 1.478 . S
C1235 H1229 0.930 . S
C1235 C1231 1.400 . S
C1235 C1234 1.385 . S
C1236 C1234 1.478 . S
C1236 C1238 1.381 . S
C1236 C1242 1.383 . S
C1237 C1233 1.495 . S
C1237 H1243 0.959 . S
C1237 H1244 0.961 . S
C1237 H1245 0.960 . S
C1238 C1236 1.381 . S
C1238 C1239 1.394 . S
C1238 H1246 0.930 . S
C1239 C1238 1.394 . S
C1239 C1240 1.383 . S
C1239 H1247 0.929 . S
C1240 C1239 1.383 . S
C1240 C1241 1.377 . S
C1241 H1225 0.930 . S
C1241 C1240 1.377 . S
C1241 C1242 1.379 . S
C1242 H1226 0.931 . S
C1242 C1236 1.383 . S
C1242 C1241 1.379 . S
H1243 C1237 0.959 . S
H1244 C1237 0.961 . S
H1245 C1237 0.960 . S
H1246 C1238 0.930 . S
H1247 C1239 0.929 . S
H1248 C1256 0.929 . S
H1249 C1258 0.930 . S
H1250 C1260 0.930 . S
H1251 C1263 0.929 . S
H1252 C1266 0.930 . S
H1253 C1268 0.960 . S
H1254 C1268 0.960 . S
H1255 C1268 0.960 . S
C1256 H1248 0.929 . S
C1256 C1257 1.377 . S
C1256 C1258 1.384 . S
C1257 C1256 1.377 . S
C1257 C1263 1.390 . S
C1258 H1249 0.930 . S
C1258 C1256 1.384 . S
C1258 C1259 1.372 . S
C1259 C1258 1.372 . S
C1259 C1260 1.400 . S
C1259 C1264 1.490 . S
C1260 H1250 0.930 . S
C1260 C1259 1.400 . S
C1260 C1263 1.386 . S
H1261 C1277 0.930 . S
H1262 C1278 0.931 . S
C1263 H1251 0.929 . S
C1263 C1257 1.390 . S
C1263 C1260 1.386 . S
C1264 C1259 1.490 . S
C1264 C1266 1.395 . S
C1264 C1267 1.403 . S
H1265 C1271 0.930 . S
C1266 H1252 0.930 . S
C1266 C1264 1.395 . S
C1266 C1269 1.403 1_556 S
C1267 C1264 1.403 . S
C1267 C1268 1.524 . S
C1267 C1271 1.400 1_556 S
C1268 H1253 0.960 . S
C1268 H1254 0.960 . S
C1268 H1255 0.960 . S
C1268 C1267 1.524 . S
C1269 C1266 1.403 1_554 S
C1269 C1270 1.392 . S
C1269 C1273 1.495 . S
C1270 C1269 1.392 . S
C1270 C1271 1.385 . S
C1270 C1272 1.478 . S
C1271 H1265 0.930 . S
C1271 C1267 1.400 1_554 S
C1271 C1270 1.385 . S
C1272 C1270 1.478 . S
C1272 C1274 1.381 . S
C1272 C1278 1.383 . S
C1273 C1269 1.495 . S
C1273 H1279 0.959 . S
C1273 H1280 0.961 . S
C1273 H1281 0.960 . S
C1274 C1272 1.381 . S
C1274 C1275 1.394 . S
C1274 H1282 0.930 . S
C1275 C1274 1.394 . S
C1275 C1276 1.383 . S
C1275 H1283 0.929 . S
C1276 C1275 1.383 . S
C1276 C1277 1.377 . S
C1277 H1261 0.930 . S
C1277 C1276 1.377 . S
C1277 C1278 1.379 . S
C1278 H1262 0.931 . S
C1278 C1272 1.383 . S
C1278 C1277 1.379 . S
H1279 C1273 0.959 . S
H1280 C1273 0.961 . S
H1281 C1273 0.960 . S
H1282 C1274 0.930 . S
H1283 C1275 0.929 . S
H1284 C1292 0.929 . S
H1285 C1294 0.930 . S
H1286 C1296 0.930 . S
H1287 C1299 0.929 . S
H1288 C1302 0.930 . S
H1289 C1304 0.960 . S
H1290 C1304 0.960 . S
H1291 C1304 0.960 . S
C1292 H1284 0.929 . S
C1292 C1293 1.377 . S
C1292 C1294 1.384 . S
C1293 C1292 1.377 . S
C1293 C1299 1.390 . S
C1294 H1285 0.930 . S
C1294 C1292 1.384 . S
C1294 C1295 1.372 . S
C1295 C1294 1.372 . S
C1295 C1296 1.400 . S
C1295 C1300 1.490 . S
C1296 H1286 0.930 . S
C1296 C1295 1.400 . S
C1296 C1299 1.386 . S
H1297 C1313 0.930 . S
H1298 C1314 0.931 . S
C1299 H1287 0.929 . S
C1299 C1293 1.390 . S
C1299 C1296 1.386 . S
C1300 C1295 1.490 . S
C1300 C1302 1.395 . S
C1300 C1303 1.403 . S
H1301 C1307 0.930 . S
C1302 H1288 0.930 . S
C1302 C1300 1.395 . S
C1302 C1305 1.403 . S
C1303 C1300 1.403 . S
C1303 C1304 1.524 . S
C1303 C1307 1.400 . S
C1304 H1289 0.960 . S
C1304 H1290 0.960 . S
C1304 H1291 0.960 . S
C1304 C1303 1.524 . S
C1305 C1302 1.403 . S
C1305 C1306 1.392 . S
C1305 C1309 1.495 . S
C1306 C1305 1.392 . S
C1306 C1307 1.385 . S
C1306 C1308 1.478 . S
C1307 H1301 0.930 . S
C1307 C1303 1.400 . S
C1307 C1306 1.385 . S
C1308 C1306 1.478 . S
C1308 C1310 1.381 . S
C1308 C1314 1.383 . S
C1309 C1305 1.495 . S
C1309 H1315 0.959 . S
C1309 H1316 0.961 . S
C1309 H1317 0.960 . S
C1310 C1308 1.381 . S
C1310 C1311 1.394 . S
C1310 H1318 0.930 . S
C1311 C1310 1.394 . S
C1311 C1312 1.383 . S
C1311 H1319 0.929 . S
C1312 C1311 1.383 . S
C1312 C1313 1.377 . S
C1313 H1297 0.930 . S
C1313 C1312 1.377 . S
C1313 C1314 1.379 . S
C1314 H1298 0.931 . S
C1314 C1308 1.383 . S
C1314 C1313 1.379 . S
H1315 C1309 0.959 . S
H1316 C1309 0.961 . S
H1317 C1309 0.960 . S
H1318 C1310 0.930 . S
H1319 C1311 0.929 . S
H1320 C1328 0.929 . S
H1321 C1330 0.930 . S
H1322 C1332 0.930 . S
H1323 C1335 0.929 . S
H1324 C1338 0.930 . S
H1325 C1340 0.960 . S
H1326 C1340 0.960 . S
H1327 C1340 0.960 . S
C1328 H1320 0.929 . S
C1328 C1329 1.377 . S
C1328 C1330 1.384 . S
C1329 C1328 1.377 . S
C1329 C1335 1.390 . S
C1330 H1321 0.930 . S
C1330 C1328 1.384 . S
C1330 C1331 1.372 . S
C1331 C1330 1.372 . S
C1331 C1332 1.400 . S
C1331 C1336 1.490 . S
C1332 H1322 0.930 . S
C1332 C1331 1.400 . S
C1332 C1335 1.386 . S
H1333 C1349 0.930 . S
H1334 C1350 0.931 . S
C1335 H1323 0.929 . S
C1335 C1329 1.390 . S
C1335 C1332 1.386 . S
C1336 C1331 1.490 . S
C1336 C1338 1.395 . S
C1336 C1339 1.403 . S
H1337 C1343 0.930 . S
C1338 H1324 0.930 . S
C1338 C1336 1.395 . S
C1338 C1341 1.403 1_554 S
C1339 C1336 1.403 . S
C1339 C1340 1.524 . S
C1339 C1343 1.400 1_554 S
C1340 H1325 0.960 . S
C1340 H1326 0.960 . S
C1340 H1327 0.960 . S
C1340 C1339 1.524 . S
C1341 C1338 1.403 1_556 S
C1341 C1342 1.392 . S
C1341 C1345 1.495 . S
C1342 C1341 1.392 . S
C1342 C1343 1.385 . S
C1342 C1344 1.478 . S
C1343 H1337 0.930 . S
C1343 C1339 1.400 1_556 S
C1343 C1342 1.385 . S
C1344 C1342 1.478 . S
C1344 C1346 1.381 . S
C1344 C1350 1.383 . S
C1345 C1341 1.495 . S
C1345 H1351 0.959 . S
C1345 H1352 0.961 . S
C1345 H1353 0.960 . S
C1346 C1344 1.381 . S
C1346 C1347 1.394 . S
C1346 H1354 0.930 . S
C1347 C1346 1.394 . S
C1347 C1348 1.383 . S
C1347 H1355 0.929 . S
C1348 C1347 1.383 . S
C1348 C1349 1.377 . S
C1349 H1333 0.930 . S
C1349 C1348 1.377 . S
C1349 C1350 1.379 . S
C1350 H1334 0.931 . S
C1350 C1344 1.383 . S
C1350 C1349 1.379 . S
H1351 C1345 0.959 . S
H1352 C1345 0.961 . S
H1353 C1345 0.960 . S
H1354 C1346 0.930 . S
H1355 C1347 0.929 . S
H1356 C1364 0.929 . S
H1357 C1366 0.930 . S
H1358 C1368 0.930 . S
H1359 C1371 0.929 . S
H1360 C1374 0.930 . S
H1361 C1376 0.960 . S
H1362 C1376 0.960 . S
H1363 C1376 0.960 . S
C1364 H1356 0.929 . S
C1364 C1365 1.377 . S
C1364 C1366 1.384 . S
C1365 C1364 1.377 . S
C1365 C1371 1.390 . S
C1366 H1357 0.930 . S
C1366 C1364 1.384 . S
C1366 C1367 1.372 . S
C1367 C1366 1.372 . S
C1367 C1368 1.400 . S
C1367 C1372 1.490 . S
C1368 H1358 0.930 . S
C1368 C1367 1.400 . S
C1368 C1371 1.386 . S
H1369 C1385 0.930 . S
H1370 C1386 0.931 . S
C1371 H1359 0.929 . S
C1371 C1365 1.390 . S
C1371 C1368 1.386 . S
C1372 C1367 1.490 . S
C1372 C1374 1.395 . S
C1372 C1375 1.403 . S
H1373 C1379 0.930 . S
C1374 H1360 0.930 . S
C1374 C1372 1.395 . S
C1374 C1377 1.403 . S
C1375 C1372 1.403 . S
C1375 C1376 1.524 . S
C1375 C1379 1.400 . S
C1376 H1361 0.960 . S
C1376 H1362 0.960 . S
C1376 H1363 0.960 . S
C1376 C1375 1.524 . S
C1377 C1374 1.403 . S
C1377 C1378 1.392 . S
C1377 C1381 1.495 . S
C1378 C1377 1.392 . S
C1378 C1379 1.385 . S
C1378 C1380 1.478 . S
C1379 H1373 0.930 . S
C1379 C1375 1.400 . S
C1379 C1378 1.385 . S
C1380 C1378 1.478 . S
C1380 C1382 1.381 . S
C1380 C1386 1.383 . S
C1381 C1377 1.495 . S
C1381 H1387 0.959 . S
C1381 H1388 0.961 . S
C1381 H1389 0.960 . S
C1382 C1380 1.381 . S
C1382 C1383 1.394 . S
C1382 H1390 0.930 . S
C1383 C1382 1.394 . S
C1383 C1384 1.383 . S
C1383 H1391 0.929 . S
C1384 C1383 1.383 . S
C1384 C1385 1.377 . S
C1385 H1369 0.930 . S
C1385 C1384 1.377 . S
C1385 C1386 1.379 . S
C1386 H1370 0.931 . S
C1386 C1380 1.383 . S
C1386 C1385 1.379 . S
H1387 C1381 0.959 . S
H1388 C1381 0.961 . S
H1389 C1381 0.960 . S
H1390 C1382 0.930 . S
H1391 C1383 0.929 . S
H1392 C1400 0.929 . S
H1393 C1402 0.930 . S
H1394 C1404 0.930 . S
H1395 C1407 0.929 . S
H1396 C1410 0.930 . S
H1397 C1412 0.960 . S
H1398 C1412 0.960 . S
H1399 C1412 0.960 . S
C1400 H1392 0.929 . S
C1400 C1401 1.377 . S
C1400 C1402 1.384 . S
C1401 C1400 1.377 . S
C1401 C1407 1.390 . S
C1402 H1393 0.930 . S
C1402 C1400 1.384 . S
C1402 C1403 1.372 . S
C1403 C1402 1.372 . S
C1403 C1404 1.400 . S
C1403 C1408 1.490 . S
C1404 H1394 0.930 . S
C1404 C1403 1.400 . S
C1404 C1407 1.386 . S
H1405 C1421 0.930 . S
H1406 C1422 0.931 . S
C1407 H1395 0.929 . S
C1407 C1401 1.390 . S
C1407 C1404 1.386 . S
C1408 C1403 1.490 . S
C1408 C1410 1.395 . S
C1408 C1411 1.403 . S
H1409 C1415 0.930 . S
C1410 H1396 0.930 . S
C1410 C1408 1.395 . S
C1410 C1413 1.403 . S
C1411 C1408 1.403 . S
C1411 C1412 1.524 . S
C1411 C1415 1.400 . S
C1412 H1397 0.960 . S
C1412 H1398 0.960 . S
C1412 H1399 0.960 . S
C1412 C1411 1.524 . S
C1413 C1410 1.403 . S
C1413 C1414 1.392 . S
C1413 C1417 1.495 . S
C1414 C1413 1.392 . S
C1414 C1415 1.385 . S
C1414 C1416 1.478 . S
C1415 H1409 0.930 . S
C1415 C1411 1.400 . S
C1415 C1414 1.385 . S
C1416 C1414 1.478 . S
C1416 C1418 1.381 . S
C1416 C1422 1.383 . S
C1417 C1413 1.495 . S
C1417 H1423 0.959 . S
C1417 H1424 0.961 . S
C1417 H1425 0.960 . S
C1418 C1416 1.381 . S
C1418 C1419 1.394 . S
C1418 H1426 0.930 . S
C1419 C1418 1.394 . S
C1419 C1420 1.383 . S
C1419 H1427 0.929 . S
C1420 C1419 1.383 . S
C1420 C1421 1.377 . S
C1421 H1405 0.930 . S
C1421 C1420 1.377 . S
C1421 C1422 1.379 . S
C1422 H1406 0.931 . S
C1422 C1416 1.383 . S
C1422 C1421 1.379 . S
H1423 C1417 0.959 . S
H1424 C1417 0.961 . S
H1425 C1417 0.960 . S
H1426 C1418 0.930 . S
H1427 C1419 0.929 . S
H1428 C1436 0.929 . S
H1429 C1438 0.930 . S
H1430 C1440 0.930 . S
H1431 C1443 0.929 . S
H1432 C1446 0.930 . S
H1433 C1448 0.960 . S
H1434 C1448 0.960 . S
H1435 C1448 0.960 . S
C1436 H1428 0.929 . S
C1436 C1437 1.377 . S
C1436 C1438 1.384 . S
C1437 C1436 1.377 . S
C1437 C1443 1.390 . S
C1438 H1429 0.930 . S
C1438 C1436 1.384 . S
C1438 C1439 1.372 . S
C1439 C1438 1.372 . S
C1439 C1440 1.400 . S
C1439 C1444 1.490 . S
C1440 H1430 0.930 . S
C1440 C1439 1.400 . S
C1440 C1443 1.386 . S
H1441 C1457 0.930 . S
H1442 C1458 0.931 . S
C1443 H1431 0.929 . S
C1443 C1437 1.390 . S
C1443 C1440 1.386 . S
C1444 C1439 1.490 . S
C1444 C1446 1.395 . S
C1444 C1447 1.403 . S
H1445 C1451 0.930 . S
C1446 H1432 0.930 . S
C1446 C1444 1.395 . S
C1446 C1449 1.403 . S
C1447 C1444 1.403 . S
C1447 C1448 1.524 . S
C1447 C1451 1.400 . S
C1448 H1433 0.960 . S
C1448 H1434 0.960 . S
C1448 H1435 0.960 . S
C1448 C1447 1.524 . S
C1449 C1446 1.403 . S
C1449 C1450 1.392 . S
C1449 C1453 1.495 . S
C1450 C1449 1.392 . S
C1450 C1451 1.385 . S
C1450 C1452 1.478 . S
C1451 H1445 0.930 . S
C1451 C1447 1.400 . S
C1451 C1450 1.385 . S
C1452 C1450 1.478 . S
C1452 C1454 1.381 . S
C1452 C1458 1.383 . S
C1453 C1449 1.495 . S
C1453 H1459 0.959 . S
C1453 H1460 0.961 . S
C1453 H1461 0.960 . S
C1454 C1452 1.381 . S
C1454 C1455 1.394 . S
C1454 H1462 0.930 . S
C1455 C1454 1.394 . S
C1455 C1456 1.383 . S
C1455 H1463 0.929 . S
C1456 C1455 1.383 . S
C1456 C1457 1.377 . S
C1457 H1441 0.930 . S
C1457 C1456 1.377 . S
C1457 C1458 1.379 . S
C1458 H1442 0.931 . S
C1458 C1452 1.383 . S
C1458 C1457 1.379 . S
H1459 C1453 0.959 . S
H1460 C1453 0.961 . S
H1461 C1453 0.960 . S
H1462 C1454 0.930 . S
H1463 C1455 0.929 . S
H1464 C1472 0.929 . S
H1465 C1474 0.930 . S
H1466 C1476 0.930 . S
H1467 C1479 0.929 . S
H1468 C1482 0.930 . S
H1469 C1484 0.960 . S
H1470 C1484 0.960 . S
H1471 C1484 0.960 . S
C1472 H1464 0.929 . S
C1472 C1473 1.377 . S
C1472 C1474 1.384 . S
C1473 C1472 1.377 . S
C1473 C1479 1.390 . S
C1474 H1465 0.930 . S
C1474 C1472 1.384 . S
C1474 C1475 1.372 . S
C1475 C1474 1.372 . S
C1475 C1476 1.400 . S
C1475 C1480 1.490 . S
C1476 H1466 0.930 . S
C1476 C1475 1.400 . S
C1476 C1479 1.386 . S
H1477 C1493 0.930 . S
H1478 C1494 0.931 . S
C1479 H1467 0.929 . S
C1479 C1473 1.390 . S
C1479 C1476 1.386 . S
C1480 C1475 1.490 . S
C1480 C1482 1.395 . S
C1480 C1483 1.403 . S
H1481 C1487 0.930 . S
C1482 H1468 0.930 . S
C1482 C1480 1.395 . S
C1482 C1485 1.403 . S
C1483 C1480 1.403 . S
C1483 C1484 1.524 . S
C1483 C1487 1.400 . S
C1484 H1469 0.960 . S
C1484 H1470 0.960 . S
C1484 H1471 0.960 . S
C1484 C1483 1.524 . S
C1485 C1482 1.403 . S
C1485 C1486 1.392 . S
C1485 C1489 1.495 . S
C1486 C1485 1.392 . S
C1486 C1487 1.385 . S
C1486 C1488 1.478 . S
C1487 H1481 0.930 . S
C1487 C1483 1.400 . S
C1487 C1486 1.385 . S
C1488 C1486 1.478 . S
C1488 C1490 1.381 . S
C1488 C1494 1.383 . S
C1489 C1485 1.495 . S
C1489 H1495 0.959 . S
C1489 H1496 0.961 . S
C1489 H1497 0.960 . S
C1490 C1488 1.381 . S
C1490 C1491 1.394 . S
C1490 H1498 0.930 . S
C1491 C1490 1.394 . S
C1491 C1492 1.383 . S
C1491 H1499 0.929 . S
C1492 C1491 1.383 . S
C1492 C1493 1.377 . S
C1493 H1477 0.930 . S
C1493 C1492 1.377 . S
C1493 C1494 1.379 . S
C1494 H1478 0.931 . S
C1494 C1488 1.383 . S
C1494 C1493 1.379 . S
H1495 C1489 0.959 . S
H1496 C1489 0.961 . S
H1497 C1489 0.960 . S
H1498 C1490 0.930 . S
H1499 C1491 0.929 . S
H1500 C1508 0.929 . S
H1501 C1510 0.930 . S
H1502 C1512 0.930 . S
H1503 C1515 0.929 . S
H1504 C1518 0.930 . S
H1505 C1520 0.960 . S
H1506 C1520 0.960 . S
H1507 C1520 0.960 . S
C1508 H1500 0.929 . S
C1508 C1509 1.377 . S
C1508 C1510 1.384 . S
C1509 C1508 1.377 . S
C1509 C1515 1.390 . S
C1510 H1501 0.930 . S
C1510 C1508 1.384 . S
C1510 C1511 1.372 . S
C1511 C1510 1.372 . S
C1511 C1512 1.400 . S
C1511 C1516 1.490 . S
C1512 H1502 0.930 . S
C1512 C1511 1.400 . S
C1512 C1515 1.386 . S
H1513 C1529 0.930 . S
H1514 C1530 0.931 . S
C1515 H1503 0.929 . S
C1515 C1509 1.390 . S
C1515 C1512 1.386 . S
C1516 C1511 1.490 . S
C1516 C1518 1.395 . S
C1516 C1519 1.403 . S
H1517 C1523 0.930 . S
C1518 H1504 0.930 . S
C1518 C1516 1.395 . S
C1518 C1521 1.403 . S
C1519 C1516 1.403 . S
C1519 C1520 1.524 . S
C1519 C1523 1.400 . S
C1520 H1505 0.960 . S
C1520 H1506 0.960 . S
C1520 H1507 0.960 . S
C1520 C1519 1.524 . S
C1521 C1518 1.403 . S
C1521 C1522 1.392 . S
C1521 C1525 1.495 . S
C1522 C1521 1.392 . S
C1522 C1523 1.385 . S
C1522 C1524 1.478 . S
C1523 H1517 0.930 . S
C1523 C1519 1.400 . S
C1523 C1522 1.385 . S
C1524 C1522 1.478 . S
C1524 C1526 1.381 . S
C1524 C1530 1.383 . S
C1525 C1521 1.495 . S
C1525 H1531 0.959 . S
C1525 H1532 0.961 . S
C1525 H1533 0.960 . S
C1526 C1524 1.381 . S
C1526 C1527 1.394 . S
C1526 H1534 0.930 . S
C1527 C1526 1.394 . S
C1527 C1528 1.383 . S
C1527 H1535 0.929 . S
C1528 C1527 1.383 . S
C1528 C1529 1.377 . S
C1529 H1513 0.930 . S
C1529 C1528 1.377 . S
C1529 C1530 1.379 . S
C1530 H1514 0.931 . S
C1530 C1524 1.383 . S
C1530 C1529 1.379 . S
H1531 C1525 0.959 . S
H1532 C1525 0.961 . S
H1533 C1525 0.960 . S
H1534 C1526 0.930 . S
H1535 C1527 0.929 . S
H1536 C1544 0.929 . S
H1537 C1546 0.930 . S
H1538 C1548 0.930 . S
H1539 C1551 0.929 . S
H1540 C1554 0.930 . S
H1541 C1556 0.960 . S
H1542 C1556 0.960 . S
H1543 C1556 0.960 . S
C1544 H1536 0.929 . S
C1544 C1545 1.377 . S
C1544 C1546 1.384 . S
C1545 C1544 1.377 . S
C1545 C1551 1.390 . S
C1546 H1537 0.930 . S
C1546 C1544 1.384 . S
C1546 C1547 1.372 . S
C1547 C1546 1.372 . S
C1547 C1548 1.400 . S
C1547 C1552 1.490 . S
C1548 H1538 0.930 . S
C1548 C1547 1.400 . S
C1548 C1551 1.386 . S
H1549 C1565 0.930 . S
H1550 C1566 0.931 . S
C1551 H1539 0.929 . S
C1551 C1545 1.390 . S
C1551 C1548 1.386 . S
C1552 C1547 1.490 . S
C1552 C1554 1.395 . S
C1552 C1555 1.403 . S
H1553 C1559 0.930 . S
C1554 H1540 0.930 . S
C1554 C1552 1.395 . S
C1554 C1557 1.403 . S
C1555 C1552 1.403 . S
C1555 C1556 1.524 . S
C1555 C1559 1.400 . S
C1556 H1541 0.960 . S
C1556 H1542 0.960 . S
C1556 H1543 0.960 . S
C1556 C1555 1.524 . S
C1557 C1554 1.403 . S
C1557 C1558 1.392 . S
C1557 C1561 1.495 . S
C1558 C1557 1.392 . S
C1558 C1559 1.385 . S
C1558 C1560 1.478 . S
C1559 H1553 0.930 . S
C1559 C1555 1.400 . S
C1559 C1558 1.385 . S
C1560 C1558 1.478 . S
C1560 C1562 1.381 . S
C1560 C1566 1.383 . S
C1561 C1557 1.495 . S
C1561 H1567 0.959 . S
C1561 H1568 0.961 . S
C1561 H1569 0.960 . S
C1562 C1560 1.381 . S
C1562 C1563 1.394 . S
C1562 H1570 0.930 . S
C1563 C1562 1.394 . S
C1563 C1564 1.383 . S
C1563 H1571 0.929 . S
C1564 C1563 1.383 . S
C1564 C1565 1.377 . S
C1565 H1549 0.930 . S
C1565 C1564 1.377 . S
C1565 C1566 1.379 . S
C1566 H1550 0.931 . S
C1566 C1560 1.383 . S
C1566 C1565 1.379 . S
H1567 C1561 0.959 . S
H1568 C1561 0.961 . S
H1569 C1561 0.960 . S
H1570 C1562 0.930 . S
H1571 C1563 0.929 . S
H1572 C1580 0.929 . S
H1573 C1582 0.930 . S
H1574 C1584 0.930 . S
H1575 C1587 0.929 . S
H1576 C1590 0.930 . S
H1577 C1592 0.960 . S
H1578 C1592 0.960 . S
H1579 C1592 0.960 . S
C1580 H1572 0.929 . S
C1580 C1581 1.377 . S
C1580 C1582 1.384 . S
C1581 C1580 1.377 . S
C1581 C1587 1.390 . S
C1582 H1573 0.930 . S
C1582 C1580 1.384 . S
C1582 C1583 1.372 . S
C1583 C1582 1.372 . S
C1583 C1584 1.400 . S
C1583 C1588 1.490 . S
C1584 H1574 0.930 . S
C1584 C1583 1.400 . S
C1584 C1587 1.386 . S
H1585 C1601 0.930 . S
H1586 C1602 0.931 . S
C1587 H1575 0.929 . S
C1587 C1581 1.390 . S
C1587 C1584 1.386 . S
C1588 C1583 1.490 . S
C1588 C1590 1.395 . S
C1588 C1591 1.403 . S
H1589 C1595 0.930 . S
C1590 H1576 0.930 . S
C1590 C1588 1.395 . S
C1590 C1593 1.403 . S
C1591 C1588 1.403 . S
C1591 C1592 1.524 . S
C1591 C1595 1.400 . S
C1592 H1577 0.960 . S
C1592 H1578 0.960 . S
C1592 H1579 0.960 . S
C1592 C1591 1.524 . S
C1593 C1590 1.403 . S
C1593 C1594 1.392 . S
C1593 C1597 1.495 . S
C1594 C1593 1.392 . S
C1594 C1595 1.385 . S
C1594 C1596 1.478 . S
C1595 H1589 0.930 . S
C1595 C1591 1.400 . S
C1595 C1594 1.385 . S
C1596 C1594 1.478 . S
C1596 C1598 1.381 . S
C1596 C1602 1.383 . S
C1597 C1593 1.495 . S
C1597 H1603 0.959 . S
C1597 H1604 0.961 . S
C1597 H1605 0.960 . S
C1598 C1596 1.381 . S
C1598 C1599 1.394 . S
C1598 H1606 0.930 . S
C1599 C1598 1.394 . S
C1599 C1600 1.383 . S
C1599 H1607 0.929 . S
C1600 C1599 1.383 . S
C1600 C1601 1.377 . S
C1601 H1585 0.930 . S
C1601 C1600 1.377 . S
C1601 C1602 1.379 . S
C1602 H1586 0.931 . S
C1602 C1596 1.383 . S
C1602 C1601 1.379 . S
H1603 C1597 0.959 . S
H1604 C1597 0.961 . S
H1605 C1597 0.960 . S
H1606 C1598 0.930 . S
H1607 C1599 0.929 . S
H1608 C1616 0.929 . S
H1609 C1618 0.930 . S
H1610 C1620 0.930 . S
H1611 C1623 0.929 . S
H1612 C1626 0.930 . S
H1613 C1628 0.960 . S
H1614 C1628 0.960 . S
H1615 C1628 0.960 . S
C1616 H1608 0.929 . S
C1616 C1617 1.377 . S
C1616 C1618 1.384 . S
C1617 C1616 1.377 . S
C1617 C1623 1.390 . S
C1618 H1609 0.930 . S
C1618 C1616 1.384 . S
C1618 C1619 1.372 . S
C1619 C1618 1.372 . S
C1619 C1620 1.400 . S
C1619 C1624 1.490 . S
C1620 H1610 0.930 . S
C1620 C1619 1.400 . S
C1620 C1623 1.386 . S
H1621 C1637 0.930 . S
H1622 C1638 0.931 . S
C1623 H1611 0.929 . S
C1623 C1617 1.390 . S
C1623 C1620 1.386 . S
C1624 C1619 1.490 . S
C1624 C1626 1.395 . S
C1624 C1627 1.403 . S
H1625 C1631 0.930 . S
C1626 H1612 0.930 . S
C1626 C1624 1.395 . S
C1626 C1629 1.403 . S
C1627 C1624 1.403 . S
C1627 C1628 1.524 . S
C1627 C1631 1.400 . S
C1628 H1613 0.960 . S
C1628 H1614 0.960 . S
C1628 H1615 0.960 . S
C1628 C1627 1.524 . S
C1629 C1626 1.403 . S
C1629 C1630 1.392 . S
C1629 C1633 1.495 . S
C1630 C1629 1.392 . S
C1630 C1631 1.385 . S
C1630 C1632 1.478 . S
C1631 H1625 0.930 . S
C1631 C1627 1.400 . S
C1631 C1630 1.385 . S
C1632 C1630 1.478 . S
C1632 C1634 1.381 . S
C1632 C1638 1.383 . S
C1633 C1629 1.495 . S
C1633 H1639 0.959 . S
C1633 H1640 0.961 . S
C1633 H1641 0.960 . S
C1634 C1632 1.381 . S
C1634 C1635 1.394 . S
C1634 H1642 0.930 . S
C1635 C1634 1.394 . S
C1635 C1636 1.383 . S
C1635 H1643 0.929 . S
C1636 C1635 1.383 . S
C1636 C1637 1.377 . S
C1637 H1621 0.930 . S
C1637 C1636 1.377 . S
C1637 C1638 1.379 . S
C1638 H1622 0.931 . S
C1638 C1632 1.383 . S
C1638 C1637 1.379 . S
H1639 C1633 0.959 . S
H1640 C1633 0.961 . S
H1641 C1633 0.960 . S
H1642 C1634 0.930 . S
H1643 C1635 0.929 . S
H1644 C1652 0.929 . S
H1645 C1654 0.930 . S
H1646 C1656 0.930 . S
H1647 C1659 0.929 . S
H1648 C1662 0.930 . S
H1649 C1664 0.960 . S
H1650 C1664 0.960 . S
H1651 C1664 0.960 . S
C1652 H1644 0.929 . S
C1652 C1653 1.377 . S
C1652 C1654 1.384 . S
C1653 C1652 1.377 . S
C1653 C1659 1.390 . S
C1654 H1645 0.930 . S
C1654 C1652 1.384 . S
C1654 C1655 1.372 . S
C1655 C1654 1.372 . S
C1655 C1656 1.400 . S
C1655 C1660 1.490 . S
C1656 H1646 0.930 . S
C1656 C1655 1.400 . S
C1656 C1659 1.386 . S
H1657 C1673 0.930 . S
H1658 C1674 0.931 . S
C1659 H1647 0.929 . S
C1659 C1653 1.390 . S
C1659 C1656 1.386 . S
C1660 C1655 1.490 . S
C1660 C1662 1.395 . S
C1660 C1663 1.403 . S
H1661 C1667 0.930 . S
C1662 H1648 0.930 . S
C1662 C1660 1.395 . S
C1662 C1665 1.403 . S
C1663 C1660 1.403 . S
C1663 C1664 1.524 . S
C1663 C1667 1.400 . S
C1664 H1649 0.960 . S
C1664 H1650 0.960 . S
C1664 H1651 0.960 . S
C1664 C1663 1.524 . S
C1665 C1662 1.403 . S
C1665 C1666 1.392 . S
C1665 C1669 1.495 . S
C1666 C1665 1.392 . S
C1666 C1667 1.385 . S
C1666 C1668 1.478 . S
C1667 H1661 0.930 . S
C1667 C1663 1.400 . S
C1667 C1666 1.385 . S
C1668 C1666 1.478 . S
C1668 C1670 1.381 . S
C1668 C1674 1.383 . S
C1669 C1665 1.495 . S
C1669 H1675 0.959 . S
C1669 H1676 0.961 . S
C1669 H1677 0.960 . S
C1670 C1668 1.381 . S
C1670 C1671 1.394 . S
C1670 H1678 0.930 . S
C1671 C1670 1.394 . S
C1671 C1672 1.383 . S
C1671 H1679 0.929 . S
C1672 C1671 1.383 . S
C1672 C1673 1.377 . S
C1673 H1657 0.930 . S
C1673 C1672 1.377 . S
C1673 C1674 1.379 . S
C1674 H1658 0.931 . S
C1674 C1668 1.383 . S
C1674 C1673 1.379 . S
H1675 C1669 0.959 . S
H1676 C1669 0.961 . S
H1677 C1669 0.960 . S
H1678 C1670 0.930 . S
H1679 C1671 0.929 . S
H1680 C1688 0.929 . S
H1681 C1690 0.930 . S
H1682 C1692 0.930 . S
H1683 C1695 0.929 . S
H1684 C1698 0.930 . S
H1685 C1700 0.960 . S
H1686 C1700 0.960 . S
H1687 C1700 0.960 . S
C1688 H1680 0.929 . S
C1688 C1689 1.377 . S
C1688 C1690 1.384 . S
C1689 C1688 1.377 . S
C1689 C1695 1.390 . S
C1690 H1681 0.930 . S
C1690 C1688 1.384 . S
C1690 C1691 1.372 . S
C1691 C1690 1.372 . S
C1691 C1692 1.400 . S
C1691 C1696 1.490 . S
C1692 H1682 0.930 . S
C1692 C1691 1.400 . S
C1692 C1695 1.386 . S
H1693 C1709 0.930 . S
H1694 C1710 0.931 . S
C1695 H1683 0.929 . S
C1695 C1689 1.390 . S
C1695 C1692 1.386 . S
C1696 C1691 1.490 . S
C1696 C1698 1.395 . S
C1696 C1699 1.403 . S
H1697 C1703 0.930 . S
C1698 H1684 0.930 . S
C1698 C1696 1.395 . S
C1698 C1701 1.403 . S
C1699 C1696 1.403 . S
C1699 C1700 1.524 . S
C1699 C1703 1.400 . S
C1700 H1685 0.960 . S
C1700 H1686 0.960 . S
C1700 H1687 0.960 . S
C1700 C1699 1.524 . S
C1701 C1698 1.403 . S
C1701 C1702 1.392 . S
C1701 C1705 1.495 . S
C1702 C1701 1.392 . S
C1702 C1703 1.385 . S
C1702 C1704 1.478 . S
C1703 H1697 0.930 . S
C1703 C1699 1.400 . S
C1703 C1702 1.385 . S
C1704 C1702 1.478 . S
C1704 C1706 1.381 . S
C1704 C1710 1.383 . S
C1705 C1701 1.495 . S
C1705 H1711 0.959 . S
C1705 H1712 0.961 . S
C1705 H1713 0.960 . S
C1706 C1704 1.381 . S
C1706 C1707 1.394 . S
C1706 H1714 0.930 . S
C1707 C1706 1.394 . S
C1707 C1708 1.383 . S
C1707 H1715 0.929 . S
C1708 C1707 1.383 . S
C1708 C1709 1.377 . S
C1709 H1693 0.930 . S
C1709 C1708 1.377 . S
C1709 C1710 1.379 . S
C1710 H1694 0.931 . S
C1710 C1704 1.383 . S
C1710 C1709 1.379 . S
H1711 C1705 0.959 . S
H1712 C1705 0.961 . S
H1713 C1705 0.960 . S
H1714 C1706 0.930 . S
H1715 C1707 0.929 . S
H1716 C1724 0.929 . S
H1717 C1726 0.930 . S
H1718 C1728 0.930 . S
H1719 C1731 0.929 . S
H1720 C1734 0.930 . S
H1721 C1736 0.960 . S
H1722 C1736 0.960 . S
H1723 C1736 0.960 . S
C1724 H1716 0.929 . S
C1724 C1725 1.377 . S
C1724 C1726 1.384 . S
C1725 C1724 1.377 . S
C1725 C1731 1.390 . S
C1726 H1717 0.930 . S
C1726 C1724 1.384 . S
C1726 C1727 1.372 . S
C1727 C1726 1.372 . S
C1727 C1728 1.400 . S
C1727 C1732 1.490 . S
C1728 H1718 0.930 . S
C1728 C1727 1.400 . S
C1728 C1731 1.386 . S
H1729 C1745 0.930 . S
H1730 C1746 0.931 . S
C1731 H1719 0.929 . S
C1731 C1725 1.390 . S
C1731 C1728 1.386 . S
C1732 C1727 1.490 . S
C1732 C1734 1.395 . S
C1732 C1735 1.403 . S
H1733 C1739 0.930 . S
C1734 H1720 0.930 . S
C1734 C1732 1.395 . S
C1734 C1737 1.403 . S
C1735 C1732 1.403 . S
C1735 C1736 1.524 . S
C1735 C1739 1.400 . S
C1736 H1721 0.960 . S
C1736 H1722 0.960 . S
C1736 H1723 0.960 . S
C1736 C1735 1.524 . S
C1737 C1734 1.403 . S
C1737 C1738 1.392 . S
C1737 C1741 1.495 . S
C1738 C1737 1.392 . S
C1738 C1739 1.385 . S
C1738 C1740 1.478 . S
C1739 H1733 0.930 . S
C1739 C1735 1.400 . S
C1739 C1738 1.385 . S
C1740 C1738 1.478 . S
C1740 C1742 1.381 . S
C1740 C1746 1.383 . S
C1741 C1737 1.495 . S
C1741 H1747 0.959 . S
C1741 H1748 0.961 . S
C1741 H1749 0.960 . S
C1742 C1740 1.381 . S
C1742 C1743 1.394 . S
C1742 H1750 0.930 . S
C1743 C1742 1.394 . S
C1743 C1744 1.383 . S
C1743 H1751 0.929 . S
C1744 C1743 1.383 . S
C1744 C1745 1.377 . S
C1745 H1729 0.930 . S
C1745 C1744 1.377 . S
C1745 C1746 1.379 . S
C1746 H1730 0.931 . S
C1746 C1740 1.383 . S
C1746 C1745 1.379 . S
H1747 C1741 0.959 . S
H1748 C1741 0.961 . S
H1749 C1741 0.960 . S
H1750 C1742 0.930 . S
H1751 C1743 0.929 . S
H1752 C1760 0.929 . S
H1753 C1762 0.930 . S
H1754 C1764 0.930 . S
H1755 C1767 0.929 . S
H1756 C1770 0.930 . S
H1757 C1772 0.960 . S
H1758 C1772 0.960 . S
H1759 C1772 0.960 . S
C1760 H1752 0.929 . S
C1760 C1761 1.377 . S
C1760 C1762 1.384 . S
C1761 C1760 1.377 . S
C1761 C1767 1.390 . S
C1762 H1753 0.930 . S
C1762 C1760 1.384 . S
C1762 C1763 1.372 . S
C1763 C1762 1.372 . S
C1763 C1764 1.400 . S
C1763 C1768 1.490 . S
C1764 H1754 0.930 . S
C1764 C1763 1.400 . S
C1764 C1767 1.386 . S
H1765 C1781 0.930 . S
H1766 C1782 0.931 . S
C1767 H1755 0.929 . S
C1767 C1761 1.390 . S
C1767 C1764 1.386 . S
C1768 C1763 1.490 . S
C1768 C1770 1.395 . S
C1768 C1771 1.403 . S
H1769 C1775 0.930 . S
C1770 H1756 0.930 . S
C1770 C1768 1.395 . S
C1770 C1773 1.403 . S
C1771 C1768 1.403 . S
C1771 C1772 1.524 . S
C1771 C1775 1.400 . S
C1772 H1757 0.960 . S
C1772 H1758 0.960 . S
C1772 H1759 0.960 . S
C1772 C1771 1.524 . S
C1773 C1770 1.403 . S
C1773 C1774 1.392 . S
C1773 C1777 1.495 . S
C1774 C1773 1.392 . S
C1774 C1775 1.385 . S
C1774 C1776 1.478 . S
C1775 H1769 0.930 . S
C1775 C1771 1.400 . S
C1775 C1774 1.385 . S
C1776 C1774 1.478 . S
C1776 C1778 1.381 . S
C1776 C1782 1.383 . S
C1777 C1773 1.495 . S
C1777 H1783 0.959 . S
C1777 H1784 0.961 . S
C1777 H1785 0.960 . S
C1778 C1776 1.381 . S
C1778 C1779 1.394 . S
C1778 H1786 0.930 . S
C1779 C1778 1.394 . S
C1779 C1780 1.383 . S
C1779 H1787 0.929 . S
C1780 C1779 1.383 . S
C1780 C1781 1.377 . S
C1781 H1765 0.930 . S
C1781 C1780 1.377 . S
C1781 C1782 1.379 . S
C1782 H1766 0.931 . S
C1782 C1776 1.383 . S
C1782 C1781 1.379 . S
H1783 C1777 0.959 . S
H1784 C1777 0.961 . S
H1785 C1777 0.960 . S
H1786 C1778 0.930 . S
H1787 C1779 0.929 . S
H1788 C1796 0.929 . S
H1789 C1798 0.930 . S
H1790 C1800 0.930 . S
H1791 C1803 0.929 . S
H1792 C1806 0.930 . S
H1793 C1808 0.960 . S
H1794 C1808 0.960 . S
H1795 C1808 0.960 . S
C1796 H1788 0.929 . S
C1796 C1797 1.377 . S
C1796 C1798 1.384 . S
C1797 C1796 1.377 . S
C1797 C1803 1.390 . S
C1798 H1789 0.930 . S
C1798 C1796 1.384 . S
C1798 C1799 1.372 . S
C1799 C1798 1.372 . S
C1799 C1800 1.400 . S
C1799 C1804 1.490 . S
C1800 H1790 0.930 . S
C1800 C1799 1.400 . S
C1800 C1803 1.386 . S
H1801 C1817 0.930 . S
H1802 C1818 0.931 . S
C1803 H1791 0.929 . S
C1803 C1797 1.390 . S
C1803 C1800 1.386 . S
C1804 C1799 1.490 . S
C1804 C1806 1.395 . S
C1804 C1807 1.403 . S
H1805 C1811 0.930 . S
C1806 H1792 0.930 . S
C1806 C1804 1.395 . S
C1806 C1809 1.403 . S
C1807 C1804 1.403 . S
C1807 C1808 1.524 . S
C1807 C1811 1.400 . S
C1808 H1793 0.960 . S
C1808 H1794 0.960 . S
C1808 H1795 0.960 . S
C1808 C1807 1.524 . S
C1809 C1806 1.403 . S
C1809 C1810 1.392 . S
C1809 C1813 1.495 . S
C1810 C1809 1.392 . S
C1810 C1811 1.385 . S
C1810 C1812 1.478 . S
C1811 H1805 0.930 . S
C1811 C1807 1.400 . S
C1811 C1810 1.385 . S
C1812 C1810 1.478 . S
C1812 C1814 1.381 . S
C1812 C1818 1.383 . S
C1813 C1809 1.495 . S
C1813 H1819 0.959 . S
C1813 H1820 0.961 . S
C1813 H1821 0.960 . S
C1814 C1812 1.381 . S
C1814 C1815 1.394 . S
C1814 H1822 0.930 . S
C1815 C1814 1.394 . S
C1815 C1816 1.383 . S
C1815 H1823 0.929 . S
C1816 C1815 1.383 . S
C1816 C1817 1.377 . S
C1817 H1801 0.930 . S
C1817 C1816 1.377 . S
C1817 C1818 1.379 . S
C1818 H1802 0.931 . S
C1818 C1812 1.383 . S
C1818 C1817 1.379 . S
H1819 C1813 0.959 . S
H1820 C1813 0.961 . S
H1821 C1813 0.960 . S
H1822 C1814 0.930 . S
H1823 C1815 0.929 . S
H1824 C1832 0.929 . S
H1825 C1834 0.930 . S
H1826 C1836 0.930 . S
H1827 C1839 0.929 . S
H1828 C1842 0.930 . S
H1829 C1844 0.960 . S
H1830 C1844 0.960 . S
H1831 C1844 0.960 . S
C1832 H1824 0.929 . S
C1832 C1833 1.377 . S
C1832 C1834 1.384 . S
C1833 C1832 1.377 . S
C1833 C1839 1.390 . S
C1834 H1825 0.930 . S
C1834 C1832 1.384 . S
C1834 C1835 1.372 . S
C1835 C1834 1.372 . S
C1835 C1836 1.400 . S
C1835 C1840 1.490 . S
C1836 H1826 0.930 . S
C1836 C1835 1.400 . S
C1836 C1839 1.386 . S
H1837 C1853 0.930 . S
H1838 C1854 0.931 . S
C1839 H1827 0.929 . S
C1839 C1833 1.390 . S
C1839 C1836 1.386 . S
C1840 C1835 1.490 . S
C1840 C1842 1.395 . S
C1840 C1843 1.403 . S
H1841 C1847 0.930 . S
C1842 H1828 0.930 . S
C1842 C1840 1.395 . S
C1842 C1845 1.403 . S
C1843 C1840 1.403 . S
C1843 C1844 1.524 . S
C1843 C1847 1.400 . S
C1844 H1829 0.960 . S
C1844 H1830 0.960 . S
C1844 H1831 0.960 . S
C1844 C1843 1.524 . S
C1845 C1842 1.403 . S
C1845 C1846 1.392 . S
C1845 C1849 1.495 . S
C1846 C1845 1.392 . S
C1846 C1847 1.385 . S
C1846 C1848 1.478 . S
C1847 H1841 0.930 . S
C1847 C1843 1.400 . S
C1847 C1846 1.385 . S
C1848 C1846 1.478 . S
C1848 C1850 1.381 . S
C1848 C1854 1.383 . S
C1849 C1845 1.495 . S
C1849 H1855 0.959 . S
C1849 H1856 0.961 . S
C1849 H1857 0.960 . S
C1850 C1848 1.381 . S
C1850 C1851 1.394 . S
C1850 H1858 0.930 . S
C1851 C1850 1.394 . S
C1851 C1852 1.383 . S
C1851 H1859 0.929 . S
C1852 C1851 1.383 . S
C1852 C1853 1.377 . S
C1853 H1837 0.930 . S
C1853 C1852 1.377 . S
C1853 C1854 1.379 . S
C1854 H1838 0.931 . S
C1854 C1848 1.383 . S
C1854 C1853 1.379 . S
H1855 C1849 0.959 . S
H1856 C1849 0.961 . S
H1857 C1849 0.960 . S
H1858 C1850 0.930 . S
H1859 C1851 0.929 . S
H1860 C1868 0.929 . S
H1861 C1870 0.930 . S
H1862 C1872 0.930 . S
H1863 C1875 0.929 . S
H1864 C1878 0.930 . S
H1865 C1880 0.960 . S
H1866 C1880 0.960 . S
H1867 C1880 0.960 . S
C1868 H1860 0.929 . S
C1868 C1869 1.377 . S
C1868 C1870 1.384 . S
C1869 C1868 1.377 . S
C1869 C1875 1.390 . S
C1870 H1861 0.930 . S
C1870 C1868 1.384 . S
C1870 C1871 1.372 . S
C1871 C1870 1.372 . S
C1871 C1872 1.400 . S
C1871 C1876 1.490 . S
C1872 H1862 0.930 . S
C1872 C1871 1.400 . S
C1872 C1875 1.386 . S
H1873 C1889 0.930 . S
H1874 C1890 0.931 . S
C1875 H1863 0.929 . S
C1875 C1869 1.390 . S
C1875 C1872 1.386 . S
C1876 C1871 1.490 . S
C1876 C1878 1.395 . S
C1876 C1879 1.403 . S
H1877 C1883 0.930 . S
C1878 H1864 0.930 . S
C1878 C1876 1.395 . S
C1878 C1881 1.403 . S
C1879 C1876 1.403 . S
C1879 C1880 1.524 . S
C1879 C1883 1.400 . S
C1880 H1865 0.960 . S
C1880 H1866 0.960 . S
C1880 H1867 0.960 . S
C1880 C1879 1.524 . S
C1881 C1878 1.403 . S
C1881 C1882 1.392 . S
C1881 C1885 1.495 . S
C1882 C1881 1.392 . S
C1882 C1883 1.385 . S
C1882 C1884 1.478 . S
C1883 H1877 0.930 . S
C1883 C1879 1.400 . S
C1883 C1882 1.385 . S
C1884 C1882 1.478 . S
C1884 C1886 1.381 . S
C1884 C1890 1.383 . S
C1885 C1881 1.495 . S
C1885 H1891 0.959 . S
C1885 H1892 0.961 . S
C1885 H1893 0.960 . S
C1886 C1884 1.381 . S
C1886 C1887 1.394 . S
C1886 H1894 0.930 . S
C1887 C1886 1.394 . S
C1887 C1888 1.383 . S
C1887 H1895 0.929 . S
C1888 C1887 1.383 . S
C1888 C1889 1.377 . S
C1889 H1873 0.930 . S
C1889 C1888 1.377 . S
C1889 C1890 1.379 . S
C1890 H1874 0.931 . S
C1890 C1884 1.383 . S
C1890 C1889 1.379 . S
H1891 C1885 0.959 . S
H1892 C1885 0.961 . S
H1893 C1885 0.960 . S
H1894 C1886 0.930 . S
H1895 C1887 0.929 . S
H1896 C1904 0.929 . S
H1897 C1906 0.930 . S
H1898 C1908 0.930 . S
H1899 C1911 0.929 . S
H1900 C1914 0.930 . S
H1901 C1916 0.960 . S
H1902 C1916 0.960 . S
H1903 C1916 0.960 . S
C1904 H1896 0.929 . S
C1904 C1905 1.377 . S
C1904 C1906 1.384 . S
C1905 C1904 1.377 . S
C1905 C1911 1.390 . S
C1906 H1897 0.930 . S
C1906 C1904 1.384 . S
C1906 C1907 1.372 . S
C1907 C1906 1.372 . S
C1907 C1908 1.400 . S
C1907 C1912 1.490 . S
C1908 H1898 0.930 . S
C1908 C1907 1.400 . S
C1908 C1911 1.386 . S
H1909 C1925 0.930 . S
H1910 C1926 0.931 . S
C1911 H1899 0.929 . S
C1911 C1905 1.390 . S
C1911 C1908 1.386 . S
C1912 C1907 1.490 . S
C1912 C1914 1.395 . S
C1912 C1915 1.403 . S
H1913 C1919 0.930 . S
C1914 H1900 0.930 . S
C1914 C1912 1.395 . S
C1914 C1917 1.403 . S
C1915 C1912 1.403 . S
C1915 C1916 1.524 . S
C1915 C1919 1.400 . S
C1916 H1901 0.960 . S
C1916 H1902 0.960 . S
C1916 H1903 0.960 . S
C1916 C1915 1.524 . S
C1917 C1914 1.403 . S
C1917 C1918 1.392 . S
C1917 C1921 1.495 . S
C1918 C1917 1.392 . S
C1918 C1919 1.385 . S
C1918 C1920 1.478 . S
C1919 H1913 0.930 . S
C1919 C1915 1.400 . S
C1919 C1918 1.385 . S
C1920 C1918 1.478 . S
C1920 C1922 1.381 . S
C1920 C1926 1.383 . S
C1921 C1917 1.495 . S
C1921 H1927 0.959 . S
C1921 H1928 0.961 . S
C1921 H1929 0.960 . S
C1922 C1920 1.381 . S
C1922 C1923 1.394 . S
C1922 H1930 0.930 . S
C1923 C1922 1.394 . S
C1923 C1924 1.383 . S
C1923 H1931 0.929 . S
C1924 C1923 1.383 . S
C1924 C1925 1.377 . S
C1925 H1909 0.930 . S
C1925 C1924 1.377 . S
C1925 C1926 1.379 . S
C1926 H1910 0.931 . S
C1926 C1920 1.383 . S
C1926 C1925 1.379 . S
H1927 C1921 0.959 . S
H1928 C1921 0.961 . S
H1929 C1921 0.960 . S
H1930 C1922 0.930 . S
H1931 C1923 0.929 . S
H1932 C1940 0.929 . S
H1933 C1942 0.930 . S
H1934 C1944 0.930 . S
H1935 C1947 0.929 . S
H1936 C1950 0.930 . S
H1937 C1952 0.960 . S
H1938 C1952 0.960 . S
H1939 C1952 0.960 . S
C1940 H1932 0.929 . S
C1940 C1941 1.377 . S
C1940 C1942 1.384 . S
C1941 C1940 1.377 . S
C1941 C1947 1.390 . S
C1942 H1933 0.930 . S
C1942 C1940 1.384 . S
C1942 C1943 1.372 . S
C1943 C1942 1.372 . S
C1943 C1944 1.400 . S
C1943 C1948 1.490 . S
C1944 H1934 0.930 . S
C1944 C1943 1.400 . S
C1944 C1947 1.386 . S
H1945 C1961 0.930 . S
H1946 C1962 0.931 . S
C1947 H1935 0.929 . S
C1947 C1941 1.390 . S
C1947 C1944 1.386 . S
C1948 C1943 1.490 . S
C1948 C1950 1.395 . S
C1948 C1951 1.403 . S
H1949 C1955 0.930 . S
C1950 H1936 0.930 . S
C1950 C1948 1.395 . S
C1950 C1953 1.403 . S
C1951 C1948 1.403 . S
C1951 C1952 1.524 . S
C1951 C1955 1.400 . S
C1952 H1937 0.960 . S
C1952 H1938 0.960 . S
C1952 H1939 0.960 . S
C1952 C1951 1.524 . S
C1953 C1950 1.403 . S
C1953 C1954 1.392 . S
C1953 C1957 1.495 . S
C1954 C1953 1.392 . S
C1954 C1955 1.385 . S
C1954 C1956 1.478 . S
C1955 H1949 0.930 . S
C1955 C1951 1.400 . S
C1955 C1954 1.385 . S
C1956 C1954 1.478 . S
C1956 C1958 1.381 . S
C1956 C1962 1.383 . S
C1957 C1953 1.495 . S
C1957 H1963 0.959 . S
C1957 H1964 0.961 . S
C1957 H1965 0.960 . S
C1958 C1956 1.381 . S
C1958 C1959 1.394 . S
C1958 H1966 0.930 . S
C1959 C1958 1.394 . S
C1959 C1960 1.383 . S
C1959 H1967 0.929 . S
C1960 C1959 1.383 . S
C1960 C1961 1.377 . S
C1961 H1945 0.930 . S
C1961 C1960 1.377 . S
C1961 C1962 1.379 . S
C1962 H1946 0.931 . S
C1962 C1956 1.383 . S
C1962 C1961 1.379 . S
H1963 C1957 0.959 . S
H1964 C1957 0.961 . S
H1965 C1957 0.960 . S
H1966 C1958 0.930 . S
H1967 C1959 0.929 . S
C537 N410 1.429 . S
C556 N5 1.424 . S
C573 N47 1.424 . S
C592 N434 1.443 . S
C609 N71 1.432 . S
C628 N476 1.451 . S
C645 N113 1.411 . S
C664 N500 1.421 . S
C681 N269 1.437 . S
C700 N146 1.412 . S
C717 N311 1.432 . S
C736 N170 1.406 . S
C753 N212 1.411 . S
C772 N335 1.418 . S
C789 N377 1.430 . S
C808 N236 1.434 . S
C825 C17 0.966 . S
C844 C479 0.961 . S
C861 C512 0.944 . S
C880 C50 0.937 . S
C897 C413 0.964 . S
C916 C83 0.965 . S
C933 C446 0.946 . S
C952 C116 0.950 . S
C969 C347 0.945 . S
C988 C149 0.940 . S
C1005 C380 0.966 . S
C1024 C182 0.966 . S
C1041 C281 0.943 . S
C1060 C215 0.947 . S
C1077 C314 0.964 . S
C1096 C248 0.960 . S
C1113 C8 1.016 . S
C1132 C358 1.035 . S
C1149 C371 1.090 . S
C1168 C61 1.046 . S
C1185 C292 1.050 . S
C1204 C74 1.026 . S
C1221 C305 1.089 . S
C1240 C127 1.086 . S
C1257 C160 1.059 . S
C1276 C470 1.085 . S
C1293 C173 1.014 . S
C1312 C523 1.044 . S
C1329 C404 1.078 . S
C1348 C226 1.069 . S
C1365 C239 1.019 . S
C1384 C457 1.030 . S
C1401 N401 1.920 . S
C1420 N14 1.921 . S
C1437 N38 1.931 . S
C1456 N443 1.924 . S
C1473 N80 1.907 . S
C1492 N467 1.933 . S
C1509 N509 1.925 . S
C1528 N104 1.928 . S
C1545 N278 1.930 . S
C1564 N137 1.914 . S
C1581 N179 1.898 . S
C1600 N302 1.907 . S
C1617 N344 1.925 . S
C1636 N203 1.930 . S
C1653 N368 1.918 . S
C1672 N245 1.923 . S
C1689 C193 1.265 . S
C1708 C28 1.226 . S
C1725 C206 1.211 . S
C1744 C41 1.241 . S
C1761 C94 1.263 . S
C1780 C259 1.229 . S
C1797 C140 1.219 . S
C1816 C107 1.172 . S
C1833 C272 0.991 . S
C1852 C437 0.952 . S
C1869 C490 1.041 . S
C1888 C325 1.049 . S
C1905 C503 1.003 . S
C1924 C338 1.013 . S
C1941 C391 1.027 . S
C1960 C424 1.014 . S
