# Generated by pormake.
# Topology uks, (4)-cn, num edge types: 1
# Building blocks:
#     Node 0, Type 0, BuildingBlock: MUDLON_clean_sbu_0, # of connection points: 4
#     Node 1, Type 0, BuildingBlock: MUDLON_clean_sbu_0, # of connection points: 4
#     Node 2, Type 0, BuildingBlock: MUDLON_clean_sbu_0, # of connection points: 4
#     Node 3, Type 0, BuildingBlock: MUDLON_clean_sbu_0, # of connection points: 4
#     Node 4, Type 0, BuildingBlock: MUDLON_clean_sbu_0, # of connection points: 4
#     Node 5, Type 0, BuildingBlock: MUDLON_clean_sbu_0, # of connection points: 4
#     Node 6, Type 0, BuildingBlock: MUDLON_clean_sbu_0, # of connection points: 4
#     Node 7, Type 0, BuildingBlock: MUDLON_clean_sbu_0, # of connection points: 4
#     Node 8, Type 0, BuildingBlock: MUDLON_clean_sbu_0, # of connection points: 4
#     Node 9, Type 0, BuildingBlock: MUDLON_clean_sbu_0, # of connection points: 4
#     Node 10, Type 0, BuildingBlock: MUDLON_clean_sbu_0, # of connection points: 4
#     Node 11, Type 0, BuildingBlock: MUDLON_clean_sbu_0, # of connection points: 4
#     Node 12, Type 0, BuildingBlock: MUDLON_clean_sbu_0, # of connection points: 4
#     Node 13, Type 0, BuildingBlock: MUDLON_clean_sbu_0, # of connection points: 4
#     Node 14, Type 0, BuildingBlock: MUDLON_clean_sbu_0, # of connection points: 4
#     Node 15, Type 0, BuildingBlock: MUDLON_clean_sbu_0, # of connection points: 4
#     Node 16, Type 0, BuildingBlock: MUDLON_clean_sbu_0, # of connection points: 4
#     Node 17, Type 0, BuildingBlock: MUDLON_clean_sbu_0, # of connection points: 4
#     Node 18, Type 0, BuildingBlock: MUDLON_clean_sbu_0, # of connection points: 4
#     Node 19, Type 0, BuildingBlock: MUDLON_clean_sbu_0, # of connection points: 4
#     Node 20, Type 0, BuildingBlock: MUDLON_clean_sbu_0, # of connection points: 4
#     Node 21, Type 0, BuildingBlock: MUDLON_clean_sbu_0, # of connection points: 4
#     Node 22, Type 0, BuildingBlock: MUDLON_clean_sbu_0, # of connection points: 4
#     Node 23, Type 0, BuildingBlock: MUDLON_clean_sbu_0, # of connection points: 4
#     Edge 24, Type (0, 0), BuildingBlock: KIFKEQ_clean_linker_1, # of connection points: 2
#     Edge 25, Type (0, 0), BuildingBlock: KIFKEQ_clean_linker_1, # of connection points: 2
#     Edge 26, Type (0, 0), BuildingBlock: KIFKEQ_clean_linker_1, # of connection points: 2
#     Edge 27, Type (0, 0), BuildingBlock: KIFKEQ_clean_linker_1, # of connection points: 2
#     Edge 28, Type (0, 0), BuildingBlock: KIFKEQ_clean_linker_1, # of connection points: 2
#     Edge 29, Type (0, 0), BuildingBlock: KIFKEQ_clean_linker_1, # of connection points: 2
#     Edge 30, Type (0, 0), BuildingBlock: KIFKEQ_clean_linker_1, # of connection points: 2
#     Edge 31, Type (0, 0), BuildingBlock: KIFKEQ_clean_linker_1, # of connection points: 2
#     Edge 32, Type (0, 0), BuildingBlock: KIFKEQ_clean_linker_1, # of connection points: 2
#     Edge 33, Type (0, 0), BuildingBlock: KIFKEQ_clean_linker_1, # of connection points: 2
#     Edge 34, Type (0, 0), BuildingBlock: KIFKEQ_clean_linker_1, # of connection points: 2
#     Edge 35, Type (0, 0), BuildingBlock: KIFKEQ_clean_linker_1, # of connection points: 2
#     Edge 36, Type (0, 0), BuildingBlock: KIFKEQ_clean_linker_1, # of connection points: 2
#     Edge 37, Type (0, 0), BuildingBlock: KIFKEQ_clean_linker_1, # of connection points: 2
#     Edge 38, Type (0, 0), BuildingBlock: KIFKEQ_clean_linker_1, # of connection points: 2
#     Edge 39, Type (0, 0), BuildingBlock: KIFKEQ_clean_linker_1, # of connection points: 2
#     Edge 40, Type (0, 0), BuildingBlock: KIFKEQ_clean_linker_1, # of connection points: 2
#     Edge 41, Type (0, 0), BuildingBlock: KIFKEQ_clean_linker_1, # of connection points: 2
#     Edge 42, Type (0, 0), BuildingBlock: KIFKEQ_clean_linker_1, # of connection points: 2
#     Edge 43, Type (0, 0), BuildingBlock: KIFKEQ_clean_linker_1, # of connection points: 2
#     Edge 44, Type (0, 0), BuildingBlock: KIFKEQ_clean_linker_1, # of connection points: 2
#     Edge 45, Type (0, 0), BuildingBlock: KIFKEQ_clean_linker_1, # of connection points: 2
#     Edge 46, Type (0, 0), BuildingBlock: KIFKEQ_clean_linker_1, # of connection points: 2
#     Edge 47, Type (0, 0), BuildingBlock: KIFKEQ_clean_linker_1, # of connection points: 2
#     Edge 48, Type (0, 0), BuildingBlock: KIFKEQ_clean_linker_1, # of connection points: 2
#     Edge 49, Type (0, 0), BuildingBlock: KIFKEQ_clean_linker_1, # of connection points: 2
#     Edge 50, Type (0, 0), BuildingBlock: KIFKEQ_clean_linker_1, # of connection points: 2
#     Edge 51, Type (0, 0), BuildingBlock: KIFKEQ_clean_linker_1, # of connection points: 2
#     Edge 52, Type (0, 0), BuildingBlock: KIFKEQ_clean_linker_1, # of connection points: 2
#     Edge 53, Type (0, 0), BuildingBlock: KIFKEQ_clean_linker_1, # of connection points: 2
#     Edge 54, Type (0, 0), BuildingBlock: KIFKEQ_clean_linker_1, # of connection points: 2
#     Edge 55, Type (0, 0), BuildingBlock: KIFKEQ_clean_linker_1, # of connection points: 2
#     Edge 56, Type (0, 0), BuildingBlock: KIFKEQ_clean_linker_1, # of connection points: 2
#     Edge 57, Type (0, 0), BuildingBlock: KIFKEQ_clean_linker_1, # of connection points: 2
#     Edge 58, Type (0, 0), BuildingBlock: KIFKEQ_clean_linker_1, # of connection points: 2
#     Edge 59, Type (0, 0), BuildingBlock: KIFKEQ_clean_linker_1, # of connection points: 2
#     Edge 60, Type (0, 0), BuildingBlock: KIFKEQ_clean_linker_1, # of connection points: 2
#     Edge 61, Type (0, 0), BuildingBlock: KIFKEQ_clean_linker_1, # of connection points: 2
#     Edge 62, Type (0, 0), BuildingBlock: KIFKEQ_clean_linker_1, # of connection points: 2
#     Edge 63, Type (0, 0), BuildingBlock: KIFKEQ_clean_linker_1, # of connection points: 2
#     Edge 64, Type (0, 0), BuildingBlock: KIFKEQ_clean_linker_1, # of connection points: 2
#     Edge 65, Type (0, 0), BuildingBlock: KIFKEQ_clean_linker_1, # of connection points: 2
#     Edge 66, Type (0, 0), BuildingBlock: KIFKEQ_clean_linker_1, # of connection points: 2
#     Edge 67, Type (0, 0), BuildingBlock: KIFKEQ_clean_linker_1, # of connection points: 2
#     Edge 68, Type (0, 0), BuildingBlock: KIFKEQ_clean_linker_1, # of connection points: 2
#     Edge 69, Type (0, 0), BuildingBlock: KIFKEQ_clean_linker_1, # of connection points: 2
#     Edge 70, Type (0, 0), BuildingBlock: KIFKEQ_clean_linker_1, # of connection points: 2
#     Edge 71, Type (0, 0), BuildingBlock: KIFKEQ_clean_linker_1, # of connection points: 2
# Relax obj value: 0.065
# Max RMSD: 0.060
# Mean RMSD: 0.060
data_MOF--net-uks--node1-MUDLON_clean_sbu_0--edge1-KIFKEQ_clean_linker_1
_symmetry_space_group_name_H-M    P1
_symmetry_Int_Tables_number       1
_symmetry_cell_setting            triclinic
loop_
_symmetry_equiv_pos_as_xyz
'x, y, z'
_cell_length_a     55.674503
_cell_length_b     55.937122
_cell_length_c     55.652072
_cell_angle_alpha  90.086545
_cell_angle_beta   90.135786
_cell_angle_gamma 90.216457
loop_
_atom_site_label
_atom_site_type_symbol
_atom_site_fract_x
_atom_site_fract_y
_atom_site_fract_z
_atom_type_partial_charge
Mg0 Mg 0.16472 0.40673 0.71071 0.0
C1 C 0.21615 0.4176 0.6944 0.0
O2 O 0.20792 0.43955 0.69391 0.0
C3 C 0.11395 0.39875 0.69695 0.0
O4 O 0.1127 0.41166 0.71665 0.0
C5 C 0.15706 0.457 0.69601 0.0
O6 O 0.15364 0.445 0.67596 0.0
O7 O 0.16109 0.44534 0.71523 0.0
O8 O 0.20153 0.40044 0.69815 0.0
O9 O 0.16369 0.38526 0.74345 0.0
C10 C 0.17241 0.36456 0.73974 0.0
O11 O 0.17995 0.35937 0.71799 0.0
O12 O 0.13466 0.39365 0.68871 0.0
Mg13 Mg 0.62889 0.61106 0.27275 0.0
C14 C 0.65816 0.65686 0.26916 0.0
O15 O 0.67591 0.64263 0.27512 0.0
C16 C 0.63503 0.57523 0.22982 0.0
O17 O 0.61887 0.58838 0.21887 0.0
C18 C 0.57505 0.59624 0.26548 0.0
O19 O 0.58347 0.57482 0.26083 0.0
O20 O 0.58947 0.61262 0.2724 0.0
O21 O 0.6381 0.6477 0.26297 0.0
O22 O 0.64806 0.61036 0.30714 0.0
C23 C 0.6663 0.59685 0.30926 0.0
O24 O 0.66901 0.57933 0.29378 0.0
O25 O 0.6423 0.58135 0.25066 0.0
Mg26 Mg 0.38656 0.17252 0.71471 0.0
C27 C 0.36963 0.20368 0.75566 0.0
O28 O 0.34883 0.19689 0.74674 0.0
C29 C 0.39436 0.11958 0.7064 0.0
O30 O 0.40663 0.12831 0.68827 0.0
C31 C 0.43807 0.17711 0.70374 0.0
O32 O 0.43741 0.16634 0.72471 0.0
O33 O 0.41825 0.18211 0.69351 0.0
O34 O 0.38875 0.19461 0.74713 0.0
O35 O 0.35166 0.1815 0.69935 0.0
C36 C 0.33731 0.16503 0.6926 0.0
O37 O 0.3457 0.14332 0.68966 0.0
O38 O 0.38513 0.13399 0.72148 0.0
Mg39 Mg 0.87351 0.86633 0.17334 0.0
C40 C 0.85059 0.86608 0.22251 0.0
O41 O 0.85867 0.84405 0.22253 0.0
C42 C 0.92816 0.8778 0.1832 0.0
O43 O 0.92067 0.89398 0.19855 0.0
C44 C 0.86968 0.91085 0.14514 0.0
O45 O 0.89078 0.91267 0.15561 0.0
O46 O 0.85813 0.89126 0.14719 0.0
O47 O 0.85715 0.8802 0.20587 0.0
O48 O 0.86174 0.82895 0.1736 0.0
C49 C 0.87722 0.81233 0.17171 0.0
O50 O 0.89884 0.8178 0.16404 0.0
O51 O 0.91286 0.86548 0.17147 0.0
Mg52 Mg 0.16242 0.16409 0.82452 0.0
C53 C 0.15888 0.21685 0.83669 0.0
O54 O 0.13645 0.21062 0.84042 0.0
C55 C 0.16879 0.11439 0.84084 0.0
O56 O 0.15497 0.11259 0.82173 0.0
C57 C 0.11271 0.16246 0.84428 0.0
O58 O 0.12572 0.15827 0.86354 0.0
O59 O 0.12329 0.16441 0.82414 0.0
O60 O 0.17431 0.20055 0.83275 0.0
O61 O 0.1784 0.15751 0.78948 0.0
C62 C 0.18163 0.17471 0.77487 0.0
O63 O 0.17234 0.19567 0.77992 0.0
O64 O 0.17524 0.13519 0.84771 0.0
Mg65 Mg 0.88415 0.64482 0.33042 0.0
C66 C 0.88252 0.68558 0.29732 0.0
O67 O 0.88294 0.69504 0.31895 0.0
C68 C 0.8811 0.59496 0.34755 0.0
O69 O 0.87134 0.60758 0.36487 0.0
C70 C 0.93324 0.65098 0.35499 0.0
O71 O 0.9341 0.62789 0.35071 0.0
O72 O 0.91401 0.66228 0.34997 0.0
O73 O 0.88338 0.66289 0.29547 0.0
O74 O 0.84765 0.64748 0.3456 0.0
C75 C 0.83045 0.65666 0.33364 0.0
O76 O 0.83529 0.66778 0.31348 0.0
O77 O 0.88955 0.60598 0.32937 0.0
Mg78 Mg 0.40816 0.41735 0.80788 0.0
C79 C 0.38129 0.40461 0.7615 0.0
O80 O 0.39062 0.38347 0.76562 0.0
C81 C 0.45829 0.4296 0.82339 0.0
O82 O 0.44552 0.43883 0.8409 0.0
C83 C 0.39529 0.4659 0.82388 0.0
O84 O 0.40471 0.46902 0.80248 0.0
O85 O 0.39428 0.44474 0.8323 0.0
O86 O 0.38747 0.42213 0.77483 0.0
O87 O 0.40273 0.38013 0.81805 0.0
C88 C 0.38253 0.36962 0.81985 0.0
O89 O 0.36274 0.38229 0.81873 0.0
O90 O 0.4473 0.42056 0.80543 0.0
Mg91 Mg 0.64975 0.87635 0.33568 0.0
C92 C 0.66905 0.82424 0.33843 0.0
O93 O 0.69048 0.83408 0.33823 0.0
C94 C 0.66019 0.92358 0.35233 0.0
O95 O 0.64963 0.92482 0.33121 0.0
C96 C 0.59921 0.89168 0.34643 0.0
O97 O 0.61086 0.89905 0.36562 0.0
O98 O 0.61119 0.88264 0.32915 0.0
O99 O 0.65059 0.83746 0.34064 0.0
O100 O 0.67679 0.88204 0.30746 0.0
C101 C 0.69767 0.88426 0.31679 0.0
O102 O 0.69952 0.88374 0.34031 0.0
O103 O 0.66181 0.90308 0.36219 0.0
Mg104 Mg 0.74169 0.12949 0.39774 0.0
C105 C 0.74252 0.15477 0.34886 0.0
O106 O 0.74665 0.17365 0.36234 0.0
C107 C 0.70326 0.13359 0.43635 0.0
O108 O 0.70379 0.11017 0.43474 0.0
C109 C 0.74675 0.07699 0.38658 0.0
O110 O 0.75636 0.08642 0.36722 0.0
O111 O 0.74089 0.09083 0.40373 0.0
O112 O 0.73739 0.13499 0.35898 0.0
O113 O 0.77385 0.14979 0.40695 0.0
C114 C 0.78967 0.15421 0.39111 0.0
O115 O 0.79049 0.14056 0.3719 0.0
O116 O 0.71539 0.14599 0.4215 0.0
Mg117 Mg 0.88882 0.21464 0.87593 0.0
C118 C 0.89241 0.1955 0.82436 0.0
O119 O 0.91184 0.18501 0.83253 0.0
C120 C 0.88262 0.19538 0.92568 0.0
O121 O 0.90315 0.20695 0.92732 0.0
C122 C 0.94175 0.22002 0.86307 0.0
O123 O 0.93298 0.23517 0.84734 0.0
O124 O 0.92758 0.21009 0.87795 0.0
O125 O 0.87827 0.2055 0.83923 0.0
O126 O 0.87668 0.25164 0.87732 0.0
C127 C 0.86029 0.25788 0.89189 0.0
O128 O 0.85361 0.24282 0.9087 0.0
O129 O 0.87199 0.19466 0.90537 0.0
Mg130 Mg 0.87314 0.36346 0.3648 0.0
C131 C 0.83367 0.32637 0.36252 0.0
O132 O 0.83474 0.33196 0.33965 0.0
C133 C 0.88597 0.41496 0.36712 0.0
O134 O 0.90691 0.40426 0.3659 0.0
C135 C 0.90319 0.33257 0.39708 0.0
O136 O 0.89016 0.31608 0.38631 0.0
O137 O 0.90222 0.35396 0.38931 0.0
O138 O 0.84503 0.3393 0.3776 0.0
O139 O 0.87634 0.35534 0.32638 0.0
C140 C 0.8769 0.372 0.31081 0.0
O141 O 0.88052 0.39406 0.31807 0.0
O142 O 0.86708 0.40203 0.36811 0.0
Mg143 Mg 0.66837 0.34609 0.87187 0.0
C144 C 0.67996 0.29693 0.8502 0.0
O145 O 0.69928 0.29883 0.86369 0.0
C146 C 0.68604 0.33889 0.92232 0.0
O147 O 0.70555 0.33428 0.90996 0.0
C148 C 0.62212 0.37355 0.87259 0.0
O149 O 0.62216 0.36395 0.89412 0.0
O150 O 0.6402 0.37019 0.85904 0.0
O151 O 0.66378 0.31287 0.85176 0.0
O152 O 0.70527 0.35779 0.86596 0.0
C153 C 0.71773 0.35057 0.84829 0.0
O154 O 0.70667 0.34091 0.82977 0.0
O155 O 0.66652 0.34271 0.911 0.0
Mg156 Mg 0.71618 0.37156 0.15103 0.0
C157 C 0.76516 0.35805 0.17132 0.0
O158 O 0.75896 0.33711 0.16252 0.0
C159 C 0.70021 0.37923 0.0993 0.0
O160 O 0.6814 0.3882 0.11024 0.0
C161 C 0.69779 0.42164 0.15647 0.0
O162 O 0.71349 0.42392 0.13902 0.0
O163 O 0.69399 0.40087 0.16512 0.0
O164 O 0.75131 0.37581 0.168 0.0
O165 O 0.70523 0.33475 0.15898 0.0
C166 C 0.69218 0.32316 0.14414 0.0
O167 O 0.68184 0.33485 0.1265 0.0
O168 O 0.71804 0.37234 0.11184 0.0
Mg169 Mg 0.65327 0.23454 0.63898 0.0
C170 C 0.68955 0.26831 0.61697 0.0
O171 O 0.68834 0.25193 0.60008 0.0
C172 C 0.60544 0.21518 0.64533 0.0
O173 O 0.62059 0.19726 0.64674 0.0
C174 C 0.64854 0.20668 0.59263 0.0
O175 O 0.6273 0.21677 0.5935 0.0
O176 O 0.66316 0.20994 0.61 0.0
O177 O 0.67456 0.26734 0.63422 0.0
O178 O 0.66268 0.22325 0.67529 0.0
C179 C 0.68192 0.23058 0.6853 0.0
O180 O 0.69815 0.24147 0.67211 0.0
O181 O 0.61393 0.23593 0.64103 0.0
Mg182 Mg 0.78676 0.12376 0.12682 0.0
C183 C 0.74854 0.15889 0.11056 0.0
O184 O 0.76345 0.16122 0.09248 0.0
C185 C 0.80736 0.07591 0.11623 0.0
O186 O 0.82484 0.09079 0.11086 0.0
C187 C 0.80503 0.13008 0.07695 0.0
O188 O 0.78847 0.11341 0.07469 0.0
O189 O 0.80922 0.13856 0.09785 0.0
O190 O 0.75208 0.14222 0.1257 0.0
O191 O 0.797 0.13139 0.16406 0.0
C192 C 0.79015 0.151 0.17344 0.0
O193 O 0.78176 0.1678 0.15929 0.0
O194 O 0.78747 0.0845 0.12351 0.0
Mg195 Mg 0.91037 0.30833 0.62401 0.0
C196 C 0.85908 0.31858 0.64159 0.0
O197 O 0.86789 0.3102 0.66177 0.0
C198 C 0.96026 0.32188 0.63601 0.0
O199 O 0.96141 0.29931 0.62953 0.0
C200 C 0.92944 0.31421 0.57385 0.0
O201 O 0.93902 0.3328 0.58472 0.0
O202 O 0.91706 0.29948 0.5862 0.0
O203 O 0.87324 0.32191 0.62392 0.0
O204 O 0.91023 0.27824 0.64929 0.0
C205 C 0.91363 0.28455 0.67105 0.0
O206 O 0.9185 0.30713 0.67552 0.0
O207 O 0.93979 0.33205 0.63575 0.0
Mg208 Mg 0.37561 0.68022 0.19068 0.0
C209 C 0.32606 0.69185 0.20982 0.0
O210 O 0.33904 0.70372 0.22559 0.0
C211 C 0.41862 0.64895 0.19164 0.0
O212 O 0.42146 0.66164 0.17199 0.0
C213 C 0.36049 0.69299 0.14012 0.0
O214 O 0.34386 0.70401 0.15259 0.0
O215 O 0.37792 0.68332 0.15136 0.0
O216 O 0.33663 0.67753 0.19554 0.0
O217 O 0.38696 0.71047 0.2133 0.0
C218 C 0.4076 0.71085 0.22324 0.0
O219 O 0.42388 0.69553 0.21609 0.0
O220 O 0.39884 0.65089 0.20297 0.0
Mg221 Mg 0.39974 0.82058 0.42191 0.0
C222 C 0.42542 0.78637 0.38759 0.0
O223 O 0.44417 0.79976 0.39274 0.0
C224 C 0.41988 0.83445 0.47093 0.0
O225 O 0.43175 0.84933 0.45707 0.0
C226 C 0.42781 0.85058 0.38441 0.0
O227 O 0.41462 0.83863 0.36885 0.0
O228 O 0.42341 0.8483 0.40676 0.0
O229 O 0.40626 0.789 0.39973 0.0
O230 O 0.36065 0.82384 0.41886 0.0
C231 C 0.34941 0.81822 0.39969 0.0
O232 O 0.36166 0.81429 0.37994 0.0
O233 O 0.40631 0.81883 0.46106 0.0
Mg234 Mg 0.27195 0.92575 0.92989 0.0
C235 C 0.31249 0.93994 0.89654 0.0
O236 O 0.29791 0.95805 0.89327 0.0
C237 C 0.24976 0.92691 0.97931 0.0
O238 O 0.23318 0.93739 0.96625 0.0
C239 C 0.23193 0.95982 0.91126 0.0
O240 O 0.21855 0.94042 0.911 0.0
O241 O 0.25365 0.95841 0.91826 0.0
O242 O 0.30776 0.92505 0.91321 0.0
O243 O 0.25711 0.89236 0.91629 0.0
C244 C 0.2661 0.88303 0.89748 0.0
O245 O 0.27937 0.8964 0.88335 0.0
O246 O 0.26945 0.92108 0.96922 0.0
Mg247 Mg 0.12634 0.76457 0.42258 0.0
C248 C 0.10775 0.80461 0.38793 0.0
O249 O 0.08625 0.79542 0.39114 0.0
C250 C 0.10596 0.7556 0.47239 0.0
O251 O 0.09064 0.74323 0.45934 0.0
C252 C 0.09058 0.73703 0.38893 0.0
O253 O 0.09975 0.75058 0.37198 0.0
O254 O 0.09952 0.73805 0.41002 0.0
O255 O 0.12523 0.79684 0.40039 0.0
O256 O 0.16467 0.75656 0.41943 0.0
C257 C 0.17611 0.76124 0.40018 0.0
O258 O 0.16395 0.7661 0.38054 0.0
O259 O 0.12174 0.76825 0.4617 0.0
Mg260 Mg 0.3028 0.65814 0.91663 0.0
C261 C 0.27327 0.66569 0.87553 0.0
O262 O 0.29587 0.66905 0.8696 0.0
C263 C 0.32557 0.65898 0.9642 0.0
O264 O 0.34318 0.66147 0.9487 0.0
C265 C 0.31771 0.60887 0.90387 0.0
O266 O 0.2975 0.60557 0.91557 0.0
O267 O 0.32542 0.63017 0.90117 0.0
O268 O 0.26872 0.65819 0.89669 0.0
O269 O 0.31292 0.69508 0.90944 0.0
C270 C 0.30145 0.70936 0.92301 0.0
O271 O 0.28831 0.70037 0.94039 0.0
O272 O 0.30438 0.65572 0.95602 0.0
Mg273 Mg 0.15622 0.8372 0.17305 0.0
C274 C 0.14205 0.86013 0.22108 0.0
O275 O 0.12359 0.86743 0.2084 0.0
C276 C 0.19504 0.86168 0.14052 0.0
O277 O 0.21037 0.8527 0.15602 0.0
C278 C 0.10681 0.85375 0.15928 0.0
O279 O 0.12001 0.87242 0.15359 0.0
O280 O 0.11734 0.83499 0.16677 0.0
O281 O 0.15941 0.84992 0.21032 0.0
O282 O 0.17381 0.80229 0.17563 0.0
C283 C 0.18793 0.79337 0.16008 0.0
O284 O 0.19071 0.8043 0.13939 0.0
O285 O 0.17259 0.85874 0.14407 0.0
Mg286 Mg 0.17426 0.68723 0.6803 0.0
C287 C 0.22388 0.71103 0.68734 0.0
O288 O 0.22385 0.69972 0.70801 0.0
C289 C 0.18636 0.63565 0.68931 0.0
O290 O 0.19744 0.64582 0.70755 0.0
C291 C 0.14274 0.692 0.63657 0.0
O292 O 0.14962 0.66964 0.63468 0.0
O293 O 0.14846 0.70365 0.65545 0.0
O294 O 0.20691 0.70725 0.67247 0.0
O295 O 0.16838 0.68886 0.71916 0.0
C296 C 0.1743 0.7065 0.73237 0.0
O297 O 0.17991 0.7269 0.72208 0.0
O298 O 0.17635 0.64886 0.67363 0.0
Mg299 Mg 0.36596 0.89179 0.68836 0.0
C300 C 0.32954 0.85684 0.66769 0.0
O301 O 0.34414 0.85817 0.64924 0.0
C302 C 0.35285 0.94309 0.70102 0.0
O303 O 0.34364 0.93225 0.71982 0.0
C304 C 0.39134 0.89032 0.64054 0.0
O305 O 0.38227 0.91197 0.64041 0.0
O306 O 0.38927 0.8778 0.65956 0.0
O307 O 0.33306 0.87061 0.6856 0.0
O308 O 0.37596 0.88704 0.72628 0.0
C309 C 0.38711 0.9031 0.7382 0.0
O310 O 0.39746 0.92069 0.72645 0.0
O311 O 0.3616 0.93048 0.68412 0.0
H312 H 0.12837 0.25501 0.83721 0.0
H313 H 0.20197 0.23595 0.8222 0.0
H314 H 0.13455 0.29356 0.81811 0.0
H315 H 0.2084 0.27496 0.80378 0.0
H316 H 0.15284 0.3652 0.78531 0.0
H317 H 0.15305 0.33262 0.81478 0.0
H318 H 0.19482 0.28952 0.76587 0.0
H319 H 0.19506 0.32183 0.73709 0.0
C320 C 0.14611 0.25929 0.83048 0.0
C321 C 0.16454 0.24214 0.8308 0.0
C322 C 0.14969 0.28155 0.8196 0.0
C323 C 0.17183 0.28723 0.80892 0.0
C324 C 0.19091 0.27093 0.81128 0.0
C325 C 0.1873 0.24861 0.82203 0.0
C326 C 0.16233 0.34886 0.78109 0.0
C327 C 0.17374 0.34606 0.75876 0.0
C328 C 0.16239 0.33016 0.79791 0.0
C329 C 0.174 0.30839 0.79277 0.0
C330 C 0.18607 0.30609 0.77075 0.0
C331 C 0.18595 0.32462 0.75404 0.0
H332 H 0.7069 0.57168 0.31971 0.0
H333 H 0.67431 0.64091 0.32976 0.0
H334 H 0.74539 0.58782 0.33293 0.0
H335 H 0.7129 0.65706 0.34314 0.0
H336 H 0.79046 0.67947 0.31749 0.0
H337 H 0.7491 0.66545 0.31939 0.0
H338 H 0.77121 0.6063 0.36393 0.0
H339 H 0.81287 0.62035 0.3619 0.0
C340 C 0.70777 0.59018 0.32544 0.0
C341 C 0.68754 0.60502 0.32337 0.0
C342 C 0.72988 0.59945 0.33312 0.0
C343 C 0.73236 0.62385 0.33879 0.0
C344 C 0.71169 0.63826 0.33858 0.0
C345 C 0.68949 0.62893 0.3311 0.0
C346 C 0.78645 0.66379 0.32818 0.0
C347 C 0.80502 0.65093 0.33936 0.0
C348 C 0.76266 0.6558 0.3294 0.0
C349 C 0.75679 0.63461 0.34166 0.0
C350 C 0.77515 0.62255 0.35413 0.0
C351 C 0.799 0.63071 0.35312 0.0
H352 H 0.34413 0.33997 0.82841 0.0
H353 H 0.41835 0.33944 0.8061 0.0
H354 H 0.34098 0.29741 0.81929 0.0
H355 H 0.41494 0.29759 0.7956 0.0
H356 H 0.40801 0.21987 0.78227 0.0
H357 H 0.41115 0.25753 0.80425 0.0
H358 H 0.33742 0.27355 0.78573 0.0
H359 H 0.33402 0.23551 0.76527 0.0
C360 C 0.35983 0.33072 0.82175 0.0
C361 C 0.38142 0.34317 0.81785 0.0
C362 C 0.358 0.30632 0.81626 0.0
C363 C 0.37757 0.29387 0.80626 0.0
C364 C 0.3995 0.3062 0.80353 0.0
C365 C 0.40144 0.33042 0.80945 0.0
C366 C 0.39237 0.23127 0.78338 0.0
C367 C 0.37084 0.22475 0.77186 0.0
C368 C 0.39419 0.25303 0.7958 0.0
C369 C 0.37467 0.26902 0.79657 0.0
C370 C 0.35282 0.26181 0.78597 0.0
C371 C 0.35089 0.23991 0.77399 0.0
H372 H 0.74332 0.88579 0.3338 0.0
H373 H 0.70297 0.88448 0.26732 0.0
H374 H 0.7806 0.88382 0.3115 0.0
H375 H 0.74092 0.88273 0.24482 0.0
H376 H 0.81767 0.90171 0.21557 0.0
H377 H 0.78029 0.90808 0.23771 0.0
H378 H 0.79891 0.85065 0.28589 0.0
H379 H 0.83607 0.84402 0.26368 0.0
C380 C 0.74233 0.88526 0.31436 0.0
C381 C 0.72004 0.88508 0.30235 0.0
C382 C 0.7638 0.88406 0.30162 0.0
C383 C 0.76367 0.88292 0.27648 0.0
C384 C 0.7415 0.88367 0.26425 0.0
C385 C 0.71982 0.8846 0.2771 0.0
C386 C 0.81399 0.8907 0.23114 0.0
C387 C 0.82992 0.87241 0.23797 0.0
C388 C 0.79245 0.89419 0.24359 0.0
C389 C 0.78665 0.87978 0.26339 0.0
C390 C 0.80297 0.86209 0.27073 0.0
C391 C 0.82428 0.85833 0.25806 0.0
H392 H 0.79916 0.11729 0.20818 0.0
H393 H 0.7725 0.18908 0.19855 0.0
H394 H 0.78795 0.11886 0.25054 0.0
H395 H 0.76087 0.19045 0.24063 0.0
H396 H 0.76119 0.19204 0.323 0.0
H397 H 0.77496 0.19173 0.28148 0.0
H398 H 0.7515 0.11837 0.27417 0.0
H399 H 0.73817 0.11851 0.31587 0.0
C400 C 0.79119 0.13351 0.21513 0.0
C401 C 0.78672 0.15303 0.19987 0.0
C402 C 0.78449 0.13432 0.23938 0.0
C403 C 0.77319 0.15467 0.24902 0.0
C404 C 0.76965 0.17453 0.23396 0.0
C405 C 0.77632 0.17372 0.20974 0.0
C406 C 0.75869 0.1759 0.31248 0.0
C407 C 0.74843 0.15533 0.32281 0.0
C408 C 0.76663 0.17573 0.28861 0.0
C409 C 0.76453 0.15497 0.27442 0.0
C410 C 0.75384 0.13454 0.28465 0.0
C411 C 0.74592 0.13471 0.30852 0.0
H412 H 0.90462 0.29699 0.71718 0.0
H413 H 0.91167 0.23513 0.67117 0.0
H414 H 0.89596 0.27123 0.75111 0.0
H415 H 0.90329 0.20901 0.70582 0.0
H416 H 0.92249 0.18223 0.78767 0.0
H417 H 0.92527 0.20064 0.74792 0.0
H418 H 0.8618 0.24201 0.76285 0.0
H419 H 0.85881 0.22367 0.80241 0.0
C420 C 0.90441 0.27783 0.71428 0.0
C421 C 0.90892 0.26812 0.69143 0.0
C422 C 0.89921 0.26308 0.73375 0.0
C423 C 0.89868 0.23814 0.73106 0.0
C424 C 0.90349 0.22821 0.70833 0.0
C425 C 0.90828 0.24312 0.68856 0.0
C426 C 0.9087 0.19472 0.78223 0.0
C427 C 0.89065 0.20174 0.79845 0.0
C428 C 0.9103 0.20522 0.75942 0.0
C429 C 0.89398 0.22302 0.75249 0.0
C430 C 0.87481 0.22855 0.76788 0.0
C431 C 0.87307 0.21794 0.79054 0.0
H432 H 0.85581 0.33132 0.29274 0.0
H433 H 0.87624 0.40326 0.27314 0.0
H434 H 0.83243 0.32782 0.2559 0.0
H435 H 0.85348 0.39949 0.23589 0.0
H436 H 0.79796 0.32352 0.18297 0.0
H437 H 0.82991 0.32583 0.21297 0.0
H438 H 0.81153 0.39953 0.22696 0.0
H439 H 0.78014 0.3974 0.19661 0.0
C440 C 0.85588 0.34617 0.28027 0.0
C441 C 0.86759 0.36772 0.28613 0.0
C442 C 0.84249 0.34413 0.25903 0.0
C443 C 0.84066 0.36354 0.24305 0.0
C444 C 0.85396 0.3844 0.24805 0.0
C445 C 0.86721 0.38649 0.26934 0.0
C446 C 0.80098 0.34033 0.19219 0.0
C447 C 0.78634 0.36023 0.18747 0.0
C448 C 0.81923 0.3416 0.20952 0.0
C449 C 0.82328 0.3628 0.22257 0.0
C450 C 0.80924 0.38297 0.2171 0.0
C451 C 0.79106 0.38172 0.19975 0.0
H452 H 0.71924 0.24745 0.71253 0.0
H453 H 0.64787 0.21744 0.71839 0.0
H454 H 0.71858 0.25763 0.75502 0.0
H455 H 0.64739 0.22734 0.76111 0.0
H456 H 0.64269 0.28777 0.8194 0.0
H457 H 0.64407 0.26557 0.78181 0.0
H458 H 0.71729 0.24508 0.79691 0.0
H459 H 0.71605 0.26766 0.83446 0.0
C460 C 0.70364 0.24246 0.723 0.0
C461 C 0.68349 0.23192 0.71192 0.0
C462 C 0.7033 0.24821 0.74747 0.0
C463 C 0.6828 0.24358 0.76146 0.0
C464 C 0.6633 0.23152 0.75075 0.0
C465 C 0.66366 0.22569 0.72627 0.0
C466 C 0.65895 0.27815 0.81497 0.0
C467 C 0.67933 0.27973 0.82986 0.0
C468 C 0.6597 0.26527 0.79343 0.0
C469 C 0.68088 0.25369 0.78619 0.0
C470 C 0.70081 0.25407 0.80179 0.0
C471 C 0.70002 0.26688 0.82341 0.0
H472 H 0.29801 0.72108 0.23715 0.0
H473 H 0.29807 0.6818 0.17026 0.0
H474 H 0.26148 0.74145 0.22495 0.0
H475 H 0.26117 0.70203 0.15815 0.0
H476 H 0.22257 0.77193 0.13266 0.0
H477 H 0.25234 0.74279 0.14552 0.0
H478 H 0.21906 0.73942 0.21546 0.0
H479 H 0.18949 0.7689 0.20274 0.0
C480 C 0.2899 0.71632 0.22008 0.0
C481 C 0.30117 0.69994 0.20463 0.0
C482 C 0.26883 0.72798 0.21309 0.0
C483 C 0.25846 0.72362 0.19041 0.0
C484 C 0.26888 0.70611 0.17557 0.0
C485 C 0.28993 0.69433 0.18263 0.0
C486 C 0.22133 0.76472 0.15066 0.0
C487 C 0.20374 0.77301 0.16671 0.0
C488 C 0.23837 0.74786 0.15802 0.0
C489 C 0.23827 0.73885 0.18162 0.0
C490 C 0.21992 0.74624 0.19728 0.0
C491 C 0.20286 0.76307 0.18991 0.0
H492 H 0.32401 0.80184 0.43822 0.0
H493 H 0.31662 0.81888 0.36304 0.0
H494 H 0.2834 0.78593 0.43868 0.0
H495 H 0.27522 0.80473 0.36368 0.0
H496 H 0.2086 0.75916 0.36349 0.0
H497 H 0.25027 0.77253 0.36385 0.0
H498 H 0.24329 0.79175 0.43888 0.0
H499 H 0.2024 0.77662 0.43871 0.0
C500 C 0.31342 0.80277 0.4219 0.0
C501 C 0.32353 0.81171 0.40061 0.0
C502 C 0.28994 0.79366 0.42212 0.0
C503 C 0.27561 0.79376 0.40118 0.0
C504 C 0.28562 0.80356 0.38008 0.0
C505 C 0.30934 0.81208 0.37973 0.0
C506 C 0.21622 0.76581 0.38015 0.0
C507 C 0.20225 0.76661 0.4011 0.0
C508 C 0.2401 0.77389 0.38033 0.0
C509 C 0.25049 0.78369 0.40132 0.0
C510 C 0.23644 0.78403 0.42239 0.0
C511 C 0.2128 0.77535 0.42233 0.0
H512 H 0.29711 0.85679 0.87011 0.0
H513 H 0.23969 0.84961 0.92173 0.0
H514 H 0.3065 0.81456 0.87463 0.0
H515 H 0.24851 0.80718 0.9256 0.0
H516 H 0.29032 0.74479 0.95406 0.0
H517 H 0.2802 0.78594 0.94479 0.0
H518 H 0.29558 0.77303 0.86979 0.0
H519 H 0.30646 0.73171 0.87937 0.0
C520 C 0.286 0.84606 0.8819 0.0
C521 C 0.26783 0.85666 0.89583 0.0
C522 C 0.29143 0.82179 0.8845 0.0
C523 C 0.27868 0.80756 0.90094 0.0
C524 C 0.25923 0.81778 0.91335 0.0
C525 C 0.25396 0.84206 0.91093 0.0
C526 C 0.29186 0.75082 0.93563 0.0
C527 C 0.2992 0.73507 0.91746 0.0
C528 C 0.28573 0.77435 0.93023 0.0
C529 C 0.28648 0.7827 0.90643 0.0
C530 C 0.29479 0.7672 0.88831 0.0
C531 C 0.30116 0.74358 0.89379 0.0
H532 H 0.22837 0.73837 0.64686 0.0
H533 H 0.25749 0.72945 0.71833 0.0
H534 H 0.25272 0.77425 0.64159 0.0
H535 H 0.28215 0.76516 0.71286 0.0
H536 H 0.30126 0.8442 0.70594 0.0
H537 H 0.27627 0.80849 0.70991 0.0
H538 H 0.29404 0.78791 0.63728 0.0
H539 H 0.31869 0.82373 0.63314 0.0
C540 C 0.24021 0.74385 0.66134 0.0
C541 C 0.24092 0.73102 0.68305 0.0
C542 C 0.25421 0.76444 0.65829 0.0
C543 C 0.26921 0.77274 0.67689 0.0
C544 C 0.27044 0.75951 0.69834 0.0
C545 C 0.2565 0.73887 0.70137 0.0
C546 C 0.29959 0.83223 0.6907 0.0
C547 C 0.31203 0.83684 0.66923 0.0
C548 C 0.28547 0.81162 0.69307 0.0
C549 C 0.28338 0.79518 0.67401 0.0
C550 C 0.29516 0.80023 0.65227 0.0
C551 C 0.30932 0.82079 0.64992 0.0
H552 H 0.90682 0.77336 0.17231 0.0
H553 H 0.83914 0.79897 0.19994 0.0
H554 H 0.90529 0.73976 0.20019 0.0
H555 H 0.83765 0.7653 0.2277 0.0
H556 H 0.88884 0.67504 0.24925 0.0
H557 H 0.88399 0.70235 0.215 0.0
H558 H 0.86343 0.75878 0.26371 0.0
H559 H 0.8683 0.73192 0.29752 0.0
C560 C 0.89129 0.77151 0.18386 0.0
C561 C 0.87329 0.78912 0.18412 0.0
C562 C 0.8904 0.75216 0.19981 0.0
C563 C 0.87157 0.75009 0.21644 0.0
C564 C 0.85262 0.76664 0.21536 0.0
C565 C 0.85341 0.78587 0.19932 0.0
C566 C 0.88316 0.69325 0.25254 0.0
C567 C 0.8791 0.70132 0.27613 0.0
C568 C 0.88041 0.70887 0.23296 0.0
C569 C 0.87311 0.73268 0.23662 0.0
C570 C 0.86865 0.74047 0.26018 0.0
C571 C 0.87171 0.72508 0.27964 0.0
H572 H 0.23975 0.37734 0.70944 0.0
H573 H 0.25214 0.44929 0.68417 0.0
H574 H 0.28191 0.37418 0.72062 0.0
H575 H 0.29451 0.44589 0.69465 0.0
H576 H 0.35379 0.44423 0.75324 0.0
H577 H 0.31587 0.44624 0.73169 0.0
H578 H 0.32351 0.37236 0.71032 0.0
H579 H 0.36126 0.37017 0.73255 0.0
C580 C 0.25161 0.39225 0.7056 0.0
C581 C 0.24247 0.41369 0.69619 0.0
C582 C 0.27588 0.39042 0.71198 0.0
C583 C 0.29166 0.40993 0.70892 0.0
C584 C 0.28282 0.43071 0.69782 0.0
C585 C 0.25853 0.4326 0.69162 0.0
C586 C 0.34764 0.42851 0.74361 0.0
C587 C 0.36052 0.40698 0.74486 0.0
C588 C 0.32586 0.42969 0.73109 0.0
C589 C 0.31641 0.40939 0.71935 0.0
C590 C 0.32999 0.38822 0.71949 0.0
C591 C 0.35176 0.38703 0.7321 0.0
H592 H 0.70105 0.78749 0.343 0.0
H593 H 0.631 0.80446 0.31463 0.0
H594 H 0.6981 0.74752 0.32575 0.0
H595 H 0.62863 0.76543 0.29582 0.0
H596 H 0.62093 0.68631 0.28061 0.0
H597 H 0.62301 0.72557 0.29888 0.0
H598 H 0.70038 0.72516 0.29149 0.0
H599 H 0.69818 0.68491 0.27483 0.0
C600 C 0.68497 0.78261 0.33312 0.0
C601 C 0.66618 0.79906 0.33043 0.0
C602 C 0.68338 0.75976 0.32283 0.0
C603 C 0.66321 0.75296 0.30897 0.0
C604 C 0.6443 0.7695 0.30664 0.0
C605 C 0.64564 0.79206 0.31745 0.0
C606 C 0.63838 0.69474 0.28255 0.0
C607 C 0.6594 0.68247 0.27613 0.0
C608 C 0.63962 0.71745 0.29308 0.0
C609 C 0.6619 0.72889 0.29698 0.0
C610 C 0.68288 0.71691 0.28952 0.0
C611 C 0.68165 0.69391 0.27954 0.0
H612 H 0.30136 0.13277 0.68339 0.0
H613 H 0.31365 0.20511 0.70796 0.0
H614 H 0.25977 0.13515 0.69671 0.0
H615 H 0.27241 0.20722 0.72188 0.0
H616 H 0.1956 0.20892 0.74257 0.0
H617 H 0.22982 0.20744 0.71533 0.0
H618 H 0.2429 0.13427 0.73628 0.0
H619 H 0.20846 0.13556 0.76295 0.0
C620 C 0.29508 0.14936 0.69116 0.0
C621 C 0.311 0.16859 0.69499 0.0
C622 C 0.27126 0.15065 0.69899 0.0
C623 C 0.26281 0.17118 0.71086 0.0
C624 C 0.27817 0.19114 0.71276 0.0
C625 C 0.30196 0.18989 0.70483 0.0
C626 C 0.20546 0.19234 0.74096 0.0
C627 C 0.19945 0.17245 0.7552 0.0
C628 C 0.22519 0.19155 0.72543 0.0
C629 C 0.23937 0.17085 0.72379 0.0
C630 C 0.23233 0.15047 0.73685 0.0
C631 C 0.2126 0.15124 0.75232 0.0
H632 H 0.36112 0.87342 0.76776 0.0
H633 H 0.40341 0.93832 0.76843 0.0
H634 H 0.34808 0.88155 0.80875 0.0
H635 H 0.39069 0.94621 0.80954 0.0
H636 H 0.33437 0.89685 0.88719 0.0
H637 H 0.35749 0.88611 0.85144 0.0
H638 H 0.35299 0.95906 0.82654 0.0
H639 H 0.33028 0.96976 0.86219 0.0
C640 C 0.36814 0.88912 0.77682 0.0
C641 C 0.38315 0.90532 0.7646 0.0
C642 C 0.3607 0.89375 0.80044 0.0
C643 C 0.36806 0.91473 0.81244 0.0
C644 C 0.38429 0.93012 0.80074 0.0
C645 C 0.39175 0.92548 0.77716 0.0
C646 C 0.33887 0.91072 0.87439 0.0
C647 C 0.33039 0.93419 0.87757 0.0
C648 C 0.35192 0.9045 0.85374 0.0
C649 C 0.35702 0.92165 0.83594 0.0
C650 C 0.34969 0.94538 0.8399 0.0
C651 C 0.33653 0.95153 0.86037 0.0
H652 H 0.15087 0.82411 0.37427 0.0
H653 H 0.07651 0.81855 0.35252 0.0
H654 H 0.1607 0.84267 0.33592 0.0
H655 H 0.08643 0.83661 0.31402 0.0
H656 H 0.10698 0.87927 0.24951 0.0
H657 H 0.09941 0.87108 0.29182 0.0
H658 H 0.16416 0.8289 0.29513 0.0
H659 H 0.172 0.83752 0.25299 0.0
C660 C 0.13651 0.82718 0.36148 0.0
C661 C 0.11288 0.81966 0.3665 0.0
C662 C 0.14222 0.83766 0.33937 0.0
C663 C 0.12446 0.84093 0.32166 0.0
C664 C 0.10059 0.83462 0.32723 0.0
C665 C 0.09488 0.82415 0.34935 0.0
C666 C 0.11988 0.86864 0.25937 0.0
C667 C 0.14001 0.85889 0.24772 0.0
C668 C 0.11542 0.86378 0.28363 0.0
C669 C 0.13095 0.84902 0.29691 0.0
C670 C 0.15186 0.84048 0.28562 0.0
C671 C 0.15635 0.84538 0.26135 0.0
H672 H 0.22587 0.65043 0.87213 0.0
H673 H 0.27803 0.69756 0.83957 0.0
H674 H 0.19648 0.6617 0.84093 0.0
H675 H 0.24921 0.70864 0.80902 0.0
H676 H 0.19176 0.73886 0.76501 0.0
H677 H 0.21121 0.73023 0.80328 0.0
H678 H 0.19266 0.65561 0.79567 0.0
H679 H 0.17285 0.66423 0.75748 0.0
C680 C 0.23096 0.66332 0.85854 0.0
C681 C 0.25433 0.67293 0.85821 0.0
C682 C 0.21421 0.66971 0.84067 0.0
C683 C 0.22043 0.68622 0.82257 0.0
C684 C 0.2436 0.69621 0.82284 0.0
C685 C 0.26027 0.68961 0.84029 0.0
C686 C 0.19125 0.7207 0.77172 0.0
C687 C 0.18104 0.70222 0.75791 0.0
C688 C 0.20252 0.71573 0.79364 0.0
C689 C 0.20388 0.69215 0.80233 0.0
C690 C 0.1919 0.67397 0.78955 0.0
C691 C 0.18061 0.67894 0.76757 0.0
H692 H 0.4604 0.78327 0.35321 0.0
H693 H 0.38802 0.76013 0.36903 0.0
H694 H 0.45672 0.7668 0.31282 0.0
H695 H 0.38454 0.74321 0.32879 0.0
H696 H 0.37563 0.73906 0.24781 0.0
H697 H 0.38086 0.7567 0.28762 0.0
H698 H 0.45363 0.73029 0.29014 0.0
H699 H 0.44862 0.71316 0.25023 0.0
C700 C 0.44385 0.77426 0.34827 0.0
C701 C 0.42452 0.77304 0.36446 0.0
C702 C 0.44173 0.76483 0.32503 0.0
C703 C 0.42022 0.75391 0.31737 0.0
C704 C 0.40119 0.75195 0.33386 0.0
C705 C 0.4033 0.76139 0.35709 0.0
C706 C 0.39287 0.73735 0.25668 0.0
C707 C 0.41167 0.72462 0.24577 0.0
C708 C 0.39579 0.74722 0.27966 0.0
C709 C 0.41757 0.74465 0.29231 0.0
C710 C 0.43665 0.73276 0.28096 0.0
C711 C 0.43374 0.72289 0.25801 0.0
H712 H 0.74872 0.32682 0.8186 0.0
H713 H 0.74555 0.36339 0.88697 0.0
H714 H 0.78767 0.31044 0.82945 0.0
H715 H 0.78471 0.34719 0.89767 0.0
H716 H 0.8255 0.27732 0.92021 0.0
H717 H 0.79524 0.30629 0.90849 0.0
H718 H 0.83022 0.31541 0.8399 0.0
H719 H 0.86049 0.28609 0.85156 0.0
C720 C 0.75664 0.33201 0.83563 0.0
C721 C 0.74376 0.34611 0.85206 0.0
C722 C 0.77908 0.32264 0.84185 0.0
C723 C 0.78916 0.32718 0.86462 0.0
C724 C 0.77724 0.34298 0.88018 0.0
C725 C 0.75483 0.3524 0.87395 0.0
C726 C 0.8271 0.28588 0.90284 0.0
C727 C 0.84526 0.27914 0.88673 0.0
C728 C 0.80978 0.30265 0.89614 0.0
C729 C 0.81014 0.31304 0.87314 0.0
C730 C 0.82925 0.3075 0.85763 0.0
C731 C 0.8467 0.29081 0.86439 0.0
H732 H 0.82439 0.30881 0.67479 0.0
H733 H 0.83354 0.32982 0.60072 0.0
H734 H 0.7818 0.30269 0.66786 0.0
H735 H 0.7905 0.32448 0.59391 0.0
H736 H 0.72543 0.27297 0.58398 0.0
H737 H 0.76469 0.29099 0.58977 0.0
H738 H 0.7427 0.31704 0.65944 0.0
H739 H 0.70345 0.29815 0.65393 0.0
C740 C 0.81723 0.31271 0.65712 0.0
C741 C 0.83255 0.3195 0.63824 0.0
C742 C 0.79262 0.30934 0.65316 0.0
C743 C 0.78255 0.3128 0.63022 0.0
C744 C 0.79764 0.32115 0.6117 0.0
C745 C 0.82234 0.32441 0.61565 0.0
C746 C 0.72874 0.28291 0.60038 0.0
C747 C 0.7113 0.2838 0.61861 0.0
C748 C 0.75134 0.29344 0.60365 0.0
C749 C 0.75716 0.3053 0.62523 0.0
C750 C 0.7391 0.30765 0.64279 0.0
C751 C 0.71646 0.297 0.63953 0.0
H752 H 0.71763 0.29283 0.1734 0.0
H753 H 0.66928 0.29328 0.11256 0.0
H754 H 0.72535 0.25043 0.16666 0.0
H755 H 0.67687 0.2509 0.106 0.0
H756 H 0.72918 0.17082 0.15433 0.0
H757 H 0.70999 0.20863 0.16508 0.0
H758 H 0.71286 0.23073 0.09082 0.0
H759 H 0.73192 0.19314 0.08013 0.0
C760 C 0.70816 0.28378 0.15898 0.0
C761 C 0.69306 0.2966 0.14335 0.0
C762 C 0.71253 0.25941 0.15515 0.0
C763 C 0.70196 0.24732 0.13559 0.0
C764 C 0.68561 0.25976 0.12099 0.0
C765 C 0.68117 0.28407 0.12485 0.0
C766 C 0.7251 0.18348 0.1402 0.0
C767 C 0.73219 0.179 0.11636 0.0
C768 C 0.71431 0.20524 0.14642 0.0
C769 C 0.71004 0.22281 0.12886 0.0
C770 C 0.71566 0.21757 0.10479 0.0
C771 C 0.72668 0.196 0.09865 0.0
H772 H 0.80994 0.29397 0.33445 0.0
H773 H 0.83806 0.30388 0.40624 0.0
H774 H 0.80156 0.25222 0.3434 0.0
H775 H 0.82982 0.26183 0.4151 0.0
H776 H 0.78743 0.18956 0.42535 0.0
H777 H 0.79739 0.23177 0.42011 0.0
H778 H 0.82597 0.21632 0.34975 0.0
H779 H 0.8158 0.17428 0.35477 0.0
C780 C 0.81407 0.28734 0.35226 0.0
C781 C 0.82478 0.30232 0.36957 0.0
C782 C 0.80952 0.26329 0.3573 0.0
C783 C 0.8155 0.25354 0.37979 0.0
C784 C 0.82505 0.26877 0.39757 0.0
C785 C 0.82968 0.2929 0.39251 0.0
C786 C 0.7963 0.19506 0.40896 0.0
C787 C 0.80061 0.17848 0.3904 0.0
C788 C 0.80197 0.2193 0.40596 0.0
C789 C 0.81199 0.22751 0.38431 0.0
C790 C 0.81771 0.21068 0.36642 0.0
C791 C 0.81215 0.18648 0.36944 0.0
H792 H 0.20822 0.6024 0.71776 0.0
H793 H 0.1564 0.60935 0.66033 0.0
H794 H 0.20049 0.55956 0.71936 0.0
H795 H 0.14801 0.56663 0.66248 0.0
H796 H 0.15613 0.48571 0.65647 0.0
H797 H 0.16381 0.52839 0.65428 0.0
H798 H 0.17103 0.53119 0.73158 0.0
H799 H 0.1642 0.4881 0.73365 0.0
C800 C 0.19519 0.59477 0.70543 0.0
C801 C 0.18298 0.60932 0.68888 0.0
C802 C 0.19056 0.5702 0.70652 0.0
C803 C 0.17344 0.55953 0.69121 0.0
C804 C 0.16151 0.57408 0.67438 0.0
C805 C 0.16629 0.59864 0.67316 0.0
C806 C 0.1592 0.49541 0.67306 0.0
C807 C 0.15959 0.48342 0.69525 0.0
C808 C 0.16351 0.52 0.6718 0.0
C809 C 0.16816 0.53337 0.69272 0.0
C810 C 0.16799 0.52145 0.71502 0.0
C811 C 0.16383 0.49676 0.71626 0.0
H812 H 0.46504 0.65196 0.17674 0.0
H813 H 0.42094 0.62047 0.23222 0.0
H814 H 0.50098 0.63818 0.19729 0.0
H815 H 0.45747 0.606 0.25252 0.0
H816 H 0.53734 0.56586 0.25535 0.0
H817 H 0.49777 0.57651 0.23898 0.0
H818 H 0.51689 0.65117 0.24277 0.0
H819 H 0.556 0.6408 0.25957 0.0
C820 C 0.46291 0.64174 0.19312 0.0
C821 C 0.43997 0.63742 0.20283 0.0
C822 C 0.4836 0.63396 0.20494 0.0
C823 C 0.48199 0.62123 0.22656 0.0
C824 C 0.45914 0.61582 0.23585 0.0
C825 C 0.43829 0.62407 0.22422 0.0
C826 C 0.53292 0.58457 0.25313 0.0
C827 C 0.54993 0.60246 0.25872 0.0
C828 C 0.51027 0.59062 0.24382 0.0
C829 C 0.5044 0.61464 0.23949 0.0
C830 C 0.52103 0.63251 0.24585 0.0
C831 C 0.54341 0.62653 0.25556 0.0
H832 H 0.34781 0.97344 0.73917 0.0
H833 H 0.36705 0.97222 0.66406 0.0
H834 H 0.35815 1.01566 0.74129 0.0
H835 H 0.37647 1.01478 0.66584 0.0
H836 H 0.41654 0.08357 0.68197 0.0
H837 H 0.40569 0.04141 0.6808 0.0
H838 H 0.34763 0.05484 0.73042 0.0
H839 H 0.3592 0.09688 0.73227 0.0
C840 C 0.35382 0.9823 0.72295 0.0
C841 C 0.35661 0.9694 0.70143 0.0
C842 C 0.35971 1.00662 0.72415 0.0
C843 C 0.36835 1.0188 0.70379 0.0
C844 C 0.37042 1.00599 0.68207 0.0
C845 C 0.36477 0.98159 0.68094 0.0
C846 C 0.40159 0.07748 0.6928 0.0
C847 C 0.3888 0.09361 0.70727 0.0
C848 C 0.39517 0.05328 0.69194 0.0
C849 C 0.37556 0.04457 0.7053 0.0
C850 C 0.363 0.06071 0.72008 0.0
C851 C 0.36961 0.08489 0.72114 0.0
H852 H 0.08016 0.89388 0.15158 0.0
H853 H 0.07321 0.81927 0.1704 0.0
H854 H 0.03715 0.89918 0.15712 0.0
H855 H 0.02993 0.82467 0.17589 0.0
H856 H 0.94958 0.84086 0.15914 0.0
H857 H 0.99241 0.83435 0.15245 0.0
H858 H 1.00874 0.89895 0.19184 0.0
H859 H 0.96592 0.90551 0.19859 0.0
C860 C 0.06945 0.87852 0.1567 0.0
C861 C 0.08023 0.85612 0.16057 0.0
C862 C 0.04478 0.88164 0.16006 0.0
C863 C 0.03013 0.86242 0.16716 0.0
C864 C 0.04072 0.83982 0.17033 0.0
C865 C 0.06552 0.83673 0.16721 0.0
C866 C 0.96229 0.8537 0.16639 0.0
C867 C 0.95426 0.87377 0.17936 0.0
C868 C 0.98685 0.84986 0.16266 0.0
C869 C 1.00399 0.86615 0.17155 0.0
C870 C 0.99598 0.8862 0.18453 0.0
C871 C 0.97143 0.88989 0.18851 0.0
H872 H 0.1858 0.96985 0.89748 0.0
H873 H 0.25569 1.00255 0.9062 0.0
H874 H 0.1699 1.00761 0.88269 0.0
H875 H 0.23994 0.04018 0.89083 0.0
H876 H 0.19901 0.11038 0.87996 0.0
H877 H 0.21352 0.07358 0.89876 0.0
H878 H 0.17265 0.03185 0.84753 0.0
H879 H 0.15785 0.06829 0.82928 0.0
C880 C 0.1978 0.98508 0.89623 0.0
C881 C 0.22206 0.98307 0.90294 0.0
C882 C 0.18871 1.00675 0.88762 0.0
C883 C 0.20364 0.02701 0.88539 0.0
C884 C 0.22781 0.0251 0.89254 0.0
C885 C 0.2369 1.00343 0.90122 0.0
C886 C 0.19303 0.09333 0.87285 0.0
C887 C 0.17725 0.09235 0.8531 0.0
C888 C 0.20145 0.07221 0.88353 0.0
C889 C 0.19425 0.04965 0.87472 0.0
C890 C 0.1783 0.0488 0.85511 0.0
C891 C 0.16991 0.06981 0.8445 0.0
H892 H 0.97416 0.63197 0.3743 0.0
H893 H 0.94291 0.69913 0.35264 0.0
H894 H 1.01208 0.6523 0.38316 0.0
H895 H 0.98097 0.71943 0.36139 0.0
H896 H 0.06083 0.73968 0.34981 0.0
H897 H 1.02249 0.71936 0.34336 0.0
H898 H 0.03055 0.68289 0.41115 0.0
H899 H 0.06895 0.70339 0.41778 0.0
C900 C 0.97528 0.65112 0.37165 0.0
C901 C 0.95543 0.66388 0.36273 0.0
C902 C 0.99704 0.66278 0.3768 0.0
C903 C 0.99966 0.68747 0.37283 0.0
C904 C 0.97966 0.70034 0.36439 0.0
C905 C 0.95777 0.68873 0.35957 0.0
C906 C 0.05457 0.72721 0.36331 0.0
C907 C 0.0681 0.72316 0.3843 0.0
C908 C 0.03244 0.71572 0.35969 0.0
C909 C 1.02332 0.69961 0.3768 0.0
C910 C 0.03707 0.69512 0.39757 0.0
C911 C 0.05909 0.70689 0.40136 0.0
H912 H 0.36066 0.6083 0.87953 0.0
H913 H 0.30397 0.562 0.90504 0.0
H914 H 0.38099 0.57377 0.86208 0.0
H915 H 0.32383 0.52774 0.88714 0.0
H916 H 0.37465 0.46696 0.86881 0.0
H917 H 0.35771 0.50154 0.88963 0.0
H918 H 0.37636 0.54645 0.82933 0.0
H919 H 0.39374 0.51226 0.80898 0.0
C920 C 0.35252 0.59079 0.88141 0.0
C921 C 0.33064 0.58799 0.89364 0.0
C922 C 0.36411 0.57097 0.8713 0.0
C923 C 0.35407 0.54787 0.87311 0.0
C924 C 0.33234 0.54511 0.88565 0.0
C925 C 0.32082 0.56487 0.89579 0.0
C926 C 0.37525 0.48426 0.8601 0.0
C927 C 0.38552 0.48677 0.8372 0.0
C928 C 0.36542 0.50409 0.87197 0.0
C929 C 0.3656 0.52688 0.86119 0.0
C930 C 0.37619 0.52934 0.83842 0.0
C931 C 0.38603 0.5096 0.82662 0.0
H932 H 0.46263 0.87132 0.41246 0.0
H933 H 0.44531 0.85509 0.33851 0.0
H934 H 0.50253 0.88414 0.40046 0.0
H935 H 0.48516 0.8687 0.32631 0.0
H936 H 0.56867 0.86231 0.32087 0.0
H937 H 0.52587 0.85581 0.32816 0.0
H938 H 0.5266 0.91262 0.38089 0.0
H939 H 0.5694 0.91837 0.37421 0.0
C940 C 0.46711 0.871 0.39353 0.0
C941 C 0.45067 0.86207 0.37651 0.0
C942 C 0.49009 0.87848 0.38658 0.0
C943 C 0.49732 0.87744 0.36234 0.0
C944 C 0.48048 0.86944 0.34517 0.0
C945 C 0.45748 0.86184 0.35216 0.0
C946 C 0.55956 0.87369 0.33366 0.0
C947 C 0.57252 0.89069 0.34712 0.0
C948 C 0.53494 0.87001 0.33786 0.0
C949 C 0.52267 0.8834 0.35546 0.0
C950 C 0.53544 0.90147 0.3677 0.0
C951 C 0.56001 0.90494 0.36371 0.0
H952 H 0.69421 0.19889 0.57635 0.0
H953 H 0.61965 0.18641 0.55856 0.0
H954 H 0.70609 0.18156 0.53774 0.0
H955 H 0.63161 0.16873 0.52018 0.0
H956 H 0.66989 0.1148 0.46706 0.0
H957 H 0.65608 0.13171 0.50519 0.0
H958 H 0.69947 0.19457 0.49299 0.0
H959 H 0.71299 0.17797 0.45471 0.0
C960 C 0.6804 0.19214 0.56437 0.0
C961 C 0.656 0.19401 0.57049 0.0
C962 C 0.68718 0.18243 0.5422 0.0
C963 C 0.66974 0.17396 0.52593 0.0
C964 C 0.64541 0.17508 0.5324 0.0
C965 C 0.6386 0.18522 0.55434 0.0
C966 C 0.6762 0.13238 0.47234 0.0
C967 C 0.6925 0.14504 0.45782 0.0
C968 C 0.66831 0.14203 0.49417 0.0
C969 C 0.67693 0.16431 0.50214 0.0
C970 C 0.69278 0.17722 0.48739 0.0
C971 C 0.70031 0.1678 0.46537 0.0
H972 H 0.83624 0.16821 0.07306 0.0
H973 H 0.80197 0.11249 0.03136 0.0
H974 H 0.85494 0.18374 0.03652 0.0
H975 H 0.821 0.12752 0.99515 0.0
H976 H 0.83768 0.17557 0.9309 0.0
H977 H 0.8194 0.16008 0.96757 0.0
H978 H 0.8848 0.1754 1.00672 0.0
H979 H 0.90276 0.19141 0.97028 0.0
C980 C 0.83286 0.15915 0.05617 0.0
C981 C 0.81752 0.13916 0.05519 0.0
C982 C 0.84365 0.16799 0.03519 0.0
C983 C 0.83942 0.15698 1.01274 0.0
C984 C 0.82435 0.13678 1.01194 0.0
C985 C 0.81354 0.12804 0.03282 0.0
C986 C 0.84818 0.17553 0.9473 0.0
C987 C 0.87169 0.18475 0.94759 0.0
C988 C 0.83774 0.16656 0.96837 0.0
C989 C 0.85057 0.16649 0.99024 0.0
C990 C 0.87418 0.17551 0.99039 0.0
C991 C 0.88457 0.18454 0.96938 0.0
H992 H 0.90147 0.28703 0.54354 0.0
H993 H 0.95977 0.33816 0.54391 0.0
H994 H 0.89949 0.28949 0.49982 0.0
H995 H 0.95837 0.34006 0.50024 0.0
H996 H 0.92279 0.36436 0.42918 0.0
H997 H 0.93255 0.35717 0.47114 0.0
H998 H 0.91729 0.28194 0.46158 0.0
H999 H 0.90682 0.2893 0.4197 0.0
C1000 C 0.91424 0.29836 0.53425 0.0
C1001 C 0.93059 0.31259 0.54725 0.0
C1002 C 0.91319 0.29973 0.50912 0.0
C1003 C 0.9286 0.31521 0.49638 0.0
C1004 C 0.94584 0.32837 0.50939 0.0
C1005 C 0.94675 0.32715 0.53447 0.0
C1006 C 0.92197 0.3462 0.43586 0.0
C1007 C 0.91381 0.32747 0.42105 0.0
C1008 C 0.92765 0.34202 0.46001 0.0
C1009 C 0.92547 0.31897 0.46996 0.0
C1010 C 0.9187 0.3 0.45473 0.0
C1011 C 0.91291 0.3042 0.4306 0.0
H1012 H 0.72668 0.34086 0.94964 0.0
H1013 H 0.64948 0.34635 0.95458 0.0
H1014 H 0.73041 0.35113 0.99183 0.0
H1015 H 0.65311 0.35564 0.99732 0.0
H1016 H 0.66855 0.39694 0.06626 0.0
H1017 H 0.66502 0.38645 1.02389 0.0
H1018 H 0.72492 0.33802 0.03129 0.0
H1019 H 0.72902 0.34933 0.07333 0.0
C1020 C 0.71042 0.34385 0.95984 0.0
C1021 C 0.68776 0.3428 0.94867 0.0
C1022 C 0.71257 0.34967 0.98418 0.0
C1023 C 0.69209 0.35433 0.99816 0.0
C1024 C 0.66934 0.35265 0.98709 0.0
C1025 C 0.66721 0.34707 0.96261 0.0
C1026 C 0.68111 0.38422 0.05875 0.0
C1027 C 0.69916 0.37409 0.07316 0.0
C1028 C 0.67892 0.37798 0.03448 0.0
C1029 C 0.69457 0.36122 1.02403 0.0
C1030 C 0.71275 0.35125 0.03848 0.0
C1031 C 0.7151 0.35772 0.06268 0.0
H1032 H 0.90505 0.56248 0.31914 0.0
H1033 H 0.85774 0.56738 0.38037 0.0
H1034 H 0.90554 0.51886 0.32338 0.0
H1035 H 0.85833 0.52412 0.38458 0.0
H1036 H 0.8462 0.44393 0.36975 0.0
H1037 H 0.84454 0.48726 0.36386 0.0
H1038 H 0.9212 0.48893 0.35245 0.0
H1039 H 0.9229 0.44586 0.35825 0.0
C1040 C 0.89474 0.55429 0.33344 0.0
C1041 C 0.88145 0.56846 0.34945 0.0
C1042 C 0.89509 0.52933 0.33594 0.0
C1043 C 0.88194 0.518 0.35433 0.0
C1044 C 0.86843 0.5322 0.37008 0.0
C1045 C 0.86827 0.55707 0.36773 0.0
C1046 C 0.86269 0.45356 0.36608 0.0
C1047 C 0.88467 0.44138 0.36457 0.0
C1048 C 0.86176 0.4784 0.36272 0.0
C1049 C 0.88274 0.49155 0.35755 0.0
C1050 C 0.90467 0.47933 0.35605 0.0
C1051 C 0.90564 0.45461 0.35961 0.0
H1052 H 0.48682 0.44998 0.85765 0.0
H1053 H 0.48923 0.40162 0.79712 0.0
H1054 H 0.52816 0.44005 0.86763 0.0
H1055 H 0.53066 0.39134 0.80743 0.0
H1056 H 0.61093 0.38714 0.82634 0.0
H1057 H 0.57307 0.40428 0.81196 0.0
H1058 H 0.54599 0.40444 0.88463 0.0
H1059 H 0.58357 0.38773 0.8989 0.0
C1060 C 0.49626 0.43742 0.84627 0.0
C1061 C 0.48457 0.42639 0.82674 0.0
C1062 C 0.51996 0.43163 0.85209 0.0
C1063 C 0.53264 0.41458 0.8386 0.0
C1064 C 0.52148 0.40461 0.81816 0.0
C1065 C 0.49769 0.41047 0.81228 0.0
C1066 C 0.59698 0.39117 0.83925 0.0
C1067 C 0.60029 0.38602 0.86378 0.0
C1068 C 0.57524 0.40083 0.83099 0.0
C1069 C 0.55646 0.40578 0.84712 0.0
C1070 C 0.56013 0.40122 0.8717 0.0
C1071 C 0.58169 0.39146 0.87989 0.0
H1072 H 0.72106 0.0524 0.421 0.0
H1073 H 0.75332 0.04424 0.35091 0.0
H1074 H 0.70128 1.01335 0.41624 0.0
H1075 H 0.7334 1.00569 0.34625 0.0
H1076 H 0.66096 0.96766 0.33227 0.0
H1077 H 0.68468 1.00218 0.34393 0.0
H1078 H 0.71156 0.9641 0.40564 0.0
H1079 H 0.68788 0.92863 0.39362 0.0
C1080 C 0.7244 0.04211 0.40486 0.0
C1081 C 0.73854 0.05165 0.38619 0.0
C1082 C 0.71311 1.01974 0.40221 0.0
C1083 C 0.71566 1.00669 0.3808 0.0
C1084 C 0.73102 1.01551 0.36288 0.0
C1085 C 0.74243 0.03763 0.36558 0.0
C1086 C 0.67173 0.96645 0.34845 0.0
C1087 C 0.67262 0.94519 0.36189 0.0
C1088 C 0.68541 0.9863 0.35505 0.0
C1089 C 0.70017 0.98568 0.37546 0.0
C1090 C 0.70035 0.96494 0.38974 0.0
C1091 C 0.68679 0.94472 0.38289 0.0
H1092 H 0.08643 0.16483 0.88555 0.0
H1093 H 0.08078 0.17468 0.80876 0.0
H1094 H 0.04554 0.17904 0.89044 0.0
H1095 H 0.03946 0.18826 0.81358 0.0
H1096 H 0.97688 0.23704 0.83323 0.0
H1097 H 1.01772 0.22218 0.82861 0.0
H1098 H 1.00439 0.16932 0.88359 0.0
H1099 H 0.96386 0.18463 0.8887 0.0
C1100 C 0.07634 0.16969 0.86964 0.0
C1101 C 0.08694 0.16866 0.84675 0.0
C1102 C 0.0528 0.17779 0.87245 0.0
C1103 C 0.03917 0.18496 0.85243 0.0
C1104 C 0.04956 0.18331 0.82945 0.0
C1105 C 0.07318 0.17529 0.82665 0.0
C1106 C 0.98273 0.22238 0.84448 0.0
C1107 C 0.96709 0.21209 0.86138 0.0
C1108 C 1.00609 0.21368 0.84166 0.0
C1109 C 1.01436 0.19441 0.8556 0.0
C1110 C 0.99878 0.18435 0.87272 0.0
C1111 C 0.97547 0.19311 0.87562 0.0
H1112 H 0.84088 0.05323 0.0894 0.0
H1113 H 0.78481 0.03957 0.14106 0.0
H1114 H 0.85332 1.01171 0.09163 0.0
H1115 H 0.79781 0.99782 0.14395 0.0
H1116 H 0.82172 0.91974 0.13632 0.0
H1117 H 0.80361 0.95821 0.12551 0.0
H1118 H 0.87439 0.98988 0.12161 0.0
H1119 H 0.89223 0.95179 0.13185 0.0
C1120 C 0.83106 0.04127 0.10114 0.0
C1121 C 0.81205 0.0498 0.1153 0.0
C1122 C 0.83828 1.01743 0.10251 0.0
C1123 C 0.82693 1.00143 0.11835 0.0
C1124 C 0.80694 1.00958 0.13149 0.0
C1125 C 0.79951 0.03353 0.12991 0.0
C1126 C 0.83336 0.93484 0.13259 0.0
C1127 C 0.85844 0.93267 0.13493 0.0
C1128 C 0.82298 0.95694 0.12666 0.0
C1129 C 0.83748 0.97725 0.1227 0.0
C1130 C 0.86258 0.97467 0.12414 0.0
C1131 C 0.87287 0.95276 0.13016 0.0
H1132 H 0.10894 0.36969 0.65721 0.0
H1133 H 0.06786 0.40657 0.71148 0.0
H1134 H 0.0718 0.35291 0.64066 0.0
H1135 H 0.03101 0.38942 0.69543 0.0
H1136 H 0.96577 0.36887 0.6502 0.0
H1137 H 1.00289 0.38903 0.66263 0.0
H1138 H 0.04225 0.32357 0.65129 0.0
H1139 H 1.00555 0.30377 0.63844 0.0
C1140 C 0.09202 0.37429 0.66557 0.0
C1141 C 0.09147 0.38941 0.68575 0.0
C1142 C 0.0707 0.36455 0.65618 0.0
C1143 C 0.04829 0.36968 0.66675 0.0
C1144 C 0.04779 0.38527 0.68658 0.0
C1145 C 0.06905 0.39499 0.69592 0.0
C1146 C 0.98238 0.35886 0.65028 0.0
C1147 C 0.9826 0.33468 0.64336 0.0
C1148 C 1.00368 0.37037 0.65749 0.0
C1149 C 0.0257 0.35798 0.65795 0.0
C1150 C 0.02583 0.33387 0.65079 0.0
C1151 C 1.00463 0.32242 0.6436 0.0
H1152 H 0.67414 0.42662 0.19958 0.0
H1153 H 0.69555 0.46603 0.13645 0.0
H1154 H 0.65813 0.46345 0.21718 0.0
H1155 H 0.67959 0.50261 0.15395 0.0
H1156 H 0.62763 0.55911 0.1838 0.0
H1157 H 0.64098 0.52149 0.16598 0.0
H1158 H 0.67501 0.50221 0.23293 0.0
H1159 H 0.66173 0.53981 0.25078 0.0
C1160 C 0.67522 0.44304 0.18935 0.0
C1161 C 0.68618 0.44334 0.16662 0.0
C1162 C 0.66621 0.46418 0.19951 0.0
C1163 C 0.66765 0.48602 0.187 0.0
C1164 C 0.67801 0.48612 0.164 0.0
C1165 C 0.68726 0.46511 0.15401 0.0
C1166 C 0.63799 0.54689 0.19473 0.0
C1167 C 0.64366 0.55259 0.21871 0.0
C1168 C 0.64569 0.52533 0.18449 0.0
C1169 C 0.659 0.50877 0.19805 0.0
C1170 C 0.66455 0.51441 0.22207 0.0
C1171 C 0.6571 0.53609 0.23223 0.0
H1172 H 0.48205 0.16183 0.71807 0.0
H1173 H 0.44765 0.20683 0.66528 0.0
H1174 H 0.52109 0.17223 0.70175 0.0
H1175 H 0.48727 0.21733 0.64879 0.0
H1176 H 0.56844 0.24784 0.64993 0.0
H1177 H 0.52676 0.23935 0.66194 0.0
H1178 H 0.54261 0.16391 0.66338 0.0
H1179 H 0.5837 0.17217 0.6516 0.0
C1180 C 0.48278 0.17393 0.70291 0.0
C1181 C 0.46165 0.1834 0.69293 0.0
C1182 C 0.50523 0.17983 0.69348 0.0
C1183 C 0.50729 0.1955 0.67388 0.0
C1184 C 0.48623 0.20527 0.66396 0.0
C1185 C 0.46358 0.19913 0.67329 0.0
C1186 C 0.56288 0.22945 0.65255 0.0
C1187 C 0.57954 0.21074 0.6501 0.0
C1188 C 0.53903 0.22459 0.65934 0.0
C1189 C 0.53151 0.20097 0.66393 0.0
C1190 C 0.54793 0.18232 0.66042 0.0
C1191 C 0.57154 0.18711 0.6536 0.0
H1192 H 0.44844 0.86485 0.49672 0.0
H1193 H 0.39101 0.81349 0.50532 0.0
H1194 H 0.44504 0.87597 0.53884 0.0
H1195 H 0.3874 0.82491 0.54767 0.0
H1196 H 0.39646 0.84282 0.62815 0.0
H1197 H 0.4062 0.82652 0.58838 0.0
H1198 H 0.41522 0.89825 0.56122 0.0
H1199 H 0.40573 0.91437 0.60062 0.0
C1200 C 0.43522 0.8557 0.50764 0.0
C1201 C 0.41984 0.83841 0.49746 0.0
C1202 C 0.4332 0.8622 0.53185 0.0
C1203 C 0.41571 0.85163 0.54666 0.0
C1204 C 0.40115 0.83338 0.53686 0.0
C1205 C 0.40318 0.82686 0.51253 0.0
C1206 C 0.40099 0.85505 0.61377 0.0
C1207 C 0.40037 0.87993 0.61762 0.0
C1208 C 0.40633 0.84571 0.59091 0.0
C1209 C 0.4115 0.86103 0.57151 0.0
C1210 C 0.41166 0.88585 0.57571 0.0
C1211 C 0.4061 0.89513 0.59837 0.0
H1212 H 0.16851 0.87793 0.10232 0.0
H1213 H 0.24161 0.87153 0.12751 0.0
H1214 H 0.18294 0.89458 0.06463 0.0
H1215 H 0.25609 0.88889 0.09001 0.0
H1216 H 0.27375 0.89529 1.00875 0.0
H1217 H 0.2612 0.88071 0.0482 0.0
H1218 H 0.20042 0.92849 0.04649 0.0
H1219 H 0.21254 0.94239 1.00697 0.0
C1220 C 0.18768 0.88034 0.09997 0.0
C1221 C 0.20385 0.87334 0.11807 0.0
C1222 C 0.19601 0.89006 0.07831 0.0
C1223 C 0.22078 0.89323 0.07409 0.0
C1224 C 0.23694 0.88648 0.09235 0.0
C1225 C 0.22859 0.87666 0.11401 0.0
C1226 C 0.25786 0.90285 1.01693 0.0
C1227 C 0.24411 0.91992 1.00454 0.0
C1228 C 0.25065 0.89453 0.03964 0.0
C1229 C 0.22955 0.90316 0.05061 0.0
C1230 C 0.2164 0.92092 0.03852 0.0
C1231 C 0.2235 0.92908 1.01583 0.0
H1232 H 0.14127 0.74016 0.62649 0.0
H1233 H 0.12112 0.6711 0.59796 0.0
H1234 H 0.12938 0.75892 0.58849 0.0
H1235 H 0.10939 0.68969 0.56026 0.0
H1236 H 0.07517 0.72921 0.49987 0.0
H1237 H 0.08041 0.71665 0.54139 0.0
H1238 H 0.14522 0.75898 0.54643 0.0
H1239 H 0.13989 0.7718 0.50475 0.0
C1240 C 0.13387 0.72904 0.61232 0.0
C1241 C 0.13216 0.70411 0.61528 0.0
C1242 C 0.12727 0.73977 0.59048 0.0
C1243 C 0.11849 0.72583 0.57126 0.0
C1244 C 0.11582 0.70105 0.5747 0.0
C1245 C 0.12265 0.69034 0.59634 0.0
C1246 C 0.09036 0.7362 0.50987 0.0
C1247 C 0.10725 0.75135 0.49879 0.0
C1248 C 0.09342 0.72887 0.53371 0.0
C1249 C 0.11341 0.73652 0.54719 0.0
C1250 C 0.12955 0.75282 0.53662 0.0
C1251 C 0.12653 0.76013 0.51267 0.0
H1252 H 0.32451 0.71045 0.11172 0.0
H1253 H 0.38757 0.66578 0.10919 0.0
H1254 H 0.31602 0.7012 0.0698 0.0
H1255 H 0.37879 0.65612 0.06727 0.0
H1256 H 0.36924 0.66453 0.98574 0.0
H1257 H 0.37806 0.67294 0.02767 0.0
H1258 H 0.30239 0.66891 0.0442 0.0
H1259 H 0.29346 0.66099 1.00182 0.0
C1260 C 0.33667 0.69873 0.10221 0.0
C1261 C 0.3568 0.68893 0.1139 0.0
C1262 C 0.33162 0.6932 0.07817 0.0
C1263 C 0.34655 0.67771 0.06509 0.0
C1264 C 0.36697 0.66827 0.07665 0.0
C1265 C 0.37203 0.67381 0.10074 0.0
C1266 C 0.35441 0.66528 0.99828 0.0
C1267 C 0.33059 0.66212 0.99031 0.0
C1268 C 0.35953 0.67 1.02245 0.0
C1269 C 0.34099 0.67171 0.03944 0.0
C1270 C 0.31714 0.66808 0.03158 0.0
C1271 C 0.312 0.66332 1.00731 0.0
loop_
_geom_bond_atom_site_label_1
_geom_bond_atom_site_label_2
_geom_bond_distance
_geom_bond_site_symmetry_2
_ccdc_geom_bond_type
Mg0 O7 2.141 . S
Mg0 O8 2.048 . S
Mg0 O9 2.048 . S
Mg0 O12 2.141 . S
C1 O2 1.313 . S
C1 O8 1.195 . S
O2 C1 1.313 . S
C3 O4 1.245 . S
C3 O12 1.289 . S
O4 C3 1.245 . S
C5 O6 1.245 . S
C5 O7 1.289 . S
O6 C5 1.245 . S
O7 Mg0 2.141 . S
O7 C5 1.289 . S
O8 Mg0 2.048 . S
O8 C1 1.195 . S
O9 Mg0 2.048 . S
O9 C10 1.195 . S
C10 O9 1.195 . S
C10 O11 1.313 . S
O11 C10 1.313 . S
O12 Mg0 2.141 . S
O12 C3 1.289 . S
Mg13 O20 2.141 . S
Mg13 O21 2.048 . S
Mg13 O22 2.048 . S
Mg13 O25 2.141 . S
C14 O15 1.313 . S
C14 O21 1.195 . S
O15 C14 1.313 . S
C16 O17 1.245 . S
C16 O25 1.289 . S
O17 C16 1.245 . S
C18 O19 1.245 . S
C18 O20 1.289 . S
O19 C18 1.245 . S
O20 Mg13 2.141 . S
O20 C18 1.289 . S
O21 Mg13 2.048 . S
O21 C14 1.195 . S
O22 Mg13 2.048 . S
O22 C23 1.195 . S
C23 O22 1.195 . S
C23 O24 1.313 . S
O24 C23 1.313 . S
O25 Mg13 2.141 . S
O25 C16 1.289 . S
Mg26 O33 2.141 . S
Mg26 O34 2.048 . S
Mg26 O35 2.048 . S
Mg26 O38 2.141 . S
C27 O28 1.313 . S
C27 O34 1.195 . S
O28 C27 1.313 . S
C29 O30 1.245 . S
C29 O38 1.289 . S
O30 C29 1.245 . S
C31 O32 1.245 . S
C31 O33 1.289 . S
O32 C31 1.245 . S
O33 Mg26 2.141 . S
O33 C31 1.289 . S
O34 Mg26 2.048 . S
O34 C27 1.195 . S
O35 Mg26 2.048 . S
O35 C36 1.195 . S
C36 O35 1.195 . S
C36 O37 1.313 . S
O37 C36 1.313 . S
O38 Mg26 2.141 . S
O38 C29 1.289 . S
Mg39 O46 2.141 . S
Mg39 O47 2.048 . S
Mg39 O48 2.048 . S
Mg39 O51 2.141 . S
C40 O41 1.313 . S
C40 O47 1.195 . S
O41 C40 1.313 . S
C42 O43 1.245 . S
C42 O51 1.289 . S
O43 C42 1.245 . S
C44 O45 1.245 . S
C44 O46 1.289 . S
O45 C44 1.245 . S
O46 Mg39 2.141 . S
O46 C44 1.289 . S
O47 Mg39 2.048 . S
O47 C40 1.195 . S
O48 Mg39 2.048 . S
O48 C49 1.195 . S
C49 O48 1.195 . S
C49 O50 1.313 . S
O50 C49 1.313 . S
O51 Mg39 2.141 . S
O51 C42 1.289 . S
Mg52 O59 2.141 . S
Mg52 O60 2.048 . S
Mg52 O61 2.048 . S
Mg52 O64 2.141 . S
C53 O54 1.313 . S
C53 O60 1.195 . S
O54 C53 1.313 . S
C55 O56 1.245 . S
C55 O64 1.289 . S
O56 C55 1.245 . S
C57 O58 1.245 . S
C57 O59 1.289 . S
O58 C57 1.245 . S
O59 Mg52 2.141 . S
O59 C57 1.289 . S
O60 Mg52 2.048 . S
O60 C53 1.195 . S
O61 Mg52 2.048 . S
O61 C62 1.195 . S
C62 O61 1.195 . S
C62 O63 1.313 . S
O63 C62 1.313 . S
O64 Mg52 2.141 . S
O64 C55 1.289 . S
Mg65 O72 2.141 . S
Mg65 O73 2.048 . S
Mg65 O74 2.048 . S
Mg65 O77 2.141 . S
C66 O67 1.313 . S
C66 O73 1.195 . S
O67 C66 1.313 . S
C68 O69 1.245 . S
C68 O77 1.289 . S
O69 C68 1.245 . S
C70 O71 1.245 . S
C70 O72 1.289 . S
O71 C70 1.245 . S
O72 Mg65 2.141 . S
O72 C70 1.289 . S
O73 Mg65 2.048 . S
O73 C66 1.195 . S
O74 Mg65 2.048 . S
O74 C75 1.195 . S
C75 O74 1.195 . S
C75 O76 1.313 . S
O76 C75 1.313 . S
O77 Mg65 2.141 . S
O77 C68 1.289 . S
Mg78 O85 2.141 . S
Mg78 O86 2.048 . S
Mg78 O87 2.048 . S
Mg78 O90 2.141 . S
C79 O80 1.313 . S
C79 O86 1.195 . S
O80 C79 1.313 . S
C81 O82 1.245 . S
C81 O90 1.289 . S
O82 C81 1.245 . S
C83 O84 1.245 . S
C83 O85 1.289 . S
O84 C83 1.245 . S
O85 Mg78 2.141 . S
O85 C83 1.289 . S
O86 Mg78 2.048 . S
O86 C79 1.195 . S
O87 Mg78 2.048 . S
O87 C88 1.195 . S
C88 O87 1.195 . S
C88 O89 1.313 . S
O89 C88 1.313 . S
O90 Mg78 2.141 . S
O90 C81 1.289 . S
Mg91 O98 2.141 . S
Mg91 O99 2.048 . S
Mg91 O100 2.048 . S
Mg91 O103 2.141 . S
C92 O93 1.313 . S
C92 O99 1.195 . S
O93 C92 1.313 . S
C94 O95 1.245 . S
C94 O103 1.289 . S
O95 C94 1.245 . S
C96 O97 1.245 . S
C96 O98 1.289 . S
O97 C96 1.245 . S
O98 Mg91 2.141 . S
O98 C96 1.289 . S
O99 Mg91 2.048 . S
O99 C92 1.195 . S
O100 Mg91 2.048 . S
O100 C101 1.195 . S
C101 O100 1.195 . S
C101 O102 1.313 . S
O102 C101 1.313 . S
O103 Mg91 2.141 . S
O103 C94 1.289 . S
Mg104 O111 2.141 . S
Mg104 O112 2.048 . S
Mg104 O113 2.048 . S
Mg104 O116 2.141 . S
C105 O106 1.313 . S
C105 O112 1.195 . S
O106 C105 1.313 . S
C107 O108 1.245 . S
C107 O116 1.289 . S
O108 C107 1.245 . S
C109 O110 1.245 . S
C109 O111 1.289 . S
O110 C109 1.245 . S
O111 Mg104 2.141 . S
O111 C109 1.289 . S
O112 Mg104 2.048 . S
O112 C105 1.195 . S
O113 Mg104 2.048 . S
O113 C114 1.195 . S
C114 O113 1.195 . S
C114 O115 1.313 . S
O115 C114 1.313 . S
O116 Mg104 2.141 . S
O116 C107 1.289 . S
Mg117 O124 2.141 . S
Mg117 O125 2.048 . S
Mg117 O126 2.048 . S
Mg117 O129 2.141 . S
C118 O119 1.313 . S
C118 O125 1.195 . S
O119 C118 1.313 . S
C120 O121 1.245 . S
C120 O129 1.289 . S
O121 C120 1.245 . S
C122 O123 1.245 . S
C122 O124 1.289 . S
O123 C122 1.245 . S
O124 Mg117 2.141 . S
O124 C122 1.289 . S
O125 Mg117 2.048 . S
O125 C118 1.195 . S
O126 Mg117 2.048 . S
O126 C127 1.195 . S
C127 O126 1.195 . S
C127 O128 1.313 . S
O128 C127 1.313 . S
O129 Mg117 2.141 . S
O129 C120 1.289 . S
Mg130 O137 2.141 . S
Mg130 O138 2.048 . S
Mg130 O139 2.048 . S
Mg130 O142 2.141 . S
C131 O132 1.313 . S
C131 O138 1.195 . S
O132 C131 1.313 . S
C133 O134 1.245 . S
C133 O142 1.289 . S
O134 C133 1.245 . S
C135 O136 1.245 . S
C135 O137 1.289 . S
O136 C135 1.245 . S
O137 Mg130 2.141 . S
O137 C135 1.289 . S
O138 Mg130 2.048 . S
O138 C131 1.195 . S
O139 Mg130 2.048 . S
O139 C140 1.195 . S
C140 O139 1.195 . S
C140 O141 1.313 . S
O141 C140 1.313 . S
O142 Mg130 2.141 . S
O142 C133 1.289 . S
Mg143 O150 2.141 . S
Mg143 O151 2.048 . S
Mg143 O152 2.048 . S
Mg143 O155 2.141 . S
C144 O145 1.313 . S
C144 O151 1.195 . S
O145 C144 1.313 . S
C146 O147 1.245 . S
C146 O155 1.289 . S
O147 C146 1.245 . S
C148 O149 1.245 . S
C148 O150 1.289 . S
O149 C148 1.245 . S
O150 Mg143 2.141 . S
O150 C148 1.289 . S
O151 Mg143 2.048 . S
O151 C144 1.195 . S
O152 Mg143 2.048 . S
O152 C153 1.195 . S
C153 O152 1.195 . S
C153 O154 1.313 . S
O154 C153 1.313 . S
O155 Mg143 2.141 . S
O155 C146 1.289 . S
Mg156 O163 2.141 . S
Mg156 O164 2.048 . S
Mg156 O165 2.048 . S
Mg156 O168 2.141 . S
C157 O158 1.313 . S
C157 O164 1.195 . S
O158 C157 1.313 . S
C159 O160 1.245 . S
C159 O168 1.289 . S
O160 C159 1.245 . S
C161 O162 1.245 . S
C161 O163 1.289 . S
O162 C161 1.245 . S
O163 Mg156 2.141 . S
O163 C161 1.289 . S
O164 Mg156 2.048 . S
O164 C157 1.195 . S
O165 Mg156 2.048 . S
O165 C166 1.195 . S
C166 O165 1.195 . S
C166 O167 1.313 . S
O167 C166 1.313 . S
O168 Mg156 2.141 . S
O168 C159 1.289 . S
Mg169 O176 2.141 . S
Mg169 O177 2.048 . S
Mg169 O178 2.048 . S
Mg169 O181 2.141 . S
C170 O171 1.313 . S
C170 O177 1.195 . S
O171 C170 1.313 . S
C172 O173 1.245 . S
C172 O181 1.289 . S
O173 C172 1.245 . S
C174 O175 1.245 . S
C174 O176 1.289 . S
O175 C174 1.245 . S
O176 Mg169 2.141 . S
O176 C174 1.289 . S
O177 Mg169 2.048 . S
O177 C170 1.195 . S
O178 Mg169 2.048 . S
O178 C179 1.195 . S
C179 O178 1.195 . S
C179 O180 1.313 . S
O180 C179 1.313 . S
O181 Mg169 2.141 . S
O181 C172 1.289 . S
Mg182 O189 2.141 . S
Mg182 O190 2.048 . S
Mg182 O191 2.048 . S
Mg182 O194 2.141 . S
C183 O184 1.313 . S
C183 O190 1.195 . S
O184 C183 1.313 . S
C185 O186 1.245 . S
C185 O194 1.289 . S
O186 C185 1.245 . S
C187 O188 1.245 . S
C187 O189 1.289 . S
O188 C187 1.245 . S
O189 Mg182 2.141 . S
O189 C187 1.289 . S
O190 Mg182 2.048 . S
O190 C183 1.195 . S
O191 Mg182 2.048 . S
O191 C192 1.195 . S
C192 O191 1.195 . S
C192 O193 1.313 . S
O193 C192 1.313 . S
O194 Mg182 2.141 . S
O194 C185 1.289 . S
Mg195 O202 2.141 . S
Mg195 O203 2.048 . S
Mg195 O204 2.048 . S
Mg195 O207 2.141 . S
C196 O197 1.313 . S
C196 O203 1.195 . S
O197 C196 1.313 . S
C198 O199 1.245 . S
C198 O207 1.289 . S
O199 C198 1.245 . S
C200 O201 1.245 . S
C200 O202 1.289 . S
O201 C200 1.245 . S
O202 Mg195 2.141 . S
O202 C200 1.289 . S
O203 Mg195 2.048 . S
O203 C196 1.195 . S
O204 Mg195 2.048 . S
O204 C205 1.195 . S
C205 O204 1.195 . S
C205 O206 1.313 . S
O206 C205 1.313 . S
O207 Mg195 2.141 . S
O207 C198 1.289 . S
Mg208 O215 2.141 . S
Mg208 O216 2.048 . S
Mg208 O217 2.048 . S
Mg208 O220 2.141 . S
C209 O210 1.313 . S
C209 O216 1.195 . S
O210 C209 1.313 . S
C211 O212 1.245 . S
C211 O220 1.289 . S
O212 C211 1.245 . S
C213 O214 1.245 . S
C213 O215 1.289 . S
O214 C213 1.245 . S
O215 Mg208 2.141 . S
O215 C213 1.289 . S
O216 Mg208 2.048 . S
O216 C209 1.195 . S
O217 Mg208 2.048 . S
O217 C218 1.195 . S
C218 O217 1.195 . S
C218 O219 1.313 . S
O219 C218 1.313 . S
O220 Mg208 2.141 . S
O220 C211 1.289 . S
Mg221 O228 2.141 . S
Mg221 O229 2.048 . S
Mg221 O230 2.048 . S
Mg221 O233 2.141 . S
C222 O223 1.313 . S
C222 O229 1.195 . S
O223 C222 1.313 . S
C224 O225 1.245 . S
C224 O233 1.289 . S
O225 C224 1.245 . S
C226 O227 1.245 . S
C226 O228 1.289 . S
O227 C226 1.245 . S
O228 Mg221 2.141 . S
O228 C226 1.289 . S
O229 Mg221 2.048 . S
O229 C222 1.195 . S
O230 Mg221 2.048 . S
O230 C231 1.195 . S
C231 O230 1.195 . S
C231 O232 1.313 . S
O232 C231 1.313 . S
O233 Mg221 2.141 . S
O233 C224 1.289 . S
Mg234 O241 2.141 . S
Mg234 O242 2.048 . S
Mg234 O243 2.048 . S
Mg234 O246 2.141 . S
C235 O236 1.313 . S
C235 O242 1.195 . S
O236 C235 1.313 . S
C237 O238 1.245 . S
C237 O246 1.289 . S
O238 C237 1.245 . S
C239 O240 1.245 . S
C239 O241 1.289 . S
O240 C239 1.245 . S
O241 Mg234 2.141 . S
O241 C239 1.289 . S
O242 Mg234 2.048 . S
O242 C235 1.195 . S
O243 Mg234 2.048 . S
O243 C244 1.195 . S
C244 O243 1.195 . S
C244 O245 1.313 . S
O245 C244 1.313 . S
O246 Mg234 2.141 . S
O246 C237 1.289 . S
Mg247 O254 2.141 . S
Mg247 O255 2.048 . S
Mg247 O256 2.048 . S
Mg247 O259 2.141 . S
C248 O249 1.313 . S
C248 O255 1.195 . S
O249 C248 1.313 . S
C250 O251 1.245 . S
C250 O259 1.289 . S
O251 C250 1.245 . S
C252 O253 1.245 . S
C252 O254 1.289 . S
O253 C252 1.245 . S
O254 Mg247 2.141 . S
O254 C252 1.289 . S
O255 Mg247 2.048 . S
O255 C248 1.195 . S
O256 Mg247 2.048 . S
O256 C257 1.195 . S
C257 O256 1.195 . S
C257 O258 1.313 . S
O258 C257 1.313 . S
O259 Mg247 2.141 . S
O259 C250 1.289 . S
Mg260 O267 2.141 . S
Mg260 O268 2.048 . S
Mg260 O269 2.048 . S
Mg260 O272 2.141 . S
C261 O262 1.313 . S
C261 O268 1.195 . S
O262 C261 1.313 . S
C263 O264 1.245 . S
C263 O272 1.289 . S
O264 C263 1.245 . S
C265 O266 1.245 . S
C265 O267 1.289 . S
O266 C265 1.245 . S
O267 Mg260 2.141 . S
O267 C265 1.289 . S
O268 Mg260 2.048 . S
O268 C261 1.195 . S
O269 Mg260 2.048 . S
O269 C270 1.195 . S
C270 O269 1.195 . S
C270 O271 1.313 . S
O271 C270 1.313 . S
O272 Mg260 2.141 . S
O272 C263 1.289 . S
Mg273 O280 2.141 . S
Mg273 O281 2.048 . S
Mg273 O282 2.048 . S
Mg273 O285 2.141 . S
C274 O275 1.313 . S
C274 O281 1.195 . S
O275 C274 1.313 . S
C276 O277 1.245 . S
C276 O285 1.289 . S
O277 C276 1.245 . S
C278 O279 1.245 . S
C278 O280 1.289 . S
O279 C278 1.245 . S
O280 Mg273 2.141 . S
O280 C278 1.289 . S
O281 Mg273 2.048 . S
O281 C274 1.195 . S
O282 Mg273 2.048 . S
O282 C283 1.195 . S
C283 O282 1.195 . S
C283 O284 1.313 . S
O284 C283 1.313 . S
O285 Mg273 2.141 . S
O285 C276 1.289 . S
Mg286 O293 2.141 . S
Mg286 O294 2.048 . S
Mg286 O295 2.048 . S
Mg286 O298 2.141 . S
C287 O288 1.313 . S
C287 O294 1.195 . S
O288 C287 1.313 . S
C289 O290 1.245 . S
C289 O298 1.289 . S
O290 C289 1.245 . S
C291 O292 1.245 . S
C291 O293 1.289 . S
O292 C291 1.245 . S
O293 Mg286 2.141 . S
O293 C291 1.289 . S
O294 Mg286 2.048 . S
O294 C287 1.195 . S
O295 Mg286 2.048 . S
O295 C296 1.195 . S
C296 O295 1.195 . S
C296 O297 1.313 . S
O297 C296 1.313 . S
O298 Mg286 2.141 . S
O298 C289 1.289 . S
Mg299 O306 2.141 . S
Mg299 O307 2.048 . S
Mg299 O308 2.048 . S
Mg299 O311 2.141 . S
C300 O301 1.313 . S
C300 O307 1.195 . S
O301 C300 1.313 . S
C302 O303 1.245 . S
C302 O311 1.289 . S
O303 C302 1.245 . S
C304 O305 1.245 . S
C304 O306 1.289 . S
O305 C304 1.245 . S
O306 Mg299 2.141 . S
O306 C304 1.289 . S
O307 Mg299 2.048 . S
O307 C300 1.195 . S
O308 Mg299 2.048 . S
O308 C309 1.195 . S
C309 O308 1.195 . S
C309 O310 1.313 . S
O310 C309 1.313 . S
O311 Mg299 2.141 . S
O311 C302 1.289 . S
H312 C320 0.950 . S
H313 C325 0.950 . S
H314 C322 0.950 . S
H315 C324 0.950 . S
H316 C326 0.950 . S
H317 C328 0.950 . S
H318 C330 0.950 . S
H319 C331 0.950 . S
C320 H312 0.950 . S
C320 C321 1.386 . S
C320 C322 1.391 . S
C321 C320 1.386 . S
C321 C325 1.393 . S
C322 H314 0.950 . S
C322 C320 1.391 . S
C322 C323 1.400 . S
C323 C322 1.400 . S
C323 C324 1.398 . S
C323 C329 1.491 . S
C324 H315 0.950 . S
C324 C323 1.398 . S
C324 C325 1.391 . S
C325 H313 0.950 . S
C325 C321 1.393 . S
C325 C324 1.391 . S
C326 H316 0.950 . S
C326 C327 1.386 . S
C326 C328 1.391 . S
C327 C326 1.386 . S
C327 C331 1.393 . S
C328 H317 0.950 . S
C328 C326 1.391 . S
C328 C329 1.400 . S
C329 C323 1.491 . S
C329 C328 1.400 . S
C329 C330 1.398 . S
C330 H318 0.950 . S
C330 C329 1.398 . S
C330 C331 1.391 . S
C331 H319 0.950 . S
C331 C327 1.393 . S
C331 C330 1.391 . S
H332 C340 0.950 . S
H333 C345 0.950 . S
H334 C342 0.950 . S
H335 C344 0.950 . S
H336 C346 0.950 . S
H337 C348 0.950 . S
H338 C350 0.950 . S
H339 C351 0.950 . S
C340 H332 0.950 . S
C340 C341 1.386 . S
C340 C342 1.391 . S
C341 C340 1.386 . S
C341 C345 1.393 . S
C342 H334 0.950 . S
C342 C340 1.391 . S
C342 C343 1.400 . S
C343 C342 1.400 . S
C343 C344 1.398 . S
C343 C349 1.491 . S
C344 H335 0.950 . S
C344 C343 1.398 . S
C344 C345 1.391 . S
C345 H333 0.950 . S
C345 C341 1.393 . S
C345 C344 1.391 . S
C346 H336 0.950 . S
C346 C347 1.386 . S
C346 C348 1.391 . S
C347 C346 1.386 . S
C347 C351 1.393 . S
C348 H337 0.950 . S
C348 C346 1.391 . S
C348 C349 1.400 . S
C349 C343 1.491 . S
C349 C348 1.400 . S
C349 C350 1.398 . S
C350 H338 0.950 . S
C350 C349 1.398 . S
C350 C351 1.391 . S
C351 H339 0.950 . S
C351 C347 1.393 . S
C351 C350 1.391 . S
H352 C360 0.950 . S
H353 C365 0.950 . S
H354 C362 0.950 . S
H355 C364 0.950 . S
H356 C366 0.950 . S
H357 C368 0.950 . S
H358 C370 0.950 . S
H359 C371 0.950 . S
C360 H352 0.950 . S
C360 C361 1.386 . S
C360 C362 1.391 . S
C361 C360 1.386 . S
C361 C365 1.393 . S
C362 H354 0.950 . S
C362 C360 1.391 . S
C362 C363 1.400 . S
C363 C362 1.400 . S
C363 C364 1.398 . S
C363 C369 1.491 . S
C364 H355 0.950 . S
C364 C363 1.398 . S
C364 C365 1.391 . S
C365 H353 0.950 . S
C365 C361 1.393 . S
C365 C364 1.391 . S
C366 H356 0.950 . S
C366 C367 1.386 . S
C366 C368 1.391 . S
C367 C366 1.386 . S
C367 C371 1.393 . S
C368 H357 0.950 . S
C368 C366 1.391 . S
C368 C369 1.400 . S
C369 C363 1.491 . S
C369 C368 1.400 . S
C369 C370 1.398 . S
C370 H358 0.950 . S
C370 C369 1.398 . S
C370 C371 1.391 . S
C371 H359 0.950 . S
C371 C367 1.393 . S
C371 C370 1.391 . S
H372 C380 0.950 . S
H373 C385 0.950 . S
H374 C382 0.950 . S
H375 C384 0.950 . S
H376 C386 0.950 . S
H377 C388 0.950 . S
H378 C390 0.950 . S
H379 C391 0.950 . S
C380 H372 0.950 . S
C380 C381 1.386 . S
C380 C382 1.391 . S
C381 C380 1.386 . S
C381 C385 1.393 . S
C382 H374 0.950 . S
C382 C380 1.391 . S
C382 C383 1.400 . S
C383 C382 1.400 . S
C383 C384 1.398 . S
C383 C389 1.491 . S
C384 H375 0.950 . S
C384 C383 1.398 . S
C384 C385 1.391 . S
C385 H373 0.950 . S
C385 C381 1.393 . S
C385 C384 1.391 . S
C386 H376 0.950 . S
C386 C387 1.386 . S
C386 C388 1.391 . S
C387 C386 1.386 . S
C387 C391 1.393 . S
C388 H377 0.950 . S
C388 C386 1.391 . S
C388 C389 1.400 . S
C389 C383 1.491 . S
C389 C388 1.400 . S
C389 C390 1.398 . S
C390 H378 0.950 . S
C390 C389 1.398 . S
C390 C391 1.391 . S
C391 H379 0.950 . S
C391 C387 1.393 . S
C391 C390 1.391 . S
H392 C400 0.950 . S
H393 C405 0.950 . S
H394 C402 0.950 . S
H395 C404 0.950 . S
H396 C406 0.950 . S
H397 C408 0.950 . S
H398 C410 0.950 . S
H399 C411 0.950 . S
C400 H392 0.950 . S
C400 C401 1.386 . S
C400 C402 1.391 . S
C401 C400 1.386 . S
C401 C405 1.393 . S
C402 H394 0.950 . S
C402 C400 1.391 . S
C402 C403 1.400 . S
C403 C402 1.400 . S
C403 C404 1.398 . S
C403 C409 1.491 . S
C404 H395 0.950 . S
C404 C403 1.398 . S
C404 C405 1.391 . S
C405 H393 0.950 . S
C405 C401 1.393 . S
C405 C404 1.391 . S
C406 H396 0.950 . S
C406 C407 1.386 . S
C406 C408 1.391 . S
C407 C406 1.386 . S
C407 C411 1.393 . S
C408 H397 0.950 . S
C408 C406 1.391 . S
C408 C409 1.400 . S
C409 C403 1.491 . S
C409 C408 1.400 . S
C409 C410 1.398 . S
C410 H398 0.950 . S
C410 C409 1.398 . S
C410 C411 1.391 . S
C411 H399 0.950 . S
C411 C407 1.393 . S
C411 C410 1.391 . S
H412 C420 0.950 . S
H413 C425 0.950 . S
H414 C422 0.950 . S
H415 C424 0.950 . S
H416 C426 0.950 . S
H417 C428 0.950 . S
H418 C430 0.950 . S
H419 C431 0.950 . S
C420 H412 0.950 . S
C420 C421 1.386 . S
C420 C422 1.391 . S
C421 C420 1.386 . S
C421 C425 1.393 . S
C422 H414 0.950 . S
C422 C420 1.391 . S
C422 C423 1.400 . S
C423 C422 1.400 . S
C423 C424 1.398 . S
C423 C429 1.491 . S
C424 H415 0.950 . S
C424 C423 1.398 . S
C424 C425 1.391 . S
C425 H413 0.950 . S
C425 C421 1.393 . S
C425 C424 1.391 . S
C426 H416 0.950 . S
C426 C427 1.386 . S
C426 C428 1.391 . S
C427 C426 1.386 . S
C427 C431 1.393 . S
C428 H417 0.950 . S
C428 C426 1.391 . S
C428 C429 1.400 . S
C429 C423 1.491 . S
C429 C428 1.400 . S
C429 C430 1.398 . S
C430 H418 0.950 . S
C430 C429 1.398 . S
C430 C431 1.391 . S
C431 H419 0.950 . S
C431 C427 1.393 . S
C431 C430 1.391 . S
H432 C440 0.950 . S
H433 C445 0.950 . S
H434 C442 0.950 . S
H435 C444 0.950 . S
H436 C446 0.950 . S
H437 C448 0.950 . S
H438 C450 0.950 . S
H439 C451 0.950 . S
C440 H432 0.950 . S
C440 C441 1.386 . S
C440 C442 1.391 . S
C441 C440 1.386 . S
C441 C445 1.393 . S
C442 H434 0.950 . S
C442 C440 1.391 . S
C442 C443 1.400 . S
C443 C442 1.400 . S
C443 C444 1.398 . S
C443 C449 1.491 . S
C444 H435 0.950 . S
C444 C443 1.398 . S
C444 C445 1.391 . S
C445 H433 0.950 . S
C445 C441 1.393 . S
C445 C444 1.391 . S
C446 H436 0.950 . S
C446 C447 1.386 . S
C446 C448 1.391 . S
C447 C446 1.386 . S
C447 C451 1.393 . S
C448 H437 0.950 . S
C448 C446 1.391 . S
C448 C449 1.400 . S
C449 C443 1.491 . S
C449 C448 1.400 . S
C449 C450 1.398 . S
C450 H438 0.950 . S
C450 C449 1.398 . S
C450 C451 1.391 . S
C451 H439 0.950 . S
C451 C447 1.393 . S
C451 C450 1.391 . S
H452 C460 0.950 . S
H453 C465 0.950 . S
H454 C462 0.950 . S
H455 C464 0.950 . S
H456 C466 0.950 . S
H457 C468 0.950 . S
H458 C470 0.950 . S
H459 C471 0.950 . S
C460 H452 0.950 . S
C460 C461 1.386 . S
C460 C462 1.391 . S
C461 C460 1.386 . S
C461 C465 1.393 . S
C462 H454 0.950 . S
C462 C460 1.391 . S
C462 C463 1.400 . S
C463 C462 1.400 . S
C463 C464 1.398 . S
C463 C469 1.491 . S
C464 H455 0.950 . S
C464 C463 1.398 . S
C464 C465 1.391 . S
C465 H453 0.950 . S
C465 C461 1.393 . S
C465 C464 1.391 . S
C466 H456 0.950 . S
C466 C467 1.386 . S
C466 C468 1.391 . S
C467 C466 1.386 . S
C467 C471 1.393 . S
C468 H457 0.950 . S
C468 C466 1.391 . S
C468 C469 1.400 . S
C469 C463 1.491 . S
C469 C468 1.400 . S
C469 C470 1.398 . S
C470 H458 0.950 . S
C470 C469 1.398 . S
C470 C471 1.391 . S
C471 H459 0.950 . S
C471 C467 1.393 . S
C471 C470 1.391 . S
H472 C480 0.950 . S
H473 C485 0.950 . S
H474 C482 0.950 . S
H475 C484 0.950 . S
H476 C486 0.950 . S
H477 C488 0.950 . S
H478 C490 0.950 . S
H479 C491 0.950 . S
C480 H472 0.950 . S
C480 C481 1.386 . S
C480 C482 1.391 . S
C481 C480 1.386 . S
C481 C485 1.393 . S
C482 H474 0.950 . S
C482 C480 1.391 . S
C482 C483 1.400 . S
C483 C482 1.400 . S
C483 C484 1.398 . S
C483 C489 1.491 . S
C484 H475 0.950 . S
C484 C483 1.398 . S
C484 C485 1.391 . S
C485 H473 0.950 . S
C485 C481 1.393 . S
C485 C484 1.391 . S
C486 H476 0.950 . S
C486 C487 1.386 . S
C486 C488 1.391 . S
C487 C486 1.386 . S
C487 C491 1.393 . S
C488 H477 0.950 . S
C488 C486 1.391 . S
C488 C489 1.400 . S
C489 C483 1.491 . S
C489 C488 1.400 . S
C489 C490 1.398 . S
C490 H478 0.950 . S
C490 C489 1.398 . S
C490 C491 1.391 . S
C491 H479 0.950 . S
C491 C487 1.393 . S
C491 C490 1.391 . S
H492 C500 0.950 . S
H493 C505 0.950 . S
H494 C502 0.950 . S
H495 C504 0.950 . S
H496 C506 0.950 . S
H497 C508 0.950 . S
H498 C510 0.950 . S
H499 C511 0.950 . S
C500 H492 0.950 . S
C500 C501 1.386 . S
C500 C502 1.391 . S
C501 C500 1.386 . S
C501 C505 1.393 . S
C502 H494 0.950 . S
C502 C500 1.391 . S
C502 C503 1.400 . S
C503 C502 1.400 . S
C503 C504 1.398 . S
C503 C509 1.491 . S
C504 H495 0.950 . S
C504 C503 1.398 . S
C504 C505 1.391 . S
C505 H493 0.950 . S
C505 C501 1.393 . S
C505 C504 1.391 . S
C506 H496 0.950 . S
C506 C507 1.386 . S
C506 C508 1.391 . S
C507 C506 1.386 . S
C507 C511 1.393 . S
C508 H497 0.950 . S
C508 C506 1.391 . S
C508 C509 1.400 . S
C509 C503 1.491 . S
C509 C508 1.400 . S
C509 C510 1.398 . S
C510 H498 0.950 . S
C510 C509 1.398 . S
C510 C511 1.391 . S
C511 H499 0.950 . S
C511 C507 1.393 . S
C511 C510 1.391 . S
H512 C520 0.950 . S
H513 C525 0.950 . S
H514 C522 0.950 . S
H515 C524 0.950 . S
H516 C526 0.950 . S
H517 C528 0.950 . S
H518 C530 0.950 . S
H519 C531 0.950 . S
C520 H512 0.950 . S
C520 C521 1.386 . S
C520 C522 1.391 . S
C521 C520 1.386 . S
C521 C525 1.393 . S
C522 H514 0.950 . S
C522 C520 1.391 . S
C522 C523 1.400 . S
C523 C522 1.400 . S
C523 C524 1.398 . S
C523 C529 1.491 . S
C524 H515 0.950 . S
C524 C523 1.398 . S
C524 C525 1.391 . S
C525 H513 0.950 . S
C525 C521 1.393 . S
C525 C524 1.391 . S
C526 H516 0.950 . S
C526 C527 1.386 . S
C526 C528 1.391 . S
C527 C526 1.386 . S
C527 C531 1.393 . S
C528 H517 0.950 . S
C528 C526 1.391 . S
C528 C529 1.400 . S
C529 C523 1.491 . S
C529 C528 1.400 . S
C529 C530 1.398 . S
C530 H518 0.950 . S
C530 C529 1.398 . S
C530 C531 1.391 . S
C531 H519 0.950 . S
C531 C527 1.393 . S
C531 C530 1.391 . S
H532 C540 0.950 . S
H533 C545 0.950 . S
H534 C542 0.950 . S
H535 C544 0.950 . S
H536 C546 0.950 . S
H537 C548 0.950 . S
H538 C550 0.950 . S
H539 C551 0.950 . S
C540 H532 0.950 . S
C540 C541 1.386 . S
C540 C542 1.391 . S
C541 C540 1.386 . S
C541 C545 1.393 . S
C542 H534 0.950 . S
C542 C540 1.391 . S
C542 C543 1.400 . S
C543 C542 1.400 . S
C543 C544 1.398 . S
C543 C549 1.491 . S
C544 H535 0.950 . S
C544 C543 1.398 . S
C544 C545 1.391 . S
C545 H533 0.950 . S
C545 C541 1.393 . S
C545 C544 1.391 . S
C546 H536 0.950 . S
C546 C547 1.386 . S
C546 C548 1.391 . S
C547 C546 1.386 . S
C547 C551 1.393 . S
C548 H537 0.950 . S
C548 C546 1.391 . S
C548 C549 1.400 . S
C549 C543 1.491 . S
C549 C548 1.400 . S
C549 C550 1.398 . S
C550 H538 0.950 . S
C550 C549 1.398 . S
C550 C551 1.391 . S
C551 H539 0.950 . S
C551 C547 1.393 . S
C551 C550 1.391 . S
H552 C560 0.950 . S
H553 C565 0.950 . S
H554 C562 0.950 . S
H555 C564 0.950 . S
H556 C566 0.950 . S
H557 C568 0.950 . S
H558 C570 0.950 . S
H559 C571 0.950 . S
C560 H552 0.950 . S
C560 C561 1.386 . S
C560 C562 1.391 . S
C561 C560 1.386 . S
C561 C565 1.393 . S
C562 H554 0.950 . S
C562 C560 1.391 . S
C562 C563 1.400 . S
C563 C562 1.400 . S
C563 C564 1.398 . S
C563 C569 1.491 . S
C564 H555 0.950 . S
C564 C563 1.398 . S
C564 C565 1.391 . S
C565 H553 0.950 . S
C565 C561 1.393 . S
C565 C564 1.391 . S
C566 H556 0.950 . S
C566 C567 1.386 . S
C566 C568 1.391 . S
C567 C566 1.386 . S
C567 C571 1.393 . S
C568 H557 0.950 . S
C568 C566 1.391 . S
C568 C569 1.400 . S
C569 C563 1.491 . S
C569 C568 1.400 . S
C569 C570 1.398 . S
C570 H558 0.950 . S
C570 C569 1.398 . S
C570 C571 1.391 . S
C571 H559 0.950 . S
C571 C567 1.393 . S
C571 C570 1.391 . S
H572 C580 0.950 . S
H573 C585 0.950 . S
H574 C582 0.950 . S
H575 C584 0.950 . S
H576 C586 0.950 . S
H577 C588 0.950 . S
H578 C590 0.950 . S
H579 C591 0.950 . S
C580 H572 0.950 . S
C580 C581 1.386 . S
C580 C582 1.391 . S
C581 C580 1.386 . S
C581 C585 1.393 . S
C582 H574 0.950 . S
C582 C580 1.391 . S
C582 C583 1.400 . S
C583 C582 1.400 . S
C583 C584 1.398 . S
C583 C589 1.491 . S
C584 H575 0.950 . S
C584 C583 1.398 . S
C584 C585 1.391 . S
C585 H573 0.950 . S
C585 C581 1.393 . S
C585 C584 1.391 . S
C586 H576 0.950 . S
C586 C587 1.386 . S
C586 C588 1.391 . S
C587 C586 1.386 . S
C587 C591 1.393 . S
C588 H577 0.950 . S
C588 C586 1.391 . S
C588 C589 1.400 . S
C589 C583 1.491 . S
C589 C588 1.400 . S
C589 C590 1.398 . S
C590 H578 0.950 . S
C590 C589 1.398 . S
C590 C591 1.391 . S
C591 H579 0.950 . S
C591 C587 1.393 . S
C591 C590 1.391 . S
H592 C600 0.950 . S
H593 C605 0.950 . S
H594 C602 0.950 . S
H595 C604 0.950 . S
H596 C606 0.950 . S
H597 C608 0.950 . S
H598 C610 0.950 . S
H599 C611 0.950 . S
C600 H592 0.950 . S
C600 C601 1.386 . S
C600 C602 1.391 . S
C601 C600 1.386 . S
C601 C605 1.393 . S
C602 H594 0.950 . S
C602 C600 1.391 . S
C602 C603 1.400 . S
C603 C602 1.400 . S
C603 C604 1.398 . S
C603 C609 1.491 . S
C604 H595 0.950 . S
C604 C603 1.398 . S
C604 C605 1.391 . S
C605 H593 0.950 . S
C605 C601 1.393 . S
C605 C604 1.391 . S
C606 H596 0.950 . S
C606 C607 1.386 . S
C606 C608 1.391 . S
C607 C606 1.386 . S
C607 C611 1.393 . S
C608 H597 0.950 . S
C608 C606 1.391 . S
C608 C609 1.400 . S
C609 C603 1.491 . S
C609 C608 1.400 . S
C609 C610 1.398 . S
C610 H598 0.950 . S
C610 C609 1.398 . S
C610 C611 1.391 . S
C611 H599 0.950 . S
C611 C607 1.393 . S
C611 C610 1.391 . S
H612 C620 0.950 . S
H613 C625 0.950 . S
H614 C622 0.950 . S
H615 C624 0.950 . S
H616 C626 0.950 . S
H617 C628 0.950 . S
H618 C630 0.950 . S
H619 C631 0.950 . S
C620 H612 0.950 . S
C620 C621 1.386 . S
C620 C622 1.391 . S
C621 C620 1.386 . S
C621 C625 1.393 . S
C622 H614 0.950 . S
C622 C620 1.391 . S
C622 C623 1.400 . S
C623 C622 1.400 . S
C623 C624 1.398 . S
C623 C629 1.491 . S
C624 H615 0.950 . S
C624 C623 1.398 . S
C624 C625 1.391 . S
C625 H613 0.950 . S
C625 C621 1.393 . S
C625 C624 1.391 . S
C626 H616 0.950 . S
C626 C627 1.386 . S
C626 C628 1.391 . S
C627 C626 1.386 . S
C627 C631 1.393 . S
C628 H617 0.950 . S
C628 C626 1.391 . S
C628 C629 1.400 . S
C629 C623 1.491 . S
C629 C628 1.400 . S
C629 C630 1.398 . S
C630 H618 0.950 . S
C630 C629 1.398 . S
C630 C631 1.391 . S
C631 H619 0.950 . S
C631 C627 1.393 . S
C631 C630 1.391 . S
H632 C640 0.950 . S
H633 C645 0.950 . S
H634 C642 0.950 . S
H635 C644 0.950 . S
H636 C646 0.950 . S
H637 C648 0.950 . S
H638 C650 0.950 . S
H639 C651 0.950 . S
C640 H632 0.950 . S
C640 C641 1.386 . S
C640 C642 1.391 . S
C641 C640 1.386 . S
C641 C645 1.393 . S
C642 H634 0.950 . S
C642 C640 1.391 . S
C642 C643 1.400 . S
C643 C642 1.400 . S
C643 C644 1.398 . S
C643 C649 1.491 . S
C644 H635 0.950 . S
C644 C643 1.398 . S
C644 C645 1.391 . S
C645 H633 0.950 . S
C645 C641 1.393 . S
C645 C644 1.391 . S
C646 H636 0.950 . S
C646 C647 1.386 . S
C646 C648 1.391 . S
C647 C646 1.386 . S
C647 C651 1.393 . S
C648 H637 0.950 . S
C648 C646 1.391 . S
C648 C649 1.400 . S
C649 C643 1.491 . S
C649 C648 1.400 . S
C649 C650 1.398 . S
C650 H638 0.950 . S
C650 C649 1.398 . S
C650 C651 1.391 . S
C651 H639 0.950 . S
C651 C647 1.393 . S
C651 C650 1.391 . S
H652 C660 0.950 . S
H653 C665 0.950 . S
H654 C662 0.950 . S
H655 C664 0.950 . S
H656 C666 0.950 . S
H657 C668 0.950 . S
H658 C670 0.950 . S
H659 C671 0.950 . S
C660 H652 0.950 . S
C660 C661 1.386 . S
C660 C662 1.391 . S
C661 C660 1.386 . S
C661 C665 1.393 . S
C662 H654 0.950 . S
C662 C660 1.391 . S
C662 C663 1.400 . S
C663 C662 1.400 . S
C663 C664 1.398 . S
C663 C669 1.491 . S
C664 H655 0.950 . S
C664 C663 1.398 . S
C664 C665 1.391 . S
C665 H653 0.950 . S
C665 C661 1.393 . S
C665 C664 1.391 . S
C666 H656 0.950 . S
C666 C667 1.386 . S
C666 C668 1.391 . S
C667 C666 1.386 . S
C667 C671 1.393 . S
C668 H657 0.950 . S
C668 C666 1.391 . S
C668 C669 1.400 . S
C669 C663 1.491 . S
C669 C668 1.400 . S
C669 C670 1.398 . S
C670 H658 0.950 . S
C670 C669 1.398 . S
C670 C671 1.391 . S
C671 H659 0.950 . S
C671 C667 1.393 . S
C671 C670 1.391 . S
H672 C680 0.950 . S
H673 C685 0.950 . S
H674 C682 0.950 . S
H675 C684 0.950 . S
H676 C686 0.950 . S
H677 C688 0.950 . S
H678 C690 0.950 . S
H679 C691 0.950 . S
C680 H672 0.950 . S
C680 C681 1.386 . S
C680 C682 1.391 . S
C681 C680 1.386 . S
C681 C685 1.393 . S
C682 H674 0.950 . S
C682 C680 1.391 . S
C682 C683 1.400 . S
C683 C682 1.400 . S
C683 C684 1.398 . S
C683 C689 1.491 . S
C684 H675 0.950 . S
C684 C683 1.398 . S
C684 C685 1.391 . S
C685 H673 0.950 . S
C685 C681 1.393 . S
C685 C684 1.391 . S
C686 H676 0.950 . S
C686 C687 1.386 . S
C686 C688 1.391 . S
C687 C686 1.386 . S
C687 C691 1.393 . S
C688 H677 0.950 . S
C688 C686 1.391 . S
C688 C689 1.400 . S
C689 C683 1.491 . S
C689 C688 1.400 . S
C689 C690 1.398 . S
C690 H678 0.950 . S
C690 C689 1.398 . S
C690 C691 1.391 . S
C691 H679 0.950 . S
C691 C687 1.393 . S
C691 C690 1.391 . S
H692 C700 0.950 . S
H693 C705 0.950 . S
H694 C702 0.950 . S
H695 C704 0.950 . S
H696 C706 0.950 . S
H697 C708 0.950 . S
H698 C710 0.950 . S
H699 C711 0.950 . S
C700 H692 0.950 . S
C700 C701 1.386 . S
C700 C702 1.391 . S
C701 C700 1.386 . S
C701 C705 1.393 . S
C702 H694 0.950 . S
C702 C700 1.391 . S
C702 C703 1.400 . S
C703 C702 1.400 . S
C703 C704 1.398 . S
C703 C709 1.491 . S
C704 H695 0.950 . S
C704 C703 1.398 . S
C704 C705 1.391 . S
C705 H693 0.950 . S
C705 C701 1.393 . S
C705 C704 1.391 . S
C706 H696 0.950 . S
C706 C707 1.386 . S
C706 C708 1.391 . S
C707 C706 1.386 . S
C707 C711 1.393 . S
C708 H697 0.950 . S
C708 C706 1.391 . S
C708 C709 1.400 . S
C709 C703 1.491 . S
C709 C708 1.400 . S
C709 C710 1.398 . S
C710 H698 0.950 . S
C710 C709 1.398 . S
C710 C711 1.391 . S
C711 H699 0.950 . S
C711 C707 1.393 . S
C711 C710 1.391 . S
H712 C720 0.950 . S
H713 C725 0.950 . S
H714 C722 0.950 . S
H715 C724 0.950 . S
H716 C726 0.950 . S
H717 C728 0.950 . S
H718 C730 0.950 . S
H719 C731 0.950 . S
C720 H712 0.950 . S
C720 C721 1.386 . S
C720 C722 1.391 . S
C721 C720 1.386 . S
C721 C725 1.393 . S
C722 H714 0.950 . S
C722 C720 1.391 . S
C722 C723 1.400 . S
C723 C722 1.400 . S
C723 C724 1.398 . S
C723 C729 1.491 . S
C724 H715 0.950 . S
C724 C723 1.398 . S
C724 C725 1.391 . S
C725 H713 0.950 . S
C725 C721 1.393 . S
C725 C724 1.391 . S
C726 H716 0.950 . S
C726 C727 1.386 . S
C726 C728 1.391 . S
C727 C726 1.386 . S
C727 C731 1.393 . S
C728 H717 0.950 . S
C728 C726 1.391 . S
C728 C729 1.400 . S
C729 C723 1.491 . S
C729 C728 1.400 . S
C729 C730 1.398 . S
C730 H718 0.950 . S
C730 C729 1.398 . S
C730 C731 1.391 . S
C731 H719 0.950 . S
C731 C727 1.393 . S
C731 C730 1.391 . S
H732 C740 0.950 . S
H733 C745 0.950 . S
H734 C742 0.950 . S
H735 C744 0.950 . S
H736 C746 0.950 . S
H737 C748 0.950 . S
H738 C750 0.950 . S
H739 C751 0.950 . S
C740 H732 0.950 . S
C740 C741 1.386 . S
C740 C742 1.391 . S
C741 C740 1.386 . S
C741 C745 1.393 . S
C742 H734 0.950 . S
C742 C740 1.391 . S
C742 C743 1.400 . S
C743 C742 1.400 . S
C743 C744 1.398 . S
C743 C749 1.491 . S
C744 H735 0.950 . S
C744 C743 1.398 . S
C744 C745 1.391 . S
C745 H733 0.950 . S
C745 C741 1.393 . S
C745 C744 1.391 . S
C746 H736 0.950 . S
C746 C747 1.386 . S
C746 C748 1.391 . S
C747 C746 1.386 . S
C747 C751 1.393 . S
C748 H737 0.950 . S
C748 C746 1.391 . S
C748 C749 1.400 . S
C749 C743 1.491 . S
C749 C748 1.400 . S
C749 C750 1.398 . S
C750 H738 0.950 . S
C750 C749 1.398 . S
C750 C751 1.391 . S
C751 H739 0.950 . S
C751 C747 1.393 . S
C751 C750 1.391 . S
H752 C760 0.950 . S
H753 C765 0.950 . S
H754 C762 0.950 . S
H755 C764 0.950 . S
H756 C766 0.950 . S
H757 C768 0.950 . S
H758 C770 0.950 . S
H759 C771 0.950 . S
C760 H752 0.950 . S
C760 C761 1.386 . S
C760 C762 1.391 . S
C761 C760 1.386 . S
C761 C765 1.393 . S
C762 H754 0.950 . S
C762 C760 1.391 . S
C762 C763 1.400 . S
C763 C762 1.400 . S
C763 C764 1.398 . S
C763 C769 1.491 . S
C764 H755 0.950 . S
C764 C763 1.398 . S
C764 C765 1.391 . S
C765 H753 0.950 . S
C765 C761 1.393 . S
C765 C764 1.391 . S
C766 H756 0.950 . S
C766 C767 1.386 . S
C766 C768 1.391 . S
C767 C766 1.386 . S
C767 C771 1.393 . S
C768 H757 0.950 . S
C768 C766 1.391 . S
C768 C769 1.400 . S
C769 C763 1.491 . S
C769 C768 1.400 . S
C769 C770 1.398 . S
C770 H758 0.950 . S
C770 C769 1.398 . S
C770 C771 1.391 . S
C771 H759 0.950 . S
C771 C767 1.393 . S
C771 C770 1.391 . S
H772 C780 0.950 . S
H773 C785 0.950 . S
H774 C782 0.950 . S
H775 C784 0.950 . S
H776 C786 0.950 . S
H777 C788 0.950 . S
H778 C790 0.950 . S
H779 C791 0.950 . S
C780 H772 0.950 . S
C780 C781 1.386 . S
C780 C782 1.391 . S
C781 C780 1.386 . S
C781 C785 1.393 . S
C782 H774 0.950 . S
C782 C780 1.391 . S
C782 C783 1.400 . S
C783 C782 1.400 . S
C783 C784 1.398 . S
C783 C789 1.491 . S
C784 H775 0.950 . S
C784 C783 1.398 . S
C784 C785 1.391 . S
C785 H773 0.950 . S
C785 C781 1.393 . S
C785 C784 1.391 . S
C786 H776 0.950 . S
C786 C787 1.386 . S
C786 C788 1.391 . S
C787 C786 1.386 . S
C787 C791 1.393 . S
C788 H777 0.950 . S
C788 C786 1.391 . S
C788 C789 1.400 . S
C789 C783 1.491 . S
C789 C788 1.400 . S
C789 C790 1.398 . S
C790 H778 0.950 . S
C790 C789 1.398 . S
C790 C791 1.391 . S
C791 H779 0.950 . S
C791 C787 1.393 . S
C791 C790 1.391 . S
H792 C800 0.950 . S
H793 C805 0.950 . S
H794 C802 0.950 . S
H795 C804 0.950 . S
H796 C806 0.950 . S
H797 C808 0.950 . S
H798 C810 0.950 . S
H799 C811 0.950 . S
C800 H792 0.950 . S
C800 C801 1.386 . S
C800 C802 1.391 . S
C801 C800 1.386 . S
C801 C805 1.393 . S
C802 H794 0.950 . S
C802 C800 1.391 . S
C802 C803 1.400 . S
C803 C802 1.400 . S
C803 C804 1.398 . S
C803 C809 1.491 . S
C804 H795 0.950 . S
C804 C803 1.398 . S
C804 C805 1.391 . S
C805 H793 0.950 . S
C805 C801 1.393 . S
C805 C804 1.391 . S
C806 H796 0.950 . S
C806 C807 1.386 . S
C806 C808 1.391 . S
C807 C806 1.386 . S
C807 C811 1.393 . S
C808 H797 0.950 . S
C808 C806 1.391 . S
C808 C809 1.400 . S
C809 C803 1.491 . S
C809 C808 1.400 . S
C809 C810 1.398 . S
C810 H798 0.950 . S
C810 C809 1.398 . S
C810 C811 1.391 . S
C811 H799 0.950 . S
C811 C807 1.393 . S
C811 C810 1.391 . S
H812 C820 0.950 . S
H813 C825 0.950 . S
H814 C822 0.950 . S
H815 C824 0.950 . S
H816 C826 0.950 . S
H817 C828 0.950 . S
H818 C830 0.950 . S
H819 C831 0.950 . S
C820 H812 0.950 . S
C820 C821 1.386 . S
C820 C822 1.391 . S
C821 C820 1.386 . S
C821 C825 1.393 . S
C822 H814 0.950 . S
C822 C820 1.391 . S
C822 C823 1.400 . S
C823 C822 1.400 . S
C823 C824 1.398 . S
C823 C829 1.491 . S
C824 H815 0.950 . S
C824 C823 1.398 . S
C824 C825 1.391 . S
C825 H813 0.950 . S
C825 C821 1.393 . S
C825 C824 1.391 . S
C826 H816 0.950 . S
C826 C827 1.386 . S
C826 C828 1.391 . S
C827 C826 1.386 . S
C827 C831 1.393 . S
C828 H817 0.950 . S
C828 C826 1.391 . S
C828 C829 1.400 . S
C829 C823 1.491 . S
C829 C828 1.400 . S
C829 C830 1.398 . S
C830 H818 0.950 . S
C830 C829 1.398 . S
C830 C831 1.391 . S
C831 H819 0.950 . S
C831 C827 1.393 . S
C831 C830 1.391 . S
H832 C840 0.950 . S
H833 C845 0.950 . S
H834 C842 0.950 . S
H835 C844 0.950 . S
H836 C846 0.950 . S
H837 C848 0.950 . S
H838 C850 0.950 . S
H839 C851 0.950 . S
C840 H832 0.950 . S
C840 C841 1.386 . S
C840 C842 1.391 . S
C841 C840 1.386 . S
C841 C845 1.393 . S
C842 H834 0.950 . S
C842 C840 1.391 . S
C842 C843 1.400 . S
C843 C842 1.400 . S
C843 C844 1.398 . S
C843 C849 1.491 1_565 S
C844 H835 0.950 . S
C844 C843 1.398 . S
C844 C845 1.391 . S
C845 H833 0.950 . S
C845 C841 1.393 . S
C845 C844 1.391 . S
C846 H836 0.950 . S
C846 C847 1.386 . S
C846 C848 1.391 . S
C847 C846 1.386 . S
C847 C851 1.393 . S
C848 H837 0.950 . S
C848 C846 1.391 . S
C848 C849 1.400 . S
C849 C843 1.491 1_545 S
C849 C848 1.400 . S
C849 C850 1.398 . S
C850 H838 0.950 . S
C850 C849 1.398 . S
C850 C851 1.391 . S
C851 H839 0.950 . S
C851 C847 1.393 . S
C851 C850 1.391 . S
H852 C860 0.950 . S
H853 C865 0.950 . S
H854 C862 0.950 . S
H855 C864 0.950 . S
H856 C866 0.950 . S
H857 C868 0.950 . S
H858 C870 0.950 . S
H859 C871 0.950 . S
C860 H852 0.950 . S
C860 C861 1.386 . S
C860 C862 1.391 . S
C861 C860 1.386 . S
C861 C865 1.393 . S
C862 H854 0.950 . S
C862 C860 1.391 . S
C862 C863 1.400 . S
C863 C862 1.400 . S
C863 C864 1.398 . S
C863 C869 1.491 1_455 S
C864 H855 0.950 . S
C864 C863 1.398 . S
C864 C865 1.391 . S
C865 H853 0.950 . S
C865 C861 1.393 . S
C865 C864 1.391 . S
C866 H856 0.950 . S
C866 C867 1.386 . S
C866 C868 1.391 . S
C867 C866 1.386 . S
C867 C871 1.393 . S
C868 H857 0.950 . S
C868 C866 1.391 . S
C868 C869 1.400 . S
C869 C863 1.491 1_655 S
C869 C868 1.400 . S
C869 C870 1.398 . S
C870 H858 0.950 . S
C870 C869 1.398 . S
C870 C871 1.391 . S
C871 H859 0.950 . S
C871 C867 1.393 . S
C871 C870 1.391 . S
H872 C880 0.950 . S
H873 C885 0.950 . S
H874 C882 0.950 . S
H875 C884 0.950 . S
H876 C886 0.950 . S
H877 C888 0.950 . S
H878 C890 0.950 . S
H879 C891 0.950 . S
C880 H872 0.950 . S
C880 C881 1.386 . S
C880 C882 1.391 . S
C881 C880 1.386 . S
C881 C885 1.393 . S
C882 H874 0.950 . S
C882 C880 1.391 . S
C882 C883 1.400 . S
C883 C882 1.400 . S
C883 C884 1.398 . S
C883 C889 1.491 1_565 S
C884 H875 0.950 . S
C884 C883 1.398 . S
C884 C885 1.391 . S
C885 H873 0.950 . S
C885 C881 1.393 . S
C885 C884 1.391 . S
C886 H876 0.950 . S
C886 C887 1.386 . S
C886 C888 1.391 . S
C887 C886 1.386 . S
C887 C891 1.393 . S
C888 H877 0.950 . S
C888 C886 1.391 . S
C888 C889 1.400 . S
C889 C883 1.491 1_545 S
C889 C888 1.400 . S
C889 C890 1.398 . S
C890 H878 0.950 . S
C890 C889 1.398 . S
C890 C891 1.391 . S
C891 H879 0.950 . S
C891 C887 1.393 . S
C891 C890 1.391 . S
H892 C900 0.950 . S
H893 C905 0.950 . S
H894 C902 0.950 . S
H895 C904 0.950 . S
H896 C906 0.950 . S
H897 C908 0.950 . S
H898 C910 0.950 . S
H899 C911 0.950 . S
C900 H892 0.950 . S
C900 C901 1.386 . S
C900 C902 1.391 . S
C901 C900 1.386 . S
C901 C905 1.393 . S
C902 H894 0.950 . S
C902 C900 1.391 . S
C902 C903 1.400 . S
C903 C902 1.400 . S
C903 C904 1.398 . S
C903 C909 1.491 1_655 S
C904 H895 0.950 . S
C904 C903 1.398 . S
C904 C905 1.391 . S
C905 H893 0.950 . S
C905 C901 1.393 . S
C905 C904 1.391 . S
C906 H896 0.950 . S
C906 C907 1.386 . S
C906 C908 1.391 . S
C907 C906 1.386 . S
C907 C911 1.393 . S
C908 H897 0.950 . S
C908 C906 1.391 . S
C908 C909 1.400 . S
C909 C903 1.491 1_455 S
C909 C908 1.400 . S
C909 C910 1.398 . S
C910 H898 0.950 . S
C910 C909 1.398 . S
C910 C911 1.391 . S
C911 H899 0.950 . S
C911 C907 1.393 . S
C911 C910 1.391 . S
H912 C920 0.950 . S
H913 C925 0.950 . S
H914 C922 0.950 . S
H915 C924 0.950 . S
H916 C926 0.950 . S
H917 C928 0.950 . S
H918 C930 0.950 . S
H919 C931 0.950 . S
C920 H912 0.950 . S
C920 C921 1.386 . S
C920 C922 1.391 . S
C921 C920 1.386 . S
C921 C925 1.393 . S
C922 H914 0.950 . S
C922 C920 1.391 . S
C922 C923 1.400 . S
C923 C922 1.400 . S
C923 C924 1.398 . S
C923 C929 1.491 . S
C924 H915 0.950 . S
C924 C923 1.398 . S
C924 C925 1.391 . S
C925 H913 0.950 . S
C925 C921 1.393 . S
C925 C924 1.391 . S
C926 H916 0.950 . S
C926 C927 1.386 . S
C926 C928 1.391 . S
C927 C926 1.386 . S
C927 C931 1.393 . S
C928 H917 0.950 . S
C928 C926 1.391 . S
C928 C929 1.400 . S
C929 C923 1.491 . S
C929 C928 1.400 . S
C929 C930 1.398 . S
C930 H918 0.950 . S
C930 C929 1.398 . S
C930 C931 1.391 . S
C931 H919 0.950 . S
C931 C927 1.393 . S
C931 C930 1.391 . S
H932 C940 0.950 . S
H933 C945 0.950 . S
H934 C942 0.950 . S
H935 C944 0.950 . S
H936 C946 0.950 . S
H937 C948 0.950 . S
H938 C950 0.950 . S
H939 C951 0.950 . S
C940 H932 0.950 . S
C940 C941 1.386 . S
C940 C942 1.391 . S
C941 C940 1.386 . S
C941 C945 1.393 . S
C942 H934 0.950 . S
C942 C940 1.391 . S
C942 C943 1.400 . S
C943 C942 1.400 . S
C943 C944 1.398 . S
C943 C949 1.491 . S
C944 H935 0.950 . S
C944 C943 1.398 . S
C944 C945 1.391 . S
C945 H933 0.950 . S
C945 C941 1.393 . S
C945 C944 1.391 . S
C946 H936 0.950 . S
C946 C947 1.386 . S
C946 C948 1.391 . S
C947 C946 1.386 . S
C947 C951 1.393 . S
C948 H937 0.950 . S
C948 C946 1.391 . S
C948 C949 1.400 . S
C949 C943 1.491 . S
C949 C948 1.400 . S
C949 C950 1.398 . S
C950 H938 0.950 . S
C950 C949 1.398 . S
C950 C951 1.391 . S
C951 H939 0.950 . S
C951 C947 1.393 . S
C951 C950 1.391 . S
H952 C960 0.950 . S
H953 C965 0.950 . S
H954 C962 0.950 . S
H955 C964 0.950 . S
H956 C966 0.950 . S
H957 C968 0.950 . S
H958 C970 0.950 . S
H959 C971 0.950 . S
C960 H952 0.950 . S
C960 C961 1.386 . S
C960 C962 1.391 . S
C961 C960 1.386 . S
C961 C965 1.393 . S
C962 H954 0.950 . S
C962 C960 1.391 . S
C962 C963 1.400 . S
C963 C962 1.400 . S
C963 C964 1.398 . S
C963 C969 1.491 . S
C964 H955 0.950 . S
C964 C963 1.398 . S
C964 C965 1.391 . S
C965 H953 0.950 . S
C965 C961 1.393 . S
C965 C964 1.391 . S
C966 H956 0.950 . S
C966 C967 1.386 . S
C966 C968 1.391 . S
C967 C966 1.386 . S
C967 C971 1.393 . S
C968 H957 0.950 . S
C968 C966 1.391 . S
C968 C969 1.400 . S
C969 C963 1.491 . S
C969 C968 1.400 . S
C969 C970 1.398 . S
C970 H958 0.950 . S
C970 C969 1.398 . S
C970 C971 1.391 . S
C971 H959 0.950 . S
C971 C967 1.393 . S
C971 C970 1.391 . S
H972 C980 0.950 . S
H973 C985 0.950 . S
H974 C982 0.950 . S
H975 C984 0.950 . S
H976 C986 0.950 . S
H977 C988 0.950 . S
H978 C990 0.950 . S
H979 C991 0.950 . S
C980 H972 0.950 . S
C980 C981 1.386 . S
C980 C982 1.391 . S
C981 C980 1.386 . S
C981 C985 1.393 . S
C982 H974 0.950 . S
C982 C980 1.391 . S
C982 C983 1.400 . S
C983 C982 1.400 . S
C983 C984 1.398 . S
C983 C989 1.491 1_554 S
C984 H975 0.950 . S
C984 C983 1.398 . S
C984 C985 1.391 . S
C985 H973 0.950 . S
C985 C981 1.393 . S
C985 C984 1.391 . S
C986 H976 0.950 . S
C986 C987 1.386 . S
C986 C988 1.391 . S
C987 C986 1.386 . S
C987 C991 1.393 . S
C988 H977 0.950 . S
C988 C986 1.391 . S
C988 C989 1.400 . S
C989 C983 1.491 1_556 S
C989 C988 1.400 . S
C989 C990 1.398 . S
C990 H978 0.950 . S
C990 C989 1.398 . S
C990 C991 1.391 . S
C991 H979 0.950 . S
C991 C987 1.393 . S
C991 C990 1.391 . S
H992 C1000 0.950 . S
H993 C1005 0.950 . S
H994 C1002 0.950 . S
H995 C1004 0.950 . S
H996 C1006 0.950 . S
H997 C1008 0.950 . S
H998 C1010 0.950 . S
H999 C1011 0.950 . S
C1000 H992 0.950 . S
C1000 C1001 1.386 . S
C1000 C1002 1.391 . S
C1001 C1000 1.386 . S
C1001 C1005 1.393 . S
C1002 H994 0.950 . S
C1002 C1000 1.391 . S
C1002 C1003 1.400 . S
C1003 C1002 1.400 . S
C1003 C1004 1.398 . S
C1003 C1009 1.491 . S
C1004 H995 0.950 . S
C1004 C1003 1.398 . S
C1004 C1005 1.391 . S
C1005 H993 0.950 . S
C1005 C1001 1.393 . S
C1005 C1004 1.391 . S
C1006 H996 0.950 . S
C1006 C1007 1.386 . S
C1006 C1008 1.391 . S
C1007 C1006 1.386 . S
C1007 C1011 1.393 . S
C1008 H997 0.950 . S
C1008 C1006 1.391 . S
C1008 C1009 1.400 . S
C1009 C1003 1.491 . S
C1009 C1008 1.400 . S
C1009 C1010 1.398 . S
C1010 H998 0.950 . S
C1010 C1009 1.398 . S
C1010 C1011 1.391 . S
C1011 H999 0.950 . S
C1011 C1007 1.393 . S
C1011 C1010 1.391 . S
H1012 C1020 0.950 . S
H1013 C1025 0.950 . S
H1014 C1022 0.950 . S
H1015 C1024 0.950 . S
H1016 C1026 0.950 . S
H1017 C1028 0.950 . S
H1018 C1030 0.950 . S
H1019 C1031 0.950 . S
C1020 H1012 0.950 . S
C1020 C1021 1.386 . S
C1020 C1022 1.391 . S
C1021 C1020 1.386 . S
C1021 C1025 1.393 . S
C1022 H1014 0.950 . S
C1022 C1020 1.391 . S
C1022 C1023 1.400 . S
C1023 C1022 1.400 . S
C1023 C1024 1.398 . S
C1023 C1029 1.491 1_556 S
C1024 H1015 0.950 . S
C1024 C1023 1.398 . S
C1024 C1025 1.391 . S
C1025 H1013 0.950 . S
C1025 C1021 1.393 . S
C1025 C1024 1.391 . S
C1026 H1016 0.950 . S
C1026 C1027 1.386 . S
C1026 C1028 1.391 . S
C1027 C1026 1.386 . S
C1027 C1031 1.393 . S
C1028 H1017 0.950 . S
C1028 C1026 1.391 . S
C1028 C1029 1.400 . S
C1029 C1023 1.491 1_554 S
C1029 C1028 1.400 . S
C1029 C1030 1.398 . S
C1030 H1018 0.950 . S
C1030 C1029 1.398 . S
C1030 C1031 1.391 . S
C1031 H1019 0.950 . S
C1031 C1027 1.393 . S
C1031 C1030 1.391 . S
H1032 C1040 0.950 . S
H1033 C1045 0.950 . S
H1034 C1042 0.950 . S
H1035 C1044 0.950 . S
H1036 C1046 0.950 . S
H1037 C1048 0.950 . S
H1038 C1050 0.950 . S
H1039 C1051 0.950 . S
C1040 H1032 0.950 . S
C1040 C1041 1.386 . S
C1040 C1042 1.391 . S
C1041 C1040 1.386 . S
C1041 C1045 1.393 . S
C1042 H1034 0.950 . S
C1042 C1040 1.391 . S
C1042 C1043 1.400 . S
C1043 C1042 1.400 . S
C1043 C1044 1.398 . S
C1043 C1049 1.491 . S
C1044 H1035 0.950 . S
C1044 C1043 1.398 . S
C1044 C1045 1.391 . S
C1045 H1033 0.950 . S
C1045 C1041 1.393 . S
C1045 C1044 1.391 . S
C1046 H1036 0.950 . S
C1046 C1047 1.386 . S
C1046 C1048 1.391 . S
C1047 C1046 1.386 . S
C1047 C1051 1.393 . S
C1048 H1037 0.950 . S
C1048 C1046 1.391 . S
C1048 C1049 1.400 . S
C1049 C1043 1.491 . S
C1049 C1048 1.400 . S
C1049 C1050 1.398 . S
C1050 H1038 0.950 . S
C1050 C1049 1.398 . S
C1050 C1051 1.391 . S
C1051 H1039 0.950 . S
C1051 C1047 1.393 . S
C1051 C1050 1.391 . S
H1052 C1060 0.950 . S
H1053 C1065 0.950 . S
H1054 C1062 0.950 . S
H1055 C1064 0.950 . S
H1056 C1066 0.950 . S
H1057 C1068 0.950 . S
H1058 C1070 0.950 . S
H1059 C1071 0.950 . S
C1060 H1052 0.950 . S
C1060 C1061 1.386 . S
C1060 C1062 1.391 . S
C1061 C1060 1.386 . S
C1061 C1065 1.393 . S
C1062 H1054 0.950 . S
C1062 C1060 1.391 . S
C1062 C1063 1.400 . S
C1063 C1062 1.400 . S
C1063 C1064 1.398 . S
C1063 C1069 1.491 . S
C1064 H1055 0.950 . S
C1064 C1063 1.398 . S
C1064 C1065 1.391 . S
C1065 H1053 0.950 . S
C1065 C1061 1.393 . S
C1065 C1064 1.391 . S
C1066 H1056 0.950 . S
C1066 C1067 1.386 . S
C1066 C1068 1.391 . S
C1067 C1066 1.386 . S
C1067 C1071 1.393 . S
C1068 H1057 0.950 . S
C1068 C1066 1.391 . S
C1068 C1069 1.400 . S
C1069 C1063 1.491 . S
C1069 C1068 1.400 . S
C1069 C1070 1.398 . S
C1070 H1058 0.950 . S
C1070 C1069 1.398 . S
C1070 C1071 1.391 . S
C1071 H1059 0.950 . S
C1071 C1067 1.393 . S
C1071 C1070 1.391 . S
H1072 C1080 0.950 . S
H1073 C1085 0.950 . S
H1074 C1082 0.950 . S
H1075 C1084 0.950 . S
H1076 C1086 0.950 . S
H1077 C1088 0.950 . S
H1078 C1090 0.950 . S
H1079 C1091 0.950 . S
C1080 H1072 0.950 . S
C1080 C1081 1.386 . S
C1080 C1082 1.391 . S
C1081 C1080 1.386 . S
C1081 C1085 1.393 . S
C1082 H1074 0.950 . S
C1082 C1080 1.391 . S
C1082 C1083 1.400 . S
C1083 C1082 1.400 . S
C1083 C1084 1.398 . S
C1083 C1089 1.491 1_545 S
C1084 H1075 0.950 . S
C1084 C1083 1.398 . S
C1084 C1085 1.391 . S
C1085 H1073 0.950 . S
C1085 C1081 1.393 . S
C1085 C1084 1.391 . S
C1086 H1076 0.950 . S
C1086 C1087 1.386 . S
C1086 C1088 1.391 . S
C1087 C1086 1.386 . S
C1087 C1091 1.393 . S
C1088 H1077 0.950 . S
C1088 C1086 1.391 . S
C1088 C1089 1.400 . S
C1089 C1083 1.491 1_565 S
C1089 C1088 1.400 . S
C1089 C1090 1.398 . S
C1090 H1078 0.950 . S
C1090 C1089 1.398 . S
C1090 C1091 1.391 . S
C1091 H1079 0.950 . S
C1091 C1087 1.393 . S
C1091 C1090 1.391 . S
H1092 C1100 0.950 . S
H1093 C1105 0.950 . S
H1094 C1102 0.950 . S
H1095 C1104 0.950 . S
H1096 C1106 0.950 . S
H1097 C1108 0.950 . S
H1098 C1110 0.950 . S
H1099 C1111 0.950 . S
C1100 H1092 0.950 . S
C1100 C1101 1.386 . S
C1100 C1102 1.391 . S
C1101 C1100 1.386 . S
C1101 C1105 1.393 . S
C1102 H1094 0.950 . S
C1102 C1100 1.391 . S
C1102 C1103 1.400 . S
C1103 C1102 1.400 . S
C1103 C1104 1.398 . S
C1103 C1109 1.491 1_455 S
C1104 H1095 0.950 . S
C1104 C1103 1.398 . S
C1104 C1105 1.391 . S
C1105 H1093 0.950 . S
C1105 C1101 1.393 . S
C1105 C1104 1.391 . S
C1106 H1096 0.950 . S
C1106 C1107 1.386 . S
C1106 C1108 1.391 . S
C1107 C1106 1.386 . S
C1107 C1111 1.393 . S
C1108 H1097 0.950 . S
C1108 C1106 1.391 . S
C1108 C1109 1.400 . S
C1109 C1103 1.491 1_655 S
C1109 C1108 1.400 . S
C1109 C1110 1.398 . S
C1110 H1098 0.950 . S
C1110 C1109 1.398 . S
C1110 C1111 1.391 . S
C1111 H1099 0.950 . S
C1111 C1107 1.393 . S
C1111 C1110 1.391 . S
H1112 C1120 0.950 . S
H1113 C1125 0.950 . S
H1114 C1122 0.950 . S
H1115 C1124 0.950 . S
H1116 C1126 0.950 . S
H1117 C1128 0.950 . S
H1118 C1130 0.950 . S
H1119 C1131 0.950 . S
C1120 H1112 0.950 . S
C1120 C1121 1.386 . S
C1120 C1122 1.391 . S
C1121 C1120 1.386 . S
C1121 C1125 1.393 . S
C1122 H1114 0.950 . S
C1122 C1120 1.391 . S
C1122 C1123 1.400 . S
C1123 C1122 1.400 . S
C1123 C1124 1.398 . S
C1123 C1129 1.491 1_545 S
C1124 H1115 0.950 . S
C1124 C1123 1.398 . S
C1124 C1125 1.391 . S
C1125 H1113 0.950 . S
C1125 C1121 1.393 . S
C1125 C1124 1.391 . S
C1126 H1116 0.950 . S
C1126 C1127 1.386 . S
C1126 C1128 1.391 . S
C1127 C1126 1.386 . S
C1127 C1131 1.393 . S
C1128 H1117 0.950 . S
C1128 C1126 1.391 . S
C1128 C1129 1.400 . S
C1129 C1123 1.491 1_565 S
C1129 C1128 1.400 . S
C1129 C1130 1.398 . S
C1130 H1118 0.950 . S
C1130 C1129 1.398 . S
C1130 C1131 1.391 . S
C1131 H1119 0.950 . S
C1131 C1127 1.393 . S
C1131 C1130 1.391 . S
H1132 C1140 0.950 . S
H1133 C1145 0.950 . S
H1134 C1142 0.950 . S
H1135 C1144 0.950 . S
H1136 C1146 0.950 . S
H1137 C1148 0.950 . S
H1138 C1150 0.950 . S
H1139 C1151 0.950 . S
C1140 H1132 0.950 . S
C1140 C1141 1.386 . S
C1140 C1142 1.391 . S
C1141 C1140 1.386 . S
C1141 C1145 1.393 . S
C1142 H1134 0.950 . S
C1142 C1140 1.391 . S
C1142 C1143 1.400 . S
C1143 C1142 1.400 . S
C1143 C1144 1.398 . S
C1143 C1149 1.491 1_455 S
C1144 H1135 0.950 . S
C1144 C1143 1.398 . S
C1144 C1145 1.391 . S
C1145 H1133 0.950 . S
C1145 C1141 1.393 . S
C1145 C1144 1.391 . S
C1146 H1136 0.950 . S
C1146 C1147 1.386 . S
C1146 C1148 1.391 . S
C1147 C1146 1.386 . S
C1147 C1151 1.393 . S
C1148 H1137 0.950 . S
C1148 C1146 1.391 . S
C1148 C1149 1.400 . S
C1149 C1143 1.491 1_655 S
C1149 C1148 1.400 . S
C1149 C1150 1.398 . S
C1150 H1138 0.950 . S
C1150 C1149 1.398 . S
C1150 C1151 1.391 . S
C1151 H1139 0.950 . S
C1151 C1147 1.393 . S
C1151 C1150 1.391 . S
H1152 C1160 0.950 . S
H1153 C1165 0.950 . S
H1154 C1162 0.950 . S
H1155 C1164 0.950 . S
H1156 C1166 0.950 . S
H1157 C1168 0.950 . S
H1158 C1170 0.950 . S
H1159 C1171 0.950 . S
C1160 H1152 0.950 . S
C1160 C1161 1.386 . S
C1160 C1162 1.391 . S
C1161 C1160 1.386 . S
C1161 C1165 1.393 . S
C1162 H1154 0.950 . S
C1162 C1160 1.391 . S
C1162 C1163 1.400 . S
C1163 C1162 1.400 . S
C1163 C1164 1.398 . S
C1163 C1169 1.491 . S
C1164 H1155 0.950 . S
C1164 C1163 1.398 . S
C1164 C1165 1.391 . S
C1165 H1153 0.950 . S
C1165 C1161 1.393 . S
C1165 C1164 1.391 . S
C1166 H1156 0.950 . S
C1166 C1167 1.386 . S
C1166 C1168 1.391 . S
C1167 C1166 1.386 . S
C1167 C1171 1.393 . S
C1168 H1157 0.950 . S
C1168 C1166 1.391 . S
C1168 C1169 1.400 . S
C1169 C1163 1.491 . S
C1169 C1168 1.400 . S
C1169 C1170 1.398 . S
C1170 H1158 0.950 . S
C1170 C1169 1.398 . S
C1170 C1171 1.391 . S
C1171 H1159 0.950 . S
C1171 C1167 1.393 . S
C1171 C1170 1.391 . S
H1172 C1180 0.950 . S
H1173 C1185 0.950 . S
H1174 C1182 0.950 . S
H1175 C1184 0.950 . S
H1176 C1186 0.950 . S
H1177 C1188 0.950 . S
H1178 C1190 0.950 . S
H1179 C1191 0.950 . S
C1180 H1172 0.950 . S
C1180 C1181 1.386 . S
C1180 C1182 1.391 . S
C1181 C1180 1.386 . S
C1181 C1185 1.393 . S
C1182 H1174 0.950 . S
C1182 C1180 1.391 . S
C1182 C1183 1.400 . S
C1183 C1182 1.400 . S
C1183 C1184 1.398 . S
C1183 C1189 1.491 . S
C1184 H1175 0.950 . S
C1184 C1183 1.398 . S
C1184 C1185 1.391 . S
C1185 H1173 0.950 . S
C1185 C1181 1.393 . S
C1185 C1184 1.391 . S
C1186 H1176 0.950 . S
C1186 C1187 1.386 . S
C1186 C1188 1.391 . S
C1187 C1186 1.386 . S
C1187 C1191 1.393 . S
C1188 H1177 0.950 . S
C1188 C1186 1.391 . S
C1188 C1189 1.400 . S
C1189 C1183 1.491 . S
C1189 C1188 1.400 . S
C1189 C1190 1.398 . S
C1190 H1178 0.950 . S
C1190 C1189 1.398 . S
C1190 C1191 1.391 . S
C1191 H1179 0.950 . S
C1191 C1187 1.393 . S
C1191 C1190 1.391 . S
H1192 C1200 0.950 . S
H1193 C1205 0.950 . S
H1194 C1202 0.950 . S
H1195 C1204 0.950 . S
H1196 C1206 0.950 . S
H1197 C1208 0.950 . S
H1198 C1210 0.950 . S
H1199 C1211 0.950 . S
C1200 H1192 0.950 . S
C1200 C1201 1.386 . S
C1200 C1202 1.391 . S
C1201 C1200 1.386 . S
C1201 C1205 1.393 . S
C1202 H1194 0.950 . S
C1202 C1200 1.391 . S
C1202 C1203 1.400 . S
C1203 C1202 1.400 . S
C1203 C1204 1.398 . S
C1203 C1209 1.491 . S
C1204 H1195 0.950 . S
C1204 C1203 1.398 . S
C1204 C1205 1.391 . S
C1205 H1193 0.950 . S
C1205 C1201 1.393 . S
C1205 C1204 1.391 . S
C1206 H1196 0.950 . S
C1206 C1207 1.386 . S
C1206 C1208 1.391 . S
C1207 C1206 1.386 . S
C1207 C1211 1.393 . S
C1208 H1197 0.950 . S
C1208 C1206 1.391 . S
C1208 C1209 1.400 . S
C1209 C1203 1.491 . S
C1209 C1208 1.400 . S
C1209 C1210 1.398 . S
C1210 H1198 0.950 . S
C1210 C1209 1.398 . S
C1210 C1211 1.391 . S
C1211 H1199 0.950 . S
C1211 C1207 1.393 . S
C1211 C1210 1.391 . S
H1212 C1220 0.950 . S
H1213 C1225 0.950 . S
H1214 C1222 0.950 . S
H1215 C1224 0.950 . S
H1216 C1226 0.950 . S
H1217 C1228 0.950 . S
H1218 C1230 0.950 . S
H1219 C1231 0.950 . S
C1220 H1212 0.950 . S
C1220 C1221 1.386 . S
C1220 C1222 1.391 . S
C1221 C1220 1.386 . S
C1221 C1225 1.393 . S
C1222 H1214 0.950 . S
C1222 C1220 1.391 . S
C1222 C1223 1.400 . S
C1223 C1222 1.400 . S
C1223 C1224 1.398 . S
C1223 C1229 1.491 1_554 S
C1224 H1215 0.950 . S
C1224 C1223 1.398 . S
C1224 C1225 1.391 . S
C1225 H1213 0.950 . S
C1225 C1221 1.393 . S
C1225 C1224 1.391 . S
C1226 H1216 0.950 . S
C1226 C1227 1.386 . S
C1226 C1228 1.391 . S
C1227 C1226 1.386 . S
C1227 C1231 1.393 . S
C1228 H1217 0.950 . S
C1228 C1226 1.391 . S
C1228 C1229 1.400 . S
C1229 C1223 1.491 1_556 S
C1229 C1228 1.400 . S
C1229 C1230 1.398 . S
C1230 H1218 0.950 . S
C1230 C1229 1.398 . S
C1230 C1231 1.391 . S
C1231 H1219 0.950 . S
C1231 C1227 1.393 . S
C1231 C1230 1.391 . S
H1232 C1240 0.950 . S
H1233 C1245 0.950 . S
H1234 C1242 0.950 . S
H1235 C1244 0.950 . S
H1236 C1246 0.950 . S
H1237 C1248 0.950 . S
H1238 C1250 0.950 . S
H1239 C1251 0.950 . S
C1240 H1232 0.950 . S
C1240 C1241 1.386 . S
C1240 C1242 1.391 . S
C1241 C1240 1.386 . S
C1241 C1245 1.393 . S
C1242 H1234 0.950 . S
C1242 C1240 1.391 . S
C1242 C1243 1.400 . S
C1243 C1242 1.400 . S
C1243 C1244 1.398 . S
C1243 C1249 1.491 . S
C1244 H1235 0.950 . S
C1244 C1243 1.398 . S
C1244 C1245 1.391 . S
C1245 H1233 0.950 . S
C1245 C1241 1.393 . S
C1245 C1244 1.391 . S
C1246 H1236 0.950 . S
C1246 C1247 1.386 . S
C1246 C1248 1.391 . S
C1247 C1246 1.386 . S
C1247 C1251 1.393 . S
C1248 H1237 0.950 . S
C1248 C1246 1.391 . S
C1248 C1249 1.400 . S
C1249 C1243 1.491 . S
C1249 C1248 1.400 . S
C1249 C1250 1.398 . S
C1250 H1238 0.950 . S
C1250 C1249 1.398 . S
C1250 C1251 1.391 . S
C1251 H1239 0.950 . S
C1251 C1247 1.393 . S
C1251 C1250 1.391 . S
H1252 C1260 0.950 . S
H1253 C1265 0.950 . S
H1254 C1262 0.950 . S
H1255 C1264 0.950 . S
H1256 C1266 0.950 . S
H1257 C1268 0.950 . S
H1258 C1270 0.950 . S
H1259 C1271 0.950 . S
C1260 H1252 0.950 . S
C1260 C1261 1.386 . S
C1260 C1262 1.391 . S
C1261 C1260 1.386 . S
C1261 C1265 1.393 . S
C1262 H1254 0.950 . S
C1262 C1260 1.391 . S
C1262 C1263 1.400 . S
C1263 C1262 1.400 . S
C1263 C1264 1.398 . S
C1263 C1269 1.491 1_554 S
C1264 H1255 0.950 . S
C1264 C1263 1.398 . S
C1264 C1265 1.391 . S
C1265 H1253 0.950 . S
C1265 C1261 1.393 . S
C1265 C1264 1.391 . S
C1266 H1256 0.950 . S
C1266 C1267 1.386 . S
C1266 C1268 1.391 . S
C1267 C1266 1.386 . S
C1267 C1271 1.393 . S
C1268 H1257 0.950 . S
C1268 C1266 1.391 . S
C1268 C1269 1.400 . S
C1269 C1263 1.491 1_556 S
C1269 C1268 1.400 . S
C1269 C1270 1.398 . S
C1270 H1258 0.950 . S
C1270 C1269 1.398 . S
C1270 C1271 1.391 . S
C1271 H1259 0.950 . S
C1271 C1267 1.393 . S
C1271 C1270 1.391 . S
C321 C53 1.507 . S
C327 C10 1.542 . S
C341 C23 1.542 . S
C347 C75 1.551 . S
C361 C88 1.541 . S
C367 C27 1.501 . S
C381 C101 1.541 . S
C387 C40 1.500 . S
C401 C192 1.553 . S
C407 C105 1.510 . S
C421 C205 1.542 . S
C427 C118 1.498 . S
C441 C140 1.553 . S
C447 C157 1.516 . S
C461 C179 1.541 . S
C467 C144 1.506 . S
C481 C209 1.499 . S
C487 C283 1.548 . S
C501 C231 1.551 . S
C507 C257 1.551 . S
C521 C244 1.541 . S
C527 C270 1.548 . S
C541 C287 1.512 . S
C547 C300 1.515 . S
C561 C49 1.510 . S
C567 C66 1.553 . S
C581 C1 1.547 . S
C587 C79 1.553 . S
C601 C92 1.549 . S
C607 C14 1.553 . S
C621 C36 1.498 . S
C627 C62 1.501 . S
C641 C309 1.517 . S
C647 C235 1.553 . S
C661 C248 1.553 . S
C667 C274 1.545 . S
C681 C261 1.541 . S
C687 C296 1.503 . S
C701 C222 1.552 . S
C707 C218 1.507 . S
C721 C153 1.515 . S
C727 C127 1.517 . S
C741 C196 1.549 . S
C747 C170 1.541 . S
C761 C166 1.513 . S
C767 C183 1.553 . S
C781 C131 1.552 . S
C787 C114 1.508 . S
C801 C289 1.599 . S
C807 C5 1.626 . S
C821 C211 1.600 . S
C827 C18 1.626 . S
C841 C302 1.585 . S
C847 C29 1.596 . S
C861 C278 1.630 . S
C867 C42 1.581 . S
C881 C239 1.628 . S
C887 C55 1.591 . S
C901 C70 1.630 . S
C907 C252 1.628 . S
C921 C265 1.627 . S
C927 C83 1.629 . S
C941 C226 1.626 . S
C947 C96 1.628 . S
C961 C174 1.627 . S
C967 C107 1.597 . S
C981 C187 1.627 . S
C987 C120 1.596 . S
C1001 C200 1.627 . S
C1007 C135 1.630 . S
C1021 C146 1.585 . S
C1027 C159 1.596 . S
C1041 C68 1.629 . S
C1047 C133 1.627 . S
C1061 C81 1.627 . S
C1067 C148 1.593 . S
C1081 C109 1.595 . S
C1087 C94 1.628 . S
C1101 C57 1.599 . S
C1107 C122 1.597 . S
C1121 C185 1.628 . S
C1127 C44 1.591 . S
C1141 C3 1.630 . S
C1147 C198 1.627 . S
C1161 C161 1.586 . S
C1167 C16 1.629 . S
C1181 C31 1.600 . S
C1187 C172 1.626 . S
C1201 C224 1.626 . S
C1207 C304 1.598 . S
C1221 C276 1.629 . S
C1227 C237 1.627 . S
C1241 C291 1.587 . S
C1247 C250 1.629 . S
C1261 C213 1.582 . S
C1267 C263 1.629 . S
