# Generated by pormake.
# Topology umw, (4)-cn, num edge types: 1
# Building blocks:
#     Node 0, Type 0, BuildingBlock: QUQFOY_clean_sbu_1, # of connection points: 4
#     Node 1, Type 0, BuildingBlock: QUQFOY_clean_sbu_1, # of connection points: 4
#     Node 2, Type 0, BuildingBlock: QUQFOY_clean_sbu_1, # of connection points: 4
#     Node 3, Type 0, BuildingBlock: QUQFOY_clean_sbu_1, # of connection points: 4
#     Node 4, Type 0, BuildingBlock: QUQFOY_clean_sbu_1, # of connection points: 4
#     Node 5, Type 0, BuildingBlock: QUQFOY_clean_sbu_1, # of connection points: 4
#     Node 6, Type 0, BuildingBlock: QUQFOY_clean_sbu_1, # of connection points: 4
#     Node 7, Type 0, BuildingBlock: QUQFOY_clean_sbu_1, # of connection points: 4
#     Edge 8, Type (0, 0), BuildingBlock: MIFKUJ_clean_linker_0, # of connection points: 2
#     Edge 9, Type (0, 0), BuildingBlock: MIFKUJ_clean_linker_0, # of connection points: 2
#     Edge 10, Type (0, 0), BuildingBlock: MIFKUJ_clean_linker_0, # of connection points: 2
#     Edge 11, Type (0, 0), BuildingBlock: MIFKUJ_clean_linker_0, # of connection points: 2
#     Edge 12, Type (0, 0), BuildingBlock: MIFKUJ_clean_linker_0, # of connection points: 2
#     Edge 13, Type (0, 0), BuildingBlock: MIFKUJ_clean_linker_0, # of connection points: 2
#     Edge 14, Type (0, 0), BuildingBlock: MIFKUJ_clean_linker_0, # of connection points: 2
#     Edge 15, Type (0, 0), BuildingBlock: MIFKUJ_clean_linker_0, # of connection points: 2
#     Edge 16, Type (0, 0), BuildingBlock: MIFKUJ_clean_linker_0, # of connection points: 2
#     Edge 17, Type (0, 0), BuildingBlock: MIFKUJ_clean_linker_0, # of connection points: 2
#     Edge 18, Type (0, 0), BuildingBlock: MIFKUJ_clean_linker_0, # of connection points: 2
#     Edge 19, Type (0, 0), BuildingBlock: MIFKUJ_clean_linker_0, # of connection points: 2
#     Edge 20, Type (0, 0), BuildingBlock: MIFKUJ_clean_linker_0, # of connection points: 2
#     Edge 21, Type (0, 0), BuildingBlock: MIFKUJ_clean_linker_0, # of connection points: 2
#     Edge 22, Type (0, 0), BuildingBlock: MIFKUJ_clean_linker_0, # of connection points: 2
#     Edge 23, Type (0, 0), BuildingBlock: MIFKUJ_clean_linker_0, # of connection points: 2
# Relax obj value: 0.051
# Max RMSD: 0.096
# Mean RMSD: 0.096
data_MOF--net-umw--node1-QUQFOY_clean_sbu_1--edge1-MIFKUJ_clean_linker_0
_symmetry_space_group_name_H-M    P1
_symmetry_Int_Tables_number       1
_symmetry_cell_setting            triclinic
loop_
_symmetry_equiv_pos_as_xyz
'x, y, z'
_cell_length_a     54.846844
_cell_length_b     54.850958
_cell_length_c     36.286828
_cell_angle_alpha  90.00051
_cell_angle_beta   89.973713
_cell_angle_gamma 89.989199
loop_
_atom_site_label
_atom_site_type_symbol
_atom_site_fract_x
_atom_site_fract_y
_atom_site_fract_z
_atom_type_partial_charge
O0 O 0.42595 0.16805 0.36876 0.0
Cd1 Cd 0.4003 0.17013 0.32783 0.0
Cd2 Cd 0.44303 0.17011 0.28789 0.0
O3 O 0.45801 0.18071 0.33767 0.0
O4 O 0.37064 0.17657 0.35802 0.0
O5 O 0.38497 0.203 0.3176 0.0
C6 C 0.36953 0.19791 0.34337 0.0
C7 C 0.45777 0.18717 0.23307 0.0
C8 C 0.44795 0.17512 0.36804 0.0
C9 C 0.41075 0.125 0.28796 0.0
O10 O 0.43192 0.13412 0.28379 0.0
O11 O 0.39346 0.13792 0.30072 0.0
O12 O 0.47084 0.17262 0.25267 0.0
O13 O 0.43628 0.19271 0.24505 0.0
O14 O 0.81571 0.42198 0.61454 0.0
Cd15 Cd 0.82046 0.39957 0.5697 0.0
Cd16 Cd 0.82137 0.44496 0.53604 0.0
O17 O 0.80754 0.45653 0.58604 0.0
O18 O 0.81601 0.36692 0.59263 0.0
O19 O 0.79 0.38237 0.55241 0.0
C20 C 0.79563 0.36523 0.57528 0.0
C21 C 0.80526 0.45907 0.48029 0.0
C22 C 0.8089 0.44409 0.61553 0.0
C23 C 0.86777 0.41557 0.53782 0.0
O24 O 0.85801 0.43648 0.53458 0.0
O25 O 0.85502 0.39729 0.54742 0.0
O26 O 0.81757 0.47316 0.50177 0.0
O27 O 0.80123 0.43698 0.49109 0.0
O28 O 0.57736 0.82384 0.868 0.0
Cd29 Cd 0.59908 0.82515 0.82195 0.0
Cd30 Cd 0.55434 0.82603 0.79011 0.0
O31 O 0.54297 0.81336 0.84103 0.0
O32 O 0.63196 0.81919 0.84328 0.0
O33 O 0.61348 0.79288 0.80652 0.0
C34 C 0.63164 0.7981 0.82774 0.0
C35 C 0.54113 0.80829 0.7351 0.0
C36 C 0.55543 0.81659 0.87016 0.0
C37 C 0.5847 0.87167 0.7874 0.0
O38 O 0.56339 0.86255 0.78629 0.0
O39 O 0.60278 0.8585 0.79652 0.0
O40 O 0.52669 0.82125 0.75517 0.0
O41 O 0.563 0.80448 0.74711 0.0
O42 O 0.18313 0.5796 0.11389 0.0
Cd43 Cd 0.17645 0.60169 0.06948 0.0
Cd44 Cd 0.17136 0.55542 0.03701 0.0
O45 O 0.18543 0.54365 0.08686 0.0
O46 O 0.18248 0.63426 0.09166 0.0
O47 O 0.20621 0.61845 0.04862 0.0
C48 C 0.2019 0.6357 0.07195 0.0
C49 C 0.18563 0.5389 0.98156 0.0
C50 C 0.18752 0.55691 0.11543 0.0
C51 C 0.12691 0.58796 0.0419 0.0
O52 O 0.13541 0.56673 0.03613 0.0
O53 O 0.14083 0.60513 0.05234 0.0
O54 O 0.17198 0.52656 0.00366 0.0
O55 O 0.19198 0.56061 0.99157 0.0
O56 O 0.42424 0.81113 0.22777 0.0
Cd57 Cd 0.4002 0.81647 0.27047 0.0
Cd58 Cd 0.44544 0.81999 0.30724 0.0
O59 O 0.45888 0.8068 0.25796 0.0
O60 O 0.36874 0.81269 0.2438 0.0
O61 O 0.3812 0.78652 0.28599 0.0
C62 C 0.36544 0.79255 0.26121 0.0
C63 C 0.45968 0.80468 0.36342 0.0
C64 C 0.44686 0.80626 0.22803 0.0
C65 C 0.41399 0.86501 0.30205 0.0
O66 O 0.43506 0.85614 0.30789 0.0
O67 O 0.39672 0.85147 0.29079 0.0
O68 O 0.47332 0.8178 0.34238 0.0
O69 O 0.43795 0.79952 0.35209 0.0
O70 O 0.18155 0.42618 0.47013 0.0
Cd71 Cd 0.17658 0.40196 0.51263 0.0
Cd72 Cd 0.17457 0.44642 0.54982 0.0
O73 O 0.18892 0.45989 0.50126 0.0
O74 O 0.18232 0.37045 0.48687 0.0
O75 O 0.20693 0.38464 0.53001 0.0
C76 C 0.20225 0.36838 0.50526 0.0
C77 C 0.18861 0.46061 0.60687 0.0
C78 C 0.18808 0.44837 0.47089 0.0
C79 C 0.12868 0.41585 0.5439 0.0
O80 O 0.13819 0.43667 0.54939 0.0
O81 O 0.14173 0.3981 0.53306 0.0
O82 O 0.17547 0.47402 0.58552 0.0
O83 O 0.19474 0.43922 0.59514 0.0
O84 O 0.57468 0.18662 0.72799 0.0
Cd85 Cd 0.59866 0.18054 0.77057 0.0
Cd86 Cd 0.55322 0.17642 0.80655 0.0
O87 O 0.53942 0.18882 0.75723 0.0
O88 O 0.63024 0.18461 0.74419 0.0
O89 O 0.61766 0.21021 0.78713 0.0
C90 C 0.6335 0.20449 0.76227 0.0
C91 C 0.5399 0.19246 0.8627 0.0
C92 C 0.55185 0.19042 0.72779 0.0
C93 C 0.58477 0.1316 0.8011 0.0
O94 O 0.56376 0.14044 0.80738 0.0
O95 O 0.60202 0.14519 0.78983 0.0
O96 O 0.52598 0.1789 0.84273 0.0
O97 O 0.56135 0.19764 0.85018 0.0
O98 O 0.81491 0.57652 0.97372 0.0
Cd99 Cd 0.81854 0.59989 0.01742 0.0
Cd100 Cd 0.82281 0.55465 0.05268 0.0
O101 O 0.81052 0.5414 0.00251 0.0
O102 O 0.81309 0.63174 0.99243 0.0
O103 O 0.7876 0.61685 0.0338 0.0
C104 C 0.7928 0.63353 0.00995 0.0
C105 C 0.80646 0.54069 0.10834 0.0
C106 C 0.81042 0.55383 0.97293 0.0
C107 C 0.86696 0.58754 0.05014 0.0
O108 O 0.85866 0.56618 0.0555 0.0
O109 O 0.8531 0.60441 0.03838 0.0
O110 O 0.82038 0.5271 0.08838 0.0
O111 O 0.801 0.56211 0.09597 0.0
H112 H 0.43744 0.15156 0.43176 0.0
H113 H 0.4571 0.15636 0.49146 0.0
H114 H 0.50828 0.20721 0.44411 0.0
H115 H 0.48897 0.20197 0.38351 0.0
H116 H 0.5291 0.17452 0.49578 0.0
H117 H 0.45842 0.22755 0.48671 0.0
H118 H 0.41494 0.23269 0.4715 0.0
H119 H 0.39526 0.18394 0.55917 0.0
H120 H 0.43869 0.17778 0.57405 0.0
H121 H 0.57035 0.21397 0.66817 0.0
H122 H 0.55298 0.21563 0.60622 0.0
H123 H 0.48964 0.17631 0.64451 0.0
H124 H 0.50638 0.17593 0.70699 0.0
H125 H 0.47567 0.20623 0.59536 0.0
H126 H 0.54002 0.14761 0.60118 0.0
H127 H 0.58152 0.13235 0.61352 0.0
H128 H 0.61073 0.18247 0.53402 0.0
H129 H 0.56939 0.19824 0.52154 0.0
C130 C 0.45299 0.16366 0.4339 0.0
C131 C 0.46144 0.17673 0.40311 0.0
C132 C 0.46421 0.16634 0.46804 0.0
C133 C 0.48375 0.18256 0.4723 0.0
C134 C 0.49307 0.19474 0.44132 0.0
C135 C 0.48202 0.19179 0.40684 0.0
C136 C 0.49333 0.18772 0.50959 0.0
C137 C 0.51763 0.18191 0.51744 0.0
C138 C 0.47797 0.19653 0.53802 0.0
C139 C 0.45184 0.20209 0.53134 0.0
C140 C 0.44483 0.21794 0.50278 0.0
C141 C 0.42019 0.22093 0.49408 0.0
C142 C 0.40235 0.20856 0.51426 0.0
C143 C 0.4091 0.19344 0.54349 0.0
C144 C 0.43374 0.19017 0.55203 0.0
C145 C 0.5525 0.20613 0.66343 0.0
C146 C 0.53975 0.19466 0.69217 0.0
C147 C 0.54267 0.2069 0.628 0.0
C148 C 0.52034 0.19544 0.6204 0.0
C149 C 0.50697 0.18517 0.64959 0.0
C150 C 0.51652 0.18496 0.68529 0.0
C151 C 0.51158 0.19291 0.58187 0.0
C152 C 0.48737 0.19921 0.57371 0.0
C153 C 0.52679 0.18376 0.5534 0.0
C154 C 0.55166 0.1743 0.56075 0.0
C155 C 0.55532 0.1555 0.58653 0.0
C156 C 0.57881 0.14674 0.59352 0.0
C157 C 0.59876 0.1565 0.57465 0.0
C158 C 0.59526 0.17497 0.54867 0.0
C159 C 0.57181 0.18382 0.54161 0.0
H160 H 0.61693 0.14969 0.58009 0.0
H161 H 0.38329 0.21072 0.50729 0.0
H162 H 0.805 0.49273 0.63176 0.0
H163 H 0.80089 0.51116 0.69293 0.0
H164 H 0.7972 0.43965 0.742 0.0
H165 H 0.80132 0.42107 0.68114 0.0
H166 H 0.76455 0.47286 0.77398 0.0
H167 H 0.84945 0.46694 0.74239 0.0
H168 H 0.88568 0.47302 0.70322 0.0
H169 H 0.8759 0.5506 0.70908 0.0
H170 H 0.83936 0.54495 0.74787 0.0
H171 H 0.80169 0.50537 0.9581 0.0
H172 H 0.79703 0.48639 0.89727 0.0
H173 H 0.8044 0.55682 0.8456 0.0
H174 H 0.80913 0.57583 0.9057 0.0
H175 H 0.83443 0.52344 0.81511 0.0
H176 H 0.74996 0.52931 0.84866 0.0
H177 H 0.71386 0.52291 0.88799 0.0
H178 H 0.72294 0.44537 0.87925 0.0
H179 H 0.75933 0.45131 0.84026 0.0
C180 C 0.80296 0.48094 0.6555 0.0
C181 C 0.80375 0.45545 0.65166 0.0
C182 C 0.80067 0.49148 0.6904 0.0
C183 C 0.799 0.47672 0.72193 0.0
C184 C 0.7985 0.45132 0.71799 0.0
C185 C 0.801 0.44077 0.6832 0.0
C186 C 0.79957 0.48768 0.75918 0.0
C187 C 0.77989 0.48375 0.78319 0.0
C188 C 0.81951 0.50204 0.7709 0.0
C189 C 0.84151 0.50551 0.74767 0.0
C190 C 0.85489 0.48528 0.73505 0.0
C191 C 0.87551 0.48865 0.71297 0.0
C192 C 0.88305 0.51218 0.70357 0.0
C193 C 0.87001 0.53238 0.71632 0.0
C194 C 0.84935 0.52911 0.73837 0.0
C195 C 0.8021 0.51681 0.93379 0.0
C196 C 0.80593 0.54209 0.9368 0.0
C197 C 0.79935 0.50597 0.89909 0.0
C198 C 0.80035 0.52024 0.86697 0.0
C199 C 0.80366 0.54548 0.87003 0.0
C200 C 0.80633 0.5563 0.90451 0.0
C201 C 0.79925 0.50894 0.82994 0.0
C202 C 0.81898 0.51267 0.80597 0.0
C203 C 0.77938 0.49439 0.8184 0.0
C204 C 0.75754 0.49076 0.84188 0.0
C205 C 0.7444 0.51089 0.85541 0.0
C206 C 0.72385 0.50735 0.87758 0.0
C207 C 0.71615 0.48375 0.88621 0.0
C208 C 0.72895 0.46364 0.8726 0.0
C209 C 0.74953 0.46708 0.85044 0.0
H210 H 0.70023 0.48105 0.90336 0.0
H211 H 0.89902 0.51475 0.68649 0.0
H212 H 0.49567 0.8093 0.21284 0.0
H213 H 0.51506 0.80687 0.1521 0.0
H214 H 0.44554 0.79033 0.10257 0.0
H215 H 0.42599 0.79286 0.16298 0.0
H216 H 0.48493 0.763 0.07276 0.0
H217 H 0.46254 0.84594 0.09989 0.0
H218 H 0.4614 0.88337 0.13749 0.0
H219 H 0.53948 0.88826 0.13272 0.0
H220 H 0.54109 0.85061 0.09554 0.0
H221 H 0.50938 0.80018 0.88694 0.0
H222 H 0.49174 0.79445 0.94841 0.0
H223 H 0.55942 0.81753 0.99786 0.0
H224 H 0.57707 0.82345 0.93694 0.0
H225 H 0.52104 0.84053 0.02809 0.0
H226 H 0.5434 0.75829 0.9985 0.0
H227 H 0.54436 0.72085 0.96095 0.0
H228 H 0.46655 0.7145 0.96985 0.0
H229 H 0.46508 0.75214 0.00704 0.0
C230 C 0.4846 0.80472 0.18912 0.0
C231 C 0.45928 0.80152 0.1926 0.0
C232 C 0.49568 0.8034 0.15447 0.0
C233 C 0.48164 0.79866 0.12292 0.0
C234 C 0.45665 0.79403 0.12662 0.0
C235 C 0.44552 0.79562 0.16113 0.0
C236 C 0.49258 0.80052 0.08578 0.0
C237 C 0.49267 0.77996 0.06278 0.0
C238 C 0.50287 0.82261 0.0731 0.0
C239 C 0.50195 0.8453 0.09532 0.0
C240 C 0.47948 0.85487 0.10715 0.0
C241 C 0.47874 0.87614 0.12833 0.0
C242 C 0.50036 0.88814 0.13759 0.0
C243 C 0.52275 0.87892 0.12559 0.0
C244 C 0.52359 0.85761 0.10445 0.0
C245 C 0.52052 0.80393 0.91091 0.0
C246 C 0.54461 0.81232 0.90699 0.0
C247 C 0.51046 0.80055 0.94599 0.0
C248 C 0.52434 0.80545 0.97766 0.0
C249 C 0.54839 0.81367 0.97378 0.0
C250 C 0.55845 0.817 0.93886 0.0
C251 C 0.51366 0.80292 0.01497 0.0
C252 C 0.51348 0.82346 0.03801 0.0
C253 C 0.5033 0.78081 0.02758 0.0
C254 C 0.50411 0.75818 0.00522 0.0
C255 C 0.52647 0.74904 0.99217 0.0
C256 C 0.52711 0.72776 0.97101 0.0
C257 C 0.50552 0.71534 0.96293 0.0
C258 C 0.48325 0.72416 0.97608 0.0
C259 C 0.48251 0.74546 0.99723 0.0
H260 H 0.50605 0.69886 0.94655 0.0
H261 H 0.49975 0.90462 0.15397 0.0
H262 H 0.1899 0.42803 0.40247 0.0
H263 H 0.19663 0.44839 0.34387 0.0
H264 H 0.20654 0.5169 0.4003 0.0
H265 H 0.19934 0.49663 0.45953 0.0
H266 H 0.17526 0.52119 0.3442 0.0
H267 H 0.25499 0.48806 0.3592 0.0
H268 H 0.28541 0.45615 0.37247 0.0
H269 H 0.26013 0.41455 0.27984 0.0
H270 H 0.22933 0.44607 0.26625 0.0
H271 H 0.20156 0.58094 0.17763 0.0
H272 H 0.20844 0.56384 0.23874 0.0
H273 H 0.19523 0.49157 0.19631 0.0
H274 H 0.18866 0.50854 0.13463 0.0
H275 H 0.23227 0.49215 0.2474 0.0
H276 H 0.14986 0.52233 0.23741 0.0
H277 H 0.11842 0.55331 0.22446 0.0
H278 H 0.14831 0.59963 0.30845 0.0
H279 H 0.18015 0.56904 0.32157 0.0
C280 C 0.19371 0.4474 0.40262 0.0
C281 C 0.19398 0.46073 0.43575 0.0
C282 C 0.19776 0.45898 0.369 0.0
C283 C 0.20241 0.4841 0.36772 0.0
C284 C 0.2031 0.49746 0.40073 0.0
C285 C 0.19901 0.48585 0.43452 0.0
C286 C 0.20466 0.4965 0.3316 0.0
C287 C 0.18813 0.51522 0.32334 0.0
C288 C 0.22103 0.48826 0.30408 0.0
C289 C 0.23974 0.46938 0.31185 0.0
C290 C 0.25582 0.47204 0.34177 0.0
C291 C 0.27315 0.45403 0.34934 0.0
C292 C 0.27467 0.43331 0.32705 0.0
C293 C 0.25892 0.43061 0.29707 0.0
C294 C 0.24156 0.44857 0.28939 0.0
C295 C 0.20032 0.56136 0.18113 0.0
C296 C 0.19418 0.5461 0.15137 0.0
C297 C 0.20428 0.55164 0.21611 0.0
C298 C 0.2019 0.52651 0.22215 0.0
C299 C 0.19706 0.51105 0.19219 0.0
C300 C 0.19324 0.52076 0.15702 0.0
C301 C 0.20274 0.51661 0.26009 0.0
C302 C 0.21974 0.49835 0.26856 0.0
C303 C 0.18676 0.52518 0.28787 0.0
C304 C 0.16754 0.54352 0.28018 0.0
C305 C 0.14984 0.53921 0.25293 0.0
C306 C 0.13193 0.55668 0.24559 0.0
C307 C 0.13141 0.57846 0.26554 0.0
C308 C 0.14876 0.58277 0.29297 0.0
C309 C 0.16673 0.56537 0.30038 0.0
H310 H 0.11753 0.59196 0.25982 0.0
H311 H 0.28808 0.41938 0.33298 0.0
H312 H 0.35978 0.24377 0.31651 0.0
H313 H 0.33372 0.27506 0.3447 0.0
H314 H 0.3155 0.22536 0.43258 0.0
H315 H 0.34116 0.19413 0.40466 0.0
H316 H 0.28573 0.27638 0.35948 0.0
H317 H 0.31243 0.25753 0.51386 0.0
H318 H 0.34907 0.25031 0.55173 0.0
H319 H 0.3944 0.27775 0.46464 0.0
H320 H 0.35808 0.28535 0.42638 0.0
H321 H 0.19361 0.32538 0.47019 0.0
H322 H 0.22373 0.29774 0.44347 0.0
H323 H 0.28171 0.34251 0.48695 0.0
H324 H 0.25156 0.36956 0.51521 0.0
H325 H 0.2954 0.29886 0.49111 0.0
H326 H 0.26236 0.34602 0.39424 0.0
H327 H 0.2306 0.36467 0.35529 0.0
H328 H 0.20618 0.29363 0.32204 0.0
H329 H 0.23762 0.27453 0.36116 0.0
C330 C 0.35005 0.23948 0.34167 0.0
C331 C 0.35248 0.21643 0.35824 0.0
C332 C 0.33524 0.25738 0.35779 0.0
C333 C 0.32294 0.25265 0.39102 0.0
C334 C 0.32511 0.22955 0.40726 0.0
C335 C 0.33964 0.21163 0.39103 0.0
C336 C 0.30726 0.27144 0.40852 0.0
C337 C 0.28785 0.28132 0.38825 0.0
C338 C 0.31049 0.27857 0.44569 0.0
C339 C 0.33251 0.27181 0.46713 0.0
C340 C 0.33023 0.26186 0.50269 0.0
C341 C 0.35094 0.2578 0.52428 0.0
C342 C 0.37401 0.26375 0.51069 0.0
C343 C 0.3765 0.27322 0.47515 0.0
C344 C 0.35586 0.27728 0.45342 0.0
C345 C 0.2128 0.32905 0.47463 0.0
C346 C 0.22027 0.34963 0.49471 0.0
C347 C 0.23001 0.3134 0.45898 0.0
C348 C 0.25504 0.3184 0.4622 0.0
C349 C 0.26253 0.33831 0.48383 0.0
C350 C 0.24529 0.35372 0.50013 0.0
C351 C 0.27331 0.30311 0.44254 0.0
C352 C 0.2932 0.29388 0.46237 0.0
C353 C 0.27114 0.29748 0.40453 0.0
C354 C 0.25222 0.30884 0.38089 0.0
C355 C 0.25011 0.33437 0.37881 0.0
C356 C 0.23218 0.34502 0.35668 0.0
C357 C 0.21634 0.33034 0.33627 0.0
C358 C 0.21845 0.30497 0.33789 0.0
C359 C 0.23634 0.29422 0.36001 0.0
H360 H 0.20247 0.33862 0.31915 0.0
H361 H 0.38997 0.26099 0.5277 0.0
H362 H 0.80591 0.31985 0.60117 0.0
H363 H 0.77743 0.29154 0.63082 0.0
H364 H 0.71774 0.33989 0.60578 0.0
H365 H 0.74603 0.36796 0.57495 0.0
H366 H 0.72978 0.3243 0.68792 0.0
H367 H 0.71124 0.29548 0.56465 0.0
H368 H 0.7222 0.27945 0.50335 0.0
H369 H 0.75612 0.21725 0.55367 0.0
H370 H 0.74568 0.23311 0.61533 0.0
H371 H 0.63207 0.25407 0.76164 0.0
H372 H 0.66011 0.28124 0.72925 0.0
H373 H 0.70701 0.22007 0.70473 0.0
H374 H 0.67811 0.19274 0.73507 0.0
H375 H 0.70139 0.24308 0.64606 0.0
H376 H 0.72199 0.26921 0.76759 0.0
H377 H 0.71504 0.28416 0.83082 0.0
H378 H 0.68271 0.3496 0.78807 0.0
H379 H 0.68917 0.3349 0.72456 0.0
C380 C 0.78661 0.32408 0.60102 0.0
C381 C 0.77813 0.34601 0.58566 0.0
C382 C 0.77042 0.30797 0.61806 0.0
C383 C 0.7456 0.31378 0.6206 0.0
C384 C 0.73688 0.33516 0.60398 0.0
C385 C 0.753 0.35103 0.58614 0.0
C386 C 0.72928 0.2985 0.64331 0.0
C387 C 0.72316 0.30668 0.67873 0.0
C388 C 0.72168 0.27519 0.63164 0.0
C389 C 0.72793 0.26563 0.59461 0.0
C390 C 0.72127 0.27852 0.56266 0.0
C391 C 0.72733 0.26943 0.52785 0.0
C392 C 0.73992 0.24738 0.52462 0.0
C393 C 0.74641 0.23434 0.55621 0.0
C394 C 0.74041 0.24337 0.59109 0.0
C395 C 0.64871 0.24658 0.75019 0.0
C396 C 0.65302 0.22136 0.75093 0.0
C397 C 0.66478 0.26213 0.73163 0.0
C398 C 0.68586 0.25282 0.71453 0.0
C399 C 0.69083 0.22775 0.71734 0.0
C400 C 0.67444 0.21215 0.73499 0.0
C401 C 0.70166 0.26872 0.69128 0.0
C402 C 0.70782 0.26067 0.65563 0.0
C403 C 0.70981 0.29195 0.70314 0.0
C404 C 0.70585 0.30083 0.74131 0.0
C405 C 0.71322 0.2867 0.77167 0.0
C406 C 0.7094 0.29515 0.80757 0.0
C407 C 0.69838 0.31778 0.81346 0.0
C408 C 0.69121 0.33205 0.78346 0.0
C409 C 0.69497 0.32369 0.74751 0.0
H410 H 0.69545 0.32429 0.84127 0.0
H411 H 0.74458 0.24037 0.49764 0.0
H412 H 0.8027 0.67816 0.98112 0.0
H413 H 0.77377 0.7063 0.95233 0.0
H414 H 0.71426 0.65913 0.98304 0.0
H415 H 0.74312 0.63112 0.01284 0.0
H416 H 0.71945 0.67214 0.90333 0.0
H417 H 0.7144 0.70834 0.02408 0.0
H418 H 0.73125 0.72622 0.08096 0.0
H419 H 0.76496 0.78325 0.01792 0.0
H420 H 0.7486 0.7655 0.96056 0.0
H421 H 0.62475 0.74928 0.83569 0.0
H422 H 0.65176 0.72075 0.86736 0.0
H423 H 0.70672 0.77686 0.87574 0.0
H424 H 0.67903 0.80579 0.84622 0.0
H425 H 0.70264 0.75794 0.93807 0.0
H426 H 0.71112 0.72293 0.81793 0.0
H427 H 0.69759 0.70542 0.75878 0.0
H428 H 0.66191 0.64701 0.81622 0.0
H429 H 0.67496 0.66434 0.87576 0.0
C430 C 0.78339 0.6741 0.98257 0.0
C431 C 0.77511 0.65253 0.99929 0.0
C432 C 0.76692 0.69014 0.96605 0.0
C433 C 0.74196 0.68466 0.96543 0.0
C434 C 0.7335 0.6636 0.98327 0.0
C435 C 0.74995 0.64777 1.00053 0.0
C436 C 0.72511 0.70017 0.94389 0.0
C437 C 0.71536 0.6908 0.9111 0.0
C438 C 0.72067 0.7247 0.95351 0.0
C439 C 0.73046 0.73545 0.98799 0.0
C440 C 0.72559 0.72456 0.0223 0.0
C441 C 0.73502 0.7347 0.05464 0.0
C442 C 0.74922 0.75582 0.05305 0.0
C443 C 0.75398 0.76688 0.01911 0.0
C444 C 0.74461 0.7568 0.98668 0.0
C445 C 0.64286 0.75529 0.84342 0.0
C446 C 0.64989 0.77968 0.83842 0.0
C447 C 0.65834 0.73895 0.86156 0.0
C448 C 0.68145 0.74651 0.87394 0.0
C449 C 0.68896 0.77056 0.86682 0.0
C450 C 0.67324 0.78704 0.84962 0.0
C451 C 0.69698 0.73013 0.89681 0.0
C452 C 0.70656 0.7393 0.93001 0.0
C453 C 0.7017 0.70554 0.88709 0.0
C454 C 0.69381 0.69508 0.85132 0.0
C455 C 0.70022 0.70646 0.81796 0.0
C456 C 0.69267 0.69654 0.78436 0.0
C457 C 0.67884 0.67516 0.78374 0.0
C458 C 0.67259 0.6636 0.81674 0.0
C459 C 0.68008 0.67344 0.85042 0.0
H460 H 0.67302 0.66751 0.7577 0.0
H461 H 0.7565 0.76365 0.07812 0.0
H462 H 0.25127 0.63112 0.07153 0.0
H463 H 0.28039 0.65856 0.10184 0.0
H464 H 0.22257 0.70995 0.12288 0.0
H465 H 0.19323 0.68222 0.09392 0.0
H466 H 0.27663 0.72724 0.09681 0.0
H467 H 0.22716 0.68176 0.18812 0.0
H468 H 0.21055 0.6428 0.21107 0.0
H469 H 0.28305 0.61387 0.22024 0.0
H470 H 0.30003 0.65255 0.19667 0.0
H471 H 0.32171 0.80468 0.23136 0.0
H472 H 0.29374 0.77764 0.19869 0.0
H473 H 0.33845 0.71582 0.22784 0.0
H474 H 0.36588 0.7428 0.26218 0.0
H475 H 0.2934 0.70175 0.2257 0.0
H476 H 0.34453 0.74554 0.14345 0.0
H477 H 0.36455 0.78142 0.11587 0.0
H478 H 0.29483 0.81012 0.08404 0.0
H479 H 0.27434 0.77457 0.11194 0.0
C480 C 0.24496 0.64863 0.0815 0.0
C481 C 0.22007 0.65464 0.08041 0.0
C482 C 0.26154 0.66417 0.09897 0.0
C483 C 0.25348 0.6861 0.11469 0.0
C484 C 0.22904 0.69307 0.11082 0.0
C485 C 0.21236 0.67728 0.09425 0.0
C486 C 0.26977 0.70044 0.13872 0.0
C487 C 0.28017 0.7219 0.1251 0.0
C488 C 0.27497 0.69284 0.17509 0.0
C489 C 0.26482 0.6699 0.19027 0.0
C490 C 0.23953 0.66701 0.19475 0.0
C491 C 0.23005 0.645 0.2079 0.0
C492 C 0.24573 0.62584 0.21699 0.0
C493 C 0.27092 0.6287 0.21312 0.0
C494 C 0.28048 0.65067 0.19988 0.0
C495 C 0.32519 0.78523 0.23163 0.0
C496 C 0.346 0.77581 0.24908 0.0
C497 C 0.30935 0.76981 0.21263 0.0
C498 C 0.31444 0.74479 0.20968 0.0
C499 C 0.33426 0.73509 0.2294 0.0
C500 C 0.34986 0.7505 0.24915 0.0
C501 C 0.29999 0.72919 0.18425 0.0
C502 C 0.28999 0.7073 0.19748 0.0
C503 C 0.29566 0.73613 0.14712 0.0
C504 C 0.30789 0.75749 0.13009 0.0
C505 C 0.33345 0.75959 0.13079 0.0
C506 C 0.34488 0.77985 0.11508 0.0
C507 C 0.33096 0.79806 0.09828 0.0
C508 C 0.30558 0.79601 0.0971 0.0
C509 C 0.29405 0.7758 0.11283 0.0
H510 H 0.33985 0.81374 0.08613 0.0
H511 H 0.23835 0.60879 0.22711 0.0
H512 H 0.37128 0.89057 0.29428 0.0
H513 H 0.3662 0.93486 0.29277 0.0
H514 H 0.44311 0.94404 0.31351 0.0
H515 H 0.44823 0.89995 0.31608 0.0
H516 H 0.41878 0.97648 0.35082 0.0
H517 H 0.41819 0.94799 0.22546 0.0
H518 H 0.40389 0.92334 0.1729 0.0
H519 H 0.33276 0.95552 0.18192 0.0
H520 H 0.34656 0.98014 0.23489 0.0
H521 H 0.44582 0.09078 0.27525 0.0
H522 H 0.44129 0.04659 0.27734 0.0
H523 H 0.36364 0.05442 0.29114 0.0
H524 H 0.36795 0.09895 0.28978 0.0
H525 H 0.38335 0.01429 0.23865 0.0
H526 H 0.38732 0.04534 0.36337 0.0
H527 H 0.40493 0.07085 0.41257 0.0
H528 H 0.47354 0.03391 0.40098 0.0
H529 H 0.45643 0.00845 0.35124 0.0
C530 C 0.38706 0.90202 0.29898 0.0
C531 C 0.4102 0.89168 0.30507 0.0
C532 C 0.38415 0.92734 0.29787 0.0
C533 C 0.40435 0.94279 0.30233 0.0
C534 C 0.42725 0.93251 0.30989 0.0
C535 C 0.43015 0.90725 0.31131 0.0
C536 C 0.40201 0.96962 0.29811 0.0
C537 C 0.41108 0.98467 0.32622 0.0
C538 C 0.39165 0.98043 0.26624 0.0
C539 C 0.38332 0.96567 0.23441 0.0
C540 C 0.39944 0.94966 0.21642 0.0
C541 C 0.39144 0.93572 0.18653 0.0
C542 C 0.36741 0.9378 0.17416 0.0
C543 C 0.35135 0.95388 0.19159 0.0
C544 C 0.35925 0.96784 0.22154 0.0
C545 C 0.42767 0.08322 0.27804 0.0
C546 C 0.40725 0.09845 0.28269 0.0
C547 C 0.42516 0.05794 0.27929 0.0
C548 C 0.40219 0.04738 0.28473 0.0
C549 C 0.38151 0.06234 0.28696 0.0
C550 C 0.38404 0.08774 0.28623 0.0
C551 C 0.40035 0.02084 0.29112 0.0
C552 C 0.3906 0.00595 0.26344 0.0
C553 C 0.41042 0.01012 0.32309 0.0
C554 C 0.42065 0.02515 0.35336 0.0
C555 C 0.40622 0.0428 0.37109 0.0
C556 C 0.4161 0.05723 0.39911 0.0
C557 C 0.44036 0.05404 0.40983 0.0
C558 C 0.45476 0.03637 0.39262 0.0
C559 C 0.44497 0.02192 0.36454 0.0
H560 H 0.44798 0.06523 0.43153 0.0
H561 H 0.36125 0.927 0.151 0.0
H562 H 0.90134 0.45193 0.53082 0.0
H563 H 0.94552 0.44816 0.5295 0.0
H564 H 0.93921 0.36977 0.53305 0.0
H565 H 0.89474 0.37344 0.53568 0.0
H566 H 0.97253 0.38377 0.57962 0.0
H567 H 0.95726 0.40061 0.45326 0.0
H568 H 0.93973 0.42202 0.39972 0.0
H569 H 0.97726 0.48758 0.43071 0.0
H570 H 0.99475 0.46667 0.48475 0.0
H571 H 0.10173 0.37379 0.53856 0.0
H572 H 0.05719 0.37028 0.53656 0.0
H573 H 0.05061 0.44789 0.55261 0.0
H574 H 0.09489 0.45161 0.55497 0.0
H575 H 0.02432 0.42966 0.49157 0.0
H576 H 0.03692 0.41197 0.62097 0.0
H577 H 0.05466 0.38926 0.67311 0.0
H578 H 0.02251 0.32301 0.63301 0.0
H579 H 0.00485 0.34529 0.5803 0.0
C580 C 0.90927 0.43384 0.53086 0.0
C581 C 0.89447 0.41298 0.53327 0.0
C582 C 0.9346 0.43171 0.52995 0.0
C583 C 0.94575 0.40866 0.53064 0.0
C584 C 0.93103 0.38774 0.53242 0.0
C585 C 0.90562 0.38987 0.53377 0.0
C586 C 0.97276 0.40667 0.53128 0.0
C587 C 0.98384 0.39341 0.55989 0.0
C588 C 0.98759 0.41944 0.50582 0.0
C589 C 0.97719 0.43209 0.47323 0.0
C590 C 0.96165 0.41964 0.44881 0.0
C591 C 0.95174 0.43169 0.41835 0.0
C592 C 0.95734 0.45616 0.41186 0.0
C593 C 0.97292 0.46863 0.43578 0.0
C594 C 0.98287 0.45667 0.4663 0.0
C595 C 0.09079 0.39007 0.54216 0.0
C596 C 0.10189 0.413 0.5468 0.0
C597 C 0.06537 0.38801 0.54101 0.0
C598 C 0.05069 0.40885 0.54428 0.0
C599 C 0.06167 0.43162 0.54987 0.0
C600 C 0.087 0.43367 0.55139 0.0
C601 C 0.02388 0.40728 0.54028 0.0
C602 C 0.01292 0.41981 0.51096 0.0
C603 C 0.00924 0.39361 0.56476 0.0
C604 C 0.01981 0.38024 0.59646 0.0
C605 C 0.03383 0.39252 0.62307 0.0
C606 C 0.04383 0.37973 0.65277 0.0
C607 C 0.03978 0.35469 0.65631 0.0
C608 C 0.02567 0.34239 0.6302 0.0
C609 C 0.01565 0.35509 0.60042 0.0
H610 H 0.04753 0.34483 0.67933 0.0
H611 H 0.94964 0.46545 0.38826 0.0
H612 H 0.62737 0.89772 0.7886 0.0
H613 H 0.63197 0.94206 0.78709 0.0
H614 H 0.55424 0.95001 0.77332 0.0
H615 H 0.54953 0.90582 0.77396 0.0
H616 H 0.57746 0.98243 0.73235 0.0
H617 H 0.58174 0.95494 0.85849 0.0
H618 H 0.59804 0.93085 0.91031 0.0
H619 H 0.66835 0.96389 0.89562 0.0
H620 H 0.65252 0.98795 0.84335 0.0
H621 H 0.54975 0.09666 0.80819 0.0
H622 H 0.55477 0.05262 0.80294 0.0
H623 H 0.63256 0.06158 0.79282 0.0
H624 H 0.62775 0.10598 0.79745 0.0
H625 H 0.61475 0.02153 0.8421 0.0
H626 H 0.60763 0.05248 0.71883 0.0
H627 H 0.58911 0.07732 0.66961 0.0
H628 H 0.52184 0.03805 0.68137 0.0
H629 H 0.53984 0.01324 0.73113 0.0
C630 C 0.61129 0.90889 0.7847 0.0
C631 C 0.58804 0.89821 0.78175 0.0
C632 C 0.61395 0.93424 0.78404 0.0
C633 C 0.5934 0.94936 0.7808 0.0
C634 C 0.57035 0.93871 0.77598 0.0
C635 C 0.56769 0.9134 0.77643 0.0
C636 C 0.59553 0.97624 0.78423 0.0
C637 C 0.58555 0.99094 0.75641 0.0
C638 C 0.6065 0.98741 0.81532 0.0
C639 C 0.61603 0.973 0.84674 0.0
C640 C 0.60072 0.95691 0.86612 0.0
C641 C 0.60986 0.94329 0.8956 0.0
C642 C 0.63423 0.94578 0.90617 0.0
C643 C 0.64949 0.96194 0.88734 0.0
C644 C 0.64045 0.97558 0.8578 0.0
C645 C 0.568 0.08935 0.80538 0.0
C646 C 0.58835 0.10487 0.80303 0.0
C647 C 0.57079 0.06417 0.80224 0.0
C648 C 0.59398 0.05399 0.7971 0.0
C649 C 0.61451 0.06921 0.79665 0.0
C650 C 0.61171 0.09452 0.79928 0.0
C651 C 0.59635 0.0275 0.79055 0.0
C652 C 0.60709 0.01294 0.81778 0.0
C653 C 0.58586 0.01643 0.75913 0.0
C654 C 0.57503 0.03114 0.72894 0.0
C655 C 0.58883 0.04928 0.71115 0.0
C656 C 0.57843 0.06333 0.68311 0.0
C657 C 0.5543 0.0593 0.67242 0.0
C658 C 0.54053 0.04116 0.6897 0.0
C659 C 0.55083 0.02708 0.7178 0.0
H660 H 0.54628 0.0702 0.65071 0.0
H661 H 0.64128 0.93522 0.92901 0.0
H662 H 0.90105 0.55866 0.08375 0.0
H663 H 0.94532 0.56423 0.08386 0.0
H664 H 0.93708 0.632 0.02495 0.0
H665 H 0.89281 0.62674 0.02493 0.0
H666 H 0.97029 0.59998 0.99225 0.0
H667 H 0.95396 0.6349 0.11067 0.0
H668 H 0.93646 0.63613 0.17324 0.0
H669 H 0.97812 0.57292 0.20335 0.0
H670 H 0.99562 0.5711 0.14076 0.0
H671 H 0.1011 0.62733 0.06683 0.0
H672 H 0.05679 0.63232 0.06818 0.0
H673 H 0.04813 0.56311 0.01337 0.0
H674 H 0.09239 0.55787 0.01201 0.0
H675 H 0.02336 0.60174 0.10294 0.0
H676 H 0.99794 0.5679 0.95698 0.0
H677 H 0.01531 0.56755 0.89426 0.0
H678 H 0.057 0.63171 0.91912 0.0
H679 H 0.03964 0.63265 0.9818 0.0
C680 C 0.90862 0.57493 0.07128 0.0
C681 C 0.8934 0.59222 0.05424 0.0
C682 C 0.9339 0.5781 0.07142 0.0
C683 C 0.94441 0.59851 0.05437 0.0
C684 C 0.92928 0.61611 0.0382 0.0
C685 C 0.90398 0.61311 0.0384 0.0
C686 C 0.97125 0.60074 0.05159 0.0
C687 C 0.98191 0.60049 0.01643 0.0
C688 C 0.98631 0.60162 0.08316 0.0
C689 C 0.97595 0.60275 0.12091 0.0
C690 C 0.95925 0.62115 0.13054 0.0
C691 C 0.94936 0.62197 0.16603 0.0
C692 C 0.95613 0.60458 0.19223 0.0
C693 C 0.97288 0.58637 0.18301 0.0
C694 C 0.98281 0.58545 0.14755 0.0
C695 C 0.08981 0.6133 0.05462 0.0
C696 C 0.10029 0.59217 0.03933 0.0
C697 C 0.06449 0.61614 0.05562 0.0
C698 C 0.04923 0.59811 0.04086 0.0
C699 C 0.05963 0.57732 0.02468 0.0
C700 C 0.08492 0.57434 0.02398 0.0
C701 C 0.0224 0.6005 0.04361 0.0
C702 C 0.01174 0.60147 0.07875 0.0
C703 C 0.00732 0.60039 0.01201 0.0
C704 C 0.01763 0.6002 0.9742 0.0
C705 C 0.01073 0.58199 0.94901 0.0
C706 C 0.02059 0.58168 0.91347 0.0
C707 C 0.0373 0.59955 0.90275 0.0
C708 C 0.04413 0.61783 0.92751 0.0
C709 C 0.03431 0.61823 0.96306 0.0
H710 H 0.04493 0.59927 0.87524 0.0
H711 H 0.94845 0.60525 0.21969 0.0
H712 H 0.56831 0.20773 0.92023 0.0
H713 H 0.5554 0.21431 0.98419 0.0
H714 H 0.4807 0.20101 0.95318 0.0
H715 H 0.49347 0.19404 0.88942 0.0
H716 H 0.4878 0.24042 0.0066 0.0
H717 H 0.5092 0.15561 0.98442 0.0
H718 H 0.53686 0.12284 0.96392 0.0
H719 H 0.5904 0.14591 0.04288 0.0
H720 H 0.56316 0.17906 0.06346 0.0
H721 H 0.43108 0.20139 0.17313 0.0
H722 H 0.44628 0.20943 0.11091 0.0
H723 H 0.52023 0.20096 0.14965 0.0
H724 H 0.50499 0.19168 0.21129 0.0
H725 H 0.51585 0.1758 0.09232 0.0
H726 H 0.49416 0.25794 0.11995 0.0
H727 H 0.46794 0.29183 0.14055 0.0
H728 H 0.41732 0.27641 0.05339 0.0
H729 H 0.44307 0.24222 0.03254 0.0
C730 C 0.54909 0.2067 0.9269 0.0
C731 C 0.53192 0.20018 0.89988 0.0
C732 C 0.54175 0.21043 0.96342 0.0
C733 C 0.51712 0.20801 0.97337 0.0
C734 C 0.49978 0.20301 0.94602 0.0
C735 C 0.50713 0.19892 0.90966 0.0
C736 C 0.50969 0.20814 0.01266 0.0
C737 C 0.49379 0.2263 0.02546 0.0
C738 C 0.518 0.19 0.0373 0.0
C739 C 0.53428 0.16997 0.02515 0.0
C740 C 0.52696 0.15382 0.99718 0.0
C741 C 0.54254 0.13516 0.98559 0.0
C742 C 0.56541 0.13234 0.00201 0.0
C743 C 0.57271 0.14814 0.03014 0.0
C744 C 0.5572 0.16686 0.04178 0.0
C745 C 0.45058 0.20169 0.16844 0.0
C746 C 0.46685 0.19581 0.19698 0.0
C747 C 0.4593 0.20641 0.13286 0.0
C748 C 0.48449 0.20599 0.1254 0.0
C749 C 0.50073 0.20127 0.15448 0.0
C750 C 0.49201 0.19604 0.18977 0.0
C751 C 0.49385 0.20825 0.08694 0.0
C752 C 0.51005 0.19031 0.074 0.0
C753 C 0.48602 0.22682 0.06244 0.0
C754 C 0.47046 0.24737 0.07488 0.0
C755 C 0.47734 0.26166 0.10534 0.0
C756 C 0.46258 0.28094 0.11703 0.0
C757 C 0.44095 0.28623 0.09835 0.0
C758 C 0.43407 0.27228 0.06786 0.0
C759 C 0.44876 0.25296 0.05606 0.0
H760 H 0.42954 0.30117 0.10744 0.0
H761 H 0.57745 0.11788 0.99301 0.0
H762 H 0.78911 0.56846 0.16532 0.0
H763 H 0.78202 0.55536 0.22905 0.0
H764 H 0.7994 0.48134 0.19893 0.0
H765 H 0.8068 0.49429 0.13539 0.0
H766 H 0.75901 0.48593 0.24957 0.0
H767 H 0.84259 0.51306 0.23346 0.0
H768 H 0.87419 0.54277 0.21552 0.0
H769 H 0.8455 0.59437 0.29327 0.0
H770 H 0.81349 0.56506 0.31128 0.0
H771 H 0.7955 0.43175 0.41902 0.0
H772 H 0.78913 0.44652 0.35619 0.0
H773 H 0.79111 0.52077 0.39556 0.0
H774 H 0.79872 0.50604 0.45802 0.0
H775 H 0.81853 0.51823 0.34014 0.0
H776 H 0.73714 0.49091 0.36123 0.0
H777 H 0.70455 0.46232 0.37922 0.0
H778 H 0.72666 0.41295 0.29366 0.0
H779 H 0.7596 0.4411 0.27545 0.0
C780 C 0.79098 0.54933 0.17212 0.0
C781 C 0.79868 0.53244 0.14539 0.0
C782 C 0.78698 0.54189 0.20854 0.0
C783 C 0.79036 0.51741 0.21872 0.0
C784 C 0.79666 0.50029 0.19164 0.0
C785 C 0.80098 0.50776 0.15538 0.0
C786 C 0.78949 0.50995 0.25802 0.0
C787 C 0.77205 0.49285 0.26947 0.0
C788 C 0.80616 0.51944 0.28402 0.0
C789 C 0.82549 0.53699 0.27339 0.0
C790 C 0.8429 0.53082 0.24649 0.0
C791 C 0.8609 0.54757 0.23636 0.0
C792 C 0.86181 0.57047 0.25316 0.0
C793 C 0.84475 0.57664 0.28022 0.0
C794 C 0.82668 0.55997 0.29041 0.0
C795 C 0.79413 0.4512 0.41432 0.0
C796 C 0.79767 0.46774 0.4434 0.0
C797 C 0.79037 0.45967 0.37835 0.0
C798 C 0.78941 0.48484 0.37092 0.0
C799 C 0.79188 0.50129 0.40037 0.0
C800 C 0.79614 0.49285 0.43614 0.0
C801 C 0.7879 0.49408 0.33228 0.0
C802 C 0.80511 0.51147 0.32071 0.0
C803 C 0.77079 0.48502 0.30637 0.0
C804 C 0.75097 0.46804 0.31718 0.0
C805 C 0.73517 0.47388 0.34642 0.0
C806 C 0.71661 0.45776 0.35662 0.0
C807 C 0.71357 0.43581 0.33764 0.0
C808 C 0.72905 0.42995 0.30835 0.0
C809 C 0.74765 0.446 0.29805 0.0
H810 H 0.6992 0.42335 0.34559 0.0
H811 H 0.87576 0.58341 0.24528 0.0
H812 H 0.49472 0.80566 0.70831 0.0
H813 H 0.48214 0.79743 0.64487 0.0
H814 H 0.55707 0.78471 0.6144 0.0
H815 H 0.56981 0.79266 0.67803 0.0
H816 H 0.53305 0.81987 0.57111 0.0
H817 H 0.51941 0.73817 0.61374 0.0
H818 H 0.50265 0.70667 0.65505 0.0
H819 H 0.42986 0.72949 0.62845 0.0
H820 H 0.44619 0.76139 0.58736 0.0
H821 H 0.50666 0.79832 0.3855 0.0
H822 H 0.52152 0.79148 0.44809 0.0
H823 H 0.44738 0.78942 0.48792 0.0
H824 H 0.43244 0.79495 0.42484 0.0
H825 H 0.4729 0.75912 0.5265 0.0
H826 H 0.48412 0.84254 0.49112 0.0
H827 H 0.49846 0.87657 0.45233 0.0
H828 H 0.57264 0.85391 0.4685 0.0
H829 H 0.5587 0.81955 0.50703 0.0
C830 C 0.50849 0.80065 0.68828 0.0
C831 C 0.53328 0.79988 0.69816 0.0
C832 C 0.50125 0.79587 0.65206 0.0
C833 C 0.51866 0.79042 0.62494 0.0
C834 C 0.54334 0.78883 0.63496 0.0
C835 C 0.55058 0.79328 0.67134 0.0
C836 C 0.51129 0.78869 0.58566 0.0
C837 C 0.52029 0.80626 0.56114 0.0
C838 C 0.49391 0.77154 0.57309 0.0
C839 C 0.48404 0.75231 0.59769 0.0
C840 C 0.49983 0.73662 0.61692 0.0
C841 C 0.49041 0.71866 0.64026 0.0
C842 C 0.46521 0.71611 0.64443 0.0
C843 C 0.44938 0.73149 0.62521 0.0
C844 C 0.45871 0.7495 0.60186 0.0
C845 C 0.49353 0.79601 0.40754 0.0
C846 C 0.4684 0.79738 0.40038 0.0
C847 C 0.50204 0.79226 0.44338 0.0
C848 C 0.48563 0.79066 0.47304 0.0
C849 C 0.46046 0.79074 0.46563 0.0
C850 C 0.45191 0.79392 0.42956 0.0
C851 C 0.49469 0.79034 0.51178 0.0
C852 C 0.4859 0.77254 0.53628 0.0
C853 C 0.5119 0.80765 0.52468 0.0
C854 C 0.52035 0.82833 0.50162 0.0
C855 C 0.50347 0.84473 0.48619 0.0
C856 C 0.51153 0.86408 0.46428 0.0
C857 C 0.53644 0.86736 0.45787 0.0
C858 C 0.55335 0.85132 0.47344 0.0
C859 C 0.54538 0.83191 0.49533 0.0
H860 H 0.54264 0.88235 0.4409 0.0
H861 H 0.45795 0.7022 0.66251 0.0
H862 H 0.17533 0.49367 0.95468 0.0
H863 H 0.18186 0.47847 0.89231 0.0
H864 H 0.21679 0.54611 0.86258 0.0
H865 H 0.21047 0.56147 0.92531 0.0
H866 H 0.1622 0.4971 0.83152 0.0
H867 H 0.25738 0.5342 0.79112 0.0
H868 H 0.29691 0.54335 0.82042 0.0
H869 H 0.28228 0.49038 0.9047 0.0
H870 H 0.24283 0.48068 0.87565 0.0
H871 H 0.17447 0.50292 0.63989 0.0
H872 H 0.17971 0.51466 0.70422 0.0
H873 H 0.22144 0.44938 0.72418 0.0
H874 H 0.21611 0.43726 0.65951 0.0
H875 H 0.23968 0.49362 0.761 0.0
H876 H 0.16663 0.44579 0.74685 0.0
H877 H 0.12742 0.43486 0.71803 0.0
H878 H 0.09841 0.50522 0.74578 0.0
H879 H 0.13761 0.51671 0.77428 0.0
C880 C 0.18472 0.50524 0.93509 0.0
C881 C 0.19226 0.52887 0.94495 0.0
C882 C 0.1884 0.49651 0.89938 0.0
C883 C 0.1998 0.51112 0.87272 0.0
C884 C 0.20818 0.5344 0.88278 0.0
C885 C 0.20449 0.54319 0.91863 0.0
C886 C 0.20107 0.50264 0.83385 0.0
C887 C 0.17919 0.4963 0.81624 0.0
C888 C 0.22324 0.50139 0.81387 0.0
C889 C 0.24703 0.5069 0.83138 0.0
C890 C 0.26264 0.52444 0.81583 0.0
C891 C 0.28503 0.52974 0.83241 0.0
C892 C 0.29207 0.51751 0.86447 0.0
C893 C 0.27676 0.49991 0.87995 0.0
C894 C 0.25437 0.49454 0.86347 0.0
C895 C 0.18509 0.49117 0.65771 0.0
C896 C 0.1947 0.46902 0.6446 0.0
C897 C 0.18807 0.49794 0.6945 0.0
C898 C 0.20079 0.4828 0.71897 0.0
C899 C 0.21158 0.46132 0.70565 0.0
C900 C 0.20845 0.4544 0.66876 0.0
C901 C 0.20081 0.48849 0.75892 0.0
C902 C 0.2228 0.49438 0.77654 0.0
C903 C 0.17879 0.48911 0.7792 0.0
C904 C 0.15513 0.48218 0.76239 0.0
C905 C 0.15196 0.459 0.74654 0.0
C906 C 0.12973 0.45269 0.73031 0.0
C907 C 0.11046 0.46936 0.72999 0.0
C908 C 0.11336 0.49234 0.74601 0.0
C909 C 0.13558 0.49875 0.76223 0.0
H910 H 0.09326 0.46444 0.71741 0.0
H911 H 0.3094 0.52164 0.87727 0.0
loop_
_geom_bond_atom_site_label_1
_geom_bond_atom_site_label_2
_geom_bond_distance
_geom_bond_site_symmetry_2
_ccdc_geom_bond_type
O0 Cd1 2.223 . S
O0 C8 1.315 . S
Cd1 O0 2.223 . S
Cd1 O4 2.297 . S
Cd1 O5 2.439 . S
Cd1 O11 2.240 . S
Cd2 O3 2.240 . S
Cd2 O10 2.223 . S
Cd2 O12 2.297 . S
Cd2 O13 2.439 . S
O3 Cd2 2.240 . S
O3 C8 1.279 . S
O4 Cd1 2.297 . S
O4 C6 1.247 . S
O5 Cd1 2.439 . S
O5 C6 1.208 . S
C6 O4 1.247 . S
C6 O5 1.208 . S
C7 O12 1.247 . S
C7 O13 1.208 . S
C8 O0 1.315 . S
C8 O3 1.279 . S
C9 O10 1.315 . S
C9 O11 1.279 . S
O10 Cd2 2.223 . S
O10 C9 1.315 . S
O11 Cd1 2.240 . S
O11 C9 1.279 . S
O12 Cd2 2.297 . S
O12 C7 1.247 . S
O13 Cd2 2.439 . S
O13 C7 1.208 . S
O14 Cd15 2.223 . S
O14 C22 1.315 . S
Cd15 O14 2.223 . S
Cd15 O18 2.297 . S
Cd15 O19 2.439 . S
Cd15 O25 2.240 . S
Cd16 O17 2.240 . S
Cd16 O24 2.223 . S
Cd16 O26 2.297 . S
Cd16 O27 2.439 . S
O17 Cd16 2.240 . S
O17 C22 1.279 . S
O18 Cd15 2.297 . S
O18 C20 1.247 . S
O19 Cd15 2.439 . S
O19 C20 1.208 . S
C20 O18 1.247 . S
C20 O19 1.208 . S
C21 O26 1.247 . S
C21 O27 1.208 . S
C22 O14 1.315 . S
C22 O17 1.279 . S
C23 O24 1.315 . S
C23 O25 1.279 . S
O24 Cd16 2.223 . S
O24 C23 1.315 . S
O25 Cd15 2.240 . S
O25 C23 1.279 . S
O26 Cd16 2.297 . S
O26 C21 1.247 . S
O27 Cd16 2.439 . S
O27 C21 1.208 . S
O28 Cd29 2.223 . S
O28 C36 1.315 . S
Cd29 O28 2.223 . S
Cd29 O32 2.297 . S
Cd29 O33 2.439 . S
Cd29 O39 2.240 . S
Cd30 O31 2.240 . S
Cd30 O38 2.223 . S
Cd30 O40 2.297 . S
Cd30 O41 2.439 . S
O31 Cd30 2.240 . S
O31 C36 1.279 . S
O32 Cd29 2.297 . S
O32 C34 1.247 . S
O33 Cd29 2.439 . S
O33 C34 1.208 . S
C34 O32 1.247 . S
C34 O33 1.208 . S
C35 O40 1.247 . S
C35 O41 1.208 . S
C36 O28 1.315 . S
C36 O31 1.279 . S
C37 O38 1.315 . S
C37 O39 1.279 . S
O38 Cd30 2.223 . S
O38 C37 1.315 . S
O39 Cd29 2.240 . S
O39 C37 1.279 . S
O40 Cd30 2.297 . S
O40 C35 1.247 . S
O41 Cd30 2.439 . S
O41 C35 1.208 . S
O42 Cd43 2.223 . S
O42 C50 1.315 . S
Cd43 O42 2.223 . S
Cd43 O46 2.297 . S
Cd43 O47 2.439 . S
Cd43 O53 2.240 . S
Cd44 O45 2.240 . S
Cd44 O52 2.223 . S
Cd44 O54 2.297 1_554 S
Cd44 O55 2.439 1_554 S
O45 Cd44 2.240 . S
O45 C50 1.279 . S
O46 Cd43 2.297 . S
O46 C48 1.247 . S
O47 Cd43 2.439 . S
O47 C48 1.208 . S
C48 O46 1.247 . S
C48 O47 1.208 . S
C49 O54 1.247 . S
C49 O55 1.208 . S
C50 O42 1.315 . S
C50 O45 1.279 . S
C51 O52 1.315 . S
C51 O53 1.279 . S
O52 Cd44 2.223 . S
O52 C51 1.315 . S
O53 Cd43 2.240 . S
O53 C51 1.279 . S
O54 Cd44 2.297 1_556 S
O54 C49 1.247 . S
O55 Cd44 2.439 1_556 S
O55 C49 1.208 . S
O56 Cd57 2.223 . S
O56 C64 1.315 . S
Cd57 O56 2.223 . S
Cd57 O60 2.297 . S
Cd57 O61 2.439 . S
Cd57 O67 2.240 . S
Cd58 O59 2.240 . S
Cd58 O66 2.223 . S
Cd58 O68 2.297 . S
Cd58 O69 2.439 . S
O59 Cd58 2.240 . S
O59 C64 1.279 . S
O60 Cd57 2.297 . S
O60 C62 1.247 . S
O61 Cd57 2.439 . S
O61 C62 1.208 . S
C62 O60 1.247 . S
C62 O61 1.208 . S
C63 O68 1.247 . S
C63 O69 1.208 . S
C64 O56 1.315 . S
C64 O59 1.279 . S
C65 O66 1.315 . S
C65 O67 1.279 . S
O66 Cd58 2.223 . S
O66 C65 1.315 . S
O67 Cd57 2.240 . S
O67 C65 1.279 . S
O68 Cd58 2.297 . S
O68 C63 1.247 . S
O69 Cd58 2.439 . S
O69 C63 1.208 . S
O70 Cd71 2.223 . S
O70 C78 1.315 . S
Cd71 O70 2.223 . S
Cd71 O74 2.297 . S
Cd71 O75 2.439 . S
Cd71 O81 2.240 . S
Cd72 O73 2.240 . S
Cd72 O80 2.223 . S
Cd72 O82 2.297 . S
Cd72 O83 2.439 . S
O73 Cd72 2.240 . S
O73 C78 1.279 . S
O74 Cd71 2.297 . S
O74 C76 1.247 . S
O75 Cd71 2.439 . S
O75 C76 1.208 . S
C76 O74 1.247 . S
C76 O75 1.208 . S
C77 O82 1.247 . S
C77 O83 1.208 . S
C78 O70 1.315 . S
C78 O73 1.279 . S
C79 O80 1.315 . S
C79 O81 1.279 . S
O80 Cd72 2.223 . S
O80 C79 1.315 . S
O81 Cd71 2.240 . S
O81 C79 1.279 . S
O82 Cd72 2.297 . S
O82 C77 1.247 . S
O83 Cd72 2.439 . S
O83 C77 1.208 . S
O84 Cd85 2.223 . S
O84 C92 1.315 . S
Cd85 O84 2.223 . S
Cd85 O88 2.297 . S
Cd85 O89 2.439 . S
Cd85 O95 2.240 . S
Cd86 O87 2.240 . S
Cd86 O94 2.223 . S
Cd86 O96 2.297 . S
Cd86 O97 2.439 . S
O87 Cd86 2.240 . S
O87 C92 1.279 . S
O88 Cd85 2.297 . S
O88 C90 1.247 . S
O89 Cd85 2.439 . S
O89 C90 1.208 . S
C90 O88 1.247 . S
C90 O89 1.208 . S
C91 O96 1.247 . S
C91 O97 1.208 . S
C92 O84 1.315 . S
C92 O87 1.279 . S
C93 O94 1.315 . S
C93 O95 1.279 . S
O94 Cd86 2.223 . S
O94 C93 1.315 . S
O95 Cd85 2.240 . S
O95 C93 1.279 . S
O96 Cd86 2.297 . S
O96 C91 1.247 . S
O97 Cd86 2.439 . S
O97 C91 1.208 . S
O98 Cd99 2.223 . S
O98 C106 1.315 . S
Cd99 O98 2.223 . S
Cd99 O102 2.297 . S
Cd99 O103 2.439 1_556 S
Cd99 O109 2.240 1_556 S
Cd100 O101 2.240 1_554 S
Cd100 O108 2.223 . S
Cd100 O110 2.297 . S
Cd100 O111 2.439 . S
O101 Cd100 2.240 1_556 S
O101 C106 1.279 . S
O102 Cd99 2.297 . S
O102 C104 1.247 . S
O103 Cd99 2.439 1_554 S
O103 C104 1.208 1_554 S
C104 O102 1.247 . S
C104 O103 1.208 1_556 S
C105 O110 1.247 . S
C105 O111 1.208 . S
C106 O98 1.315 . S
C106 O101 1.279 . S
C107 O108 1.315 . S
C107 O109 1.279 . S
O108 Cd100 2.223 . S
O108 C107 1.315 . S
O109 Cd99 2.240 1_554 S
O109 C107 1.279 . S
O110 Cd100 2.297 . S
O110 C105 1.247 . S
O111 Cd100 2.439 . S
O111 C105 1.208 . S
H112 C130 0.951 . S
H113 C132 0.951 . S
H114 C134 0.950 . S
H115 C135 0.950 . S
H116 C137 0.950 . S
H117 C140 0.950 . S
H118 C141 0.950 . S
H119 C143 0.950 . S
H120 C144 0.950 . S
H121 C145 0.951 . S
H122 C147 0.951 . S
H123 C149 0.950 . S
H124 C150 0.950 . S
H125 C152 0.950 . S
H126 C155 0.950 . S
H127 C156 0.950 . S
H128 C158 0.950 . S
H129 C159 0.950 . S
C130 H112 0.951 . S
C130 C131 1.366 . S
C130 C132 1.388 . S
C131 C130 1.366 . S
C131 C135 1.385 . S
C132 H113 0.951 . S
C132 C130 1.388 . S
C132 C133 1.366 . S
C133 C132 1.366 . S
C133 C134 1.414 . S
C133 C136 1.499 . S
C134 H114 0.950 . S
C134 C133 1.414 . S
C134 C135 1.374 . S
C135 H115 0.950 . S
C135 C131 1.385 . S
C135 C134 1.374 . S
C136 C133 1.499 . S
C136 C137 1.373 . S
C136 C138 1.389 . S
C137 H116 0.950 . S
C137 C136 1.373 . S
C137 C153 1.377 . S
C138 C136 1.389 . S
C138 C139 1.524 . S
C138 C152 1.377 . S
C139 C138 1.524 . S
C139 C140 1.397 . S
C139 C144 1.363 . S
C140 H117 0.950 . S
C140 C139 1.397 . S
C140 C141 1.334 . S
C141 H118 0.950 . S
C141 C140 1.334 . S
C141 C142 1.287 . S
C142 C141 1.287 . S
C142 C143 1.524 . S
C142 H161 0.913 . S
C143 H119 0.950 . S
C143 C142 1.524 . S
C143 C144 1.415 . S
C144 H120 0.950 . S
C144 C139 1.363 . S
C144 C143 1.415 . S
C145 H121 0.951 . S
C145 C146 1.366 . S
C145 C147 1.388 . S
C146 C145 1.366 . S
C146 C150 1.385 . S
C147 H122 0.951 . S
C147 C145 1.388 . S
C147 C148 1.366 . S
C148 C147 1.366 . S
C148 C149 1.414 . S
C148 C151 1.499 . S
C149 H123 0.950 . S
C149 C148 1.414 . S
C149 C150 1.374 . S
C150 H124 0.950 . S
C150 C146 1.385 . S
C150 C149 1.374 . S
C151 C148 1.499 . S
C151 C152 1.373 . S
C151 C153 1.389 . S
C152 H125 0.950 . S
C152 C138 1.377 . S
C152 C151 1.373 . S
C153 C137 1.377 . S
C153 C151 1.389 . S
C153 C154 1.524 . S
C154 C153 1.524 . S
C154 C155 1.397 . S
C154 C159 1.363 . S
C155 H126 0.950 . S
C155 C154 1.397 . S
C155 C156 1.334 . S
C156 H127 0.950 . S
C156 C155 1.334 . S
C156 C157 1.287 . S
C157 C156 1.287 . S
C157 C158 1.524 . S
C157 H160 0.999 . S
C158 H128 0.950 . S
C158 C157 1.524 . S
C158 C159 1.415 . S
C159 H129 0.950 . S
C159 C154 1.363 . S
C159 C158 1.415 . S
H160 C157 0.999 . S
H161 C142 0.913 . S
H162 C180 0.951 . S
H163 C182 0.951 . S
H164 C184 0.950 . S
H165 C185 0.950 . S
H166 C187 0.950 . S
H167 C190 0.950 . S
H168 C191 0.950 . S
H169 C193 0.950 . S
H170 C194 0.950 . S
H171 C195 0.951 . S
H172 C197 0.951 . S
H173 C199 0.950 . S
H174 C200 0.950 . S
H175 C202 0.950 . S
H176 C205 0.950 . S
H177 C206 0.950 . S
H178 C208 0.950 . S
H179 C209 0.950 . S
C180 H162 0.951 . S
C180 C181 1.366 . S
C180 C182 1.388 . S
C181 C180 1.366 . S
C181 C185 1.385 . S
C182 H163 0.951 . S
C182 C180 1.388 . S
C182 C183 1.366 . S
C183 C182 1.366 . S
C183 C184 1.414 . S
C183 C186 1.499 . S
C184 H164 0.950 . S
C184 C183 1.414 . S
C184 C185 1.374 . S
C185 H165 0.950 . S
C185 C181 1.385 . S
C185 C184 1.374 . S
C186 C183 1.499 . S
C186 C187 1.373 . S
C186 C188 1.389 . S
C187 H166 0.950 . S
C187 C186 1.373 . S
C187 C203 1.377 . S
C188 C186 1.389 . S
C188 C189 1.524 . S
C188 C202 1.377 . S
C189 C188 1.524 . S
C189 C190 1.397 . S
C189 C194 1.363 . S
C190 H167 0.950 . S
C190 C189 1.397 . S
C190 C191 1.334 . S
C191 H168 0.950 . S
C191 C190 1.334 . S
C191 C192 1.287 . S
C192 C191 1.287 . S
C192 C193 1.524 . S
C192 H211 0.913 . S
C193 H169 0.950 . S
C193 C192 1.524 . S
C193 C194 1.415 . S
C194 H170 0.950 . S
C194 C189 1.363 . S
C194 C193 1.415 . S
C195 H171 0.951 . S
C195 C196 1.366 . S
C195 C197 1.388 . S
C196 C195 1.366 . S
C196 C200 1.385 . S
C197 H172 0.951 . S
C197 C195 1.388 . S
C197 C198 1.366 . S
C198 C197 1.366 . S
C198 C199 1.414 . S
C198 C201 1.499 . S
C199 H173 0.950 . S
C199 C198 1.414 . S
C199 C200 1.374 . S
C200 H174 0.950 . S
C200 C196 1.385 . S
C200 C199 1.374 . S
C201 C198 1.499 . S
C201 C202 1.373 . S
C201 C203 1.389 . S
C202 H175 0.950 . S
C202 C188 1.377 . S
C202 C201 1.373 . S
C203 C187 1.377 . S
C203 C201 1.389 . S
C203 C204 1.524 . S
C204 C203 1.524 . S
C204 C205 1.397 . S
C204 C209 1.363 . S
C205 H176 0.950 . S
C205 C204 1.397 . S
C205 C206 1.334 . S
C206 H177 0.950 . S
C206 C205 1.334 . S
C206 C207 1.287 . S
C207 C206 1.287 . S
C207 C208 1.524 . S
C207 H210 0.999 . S
C208 H178 0.950 . S
C208 C207 1.524 . S
C208 C209 1.415 . S
C209 H179 0.950 . S
C209 C204 1.363 . S
C209 C208 1.415 . S
H210 C207 0.999 . S
H211 C192 0.913 . S
H212 C230 0.951 . S
H213 C232 0.951 . S
H214 C234 0.950 . S
H215 C235 0.950 . S
H216 C237 0.950 . S
H217 C240 0.950 . S
H218 C241 0.950 . S
H219 C243 0.950 . S
H220 C244 0.950 . S
H221 C245 0.951 . S
H222 C247 0.951 . S
H223 C249 0.950 . S
H224 C250 0.950 . S
H225 C252 0.950 . S
H226 C255 0.950 . S
H227 C256 0.950 . S
H228 C258 0.950 . S
H229 C259 0.950 . S
C230 H212 0.951 . S
C230 C231 1.366 . S
C230 C232 1.388 . S
C231 C230 1.366 . S
C231 C235 1.385 . S
C232 H213 0.951 . S
C232 C230 1.388 . S
C232 C233 1.366 . S
C233 C232 1.366 . S
C233 C234 1.414 . S
C233 C236 1.499 . S
C234 H214 0.950 . S
C234 C233 1.414 . S
C234 C235 1.374 . S
C235 H215 0.950 . S
C235 C231 1.385 . S
C235 C234 1.374 . S
C236 C233 1.499 . S
C236 C237 1.373 . S
C236 C238 1.389 . S
C237 H216 0.950 . S
C237 C236 1.373 . S
C237 C253 1.377 . S
C238 C236 1.389 . S
C238 C239 1.524 . S
C238 C252 1.377 . S
C239 C238 1.524 . S
C239 C240 1.397 . S
C239 C244 1.363 . S
C240 H217 0.950 . S
C240 C239 1.397 . S
C240 C241 1.334 . S
C241 H218 0.950 . S
C241 C240 1.334 . S
C241 C242 1.287 . S
C242 C241 1.287 . S
C242 C243 1.524 . S
C242 H261 0.913 . S
C243 H219 0.950 . S
C243 C242 1.524 . S
C243 C244 1.415 . S
C244 H220 0.950 . S
C244 C239 1.363 . S
C244 C243 1.415 . S
C245 H221 0.951 . S
C245 C246 1.366 . S
C245 C247 1.388 . S
C246 C245 1.366 . S
C246 C250 1.385 . S
C247 H222 0.951 . S
C247 C245 1.388 . S
C247 C248 1.366 . S
C248 C247 1.366 . S
C248 C249 1.414 . S
C248 C251 1.499 1_556 S
C249 H223 0.950 . S
C249 C248 1.414 . S
C249 C250 1.374 . S
C250 H224 0.950 . S
C250 C246 1.385 . S
C250 C249 1.374 . S
C251 C248 1.499 1_554 S
C251 C252 1.373 . S
C251 C253 1.389 . S
C252 H225 0.950 . S
C252 C238 1.377 . S
C252 C251 1.373 . S
C253 C237 1.377 . S
C253 C251 1.389 . S
C253 C254 1.524 . S
C254 C253 1.524 . S
C254 C255 1.397 . S
C254 C259 1.363 . S
C255 H226 0.950 . S
C255 C254 1.397 . S
C255 C256 1.334 . S
C256 H227 0.950 . S
C256 C255 1.334 . S
C256 C257 1.287 . S
C257 C256 1.287 . S
C257 C258 1.524 . S
C257 H260 0.999 . S
C258 H228 0.950 . S
C258 C257 1.524 . S
C258 C259 1.415 . S
C259 H229 0.950 . S
C259 C254 1.363 . S
C259 C258 1.415 . S
H260 C257 0.999 . S
H261 C242 0.913 . S
H262 C280 0.951 . S
H263 C282 0.951 . S
H264 C284 0.950 . S
H265 C285 0.950 . S
H266 C287 0.950 . S
H267 C290 0.950 . S
H268 C291 0.950 . S
H269 C293 0.950 . S
H270 C294 0.950 . S
H271 C295 0.951 . S
H272 C297 0.951 . S
H273 C299 0.950 . S
H274 C300 0.950 . S
H275 C302 0.950 . S
H276 C305 0.950 . S
H277 C306 0.950 . S
H278 C308 0.950 . S
H279 C309 0.950 . S
C280 H262 0.951 . S
C280 C281 1.366 . S
C280 C282 1.388 . S
C281 C280 1.366 . S
C281 C285 1.385 . S
C282 H263 0.951 . S
C282 C280 1.388 . S
C282 C283 1.366 . S
C283 C282 1.366 . S
C283 C284 1.414 . S
C283 C286 1.499 . S
C284 H264 0.950 . S
C284 C283 1.414 . S
C284 C285 1.374 . S
C285 H265 0.950 . S
C285 C281 1.385 . S
C285 C284 1.374 . S
C286 C283 1.499 . S
C286 C287 1.373 . S
C286 C288 1.389 . S
C287 H266 0.950 . S
C287 C286 1.373 . S
C287 C303 1.377 . S
C288 C286 1.389 . S
C288 C289 1.524 . S
C288 C302 1.377 . S
C289 C288 1.524 . S
C289 C290 1.397 . S
C289 C294 1.363 . S
C290 H267 0.950 . S
C290 C289 1.397 . S
C290 C291 1.334 . S
C291 H268 0.950 . S
C291 C290 1.334 . S
C291 C292 1.287 . S
C292 C291 1.287 . S
C292 C293 1.524 . S
C292 H311 0.913 . S
C293 H269 0.950 . S
C293 C292 1.524 . S
C293 C294 1.415 . S
C294 H270 0.950 . S
C294 C289 1.363 . S
C294 C293 1.415 . S
C295 H271 0.951 . S
C295 C296 1.366 . S
C295 C297 1.388 . S
C296 C295 1.366 . S
C296 C300 1.385 . S
C297 H272 0.951 . S
C297 C295 1.388 . S
C297 C298 1.366 . S
C298 C297 1.366 . S
C298 C299 1.414 . S
C298 C301 1.499 . S
C299 H273 0.950 . S
C299 C298 1.414 . S
C299 C300 1.374 . S
C300 H274 0.950 . S
C300 C296 1.385 . S
C300 C299 1.374 . S
C301 C298 1.499 . S
C301 C302 1.373 . S
C301 C303 1.389 . S
C302 H275 0.950 . S
C302 C288 1.377 . S
C302 C301 1.373 . S
C303 C287 1.377 . S
C303 C301 1.389 . S
C303 C304 1.524 . S
C304 C303 1.524 . S
C304 C305 1.397 . S
C304 C309 1.363 . S
C305 H276 0.950 . S
C305 C304 1.397 . S
C305 C306 1.334 . S
C306 H277 0.950 . S
C306 C305 1.334 . S
C306 C307 1.287 . S
C307 C306 1.287 . S
C307 C308 1.524 . S
C307 H310 0.999 . S
C308 H278 0.950 . S
C308 C307 1.524 . S
C308 C309 1.415 . S
C309 H279 0.950 . S
C309 C304 1.363 . S
C309 C308 1.415 . S
H310 C307 0.999 . S
H311 C292 0.913 . S
H312 C330 0.951 . S
H313 C332 0.951 . S
H314 C334 0.950 . S
H315 C335 0.950 . S
H316 C337 0.950 . S
H317 C340 0.950 . S
H318 C341 0.950 . S
H319 C343 0.950 . S
H320 C344 0.950 . S
H321 C345 0.951 . S
H322 C347 0.951 . S
H323 C349 0.950 . S
H324 C350 0.950 . S
H325 C352 0.950 . S
H326 C355 0.950 . S
H327 C356 0.950 . S
H328 C358 0.950 . S
H329 C359 0.950 . S
C330 H312 0.951 . S
C330 C331 1.366 . S
C330 C332 1.388 . S
C331 C330 1.366 . S
C331 C335 1.385 . S
C332 H313 0.951 . S
C332 C330 1.388 . S
C332 C333 1.366 . S
C333 C332 1.366 . S
C333 C334 1.414 . S
C333 C336 1.499 . S
C334 H314 0.950 . S
C334 C333 1.414 . S
C334 C335 1.374 . S
C335 H315 0.950 . S
C335 C331 1.385 . S
C335 C334 1.374 . S
C336 C333 1.499 . S
C336 C337 1.373 . S
C336 C338 1.389 . S
C337 H316 0.950 . S
C337 C336 1.373 . S
C337 C353 1.377 . S
C338 C336 1.389 . S
C338 C339 1.524 . S
C338 C352 1.377 . S
C339 C338 1.524 . S
C339 C340 1.397 . S
C339 C344 1.363 . S
C340 H317 0.950 . S
C340 C339 1.397 . S
C340 C341 1.334 . S
C341 H318 0.950 . S
C341 C340 1.334 . S
C341 C342 1.287 . S
C342 C341 1.287 . S
C342 C343 1.524 . S
C342 H361 0.913 . S
C343 H319 0.950 . S
C343 C342 1.524 . S
C343 C344 1.415 . S
C344 H320 0.950 . S
C344 C339 1.363 . S
C344 C343 1.415 . S
C345 H321 0.951 . S
C345 C346 1.366 . S
C345 C347 1.388 . S
C346 C345 1.366 . S
C346 C350 1.385 . S
C347 H322 0.951 . S
C347 C345 1.388 . S
C347 C348 1.366 . S
C348 C347 1.366 . S
C348 C349 1.414 . S
C348 C351 1.499 . S
C349 H323 0.950 . S
C349 C348 1.414 . S
C349 C350 1.374 . S
C350 H324 0.950 . S
C350 C346 1.385 . S
C350 C349 1.374 . S
C351 C348 1.499 . S
C351 C352 1.373 . S
C351 C353 1.389 . S
C352 H325 0.950 . S
C352 C338 1.377 . S
C352 C351 1.373 . S
C353 C337 1.377 . S
C353 C351 1.389 . S
C353 C354 1.524 . S
C354 C353 1.524 . S
C354 C355 1.397 . S
C354 C359 1.363 . S
C355 H326 0.950 . S
C355 C354 1.397 . S
C355 C356 1.334 . S
C356 H327 0.950 . S
C356 C355 1.334 . S
C356 C357 1.287 . S
C357 C356 1.287 . S
C357 C358 1.524 . S
C357 H360 0.999 . S
C358 H328 0.950 . S
C358 C357 1.524 . S
C358 C359 1.415 . S
C359 H329 0.950 . S
C359 C354 1.363 . S
C359 C358 1.415 . S
H360 C357 0.999 . S
H361 C342 0.913 . S
H362 C380 0.951 . S
H363 C382 0.951 . S
H364 C384 0.950 . S
H365 C385 0.950 . S
H366 C387 0.950 . S
H367 C390 0.950 . S
H368 C391 0.950 . S
H369 C393 0.950 . S
H370 C394 0.950 . S
H371 C395 0.951 . S
H372 C397 0.951 . S
H373 C399 0.950 . S
H374 C400 0.950 . S
H375 C402 0.950 . S
H376 C405 0.950 . S
H377 C406 0.950 . S
H378 C408 0.950 . S
H379 C409 0.950 . S
C380 H362 0.951 . S
C380 C381 1.366 . S
C380 C382 1.388 . S
C381 C380 1.366 . S
C381 C385 1.385 . S
C382 H363 0.951 . S
C382 C380 1.388 . S
C382 C383 1.366 . S
C383 C382 1.366 . S
C383 C384 1.414 . S
C383 C386 1.499 . S
C384 H364 0.950 . S
C384 C383 1.414 . S
C384 C385 1.374 . S
C385 H365 0.950 . S
C385 C381 1.385 . S
C385 C384 1.374 . S
C386 C383 1.499 . S
C386 C387 1.373 . S
C386 C388 1.389 . S
C387 H366 0.950 . S
C387 C386 1.373 . S
C387 C403 1.377 . S
C388 C386 1.389 . S
C388 C389 1.524 . S
C388 C402 1.377 . S
C389 C388 1.524 . S
C389 C390 1.397 . S
C389 C394 1.363 . S
C390 H367 0.950 . S
C390 C389 1.397 . S
C390 C391 1.334 . S
C391 H368 0.950 . S
C391 C390 1.334 . S
C391 C392 1.287 . S
C392 C391 1.287 . S
C392 C393 1.524 . S
C392 H411 0.913 . S
C393 H369 0.950 . S
C393 C392 1.524 . S
C393 C394 1.415 . S
C394 H370 0.950 . S
C394 C389 1.363 . S
C394 C393 1.415 . S
C395 H371 0.951 . S
C395 C396 1.366 . S
C395 C397 1.388 . S
C396 C395 1.366 . S
C396 C400 1.385 . S
C397 H372 0.951 . S
C397 C395 1.388 . S
C397 C398 1.366 . S
C398 C397 1.366 . S
C398 C399 1.414 . S
C398 C401 1.499 . S
C399 H373 0.950 . S
C399 C398 1.414 . S
C399 C400 1.374 . S
C400 H374 0.950 . S
C400 C396 1.385 . S
C400 C399 1.374 . S
C401 C398 1.499 . S
C401 C402 1.373 . S
C401 C403 1.389 . S
C402 H375 0.950 . S
C402 C388 1.377 . S
C402 C401 1.373 . S
C403 C387 1.377 . S
C403 C401 1.389 . S
C403 C404 1.524 . S
C404 C403 1.524 . S
C404 C405 1.397 . S
C404 C409 1.363 . S
C405 H376 0.950 . S
C405 C404 1.397 . S
C405 C406 1.334 . S
C406 H377 0.950 . S
C406 C405 1.334 . S
C406 C407 1.287 . S
C407 C406 1.287 . S
C407 C408 1.524 . S
C407 H410 0.999 . S
C408 H378 0.950 . S
C408 C407 1.524 . S
C408 C409 1.415 . S
C409 H379 0.950 . S
C409 C404 1.363 . S
C409 C408 1.415 . S
H410 C407 0.999 . S
H411 C392 0.913 . S
H412 C430 0.951 . S
H413 C432 0.951 . S
H414 C434 0.950 . S
H415 C435 0.950 1_554 S
H416 C437 0.950 . S
H417 C440 0.950 1_554 S
H418 C441 0.950 . S
H419 C443 0.950 . S
H420 C444 0.950 . S
H421 C445 0.951 . S
H422 C447 0.951 . S
H423 C449 0.950 . S
H424 C450 0.950 . S
H425 C452 0.950 . S
H426 C455 0.950 . S
H427 C456 0.950 . S
H428 C458 0.950 . S
H429 C459 0.950 . S
C430 H412 0.951 . S
C430 C431 1.366 . S
C430 C432 1.388 . S
C431 C430 1.366 . S
C431 C435 1.385 . S
C432 H413 0.951 . S
C432 C430 1.388 . S
C432 C433 1.366 . S
C433 C432 1.366 . S
C433 C434 1.414 . S
C433 C436 1.499 . S
C434 H414 0.950 . S
C434 C433 1.414 . S
C434 C435 1.374 . S
C435 H415 0.950 1_556 S
C435 C431 1.385 . S
C435 C434 1.374 . S
C436 C433 1.499 . S
C436 C437 1.373 . S
C436 C438 1.389 . S
C437 H416 0.950 . S
C437 C436 1.373 . S
C437 C453 1.377 . S
C438 C436 1.389 . S
C438 C439 1.524 . S
C438 C452 1.377 . S
C439 C438 1.524 . S
C439 C440 1.397 . S
C439 C444 1.363 . S
C440 H417 0.950 1_556 S
C440 C439 1.397 . S
C440 C441 1.334 1_556 S
C441 H418 0.950 . S
C441 C440 1.334 1_554 S
C441 C442 1.287 1_554 S
C442 C441 1.287 1_556 S
C442 C443 1.524 . S
C442 H461 0.913 1_556 S
C443 H419 0.950 . S
C443 C442 1.524 . S
C443 C444 1.415 . S
C444 H420 0.950 . S
C444 C439 1.363 . S
C444 C443 1.415 . S
C445 H421 0.951 . S
C445 C446 1.366 . S
C445 C447 1.388 . S
C446 C445 1.366 . S
C446 C450 1.385 . S
C447 H422 0.951 . S
C447 C445 1.388 . S
C447 C448 1.366 . S
C448 C447 1.366 . S
C448 C449 1.414 . S
C448 C451 1.499 . S
C449 H423 0.950 . S
C449 C448 1.414 . S
C449 C450 1.374 . S
C450 H424 0.950 . S
C450 C446 1.385 . S
C450 C449 1.374 . S
C451 C448 1.499 . S
C451 C452 1.373 . S
C451 C453 1.389 . S
C452 H425 0.950 . S
C452 C438 1.377 . S
C452 C451 1.373 . S
C453 C437 1.377 . S
C453 C451 1.389 . S
C453 C454 1.524 . S
C454 C453 1.524 . S
C454 C455 1.397 . S
C454 C459 1.363 . S
C455 H426 0.950 . S
C455 C454 1.397 . S
C455 C456 1.334 . S
C456 H427 0.950 . S
C456 C455 1.334 . S
C456 C457 1.287 . S
C457 C456 1.287 . S
C457 C458 1.524 . S
C457 H460 0.999 . S
C458 H428 0.950 . S
C458 C457 1.524 . S
C458 C459 1.415 . S
C459 H429 0.950 . S
C459 C454 1.363 . S
C459 C458 1.415 . S
H460 C457 0.999 . S
H461 C442 0.913 1_554 S
H462 C480 0.951 . S
H463 C482 0.951 . S
H464 C484 0.950 . S
H465 C485 0.950 . S
H466 C487 0.950 . S
H467 C490 0.950 . S
H468 C491 0.950 . S
H469 C493 0.950 . S
H470 C494 0.950 . S
H471 C495 0.951 . S
H472 C497 0.951 . S
H473 C499 0.950 . S
H474 C500 0.950 . S
H475 C502 0.950 . S
H476 C505 0.950 . S
H477 C506 0.950 . S
H478 C508 0.950 . S
H479 C509 0.950 . S
C480 H462 0.951 . S
C480 C481 1.366 . S
C480 C482 1.388 . S
C481 C480 1.366 . S
C481 C485 1.385 . S
C482 H463 0.951 . S
C482 C480 1.388 . S
C482 C483 1.366 . S
C483 C482 1.366 . S
C483 C484 1.414 . S
C483 C486 1.499 . S
C484 H464 0.950 . S
C484 C483 1.414 . S
C484 C485 1.374 . S
C485 H465 0.950 . S
C485 C481 1.385 . S
C485 C484 1.374 . S
C486 C483 1.499 . S
C486 C487 1.373 . S
C486 C488 1.389 . S
C487 H466 0.950 . S
C487 C486 1.373 . S
C487 C503 1.377 . S
C488 C486 1.389 . S
C488 C489 1.524 . S
C488 C502 1.377 . S
C489 C488 1.524 . S
C489 C490 1.397 . S
C489 C494 1.363 . S
C490 H467 0.950 . S
C490 C489 1.397 . S
C490 C491 1.334 . S
C491 H468 0.950 . S
C491 C490 1.334 . S
C491 C492 1.287 . S
C492 C491 1.287 . S
C492 C493 1.524 . S
C492 H511 0.913 . S
C493 H469 0.950 . S
C493 C492 1.524 . S
C493 C494 1.415 . S
C494 H470 0.950 . S
C494 C489 1.363 . S
C494 C493 1.415 . S
C495 H471 0.951 . S
C495 C496 1.366 . S
C495 C497 1.388 . S
C496 C495 1.366 . S
C496 C500 1.385 . S
C497 H472 0.951 . S
C497 C495 1.388 . S
C497 C498 1.366 . S
C498 C497 1.366 . S
C498 C499 1.414 . S
C498 C501 1.499 . S
C499 H473 0.950 . S
C499 C498 1.414 . S
C499 C500 1.374 . S
C500 H474 0.950 . S
C500 C496 1.385 . S
C500 C499 1.374 . S
C501 C498 1.499 . S
C501 C502 1.373 . S
C501 C503 1.389 . S
C502 H475 0.950 . S
C502 C488 1.377 . S
C502 C501 1.373 . S
C503 C487 1.377 . S
C503 C501 1.389 . S
C503 C504 1.524 . S
C504 C503 1.524 . S
C504 C505 1.397 . S
C504 C509 1.363 . S
C505 H476 0.950 . S
C505 C504 1.397 . S
C505 C506 1.334 . S
C506 H477 0.950 . S
C506 C505 1.334 . S
C506 C507 1.287 . S
C507 C506 1.287 . S
C507 C508 1.524 . S
C507 H510 0.999 . S
C508 H478 0.950 . S
C508 C507 1.524 . S
C508 C509 1.415 . S
C509 H479 0.950 . S
C509 C504 1.363 . S
C509 C508 1.415 . S
H510 C507 0.999 . S
H511 C492 0.913 . S
H512 C530 0.951 . S
H513 C532 0.951 . S
H514 C534 0.950 . S
H515 C535 0.950 . S
H516 C537 0.950 . S
H517 C540 0.950 . S
H518 C541 0.950 . S
H519 C543 0.950 . S
H520 C544 0.950 . S
H521 C545 0.951 . S
H522 C547 0.951 . S
H523 C549 0.950 . S
H524 C550 0.950 . S
H525 C552 0.950 . S
H526 C555 0.950 . S
H527 C556 0.950 . S
H528 C558 0.950 . S
H529 C559 0.950 . S
C530 H512 0.951 . S
C530 C531 1.366 . S
C530 C532 1.388 . S
C531 C530 1.366 . S
C531 C535 1.385 . S
C532 H513 0.951 . S
C532 C530 1.388 . S
C532 C533 1.366 . S
C533 C532 1.366 . S
C533 C534 1.414 . S
C533 C536 1.499 . S
C534 H514 0.950 . S
C534 C533 1.414 . S
C534 C535 1.374 . S
C535 H515 0.950 . S
C535 C531 1.385 . S
C535 C534 1.374 . S
C536 C533 1.499 . S
C536 C537 1.373 . S
C536 C538 1.389 . S
C537 H516 0.950 . S
C537 C536 1.373 . S
C537 C553 1.377 1_565 S
C538 C536 1.389 . S
C538 C539 1.524 . S
C538 C552 1.377 1_565 S
C539 C538 1.524 . S
C539 C540 1.397 . S
C539 C544 1.363 . S
C540 H517 0.950 . S
C540 C539 1.397 . S
C540 C541 1.334 . S
C541 H518 0.950 . S
C541 C540 1.334 . S
C541 C542 1.287 . S
C542 C541 1.287 . S
C542 C543 1.524 . S
C542 H561 0.913 . S
C543 H519 0.950 . S
C543 C542 1.524 . S
C543 C544 1.415 . S
C544 H520 0.950 . S
C544 C539 1.363 . S
C544 C543 1.415 . S
C545 H521 0.951 . S
C545 C546 1.366 . S
C545 C547 1.388 . S
C546 C545 1.366 . S
C546 C550 1.385 . S
C547 H522 0.951 . S
C547 C545 1.388 . S
C547 C548 1.366 . S
C548 C547 1.366 . S
C548 C549 1.414 . S
C548 C551 1.499 . S
C549 H523 0.950 . S
C549 C548 1.414 . S
C549 C550 1.374 . S
C550 H524 0.950 . S
C550 C546 1.385 . S
C550 C549 1.374 . S
C551 C548 1.499 . S
C551 C552 1.373 . S
C551 C553 1.389 . S
C552 H525 0.950 . S
C552 C538 1.377 1_545 S
C552 C551 1.373 . S
C553 C537 1.377 1_545 S
C553 C551 1.389 . S
C553 C554 1.524 . S
C554 C553 1.524 . S
C554 C555 1.397 . S
C554 C559 1.363 . S
C555 H526 0.950 . S
C555 C554 1.397 . S
C555 C556 1.334 . S
C556 H527 0.950 . S
C556 C555 1.334 . S
C556 C557 1.287 . S
C557 C556 1.287 . S
C557 C558 1.524 . S
C557 H560 0.999 . S
C558 H528 0.950 . S
C558 C557 1.524 . S
C558 C559 1.415 . S
C559 H529 0.950 . S
C559 C554 1.363 . S
C559 C558 1.415 . S
H560 C557 0.999 . S
H561 C542 0.913 . S
H562 C580 0.951 . S
H563 C582 0.951 . S
H564 C584 0.950 . S
H565 C585 0.950 . S
H566 C587 0.950 . S
H567 C590 0.950 . S
H568 C591 0.950 . S
H569 C593 0.950 . S
H570 C594 0.950 . S
H571 C595 0.951 . S
H572 C597 0.951 . S
H573 C599 0.950 . S
H574 C600 0.950 . S
H575 C602 0.950 . S
H576 C605 0.950 . S
H577 C606 0.950 . S
H578 C608 0.950 . S
H579 C609 0.950 . S
C580 H562 0.951 . S
C580 C581 1.366 . S
C580 C582 1.388 . S
C581 C580 1.366 . S
C581 C585 1.385 . S
C582 H563 0.951 . S
C582 C580 1.388 . S
C582 C583 1.366 . S
C583 C582 1.366 . S
C583 C584 1.414 . S
C583 C586 1.499 . S
C584 H564 0.950 . S
C584 C583 1.414 . S
C584 C585 1.374 . S
C585 H565 0.950 . S
C585 C581 1.385 . S
C585 C584 1.374 . S
C586 C583 1.499 . S
C586 C587 1.373 . S
C586 C588 1.389 . S
C587 H566 0.950 . S
C587 C586 1.373 . S
C587 C603 1.377 1_655 S
C588 C586 1.389 . S
C588 C589 1.524 . S
C588 C602 1.377 1_655 S
C589 C588 1.524 . S
C589 C590 1.397 . S
C589 C594 1.363 . S
C590 H567 0.950 . S
C590 C589 1.397 . S
C590 C591 1.334 . S
C591 H568 0.950 . S
C591 C590 1.334 . S
C591 C592 1.287 . S
C592 C591 1.287 . S
C592 C593 1.524 . S
C592 H611 0.913 . S
C593 H569 0.950 . S
C593 C592 1.524 . S
C593 C594 1.415 . S
C594 H570 0.950 . S
C594 C589 1.363 . S
C594 C593 1.415 . S
C595 H571 0.951 . S
C595 C596 1.366 . S
C595 C597 1.388 . S
C596 C595 1.366 . S
C596 C600 1.385 . S
C597 H572 0.951 . S
C597 C595 1.388 . S
C597 C598 1.366 . S
C598 C597 1.366 . S
C598 C599 1.414 . S
C598 C601 1.499 . S
C599 H573 0.950 . S
C599 C598 1.414 . S
C599 C600 1.374 . S
C600 H574 0.950 . S
C600 C596 1.385 . S
C600 C599 1.374 . S
C601 C598 1.499 . S
C601 C602 1.373 . S
C601 C603 1.389 . S
C602 H575 0.950 . S
C602 C588 1.377 1_455 S
C602 C601 1.373 . S
C603 C587 1.377 1_455 S
C603 C601 1.389 . S
C603 C604 1.524 . S
C604 C603 1.524 . S
C604 C605 1.397 . S
C604 C609 1.363 . S
C605 H576 0.950 . S
C605 C604 1.397 . S
C605 C606 1.334 . S
C606 H577 0.950 . S
C606 C605 1.334 . S
C606 C607 1.287 . S
C607 C606 1.287 . S
C607 C608 1.524 . S
C607 H610 0.999 . S
C608 H578 0.950 . S
C608 C607 1.524 . S
C608 C609 1.415 . S
C609 H579 0.950 . S
C609 C604 1.363 . S
C609 C608 1.415 . S
H610 C607 0.999 . S
H611 C592 0.913 . S
H612 C630 0.951 . S
H613 C632 0.951 . S
H614 C634 0.950 . S
H615 C635 0.950 . S
H616 C637 0.950 . S
H617 C640 0.950 . S
H618 C641 0.950 . S
H619 C643 0.950 . S
H620 C644 0.940 1_545 S
H621 C645 0.951 . S
H622 C647 0.951 . S
H623 C649 0.950 . S
H624 C650 0.950 . S
H625 C652 0.950 . S
H626 C655 0.950 . S
H627 C656 0.950 . S
H628 C658 0.950 . S
H629 C659 0.940 1_565 S
C630 H612 0.951 . S
C630 C631 1.366 . S
C630 C632 1.388 . S
C631 C630 1.366 . S
C631 C635 1.385 . S
C632 H613 0.951 . S
C632 C630 1.388 . S
C632 C633 1.366 . S
C633 C632 1.366 . S
C633 C634 1.414 . S
C633 C636 1.499 . S
C634 H614 0.950 . S
C634 C633 1.414 . S
C634 C635 1.374 . S
C635 H615 0.950 . S
C635 C631 1.385 . S
C635 C634 1.374 . S
C636 C633 1.499 . S
C636 C637 1.373 . S
C636 C638 1.389 . S
C637 H616 0.950 . S
C637 C636 1.373 . S
C637 C653 1.377 1_565 S
C638 C636 1.389 . S
C638 C639 1.524 . S
C638 C652 1.377 1_565 S
C639 C638 1.524 . S
C639 C640 1.397 . S
C639 C644 1.363 . S
C640 H617 0.950 . S
C640 C639 1.397 . S
C640 C641 1.334 . S
C641 H618 0.950 . S
C641 C640 1.334 . S
C641 C642 1.287 . S
C642 C641 1.287 . S
C642 C643 1.524 . S
C642 H661 0.913 . S
C643 H619 0.950 . S
C643 C642 1.524 . S
C643 C644 1.415 . S
C644 H620 0.940 1_565 S
C644 C639 1.363 . S
C644 C643 1.415 . S
C645 H621 0.951 . S
C645 C646 1.366 . S
C645 C647 1.388 . S
C646 C645 1.366 . S
C646 C650 1.385 . S
C647 H622 0.951 . S
C647 C645 1.388 . S
C647 C648 1.366 . S
C648 C647 1.366 . S
C648 C649 1.414 . S
C648 C651 1.499 . S
C649 H623 0.950 . S
C649 C648 1.414 . S
C649 C650 1.374 . S
C650 H624 0.950 . S
C650 C646 1.385 . S
C650 C649 1.374 . S
C651 C648 1.499 . S
C651 C652 1.373 . S
C651 C653 1.389 . S
C652 H625 0.950 . S
C652 C638 1.377 1_545 S
C652 C651 1.373 . S
C653 C637 1.377 1_545 S
C653 C651 1.389 . S
C653 C654 1.524 . S
C654 C653 1.524 . S
C654 C655 1.397 . S
C654 C659 1.363 . S
C655 H626 0.950 . S
C655 C654 1.397 . S
C655 C656 1.334 . S
C656 H627 0.950 . S
C656 C655 1.334 . S
C656 C657 1.287 . S
C657 C656 1.287 . S
C657 C658 1.524 . S
C657 H660 0.999 . S
C658 H628 0.950 . S
C658 C657 1.524 . S
C658 C659 1.415 . S
C659 H629 0.940 1_545 S
C659 C654 1.363 . S
C659 C658 1.415 . S
H660 C657 0.999 . S
H661 C642 0.913 . S
H662 C680 0.951 . S
H663 C682 0.951 . S
H664 C684 0.950 1_556 S
H665 C685 0.950 . S
H666 C687 0.950 1_556 S
H667 C690 0.950 . S
H668 C691 0.950 . S
H669 C693 0.950 . S
H670 C694 0.950 . S
H671 C695 0.951 . S
H672 C697 0.949 1_556 S
H673 C699 0.950 . S
H674 C700 0.950 . S
H675 C702 0.950 . S
H676 C705 0.950 . S
H677 C706 0.950 . S
H678 C708 0.950 . S
H679 C709 0.950 . S
C680 H662 0.951 . S
C680 C681 1.366 . S
C680 C682 1.388 . S
C681 C680 1.366 . S
C681 C685 1.385 1_554 S
C682 H663 0.951 . S
C682 C680 1.388 . S
C682 C683 1.366 . S
C683 C682 1.366 . S
C683 C684 1.414 . S
C683 C686 1.499 . S
C684 H664 0.950 1_554 S
C684 C683 1.414 . S
C684 C685 1.374 1_554 S
C685 H665 0.950 . S
C685 C681 1.385 1_556 S
C685 C684 1.374 1_556 S
C686 C683 1.499 . S
C686 C687 1.373 . S
C686 C688 1.389 . S
C687 H666 0.950 1_554 S
C687 C686 1.373 . S
C687 C703 1.377 1_655 S
C688 C686 1.389 . S
C688 C689 1.524 . S
C688 C702 1.377 1_655 S
C689 C688 1.524 . S
C689 C690 1.397 . S
C689 C694 1.363 . S
C690 H667 0.950 . S
C690 C689 1.397 . S
C690 C691 1.334 . S
C691 H668 0.950 . S
C691 C690 1.334 . S
C691 C692 1.287 . S
C692 C691 1.287 . S
C692 C693 1.524 . S
C692 H711 0.913 . S
C693 H669 0.950 . S
C693 C692 1.524 . S
C693 C694 1.415 . S
C694 H670 0.950 . S
C694 C689 1.363 . S
C694 C693 1.415 . S
C695 H671 0.951 . S
C695 C696 1.366 . S
C695 C697 1.388 . S
C696 C695 1.366 . S
C696 C700 1.385 . S
C697 H672 0.949 1_554 S
C697 C695 1.388 . S
C697 C698 1.366 . S
C698 C697 1.366 . S
C698 C699 1.414 . S
C698 C701 1.499 . S
C699 H673 0.950 . S
C699 C698 1.414 . S
C699 C700 1.374 . S
C700 H674 0.950 . S
C700 C696 1.385 . S
C700 C699 1.374 . S
C701 C698 1.499 . S
C701 C702 1.373 . S
C701 C703 1.389 . S
C702 H675 0.950 . S
C702 C688 1.377 1_455 S
C702 C701 1.373 . S
C703 C687 1.377 1_455 S
C703 C701 1.389 . S
C703 C704 1.524 1_554 S
C704 C703 1.524 1_556 S
C704 C705 1.397 1_556 S
C704 C709 1.363 . S
C705 H676 0.950 . S
C705 C704 1.397 1_554 S
C705 C706 1.334 1_554 S
C706 H677 0.950 . S
C706 C705 1.334 1_556 S
C706 C707 1.287 . S
C707 C706 1.287 . S
C707 C708 1.524 . S
C707 H710 0.999 . S
C708 H678 0.950 . S
C708 C707 1.524 . S
C708 C709 1.415 . S
C709 H679 0.950 . S
C709 C704 1.363 . S
C709 C708 1.415 . S
H710 C707 0.999 . S
H711 C692 0.913 . S
H712 C730 0.951 . S
H713 C732 0.951 . S
H714 C734 0.950 . S
H715 C735 0.950 . S
H716 C737 0.939 1_556 S
H717 C740 0.950 . S
H718 C741 0.950 . S
H719 C743 0.950 . S
H720 C744 0.950 . S
H721 C745 0.951 . S
H722 C747 0.951 . S
H723 C749 0.950 . S
H724 C750 0.950 . S
H725 C752 0.950 . S
H726 C755 0.950 . S
H727 C756 0.950 . S
H728 C758 0.950 . S
H729 C759 0.950 . S
C730 H712 0.951 . S
C730 C731 1.366 . S
C730 C732 1.388 . S
C731 C730 1.366 . S
C731 C735 1.385 . S
C732 H713 0.951 . S
C732 C730 1.388 . S
C732 C733 1.366 . S
C733 C732 1.366 . S
C733 C734 1.414 . S
C733 C736 1.499 1_556 S
C734 H714 0.950 . S
C734 C733 1.414 . S
C734 C735 1.374 . S
C735 H715 0.950 . S
C735 C731 1.385 . S
C735 C734 1.374 . S
C736 C733 1.499 1_554 S
C736 C737 1.373 . S
C736 C738 1.389 . S
C737 H716 0.939 1_554 S
C737 C736 1.373 . S
C737 C753 1.377 . S
C738 C736 1.389 . S
C738 C739 1.524 . S
C738 C752 1.377 . S
C739 C738 1.524 . S
C739 C740 1.397 1_554 S
C739 C744 1.363 . S
C740 H717 0.950 . S
C740 C739 1.397 1_556 S
C740 C741 1.334 . S
C741 H718 0.950 . S
C741 C740 1.334 . S
C741 C742 1.287 1_556 S
C742 C741 1.287 1_554 S
C742 C743 1.524 . S
C742 H761 0.913 . S
C743 H719 0.950 . S
C743 C742 1.524 . S
C743 C744 1.415 . S
C744 H720 0.950 . S
C744 C739 1.363 . S
C744 C743 1.415 . S
C745 H721 0.951 . S
C745 C746 1.366 . S
C745 C747 1.388 . S
C746 C745 1.366 . S
C746 C750 1.385 . S
C747 H722 0.951 . S
C747 C745 1.388 . S
C747 C748 1.366 . S
C748 C747 1.366 . S
C748 C749 1.414 . S
C748 C751 1.499 . S
C749 H723 0.950 . S
C749 C748 1.414 . S
C749 C750 1.374 . S
C750 H724 0.950 . S
C750 C746 1.385 . S
C750 C749 1.374 . S
C751 C748 1.499 . S
C751 C752 1.373 . S
C751 C753 1.389 . S
C752 H725 0.950 . S
C752 C738 1.377 . S
C752 C751 1.373 . S
C753 C737 1.377 . S
C753 C751 1.389 . S
C753 C754 1.524 . S
C754 C753 1.524 . S
C754 C755 1.397 . S
C754 C759 1.363 . S
C755 H726 0.950 . S
C755 C754 1.397 . S
C755 C756 1.334 . S
C756 H727 0.950 . S
C756 C755 1.334 . S
C756 C757 1.287 . S
C757 C756 1.287 . S
C757 C758 1.524 . S
C757 H760 0.999 . S
C758 H728 0.950 . S
C758 C757 1.524 . S
C758 C759 1.415 . S
C759 H729 0.950 . S
C759 C754 1.363 . S
C759 C758 1.415 . S
H760 C757 0.999 . S
H761 C742 0.913 . S
H762 C780 0.951 . S
H763 C782 0.951 . S
H764 C784 0.950 . S
H765 C785 0.950 . S
H766 C787 0.950 . S
H767 C790 0.950 . S
H768 C791 0.950 . S
H769 C793 0.950 . S
H770 C794 0.950 . S
H771 C795 0.951 . S
H772 C797 0.951 . S
H773 C799 0.950 . S
H774 C800 0.950 . S
H775 C802 0.950 . S
H776 C805 0.950 . S
H777 C806 0.950 . S
H778 C808 0.950 . S
H779 C809 0.950 . S
C780 H762 0.951 . S
C780 C781 1.366 . S
C780 C782 1.388 . S
C781 C780 1.366 . S
C781 C785 1.385 . S
C782 H763 0.951 . S
C782 C780 1.388 . S
C782 C783 1.366 . S
C783 C782 1.366 . S
C783 C784 1.414 . S
C783 C786 1.499 . S
C784 H764 0.950 . S
C784 C783 1.414 . S
C784 C785 1.374 . S
C785 H765 0.950 . S
C785 C781 1.385 . S
C785 C784 1.374 . S
C786 C783 1.499 . S
C786 C787 1.373 . S
C786 C788 1.389 . S
C787 H766 0.950 . S
C787 C786 1.373 . S
C787 C803 1.377 . S
C788 C786 1.389 . S
C788 C789 1.524 . S
C788 C802 1.377 . S
C789 C788 1.524 . S
C789 C790 1.397 . S
C789 C794 1.363 . S
C790 H767 0.950 . S
C790 C789 1.397 . S
C790 C791 1.334 . S
C791 H768 0.950 . S
C791 C790 1.334 . S
C791 C792 1.287 . S
C792 C791 1.287 . S
C792 C793 1.524 . S
C792 H811 0.913 . S
C793 H769 0.950 . S
C793 C792 1.524 . S
C793 C794 1.415 . S
C794 H770 0.950 . S
C794 C789 1.363 . S
C794 C793 1.415 . S
C795 H771 0.951 . S
C795 C796 1.366 . S
C795 C797 1.388 . S
C796 C795 1.366 . S
C796 C800 1.385 . S
C797 H772 0.951 . S
C797 C795 1.388 . S
C797 C798 1.366 . S
C798 C797 1.366 . S
C798 C799 1.414 . S
C798 C801 1.499 . S
C799 H773 0.950 . S
C799 C798 1.414 . S
C799 C800 1.374 . S
C800 H774 0.950 . S
C800 C796 1.385 . S
C800 C799 1.374 . S
C801 C798 1.499 . S
C801 C802 1.373 . S
C801 C803 1.389 . S
C802 H775 0.950 . S
C802 C788 1.377 . S
C802 C801 1.373 . S
C803 C787 1.377 . S
C803 C801 1.389 . S
C803 C804 1.524 . S
C804 C803 1.524 . S
C804 C805 1.397 . S
C804 C809 1.363 . S
C805 H776 0.950 . S
C805 C804 1.397 . S
C805 C806 1.334 . S
C806 H777 0.950 . S
C806 C805 1.334 . S
C806 C807 1.287 . S
C807 C806 1.287 . S
C807 C808 1.524 . S
C807 H810 0.999 . S
C808 H778 0.950 . S
C808 C807 1.524 . S
C808 C809 1.415 . S
C809 H779 0.950 . S
C809 C804 1.363 . S
C809 C808 1.415 . S
H810 C807 0.999 . S
H811 C792 0.913 . S
H812 C830 0.951 . S
H813 C832 0.951 . S
H814 C834 0.950 . S
H815 C835 0.950 . S
H816 C837 0.950 . S
H817 C840 0.950 . S
H818 C841 0.950 . S
H819 C843 0.950 . S
H820 C844 0.950 . S
H821 C845 0.951 . S
H822 C847 0.951 . S
H823 C849 0.950 . S
H824 C850 0.950 . S
H825 C852 0.950 . S
H826 C855 0.950 . S
H827 C856 0.950 . S
H828 C858 0.950 . S
H829 C859 0.950 . S
C830 H812 0.951 . S
C830 C831 1.366 . S
C830 C832 1.388 . S
C831 C830 1.366 . S
C831 C835 1.385 . S
C832 H813 0.951 . S
C832 C830 1.388 . S
C832 C833 1.366 . S
C833 C832 1.366 . S
C833 C834 1.414 . S
C833 C836 1.499 . S
C834 H814 0.950 . S
C834 C833 1.414 . S
C834 C835 1.374 . S
C835 H815 0.950 . S
C835 C831 1.385 . S
C835 C834 1.374 . S
C836 C833 1.499 . S
C836 C837 1.373 . S
C836 C838 1.389 . S
C837 H816 0.950 . S
C837 C836 1.373 . S
C837 C853 1.377 . S
C838 C836 1.389 . S
C838 C839 1.524 . S
C838 C852 1.377 . S
C839 C838 1.524 . S
C839 C840 1.397 . S
C839 C844 1.363 . S
C840 H817 0.950 . S
C840 C839 1.397 . S
C840 C841 1.334 . S
C841 H818 0.950 . S
C841 C840 1.334 . S
C841 C842 1.287 . S
C842 C841 1.287 . S
C842 C843 1.524 . S
C842 H861 0.913 . S
C843 H819 0.950 . S
C843 C842 1.524 . S
C843 C844 1.415 . S
C844 H820 0.950 . S
C844 C839 1.363 . S
C844 C843 1.415 . S
C845 H821 0.951 . S
C845 C846 1.366 . S
C845 C847 1.388 . S
C846 C845 1.366 . S
C846 C850 1.385 . S
C847 H822 0.951 . S
C847 C845 1.388 . S
C847 C848 1.366 . S
C848 C847 1.366 . S
C848 C849 1.414 . S
C848 C851 1.499 . S
C849 H823 0.950 . S
C849 C848 1.414 . S
C849 C850 1.374 . S
C850 H824 0.950 . S
C850 C846 1.385 . S
C850 C849 1.374 . S
C851 C848 1.499 . S
C851 C852 1.373 . S
C851 C853 1.389 . S
C852 H825 0.950 . S
C852 C838 1.377 . S
C852 C851 1.373 . S
C853 C837 1.377 . S
C853 C851 1.389 . S
C853 C854 1.524 . S
C854 C853 1.524 . S
C854 C855 1.397 . S
C854 C859 1.363 . S
C855 H826 0.950 . S
C855 C854 1.397 . S
C855 C856 1.334 . S
C856 H827 0.950 . S
C856 C855 1.334 . S
C856 C857 1.287 . S
C857 C856 1.287 . S
C857 C858 1.524 . S
C857 H860 0.999 . S
C858 H828 0.950 . S
C858 C857 1.524 . S
C858 C859 1.415 . S
C859 H829 0.950 . S
C859 C854 1.363 . S
C859 C858 1.415 . S
H860 C857 0.999 . S
H861 C842 0.913 . S
H862 C880 0.951 . S
H863 C882 0.951 . S
H864 C884 0.950 . S
H865 C885 0.950 . S
H866 C887 0.950 . S
H867 C890 0.950 . S
H868 C891 0.950 . S
H869 C893 0.950 . S
H870 C894 0.950 . S
H871 C895 0.951 . S
H872 C897 0.951 . S
H873 C899 0.950 . S
H874 C900 0.950 . S
H875 C902 0.950 . S
H876 C905 0.950 . S
H877 C906 0.950 . S
H878 C908 0.950 . S
H879 C909 0.950 . S
C880 H862 0.951 . S
C880 C881 1.366 . S
C880 C882 1.388 . S
C881 C880 1.366 . S
C881 C885 1.385 . S
C882 H863 0.951 . S
C882 C880 1.388 . S
C882 C883 1.366 . S
C883 C882 1.366 . S
C883 C884 1.414 . S
C883 C886 1.499 . S
C884 H864 0.950 . S
C884 C883 1.414 . S
C884 C885 1.374 . S
C885 H865 0.950 . S
C885 C881 1.385 . S
C885 C884 1.374 . S
C886 C883 1.499 . S
C886 C887 1.373 . S
C886 C888 1.389 . S
C887 H866 0.950 . S
C887 C886 1.373 . S
C887 C903 1.377 . S
C888 C886 1.389 . S
C888 C889 1.524 . S
C888 C902 1.377 . S
C889 C888 1.524 . S
C889 C890 1.397 . S
C889 C894 1.363 . S
C890 H867 0.950 . S
C890 C889 1.397 . S
C890 C891 1.334 . S
C891 H868 0.950 . S
C891 C890 1.334 . S
C891 C892 1.287 . S
C892 C891 1.287 . S
C892 C893 1.524 . S
C892 H911 0.913 . S
C893 H869 0.950 . S
C893 C892 1.524 . S
C893 C894 1.415 . S
C894 H870 0.950 . S
C894 C889 1.363 . S
C894 C893 1.415 . S
C895 H871 0.951 . S
C895 C896 1.366 . S
C895 C897 1.388 . S
C896 C895 1.366 . S
C896 C900 1.385 . S
C897 H872 0.951 . S
C897 C895 1.388 . S
C897 C898 1.366 . S
C898 C897 1.366 . S
C898 C899 1.414 . S
C898 C901 1.499 . S
C899 H873 0.950 . S
C899 C898 1.414 . S
C899 C900 1.374 . S
C900 H874 0.950 . S
C900 C896 1.385 . S
C900 C899 1.374 . S
C901 C898 1.499 . S
C901 C902 1.373 . S
C901 C903 1.389 . S
C902 H875 0.950 . S
C902 C888 1.377 . S
C902 C901 1.373 . S
C903 C887 1.377 . S
C903 C901 1.389 . S
C903 C904 1.524 . S
C904 C903 1.524 . S
C904 C905 1.397 . S
C904 C909 1.363 . S
C905 H876 0.950 . S
C905 C904 1.397 . S
C905 C906 1.334 . S
C906 H877 0.950 . S
C906 C905 1.334 . S
C906 C907 1.287 . S
C907 C906 1.287 . S
C907 C908 1.524 . S
C907 H910 0.999 . S
C908 H878 0.950 . S
C908 C907 1.524 . S
C908 C909 1.415 . S
C909 H879 0.950 . S
C909 C904 1.363 . S
C909 C908 1.415 . S
H910 C907 0.999 . S
H911 C892 0.913 . S
C131 C8 1.051 . S
C146 C92 1.051 . S
C181 C22 1.051 . S
C196 C106 1.051 . S
C231 C64 1.051 . S
C246 C36 1.051 . S
C281 C78 1.050 . S
C296 C50 1.050 . S
C331 C6 1.518 . S
C346 C76 1.518 . S
C381 C20 1.518 . S
C396 C90 1.518 . S
C431 C104 1.518 . S
C446 C34 1.517 . S
C481 C48 1.519 . S
C496 C62 1.519 . S
C531 C65 1.558 . S
C546 C9 1.558 . S
C581 C23 1.559 . S
C596 C79 1.559 . S
C631 C37 1.558 . S
C646 C93 1.558 . S
C681 C107 1.558 . S
C696 C51 1.559 . S
C731 C91 1.319 . S
C746 C7 1.318 . S
C781 C105 1.319 . S
C796 C21 1.318 . S
C831 C35 1.319 . S
C846 C63 1.319 . S
C881 C49 1.318 . S
C896 C77 1.318 . S
